# Generated by pormake.
# Topology uml, (4)-cn, num edge types: 1
# Building blocks:
#     Node 0, Type 0, BuildingBlock: MUDLON_clean_sbu_0, # of connection points: 4
#     Node 1, Type 0, BuildingBlock: MUDLON_clean_sbu_0, # of connection points: 4
#     Node 2, Type 0, BuildingBlock: MUDLON_clean_sbu_0, # of connection points: 4
#     Node 3, Type 0, BuildingBlock: MUDLON_clean_sbu_0, # of connection points: 4
#     Node 4, Type 0, BuildingBlock: MUDLON_clean_sbu_0, # of connection points: 4
#     Node 5, Type 0, BuildingBlock: MUDLON_clean_sbu_0, # of connection points: 4
#     Node 6, Type 0, BuildingBlock: MUDLON_clean_sbu_0, # of connection points: 4
#     Node 7, Type 0, BuildingBlock: MUDLON_clean_sbu_0, # of connection points: 4
#     Node 8, Type 0, BuildingBlock: MUDLON_clean_sbu_0, # of connection points: 4
#     Node 9, Type 0, BuildingBlock: MUDLON_clean_sbu_0, # of connection points: 4
#     Node 10, Type 0, BuildingBlock: MUDLON_clean_sbu_0, # of connection points: 4
#     Node 11, Type 0, BuildingBlock: MUDLON_clean_sbu_0, # of connection points: 4
#     Node 12, Type 0, BuildingBlock: MUDLON_clean_sbu_0, # of connection points: 4
#     Node 13, Type 0, BuildingBlock: MUDLON_clean_sbu_0, # of connection points: 4
#     Node 14, Type 0, BuildingBlock: MUDLON_clean_sbu_0, # of connection points: 4
#     Node 15, Type 0, BuildingBlock: MUDLON_clean_sbu_0, # of connection points: 4
#     Node 16, Type 0, BuildingBlock: MUDLON_clean_sbu_0, # of connection points: 4
#     Node 17, Type 0, BuildingBlock: MUDLON_clean_sbu_0, # of connection points: 4
#     Node 18, Type 0, BuildingBlock: MUDLON_clean_sbu_0, # of connection points: 4
#     Node 19, Type 0, BuildingBlock: MUDLON_clean_sbu_0, # of connection points: 4
#     Node 20, Type 0, BuildingBlock: MUDLON_clean_sbu_0, # of connection points: 4
#     Node 21, Type 0, BuildingBlock: MUDLON_clean_sbu_0, # of connection points: 4
#     Node 22, Type 0, BuildingBlock: MUDLON_clean_sbu_0, # of connection points: 4
#     Node 23, Type 0, BuildingBlock: MUDLON_clean_sbu_0, # of connection points: 4
#     Node 24, Type 0, BuildingBlock: MUDLON_clean_sbu_0, # of connection points: 4
#     Node 25, Type 0, BuildingBlock: MUDLON_clean_sbu_0, # of connection points: 4
#     Node 26, Type 0, BuildingBlock: MUDLON_clean_sbu_0, # of connection points: 4
#     Node 27, Type 0, BuildingBlock: MUDLON_clean_sbu_0, # of connection points: 4
#     Node 28, Type 0, BuildingBlock: MUDLON_clean_sbu_0, # of connection points: 4
#     Node 29, Type 0, BuildingBlock: MUDLON_clean_sbu_0, # of connection points: 4
#     Node 30, Type 0, BuildingBlock: MUDLON_clean_sbu_0, # of connection points: 4
#     Node 31, Type 0, BuildingBlock: MUDLON_clean_sbu_0, # of connection points: 4
#     Node 32, Type 0, BuildingBlock: MUDLON_clean_sbu_0, # of connection points: 4
#     Node 33, Type 0, BuildingBlock: MUDLON_clean_sbu_0, # of connection points: 4
#     Node 34, Type 0, BuildingBlock: MUDLON_clean_sbu_0, # of connection points: 4
#     Node 35, Type 0, BuildingBlock: MUDLON_clean_sbu_0, # of connection points: 4
#     Edge 36, Type (0, 0), None
#     Edge 37, Type (0, 0), None
#     Edge 38, Type (0, 0), None
#     Edge 39, Type (0, 0), None
#     Edge 40, Type (0, 0), None
#     Edge 41, Type (0, 0), None
#     Edge 42, Type (0, 0), None
#     Edge 43, Type (0, 0), None
#     Edge 44, Type (0, 0), None
#     Edge 45, Type (0, 0), None
#     Edge 46, Type (0, 0), None
#     Edge 47, Type (0, 0), None
#     Edge 48, Type (0, 0), None
#     Edge 49, Type (0, 0), None
#     Edge 50, Type (0, 0), None
#     Edge 51, Type (0, 0), None
#     Edge 52, Type (0, 0), None
#     Edge 53, Type (0, 0), None
#     Edge 54, Type (0, 0), None
#     Edge 55, Type (0, 0), None
#     Edge 56, Type (0, 0), None
#     Edge 57, Type (0, 0), None
#     Edge 58, Type (0, 0), None
#     Edge 59, Type (0, 0), None
#     Edge 60, Type (0, 0), None
#     Edge 61, Type (0, 0), None
#     Edge 62, Type (0, 0), None
#     Edge 63, Type (0, 0), None
#     Edge 64, Type (0, 0), None
#     Edge 65, Type (0, 0), None
#     Edge 66, Type (0, 0), None
#     Edge 67, Type (0, 0), None
#     Edge 68, Type (0, 0), None
#     Edge 69, Type (0, 0), None
#     Edge 70, Type (0, 0), None
#     Edge 71, Type (0, 0), None
#     Edge 72, Type (0, 0), None
#     Edge 73, Type (0, 0), None
#     Edge 74, Type (0, 0), None
#     Edge 75, Type (0, 0), None
#     Edge 76, Type (0, 0), None
#     Edge 77, Type (0, 0), None
#     Edge 78, Type (0, 0), None
#     Edge 79, Type (0, 0), None
#     Edge 80, Type (0, 0), None
#     Edge 81, Type (0, 0), None
#     Edge 82, Type (0, 0), None
#     Edge 83, Type (0, 0), None
#     Edge 84, Type (0, 0), None
#     Edge 85, Type (0, 0), None
#     Edge 86, Type (0, 0), None
#     Edge 87, Type (0, 0), None
#     Edge 88, Type (0, 0), None
#     Edge 89, Type (0, 0), None
#     Edge 90, Type (0, 0), None
#     Edge 91, Type (0, 0), None
#     Edge 92, Type (0, 0), None
#     Edge 93, Type (0, 0), None
#     Edge 94, Type (0, 0), None
#     Edge 95, Type (0, 0), None
#     Edge 96, Type (0, 0), None
#     Edge 97, Type (0, 0), None
#     Edge 98, Type (0, 0), None
#     Edge 99, Type (0, 0), None
#     Edge 100, Type (0, 0), None
#     Edge 101, Type (0, 0), None
#     Edge 102, Type (0, 0), None
#     Edge 103, Type (0, 0), None
#     Edge 104, Type (0, 0), None
#     Edge 105, Type (0, 0), None
#     Edge 106, Type (0, 0), None
#     Edge 107, Type (0, 0), None
# Relax obj value: 0.065
# Max RMSD: 0.178
# Mean RMSD: 0.173
data_MOF--net-uml--node1-MUDLON_clean_sbu_0--edge1-none
_symmetry_space_group_name_H-M    P1
_symmetry_Int_Tables_number       1
_symmetry_cell_setting            triclinic
loop_
_symmetry_equiv_pos_as_xyz
'x, y, z'
_cell_length_a     47.886497
_cell_length_b     47.28069
_cell_length_c     13.884123
_cell_angle_alpha  89.786409
_cell_angle_beta   89.999111
_cell_angle_gamma 120.51314
loop_
_atom_site_label
_atom_site_type_symbol
_atom_site_fract_x
_atom_site_fract_y
_atom_site_fract_z
_atom_type_partial_charge
Mg0 Mg 0.36179 0.1133 0.17197 0.0
C1 C 0.3435 0.16259 0.18327 0.0
O2 O 0.31614 0.13438 0.17933 0.0
C3 C 0.3837 0.07079 0.10882 0.0
O4 O 0.35201 0.05379 0.11781 0.0
C5 C 0.34932 0.09227 0.37712 0.0
O6 O 0.38108 0.1105 0.37761 0.0
O7 O 0.33421 0.08715 0.29807 0.0
O8 O 0.37026 0.16277 0.18431 0.0
O9 O 0.33254 0.09841 0.04548 0.0
C10 C 0.34922 0.1094 0.96903 0.0
O11 O 0.38097 0.12677 0.97407 0.0
O12 O 0.39865 0.1008 0.13422 0.0
Mg13 Mg 0.91118 0.25975 0.19436 0.0
C14 C 0.86071 0.19077 0.19431 0.0
O15 O 0.88782 0.19015 0.19511 0.0
C16 C 0.91631 0.32687 0.12069 0.0
O17 O 0.88755 0.31149 0.08048 0.0
C18 C 0.93216 0.26862 0.39944 0.0
O19 O 0.91858 0.28676 0.39774 0.0
O20 O 0.93378 0.25508 0.3226 0.0
O21 O 0.86193 0.21839 0.19513 0.0
O22 O 0.93058 0.24978 0.06974 0.0
C23 C 0.91935 0.25466 0.99284 0.0
O24 O 0.89808 0.26428 0.99751 0.0
O25 O 0.92643 0.31128 0.17092 0.0
Mg26 Mg 0.76209 0.66475 0.17875 0.0
C27 C 0.83107 0.68612 0.18361 0.0
O28 O 0.83112 0.71388 0.17845 0.0
C29 C 0.69741 0.6398 0.11949 0.0
O30 O 0.71148 0.6717 0.13143 0.0
C31 C 0.75053 0.67496 0.38239 0.0
O32 O 0.73577 0.64277 0.38012 0.0
O33 O 0.76269 0.69126 0.3055 0.0
O34 O 0.8041 0.65901 0.18742 0.0
O35 O 0.77396 0.69351 0.05077 0.0
C36 C 0.76769 0.67586 0.97622 0.0
O37 O 0.75538 0.64404 0.98512 0.0
O38 O 0.71295 0.62556 0.14292 0.0
Mg39 Mg 0.11324 0.36999 0.33769 0.0
C40 C 0.15947 0.34626 0.33027 0.0
O41 O 0.13154 0.31876 0.33803 0.0
C42 C 0.08555 0.40778 0.41908 0.0
O43 O 0.06593 0.3775 0.4479 0.0
C44 C 0.09454 0.36012 0.13304 0.0
O45 O 0.11572 0.39174 0.1348 0.0
O46 O 0.08658 0.34394 0.21135 0.0
O47 O 0.16009 0.37356 0.32573 0.0
O48 O 0.09598 0.34135 0.46619 0.0
C49 C 0.10991 0.35795 0.54083 0.0
O50 O 0.13161 0.38931 0.53272 0.0
O51 O 0.10952 0.41375 0.36523 0.0
Mg52 Mg 0.65807 0.76239 0.34968 0.0
C53 C 0.67693 0.8314 0.33883 0.0
O54 O 0.70463 0.83198 0.34144 0.0
C55 C 0.63553 0.69709 0.41262 0.0
O56 O 0.66715 0.71232 0.40193 0.0
C57 C 0.6697 0.75261 0.14511 0.0
O58 O 0.6379 0.7376 0.14564 0.0
O59 O 0.68511 0.76414 0.22312 0.0
O60 O 0.65043 0.80379 0.33891 0.0
O61 O 0.68716 0.77601 0.47617 0.0
C62 C 0.67024 0.76948 0.55221 0.0
O63 O 0.63862 0.75572 0.54605 0.0
O64 O 0.62074 0.71201 0.38777 0.0
Mg65 Mg 0.26706 0.90555 0.36154 0.0
C66 C 0.19882 0.85987 0.34635 0.0
O67 O 0.20206 0.88915 0.34959 0.0
C68 C 0.33107 0.94784 0.42112 0.0
O69 O 0.31599 0.96431 0.40937 0.0
C70 C 0.27482 0.92443 0.15707 0.0
O71 O 0.28402 0.90257 0.15806 0.0
O72 O 0.26743 0.93259 0.23578 0.0
O73 O 0.22415 0.85737 0.34763 0.0
O74 O 0.2542 0.92126 0.48915 0.0
C75 C 0.26127 0.91151 0.56566 0.0
O76 O 0.27564 0.89417 0.56052 0.0
O77 O 0.31637 0.91759 0.39813 0.0
Mg78 Mg 0.64665 0.90317 0.84167 0.0
C79 C 0.66252 0.91798 0.04993 0.0
O80 O 0.63181 0.89497 0.05338 0.0
C81 C 0.69181 0.93733 0.66567 0.0
O82 O 0.71461 0.94524 0.73023 0.0
C83 C 0.60575 0.92737 0.91472 0.0
O84 O 0.63579 0.95119 0.92717 0.0
O85 O 0.60071 0.90119 0.87338 0.0
O86 O 0.67655 0.92785 0.96812 0.0
O87 O 0.64691 0.85741 0.84679 0.0
C88 C 0.67441 0.85945 0.85556 0.0
O89 O 0.70083 0.88841 0.86109 0.0
O90 O 0.66231 0.92198 0.69273 0.0
Mg91 Mg 0.11322 0.759 0.8488 0.0
C92 C 0.16416 0.8286 0.8558 0.0
O93 O 0.13742 0.8299 0.85435 0.0
C94 C 0.1178 0.69522 0.90545 0.0
O95 O 0.14944 0.71109 0.89548 0.0
C96 C 0.1055 0.74802 0.63451 0.0
O97 O 0.12192 0.73376 0.65888 0.0
O98 O 0.09624 0.7601 0.70089 0.0
O99 O 0.16236 0.8007 0.85329 0.0
O100 O 0.09359 0.77056 0.9746 0.0
C101 C 0.10017 0.76251 0.05586 0.0
O102 O 0.11555 0.74614 0.05821 0.0
O103 O 0.10173 0.70929 0.8869 0.0
Mg104 Mg 0.26405 0.36828 0.84133 0.0
C105 C 0.19734 0.35163 0.84363 0.0
O106 O 0.19654 0.32347 0.84638 0.0
C107 C 0.33238 0.42754 0.91621 0.0
O108 O 0.31946 0.44371 0.9538 0.0
C109 C 0.26607 0.35681 0.63473 0.0
O110 O 0.27822 0.38872 0.63695 0.0
O111 O 0.25848 0.34067 0.71303 0.0
O112 O 0.2247 0.37831 0.83946 0.0
O113 O 0.25169 0.33847 0.96688 0.0
C114 C 0.25661 0.35533 0.04244 0.0
O115 O 0.26822 0.38704 0.03558 0.0
O116 O 0.3154 0.4018 0.86656 0.0
Mg117 Mg 0.90679 0.6642 0.675 0.0
C118 C 0.85734 0.68205 0.67098 0.0
O119 O 0.88488 0.71011 0.66774 0.0
C120 C 0.91469 0.60368 0.60497 0.0
O121 O 0.8856 0.58757 0.5671 0.0
C122 C 0.92385 0.67569 0.88022 0.0
O123 O 0.90669 0.64348 0.87784 0.0
O124 O 0.92927 0.69196 0.8027 0.0
O125 O 0.85773 0.65526 0.67578 0.0
O126 O 0.92535 0.69355 0.54894 0.0
C127 C 0.91454 0.67643 0.47329 0.0
O128 O 0.89443 0.6447 0.48013 0.0
O129 O 0.92374 0.62982 0.65287 0.0
Mg130 Mg 0.368 0.2686 0.67318 0.0
C131 C 0.34646 0.19877 0.66359 0.0
O132 O 0.31938 0.19944 0.66283 0.0
C133 C 0.43663 0.32973 0.60787 0.0
O134 O 0.44953 0.31105 0.6022 0.0
C135 C 0.37091 0.27727 0.8884 0.0
O136 O 0.40147 0.28927 0.86485 0.0
O137 O 0.34982 0.26749 0.82121 0.0
O138 O 0.37351 0.22575 0.6681 0.0
O139 O 0.33686 0.25823 0.54751 0.0
C140 C 0.35118 0.26555 0.46575 0.0
O141 O 0.38295 0.28085 0.46228 0.0
O142 O 0.40762 0.31796 0.63737 0.0
Mg143 Mg 0.76184 0.12253 0.6925 0.0
C144 C 0.76181 0.10728 0.48381 0.0
O145 O 0.75447 0.1305 0.48051 0.0
C146 C 0.77028 0.08656 0.86815 0.0
O147 O 0.78502 0.07828 0.80414 0.0
C148 C 0.69713 0.09922 0.62043 0.0
O149 O 0.7027 0.07486 0.61183 0.0
O150 O 0.71864 0.12569 0.65969 0.0
O151 O 0.76634 0.09763 0.56547 0.0
O152 O 0.8086 0.16769 0.6901 0.0
C153 C 0.83394 0.16533 0.68374 0.0
O154 O 0.83104 0.13623 0.67872 0.0
O155 O 0.75718 0.10284 0.84075 0.0
Mg156 Mg 0.01876 0.44147 0.51963 0.0
C157 C 1.00383 0.49313 0.51959 0.0
O158 O 0.97584 0.46552 0.51773 0.0
C159 C 0.07692 0.4327 0.44237 0.0
O160 O 0.08978 0.46055 0.39466 0.0
C161 C 1.00502 0.42275 0.72625 0.0
O162 O 0.03682 0.43777 0.72656 0.0
O163 O 0.99023 0.41902 0.64726 0.0
O164 O 0.02993 0.49206 0.52281 0.0
O165 O 0.98916 0.42451 0.39414 0.0
C166 C 1.00488 0.43849 0.31814 0.0
O167 O 0.03594 0.46011 0.3233 0.0
O168 O 0.05265 0.42402 0.49776 0.0
Mg169 Mg 0.57783 0.59763 0.51279 0.0
C170 C 0.52856 0.52796 0.52286 0.0
O171 O 0.55595 0.52792 0.52044 0.0
C172 C 0.61918 0.66351 0.45184 0.0
O173 O 0.63647 0.6493 0.46296 0.0
C174 C 0.60027 0.60874 0.71694 0.0
O175 O 0.58371 0.62395 0.71646 0.0
O176 O 0.60352 0.59661 0.63929 0.0
O177 O 0.52921 0.55531 0.52283 0.0
O178 O 0.59436 0.58522 0.38622 0.0
C179 C 0.58413 0.5918 0.30997 0.0
O180 O 0.56563 0.60482 0.3158 0.0
O181 O 0.58936 0.64758 0.47575 0.0
Mg182 Mg 0.42962 0.99265 0.51081 0.0
C183 C 0.49909 0.01553 0.51335 0.0
O184 O 0.49865 0.04305 0.50868 0.0
C185 C 0.36419 0.96567 0.45943 0.0
O186 O 0.37764 0.9975 0.47155 0.0
C187 C 0.41653 1.00316 0.71346 0.0
O188 O 0.40026 0.97093 0.71116 0.0
O189 O 0.43025 0.01922 0.63741 0.0
O190 O 0.47237 0.98818 0.51723 0.0
O191 O 0.43937 0.02111 0.38266 0.0
C192 C 0.43175 1.0036 0.30738 0.0
O193 O 0.41956 0.97177 0.31488 0.0
O194 O 0.38068 0.95217 0.47976 0.0
Mg195 Mg 0.77839 0.70208 0.67953 0.0
C196 C 0.82678 0.68214 0.67101 0.0
O197 O 0.79918 0.65418 0.67595 0.0
C198 C 0.7376 0.7252 0.74339 0.0
O199 O 0.72041 0.69323 0.73208 0.0
C200 C 0.75881 0.69197 0.47497 0.0
O201 O 0.77782 0.72401 0.47741 0.0
O202 O 0.75265 0.67554 0.55254 0.0
O203 O 0.82661 0.70906 0.66864 0.0
O204 O 0.76266 0.67299 0.80712 0.0
C205 C 0.77456 0.69068 0.88139 0.0
O206 O 0.79362 0.72257 0.87215 0.0
O207 O 0.76727 0.74022 0.71787 0.0
Mg208 Mg 0.32058 0.09585 0.67219 0.0
C209 C 0.34499 0.167 0.66279 0.0
O210 O 0.37189 0.16608 0.6683 0.0
C211 C 0.28223 0.02934 0.75479 0.0
O212 O 0.3121 0.0394 0.7817 0.0
C213 C 0.33134 0.08398 0.4681 0.0
O214 O 0.29971 0.07084 0.4673 0.0
O215 O 0.34667 0.09492 0.54652 0.0
O216 O 0.31777 0.14016 0.6604 0.0
O217 O 0.34913 0.10655 0.79962 0.0
C218 C 0.33336 0.10332 0.8763 0.0
O219 O 0.30245 0.09393 0.87161 0.0
O220 O 0.27681 0.04802 0.70131 0.0
Mg221 Mg 0.93432 0.2422 0.69631 0.0
C222 C 0.86621 0.19494 0.68436 0.0
O223 O 0.86854 0.22381 0.68738 0.0
C224 C 0.99887 0.28589 0.75023 0.0
O225 O 0.98341 0.302 0.73862 0.0
C226 C 0.9402 0.25936 0.49136 0.0
O227 O 0.94968 0.23773 0.49327 0.0
O228 O 0.9333 0.26812 0.56981 0.0
O229 O 0.89207 0.19337 0.68484 0.0
O230 O 0.92167 0.25815 0.82357 0.0
C231 C 0.92871 0.24831 0.89992 0.0
O232 O 0.94314 0.23104 0.89445 0.0
O233 O 0.98413 0.2554 0.73017 0.0
Mg234 Mg 0.31637 0.23846 0.16766 0.0
C235 C 0.33265 0.25349 0.37601 0.0
O236 O 0.30192 0.23055 0.38024 0.0
C237 C 0.36179 0.27173 0.99187 0.0
O238 O 0.38434 0.27847 0.05644 0.0
C239 C 0.27494 0.2621 0.2424 0.0
O240 O 0.30481 0.28593 0.25733 0.0
O241 O 0.27037 0.23643 0.19896 0.0
O242 O 0.34648 0.26312 0.29386 0.0
O243 O 0.31558 0.19217 0.17281 0.0
C244 C 0.34255 0.1931 0.18234 0.0
O245 O 0.36956 0.22153 0.18871 0.0
O246 O 0.33228 0.25734 0.01879 0.0
Mg247 Mg 0.77946 0.09041 0.18628 0.0
C248 C 0.82961 0.15978 0.1912 0.0
O249 O 0.80251 0.16038 0.1885 0.0
C250 C 0.78432 0.0275 0.24879 0.0
O251 O 0.81613 0.04448 0.24694 0.0
C252 C 0.77313 0.08072 0.9718 0.0
O253 O 0.79024 0.06722 0.9964 0.0
O254 O 0.76281 0.09178 0.03817 0.0
O255 O 0.82846 0.13219 0.19032 0.0
O256 O 0.76007 0.10218 0.31225 0.0
C257 C 0.76742 0.09487 0.39345 0.0
O258 O 0.78337 0.07907 0.39563 0.0
O259 O 0.76792 0.04068 0.22403 0.0
Mg260 Mg 0.92899 0.70427 0.17823 0.0
C261 C 0.86188 0.68655 0.18256 0.0
O262 O 0.86153 0.65861 0.18518 0.0
C263 C 0.99821 0.76306 0.25127 0.0
O264 O 0.98595 0.77932 0.29235 0.0
C265 C 0.93264 0.69271 0.97249 0.0
O266 O 0.94674 0.72486 0.97498 0.0
O267 O 0.92313 0.67641 0.05037 0.0
O268 O 0.88904 0.71346 0.17777 0.0
O269 O 0.91758 0.67489 0.30429 0.0
C270 C 0.92271 0.69194 0.37953 0.0
O271 O 0.93378 0.72355 0.372 0.0
O272 O 0.98059 0.73772 0.2007 0.0
Mg273 Mg 0.57074 0.9938 1.00897 0.0
C274 C 0.52089 1.0113 1.00384 0.0
O275 O 0.54829 0.0395 1.00064 0.0
C276 C 0.57961 0.93338 0.94256 0.0
O277 O 0.55085 0.91698 0.90273 0.0
C278 C 0.59018 1.00619 0.21334 0.0
O279 O 0.5755 0.97401 0.2112 0.0
O280 O 0.59302 0.02198 0.13635 0.0
O281 O 0.52156 0.98466 1.0088 0.0
O282 O 0.58974 0.02302 0.88263 0.0
C283 C 0.58028 1.006 0.80647 0.0
O284 O 0.56083 0.97413 0.81222 0.0
O285 O 0.58805 0.95953 0.98972 0.0
Mg286 Mg 0.0306 0.60128 1.00805 0.0
C287 C 1.00634 0.53103 1.00271 0.0
O288 O 0.98005 0.53316 1.00292 0.0
C289 C 0.0999 0.66116 0.94139 0.0
O290 O 0.11203 0.64182 0.93438 0.0
C291 C 0.03405 0.6099 0.2228 0.0
O292 O 0.06439 0.62093 0.19856 0.0
O293 O 0.01287 0.60089 0.15605 0.0
O294 O 0.03408 0.55728 1.00467 0.0
O295 O 0.99982 0.59162 0.88193 0.0
C296 C 0.0143 0.59828 0.80046 0.0
O297 O 0.046 0.61253 0.79764 0.0
O298 O 0.07112 0.65008 0.972 0.0
Mg299 Mg 0.429 0.45787 0.02072 0.0
C300 C 0.42948 0.44272 0.81246 0.0
O301 O 0.42176 0.46567 0.80906 0.0
C302 C 0.43947 0.42353 0.19676 0.0
O303 O 0.45493 0.41619 0.13265 0.0
C304 C 0.36408 0.4334 0.94837 0.0
O305 O 0.37015 0.40939 0.93959 0.0
O306 O 0.38526 0.45998 0.98792 0.0
O307 O 0.43402 0.43313 0.89419 0.0
O308 O 0.47499 0.50375 0.01591 0.0
C309 C 0.50067 0.50214 1.00681 0.0
O310 O 0.49849 0.47338 1.00102 0.0
O311 O 0.42523 0.43871 0.1694 0.0
Mg312 Mg 0.69811 0.7826 0.84801 0.0
C313 C 0.67672 0.82969 0.85685 0.0
O314 O 0.65002 0.80088 0.85328 0.0
C315 C 0.72131 0.7416 0.78472 0.0
O316 O 0.68981 0.72397 0.79792 0.0
C317 C 0.68729 0.76187 0.05344 0.0
O318 O 0.71892 0.78135 0.05277 0.0
O319 O 0.6717 0.75603 0.97508 0.0
O320 O 0.70409 0.83114 0.85829 0.0
O321 O 0.66891 0.76582 0.72173 0.0
C322 C 0.6857 0.77748 0.64572 0.0
O323 O 0.7172 0.79718 0.65191 0.0
O324 O 0.73598 0.77175 0.80859 0.0
Mg325 Mg 0.24763 0.92746 0.8595 0.0
C326 C 0.19568 0.85916 0.85923 0.0
O327 O 0.22234 0.85771 0.85938 0.0
C328 C 0.257 0.99564 0.78007 0.0
O329 O 0.22948 0.98077 0.73294 0.0
C330 C 0.26757 0.93462 0.06541 0.0
O331 O 0.25425 0.95299 0.06442 0.0
O332 O 0.26952 0.92161 0.98782 0.0
O333 O 0.19772 0.88717 0.86079 0.0
O334 O 0.26569 0.91595 0.7348 0.0
C335 C 0.25264 0.91864 0.65857 0.0
O336 O 0.23053 0.92712 0.66408 0.0
O337 O 0.2651 0.9796 0.83613 0.0
Mg338 Mg 0.09801 0.33102 0.83878 0.0
C339 C 0.16679 0.35169 0.84401 0.0
O340 O 0.16724 0.37965 0.8383 0.0
C341 C 0.03241 0.30431 0.78503 0.0
O342 O 0.04613 0.33633 0.79252 0.0
C343 C 0.08577 0.34273 0.04108 0.0
O344 O 0.06897 0.31051 0.03985 0.0
O345 O 0.09938 0.35836 0.96436 0.0
O346 O 0.13965 0.32479 0.84793 0.0
O347 O 0.10967 0.35972 0.71043 0.0
C348 C 0.10209 0.34242 0.63479 0.0
O349 O 0.08794 0.31034 0.64166 0.0
O350 O 0.04881 0.29096 0.80818 0.0
Mg351 Mg 0.44119 0.03038 1.01149 0.0
C352 C 0.49014 1.01105 1.00369 0.0
O353 O 0.4627 0.98292 1.00825 0.0
C354 C 0.4 0.05384 0.07147 0.0
O355 O 0.38266 0.02182 0.06144 0.0
C356 C 0.4243 0.02022 0.8059 0.0
O357 O 0.44464 0.05203 0.8088 0.0
O358 O 0.41616 1.00382 0.88383 0.0
O359 O 0.48966 0.03782 1.00148 0.0
O360 O 0.42534 1.00114 0.13869 0.0
C361 C 0.43745 0.01871 0.21308 0.0
O362 O 0.45625 0.05064 0.20415 0.0
O363 O 0.42983 0.06851 0.04772 0.0
Mg364 Mg 0.97679 0.42747 0.0199 0.0
C365 C 1.00325 0.49853 1.00415 0.0
O366 O 0.02941 0.49621 1.00889 0.0
C367 C 0.94039 0.36071 0.09305 0.0
O368 O 0.97103 0.37114 0.11084 0.0
C369 C 0.98727 0.41608 0.81714 0.0
O370 O 0.9561 0.40573 0.8163 0.0
O371 O 1.00273 0.4254 0.89587 0.0
O372 O 0.97539 0.47242 1.00475 0.0
O373 O 1.00471 0.43783 0.14864 0.0
C374 C 0.98855 0.43174 0.22609 0.0
O375 O 0.9571 0.41968 0.2228 0.0
O376 O 0.93314 0.37962 0.04778 0.0
Mg377 Mg 0.60064 0.5804 0.01442 0.0
C378 C 0.53256 0.53222 1.00528 0.0
O379 O 0.53419 0.56077 1.00849 0.0
C380 C 0.66456 0.62264 0.07897 0.0
O381 O 0.6499 0.63952 0.06691 0.0
C382 C 0.60913 0.60001 0.80857 0.0
O383 O 0.62104 0.58037 0.80938 0.0
O384 O 0.60006 0.60648 0.88718 0.0
O385 O 0.55877 0.53133 1.004 0.0
O386 O 0.58731 0.59633 0.14064 0.0
C387 C 0.59243 0.58463 0.21653 0.0
O388 O 0.6049 0.56556 0.21023 0.0
O389 O 0.64978 0.59259 0.05404 0.0
Mg390 Mg 0.97973 0.5713 0.5022 0.0
C391 C 0.99586 0.58652 0.71048 0.0
O392 O 0.96487 0.56437 0.71443 0.0
C393 C 0.0251 0.60434 0.32634 0.0
O394 O 0.04763 0.61051 0.39044 0.0
C395 C 0.94028 0.59715 0.57493 0.0
O396 O 0.97056 0.62064 0.58566 0.0
O397 O 0.93449 0.5706 0.53445 0.0
O398 O 1.00997 0.59552 0.62851 0.0
O399 O 0.9777 0.52439 0.50719 0.0
C400 C 1.00419 0.52431 0.51606 0.0
O401 O 0.03178 0.55224 0.52129 0.0
O402 O 0.99566 0.59031 0.3536 0.0
Mg403 Mg 0.44834 0.42691 0.51515 0.0
C404 C 0.49772 0.49664 0.52205 0.0
O405 O 0.47034 0.49672 0.5212 0.0
C406 C 0.45405 0.36387 0.57239 0.0
O407 O 0.48574 0.38035 0.56379 0.0
C408 C 0.44262 0.41786 0.30036 0.0
O409 O 0.46067 0.40538 0.32469 0.0
O410 O 0.43152 0.42803 0.36699 0.0
O411 O 0.49705 0.4693 0.51958 0.0
O412 O 0.42829 0.438 0.64088 0.0
C413 C 0.43551 0.43061 0.72218 0.0
O414 O 0.45172 0.41507 0.72461 0.0
O415 O 0.43754 0.37739 0.55299 0.0
Mg416 Mg 0.59723 0.03464 0.512 0.0
C417 C 0.53014 0.01646 0.51262 0.0
O418 O 0.53018 0.98871 0.51453 0.0
C419 C 0.66558 0.09382 0.5883 0.0
O420 O 0.65268 0.10973 0.62775 0.0
C421 C 0.59904 0.02337 0.30541 0.0
O422 O 0.61041 0.05515 0.30803 0.0
O423 O 0.59207 1.0072 0.38359 0.0
O424 O 0.55713 0.04358 0.50959 0.0
O425 O 0.58513 1.00496 0.6378 0.0
C426 C 0.58926 0.02176 0.71304 0.0
O427 O 0.60003 0.05331 0.70566 0.0
O428 O 0.64857 0.06839 0.53745 0.0
Mg429 Mg 0.23869 0.32717 0.33801 0.0
C430 C 0.18969 0.34545 0.33039 0.0
O431 O 0.21749 0.37323 0.32629 0.0
C432 C 0.24843 0.2676 0.26971 0.0
O433 O 0.22014 0.25169 0.22692 0.0
C434 C 0.25722 0.33956 0.54279 0.0
O435 O 0.24191 0.30734 0.54097 0.0
O436 O 0.26081 0.35541 0.46539 0.0
O437 O 0.18963 0.31845 0.33688 0.0
O438 O 0.258 0.3564 0.21195 0.0
C439 C 0.24761 0.33952 0.13577 0.0
O440 O 0.22718 0.30784 0.14154 0.0
O441 O 0.25626 0.2931 0.31954 0.0
Mg442 Mg 0.6975 0.93247 0.34733 0.0
C443 C 0.67697 0.86246 0.33951 0.0
O444 O 0.64931 0.86198 0.33932 0.0
C445 C 0.76661 0.99348 0.28504 0.0
O446 O 0.77991 0.9751 0.28536 0.0
C447 C 0.70075 0.94261 0.56208 0.0
O448 O 0.73139 0.95548 0.53823 0.0
O449 O 0.6795 0.93174 0.49525 0.0
O450 O 0.70352 0.88996 0.34296 0.0
O451 O 0.66639 0.92199 0.22161 0.0
C452 C 0.68086 0.92977 0.14006 0.0
O453 O 0.71264 0.94534 0.13701 0.0
O454 O 0.7372 0.98163 0.31059 0.0
Mg455 Mg 0.09412 0.78961 0.3549 0.0
C456 C 0.09443 0.77476 0.14631 0.0
O457 O 0.08783 0.79852 0.14335 0.0
C458 C 0.10228 0.7535 0.53083 0.0
O459 O 0.11623 0.74439 0.46655 0.0
C460 C 0.02968 0.7678 0.28163 0.0
O461 O 0.03474 0.74318 0.2708 0.0
O462 O 0.05143 0.79377 0.32253 0.0
O463 O 0.09824 0.7645 0.22788 0.0
O464 O 0.14132 0.83413 0.35192 0.0
C465 C 0.16614 0.83089 0.34534 0.0
O466 O 0.16235 0.80141 0.34035 0.0
O467 O 0.08964 0.77023 0.5035 0.0
loop_
_geom_bond_atom_site_label_1
_geom_bond_atom_site_label_2
_geom_bond_distance
_geom_bond_site_symmetry_2
_ccdc_geom_bond_type
Mg0 O7 2.141 . S
Mg0 O8 2.048 . S
Mg0 O9 2.048 . S
Mg0 O12 2.141 . S
C1 O2 1.313 . S
C1 O8 1.195 . S
O2 C1 1.313 . S
C3 O4 1.245 . S
C3 O12 1.289 . S
O4 C3 1.245 . S
C5 O6 1.245 . S
C5 O7 1.289 . S
O6 C5 1.245 . S
O7 Mg0 2.141 . S
O7 C5 1.289 . S
O8 Mg0 2.048 . S
O8 C1 1.195 . S
O9 Mg0 2.048 . S
O9 C10 1.195 1_554 S
C10 O9 1.195 1_556 S
C10 O11 1.313 . S
O11 C10 1.313 . S
O12 Mg0 2.141 . S
O12 C3 1.289 . S
Mg13 O20 2.141 . S
Mg13 O21 2.048 . S
Mg13 O22 2.048 . S
Mg13 O25 2.141 . S
C14 O15 1.313 . S
C14 O21 1.195 . S
O15 C14 1.313 . S
C16 O17 1.245 . S
C16 O25 1.289 . S
O17 C16 1.245 . S
C18 O19 1.245 . S
C18 O20 1.289 . S
O19 C18 1.245 . S
O20 Mg13 2.141 . S
O20 C18 1.289 . S
O21 Mg13 2.048 . S
O21 C14 1.195 . S
O22 Mg13 2.048 . S
O22 C23 1.195 1_554 S
C23 O22 1.195 1_556 S
C23 O24 1.313 . S
O24 C23 1.313 . S
O25 Mg13 2.141 . S
O25 C16 1.289 . S
Mg26 O33 2.141 . S
Mg26 O34 2.048 . S
Mg26 O35 2.048 . S
Mg26 O38 2.141 . S
C27 O28 1.313 . S
C27 O34 1.195 . S
O28 C27 1.313 . S
C29 O30 1.245 . S
C29 O38 1.289 . S
O30 C29 1.245 . S
C31 O32 1.245 . S
C31 O33 1.289 . S
O32 C31 1.245 . S
O33 Mg26 2.141 . S
O33 C31 1.289 . S
O34 Mg26 2.048 . S
O34 C27 1.195 . S
O35 Mg26 2.048 . S
O35 C36 1.195 1_554 S
C36 O35 1.195 1_556 S
C36 O37 1.313 . S
O37 C36 1.313 . S
O38 Mg26 2.141 . S
O38 C29 1.289 . S
Mg39 O46 2.141 . S
Mg39 O47 2.048 . S
Mg39 O48 2.048 . S
Mg39 O51 2.141 . S
C40 O41 1.313 . S
C40 O47 1.195 . S
O41 C40 1.313 . S
C42 O43 1.245 . S
C42 O51 1.289 . S
O43 C42 1.245 . S
C44 O45 1.245 . S
C44 O46 1.289 . S
O45 C44 1.245 . S
O46 Mg39 2.141 . S
O46 C44 1.289 . S
O47 Mg39 2.048 . S
O47 C40 1.195 . S
O48 Mg39 2.048 . S
O48 C49 1.195 . S
C49 O48 1.195 . S
C49 O50 1.313 . S
O50 C49 1.313 . S
O51 Mg39 2.141 . S
O51 C42 1.289 . S
Mg52 O59 2.141 . S
Mg52 O60 2.048 . S
Mg52 O61 2.048 . S
Mg52 O64 2.141 . S
C53 O54 1.313 . S
C53 O60 1.195 . S
O54 C53 1.313 . S
C55 O56 1.245 . S
C55 O64 1.289 . S
O56 C55 1.245 . S
C57 O58 1.245 . S
C57 O59 1.289 . S
O58 C57 1.245 . S
O59 Mg52 2.141 . S
O59 C57 1.289 . S
O60 Mg52 2.048 . S
O60 C53 1.195 . S
O61 Mg52 2.048 . S
O61 C62 1.195 . S
C62 O61 1.195 . S
C62 O63 1.313 . S
O63 C62 1.313 . S
O64 Mg52 2.141 . S
O64 C55 1.289 . S
Mg65 O72 2.141 . S
Mg65 O73 2.048 . S
Mg65 O74 2.048 . S
Mg65 O77 2.141 . S
C66 O67 1.313 . S
C66 O73 1.195 . S
O67 C66 1.313 . S
C68 O69 1.245 . S
C68 O77 1.289 . S
O69 C68 1.245 . S
C70 O71 1.245 . S
C70 O72 1.289 . S
O71 C70 1.245 . S
O72 Mg65 2.141 . S
O72 C70 1.289 . S
O73 Mg65 2.048 . S
O73 C66 1.195 . S
O74 Mg65 2.048 . S
O74 C75 1.195 . S
C75 O74 1.195 . S
C75 O76 1.313 . S
O76 C75 1.313 . S
O77 Mg65 2.141 . S
O77 C68 1.289 . S
Mg78 O85 2.141 . S
Mg78 O86 2.048 . S
Mg78 O87 2.048 . S
Mg78 O90 2.141 . S
C79 O80 1.313 . S
C79 O86 1.195 1_554 S
O80 C79 1.313 . S
C81 O82 1.245 . S
C81 O90 1.289 . S
O82 C81 1.245 . S
C83 O84 1.245 . S
C83 O85 1.289 . S
O84 C83 1.245 . S
O85 Mg78 2.141 . S
O85 C83 1.289 . S
O86 Mg78 2.048 . S
O86 C79 1.195 1_556 S
O87 Mg78 2.048 . S
O87 C88 1.195 . S
C88 O87 1.195 . S
C88 O89 1.313 . S
O89 C88 1.313 . S
O90 Mg78 2.141 . S
O90 C81 1.289 . S
Mg91 O98 2.141 . S
Mg91 O99 2.048 . S
Mg91 O100 2.048 . S
Mg91 O103 2.141 . S
C92 O93 1.313 . S
C92 O99 1.195 . S
O93 C92 1.313 . S
C94 O95 1.245 . S
C94 O103 1.289 . S
O95 C94 1.245 . S
C96 O97 1.245 . S
C96 O98 1.289 . S
O97 C96 1.245 . S
O98 Mg91 2.141 . S
O98 C96 1.289 . S
O99 Mg91 2.048 . S
O99 C92 1.195 . S
O100 Mg91 2.048 . S
O100 C101 1.195 1_556 S
C101 O100 1.195 1_554 S
C101 O102 1.313 . S
O102 C101 1.313 . S
O103 Mg91 2.141 . S
O103 C94 1.289 . S
Mg104 O111 2.141 . S
Mg104 O112 2.048 . S
Mg104 O113 2.048 . S
Mg104 O116 2.141 . S
C105 O106 1.313 . S
C105 O112 1.195 . S
O106 C105 1.313 . S
C107 O108 1.245 . S
C107 O116 1.289 . S
O108 C107 1.245 . S
C109 O110 1.245 . S
C109 O111 1.289 . S
O110 C109 1.245 . S
O111 Mg104 2.141 . S
O111 C109 1.289 . S
O112 Mg104 2.048 . S
O112 C105 1.195 . S
O113 Mg104 2.048 . S
O113 C114 1.195 1_556 S
C114 O113 1.195 1_554 S
C114 O115 1.313 . S
O115 C114 1.313 . S
O116 Mg104 2.141 . S
O116 C107 1.289 . S
Mg117 O124 2.141 . S
Mg117 O125 2.048 . S
Mg117 O126 2.048 . S
Mg117 O129 2.141 . S
C118 O119 1.313 . S
C118 O125 1.195 . S
O119 C118 1.313 . S
C120 O121 1.245 . S
C120 O129 1.289 . S
O121 C120 1.245 . S
C122 O123 1.245 . S
C122 O124 1.289 . S
O123 C122 1.245 . S
O124 Mg117 2.141 . S
O124 C122 1.289 . S
O125 Mg117 2.048 . S
O125 C118 1.195 . S
O126 Mg117 2.048 . S
O126 C127 1.195 . S
C127 O126 1.195 . S
C127 O128 1.313 . S
O128 C127 1.313 . S
O129 Mg117 2.141 . S
O129 C120 1.289 . S
Mg130 O137 2.141 . S
Mg130 O138 2.048 . S
Mg130 O139 2.048 . S
Mg130 O142 2.141 . S
C131 O132 1.313 . S
C131 O138 1.195 . S
O132 C131 1.313 . S
C133 O134 1.245 . S
C133 O142 1.289 . S
O134 C133 1.245 . S
C135 O136 1.245 . S
C135 O137 1.289 . S
O136 C135 1.245 . S
O137 Mg130 2.141 . S
O137 C135 1.289 . S
O138 Mg130 2.048 . S
O138 C131 1.195 . S
O139 Mg130 2.048 . S
O139 C140 1.195 . S
C140 O139 1.195 . S
C140 O141 1.313 . S
O141 C140 1.313 . S
O142 Mg130 2.141 . S
O142 C133 1.289 . S
Mg143 O150 2.141 . S
Mg143 O151 2.048 . S
Mg143 O152 2.048 . S
Mg143 O155 2.141 . S
C144 O145 1.313 . S
C144 O151 1.195 . S
O145 C144 1.313 . S
C146 O147 1.245 . S
C146 O155 1.289 . S
O147 C146 1.245 . S
C148 O149 1.245 . S
C148 O150 1.289 . S
O149 C148 1.245 . S
O150 Mg143 2.141 . S
O150 C148 1.289 . S
O151 Mg143 2.048 . S
O151 C144 1.195 . S
O152 Mg143 2.048 . S
O152 C153 1.195 . S
C153 O152 1.195 . S
C153 O154 1.313 . S
O154 C153 1.313 . S
O155 Mg143 2.141 . S
O155 C146 1.289 . S
Mg156 O163 2.141 . S
Mg156 O164 2.048 . S
Mg156 O165 2.048 . S
Mg156 O168 2.141 . S
C157 O158 1.313 . S
C157 O164 1.195 1_655 S
O158 C157 1.313 . S
C159 O160 1.245 1_455 S
C159 O168 1.289 . S
O160 C159 1.245 1_655 S
C161 O162 1.245 1_455 S
C161 O163 1.289 . S
O162 C161 1.245 1_655 S
O163 Mg156 2.141 . S
O163 C161 1.289 . S
O164 Mg156 2.048 . S
O164 C157 1.195 1_455 S
O165 Mg156 2.048 . S
O165 C166 1.216 . S
C166 O165 1.216 . S
C166 O167 1.286 1_455 S
O167 C166 1.286 1_655 S
O168 Mg156 2.141 . S
O168 C159 1.289 . S
Mg169 O176 2.141 . S
Mg169 O177 2.048 . S
Mg169 O178 2.048 . S
Mg169 O181 2.141 . S
C170 O171 1.313 . S
C170 O177 1.195 . S
O171 C170 1.313 . S
C172 O173 1.245 . S
C172 O181 1.289 . S
O173 C172 1.245 . S
C174 O175 1.245 . S
C174 O176 1.289 . S
O175 C174 1.245 . S
O176 Mg169 2.141 . S
O176 C174 1.289 . S
O177 Mg169 2.048 . S
O177 C170 1.195 . S
O178 Mg169 2.048 . S
O178 C179 1.195 . S
C179 O178 1.195 . S
C179 O180 1.313 . S
O180 C179 1.313 . S
O181 Mg169 2.141 . S
O181 C172 1.289 . S
Mg182 O189 2.141 . S
Mg182 O190 2.048 . S
Mg182 O191 2.048 . S
Mg182 O194 2.141 . S
C183 O184 1.313 . S
C183 O190 1.195 1_545 S
O184 C183 1.313 . S
C185 O186 1.245 1_565 S
C185 O194 1.289 . S
O186 C185 1.245 1_545 S
C187 O188 1.245 1_565 S
C187 O189 1.289 . S
O188 C187 1.245 1_545 S
O189 Mg182 2.141 . S
O189 C187 1.289 . S
O190 Mg182 2.048 . S
O190 C183 1.195 1_565 S
O191 Mg182 2.048 . S
O191 C192 1.216 . S
C192 O191 1.216 . S
C192 O193 1.285 1_565 S
O193 C192 1.285 1_545 S
O194 Mg182 2.141 . S
O194 C185 1.289 . S
Mg195 O202 2.141 . S
Mg195 O203 2.048 . S
Mg195 O204 2.048 . S
Mg195 O207 2.141 . S
C196 O197 1.313 . S
C196 O203 1.195 . S
O197 C196 1.313 . S
C198 O199 1.245 . S
C198 O207 1.289 . S
O199 C198 1.245 . S
C200 O201 1.245 . S
C200 O202 1.289 . S
O201 C200 1.245 . S
O202 Mg195 2.141 . S
O202 C200 1.289 . S
O203 Mg195 2.048 . S
O203 C196 1.195 . S
O204 Mg195 2.048 . S
O204 C205 1.195 . S
C205 O204 1.195 . S
C205 O206 1.313 . S
O206 C205 1.313 . S
O207 Mg195 2.141 . S
O207 C198 1.289 . S
Mg208 O215 2.141 . S
Mg208 O216 2.048 . S
Mg208 O217 2.048 . S
Mg208 O220 2.141 . S
C209 O210 1.313 . S
C209 O216 1.195 . S
O210 C209 1.313 . S
C211 O212 1.245 . S
C211 O220 1.289 . S
O212 C211 1.245 . S
C213 O214 1.245 . S
C213 O215 1.289 . S
O214 C213 1.245 . S
O215 Mg208 2.141 . S
O215 C213 1.289 . S
O216 Mg208 2.048 . S
O216 C209 1.195 . S
O217 Mg208 2.048 . S
O217 C218 1.195 . S
C218 O217 1.195 . S
C218 O219 1.313 . S
O219 C218 1.313 . S
O220 Mg208 2.141 . S
O220 C211 1.289 . S
Mg221 O228 2.141 . S
Mg221 O229 2.048 . S
Mg221 O230 2.048 . S
Mg221 O233 2.141 . S
C222 O223 1.313 . S
C222 O229 1.195 . S
O223 C222 1.313 . S
C224 O225 1.245 . S
C224 O233 1.289 . S
O225 C224 1.245 . S
C226 O227 1.245 . S
C226 O228 1.289 . S
O227 C226 1.245 . S
O228 Mg221 2.141 . S
O228 C226 1.289 . S
O229 Mg221 2.048 . S
O229 C222 1.195 . S
O230 Mg221 2.048 . S
O230 C231 1.195 . S
C231 O230 1.195 . S
C231 O232 1.313 . S
O232 C231 1.313 . S
O233 Mg221 2.141 . S
O233 C224 1.289 . S
Mg234 O241 2.141 . S
Mg234 O242 2.048 . S
Mg234 O243 2.048 . S
Mg234 O246 2.141 . S
C235 O236 1.313 . S
C235 O242 1.195 . S
O236 C235 1.313 . S
C237 O238 1.245 . S
C237 O246 1.289 1_556 S
O238 C237 1.245 . S
C239 O240 1.245 . S
C239 O241 1.289 . S
O240 C239 1.245 . S
O241 Mg234 2.141 . S
O241 C239 1.289 . S
O242 Mg234 2.048 . S
O242 C235 1.195 . S
O243 Mg234 2.048 . S
O243 C244 1.195 . S
C244 O243 1.195 . S
C244 O245 1.313 . S
O245 C244 1.313 . S
O246 Mg234 2.141 . S
O246 C237 1.289 1_554 S
Mg247 O254 2.141 . S
Mg247 O255 2.048 . S
Mg247 O256 2.048 . S
Mg247 O259 2.141 . S
C248 O249 1.313 . S
C248 O255 1.195 . S
O249 C248 1.313 . S
C250 O251 1.245 . S
C250 O259 1.289 . S
O251 C250 1.245 . S
C252 O253 1.245 . S
C252 O254 1.289 1_556 S
O253 C252 1.245 . S
O254 Mg247 2.141 . S
O254 C252 1.289 1_554 S
O255 Mg247 2.048 . S
O255 C248 1.195 . S
O256 Mg247 2.048 . S
O256 C257 1.195 . S
C257 O256 1.195 . S
C257 O258 1.313 . S
O258 C257 1.313 . S
O259 Mg247 2.141 . S
O259 C250 1.289 . S
Mg260 O267 2.141 . S
Mg260 O268 2.048 . S
Mg260 O269 2.048 . S
Mg260 O272 2.141 . S
C261 O262 1.313 . S
C261 O268 1.195 . S
O262 C261 1.313 . S
C263 O264 1.245 . S
C263 O272 1.289 . S
O264 C263 1.245 . S
C265 O266 1.245 . S
C265 O267 1.289 1_556 S
O266 C265 1.245 . S
O267 Mg260 2.141 . S
O267 C265 1.289 1_554 S
O268 Mg260 2.048 . S
O268 C261 1.195 . S
O269 Mg260 2.048 . S
O269 C270 1.195 . S
C270 O269 1.195 . S
C270 O271 1.313 . S
O271 C270 1.313 . S
O272 Mg260 2.141 . S
O272 C263 1.289 . S
Mg273 O280 2.141 . S
Mg273 O281 2.048 . S
Mg273 O282 2.048 1_554 S
Mg273 O285 2.141 1_544 S
C274 O275 1.313 1_544 S
C274 O281 1.195 . S
O275 C274 1.313 1_566 S
C276 O277 1.245 . S
C276 O285 1.289 . S
O277 C276 1.245 . S
C278 O279 1.245 . S
C278 O280 1.289 1_565 S
O279 C278 1.245 . S
O280 Mg273 2.141 . S
O280 C278 1.289 1_545 S
O281 Mg273 2.048 . S
O281 C274 1.195 . S
O282 Mg273 2.048 1_556 S
O282 C283 1.195 1_545 S
C283 O282 1.195 1_565 S
C283 O284 1.313 . S
O284 C283 1.313 . S
O285 Mg273 2.141 1_566 S
O285 C276 1.289 . S
Mg286 O293 2.141 . S
Mg286 O294 2.048 . S
Mg286 O295 2.048 1_554 S
Mg286 O298 2.141 1_654 S
C287 O288 1.313 1_654 S
C287 O294 1.195 . S
O288 C287 1.313 1_456 S
C289 O290 1.245 . S
C289 O298 1.289 . S
O290 C289 1.245 . S
C291 O292 1.245 . S
C291 O293 1.289 1_455 S
O292 C291 1.245 . S
O293 Mg286 2.141 . S
O293 C291 1.289 1_655 S
O294 Mg286 2.048 . S
O294 C287 1.195 . S
O295 Mg286 2.048 1_556 S
O295 C296 1.195 1_655 S
C296 O295 1.195 1_455 S
C296 O297 1.313 . S
O297 C296 1.313 . S
O298 Mg286 2.141 1_456 S
O298 C289 1.289 . S
Mg299 O306 2.141 1_554 S
Mg299 O307 2.048 1_554 S
Mg299 O308 2.048 . S
Mg299 O311 2.141 . S
C300 O301 1.313 . S
C300 O307 1.195 . S
O301 C300 1.313 . S
C302 O303 1.245 . S
C302 O311 1.289 . S
O303 C302 1.245 . S
C304 O305 1.245 . S
C304 O306 1.289 . S
O305 C304 1.245 . S
O306 Mg299 2.141 1_556 S
O306 C304 1.289 . S
O307 Mg299 2.048 1_556 S
O307 C300 1.195 . S
O308 Mg299 2.048 . S
O308 C309 1.195 . S
C309 O308 1.195 . S
C309 O310 1.313 1_554 S
O310 C309 1.313 1_556 S
O311 Mg299 2.141 . S
O311 C302 1.289 . S
Mg312 O319 2.141 . S
Mg312 O320 2.048 . S
Mg312 O321 2.048 . S
Mg312 O324 2.141 . S
C313 O314 1.313 . S
C313 O320 1.195 . S
O314 C313 1.313 . S
C315 O316 1.245 . S
C315 O324 1.289 . S
O316 C315 1.245 . S
C317 O318 1.245 . S
C317 O319 1.289 1_554 S
O318 C317 1.245 . S
O319 Mg312 2.141 . S
O319 C317 1.289 1_556 S
O320 Mg312 2.048 . S
O320 C313 1.195 . S
O321 Mg312 2.048 . S
O321 C322 1.195 . S
C322 O321 1.195 . S
C322 O323 1.313 . S
O323 C322 1.313 . S
O324 Mg312 2.141 . S
O324 C315 1.289 . S
Mg325 O332 2.141 . S
Mg325 O333 2.048 . S
Mg325 O334 2.048 . S
Mg325 O337 2.141 . S
C326 O327 1.313 . S
C326 O333 1.195 . S
O327 C326 1.313 . S
C328 O329 1.245 . S
C328 O337 1.289 . S
O329 C328 1.245 . S
C330 O331 1.245 . S
C330 O332 1.289 1_554 S
O331 C330 1.245 . S
O332 Mg325 2.141 . S
O332 C330 1.289 1_556 S
O333 Mg325 2.048 . S
O333 C326 1.195 . S
O334 Mg325 2.048 . S
O334 C335 1.195 . S
C335 O334 1.195 . S
C335 O336 1.313 . S
O336 C335 1.313 . S
O337 Mg325 2.141 . S
O337 C328 1.289 . S
Mg338 O345 2.141 . S
Mg338 O346 2.048 . S
Mg338 O347 2.048 . S
Mg338 O350 2.141 . S
C339 O340 1.313 . S
C339 O346 1.195 . S
O340 C339 1.313 . S
C341 O342 1.245 . S
C341 O350 1.289 . S
O342 C341 1.245 . S
C343 O344 1.245 . S
C343 O345 1.289 1_554 S
O344 C343 1.245 . S
O345 Mg338 2.141 . S
O345 C343 1.289 1_556 S
O346 Mg338 2.048 . S
O346 C339 1.195 . S
O347 Mg338 2.048 . S
O347 C348 1.195 . S
C348 O347 1.195 . S
C348 O349 1.313 . S
O349 C348 1.313 . S
O350 Mg338 2.141 . S
O350 C341 1.289 . S
Mg351 O358 2.141 . S
Mg351 O359 2.048 . S
Mg351 O360 2.048 1_556 S
Mg351 O363 2.141 1_556 S
C352 O353 1.313 1_556 S
C352 O359 1.195 1_565 S
O353 C352 1.313 1_554 S
C354 O355 1.245 1_545 S
C354 O363 1.289 . S
O355 C354 1.245 1_565 S
C356 O357 1.245 1_545 S
C356 O358 1.289 . S
O357 C356 1.245 1_565 S
O358 Mg351 2.141 . S
O358 C356 1.289 . S
O359 Mg351 2.048 . S
O359 C352 1.195 1_545 S
O360 Mg351 2.048 1_554 S
O360 C361 1.195 . S
C361 O360 1.195 . S
C361 O362 1.313 1_545 S
O362 C361 1.313 1_565 S
O363 Mg351 2.141 1_554 S
O363 C354 1.289 . S
Mg364 O371 2.141 . S
Mg364 O372 2.048 . S
Mg364 O373 2.048 1_556 S
Mg364 O376 2.141 1_556 S
C365 O366 1.313 1_556 S
C365 O372 1.195 1_455 S
O366 C365 1.313 1_554 S
C367 O368 1.245 1_655 S
C367 O376 1.289 . S
O368 C367 1.245 1_455 S
C369 O370 1.245 1_655 S
C369 O371 1.289 . S
O370 C369 1.245 1_455 S
O371 Mg364 2.141 . S
O371 C369 1.289 . S
O372 Mg364 2.048 . S
O372 C365 1.195 1_655 S
O373 Mg364 2.048 1_554 S
O373 C374 1.195 . S
C374 O373 1.195 . S
C374 O375 1.313 1_655 S
O375 C374 1.313 1_455 S
O376 Mg364 2.141 1_554 S
O376 C367 1.289 . S
Mg377 O384 2.141 . S
Mg377 O385 2.048 . S
Mg377 O386 2.048 1_556 S
Mg377 O389 2.141 1_556 S
C378 O379 1.313 1_556 S
C378 O385 1.195 . S
O379 C378 1.313 1_554 S
C380 O381 1.245 . S
C380 O389 1.289 . S
O381 C380 1.245 . S
C382 O383 1.245 . S
C382 O384 1.289 . S
O383 C382 1.245 . S
O384 Mg377 2.141 . S
O384 C382 1.289 . S
O385 Mg377 2.048 . S
O385 C378 1.195 . S
O386 Mg377 2.048 1_554 S
O386 C387 1.195 . S
C387 O386 1.195 . S
C387 O388 1.313 . S
O388 C387 1.313 . S
O389 Mg377 2.141 1_554 S
O389 C380 1.289 . S
Mg390 O397 2.141 . S
Mg390 O398 2.048 . S
Mg390 O399 2.048 . S
Mg390 O402 2.141 . S
C391 O392 1.285 1_655 S
C391 O398 1.217 . S
O392 C391 1.285 1_455 S
C393 O394 1.245 1_655 S
C393 O402 1.289 . S
O394 C393 1.245 1_455 S
C395 O396 1.245 1_655 S
C395 O397 1.289 . S
O396 C395 1.245 1_455 S
O397 Mg390 2.141 . S
O397 C395 1.289 . S
O398 Mg390 2.048 . S
O398 C391 1.217 . S
O399 Mg390 2.048 . S
O399 C400 1.195 1_655 S
C400 O399 1.195 1_455 S
C400 O401 1.313 . S
O401 C400 1.313 . S
O402 Mg390 2.141 . S
O402 C393 1.289 . S
Mg403 O410 2.141 . S
Mg403 O411 2.048 . S
Mg403 O412 2.048 . S
Mg403 O415 2.141 . S
C404 O405 1.313 . S
C404 O411 1.195 . S
O405 C404 1.313 . S
C406 O407 1.245 . S
C406 O415 1.289 . S
O407 C406 1.245 . S
C408 O409 1.245 . S
C408 O410 1.289 . S
O409 C408 1.245 . S
O410 Mg403 2.141 . S
O410 C408 1.289 . S
O411 Mg403 2.048 . S
O411 C404 1.195 . S
O412 Mg403 2.048 . S
O412 C413 1.195 . S
C413 O412 1.195 . S
C413 O414 1.313 . S
O414 C413 1.313 . S
O415 Mg403 2.141 . S
O415 C406 1.289 . S
Mg416 O423 2.141 . S
Mg416 O424 2.048 . S
Mg416 O425 2.048 . S
Mg416 O428 2.141 1_565 S
C417 O418 1.313 1_565 S
C417 O424 1.195 . S
O418 C417 1.313 1_545 S
C419 O420 1.245 . S
C419 O428 1.289 . S
O420 C419 1.245 . S
C421 O422 1.245 . S
C421 O423 1.289 1_545 S
O422 C421 1.245 . S
O423 Mg416 2.141 . S
O423 C421 1.289 1_565 S
O424 Mg416 2.048 . S
O424 C417 1.195 . S
O425 Mg416 2.048 . S
O425 C426 1.195 1_565 S
C426 O425 1.195 1_545 S
C426 O427 1.313 . S
O427 C426 1.313 . S
O428 Mg416 2.141 1_545 S
O428 C419 1.289 . S
Mg429 O436 2.141 . S
Mg429 O437 2.048 . S
Mg429 O438 2.048 . S
Mg429 O441 2.141 . S
C430 O431 1.313 . S
C430 O437 1.195 . S
O431 C430 1.313 . S
C432 O433 1.245 . S
C432 O441 1.289 . S
O433 C432 1.245 . S
C434 O435 1.245 . S
C434 O436 1.289 . S
O435 C434 1.245 . S
O436 Mg429 2.141 . S
O436 C434 1.289 . S
O437 Mg429 2.048 . S
O437 C430 1.195 . S
O438 Mg429 2.048 . S
O438 C439 1.195 . S
C439 O438 1.195 . S
C439 O440 1.313 . S
O440 C439 1.313 . S
O441 Mg429 2.141 . S
O441 C432 1.289 . S
Mg442 O449 2.141 . S
Mg442 O450 2.048 . S
Mg442 O451 2.048 . S
Mg442 O454 2.141 . S
C443 O444 1.313 . S
C443 O450 1.195 . S
O444 C443 1.313 . S
C445 O446 1.245 . S
C445 O454 1.289 . S
O446 C445 1.245 . S
C447 O448 1.245 . S
C447 O449 1.289 . S
O448 C447 1.245 . S
O449 Mg442 2.141 . S
O449 C447 1.289 . S
O450 Mg442 2.048 . S
O450 C443 1.195 . S
O451 Mg442 2.048 . S
O451 C452 1.195 . S
C452 O451 1.195 . S
C452 O453 1.313 . S
O453 C452 1.313 . S
O454 Mg442 2.141 . S
O454 C445 1.289 . S
Mg455 O462 2.141 . S
Mg455 O463 2.048 . S
Mg455 O464 2.048 . S
Mg455 O467 2.141 . S
C456 O457 1.313 . S
C456 O463 1.195 . S
O457 C456 1.313 . S
C458 O459 1.245 . S
C458 O467 1.289 . S
O459 C458 1.245 . S
C460 O461 1.245 . S
C460 O462 1.289 . S
O461 C460 1.245 . S
O462 Mg455 2.141 . S
O462 C460 1.289 . S
O463 Mg455 2.048 . S
O463 C456 1.195 . S
O464 Mg455 2.048 . S
O464 C465 1.195 . S
C465 O464 1.195 . S
C465 O466 1.313 . S
O466 C465 1.313 . S
O467 Mg455 2.141 . S
O467 C458 1.289 . S
C213 C5 1.674 . S
C226 C18 1.674 . S
C200 C31 1.674 . S
C343 C44 1.639 . S
C57 C317 1.639 . S
C70 C330 1.639 . S
C81 C447 1.802 . S
C458 C96 1.799 . S
C434 C109 1.972 . S
C122 C265 1.941 . S
C237 C135 1.769 . S
C146 C252 1.766 . S
C369 C161 1.567 1_655 S
C174 C382 1.567 . S
C356 C187 1.567 1_545 S
C421 C278 1.895 1_545 S
C393 C291 1.712 1_655 S
C302 C408 1.706 . S
C244 C1 2.351 . S
C248 C14 2.148 . S
C261 C27 2.147 . S
C40 C430 2.137 . S
C53 C443 2.138 . S
C66 C465 2.342 . S
C88 C313 2.351 . S
C326 C92 2.147 . S
C339 C105 2.146 . S
C196 C118 2.138 . S
C131 C209 2.138 . S
C153 C222 2.342 . S
C157 C400 2.378 1_655 S
C404 C170 2.173 . S
C417 C183 2.172 1_565 S
C352 C274 2.091 1_566 S
C287 C365 2.092 1_654 S
C309 C378 2.287 1_554 S
C354 C3 2.139 . S
C16 C367 2.139 . S
C29 C380 2.139 . S
C159 C42 2.012 . S
C55 C172 2.012 . S
C68 C185 2.012 . S
C276 C83 2.123 . S
C94 C289 2.028 . S
C304 C107 2.099 . S
C120 C395 1.983 . S
C406 C133 1.887 . S
C419 C148 1.975 . S
C315 C198 2.068 . S
C328 C211 2.068 1_565 S
C341 C224 2.068 1_455 S
C239 C432 2.035 . S
C445 C250 1.948 1_565 S
C460 C263 2.038 1_455 S
C10 C218 0.970 . S
C23 C231 0.971 . S
C36 C205 0.971 . S
C348 C49 1.005 . S
C322 C62 1.005 . S
C335 C75 1.005 . S
C452 C79 1.027 . S
C456 C101 1.031 . S
C439 C114 1.137 . S
C127 C270 1.180 . S
C140 C235 1.067 . S
C144 C257 1.072 . S
C374 C166 1.096 1_655 S
C387 C179 1.100 . S
C192 C361 1.095 1_565 S
C283 C426 1.280 1_565 S
C391 C296 1.153 1_655 S
C413 C300 1.173 . S
