# Generated by pormake.
# Topology wjd, (6)-cn, num edge types: 1
# Building blocks:
#     Node 0, Type 0, BuildingBlock: NUHQIS_clean_sbu_0, # of connection points: 6
#     Node 1, Type 0, BuildingBlock: NUHQIS_clean_sbu_0, # of connection points: 6
#     Node 2, Type 0, BuildingBlock: NUHQIS_clean_sbu_0, # of connection points: 6
#     Node 3, Type 0, BuildingBlock: NUHQIS_clean_sbu_0, # of connection points: 6
#     Node 4, Type 0, BuildingBlock: NUHQIS_clean_sbu_0, # of connection points: 6
#     Node 5, Type 0, BuildingBlock: NUHQIS_clean_sbu_0, # of connection points: 6
#     Node 6, Type 0, BuildingBlock: NUHQIS_clean_sbu_0, # of connection points: 6
#     Node 7, Type 0, BuildingBlock: NUHQIS_clean_sbu_0, # of connection points: 6
#     Node 8, Type 0, BuildingBlock: NUHQIS_clean_sbu_0, # of connection points: 6
#     Node 9, Type 0, BuildingBlock: NUHQIS_clean_sbu_0, # of connection points: 6
#     Node 10, Type 0, BuildingBlock: NUHQIS_clean_sbu_0, # of connection points: 6
#     Node 11, Type 0, BuildingBlock: NUHQIS_clean_sbu_0, # of connection points: 6
#     Edge 12, Type (0, 0), BuildingBlock: OJICUG_clean_linker_0, # of connection points: 2
#     Edge 13, Type (0, 0), BuildingBlock: OJICUG_clean_linker_0, # of connection points: 2
#     Edge 14, Type (0, 0), BuildingBlock: OJICUG_clean_linker_0, # of connection points: 2
#     Edge 15, Type (0, 0), BuildingBlock: OJICUG_clean_linker_0, # of connection points: 2
#     Edge 16, Type (0, 0), BuildingBlock: OJICUG_clean_linker_0, # of connection points: 2
#     Edge 17, Type (0, 0), BuildingBlock: OJICUG_clean_linker_0, # of connection points: 2
#     Edge 18, Type (0, 0), BuildingBlock: OJICUG_clean_linker_0, # of connection points: 2
#     Edge 19, Type (0, 0), BuildingBlock: OJICUG_clean_linker_0, # of connection points: 2
#     Edge 20, Type (0, 0), BuildingBlock: OJICUG_clean_linker_0, # of connection points: 2
#     Edge 21, Type (0, 0), BuildingBlock: OJICUG_clean_linker_0, # of connection points: 2
#     Edge 22, Type (0, 0), BuildingBlock: OJICUG_clean_linker_0, # of connection points: 2
#     Edge 23, Type (0, 0), BuildingBlock: OJICUG_clean_linker_0, # of connection points: 2
#     Edge 24, Type (0, 0), BuildingBlock: OJICUG_clean_linker_0, # of connection points: 2
#     Edge 25, Type (0, 0), BuildingBlock: OJICUG_clean_linker_0, # of connection points: 2
#     Edge 26, Type (0, 0), BuildingBlock: OJICUG_clean_linker_0, # of connection points: 2
#     Edge 27, Type (0, 0), BuildingBlock: OJICUG_clean_linker_0, # of connection points: 2
#     Edge 28, Type (0, 0), BuildingBlock: OJICUG_clean_linker_0, # of connection points: 2
#     Edge 29, Type (0, 0), BuildingBlock: OJICUG_clean_linker_0, # of connection points: 2
#     Edge 30, Type (0, 0), BuildingBlock: OJICUG_clean_linker_0, # of connection points: 2
#     Edge 31, Type (0, 0), BuildingBlock: OJICUG_clean_linker_0, # of connection points: 2
#     Edge 32, Type (0, 0), BuildingBlock: OJICUG_clean_linker_0, # of connection points: 2
#     Edge 33, Type (0, 0), BuildingBlock: OJICUG_clean_linker_0, # of connection points: 2
#     Edge 34, Type (0, 0), BuildingBlock: OJICUG_clean_linker_0, # of connection points: 2
#     Edge 35, Type (0, 0), BuildingBlock: OJICUG_clean_linker_0, # of connection points: 2
#     Edge 36, Type (0, 0), BuildingBlock: OJICUG_clean_linker_0, # of connection points: 2
#     Edge 37, Type (0, 0), BuildingBlock: OJICUG_clean_linker_0, # of connection points: 2
#     Edge 38, Type (0, 0), BuildingBlock: OJICUG_clean_linker_0, # of connection points: 2
#     Edge 39, Type (0, 0), BuildingBlock: OJICUG_clean_linker_0, # of connection points: 2
#     Edge 40, Type (0, 0), BuildingBlock: OJICUG_clean_linker_0, # of connection points: 2
#     Edge 41, Type (0, 0), BuildingBlock: OJICUG_clean_linker_0, # of connection points: 2
#     Edge 42, Type (0, 0), BuildingBlock: OJICUG_clean_linker_0, # of connection points: 2
#     Edge 43, Type (0, 0), BuildingBlock: OJICUG_clean_linker_0, # of connection points: 2
#     Edge 44, Type (0, 0), BuildingBlock: OJICUG_clean_linker_0, # of connection points: 2
#     Edge 45, Type (0, 0), BuildingBlock: OJICUG_clean_linker_0, # of connection points: 2
#     Edge 46, Type (0, 0), BuildingBlock: OJICUG_clean_linker_0, # of connection points: 2
#     Edge 47, Type (0, 0), BuildingBlock: OJICUG_clean_linker_0, # of connection points: 2
# Relax obj value: 0.101
# Max RMSD: 0.227
# Mean RMSD: 0.227
data_MOF--net-wjd--node1-NUHQIS_clean_sbu_0--edge1-OJICUG_clean_linker_0
_symmetry_space_group_name_H-M    P1
_symmetry_Int_Tables_number       1
_symmetry_cell_setting            triclinic
loop_
_symmetry_equiv_pos_as_xyz
'x, y, z'
_cell_length_a     31.307228
_cell_length_b     31.460491
_cell_length_c     38.831052
_cell_angle_alpha  89.644503
_cell_angle_beta   90.864343
_cell_angle_gamma 120.00615
loop_
_atom_site_label
_atom_site_type_symbol
_atom_site_fract_x
_atom_site_fract_y
_atom_site_fract_z
_atom_type_partial_charge
Tb0 Tb 0.41843 0.2014 0.10751 0.0
Eu1 Eu 0.35843 0.09351 0.14566 0.0
C2 C 0.35418 0.10224 0.06615 0.0
C3 C 0.3129 0.16323 0.13281 0.0
C4 C 0.50334 0.33598 0.09333 0.0
C5 C 0.54248 0.42516 0.0905 0.0
C6 C 0.50506 0.37844 0.08012 0.0
C7 C 0.53916 0.34097 0.11771 0.0
C8 C 0.5768 0.38771 0.12797 0.0
C9 C 0.57922 0.4305 0.11429 0.0
C10 C 0.46313 0.28713 0.08213 0.0
O11 O 0.42277 0.2143 0.16332 0.0
O12 O 0.41598 0.1425 0.1839 0.0
O13 O 0.43058 0.10151 0.12612 0.0
O14 O 0.47543 0.18597 0.12471 0.0
C15 C 0.42945 0.18895 0.18787 0.0
O16 O 0.31279 0.04722 0.18762 0.0
O17 O 0.32655 1.01396 0.1437 0.0
O18 O 0.32618 0.08672 0.09313 0.0
O19 O 0.39634 0.14436 0.06735 0.0
O20 O 0.34066 0.17885 0.10549 0.0
O21 O 0.31976 0.1365 0.15587 0.0
C22 C 0.47308 0.14309 0.12431 0.0
O23 O 0.47467 0.25341 0.07589 0.0
O24 O 0.42257 0.26951 0.09952 0.0
C25 C 0.24633 0.97327 0.16624 0.0
C26 C 0.14398 0.90877 0.15537 0.0
C27 C 0.17162 0.89607 0.17788 0.0
C28 C 0.22227 0.928 0.18322 0.0
C29 C 0.21893 0.98653 0.14419 0.0
C30 C 0.16831 0.95467 0.13882 0.0
C31 C 0.29992 1.0065 0.17103 0.0
H32 H 0.54346 0.45712 0.07908 0.0
H33 H 0.47756 0.37545 0.0615 0.0
H34 H 0.53816 0.30874 0.1287 0.0
H35 H 0.60414 0.39037 0.14659 0.0
H36 H 0.15407 0.86143 0.19151 0.0
H37 H 0.24268 0.91721 0.20048 0.0
H38 H 0.23685 1.02141 0.13082 0.0
H39 H 0.14852 0.96554 0.12106 0.0
Tb40 Tb 0.8285 0.74177 0.3627 0.0
Eu41 Eu 0.86063 0.67305 0.40908 0.0
C42 C 0.85188 0.66653 0.32647 0.0
C43 C 0.75015 0.63832 0.39004 0.0
C44 C 0.82769 0.85347 0.33742 0.0
C45 C 0.84429 0.93418 0.31848 0.0
C46 C 0.82622 0.88423 0.3117 0.0
C47 C 0.84776 0.87335 0.36991 0.0
C48 C 0.86566 0.92308 0.37673 0.0
C49 C 0.86419 0.95424 0.35113 0.0
C50 C 0.81161 0.80162 0.32991 0.0
O51 O 0.81265 0.75193 0.4149 0.0
O52 O 0.8587 0.72708 0.44722 0.0
O53 O 0.92795 0.73168 0.38295 0.0
O54 O 0.90347 0.78872 0.38246 0.0
C55 C 0.83276 0.74972 0.44422 0.0
O56 O 0.84094 0.60171 0.43086 0.0
O57 O 0.91519 0.66246 0.43825 0.0
O58 O 0.84455 0.6413 0.35502 0.0
O59 O 0.85521 0.70972 0.32575 0.0
O60 O 0.76528 0.66597 0.36216 0.0
O61 O 0.78038 0.64664 0.41605 0.0
C62 C 0.93851 0.77744 0.38072 0.0
O63 O 0.8471 0.7931 0.32269 0.0
O64 O 0.78079 0.76926 0.35151 0.0
C65 C 0.90491 0.58282 0.43108 0.0
C66 C 0.93158 0.51223 0.41275 0.0
C67 C 0.93789 0.52961 0.44683 0.0
C68 C 0.92446 0.56443 0.45592 0.0
C69 C 0.9008 0.56736 0.39674 0.0
C70 C 0.91385 0.53237 0.38769 0.0
C71 C 0.88569 0.61522 0.44145 0.0
H72 H 0.84215 0.95694 0.29826 0.0
H73 H 0.81141 0.86972 0.28633 0.0
H74 H 0.85012 0.85047 0.38996 0.0
H75 H 0.8814 0.93729 0.40196 0.0
H76 H 0.95099 0.51459 0.46681 0.0
H77 H 0.9279 0.57582 0.48257 0.0
H78 H 0.88607 0.58125 0.37707 0.0
H79 H 0.90904 0.52022 0.36115 0.0
Tb80 Tb 0.89586 0.23807 0.10113 0.0
Eu81 Eu 0.99767 0.26926 0.14606 0.0
C82 C 0.99752 0.26741 0.06304 0.0
C83 C 0.92176 0.15908 0.12625 0.0
C84 C 0.76252 0.19265 0.08218 0.0
C85 C 0.67552 0.15731 0.06687 0.0
C86 C 0.72423 0.1726 0.05752 0.0
C87 C 0.75107 0.19521 0.11667 0.0
C88 C 0.70253 0.18033 0.12598 0.0
C89 C 0.6643 0.16223 0.10106 0.0
C90 C 0.8144 0.21442 0.07131 0.0
O91 O 0.88218 0.25235 0.15415 0.0
O92 O 0.93596 0.23501 0.18305 0.0
O93 O 0.98227 0.33311 0.14701 0.0
O94 O 0.94673 0.3155 0.09357 0.0
C95 C 0.89707 0.24006 0.18244 0.0
O96 O 1.0347 0.25252 0.18757 0.0
O97 O 0.07597 0.31835 0.15738 0.0
O98 O 1.02225 0.28495 0.09185 0.0
O99 O 0.94854 0.24281 0.06168 0.0
O100 O 0.88781 0.17187 0.12503 0.0
O101 O 0.96872 0.19259 0.12516 0.0
C102 C 0.96731 0.34644 0.11914 0.0
O103 O 0.84464 0.25794 0.08365 0.0
O104 O 0.83392 0.18623 0.07233 0.0
C105 C 0.11462 0.27265 0.17219 0.0
C106 C 0.17865 0.2358 0.15915 0.0
C107 C 0.17759 0.25418 0.19194 0.0
C108 C 0.1458 0.27244 0.19839 0.0
C109 C 0.1156 0.25445 0.13947 0.0
C110 C 0.14738 0.23639 0.13298 0.0
C111 C 0.07833 0.28806 0.17943 0.0
H112 H 0.64711 0.14396 0.04699 0.0
H113 H 0.73224 0.17036 0.03076 0.0
H114 H 0.77994 0.2103 0.13623 0.0
H115 H 0.69508 0.18411 0.1526 0.0
H116 H 0.20151 0.25469 0.21257 0.0
H117 H 0.14514 0.28584 0.2239 0.0
H118 H 0.09112 0.25346 0.11906 0.0
H119 H 0.14667 0.22187 0.10763 0.0
Tb120 Tb 0.35354 0.1114 0.36589 0.0
Eu121 Eu 0.42851 0.21033 0.4111 0.0
C122 C 0.42803 0.20765 0.32877 0.0
C123 C 0.45825 0.1328 0.39082 0.0
C124 C 0.24044 0.99687 0.34017 0.0
C125 C 0.15312 0.95401 0.32447 0.0
C126 C 0.20207 0.98888 0.31717 0.0
C127 C 0.22893 0.96885 0.37054 0.0
C128 C 0.18004 0.9336 0.37766 0.0
C129 C 0.14154 0.92599 0.35481 0.0
C130 C 0.29152 1.03609 0.33288 0.0
O131 O 0.34597 0.08349 0.41745 0.0
O132 O 0.37915 0.15352 0.45108 0.0
O133 O 0.36905 0.22095 0.387 0.0
O134 O 0.30951 0.14039 0.38819 0.0
C135 C 0.35441 0.10506 0.44753 0.0
O136 O 0.44347 0.27425 0.44231 0.0
O137 O 0.50362 0.26319 0.42737 0.0
O138 O 0.4566 0.22233 0.35632 0.0
O139 O 0.38254 0.1715 0.32981 0.0
O140 O 0.42891 0.12205 0.3635 0.0
O141 O 0.45296 0.15519 0.41727 0.0
C142 C 0.32239 0.18704 0.38621 0.0
O143 O 0.29743 0.07968 0.3281 0.0
O144 O 0.32692 1.03771 0.35201 0.0
C145 C 0.52164 0.34528 0.43221 0.0
C146 C 0.58585 0.44494 0.41422 0.0
C147 C 0.58695 0.42743 0.44757 0.0
C148 C 0.55523 0.37834 0.45641 0.0
C149 C 0.51985 0.36223 0.39893 0.0
C150 C 0.55163 0.41159 0.39002 0.0
C151 C 0.49129 0.29289 0.4416 0.0
H152 H 0.12436 0.94861 0.30618 0.0
H153 H 0.20994 1.01006 0.29364 0.0
H154 H 0.25754 0.97446 0.38904 0.0
H155 H 0.17225 0.91288 0.40138 0.0
H156 H 0.61338 0.4513 0.46678 0.0
H157 H 0.55768 0.36594 0.48207 0.0
H158 H 0.49436 0.33716 0.37974 0.0
H159 H 0.54937 0.42356 0.36419 0.0
Tb160 Tb 0.85653 0.66593 0.10496 0.0
Eu161 Eu 0.8252 0.73745 0.1472 0.0
C162 C 0.81833 0.73062 0.06539 0.0
C163 C 0.93572 0.76944 0.13023 0.0
C164 C 0.90455 0.58035 0.08706 0.0
C165 C 0.95893 0.5479 0.07458 0.0
C166 C 0.94098 0.57978 0.0668 0.0
C167 C 0.88796 0.54978 0.11625 0.0
C168 C 0.90569 0.51764 0.12394 0.0
C169 C 0.94059 0.51533 0.10272 0.0
C170 C 0.88192 0.61013 0.07603 0.0
O171 O 0.84737 0.63938 0.15842 0.0
O172 O 0.85099 0.70489 0.18773 0.0
O173 O 0.76172 0.65867 0.15271 0.0
O174 O 0.77715 0.63233 0.10192 0.0
C175 C 0.85184 0.66372 0.18703 0.0
O176 O 0.84336 0.79313 0.18671 0.0
O177 O 0.779 0.77073 0.1542 0.0
O178 O 0.79745 0.73253 0.0937 0.0
O179 O 0.84996 0.71407 0.06533 0.0
O180 O 0.92187 0.72271 0.13092 0.0
O181 O 0.90262 0.78321 0.12657 0.0
C182 C 0.74865 0.62524 0.12826 0.0
O183 O 0.83772 0.59588 0.08715 0.0
O184 O 0.9096 0.65783 0.07704 0.0
C185 C 0.82612 0.85465 0.16902 0.0
C186 C 0.85912 0.95449 0.15444 0.0
C187 C 0.82255 0.92893 0.17924 0.0
C188 C 0.8063 0.87952 0.18649 0.0
C189 C 0.86266 0.87991 0.14432 0.0
C190 C 0.87913 0.92938 0.13719 0.0
C191 C 0.80913 0.80267 0.1767 0.0
H192 H 0.98649 0.54806 0.05799 0.0
H193 H 0.95465 0.60311 0.04431 0.0
H194 H 0.86004 0.54948 0.13256 0.0
H195 H 0.89028 0.49303 0.14563 0.0
H196 H 0.8068 0.9473 0.19332 0.0
H197 H 0.77831 0.86074 0.20576 0.0
H198 H 0.8784 0.86129 0.13051 0.0
H199 H 0.90691 0.94772 0.11773 0.0
Tb200 Tb 0.99334 0.27318 0.36876 0.0
Eu201 Eu 0.88518 0.22301 0.40567 0.0
C202 C 0.90066 0.24816 0.32447 0.0
C203 C 0.94472 0.33734 0.38942 0.0
C204 C 0.11218 0.28456 0.34892 0.0
C205 C 0.19166 0.291 0.33916 0.0
C206 C 0.15857 0.30814 0.33352 0.0
C207 C 0.09895 0.24314 0.36963 0.0
C208 C 0.13196 0.22597 0.3753 0.0
C209 C 0.17896 0.24994 0.3604 0.0
C210 C 0.07791 0.30349 0.3442 0.0
O211 O 1.00277 0.25045 0.41955 0.0
O212 O 0.9445 0.25925 0.44784 0.0
O213 O 0.911 0.16836 0.40779 0.0
O214 O 0.95427 0.19388 0.35818 0.0
C215 C 0.98779 0.2615 0.44754 0.0
O216 O 0.82885 0.2244 0.43758 0.0
O217 O 0.81418 0.15649 0.41336 0.0
O218 O 0.87363 0.21487 0.3475 0.0
O219 O 0.94653 0.28177 0.33113 0.0
O220 O 0.98581 0.33518 0.38792 0.0
O221 O 0.90113 0.29759 0.38908 0.0
C222 C 0.92901 0.15895 0.3806 0.0
O223 O 1.03697 0.27459 0.32765 0.0
O224 O 0.06981 0.32168 0.37179 0.0
C225 C 0.74556 0.16735 0.42136 0.0
C226 C 0.6477 0.14417 0.40477 0.0
C227 C 0.65693 0.11457 0.42755 0.0
C228 C 0.70523 0.12609 0.43574 0.0
C229 C 0.73681 0.1963 0.39777 0.0
C230 C 0.68832 0.18483 0.38957 0.0
C231 C 0.79604 0.17867 0.4311 0.0
H232 H 0.22722 0.30989 0.32683 0.0
H233 H 0.16934 0.34001 0.31734 0.0
H234 H 0.06321 0.2244 0.38176 0.0
H235 H 0.12108 0.19466 0.39205 0.0
H236 H 0.62672 0.08258 0.43936 0.0
H237 H 0.71111 0.10286 0.45363 0.0
H238 H 0.76742 0.22808 0.38607 0.0
H239 H 0.68272 0.20872 0.37219 0.0
Tb240 Tb 0.13108 0.33891 0.64677 0.0
Eu241 Eu 0.23037 0.41089 0.60212 0.0
C242 C 0.229 0.41481 0.68479 0.0
C243 C 0.15416 0.44323 0.62179 0.0
C244 C 1.01705 0.22624 0.67084 0.0
C245 C 0.97285 0.13998 0.68724 0.0
C246 C 1.00628 0.18916 0.69521 0.0
C247 C 0.99345 0.21327 0.63838 0.0
C248 C 0.95964 0.16421 0.63056 0.0
C249 C 0.94918 0.12697 0.65481 0.0
C250 C 1.05537 0.27744 0.67879 0.0
O251 O 0.10279 0.33165 0.5949 0.0
O252 O 0.17278 0.35957 0.56225 0.0
O253 O 0.24099 0.35307 0.62817 0.0
O254 O 0.16022 0.29399 0.62594 0.0
C255 C 0.12408 0.33698 0.56514 0.0
O256 O 0.2948 0.42315 0.57247 0.0
O257 O 0.28291 0.48388 0.58357 0.0
O258 O 0.24592 0.44117 0.65669 0.0
O259 O 0.19012 0.3708 0.68456 0.0
O260 O 0.14242 0.41417 0.64896 0.0
O261 O 0.17646 0.43715 0.59568 0.0
C262 C 0.20702 0.30669 0.62878 0.0
O263 O 0.09937 0.2842 0.68469 0.0
O264 O 1.05671 0.31195 0.65923 0.0
C265 C 0.36618 0.50154 0.58312 0.0
C266 C 0.46731 0.56643 0.5995 0.0
C267 C 0.45329 0.53265 0.57206 0.0
C268 C 0.4034 0.50082 0.56391 0.0
C269 C 0.37992 0.53349 0.61157 0.0
C270 C 0.42981 0.56558 0.61959 0.0
C271 C 0.31366 0.47078 0.57221 0.0
H272 H 0.96513 0.11217 0.70658 0.0
H273 H 1.02426 0.1982 0.72031 0.0
H274 H 1.00154 0.2409 0.61882 0.0
H275 H 0.94229 0.15527 0.60526 0.0
H276 H 0.48092 0.53138 0.55636 0.0
H277 H 0.3939 0.47633 0.54205 0.0
H278 H 0.35213 0.53474 0.62712 0.0
H279 H 0.43884 0.5912 0.64066 0.0
Tb280 Tb 0.26379 0.86953 0.90827 0.0
Eu281 Eu 0.29327 0.97356 0.86717 0.0
C282 C 0.30169 0.97063 0.94869 0.0
C283 C 0.18346 0.89358 0.88386 0.0
C284 C 0.21716 0.73592 0.92646 0.0
C285 C 0.19346 0.65192 0.94179 0.0
C286 C 0.21106 0.70085 0.95122 0.0
C287 C 0.20451 0.72103 0.89196 0.0
C288 C 0.18663 0.67182 0.88244 0.0
C289 C 0.18115 0.63647 0.90722 0.0
C290 C 0.24021 0.78811 0.93689 0.0
O291 O 0.27368 0.85533 0.85445 0.0
O292 O 0.26634 0.91642 0.82641 0.0
O293 O 0.35725 0.95885 0.86081 0.0
O294 O 0.34304 0.91594 0.91132 0.0
C295 C 0.26713 0.87526 0.82638 0.0
O296 O 0.27458 1.01275 0.82877 0.0
O297 O 0.33977 0.05301 0.86067 0.0
O298 O 0.32172 0.99442 0.92044 0.0
O299 O 0.27024 0.92262 0.94855 0.0
O300 O 0.1981 0.86127 0.88268 0.0
O301 O 0.21587 0.94036 0.88826 0.0
C302 C 0.3712 0.9384 0.88498 0.0
O303 O 0.28323 0.81739 0.92381 0.0
O304 O 0.2124 0.80813 0.93675 0.0
C305 C 0.29425 0.09217 0.84622 0.0
C306 C 0.26373 0.1612 0.8598 0.0
C307 C 0.30159 0.17191 0.83622 0.0
C308 C 0.31662 0.13769 0.82949 0.0
C309 C 0.25676 0.08134 0.86996 0.0
C310 C 0.24155 0.11545 0.87662 0.0
C311 C 0.30965 0.05596 0.83852 0.0
H312 H 0.19109 0.62656 0.96165 0.0
H313 H 0.22113 0.71157 0.9779 0.0
H314 H 0.20922 0.7476 0.87233 0.0
H315 H 0.1773 0.66158 0.85565 0.0
H316 H 0.31908 0.20648 0.82248 0.0
H317 H 0.34552 0.14667 0.81102 0.0
H318 H 0.23914 0.04641 0.88327 0.0
H319 H 0.21276 0.10617 0.89521 0.0
Tb320 Tb 0.76622 0.8143 0.64496 0.0
Eu321 Eu 0.69682 0.84576 0.59924 0.0
C322 C 0.69423 0.8399 0.6815 0.0
C323 C 0.66222 0.73635 0.61624 0.0
C324 C 0.87583 0.81043 0.67173 0.0
C325 C 0.95646 0.82565 0.69109 0.0
C326 C 0.90641 0.80804 0.69748 0.0
C327 C 0.89583 0.83089 0.63965 0.0
C328 C 0.94559 0.84829 0.63322 0.0
C329 C 0.97655 0.84588 0.65881 0.0
C330 C 0.82407 0.79512 0.67869 0.0
O331 O 0.77887 0.8007 0.59277 0.0
O332 O 0.74821 0.84133 0.56008 0.0
O333 O 0.75754 0.91356 0.62416 0.0
O334 O 0.81469 0.88874 0.62608 0.0
C335 C 0.77319 0.81771 0.5632 0.0
O336 O 0.68555 0.89942 0.57015 0.0
O337 O 0.62415 0.82632 0.57885 0.0
O338 O 0.66648 0.82843 0.65356 0.0
O339 O 0.73888 0.84667 0.68092 0.0
O340 O 0.68969 0.75179 0.64456 0.0
O341 O 0.67115 0.76649 0.59051 0.0
C342 C 0.80347 0.92383 0.62675 0.0
O343 O 0.8163 0.8309 0.68621 0.0
O344 O 0.79168 0.7652 0.65627 0.0
C345 C 0.6066 0.89085 0.57845 0.0
C346 C 0.53739 0.91895 0.59761 0.0
C347 C 0.55217 0.92267 0.56314 0.0
C348 C 0.58634 0.90853 0.55365 0.0
C349 C 0.59391 0.88949 0.61313 0.0
C350 C 0.55956 0.90327 0.62259 0.0
C351 C 0.63783 0.87048 0.56778 0.0
H352 H 0.97928 0.82296 0.71125 0.0
H353 H 0.89171 0.79294 0.72255 0.0
H354 H 0.87305 0.834 0.61966 0.0
H355 H 0.95999 0.86436 0.60831 0.0
H356 H 0.53549 0.93414 0.54323 0.0
H357 H 0.59564 0.90982 0.52676 0.0
H358 H 0.60933 0.87622 0.63273 0.0
H359 H 0.54936 0.90046 0.64939 0.0
Tb360 Tb 0.22212 0.4072 0.90532 0.0
Eu361 Eu 0.12285 0.33556 0.85832 0.0
C362 C 0.11927 0.3331 0.94089 0.0
C363 C 0.20024 0.30398 0.88127 0.0
C364 C 0.35284 0.5005 0.93058 0.0
C365 C 0.42148 0.58443 0.93323 0.0
C366 C 0.37303 0.5494 0.94128 0.0
C367 C 0.38284 0.48694 0.91241 0.0
C368 C 0.43184 0.52216 0.90457 0.0
C369 C 0.45135 0.57154 0.91438 0.0
C370 C 0.30027 0.46552 0.93819 0.0
O371 O 0.23988 0.43698 0.85277 0.0
O372 O 0.18587 0.36791 0.82211 0.0
O373 O 0.13627 0.41383 0.85541 0.0
O374 O 0.16937 0.43247 0.90967 0.0
C375 C 0.22509 0.41156 0.82393 0.0
O376 O 0.08932 0.28048 0.81763 0.0
O377 O 1.04463 0.30352 0.84491 0.0
O378 O 0.09578 0.32875 0.91182 0.0
O379 O 0.16816 0.35581 0.94287 0.0
O380 O 0.23346 0.35082 0.88221 0.0
O381 O 0.15311 0.28997 0.8817 0.0
C382 C 0.14964 0.44214 0.88295 0.0
O383 O 0.2687 0.47736 0.92589 0.0
O384 O 0.28395 0.41856 0.93509 0.0
C385 C 1.0095 0.21909 0.83205 0.0
C386 C 0.94679 0.11834 0.84668 0.0
C387 C 0.94823 0.13685 0.81329 0.0
C388 C 0.97935 0.1868 0.80607 0.0
C389 C 1.00838 0.2008 0.86529 0.0
C390 C 0.97732 0.15106 0.87255 0.0
C391 C 1.04471 0.27097 0.82421 0.0
H392 H 0.43554 0.62195 0.94162 0.0
H393 H 0.35093 0.56079 0.95551 0.0
H394 H 0.3683 0.44946 0.9038 0.0
H395 H 0.45389 0.51115 0.88994 0.0
H396 H 0.92495 0.11286 0.79282 0.0
H397 H 0.98011 0.20011 0.78015 0.0
H398 H 1.03207 0.22495 0.88559 0.0
H399 H 0.97788 0.13809 0.89836 0.0
Tb400 Tb 0.29567 0.97696 0.64182 0.0
Eu401 Eu 0.24645 0.86836 0.60396 0.0
C402 C 0.27232 0.88467 0.68516 0.0
C403 C 0.36137 0.93008 0.62128 0.0
C404 C 0.30686 0.09713 0.66087 0.0
C405 C 0.24641 0.12301 0.67117 0.0
C406 C 0.2637 0.0901 0.67686 0.0
C407 C 0.33231 0.13799 0.63925 0.0
C408 C 0.31498 0.17074 0.63349 0.0
C409 C 0.27184 0.16386 0.64942 0.0
C410 C 0.32496 0.06175 0.66565 0.0
O411 O 0.27044 0.98377 0.5912 0.0
O412 O 0.28162 0.92729 0.5625 0.0
O413 O 0.19049 0.89269 0.60258 0.0
O414 O 0.21649 0.9367 0.65238 0.0
C415 C 0.28248 0.96966 0.56324 0.0
O416 O 0.24907 0.8121 0.57263 0.0
O417 O 0.17998 0.79758 0.59479 0.0
O418 O 0.23914 0.85712 0.6618 0.0
O419 O 0.30493 0.93092 0.67939 0.0
O420 O 0.35834 0.97049 0.62282 0.0
O421 O 0.32202 0.88625 0.6212 0.0
C422 C 0.18122 0.91064 0.6299 0.0
O423 O 0.2968 1.02141 0.68251 0.0
O424 O 0.34373 0.05316 0.63861 0.0
C425 C 0.19151 0.72936 0.58828 0.0
C426 C 0.16772 0.63234 0.60589 0.0
C427 C 0.13742 0.64099 0.58314 0.0
C428 C 0.14924 0.68885 0.57445 0.0
C429 C 0.22121 0.72124 0.61184 0.0
C430 C 0.20945 0.67318 0.62055 0.0
C431 C 0.20299 0.77937 0.57811 0.0
H432 H 0.21348 0.11683 0.68426 0.0
H433 H 0.2431 0.0591 0.69375 0.0
H434 H 0.36556 0.14445 0.62647 0.0
H435 H 0.33524 0.20128 0.61618 0.0
H436 H 0.1046 0.61064 0.57176 0.0
H437 H 0.1254 0.69424 0.55661 0.0
H438 H 0.25377 0.75198 0.62318 0.0
H439 H 0.23389 0.66804 0.63789 0.0
Tb440 Tb 0.70567 0.84922 0.9034 0.0
Eu441 Eu 0.76156 0.79685 0.86664 0.0
C442 C 0.76746 0.81139 0.94607 0.0
C443 C 0.81116 0.91287 0.87721 0.0
C444 C 0.6223 0.90099 0.91703 0.0
C445 C 0.58153 0.94963 0.92021 0.0
C446 C 0.62 0.94129 0.93009 0.0
C447 C 0.58602 0.86965 0.89329 0.0
C448 C 0.54737 0.87781 0.88352 0.0
C449 C 0.54432 0.91769 0.89709 0.0
C450 C 0.66332 0.89301 0.92786 0.0
O451 O 0.70059 0.85652 0.84717 0.0
O452 O 0.70486 0.78979 0.82796 0.0
O453 O 0.68758 0.73463 0.8859 0.0
O454 O 0.64651 0.77815 0.88716 0.0
C455 C 0.69281 0.82377 0.82315 0.0
O456 O 0.80446 0.79196 0.82462 0.0
O457 O 0.79202 0.74777 0.87044 0.0
O458 O 0.79485 0.82203 0.91889 0.0
O459 O 0.72625 0.81342 0.94463 0.0
O460 O 0.78396 0.90223 0.90471 0.0
O461 O 0.80284 0.87834 0.85486 0.0
C462 C 0.64625 0.73628 0.88775 0.0
O463 O 0.65211 0.84835 0.93607 0.0
O464 O 0.70248 0.91404 0.90888 0.0
C465 C 0.87191 0.78441 0.84661 0.0
C466 C 0.97427 0.82188 0.85894 0.0
C467 C 0.95735 0.85094 0.84271 0.0
C468 C 0.90683 0.83252 0.8367 0.0
C469 C 0.88872 0.75525 0.86255 0.0
C470 C 0.93915 0.77374 0.86876 0.0
C471 C 0.81806 0.76538 0.84261 0.0
H472 H 0.58013 0.98027 0.93154 0.0
H473 H 0.64781 0.96614 0.94825 0.0
H474 H 0.58741 0.83871 0.88246 0.0
H475 H 0.51971 0.85273 0.8654 0.0
H476 H 0.98314 0.88787 0.83434 0.0
H477 H 0.8952 0.85625 0.82458 0.0
H478 H 0.86269 0.71829 0.87079 0.0
H479 H 0.95047 0.75042 0.88185 0.0
C480 C 0.2185 0.18621 0.17643 0.0
C481 C 0.21205 0.21598 0.15215 0.0
H482 H 0.25473 0.1456 0.18923 0.0
C483 C 0.23768 0.22662 0.12097 0.0
H484 H 0.19879 0.17674 0.20049 0.0
C485 C 0.26948 0.20855 0.11441 0.0
C486 C 0.2764 0.17927 0.13883 0.0
H487 H 0.23398 0.24982 0.10185 0.0
H488 H 0.2892 0.21822 0.09034 0.0
C489 C 0.25023 0.16798 0.16982 0.0
C490 C 0.07785 0.84159 0.37392 0.0
C491 C 0.08956 0.88857 0.36243 0.0
H492 H 1.02123 0.76981 0.38857 0.0
C493 C 1.05123 0.89927 0.35795 0.0
H494 H 0.10646 0.83209 0.37737 0.0
C495 C 1.00225 0.86364 0.36464 0.0
C496 C 0.9905 0.81635 0.37552 0.0
H497 H 1.05916 0.93532 0.34942 0.0
H498 H 0.97354 0.8729 0.36069 0.0
C499 C 1.02892 0.80584 0.38019 0.0
C500 C 0.85608 0.07174 0.13607 0.0
C501 C 0.90632 0.10656 0.13195 0.0
H502 H 0.80197 0.99696 0.1461 0.0
C503 C 0.94106 0.09074 0.13461 0.0
H504 H 0.82815 0.08239 0.13414 0.0
C505 C 0.92586 0.04138 0.14158 0.0
C506 C 0.87562 1.00683 0.14628 0.0
H507 H 0.98004 0.11653 0.13168 0.0
H508 H 0.95355 1.03048 0.14399 0.0
C509 C 0.84098 1.02266 0.14321 0.0
C510 C 0.2346 0.16754 0.37594 0.0
C511 C 0.28476 0.20223 0.38115 0.0
H512 H 0.16193 0.15523 0.36482 0.0
C513 C 0.29947 0.25243 0.38002 0.0
H514 H 0.22203 0.12861 0.37644 0.0
C515 C 0.26518 0.26764 0.37342 0.0
C516 C 0.21512 0.23314 0.36771 0.0
H517 H 0.33772 0.28029 0.38405 0.0
H518 H 0.27795 0.30661 0.37308 0.0
C519 C 0.20015 0.18283 0.36933 0.0
C520 C 0.07338 0.82319 0.14515 0.0
C521 C 0.09046 0.87366 0.14848 0.0
H522 H 1.01202 0.75135 0.13658 0.0
C523 C 1.05607 0.88997 0.14487 0.0
H524 H 0.09873 0.80926 0.14705 0.0
C525 C 1.00587 0.85651 0.13854 0.0
C526 C 0.98894 0.80598 0.13561 0.0
H527 H 0.06778 0.92854 0.14752 0.0
H528 H 0.98032 0.87018 0.13634 0.0
C529 C 1.02347 0.78991 0.13884 0.0
C530 C 0.87289 1.02118 0.39075 0.0
C531 C 0.88265 1.00716 0.35883 0.0
H532 H 0.88004 0.07953 0.42269 0.0
C533 C 0.9098 0.04401 0.3345 0.0
H534 H 0.85163 0.99388 0.40997 0.0
C535 C 0.92623 0.09352 0.34182 0.0
C536 C 0.91562 0.10727 0.37356 0.0
H537 H 0.91854 1.03464 0.30982 0.0
H538 H 0.94646 0.12085 0.32237 0.0
C539 C 0.8891 0.07046 0.398 0.0
C540 C 0.20378 0.18453 0.64064 0.0
C541 C 0.25439 0.19987 0.64389 0.0
H542 H 0.1489 0.20586 0.6331 0.0
C543 C 0.28866 0.25035 0.64189 0.0
H544 H 0.1763 0.14592 0.64172 0.0
C545 C 0.27302 0.28446 0.6367 0.0
C546 C 0.22256 0.2693 0.63342 0.0
H547 H 0.32781 0.2638 0.64489 0.0
H548 H 0.30081 0.32298 0.63552 0.0
C549 C 0.18804 0.21885 0.63544 0.0
C550 C 0.09802 0.82722 0.86826 0.0
C551 C 0.13018 0.87636 0.87784 0.0
H552 H 1.0249 0.77215 0.85399 0.0
C553 C 0.1108 0.90795 0.8809 0.0
H554 H 0.11152 0.80178 0.86524 0.0
C555 C 0.06034 0.89053 0.87479 0.0
C556 C 1.02818 0.84118 0.8653 0.0
H557 H 0.13449 0.946 0.8882 0.0
H558 H 1.04646 0.9156 0.87798 0.0
C559 C 1.04797 0.80999 0.86196 0.0
C560 C 0.88853 0.98802 0.64659 0.0
C561 C 0.84239 0.97574 0.63199 0.0
H562 H 0.95841 0.04557 0.66558 0.0
C563 C 0.83237 1.01363 0.62415 0.0
H564 H 0.89727 0.95966 0.65308 0.0
C565 C 0.86732 0.06257 0.63107 0.0
C566 C 0.91297 0.07488 0.64643 0.0
H567 H 0.79722 1.00547 0.61285 0.0
H568 H 0.85812 0.09076 0.62514 0.0
C569 C 0.92333 1.03711 0.654 0.0
C570 C 0.18161 0.21664 0.875 0.0
C571 C 0.21628 0.26706 0.87736 0.0
H572 H 0.16921 0.14388 0.86736 0.0
C573 C 0.26668 0.28214 0.87478 0.0
H574 H 0.14249 0.20368 0.87677 0.0
C575 C 0.28198 0.24786 0.86942 0.0
C576 C 0.24734 0.1975 0.86658 0.0
H577 H 0.2945 0.32062 0.87658 0.0
H578 H 0.3211 0.26085 0.86765 0.0
C579 C 0.19696 0.18229 0.86974 0.0
C580 C 0.1162 0.90793 0.66864 0.0
C581 C 0.12946 0.89685 0.63689 0.0
H582 H 1.05748 0.90054 0.70052 0.0
C583 C 0.09218 0.86972 0.61239 0.0
H584 H 0.14399 0.92866 0.68812 0.0
C585 C 1.04282 0.85346 0.61955 0.0
C586 C 1.02936 0.86383 0.65143 0.0
H587 H 0.10095 0.86033 0.58771 0.0
H588 H 1.01504 0.83183 0.6003 0.0
C589 C 0.06662 0.89144 0.67587 0.0
C590 C 0.88785 0.05143 0.88606 0.0
C591 C 0.91333 0.06535 0.85476 0.0
H592 H 0.83625 0.99291 0.91774 0.0
C593 C 0.90638 1.02829 0.8314 0.0
H594 H 0.89175 0.07888 0.9045 0.0
C595 C 0.87432 0.97868 0.83901 0.0
C596 C 0.8483 0.96495 0.87011 0.0
H597 H 0.9259 1.0376 0.80725 0.0
H598 H 0.8694 0.95117 0.82027 0.0
C599 C 0.85581 1.00198 0.89362 0.0
C600 C 0.42576 0.24319 0.27254 0.0
C601 C 0.44775 0.22345 0.2942 0.0
H602 H 0.40396 0.24879 0.2209 0.0
C603 C 0.47336 0.20221 0.27963 0.0
H604 H 0.40484 0.2587 0.28338 0.0
C605 C 0.47135 0.19491 0.24406 0.0
C606 C 0.44471 0.20987 0.22269 0.0
H607 H 0.48957 0.18577 0.29594 0.0
H608 H 0.48715 0.17404 0.23361 0.0
C609 C 0.42489 0.2371 0.23685 0.0
C610 C 0.81291 0.61475 0.27484 0.0
C611 C 0.85602 0.64723 0.29312 0.0
H612 H 0.7782 0.59322 0.22494 0.0
C613 C 0.9004 0.67367 0.27529 0.0
H614 H 0.77807 0.59497 0.28806 0.0
C615 C 0.90053 0.67249 0.23935 0.0
C616 C 0.85624 0.64501 0.22081 0.0
H617 H 0.93384 0.69967 0.28887 0.0
H618 H 0.93401 0.69778 0.22606 0.0
C619 C 0.81302 0.61367 0.23874 0.0
C620 C 0.85621 0.19691 0.23585 0.0
C621 C 0.87713 0.24029 0.21632 0.0
H622 H 0.84599 0.16538 0.28631 0.0
C623 C 0.8956 0.28548 0.23321 0.0
H624 H 0.84293 0.16175 0.22329 0.0
C625 C 0.89884 0.28771 0.26917 0.0
C626 C 0.88273 0.24468 0.28866 0.0
H627 H 0.91304 0.31942 0.21868 0.0
H628 H 0.91769 0.32336 0.28159 0.0
C629 C 0.85835 0.19903 0.27189 0.0
C630 C 0.26933 0.40723 0.73734 0.0
C631 C 0.2516 0.43376 0.71877 0.0
H632 H 0.27634 0.3809 0.78684 0.0
C633 C 0.23926 0.46472 0.73664 0.0
H634 H 0.27808 0.38239 0.72407 0.0
C635 C 0.2383 0.46389 0.77277 0.0
C636 C 0.24964 0.43208 0.79109 0.0
H637 H 0.22432 0.48452 0.72282 0.0
H638 H 0.22263 0.48308 0.78595 0.0
C639 C 0.26834 0.40639 0.77327 0.0
C640 C 0.22338 0.83463 0.77266 0.0
C641 C 0.26737 0.85632 0.79216 0.0
H642 H 0.19053 0.82575 0.72241 0.0
C643 C 0.31265 0.87739 0.77524 0.0
H644 H 0.18812 0.81939 0.78533 0.0
C645 C 0.31415 0.88257 0.73948 0.0
C646 C 0.2703 0.86584 0.72025 0.0
H647 H 0.34698 0.89534 0.78987 0.0
H648 H 0.34965 0.90326 0.72721 0.0
C649 C 0.22482 0.83879 0.73673 0.0
C650 C 0.64832 0.79142 0.73158 0.0
C651 C 0.67463 0.83759 0.71594 0.0
H652 H 0.63374 0.75082 0.77864 0.0
C653 C 0.6975 0.8798 0.73675 0.0
H654 H 0.6315 0.75834 0.71602 0.0
C655 C 0.69841 0.87562 0.77264 0.0
C656 C 0.67764 0.82907 0.78795 0.0
H657 H 0.71906 0.9157 0.72514 0.0
H658 H 0.72001 0.90848 0.78791 0.0
C659 C 0.65023 0.78714 0.76736 0.0
C660 C 0.35896 0.04805 0.98022 0.0
C661 C 0.31559 1.00152 0.98035 0.0
H662 H 0.4047 0.11614 0.00641 0.0
C663 C 0.28501 0.98839 0.00911 0.0
H664 H 0.38377 0.05953 0.95861 0.0
C665 C 0.2971 1.02153 0.03663 0.0
C666 C 0.34014 0.06842 0.03607 0.0
H667 H 0.25126 0.95323 0.00996 0.0
H668 H 0.27258 1.01025 0.0584 0.0
C669 C 0.37103 0.08094 0.00759 0.0
C670 C 0.83559 0.76516 0.50818 0.0
C671 C 0.82231 0.77149 0.47472 0.0
H672 H 0.83126 0.77529 0.56207 0.0
C673 C 0.79618 0.79712 0.47047 0.0
H674 H 0.85587 0.746 0.51251 0.0
C675 C 0.78174 0.81389 0.49892 0.0
C676 C 0.79311 0.80562 0.53245 0.0
H677 H 0.78565 0.80333 0.44505 0.0
H678 H 0.76041 0.83197 0.49462 0.0
C679 C 0.82125 0.78203 0.53663 0.0
C680 C 0.1095 0.3185 1.005 0.0
C681 C 0.08827 0.3126 0.97211 0.0
H682 H 0.09774 0.30822 0.05912 0.0
C683 C 1.0362 0.28805 0.96912 0.0
H684 H 0.14919 0.33679 0.00836 0.0
C685 C 1.00634 0.27165 0.99832 0.0
C686 C 1.0277 0.27926 0.03131 0.0
H687 H 1.01822 0.28227 0.94416 0.0
H688 H 0.9667 0.25432 0.99505 0.0
C689 C 0.07967 0.30201 0.03416 0.0
C690 C 0.33074 0.08698 0.51026 0.0
C691 C 0.3365 0.07146 0.47777 0.0
H692 H 0.30841 0.06685 0.56249 0.0
C693 C 0.32386 1.02186 0.47364 0.0
H694 H 0.33997 0.12466 0.51438 0.0
C695 C 0.30607 0.98875 0.5011 0.0
C696 C 0.29976 1.00401 0.53346 0.0
H697 H 0.32805 1.00836 0.44906 0.0
H698 H 0.29721 0.95118 0.49692 0.0
C699 C 0.31227 0.05356 0.53772 0.0
C700 C 0.83371 0.76281 1.00393 0.0
C701 C 0.80527 0.7495 0.03382 0.0
H702 H 0.84473 0.79349 0.95321 0.0
C703 C 0.7645 0.75727 0.03458 0.0
H704 H 0.8654 0.75776 1.00241 0.0
C705 C 0.75267 0.77795 0.00658 0.0
C706 C 0.78129 0.79179 0.97684 0.0
H707 H 0.74133 0.74739 0.05703 0.0
H708 H 0.72092 0.78289 0.00825 0.0
C709 C 0.82195 0.78381 0.97586 0.0
C710 C 0.10561 0.31084 0.50238 0.0
C711 C 0.09008 0.31774 0.53452 0.0
H712 H 0.08549 0.28697 0.45008 0.0
C713 C 1.04015 0.30513 0.53784 0.0
H714 H 0.14349 0.31992 0.49881 0.0
C715 C 1.00687 0.28651 0.50996 0.0
C716 C 1.02222 0.2793 0.47792 0.0
H717 H 1.02651 0.31002 0.56209 0.0
H718 H 0.96912 0.27784 0.51357 0.0
C719 C 0.07205 0.29158 0.47451 0.0
C720 C 0.60987 0.18831 0.12966 0.0
C721 C 0.61427 0.15337 0.11001 0.0
H722 H 0.56203 0.21212 0.14961 0.0
C723 C 0.57089 0.11226 0.09739 0.0
H724 H 0.64239 0.22065 0.13945 0.0
C725 C 0.52434 0.10703 0.10362 0.0
C726 C 0.52048 0.14333 0.12194 0.0
H727 H 0.57304 0.08459 0.08228 0.0
H728 H 0.49169 0.07586 0.09277 0.0
C729 C 0.56373 0.18353 0.13533 0.0
C730 C 0.68386 0.55753 0.3661 0.0
C731 C 0.70102 0.59342 0.39209 0.0
H732 H 0.63459 0.48208 0.35276 0.0
C733 C 0.67601 0.58185 0.4235 0.0
H734 H 0.70307 0.5652 0.34187 0.0
C735 C 0.63664 0.53468 0.42969 0.0
C736 C 0.62179 0.49723 0.40492 0.0
H737 H 0.68851 0.60883 0.44402 0.0
H738 H 0.61912 0.52713 0.45456 0.0
C739 C 0.64471 0.50979 0.37249 0.0
C740 C 0.9666 0.41211 0.08325 0.0
C741 C 0.96903 0.39449 0.11619 0.0
H742 H 0.95539 0.4628 0.05325 0.0
C743 C 0.96642 0.4197 0.14513 0.0
H744 H 0.96847 0.39366 0.06034 0.0
C745 C 0.95888 0.46003 0.14102 0.0
C746 C 0.95424 0.47623 0.10789 0.0
H747 H 0.96775 0.40684 0.17084 0.0
H748 H 0.95568 0.47786 0.1638 0.0
C749 C 0.95938 0.45223 0.07916 0.0
C750 C 0.51808 0.11782 0.42368 0.0
C751 C 0.50191 0.12614 0.39172 0.0
H752 H 0.57614 0.11734 0.45283 0.0
C753 C 0.5323 0.13633 0.36299 0.0
H754 H 0.49561 0.11019 0.44635 0.0
C755 C 0.57924 0.14093 0.36677 0.0
C756 C 0.59625 0.13474 0.39924 0.0
H757 H 0.52108 0.14355 0.33815 0.0
H758 H 0.60261 0.15038 0.34446 0.0
C759 C 0.56438 0.12187 0.42738 0.0
C760 C 0.61549 0.52122 0.12772 0.0
C761 C 0.62181 0.48026 0.12272 0.0
H762 H 0.65088 0.59974 0.13444 0.0
C763 C 0.66996 0.48771 0.12348 0.0
H764 H 0.57887 0.51674 0.12753 0.0
C765 C 0.71065 0.53483 0.12732 0.0
C766 C 0.70451 0.57584 0.131 0.0
H767 H 0.67647 0.45741 0.11937 0.0
H768 H 0.74732 0.53946 0.12622 0.0
C769 C 0.65654 0.56863 0.13207 0.0
C770 C 0.97955 0.46693 0.41668 0.0
C771 C 0.93878 0.47008 0.404 0.0
H772 H 1.01433 0.42284 0.42127 0.0
C773 C 0.90271 0.43089 0.38429 0.0
H774 H 1.00809 0.49662 0.43182 0.0
C775 C 0.9061 0.38891 0.37856 0.0
C776 C 0.94597 0.38502 0.39198 0.0
H777 H 0.87058 0.43172 0.37444 0.0
H778 H 0.8767 0.35884 0.36418 0.0
C779 C 0.98337 0.42495 0.41041 0.0
C780 C 0.14314 0.548 0.58429 0.0
C781 C 0.15778 0.58115 0.61201 0.0
H782 H 0.12957 0.47827 0.56608 0.0
C783 C 0.16518 0.56555 0.64459 0.0
H784 H 0.13765 0.55862 0.55875 0.0
C785 C 0.16002 0.51871 0.64886 0.0
C786 C 0.14798 0.48697 0.62052 0.0
H787 H 0.17604 0.58994 0.66659 0.0
H788 H 0.16831 0.50858 0.67374 0.0
C789 C 0.13852 0.50179 0.58847 0.0
C790 C 0.46355 0.97566 0.88015 0.0
C791 C 0.41613 0.93435 0.88192 0.0
H792 H 0.5417 1.00299 0.88367 0.0
C793 C 0.41144 0.88778 0.88589 0.0
H794 H 0.46813 1.012 0.87755 0.0
C795 C 0.45301 0.88248 0.88928 0.0
C796 C 0.50067 0.92374 0.88929 0.0
H797 H 0.37526 0.85532 0.88751 0.0
H798 H 0.44761 0.84608 0.8936 0.0
C799 C 0.50551 0.97043 0.88406 0.0
C800 C 0.58788 0.66367 0.64246 0.0
C801 C 0.61663 0.68755 0.61359 0.0
H802 H 0.5182 0.60632 0.66088 0.0
C803 C 0.5978 0.66813 0.58071 0.0
H804 H 0.60117 0.67794 0.66811 0.0
C805 C 0.55047 0.62773 0.57648 0.0
C806 C 0.52023 0.60527 0.60502 0.0
H807 H 0.61897 0.68559 0.55788 0.0
H808 H 0.53675 0.61589 0.5505 0.0
C809 C 0.54007 0.62302 0.63821 0.0
C810 C 0.17986 0.57287 0.86631 0.0
C811 C 0.16497 0.58431 0.89742 0.0
H812 H 0.18547 0.51812 0.83682 0.0
C813 C 0.1377 0.54568 0.92057 0.0
H814 H 0.20121 0.6014 0.84787 0.0
C815 C 0.12948 0.49838 0.91438 0.0
C816 C 0.14692 0.48779 0.8844 0.0
H817 H 0.12415 0.55227 0.94427 0.0
H818 H 0.11121 0.47039 0.93384 0.0
C819 C 0.17069 0.52502 0.85981 0.0
C820 C 0.44859 0.96896 0.59984 0.0
C821 C 0.4097 0.93242 0.61901 0.0
H822 H 0.5197 0.99327 0.57767 0.0
C823 C 0.41506 0.89414 0.63323 0.0
H824 H 0.44526 0.99866 0.58837 0.0
C825 C 0.45743 0.89126 0.62743 0.0
C826 C 0.49542 0.92624 0.60685 0.0
H827 H 0.38575 0.86547 0.64819 0.0
H828 H 0.45935 0.86021 0.63781 0.0
C829 C 0.49092 0.96561 0.5935 0.0
C830 C 0.55445 0.69408 0.88363 0.0
C831 C 0.59707 0.69093 0.89049 0.0
H832 H 0.47588 0.6591 0.88526 0.0
C833 C 0.59123 0.64598 0.9024 0.0
H834 H 0.55715 0.72766 0.87386 0.0
C835 C 0.54378 0.60608 0.90899 0.0
C836 C 0.50157 0.61066 0.9039 0.0
H837 H 0.62323 0.6423 0.90794 0.0
H838 H 0.54026 0.57249 0.91942 0.0
C839 C 0.5076 0.65469 0.89024 0.0
loop_
_geom_bond_atom_site_label_1
_geom_bond_atom_site_label_2
_geom_bond_distance
_geom_bond_site_symmetry_2
_ccdc_geom_bond_type
Tb0 C10 2.825 . S
Tb0 O11 2.347 . S
Tb0 O14 2.366 . S
Tb0 O19 2.418 . S
Tb0 O20 2.384 . S
Tb0 O23 2.479 . S
Tb0 O24 2.471 . S
Eu1 O12 2.418 . S
Eu1 O13 2.384 . S
Eu1 O16 2.479 . S
Eu1 O17 2.471 . S
Eu1 O18 2.347 . S
Eu1 O21 2.366 . S
Eu1 C31 2.825 1_545 S
C2 O18 1.259 . S
C2 O19 1.265 . S
C3 O20 1.255 . S
C3 O21 1.265 . S
C4 C6 1.380 . S
C4 C7 1.374 . S
C4 C10 1.507 . S
C5 C6 1.384 . S
C5 C9 1.387 . S
C5 H32 0.930 . S
C6 C4 1.380 . S
C6 C5 1.384 . S
C6 H33 0.931 . S
C7 C4 1.374 . S
C7 C8 1.390 . S
C7 H34 0.930 . S
C8 C7 1.390 . S
C8 C9 1.391 . S
C8 H35 0.930 . S
C9 C5 1.387 . S
C9 C8 1.391 . S
C10 Tb0 2.825 . S
C10 C4 1.507 . S
C10 O23 1.238 . S
C10 O24 1.247 . S
O11 Tb0 2.347 . S
O11 C15 1.259 . S
O12 Eu1 2.418 . S
O12 C15 1.265 . S
O13 Eu1 2.384 . S
O13 C22 1.255 . S
O14 Tb0 2.366 . S
O14 C22 1.265 . S
C15 O11 1.259 . S
C15 O12 1.265 . S
O16 Eu1 2.479 . S
O16 C31 1.238 1_545 S
O17 Eu1 2.471 . S
O17 C31 1.247 1_545 S
O18 Eu1 2.347 . S
O18 C2 1.259 . S
O19 Tb0 2.418 . S
O19 C2 1.265 . S
O20 Tb0 2.384 . S
O20 C3 1.255 . S
O21 Eu1 2.366 . S
O21 C3 1.265 . S
C22 O13 1.255 . S
C22 O14 1.265 . S
O23 Tb0 2.479 . S
O23 C10 1.238 . S
O24 Tb0 2.471 . S
O24 C10 1.247 . S
C25 C28 1.380 . S
C25 C29 1.374 . S
C25 C31 1.507 . S
C26 C27 1.387 . S
C26 C30 1.391 . S
C27 C26 1.387 . S
C27 C28 1.384 . S
C27 H36 0.930 . S
C28 C25 1.380 . S
C28 C27 1.384 . S
C28 H37 0.931 . S
C29 C25 1.374 . S
C29 C30 1.390 . S
C29 H38 0.930 . S
C30 C26 1.391 . S
C30 C29 1.390 . S
C30 H39 0.930 . S
C31 Eu1 2.825 1_565 S
C31 O16 1.238 1_565 S
C31 O17 1.247 1_565 S
C31 C25 1.507 . S
H32 C5 0.930 . S
H33 C6 0.931 . S
H34 C7 0.930 . S
H35 C8 0.930 . S
H36 C27 0.930 . S
H37 C28 0.931 . S
H38 C29 0.930 . S
H39 C30 0.930 . S
Tb40 C50 2.825 . S
Tb40 O51 2.347 . S
Tb40 O54 2.366 . S
Tb40 O59 2.418 . S
Tb40 O60 2.384 . S
Tb40 O63 2.479 . S
Tb40 O64 2.471 . S
Eu41 O52 2.418 . S
Eu41 O53 2.384 . S
Eu41 O56 2.479 . S
Eu41 O57 2.471 . S
Eu41 O58 2.347 . S
Eu41 O61 2.366 . S
Eu41 C71 2.825 . S
C42 O58 1.259 . S
C42 O59 1.265 . S
C43 O60 1.255 . S
C43 O61 1.265 . S
C44 C46 1.380 . S
C44 C47 1.374 . S
C44 C50 1.507 . S
C45 C46 1.384 . S
C45 C49 1.387 . S
C45 H72 0.930 . S
C46 C44 1.380 . S
C46 C45 1.384 . S
C46 H73 0.931 . S
C47 C44 1.374 . S
C47 C48 1.390 . S
C47 H74 0.930 . S
C48 C47 1.390 . S
C48 C49 1.391 . S
C48 H75 0.930 . S
C49 C45 1.387 . S
C49 C48 1.391 . S
C50 Tb40 2.825 . S
C50 C44 1.507 . S
C50 O63 1.238 . S
C50 O64 1.247 . S
O51 Tb40 2.347 . S
O51 C55 1.259 . S
O52 Eu41 2.418 . S
O52 C55 1.265 . S
O53 Eu41 2.384 . S
O53 C62 1.255 . S
O54 Tb40 2.366 . S
O54 C62 1.265 . S
C55 O51 1.259 . S
C55 O52 1.265 . S
O56 Eu41 2.479 . S
O56 C71 1.238 . S
O57 Eu41 2.471 . S
O57 C71 1.247 . S
O58 Eu41 2.347 . S
O58 C42 1.259 . S
O59 Tb40 2.418 . S
O59 C42 1.265 . S
O60 Tb40 2.384 . S
O60 C43 1.255 . S
O61 Eu41 2.366 . S
O61 C43 1.265 . S
C62 O53 1.255 . S
C62 O54 1.265 . S
O63 Tb40 2.479 . S
O63 C50 1.238 . S
O64 Tb40 2.471 . S
O64 C50 1.247 . S
C65 C68 1.380 . S
C65 C69 1.374 . S
C65 C71 1.507 . S
C66 C67 1.387 . S
C66 C70 1.391 . S
C67 C66 1.387 . S
C67 C68 1.384 . S
C67 H76 0.930 . S
C68 C65 1.380 . S
C68 C67 1.384 . S
C68 H77 0.931 . S
C69 C65 1.374 . S
C69 C70 1.390 . S
C69 H78 0.930 . S
C70 C66 1.391 . S
C70 C69 1.390 . S
C70 H79 0.930 . S
C71 Eu41 2.825 . S
C71 O56 1.238 . S
C71 O57 1.247 . S
C71 C65 1.507 . S
H72 C45 0.930 . S
H73 C46 0.931 . S
H74 C47 0.930 . S
H75 C48 0.930 . S
H76 C67 0.930 . S
H77 C68 0.931 . S
H78 C69 0.930 . S
H79 C70 0.930 . S
Tb80 C90 2.825 . S
Tb80 O91 2.347 . S
Tb80 O94 2.366 . S
Tb80 O99 2.418 . S
Tb80 O100 2.384 . S
Tb80 O103 2.479 . S
Tb80 O104 2.471 . S
Eu81 O92 2.418 . S
Eu81 O93 2.384 . S
Eu81 O96 2.479 . S
Eu81 O97 2.471 . S
Eu81 O98 2.347 . S
Eu81 O101 2.366 . S
Eu81 C111 2.825 1_655 S
C82 O98 1.259 . S
C82 O99 1.265 . S
C83 O100 1.255 . S
C83 O101 1.265 . S
C84 C86 1.380 . S
C84 C87 1.374 . S
C84 C90 1.507 . S
C85 C86 1.384 . S
C85 C89 1.387 . S
C85 H112 0.930 . S
C86 C84 1.380 . S
C86 C85 1.384 . S
C86 H113 0.931 . S
C87 C84 1.374 . S
C87 C88 1.390 . S
C87 H114 0.930 . S
C88 C87 1.390 . S
C88 C89 1.391 . S
C88 H115 0.930 . S
C89 C85 1.387 . S
C89 C88 1.391 . S
C90 Tb80 2.825 . S
C90 C84 1.507 . S
C90 O103 1.238 . S
C90 O104 1.247 . S
O91 Tb80 2.347 . S
O91 C95 1.259 . S
O92 Eu81 2.418 . S
O92 C95 1.265 . S
O93 Eu81 2.384 . S
O93 C102 1.255 . S
O94 Tb80 2.366 . S
O94 C102 1.265 . S
C95 O91 1.259 . S
C95 O92 1.265 . S
O96 Eu81 2.479 . S
O96 C111 1.238 1_655 S
O97 Eu81 2.471 . S
O97 C111 1.247 1_655 S
O98 Eu81 2.347 . S
O98 C82 1.259 . S
O99 Tb80 2.418 . S
O99 C82 1.265 . S
O100 Tb80 2.384 . S
O100 C83 1.255 . S
O101 Eu81 2.366 . S
O101 C83 1.265 . S
C102 O93 1.255 . S
C102 O94 1.265 . S
O103 Tb80 2.479 . S
O103 C90 1.238 . S
O104 Tb80 2.471 . S
O104 C90 1.247 . S
C105 C108 1.380 . S
C105 C109 1.374 . S
C105 C111 1.507 . S
C106 C107 1.387 . S
C106 C110 1.391 . S
C107 C106 1.387 . S
C107 C108 1.384 . S
C107 H116 0.930 . S
C108 C105 1.380 . S
C108 C107 1.384 . S
C108 H117 0.931 . S
C109 C105 1.374 . S
C109 C110 1.390 . S
C109 H118 0.930 . S
C110 C106 1.391 . S
C110 C109 1.390 . S
C110 H119 0.930 . S
C111 Eu81 2.825 1_455 S
C111 O96 1.238 1_455 S
C111 O97 1.247 1_455 S
C111 C105 1.507 . S
H112 C85 0.930 . S
H113 C86 0.931 . S
H114 C87 0.930 . S
H115 C88 0.930 . S
H116 C107 0.930 . S
H117 C108 0.931 . S
H118 C109 0.930 . S
H119 C110 0.930 . S
Tb120 C130 2.825 1_545 S
Tb120 O131 2.347 . S
Tb120 O134 2.366 . S
Tb120 O139 2.418 . S
Tb120 O140 2.384 . S
Tb120 O143 2.479 . S
Tb120 O144 2.471 . S
Eu121 O132 2.418 . S
Eu121 O133 2.384 . S
Eu121 O136 2.479 . S
Eu121 O137 2.471 . S
Eu121 O138 2.347 . S
Eu121 O141 2.366 . S
Eu121 C151 2.825 . S
C122 O138 1.259 . S
C122 O139 1.265 . S
C123 O140 1.255 . S
C123 O141 1.265 . S
C124 C126 1.380 . S
C124 C127 1.374 . S
C124 C130 1.507 . S
C125 C126 1.384 . S
C125 C129 1.387 . S
C125 H152 0.930 . S
C126 C124 1.380 . S
C126 C125 1.384 . S
C126 H153 0.931 . S
C127 C124 1.374 . S
C127 C128 1.390 . S
C127 H154 0.930 . S
C128 C127 1.390 . S
C128 C129 1.391 . S
C128 H155 0.930 . S
C129 C125 1.387 . S
C129 C128 1.391 . S
C130 Tb120 2.825 1_565 S
C130 C124 1.507 . S
C130 O143 1.238 1_565 S
C130 O144 1.247 1_565 S
O131 Tb120 2.347 . S
O131 C135 1.259 . S
O132 Eu121 2.418 . S
O132 C135 1.265 . S
O133 Eu121 2.384 . S
O133 C142 1.255 . S
O134 Tb120 2.366 . S
O134 C142 1.265 . S
C135 O131 1.259 . S
C135 O132 1.265 . S
O136 Eu121 2.479 . S
O136 C151 1.238 . S
O137 Eu121 2.471 . S
O137 C151 1.247 . S
O138 Eu121 2.347 . S
O138 C122 1.259 . S
O139 Tb120 2.418 . S
O139 C122 1.265 . S
O140 Tb120 2.384 . S
O140 C123 1.255 . S
O141 Eu121 2.366 . S
O141 C123 1.265 . S
C142 O133 1.255 . S
C142 O134 1.265 . S
O143 Tb120 2.479 . S
O143 C130 1.238 1_545 S
O144 Tb120 2.471 . S
O144 C130 1.247 1_545 S
C145 C148 1.380 . S
C145 C149 1.374 . S
C145 C151 1.507 . S
C146 C147 1.387 . S
C146 C150 1.391 . S
C147 C146 1.387 . S
C147 C148 1.384 . S
C147 H156 0.930 . S
C148 C145 1.380 . S
C148 C147 1.384 . S
C148 H157 0.931 . S
C149 C145 1.374 . S
C149 C150 1.390 . S
C149 H158 0.930 . S
C150 C146 1.391 . S
C150 C149 1.390 . S
C150 H159 0.930 . S
C151 Eu121 2.825 . S
C151 O136 1.238 . S
C151 O137 1.247 . S
C151 C145 1.507 . S
H152 C125 0.930 . S
H153 C126 0.931 . S
H154 C127 0.930 . S
H155 C128 0.930 . S
H156 C147 0.930 . S
H157 C148 0.931 . S
H158 C149 0.930 . S
H159 C150 0.930 . S
Tb160 C170 2.825 . S
Tb160 O171 2.347 . S
Tb160 O174 2.366 . S
Tb160 O179 2.418 . S
Tb160 O180 2.384 . S
Tb160 O183 2.479 . S
Tb160 O184 2.471 . S
Eu161 O172 2.418 . S
Eu161 O173 2.384 . S
Eu161 O176 2.479 . S
Eu161 O177 2.471 . S
Eu161 O178 2.347 . S
Eu161 O181 2.366 . S
Eu161 C191 2.825 . S
C162 O178 1.259 . S
C162 O179 1.265 . S
C163 O180 1.255 . S
C163 O181 1.265 . S
C164 C166 1.380 . S
C164 C167 1.374 . S
C164 C170 1.507 . S
C165 C166 1.384 . S
C165 C169 1.387 . S
C165 H192 0.930 . S
C166 C164 1.380 . S
C166 C165 1.384 . S
C166 H193 0.931 . S
C167 C164 1.374 . S
C167 C168 1.390 . S
C167 H194 0.930 . S
C168 C167 1.390 . S
C168 C169 1.391 . S
C168 H195 0.930 . S
C169 C165 1.387 . S
C169 C168 1.391 . S
C170 Tb160 2.825 . S
C170 C164 1.507 . S
C170 O183 1.238 . S
C170 O184 1.247 . S
O171 Tb160 2.347 . S
O171 C175 1.259 . S
O172 Eu161 2.418 . S
O172 C175 1.265 . S
O173 Eu161 2.384 . S
O173 C182 1.255 . S
O174 Tb160 2.366 . S
O174 C182 1.265 . S
C175 O171 1.259 . S
C175 O172 1.265 . S
O176 Eu161 2.479 . S
O176 C191 1.238 . S
O177 Eu161 2.471 . S
O177 C191 1.247 . S
O178 Eu161 2.347 . S
O178 C162 1.259 . S
O179 Tb160 2.418 . S
O179 C162 1.265 . S
O180 Tb160 2.384 . S
O180 C163 1.255 . S
O181 Eu161 2.366 . S
O181 C163 1.265 . S
C182 O173 1.255 . S
C182 O174 1.265 . S
O183 Tb160 2.479 . S
O183 C170 1.238 . S
O184 Tb160 2.471 . S
O184 C170 1.247 . S
C185 C188 1.380 . S
C185 C189 1.374 . S
C185 C191 1.507 . S
C186 C187 1.387 . S
C186 C190 1.391 . S
C187 C186 1.387 . S
C187 C188 1.384 . S
C187 H196 0.930 . S
C188 C185 1.380 . S
C188 C187 1.384 . S
C188 H197 0.931 . S
C189 C185 1.374 . S
C189 C190 1.390 . S
C189 H198 0.930 . S
C190 C186 1.391 . S
C190 C189 1.390 . S
C190 H199 0.930 . S
C191 Eu161 2.825 . S
C191 O176 1.238 . S
C191 O177 1.247 . S
C191 C185 1.507 . S
H192 C165 0.930 . S
H193 C166 0.931 . S
H194 C167 0.930 . S
H195 C168 0.930 . S
H196 C187 0.930 . S
H197 C188 0.931 . S
H198 C189 0.930 . S
H199 C190 0.930 . S
Tb200 C210 2.825 1_655 S
Tb200 O211 2.347 . S
Tb200 O214 2.366 . S
Tb200 O219 2.418 . S
Tb200 O220 2.384 . S
Tb200 O223 2.479 . S
Tb200 O224 2.471 . S
Eu201 O212 2.418 . S
Eu201 O213 2.384 . S
Eu201 O216 2.479 . S
Eu201 O217 2.471 . S
Eu201 O218 2.347 . S
Eu201 O221 2.366 . S
Eu201 C231 2.825 . S
C202 O218 1.259 . S
C202 O219 1.265 . S
C203 O220 1.255 . S
C203 O221 1.265 . S
C204 C206 1.380 . S
C204 C207 1.374 . S
C204 C210 1.507 . S
C205 C206 1.384 . S
C205 C209 1.387 . S
C205 H232 0.930 . S
C206 C204 1.380 . S
C206 C205 1.384 . S
C206 H233 0.931 . S
C207 C204 1.374 . S
C207 C208 1.390 . S
C207 H234 0.930 . S
C208 C207 1.390 . S
C208 C209 1.391 . S
C208 H235 0.930 . S
C209 C205 1.387 . S
C209 C208 1.391 . S
C210 Tb200 2.825 1_455 S
C210 C204 1.507 . S
C210 O223 1.238 1_455 S
C210 O224 1.247 1_455 S
O211 Tb200 2.347 . S
O211 C215 1.259 . S
O212 Eu201 2.418 . S
O212 C215 1.265 . S
O213 Eu201 2.384 . S
O213 C222 1.255 . S
O214 Tb200 2.366 . S
O214 C222 1.265 . S
C215 O211 1.259 . S
C215 O212 1.265 . S
O216 Eu201 2.479 . S
O216 C231 1.238 . S
O217 Eu201 2.471 . S
O217 C231 1.247 . S
O218 Eu201 2.347 . S
O218 C202 1.259 . S
O219 Tb200 2.418 . S
O219 C202 1.265 . S
O220 Tb200 2.384 . S
O220 C203 1.255 . S
O221 Eu201 2.366 . S
O221 C203 1.265 . S
C222 O213 1.255 . S
C222 O214 1.265 . S
O223 Tb200 2.479 . S
O223 C210 1.238 1_655 S
O224 Tb200 2.471 . S
O224 C210 1.247 1_655 S
C225 C228 1.380 . S
C225 C229 1.374 . S
C225 C231 1.507 . S
C226 C227 1.387 . S
C226 C230 1.391 . S
C227 C226 1.387 . S
C227 C228 1.384 . S
C227 H236 0.930 . S
C228 C225 1.380 . S
C228 C227 1.384 . S
C228 H237 0.931 . S
C229 C225 1.374 . S
C229 C230 1.390 . S
C229 H238 0.930 . S
C230 C226 1.391 . S
C230 C229 1.390 . S
C230 H239 0.930 . S
C231 Eu201 2.825 . S
C231 O216 1.238 . S
C231 O217 1.247 . S
C231 C225 1.507 . S
H232 C205 0.930 . S
H233 C206 0.931 . S
H234 C207 0.930 . S
H235 C208 0.930 . S
H236 C227 0.930 . S
H237 C228 0.931 . S
H238 C229 0.930 . S
H239 C230 0.930 . S
Tb240 C250 2.825 1_455 S
Tb240 O251 2.347 . S
Tb240 O254 2.366 . S
Tb240 O259 2.418 . S
Tb240 O260 2.384 . S
Tb240 O263 2.479 . S
Tb240 O264 2.471 . S
Eu241 O252 2.418 . S
Eu241 O253 2.384 . S
Eu241 O256 2.479 . S
Eu241 O257 2.471 . S
Eu241 O258 2.347 . S
Eu241 O261 2.366 . S
Eu241 C271 2.825 . S
C242 O258 1.259 . S
C242 O259 1.265 . S
C243 O260 1.255 . S
C243 O261 1.265 . S
C244 C246 1.380 . S
C244 C247 1.374 . S
C244 C250 1.507 . S
C245 C246 1.384 . S
C245 C249 1.387 . S
C245 H272 0.930 . S
C246 C244 1.380 . S
C246 C245 1.384 . S
C246 H273 0.931 . S
C247 C244 1.374 . S
C247 C248 1.390 . S
C247 H274 0.930 . S
C248 C247 1.390 . S
C248 C249 1.391 . S
C248 H275 0.930 . S
C249 C245 1.387 . S
C249 C248 1.391 . S
C250 Tb240 2.825 1_655 S
C250 C244 1.507 . S
C250 O263 1.238 1_655 S
C250 O264 1.247 1_655 S
O251 Tb240 2.347 . S
O251 C255 1.259 . S
O252 Eu241 2.418 . S
O252 C255 1.265 . S
O253 Eu241 2.384 . S
O253 C262 1.255 . S
O254 Tb240 2.366 . S
O254 C262 1.265 . S
C255 O251 1.259 . S
C255 O252 1.265 . S
O256 Eu241 2.479 . S
O256 C271 1.238 . S
O257 Eu241 2.471 . S
O257 C271 1.247 . S
O258 Eu241 2.347 . S
O258 C242 1.259 . S
O259 Tb240 2.418 . S
O259 C242 1.265 . S
O260 Tb240 2.384 . S
O260 C243 1.255 . S
O261 Eu241 2.366 . S
O261 C243 1.265 . S
C262 O253 1.255 . S
C262 O254 1.265 . S
O263 Tb240 2.479 . S
O263 C250 1.238 1_455 S
O264 Tb240 2.471 . S
O264 C250 1.247 1_455 S
C265 C268 1.380 . S
C265 C269 1.374 . S
C265 C271 1.507 . S
C266 C267 1.387 . S
C266 C270 1.391 . S
C267 C266 1.387 . S
C267 C268 1.384 . S
C267 H276 0.930 . S
C268 C265 1.380 . S
C268 C267 1.384 . S
C268 H277 0.931 . S
C269 C265 1.374 . S
C269 C270 1.390 . S
C269 H278 0.930 . S
C270 C266 1.391 . S
C270 C269 1.390 . S
C270 H279 0.930 . S
C271 Eu241 2.825 . S
C271 O256 1.238 . S
C271 O257 1.247 . S
C271 C265 1.507 . S
H272 C245 0.930 . S
H273 C246 0.931 . S
H274 C247 0.930 . S
H275 C248 0.930 . S
H276 C267 0.930 . S
H277 C268 0.931 . S
H278 C269 0.930 . S
H279 C270 0.930 . S
Tb280 C290 2.825 . S
Tb280 O291 2.347 . S
Tb280 O294 2.366 . S
Tb280 O299 2.418 . S
Tb280 O300 2.384 . S
Tb280 O303 2.479 . S
Tb280 O304 2.471 . S
Eu281 O292 2.418 . S
Eu281 O293 2.384 . S
Eu281 O296 2.479 . S
Eu281 O297 2.471 . S
Eu281 O298 2.347 . S
Eu281 O301 2.366 . S
Eu281 C311 2.825 1_565 S
C282 O298 1.259 . S
C282 O299 1.265 . S
C283 O300 1.255 . S
C283 O301 1.265 . S
C284 C286 1.380 . S
C284 C287 1.374 . S
C284 C290 1.507 . S
C285 C286 1.384 . S
C285 C289 1.387 . S
C285 H312 0.930 . S
C286 C284 1.380 . S
C286 C285 1.384 . S
C286 H313 0.931 . S
C287 C284 1.374 . S
C287 C288 1.390 . S
C287 H314 0.930 . S
C288 C287 1.390 . S
C288 C289 1.391 . S
C288 H315 0.930 . S
C289 C285 1.387 . S
C289 C288 1.391 . S
C290 Tb280 2.825 . S
C290 C284 1.507 . S
C290 O303 1.238 . S
C290 O304 1.247 . S
O291 Tb280 2.347 . S
O291 C295 1.259 . S
O292 Eu281 2.418 . S
O292 C295 1.265 . S
O293 Eu281 2.384 . S
O293 C302 1.255 . S
O294 Tb280 2.366 . S
O294 C302 1.265 . S
C295 O291 1.259 . S
C295 O292 1.265 . S
O296 Eu281 2.479 . S
O296 C311 1.238 1_565 S
O297 Eu281 2.471 . S
O297 C311 1.247 1_565 S
O298 Eu281 2.347 . S
O298 C282 1.259 . S
O299 Tb280 2.418 . S
O299 C282 1.265 . S
O300 Tb280 2.384 . S
O300 C283 1.255 . S
O301 Eu281 2.366 . S
O301 C283 1.265 . S
C302 O293 1.255 . S
C302 O294 1.265 . S
O303 Tb280 2.479 . S
O303 C290 1.238 . S
O304 Tb280 2.471 . S
O304 C290 1.247 . S
C305 C308 1.380 . S
C305 C309 1.374 . S
C305 C311 1.507 . S
C306 C307 1.387 . S
C306 C310 1.391 . S
C307 C306 1.387 . S
C307 C308 1.384 . S
C307 H316 0.930 . S
C308 C305 1.380 . S
C308 C307 1.384 . S
C308 H317 0.931 . S
C309 C305 1.374 . S
C309 C310 1.390 . S
C309 H318 0.930 . S
C310 C306 1.391 . S
C310 C309 1.390 . S
C310 H319 0.930 . S
C311 Eu281 2.825 1_545 S
C311 O296 1.238 1_545 S
C311 O297 1.247 1_545 S
C311 C305 1.507 . S
H312 C285 0.930 . S
H313 C286 0.931 . S
H314 C287 0.930 . S
H315 C288 0.930 . S
H316 C307 0.930 . S
H317 C308 0.931 . S
H318 C309 0.930 . S
H319 C310 0.930 . S
Tb320 C330 2.825 . S
Tb320 O331 2.347 . S
Tb320 O334 2.366 . S
Tb320 O339 2.418 . S
Tb320 O340 2.384 . S
Tb320 O343 2.479 . S
Tb320 O344 2.471 . S
Eu321 O332 2.418 . S
Eu321 O333 2.384 . S
Eu321 O336 2.479 . S
Eu321 O337 2.471 . S
Eu321 O338 2.347 . S
Eu321 O341 2.366 . S
Eu321 C351 2.825 . S
C322 O338 1.259 . S
C322 O339 1.265 . S
C323 O340 1.255 . S
C323 O341 1.265 . S
C324 C326 1.380 . S
C324 C327 1.374 . S
C324 C330 1.507 . S
C325 C326 1.384 . S
C325 C329 1.387 . S
C325 H352 0.930 . S
C326 C324 1.380 . S
C326 C325 1.384 . S
C326 H353 0.931 . S
C327 C324 1.374 . S
C327 C328 1.390 . S
C327 H354 0.930 . S
C328 C327 1.390 . S
C328 C329 1.391 . S
C328 H355 0.930 . S
C329 C325 1.387 . S
C329 C328 1.391 . S
C330 Tb320 2.825 . S
C330 C324 1.507 . S
C330 O343 1.238 . S
C330 O344 1.247 . S
O331 Tb320 2.347 . S
O331 C335 1.259 . S
O332 Eu321 2.418 . S
O332 C335 1.265 . S
O333 Eu321 2.384 . S
O333 C342 1.255 . S
O334 Tb320 2.366 . S
O334 C342 1.265 . S
C335 O331 1.259 . S
C335 O332 1.265 . S
O336 Eu321 2.479 . S
O336 C351 1.238 . S
O337 Eu321 2.471 . S
O337 C351 1.247 . S
O338 Eu321 2.347 . S
O338 C322 1.259 . S
O339 Tb320 2.418 . S
O339 C322 1.265 . S
O340 Tb320 2.384 . S
O340 C323 1.255 . S
O341 Eu321 2.366 . S
O341 C323 1.265 . S
C342 O333 1.255 . S
C342 O334 1.265 . S
O343 Tb320 2.479 . S
O343 C330 1.238 . S
O344 Tb320 2.471 . S
O344 C330 1.247 . S
C345 C348 1.380 . S
C345 C349 1.374 . S
C345 C351 1.507 . S
C346 C347 1.387 . S
C346 C350 1.391 . S
C347 C346 1.387 . S
C347 C348 1.384 . S
C347 H356 0.930 . S
C348 C345 1.380 . S
C348 C347 1.384 . S
C348 H357 0.931 . S
C349 C345 1.374 . S
C349 C350 1.390 . S
C349 H358 0.930 . S
C350 C346 1.391 . S
C350 C349 1.390 . S
C350 H359 0.930 . S
C351 Eu321 2.825 . S
C351 O336 1.238 . S
C351 O337 1.247 . S
C351 C345 1.507 . S
H352 C325 0.930 . S
H353 C326 0.931 . S
H354 C327 0.930 . S
H355 C328 0.930 . S
H356 C347 0.930 . S
H357 C348 0.931 . S
H358 C349 0.930 . S
H359 C350 0.930 . S
Tb360 C370 2.825 . S
Tb360 O371 2.347 . S
Tb360 O374 2.366 . S
Tb360 O379 2.418 . S
Tb360 O380 2.384 . S
Tb360 O383 2.479 . S
Tb360 O384 2.471 . S
Eu361 O372 2.418 . S
Eu361 O373 2.384 . S
Eu361 O376 2.479 . S
Eu361 O377 2.471 . S
Eu361 O378 2.347 . S
Eu361 O381 2.366 . S
Eu361 C391 2.825 1_455 S
C362 O378 1.259 . S
C362 O379 1.265 . S
C363 O380 1.255 . S
C363 O381 1.265 . S
C364 C366 1.380 . S
C364 C367 1.374 . S
C364 C370 1.507 . S
C365 C366 1.384 . S
C365 C369 1.387 . S
C365 H392 0.930 . S
C366 C364 1.380 . S
C366 C365 1.384 . S
C366 H393 0.931 . S
C367 C364 1.374 . S
C367 C368 1.390 . S
C367 H394 0.930 . S
C368 C367 1.390 . S
C368 C369 1.391 . S
C368 H395 0.930 . S
C369 C365 1.387 . S
C369 C368 1.391 . S
C370 Tb360 2.825 . S
C370 C364 1.507 . S
C370 O383 1.238 . S
C370 O384 1.247 . S
O371 Tb360 2.347 . S
O371 C375 1.259 . S
O372 Eu361 2.418 . S
O372 C375 1.265 . S
O373 Eu361 2.384 . S
O373 C382 1.255 . S
O374 Tb360 2.366 . S
O374 C382 1.265 . S
C375 O371 1.259 . S
C375 O372 1.265 . S
O376 Eu361 2.479 . S
O376 C391 1.238 1_455 S
O377 Eu361 2.471 . S
O377 C391 1.247 1_455 S
O378 Eu361 2.347 . S
O378 C362 1.259 . S
O379 Tb360 2.418 . S
O379 C362 1.265 . S
O380 Tb360 2.384 . S
O380 C363 1.255 . S
O381 Eu361 2.366 . S
O381 C363 1.265 . S
C382 O373 1.255 . S
C382 O374 1.265 . S
O383 Tb360 2.479 . S
O383 C370 1.238 . S
O384 Tb360 2.471 . S
O384 C370 1.247 . S
C385 C388 1.380 . S
C385 C389 1.374 . S
C385 C391 1.507 . S
C386 C387 1.387 . S
C386 C390 1.391 . S
C387 C386 1.387 . S
C387 C388 1.384 . S
C387 H396 0.930 . S
C388 C385 1.380 . S
C388 C387 1.384 . S
C388 H397 0.931 . S
C389 C385 1.374 . S
C389 C390 1.390 . S
C389 H398 0.930 . S
C390 C386 1.391 . S
C390 C389 1.390 . S
C390 H399 0.930 . S
C391 Eu361 2.825 1_655 S
C391 O376 1.238 1_655 S
C391 O377 1.247 1_655 S
C391 C385 1.507 . S
H392 C365 0.930 . S
H393 C366 0.931 . S
H394 C367 0.930 . S
H395 C368 0.930 . S
H396 C387 0.930 . S
H397 C388 0.931 . S
H398 C389 0.930 . S
H399 C390 0.930 . S
Tb400 C410 2.825 1_565 S
Tb400 O411 2.347 . S
Tb400 O414 2.366 . S
Tb400 O419 2.418 . S
Tb400 O420 2.384 . S
Tb400 O423 2.479 . S
Tb400 O424 2.471 . S
Eu401 O412 2.418 . S
Eu401 O413 2.384 . S
Eu401 O416 2.479 . S
Eu401 O417 2.471 . S
Eu401 O418 2.347 . S
Eu401 O421 2.366 . S
Eu401 C431 2.825 . S
C402 O418 1.259 . S
C402 O419 1.265 . S
C403 O420 1.255 . S
C403 O421 1.265 . S
C404 C406 1.380 . S
C404 C407 1.374 . S
C404 C410 1.507 . S
C405 C406 1.384 . S
C405 C409 1.387 . S
C405 H432 0.930 . S
C406 C404 1.380 . S
C406 C405 1.384 . S
C406 H433 0.931 . S
C407 C404 1.374 . S
C407 C408 1.390 . S
C407 H434 0.930 . S
C408 C407 1.390 . S
C408 C409 1.391 . S
C408 H435 0.930 . S
C409 C405 1.387 . S
C409 C408 1.391 . S
C410 Tb400 2.825 1_545 S
C410 C404 1.507 . S
C410 O423 1.238 1_545 S
C410 O424 1.247 1_545 S
O411 Tb400 2.347 . S
O411 C415 1.259 . S
O412 Eu401 2.418 . S
O412 C415 1.265 . S
O413 Eu401 2.384 . S
O413 C422 1.255 . S
O414 Tb400 2.366 . S
O414 C422 1.265 . S
C415 O411 1.259 . S
C415 O412 1.265 . S
O416 Eu401 2.479 . S
O416 C431 1.238 . S
O417 Eu401 2.471 . S
O417 C431 1.247 . S
O418 Eu401 2.347 . S
O418 C402 1.259 . S
O419 Tb400 2.418 . S
O419 C402 1.265 . S
O420 Tb400 2.384 . S
O420 C403 1.255 . S
O421 Eu401 2.366 . S
O421 C403 1.265 . S
C422 O413 1.255 . S
C422 O414 1.265 . S
O423 Tb400 2.479 . S
O423 C410 1.238 1_565 S
O424 Tb400 2.471 . S
O424 C410 1.247 1_565 S
C425 C428 1.380 . S
C425 C429 1.374 . S
C425 C431 1.507 . S
C426 C427 1.387 . S
C426 C430 1.391 . S
C427 C426 1.387 . S
C427 C428 1.384 . S
C427 H436 0.930 . S
C428 C425 1.380 . S
C428 C427 1.384 . S
C428 H437 0.931 . S
C429 C425 1.374 . S
C429 C430 1.390 . S
C429 H438 0.930 . S
C430 C426 1.391 . S
C430 C429 1.390 . S
C430 H439 0.930 . S
C431 Eu401 2.825 . S
C431 O416 1.238 . S
C431 O417 1.247 . S
C431 C425 1.507 . S
H432 C405 0.930 . S
H433 C406 0.931 . S
H434 C407 0.930 . S
H435 C408 0.930 . S
H436 C427 0.930 . S
H437 C428 0.931 . S
H438 C429 0.930 . S
H439 C430 0.930 . S
Tb440 C450 2.825 . S
Tb440 O451 2.347 . S
Tb440 O454 2.366 . S
Tb440 O459 2.418 . S
Tb440 O460 2.384 . S
Tb440 O463 2.479 . S
Tb440 O464 2.471 . S
Eu441 O452 2.418 . S
Eu441 O453 2.384 . S
Eu441 O456 2.479 . S
Eu441 O457 2.471 . S
Eu441 O458 2.347 . S
Eu441 O461 2.366 . S
Eu441 C471 2.825 . S
C442 O458 1.259 . S
C442 O459 1.265 . S
C443 O460 1.255 . S
C443 O461 1.265 . S
C444 C446 1.380 . S
C444 C447 1.374 . S
C444 C450 1.507 . S
C445 C446 1.384 . S
C445 C449 1.387 . S
C445 H472 0.930 . S
C446 C444 1.380 . S
C446 C445 1.384 . S
C446 H473 0.931 . S
C447 C444 1.374 . S
C447 C448 1.390 . S
C447 H474 0.930 . S
C448 C447 1.390 . S
C448 C449 1.391 . S
C448 H475 0.930 . S
C449 C445 1.387 . S
C449 C448 1.391 . S
C450 Tb440 2.825 . S
C450 C444 1.507 . S
C450 O463 1.238 . S
C450 O464 1.247 . S
O451 Tb440 2.347 . S
O451 C455 1.259 . S
O452 Eu441 2.418 . S
O452 C455 1.265 . S
O453 Eu441 2.384 . S
O453 C462 1.255 . S
O454 Tb440 2.366 . S
O454 C462 1.265 . S
C455 O451 1.259 . S
C455 O452 1.265 . S
O456 Eu441 2.479 . S
O456 C471 1.238 . S
O457 Eu441 2.471 . S
O457 C471 1.247 . S
O458 Eu441 2.347 . S
O458 C442 1.259 . S
O459 Tb440 2.418 . S
O459 C442 1.265 . S
O460 Tb440 2.384 . S
O460 C443 1.255 . S
O461 Eu441 2.366 . S
O461 C443 1.265 . S
C462 O453 1.255 . S
C462 O454 1.265 . S
O463 Tb440 2.479 . S
O463 C450 1.238 . S
O464 Tb440 2.471 . S
O464 C450 1.247 . S
C465 C468 1.380 . S
C465 C469 1.374 . S
C465 C471 1.507 . S
C466 C467 1.387 . S
C466 C470 1.391 . S
C467 C466 1.387 . S
C467 C468 1.384 . S
C467 H476 0.930 . S
C468 C465 1.380 . S
C468 C467 1.384 . S
C468 H477 0.931 . S
C469 C465 1.374 . S
C469 C470 1.390 . S
C469 H478 0.930 . S
C470 C466 1.391 . S
C470 C469 1.390 . S
C470 H479 0.930 . S
C471 Eu441 2.825 . S
C471 O456 1.238 . S
C471 O457 1.247 . S
C471 C465 1.507 . S
H472 C445 0.930 . S
H473 C446 0.931 . S
H474 C447 0.930 . S
H475 C448 0.930 . S
H476 C467 0.930 . S
H477 C468 0.931 . S
H478 C469 0.930 . S
H479 C470 0.930 . S
C480 C481 1.387 . S
C480 H484 0.950 . S
C480 C489 1.390 . S
C481 C480 1.387 . S
C481 C483 1.387 . S
H482 C489 0.950 . S
C483 C481 1.387 . S
C483 C485 1.390 . S
C483 H487 0.950 . S
H484 C480 0.950 . S
C485 C483 1.390 . S
C485 C486 1.387 . S
C485 H488 0.950 . S
C486 C485 1.387 . S
C486 C489 1.387 . S
H487 C483 0.950 . S
H488 C485 0.950 . S
C489 C480 1.390 . S
C489 H482 0.950 . S
C489 C486 1.387 . S
C490 C491 1.387 . S
C490 H494 0.950 . S
C490 C499 1.390 1_455 S
C491 C490 1.387 . S
C491 C493 1.387 1_455 S
H492 C499 0.950 . S
C493 C491 1.387 1_655 S
C493 C495 1.390 . S
C493 H497 0.950 . S
H494 C490 0.950 . S
C495 C493 1.390 . S
C495 C496 1.387 . S
C495 H498 0.950 . S
C496 C495 1.387 . S
C496 C499 1.387 . S
H497 C493 0.950 . S
H498 C495 0.950 . S
C499 C490 1.390 1_655 S
C499 H492 0.950 . S
C499 C496 1.387 . S
C500 C501 1.387 . S
C500 H504 0.950 . S
C500 C509 1.390 . S
C501 C500 1.387 . S
C501 C503 1.387 . S
H502 C509 0.950 1_565 S
C503 C501 1.387 . S
C503 C505 1.390 1_545 S
C503 H507 0.950 . S
H504 C500 0.950 . S
C505 C503 1.390 1_565 S
C505 C506 1.387 . S
C505 H508 0.950 . S
C506 C505 1.387 . S
C506 C509 1.387 1_565 S
H507 C503 0.950 . S
H508 C505 0.950 . S
C509 C500 1.390 . S
C509 H502 0.950 1_545 S
C509 C506 1.387 1_545 S
C510 C511 1.387 . S
C510 H514 0.950 . S
C510 C519 1.390 . S
C511 C510 1.387 . S
C511 C513 1.387 . S
H512 C519 0.950 . S
C513 C511 1.387 . S
C513 C515 1.390 . S
C513 H517 0.950 . S
H514 C510 0.950 . S
C515 C513 1.390 . S
C515 C516 1.387 . S
C515 H518 0.950 . S
C516 C515 1.387 . S
C516 C519 1.387 . S
H517 C513 0.950 . S
H518 C515 0.950 . S
C519 C510 1.390 . S
C519 H512 0.950 . S
C519 C516 1.387 . S
C520 C521 1.387 . S
C520 H524 0.950 . S
C520 C529 1.390 1_455 S
C521 C520 1.387 . S
C521 C523 1.387 1_455 S
H522 C529 0.950 . S
C523 C521 1.387 1_655 S
C523 C525 1.390 . S
C523 H527 0.950 . S
H524 C520 0.950 . S
C525 C523 1.390 . S
C525 C526 1.387 . S
C525 H528 0.950 . S
C526 C525 1.387 . S
C526 C529 1.387 . S
H527 C523 0.950 . S
H528 C525 0.950 . S
C529 C520 1.390 1_655 S
C529 H522 0.950 . S
C529 C526 1.387 . S
C530 C531 1.387 . S
C530 H534 0.950 . S
C530 C539 1.390 1_565 S
C531 C530 1.387 . S
C531 C533 1.387 1_565 S
H532 C539 0.950 . S
C533 C531 1.387 1_545 S
C533 C535 1.390 . S
C533 H537 0.950 . S
H534 C530 0.950 . S
C535 C533 1.390 . S
C535 C536 1.387 . S
C535 H538 0.950 . S
C536 C535 1.387 . S
C536 C539 1.387 . S
H537 C533 0.950 . S
H538 C535 0.950 . S
C539 C530 1.390 1_545 S
C539 H532 0.950 . S
C539 C536 1.387 . S
C540 C541 1.387 . S
C540 H544 0.950 . S
C540 C549 1.390 . S
C541 C540 1.387 . S
C541 C543 1.387 . S
H542 C549 0.950 . S
C543 C541 1.387 . S
C543 C545 1.390 . S
C543 H547 0.950 . S
H544 C540 0.950 . S
C545 C543 1.390 . S
C545 C546 1.387 . S
C545 H548 0.950 . S
C546 C545 1.387 . S
C546 C549 1.387 . S
H547 C543 0.950 . S
H548 C545 0.950 . S
C549 C540 1.390 . S
C549 H542 0.950 . S
C549 C546 1.387 . S
C550 C551 1.387 . S
C550 H554 0.950 . S
C550 C559 1.390 1_455 S
C551 C550 1.387 . S
C551 C553 1.387 . S
H552 C559 0.950 . S
C553 C551 1.387 . S
C553 C555 1.390 . S
C553 H557 0.950 . S
H554 C550 0.950 . S
C555 C553 1.390 . S
C555 C556 1.387 1_455 S
C555 H558 0.950 . S
C556 C555 1.387 1_655 S
C556 C559 1.387 . S
H557 C553 0.950 . S
H558 C555 0.950 . S
C559 C550 1.390 1_655 S
C559 H552 0.950 . S
C559 C556 1.387 . S
C560 C561 1.387 . S
C560 H564 0.950 . S
C560 C569 1.390 . S
C561 C560 1.387 . S
C561 C563 1.387 . S
H562 C569 0.950 . S
C563 C561 1.387 . S
C563 C565 1.390 1_565 S
C563 H567 0.950 . S
H564 C560 0.950 . S
C565 C563 1.390 1_545 S
C565 C566 1.387 . S
C565 H568 0.950 . S
C566 C565 1.387 . S
C566 C569 1.387 1_545 S
H567 C563 0.950 . S
H568 C565 0.950 . S
C569 C560 1.390 . S
C569 H562 0.950 . S
C569 C566 1.387 1_565 S
C570 C571 1.387 . S
C570 H574 0.950 . S
C570 C579 1.390 . S
C571 C570 1.387 . S
C571 C573 1.387 . S
H572 C579 0.950 . S
C573 C571 1.387 . S
C573 C575 1.390 . S
C573 H577 0.950 . S
H574 C570 0.950 . S
C575 C573 1.390 . S
C575 C576 1.387 . S
C575 H578 0.950 . S
C576 C575 1.387 . S
C576 C579 1.387 . S
H577 C573 0.950 . S
H578 C575 0.950 . S
C579 C570 1.390 . S
C579 H572 0.950 . S
C579 C576 1.387 . S
C580 C581 1.387 . S
C580 H584 0.950 . S
C580 C589 1.390 . S
C581 C580 1.387 . S
C581 C583 1.387 . S
H582 C589 0.950 1_655 S
C583 C581 1.387 . S
C583 C585 1.390 1_455 S
C583 H587 0.950 . S
H584 C580 0.950 . S
C585 C583 1.390 1_655 S
C585 C586 1.387 . S
C585 H588 0.950 . S
C586 C585 1.387 . S
C586 C589 1.387 1_655 S
H587 C583 0.950 . S
H588 C585 0.950 . S
C589 C580 1.390 . S
C589 H582 0.950 1_455 S
C589 C586 1.387 1_455 S
C590 C591 1.387 . S
C590 H594 0.950 . S
C590 C599 1.390 1_545 S
C591 C590 1.387 . S
C591 C593 1.387 1_545 S
H592 C599 0.950 . S
C593 C591 1.387 1_565 S
C593 C595 1.390 . S
C593 H597 0.950 . S
H594 C590 0.950 . S
C595 C593 1.390 . S
C595 C596 1.387 . S
C595 H598 0.950 . S
C596 C595 1.387 . S
C596 C599 1.387 . S
H597 C593 0.950 . S
H598 C595 0.950 . S
C599 C590 1.390 1_565 S
C599 H592 0.950 . S
C599 C596 1.387 . S
C600 C601 1.387 . S
C600 H604 0.950 . S
C600 C609 1.390 . S
C601 C600 1.387 . S
C601 C603 1.387 . S
H602 C609 0.950 . S
C603 C601 1.387 . S
C603 C605 1.390 . S
C603 H607 0.950 . S
H604 C600 0.950 . S
C605 C603 1.390 . S
C605 C606 1.387 . S
C605 H608 0.950 . S
C606 C605 1.387 . S
C606 C609 1.387 . S
H607 C603 0.950 . S
H608 C605 0.950 . S
C609 C600 1.390 . S
C609 H602 0.950 . S
C609 C606 1.387 . S
C610 C611 1.387 . S
C610 H614 0.950 . S
C610 C619 1.390 . S
C611 C610 1.387 . S
C611 C613 1.387 . S
H612 C619 0.950 . S
C613 C611 1.387 . S
C613 C615 1.390 . S
C613 H617 0.950 . S
H614 C610 0.950 . S
C615 C613 1.390 . S
C615 C616 1.387 . S
C615 H618 0.950 . S
C616 C615 1.387 . S
C616 C619 1.387 . S
H617 C613 0.950 . S
H618 C615 0.950 . S
C619 C610 1.390 . S
C619 H612 0.950 . S
C619 C616 1.387 . S
C620 C621 1.387 . S
C620 H624 0.950 . S
C620 C629 1.390 . S
C621 C620 1.387 . S
C621 C623 1.387 . S
H622 C629 0.950 . S
C623 C621 1.387 . S
C623 C625 1.390 . S
C623 H627 0.950 . S
H624 C620 0.950 . S
C625 C623 1.390 . S
C625 C626 1.387 . S
C625 H628 0.950 . S
C626 C625 1.387 . S
C626 C629 1.387 . S
H627 C623 0.950 . S
H628 C625 0.950 . S
C629 C620 1.390 . S
C629 H622 0.950 . S
C629 C626 1.387 . S
C630 C631 1.387 . S
C630 H634 0.950 . S
C630 C639 1.390 . S
C631 C630 1.387 . S
C631 C633 1.387 . S
H632 C639 0.950 . S
C633 C631 1.387 . S
C633 C635 1.390 . S
C633 H637 0.950 . S
H634 C630 0.950 . S
C635 C633 1.390 . S
C635 C636 1.387 . S
C635 H638 0.950 . S
C636 C635 1.387 . S
C636 C639 1.387 . S
H637 C633 0.950 . S
H638 C635 0.950 . S
C639 C630 1.390 . S
C639 H632 0.950 . S
C639 C636 1.387 . S
C640 C641 1.387 . S
C640 H644 0.950 . S
C640 C649 1.390 . S
C641 C640 1.387 . S
C641 C643 1.387 . S
H642 C649 0.950 . S
C643 C641 1.387 . S
C643 C645 1.390 . S
C643 H647 0.950 . S
H644 C640 0.950 . S
C645 C643 1.390 . S
C645 C646 1.387 . S
C645 H648 0.950 . S
C646 C645 1.387 . S
C646 C649 1.387 . S
H647 C643 0.950 . S
H648 C645 0.950 . S
C649 C640 1.390 . S
C649 H642 0.950 . S
C649 C646 1.387 . S
C650 C651 1.387 . S
C650 H654 0.950 . S
C650 C659 1.390 . S
C651 C650 1.387 . S
C651 C653 1.387 . S
H652 C659 0.950 . S
C653 C651 1.387 . S
C653 C655 1.390 . S
C653 H657 0.950 . S
H654 C650 0.950 . S
C655 C653 1.390 . S
C655 C656 1.387 . S
C655 H658 0.950 . S
C656 C655 1.387 . S
C656 C659 1.387 . S
H657 C653 0.950 . S
H658 C655 0.950 . S
C659 C650 1.390 . S
C659 H652 0.950 . S
C659 C656 1.387 . S
C660 C661 1.387 . S
C660 H664 0.950 . S
C660 C669 1.390 1_566 S
C661 C660 1.387 . S
C661 C663 1.387 . S
H662 C669 0.950 . S
C663 C661 1.387 . S
C663 C665 1.390 1_566 S
C663 H667 0.950 . S
H664 C660 0.950 . S
C665 C663 1.390 1_544 S
C665 C666 1.387 . S
C665 H668 0.950 . S
C666 C665 1.387 . S
C666 C669 1.387 . S
H667 C663 0.950 . S
H668 C665 0.950 . S
C669 C660 1.390 1_544 S
C669 H662 0.950 . S
C669 C666 1.387 . S
C670 C671 1.387 . S
C670 H674 0.950 . S
C670 C679 1.390 . S
C671 C670 1.387 . S
C671 C673 1.387 . S
H672 C679 0.950 . S
C673 C671 1.387 . S
C673 C675 1.390 . S
C673 H677 0.950 . S
H674 C670 0.950 . S
C675 C673 1.390 . S
C675 C676 1.387 . S
C675 H678 0.950 . S
C676 C675 1.387 . S
C676 C679 1.387 . S
H677 C673 0.950 . S
H678 C675 0.950 . S
C679 C670 1.390 . S
C679 H672 0.950 . S
C679 C676 1.387 . S
C680 C681 1.387 . S
C680 H684 0.950 . S
C680 C689 1.390 1_455 S
C681 C680 1.387 . S
C681 C683 1.387 1_556 S
H682 C689 0.950 . S
C683 C681 1.387 1_554 S
C683 C685 1.390 1_455 S
C683 H687 0.950 . S
H684 C680 0.950 . S
C685 C683 1.390 1_655 S
C685 C686 1.387 . S
C685 H688 0.950 . S
C686 C685 1.387 . S
C686 C689 1.387 1_554 S
H687 C683 0.950 . S
H688 C685 0.950 . S
C689 C680 1.390 1_655 S
C689 H682 0.950 . S
C689 C686 1.387 1_556 S
C690 C691 1.387 . S
C690 H694 0.950 . S
C690 C699 1.390 1_545 S
C691 C690 1.387 . S
C691 C693 1.387 . S
H692 C699 0.950 . S
C693 C691 1.387 . S
C693 C695 1.390 1_545 S
C693 H697 0.950 . S
H694 C690 0.950 . S
C695 C693 1.390 1_565 S
C695 C696 1.387 . S
C695 H698 0.950 . S
C696 C695 1.387 . S
C696 C699 1.387 . S
H697 C693 0.950 . S
H698 C695 0.950 . S
C699 C690 1.390 1_565 S
C699 H692 0.950 . S
C699 C696 1.387 . S
C700 C701 1.387 . S
C700 H704 0.950 . S
C700 C709 1.390 . S
C701 C700 1.387 . S
C701 C703 1.387 1_554 S
H702 C709 0.950 . S
C703 C701 1.387 1_556 S
C703 C705 1.390 . S
C703 H707 0.950 . S
H704 C700 0.950 . S
C705 C703 1.390 . S
C705 C706 1.387 . S
C705 H708 0.950 . S
C706 C705 1.387 . S
C706 C709 1.387 1_556 S
H707 C703 0.950 . S
H708 C705 0.950 . S
C709 C700 1.390 . S
C709 H702 0.950 . S
C709 C706 1.387 1_554 S
C710 C711 1.387 . S
C710 H714 0.950 . S
C710 C719 1.390 1_455 S
C711 C710 1.387 . S
C711 C713 1.387 . S
H712 C719 0.950 . S
C713 C711 1.387 . S
C713 C715 1.390 1_455 S
C713 H717 0.950 . S
H714 C710 0.950 . S
C715 C713 1.390 1_655 S
C715 C716 1.387 . S
C715 H718 0.950 . S
C716 C715 1.387 . S
C716 C719 1.387 . S
H717 C713 0.950 . S
H718 C715 0.950 . S
C719 C710 1.390 1_655 S
C719 H712 0.950 . S
C719 C716 1.387 . S
C720 C721 1.387 . S
C720 H724 0.950 . S
C720 C729 1.390 . S
C721 C720 1.387 . S
C721 C723 1.387 . S
H722 C729 0.950 . S
C723 C721 1.387 . S
C723 C725 1.390 . S
C723 H727 0.950 . S
H724 C720 0.950 . S
C725 C723 1.390 . S
C725 C726 1.387 . S
C725 H728 0.950 . S
C726 C725 1.387 . S
C726 C729 1.387 . S
H727 C723 0.950 . S
H728 C725 0.950 . S
C729 C720 1.390 . S
C729 H722 0.950 . S
C729 C726 1.387 . S
C730 C731 1.387 . S
C730 H734 0.950 . S
C730 C739 1.390 . S
C731 C730 1.387 . S
C731 C733 1.387 . S
H732 C739 0.950 . S
C733 C731 1.387 . S
C733 C735 1.390 . S
C733 H737 0.950 . S
H734 C730 0.950 . S
C735 C733 1.390 . S
C735 C736 1.387 . S
C735 H738 0.950 . S
C736 C735 1.387 . S
C736 C739 1.387 . S
H737 C733 0.950 . S
H738 C735 0.950 . S
C739 C730 1.390 . S
C739 H732 0.950 . S
C739 C736 1.387 . S
C740 C741 1.387 . S
C740 H744 0.950 . S
C740 C749 1.390 . S
C741 C740 1.387 . S
C741 C743 1.387 . S
H742 C749 0.950 . S
C743 C741 1.387 . S
C743 C745 1.390 . S
C743 H747 0.950 . S
H744 C740 0.950 . S
C745 C743 1.390 . S
C745 C746 1.387 . S
C745 H748 0.950 . S
C746 C745 1.387 . S
C746 C749 1.387 . S
H747 C743 0.950 . S
H748 C745 0.950 . S
C749 C740 1.390 . S
C749 H742 0.950 . S
C749 C746 1.387 . S
C750 C751 1.387 . S
C750 H754 0.950 . S
C750 C759 1.390 . S
C751 C750 1.387 . S
C751 C753 1.387 . S
H752 C759 0.950 . S
C753 C751 1.387 . S
C753 C755 1.390 . S
C753 H757 0.950 . S
H754 C750 0.950 . S
C755 C753 1.390 . S
C755 C756 1.387 . S
C755 H758 0.950 . S
C756 C755 1.387 . S
C756 C759 1.387 . S
H757 C753 0.950 . S
H758 C755 0.950 . S
C759 C750 1.390 . S
C759 H752 0.950 . S
C759 C756 1.387 . S
C760 C761 1.387 . S
C760 H764 0.950 . S
C760 C769 1.390 . S
C761 C760 1.387 . S
C761 C763 1.387 . S
H762 C769 0.950 . S
C763 C761 1.387 . S
C763 C765 1.390 . S
C763 H767 0.950 . S
H764 C760 0.950 . S
C765 C763 1.390 . S
C765 C766 1.387 . S
C765 H768 0.950 . S
C766 C765 1.387 . S
C766 C769 1.387 . S
H767 C763 0.950 . S
H768 C765 0.950 . S
C769 C760 1.390 . S
C769 H762 0.950 . S
C769 C766 1.387 . S
C770 C771 1.387 . S
C770 H774 0.950 . S
C770 C779 1.390 . S
C771 C770 1.387 . S
C771 C773 1.387 . S
H772 C779 0.950 . S
C773 C771 1.387 . S
C773 C775 1.390 . S
C773 H777 0.950 . S
H774 C770 0.950 . S
C775 C773 1.390 . S
C775 C776 1.387 . S
C775 H778 0.950 . S
C776 C775 1.387 . S
C776 C779 1.387 . S
H777 C773 0.950 . S
H778 C775 0.950 . S
C779 C770 1.390 . S
C779 H772 0.950 . S
C779 C776 1.387 . S
C780 C781 1.387 . S
C780 H784 0.950 . S
C780 C789 1.390 . S
C781 C780 1.387 . S
C781 C783 1.387 . S
H782 C789 0.950 . S
C783 C781 1.387 . S
C783 C785 1.390 . S
C783 H787 0.950 . S
H784 C780 0.950 . S
C785 C783 1.390 . S
C785 C786 1.387 . S
C785 H788 0.950 . S
C786 C785 1.387 . S
C786 C789 1.387 . S
H787 C783 0.950 . S
H788 C785 0.950 . S
C789 C780 1.390 . S
C789 H782 0.950 . S
C789 C786 1.387 . S
C790 C791 1.387 . S
C790 H794 0.950 . S
C790 C799 1.390 . S
C791 C790 1.387 . S
C791 C793 1.387 . S
H792 C799 0.950 . S
C793 C791 1.387 . S
C793 C795 1.390 . S
C793 H797 0.950 . S
H794 C790 0.950 . S
C795 C793 1.390 . S
C795 C796 1.387 . S
C795 H798 0.950 . S
C796 C795 1.387 . S
C796 C799 1.387 . S
H797 C793 0.950 . S
H798 C795 0.950 . S
C799 C790 1.390 . S
C799 H792 0.950 . S
C799 C796 1.387 . S
C800 C801 1.387 . S
C800 H804 0.950 . S
C800 C809 1.390 . S
C801 C800 1.387 . S
C801 C803 1.387 . S
H802 C809 0.950 . S
C803 C801 1.387 . S
C803 C805 1.390 . S
C803 H807 0.950 . S
H804 C800 0.950 . S
C805 C803 1.390 . S
C805 C806 1.387 . S
C805 H808 0.950 . S
C806 C805 1.387 . S
C806 C809 1.387 . S
H807 C803 0.950 . S
H808 C805 0.950 . S
C809 C800 1.390 . S
C809 H802 0.950 . S
C809 C806 1.387 . S
C810 C811 1.387 . S
C810 H814 0.950 . S
C810 C819 1.390 . S
C811 C810 1.387 . S
C811 C813 1.387 . S
H812 C819 0.950 . S
C813 C811 1.387 . S
C813 C815 1.390 . S
C813 H817 0.950 . S
H814 C810 0.950 . S
C815 C813 1.390 . S
C815 C816 1.387 . S
C815 H818 0.950 . S
C816 C815 1.387 . S
C816 C819 1.387 . S
H817 C813 0.950 . S
H818 C815 0.950 . S
C819 C810 1.390 . S
C819 H812 0.950 . S
C819 C816 1.387 . S
C820 C821 1.387 . S
C820 H824 0.950 . S
C820 C829 1.390 . S
C821 C820 1.387 . S
C821 C823 1.387 . S
H822 C829 0.950 . S
C823 C821 1.387 . S
C823 C825 1.390 . S
C823 H827 0.950 . S
H824 C820 0.950 . S
C825 C823 1.390 . S
C825 C826 1.387 . S
C825 H828 0.950 . S
C826 C825 1.387 . S
C826 C829 1.387 . S
H827 C823 0.950 . S
H828 C825 0.950 . S
C829 C820 1.390 . S
C829 H822 0.950 . S
C829 C826 1.387 . S
C830 C831 1.387 . S
C830 H834 0.950 . S
C830 C839 1.390 . S
C831 C830 1.387 . S
C831 C833 1.387 . S
H832 C839 0.950 . S
C833 C831 1.387 . S
C833 C835 1.390 . S
C833 H837 0.950 . S
H834 C830 0.950 . S
C835 C833 1.390 . S
C835 C836 1.387 . S
C835 H838 0.950 . S
C836 C835 1.387 . S
C836 C839 1.387 . S
H837 C833 0.950 . S
H838 C835 0.950 . S
C839 C830 1.390 . S
C839 H832 0.950 . S
C839 C836 1.387 . S
C481 C106 1.374 . S
C486 C3 1.352 . S
C491 C129 1.375 . S
C496 C62 1.352 . S
C501 C83 1.352 . S
C506 C186 1.374 . S
C511 C142 1.350 . S
C516 C209 1.373 . S
C521 C26 1.373 . S
C526 C163 1.350 . S
C531 C49 1.375 . S
C536 C222 1.352 . S
C541 C409 1.373 . S
C546 C262 1.350 . S
C551 C283 1.350 . S
C556 C466 1.373 . S
C561 C342 1.350 . S
C566 C249 1.373 . S
C571 C363 1.350 . S
C576 C306 1.374 . S
C581 C422 1.350 . S
C586 C329 1.374 . S
C591 C386 1.374 . S
C596 C443 1.350 . S
C601 C122 1.738 . S
C606 C15 1.738 . S
C611 C42 1.739 . S
C616 C175 1.736 . S
C621 C95 1.739 . S
C626 C202 1.737 . S
C631 C242 1.736 . S
C636 C375 1.739 . S
C641 C295 1.738 . S
C646 C402 1.738 . S
C651 C322 1.739 . S
C656 C455 1.736 . S
C661 C282 2.502 . S
C666 C2 2.502 . S
C671 C55 2.501 . S
C676 C335 2.501 . S
C681 C362 2.501 . S
C686 C82 2.501 . S
C691 C135 2.502 . S
C696 C415 2.502 . S
C701 C162 2.500 . S
C706 C442 2.500 . S
C711 C255 2.502 . S
C716 C215 2.502 . S
C721 C89 1.720 . S
C726 C22 1.784 . S
C731 C43 1.785 . S
C736 C146 1.722 . S
C741 C102 1.786 . S
C746 C169 1.723 . S
C751 C123 1.785 . S
C756 C226 1.722 . S
C761 C9 1.723 . S
C766 C182 1.786 . S
C771 C66 1.720 . S
C776 C203 1.784 . S
C781 C426 1.721 . S
C786 C243 1.784 . S
C791 C302 1.786 . S
C796 C449 1.723 . S
C801 C323 1.785 . S
C806 C266 1.723 . S
C811 C289 1.720 . S
C816 C382 1.784 . S
C821 C403 1.784 . S
C826 C346 1.720 . S
C831 C462 1.786 . S
C836 C369 1.724 . S
