# Generated by pormake.
# Topology sml, (6)-cn, num edge types: 1
# Building blocks:
#     Node 0, Type 0, BuildingBlock: NUHQIS_clean_sbu_0, # of connection points: 6
#     Node 1, Type 0, BuildingBlock: NUHQIS_clean_sbu_0, # of connection points: 6
#     Node 2, Type 0, BuildingBlock: NUHQIS_clean_sbu_0, # of connection points: 6
#     Node 3, Type 0, BuildingBlock: NUHQIS_clean_sbu_0, # of connection points: 6
#     Node 4, Type 0, BuildingBlock: NUHQIS_clean_sbu_0, # of connection points: 6
#     Node 5, Type 0, BuildingBlock: NUHQIS_clean_sbu_0, # of connection points: 6
#     Edge 6, Type (0, 0), BuildingBlock: CIFDUS_clean_linker_0, # of connection points: 2
#     Edge 7, Type (0, 0), BuildingBlock: CIFDUS_clean_linker_0, # of connection points: 2
#     Edge 8, Type (0, 0), BuildingBlock: CIFDUS_clean_linker_0, # of connection points: 2
#     Edge 9, Type (0, 0), BuildingBlock: CIFDUS_clean_linker_0, # of connection points: 2
#     Edge 10, Type (0, 0), BuildingBlock: CIFDUS_clean_linker_0, # of connection points: 2
#     Edge 11, Type (0, 0), BuildingBlock: CIFDUS_clean_linker_0, # of connection points: 2
#     Edge 12, Type (0, 0), BuildingBlock: CIFDUS_clean_linker_0, # of connection points: 2
#     Edge 13, Type (0, 0), BuildingBlock: CIFDUS_clean_linker_0, # of connection points: 2
#     Edge 14, Type (0, 0), BuildingBlock: CIFDUS_clean_linker_0, # of connection points: 2
#     Edge 15, Type (0, 0), BuildingBlock: CIFDUS_clean_linker_0, # of connection points: 2
#     Edge 16, Type (0, 0), BuildingBlock: CIFDUS_clean_linker_0, # of connection points: 2
#     Edge 17, Type (0, 0), BuildingBlock: CIFDUS_clean_linker_0, # of connection points: 2
#     Edge 18, Type (0, 0), BuildingBlock: CIFDUS_clean_linker_0, # of connection points: 2
#     Edge 19, Type (0, 0), BuildingBlock: CIFDUS_clean_linker_0, # of connection points: 2
#     Edge 20, Type (0, 0), BuildingBlock: CIFDUS_clean_linker_0, # of connection points: 2
#     Edge 21, Type (0, 0), BuildingBlock: CIFDUS_clean_linker_0, # of connection points: 2
#     Edge 22, Type (0, 0), BuildingBlock: CIFDUS_clean_linker_0, # of connection points: 2
#     Edge 23, Type (0, 0), BuildingBlock: CIFDUS_clean_linker_0, # of connection points: 2
# Relax obj value: 0.196
# Max RMSD: 0.238
# Mean RMSD: 0.238
data_MOF--net-sml--node1-NUHQIS_clean_sbu_0--edge1-CIFDUS_clean_linker_0
_symmetry_space_group_name_H-M    P1
_symmetry_Int_Tables_number       1
_symmetry_cell_setting            triclinic
loop_
_symmetry_equiv_pos_as_xyz
'x, y, z'
_cell_length_a     27.599956
_cell_length_b     27.657727
_cell_length_c     22.821005
_cell_angle_alpha  89.865467
_cell_angle_beta   90.288298
_cell_angle_gamma 119.55736
loop_
_atom_site_label
_atom_site_type_symbol
_atom_site_fract_x
_atom_site_fract_y
_atom_site_fract_z
_atom_type_partial_charge
Tb0 Tb 0.22743 0.4229 0.20577 0.0
Eu1 Eu 0.14236 0.41096 0.09386 0.0
C2 C 0.19737 0.33395 0.10833 0.0
C3 C 0.27487 0.48077 0.08655 0.0
C4 C 0.26676 0.43591 0.36093 0.0
C5 C 0.28016 0.4313 0.46601 0.0
C6 C 0.29555 0.42879 0.40796 0.0
C7 C 0.22275 0.44603 0.37283 0.0
C8 C 0.20728 0.44851 0.43057 0.0
C9 C 0.23545 0.44079 0.47818 0.0
C10 C 0.27928 0.42859 0.29964 0.0
O11 O 0.21968 0.49736 0.20381 0.0
O12 O 0.13499 0.46881 0.15768 0.0
O13 O 0.08793 0.34926 0.16231 0.0
O14 O 0.14535 0.39622 0.23953 0.0
C15 C 0.17571 0.50275 0.19259 0.0
O16 O 0.11863 0.44984 0.02426 0.0
O17 O 0.08219 0.36047 0.02632 0.0
O18 O 0.18766 0.36512 0.07235 0.0
O19 O 0.2014 0.34276 0.16501 0.0
O20 O 0.28204 0.45292 0.12944 0.0
O21 O 0.22831 0.48212 0.08092 0.0
C22 C 0.09724 0.35806 0.21887 0.0
O23 O 0.24267 0.38218 0.27528 0.0
O24 O 0.29327 0.47062 0.26436 0.0
C25 C 0.10836 0.40441 0.93396 0.0
C26 C 0.14396 0.40628 0.81724 0.0
C27 C 0.09466 0.40793 0.82877 0.0
C28 C 0.07697 0.40683 0.88664 0.0
C29 C 0.15791 0.40355 0.92263 0.0
C30 C 0.17538 0.40425 0.865 0.0
C31 C 0.09046 0.40354 0.99516 0.0
H32 H 0.3034 0.4259 0.50133 0.0
H33 H 0.32944 0.42054 0.39983 0.0
H34 H 0.19949 0.45083 0.33725 0.0
H35 H 0.17221 0.45509 0.43769 0.0
H36 H 0.06929 0.40911 0.79305 0.0
H37 H 0.03876 0.40778 0.8944 0.0
H38 H 0.18319 0.40236 0.95847 0.0
H39 H 0.2139 0.40374 0.85785 0.0
Tb40 Tb 0.76524 0.16695 0.49188 0.0
Eu41 Eu 0.83477 0.24359 0.60875 0.0
C42 C 0.79944 0.11444 0.59484 0.0
C43 C 0.70339 0.16413 0.60898 0.0
C44 C 0.73388 0.1297 0.33623 0.0
C45 C 0.71794 0.10296 0.23362 0.0
C46 C 0.70247 0.09135 0.29252 0.0
C47 C 0.78093 0.17996 0.32037 0.0
C48 C 0.79658 0.19157 0.26155 0.0
C49 C 0.76533 0.15316 0.21733 0.0
C50 C 0.71795 0.11708 0.39823 0.0
O51 O 0.80224 0.25301 0.4663 0.0
O52 O 0.80386 0.29195 0.55502 0.0
O53 O 0.8957 0.27135 0.53475 0.0
O54 O 0.85218 0.1909 0.48048 0.0
C55 C 0.80339 0.29317 0.49744 0.0
O56 O 0.84081 0.30021 0.67819 0.0
O57 O 0.90295 0.27423 0.67262 0.0
O58 O 0.83673 0.16342 0.61484 0.0
O59 O 0.76163 0.10737 0.55542 0.0
O60 O 0.70295 0.16621 0.55131 0.0
O61 O 0.74964 0.18132 0.63874 0.0
C62 C 0.89551 0.23963 0.49191 0.0
O63 O 0.74971 0.10471 0.42999 0.0
O64 O 0.70673 0.15189 0.42519 0.0
C65 C 0.8751 0.28567 0.76698 0.0
C66 C 0.85617 0.26234 0.88802 0.0
C67 C 0.9019 0.31236 0.86846 0.0
C68 C 0.91123 0.32389 0.80847 0.0
C69 C 0.83023 0.23519 0.7861 0.0
C70 C 0.8208 0.22364 0.84599 0.0
C71 C 0.88268 0.29942 0.7041 0.0
H72 H 0.69237 0.0728 0.20078 0.0
H73 H 0.66593 0.05243 0.30393 0.0
H74 H 0.80572 0.21013 0.35357 0.0
H75 H 0.83363 0.23029 0.25089 0.0
H76 H 0.9304 0.34271 0.89955 0.0
H77 H 0.94623 0.36297 0.79452 0.0
H78 H 0.80183 0.20514 0.75466 0.0
H79 H 0.78484 0.18506 0.85932 0.0
Tb80 Tb 0.55263 0.78756 0.85744 0.0
Eu81 Eu 0.56835 0.72012 0.74444 0.0
C82 C 0.65539 0.84576 0.77454 0.0
C83 C 0.51286 0.80094 0.73307 0.0
C84 C 0.54852 0.8147 1.01382 0.0
C85 C 0.58942 0.77813 0.08345 0.0
C86 C 0.5845 0.79365 0.02633 0.0
C87 C 0.51821 0.82082 0.05951 0.0
C88 C 0.52323 0.80545 0.11682 0.0
C89 C 0.55843 0.78329 0.12935 0.0
C90 C 0.53934 0.82599 0.95274 0.0
O91 O 0.47403 0.71731 0.82961 0.0
O92 O 0.50551 0.6581 0.80654 0.0
O93 O 0.62468 0.71972 0.81654 0.0
O94 O 0.57399 0.72782 0.89147 0.0
C95 C 0.46709 0.66698 0.82882 0.0
O96 O 0.52977 0.65366 0.67991 0.0
O97 O 0.61902 0.70937 0.67775 0.0
O98 O 0.62673 0.81052 0.73292 0.0
O99 O 0.63887 0.83697 0.82932 0.0
O100 O 0.53294 0.82457 0.78414 0.0
O101 O 0.51435 0.75639 0.71488 0.0
C102 C 0.61196 0.71652 0.87241 0.0
O103 O 0.58354 0.85169 0.92017 0.0
O104 O 0.49951 0.78397 0.92516 0.0
C105 C 0.57124 0.68477 0.58727 0.0
C106 C 0.56915 0.71837 0.47058 0.0
C107 C 0.53611 0.72377 0.51391 0.0
C108 C 0.53725 0.70732 0.57148 0.0
C109 C 0.60343 0.67802 0.54408 0.0
C110 C 0.60226 0.69448 0.48609 0.0
C111 C 0.57542 0.67193 0.64932 0.0
H112 H 0.61752 0.76205 0.09166 0.0
H113 H 0.60831 0.7885 0.99178 0.0
H114 H 0.48978 0.83642 0.05066 0.0
H115 H 0.49833 0.80942 0.15099 0.0
H116 H 0.5093 0.7409 0.50338 0.0
H117 H 0.51194 0.71288 0.60391 0.0
H118 H 0.63022 0.66104 0.55541 0.0
H119 H 0.62842 0.68997 0.45385 0.0
Tb120 Tb 0.78694 0.57024 0.16017 0.0
Eu121 Eu 0.70949 0.56397 0.27463 0.0
C122 C 0.8413 0.65062 0.26582 0.0
C123 C 0.78279 0.50452 0.27541 0.0
C124 C 0.81909 0.57741 1.00507 0.0
C125 C 0.83746 0.58619 0.90053 0.0
C126 C 0.85386 0.5831 0.95799 0.0
C127 C 0.76784 0.57498 0.99414 0.0
C128 C 0.7514 0.57802 0.93692 0.0
C129 C 0.78598 0.58365 0.88931 0.0
C130 C 0.83564 0.57405 0.06566 0.0
O131 O 0.70082 0.52187 0.13434 0.0
O132 O 0.66147 0.48432 0.22254 0.0
O133 O 0.68092 0.59525 0.19907 0.0
O134 O 0.76407 0.63471 0.15071 0.0
C135 C 0.66148 0.48203 0.165 0.0
O136 O 0.65115 0.51602 0.34371 0.0
O137 O 0.68161 0.60454 0.33749 0.0
O138 O 0.79235 0.64266 0.28243 0.0
O139 O 0.84725 0.61975 0.22608 0.0
O140 O 0.78367 0.50516 0.21764 0.0
O141 O 0.76763 0.53504 0.30541 0.0
C142 C 0.7137 0.6274 0.15754 0.0
O143 O 0.84845 0.61748 0.09815 0.0
O144 O 0.80269 0.52801 0.09312 0.0
C145 C 0.67441 0.56621 0.43132 0.0
C146 C 0.70838 0.5682 0.54844 0.0
C147 C 0.6555 0.56171 0.53564 0.0
C148 C 0.63856 0.56053 0.47737 0.0
C149 C 0.72783 0.5747 0.44404 0.0
C150 C 0.74463 0.57562 0.50194 0.0
C151 C 0.6559 0.56005 0.36995 0.0
H152 H 0.86539 0.59122 0.86495 0.0
H153 H 0.89365 0.58525 0.96566 0.0
H154 H 0.74039 0.57057 0.02995 0.0
H155 H 0.71123 0.57518 0.92999 0.0
H156 H 0.62661 0.55576 0.57053 0.0
H157 H 0.59719 0.55398 0.46828 0.0
H158 H 0.75622 0.5795 0.40901 0.0
H159 H 0.78595 0.58171 0.5103 0.0
Tb160 Tb 0.20564 0.8125 0.50698 0.0
Eu161 Eu 0.27891 0.88552 0.39106 0.0
C162 C 0.14372 0.82042 0.39527 0.0
C163 C 0.21954 0.75303 0.39542 0.0
C164 C 0.17112 0.78138 0.66533 0.0
C165 C 0.14793 0.80922 0.75745 0.0
C166 C 0.13703 0.79561 0.69806 0.0
C167 C 0.2162 0.78055 0.6935 0.0
C168 C 0.22693 0.79388 0.75303 0.0
C169 C 0.19303 0.80857 0.78571 0.0
C170 C 0.15885 0.76728 0.60235 0.0
O171 O 0.29244 0.85972 0.53269 0.0
O172 O 0.33184 0.86037 0.4449 0.0
O173 O 0.29623 0.94451 0.46632 0.0
O174 O 0.20886 0.89194 0.50046 0.0
C175 C 0.33308 0.86073 0.50241 0.0
O176 O 0.3422 0.90313 0.3249 0.0
O177 O 0.30131 0.9529 0.32816 0.0
O178 O 0.18953 0.86392 0.37625 0.0
O179 O 0.14291 0.7894 0.43949 0.0
O180 O 0.21781 0.75461 0.45299 0.0
O181 O 0.23213 0.79649 0.36232 0.0
C182 C 0.2561 0.9384 0.50119 0.0
O183 O 0.14599 0.79907 0.57144 0.0
O184 O 0.19215 0.75497 0.57383 0.0
C185 C 0.32368 0.93194 0.234 0.0
C186 C 0.30394 0.91161 0.11233 0.0
C187 C 0.34848 0.90928 0.1398 0.0
C188 C 0.35831 0.91953 0.19985 0.0
C189 C 0.27965 0.93522 0.20653 0.0
C190 C 0.26997 0.92524 0.14634 0.0
C191 C 0.33339 0.93983 0.29803 0.0
H192 H 0.12147 0.82112 0.781 0.0
H193 H 0.10201 0.79654 0.67756 0.0
H194 H 0.24331 0.76967 0.6697 0.0
H195 H 0.26165 0.79238 0.7735 0.0
H196 H 0.3752 0.89847 0.11513 0.0
H197 H 0.3927 0.91701 0.21982 0.0
H198 H 0.25244 0.9452 0.23144 0.0
H199 H 0.23598 0.92844 0.1264 0.0
Tb200 Tb 0.40373 0.19305 0.82052 0.0
Eu201 Eu 0.38797 0.11217 0.93637 0.0
C202 C 0.32644 0.18634 0.92312 0.0
C203 C 0.46846 0.24401 0.93954 0.0
C204 C 0.41486 0.22583 0.66311 0.0
C205 C 0.3862 0.22113 0.56131 0.0
C206 C 0.3868 0.23811 0.61924 0.0
C207 C 0.44205 0.19598 0.6482 0.0
C208 C 0.44171 0.17927 0.59038 0.0
C209 C 0.41384 0.19168 0.54621 0.0
C210 C 0.41399 0.24249 0.72442 0.0
O211 O 0.43503 0.13792 0.79722 0.0
O212 O 0.46546 0.12788 0.88713 0.0
O213 O 0.34719 0.05644 0.85885 0.0
O214 O 0.32406 0.11738 0.81912 0.0
C215 C 0.46857 0.1284 0.82968 0.0
O216 O 0.42537 0.08897 1.0077 0.0
O217 O 0.33561 0.04443 0.9957 0.0
O218 O 0.324 0.14047 0.94335 0.0
O219 O 0.36178 0.21783 0.8827 0.0
O220 O 0.47008 0.24546 0.88178 0.0
O221 O 0.43317 0.19971 0.96868 0.0
C222 C 0.32016 0.06837 0.81928 0.0
O223 O 0.36673 0.21451 0.7517 0.0
O224 O 0.45591 0.25008 0.75743 0.0
C225 C 0.37104 0.0622 0.09318 0.0
C226 C 0.3665 0.08555 0.21305 0.0
C227 C 0.40097 0.06451 0.19405 0.0
C228 C 0.40318 0.05299 0.13476 0.0
C229 C 0.33637 0.08293 0.11184 0.0
C230 C 0.33403 0.09434 0.1711 0.0
C231 C 0.37729 0.05398 0.03037 0.0
H232 H 0.36462 0.23158 0.52821 0.0
H233 H 0.36524 0.26073 0.62983 0.0
H234 H 0.4635 0.18542 0.68126 0.0
H235 H 0.46262 0.1559 0.58038 0.0
H236 H 0.42596 0.05644 0.22504 0.0
H237 H 0.43042 0.03729 0.12125 0.0
H238 H 0.31193 0.09147 0.08051 0.0
H239 H 0.30791 0.11159 0.18371 0.0
H240 H 0.29528 0.17999 0.03656 0.0
H241 H 0.27773 0.23644 0.86548 0.0
H242 H 0.22874 0.28101 0.90794 0.0
H243 H 0.20106 0.31263 0.99372 0.0
H244 H 0.22518 0.26395 0.16662 0.0
H245 H 0.26074 0.20677 0.12336 0.0
C246 C 0.27961 0.20112 1.00871 0.0
C247 C 0.29007 0.2054 0.94826 0.0
C248 C 0.25328 0.22838 0.03371 0.0
C249 C 0.27035 0.23323 0.9123 0.0
C250 C 0.24245 0.25867 0.93648 0.0
C251 C 0.21342 0.28908 1.02217 0.0
C252 C 0.21122 0.29317 0.08331 0.0
C253 C 0.2353 0.25795 0.99723 0.0
C254 C 0.22694 0.26189 0.11935 0.0
C255 C 0.24739 0.22931 0.09467 0.0
H256 H 0.10122 0.38195 0.33348 0.0
H257 H -0.00645 0.26635 0.20182 0.0
H258 H 0.92296 0.21596 0.27702 0.0
H259 H 0.89239 0.2067 0.37955 0.0
H260 H 0.00055 0.32559 0.50863 0.0
H261 H 0.07214 0.37214 0.43437 0.0
C262 C 0.06259 0.34556 0.32079 0.0
C263 C 0.05275 0.32779 0.26205 0.0
C264 C 0.02291 0.31719 0.3638 0.0
C265 C 0.002 0.28095 0.2467 0.0
C266 C 0.9619 0.25206 0.28967 0.0
C267 C 0.93188 0.24239 0.39161 0.0
C268 C 0.94133 0.26278 0.44948 0.0
C269 C 0.97206 0.26993 0.34834 0.0
C270 C -0.00756 0.30923 0.46439 0.0
C271 C 0.03317 0.33597 0.42196 0.0
H272 H 0.79772 0.09565 0.71079 0.0
H273 H 0.78605 0.02171 0.54153 0.0
H274 H 0.75192 0.93062 0.58701 0.0
H275 H 0.70801 0.87093 0.67076 0.0
H276 H 0.70715 0.94246 0.83839 0.0
H277 H 0.76519 0.0358 0.79845 0.0
C278 C 0.78949 0.05975 0.68442 0.0
C279 C 0.79394 0.06461 0.62321 0.0
C280 C 0.76688 0.00716 0.71055 0.0
C281 C 0.78254 0.01826 0.58883 0.0
C282 C 0.76285 0.96636 0.61475 0.0
C283 C 0.72139 0.90688 0.69898 0.0
C284 C 0.70208 0.90002 0.75686 0.0
C285 C 0.75204 0.95999 0.67503 0.0
C286 C 0.72093 0.94677 0.79336 0.0
C287 C 0.75375 0.00014 0.77043 0.0
H288 H 0.56919 0.6717 0.97662 0.0
H289 H 0.71401 0.72156 0.86838 0.0
H290 H 0.76043 0.70156 0.94953 0.0
H291 H 0.7597 0.67237 0.05194 0.0
H292 H 0.61343 0.62373 0.15811 0.0
H293 H 0.56785 0.64205 0.07627 0.0
C294 C 0.61096 0.67821 0.97045 0.0
C295 C 0.63839 0.69831 0.91677 0.0
C296 C 0.63733 0.66791 1.0171 0.0
C297 C 0.69205 0.70573 0.9093 0.0
C298 C 0.71869 0.69494 0.95582 0.0
C299 C 0.7182 0.66665 0.05757 0.0
C300 C 0.69009 0.64691 0.11123 0.0
C301 C 0.6919 0.67677 1.01018 0.0
C302 C 0.63613 0.63916 0.1175 0.0
C303 C 0.60992 0.64937 0.07075 0.0
H304 H 0.04026 0.77733 0.43957 0.0
H305 H 0.1318 0.8223 0.27742 0.0
H306 H 0.04451 0.77751 0.22173 0.0
H307 H 0.94295 0.71622 0.22015 0.0
H308 H 0.85109 0.67454 0.38202 0.0
H309 H 0.93777 0.72823 0.43721 0.0
C310 C 0.04082 0.77799 0.39202 0.0
C311 C 0.09185 0.80219 0.36237 0.0
C312 C -0.00934 0.75268 0.3605 0.0
C313 C 0.09267 0.80379 0.30091 0.0
C314 C 0.04292 0.77797 0.26916 0.0
C315 C 0.94204 0.7199 0.26742 0.0
C316 C 0.89129 0.69127 0.2973 0.0
C317 C -0.0082 0.75093 0.29859 0.0
C318 C 0.88997 0.69653 0.35833 0.0
C319 C 0.93944 0.72681 0.38983 0.0
H320 H 0.31729 0.10528 0.7105 0.0
H321 H 0.2816 0.9574 0.80775 0.0
H322 H 0.25862 0.90445 0.71615 0.0
H323 H 0.24904 0.90045 0.60977 0.0
H324 H 0.29241 0.04922 0.51138 0.0
H325 H 0.31103 0.10217 0.60327 0.0
C326 C 0.30328 0.06113 0.71191 0.0
C327 C 0.3 0.03474 0.76577 0.0
C328 C 0.29167 0.03154 0.65934 0.0
C329 C 0.28358 0.97808 0.76677 0.0
C330 C 0.27052 0.94795 0.71466 0.0
C331 C 0.26283 0.94457 0.60858 0.0
C332 C 0.26955 0.97152 0.55462 0.0
C333 C 0.27465 0.97432 0.6609 0.0
C334 C 0.28765 0.02844 0.55291 0.0
C335 C 0.29799 0.0583 0.60517 0.0
H336 H 0.147 0.47092 0.72464 0.0
H337 H 0.18281 0.34063 0.77175 0.0
H338 H 0.21471 0.34017 0.67222 0.0
H339 H 0.2315 0.37582 0.57119 0.0
H340 H 0.19858 0.50833 0.52473 0.0
H341 H 0.16578 0.50805 0.62381 0.0
C342 C 0.16143 0.44217 0.713 0.0
C343 C 0.16246 0.4059 0.75585 0.0
C344 C 0.18016 0.44235 0.65553 0.0
C345 C 0.18203 0.36943 0.74001 0.0
C346 C 0.20013 0.36898 0.68293 0.0
C347 C 0.21788 0.4052 0.58275 0.0
C348 C 0.21749 0.44186 0.53988 0.0
C349 C 0.19955 0.40534 0.6403 0.0
C350 C 0.19863 0.4789 0.55606 0.0
C351 C 0.18009 0.47904 0.61302 0.0
H352 H 0.80575 0.25232 0.15955 0.0
H353 H 0.76267 0.08112 0.1335 0.0
H354 H 0.78738 0.09977 0.0302 0.0
H355 H 0.82085 0.16446 0.94686 0.0
H356 H 0.86407 0.33564 0.97296 0.0
H357 H 0.84138 0.31751 0.07677 0.0
C358 C 0.80236 0.21917 0.13153 0.0
C359 C 0.78199 0.16526 0.15453 0.0
C360 C 0.81706 0.23024 0.07207 0.0
C361 C 0.77723 0.12278 0.11704 0.0
C362 C 0.79174 0.13348 0.05792 0.0
C363 C 0.82505 0.19777 0.97515 0.0
C364 C 0.84418 0.25136 0.95185 0.0
C365 C 0.8114 0.18696 0.03485 0.0
C366 C 0.85019 0.29417 0.9896 0.0
C367 C 0.8368 0.28375 0.04901 0.0
H368 H 0.56816 0.66881 0.36663 0.0
H369 H 0.57131 0.81457 0.43844 0.0
H370 H 0.56817 0.84733 0.33998 0.0
H371 H 0.56407 0.83469 0.2332 0.0
H372 H 0.55978 0.68867 0.1612 0.0
H373 H 0.56524 0.65676 0.25948 0.0
C374 C 0.56875 0.70801 0.36071 0.0
C375 C 0.56959 0.73889 0.41003 0.0
C376 C 0.56699 0.72679 0.30376 0.0
C377 C 0.56974 0.78939 0.40141 0.0
C378 C 0.56823 0.80838 0.34504 0.0
C379 C 0.56396 0.79571 0.23902 0.0
C380 C 0.56184 0.76432 0.18966 0.0
C381 C 0.56647 0.77728 0.29587 0.0
C382 C 0.56245 0.71421 0.19817 0.0
C383 C 0.56512 0.69568 0.25451 0.0
H384 H 0.79767 0.53385 0.79165 0.0
H385 H 0.73361 0.63963 0.84981 0.0
H386 H 0.70249 0.64314 0.75039 0.0
H387 H 0.6948 0.61722 0.64604 0.0
H388 H 0.75996 0.51209 0.5883 0.0
H389 H 0.79017 0.50815 0.68794 0.0
C390 C 0.77748 0.5582 0.78251 0.0
C391 C 0.76808 0.58648 0.82831 0.0
C392 C 0.76001 0.5603 0.72508 0.0
C393 C 0.74084 0.61695 0.81566 0.0
C394 C 0.72326 0.6192 0.75867 0.0
C395 C 0.71525 0.59315 0.65542 0.0
C396 C 0.72538 0.5653 0.60969 0.0
C397 C 0.73259 0.59101 0.71298 0.0
C398 C 0.7524 0.53466 0.62248 0.0
C399 C 0.76947 0.53212 0.67953 0.0
H400 H 0.29426 0.87169 0.83839 0.0
H401 H 0.11818 0.77943 0.87518 0.0
H402 H 0.13682 0.8047 0.97849 0.0
H403 H 0.20303 0.85095 0.05894 0.0
H404 H 0.37917 0.94303 1.0226 0.0
H405 H 0.36057 0.91922 0.91885 0.0
C406 C 0.25997 0.85668 0.86907 0.0
C407 C 0.20486 0.82369 0.84884 0.0
C408 C 0.27097 0.87125 0.9286 0.0
C409 C 0.16094 0.80545 0.88922 0.0
C410 C 0.17156 0.81965 0.94845 0.0
C411 C 0.23735 0.8664 0.02827 0.0
C412 C 0.29242 0.89874 0.04874 0.0
C413 C 0.22639 0.85248 0.96864 0.0
C414 C 0.3364 0.91749 1.00833 0.0
C415 C 0.3258 0.9041 0.94888 0.0
H416 H 0.32611 0.14404 0.47011 0.0
H417 H 0.50173 0.19946 0.4842 0.0
H418 H 0.50237 0.17046 0.38332 0.0
H419 H 0.45374 0.13186 0.2903 0.0
H420 H 0.27684 0.07124 0.27779 0.0
H421 H 0.27618 0.1001 0.37863 0.0
C422 C 0.36452 0.14985 0.45102 0.0
C423 C 0.41378 0.1739 0.4847 0.0
C424 C 0.36442 0.13226 0.39321 0.0
C425 C 0.46311 0.18062 0.45948 0.0
C426 C 0.46356 0.16419 0.40171 0.0
C427 C 0.41478 0.12408 0.30974 0.0
C428 C 0.36553 0.09986 0.27591 0.0
C429 C 0.41448 0.14003 0.36812 0.0
C430 C 0.31568 0.0909 0.30208 0.0
C431 C 0.31516 0.10711 0.35996 0.0
H432 H 0.20592 0.53362 0.3033 0.0
H433 H 0.13878 0.57202 0.15068 0.0
H434 H 0.14518 0.65349 0.20115 0.0
H435 H 0.17595 0.71643 0.28705 0.0
H436 H 0.23827 0.67301 0.44065 0.0
H437 H 0.22706 0.58981 0.39153 0.0
C438 C 0.19212 0.55947 0.28133 0.0
C439 C 0.17254 0.5476 0.22342 0.0
C440 C 0.19531 0.60514 0.31069 0.0
C441 C 0.15403 0.58073 0.1954 0.0
C442 C 0.15798 0.62727 0.2241 0.0
C443 C 0.18686 0.68855 0.30966 0.0
C444 C 0.20863 0.70099 0.36696 0.0
C445 C 0.17957 0.64038 0.28142 0.0
C446 C 0.22158 0.66421 0.39646 0.0
C447 C 0.21536 0.61683 0.3684 0.0
H448 H 0.69107 0.15659 0.72728 0.0
H449 H 0.59826 0.12851 0.5659 0.0
H450 H 0.51464 0.10665 0.62176 0.0
H451 H 0.47103 0.10506 0.71521 0.0
H452 H 0.56529 0.13932 0.8761 0.0
H453 H 0.64515 0.14765 0.82139 0.0
C454 C 0.65252 0.1453 0.7041 0.0
C455 C 0.65123 0.1451 0.64232 0.0
C456 C 0.60498 0.13388 0.73639 0.0
C457 C 0.60064 0.1296 0.61331 0.0
C458 C 0.55282 0.11713 0.64522 0.0
C459 C 0.50896 0.11412 0.73846 0.0
C460 C 0.51274 0.12282 0.79948 0.0
C461 C 0.55501 0.12067 0.70661 0.0
C462 C 0.56147 0.13277 0.82914 0.0
C463 C 0.60722 0.13795 0.79781 0.0
H464 H 0.26279 0.52797 0.98861 0.0
H465 H 0.38239 0.49811 0.08132 0.0
H466 H 0.4513 0.54795 1.00432 0.0
H467 H 0.47833 0.60478 0.91349 0.0
H468 H 0.35873 0.63856 0.82745 0.0
H469 H 0.28786 0.58075 0.89888 0.0
C470 C 0.30392 0.53224 0.99255 0.0
C471 C 0.31772 0.51004 0.04127 0.0
C472 C 0.3428 0.5609 0.94885 0.0
C473 C 0.37095 0.51534 0.0446 0.0
C474 C 0.41018 0.54361 1.00052 0.0
C475 C 0.43628 0.5982 0.9099 0.0
C476 C 0.42295 0.6248 0.86517 0.0
C477 C 0.39663 0.567 0.95272 0.0
C478 C 0.36919 0.6177 0.86134 0.0
C479 C 0.32903 0.58514 0.90231 0.0
H480 H 0.81639 0.31274 0.38068 0.0
H481 H 0.79351 0.37988 0.54234 0.0
H482 H 0.78934 0.45388 0.48746 0.0
H483 H 0.78657 0.49552 0.39366 0.0
H484 H 0.80697 0.42657 0.23197 0.0
H485 H 0.81831 0.35708 0.28744 0.0
C486 C 0.81067 0.34359 0.40419 0.0
C487 C 0.8047 0.34043 0.46561 0.0
C488 C 0.80786 0.38551 0.37243 0.0
C489 C 0.79802 0.38122 0.49515 0.0
C490 C 0.79554 0.42345 0.46378 0.0
C491 C 0.79389 0.46561 0.37032 0.0
C492 C 0.79545 0.46601 0.30855 0.0
C493 C 0.79958 0.42541 0.40238 0.0
C494 C 0.80543 0.42715 0.27936 0.0
C495 C 0.81173 0.38731 0.31105 0.0
H496 H 0.36163 0.88559 0.61641 0.0
H497 H 0.40357 0.82595 0.46077 0.0
H498 H 0.46592 0.8049 0.51828 0.0
H499 H 0.50153 0.79553 0.61449 0.0
H500 H 0.46001 0.85645 0.76938 0.0
H501 H 0.40451 0.88509 0.71035 0.0
C502 C 0.38492 0.86859 0.59489 0.0
C503 C 0.37754 0.85673 0.53457 0.0
C504 C 0.42026 0.85628 0.62821 0.0
C505 C 0.40855 0.83545 0.50717 0.0
C506 C 0.44388 0.82302 0.54011 0.0
C507 C 0.48044 0.81521 0.63519 0.0
C508 C 0.48405 0.823 0.69627 0.0
C509 C 0.44886 0.83188 0.60091 0.0
C510 C 0.45771 0.84983 0.72244 0.0
C511 C 0.42585 0.86608 0.68877 0.0
H512 H 0.64881 0.47168 0.04745 0.0
H513 H 0.57588 0.38468 0.20888 0.0
H514 H 0.50869 0.3035 0.1527 0.0
H515 H 0.47383 0.25662 0.05807 0.0
H516 H 0.54908 0.3442 0.89743 0.0
H517 H 0.61291 0.42624 0.95371 0.0
C518 C 0.61818 0.43515 0.07071 0.0
C519 C 0.61758 0.43417 0.13244 0.0
C520 C 0.58051 0.38876 0.03834 0.0
C521 C 0.57724 0.38653 0.16147 0.0
C522 C 0.53901 0.34009 0.12936 0.0
C523 C 0.50413 0.2936 0.03519 0.0
C524 C 0.50684 0.29405 0.97347 0.0
C525 C 0.5408 0.34059 0.0678 0.0
C526 C 0.54619 0.34252 0.94478 0.0
C527 C 0.58266 0.38949 0.97692 0.0
loop_
_geom_bond_atom_site_label_1
_geom_bond_atom_site_label_2
_geom_bond_distance
_geom_bond_site_symmetry_2
_ccdc_geom_bond_type
Tb0 C10 2.825 . S
Tb0 O11 2.347 . S
Tb0 O14 2.366 . S
Tb0 O19 2.418 . S
Tb0 O20 2.384 . S
Tb0 O23 2.479 . S
Tb0 O24 2.471 . S
Eu1 O12 2.418 . S
Eu1 O13 2.384 . S
Eu1 O16 2.479 1_554 S
Eu1 O17 2.471 1_554 S
Eu1 O18 2.347 . S
Eu1 O21 2.366 1_554 S
Eu1 C31 2.825 1_554 S
C2 O18 1.259 . S
C2 O19 1.265 . S
C3 O20 1.255 . S
C3 O21 1.265 1_554 S
C4 C6 1.380 . S
C4 C7 1.374 . S
C4 C10 1.507 . S
C5 C6 1.384 . S
C5 C9 1.387 . S
C5 H32 0.930 . S
C6 C4 1.380 . S
C6 C5 1.384 . S
C6 H33 0.931 . S
C7 C4 1.374 . S
C7 C8 1.390 . S
C7 H34 0.930 . S
C8 C7 1.390 . S
C8 C9 1.391 . S
C8 H35 0.930 . S
C9 C5 1.387 . S
C9 C8 1.391 . S
C10 Tb0 2.825 . S
C10 C4 1.507 . S
C10 O23 1.238 . S
C10 O24 1.247 . S
O11 Tb0 2.347 . S
O11 C15 1.259 . S
O12 Eu1 2.418 . S
O12 C15 1.265 . S
O13 Eu1 2.384 . S
O13 C22 1.255 . S
O14 Tb0 2.366 . S
O14 C22 1.265 . S
C15 O11 1.259 . S
C15 O12 1.265 . S
O16 Eu1 2.479 1_556 S
O16 C31 1.238 . S
O17 Eu1 2.471 1_556 S
O17 C31 1.247 . S
O18 Eu1 2.347 . S
O18 C2 1.259 . S
O19 Tb0 2.418 . S
O19 C2 1.265 . S
O20 Tb0 2.384 . S
O20 C3 1.255 . S
O21 Eu1 2.366 1_556 S
O21 C3 1.265 1_556 S
C22 O13 1.255 . S
C22 O14 1.265 . S
O23 Tb0 2.479 . S
O23 C10 1.238 . S
O24 Tb0 2.471 . S
O24 C10 1.247 . S
C25 C28 1.380 . S
C25 C29 1.374 . S
C25 C31 1.507 . S
C26 C27 1.387 . S
C26 C30 1.391 . S
C27 C26 1.387 . S
C27 C28 1.384 . S
C27 H36 0.930 . S
C28 C25 1.380 . S
C28 C27 1.384 . S
C28 H37 0.931 . S
C29 C25 1.374 . S
C29 C30 1.390 . S
C29 H38 0.930 . S
C30 C26 1.391 . S
C30 C29 1.390 . S
C30 H39 0.930 . S
C31 Eu1 2.825 1_556 S
C31 O16 1.238 . S
C31 O17 1.247 . S
C31 C25 1.507 . S
H32 C5 0.930 . S
H33 C6 0.931 . S
H34 C7 0.930 . S
H35 C8 0.930 . S
H36 C27 0.930 . S
H37 C28 0.931 . S
H38 C29 0.930 . S
H39 C30 0.930 . S
Tb40 C50 2.825 . S
Tb40 O51 2.347 . S
Tb40 O54 2.366 . S
Tb40 O59 2.418 . S
Tb40 O60 2.384 . S
Tb40 O63 2.479 . S
Tb40 O64 2.471 . S
Eu41 O52 2.418 . S
Eu41 O53 2.384 . S
Eu41 O56 2.479 . S
Eu41 O57 2.471 . S
Eu41 O58 2.347 . S
Eu41 O61 2.366 . S
Eu41 C71 2.825 . S
C42 O58 1.259 . S
C42 O59 1.265 . S
C43 O60 1.255 . S
C43 O61 1.265 . S
C44 C46 1.380 . S
C44 C47 1.374 . S
C44 C50 1.507 . S
C45 C46 1.384 . S
C45 C49 1.387 . S
C45 H72 0.930 . S
C46 C44 1.380 . S
C46 C45 1.384 . S
C46 H73 0.931 . S
C47 C44 1.374 . S
C47 C48 1.390 . S
C47 H74 0.930 . S
C48 C47 1.390 . S
C48 C49 1.391 . S
C48 H75 0.930 . S
C49 C45 1.387 . S
C49 C48 1.391 . S
C50 Tb40 2.825 . S
C50 C44 1.507 . S
C50 O63 1.238 . S
C50 O64 1.247 . S
O51 Tb40 2.347 . S
O51 C55 1.259 . S
O52 Eu41 2.418 . S
O52 C55 1.265 . S
O53 Eu41 2.384 . S
O53 C62 1.255 . S
O54 Tb40 2.366 . S
O54 C62 1.265 . S
C55 O51 1.259 . S
C55 O52 1.265 . S
O56 Eu41 2.479 . S
O56 C71 1.238 . S
O57 Eu41 2.471 . S
O57 C71 1.247 . S
O58 Eu41 2.347 . S
O58 C42 1.259 . S
O59 Tb40 2.418 . S
O59 C42 1.265 . S
O60 Tb40 2.384 . S
O60 C43 1.255 . S
O61 Eu41 2.366 . S
O61 C43 1.265 . S
C62 O53 1.255 . S
C62 O54 1.265 . S
O63 Tb40 2.479 . S
O63 C50 1.238 . S
O64 Tb40 2.471 . S
O64 C50 1.247 . S
C65 C68 1.380 . S
C65 C69 1.374 . S
C65 C71 1.507 . S
C66 C67 1.387 . S
C66 C70 1.391 . S
C67 C66 1.387 . S
C67 C68 1.384 . S
C67 H76 0.930 . S
C68 C65 1.380 . S
C68 C67 1.384 . S
C68 H77 0.931 . S
C69 C65 1.374 . S
C69 C70 1.390 . S
C69 H78 0.930 . S
C70 C66 1.391 . S
C70 C69 1.390 . S
C70 H79 0.930 . S
C71 Eu41 2.825 . S
C71 O56 1.238 . S
C71 O57 1.247 . S
C71 C65 1.507 . S
H72 C45 0.930 . S
H73 C46 0.931 . S
H74 C47 0.930 . S
H75 C48 0.930 . S
H76 C67 0.930 . S
H77 C68 0.931 . S
H78 C69 0.930 . S
H79 C70 0.930 . S
Tb80 C90 2.825 . S
Tb80 O91 2.347 . S
Tb80 O94 2.366 . S
Tb80 O99 2.418 . S
Tb80 O100 2.384 . S
Tb80 O103 2.479 . S
Tb80 O104 2.471 . S
Eu81 O92 2.418 . S
Eu81 O93 2.384 . S
Eu81 O96 2.479 . S
Eu81 O97 2.471 . S
Eu81 O98 2.347 . S
Eu81 O101 2.366 . S
Eu81 C111 2.825 . S
C82 O98 1.259 . S
C82 O99 1.265 . S
C83 O100 1.255 . S
C83 O101 1.265 . S
C84 C86 1.380 1_556 S
C84 C87 1.374 1_556 S
C84 C90 1.507 . S
C85 C86 1.384 . S
C85 C89 1.387 . S
C85 H112 0.930 . S
C86 C84 1.380 1_554 S
C86 C85 1.384 . S
C86 H113 0.931 1_554 S
C87 C84 1.374 1_554 S
C87 C88 1.390 . S
C87 H114 0.930 . S
C88 C87 1.390 . S
C88 C89 1.391 . S
C88 H115 0.930 . S
C89 C85 1.387 . S
C89 C88 1.391 . S
C90 Tb80 2.825 . S
C90 C84 1.507 . S
C90 O103 1.238 . S
C90 O104 1.247 . S
O91 Tb80 2.347 . S
O91 C95 1.259 . S
O92 Eu81 2.418 . S
O92 C95 1.265 . S
O93 Eu81 2.384 . S
O93 C102 1.255 . S
O94 Tb80 2.366 . S
O94 C102 1.265 . S
C95 O91 1.259 . S
C95 O92 1.265 . S
O96 Eu81 2.479 . S
O96 C111 1.238 . S
O97 Eu81 2.471 . S
O97 C111 1.247 . S
O98 Eu81 2.347 . S
O98 C82 1.259 . S
O99 Tb80 2.418 . S
O99 C82 1.265 . S
O100 Tb80 2.384 . S
O100 C83 1.255 . S
O101 Eu81 2.366 . S
O101 C83 1.265 . S
C102 O93 1.255 . S
C102 O94 1.265 . S
O103 Tb80 2.479 . S
O103 C90 1.238 . S
O104 Tb80 2.471 . S
O104 C90 1.247 . S
C105 C108 1.380 . S
C105 C109 1.374 . S
C105 C111 1.507 . S
C106 C107 1.387 . S
C106 C110 1.391 . S
C107 C106 1.387 . S
C107 C108 1.384 . S
C107 H116 0.930 . S
C108 C105 1.380 . S
C108 C107 1.384 . S
C108 H117 0.931 . S
C109 C105 1.374 . S
C109 C110 1.390 . S
C109 H118 0.930 . S
C110 C106 1.391 . S
C110 C109 1.390 . S
C110 H119 0.930 . S
C111 Eu81 2.825 . S
C111 O96 1.238 . S
C111 O97 1.247 . S
C111 C105 1.507 . S
H112 C85 0.930 . S
H113 C86 0.931 1_556 S
H114 C87 0.930 . S
H115 C88 0.930 . S
H116 C107 0.930 . S
H117 C108 0.931 . S
H118 C109 0.930 . S
H119 C110 0.930 . S
Tb120 C130 2.825 . S
Tb120 O131 2.347 . S
Tb120 O134 2.366 . S
Tb120 O139 2.418 . S
Tb120 O140 2.384 . S
Tb120 O143 2.479 . S
Tb120 O144 2.471 . S
Eu121 O132 2.418 . S
Eu121 O133 2.384 . S
Eu121 O136 2.479 . S
Eu121 O137 2.471 . S
Eu121 O138 2.347 . S
Eu121 O141 2.366 . S
Eu121 C151 2.825 . S
C122 O138 1.259 . S
C122 O139 1.265 . S
C123 O140 1.255 . S
C123 O141 1.265 . S
C124 C126 1.380 . S
C124 C127 1.374 . S
C124 C130 1.507 1_556 S
C125 C126 1.384 . S
C125 C129 1.387 . S
C125 H152 0.930 . S
C126 C124 1.380 . S
C126 C125 1.384 . S
C126 H153 0.931 . S
C127 C124 1.374 . S
C127 C128 1.390 . S
C127 H154 0.930 . S
C128 C127 1.390 . S
C128 C129 1.391 . S
C128 H155 0.930 . S
C129 C125 1.387 . S
C129 C128 1.391 . S
C130 Tb120 2.825 . S
C130 C124 1.507 1_554 S
C130 O143 1.238 . S
C130 O144 1.247 . S
O131 Tb120 2.347 . S
O131 C135 1.259 . S
O132 Eu121 2.418 . S
O132 C135 1.265 . S
O133 Eu121 2.384 . S
O133 C142 1.255 . S
O134 Tb120 2.366 . S
O134 C142 1.265 . S
C135 O131 1.259 . S
C135 O132 1.265 . S
O136 Eu121 2.479 . S
O136 C151 1.238 . S
O137 Eu121 2.471 . S
O137 C151 1.247 . S
O138 Eu121 2.347 . S
O138 C122 1.259 . S
O139 Tb120 2.418 . S
O139 C122 1.265 . S
O140 Tb120 2.384 . S
O140 C123 1.255 . S
O141 Eu121 2.366 . S
O141 C123 1.265 . S
C142 O133 1.255 . S
C142 O134 1.265 . S
O143 Tb120 2.479 . S
O143 C130 1.238 . S
O144 Tb120 2.471 . S
O144 C130 1.247 . S
C145 C148 1.380 . S
C145 C149 1.374 . S
C145 C151 1.507 . S
C146 C147 1.387 . S
C146 C150 1.391 . S
C147 C146 1.387 . S
C147 C148 1.384 . S
C147 H156 0.930 . S
C148 C145 1.380 . S
C148 C147 1.384 . S
C148 H157 0.931 . S
C149 C145 1.374 . S
C149 C150 1.390 . S
C149 H158 0.930 . S
C150 C146 1.391 . S
C150 C149 1.390 . S
C150 H159 0.930 . S
C151 Eu121 2.825 . S
C151 O136 1.238 . S
C151 O137 1.247 . S
C151 C145 1.507 . S
H152 C125 0.930 . S
H153 C126 0.931 . S
H154 C127 0.930 . S
H155 C128 0.930 . S
H156 C147 0.930 . S
H157 C148 0.931 . S
H158 C149 0.930 . S
H159 C150 0.930 . S
Tb160 C170 2.825 . S
Tb160 O171 2.347 . S
Tb160 O174 2.366 . S
Tb160 O179 2.418 . S
Tb160 O180 2.384 . S
Tb160 O183 2.479 . S
Tb160 O184 2.471 . S
Eu161 O172 2.418 . S
Eu161 O173 2.384 . S
Eu161 O176 2.479 . S
Eu161 O177 2.471 . S
Eu161 O178 2.347 . S
Eu161 O181 2.366 . S
Eu161 C191 2.825 . S
C162 O178 1.259 . S
C162 O179 1.265 . S
C163 O180 1.255 . S
C163 O181 1.265 . S
C164 C166 1.380 . S
C164 C167 1.374 . S
C164 C170 1.507 . S
C165 C166 1.384 . S
C165 C169 1.387 . S
C165 H192 0.930 . S
C166 C164 1.380 . S
C166 C165 1.384 . S
C166 H193 0.931 . S
C167 C164 1.374 . S
C167 C168 1.390 . S
C167 H194 0.930 . S
C168 C167 1.390 . S
C168 C169 1.391 . S
C168 H195 0.930 . S
C169 C165 1.387 . S
C169 C168 1.391 . S
C170 Tb160 2.825 . S
C170 C164 1.507 . S
C170 O183 1.238 . S
C170 O184 1.247 . S
O171 Tb160 2.347 . S
O171 C175 1.259 . S
O172 Eu161 2.418 . S
O172 C175 1.265 . S
O173 Eu161 2.384 . S
O173 C182 1.255 . S
O174 Tb160 2.366 . S
O174 C182 1.265 . S
C175 O171 1.259 . S
C175 O172 1.265 . S
O176 Eu161 2.479 . S
O176 C191 1.238 . S
O177 Eu161 2.471 . S
O177 C191 1.247 . S
O178 Eu161 2.347 . S
O178 C162 1.259 . S
O179 Tb160 2.418 . S
O179 C162 1.265 . S
O180 Tb160 2.384 . S
O180 C163 1.255 . S
O181 Eu161 2.366 . S
O181 C163 1.265 . S
C182 O173 1.255 . S
C182 O174 1.265 . S
O183 Tb160 2.479 . S
O183 C170 1.238 . S
O184 Tb160 2.471 . S
O184 C170 1.247 . S
C185 C188 1.380 . S
C185 C189 1.374 . S
C185 C191 1.507 . S
C186 C187 1.387 . S
C186 C190 1.391 . S
C187 C186 1.387 . S
C187 C188 1.384 . S
C187 H196 0.930 . S
C188 C185 1.380 . S
C188 C187 1.384 . S
C188 H197 0.931 . S
C189 C185 1.374 . S
C189 C190 1.390 . S
C189 H198 0.930 . S
C190 C186 1.391 . S
C190 C189 1.390 . S
C190 H199 0.930 . S
C191 Eu161 2.825 . S
C191 O176 1.238 . S
C191 O177 1.247 . S
C191 C185 1.507 . S
H192 C165 0.930 . S
H193 C166 0.931 . S
H194 C167 0.930 . S
H195 C168 0.930 . S
H196 C187 0.930 . S
H197 C188 0.931 . S
H198 C189 0.930 . S
H199 C190 0.930 . S
Tb200 C210 2.825 . S
Tb200 O211 2.347 . S
Tb200 O214 2.366 . S
Tb200 O219 2.418 . S
Tb200 O220 2.384 . S
Tb200 O223 2.479 . S
Tb200 O224 2.471 . S
Eu201 O212 2.418 . S
Eu201 O213 2.384 . S
Eu201 O216 2.479 1_556 S
Eu201 O217 2.471 1_556 S
Eu201 O218 2.347 . S
Eu201 O221 2.366 . S
Eu201 C231 2.825 1_556 S
C202 O218 1.259 . S
C202 O219 1.265 . S
C203 O220 1.255 . S
C203 O221 1.265 . S
C204 C206 1.380 . S
C204 C207 1.374 . S
C204 C210 1.507 . S
C205 C206 1.384 . S
C205 C209 1.387 . S
C205 H232 0.930 . S
C206 C204 1.380 . S
C206 C205 1.384 . S
C206 H233 0.931 . S
C207 C204 1.374 . S
C207 C208 1.390 . S
C207 H234 0.930 . S
C208 C207 1.390 . S
C208 C209 1.391 . S
C208 H235 0.930 . S
C209 C205 1.387 . S
C209 C208 1.391 . S
C210 Tb200 2.825 . S
C210 C204 1.507 . S
C210 O223 1.238 . S
C210 O224 1.247 . S
O211 Tb200 2.347 . S
O211 C215 1.259 . S
O212 Eu201 2.418 . S
O212 C215 1.265 . S
O213 Eu201 2.384 . S
O213 C222 1.255 . S
O214 Tb200 2.366 . S
O214 C222 1.265 . S
C215 O211 1.259 . S
C215 O212 1.265 . S
O216 Eu201 2.479 1_554 S
O216 C231 1.238 . S
O217 Eu201 2.471 1_554 S
O217 C231 1.247 . S
O218 Eu201 2.347 . S
O218 C202 1.259 . S
O219 Tb200 2.418 . S
O219 C202 1.265 . S
O220 Tb200 2.384 . S
O220 C203 1.255 . S
O221 Eu201 2.366 . S
O221 C203 1.265 . S
C222 O213 1.255 . S
C222 O214 1.265 . S
O223 Tb200 2.479 . S
O223 C210 1.238 . S
O224 Tb200 2.471 . S
O224 C210 1.247 . S
C225 C228 1.380 . S
C225 C229 1.374 . S
C225 C231 1.507 . S
C226 C227 1.387 . S
C226 C230 1.391 . S
C227 C226 1.387 . S
C227 C228 1.384 . S
C227 H236 0.930 . S
C228 C225 1.380 . S
C228 C227 1.384 . S
C228 H237 0.931 . S
C229 C225 1.374 . S
C229 C230 1.390 . S
C229 H238 0.930 . S
C230 C226 1.391 . S
C230 C229 1.390 . S
C230 H239 0.930 . S
C231 Eu201 2.825 1_554 S
C231 O216 1.238 . S
C231 O217 1.247 . S
C231 C225 1.507 . S
H232 C205 0.930 . S
H233 C206 0.931 . S
H234 C207 0.930 . S
H235 C208 0.930 . S
H236 C227 0.930 . S
H237 C228 0.931 . S
H238 C229 0.930 . S
H239 C230 0.930 . S
H240 C246 0.930 . S
H241 C249 0.930 . S
H242 C250 0.930 . S
H243 C251 0.930 1_556 S
H244 C254 0.930 . S
H245 C255 0.930 . S
C246 H240 0.930 . S
C246 C247 1.355 . S
C246 C248 1.415 . S
C247 C246 1.355 . S
C247 C249 1.419 . S
C248 C246 1.415 . S
C248 C253 1.425 . S
C248 C255 1.409 1_556 S
C249 H241 0.930 . S
C249 C247 1.419 . S
C249 C250 1.362 . S
C250 H242 0.930 . S
C250 C249 1.362 . S
C250 C253 1.409 . S
C251 H243 0.930 1_554 S
C251 C252 1.355 . S
C251 C253 1.415 1_554 S
C252 C251 1.355 . S
C252 C254 1.419 . S
C253 C248 1.425 . S
C253 C250 1.409 . S
C253 C251 1.415 1_556 S
C254 H244 0.930 . S
C254 C252 1.419 . S
C254 C255 1.362 . S
C255 H245 0.930 . S
C255 C248 1.409 1_554 S
C255 C254 1.362 . S
H256 C262 0.930 . S
H257 C265 0.930 . S
H258 C266 0.930 . S
H259 C267 0.930 . S
H260 C270 0.930 . S
H261 C271 0.930 . S
C262 H256 0.930 . S
C262 C263 1.355 . S
C262 C264 1.415 . S
C263 C262 1.355 . S
C263 C265 1.419 . S
C264 C262 1.415 . S
C264 C269 1.425 1_455 S
C264 C271 1.409 . S
C265 H257 0.930 . S
C265 C263 1.419 . S
C265 C266 1.362 1_455 S
C266 H258 0.930 . S
C266 C265 1.362 1_655 S
C266 C269 1.409 . S
C267 H259 0.930 . S
C267 C268 1.355 . S
C267 C269 1.415 . S
C268 C267 1.355 . S
C268 C270 1.419 . S
C269 C264 1.425 1_655 S
C269 C266 1.409 . S
C269 C267 1.415 . S
C270 H260 0.930 . S
C270 C268 1.419 . S
C270 C271 1.362 1_655 S
C271 H261 0.930 . S
C271 C264 1.409 . S
C271 C270 1.362 1_455 S
H272 C278 0.930 . S
H273 C281 0.930 . S
H274 C282 0.930 1_565 S
H275 C283 0.930 . S
H276 C286 0.930 . S
H277 C287 0.930 1_545 S
C278 H272 0.930 . S
C278 C279 1.355 . S
C278 C280 1.415 . S
C279 C278 1.355 . S
C279 C281 1.419 . S
C280 C278 1.415 . S
C280 C285 1.425 1_545 S
C280 C287 1.409 1_545 S
C281 H273 0.930 . S
C281 C279 1.419 . S
C281 C282 1.362 . S
C282 H274 0.930 1_545 S
C282 C281 1.362 . S
C282 C285 1.409 1_545 S
C283 H275 0.930 . S
C283 C284 1.355 . S
C283 C285 1.415 . S
C284 C283 1.355 . S
C284 C286 1.419 . S
C285 C280 1.425 1_565 S
C285 C282 1.409 1_565 S
C285 C283 1.415 . S
C286 H276 0.930 . S
C286 C284 1.419 . S
C286 C287 1.362 . S
C287 H277 0.930 1_565 S
C287 C280 1.409 1_565 S
C287 C286 1.362 . S
H288 C294 0.930 . S
H289 C297 0.930 . S
H290 C298 0.930 . S
H291 C299 0.930 . S
H292 C302 0.930 . S
H293 C303 0.930 . S
C294 H288 0.930 . S
C294 C295 1.355 . S
C294 C296 1.415 . S
C295 C294 1.355 . S
C295 C297 1.419 . S
C296 C294 1.415 . S
C296 C301 1.425 . S
C296 C303 1.409 1_556 S
C297 H289 0.930 . S
C297 C295 1.419 . S
C297 C298 1.362 . S
C298 H290 0.930 . S
C298 C297 1.362 . S
C298 C301 1.409 . S
C299 H291 0.930 . S
C299 C300 1.355 . S
C299 C301 1.415 1_554 S
C300 C299 1.355 . S
C300 C302 1.419 . S
C301 C296 1.425 . S
C301 C298 1.409 . S
C301 C299 1.415 1_556 S
C302 H292 0.930 . S
C302 C300 1.419 . S
C302 C303 1.362 . S
C303 H293 0.930 . S
C303 C296 1.409 1_554 S
C303 C302 1.362 . S
H304 C310 0.930 . S
H305 C313 0.930 . S
H306 C314 0.930 . S
H307 C315 0.930 . S
H308 C318 0.930 . S
H309 C319 0.930 . S
C310 H304 0.930 . S
C310 C311 1.355 . S
C310 C312 1.415 1_455 S
C311 C310 1.355 . S
C311 C313 1.419 . S
C312 C310 1.415 1_655 S
C312 C317 1.425 1_655 S
C312 C319 1.409 . S
C313 H305 0.930 . S
C313 C311 1.419 . S
C313 C314 1.362 . S
C314 H306 0.930 . S
C314 C313 1.362 . S
C314 C317 1.409 . S
C315 H307 0.930 . S
C315 C316 1.355 . S
C315 C317 1.415 1_655 S
C316 C315 1.355 . S
C316 C318 1.419 . S
C317 C312 1.425 1_455 S
C317 C314 1.409 . S
C317 C315 1.415 1_455 S
C318 H308 0.930 . S
C318 C316 1.419 . S
C318 C319 1.362 . S
C319 H309 0.930 . S
C319 C312 1.409 . S
C319 C318 1.362 . S
H320 C326 0.930 . S
H321 C329 0.930 . S
H322 C330 0.928 1_565 S
H323 C331 0.930 . S
H324 C334 0.930 . S
H325 C335 0.928 1_545 S
C326 H320 0.930 . S
C326 C327 1.355 . S
C326 C328 1.415 . S
C327 C326 1.355 . S
C327 C329 1.419 . S
C328 C326 1.415 . S
C328 C333 1.425 1_545 S
C328 C335 1.410 1_545 S
C329 H321 0.930 . S
C329 C327 1.419 . S
C329 C330 1.364 . S
C330 H322 0.928 1_545 S
C330 C329 1.364 . S
C330 C333 1.410 1_545 S
C331 H323 0.930 . S
C331 C332 1.355 . S
C331 C333 1.415 . S
C332 C331 1.355 . S
C332 C334 1.419 . S
C333 C328 1.425 1_565 S
C333 C330 1.410 1_565 S
C333 C331 1.415 . S
C334 H324 0.930 . S
C334 C332 1.419 . S
C334 C335 1.364 . S
C335 H325 0.928 1_565 S
C335 C328 1.410 1_565 S
C335 C334 1.364 . S
H336 C342 0.930 . S
H337 C345 0.930 . S
H338 C346 0.930 . S
H339 C347 0.930 . S
H340 C350 0.930 . S
H341 C351 0.930 . S
C342 H336 0.930 . S
C342 C343 1.355 . S
C342 C344 1.415 . S
C343 C342 1.355 . S
C343 C345 1.419 . S
C344 C342 1.415 . S
C344 C349 1.425 . S
C344 C351 1.409 . S
C345 H337 0.930 . S
C345 C343 1.419 . S
C345 C346 1.362 . S
C346 H338 0.930 . S
C346 C345 1.362 . S
C346 C349 1.409 . S
C347 H339 0.930 . S
C347 C348 1.355 . S
C347 C349 1.415 . S
C348 C347 1.355 . S
C348 C350 1.419 . S
C349 C344 1.425 . S
C349 C346 1.409 . S
C349 C347 1.415 . S
C350 H340 0.930 . S
C350 C348 1.419 . S
C350 C351 1.362 . S
C351 H341 0.930 . S
C351 C344 1.409 . S
C351 C350 1.362 . S
H352 C358 0.930 . S
H353 C361 0.930 . S
H354 C362 0.930 . S
H355 C363 0.930 . S
H356 C366 0.930 . S
H357 C367 0.930 . S
C358 H352 0.930 . S
C358 C359 1.355 . S
C358 C360 1.415 . S
C359 C358 1.355 . S
C359 C361 1.419 . S
C360 C358 1.415 . S
C360 C365 1.425 . S
C360 C367 1.409 . S
C361 H353 0.930 . S
C361 C359 1.419 . S
C361 C362 1.362 . S
C362 H354 0.930 . S
C362 C361 1.362 . S
C362 C365 1.409 . S
C363 H355 0.930 . S
C363 C364 1.355 . S
C363 C365 1.415 1_556 S
C364 C363 1.355 . S
C364 C366 1.419 1_556 S
C365 C360 1.425 . S
C365 C362 1.409 . S
C365 C363 1.415 1_554 S
C366 H356 0.930 . S
C366 C364 1.419 1_554 S
C366 C367 1.362 . S
C367 H357 0.930 . S
C367 C360 1.409 . S
C367 C366 1.362 . S
H368 C374 0.930 . S
H369 C377 0.930 . S
H370 C378 0.930 . S
H371 C379 0.930 . S
H372 C382 0.930 . S
H373 C383 0.930 . S
C374 H368 0.930 . S
C374 C375 1.355 . S
C374 C376 1.415 . S
C375 C374 1.355 . S
C375 C377 1.419 . S
C376 C374 1.415 . S
C376 C381 1.425 . S
C376 C383 1.409 . S
C377 H369 0.930 . S
C377 C375 1.419 . S
C377 C378 1.362 . S
C378 H370 0.930 . S
C378 C377 1.362 . S
C378 C381 1.409 . S
C379 H371 0.930 . S
C379 C380 1.355 . S
C379 C381 1.415 . S
C380 C379 1.355 . S
C380 C382 1.419 . S
C381 C376 1.425 . S
C381 C378 1.409 . S
C381 C379 1.415 . S
C382 H372 0.930 . S
C382 C380 1.419 . S
C382 C383 1.362 . S
C383 H373 0.930 . S
C383 C376 1.409 . S
C383 C382 1.362 . S
H384 C390 0.930 . S
H385 C393 0.930 . S
H386 C394 0.930 . S
H387 C395 0.930 . S
H388 C398 0.930 . S
H389 C399 0.930 . S
C390 H384 0.930 . S
C390 C391 1.355 . S
C390 C392 1.415 . S
C391 C390 1.355 . S
C391 C393 1.419 . S
C392 C390 1.415 . S
C392 C397 1.425 . S
C392 C399 1.409 . S
C393 H385 0.930 . S
C393 C391 1.419 . S
C393 C394 1.362 . S
C394 H386 0.930 . S
C394 C393 1.362 . S
C394 C397 1.409 . S
C395 H387 0.930 . S
C395 C396 1.355 . S
C395 C397 1.415 . S
C396 C395 1.355 . S
C396 C398 1.419 . S
C397 C392 1.425 . S
C397 C394 1.409 . S
C397 C395 1.415 . S
C398 H388 0.930 . S
C398 C396 1.419 . S
C398 C399 1.362 . S
C399 H389 0.930 . S
C399 C392 1.409 . S
C399 C398 1.362 . S
H400 C406 0.930 . S
H401 C409 0.930 . S
H402 C410 0.930 . S
H403 C411 0.930 1_554 S
H404 C414 0.930 . S
H405 C415 0.930 . S
C406 H400 0.930 . S
C406 C407 1.355 . S
C406 C408 1.415 . S
C407 C406 1.355 . S
C407 C409 1.419 . S
C408 C406 1.415 . S
C408 C413 1.425 . S
C408 C415 1.409 . S
C409 H401 0.930 . S
C409 C407 1.419 . S
C409 C410 1.362 . S
C410 H402 0.930 . S
C410 C409 1.362 . S
C410 C413 1.409 . S
C411 H403 0.930 1_556 S
C411 C412 1.355 1_556 S
C411 C413 1.415 . S
C412 C411 1.355 1_554 S
C412 C414 1.419 1_554 S
C413 C408 1.425 . S
C413 C410 1.409 . S
C413 C411 1.415 . S
C414 H404 0.930 . S
C414 C412 1.419 1_556 S
C414 C415 1.362 . S
C415 H405 0.930 . S
C415 C408 1.409 . S
C415 C414 1.362 . S
H416 C422 0.930 . S
H417 C425 0.930 . S
H418 C426 0.930 . S
H419 C427 0.930 . S
H420 C430 0.930 . S
H421 C431 0.930 . S
C422 H416 0.930 . S
C422 C423 1.355 . S
C422 C424 1.415 . S
C423 C422 1.355 . S
C423 C425 1.419 . S
C424 C422 1.415 . S
C424 C429 1.425 . S
C424 C431 1.409 . S
C425 H417 0.930 . S
C425 C423 1.419 . S
C425 C426 1.362 . S
C426 H418 0.930 . S
C426 C425 1.362 . S
C426 C429 1.409 . S
C427 H419 0.930 . S
C427 C428 1.355 . S
C427 C429 1.415 . S
C428 C427 1.355 . S
C428 C430 1.419 . S
C429 C424 1.425 . S
C429 C426 1.409 . S
C429 C427 1.415 . S
C430 H420 0.930 . S
C430 C428 1.419 . S
C430 C431 1.362 . S
C431 H421 0.930 . S
C431 C424 1.409 . S
C431 C430 1.362 . S
H432 C438 0.930 . S
H433 C441 0.930 . S
H434 C442 0.930 . S
H435 C443 0.930 . S
H436 C446 0.930 . S
H437 C447 0.930 . S
C438 H432 0.930 . S
C438 C439 1.355 . S
C438 C440 1.415 . S
C439 C438 1.355 . S
C439 C441 1.419 . S
C440 C438 1.415 . S
C440 C445 1.425 . S
C440 C447 1.409 . S
C441 H433 0.930 . S
C441 C439 1.419 . S
C441 C442 1.362 . S
C442 H434 0.930 . S
C442 C441 1.362 . S
C442 C445 1.409 . S
C443 H435 0.930 . S
C443 C444 1.355 . S
C443 C445 1.415 . S
C444 C443 1.355 . S
C444 C446 1.419 . S
C445 C440 1.425 . S
C445 C442 1.409 . S
C445 C443 1.415 . S
C446 H436 0.930 . S
C446 C444 1.419 . S
C446 C447 1.362 . S
C447 H437 0.930 . S
C447 C440 1.409 . S
C447 C446 1.362 . S
H448 C454 0.930 . S
H449 C457 0.930 . S
H450 C458 0.930 . S
H451 C459 0.930 . S
H452 C462 0.930 . S
H453 C463 0.930 . S
C454 H448 0.930 . S
C454 C455 1.355 . S
C454 C456 1.415 . S
C455 C454 1.355 . S
C455 C457 1.419 . S
C456 C454 1.415 . S
C456 C461 1.425 . S
C456 C463 1.409 . S
C457 H449 0.930 . S
C457 C455 1.419 . S
C457 C458 1.362 . S
C458 H450 0.930 . S
C458 C457 1.362 . S
C458 C461 1.409 . S
C459 H451 0.930 . S
C459 C460 1.355 . S
C459 C461 1.415 . S
C460 C459 1.355 . S
C460 C462 1.419 . S
C461 C456 1.425 . S
C461 C458 1.409 . S
C461 C459 1.415 . S
C462 H452 0.930 . S
C462 C460 1.419 . S
C462 C463 1.362 . S
C463 H453 0.930 . S
C463 C456 1.409 . S
C463 C462 1.362 . S
H464 C470 0.930 . S
H465 C473 0.930 . S
H466 C474 0.930 . S
H467 C475 0.930 . S
H468 C478 0.930 . S
H469 C479 0.930 . S
C470 H464 0.930 . S
C470 C471 1.355 . S
C470 C472 1.415 . S
C471 C470 1.355 . S
C471 C473 1.419 . S
C472 C470 1.415 . S
C472 C477 1.425 . S
C472 C479 1.409 . S
C473 H465 0.930 . S
C473 C471 1.419 . S
C473 C474 1.362 . S
C474 H466 0.930 . S
C474 C473 1.362 . S
C474 C477 1.409 . S
C475 H467 0.930 . S
C475 C476 1.355 . S
C475 C477 1.415 . S
C476 C475 1.355 . S
C476 C478 1.419 . S
C477 C472 1.425 . S
C477 C474 1.409 . S
C477 C475 1.415 . S
C478 H468 0.930 . S
C478 C476 1.419 . S
C478 C479 1.362 . S
C479 H469 0.930 . S
C479 C472 1.409 . S
C479 C478 1.362 . S
H480 C486 0.930 . S
H481 C489 0.930 . S
H482 C490 0.930 . S
H483 C491 0.930 . S
H484 C494 0.930 . S
H485 C495 0.930 . S
C486 H480 0.930 . S
C486 C487 1.355 . S
C486 C488 1.415 . S
C487 C486 1.355 . S
C487 C489 1.419 . S
C488 C486 1.415 . S
C488 C493 1.425 . S
C488 C495 1.409 . S
C489 H481 0.930 . S
C489 C487 1.419 . S
C489 C490 1.362 . S
C490 H482 0.930 . S
C490 C489 1.362 . S
C490 C493 1.409 . S
C491 H483 0.930 . S
C491 C492 1.355 . S
C491 C493 1.415 . S
C492 C491 1.355 . S
C492 C494 1.419 . S
C493 C488 1.425 . S
C493 C490 1.409 . S
C493 C491 1.415 . S
C494 H484 0.930 . S
C494 C492 1.419 . S
C494 C495 1.362 . S
C495 H485 0.930 . S
C495 C488 1.409 . S
C495 C494 1.362 . S
H496 C502 0.930 . S
H497 C505 0.930 . S
H498 C506 0.930 . S
H499 C507 0.930 . S
H500 C510 0.930 . S
H501 C511 0.930 . S
C502 H496 0.930 . S
C502 C503 1.355 . S
C502 C504 1.415 . S
C503 C502 1.355 . S
C503 C505 1.419 . S
C504 C502 1.415 . S
C504 C509 1.425 . S
C504 C511 1.409 . S
C505 H497 0.930 . S
C505 C503 1.419 . S
C505 C506 1.362 . S
C506 H498 0.930 . S
C506 C505 1.362 . S
C506 C509 1.409 . S
C507 H499 0.930 . S
C507 C508 1.355 . S
C507 C509 1.415 . S
C508 C507 1.355 . S
C508 C510 1.419 . S
C509 C504 1.425 . S
C509 C506 1.409 . S
C509 C507 1.415 . S
C510 H500 0.930 . S
C510 C508 1.419 . S
C510 C511 1.362 . S
C511 H501 0.930 . S
C511 C504 1.409 . S
C511 C510 1.362 . S
H512 C518 0.930 . S
H513 C521 0.930 . S
H514 C522 0.930 . S
H515 C523 0.930 . S
H516 C526 0.930 . S
H517 C527 0.930 . S
C518 H512 0.930 . S
C518 C519 1.355 . S
C518 C520 1.415 . S
C519 C518 1.355 . S
C519 C521 1.419 . S
C520 C518 1.415 . S
C520 C525 1.425 . S
C520 C527 1.409 . S
C521 H513 0.930 . S
C521 C519 1.419 . S
C521 C522 1.362 . S
C522 H514 0.930 . S
C522 C521 1.362 . S
C522 C525 1.409 . S
C523 H515 0.930 . S
C523 C524 1.355 . S
C523 C525 1.415 . S
C524 C523 1.355 . S
C524 C526 1.419 . S
C525 C520 1.425 . S
C525 C522 1.409 . S
C525 C523 1.415 . S
C526 H516 0.930 . S
C526 C524 1.419 . S
C526 C527 1.362 . S
C527 H517 0.930 . S
C527 C520 1.409 . S
C527 C526 1.362 . S
C247 C202 1.354 . S
C252 C2 1.416 . S
C263 C22 1.772 . S
C268 C62 1.742 . S
C279 C42 1.420 . S
C284 C82 1.353 . S
C295 C102 1.770 . S
C300 C142 1.740 . S
C311 C162 1.382 . S
C316 C122 1.437 . S
C327 C222 1.760 . S
C332 C182 1.787 . S
C343 C26 1.296 . S
C348 C9 1.296 . S
C359 C49 1.375 . S
C364 C66 1.375 . S
C375 C106 1.333 . S
C380 C89 1.333 . S
C391 C129 1.312 . S
C396 C146 1.312 . S
C407 C169 1.371 . S
C412 C186 1.371 . S
C423 C209 1.293 . S
C428 C226 1.293 . S
C439 C15 1.878 . S
C444 C163 1.884 . S
C455 C43 1.887 . S
C460 C215 1.891 . S
C471 C3 1.892 1_556 S
C476 C95 1.885 . S
C487 C55 1.893 . S
C492 C123 1.889 . S
C503 C175 1.894 . S
C508 C83 1.892 . S
C519 C135 1.889 . S
C524 C203 1.894 1_554 S
