# Generated by pormake.
# Topology rhr, (4)-cn, num edge types: 1
# Building blocks:
#     Node 0, Type 0, BuildingBlock: ESEHIV_clean_sbu_0, # of connection points: 4
#     Node 1, Type 0, BuildingBlock: ESEHIV_clean_sbu_0, # of connection points: 4
#     Node 2, Type 0, BuildingBlock: ESEHIV_clean_sbu_0, # of connection points: 4
#     Node 3, Type 0, BuildingBlock: ESEHIV_clean_sbu_0, # of connection points: 4
#     Node 4, Type 0, BuildingBlock: ESEHIV_clean_sbu_0, # of connection points: 4
#     Node 5, Type 0, BuildingBlock: ESEHIV_clean_sbu_0, # of connection points: 4
#     Node 6, Type 0, BuildingBlock: ESEHIV_clean_sbu_0, # of connection points: 4
#     Node 7, Type 0, BuildingBlock: ESEHIV_clean_sbu_0, # of connection points: 4
#     Node 8, Type 0, BuildingBlock: ESEHIV_clean_sbu_0, # of connection points: 4
#     Node 9, Type 0, BuildingBlock: ESEHIV_clean_sbu_0, # of connection points: 4
#     Node 10, Type 0, BuildingBlock: ESEHIV_clean_sbu_0, # of connection points: 4
#     Node 11, Type 0, BuildingBlock: ESEHIV_clean_sbu_0, # of connection points: 4
#     Node 12, Type 0, BuildingBlock: ESEHIV_clean_sbu_0, # of connection points: 4
#     Node 13, Type 0, BuildingBlock: ESEHIV_clean_sbu_0, # of connection points: 4
#     Node 14, Type 0, BuildingBlock: ESEHIV_clean_sbu_0, # of connection points: 4
#     Node 15, Type 0, BuildingBlock: ESEHIV_clean_sbu_0, # of connection points: 4
#     Node 16, Type 0, BuildingBlock: ESEHIV_clean_sbu_0, # of connection points: 4
#     Node 17, Type 0, BuildingBlock: ESEHIV_clean_sbu_0, # of connection points: 4
#     Node 18, Type 0, BuildingBlock: ESEHIV_clean_sbu_0, # of connection points: 4
#     Node 19, Type 0, BuildingBlock: ESEHIV_clean_sbu_0, # of connection points: 4
#     Node 20, Type 0, BuildingBlock: ESEHIV_clean_sbu_0, # of connection points: 4
#     Node 21, Type 0, BuildingBlock: ESEHIV_clean_sbu_0, # of connection points: 4
#     Node 22, Type 0, BuildingBlock: ESEHIV_clean_sbu_0, # of connection points: 4
#     Node 23, Type 0, BuildingBlock: ESEHIV_clean_sbu_0, # of connection points: 4
#     Edge 24, Type (0, 0), None
#     Edge 25, Type (0, 0), None
#     Edge 26, Type (0, 0), None
#     Edge 27, Type (0, 0), None
#     Edge 28, Type (0, 0), None
#     Edge 29, Type (0, 0), None
#     Edge 30, Type (0, 0), None
#     Edge 31, Type (0, 0), None
#     Edge 32, Type (0, 0), None
#     Edge 33, Type (0, 0), None
#     Edge 34, Type (0, 0), None
#     Edge 35, Type (0, 0), None
#     Edge 36, Type (0, 0), None
#     Edge 37, Type (0, 0), None
#     Edge 38, Type (0, 0), None
#     Edge 39, Type (0, 0), None
#     Edge 40, Type (0, 0), None
#     Edge 41, Type (0, 0), None
#     Edge 42, Type (0, 0), None
#     Edge 43, Type (0, 0), None
#     Edge 44, Type (0, 0), None
#     Edge 45, Type (0, 0), None
#     Edge 46, Type (0, 0), None
#     Edge 47, Type (0, 0), None
#     Edge 48, Type (0, 0), None
#     Edge 49, Type (0, 0), None
#     Edge 50, Type (0, 0), None
#     Edge 51, Type (0, 0), None
#     Edge 52, Type (0, 0), None
#     Edge 53, Type (0, 0), None
#     Edge 54, Type (0, 0), None
#     Edge 55, Type (0, 0), None
#     Edge 56, Type (0, 0), None
#     Edge 57, Type (0, 0), None
#     Edge 58, Type (0, 0), None
#     Edge 59, Type (0, 0), None
#     Edge 60, Type (0, 0), None
#     Edge 61, Type (0, 0), None
#     Edge 62, Type (0, 0), None
#     Edge 63, Type (0, 0), None
#     Edge 64, Type (0, 0), None
#     Edge 65, Type (0, 0), None
#     Edge 66, Type (0, 0), None
#     Edge 67, Type (0, 0), None
#     Edge 68, Type (0, 0), None
#     Edge 69, Type (0, 0), None
#     Edge 70, Type (0, 0), None
#     Edge 71, Type (0, 0), None
# Relax obj value: 0.038
# Max RMSD: 0.181
# Mean RMSD: 0.100
data_MOF--net-rhr--node1-ESEHIV_clean_sbu_0--edge1-none
_symmetry_space_group_name_H-M    P1
_symmetry_Int_Tables_number       1
_symmetry_cell_setting            triclinic
loop_
_symmetry_equiv_pos_as_xyz
'x, y, z'
_cell_length_a     26.249927
_cell_length_b     25.996602
_cell_length_c     26.02099
_cell_angle_alpha  89.862443
_cell_angle_beta   95.988414
_cell_angle_gamma 94.858076
loop_
_atom_site_label
_atom_site_type_symbol
_atom_site_fract_x
_atom_site_fract_y
_atom_site_fract_z
_atom_type_partial_charge
Cu0 Cu 0.37051 0.10077 0.33105 0.0
N1 N 0.43829 0.09344 0.32279 0.0
N2 N 0.50369 0.07896 0.27835 0.0
C3 C 0.45452 0.09034 0.27572 0.0
C4 C 0.5188 0.07479 0.32953 0.0
C5 C 0.47839 0.08436 0.35691 0.0
O6 O 0.35343 0.14706 0.2731 0.0
C7 C 0.34659 1.00545 0.37727 0.0
O8 O 0.37973 1.02822 0.4132 0.0
H9 H 0.4293 0.09243 0.24033 0.0
H10 H 0.47734 0.08171 0.39827 0.0
N11 N 0.36328 0.1326 0.39322 0.0
N12 N 0.33021 0.14334 0.46705 0.0
C13 C 0.322 0.12291 0.4193 0.0
C14 C 0.3986 0.16045 0.42548 0.0
C15 C 0.37801 0.16749 0.47138 0.0
C16 C 0.37876 0.19162 0.27385 0.0
O17 O 0.40361 0.20901 0.31758 0.0
H18 H 0.28791 0.09902 0.40446 0.0
H19 H 0.43736 0.17237 0.41721 0.0
O20 O 0.3362 1.02966 0.33479 0.0
H21 H 0.55507 0.0623 0.34626 0.0
H22 H 0.39746 0.18642 0.50583 0.0
Cu23 Cu 0.11208 0.38448 0.45733 0.0
N24 N 0.15285 0.36899 0.51969 0.0
N25 N 0.20285 0.31531 0.56616 0.0
C26 C 0.18034 0.32748 0.5191 0.0
C27 C 0.19055 0.35207 0.59825 0.0
C28 C 0.15929 0.38506 0.56946 0.0
O29 O 0.07098 0.31851 0.44144 0.0
C30 C 0.20428 0.43342 0.42565 0.0
O31 O 0.21632 0.43705 0.47583 0.0
H32 H 0.18082 0.30437 0.48458 0.0
H33 H 0.1406 0.41653 0.58437 0.0
N34 N 0.0611 0.43351 0.45271 0.0
N35 N 0.99417 0.47589 0.41714 0.0
C36 C 1.03134 0.44461 0.40847 0.0
C37 C 1.04194 0.45914 0.49025 0.0
C38 C 1.00069 0.48489 0.46863 0.0
C39 C 0.05584 0.28879 0.47744 0.0
O40 O 0.07175 0.29978 0.52593 0.0
H41 H 1.0355 0.42822 0.3711 0.0
H42 H 0.05575 0.45774 0.53084 0.0
O43 O 0.16135 0.40924 0.40817 0.0
H44 H 0.1999 0.35284 0.63978 0.0
H45 H 0.9769 0.50773 0.48943 0.0
Cu46 Cu 0.72181 0.0769 0.35944 0.0
N47 N 0.66443 0.11459 0.34606 0.0
N48 N 0.60861 0.15547 0.2936 0.0
C49 C 0.64562 0.12254 0.29685 0.0
C50 C 0.6038 0.1694 0.34273 0.0
C51 C 0.63856 0.14386 0.3753 0.0
O52 O 0.70265 1.00996 0.3274 0.0
C53 C 0.7858 0.16339 0.34935 0.0
O54 O 0.74656 0.18645 0.36281 0.0
H55 H 0.65983 0.10511 0.26406 0.0
H56 H 0.64565 0.14774 0.41687 0.0
N57 N 0.74991 0.06564 0.42714 0.0
N58 N 0.81175 1.03944 0.48443 0.0
C59 C 0.80031 0.05832 0.43691 0.0
C60 C 0.72863 0.05082 0.47029 0.0
C61 C 0.76689 1.03429 0.50582 0.0
C62 C 0.66506 0.98135 0.34235 0.0
O63 O 0.64203 0.99634 0.38148 0.0
H64 H 0.82699 0.06185 0.40789 0.0
H65 H 0.68791 0.04861 0.4743 0.0
O66 O 0.7778 0.11728 0.33167 0.0
H67 H 0.57761 0.19612 0.35426 0.0
H68 H 0.76162 1.01747 0.54318 0.0
Cu69 Cu 0.06371 0.74742 0.37823 0.0
N70 N 0.12137 0.70829 0.36556 0.0
N71 N 0.16053 0.64551 0.32686 0.0
C72 C 0.12421 0.65636 0.35869 0.0
C73 C 0.18171 0.6921 0.31401 0.0
C74 C 0.15804 0.72989 0.33754 0.0
O75 O 1.00506 0.71049 0.33388 0.0
C76 C 0.11275 0.85703 0.38265 0.0
O77 O 0.11228 0.90387 0.36373 0.0
H78 H 0.09697 0.6273 0.37253 0.0
H79 H 0.16404 0.77083 0.33039 0.0
N80 N 1.036 0.75655 0.44414 0.0
N81 N 0.9932 0.80411 0.49724 0.0
C82 C 1.0321 0.80347 0.46637 0.0
C83 C 0.9976 0.72637 0.46276 0.0
C84 C 0.97172 0.75511 0.49545 0.0
C85 C 1.00531 0.68028 0.29472 0.0
O86 O 0.04751 0.67761 0.27227 0.0
H87 H 0.05409 0.83822 0.45647 0.0
H88 H 0.98569 0.68734 0.44959 0.0
O89 O 0.08189 0.82075 0.35959 0.0
H90 H 0.21149 0.69863 0.28832 0.0
H91 H 0.93814 0.74151 0.51406 0.0
Cu92 Cu 0.40725 1.00209 0.74694 0.0
N93 N 0.46827 1.04511 0.76948 0.0
N94 N 0.51823 0.09923 0.82575 0.0
C95 C 0.4703 0.08633 0.80188 0.0
C96 C 0.54777 0.06463 0.80792 0.0
C97 C 0.51697 1.03133 0.77374 0.0
O98 O 0.41477 0.94498 0.79854 0.0
C99 C 0.35153 0.09044 0.72555 0.0
O100 O 0.39495 0.1083 0.70859 0.0
H101 H 0.43654 0.10459 0.81036 0.0
H102 H 0.52873 0.99724 0.75609 0.0
N103 N 0.39877 0.97442 0.67778 0.0
N104 N 0.36277 0.93565 0.60286 0.0
C105 C 0.35423 0.96119 0.64647 0.0
C106 C 0.43622 0.95803 0.65215 0.0
C107 C 0.41446 0.93391 0.60704 0.0
C108 C 0.44407 0.90809 0.79435 0.0
O109 O 0.46083 0.89981 0.74961 0.0
H110 H 0.31638 0.96739 0.65695 0.0
H111 H 0.4766 0.9615 0.66632 0.0
O112 O 0.34884 0.04582 0.74704 0.0
H113 H 0.58848 0.06289 0.81927 0.0
H114 H 0.4355 0.91564 0.57947 0.0
Cu115 Cu 0.05617 0.39074 0.72084 0.0
N116 N 0.09854 0.33691 0.72825 0.0
N117 N 0.12324 0.25773 0.72108 0.0
C118 C 0.09484 0.29411 0.69865 0.0
C119 C 0.14613 0.2783 0.76599 0.0
C120 C 0.13024 0.32705 0.77061 0.0
O121 O 1.01284 0.38518 0.65392 0.0
C122 C 0.13971 0.47169 0.75423 0.0
O123 O 0.17402 0.43802 0.75247 0.0
H124 H 0.07155 0.28968 0.66186 0.0
H125 H 0.1392 0.35263 0.80363 0.0
N126 N 1.01403 0.38142 0.77346 0.0
N127 N 0.97284 0.40717 0.83752 0.0
C128 C 0.98907 0.41926 0.79138 0.0
C129 C 1.01304 0.34387 0.80938 0.0
C130 C 0.98771 0.36001 0.84959 0.0
C131 C 0.97761 0.34795 0.64703 0.0
O132 O 0.97084 0.31588 0.68535 0.0
H133 H 0.98732 0.45674 0.77339 0.0
H134 H 1.03251 0.30893 0.80828 0.0
O135 O 0.09274 0.45938 0.73705 0.0
H136 H 0.17206 0.25934 0.79346 0.0
H137 H 0.98287 0.34012 0.88556 0.0
Cu138 Cu 0.77471 0.06408 0.70888 0.0
N139 N 0.71946 1.01715 0.72253 0.0
N140 N 0.6694 0.97303 0.7748 0.0
C141 C 0.71451 1.00087 0.77113 0.0
C142 C 0.64464 0.97126 0.72659 0.0
C143 C 0.67573 0.99886 0.69425 0.0
O144 O 0.76829 0.12135 0.75971 0.0
C145 C 0.83211 0.97933 0.68321 0.0
O146 O 0.78653 0.95887 0.66452 0.0
H147 H 0.74296 1.011 0.80341 0.0
H148 H 0.6663 1.00662 0.65367 0.0
N149 N 0.77261 0.09558 0.64353 0.0
N150 N 0.80124 0.14422 0.57914 0.0
C151 C 0.81441 0.11501 0.62076 0.0
C152 C 0.73185 0.11239 0.61489 0.0
C153 C 0.74928 0.14227 0.57538 0.0
C154 C 0.72307 0.13704 0.76248 0.0
O155 O 0.68447 0.11614 0.73109 0.0
H156 H 0.85364 0.11058 0.63644 0.0
H157 H 0.69247 0.10564 0.62363 0.0
O158 O 0.8356 1.02266 0.70817 0.0
H159 H 0.60654 0.9528 0.71575 0.0
H160 H 0.7254 0.16239 0.54687 0.0
Cu161 Cu 0.06651 0.72527 0.70739 0.0
N162 N 0.10527 0.71105 0.6522 0.0
N163 N 0.16202 0.72349 0.59337 0.0
C164 C 0.13022 0.74583 0.6227 0.0
C165 C 0.15675 0.67269 0.60418 0.0
C166 C 0.12186 0.66521 0.64051 0.0
O167 O 1.0454 0.79485 0.70033 0.0
C168 C 0.0898 0.71048 0.8147 0.0
O169 O 1.04547 0.72896 0.8197 0.0
H170 H 0.12667 0.78682 0.62409 0.0
H171 H 0.11124 0.62915 0.65904 0.0
N172 N 1.0064 0.67987 0.71116 0.0
N173 N 0.95414 0.63028 0.75809 0.0
C174 C 1.00286 0.64163 0.7462 0.0
C175 C 0.95742 0.69107 0.6984 0.0
C176 C 0.92504 0.66017 0.72683 0.0
C177 C 0.07312 0.83732 0.69752 0.0
O178 O 0.12337 0.83828 0.70665 0.0
H179 H 1.03621 0.62666 0.76713 0.0
H180 H 0.94658 0.72354 0.67487 0.0
O181 O 0.10863 0.71475 0.77149 0.0
H182 H 0.17784 0.64342 0.58857 0.0
H183 H 0.88443 0.66368 0.72848 0.0
Cu184 Cu 0.34328 0.36295 1.03068 0.0
N185 N 0.33129 0.3896 0.09721 0.0
N186 N 0.29309 0.44193 0.14905 0.0
C187 C 0.31968 0.43857 0.10694 0.0
C188 C 0.28818 0.39324 0.16693 0.0
C189 C 0.31105 0.36139 0.13498 0.0
O190 O 0.30259 0.40681 0.98481 0.0
C191 C 0.32565 0.24879 1.0237 0.0
O192 O 0.29556 0.20979 1.00263 0.0
H193 H 0.32719 0.47054 0.08127 0.0
H194 H 0.30902 0.31971 0.13677 0.0
N195 N 0.41197 0.36045 1.01013 0.0
N196 N 0.47761 0.33611 0.96785 0.0
C197 C 0.42573 0.33405 0.969 0.0
C198 C 0.45714 0.38007 1.0349 0.0
C199 C 0.49731 0.36531 1.00899 0.0
C200 C 0.25472 0.40503 0.99074 0.0
O201 O 0.23559 0.37025 1.02182 0.0
H202 H 0.39836 0.31239 0.94151 0.0
H203 H 0.46078 0.40286 0.07003 0.0
O204 O 0.30929 0.2937 1.01981 0.0
H205 H 0.26808 0.38109 0.19976 0.0
H206 H 0.53775 0.37578 1.01912 0.0
Cu207 Cu 0.7274 0.40414 0.07103 0.0
N208 N 0.73166 0.45769 1.02134 0.0
N209 N 0.77335 0.51256 0.9695 0.0
C210 C 0.7716 0.49356 1.01798 0.0
C211 C 0.73164 0.48942 0.94151 0.0
C212 C 0.70623 0.4556 0.97345 0.0
O213 O 0.78149 0.422 0.13066 0.0
C214 C 0.7035 0.2964 1.02643 0.0
O215 O 0.68737 0.27698 0.06906 0.0
H216 H 0.80147 0.50228 0.0492 0.0
H217 H 0.67447 0.42756 0.9612 0.0
N218 N 0.66332 0.39951 0.09987 0.0
N219 N 0.58878 0.36259 0.12422 0.0
C220 C 0.62268 0.36449 0.08818 0.0
C221 C 0.65364 0.42172 0.14426 0.0
C222 C 0.60767 0.39931 0.15921 0.0
C223 C 0.8293 0.43909 0.13548 0.0
O224 O 0.85582 0.43985 0.09538 0.0
H225 H 0.61908 0.33895 0.05508 0.0
H226 H 0.67997 0.44974 0.16626 0.0
O227 O 0.728 0.34142 1.02695 0.0
H228 H 0.72256 0.49328 0.9002 0.0
H229 H 0.59144 0.40699 0.19472 0.0
Cu230 Cu 0.7405 0.73377 0.04346 0.0
N231 N 0.72524 0.79473 0.07173 0.0
N232 N 0.67867 0.83687 0.12106 0.0
C233 C 0.70396 0.79471 0.11619 0.0
C234 C 0.68482 0.8654 0.0785 0.0
C235 C 0.71361 0.83889 0.04769 0.0
O236 O 0.67805 0.71855 0.99325 0.0
C237 C 0.77226 0.64502 0.11064 0.0
O238 O 0.77921 0.61902 0.06906 0.0
H239 H 0.70201 0.76159 0.14128 0.0
H240 H 0.72015 0.84822 1.00829 0.0
N241 N 0.80196 0.74721 1.01337 0.0
N242 N 0.87853 0.7346 0.98784 0.0
C243 C 0.84117 0.71695 1.01658 0.0
C244 C 0.81591 0.7865 0.98247 0.0
C245 C 0.86251 0.77791 0.96541 0.0
C246 C 0.66979 0.74242 0.95016 0.0
O247 O 0.70847 0.76806 0.93083 0.0
H248 H 0.84077 0.68013 1.03553 0.0
H249 H 0.79263 0.81763 0.97064 0.0
O250 O 0.75244 0.68841 0.10559 0.0
H251 H 0.66565 0.89974 0.06805 0.0
H252 H 0.88102 0.79917 0.93567 0.0
Cu253 Cu 0.39749 0.73435 0.08716 0.0
N254 N 0.34962 0.7162 1.02951 0.0
N255 N 0.30276 0.66203 0.97226 0.0
C256 C 0.31671 0.67329 1.02291 0.0
C257 C 0.32742 0.69925 0.94583 0.0
C258 C 0.35608 0.73253 0.98116 0.0
O259 O 0.39988 0.67586 0.13517 0.0
C260 C 0.48843 0.79867 0.06769 0.0
O261 O 0.49022 0.8167 0.11491 0.0
H262 H 0.30638 0.64847 0.05433 0.0
H263 H 0.38301 0.76423 0.97207 0.0
N264 N 0.38408 0.78966 0.12865 0.0
N265 N 0.41868 0.84231 0.19346 0.0
C266 C 0.40729 0.79299 0.17744 0.0
C267 C 0.37679 0.83856 0.11457 0.0
C268 C 0.39775 0.87119 0.15474 0.0
C269 C 0.36 0.66977 0.1597 0.0
O270 O 0.32239 0.69942 0.14769 0.0
H271 H 0.42497 0.76073 0.19616 0.0
H272 H 0.36507 0.85025 0.0755 0.0
O273 O 0.45924 0.75808 0.05422 0.0
H274 H 0.32561 0.70173 0.90414 0.0
H275 H 0.40393 0.91281 0.15227 0.0
Cu276 Cu 0.88609 0.57215 0.88326 0.0
N277 N 0.92204 0.51401 0.89275 0.0
N278 N 0.95288 0.44179 0.86983 0.0
C279 C 0.92845 0.48291 0.85345 0.0
C280 C 0.96206 0.44617 0.92158 0.0
C281 C 0.94231 0.4911 0.93584 0.0
O282 O 0.89447 0.5983 0.81273 0.0
C283 C 0.81431 0.54086 0.95192 0.0
O284 O 0.85474 0.55449 0.98462 0.0
H285 H 0.9159 0.49061 0.81344 0.0
H286 H 0.94276 0.50583 0.97471 0.0
N287 N 0.91391 0.62667 0.92582 0.0
N288 N 0.9098 0.70137 0.966 0.0
C289 C 0.89179 0.67126 0.92514 0.0
C290 C 0.9486 0.62892 0.96782 0.0
C291 C 0.94532 0.67487 0.99338 0.0
C292 C 0.94088 0.60365 0.80082 0.0
O293 O 0.97752 0.58767 0.83381 0.0
H294 H 0.85783 0.67809 0.89953 0.0
H295 H 0.97056 0.59747 0.98179 0.0
O296 O 0.81712 0.54926 0.90359 0.0
H297 H 0.98282 0.42005 0.94668 0.0
H298 H 0.96298 0.68517 1.03184 0.0
Cu299 Cu 0.56285 0.84533 0.89082 0.0
N300 N 0.5426 0.85152 0.95739 0.0
N301 N 0.51373 0.82621 1.03213 0.0
C302 C 0.51294 0.81592 0.98122 0.0
C303 C 0.54303 0.87123 0.04017 0.0
C304 C 0.56114 0.8865 0.99416 0.0
O305 O 0.61003 0.78821 0.89469 0.0
C306 C 0.47067 0.88477 0.84139 0.0
O307 O 0.47076 0.90845 0.88591 0.0
H308 H 0.49261 0.78219 0.9619 0.0
H309 H 0.58701 0.92009 0.98838 0.0
N310 N 0.60693 0.90164 0.87301 0.0
N311 N 0.65148 0.95198 0.82055 0.0
C312 C 0.60945 0.91905 0.82423 0.0
C313 C 0.649 0.92423 0.90082 0.0
C314 C 0.67641 0.95566 0.86863 0.0
C315 C 0.61661 0.75457 0.93072 0.0
O316 O 0.57957 0.74185 0.95957 0.0
H317 H 0.58295 0.90511 0.79164 0.0
H318 H 0.66089 0.91572 0.94077 0.0
O319 O 0.50302 0.85067 0.83733 0.0
H320 H 0.55068 0.89176 0.07659 0.0
H321 H 0.71302 0.97725 0.87935 0.0
Cu322 Cu 0.20281 0.56486 0.88006 0.0
N323 N 0.1514 0.60995 0.8796 0.0
N324 N 0.10899 0.67661 0.85 0.0
C325 C 0.14751 0.64696 0.8437 0.0
C326 C 0.08833 0.65832 0.89257 0.0
C327 C 0.11501 0.61714 0.9111 0.0
O328 O 0.19613 0.52884 0.81232 0.0
C329 C 0.26979 0.62181 0.95268 0.0
O330 O 0.24069 0.59587 0.98363 0.0
H331 H 0.17139 0.65053 0.81212 0.0
H332 H 0.10797 0.59396 0.94459 0.0
N333 N 0.19894 0.51022 0.92616 0.0
N334 N 0.22437 0.44076 0.96881 0.0
C335 C 0.23847 0.48138 0.93973 0.0
C336 C 0.15821 0.48677 0.94672 0.0
C337 C 0.17395 0.44399 0.97354 0.0
C338 C 0.15102 0.51722 0.78913 0.0
O339 O 0.11171 0.53777 0.80565 0.0
H340 H 0.27665 0.48987 0.92797 0.0
H341 H 0.11968 0.49903 0.94146 0.0
O342 O 0.26375 0.61093 0.90421 0.0
H343 H 0.05514 0.67216 0.90787 0.0
H344 H 0.15005 0.41713 0.99447 0.0
Cu345 Cu 0.61681 0.21709 0.89943 0.0
N346 N 0.5663 0.26773 0.899 0.0
N347 N 0.50606 0.31232 0.93189 0.0
C348 C 0.54876 0.28637 0.94239 0.0
C349 C 0.4962 0.31072 0.88003 0.0
C350 C 0.53343 0.28375 0.85992 0.0
O351 O 0.65573 0.23 0.96912 0.0
C352 C 0.53332 0.14038 0.85854 0.0
O353 O 0.50099 0.17521 0.86438 0.0
H354 H 0.5653 0.27863 0.98119 0.0
H355 H 0.53445 0.27389 0.81969 0.0
N356 N 0.66897 0.21763 0.85168 0.0
N357 N 0.71339 0.17309 0.79818 0.0
C358 C 0.66634 0.18505 0.8103 0.0
C359 C 0.72026 0.2267 0.86503 0.0
C360 C 0.74732 0.19995 0.83238 0.0
C361 C 0.68055 0.27482 0.97527 0.0
O362 O 0.67955 0.30636 0.93571 0.0
H363 H 0.63045 0.1657 0.79316 0.0
H364 H 0.73759 0.24625 0.89983 0.0
O365 O 0.57988 0.14808 0.87968 0.0
H366 H 0.4642 0.32725 0.85829 0.0
H367 H 0.78855 0.19771 0.83592 0.0
Cu368 Cu 0.90114 0.55268 0.24135 0.0
N369 N 0.84184 0.58847 0.21933 0.0
N370 N 0.79093 0.62817 0.15855 0.0
C371 C 0.82434 0.59151 0.16847 0.0
C372 C 0.78637 0.64875 0.20531 0.0
C373 C 0.81741 0.62411 0.24259 0.0
O374 O 0.893 0.49716 0.18716 0.0
C375 C 0.96006 0.6426 0.28028 0.0
O376 O 0.92168 0.64151 0.30886 0.0
H377 H 0.83953 0.57033 0.13854 0.0
H378 H 0.82384 0.63393 0.28322 0.0
N379 N 0.91048 0.52203 0.30874 0.0
N380 N 0.95375 0.49231 0.38133 0.0
C381 C 0.95406 0.5014 0.32986 0.0
C382 C 0.8821 0.52588 0.34862 0.0
C383 C 0.90851 0.50779 0.39312 0.0
C384 C 0.85105 0.46719 0.18419 0.0
O385 O 0.82114 0.46953 0.22141 0.0
H386 H 0.98662 0.49631 0.30864 0.0
H387 H 0.84597 0.54336 0.3462 0.0
O388 O 0.95967 0.60726 0.24554 0.0
H389 H 0.76399 0.68078 0.21194 0.0
H390 H 0.89599 0.50759 0.43145 0.0
Cu391 Cu 0.55398 0.92245 0.23686 0.0
N392 N 0.58671 0.8755 0.20206 0.0
N393 N 0.64207 0.842 0.15601 0.0
C394 C 0.61763 0.88414 0.16435 0.0
C395 C 0.62621 0.80576 0.18929 0.0
C396 C 0.59228 0.82682 0.21796 0.0
O397 O 0.47979 0.90369 0.22731 0.0
C398 C 0.6392 0.94108 0.30708 0.0
O399 O 0.66175 0.93117 0.26597 0.0
H400 H 0.62414 0.92102 0.14571 0.0
H401 H 0.57555 0.80897 0.25048 0.0
N402 N 0.55933 0.98819 0.20911 0.0
N403 N 0.5272 0.05835 0.23737 0.0
C404 C 0.56398 1.02554 0.24526 0.0
C405 C 0.52307 1.00253 0.17274 0.0
C406 C 0.50297 1.04578 0.19016 0.0
C407 C 0.45866 0.85802 0.22938 0.0
O408 O 0.48326 0.82351 0.25666 0.0
H409 H 0.58488 1.02134 0.28244 0.0
H410 H 0.50445 0.9773 0.14213 0.0
O411 O 0.5905 0.93096 0.30598 0.0
H412 H 0.63925 0.76751 0.19387 0.0
H413 H 0.4678 0.06074 0.1734 0.0
Cu414 Cu 0.25497 0.54024 0.26428 0.0
N415 N 0.26152 0.5047 0.32674 0.0
N416 N 0.23566 0.45939 0.3939 0.0
C417 C 0.22561 0.46985 0.34319 0.0
C418 C 0.28043 0.48739 0.40928 0.0
C419 C 0.29618 0.51536 0.36784 0.0
O420 O 0.20574 0.59489 0.27635 0.0
C421 C 0.27645 0.48565 0.16966 0.0
O422 O 0.29031 0.5309 0.15065 0.0
H423 H 0.1906 0.45624 0.31967 0.0
H424 H 0.32866 0.54397 0.36845 0.0
N425 N 0.31505 0.58025 0.25093 0.0
N426 N 0.35503 0.6337 0.19736 0.0
C427 C 0.31209 0.62243 0.22105 0.0
C428 C 0.36255 0.56519 0.24747 0.0
C429 C 0.38757 0.59849 0.2146 0.0
C430 C 0.17443 0.59818 0.31146 0.0
O431 O 0.1592 0.55634 0.33586 0.0
H432 H 0.27663 0.64059 0.21188 0.0
H433 H 0.37583 0.52938 0.26273 0.0
O434 O 0.25163 0.48369 0.21016 0.0
H435 H 0.29896 0.4899 0.4485 0.0
H436 H 0.42483 0.59461 0.20138 0.0
Cu437 Cu 0.47787 0.25872 0.17271 0.0
N438 N 0.43952 0.24208 0.10918 0.0
N439 N 0.37249 0.2399 0.04835 0.0
C440 C 0.40085 0.26807 0.08636 0.0
C441 C 0.39492 0.19512 0.04667 0.0
C442 C 0.43633 0.19671 0.08387 0.0
O443 O 0.52161 0.32364 0.16574 0.0
C444 C 0.39517 0.21415 0.22529 0.0
O445 O 0.38416 0.18678 0.1827 0.0
H446 H 0.39085 0.30433 0.10093 0.0
H447 H 0.45957 0.16523 0.09464 0.0
N448 N 0.52524 0.21106 0.19363 0.0
N449 N 0.58111 0.1718 0.24762 0.0
C450 C 0.54208 0.20254 0.24349 0.0
C451 C 0.55482 0.18492 0.16543 0.0
C452 C 0.5893 0.16038 0.19873 0.0
C453 C 0.54901 0.32552 0.12762 0.0
O454 O 0.54153 0.28773 0.0935 0.0
H455 H 0.52688 0.21969 0.27587 0.0
H456 H 0.55277 0.18515 0.12372 0.0
O457 O 0.43053 0.25166 0.22698 0.0
H458 H 0.38064 0.16226 1.02223 0.0
H459 H 0.61852 0.13689 0.18771 0.0
Cu460 Cu 0.92887 0.91161 0.58767 0.0
N461 N 0.99021 0.91937 0.63033 0.0
N462 N 0.05056 0.87923 0.6775 0.0
C463 C 1.00029 0.87939 0.66121 0.0
C464 C 0.07318 0.92264 0.65808 0.0
C465 C 1.0356 0.9472 0.62811 0.0
O466 O 0.93876 0.8467 0.54692 0.0
C467 C 0.87849 0.95846 0.66484 0.0
O468 O 0.92147 0.9886 0.66868 0.0
H469 H 0.97189 0.84746 0.66604 0.0
H470 H 1.04191 0.97933 0.6024 0.0
N471 N 0.91222 0.9658 0.54299 0.0
N472 N 0.85833 1.01876 0.50287 0.0
C473 C 0.86346 0.97939 0.53599 0.0
C474 C 0.93898 0.9979 0.51285 0.0
C475 C 0.90546 1.03059 0.48753 0.0
C476 C 0.97881 0.84714 0.52164 0.0
O477 O 1.00748 0.89093 0.51975 0.0
H478 H 0.8319 0.95969 0.55375 0.0
H479 H 0.97958 0.99731 0.50913 0.0
O480 O 0.87489 0.91773 0.63576 0.0
H481 H 0.11423 0.93276 0.66042 0.0
H482 H 0.91486 0.06021 0.45997 0.0
Cu483 Cu 0.24617 0.87877 0.49125 0.0
N484 N 0.28668 0.89498 0.43573 0.0
N485 N 0.32196 0.95865 0.38785 0.0
C486 C 0.31892 0.93858 0.43569 0.0
C487 C 0.29126 0.92606 0.35579 0.0
C488 C 0.26993 0.88687 0.38524 0.0
O489 O 0.28202 0.92042 0.55301 0.0
C490 C 0.15112 0.84811 0.42761 0.0
O491 O 0.16592 0.80145 0.43401 0.0
H492 H 0.33405 0.9595 0.47061 0.0
H493 H 0.23948 0.85816 0.37118 0.0
N494 N 0.23776 0.81147 0.51788 0.0
N495 N 0.19706 0.74884 0.56157 0.0
C496 C 0.20262 0.7998 0.55151 0.0
C497 C 0.25544 0.7661 0.50649 0.0
C498 C 0.23031 0.72722 0.53357 0.0
C499 C 0.3296 0.9114 0.56379 0.0
O500 O 0.34792 0.87814 0.53402 0.0
H501 H 0.18015 0.8282 0.56657 0.0
H502 H 0.28291 0.76132 0.47902 0.0
O503 O 0.17644 0.88629 0.45363 0.0
H504 H 0.28248 0.93167 0.31467 0.0
H505 H 0.23527 0.6864 0.53169 0.0
Cu506 Cu 0.25234 0.184 0.63845 0.0
N507 N 0.18957 0.16615 0.66223 0.0
N508 N 0.13415 0.21133 0.69832 0.0
C509 C 0.18113 0.19377 0.70356 0.0
C510 C 0.11052 0.19104 0.65356 0.0
C511 C 0.14488 0.16306 0.63133 0.0
O512 O 0.24526 0.2587 0.62225 0.0
C513 C 0.30461 0.11692 0.70908 0.0
O514 O 0.25985 0.08981 0.7052 0.0
H515 H 0.21254 0.21101 0.72991 0.0
H516 H 0.14084 0.15112 0.59125 0.0
N517 N 0.26157 0.15009 0.57803 0.0
N518 N 0.29731 0.1365 0.50633 0.0
C519 C 0.30062 0.16418 0.55013 0.0
C520 C 0.23325 0.11125 0.55157 0.0
C521 C 0.25525 0.1029 0.50666 0.0
C522 C 0.22388 0.26952 0.57725 0.0
O523 O 0.21704 0.23312 0.54175 0.0
H524 H 0.32954 0.19552 0.5609 0.0
H525 H 0.19882 0.09105 0.5636 0.0
O526 O 0.30835 0.16165 0.68799 0.0
H527 H 0.07442 0.20202 0.63456 0.0
H528 H 0.24137 0.07477 0.47678 0.0
Cu529 Cu 0.91639 0.22294 0.50617 0.0
N530 N 0.88975 0.20663 0.43781 0.0
N531 N 0.83363 0.18018 0.37077 0.0
C532 C 0.84381 0.21312 0.41156 0.0
C533 C 0.876 0.15465 0.36935 0.0
C534 C 0.91007 0.17057 0.41094 0.0
O535 O 0.88095 0.17306 0.55222 0.0
C536 C 1.00937 0.25335 0.46697 0.0
O537 O 0.97894 0.26243 0.42531 0.0
H538 H 0.8158 0.23619 0.42584 0.0
H539 H 0.94528 0.15337 0.42371 0.0
N540 N 0.91124 0.28855 0.53391 0.0
N541 N 0.95069 0.33791 0.59974 0.0
C542 C 0.92265 0.29319 0.58563 0.0
C543 C 0.93057 0.3336 0.51491 0.0
C544 C 0.95463 0.36418 0.55544 0.0
C545 C 0.83186 0.1741 0.54913 0.0
O546 O 0.81037 0.20656 0.51669 0.0
H547 H 0.9187 0.26053 0.61126 0.0
H548 H 0.93427 0.34057 0.47442 0.0
O549 O 0.99104 0.22793 0.50435 0.0
H550 H 0.87952 0.12239 0.34406 0.0
H551 H 0.97757 0.40031 0.55207 0.0
loop_
_geom_bond_atom_site_label_1
_geom_bond_atom_site_label_2
_geom_bond_distance
_geom_bond_site_symmetry_2
_ccdc_geom_bond_type
Cu0 N1 1.999 1_545 S
Cu0 O6 1.974 . S
Cu0 N11 1.985 . S
Cu0 O20 1.959 1_545 S
N1 Cu0 1.999 1_565 S
N1 C3 1.263 . S
N1 C5 1.389 . S
N2 C3 1.358 . S
N2 C4 1.400 . S
C3 N1 1.263 . S
C3 N2 1.358 . S
C3 H9 0.930 1_565 S
C4 N2 1.400 . S
C4 C5 1.351 . S
C4 H21 0.930 . S
C5 N1 1.389 . S
C5 C4 1.351 . S
C5 H10 0.930 . S
O6 Cu0 1.974 . S
O6 C16 1.282 . S
C7 O8 1.261 . S
C7 O20 1.251 . S
O8 C7 1.261 . S
H9 C3 0.930 1_545 S
H10 C5 0.930 . S
N11 Cu0 1.985 . S
N11 C13 1.335 . S
N11 C14 1.390 . S
N12 C13 1.345 . S
N12 C15 1.336 . S
C13 N11 1.335 . S
C13 N12 1.345 . S
C13 H18 0.930 . S
C14 N11 1.390 . S
C14 C15 1.346 . S
C14 H19 0.930 . S
C15 N12 1.336 . S
C15 C14 1.346 . S
C15 H22 0.929 . S
C16 O6 1.282 . S
C16 O17 1.216 . S
O17 C16 1.216 . S
H18 C13 0.930 . S
H19 C14 0.930 . S
O20 Cu0 1.959 1_565 S
O20 C7 1.251 . S
H21 C4 0.930 . S
H22 C15 0.929 . S
Cu23 N24 1.999 . S
Cu23 O29 1.974 1_455 S
Cu23 N34 1.985 1_455 S
Cu23 O43 1.959 . S
N24 Cu23 1.999 . S
N24 C26 1.263 . S
N24 C28 1.389 . S
N25 C26 1.358 . S
N25 C27 1.400 . S
C26 N24 1.263 . S
C26 N25 1.358 . S
C26 H32 0.930 . S
C27 N25 1.400 . S
C27 C28 1.351 . S
C27 H44 0.930 . S
C28 N24 1.389 . S
C28 C27 1.351 . S
C28 H33 0.930 . S
O29 Cu23 1.974 1_655 S
O29 C39 1.282 . S
C30 O31 1.261 . S
C30 O43 1.251 . S
O31 C30 1.261 . S
H32 C26 0.930 . S
H33 C28 0.930 . S
N34 Cu23 1.985 1_655 S
N34 C36 1.335 . S
N34 C37 1.390 . S
N35 C36 1.345 . S
N35 C38 1.336 . S
C36 N34 1.335 . S
C36 N35 1.345 . S
C36 H41 0.930 1_655 S
C37 N34 1.390 . S
C37 C38 1.346 . S
C37 H42 0.930 . S
C38 N35 1.336 . S
C38 C37 1.346 . S
C38 H45 0.929 . S
C39 O29 1.282 . S
C39 O40 1.216 . S
O40 C39 1.216 . S
H41 C36 0.930 1_455 S
H42 C37 0.930 . S
O43 Cu23 1.959 . S
O43 C30 1.251 . S
H44 C27 0.930 . S
H45 C38 0.929 . S
Cu46 N47 1.999 . S
Cu46 O52 1.974 1_545 S
Cu46 N57 1.985 1_545 S
Cu46 O66 1.959 . S
N47 Cu46 1.999 . S
N47 C49 1.263 . S
N47 C51 1.389 . S
N48 C49 1.358 . S
N48 C50 1.400 . S
C49 N47 1.263 . S
C49 N48 1.358 . S
C49 H55 0.930 . S
C50 N48 1.400 . S
C50 C51 1.351 . S
C50 H67 0.930 . S
C51 N47 1.389 . S
C51 C50 1.351 . S
C51 H56 0.930 . S
O52 Cu46 1.974 1_565 S
O52 C62 1.282 . S
C53 O54 1.261 . S
C53 O66 1.251 . S
O54 C53 1.261 . S
H55 C49 0.930 . S
H56 C51 0.930 . S
N57 Cu46 1.985 1_565 S
N57 C59 1.335 . S
N57 C60 1.390 . S
N58 C59 1.345 . S
N58 C61 1.336 . S
C59 N57 1.335 . S
C59 N58 1.345 . S
C59 H64 0.930 . S
C60 N57 1.390 . S
C60 C61 1.346 . S
C60 H65 0.930 . S
C61 N58 1.336 . S
C61 C60 1.346 . S
C61 H68 0.929 . S
C62 O52 1.282 . S
C62 O63 1.216 . S
O63 C62 1.216 . S
H64 C59 0.930 . S
H65 C60 0.930 . S
O66 Cu46 1.959 . S
O66 C53 1.251 . S
H67 C50 0.930 . S
H68 C61 0.929 . S
Cu69 N70 1.999 . S
Cu69 O75 1.974 1_455 S
Cu69 N80 1.985 1_455 S
Cu69 O89 1.959 . S
N70 Cu69 1.999 . S
N70 C72 1.263 . S
N70 C74 1.389 . S
N71 C72 1.358 . S
N71 C73 1.400 . S
C72 N70 1.263 . S
C72 N71 1.358 . S
C72 H78 0.930 . S
C73 N71 1.400 . S
C73 C74 1.351 . S
C73 H90 0.930 . S
C74 N70 1.389 . S
C74 C73 1.351 . S
C74 H79 0.930 . S
O75 Cu69 1.974 1_655 S
O75 C85 1.282 . S
C76 O77 1.261 . S
C76 O89 1.251 . S
O77 C76 1.261 . S
H78 C72 0.930 . S
H79 C74 0.930 . S
N80 Cu69 1.985 1_655 S
N80 C82 1.335 . S
N80 C83 1.390 . S
N81 C82 1.345 . S
N81 C84 1.336 . S
C82 N80 1.335 . S
C82 N81 1.345 . S
C82 H87 0.930 . S
C83 N80 1.390 . S
C83 C84 1.346 . S
C83 H88 0.930 . S
C84 N81 1.336 . S
C84 C83 1.346 . S
C84 H91 0.929 . S
C85 O75 1.282 . S
C85 O86 1.216 . S
O86 C85 1.216 . S
H87 C82 0.930 . S
H88 C83 0.930 . S
O89 Cu69 1.959 . S
O89 C76 1.251 . S
H90 C73 0.930 . S
H91 C84 0.929 . S
Cu92 N93 1.999 . S
Cu92 O98 1.974 1_545 S
Cu92 N103 1.985 1_545 S
Cu92 O112 1.959 . S
N93 Cu92 1.999 . S
N93 C95 1.263 . S
N93 C97 1.389 . S
N94 C95 1.358 . S
N94 C96 1.400 . S
C95 N93 1.263 . S
C95 N94 1.358 . S
C95 H101 0.930 . S
C96 N94 1.400 . S
C96 C97 1.351 . S
C96 H113 0.930 . S
C97 N93 1.389 . S
C97 C96 1.351 . S
C97 H102 0.930 . S
O98 Cu92 1.974 1_565 S
O98 C108 1.282 . S
C99 O100 1.261 . S
C99 O112 1.251 . S
O100 C99 1.261 . S
H101 C95 0.930 . S
H102 C97 0.930 . S
N103 Cu92 1.985 1_565 S
N103 C105 1.335 . S
N103 C106 1.390 . S
N104 C105 1.345 . S
N104 C107 1.336 . S
C105 N103 1.335 . S
C105 N104 1.345 . S
C105 H110 0.930 . S
C106 N103 1.390 . S
C106 C107 1.346 . S
C106 H111 0.930 . S
C107 N104 1.336 . S
C107 C106 1.346 . S
C107 H114 0.929 . S
C108 O98 1.282 . S
C108 O109 1.216 . S
O109 C108 1.216 . S
H110 C105 0.930 . S
H111 C106 0.930 . S
O112 Cu92 1.959 . S
O112 C99 1.251 . S
H113 C96 0.930 . S
H114 C107 0.929 . S
Cu115 N116 1.999 . S
Cu115 O121 1.974 1_455 S
Cu115 N126 1.985 1_455 S
Cu115 O135 1.959 . S
N116 Cu115 1.999 . S
N116 C118 1.263 . S
N116 C120 1.389 . S
N117 C118 1.358 . S
N117 C119 1.400 . S
C118 N116 1.263 . S
C118 N117 1.358 . S
C118 H124 0.930 . S
C119 N117 1.400 . S
C119 C120 1.351 . S
C119 H136 0.930 . S
C120 N116 1.389 . S
C120 C119 1.351 . S
C120 H125 0.930 . S
O121 Cu115 1.974 1_655 S
O121 C131 1.282 . S
C122 O123 1.261 . S
C122 O135 1.251 . S
O123 C122 1.261 . S
H124 C118 0.930 . S
H125 C120 0.930 . S
N126 Cu115 1.985 1_655 S
N126 C128 1.335 . S
N126 C129 1.390 . S
N127 C128 1.345 . S
N127 C130 1.336 . S
C128 N126 1.335 . S
C128 N127 1.345 . S
C128 H133 0.930 1_655 S
C129 N126 1.390 . S
C129 C130 1.346 . S
C129 H134 0.930 . S
C130 N127 1.336 . S
C130 C129 1.346 . S
C130 H137 0.929 . S
C131 O121 1.282 . S
C131 O132 1.216 . S
O132 C131 1.216 . S
H133 C128 0.930 1_455 S
H134 C129 0.930 . S
O135 Cu115 1.959 . S
O135 C122 1.251 . S
H136 C119 0.930 . S
H137 C130 0.929 . S
Cu138 N139 1.999 1_545 S
Cu138 O144 1.974 . S
Cu138 N149 1.985 . S
Cu138 O158 1.959 1_545 S
N139 Cu138 1.999 1_565 S
N139 C141 1.263 . S
N139 C143 1.389 . S
N140 C141 1.358 . S
N140 C142 1.400 . S
C141 N139 1.263 . S
C141 N140 1.358 . S
C141 H147 0.930 . S
C142 N140 1.400 . S
C142 C143 1.351 . S
C142 H159 0.930 . S
C143 N139 1.389 . S
C143 C142 1.351 . S
C143 H148 0.930 . S
O144 Cu138 1.974 . S
O144 C154 1.282 . S
C145 O146 1.261 . S
C145 O158 1.251 . S
O146 C145 1.261 . S
H147 C141 0.930 . S
H148 C143 0.930 . S
N149 Cu138 1.985 . S
N149 C151 1.335 . S
N149 C152 1.390 . S
N150 C151 1.345 . S
N150 C153 1.336 . S
C151 N149 1.335 . S
C151 N150 1.345 . S
C151 H156 0.930 . S
C152 N149 1.390 . S
C152 C153 1.346 . S
C152 H157 0.930 . S
C153 N150 1.336 . S
C153 C152 1.346 . S
C153 H160 0.929 . S
C154 O144 1.282 . S
C154 O155 1.216 . S
O155 C154 1.216 . S
H156 C151 0.930 . S
H157 C152 0.930 . S
O158 Cu138 1.959 1_565 S
O158 C145 1.251 . S
H159 C142 0.930 . S
H160 C153 0.929 . S
Cu161 N162 1.999 1_655 S
Cu161 O167 1.974 . S
Cu161 N172 1.985 . S
Cu161 O181 1.959 1_655 S
N162 Cu161 1.999 1_455 S
N162 C164 1.263 . S
N162 C166 1.389 . S
N163 C164 1.358 . S
N163 C165 1.400 . S
C164 N162 1.263 . S
C164 N163 1.358 . S
C164 H170 0.930 . S
C165 N163 1.400 . S
C165 C166 1.351 . S
C165 H182 0.930 . S
C166 N162 1.389 . S
C166 C165 1.351 . S
C166 H171 0.930 . S
O167 Cu161 1.974 . S
O167 C177 1.282 . S
C168 O169 1.261 . S
C168 O181 1.251 . S
O169 C168 1.261 . S
H170 C164 0.930 . S
H171 C166 0.930 . S
N172 Cu161 1.985 . S
N172 C174 1.335 . S
N172 C175 1.390 . S
N173 C174 1.345 . S
N173 C176 1.336 . S
C174 N172 1.335 . S
C174 N173 1.345 . S
C174 H179 0.930 . S
C175 N172 1.390 . S
C175 C176 1.346 . S
C175 H180 0.930 . S
C176 N173 1.336 . S
C176 C175 1.346 . S
C176 H183 0.929 . S
C177 O167 1.282 . S
C177 O178 1.216 . S
O178 C177 1.216 . S
H179 C174 0.930 . S
H180 C175 0.930 . S
O181 Cu161 1.959 1_455 S
O181 C168 1.251 . S
H182 C165 0.930 . S
H183 C176 0.929 . S
Cu184 N185 1.999 . S
Cu184 O190 1.974 1_554 S
Cu184 N195 1.985 1_554 S
Cu184 O204 1.959 . S
N185 Cu184 1.999 . S
N185 C187 1.263 . S
N185 C189 1.389 . S
N186 C187 1.358 . S
N186 C188 1.400 . S
C187 N185 1.263 . S
C187 N186 1.358 . S
C187 H193 0.930 . S
C188 N186 1.400 . S
C188 C189 1.351 . S
C188 H205 0.930 . S
C189 N185 1.389 . S
C189 C188 1.351 . S
C189 H194 0.930 . S
O190 Cu184 1.974 1_556 S
O190 C200 1.282 . S
C191 O192 1.261 . S
C191 O204 1.251 . S
O192 C191 1.261 . S
H193 C187 0.930 . S
H194 C189 0.930 . S
N195 Cu184 1.985 1_556 S
N195 C197 1.335 . S
N195 C198 1.390 . S
N196 C197 1.345 . S
N196 C199 1.336 . S
C197 N195 1.335 . S
C197 N196 1.345 . S
C197 H202 0.930 1_556 S
C198 N195 1.390 . S
C198 C199 1.346 . S
C198 H203 0.930 . S
C199 N196 1.336 . S
C199 C198 1.346 . S
C199 H206 0.929 . S
C200 O190 1.282 . S
C200 O201 1.216 . S
O201 C200 1.216 . S
H202 C197 0.930 1_554 S
H203 C198 0.930 . S
O204 Cu184 1.959 . S
O204 C191 1.251 . S
H205 C188 0.930 . S
H206 C199 0.929 . S
Cu207 N208 1.999 1_554 S
Cu207 O213 1.974 . S
Cu207 N218 1.985 . S
Cu207 O227 1.959 1_554 S
N208 Cu207 1.999 1_556 S
N208 C210 1.263 . S
N208 C212 1.389 . S
N209 C210 1.358 . S
N209 C211 1.400 . S
C210 N208 1.263 . S
C210 N209 1.358 . S
C210 H216 0.930 . S
C211 N209 1.400 . S
C211 C212 1.351 . S
C211 H228 0.930 . S
C212 N208 1.389 . S
C212 C211 1.351 . S
C212 H217 0.930 . S
O213 Cu207 1.974 . S
O213 C223 1.282 . S
C214 O215 1.261 . S
C214 O227 1.251 . S
O215 C214 1.261 . S
H216 C210 0.930 . S
H217 C212 0.930 . S
N218 Cu207 1.985 . S
N218 C220 1.335 . S
N218 C221 1.390 . S
N219 C220 1.345 . S
N219 C222 1.336 . S
C220 N218 1.335 . S
C220 N219 1.345 . S
C220 H225 0.930 . S
C221 N218 1.390 . S
C221 C222 1.346 . S
C221 H226 0.930 . S
C222 N219 1.336 . S
C222 C221 1.346 . S
C222 H229 0.929 . S
C223 O213 1.282 . S
C223 O224 1.216 . S
O224 C223 1.216 . S
H225 C220 0.930 . S
H226 C221 0.930 . S
O227 Cu207 1.959 1_556 S
O227 C214 1.251 . S
H228 C211 0.930 . S
H229 C222 0.929 . S
Cu230 N231 1.999 1_556 S
Cu230 O236 1.974 . S
Cu230 N241 1.985 . S
Cu230 O250 1.959 1_556 S
N231 Cu230 1.999 1_554 S
N231 C233 1.263 . S
N231 C235 1.389 . S
N232 C233 1.358 . S
N232 C234 1.400 . S
C233 N231 1.263 . S
C233 N232 1.358 . S
C233 H239 0.930 . S
C234 N232 1.400 . S
C234 C235 1.351 . S
C234 H251 0.930 . S
C235 N231 1.389 . S
C235 C234 1.351 . S
C235 H240 0.930 . S
O236 Cu230 1.974 . S
O236 C246 1.282 . S
C237 O238 1.261 . S
C237 O250 1.251 . S
O238 C237 1.261 . S
H239 C233 0.930 . S
H240 C235 0.930 . S
N241 Cu230 1.985 . S
N241 C243 1.335 . S
N241 C244 1.390 . S
N242 C243 1.345 . S
N242 C245 1.336 . S
C243 N241 1.335 . S
C243 N242 1.345 . S
C243 H248 0.930 . S
C244 N241 1.390 . S
C244 C245 1.346 . S
C244 H249 0.930 . S
C245 N242 1.336 . S
C245 C244 1.346 . S
C245 H252 0.929 . S
C246 O236 1.282 . S
C246 O247 1.216 . S
O247 C246 1.216 . S
H248 C243 0.930 . S
H249 C244 0.930 . S
O250 Cu230 1.959 1_554 S
O250 C237 1.251 . S
H251 C234 0.930 . S
H252 C245 0.929 . S
Cu253 N254 1.999 1_554 S
Cu253 O259 1.974 . S
Cu253 N264 1.985 . S
Cu253 O273 1.959 1_554 S
N254 Cu253 1.999 1_556 S
N254 C256 1.263 . S
N254 C258 1.389 . S
N255 C256 1.358 . S
N255 C257 1.400 . S
C256 N254 1.263 . S
C256 N255 1.358 . S
C256 H262 0.930 . S
C257 N255 1.400 . S
C257 C258 1.351 . S
C257 H274 0.930 . S
C258 N254 1.389 . S
C258 C257 1.351 . S
C258 H263 0.930 . S
O259 Cu253 1.974 . S
O259 C269 1.282 . S
C260 O261 1.261 . S
C260 O273 1.251 . S
O261 C260 1.261 . S
H262 C256 0.930 . S
H263 C258 0.930 . S
N264 Cu253 1.985 . S
N264 C266 1.335 . S
N264 C267 1.390 . S
N265 C266 1.345 . S
N265 C268 1.336 . S
C266 N264 1.335 . S
C266 N265 1.345 . S
C266 H271 0.930 . S
C267 N264 1.390 . S
C267 C268 1.346 . S
C267 H272 0.930 . S
C268 N265 1.336 . S
C268 C267 1.346 . S
C268 H275 0.929 . S
C269 O259 1.282 . S
C269 O270 1.216 . S
O270 C269 1.216 . S
H271 C266 0.930 . S
H272 C267 0.930 . S
O273 Cu253 1.959 1_556 S
O273 C260 1.251 . S
H274 C257 0.930 . S
H275 C268 0.929 . S
Cu276 N277 1.999 . S
Cu276 O282 1.974 . S
Cu276 N287 1.985 . S
Cu276 O296 1.959 . S
N277 Cu276 1.999 . S
N277 C279 1.263 . S
N277 C281 1.389 . S
N278 C279 1.358 . S
N278 C280 1.400 . S
C279 N277 1.263 . S
C279 N278 1.358 . S
C279 H285 0.930 . S
C280 N278 1.400 . S
C280 C281 1.351 . S
C280 H297 0.930 . S
C281 N277 1.389 . S
C281 C280 1.351 . S
C281 H286 0.930 . S
O282 Cu276 1.974 . S
O282 C292 1.282 . S
C283 O284 1.261 . S
C283 O296 1.251 . S
O284 C283 1.261 . S
H285 C279 0.930 . S
H286 C281 0.930 . S
N287 Cu276 1.985 . S
N287 C289 1.335 . S
N287 C290 1.390 . S
N288 C289 1.345 . S
N288 C291 1.336 . S
C289 N287 1.335 . S
C289 N288 1.345 . S
C289 H294 0.930 . S
C290 N287 1.390 . S
C290 C291 1.346 . S
C290 H295 0.930 . S
C291 N288 1.336 . S
C291 C290 1.346 . S
C291 H298 0.929 . S
C292 O282 1.282 . S
C292 O293 1.216 . S
O293 C292 1.216 . S
H294 C289 0.930 . S
H295 C290 0.930 . S
O296 Cu276 1.959 . S
O296 C283 1.251 . S
H297 C280 0.930 . S
H298 C291 0.929 . S
Cu299 N300 1.999 . S
Cu299 O305 1.974 . S
Cu299 N310 1.985 . S
Cu299 O319 1.959 . S
N300 Cu299 1.999 . S
N300 C302 1.263 . S
N300 C304 1.389 . S
N301 C302 1.358 . S
N301 C303 1.400 . S
C302 N300 1.263 . S
C302 N301 1.358 . S
C302 H308 0.930 . S
C303 N301 1.400 . S
C303 C304 1.351 . S
C303 H320 0.930 . S
C304 N300 1.389 . S
C304 C303 1.351 . S
C304 H309 0.930 . S
O305 Cu299 1.974 . S
O305 C315 1.282 . S
C306 O307 1.261 . S
C306 O319 1.251 . S
O307 C306 1.261 . S
H308 C302 0.930 . S
H309 C304 0.930 . S
N310 Cu299 1.985 . S
N310 C312 1.335 . S
N310 C313 1.390 . S
N311 C312 1.345 . S
N311 C314 1.336 . S
C312 N310 1.335 . S
C312 N311 1.345 . S
C312 H317 0.930 . S
C313 N310 1.390 . S
C313 C314 1.346 . S
C313 H318 0.930 . S
C314 N311 1.336 . S
C314 C313 1.346 . S
C314 H321 0.929 . S
C315 O305 1.282 . S
C315 O316 1.216 . S
O316 C315 1.216 . S
H317 C312 0.930 . S
H318 C313 0.930 . S
O319 Cu299 1.959 . S
O319 C306 1.251 . S
H320 C303 0.930 . S
H321 C314 0.929 . S
Cu322 N323 1.999 . S
Cu322 O328 1.974 . S
Cu322 N333 1.985 . S
Cu322 O342 1.959 . S
N323 Cu322 1.999 . S
N323 C325 1.263 . S
N323 C327 1.389 . S
N324 C325 1.358 . S
N324 C326 1.400 . S
C325 N323 1.263 . S
C325 N324 1.358 . S
C325 H331 0.930 . S
C326 N324 1.400 . S
C326 C327 1.351 . S
C326 H343 0.930 . S
C327 N323 1.389 . S
C327 C326 1.351 . S
C327 H332 0.930 . S
O328 Cu322 1.974 . S
O328 C338 1.282 . S
C329 O330 1.261 . S
C329 O342 1.251 . S
O330 C329 1.261 . S
H331 C325 0.930 . S
H332 C327 0.930 . S
N333 Cu322 1.985 . S
N333 C335 1.335 . S
N333 C336 1.390 . S
N334 C335 1.345 . S
N334 C337 1.336 . S
C335 N333 1.335 . S
C335 N334 1.345 . S
C335 H340 0.930 . S
C336 N333 1.390 . S
C336 C337 1.346 . S
C336 H341 0.930 . S
C337 N334 1.336 . S
C337 C336 1.346 . S
C337 H344 0.929 . S
C338 O328 1.282 . S
C338 O339 1.216 . S
O339 C338 1.216 . S
H340 C335 0.930 . S
H341 C336 0.930 . S
O342 Cu322 1.959 . S
O342 C329 1.251 . S
H343 C326 0.930 . S
H344 C337 0.929 . S
Cu345 N346 1.999 . S
Cu345 O351 1.974 . S
Cu345 N356 1.985 . S
Cu345 O365 1.959 . S
N346 Cu345 1.999 . S
N346 C348 1.263 . S
N346 C350 1.389 . S
N347 C348 1.358 . S
N347 C349 1.400 . S
C348 N346 1.263 . S
C348 N347 1.358 . S
C348 H354 0.930 . S
C349 N347 1.400 . S
C349 C350 1.351 . S
C349 H366 0.930 . S
C350 N346 1.389 . S
C350 C349 1.351 . S
C350 H355 0.930 . S
O351 Cu345 1.974 . S
O351 C361 1.282 . S
C352 O353 1.261 . S
C352 O365 1.251 . S
O353 C352 1.261 . S
H354 C348 0.930 . S
H355 C350 0.930 . S
N356 Cu345 1.985 . S
N356 C358 1.335 . S
N356 C359 1.390 . S
N357 C358 1.345 . S
N357 C360 1.336 . S
C358 N356 1.335 . S
C358 N357 1.345 . S
C358 H363 0.930 . S
C359 N356 1.390 . S
C359 C360 1.346 . S
C359 H364 0.930 . S
C360 N357 1.336 . S
C360 C359 1.346 . S
C360 H367 0.929 . S
C361 O351 1.282 . S
C361 O362 1.216 . S
O362 C361 1.216 . S
H363 C358 0.930 . S
H364 C359 0.930 . S
O365 Cu345 1.959 . S
O365 C352 1.251 . S
H366 C349 0.930 . S
H367 C360 0.929 . S
Cu368 N369 1.999 . S
Cu368 O374 1.974 . S
Cu368 N379 1.985 . S
Cu368 O388 1.959 . S
N369 Cu368 1.999 . S
N369 C371 1.263 . S
N369 C373 1.389 . S
N370 C371 1.358 . S
N370 C372 1.400 . S
C371 N369 1.263 . S
C371 N370 1.358 . S
C371 H377 0.930 . S
C372 N370 1.400 . S
C372 C373 1.351 . S
C372 H389 0.930 . S
C373 N369 1.389 . S
C373 C372 1.351 . S
C373 H378 0.930 . S
O374 Cu368 1.974 . S
O374 C384 1.282 . S
C375 O376 1.261 . S
C375 O388 1.251 . S
O376 C375 1.261 . S
H377 C371 0.930 . S
H378 C373 0.930 . S
N379 Cu368 1.985 . S
N379 C381 1.335 . S
N379 C382 1.390 . S
N380 C381 1.345 . S
N380 C383 1.336 . S
C381 N379 1.335 . S
C381 N380 1.345 . S
C381 H386 0.930 . S
C382 N379 1.390 . S
C382 C383 1.346 . S
C382 H387 0.930 . S
C383 N380 1.336 . S
C383 C382 1.346 . S
C383 H390 0.929 . S
C384 O374 1.282 . S
C384 O385 1.216 . S
O385 C384 1.216 . S
H386 C381 0.930 . S
H387 C382 0.930 . S
O388 Cu368 1.959 . S
O388 C375 1.251 . S
H389 C372 0.930 . S
H390 C383 0.929 . S
Cu391 N392 1.999 . S
Cu391 O397 1.974 . S
Cu391 N402 1.985 . S
Cu391 O411 1.959 . S
N392 Cu391 1.999 . S
N392 C394 1.263 . S
N392 C396 1.389 . S
N393 C394 1.358 . S
N393 C395 1.400 . S
C394 N392 1.263 . S
C394 N393 1.358 . S
C394 H400 0.930 . S
C395 N393 1.400 . S
C395 C396 1.351 . S
C395 H412 0.930 . S
C396 N392 1.389 . S
C396 C395 1.351 . S
C396 H401 0.930 . S
O397 Cu391 1.974 . S
O397 C407 1.282 . S
C398 O399 1.261 . S
C398 O411 1.251 . S
O399 C398 1.261 . S
H400 C394 0.930 . S
H401 C396 0.930 . S
N402 Cu391 1.985 . S
N402 C404 1.335 . S
N402 C405 1.390 . S
N403 C404 1.345 . S
N403 C406 1.336 . S
C404 N402 1.335 . S
C404 N403 1.345 . S
C404 H409 0.930 . S
C405 N402 1.390 . S
C405 C406 1.346 . S
C405 H410 0.930 . S
C406 N403 1.336 . S
C406 C405 1.346 . S
C406 H413 0.929 . S
C407 O397 1.282 . S
C407 O408 1.216 . S
O408 C407 1.216 . S
H409 C404 0.930 . S
H410 C405 0.930 . S
O411 Cu391 1.959 . S
O411 C398 1.251 . S
H412 C395 0.930 . S
H413 C406 0.929 . S
Cu414 N415 1.999 . S
Cu414 O420 1.974 . S
Cu414 N425 1.985 . S
Cu414 O434 1.959 . S
N415 Cu414 1.999 . S
N415 C417 1.263 . S
N415 C419 1.389 . S
N416 C417 1.358 . S
N416 C418 1.400 . S
C417 N415 1.263 . S
C417 N416 1.358 . S
C417 H423 0.930 . S
C418 N416 1.400 . S
C418 C419 1.351 . S
C418 H435 0.930 . S
C419 N415 1.389 . S
C419 C418 1.351 . S
C419 H424 0.930 . S
O420 Cu414 1.974 . S
O420 C430 1.282 . S
C421 O422 1.261 . S
C421 O434 1.251 . S
O422 C421 1.261 . S
H423 C417 0.930 . S
H424 C419 0.930 . S
N425 Cu414 1.985 . S
N425 C427 1.335 . S
N425 C428 1.390 . S
N426 C427 1.345 . S
N426 C429 1.336 . S
C427 N425 1.335 . S
C427 N426 1.345 . S
C427 H432 0.930 . S
C428 N425 1.390 . S
C428 C429 1.346 . S
C428 H433 0.930 . S
C429 N426 1.336 . S
C429 C428 1.346 . S
C429 H436 0.929 . S
C430 O420 1.282 . S
C430 O431 1.216 . S
O431 C430 1.216 . S
H432 C427 0.930 . S
H433 C428 0.930 . S
O434 Cu414 1.959 . S
O434 C421 1.251 . S
H435 C418 0.930 . S
H436 C429 0.929 . S
Cu437 N438 1.999 . S
Cu437 O443 1.974 . S
Cu437 N448 1.985 . S
Cu437 O457 1.959 . S
N438 Cu437 1.999 . S
N438 C440 1.263 . S
N438 C442 1.389 . S
N439 C440 1.358 . S
N439 C441 1.400 . S
C440 N438 1.263 . S
C440 N439 1.358 . S
C440 H446 0.930 . S
C441 N439 1.400 . S
C441 C442 1.351 . S
C441 H458 0.930 . S
C442 N438 1.389 . S
C442 C441 1.351 . S
C442 H447 0.930 . S
O443 Cu437 1.974 . S
O443 C453 1.282 . S
C444 O445 1.261 . S
C444 O457 1.251 . S
O445 C444 1.261 . S
H446 C440 0.930 . S
H447 C442 0.930 . S
N448 Cu437 1.985 . S
N448 C450 1.335 . S
N448 C451 1.390 . S
N449 C450 1.345 . S
N449 C452 1.336 . S
C450 N448 1.335 . S
C450 N449 1.345 . S
C450 H455 0.930 . S
C451 N448 1.390 . S
C451 C452 1.346 . S
C451 H456 0.930 . S
C452 N449 1.336 . S
C452 C451 1.346 . S
C452 H459 0.929 . S
C453 O443 1.282 . S
C453 O454 1.216 . S
O454 C453 1.216 . S
H455 C450 0.930 . S
H456 C451 0.930 . S
O457 Cu437 1.959 . S
O457 C444 1.251 . S
H458 C441 0.930 . S
H459 C452 0.929 . S
Cu460 N461 1.999 . S
Cu460 O466 1.974 . S
Cu460 N471 1.985 . S
Cu460 O480 1.959 . S
N461 Cu460 1.999 . S
N461 C463 1.263 . S
N461 C465 1.389 . S
N462 C463 1.358 . S
N462 C464 1.400 . S
C463 N461 1.263 . S
C463 N462 1.358 . S
C463 H469 0.930 . S
C464 N462 1.400 . S
C464 C465 1.351 . S
C464 H481 0.930 . S
C465 N461 1.389 . S
C465 C464 1.351 . S
C465 H470 0.930 . S
O466 Cu460 1.974 . S
O466 C476 1.282 . S
C467 O468 1.261 . S
C467 O480 1.251 . S
O468 C467 1.261 . S
H469 C463 0.930 . S
H470 C465 0.930 . S
N471 Cu460 1.985 . S
N471 C473 1.335 . S
N471 C474 1.390 . S
N472 C473 1.345 . S
N472 C475 1.336 . S
C473 N471 1.335 . S
C473 N472 1.345 . S
C473 H478 0.930 . S
C474 N471 1.390 . S
C474 C475 1.346 . S
C474 H479 0.930 . S
C475 N472 1.336 . S
C475 C474 1.346 . S
C475 H482 0.929 . S
C476 O466 1.282 . S
C476 O477 1.216 . S
O477 C476 1.216 . S
H478 C473 0.930 . S
H479 C474 0.930 . S
O480 Cu460 1.959 . S
O480 C467 1.251 . S
H481 C464 0.930 . S
H482 C475 0.929 . S
Cu483 N484 1.999 . S
Cu483 O489 1.974 . S
Cu483 N494 1.985 . S
Cu483 O503 1.959 . S
N484 Cu483 1.999 . S
N484 C486 1.263 . S
N484 C488 1.389 . S
N485 C486 1.358 . S
N485 C487 1.400 . S
C486 N484 1.263 . S
C486 N485 1.358 . S
C486 H492 0.930 . S
C487 N485 1.400 . S
C487 C488 1.351 . S
C487 H504 0.930 . S
C488 N484 1.389 . S
C488 C487 1.351 . S
C488 H493 0.930 . S
O489 Cu483 1.974 . S
O489 C499 1.282 . S
C490 O491 1.261 . S
C490 O503 1.251 . S
O491 C490 1.261 . S
H492 C486 0.930 . S
H493 C488 0.930 . S
N494 Cu483 1.985 . S
N494 C496 1.335 . S
N494 C497 1.390 . S
N495 C496 1.345 . S
N495 C498 1.336 . S
C496 N494 1.335 . S
C496 N495 1.345 . S
C496 H501 0.930 . S
C497 N494 1.390 . S
C497 C498 1.346 . S
C497 H502 0.930 . S
C498 N495 1.336 . S
C498 C497 1.346 . S
C498 H505 0.929 . S
C499 O489 1.282 . S
C499 O500 1.216 . S
O500 C499 1.216 . S
H501 C496 0.930 . S
H502 C497 0.930 . S
O503 Cu483 1.959 . S
O503 C490 1.251 . S
H504 C487 0.930 . S
H505 C498 0.929 . S
Cu506 N507 1.999 . S
Cu506 O512 1.974 . S
Cu506 N517 1.985 . S
Cu506 O526 1.959 . S
N507 Cu506 1.999 . S
N507 C509 1.263 . S
N507 C511 1.389 . S
N508 C509 1.358 . S
N508 C510 1.400 . S
C509 N507 1.263 . S
C509 N508 1.358 . S
C509 H515 0.930 . S
C510 N508 1.400 . S
C510 C511 1.351 . S
C510 H527 0.930 . S
C511 N507 1.389 . S
C511 C510 1.351 . S
C511 H516 0.930 . S
O512 Cu506 1.974 . S
O512 C522 1.282 . S
C513 O514 1.261 . S
C513 O526 1.251 . S
O514 C513 1.261 . S
H515 C509 0.930 . S
H516 C511 0.930 . S
N517 Cu506 1.985 . S
N517 C519 1.335 . S
N517 C520 1.390 . S
N518 C519 1.345 . S
N518 C521 1.336 . S
C519 N517 1.335 . S
C519 N518 1.345 . S
C519 H524 0.930 . S
C520 N517 1.390 . S
C520 C521 1.346 . S
C520 H525 0.930 . S
C521 N518 1.336 . S
C521 C520 1.346 . S
C521 H528 0.929 . S
C522 O512 1.282 . S
C522 O523 1.216 . S
O523 C522 1.216 . S
H524 C519 0.930 . S
H525 C520 0.930 . S
O526 Cu506 1.959 . S
O526 C513 1.251 . S
H527 C510 0.930 . S
H528 C521 0.929 . S
Cu529 N530 1.999 . S
Cu529 O535 1.974 . S
Cu529 N540 1.985 . S
Cu529 O549 1.959 . S
N530 Cu529 1.999 . S
N530 C532 1.263 . S
N530 C534 1.389 . S
N531 C532 1.358 . S
N531 C533 1.400 . S
C532 N530 1.263 . S
C532 N531 1.358 . S
C532 H538 0.930 . S
C533 N531 1.400 . S
C533 C534 1.351 . S
C533 H550 0.930 . S
C534 N530 1.389 . S
C534 C533 1.351 . S
C534 H539 0.930 . S
O535 Cu529 1.974 . S
O535 C545 1.282 . S
C536 O537 1.261 . S
C536 O549 1.251 . S
O537 C536 1.261 . S
H538 C532 0.930 . S
H539 C534 0.930 . S
N540 Cu529 1.985 . S
N540 C542 1.335 . S
N540 C543 1.390 . S
N541 C542 1.345 . S
N541 C544 1.336 . S
C542 N540 1.335 . S
C542 N541 1.345 . S
C542 H547 0.930 . S
C543 N540 1.390 . S
C543 C544 1.346 . S
C543 H548 0.930 . S
C544 N541 1.336 . S
C544 C543 1.346 . S
C544 H551 0.929 . S
C545 O535 1.282 . S
C545 O546 1.216 . S
O546 C545 1.216 . S
H547 C542 0.930 . S
H548 C543 0.930 . S
O549 Cu529 1.959 . S
O549 C536 1.251 . S
H550 C533 0.930 . S
H551 C544 0.929 . S
N518 N12 1.798 . S
C39 C536 1.959 . S
N472 N58 1.236 . S
C490 C76 2.078 . S
C499 N104 1.916 . S
N117 N508 1.674 . S
C545 N150 1.902 . S
C177 N462 1.287 . S
C191 N439 1.565 . S
C384 C223 2.403 . S
N232 N393 1.155 . S
N426 C269 1.843 . S
C260 N301 2.157 . S
C200 N334 1.398 . S
C361 C214 2.038 . S
N242 N288 1.024 . S
C30 N416 1.804 . S
N324 C168 1.644 . S
N94 C352 2.004 . S
N278 N127 1.765 . S
N140 N311 1.886 . S
C85 C375 2.370 . S
N2 N403 1.832 . S
N48 N449 1.794 . S
C145 C467 2.690 . S
N495 N163 1.397 . S
C513 C99 2.396 . S
N541 C131 1.316 . S
C53 N531 2.045 . S
N81 C476 2.168 . S
C7 N485 1.859 . S
C522 N25 1.743 . S
C246 C315 2.052 . S
N255 C329 1.317 . S
N196 N347 2.050 . S
N209 C283 1.254 . S
N219 C453 1.683 . S
N370 C237 1.813 . S
N265 C407 1.623 . S
N186 C421 1.915 . S
C292 N173 1.144 . S
N380 N35 1.521 . S
C62 C398 1.886 . S
C430 N71 1.922 . S
C444 C16 1.928 . S
C122 C338 1.339 . S
N357 C154 2.483 . S
C306 C108 2.585 . S
