# Generated by pormake.
# Topology sml, (6)-cn, num edge types: 1
# Building blocks:
#     Node 0, Type 0, BuildingBlock: HISSIN_clean_sbu_0, # of connection points: 6
#     Node 1, Type 0, BuildingBlock: HISSIN_clean_sbu_0, # of connection points: 6
#     Node 2, Type 0, BuildingBlock: HISSIN_clean_sbu_0, # of connection points: 6
#     Node 3, Type 0, BuildingBlock: HISSIN_clean_sbu_0, # of connection points: 6
#     Node 4, Type 0, BuildingBlock: HISSIN_clean_sbu_0, # of connection points: 6
#     Node 5, Type 0, BuildingBlock: HISSIN_clean_sbu_0, # of connection points: 6
#     Edge 6, Type (0, 0), BuildingBlock: TEMPAE_clean_linker_10, # of connection points: 2
#     Edge 7, Type (0, 0), BuildingBlock: TEMPAE_clean_linker_10, # of connection points: 2
#     Edge 8, Type (0, 0), BuildingBlock: TEMPAE_clean_linker_10, # of connection points: 2
#     Edge 9, Type (0, 0), BuildingBlock: TEMPAE_clean_linker_10, # of connection points: 2
#     Edge 10, Type (0, 0), BuildingBlock: TEMPAE_clean_linker_10, # of connection points: 2
#     Edge 11, Type (0, 0), BuildingBlock: TEMPAE_clean_linker_10, # of connection points: 2
#     Edge 12, Type (0, 0), BuildingBlock: TEMPAE_clean_linker_10, # of connection points: 2
#     Edge 13, Type (0, 0), BuildingBlock: TEMPAE_clean_linker_10, # of connection points: 2
#     Edge 14, Type (0, 0), BuildingBlock: TEMPAE_clean_linker_10, # of connection points: 2
#     Edge 15, Type (0, 0), BuildingBlock: TEMPAE_clean_linker_10, # of connection points: 2
#     Edge 16, Type (0, 0), BuildingBlock: TEMPAE_clean_linker_10, # of connection points: 2
#     Edge 17, Type (0, 0), BuildingBlock: TEMPAE_clean_linker_10, # of connection points: 2
#     Edge 18, Type (0, 0), BuildingBlock: TEMPAE_clean_linker_10, # of connection points: 2
#     Edge 19, Type (0, 0), BuildingBlock: TEMPAE_clean_linker_10, # of connection points: 2
#     Edge 20, Type (0, 0), BuildingBlock: TEMPAE_clean_linker_10, # of connection points: 2
#     Edge 21, Type (0, 0), BuildingBlock: TEMPAE_clean_linker_10, # of connection points: 2
#     Edge 22, Type (0, 0), BuildingBlock: TEMPAE_clean_linker_10, # of connection points: 2
#     Edge 23, Type (0, 0), BuildingBlock: TEMPAE_clean_linker_10, # of connection points: 2
# Relax obj value: 0.174
# Max RMSD: 0.220
# Mean RMSD: 0.220
data_MOF--net-sml--node1-HISSIN_clean_sbu_0--edge1-TEMPAE_clean_linker_10
_symmetry_space_group_name_H-M    P1
_symmetry_Int_Tables_number       1
_symmetry_cell_setting            triclinic
loop_
_symmetry_equiv_pos_as_xyz
'x, y, z'
_cell_length_a     32.952205
_cell_length_b     32.940387
_cell_length_c     25.215631
_cell_angle_alpha  89.972885
_cell_angle_beta   89.966717
_cell_angle_gamma 120.019
loop_
_atom_site_label
_atom_site_type_symbol
_atom_site_fract_x
_atom_site_fract_y
_atom_site_fract_z
_atom_type_partial_charge
Eu0 Eu 0.20695 0.42505 0.14692 0.0
Eu1 Eu 0.14086 0.41122 0.04071 0.0
C2 C 0.15269 0.48006 0.13512 0.0
C3 C 0.23246 0.42914 0.29326 0.0
C4 C 0.1879 0.42262 0.30491 0.0
C5 C 0.24586 0.42552 0.3875 0.0
C6 C 0.17259 0.41793 0.35753 0.0
C7 C 0.26125 0.43044 0.33484 0.0
C8 C 0.20133 0.41931 0.39958 0.0
C9 C 0.24863 0.43401 0.23787 0.0
O10 O 0.21472 0.44347 1.01142 0.0
O11 O 0.25478 0.48021 0.08769 0.0
C12 C 0.25304 0.47402 0.03593 0.0
O13 O 0.22603 0.3857 0.09001 0.0
O14 O 0.12303 0.44291 0.97549 0.0
O15 O 0.08436 0.36753 0.98564 0.0
O16 O 0.1589 0.35312 0.03895 0.0
C17 C 0.19753 0.35446 0.0557 0.0
O18 O 0.1399 0.35632 0.15005 0.0
O19 O 0.0918 0.37767 0.10989 0.0
O20 O 0.15646 0.47826 0.08344 0.0
O21 O 0.22963 0.39548 0.21002 0.0
O22 O 0.25107 0.46927 0.21141 0.0
O23 O 0.15823 0.45153 0.16608 0.0
C24 C 0.0973 0.39728 0.89791 0.0
C25 C 0.13627 0.39542 0.87855 0.0
C26 C 0.07071 0.39437 0.80725 0.0
C27 C 0.14261 0.39338 0.82389 0.0
C28 C 0.06436 0.3963 0.86196 0.0
C29 C 0.11017 0.39334 0.78747 0.0
C30 C 0.09214 0.40277 0.95513 0.0
C31 C 0.09892 0.35326 0.14609 0.0
H32 H 0.16503 0.42135 0.2733 0.0
H33 H 0.26868 0.42607 0.41872 0.0
H34 H 0.13857 0.41401 0.36538 0.0
H35 H 0.2956 0.43509 0.3266 0.0
H36 H 0.16224 0.39643 0.9057 0.0
H37 H 0.04477 0.3938 0.78041 0.0
H38 H 0.17365 0.3932 0.8101 0.0
H39 H 0.03405 0.39771 0.87618 0.0
Eu40 Eu 0.78539 0.22046 0.46701 0.0
Eu41 Eu 0.85164 0.26981 0.57348 0.0
C42 C 0.83987 0.32878 0.48151 0.0
C43 C 0.75724 0.20047 0.32069 0.0
C44 C 0.79877 0.24167 0.30704 0.0
C45 C 0.746 0.17727 0.22795 0.0
C46 C 0.81365 0.2507 0.25415 0.0
C47 C 0.73104 0.16836 0.28083 0.0
C48 C 0.78754 0.21854 0.2139 0.0
C49 C 0.74202 0.19003 0.37649 0.0
O50 O 0.77822 0.22673 0.6032 0.0
O51 O 0.73829 0.22671 0.52833 0.0
C52 C 0.73995 0.22017 0.57969 0.0
O53 O 0.76753 0.16032 0.52073 0.0
O54 O 0.86973 0.31883 0.63925 0.0
O55 O 0.90798 0.28183 0.62835 0.0
O56 O 0.83366 0.19363 0.57351 0.0
C57 C 0.79597 0.15672 0.55435 0.0
O58 O 0.85219 0.21862 0.45966 0.0
O59 O 0.90089 0.28572 0.50454 0.0
O60 O 0.83504 0.32151 0.5329 0.0
O61 O 0.75946 0.16852 0.40342 0.0
O62 O 0.74216 0.22392 0.40358 0.0
O63 O 0.83553 0.29574 0.44972 0.0
C64 C 0.89529 0.29821 0.71636 0.0
C65 C 0.85891 0.25515 0.73511 0.0
C66 C 0.91829 0.32357 0.80743 0.0
C67 C 0.85206 0.24648 0.78969 0.0
C68 C 0.92522 0.33212 0.75283 0.0
C69 C 0.88127 0.28084 0.82656 0.0
C70 C 0.90044 0.30919 0.65924 0.0
C71 C 0.89382 0.25513 0.46715 0.0
H72 H 0.81971 0.26684 0.33729 0.0
H73 H 0.72537 0.15146 0.19813 0.0
H74 H 0.84529 0.28317 0.24466 0.0
H75 H 0.69917 0.13617 0.29066 0.0
H76 H 0.83522 0.22864 0.70752 0.0
H77 H 0.94175 0.35053 0.8347 0.0
H78 H 0.82295 0.21343 0.80304 0.0
H79 H 0.95347 0.36559 0.73909 0.0
Eu80 Eu 0.57218 0.77533 0.8034 0.0
Eu81 Eu 0.58572 0.72148 0.69759 0.0
C82 C 0.5192 0.66547 0.79451 0.0
C83 C 0.56897 0.79388 0.95063 0.0
C84 C 0.54956 0.74649 0.96503 0.0
C85 C 0.59776 0.81624 0.04081 0.0
C86 C 0.55378 0.73411 0.01703 0.0
C87 C 0.59312 0.82857 0.98894 0.0
C88 C 0.57823 0.76883 0.0556 0.0
C89 C 0.5657 0.80756 0.89557 0.0
O90 O 0.54272 0.752 0.66803 0.0
O91 O 0.51569 0.76731 0.7462 0.0
C92 C 0.51509 0.76311 0.69407 0.0
O93 O 0.60439 0.83232 0.74363 0.0
O94 O 0.5563 0.66866 0.63505 0.0
O95 O 0.6316 0.71192 0.64265 0.0
O96 O 0.63727 0.7997 0.68954 0.0
C97 C 0.63376 0.83587 0.70626 0.0
O98 O 0.64314 0.78261 0.79788 0.0
O99 O 0.62193 0.71063 0.76762 0.0
O100 O 0.52054 0.66905 0.74258 0.0
O101 O 0.60441 0.82587 0.86795 0.0
O102 O 0.52936 0.77762 0.86801 0.0
O103 O 0.54786 0.70072 0.82399 0.0
C104 C 0.60016 0.69029 0.55587 0.0
C105 C 0.61353 0.73507 0.53599 0.0
C106 C 0.58726 0.66048 0.46547 0.0
C107 C 0.6137 0.74248 0.48127 0.0
C108 C 0.58731 0.65316 0.52022 0.0
C109 C 0.60008 0.70518 0.4452 0.0
C110 C 0.59694 0.68137 0.61355 0.0
C111 C 0.64662 0.745 0.80068 0.0
H112 H 0.53126 0.71892 0.93609 0.0
H113 H 0.61614 0.84394 0.06954 0.0
H114 H 0.53847 0.6973 0.02673 0.0
H115 H 0.60855 0.86531 0.97868 0.0
H116 H 0.62331 0.76421 0.56282 0.0
H117 H 0.57584 0.63078 0.43915 0.0
H118 H 0.62443 0.77751 0.46724 0.0
H119 H 0.57642 0.61824 0.53481 0.0
Eu120 Eu 0.76489 0.56855 0.1325 0.0
Eu121 Eu 0.71491 0.58409 0.23885 0.0
C122 C 0.65705 0.5131 0.147 0.0
C123 C 0.78457 0.55747 0.98665 0.0
C124 C 0.74484 0.56046 0.97296 0.0
C125 C 0.8054 0.56342 0.89335 0.0
C126 C 0.73545 0.56483 0.9198 0.0
C127 C 0.8147 0.55888 0.94654 0.0
C128 C 0.76579 0.56672 0.87936 0.0
C129 C 0.79538 0.55427 0.04266 0.0
O130 O 0.76043 0.55668 0.26863 0.0
O131 O 0.75971 0.516 0.19436 0.0
C132 C 0.76719 0.52501 0.24545 0.0
O133 O 0.82515 0.61347 0.18484 0.0
O134 O 0.6654 0.55153 0.30393 0.0
O135 O 0.70208 0.627 0.29502 0.0
O136 O 0.79007 0.64413 0.23824 0.0
C137 C 0.82762 0.64507 0.21843 0.0
O138 O 0.76451 0.63607 0.12325 0.0
O139 O 0.69851 0.61799 0.17102 0.0
O140 O 0.66473 0.5153 0.19824 0.0
O141 O 0.81642 0.59389 0.06842 0.0
O142 O 0.76179 0.5209 0.07047 0.0
O143 O 0.68954 0.54282 0.11535 0.0
C144 C 0.68616 0.59612 0.38211 0.0
C145 C 0.72799 0.5993 0.39995 0.0
C146 C 0.66271 0.59559 0.47362 0.0
C147 C 0.73694 0.60019 0.45432 0.0
C148 C 0.6538 0.59466 0.41921 0.0
C149 C 0.70418 0.59784 0.4919 0.0
C150 C 0.67485 0.5914 0.32518 0.0
C151 C 0.72879 0.64199 0.13347 0.0
H152 H 0.72116 0.55953 1.00339 0.0
H153 H 0.82968 0.56517 0.86323 0.0
H154 H 0.70417 0.56626 0.91025 0.0
H155 H 0.84566 0.5569 0.95641 0.0
H156 H 0.75325 0.60009 0.37181 0.0
H157 H 0.637 0.59426 0.50138 0.0
H158 H 0.76891 0.60131 0.46688 0.0
H159 H 0.62125 0.59197 0.40609 0.0
Eu160 Eu 0.19783 0.78937 0.48033 0.0
Eu161 Eu 0.25633 0.85518 0.37514 0.0
C162 C 0.30609 0.83636 0.47287 0.0
C163 C 0.17531 0.76761 0.62733 0.0
C164 C 0.2209 0.8034 0.63983 0.0
C165 C 0.15374 0.764 0.72022 0.0
C166 C 0.23298 0.81886 0.69222 0.0
C167 C 0.14182 0.7482 0.66787 0.0
C168 C 0.19954 0.79951 0.73316 0.0
C169 C 0.1623 0.75116 0.57213 0.0
O170 O 0.21685 0.78108 0.34619 0.0
O171 O 0.20626 0.74019 0.42436 0.0
C172 C 0.2064 0.74249 0.37211 0.0
O173 O 0.14223 0.76844 0.41945 0.0
O174 O 0.30818 0.87332 0.31225 0.0
O175 O 0.27112 0.91183 0.31948 0.0
O176 O 0.17955 0.83442 0.3662 0.0
C177 C 0.14155 0.79579 0.38196 0.0
O178 O 0.19574 0.85604 0.47491 0.0
O179 O 0.26879 0.90377 0.44396 0.0
O180 O 0.30456 0.83667 0.42079 0.0
O181 O 0.1466 0.77343 0.54363 0.0
O182 O 0.19186 0.74332 0.5458 0.0
O183 O 0.27282 0.83642 0.50066 0.0
C184 C 0.28878 0.89741 0.23299 0.0
C185 C 0.24602 0.86035 0.21469 0.0
C186 C 0.31376 0.91954 0.14152 0.0
C187 C 0.23729 0.85274 0.16023 0.0
C188 C 0.32242 0.92714 0.1961 0.0
C189 C 0.27123 0.8819 0.12281 0.0
C190 C 0.2991 0.90378 0.2903 0.0
C191 C 0.23447 0.89642 0.4761 0.0
H192 H 0.2472 0.81945 0.60907 0.0
H193 H 0.12722 0.7478 0.75073 0.0
H194 H 0.26842 0.84635 0.70056 0.0
H195 H 0.10641 0.72073 0.65906 0.0
H196 H 0.21957 0.83697 0.24258 0.0
H197 H 0.3409 0.94238 0.11404 0.0
H198 H 0.20386 0.82392 0.14746 0.0
H199 H 0.35574 0.95577 0.20951 0.0
Eu200 Eu 0.41456 0.1925 0.80466 0.0
Eu201 Eu 0.39964 0.12711 0.91084 0.0
C202 C 0.46855 0.1386 0.81732 0.0
C203 C 0.42341 0.21853 0.65806 0.0
C204 C 0.43155 0.18174 0.64488 0.0
C205 C 0.40357 0.22225 0.56605 0.0
C206 C 0.42605 0.16557 0.59259 0.0
C207 C 0.4094 0.23861 0.61827 0.0
C208 C 0.4117 0.18543 0.55254 0.0
C209 C 0.42734 0.23466 0.71339 0.0
O210 O 0.43064 0.20046 0.94074 0.0
O211 O 0.46875 0.24015 0.86489 0.0
C212 C 0.46161 0.23871 0.91648 0.0
O213 O 0.37359 0.21154 0.85893 0.0
O214 O 0.43145 0.10836 0.97512 0.0
O215 O 0.35599 0.07097 0.96625 0.0
O216 O 0.34253 0.14656 0.91376 0.0
C217 C 0.34288 0.18401 0.89435 0.0
O218 O 0.34473 0.12673 0.79998 0.0
O219 O 0.36381 0.07767 0.84281 0.0
O220 O 0.46747 0.14431 0.86868 0.0
O221 O 0.3881 0.2169 0.73988 0.0
O222 O 0.46137 0.23612 0.74149 0.0
O223 O 0.43806 0.1412 0.78695 0.0
C224 C 0.38668 0.08392 0.05328 0.0
C225 C 0.38034 0.12051 0.07184 0.0
C226 C 0.39076 0.06209 0.14441 0.0
C227 C 0.37961 0.1281 0.12635 0.0
C228 C 0.39138 0.05449 0.08984 0.0
C229 C 0.38548 0.0994 0.16339 0.0
C230 C 0.39132 0.07812 0.99611 0.0
C231 C 0.33893 0.08483 0.80731 0.0
H232 H 0.44184 0.16525 0.67508 0.0
H233 H 0.39314 0.23879 0.53609 0.0
H234 H 0.43226 0.13697 0.58372 0.0
H235 H 0.40272 0.26684 0.62766 0.0
H236 H 0.37672 0.14367 0.04415 0.0
H237 H 0.39595 0.03968 0.17165 0.0
H238 H 0.37472 0.15666 0.13946 0.0
H239 H 0.39662 0.02626 0.07616 0.0
C240 C 0.28387 0.17784 0.96125 0.0
C241 C 0.30958 0.19775 0.91476 0.0
C242 C 0.25724 0.19568 0.98428 0.0
C243 C 0.2568 0.23429 0.96023 0.0
C244 C 0.27997 0.25223 0.91136 0.0
C245 C 0.30593 0.2336 0.88914 0.0
C246 C 0.23234 0.17539 0.03611 0.0
C247 C 0.28048 0.29357 0.88458 0.0
C248 C 0.17935 0.28298 1.00282 0.0
C249 C 0.21061 0.32098 0.03421 0.0
C250 C 0.1929 0.25253 0.98056 0.0
C251 C 0.23884 0.2609 0.98952 0.0
C252 C 0.26998 0.29834 0.02246 0.0
C253 C 0.25541 0.32779 0.04453 0.0
C254 C 0.15878 0.21257 0.94599 0.0
C255 C 0.31954 0.30873 0.03244 0.0
H256 H 0.28621 0.14984 0.98097 0.0
H257 H 0.32496 0.24858 0.8526 0.0
H258 H 0.25232 0.19965 0.06891 0.0
H259 H 0.19685 0.17141 0.03584 0.0
H260 H 0.22904 0.14076 0.04457 0.0
H261 H 0.29572 0.29985 0.84406 0.0
H262 H 0.24451 0.2881 0.88182 0.0
H263 H 0.30161 0.32566 0.90855 0.0
H264 H 0.14454 0.27731 0.99509 0.0
H265 H 0.27984 0.35706 0.06874 0.0
H266 H 0.15801 0.1796 0.95712 0.0
H267 H 0.17027 0.22011 0.90402 0.0
H268 H 0.12269 0.20699 0.94887 0.0
H269 H 0.31938 0.27695 0.04727 0.0
H270 H 0.33829 0.33741 0.06166 0.0
H271 H 0.33964 0.31908 0.99473 0.0
C272 C 0.07849 0.31276 0.23326 0.0
C273 C 0.0659 0.33156 0.19054 0.0
C274 C 0.05248 0.29959 0.28018 0.0
C275 C 0.01225 0.30418 0.28401 0.0
C276 C -0.0017 0.3216 0.24057 0.0
C277 C 0.02543 0.33524 0.19419 0.0
C278 C 0.06923 0.2828 0.32653 0.0
C279 C 0.95596 0.32774 0.24405 0.0
C280 C 0.92094 0.23235 0.38665 0.0
C281 C 0.92916 0.26606 0.42553 0.0
C282 C 0.94822 0.24432 0.34069 0.0
C283 C 0.98497 0.29096 0.33382 0.0
C284 C -0.00495 0.32469 0.37411 0.0
C285 C 0.96696 0.31173 0.41967 0.0
C286 C 0.93623 0.20761 0.29831 0.0
C287 C 0.03334 0.37521 0.3686 0.0
H288 H 0.10994 0.31012 0.23107 0.0
H289 H 0.01584 0.35026 0.16163 0.0
H290 H 0.07705 0.30692 0.3606 0.0
H291 H 0.04128 0.24753 0.33934 0.0
H292 H 0.10125 0.28107 0.31698 0.0
H293 H 0.94694 0.33703 0.20516 0.0
H294 H 0.92525 0.29512 0.2589 0.0
H295 H 0.96301 0.35601 0.27283 0.0
H296 H 0.8918 0.1969 0.39101 0.0
H297 H 0.97328 0.3381 0.44931 0.0
H298 H 0.96752 0.2048 0.28831 0.0
H299 H 0.92526 0.21814 0.26162 0.0
H300 H 0.90751 0.1725 0.31067 0.0
H301 H 0.05209 0.38838 0.40689 0.0
H302 H 0.0172 0.39683 0.35862 0.0
H303 H 0.05922 0.38066 0.33733 0.0
C304 C 0.74826 0.0703 0.5454 0.0
C305 C 0.7831 0.10929 0.57267 0.0
C306 C 0.73038 0.02502 0.56547 0.0
C307 C 0.74801 0.01858 0.61388 0.0
C308 C 0.78563 0.05731 0.63962 0.0
C309 C 0.80279 0.10248 0.61867 0.0
C310 C 0.6901 0.98461 0.53693 0.0
C311 C 0.80555 0.05147 0.69105 0.0
C312 C 0.65565 0.9193 0.69502 0.0
C313 C 0.66452 0.88278 0.68359 0.0
C314 C 0.68383 0.96413 0.67409 0.0
C315 C 0.722 0.97276 0.64102 0.0
C316 C 0.73203 0.93653 0.63028 0.0
C317 C 0.70289 0.89168 0.65151 0.0
C318 C 0.67167 0.00181 0.68597 0.0
C319 C 0.77277 0.94487 0.59545 0.0
H320 H 0.73351 0.0752 0.50918 0.0
H321 H 0.83 0.13248 0.63966 0.0
H322 H 0.69655 0.95482 0.53268 0.0
H323 H 0.65752 0.97204 0.56052 0.0
H324 H 0.68412 -0.00526 0.49691 0.0
H325 H 0.83954 0.08308 0.70092 0.0
H326 H 0.78052 0.04519 0.72374 0.0
H327 H 0.81065 0.02066 0.68914 0.0
H328 H 0.62605 0.91277 0.71972 0.0
H329 H 0.71015 0.8637 0.64294 0.0
H330 H 0.66166 0.01259 0.64877 0.0
H331 H 0.70256 0.03333 0.70245 0.0
H332 H 0.64224 0.9899 0.71461 0.0
H333 H 0.76603 0.95136 0.55408 0.0
H334 H 0.77876 0.91454 0.59553 0.0
H335 H 0.80527 0.97654 0.60878 0.0
C336 C 0.67502 0.76733 0.89331 0.0
C337 C 0.66352 0.73578 0.85085 0.0
C338 C 0.68448 0.75648 0.94374 0.0
C339 C 0.68386 0.71376 0.95147 0.0
C340 C 0.67295 0.68201 0.9088 0.0
C341 C 0.6627 0.69334 0.85889 0.0
C342 C 0.69412 0.79016 0.98899 0.0
C343 C 0.67145 0.63582 0.91616 0.0
C344 C 0.75409 0.69918 0.05972 0.0
C345 C 0.71869 0.66917 0.0948 0.0
C346 C 0.7434 0.71605 0.01414 0.0
C347 C 0.69624 0.70279 1.00377 0.0
C348 C 0.6609 0.676 0.04145 0.0
C349 C 0.67263 0.65946 0.0868 0.0
C350 C 0.7821 0.7451 0.97519 0.0
C351 C 0.61012 0.66132 0.0324 0.0
H352 H 0.67514 0.80001 0.88779 0.0
H353 H 0.65317 0.66859 0.8265 0.0
H354 H 0.73023 0.80347 1.00402 0.0
H355 H 0.69022 0.82051 0.97709 0.0
H356 H 0.66972 0.77171 0.02233 0.0
H357 H 0.70608 0.64217 0.93011 0.0
H358 H 0.6453 0.61477 0.94707 0.0
H359 H 0.66221 0.61497 0.879 0.0
H360 H 0.78991 0.70732 0.06627 0.0
H361 H 0.64511 0.6363 0.11386 0.0
H362 H 0.78095 0.77704 0.96384 0.0
H363 H 0.77704 0.72448 0.93851 0.0
H364 H 0.81738 0.75585 0.99146 0.0
H365 H 0.60597 0.68556 1.00546 0.0
H366 H 0.59233 0.65928 0.07058 0.0
H367 H 0.59204 0.62587 0.01429 0.0
C368 C 0.05938 0.73551 0.36242 0.0
C369 C 0.09624 0.78171 0.35649 0.0
C370 C 0.01598 0.72064 0.33865 0.0
C371 C 0.00915 0.7529 0.30839 0.0
C372 C 0.04585 0.79984 0.30282 0.0
C373 C 0.08931 0.8137 0.32674 0.0
C374 C 0.97781 0.66999 0.34487 0.0
C375 C 0.03939 0.83504 0.27105 0.0
C376 C 0.9141 0.68746 0.20861 0.0
C377 C 0.8745 0.68066 0.23684 0.0
C378 C 0.95905 0.71469 0.22955 0.0
C379 C 0.96438 0.7357 0.27982 0.0
C380 C 0.92501 0.73255 0.30631 0.0
C381 C 0.88025 0.70487 0.28443 0.0
C382 C 0.0002 0.71718 0.20009 0.0
C383 C 0.92962 0.755 0.3598 0.0
H384 H 0.06462 0.71048 0.38498 0.0
H385 H 0.11769 0.84953 0.32235 0.0
H386 H 0.94569 0.66801 0.36146 0.0
H387 H 0.96857 0.65261 0.30552 0.0
H388 H 0.98846 0.64991 0.37123 0.0
H389 H 0.07014 0.87098 0.27406 0.0
H390 H 0.03383 0.82461 0.22869 0.0
H391 H 0.00773 0.8357 0.28481 0.0
H392 H 0.90991 0.66964 0.17115 0.0
H393 H 0.84975 0.70007 0.30615 0.0
H394 H 0.01168 0.69476 0.22049 0.0
H395 H 0.03035 0.75351 0.19987 0.0
H396 H -0.00878 0.70494 0.15844 0.0
H397 H 0.93476 0.73397 0.39067 0.0
H398 H 0.89787 0.75696 0.37018 0.0
H399 H 0.96059 0.79084 0.36076 0.0
C400 C 0.32512 0.01573 0.75388 0.0
C401 C 0.31291 0.04965 0.76633 0.0
C402 C 0.30923 0.98981 0.70692 0.0
C403 C 0.2804 -0.0019 0.67214 0.0
C404 C 0.2654 0.02997 0.68637 0.0
C405 C 0.28184 0.05539 0.73346 0.0
C406 C 0.32626 0.95623 0.69317 0.0
C407 C 0.23413 0.03912 0.65052 0.0
C408 C 0.28403 0.9699 0.52728 0.0
C409 C 0.24349 0.92588 0.52341 0.0
C410 C 0.29586 -0.00537 0.57531 0.0
C411 C 0.26678 0.97426 0.62027 0.0
C412 C 0.22532 0.93039 0.6162 0.0
C413 C 0.21381 0.90705 0.5676 0.0
C414 C 0.34024 0.0417 0.57849 0.0
C415 C 0.19424 0.90716 0.66376 0.0
H416 H 0.34952 0.01153 0.77892 0.0
H417 H 0.27216 0.08148 0.74326 0.0
H418 H 0.30015 0.92606 0.66957 0.0
H419 H 0.35871 0.97504 0.66909 0.0
H420 H 0.33471 0.94272 0.72943 0.0
H421 H 0.22322 0.06275 0.66911 0.0
H422 H 0.25293 0.05545 0.61304 0.0
H423 H 0.20226 0.00567 0.63996 0.0
H424 H 0.307 0.98445 0.49323 0.0
H425 H 0.18254 0.87283 0.56518 0.0
H426 H 0.3653 0.03941 0.60599 0.0
H427 H 0.33248 0.0684 0.59468 0.0
H428 H 0.35744 0.0539 0.5392 0.0
H429 H 0.21468 0.90223 0.69554 0.0
H430 H 0.16356 0.87243 0.65401 0.0
H431 H 0.18141 0.92998 0.68003 0.0
C432 C 0.13513 0.36577 0.70729 0.0
C433 C 0.11847 0.39386 0.72918 0.0
C434 C 0.14573 0.36797 0.65296 0.0
C435 C 0.13983 0.39923 0.61953 0.0
C436 C 0.12194 0.42684 0.6411 0.0
C437 C 0.11141 0.42376 0.69555 0.0
C438 C 0.16423 0.33755 0.63153 0.0
C439 C 0.1153 0.46075 0.60699 0.0
C440 C 0.21625 0.44236 0.49577 0.0
C441 C 0.18509 0.41456 0.45578 0.0
C442 C 0.2018 0.43796 0.54893 0.0
C443 C 0.15494 0.40494 0.56278 0.0
C444 C 0.12308 0.37715 0.52258 0.0
C445 C 0.13852 0.38226 0.46967 0.0
C446 C 0.23681 0.46867 0.59038 0.0
C447 C 0.07281 0.34158 0.53549 0.0
H448 H 0.14003 0.34206 0.73277 0.0
H449 H 0.09902 0.44596 0.71212 0.0
H450 H 0.14263 0.31661 0.59745 0.0
H451 H 0.20055 0.35997 0.61677 0.0
H452 H 0.1644 0.31327 0.662 0.0
H453 H 0.09842 0.4776 0.629 0.0
H454 H 0.14981 0.48858 0.59207 0.0
H455 H 0.0935 0.44244 0.5719 0.0
H456 H 0.25201 0.46803 0.48542 0.0
H457 H 0.11424 0.3603 0.43926 0.0
H458 H 0.24117 0.44654 0.62045 0.0
H459 H 0.22373 0.48946 0.61138 0.0
H460 H 0.27169 0.49316 0.57305 0.0
H461 H 0.07172 0.31461 0.56275 0.0
H462 H 0.05206 0.32384 0.49948 0.0
H463 H 0.05575 0.35881 0.55624 0.0
C464 C 0.77105 0.21842 0.11655 0.0
C465 C 0.80343 0.22803 0.15752 0.0
C466 C 0.7854 0.22724 0.06326 0.0
C467 C 0.83339 0.24623 0.05036 0.0
C468 C 0.8663 0.25591 0.09148 0.0
C469 C 0.85093 0.24668 0.14448 0.0
C470 C 0.74915 0.21647 0.02073 0.0
C471 C 0.91778 0.27615 0.07957 0.0
C472 C 0.8602 0.22952 0.90759 0.0
C473 C 0.87187 0.27284 0.88462 0.0
C474 C 0.84892 0.22084 0.96177 0.0
C475 C 0.84889 0.25617 0.9938 0.0
C476 C 0.86152 0.30027 0.97106 0.0
C477 C 0.87296 0.3081 0.91687 0.0
C478 C 0.83622 0.17354 0.98456 0.0
C479 C 0.86166 0.33878 1.00364 0.0
H480 H 0.73439 0.20456 0.12622 0.0
H481 H 0.87608 0.25348 0.17573 0.0
H482 H 0.75777 0.24893 0.99857 0.0
H483 H 0.74941 0.19123 0.99181 0.0
H484 H 0.7132 0.20146 0.03725 0.0
H485 H 0.93838 0.27897 0.11565 0.0
H486 H 0.92276 0.25407 0.05002 0.0
H487 H 0.93213 0.3116 0.06198 0.0
H488 H 0.85986 0.20232 0.88311 0.0
H489 H 0.8814 0.34148 0.89936 0.0
H490 H 0.79936 0.1555 0.99861 0.0
H491 H 0.85865 0.17793 0.01936 0.0
H492 H 0.84021 0.1507 0.95511 0.0
H493 H 0.82568 0.32725 0.01808 0.0
H494 H 0.87427 0.37173 0.98066 0.0
H495 H 0.88429 0.34629 0.03903 0.0
C496 C 0.61159 0.69018 0.34959 0.0
C497 C 0.59782 0.71263 0.38697 0.0
C498 C 0.60889 0.69659 0.29473 0.0
C499 C 0.59265 0.72669 0.27664 0.0
C500 C 0.57872 0.7494 0.31412 0.0
C501 C 0.58126 0.74195 0.3686 0.0
C502 C 0.62413 0.67162 0.2563 0.0
C503 C 0.56104 0.78165 0.29666 0.0
C504 C 0.62493 0.78244 0.13936 0.0
C505 C 0.583 0.75586 0.11114 0.0
C506 C 0.62898 0.77255 0.19273 0.0
C507 C 0.59031 0.73492 0.21866 0.0
C508 C 0.54854 0.70678 0.18985 0.0
C509 C 0.54531 0.71766 0.13661 0.0
C510 C 0.6743 0.80314 0.22177 0.0
C511 C 0.5068 0.66578 0.21567 0.0
H512 H 0.62505 0.66797 0.36317 0.0
H513 H 0.56964 0.75875 0.39689 0.0
H514 H 0.59936 0.65684 0.22254 0.0
H515 H 0.65902 0.69699 0.23982 0.0
H516 H 0.62675 0.64278 0.27577 0.0
H517 H 0.5518 0.79686 0.33073 0.0
H518 H 0.58816 0.81075 0.27246 0.0
H519 H 0.52957 0.76222 0.2713 0.0
H520 H 0.65467 0.81127 0.11977 0.0
H521 H 0.51268 0.69696 0.11543 0.0
H522 H 0.68797 0.78128 0.2388 0.0
H523 H 0.66792 0.82108 0.25527 0.0
H524 H 0.70159 0.83013 0.19557 0.0
H525 H 0.51743 0.6418 0.23378 0.0
H526 H 0.47798 0.64558 0.18706 0.0
H527 H 0.49321 0.67853 0.24804 0.0
C528 C 0.7425 0.60495 0.80868 0.0
C529 C 0.75633 0.57244 0.82287 0.0
C530 C 0.73369 0.6109 0.75552 0.0
C531 C 0.7386 0.5835 0.71546 0.0
C532 C 0.75256 0.55064 0.72955 0.0
C533 C 0.76133 0.54558 0.78299 0.0
C534 C 0.71895 0.64638 0.74234 0.0
C535 C 0.7581 0.52064 0.68814 0.0
C536 C 0.67594 0.56499 0.58322 0.0
C537 C 0.71252 0.596 0.5498 0.0
C538 C 0.68373 0.5612 0.63734 0.0
C539 C 0.72921 0.58906 0.65876 0.0
C540 C 0.76608 0.6211 0.62554 0.0
C541 C 0.75731 0.62415 0.57154 0.0
C542 C 0.64348 0.52658 0.67136 0.0
C543 C 0.81495 0.65179 0.64693 0.0
H544 H 0.73929 0.62636 0.83916 0.0
H545 H 0.77153 0.52006 0.79368 0.0
H546 H 0.74081 0.66972 0.70973 0.0
H547 H 0.68207 0.62794 0.72843 0.0
H548 H 0.72172 0.66835 0.77708 0.0
H549 H 0.76921 0.49676 0.70556 0.0
H550 H 0.72445 0.49923 0.66694 0.0
H551 H 0.78447 0.54326 0.65821 0.0
H552 H 0.64135 0.54266 0.56675 0.0
H553 H 0.78562 0.64872 0.54627 0.0
H554 H 0.63906 0.5447 0.70606 0.0
H555 H 0.65118 0.49962 0.68686 0.0
H556 H 0.60989 0.50868 0.64915 0.0
H557 H 0.81411 0.67288 0.68076 0.0
H558 H 0.83941 0.67596 0.61636 0.0
H559 H 0.82898 0.62961 0.66208 0.0
C560 C 0.25562 0.82497 0.81029 0.0
C561 C 0.2124 0.81579 0.78918 0.0
C562 C 0.26728 0.83833 0.86361 0.0
C563 C 0.23496 0.84259 0.89691 0.0
C564 C 0.19179 0.83451 0.87555 0.0
C565 C 0.18108 0.8213 0.82208 0.0
C566 C 0.31373 0.8467 0.88466 0.0
C567 C 0.15644 0.83894 0.90949 0.0
C568 C 0.24011 0.82594 0.04582 0.0
C569 C 0.26259 0.87225 0.0647 0.0
C570 C 0.2312 0.81595 0.99149 0.0
C571 C 0.24519 0.85312 0.95468 0.0
C572 C 0.26833 0.9 0.97326 0.0
C573 C 0.27676 0.90901 0.02795 0.0
C574 C 0.20664 0.76547 0.97348 0.0
C575 C 0.28391 0.94065 0.93537 0.0
H576 H 0.27995 0.82046 0.7855 0.0
H577 H 0.14802 0.81525 0.80599 0.0
H578 H 0.33305 0.88167 0.90373 0.0
H579 H 0.3077 0.8202 0.91547 0.0
H580 H 0.33613 0.8447 0.85301 0.0
H581 H 0.12538 0.83345 0.88643 0.0
H582 H 0.14439 0.81277 0.94205 0.0
H583 H 0.17289 0.87415 0.92808 0.0
H584 H 0.22985 0.79729 0.07357 0.0
H585 H 0.29382 0.9449 0.04201 0.0
H586 H 0.22895 0.76005 0.94468 0.0
H587 H 0.17355 0.75684 0.95287 0.0
H588 H 0.19829 0.74062 1.00701 0.0
H589 H 0.30857 0.94024 0.90569 0.0
H590 H 0.3014 0.97497 0.95609 0.0
H591 H 0.25329 0.93735 0.91328 0.0
C592 C 0.36737 0.1626 0.46645 0.0
C593 C 0.40555 0.16823 0.4968 0.0
C594 C 0.36236 0.14875 0.41304 0.0
C595 C 0.39635 0.14029 0.38919 0.0
C596 C 0.43428 0.14462 0.41998 0.0
C597 C 0.4384 0.15849 0.47336 0.0
C598 C 0.32122 0.14419 0.38178 0.0
C599 C 0.47124 0.13588 0.39613 0.0
C600 C 0.36642 0.07297 0.25861 0.0
C601 C 0.38784 0.10948 0.22139 0.0
C602 C 0.36904 0.08236 0.31334 0.0
C603 C 0.39356 0.12938 0.33138 0.0
C604 C 0.41533 0.16632 0.29405 0.0
C605 C 0.41228 0.15594 0.23969 0.0
C606 C 0.34531 0.042 0.35185 0.0
C607 C 0.442 0.21693 0.31155 0.0
H608 H 0.34134 0.16917 0.4845 0.0
H609 H 0.46818 0.16305 0.49634 0.0
H610 H 0.33398 0.17023 0.34905 0.0
H611 H 0.30165 0.10891 0.36348 0.0
H612 H 0.29667 0.1498 0.40675 0.0
H613 H 0.497 0.1381 0.42607 0.0
H614 H 0.45463 0.10071 0.3774 0.0
H615 H 0.49038 0.16205 0.36451 0.0
H616 H 0.34708 0.03699 0.24492 0.0
H617 H 0.42974 0.18437 0.21146 0.0
H618 H 0.31735 0.04439 0.37369 0.0
H619 H 0.37086 0.04373 0.38169 0.0
H620 H 0.32949 0.00748 0.33165 0.0
H621 H 0.41848 0.22568 0.3341 0.0
H622 H 0.45701 0.24156 0.27757 0.0
H623 H 0.47097 0.22255 0.33849 0.0
C624 C 0.17834 0.56422 0.14803 0.0
C625 C 0.14789 0.51727 0.16108 0.0
C626 C 0.18337 0.60019 0.18207 0.0
C627 C 0.1564 0.58859 0.22931 0.0
C628 C 0.12274 0.54131 0.24011 0.0
C629 C 0.11942 0.50612 0.20621 0.0
C630 C 0.22002 0.65018 0.16954 0.0
C631 C 0.09222 0.52757 0.28904 0.0
C632 C 0.2101 0.67145 0.3461 0.0
C633 C 0.19003 0.69982 0.34034 0.0
C634 C 0.199 0.63461 0.3104 0.0
C635 C 0.16609 0.62544 0.26929 0.0
C636 C 0.14385 0.65256 0.26543 0.0
C637 C 0.15673 0.68999 0.30051 0.0
C638 C 0.22388 0.60677 0.31533 0.0
C639 C 0.10735 0.64281 0.22355 0.0
H640 H 0.20087 0.57259 0.11358 0.0
H641 H 0.09598 0.46959 0.21623 0.0
H642 H 0.20459 0.67332 0.17129 0.0
H643 H 0.24828 0.66298 0.19972 0.0
H644 H 0.2359 0.65363 0.12973 0.0
H645 H 0.06335 0.49051 0.28746 0.0
H646 H 0.11379 0.53197 0.32465 0.0
H647 H 0.07685 0.55059 0.29403 0.0
H648 H 0.2361 0.67953 0.37677 0.0
H649 H 0.14103 0.71199 0.29657 0.0
H650 H 0.24411 0.61072 0.27859 0.0
H651 H 0.198 0.56894 0.31993 0.0
H652 H 0.24827 0.61817 0.34963 0.0
H653 H 0.12401 0.65125 0.1838 0.0
H654 H 0.08978 0.66377 0.2297 0.0
H655 H 0.08032 0.60506 0.22351 0.0
C656 C 0.66669 0.21908 0.60784 0.0
C657 C 0.69733 0.20149 0.61234 0.0
C658 C 0.62904 0.20465 0.64337 0.0
C659 C 0.6214 0.17094 0.68303 0.0
C660 C 0.65103 0.15144 0.68578 0.0
C661 C 0.6891 0.16752 0.65091 0.0
C662 C 0.59838 0.22657 0.63959 0.0
C663 C 0.64296 0.11411 0.72598 0.0
C664 C 0.55425 0.17177 0.80507 0.0
C665 C 0.50833 0.13887 0.7907 0.0
C666 C 0.59183 0.18157 0.77103 0.0
C667 C 0.58306 0.15701 0.72234 0.0
C668 C 0.53707 0.12112 0.70988 0.0
C669 C 0.50014 0.11295 0.74393 0.0
C670 C 0.64034 0.22047 0.78535 0.0
C671 C 0.52637 0.09319 0.65921 0.0
H672 H 0.67335 0.24549 0.5781 0.0
H673 H 0.71263 0.15352 0.65383 0.0
H674 H 0.56132 0.19905 0.63342 0.0
H675 H 0.59998 0.2446 0.67737 0.0
H676 H 0.60911 0.25237 0.60667 0.0
H677 H 0.6669 0.09988 0.71995 0.0
H678 H 0.64838 0.12885 0.76658 0.0
H679 H 0.60624 0.08476 0.72368 0.0
H680 H 0.56034 0.19239 0.84076 0.0
H681 H 0.46443 0.08766 0.73281 0.0
H682 H 0.65167 0.24969 0.75657 0.0
H683 H 0.66588 0.20794 0.78287 0.0
H684 H 0.64176 0.2343 0.8259 0.0
H685 H 0.52931 0.11571 0.62502 0.0
H686 H 0.49045 0.06217 0.65937 0.0
H687 H 0.55197 0.08111 0.65288 0.0
C688 C 0.3252 0.54656 1.00646 0.0
C689 C 0.29602 0.49795 1.00401 0.0
C690 C 0.36282 0.56962 0.97085 0.0
C691 C 0.37193 0.54304 0.93332 0.0
C692 C 0.34403 0.49361 0.93307 0.0
C693 C 0.30586 0.47172 0.96784 0.0
C694 C 0.39161 0.6225 0.97196 0.0
C695 C 0.35387 0.46391 0.89542 0.0
C696 C 0.43488 0.60803 0.80809 0.0
C697 C 0.4816 0.62492 0.82236 0.0
C698 C 0.39846 0.57969 0.84321 0.0
C699 C 0.40933 0.56725 0.89291 0.0
C700 C 0.45635 0.58103 0.90528 0.0
C701 C 0.49202 0.61035 0.87014 0.0
C702 C 0.34879 0.56621 0.82891 0.0
C703 C 0.46945 0.56742 0.957 0.0
H704 H 0.31726 0.56663 0.03442 0.0
H705 H 0.28339 0.43392 0.96661 0.0
H706 H 0.4291 0.63394 0.97849 0.0
H707 H 0.38903 0.63689 0.93309 0.0
H708 H 0.37996 0.63791 1.00354 0.0
H709 H 0.33182 0.42584 0.90401 0.0
H710 H 0.34706 0.47033 0.85407 0.0
H711 H 0.39131 0.47369 0.89782 0.0
H712 H 0.42704 0.62012 0.77158 0.0
H713 H 0.52836 0.6238 0.8812 0.0
H714 H 0.33611 0.5838 0.85639 0.0
H715 H 0.3252 0.52788 0.83345 0.0
H716 H 0.34591 0.57628 0.78762 0.0
H717 H 0.46775 0.58917 0.98954 0.0
H718 H 0.50556 0.57288 0.95583 0.0
H719 H 0.4446 0.53016 0.96674 0.0
C720 C 0.86976 0.38915 0.41131 0.0
C721 C 0.84194 0.37005 0.45663 0.0
C722 C 0.86351 0.41955 0.37788 0.0
C723 C 0.82759 0.42984 0.38937 0.0
C724 C 0.80132 0.41288 0.43692 0.0
C725 C 0.80923 0.38347 0.47044 0.0
C726 C 0.8933 0.43807 0.32857 0.0
C727 C 0.76237 0.42269 0.45023 0.0
C728 C 0.81857 0.52629 0.31792 0.0
C729 C 0.78559 0.50097 0.27836 0.0
C730 C 0.83398 0.50393 0.35313 0.0
C731 C 0.81477 0.45485 0.34966 0.0
C732 C 0.78213 0.42925 0.30896 0.0
C733 C 0.76841 0.45284 0.27318 0.0
C734 C 0.87019 0.53271 0.3945 0.0
C735 C 0.76051 0.37673 0.30438 0.0
H736 H 0.89491 0.37841 0.40064 0.0
H737 H 0.7872 0.36791 0.50501 0.0
H738 H 0.87207 0.41932 0.2933 0.0
H739 H 0.90558 0.47591 0.32313 0.0
H740 H 0.92428 0.43315 0.32994 0.0
H741 H 0.74761 0.40985 0.49039 0.0
H742 H 0.77516 0.46084 0.4481 0.0
H743 H 0.73378 0.40523 0.42069 0.0
H744 H 0.83227 0.56375 0.32141 0.0
H745 H 0.74274 0.43339 0.2427 0.0
H746 H 0.89964 0.52546 0.39312 0.0
H747 H 0.85439 0.52281 0.43462 0.0
H748 H 0.88447 0.57096 0.38895 0.0
H749 H 0.78829 0.36742 0.29906 0.0
H750 H 0.73565 0.36207 0.27062 0.0
H751 H 0.74148 0.35967 0.34152 0.0
C752 C 0.32316 0.79777 0.54637 0.0
C753 C 0.33954 0.82723 0.50186 0.0
C754 C 0.353 0.78849 0.57672 0.0
C755 C 0.40091 0.80999 0.56297 0.0
C756 C 0.41796 0.83998 0.51806 0.0
C757 C 0.38674 0.84775 0.48736 0.0
C758 C 0.33299 0.75529 0.62331 0.0
C759 C 0.46914 0.86427 0.50307 0.0
C760 C 0.47808 0.81182 0.67582 0.0
C761 C 0.48462 0.77431 0.66204 0.0
C762 C 0.45271 0.82533 0.64254 0.0
C763 C 0.4324 0.79978 0.59536 0.0
C764 C 0.43864 0.76159 0.58168 0.0
C765 C 0.46526 0.74977 0.61484 0.0
C766 C 0.44753 0.86681 0.65787 0.0
C767 C 0.41624 0.73247 0.53273 0.0
H768 H 0.28647 0.78125 0.55722 0.0
H769 H 0.39937 0.8707 0.45311 0.0
H770 H 0.33977 0.72573 0.61837 0.0
H771 H 0.35041 0.77367 0.66052 0.0
H772 H 0.29463 0.74075 0.62786 0.0
H773 H 0.47703 0.88743 0.46796 0.0
H774 H 0.49082 0.88564 0.53691 0.0
H775 H 0.47979 0.83794 0.49426 0.0
H776 H 0.49393 0.83139 0.71179 0.0
H777 H 0.4705 0.72083 0.60416 0.0
H778 H 0.41024 0.85496 0.66664 0.0
H779 H 0.45827 0.89199 0.62438 0.0
H780 H 0.46881 0.88539 0.69325 0.0
H781 H 0.37754 0.71556 0.53577 0.0
H782 H 0.4256 0.70471 0.52702 0.0
H783 H 0.42713 0.75514 0.49699 0.0
C784 C 0.59725 0.48031 0.07634 0.0
C785 C 0.61675 0.47288 0.1221 0.0
C786 C 0.56728 0.44281 0.04366 0.0
C787 C 0.55789 0.39707 0.05637 0.0
C788 C 0.57546 0.38909 0.1042 0.0
C789 C 0.60438 0.42722 0.13697 0.0
C790 C 0.54805 0.45264 0.99399 0.0
C791 C 0.56661 0.34086 0.11876 0.0
C792 C 0.46112 0.28971 0.98825 0.0
C793 C 0.48605 0.28154 0.94862 0.0
C794 C 0.48372 0.32814 0.02248 0.0
C795 C 0.53268 0.35825 0.01788 0.0
C796 C 0.5579 0.35064 0.97717 0.0
C797 C 0.53404 0.3126 0.94237 0.0
C798 C 0.45533 0.33615 0.06389 0.0
C799 C 0.61029 0.38177 0.97147 0.0
H800 H 0.60715 0.51584 0.06487 0.0
H801 H 0.62023 0.42173 0.17189 0.0
H802 H 0.56645 0.44939 0.9588 0.0
H803 H 0.51022 0.42674 0.98944 0.0
H804 H 0.5527 0.48846 0.99414 0.0
H805 H 0.58025 0.34004 0.1588 0.0
H806 H 0.52855 0.31505 0.1177 0.0
H807 H 0.58385 0.3294 0.08928 0.0
H808 H 0.42374 0.26586 0.99249 0.0
H809 H 0.55316 0.30599 0.9118 0.0
H810 H 0.46145 0.37239 0.0607 0.0
H811 H 0.46662 0.33234 0.10411 0.0
H812 H 0.41714 0.31115 0.05997 0.0
H813 H 0.61921 0.41865 0.96511 0.0
H814 H 0.62466 0.37099 0.93792 0.0
H815 H 0.62791 0.3808 1.00856 0.0
loop_
_geom_bond_atom_site_label_1
_geom_bond_atom_site_label_2
_geom_bond_distance
_geom_bond_site_symmetry_2
_ccdc_geom_bond_type
Eu0 C9 2.828 . S
Eu0 O11 2.392 . S
Eu0 O13 2.418 . S
Eu0 O18 2.373 . S
Eu0 O21 2.488 . S
Eu0 O22 2.471 . S
Eu0 O23 2.349 . S
Eu1 O10 2.373 . S
Eu1 O14 2.488 . S
Eu1 O15 2.471 . S
Eu1 O16 2.349 1_556 S
Eu1 O19 2.392 1_556 S
Eu1 O20 2.418 1_556 S
Eu1 C30 2.828 . S
C2 O20 1.244 . S
C2 O23 1.265 . S
C3 C4 1.379 . S
C3 C7 1.373 . S
C3 C9 1.505 . S
C4 C3 1.379 . S
C4 C6 1.369 . S
C4 H32 0.930 . S
C5 C7 1.383 . S
C5 C8 1.382 . S
C5 H33 0.930 . S
C6 C4 1.369 . S
C6 C8 1.392 . S
C6 H34 0.930 . S
C7 C3 1.373 . S
C7 C5 1.383 . S
C7 H35 0.931 . S
C8 C5 1.382 . S
C8 C6 1.392 . S
C9 Eu0 2.828 . S
C9 C3 1.505 . S
C9 O21 1.249 . S
C9 O22 1.244 . S
O10 Eu1 2.373 . S
O10 C12 1.258 . S
O11 Eu0 2.392 . S
O11 C12 1.242 1_554 S
C12 O10 1.258 . S
C12 O11 1.242 1_556 S
O13 Eu0 2.418 . S
O13 C17 1.244 . S
O14 Eu1 2.488 . S
O14 C30 1.249 . S
O15 Eu1 2.471 . S
O15 C30 1.244 . S
O16 Eu1 2.349 1_554 S
O16 C17 1.265 . S
C17 O13 1.244 . S
C17 O16 1.265 . S
O18 Eu0 2.373 . S
O18 C31 1.258 . S
O19 Eu1 2.392 1_554 S
O19 C31 1.242 . S
O20 Eu1 2.418 1_554 S
O20 C2 1.244 . S
O21 Eu0 2.488 . S
O21 C9 1.249 . S
O22 Eu0 2.471 . S
O22 C9 1.244 . S
O23 Eu0 2.349 . S
O23 C2 1.265 . S
C24 C25 1.379 . S
C24 C28 1.373 . S
C24 C30 1.505 . S
C25 C24 1.379 . S
C25 C27 1.369 . S
C25 H36 0.930 . S
C26 C28 1.383 . S
C26 C29 1.382 . S
C26 H37 0.930 . S
C27 C25 1.369 . S
C27 C29 1.392 . S
C27 H38 0.930 . S
C28 C24 1.373 . S
C28 C26 1.383 . S
C28 H39 0.931 . S
C29 C26 1.382 . S
C29 C27 1.392 . S
C30 Eu1 2.828 . S
C30 O14 1.249 . S
C30 O15 1.244 . S
C30 C24 1.505 . S
C31 O18 1.258 . S
C31 O19 1.242 . S
H32 C4 0.930 . S
H33 C5 0.930 . S
H34 C6 0.930 . S
H35 C7 0.931 . S
H36 C25 0.930 . S
H37 C26 0.930 . S
H38 C27 0.930 . S
H39 C28 0.931 . S
Eu40 C49 2.828 . S
Eu40 O51 2.392 . S
Eu40 O53 2.418 . S
Eu40 O58 2.373 . S
Eu40 O61 2.488 . S
Eu40 O62 2.471 . S
Eu40 O63 2.349 . S
Eu41 O50 2.373 . S
Eu41 O54 2.488 . S
Eu41 O55 2.471 . S
Eu41 O56 2.349 . S
Eu41 O59 2.392 . S
Eu41 O60 2.418 . S
Eu41 C70 2.828 . S
C42 O60 1.244 . S
C42 O63 1.265 . S
C43 C44 1.379 . S
C43 C47 1.373 . S
C43 C49 1.505 . S
C44 C43 1.379 . S
C44 C46 1.369 . S
C44 H72 0.930 . S
C45 C47 1.383 . S
C45 C48 1.382 . S
C45 H73 0.930 . S
C46 C44 1.369 . S
C46 C48 1.392 . S
C46 H74 0.930 . S
C47 C43 1.373 . S
C47 C45 1.383 . S
C47 H75 0.931 . S
C48 C45 1.382 . S
C48 C46 1.392 . S
C49 Eu40 2.828 . S
C49 C43 1.505 . S
C49 O61 1.249 . S
C49 O62 1.244 . S
O50 Eu41 2.373 . S
O50 C52 1.258 . S
O51 Eu40 2.392 . S
O51 C52 1.242 . S
C52 O50 1.258 . S
C52 O51 1.242 . S
O53 Eu40 2.418 . S
O53 C57 1.244 . S
O54 Eu41 2.488 . S
O54 C70 1.249 . S
O55 Eu41 2.471 . S
O55 C70 1.244 . S
O56 Eu41 2.349 . S
O56 C57 1.265 . S
C57 O53 1.244 . S
C57 O56 1.265 . S
O58 Eu40 2.373 . S
O58 C71 1.258 . S
O59 Eu41 2.392 . S
O59 C71 1.242 . S
O60 Eu41 2.418 . S
O60 C42 1.244 . S
O61 Eu40 2.488 . S
O61 C49 1.249 . S
O62 Eu40 2.471 . S
O62 C49 1.244 . S
O63 Eu40 2.349 . S
O63 C42 1.265 . S
C64 C65 1.379 . S
C64 C68 1.373 . S
C64 C70 1.505 . S
C65 C64 1.379 . S
C65 C67 1.369 . S
C65 H76 0.930 . S
C66 C68 1.383 . S
C66 C69 1.382 . S
C66 H77 0.930 . S
C67 C65 1.369 . S
C67 C69 1.392 . S
C67 H78 0.930 . S
C68 C64 1.373 . S
C68 C66 1.383 . S
C68 H79 0.931 . S
C69 C66 1.382 . S
C69 C67 1.392 . S
C70 Eu41 2.828 . S
C70 O54 1.249 . S
C70 O55 1.244 . S
C70 C64 1.505 . S
C71 O58 1.258 . S
C71 O59 1.242 . S
H72 C44 0.930 . S
H73 C45 0.930 . S
H74 C46 0.930 . S
H75 C47 0.931 . S
H76 C65 0.930 . S
H77 C66 0.930 . S
H78 C67 0.930 . S
H79 C68 0.931 . S
Eu80 C89 2.828 . S
Eu80 O91 2.392 . S
Eu80 O93 2.418 . S
Eu80 O98 2.373 . S
Eu80 O101 2.488 . S
Eu80 O102 2.471 . S
Eu80 O103 2.349 . S
Eu81 O90 2.373 . S
Eu81 O94 2.488 . S
Eu81 O95 2.471 . S
Eu81 O96 2.349 . S
Eu81 O99 2.392 . S
Eu81 O100 2.418 . S
Eu81 C110 2.828 . S
C82 O100 1.244 . S
C82 O103 1.265 . S
C83 C84 1.379 . S
C83 C87 1.373 . S
C83 C89 1.505 . S
C84 C83 1.379 . S
C84 C86 1.369 1_556 S
C84 H112 0.930 . S
C85 C87 1.383 1_554 S
C85 C88 1.382 . S
C85 H113 0.930 . S
C86 C84 1.369 1_554 S
C86 C88 1.392 . S
C86 H114 0.930 . S
C87 C83 1.373 . S
C87 C85 1.383 1_556 S
C87 H115 0.931 . S
C88 C85 1.382 . S
C88 C86 1.392 . S
C89 Eu80 2.828 . S
C89 C83 1.505 . S
C89 O101 1.249 . S
C89 O102 1.244 . S
O90 Eu81 2.373 . S
O90 C92 1.258 . S
O91 Eu80 2.392 . S
O91 C92 1.242 . S
C92 O90 1.258 . S
C92 O91 1.242 . S
O93 Eu80 2.418 . S
O93 C97 1.244 . S
O94 Eu81 2.488 . S
O94 C110 1.249 . S
O95 Eu81 2.471 . S
O95 C110 1.244 . S
O96 Eu81 2.349 . S
O96 C97 1.265 . S
C97 O93 1.244 . S
C97 O96 1.265 . S
O98 Eu80 2.373 . S
O98 C111 1.258 . S
O99 Eu81 2.392 . S
O99 C111 1.242 . S
O100 Eu81 2.418 . S
O100 C82 1.244 . S
O101 Eu80 2.488 . S
O101 C89 1.249 . S
O102 Eu80 2.471 . S
O102 C89 1.244 . S
O103 Eu80 2.349 . S
O103 C82 1.265 . S
C104 C105 1.379 . S
C104 C108 1.373 . S
C104 C110 1.505 . S
C105 C104 1.379 . S
C105 C107 1.369 . S
C105 H116 0.930 . S
C106 C108 1.383 . S
C106 C109 1.382 . S
C106 H117 0.930 . S
C107 C105 1.369 . S
C107 C109 1.392 . S
C107 H118 0.930 . S
C108 C104 1.373 . S
C108 C106 1.383 . S
C108 H119 0.931 . S
C109 C106 1.382 . S
C109 C107 1.392 . S
C110 Eu81 2.828 . S
C110 O94 1.249 . S
C110 O95 1.244 . S
C110 C104 1.505 . S
C111 O98 1.258 . S
C111 O99 1.242 . S
H112 C84 0.930 . S
H113 C85 0.930 . S
H114 C86 0.930 . S
H115 C87 0.931 . S
H116 C105 0.930 . S
H117 C106 0.930 . S
H118 C107 0.930 . S
H119 C108 0.931 . S
Eu120 C129 2.828 . S
Eu120 O131 2.392 . S
Eu120 O133 2.418 . S
Eu120 O138 2.373 . S
Eu120 O141 2.488 . S
Eu120 O142 2.471 . S
Eu120 O143 2.349 . S
Eu121 O130 2.373 . S
Eu121 O134 2.488 . S
Eu121 O135 2.471 . S
Eu121 O136 2.349 . S
Eu121 O139 2.392 . S
Eu121 O140 2.418 . S
Eu121 C150 2.828 . S
C122 O140 1.244 . S
C122 O143 1.265 . S
C123 C124 1.379 . S
C123 C127 1.373 . S
C123 C129 1.505 1_556 S
C124 C123 1.379 . S
C124 C126 1.369 . S
C124 H152 0.930 . S
C125 C127 1.383 . S
C125 C128 1.382 . S
C125 H153 0.930 . S
C126 C124 1.369 . S
C126 C128 1.392 . S
C126 H154 0.930 . S
C127 C123 1.373 . S
C127 C125 1.383 . S
C127 H155 0.931 . S
C128 C125 1.382 . S
C128 C126 1.392 . S
C129 Eu120 2.828 . S
C129 C123 1.505 1_554 S
C129 O141 1.249 . S
C129 O142 1.244 . S
O130 Eu121 2.373 . S
O130 C132 1.258 . S
O131 Eu120 2.392 . S
O131 C132 1.242 . S
C132 O130 1.258 . S
C132 O131 1.242 . S
O133 Eu120 2.418 . S
O133 C137 1.244 . S
O134 Eu121 2.488 . S
O134 C150 1.249 . S
O135 Eu121 2.471 . S
O135 C150 1.244 . S
O136 Eu121 2.349 . S
O136 C137 1.265 . S
C137 O133 1.244 . S
C137 O136 1.265 . S
O138 Eu120 2.373 . S
O138 C151 1.258 . S
O139 Eu121 2.392 . S
O139 C151 1.242 . S
O140 Eu121 2.418 . S
O140 C122 1.244 . S
O141 Eu120 2.488 . S
O141 C129 1.249 . S
O142 Eu120 2.471 . S
O142 C129 1.244 . S
O143 Eu120 2.349 . S
O143 C122 1.265 . S
C144 C145 1.379 . S
C144 C148 1.373 . S
C144 C150 1.505 . S
C145 C144 1.379 . S
C145 C147 1.369 . S
C145 H156 0.930 . S
C146 C148 1.383 . S
C146 C149 1.382 . S
C146 H157 0.930 . S
C147 C145 1.369 . S
C147 C149 1.392 . S
C147 H158 0.930 . S
C148 C144 1.373 . S
C148 C146 1.383 . S
C148 H159 0.931 . S
C149 C146 1.382 . S
C149 C147 1.392 . S
C150 Eu121 2.828 . S
C150 O134 1.249 . S
C150 O135 1.244 . S
C150 C144 1.505 . S
C151 O138 1.258 . S
C151 O139 1.242 . S
H152 C124 0.930 . S
H153 C125 0.930 . S
H154 C126 0.930 . S
H155 C127 0.931 . S
H156 C145 0.930 . S
H157 C146 0.930 . S
H158 C147 0.930 . S
H159 C148 0.931 . S
Eu160 C169 2.828 . S
Eu160 O171 2.392 . S
Eu160 O173 2.418 . S
Eu160 O178 2.373 . S
Eu160 O181 2.488 . S
Eu160 O182 2.471 . S
Eu160 O183 2.349 . S
Eu161 O170 2.373 . S
Eu161 O174 2.488 . S
Eu161 O175 2.471 . S
Eu161 O176 2.349 . S
Eu161 O179 2.392 . S
Eu161 O180 2.418 . S
Eu161 C190 2.828 . S
C162 O180 1.244 . S
C162 O183 1.265 . S
C163 C164 1.379 . S
C163 C167 1.373 . S
C163 C169 1.505 . S
C164 C163 1.379 . S
C164 C166 1.369 . S
C164 H192 0.930 . S
C165 C167 1.383 . S
C165 C168 1.382 . S
C165 H193 0.930 . S
C166 C164 1.369 . S
C166 C168 1.392 . S
C166 H194 0.930 . S
C167 C163 1.373 . S
C167 C165 1.383 . S
C167 H195 0.931 . S
C168 C165 1.382 . S
C168 C166 1.392 . S
C169 Eu160 2.828 . S
C169 C163 1.505 . S
C169 O181 1.249 . S
C169 O182 1.244 . S
O170 Eu161 2.373 . S
O170 C172 1.258 . S
O171 Eu160 2.392 . S
O171 C172 1.242 . S
C172 O170 1.258 . S
C172 O171 1.242 . S
O173 Eu160 2.418 . S
O173 C177 1.244 . S
O174 Eu161 2.488 . S
O174 C190 1.249 . S
O175 Eu161 2.471 . S
O175 C190 1.244 . S
O176 Eu161 2.349 . S
O176 C177 1.265 . S
C177 O173 1.244 . S
C177 O176 1.265 . S
O178 Eu160 2.373 . S
O178 C191 1.258 . S
O179 Eu161 2.392 . S
O179 C191 1.242 . S
O180 Eu161 2.418 . S
O180 C162 1.244 . S
O181 Eu160 2.488 . S
O181 C169 1.249 . S
O182 Eu160 2.471 . S
O182 C169 1.244 . S
O183 Eu160 2.349 . S
O183 C162 1.265 . S
C184 C185 1.379 . S
C184 C188 1.373 . S
C184 C190 1.505 . S
C185 C184 1.379 . S
C185 C187 1.369 . S
C185 H196 0.930 . S
C186 C188 1.383 . S
C186 C189 1.382 . S
C186 H197 0.930 . S
C187 C185 1.369 . S
C187 C189 1.392 . S
C187 H198 0.930 . S
C188 C184 1.373 . S
C188 C186 1.383 . S
C188 H199 0.931 . S
C189 C186 1.382 . S
C189 C187 1.392 . S
C190 Eu161 2.828 . S
C190 O174 1.249 . S
C190 O175 1.244 . S
C190 C184 1.505 . S
C191 O178 1.258 . S
C191 O179 1.242 . S
H192 C164 0.930 . S
H193 C165 0.930 . S
H194 C166 0.930 . S
H195 C167 0.931 . S
H196 C185 0.930 . S
H197 C186 0.930 . S
H198 C187 0.930 . S
H199 C188 0.931 . S
Eu200 C209 2.828 . S
Eu200 O211 2.392 . S
Eu200 O213 2.418 . S
Eu200 O218 2.373 . S
Eu200 O221 2.488 . S
Eu200 O222 2.471 . S
Eu200 O223 2.349 . S
Eu201 O210 2.373 . S
Eu201 O214 2.488 1_556 S
Eu201 O215 2.471 1_556 S
Eu201 O216 2.349 . S
Eu201 O219 2.392 . S
Eu201 O220 2.418 . S
Eu201 C230 2.828 1_556 S
C202 O220 1.244 . S
C202 O223 1.265 . S
C203 C204 1.379 . S
C203 C207 1.373 . S
C203 C209 1.505 . S
C204 C203 1.379 . S
C204 C206 1.369 . S
C204 H232 0.930 . S
C205 C207 1.383 . S
C205 C208 1.382 . S
C205 H233 0.930 . S
C206 C204 1.369 . S
C206 C208 1.392 . S
C206 H234 0.930 . S
C207 C203 1.373 . S
C207 C205 1.383 . S
C207 H235 0.931 . S
C208 C205 1.382 . S
C208 C206 1.392 . S
C209 Eu200 2.828 . S
C209 C203 1.505 . S
C209 O221 1.249 . S
C209 O222 1.244 . S
O210 Eu201 2.373 . S
O210 C212 1.258 . S
O211 Eu200 2.392 . S
O211 C212 1.242 . S
C212 O210 1.258 . S
C212 O211 1.242 . S
O213 Eu200 2.418 . S
O213 C217 1.244 . S
O214 Eu201 2.488 1_554 S
O214 C230 1.249 . S
O215 Eu201 2.471 1_554 S
O215 C230 1.244 . S
O216 Eu201 2.349 . S
O216 C217 1.265 . S
C217 O213 1.244 . S
C217 O216 1.265 . S
O218 Eu200 2.373 . S
O218 C231 1.258 . S
O219 Eu201 2.392 . S
O219 C231 1.242 . S
O220 Eu201 2.418 . S
O220 C202 1.244 . S
O221 Eu200 2.488 . S
O221 C209 1.249 . S
O222 Eu200 2.471 . S
O222 C209 1.244 . S
O223 Eu200 2.349 . S
O223 C202 1.265 . S
C224 C225 1.379 . S
C224 C228 1.373 . S
C224 C230 1.505 . S
C225 C224 1.379 . S
C225 C227 1.369 . S
C225 H236 0.930 . S
C226 C228 1.383 . S
C226 C229 1.382 . S
C226 H237 0.930 . S
C227 C225 1.369 . S
C227 C229 1.392 . S
C227 H238 0.930 . S
C228 C224 1.373 . S
C228 C226 1.383 . S
C228 H239 0.931 . S
C229 C226 1.382 . S
C229 C227 1.392 . S
C230 Eu201 2.828 1_554 S
C230 O214 1.249 . S
C230 O215 1.244 . S
C230 C224 1.505 . S
C231 O218 1.258 . S
C231 O219 1.242 . S
H232 C204 0.930 . S
H233 C205 0.930 . S
H234 C206 0.930 . S
H235 C207 0.931 . S
H236 C225 0.930 . S
H237 C226 0.930 . S
H238 C227 0.930 . S
H239 C228 0.931 . S
C240 C241 1.391 . S
C240 C242 1.394 . S
C240 H256 0.931 . S
C241 C240 1.391 . S
C241 C245 1.376 . S
C242 C240 1.394 . S
C242 C243 1.369 . S
C242 C246 1.531 1_556 S
C243 C242 1.369 . S
C243 C244 1.410 . S
C243 C251 1.503 . S
C244 C243 1.410 . S
C244 C245 1.392 . S
C244 C247 1.511 . S
C245 C241 1.376 . S
C245 C244 1.392 . S
C245 H257 0.929 . S
C246 C242 1.531 1_554 S
C246 H258 0.960 . S
C246 H259 0.962 . S
C246 H260 0.960 . S
C247 C244 1.511 . S
C247 H261 0.961 . S
C247 H262 0.961 . S
C247 H263 0.961 . S
C248 C249 1.370 1_556 S
C248 C250 1.363 . S
C248 H264 0.931 . S
C249 C248 1.370 1_554 S
C249 C253 1.408 . S
C250 C248 1.363 . S
C250 C251 1.370 . S
C250 C254 1.524 . S
C251 C243 1.503 . S
C251 C250 1.370 . S
C251 C252 1.403 . S
C252 C251 1.403 . S
C252 C253 1.404 1_556 S
C252 C255 1.539 1_556 S
C253 C249 1.408 . S
C253 C252 1.404 1_554 S
C253 H265 0.930 . S
C254 C250 1.524 . S
C254 H266 0.956 . S
C254 H267 0.961 . S
C254 H268 0.961 . S
C255 C252 1.539 1_554 S
C255 H269 0.958 . S
C255 H270 0.961 1_554 S
C255 H271 0.960 1_554 S
H256 C240 0.931 . S
H257 C245 0.929 . S
H258 C246 0.960 . S
H259 C246 0.962 . S
H260 C246 0.960 . S
H261 C247 0.961 . S
H262 C247 0.961 . S
H263 C247 0.961 . S
H264 C248 0.931 . S
H265 C253 0.930 . S
H266 C254 0.956 . S
H267 C254 0.961 . S
H268 C254 0.961 . S
H269 C255 0.958 . S
H270 C255 0.961 1_556 S
H271 C255 0.960 1_556 S
C272 C273 1.391 . S
C272 C274 1.394 . S
C272 H288 0.931 . S
C273 C272 1.391 . S
C273 C277 1.376 . S
C274 C272 1.394 . S
C274 C275 1.369 . S
C274 C278 1.531 . S
C275 C274 1.369 . S
C275 C276 1.410 1_455 S
C275 C283 1.503 1_455 S
C276 C275 1.410 1_655 S
C276 C277 1.392 1_655 S
C276 C279 1.511 . S
C277 C273 1.376 . S
C277 C276 1.392 1_455 S
C277 H289 0.929 1_455 S
C278 C274 1.531 . S
C278 H290 0.960 . S
C278 H291 0.962 . S
C278 H292 0.960 . S
C279 C276 1.511 . S
C279 H293 0.961 . S
C279 H294 0.961 . S
C279 H295 0.961 . S
C280 C281 1.370 . S
C280 C282 1.363 . S
C280 H296 0.931 . S
C281 C280 1.370 . S
C281 C285 1.408 . S
C282 C280 1.363 . S
C282 C283 1.370 . S
C282 C286 1.524 . S
C283 C275 1.503 1_655 S
C283 C282 1.370 . S
C283 C284 1.409 1_655 S
C284 C283 1.409 1_455 S
C284 C285 1.394 1_455 S
C284 C287 1.542 . S
C285 C281 1.408 . S
C285 C284 1.394 1_655 S
C285 H297 0.930 . S
C286 C282 1.524 . S
C286 H298 0.956 . S
C286 H299 0.961 . S
C286 H300 0.961 . S
C287 C284 1.542 . S
C287 H301 0.958 . S
C287 H302 0.961 . S
C287 H303 0.960 . S
H288 C272 0.931 . S
H289 C277 0.929 1_655 S
H290 C278 0.960 . S
H291 C278 0.962 . S
H292 C278 0.960 . S
H293 C279 0.961 . S
H294 C279 0.961 . S
H295 C279 0.961 . S
H296 C280 0.931 . S
H297 C285 0.930 . S
H298 C286 0.956 . S
H299 C286 0.961 . S
H300 C286 0.961 . S
H301 C287 0.958 . S
H302 C287 0.961 . S
H303 C287 0.960 . S
C304 C305 1.391 . S
C304 C306 1.394 . S
C304 H320 0.931 . S
C305 C304 1.391 . S
C305 C309 1.376 . S
C306 C304 1.394 . S
C306 C307 1.369 . S
C306 C310 1.531 . S
C307 C306 1.369 . S
C307 C308 1.410 . S
C307 C315 1.503 1_545 S
C308 C307 1.410 . S
C308 C309 1.392 . S
C308 C311 1.511 . S
C309 C305 1.376 . S
C309 C308 1.392 . S
C309 H321 0.929 . S
C310 C306 1.531 . S
C310 H322 0.960 1_545 S
C310 H323 0.962 . S
C310 H324 0.960 . S
C311 C308 1.511 . S
C311 H325 0.961 . S
C311 H326 0.961 . S
C311 H327 0.961 . S
C312 C313 1.370 . S
C312 C314 1.363 . S
C312 H328 0.931 . S
C313 C312 1.370 . S
C313 C317 1.408 . S
C314 C312 1.363 . S
C314 C315 1.370 . S
C314 C318 1.524 1_565 S
C315 C307 1.503 1_565 S
C315 C314 1.370 . S
C315 C316 1.403 . S
C316 C315 1.403 . S
C316 C317 1.404 . S
C316 C319 1.539 . S
C317 C313 1.408 . S
C317 C316 1.404 . S
C317 H329 0.930 . S
C318 C314 1.524 1_545 S
C318 H330 0.956 . S
C318 H331 0.961 . S
C318 H332 0.961 1_545 S
C319 C316 1.539 . S
C319 H333 0.958 . S
C319 H334 0.961 . S
C319 H335 0.960 . S
H320 C304 0.931 . S
H321 C309 0.929 . S
H322 C310 0.960 1_565 S
H323 C310 0.962 . S
H324 C310 0.960 . S
H325 C311 0.961 . S
H326 C311 0.961 . S
H327 C311 0.961 . S
H328 C312 0.931 . S
H329 C317 0.930 . S
H330 C318 0.956 . S
H331 C318 0.961 . S
H332 C318 0.961 1_565 S
H333 C319 0.958 . S
H334 C319 0.961 . S
H335 C319 0.960 . S
C336 C337 1.391 . S
C336 C338 1.394 . S
C336 H352 0.931 . S
C337 C336 1.391 . S
C337 C341 1.376 . S
C338 C336 1.394 . S
C338 C339 1.369 . S
C338 C342 1.531 . S
C339 C338 1.369 . S
C339 C340 1.410 . S
C339 C347 1.503 . S
C340 C339 1.410 . S
C340 C341 1.392 . S
C340 C343 1.511 . S
C341 C337 1.376 . S
C341 C340 1.392 . S
C341 H353 0.929 . S
C342 C338 1.531 . S
C342 H354 0.960 1_556 S
C342 H355 0.962 . S
C342 H356 0.960 . S
C343 C340 1.511 . S
C343 H357 0.961 . S
C343 H358 0.961 . S
C343 H359 0.961 . S
C344 C345 1.370 . S
C344 C346 1.363 . S
C344 H360 0.931 . S
C345 C344 1.370 . S
C345 C349 1.408 . S
C346 C344 1.363 . S
C346 C347 1.370 1_554 S
C346 C350 1.524 1_554 S
C347 C339 1.503 . S
C347 C346 1.370 1_556 S
C347 C348 1.403 1_556 S
C348 C347 1.403 1_554 S
C348 C349 1.404 . S
C348 C351 1.539 1_554 S
C349 C345 1.408 . S
C349 C348 1.404 . S
C349 H361 0.930 . S
C350 C346 1.524 1_556 S
C350 H362 0.956 . S
C350 H363 0.961 . S
C350 H364 0.961 1_556 S
C351 C348 1.539 1_556 S
C351 H365 0.958 . S
C351 H366 0.961 . S
C351 H367 0.960 . S
H352 C336 0.931 . S
H353 C341 0.929 . S
H354 C342 0.960 1_554 S
H355 C342 0.962 . S
H356 C342 0.960 . S
H357 C343 0.961 . S
H358 C343 0.961 . S
H359 C343 0.961 . S
H360 C344 0.931 . S
H361 C349 0.930 . S
H362 C350 0.956 . S
H363 C350 0.961 . S
H364 C350 0.961 1_554 S
H365 C351 0.958 . S
H366 C351 0.961 . S
H367 C351 0.960 . S
C368 C369 1.391 . S
C368 C370 1.394 . S
C368 H384 0.931 . S
C369 C368 1.391 . S
C369 C373 1.376 . S
C370 C368 1.394 . S
C370 C371 1.369 . S
C370 C374 1.531 . S
C371 C370 1.369 . S
C371 C372 1.410 . S
C371 C379 1.503 1_455 S
C372 C371 1.410 . S
C372 C373 1.392 . S
C372 C375 1.511 . S
C373 C369 1.376 . S
C373 C372 1.392 . S
C373 H385 0.929 . S
C374 C370 1.531 . S
C374 H386 0.960 . S
C374 H387 0.962 . S
C374 H388 0.960 . S
C375 C372 1.511 . S
C375 H389 0.961 . S
C375 H390 0.961 1_455 S
C375 H391 0.961 1_455 S
C376 C377 1.370 . S
C376 C378 1.363 . S
C376 H392 0.931 . S
C377 C376 1.370 . S
C377 C381 1.408 . S
C378 C376 1.363 . S
C378 C379 1.370 . S
C378 C382 1.524 1_655 S
C379 C371 1.503 1_655 S
C379 C378 1.370 . S
C379 C380 1.403 . S
C380 C379 1.403 . S
C380 C381 1.404 . S
C380 C383 1.539 . S
C381 C377 1.408 . S
C381 C380 1.404 . S
C381 H393 0.930 . S
C382 C378 1.524 1_455 S
C382 H394 0.956 . S
C382 H395 0.961 . S
C382 H396 0.961 1_455 S
C383 C380 1.539 . S
C383 H397 0.958 . S
C383 H398 0.961 . S
C383 H399 0.960 . S
H384 C368 0.931 . S
H385 C373 0.929 . S
H386 C374 0.960 . S
H387 C374 0.962 . S
H388 C374 0.960 . S
H389 C375 0.961 . S
H390 C375 0.961 1_655 S
H391 C375 0.961 1_655 S
H392 C376 0.931 . S
H393 C381 0.930 . S
H394 C382 0.956 . S
H395 C382 0.961 . S
H396 C382 0.961 1_655 S
H397 C383 0.958 . S
H398 C383 0.961 . S
H399 C383 0.960 . S
C400 C401 1.391 . S
C400 C402 1.394 1_545 S
C400 H416 0.931 1_545 S
C401 C400 1.391 . S
C401 C405 1.376 . S
C402 C400 1.394 1_565 S
C402 C403 1.369 1_565 S
C402 C406 1.531 . S
C403 C402 1.369 1_545 S
C403 C404 1.410 . S
C403 C411 1.503 1_545 S
C404 C403 1.410 . S
C404 C405 1.392 . S
C404 C407 1.511 . S
C405 C401 1.376 . S
C405 C404 1.392 . S
C405 H417 0.929 . S
C406 C402 1.531 . S
C406 H418 0.960 . S
C406 H419 0.962 . S
C406 H420 0.960 . S
C407 C404 1.511 . S
C407 H421 0.961 . S
C407 H422 0.961 . S
C407 H423 0.961 . S
C408 C409 1.370 . S
C408 C410 1.362 1_565 S
C408 H424 0.931 . S
C409 C408 1.370 . S
C409 C413 1.408 . S
C410 C408 1.362 1_545 S
C410 C411 1.371 1_545 S
C410 C414 1.525 . S
C411 C403 1.503 1_565 S
C411 C410 1.371 1_565 S
C411 C412 1.403 . S
C412 C411 1.403 . S
C412 C413 1.404 . S
C412 C415 1.539 . S
C413 C409 1.408 . S
C413 C412 1.404 . S
C413 H425 0.930 . S
C414 C410 1.525 . S
C414 H426 0.956 . S
C414 H427 0.961 . S
C414 H428 0.961 . S
C415 C412 1.539 . S
C415 H429 0.958 . S
C415 H430 0.961 . S
C415 H431 0.960 . S
H416 C400 0.931 1_565 S
H417 C405 0.929 . S
H418 C406 0.960 . S
H419 C406 0.962 . S
H420 C406 0.960 . S
H421 C407 0.961 . S
H422 C407 0.961 . S
H423 C407 0.961 . S
H424 C408 0.931 . S
H425 C413 0.930 . S
H426 C414 0.956 . S
H427 C414 0.961 . S
H428 C414 0.961 . S
H429 C415 0.958 . S
H430 C415 0.961 . S
H431 C415 0.960 . S
C432 C433 1.391 . S
C432 C434 1.394 . S
C432 H448 0.931 . S
C433 C432 1.391 . S
C433 C437 1.376 . S
C434 C432 1.394 . S
C434 C435 1.369 . S
C434 C438 1.531 . S
C435 C434 1.369 . S
C435 C436 1.410 . S
C435 C443 1.503 . S
C436 C435 1.410 . S
C436 C437 1.392 . S
C436 C439 1.511 . S
C437 C433 1.376 . S
C437 C436 1.392 . S
C437 H449 0.929 . S
C438 C434 1.531 . S
C438 H450 0.960 . S
C438 H451 0.962 . S
C438 H452 0.960 . S
C439 C436 1.511 . S
C439 H453 0.961 . S
C439 H454 0.961 . S
C439 H455 0.961 . S
C440 C441 1.370 . S
C440 C442 1.363 . S
C440 H456 0.931 . S
C441 C440 1.370 . S
C441 C445 1.408 . S
C442 C440 1.363 . S
C442 C443 1.370 . S
C442 C446 1.524 . S
C443 C435 1.503 . S
C443 C442 1.370 . S
C443 C444 1.403 . S
C444 C443 1.403 . S
C444 C445 1.404 . S
C444 C447 1.539 . S
C445 C441 1.408 . S
C445 C444 1.404 . S
C445 H457 0.930 . S
C446 C442 1.524 . S
C446 H458 0.956 . S
C446 H459 0.961 . S
C446 H460 0.961 . S
C447 C444 1.539 . S
C447 H461 0.958 . S
C447 H462 0.961 . S
C447 H463 0.960 . S
H448 C432 0.931 . S
H449 C437 0.929 . S
H450 C438 0.960 . S
H451 C438 0.962 . S
H452 C438 0.960 . S
H453 C439 0.961 . S
H454 C439 0.961 . S
H455 C439 0.961 . S
H456 C440 0.931 . S
H457 C445 0.930 . S
H458 C446 0.956 . S
H459 C446 0.961 . S
H460 C446 0.961 . S
H461 C447 0.958 . S
H462 C447 0.961 . S
H463 C447 0.960 . S
C464 C465 1.391 . S
C464 C466 1.394 . S
C464 H480 0.931 . S
C465 C464 1.391 . S
C465 C469 1.376 . S
C466 C464 1.394 . S
C466 C467 1.369 . S
C466 C470 1.531 . S
C467 C466 1.369 . S
C467 C468 1.410 . S
C467 C475 1.503 . S
C468 C467 1.410 . S
C468 C469 1.392 . S
C468 C471 1.511 . S
C469 C465 1.376 . S
C469 C468 1.392 . S
C469 H481 0.929 . S
C470 C466 1.531 . S
C470 H482 0.960 1_554 S
C470 H483 0.962 . S
C470 H484 0.960 . S
C471 C468 1.511 . S
C471 H485 0.961 . S
C471 H486 0.961 . S
C471 H487 0.961 . S
C472 C473 1.370 . S
C472 C474 1.363 . S
C472 H488 0.931 . S
C473 C472 1.370 . S
C473 C477 1.408 . S
C474 C472 1.363 . S
C474 C475 1.370 1_556 S
C474 C478 1.524 1_556 S
C475 C467 1.503 . S
C475 C474 1.370 1_554 S
C475 C476 1.403 1_554 S
C476 C475 1.403 1_556 S
C476 C477 1.404 . S
C476 C479 1.539 1_556 S
C477 C473 1.408 . S
C477 C476 1.404 . S
C477 H489 0.930 . S
C478 C474 1.524 1_554 S
C478 H490 0.956 . S
C478 H491 0.961 . S
C478 H492 0.961 1_554 S
C479 C476 1.539 1_554 S
C479 H493 0.958 . S
C479 H494 0.961 1_554 S
C479 H495 0.960 . S
H480 C464 0.931 . S
H481 C469 0.929 . S
H482 C470 0.960 1_556 S
H483 C470 0.962 . S
H484 C470 0.960 . S
H485 C471 0.961 . S
H486 C471 0.961 . S
H487 C471 0.961 . S
H488 C472 0.931 . S
H489 C477 0.930 . S
H490 C478 0.956 . S
H491 C478 0.961 . S
H492 C478 0.961 1_556 S
H493 C479 0.958 . S
H494 C479 0.961 1_556 S
H495 C479 0.960 . S
C496 C497 1.391 . S
C496 C498 1.394 . S
C496 H512 0.931 . S
C497 C496 1.391 . S
C497 C501 1.376 . S
C498 C496 1.394 . S
C498 C499 1.369 . S
C498 C502 1.531 . S
C499 C498 1.369 . S
C499 C500 1.410 . S
C499 C507 1.503 . S
C500 C499 1.410 . S
C500 C501 1.392 . S
C500 C503 1.511 . S
C501 C497 1.376 . S
C501 C500 1.392 . S
C501 H513 0.929 . S
C502 C498 1.531 . S
C502 H514 0.960 . S
C502 H515 0.962 . S
C502 H516 0.960 . S
C503 C500 1.511 . S
C503 H517 0.961 . S
C503 H518 0.961 . S
C503 H519 0.961 . S
C504 C505 1.370 . S
C504 C506 1.363 . S
C504 H520 0.931 . S
C505 C504 1.370 . S
C505 C509 1.408 . S
C506 C504 1.363 . S
C506 C507 1.370 . S
C506 C510 1.524 . S
C507 C499 1.503 . S
C507 C506 1.370 . S
C507 C508 1.403 . S
C508 C507 1.403 . S
C508 C509 1.404 . S
C508 C511 1.539 . S
C509 C505 1.408 . S
C509 C508 1.404 . S
C509 H521 0.930 . S
C510 C506 1.524 . S
C510 H522 0.956 . S
C510 H523 0.961 . S
C510 H524 0.961 . S
C511 C508 1.539 . S
C511 H525 0.958 . S
C511 H526 0.961 . S
C511 H527 0.960 . S
H512 C496 0.931 . S
H513 C501 0.929 . S
H514 C502 0.960 . S
H515 C502 0.962 . S
H516 C502 0.960 . S
H517 C503 0.961 . S
H518 C503 0.961 . S
H519 C503 0.961 . S
H520 C504 0.931 . S
H521 C509 0.930 . S
H522 C510 0.956 . S
H523 C510 0.961 . S
H524 C510 0.961 . S
H525 C511 0.958 . S
H526 C511 0.961 . S
H527 C511 0.960 . S
C528 C529 1.391 . S
C528 C530 1.394 . S
C528 H544 0.931 . S
C529 C528 1.391 . S
C529 C533 1.376 . S
C530 C528 1.394 . S
C530 C531 1.369 . S
C530 C534 1.531 . S
C531 C530 1.369 . S
C531 C532 1.410 . S
C531 C539 1.503 . S
C532 C531 1.410 . S
C532 C533 1.392 . S
C532 C535 1.511 . S
C533 C529 1.376 . S
C533 C532 1.392 . S
C533 H545 0.929 . S
C534 C530 1.531 . S
C534 H546 0.960 . S
C534 H547 0.962 . S
C534 H548 0.960 . S
C535 C532 1.511 . S
C535 H549 0.961 . S
C535 H550 0.961 . S
C535 H551 0.961 . S
C536 C537 1.370 . S
C536 C538 1.363 . S
C536 H552 0.931 . S
C537 C536 1.370 . S
C537 C541 1.408 . S
C538 C536 1.363 . S
C538 C539 1.370 . S
C538 C542 1.524 . S
C539 C531 1.503 . S
C539 C538 1.370 . S
C539 C540 1.403 . S
C540 C539 1.403 . S
C540 C541 1.404 . S
C540 C543 1.539 . S
C541 C537 1.408 . S
C541 C540 1.404 . S
C541 H553 0.930 . S
C542 C538 1.524 . S
C542 H554 0.956 . S
C542 H555 0.961 . S
C542 H556 0.961 . S
C543 C540 1.539 . S
C543 H557 0.958 . S
C543 H558 0.961 . S
C543 H559 0.960 . S
H544 C528 0.931 . S
H545 C533 0.929 . S
H546 C534 0.960 . S
H547 C534 0.962 . S
H548 C534 0.960 . S
H549 C535 0.961 . S
H550 C535 0.961 . S
H551 C535 0.961 . S
H552 C536 0.931 . S
H553 C541 0.930 . S
H554 C542 0.956 . S
H555 C542 0.961 . S
H556 C542 0.961 . S
H557 C543 0.958 . S
H558 C543 0.961 . S
H559 C543 0.960 . S
C560 C561 1.391 . S
C560 C562 1.394 . S
C560 H576 0.931 . S
C561 C560 1.391 . S
C561 C565 1.376 . S
C562 C560 1.394 . S
C562 C563 1.369 . S
C562 C566 1.531 . S
C563 C562 1.369 . S
C563 C564 1.410 . S
C563 C571 1.503 . S
C564 C563 1.410 . S
C564 C565 1.392 . S
C564 C567 1.511 . S
C565 C561 1.376 . S
C565 C564 1.392 . S
C565 H577 0.929 . S
C566 C562 1.531 . S
C566 H578 0.960 . S
C566 H579 0.962 . S
C566 H580 0.960 . S
C567 C564 1.511 . S
C567 H581 0.961 . S
C567 H582 0.961 . S
C567 H583 0.961 . S
C568 C569 1.370 1_556 S
C568 C570 1.363 . S
C568 H584 0.931 1_556 S
C569 C568 1.370 1_554 S
C569 C573 1.408 1_554 S
C570 C568 1.363 . S
C570 C571 1.370 . S
C570 C574 1.524 . S
C571 C563 1.503 . S
C571 C570 1.370 . S
C571 C572 1.403 . S
C572 C571 1.403 . S
C572 C573 1.404 . S
C572 C575 1.539 . S
C573 C569 1.408 1_556 S
C573 C572 1.404 . S
C573 H585 0.930 1_556 S
C574 C570 1.524 . S
C574 H586 0.956 . S
C574 H587 0.961 . S
C574 H588 0.961 . S
C575 C572 1.539 . S
C575 H589 0.958 . S
C575 H590 0.961 . S
C575 H591 0.960 . S
H576 C560 0.931 . S
H577 C565 0.929 . S
H578 C566 0.960 . S
H579 C566 0.962 . S
H580 C566 0.960 . S
H581 C567 0.961 . S
H582 C567 0.961 . S
H583 C567 0.961 . S
H584 C568 0.931 1_554 S
H585 C573 0.930 1_554 S
H586 C574 0.956 . S
H587 C574 0.961 . S
H588 C574 0.961 . S
H589 C575 0.958 . S
H590 C575 0.961 . S
H591 C575 0.960 . S
C592 C593 1.391 . S
C592 C594 1.394 . S
C592 H608 0.931 . S
C593 C592 1.391 . S
C593 C597 1.376 . S
C594 C592 1.394 . S
C594 C595 1.369 . S
C594 C598 1.531 . S
C595 C594 1.369 . S
C595 C596 1.410 . S
C595 C603 1.503 . S
C596 C595 1.410 . S
C596 C597 1.392 . S
C596 C599 1.511 . S
C597 C593 1.376 . S
C597 C596 1.392 . S
C597 H609 0.929 . S
C598 C594 1.531 . S
C598 H610 0.960 . S
C598 H611 0.962 . S
C598 H612 0.960 . S
C599 C596 1.511 . S
C599 H613 0.961 . S
C599 H614 0.961 . S
C599 H615 0.961 . S
C600 C601 1.370 . S
C600 C602 1.363 . S
C600 H616 0.931 . S
C601 C600 1.370 . S
C601 C605 1.408 . S
C602 C600 1.363 . S
C602 C603 1.370 . S
C602 C606 1.524 . S
C603 C595 1.503 . S
C603 C602 1.370 . S
C603 C604 1.403 . S
C604 C603 1.403 . S
C604 C605 1.404 . S
C604 C607 1.539 . S
C605 C601 1.408 . S
C605 C604 1.404 . S
C605 H617 0.930 . S
C606 C602 1.524 . S
C606 H618 0.956 . S
C606 H619 0.961 . S
C606 H620 0.961 . S
C607 C604 1.539 . S
C607 H621 0.958 . S
C607 H622 0.961 . S
C607 H623 0.960 . S
H608 C592 0.931 . S
H609 C597 0.929 . S
H610 C598 0.960 . S
H611 C598 0.962 . S
H612 C598 0.960 . S
H613 C599 0.961 . S
H614 C599 0.961 . S
H615 C599 0.961 . S
H616 C600 0.931 . S
H617 C605 0.930 . S
H618 C606 0.956 . S
H619 C606 0.961 . S
H620 C606 0.961 . S
H621 C607 0.958 . S
H622 C607 0.961 . S
H623 C607 0.960 . S
C624 C625 1.391 . S
C624 C626 1.394 . S
C624 H640 0.931 . S
C625 C624 1.391 . S
C625 C629 1.376 . S
C626 C624 1.394 . S
C626 C627 1.369 . S
C626 C630 1.531 . S
C627 C626 1.369 . S
C627 C628 1.410 . S
C627 C635 1.503 . S
C628 C627 1.410 . S
C628 C629 1.392 . S
C628 C631 1.511 . S
C629 C625 1.376 . S
C629 C628 1.392 . S
C629 H641 0.929 . S
C630 C626 1.531 . S
C630 H642 0.960 . S
C630 H643 0.962 . S
C630 H644 0.960 . S
C631 C628 1.511 . S
C631 H645 0.961 . S
C631 H646 0.961 . S
C631 H647 0.961 . S
C632 C633 1.370 . S
C632 C634 1.363 . S
C632 H648 0.931 . S
C633 C632 1.370 . S
C633 C637 1.408 . S
C634 C632 1.363 . S
C634 C635 1.370 . S
C634 C638 1.524 . S
C635 C627 1.503 . S
C635 C634 1.370 . S
C635 C636 1.403 . S
C636 C635 1.403 . S
C636 C637 1.404 . S
C636 C639 1.539 . S
C637 C633 1.408 . S
C637 C636 1.404 . S
C637 H649 0.930 . S
C638 C634 1.524 . S
C638 H650 0.956 . S
C638 H651 0.961 . S
C638 H652 0.961 . S
C639 C636 1.539 . S
C639 H653 0.958 . S
C639 H654 0.961 . S
C639 H655 0.960 . S
H640 C624 0.931 . S
H641 C629 0.929 . S
H642 C630 0.960 . S
H643 C630 0.962 . S
H644 C630 0.960 . S
H645 C631 0.961 . S
H646 C631 0.961 . S
H647 C631 0.961 . S
H648 C632 0.931 . S
H649 C637 0.930 . S
H650 C638 0.956 . S
H651 C638 0.961 . S
H652 C638 0.961 . S
H653 C639 0.958 . S
H654 C639 0.961 . S
H655 C639 0.960 . S
C656 C657 1.391 . S
C656 C658 1.394 . S
C656 H672 0.931 . S
C657 C656 1.391 . S
C657 C661 1.376 . S
C658 C656 1.394 . S
C658 C659 1.369 . S
C658 C662 1.531 . S
C659 C658 1.369 . S
C659 C660 1.410 . S
C659 C667 1.503 . S
C660 C659 1.410 . S
C660 C661 1.392 . S
C660 C663 1.511 . S
C661 C657 1.376 . S
C661 C660 1.392 . S
C661 H673 0.929 . S
C662 C658 1.531 . S
C662 H674 0.960 . S
C662 H675 0.962 . S
C662 H676 0.960 . S
C663 C660 1.511 . S
C663 H677 0.961 . S
C663 H678 0.961 . S
C663 H679 0.961 . S
C664 C665 1.370 . S
C664 C666 1.363 . S
C664 H680 0.931 . S
C665 C664 1.370 . S
C665 C669 1.408 . S
C666 C664 1.363 . S
C666 C667 1.370 . S
C666 C670 1.524 . S
C667 C659 1.503 . S
C667 C666 1.370 . S
C667 C668 1.403 . S
C668 C667 1.403 . S
C668 C669 1.404 . S
C668 C671 1.539 . S
C669 C665 1.408 . S
C669 C668 1.404 . S
C669 H681 0.930 . S
C670 C666 1.524 . S
C670 H682 0.956 . S
C670 H683 0.961 . S
C670 H684 0.961 . S
C671 C668 1.539 . S
C671 H685 0.958 . S
C671 H686 0.961 . S
C671 H687 0.960 . S
H672 C656 0.931 . S
H673 C661 0.929 . S
H674 C662 0.960 . S
H675 C662 0.962 . S
H676 C662 0.960 . S
H677 C663 0.961 . S
H678 C663 0.961 . S
H679 C663 0.961 . S
H680 C664 0.931 . S
H681 C669 0.930 . S
H682 C670 0.956 . S
H683 C670 0.961 . S
H684 C670 0.961 . S
H685 C671 0.958 . S
H686 C671 0.961 . S
H687 C671 0.960 . S
C688 C689 1.391 . S
C688 C690 1.394 . S
C688 H704 0.931 . S
C689 C688 1.391 . S
C689 C693 1.376 . S
C690 C688 1.394 . S
C690 C691 1.369 . S
C690 C694 1.531 . S
C691 C690 1.369 . S
C691 C692 1.410 . S
C691 C699 1.503 . S
C692 C691 1.410 . S
C692 C693 1.392 . S
C692 C695 1.511 . S
C693 C689 1.376 . S
C693 C692 1.392 . S
C693 H705 0.929 . S
C694 C690 1.531 . S
C694 H706 0.960 . S
C694 H707 0.962 . S
C694 H708 0.960 . S
C695 C692 1.511 . S
C695 H709 0.961 . S
C695 H710 0.961 . S
C695 H711 0.961 . S
C696 C697 1.370 . S
C696 C698 1.363 . S
C696 H712 0.931 . S
C697 C696 1.370 . S
C697 C701 1.408 . S
C698 C696 1.363 . S
C698 C699 1.370 . S
C698 C702 1.524 . S
C699 C691 1.503 . S
C699 C698 1.370 . S
C699 C700 1.403 . S
C700 C699 1.403 . S
C700 C701 1.404 . S
C700 C703 1.539 . S
C701 C697 1.408 . S
C701 C700 1.404 . S
C701 H713 0.930 . S
C702 C698 1.524 . S
C702 H714 0.956 . S
C702 H715 0.961 . S
C702 H716 0.961 . S
C703 C700 1.539 . S
C703 H717 0.958 . S
C703 H718 0.961 . S
C703 H719 0.960 . S
H704 C688 0.931 . S
H705 C693 0.929 . S
H706 C694 0.960 . S
H707 C694 0.962 . S
H708 C694 0.960 . S
H709 C695 0.961 . S
H710 C695 0.961 . S
H711 C695 0.961 . S
H712 C696 0.931 . S
H713 C701 0.930 . S
H714 C702 0.956 . S
H715 C702 0.961 . S
H716 C702 0.961 . S
H717 C703 0.958 . S
H718 C703 0.961 . S
H719 C703 0.960 . S
C720 C721 1.391 . S
C720 C722 1.394 . S
C720 H736 0.931 . S
C721 C720 1.391 . S
C721 C725 1.376 . S
C722 C720 1.394 . S
C722 C723 1.369 . S
C722 C726 1.531 . S
C723 C722 1.369 . S
C723 C724 1.410 . S
C723 C731 1.503 . S
C724 C723 1.410 . S
C724 C725 1.392 . S
C724 C727 1.511 . S
C725 C721 1.376 . S
C725 C724 1.392 . S
C725 H737 0.929 . S
C726 C722 1.531 . S
C726 H738 0.960 . S
C726 H739 0.962 . S
C726 H740 0.960 . S
C727 C724 1.511 . S
C727 H741 0.961 . S
C727 H742 0.961 . S
C727 H743 0.961 . S
C728 C729 1.370 . S
C728 C730 1.363 . S
C728 H744 0.931 . S
C729 C728 1.370 . S
C729 C733 1.408 . S
C730 C728 1.363 . S
C730 C731 1.370 . S
C730 C734 1.524 . S
C731 C723 1.503 . S
C731 C730 1.370 . S
C731 C732 1.403 . S
C732 C731 1.403 . S
C732 C733 1.404 . S
C732 C735 1.539 . S
C733 C729 1.408 . S
C733 C732 1.404 . S
C733 H745 0.930 . S
C734 C730 1.524 . S
C734 H746 0.956 . S
C734 H747 0.961 . S
C734 H748 0.961 . S
C735 C732 1.539 . S
C735 H749 0.958 . S
C735 H750 0.961 . S
C735 H751 0.960 . S
H736 C720 0.931 . S
H737 C725 0.929 . S
H738 C726 0.960 . S
H739 C726 0.962 . S
H740 C726 0.960 . S
H741 C727 0.961 . S
H742 C727 0.961 . S
H743 C727 0.961 . S
H744 C728 0.931 . S
H745 C733 0.930 . S
H746 C734 0.956 . S
H747 C734 0.961 . S
H748 C734 0.961 . S
H749 C735 0.958 . S
H750 C735 0.961 . S
H751 C735 0.960 . S
C752 C753 1.391 . S
C752 C754 1.394 . S
C752 H768 0.931 . S
C753 C752 1.391 . S
C753 C757 1.376 . S
C754 C752 1.394 . S
C754 C755 1.369 . S
C754 C758 1.531 . S
C755 C754 1.369 . S
C755 C756 1.410 . S
C755 C763 1.503 . S
C756 C755 1.410 . S
C756 C757 1.392 . S
C756 C759 1.511 . S
C757 C753 1.376 . S
C757 C756 1.392 . S
C757 H769 0.929 . S
C758 C754 1.531 . S
C758 H770 0.960 . S
C758 H771 0.962 . S
C758 H772 0.960 . S
C759 C756 1.511 . S
C759 H773 0.961 . S
C759 H774 0.961 . S
C759 H775 0.961 . S
C760 C761 1.370 . S
C760 C762 1.363 . S
C760 H776 0.931 . S
C761 C760 1.370 . S
C761 C765 1.408 . S
C762 C760 1.363 . S
C762 C763 1.370 . S
C762 C766 1.524 . S
C763 C755 1.503 . S
C763 C762 1.370 . S
C763 C764 1.403 . S
C764 C763 1.403 . S
C764 C765 1.404 . S
C764 C767 1.539 . S
C765 C761 1.408 . S
C765 C764 1.404 . S
C765 H777 0.930 . S
C766 C762 1.524 . S
C766 H778 0.956 . S
C766 H779 0.961 . S
C766 H780 0.961 . S
C767 C764 1.539 . S
C767 H781 0.958 . S
C767 H782 0.961 . S
C767 H783 0.960 . S
H768 C752 0.931 . S
H769 C757 0.929 . S
H770 C758 0.960 . S
H771 C758 0.962 . S
H772 C758 0.960 . S
H773 C759 0.961 . S
H774 C759 0.961 . S
H775 C759 0.961 . S
H776 C760 0.931 . S
H777 C765 0.930 . S
H778 C766 0.956 . S
H779 C766 0.961 . S
H780 C766 0.961 . S
H781 C767 0.958 . S
H782 C767 0.961 . S
H783 C767 0.960 . S
C784 C785 1.391 . S
C784 C786 1.394 . S
C784 H800 0.931 . S
C785 C784 1.391 . S
C785 C789 1.376 . S
C786 C784 1.394 . S
C786 C787 1.369 . S
C786 C790 1.531 . S
C787 C786 1.369 . S
C787 C788 1.410 . S
C787 C795 1.503 . S
C788 C787 1.410 . S
C788 C789 1.392 . S
C788 C791 1.511 . S
C789 C785 1.376 . S
C789 C788 1.392 . S
C789 H801 0.929 . S
C790 C786 1.531 . S
C790 H802 0.960 1_554 S
C790 H803 0.962 . S
C790 H804 0.960 . S
C791 C788 1.511 . S
C791 H805 0.961 . S
C791 H806 0.961 . S
C791 H807 0.961 . S
C792 C793 1.370 1_554 S
C792 C794 1.363 . S
C792 H808 0.931 . S
C793 C792 1.370 1_556 S
C793 C797 1.408 . S
C794 C792 1.363 . S
C794 C795 1.370 . S
C794 C798 1.524 . S
C795 C787 1.503 . S
C795 C794 1.370 . S
C795 C796 1.403 1_554 S
C796 C795 1.403 1_556 S
C796 C797 1.404 . S
C796 C799 1.539 . S
C797 C793 1.408 . S
C797 C796 1.404 . S
C797 H809 0.930 . S
C798 C794 1.524 . S
C798 H810 0.956 . S
C798 H811 0.961 . S
C798 H812 0.961 . S
C799 C796 1.539 . S
C799 H813 0.958 . S
C799 H814 0.961 . S
C799 H815 0.960 . S
H800 C784 0.931 . S
H801 C789 0.929 . S
H802 C790 0.960 1_556 S
H803 C790 0.962 . S
H804 C790 0.960 . S
H805 C791 0.961 . S
H806 C791 0.961 . S
H807 C791 0.961 . S
H808 C792 0.931 . S
H809 C797 0.930 . S
H810 C798 0.956 . S
H811 C798 0.961 . S
H812 C798 0.961 . S
H813 C799 0.958 . S
H814 C799 0.961 . S
H815 C799 0.960 . S
C241 C217 1.337 . S
C249 C17 1.352 . S
C273 C31 1.649 . S
C281 C71 1.673 . S
C305 C57 1.366 . S
C313 C97 1.385 . S
C337 C111 1.659 . S
C345 C151 1.668 . S
C369 C177 1.330 . S
C377 C137 1.372 . S
C401 C231 1.695 . S
C409 C191 1.676 . S
C433 C29 1.149 . S
C441 C8 1.157 . S
C465 C48 1.140 . S
C473 C69 1.165 . S
C497 C109 1.182 . S
C505 C88 1.146 . S
C529 C128 1.184 . S
C537 C149 1.144 . S
C561 C168 1.161 . S
C569 C189 1.152 . S
C593 C208 1.155 . S
C601 C229 1.159 . S
C625 C2 1.858 . S
C633 C172 1.859 . S
C657 C52 1.850 . S
C665 C202 1.861 . S
C689 C12 1.851 . S
C697 C82 1.860 . S
C721 C42 1.852 . S
C729 C132 1.861 . S
C753 C162 1.854 . S
C761 C92 1.861 . S
C785 C122 1.852 . S
C793 C212 1.859 . S
