# Generated by pormake.
# Topology sme, (6)-cn, num edge types: 1
# Building blocks:
#     Node 0, Type 0, BuildingBlock: IZENUY_clean_sbu_0, # of connection points: 6
#     Node 1, Type 0, BuildingBlock: IZENUY_clean_sbu_0, # of connection points: 6
#     Node 2, Type 0, BuildingBlock: IZENUY_clean_sbu_0, # of connection points: 6
#     Node 3, Type 0, BuildingBlock: IZENUY_clean_sbu_0, # of connection points: 6
#     Node 4, Type 0, BuildingBlock: IZENUY_clean_sbu_0, # of connection points: 6
#     Node 5, Type 0, BuildingBlock: IZENUY_clean_sbu_0, # of connection points: 6
#     Node 6, Type 0, BuildingBlock: IZENUY_clean_sbu_0, # of connection points: 6
#     Node 7, Type 0, BuildingBlock: IZENUY_clean_sbu_0, # of connection points: 6
#     Node 8, Type 0, BuildingBlock: IZENUY_clean_sbu_0, # of connection points: 6
#     Node 9, Type 0, BuildingBlock: IZENUY_clean_sbu_0, # of connection points: 6
#     Node 10, Type 0, BuildingBlock: IZENUY_clean_sbu_0, # of connection points: 6
#     Node 11, Type 0, BuildingBlock: IZENUY_clean_sbu_0, # of connection points: 6
#     Node 12, Type 0, BuildingBlock: IZENUY_clean_sbu_0, # of connection points: 6
#     Node 13, Type 0, BuildingBlock: IZENUY_clean_sbu_0, # of connection points: 6
#     Node 14, Type 0, BuildingBlock: IZENUY_clean_sbu_0, # of connection points: 6
#     Node 15, Type 0, BuildingBlock: IZENUY_clean_sbu_0, # of connection points: 6
#     Node 16, Type 0, BuildingBlock: IZENUY_clean_sbu_0, # of connection points: 6
#     Node 17, Type 0, BuildingBlock: IZENUY_clean_sbu_0, # of connection points: 6
#     Edge 18, Type (0, 0), BuildingBlock: CIFDUS_clean_linker_0, # of connection points: 2
#     Edge 19, Type (0, 0), BuildingBlock: CIFDUS_clean_linker_0, # of connection points: 2
#     Edge 20, Type (0, 0), BuildingBlock: CIFDUS_clean_linker_0, # of connection points: 2
#     Edge 21, Type (0, 0), BuildingBlock: CIFDUS_clean_linker_0, # of connection points: 2
#     Edge 22, Type (0, 0), BuildingBlock: CIFDUS_clean_linker_0, # of connection points: 2
#     Edge 23, Type (0, 0), BuildingBlock: CIFDUS_clean_linker_0, # of connection points: 2
#     Edge 24, Type (0, 0), BuildingBlock: CIFDUS_clean_linker_0, # of connection points: 2
#     Edge 25, Type (0, 0), BuildingBlock: CIFDUS_clean_linker_0, # of connection points: 2
#     Edge 26, Type (0, 0), BuildingBlock: CIFDUS_clean_linker_0, # of connection points: 2
#     Edge 27, Type (0, 0), BuildingBlock: CIFDUS_clean_linker_0, # of connection points: 2
#     Edge 28, Type (0, 0), BuildingBlock: CIFDUS_clean_linker_0, # of connection points: 2
#     Edge 29, Type (0, 0), BuildingBlock: CIFDUS_clean_linker_0, # of connection points: 2
#     Edge 30, Type (0, 0), BuildingBlock: CIFDUS_clean_linker_0, # of connection points: 2
#     Edge 31, Type (0, 0), BuildingBlock: CIFDUS_clean_linker_0, # of connection points: 2
#     Edge 32, Type (0, 0), BuildingBlock: CIFDUS_clean_linker_0, # of connection points: 2
#     Edge 33, Type (0, 0), BuildingBlock: CIFDUS_clean_linker_0, # of connection points: 2
#     Edge 34, Type (0, 0), BuildingBlock: CIFDUS_clean_linker_0, # of connection points: 2
#     Edge 35, Type (0, 0), BuildingBlock: CIFDUS_clean_linker_0, # of connection points: 2
#     Edge 36, Type (0, 0), BuildingBlock: CIFDUS_clean_linker_0, # of connection points: 2
#     Edge 37, Type (0, 0), BuildingBlock: CIFDUS_clean_linker_0, # of connection points: 2
#     Edge 38, Type (0, 0), BuildingBlock: CIFDUS_clean_linker_0, # of connection points: 2
#     Edge 39, Type (0, 0), BuildingBlock: CIFDUS_clean_linker_0, # of connection points: 2
#     Edge 40, Type (0, 0), BuildingBlock: CIFDUS_clean_linker_0, # of connection points: 2
#     Edge 41, Type (0, 0), BuildingBlock: CIFDUS_clean_linker_0, # of connection points: 2
#     Edge 42, Type (0, 0), BuildingBlock: CIFDUS_clean_linker_0, # of connection points: 2
#     Edge 43, Type (0, 0), BuildingBlock: CIFDUS_clean_linker_0, # of connection points: 2
#     Edge 44, Type (0, 0), BuildingBlock: CIFDUS_clean_linker_0, # of connection points: 2
#     Edge 45, Type (0, 0), BuildingBlock: CIFDUS_clean_linker_0, # of connection points: 2
#     Edge 46, Type (0, 0), BuildingBlock: CIFDUS_clean_linker_0, # of connection points: 2
#     Edge 47, Type (0, 0), BuildingBlock: CIFDUS_clean_linker_0, # of connection points: 2
#     Edge 48, Type (0, 0), BuildingBlock: CIFDUS_clean_linker_0, # of connection points: 2
#     Edge 49, Type (0, 0), BuildingBlock: CIFDUS_clean_linker_0, # of connection points: 2
#     Edge 50, Type (0, 0), BuildingBlock: CIFDUS_clean_linker_0, # of connection points: 2
#     Edge 51, Type (0, 0), BuildingBlock: CIFDUS_clean_linker_0, # of connection points: 2
#     Edge 52, Type (0, 0), BuildingBlock: CIFDUS_clean_linker_0, # of connection points: 2
#     Edge 53, Type (0, 0), BuildingBlock: CIFDUS_clean_linker_0, # of connection points: 2
#     Edge 54, Type (0, 0), BuildingBlock: CIFDUS_clean_linker_0, # of connection points: 2
#     Edge 55, Type (0, 0), BuildingBlock: CIFDUS_clean_linker_0, # of connection points: 2
#     Edge 56, Type (0, 0), BuildingBlock: CIFDUS_clean_linker_0, # of connection points: 2
#     Edge 57, Type (0, 0), BuildingBlock: CIFDUS_clean_linker_0, # of connection points: 2
#     Edge 58, Type (0, 0), BuildingBlock: CIFDUS_clean_linker_0, # of connection points: 2
#     Edge 59, Type (0, 0), BuildingBlock: CIFDUS_clean_linker_0, # of connection points: 2
#     Edge 60, Type (0, 0), BuildingBlock: CIFDUS_clean_linker_0, # of connection points: 2
#     Edge 61, Type (0, 0), BuildingBlock: CIFDUS_clean_linker_0, # of connection points: 2
#     Edge 62, Type (0, 0), BuildingBlock: CIFDUS_clean_linker_0, # of connection points: 2
#     Edge 63, Type (0, 0), BuildingBlock: CIFDUS_clean_linker_0, # of connection points: 2
#     Edge 64, Type (0, 0), BuildingBlock: CIFDUS_clean_linker_0, # of connection points: 2
#     Edge 65, Type (0, 0), BuildingBlock: CIFDUS_clean_linker_0, # of connection points: 2
#     Edge 66, Type (0, 0), BuildingBlock: CIFDUS_clean_linker_0, # of connection points: 2
#     Edge 67, Type (0, 0), BuildingBlock: CIFDUS_clean_linker_0, # of connection points: 2
#     Edge 68, Type (0, 0), BuildingBlock: CIFDUS_clean_linker_0, # of connection points: 2
#     Edge 69, Type (0, 0), BuildingBlock: CIFDUS_clean_linker_0, # of connection points: 2
#     Edge 70, Type (0, 0), BuildingBlock: CIFDUS_clean_linker_0, # of connection points: 2
#     Edge 71, Type (0, 0), BuildingBlock: CIFDUS_clean_linker_0, # of connection points: 2
# Relax obj value: 0.119
# Max RMSD: 0.168
# Mean RMSD: 0.168
data_MOF--net-sme--node1-IZENUY_clean_sbu_0--edge1-CIFDUS_clean_linker_0
_symmetry_space_group_name_H-M    P1
_symmetry_Int_Tables_number       1
_symmetry_cell_setting            triclinic
loop_
_symmetry_equiv_pos_as_xyz
'x, y, z'
_cell_length_a     38.883908
_cell_length_b     38.978091
_cell_length_c     34.021296
_cell_angle_alpha  89.746867
_cell_angle_beta   90.438613
_cell_angle_gamma 119.77761
loop_
_atom_site_label
_atom_site_type_symbol
_atom_site_fract_x
_atom_site_fract_y
_atom_site_fract_z
_atom_type_partial_charge
Fe0 Fe 0.05255 0.31924 0.81612 0.0
Fe1 Fe 0.04955 0.24972 0.86285 0.0
O2 O 0.05076 0.27274 0.81701 0.0
Fe3 Fe 0.05031 0.24818 0.77269 0.0
O4 O 0.07955 0.29314 0.74225 0.0
O5 O 0.09455 0.342 0.78279 0.0
O6 O 0.08912 0.33917 0.8563 0.0
C7 C 0.10948 0.32576 0.87287 0.0
C8 C 0.99608 0.2732 0.757 0.0
O9 O 0.09778 0.28934 0.87529 0.0
C10 C 0.99543 0.18563 0.8225 0.0
O11 O 1.01055 0.30358 0.84931 0.0
O12 O 0.02656 0.27235 0.89227 0.0
O13 O 1.00483 0.24597 0.7566 0.0
O14 O 1.01668 0.30528 0.77568 0.0
C15 C 0.09934 0.23189 0.81779 0.0
O16 O 1.00086 0.20801 0.85164 0.0
O17 O 0.0191 0.19818 0.79349 0.0
C18 C 1.00852 0.29077 0.8837 0.0
O19 O 0.07395 0.22321 0.84455 0.0
O20 O 0.09658 0.24836 0.78651 0.0
C21 C 0.09795 0.32987 0.74959 0.0
Fe22 Fe 0.88178 0.89232 0.87135 0.0
Fe23 Fe 0.89096 0.88493 0.78336 0.0
O24 O 0.8631 0.86486 0.82696 0.0
Fe25 Fe 0.81774 0.81864 0.82551 0.0
O26 O 0.79183 0.83593 0.85743 0.0
O27 O 0.83797 0.89591 0.87668 0.0
O28 O 0.90367 0.94101 0.8468 0.0
C29 C 0.89559 0.95128 0.81402 0.0
C30 C 0.84311 0.8123 0.90089 0.0
O31 O 0.88368 0.92755 0.78522 0.0
C32 C 0.87374 0.80794 0.78128 0.0
O33 O 0.92841 0.89115 0.86876 0.0
O34 O 0.93907 0.9122 0.80802 0.0
O35 O 0.8309 0.79706 0.86733 0.0
O36 O 0.86161 0.84952 0.90474 0.0
C37 C 0.81259 0.84494 0.75069 0.0
O38 O 0.89968 0.84407 0.78021 0.0
O39 O 0.83847 0.79594 0.79287 0.0
C40 C 0.95178 0.90599 0.83999 0.0
O41 O 0.84975 0.86141 0.74802 0.0
O42 O 0.79663 0.83277 0.78377 0.0
C43 C 0.80226 0.86949 0.87243 0.0
Fe44 Fe 0.32168 0.0804 0.81137 0.0
Fe45 Fe 0.2544 0.08417 0.76811 0.0
O46 O 0.27657 0.082 0.81316 0.0
Fe47 Fe 0.2546 0.08055 0.85964 0.0
O48 O 0.30041 0.12212 0.88013 0.0
O49 O 0.33988 0.10086 0.86056 0.0
O50 O 0.34754 0.12978 0.79198 0.0
C51 C 0.33629 0.13961 0.76112 0.0
C52 C 0.27411 0.02016 0.86003 0.0
O53 O 0.30235 0.11757 0.74588 0.0
C54 C 0.18707 0.03257 0.81462 0.0
O55 O 0.31496 0.05898 0.76141 0.0
O56 O 0.25344 0.0403 0.74779 0.0
O57 O 0.26668 0.04364 0.8793 0.0
O58 O 0.29624 0.03141 0.83023 0.0
C59 C 0.24004 0.1347 0.81394 0.0
O60 O 0.20315 0.05179 0.78361 0.0
O61 O 0.20656 0.03889 0.84612 0.0
C62 C 0.28417 0.03819 0.74109 0.0
O63 O 0.25267 0.12786 0.78261 0.0
O64 O 0.23783 0.11603 0.84554 0.0
C65 C 0.33301 0.12235 0.88303 0.0
Fe66 Fe 0.06275 0.88382 0.20918 0.0
Fe67 Fe 0.06831 0.82214 0.26277 0.0
O68 O 0.06119 0.86393 0.25724 0.0
Fe69 Fe 0.05228 0.88415 0.30066 0.0
O70 O 1.01223 0.89093 0.28042 0.0
O71 O 0.02217 0.89314 0.2169 0.0
O72 O 0.02543 0.83398 0.19179 0.0
C73 C 1.00793 0.80013 0.20893 0.0
C74 C 0.10591 0.95266 0.25673 0.0
O75 O 0.02132 0.79184 0.23956 0.0
C76 C 0.11942 0.8744 0.31621 0.0
O77 O 0.10442 0.87956 0.18949 0.0
O78 O 0.09256 0.82454 0.21636 0.0
O79 O 0.08879 0.93426 0.28771 0.0
O80 O 0.09902 0.93532 0.22347 0.0
C81 C 0.01832 0.80772 0.32813 0.0
O82 O 0.11551 0.85314 0.28636 0.0
O83 O 0.09214 0.88131 0.32724 0.0
C84 C 0.10818 0.8494 0.18946 0.0
O85 O 0.04517 0.80486 0.3109 0.0
O86 O 1.0134 0.83653 0.32026 0.0
C87 C 1.00396 0.89618 0.24576 0.0
Fe88 Fe 0.23695 0.25891 0.20576 0.0
Fe89 Fe 0.3036 0.32607 0.2541 0.0
O90 O 0.25769 0.28052 0.25233 0.0
Fe91 Fe 0.23444 0.25781 0.29738 0.0
O92 O 0.21685 0.20616 0.28144 0.0
O93 O 0.23144 0.2115 0.21855 0.0
O94 O 0.28602 0.27097 0.18631 0.0
C95 C 0.31797 0.28011 0.20512 0.0
C96 C 0.16849 0.24301 0.25174 0.0
O97 O 0.3281 0.3015 0.23549 0.0
C98 C 0.25901 0.34002 0.30456 0.0
O99 O 0.24016 0.30417 0.1857 0.0
O100 O 0.30087 0.34375 0.20436 0.0
O101 O 0.18813 0.25439 0.28326 0.0
O102 O 0.18472 0.24211 0.21963 0.0
C103 C 0.31079 0.28988 0.32442 0.0
O104 O 0.27908 0.35093 0.2733 0.0
O105 O 0.24728 0.30593 0.31965 0.0
C106 C 0.27253 0.33586 0.18101 0.0
O107 O 0.31917 0.3203 0.30424 0.0
O108 O 0.27862 0.25856 0.31761 0.0
C109 C 0.21892 0.19094 0.24921 0.0
Fe110 Fe 0.86538 0.06326 0.29184 0.0
Fe111 Fe 0.79212 0.05434 0.24856 0.0
O112 O 0.84066 0.06009 0.24655 0.0
Fe113 Fe 0.86239 0.06248 0.19997 0.0
O114 O 0.87957 0.02714 0.2133 0.0
O115 O 0.87589 0.02484 0.27831 0.0
O116 O 0.81919 0.02342 0.31371 0.0
C117 C 0.78653 0.9975 0.29801 0.0
C118 C 0.93016 0.11629 0.24324 0.0
O119 O 0.77314 1.00472 0.26674 0.0
C120 C 0.83347 0.11755 0.20078 0.0
O121 O 0.85802 0.1031 0.31147 0.0
O122 O 0.79517 0.07236 0.29922 0.0
O123 O 0.90994 0.10419 0.21227 0.0
O124 O 0.91528 0.10186 0.27641 0.0
C125 C 0.78568 0.01901 0.17369 0.0
O126 O 0.81152 0.10357 0.23069 0.0
O127 O 0.84862 0.09938 0.18269 0.0
C128 C 0.82408 0.09783 0.31894 0.0
O129 O 0.77515 0.03567 0.19848 0.0
O130 O 0.81837 0.02042 0.17857 0.0
C131 C 0.8828 0.01328 0.2463 0.0
Fe132 Fe 0.70918 0.64772 0.14942 0.0
Fe133 Fe 0.7255 0.59363 0.20423 0.0
O134 O 0.71701 0.60634 0.15606 0.0
Fe135 Fe 0.71609 0.57891 0.11375 0.0
O136 O 0.75447 0.62294 0.08825 0.0
O137 O 0.72653 0.65878 0.09792 0.0
O138 O 0.75911 0.68073 0.16456 0.0
C139 C 0.77616 0.67677 0.19457 0.0
C140 C 0.65019 0.59071 0.10529 0.0
O141 O 0.76042 0.64587 0.21617 0.0
C142 C 0.67375 0.51823 0.16825 0.0
O143 O 0.69142 0.64899 0.19958 0.0
O144 O 0.68332 0.59482 0.22624 0.0
O145 O 0.67581 0.58336 0.09071 0.0
O146 O 0.65866 0.61494 0.13343 0.0
C147 C 0.77515 0.57485 0.16131 0.0
O148 O 0.69273 0.53975 0.19756 0.0
O149 O 0.67813 0.53244 0.13401 0.0
C150 C 0.67866 0.62454 0.22757 0.0
O151 O 0.7687 0.59022 0.19071 0.0
O152 O 0.755 0.56827 0.1301 0.0
C153 C 0.75089 0.65253 0.0792 0.0
Fe154 Fe 0.47943 0.14576 0.14713 0.0
Fe155 Fe 0.54235 0.21552 0.19577 0.0
O156 O 0.52423 0.1924 0.14911 0.0
Fe157 Fe 0.549 0.21431 0.10421 0.0
O158 O 0.50437 0.21063 0.08041 0.0
O159 O 0.46515 0.14923 0.09632 0.0
O160 O 0.45218 0.16904 0.16261 0.0
C161 C 0.46047 0.19095 0.19248 0.0
C162 C 0.52819 0.13311 0.10073 0.0
O163 O 0.49233 0.20242 0.21219 0.0
C164 C 0.6134 0.23238 0.15503 0.0
O165 O 0.48061 0.12962 0.19766 0.0
O166 O 0.5397 0.17131 0.21855 0.0
O167 O 0.53923 0.1665 0.08454 0.0
O168 O 0.50648 0.12203 0.13098 0.0
C169 C 0.56026 0.28166 0.14831 0.0
O170 O 0.59455 0.23253 0.18523 0.0
O171 O 0.59658 0.2214 0.12182 0.0
C172 C 0.50811 0.13867 0.22225 0.0
O173 O 0.54807 0.26297 0.18026 0.0
O174 O 0.56312 0.26507 0.11759 0.0
C175 C 0.47216 0.17873 0.07547 0.0
Fe176 Fe 0.91245 0.40365 0.19296 0.0
Fe177 Fe 0.92125 0.4159 0.102 0.0
O178 O 0.94003 0.41167 0.14869 0.0
Fe179 Fe 0.98786 0.4155 0.15037 0.0
O180 O 0.96594 0.36512 0.16536 0.0
O181 O 0.92462 0.36581 0.21009 0.0
O182 O 0.86701 0.36265 0.17317 0.0
C183 C 0.8505 0.3582 0.14013 0.0
C184 C 0.98751 0.44659 0.22617 0.0
O185 O 0.86924 0.37968 0.11127 0.0
C186 C 1.00142 0.47728 0.10382 0.0
O187 O 0.89542 0.43938 0.18035 0.0
O188 O 0.91395 0.45573 0.1185 0.0
O189 O 1.00042 0.43187 0.20152 0.0
O190 O 0.9539 0.44347 0.22067 0.0
C191 C 0.95896 0.37649 0.07719 0.0
O192 O 0.97011 0.45398 0.08494 0.0
O193 O 1.0111 0.46656 0.13514 0.0
C194 C 0.89883 0.45974 0.14963 0.0
O195 O 0.92632 0.3758 0.07999 0.0
O196 O 0.98733 0.39881 0.09963 0.0
C197 C 0.94125 0.34892 0.1927 0.0
Fe198 Fe 0.74105 0.23144 0.6254 0.0
Fe199 Fe 0.7357 0.15815 0.58565 0.0
O200 O 0.73617 0.20405 0.58193 0.0
Fe201 Fe 0.73129 0.22085 0.53454 0.0
O202 O 0.76547 0.27323 0.54418 0.0
O203 O 0.78263 0.27629 0.60646 0.0
O204 O 0.77814 0.22005 0.64674 0.0
C205 C 0.79881 0.20633 0.63158 0.0
C206 C 0.68466 0.24223 0.57893 0.0
O207 O 0.78652 0.18322 0.60227 0.0
C208 C 0.67255 0.14109 0.53873 0.0
O209 O 0.69972 0.18956 0.65043 0.0
O210 O 0.71799 0.14644 0.63672 0.0
O211 O 0.68931 0.22612 0.54887 0.0
O212 O 0.70559 0.24787 0.60976 0.0
C213 C 0.77307 0.18535 0.51117 0.0
O214 O 0.6849 0.1328 0.56982 0.0
O215 O 0.69508 0.17086 0.51785 0.0
C216 C 0.6983 0.1571 0.65768 0.0
O217 O 0.75293 0.15783 0.53517 0.0
O218 O 0.77326 0.21766 0.51442 0.0
C219 C 0.78664 0.29236 0.57331 0.0
Fe220 Fe 0.88825 0.58751 0.63137 0.0
Fe221 Fe 0.96171 0.65951 0.59637 0.0
O222 O 0.91825 0.61263 0.59034 0.0
Fe223 Fe 0.9041 0.58953 0.54343 0.0
O224 O 0.85672 0.58923 0.54431 0.0
O225 O 0.84212 0.56235 0.603 0.0
O226 O 0.87719 0.62647 0.6389 0.0
C227 C 0.90234 0.66259 0.64246 0.0
C228 C 0.88795 0.52572 0.59466 0.0
O229 O 0.93818 0.67678 0.63186 0.0
C230 C 0.98412 0.61532 0.54803 0.0
O231 O 0.92763 0.60833 0.66895 0.0
O232 O 0.98216 0.64236 0.63574 0.0
O233 O 0.88123 0.53879 0.563 0.0
O234 O 0.89768 0.54653 0.62551 0.0
C235 C 0.93887 0.6715 0.52247 0.0
O236 O 0.99105 0.64827 0.56212 0.0
O237 O 0.94936 0.58786 0.54086 0.0
C238 C 0.96498 0.62635 0.66748 0.0
O239 O 0.94727 0.68291 0.55772 0.0
O240 O 0.92558 0.63546 0.51409 0.0
C241 C 0.83177 0.5723 0.57157 0.0
Fe242 Fe 0.46102 0.39267 0.58424 0.0
Fe243 Fe 0.53392 0.39944 0.54164 0.0
O244 O 0.50856 0.39601 0.58647 0.0
Fe245 Fe 0.52913 0.39623 0.63352 0.0
O246 O 0.48113 0.35772 0.65184 0.0
O247 O 0.43815 0.34292 0.60253 0.0
O248 O 0.44752 0.37322 0.53389 0.0
C249 C 0.45844 0.35439 0.51215 0.0
C250 C 0.48908 0.43437 0.65683 0.0
O251 O 0.49136 0.35637 0.51899 0.0
C252 C 0.59702 0.45188 0.59012 0.0
O253 O 0.48409 0.44227 0.56633 0.0
O254 O 0.51952 0.43398 0.52022 0.0
O255 O 0.52229 0.43631 0.65362 0.0
O256 O 0.46133 0.41182 0.63396 0.0
C257 C 0.55296 0.35027 0.58999 0.0
O258 O 0.57964 0.44273 0.55722 0.0
O259 O 0.57983 0.43383 0.62129 0.0
C260 C 0.50764 0.45506 0.53756 0.0
O261 O 0.55304 0.36651 0.55747 0.0
O262 O 0.53921 0.35687 0.62077 0.0
C263 C 0.4492 0.33374 0.63404 0.0
Fe264 Fe 0.39306 0.92492 0.52848 0.0
Fe265 Fe 0.38315 0.9145 0.43773 0.0
O266 O 0.38388 0.93955 0.48161 0.0
Fe267 Fe 0.37557 0.98064 0.47793 0.0
O268 O 0.42571 0.01317 0.49389 0.0
O269 O 0.42466 0.97622 0.54435 0.0
O270 O 0.43822 0.92543 0.51298 0.0
C271 C 0.44439 0.91175 0.48194 0.0
C272 C 0.34352 0.95132 0.55424 0.0
O273 O 0.42209 0.90391 0.45228 0.0
C274 C 0.31699 0.92578 0.43184 0.0
O275 O 0.36316 0.87173 0.5187 0.0
O276 O 0.3451 0.86675 0.45624 0.0
O277 O 0.35728 0.97815 0.52845 0.0
O278 O 0.3492 0.92228 0.55099 0.0
C279 C 0.4178 0.98969 0.40733 0.0
O280 O 0.34314 0.92001 0.41606 0.0
O281 O 0.325 0.94834 0.46136 0.0
C282 C 0.34272 0.85129 0.4896 0.0
O283 O 0.42174 0.95999 0.41435 0.0
O284 O 0.39262 0.99407 0.42667 0.0
C285 C 0.44122 1.00814 0.52464 0.0
Fe286 Fe 0.21008 0.55128 0.5316 0.0
Fe287 Fe 0.22039 0.54799 0.44265 0.0
O288 O 0.19199 0.52655 0.48564 0.0
Fe289 Fe 0.14597 0.48126 0.48241 0.0
O290 O 0.12113 0.49635 0.51799 0.0
O291 O 0.16659 0.55624 0.53685 0.0
O292 O 0.23421 0.60137 0.51002 0.0
C293 C 0.22883 0.61452 0.47768 0.0
C294 C 0.17152 0.46922 0.555 0.0
O295 O 0.21617 0.5923 0.44778 0.0
C296 C 0.19879 0.46994 0.43436 0.0
O297 O 0.25636 0.54933 0.52862 0.0
O298 O 0.26863 0.57156 0.46801 0.0
O299 O 0.16024 0.45737 0.52032 0.0
O300 O 0.18819 0.50591 0.56274 0.0
C301 C 0.1413 0.51261 0.4107 0.0
O302 O 0.22637 0.5055 0.43546 0.0
O303 O 0.16421 0.45945 0.4465 0.0
C304 C 0.2806 0.56516 0.50049 0.0
O305 O 0.1785 0.52829 0.40766 0.0
O306 O 0.12524 0.499 0.44354 0.0
C307 C 0.13084 0.52991 0.53226 0.0
Fe308 Fe 0.6548 0.75206 0.48706 0.0
Fe309 Fe 0.5861 0.75628 0.44649 0.0
O310 O 0.60801 0.75031 0.49021 0.0
Fe311 Fe 0.58408 0.74222 0.53682 0.0
O312 O 0.62757 0.783 0.56074 0.0
O313 O 0.67134 0.76876 0.53816 0.0
O314 O 0.67914 0.80335 0.47145 0.0
C315 C 0.66789 0.81464 0.44148 0.0
C316 C 0.61051 0.68685 0.53189 0.0
O317 O 0.63376 0.79337 0.42638 0.0
C318 C 0.5183 0.69739 0.48834 0.0
O319 O 0.64961 0.73481 0.43541 0.0
O320 O 0.58809 0.71607 0.42046 0.0
O321 O 0.59885 0.70631 0.55221 0.0
O322 O 0.63176 0.70122 0.50178 0.0
C323 C 0.5682 0.79923 0.49996 0.0
O324 O 0.53482 0.72061 0.45971 0.0
O325 O 0.53739 0.70029 0.51954 0.0
C326 C 0.61957 0.7152 0.41361 0.0
O327 O 0.58161 0.79697 0.46693 0.0
O328 O 0.56522 0.77645 0.52805 0.0
C329 C 0.6608 0.78476 0.56413 0.0
Fe330 Fe 0.39091 0.5544 0.87522 0.0
Fe331 Fe 0.40177 0.49411 0.92689 0.0
O332 O 0.39813 0.53786 0.92203 0.0
Fe333 Fe 0.40146 0.56622 0.96409 0.0
O334 O 0.3516 0.55787 0.95629 0.0
O335 O 0.36217 0.57696 0.89467 0.0
O336 O 0.34478 0.50997 0.86902 0.0
C337 C 0.33731 0.47493 0.87436 0.0
C338 C 0.44439 0.62505 0.90711 0.0
O339 O 0.36094 0.46621 0.89196 0.0
C340 C 0.46271 0.55177 0.97697 0.0
O341 O 0.41596 0.53375 0.8454 0.0
O342 O 0.43947 0.50866 0.88837 0.0
O343 O 0.42364 0.61353 0.93792 0.0
O344 O 0.43764 0.60107 0.87921 0.0
C345 C 0.36381 0.48843 0.99767 0.0
O346 O 0.4429 0.51676 0.96323 0.0
O347 O 0.45075 0.57633 0.97382 0.0
C348 C 0.4369 0.51801 0.85326 0.0
O349 O 0.36419 0.47226 0.9658 0.0
O350 O 0.38165 0.52563 1.00001 0.0
C351 C 0.3422 0.57037 0.92603 0.0
Fe352 Fe 0.56491 0.91999 0.86599 0.0
Fe353 Fe 0.63305 0.99123 0.91113 0.0
O354 O 0.58595 0.9467 0.91047 0.0
Fe355 Fe 0.55882 0.9273 0.95459 0.0
O356 O 0.56184 0.88222 0.95042 0.0
O357 O 0.53994 0.87109 0.88957 0.0
O358 O 0.60639 0.91248 0.85948 0.0
C359 C 0.64275 0.93704 0.86355 0.0
C360 C 0.49785 0.91176 0.89951 0.0
O361 O 0.65552 0.97129 0.87796 0.0
C362 C 0.58265 1.00622 0.96006 0.0
O363 O 0.58699 0.96273 0.83295 0.0
O364 O 0.62075 0.01459 0.8703 0.0
O365 O 0.51004 0.90414 0.93107 0.0
O366 O 0.52072 0.92521 0.87019 0.0
C367 C 0.63786 0.96281 0.98521 0.0
O368 O 0.61613 0.0163 0.94486 0.0
O369 O 0.55469 0.97079 0.96088 0.0
C370 C 0.607 0.99979 0.83694 0.0
O371 O 0.65369 0.97546 0.9521 0.0
O372 O 0.60088 0.94698 0.98846 0.0
C373 C 0.54812 0.85926 0.92116 0.0
Fe374 Fe 0.2016 0.73519 0.87541 0.0
Fe375 Fe 0.19902 0.72858 0.96525 0.0
O376 O 0.17619 0.73088 0.92025 0.0
Fe377 Fe 0.12948 0.72956 0.91998 0.0
O378 O 0.10677 0.6908 0.88216 0.0
O379 O 0.15791 0.71061 0.84378 0.0
O380 O 0.19951 0.68798 0.88313 0.0
C381 C 0.21555 0.68143 0.91253 0.0
C382 C 0.17814 0.79068 0.86722 0.0
O383 O 0.22269 0.70198 0.94358 0.0
C384 C 0.16039 0.77131 0.99036 0.0
O385 O 0.25154 0.76238 0.89664 0.0
O386 O 0.24283 0.77687 0.95648 0.0
O387 O 0.14502 0.76876 0.88337 0.0
O388 O 0.2053 0.782 0.86548 0.0
C389 C 0.12107 0.6706 0.97524 0.0
O390 O 0.17939 0.75331 0.99694 0.0
O391 O 0.14461 0.76849 0.95711 0.0
C392 C 0.26445 0.78453 0.92644 0.0
O393 O 0.15744 0.68105 0.97679 0.0
O394 O 0.10809 0.69041 0.95703 0.0
C395 C 0.12102 0.69129 0.84877 0.0
H396 H 0.19755 0.14891 0.86948 0.0
H397 H 0.24144 0.17971 0.75106 0.0
H398 H 0.20369 0.21372 0.74143 0.0
H399 H 0.1534 0.23071 0.76483 0.0
H400 H 0.11141 0.20034 0.88408 0.0
H401 H 0.15279 0.17096 0.89463 0.0
C402 C 0.19951 0.16364 0.84179 0.0
C403 C 0.22234 0.16123 0.81114 0.0
C404 C 0.17736 0.18311 0.83613 0.0
C405 C 0.22412 0.18065 0.77539 0.0
C406 C 0.2023 0.20012 0.76967 0.0
C407 C 0.15356 0.21799 0.79318 0.0
C408 C 0.12842 0.21742 0.82318 0.0
C409 C 0.17798 0.20085 0.79952 0.0
C410 C 0.12965 0.20093 0.8599 0.0
C411 C 0.15355 0.18401 0.86622 0.0
H412 H 0.96956 0.13027 0.76438 0.0
H413 H 0.96081 0.14306 0.8893 0.0
H414 H 0.92652 0.07133 0.89715 0.0
H415 H 0.9052 1.00534 0.8696 0.0
H416 H 0.91301 0.99238 0.74463 0.0
H417 H 0.94116 0.06362 0.7358 0.0
C418 C 0.95964 0.11738 0.79328 0.0
C419 C 0.96828 0.14223 0.82625 0.0
C420 C 0.94009 0.076 0.79766 0.0
C421 C 0.95472 0.12486 0.86337 0.0
C422 C 0.9353 0.08375 0.86795 0.0
C423 C 0.91269 0.01805 0.84036 0.0
C424 C 0.90748 0.99353 0.8079 0.0
C425 C 0.92883 0.0591 0.83548 0.0
C426 C 0.91676 0.01045 0.77016 0.0
C427 C 0.93304 0.05127 0.7651 0.0
H428 H 1.00407 0.92578 0.7809 0.0
H429 H 0.99835 0.92507 0.90746 0.0
H430 H 0.07116 0.96181 0.91105 0.0
H431 H 0.13643 0.99928 0.87745 0.0
H432 H 0.13944 1.00089 0.75051 0.0
H433 H 0.0678 0.95884 0.74802 0.0
C434 C 0.01859 0.93334 0.80944 0.0
C435 C 0.99555 0.92293 0.84388 0.0
C436 C 0.06015 0.95506 0.81116 0.0
C437 C 1.01516 0.93259 0.88047 0.0
C438 C 0.05685 0.95387 0.88247 0.0
C439 C 0.12146 0.99006 0.84925 0.0
C440 C 0.14361 1.00372 0.81416 0.0
C441 C 0.07969 0.96607 0.84793 0.0
C442 C 0.12345 0.99135 0.77797 0.0
C443 C 0.08235 0.96719 0.77648 0.0
H444 H 0.95783 0.90843 0.29854 0.0
H445 H 0.98695 0.91889 0.17531 0.0
H446 H 0.95031 0.95359 0.1634 0.0
H447 H 0.91486 0.98701 0.18897 0.0
H448 H 0.88407 0.9738 0.31201 0.0
H449 H 0.91584 0.93451 0.32235 0.0
C450 C 0.95569 0.9177 0.26895 0.0
C451 C 0.97577 0.91124 0.23815 0.0
C452 C 0.93439 0.93783 0.26206 0.0
C453 C 0.97218 0.92345 0.19992 0.0
C454 C 0.95124 0.94357 0.19296 0.0
C455 C 0.91456 0.97506 0.21788 0.0
C456 C 0.89752 0.98434 0.24961 0.0
C457 C 0.93298 0.95188 0.22396 0.0
C458 C 0.89738 0.96806 0.28686 0.0
C459 C 0.91561 0.94536 0.29301 0.0
H460 H 0.14025 0.01021 0.19885 0.0
H461 H 0.13135 0.99489 0.32486 0.0
H462 H 0.16572 0.06593 0.33415 0.0
H463 H 0.19487 0.13348 0.30704 0.0
H464 H 0.20657 0.14923 0.18123 0.0
H465 H 0.17535 0.07822 0.17192 0.0
C466 C 0.14634 0.02235 0.22833 0.0
C467 C 0.13244 0.99658 0.26088 0.0
C468 C 0.16659 0.06391 0.23383 0.0
C469 C 0.14098 0.01344 0.29891 0.0
C470 C 0.16075 0.0544 0.30445 0.0
C471 C 0.19094 0.12147 0.27762 0.0
C472 C 0.203 0.14724 0.24508 0.0
C473 C 0.17306 0.08006 0.27218 0.0
C474 C 0.1977 0.13062 0.20714 0.0
C475 C 0.17964 0.0897 0.2016 0.0
H476 H 0.11091 0.2152 0.19309 0.0
H477 H 0.126 0.23144 0.31881 0.0
H478 H 0.05481 0.19588 0.32762 0.0
H479 H 0.98725 0.15524 0.30068 0.0
H480 H 0.97168 0.14218 0.1748 0.0
H481 H 0.04282 0.18119 0.16558 0.0
C482 C 0.09869 0.21148 0.22235 0.0
C483 C 0.12445 0.22591 0.25505 0.0
C484 C 0.05704 0.19105 0.22754 0.0
C485 C 0.10749 0.22074 0.29276 0.0
C486 C 0.06644 0.20015 0.29805 0.0
C487 C 0.99931 0.16132 0.27122 0.0
C488 C 0.97359 0.14507 0.23872 0.0
C489 C 0.04079 0.18441 0.26578 0.0
C490 C 0.99026 0.15384 0.20071 0.0
C491 C 0.03127 0.1762 0.19522 0.0
H492 H 0.8731 0.49003 0.20941 0.0
H493 H 0.88264 0.48806 0.0831 0.0
H494 H 0.84753 0.52447 0.07544 0.0
H495 H 0.80999 0.55372 0.10357 0.0
H496 H 0.8032 0.55999 0.22957 0.0
H497 H 0.84124 0.52602 0.23798 0.0
C498 C 0.86785 0.4979 0.18027 0.0
C499 C 0.88057 0.48576 0.14705 0.0
C500 C 0.84782 0.51979 0.17574 0.0
C501 C 0.87351 0.49673 0.1095 0.0
C502 C 0.85316 0.51761 0.10488 0.0
C503 C 0.81724 0.54815 0.13289 0.0
C504 C 0.80335 0.55936 0.16576 0.0
C505 C 0.83962 0.52884 0.13767 0.0
C506 C 0.81345 0.55196 0.20354 0.0
C507 C 0.8351 0.5322 0.20847 0.0
H508 H 0.58644 0.33471 0.20963 0.0
H509 H 0.56774 0.32685 0.08402 0.0
H510 H 0.59805 0.39857 0.07991 0.0
H511 H 0.63397 0.46373 0.11074 0.0
H512 H 0.65639 0.47312 0.23579 0.0
H513 H 0.62032 0.4009 0.24127 0.0
C514 C 0.58844 0.34863 0.18143 0.0
C515 C 0.57468 0.32509 0.14714 0.0
C516 C 0.60689 0.39034 0.17909 0.0
C517 C 0.57807 0.34395 0.11086 0.0
C518 C 0.5955 0.3851 0.10847 0.0
C519 C 0.63077 0.45022 0.1394 0.0
C520 C 0.64822 0.47431 0.17281 0.0
C521 C 0.61068 0.40865 0.14222 0.0
C522 C 0.64345 0.45569 0.20951 0.0
C523 C 0.62286 0.41424 0.21265 0.0
H524 H 0.66802 0.25794 0.09562 0.0
H525 H 0.65815 0.24586 0.2218 0.0
H526 H 0.73025 0.28048 0.22808 0.0
H527 H 0.79637 0.31887 0.19834 0.0
H528 H 0.80618 0.33368 0.07238 0.0
H529 H 0.73433 0.29326 0.06561 0.0
C530 C 0.68155 0.2623 0.1245 0.0
C531 C 0.65731 0.24918 0.15819 0.0
C532 C 0.7233 0.28312 0.12803 0.0
C533 C 0.67576 0.2556 0.19531 0.0
C534 C 0.71714 0.27553 0.19897 0.0
C535 C 0.78293 0.31287 0.16931 0.0
C536 C 0.80704 0.32965 0.13595 0.0
C537 C 0.74127 0.29015 0.16561 0.0
C538 C 0.78868 0.32148 0.09866 0.0
C539 C 0.74743 0.29833 0.09474 0.0
H540 H 0.65227 0.26632 0.63776 0.0
H541 H 0.65419 0.25537 0.51172 0.0
H542 H 0.6134 0.28617 0.50361 0.0
H543 H 0.57911 0.31945 0.53167 0.0
H544 H 0.57395 0.32715 0.65779 0.0
H545 H 0.61315 0.29461 0.66604 0.0
C546 C 0.64355 0.27039 0.60853 0.0
C547 C 0.65679 0.25845 0.57552 0.0
C548 C 0.61925 0.28784 0.60384 0.0
C549 C 0.64467 0.26394 0.53791 0.0
C550 C 0.62128 0.28181 0.53309 0.0
C551 C 0.58616 0.31368 0.56098 0.0
C552 C 0.57336 0.32616 0.59392 0.0
C553 C 0.60865 0.29431 0.56577 0.0
C554 C 0.58298 0.31803 0.63165 0.0
C555 C 0.60573 0.29944 0.63653 0.0
H556 H 0.82475 0.3456 0.63234 0.0
H557 H 0.8066 0.33742 0.50654 0.0
H558 H 0.83976 0.40929 0.50192 0.0
H559 H 0.86757 0.47382 0.53409 0.0
H560 H 0.88385 0.48226 0.66006 0.0
H561 H 0.85813 0.41099 0.66393 0.0
C562 C 0.8286 0.35947 0.60378 0.0
C563 C 0.81273 0.33589 0.56988 0.0
C564 C 0.84701 0.40092 0.60138 0.0
C565 C 0.81817 0.35463 0.53318 0.0
C566 C 0.83705 0.39581 0.5305 0.0
C567 C 0.86584 0.46021 0.56243 0.0
C568 C 0.87708 0.48342 0.59681 0.0
C569 C 0.85052 0.41915 0.56452 0.0
C570 C 0.87514 0.4652 0.63314 0.0
C571 C 0.86033 0.42437 0.63539 0.0
H572 H 0.64923 0.48435 0.5288 0.0
H573 H 0.64215 0.48659 0.65537 0.0
H574 H 0.71389 0.52785 0.6597 0.0
H575 H 0.77876 0.55743 0.62869 0.0
H576 H 0.78782 0.55418 0.50269 0.0
H577 H 0.71519 0.51987 0.49695 0.0
C578 C 0.66328 0.49438 0.55731 0.0
C579 C 0.64005 0.48186 0.59179 0.0
C580 C 0.70496 0.51774 0.55972 0.0
C581 C 0.65902 0.4953 0.62839 0.0
C582 C 0.70016 0.51892 0.63092 0.0
C583 C 0.76492 0.5496 0.59983 0.0
C584 C 0.78872 0.5579 0.56618 0.0
C585 C 0.72343 0.52935 0.59694 0.0
C586 C 0.77028 0.54816 0.52905 0.0
C587 C 0.72873 0.52827 0.52584 0.0
H588 H 0.55519 0.84129 0.44291 0.0
H589 H 0.54236 0.81727 0.56751 0.0
H590 H 0.50705 0.85416 0.57391 0.0
H591 H 0.47386 0.88775 0.54303 0.0
H592 H 0.48391 0.9082 0.41788 0.0
H593 H 0.52644 0.87886 0.41302 0.0
C594 C 0.54526 0.84457 0.47163 0.0
C595 C 0.55139 0.82615 0.50461 0.0
C596 C 0.52414 0.86517 0.47502 0.0
C597 C 0.53802 0.83082 0.5415 0.0
C598 C 0.51769 0.85193 0.54521 0.0
C599 C 0.4861 0.88658 0.51486 0.0
C600 C 0.47561 0.90022 0.48086 0.0
C601 C 0.50974 0.86848 0.51203 0.0
C602 C 0.49133 0.89787 0.4445 0.0
C603 C 0.5156 0.88094 0.44166 0.0
H604 H 0.30193 0.79554 0.43261 0.0
H605 H 0.32778 0.808 0.55713 0.0
H606 H 0.29285 0.7364 0.56452 0.0
H607 H 0.25862 0.67022 0.53547 0.0
H608 H 0.23338 0.65679 0.41095 0.0
H609 H 0.264 0.72854 0.40399 0.0
C610 C 0.29963 0.78267 0.46146 0.0
C611 C 0.31788 0.80751 0.4942 0.0
C612 C 0.2797 0.74113 0.46556 0.0
C613 C 0.31436 0.78996 0.5313 0.0
C614 C 0.29437 0.74886 0.53561 0.0
C615 C 0.25949 0.68283 0.50677 0.0
C616 C 0.24388 0.65785 0.47374 0.0
C617 C 0.27751 0.72416 0.50288 0.0
C618 C 0.24517 0.67505 0.43692 0.0
C619 C 0.26283 0.7162 0.43289 0.0
H620 H 0.3368 0.59268 0.44378 0.0
H621 H 0.32425 0.57901 0.56958 0.0
H622 H 0.39673 0.61619 0.57717 0.0
H623 H 0.46409 0.65739 0.54779 0.0
H624 H 0.47379 0.67129 0.42166 0.0
H625 H 0.40245 0.62946 0.41475 0.0
C626 C 0.34969 0.59743 0.47301 0.0
C627 C 0.32462 0.58303 0.50607 0.0
C628 C 0.39126 0.61935 0.47713 0.0
C629 C 0.34244 0.58947 0.54352 0.0
C630 C 0.38404 0.61102 0.54786 0.0
C631 C 0.45065 0.65084 0.51877 0.0
C632 C 0.47479 0.66797 0.48529 0.0
C633 C 0.40885 0.62681 0.51487 0.0
C634 C 0.45642 0.65906 0.44802 0.0
C635 C 0.4154 0.63501 0.44398 0.0
H636 H 0.23944 0.64938 0.97081 0.0
H637 H 0.23238 0.65523 0.84455 0.0
H638 H 0.26909 0.61978 0.83745 0.0
H639 H 0.30759 0.59122 0.86709 0.0
H640 H 0.31254 0.58359 0.99343 0.0
H641 H 0.27225 0.61516 1.0003 0.0
C642 C 0.24557 0.64256 0.9417 0.0
C643 C 0.23334 0.65538 0.9083 0.0
C644 C 0.26662 0.62193 0.93778 0.0
C645 C 0.24127 0.64581 0.87085 0.0
C646 C 0.26251 0.62566 0.86673 0.0
C647 C 0.29954 0.5961 0.89614 0.0
C648 C 0.31359 0.58526 0.92966 0.0
C649 C 0.27601 0.6142 0.89998 0.0
C650 C 0.30238 0.59154 0.96703 0.0
C651 C 0.27937 0.6098 0.97104 0.0
H652 H 0.52979 0.80579 0.86228 0.0
H653 H 0.53818 0.81673 0.98869 0.0
H654 H 0.5104 0.74529 0.99488 0.0
H655 H 0.47831 0.67944 0.96473 0.0
H656 H 0.46937 0.66792 0.83847 0.0
H657 H 0.50346 0.74005 0.83185 0.0
C658 C 0.5258 0.7926 0.89122 0.0
C659 C 0.53551 0.81662 0.92503 0.0
C660 C 0.5097 0.75145 0.89455 0.0
C661 C 0.5308 0.79906 0.96222 0.0
C662 C 0.5148 0.75816 0.96577 0.0
C663 C 0.4842 0.6927 0.93568 0.0
C664 C 0.47084 0.66828 0.90211 0.0
C665 C 0.50334 0.73403 0.93219 0.0
C666 C 0.47929 0.68595 0.86475 0.0
C667 C 0.49852 0.7272 0.861 0.0
H668 H 0.31451 0.81511 0.86431 0.0
H669 H 0.31068 0.82358 0.99052 0.0
H670 H 0.38245 0.8679 0.99221 0.0
H671 H 0.4467 0.89848 0.95873 0.0
H672 H 0.4511 0.88923 0.83276 0.0
H673 H 0.37849 0.85158 0.83 0.0
C674 C 0.32927 0.82689 0.89222 0.0
C675 C 0.30714 0.81542 0.92738 0.0
C676 C 0.37063 0.85218 0.89297 0.0
C677 C 0.32681 0.83161 0.9631 0.0
C678 C 0.36792 0.85689 0.96407 0.0
C679 C 0.4318 0.88874 0.93052 0.0
C680 C 0.45443 0.89633 0.89599 0.0
C681 C 0.39019 0.86654 0.92932 0.0
C682 C 0.43456 0.88393 0.85972 0.0
C683 C 0.39302 0.86207 0.85823 0.0
H684 H 0.09897 0.31878 0.66908 0.0
H685 H 0.14598 0.41009 0.75751 0.0
H686 H 0.17427 0.46063 0.70648 0.0
H687 H 0.18225 0.48008 0.63599 0.0
H688 H 0.13533 0.3886 0.54767 0.0
H689 H 0.11117 0.33808 0.59876 0.0
C690 C 0.11595 0.34966 0.67735 0.0
C691 C 0.11996 0.36005 0.71766 0.0
C692 C 0.13213 0.37913 0.64749 0.0
C693 C 0.14201 0.40063 0.72712 0.0
C694 C 0.15825 0.42985 0.69774 0.0
C695 C 0.16719 0.44914 0.62777 0.0
C696 C 0.16078 0.43877 0.58742 0.0
C697 C 0.15296 0.41963 0.65769 0.0
C698 C 0.14092 0.39811 0.57805 0.0
C699 C 0.12688 0.36888 0.60746 0.0
H700 H 0.73801 0.80338 0.57785 0.0
H701 H 0.63788 0.79894 0.63619 0.0
H702 H 0.67442 0.81619 0.69869 0.0
H703 H 0.73503 0.83067 0.73822 0.0
H704 H 0.83547 0.83794 0.67741 0.0
H705 H 0.79892 0.82158 0.61566 0.0
C706 C 0.72414 0.8065 0.60409 0.0
C707 C 0.68489 0.7997 0.60171 0.0
C708 C 0.74555 0.81679 0.64016 0.0
C709 C 0.66795 0.80413 0.63651 0.0
C710 C 0.68888 0.81381 0.67257 0.0
C711 C 0.74895 0.82875 0.71147 0.0
C712 C 0.78836 0.83564 0.71314 0.0
C713 C 0.7277 0.81987 0.67503 0.0
C714 C 0.80555 0.83318 0.67764 0.0
C715 C 0.78453 0.82365 0.64198 0.0
H716 H 0.31896 0.9922 0.72943 0.0
H717 H 0.25723 0.04272 0.66821 0.0
H718 H 0.26881 0.01987 0.6054 0.0
H719 H 0.3003 0.9889 0.5668 0.0
H720 H 0.35613 0.93249 0.62841 0.0
H721 H 0.34279 0.95359 0.69137 0.0
C722 C 0.3076 0.99773 0.70237 0.0
C723 C 0.28729 0.01938 0.70379 0.0
C724 C 0.31343 0.98341 0.6661 0.0
C725 C 0.27264 0.02597 0.66828 0.0
C726 C 0.27948 0.01306 0.63218 0.0
C727 C 0.30896 0.98064 0.59403 0.0
C728 C 0.32929 0.959 0.5925 0.0
C729 C 0.30032 0.99218 0.63054 0.0
C730 C 0.34013 0.94866 0.62836 0.0
C731 C 0.33276 0.96105 0.66455 0.0
H732 H 0.48352 0.20047 0.99668 0.0
H733 H 0.39258 0.14308 0.08386 0.0
H734 H 0.34128 0.12507 1.03351 0.0
H735 H 0.32144 0.11958 0.96321 0.0
H736 H 0.4122 0.17139 0.8752 0.0
H737 H 0.4635 0.1976 0.92642 0.0
C738 C 0.4525 0.1848 1.00473 0.0
C739 C 0.44217 0.17359 0.04438 0.0
C740 C 0.42271 0.17313 0.97505 0.0
C741 C 0.4016 0.15235 0.05382 0.0
C742 C 0.37208 0.14187 1.02489 0.0
C743 C 0.35237 0.13755 0.95533 0.0
C744 C 0.3627 0.14411 0.91517 0.0
C745 C 0.38211 0.15129 0.98518 0.0
C746 C 0.4032 0.16633 0.90572 0.0
C747 C 0.43269 0.18114 0.93512 0.0
H748 H 0.0217 0.29198 0.96283 0.0
H749 H 0.95563 0.31834 0.87738 0.0
H750 H 0.93147 0.34394 0.92968 0.0
H751 H 0.93245 0.36296 0.99993 0.0
H752 H 1.00333 0.34089 0.08327 0.0
H753 H 0.0218 0.3095 1.03205 0.0
C754 C 1.00153 0.30275 0.95555 0.0
C755 C 0.99039 0.3028 0.91591 0.0
C756 C 0.98868 0.31856 0.98569 0.0
C757 C 0.96472 0.31767 0.90742 0.0
C758 C 0.95093 0.33246 0.93743 0.0
C759 C 0.95145 0.35074 1.00692 0.0
C760 C 0.96628 0.35418 0.04567 0.0
C761 C 0.96313 0.33364 0.97671 0.0
C762 C 0.99148 0.33876 0.05388 0.0
C763 C 1.00212 0.32078 1.02451 0.0
H764 H 0.77889 0.73171 0.06819 0.0
H765 H 0.76816 0.6294 1.00902 0.0
H766 H 0.79536 0.66849 0.94885 0.0
H767 H 0.82016 0.7322 0.91151 0.0
H768 H 0.83575 0.83505 0.97425 0.0
H769 H 0.80933 0.79583 1.03354 0.0
C770 C 0.78275 0.71795 0.04223 0.0
C771 C 0.77108 0.67735 0.04342 0.0
C772 C 0.79943 0.74098 1.00786 0.0
C773 C 0.77687 0.66045 1.00934 0.0
C774 C 0.79234 0.68289 0.9747 0.0
C775 C 0.81817 0.74614 0.93823 0.0
C776 C 0.83021 0.78701 0.93772 0.0
C777 C 0.80347 0.72326 0.97333 0.0
C778 C 0.82728 0.80406 0.97315 0.0
C779 C 0.81184 0.78148 1.00737 0.0
H780 H 0.93991 0.6602 0.44288 0.0
H781 H 0.96222 0.7508 0.52789 0.0
H782 H 0.98465 0.80033 0.47536 0.0
H783 H 1.00283 0.81925 0.40499 0.0
H784 H 0.98396 0.72841 0.32179 0.0
H785 H 0.95515 0.67823 0.37323 0.0
C786 C 0.94916 0.69066 0.45006 0.0
C787 C 0.94912 0.70133 0.48976 0.0
C788 C 0.96285 0.71932 0.41964 0.0
C789 C 0.96175 0.74132 0.49792 0.0
C790 C 0.97471 0.76984 0.46773 0.0
C791 C 0.99155 0.78835 0.39802 0.0
C792 C 0.99515 0.77768 0.35919 0.0
C793 C 0.976 0.75941 0.42841 0.0
C794 C 0.98132 0.73753 0.35113 0.0
C795 C 0.96498 0.70874 0.38069 0.0
H796 H 0.39125 0.31977 0.3364 0.0
H797 H 0.28028 0.2707 0.39792 0.0
H798 H 0.31531 0.28462 0.46102 0.0
H799 H 0.37806 0.31487 0.49942 0.0
H800 H 0.48881 0.35807 0.43868 0.0
H801 H 0.45372 0.34194 0.37532 0.0
C802 C 0.37475 0.31161 0.36364 0.0
C803 C 0.33297 0.29418 0.36218 0.0
C804 C 0.39521 0.31873 0.40024 0.0
C805 C 0.31223 0.28377 0.39793 0.0
C806 C 0.33235 0.29194 0.43417 0.0
C807 C 0.39449 0.32005 0.47235 0.0
C808 C 0.43625 0.3377 0.47415 0.0
C809 C 0.37389 0.30991 0.43582 0.0
C810 C 0.45679 0.34415 0.43853 0.0
C811 C 0.43666 0.33522 0.40211 0.0
H812 H 0.75856 0.11338 0.48404 0.0
H813 H 0.82545 0.23764 0.45655 0.0
H814 H 0.8496 0.22257 0.39623 0.0
H815 H 0.8494 0.1731 0.34899 0.0
H816 H 0.7784 0.04912 0.3762 0.0
H817 H 0.75863 0.06499 0.43834 0.0
C818 C 0.77875 0.13737 0.46518 0.0
C819 C 0.79017 0.17675 0.47537 0.0
C820 C 0.79183 0.1284 0.43 0.0
C821 C 0.81604 0.20708 0.44984 0.0
C822 C 0.82988 0.19843 0.41515 0.0
C823 C 0.83 0.1497 0.36881 0.0
C824 C 0.81564 0.10985 0.35789 0.0
C825 C 0.81771 0.15909 0.40459 0.0
C826 C 0.78997 0.07993 0.38375 0.0
C827 C 0.77857 0.089 0.41939 0.0
H828 H 0.70952 1.0015 0.15856 0.0
H829 H 0.80961 1.0037 0.1026 0.0
H830 H 0.77428 0.98733 0.0393 0.0
H831 H 0.71473 0.9747 0.99847 0.0
H832 H 0.61489 0.9706 0.05772 0.0
H833 H 0.65011 0.98536 0.11988 0.0
C834 C 0.72362 0.99802 0.13268 0.0
C835 C 0.76242 1.00393 0.13585 0.0
C836 C 0.70305 0.98848 0.09629 0.0
C837 C 0.77977 0.99911 0.10156 0.0
C838 C 0.75958 0.98999 0.06508 0.0
C839 C 0.70071 0.97697 1.02498 0.0
C840 C 0.6618 0.97137 1.02274 0.0
C841 C 0.72121 0.98503 0.0618 0.0
C842 C 0.64441 0.97429 0.05792 0.0
C843 C 0.66465 0.98291 0.09385 0.0
H844 H 0.17474 0.7711 0.07019 0.0
H845 H 0.13006 0.82179 0.98504 0.0
H846 H 0.11393 0.85374 0.03784 0.0
H847 H 0.10791 0.86396 0.10938 0.0
H848 H 0.1498 0.81031 0.194 0.0
H849 H 0.17173 0.78383 0.14094 0.0
C850 C 0.16192 0.78951 0.06297 0.0
C851 C 0.15376 0.79367 1.0231 0.0
C852 C 0.15203 0.80755 0.09383 0.0
C853 C 0.13674 0.81761 1.01505 0.0
C854 C 0.12743 0.83604 0.04545 0.0
C855 C 0.12271 0.8473 0.11623 0.0
C856 C 0.12751 0.83977 0.15613 0.0
C857 C 0.13438 0.83088 0.08513 0.0
C858 C 0.14586 0.81704 0.16393 0.0
C859 C 0.15828 0.80159 0.13342 0.0
H860 H 0.30149 0.41101 1.00825 0.0
H861 H 0.39078 0.51202 0.07188 0.0
H862 H 0.37 0.47516 0.13321 0.0
H863 H 0.32848 0.4135 0.16956 0.0
H864 H 0.23585 0.31314 0.10846 0.0
H865 H 0.25533 0.35019 0.04644 0.0
C866 C 0.31625 0.42499 0.03556 0.0
C867 C 0.34798 0.46456 1.0349 0.0
C868 C 0.3034 0.40363 0.07164 0.0
C869 C 0.36626 0.48194 0.071 0.0
C870 C 0.35444 0.46075 0.10636 0.0
C871 C 0.31214 0.39979 0.14281 0.0
C872 C 0.28061 0.36032 0.14413 0.0
C873 C 0.32326 0.42151 0.10715 0.0
C874 C 0.25995 0.34343 0.10882 0.0
C875 C 0.27135 0.36462 0.07309 0.0
H876 H 0.06064 0.48926 0.40059 0.0
H877 H 0.16683 0.51903 0.33547 0.0
H878 H 0.12986 0.50342 0.2742 0.0
H879 H 0.06715 0.47817 0.23794 0.0
H880 H 0.9605 0.45102 0.30012 0.0
H881 H 0.99755 0.46904 0.36258 0.0
C882 C 0.07578 0.49264 0.37301 0.0
C883 C 0.11694 0.50534 0.37344 0.0
C884 C 0.05411 0.48401 0.33683 0.0
C885 C 0.13555 0.50956 0.33686 0.0
C886 C 0.11429 0.50048 0.3014 0.0
C887 C 0.05192 0.4766 0.26504 0.0
C888 C 1.01078 0.46307 0.26386 0.0
C889 C 0.07354 0.48728 0.30091 0.0
C890 C 0.99203 0.46155 0.29965 0.0
C891 C 1.01329 0.47161 0.3356 0.0
H892 H 0.65226 0.66717 0.40225 0.0
H893 H 0.59761 0.7239 0.33934 0.0
H894 H 0.61042 0.7015 0.27672 0.0
H895 H 0.6401 0.66783 0.23882 0.0
H896 H 0.68826 0.60526 0.30256 0.0
H897 H 0.67489 0.62725 0.36483 0.0
C898 C 0.64277 0.67429 0.37485 0.0
C899 C 0.62399 0.69746 0.37586 0.0
C900 C 0.64921 0.66015 0.33865 0.0
C901 C 0.61179 0.706 0.33981 0.0
C902 C 0.61935 0.69329 0.3038 0.0
C903 C 0.64724 0.65857 0.26632 0.0
C904 C 0.66537 0.63472 0.26542 0.0
C905 C 0.63841 0.6706 0.30266 0.0
C906 C 0.67409 0.62317 0.30179 0.0
C907 C 0.66664 0.63602 0.33769 0.0
H908 H 0.44074 0.06943 0.23972 0.0
H909 H 0.55663 0.14975 0.28683 0.0
H910 H 0.54038 0.1101 0.34723 0.0
H911 H 0.49124 0.05366 0.38871 0.0
H912 H 0.3753 0.97558 0.34062 0.0
H913 H 0.39349 0.01299 0.27911 0.0
C914 C 0.46278 0.07832 0.26294 0.0
C915 C 0.50005 0.11293 0.25822 0.0
C916 C 0.45302 0.05557 0.29784 0.0
C917 C 0.5278 0.12347 0.28916 0.0
C918 C 0.51841 0.10074 0.32393 0.0
C919 C 0.47027 0.04461 0.36448 0.0
C920 C 0.43196 0.01142 0.36917 0.0
C921 C 0.48089 0.06688 0.32891 0.0
C922 C 0.40496 1.0006 0.33771 0.0
C923 C 0.41535 0.02214 0.3025 0.0
H924 H 0.66279 0.07722 0.6676 0.0
H925 H 0.68906 0.18355 0.7298 0.0
H926 H 0.66332 0.14542 0.79075 0.0
H927 H 0.63601 0.08123 0.8277 0.0
H928 H 0.60594 0.97519 0.76223 0.0
H929 H 0.63003 0.01344 0.70223 0.0
C930 C 0.66255 0.09208 0.69439 0.0
C931 C 0.67813 0.1334 0.69385 0.0
C932 C 0.64702 0.0698 0.72926 0.0
C933 C 0.67713 0.15185 0.72901 0.0
C934 C 0.66258 0.12998 0.76408 0.0
C935 C 0.63437 0.06645 0.80027 0.0
C936 C 0.61902 0.02496 0.80018 0.0
C937 C 0.64783 0.08884 0.76482 0.0
C938 C 0.61719 1.00675 0.76385 0.0
C939 C 0.63122 0.02872 0.72919 0.0
H940 H 0.03924 0.65808 0.84054 0.0
H941 H 0.1446 0.68681 0.77456 0.0
H942 H 0.10671 0.66928 0.71363 0.0
H943 H 0.04426 0.6495 0.67738 0.0
H944 H 0.93813 0.61808 0.74292 0.0
H945 H 0.9753 0.63263 0.80449 0.0
C946 C 0.05384 0.6599 0.81297 0.0
C947 C 0.09513 0.67416 0.81279 0.0
C948 C 0.03165 0.64957 0.77729 0.0
C949 C 0.1131 0.67623 0.77625 0.0
C950 C 0.09139 0.66629 0.74101 0.0
C951 C 0.02916 0.64556 0.70511 0.0
C952 C 0.98824 0.63279 0.705 0.0
C953 C 0.05077 0.6536 0.74093 0.0
C954 C 0.96945 0.6277 0.74162 0.0
C955 C 0.9908 0.63616 0.77712 0.0
H956 H 0.51788 0.45172 0.73406 0.0
H957 H 0.43906 0.4641 0.65286 0.0
H958 H 0.41842 0.49313 0.70456 0.0
H959 H 0.41934 0.51199 0.77396 0.0
H960 H 0.49438 0.49595 0.85711 0.0
H961 H 0.51952 0.47192 0.8043 0.0
C962 C 0.49663 0.4613 0.72752 0.0
C963 C 0.48038 0.45574 0.689 0.0
C964 C 0.48378 0.47725 0.75816 0.0
C965 C 0.45225 0.46784 0.68182 0.0
C966 C 0.44029 0.4845 0.71157 0.0
C967 C 0.44161 0.50378 0.78065 0.0
C968 C 0.45496 0.50636 0.82002 0.0
C969 C 0.45536 0.48893 0.75005 0.0
C970 C 0.48342 0.49469 0.82749 0.0
C971 C 0.49784 0.48075 0.79709 0.0
H972 H 0.15972 0.38544 0.82809 0.0
H973 H 0.152 0.32336 0.93572 0.0
H974 H 0.22435 0.36102 0.94312 0.0
H975 H 0.28932 0.41206 0.91854 0.0
H976 H 0.29582 0.47149 0.80926 0.0
H977 H 0.22398 0.43261 0.80155 0.0
C978 C 0.17387 0.38081 0.85356 0.0
C979 C 0.15101 0.3528 0.88196 0.0
C980 C 0.21504 0.40081 0.85636 0.0
C981 C 0.16943 0.34572 0.91412 0.0
C982 C 0.2106 0.36669 0.91797 0.0
C983 C 0.27497 0.41541 0.89248 0.0
C984 C 0.29734 0.44408 0.8643 0.0
C985 C 0.23369 0.39398 0.88897 0.0
C986 C 0.27878 0.44913 0.83102 0.0
C987 C 0.23784 0.42746 0.82694 0.0
H988 H 0.73441 0.84588 0.8323 0.0
H989 H 0.80514 0.92025 0.92816 0.0
H990 H 0.76317 0.95036 0.93149 0.0
H991 H 0.70863 0.95741 0.90523 0.0
H992 H 0.63709 0.88287 0.80989 0.0
H993 H 0.6782 0.85155 0.80727 0.0
C994 C 0.73993 0.86795 0.85453 0.0
C995 C 0.77238 0.88077 0.88015 0.0
C996 C 0.71656 0.88591 0.85542 0.0
C997 C 0.77999 0.90994 0.90833 0.0
C998 C 0.75639 0.92741 0.90995 0.0
C999 C 0.70258 0.93488 0.88336 0.0
C1000 C 0.67063 0.92286 0.85726 0.0
C1001 C 0.72526 0.91626 0.883 0.0
C1002 C 0.6621 0.89282 0.82984 0.0
C1003 C 0.68521 0.87469 0.82865 0.0
H1004 H 0.16921 0.84262 0.91051 0.0
H1005 H 0.21194 0.8268 0.79924 0.0
H1006 H 0.24572 0.89802 0.78755 0.0
H1007 H 0.26836 0.96349 0.81209 0.0
H1008 H 0.22902 0.98163 0.92463 0.0
H1009 H 0.18895 0.90981 0.93351 0.0
C1010 C 0.18488 0.85491 0.8832 0.0
C1011 C 0.18813 0.83024 0.85543 0.0
C1012 C 0.20575 0.89578 0.87777 0.0
C1013 C 0.20907 0.84581 0.82055 0.0
C1014 C 0.22867 0.88629 0.81421 0.0
C1015 C 0.25141 0.95201 0.83888 0.0
C1016 C 0.25233 0.9777 0.86818 0.0
C1017 C 0.22837 0.91143 0.84331 0.0
C1018 C 0.22929 0.96224 0.90207 0.0
C1019 C 0.20616 0.92137 0.90692 0.0
H1020 H 0.4669 0.30298 0.69671 0.0
H1021 H 0.37407 0.27863 0.61197 0.0
H1022 H 0.33151 0.21517 0.64353 0.0
H1023 H 0.32047 0.16829 0.69567 0.0
H1024 H 0.41281 0.1929 0.78112 0.0
H1025 H 0.45629 0.25537 0.74819 0.0
C1026 C 0.4373 0.28391 0.68516 0.0
C1027 C 0.4234 0.29551 0.65238 0.0
C1028 C 0.41316 0.2478 0.70334 0.0
C1029 C 0.38527 0.27032 0.63737 0.0
C1030 C 0.36099 0.23413 0.65532 0.0
C1031 C 0.35018 0.18713 0.70707 0.0
C1032 C 0.36349 0.17614 0.74072 0.0
C1033 C 0.37465 0.22281 0.6884 0.0
C1034 C 0.40198 0.20085 0.75518 0.0
C1035 C 0.42676 0.23649 0.73647 0.0
H1036 H 0.84283 0.26508 0.68334 0.0
H1037 H 0.83922 0.16625 0.62266 0.0
H1038 H 0.90031 0.17879 0.65558 0.0
H1039 H 0.95383 0.21673 0.70253 0.0
H1040 H 0.95848 0.31649 0.76232 0.0
H1041 H 0.89796 0.30471 0.72855 0.0
C1042 C 0.85538 0.24625 0.67738 0.0
C1043 C 0.83632 0.21461 0.65085 0.0
C1044 C 0.89071 0.25379 0.69614 0.0
C1045 C 0.85326 0.19081 0.64299 0.0
C1046 C 0.88817 0.1979 0.66183 0.0
C1047 C 0.94169 0.23598 0.70817 0.0
C1048 C 0.96059 0.26733 0.73505 0.0
C1049 C 0.90701 0.22916 0.6886 0.0
C1050 C 0.9446 0.29218 0.74169 0.0
C1051 C 0.90991 0.2854 0.72251 0.0
H1052 H 0.82475 0.74253 0.73983 0.0
H1053 H 0.94593 0.81378 0.77896 0.0
H1054 H 0.966 0.77581 0.73771 0.0
H1055 H 0.94961 0.72461 0.68841 0.0
H1056 H 0.82859 0.6532 0.64891 0.0
H1057 H 0.80793 0.68955 0.692 0.0
C1058 C 0.85534 0.74908 0.73989 0.0
C1059 C 0.88385 0.78062 0.76223 0.0
C1060 C 0.86681 0.72785 0.71543 0.0
C1061 C 0.92355 0.78946 0.76179 0.0
C1062 C 0.93508 0.76803 0.73808 0.0
C1063 C 0.91884 0.71741 0.6889 0.0
C1064 C 0.89072 0.68682 0.66537 0.0
C1065 C 0.90711 0.73778 0.71417 0.0
C1066 C 0.85075 0.67699 0.66677 0.0
C1067 C 0.83889 0.69751 0.69149 0.0
H1068 H 0.95105 0.81637 0.18698 0.0
H1069 H 0.97351 0.72032 0.21013 0.0
H1070 H 0.90236 0.67368 0.21174 0.0
H1071 H 0.83434 0.66124 0.21086 0.0
H1072 H 0.8112 0.75653 0.18636 0.0
H1073 H 0.88251 0.80321 0.18265 0.0
C1074 C 0.94028 0.78503 0.19104 0.0
C1075 C 0.96715 0.77151 0.19797 0.0
C1076 C 0.89951 0.75878 0.19345 0.0
C1077 C 0.95308 0.73108 0.20427 0.0
C1078 C 0.91255 0.70461 0.20583 0.0
C1079 C 0.84501 0.69239 0.20557 0.0
C1080 C 0.81801 0.70589 0.19997 0.0
C1081 C 0.88562 0.71838 0.20169 0.0
C1082 C 0.83185 0.74594 0.19166 0.0
C1083 C 0.87241 0.77237 0.18894 0.0
H1084 H 0.37736 0.28319 0.24812 0.0
H1085 H 0.31213 0.23632 0.13965 0.0
H1086 H 0.3492 0.20169 0.12771 0.0
H1087 H 0.39964 0.18525 0.14867 0.0
H1088 H 0.46305 0.23185 0.25813 0.0
H1089 H 0.42553 0.26557 0.26977 0.0
C1090 C 0.37131 0.2658 0.22151 0.0
C1091 C 0.34237 0.26262 0.1945 0.0
C1092 C 0.39163 0.24542 0.21556 0.0
C1093 C 0.33463 0.23947 0.16062 0.0
C1094 C 0.3555 0.21948 0.15401 0.0
C1095 C 0.40488 0.20229 0.17539 0.0
C1096 C 0.43403 0.20613 0.20257 0.0
C1097 C 0.3838 0.22208 0.18152 0.0
C1098 C 0.44071 0.22849 0.23685 0.0
C1099 C 0.41955 0.24796 0.24336 0.0
H1100 H 0.90806 0.17497 0.18943 0.0
H1101 H 0.78767 0.15173 0.19527 0.0
H1102 H 0.81109 0.22273 0.19787 0.0
H1103 H 0.86606 0.29099 0.20131 0.0
H1104 H 0.98647 0.31404 0.19629 0.0
H1105 H 0.96295 0.24314 0.19239 0.0
C1106 C 0.88705 0.18563 0.19003 0.0
C1107 C 0.84635 0.15867 0.19128 0.0
C1108 C 0.90077 0.22613 0.19344 0.0
C1109 C 0.81919 0.17239 0.19347 0.0
C1110 C 0.83255 0.21278 0.19564 0.0
C1111 C 0.88704 0.2803 0.20045 0.0
C1112 C 0.92779 0.30722 0.19996 0.0
C1113 C 0.87329 0.23981 0.19666 0.0
C1114 C 0.9549 0.29344 0.19746 0.0
C1115 C 0.9415 0.25311 0.19461 0.0
H1116 H 0.80047 0.97565 0.36994 0.0
H1117 H 0.71561 0.93611 0.2742 0.0
H1118 H 0.67215 0.87625 0.31046 0.0
H1119 H 0.65751 0.83616 0.36904 0.0
H1120 H 0.7412 0.87401 0.46555 0.0
H1121 H 0.78614 0.93391 0.42891 0.0
C1122 C 0.77253 0.95389 0.35693 0.0
C1123 C 0.7612 0.96052 0.3195 0.0
C1124 C 0.74752 0.91947 0.37799 0.0
C1125 C 0.72498 0.93194 0.30304 0.0
C1126 C 0.70007 0.89767 0.32373 0.0
C1127 C 0.68552 0.85745 0.38233 0.0
C1128 C 0.69589 0.85077 0.42012 0.0
C1129 C 0.71093 0.89138 0.36125 0.0
C1130 C 0.73253 0.87852 0.43651 0.0
C1131 C 0.75816 0.91271 0.4156 0.0
H1132 H 0.16932 0.84508 0.32006 0.0
H1133 H 0.14779 0.93443 0.36948 0.0
H1134 H 0.20583 0.95694 0.4122 0.0
H1135 H 0.26412 0.95248 0.43379 0.0
H1136 H 0.2844 0.86244 0.38381 0.0
H1137 H 0.22512 0.8387 0.3434 0.0
C1138 C 0.17741 0.86957 0.34006 0.0
C1139 C 0.1546 0.88822 0.3415 0.0
C1140 C 0.21044 0.88211 0.36461 0.0
C1141 C 0.16503 0.91957 0.36793 0.0
C1142 C 0.19814 0.93246 0.39236 0.0
C1143 C 0.25519 0.9274 0.4144 0.0
C1144 C 0.27871 0.90955 0.4114 0.0
C1145 C 0.22118 0.91402 0.39084 0.0
C1146 C 0.26697 0.87705 0.38617 0.0
C1147 C 0.23312 0.86341 0.36303 0.0
H1148 H 0.25577 0.48419 0.38167 0.0
H1149 H 0.15731 0.38995 0.44333 0.0
H1150 H 0.16793 0.34104 0.40902 0.0
H1151 H 0.20439 0.32537 0.36049 0.0
H1152 H 0.30089 0.42004 0.29702 0.0
H1153 H 0.29171 0.46866 0.33316 0.0
C1154 C 0.23683 0.45297 0.38784 0.0
C1155 C 0.20593 0.44058 0.41494 0.0
C1156 C 0.2426 0.42519 0.3676 0.0
C1157 C 0.18125 0.40006 0.42236 0.0
C1158 C 0.1873 0.37216 0.40284 0.0
C1159 C 0.22348 0.35666 0.35475 0.0
C1160 C 0.25324 0.36916 0.32629 0.0
C1161 C 0.21774 0.38442 0.37522 0.0
C1162 C 0.27758 0.40971 0.31871 0.0
C1163 C 0.27247 0.43754 0.33941 0.0
H1164 H 0.98339 0.5156 0.04878 0.0
H1165 H 0.08054 0.52473 0.11908 0.0
H1166 H 0.12619 0.58616 0.08544 0.0
H1167 H 0.13851 0.63534 1.03451 0.0
H1168 H 0.04105 0.62648 0.96487 0.0
H1169 H 0.99516 0.56633 1.00005 0.0
C1170 C 1.01458 0.53102 0.05674 0.0
C1171 C 0.02879 0.51554 0.08591 0.0
C1172 C 0.04044 0.56605 0.0374 0.0
C1173 C 0.06903 0.53612 0.09657 0.0
C1174 C 0.09509 0.57108 0.07729 0.0
C1175 C 0.10724 0.6202 1.02694 0.0
C1176 C 0.09316 0.63498 0.99691 0.0
C1177 C 0.08114 0.58596 0.04735 0.0
C1178 C 0.05252 0.61554 0.98786 0.0
C1179 C 0.02634 0.5812 1.00788 0.0
H1180 H 0.49867 0.50881 0.997 0.0
H1181 H 0.50738 0.62298 1.01237 0.0
H1182 H 0.56329 0.64331 0.05632 0.0
H1183 H 0.61091 0.62993 0.08991 0.0
H1184 H 0.60662 0.51852 0.07195 0.0
H1185 H 0.54768 0.49575 1.03019 0.0
C1186 C 0.51294 0.53815 1.00981 0.0
C1187 C 0.49858 0.56406 1.00133 0.0
C1188 C 0.54571 0.55014 0.03506 0.0
C1189 C 0.51755 0.60213 1.01824 0.0
C1190 C 0.54959 0.61394 0.04363 0.0
C1191 C 0.59661 0.60047 0.07732 0.0
C1192 C 0.61251 0.57574 0.08409 0.0
C1193 C 0.56384 0.58823 0.05234 0.0
C1194 C 0.59449 0.53792 0.06704 0.0
C1195 C 0.561 0.52499 0.04309 0.0
H1196 H 0.58046 0.14897 0.04213 0.0
H1197 H 0.49343 0.0536 0.1133 0.0
H1198 H 0.50252 1.00599 0.07505 0.0
H1199 H 0.53338 0.99149 1.0206 0.0
H1200 H 0.6215 0.08634 0.95 0.0
H1201 H 0.61342 0.13455 0.98895 0.0
C1202 C 0.56352 0.11776 0.04933 0.0
C1203 C 0.53603 0.10472 0.08018 0.0
C1204 C 0.56877 0.09064 1.02723 0.0
C1205 C 0.51474 0.06434 0.08962 0.0
C1206 C 0.51975 0.03711 0.06768 0.0
C1207 C 0.55058 0.02269 1.01345 0.0
C1208 C 0.57754 0.03549 0.98222 0.0
C1209 C 0.54627 0.04995 0.03618 0.0
C1210 C 0.60038 0.07598 0.97386 0.0
C1211 C 0.59582 0.10342 0.99609 0.0
H1212 H 0.61382 0.09826 0.58882 0.0
H1213 H 0.63715 0.13525 0.46749 0.0
H1214 H 0.5659 0.10132 0.45363 0.0
H1215 H 0.49775 0.05886 0.47573 0.0
H1216 H 0.47528 0.02149 0.59702 0.0
H1217 H 0.54609 0.05934 0.61164 0.0
C1218 C 0.60335 0.0985 0.5592 0.0
C1219 C 0.6304 0.11835 0.52897 0.0
C1220 C 0.5628 0.07977 0.55176 0.0
C1221 C 0.61661 0.11954 0.49103 0.0
C1222 C 0.57604 0.10049 0.4832 0.0
C1223 C 0.50833 0.05987 0.50556 0.0
C1224 C 0.4817 0.03759 0.53532 0.0
C1225 C 0.54895 0.08047 0.51338 0.0
C1226 C 0.49554 0.03853 0.57374 0.0
C1227 C 0.53589 0.05979 0.582 0.0
H1228 H 0.97751 0.5435 0.54334 0.0
H1229 H 0.06395 0.66801 0.54501 0.0
H1230 H 0.11756 0.65222 0.54344 0.0
H1231 H 0.13926 0.60285 0.54073 0.0
H1232 H 0.05183 0.47853 0.53981 0.0
H1233 H 0.99887 0.49467 0.54283 0.0
C1234 C 1.00806 0.56732 0.54285 0.0
C1235 C 0.01681 0.60689 0.54364 0.0
C1236 C 0.0384 0.55806 0.54279 0.0
C1237 C 0.05653 0.63731 0.54398 0.0
C1238 C 0.08711 0.6283 0.54334 0.0
C1239 C 0.10865 0.57928 0.54186 0.0
C1240 C 0.09945 0.53955 0.54009 0.0
C1241 C 0.07832 0.58874 0.54289 0.0
C1242 C 0.05965 0.50934 0.54113 0.0
C1243 C 0.02937 0.51851 0.54261 0.0
H1244 H 0.60787 0.63113 0.48343 0.0
H1245 H 0.5769 0.64919 0.60029 0.0
H1246 H 0.53974 0.57798 0.61081 0.0
H1247 H 0.5141 0.51166 0.58597 0.0
H1248 H 0.54532 0.49244 0.46978 0.0
H1249 H 0.58397 0.564 0.45931 0.0
C1250 C 0.59364 0.61951 0.51149 0.0
C1251 C 0.59495 0.64513 0.54107 0.0
C1252 C 0.57168 0.57874 0.51697 0.0
C1253 C 0.57615 0.62984 0.57713 0.0
C1254 C 0.55469 0.58926 0.58303 0.0
C1255 C 0.52877 0.52301 0.55803 0.0
C1256 C 0.52642 0.4971 0.52834 0.0
C1257 C 0.5516 0.56361 0.55282 0.0
C1258 C 0.54644 0.51211 0.49278 0.0
C1259 C 0.56874 0.55283 0.48698 0.0
loop_
_geom_bond_atom_site_label_1
_geom_bond_atom_site_label_2
_geom_bond_distance
_geom_bond_site_symmetry_2
_ccdc_geom_bond_type
Fe0 O2 1.918 . S
Fe0 O5 1.997 . S
Fe0 O6 2.002 . S
Fe0 O11 1.976 . S
Fe0 O14 1.996 1_455 S
Fe1 O2 1.918 . S
Fe1 O9 1.997 . S
Fe1 O12 1.996 . S
Fe1 O16 1.976 . S
Fe1 O19 2.002 . S
O2 Fe0 1.918 . S
O2 Fe1 1.918 . S
O2 Fe3 1.918 . S
Fe3 O2 1.918 . S
Fe3 O4 2.002 . S
Fe3 O13 1.976 1_455 S
Fe3 O17 1.996 1_455 S
Fe3 O20 1.997 . S
O4 Fe3 2.002 . S
O4 C21 1.295 . S
O5 Fe0 1.997 . S
O5 C21 1.235 . S
O6 Fe0 2.002 . S
O6 C7 1.295 . S
C7 O6 1.295 . S
C7 O9 1.235 . S
C8 O13 1.287 . S
C8 O14 1.255 . S
O9 Fe1 1.997 . S
O9 C7 1.235 . S
C10 O16 1.287 1_655 S
C10 O17 1.255 . S
O11 Fe0 1.976 . S
O11 C18 1.287 . S
O12 Fe1 1.996 . S
O12 C18 1.255 . S
O13 Fe3 1.976 1_655 S
O13 C8 1.287 . S
O14 Fe0 1.996 1_655 S
O14 C8 1.255 . S
C15 O19 1.295 . S
C15 O20 1.235 . S
O16 Fe1 1.976 . S
O16 C10 1.287 1_455 S
O17 Fe3 1.996 1_655 S
O17 C10 1.255 . S
C18 O11 1.287 . S
C18 O12 1.255 . S
O19 Fe1 2.002 . S
O19 C15 1.295 . S
O20 Fe3 1.997 . S
O20 C15 1.235 . S
C21 O4 1.295 . S
C21 O5 1.235 . S
Fe22 O24 1.918 . S
Fe22 O27 1.997 . S
Fe22 O28 2.002 . S
Fe22 O33 1.976 . S
Fe22 O36 1.996 . S
Fe23 O24 1.918 . S
Fe23 O31 1.997 . S
Fe23 O34 1.996 . S
Fe23 O38 1.976 . S
Fe23 O41 2.002 . S
O24 Fe22 1.918 . S
O24 Fe23 1.918 . S
O24 Fe25 1.918 . S
Fe25 O24 1.918 . S
Fe25 O26 2.002 . S
Fe25 O35 1.976 . S
Fe25 O39 1.996 . S
Fe25 O42 1.997 . S
O26 Fe25 2.002 . S
O26 C43 1.295 . S
O27 Fe22 1.997 . S
O27 C43 1.235 . S
O28 Fe22 2.002 . S
O28 C29 1.295 . S
C29 O28 1.295 . S
C29 O31 1.235 . S
C30 O35 1.287 . S
C30 O36 1.255 . S
O31 Fe23 1.997 . S
O31 C29 1.235 . S
C32 O38 1.287 . S
C32 O39 1.255 . S
O33 Fe22 1.976 . S
O33 C40 1.287 . S
O34 Fe23 1.996 . S
O34 C40 1.255 . S
O35 Fe25 1.976 . S
O35 C30 1.287 . S
O36 Fe22 1.996 . S
O36 C30 1.255 . S
C37 O41 1.295 . S
C37 O42 1.235 . S
O38 Fe23 1.976 . S
O38 C32 1.287 . S
O39 Fe25 1.996 . S
O39 C32 1.255 . S
C40 O33 1.287 . S
C40 O34 1.255 . S
O41 Fe23 2.002 . S
O41 C37 1.295 . S
O42 Fe25 1.997 . S
O42 C37 1.235 . S
C43 O26 1.295 . S
C43 O27 1.235 . S
Fe44 O46 1.918 . S
Fe44 O49 1.997 . S
Fe44 O50 2.002 . S
Fe44 O55 1.976 . S
Fe44 O58 1.996 . S
Fe45 O46 1.918 . S
Fe45 O53 1.997 . S
Fe45 O56 1.996 . S
Fe45 O60 1.976 . S
Fe45 O63 2.002 . S
O46 Fe44 1.918 . S
O46 Fe45 1.918 . S
O46 Fe47 1.918 . S
Fe47 O46 1.918 . S
Fe47 O48 2.002 . S
Fe47 O57 1.976 . S
Fe47 O61 1.996 . S
Fe47 O64 1.997 . S
O48 Fe47 2.002 . S
O48 C65 1.295 . S
O49 Fe44 1.997 . S
O49 C65 1.235 . S
O50 Fe44 2.002 . S
O50 C51 1.295 . S
C51 O50 1.295 . S
C51 O53 1.235 . S
C52 O57 1.287 1_565 S
C52 O58 1.255 1_565 S
O53 Fe45 1.997 . S
O53 C51 1.235 . S
C54 O60 1.287 . S
C54 O61 1.255 . S
O55 Fe44 1.976 . S
O55 C62 1.287 . S
O56 Fe45 1.996 . S
O56 C62 1.255 . S
O57 Fe47 1.976 . S
O57 C52 1.287 1_545 S
O58 Fe44 1.996 . S
O58 C52 1.255 1_545 S
C59 O63 1.295 . S
C59 O64 1.235 . S
O60 Fe45 1.976 . S
O60 C54 1.287 . S
O61 Fe47 1.996 . S
O61 C54 1.255 . S
C62 O55 1.287 . S
C62 O56 1.255 . S
O63 Fe45 2.002 . S
O63 C59 1.295 . S
O64 Fe47 1.997 . S
O64 C59 1.235 . S
C65 O48 1.295 . S
C65 O49 1.235 . S
Fe66 O68 1.918 . S
Fe66 O71 1.997 1_455 S
Fe66 O72 2.002 1_455 S
Fe66 O77 1.976 . S
Fe66 O80 1.996 . S
Fe67 O68 1.918 . S
Fe67 O75 1.997 1_455 S
Fe67 O78 1.996 . S
Fe67 O82 1.976 . S
Fe67 O85 2.002 . S
O68 Fe66 1.918 . S
O68 Fe67 1.918 . S
O68 Fe69 1.918 . S
Fe69 O68 1.918 . S
Fe69 O70 2.002 . S
Fe69 O79 1.976 . S
Fe69 O83 1.996 . S
Fe69 O86 1.997 . S
O70 Fe69 2.002 . S
O70 C87 1.295 1_455 S
O71 Fe66 1.997 1_655 S
O71 C87 1.235 . S
O72 Fe66 2.002 1_655 S
O72 C73 1.295 . S
C73 O72 1.295 . S
C73 O75 1.235 . S
C74 O79 1.287 . S
C74 O80 1.255 . S
O75 Fe67 1.997 1_655 S
O75 C73 1.235 . S
C76 O82 1.287 . S
C76 O83 1.255 . S
O77 Fe66 1.976 . S
O77 C84 1.287 . S
O78 Fe67 1.996 . S
O78 C84 1.255 . S
O79 Fe69 1.976 . S
O79 C74 1.287 . S
O80 Fe66 1.996 . S
O80 C74 1.255 . S
C81 O85 1.295 . S
C81 O86 1.235 . S
O82 Fe67 1.976 . S
O82 C76 1.287 . S
O83 Fe69 1.996 . S
O83 C76 1.255 . S
C84 O77 1.287 . S
C84 O78 1.255 . S
O85 Fe67 2.002 . S
O85 C81 1.295 . S
O86 Fe69 1.997 . S
O86 C81 1.235 . S
C87 O70 1.295 1_655 S
C87 O71 1.235 . S
Fe88 O90 1.918 . S
Fe88 O93 1.997 . S
Fe88 O94 2.002 . S
Fe88 O99 1.976 . S
Fe88 O102 1.996 . S
Fe89 O90 1.918 . S
Fe89 O97 1.997 . S
Fe89 O100 1.996 . S
Fe89 O104 1.976 . S
Fe89 O107 2.002 . S
O90 Fe88 1.918 . S
O90 Fe89 1.918 . S
O90 Fe91 1.918 . S
Fe91 O90 1.918 . S
Fe91 O92 2.002 . S
Fe91 O101 1.976 . S
Fe91 O105 1.996 . S
Fe91 O108 1.997 . S
O92 Fe91 2.002 . S
O92 C109 1.295 . S
O93 Fe88 1.997 . S
O93 C109 1.235 . S
O94 Fe88 2.002 . S
O94 C95 1.295 . S
C95 O94 1.295 . S
C95 O97 1.235 . S
C96 O101 1.287 . S
C96 O102 1.255 . S
O97 Fe89 1.997 . S
O97 C95 1.235 . S
C98 O104 1.287 . S
C98 O105 1.255 . S
O99 Fe88 1.976 . S
O99 C106 1.287 . S
O100 Fe89 1.996 . S
O100 C106 1.255 . S
O101 Fe91 1.976 . S
O101 C96 1.287 . S
O102 Fe88 1.996 . S
O102 C96 1.255 . S
C103 O107 1.295 . S
C103 O108 1.235 . S
O104 Fe89 1.976 . S
O104 C98 1.287 . S
O105 Fe91 1.996 . S
O105 C98 1.255 . S
C106 O99 1.287 . S
C106 O100 1.255 . S
O107 Fe89 2.002 . S
O107 C103 1.295 . S
O108 Fe91 1.997 . S
O108 C103 1.235 . S
C109 O92 1.295 . S
C109 O93 1.235 . S
Fe110 O112 1.918 . S
Fe110 O115 1.997 . S
Fe110 O116 2.017 . S
Fe110 O121 1.976 . S
Fe110 O124 1.996 . S
Fe111 O112 1.918 . S
Fe111 O119 1.997 . S
Fe111 O122 1.996 . S
Fe111 O126 1.976 . S
Fe111 O129 2.002 . S
O112 Fe110 1.918 . S
O112 Fe111 1.918 . S
O112 Fe113 1.918 . S
Fe113 O112 1.918 . S
Fe113 O114 2.002 . S
Fe113 O123 1.976 . S
Fe113 O127 1.996 . S
Fe113 O130 1.997 . S
O114 Fe113 2.002 . S
O114 C131 1.295 . S
O115 Fe110 1.997 . S
O115 C131 1.235 . S
O116 Fe110 2.017 . S
O116 C117 1.302 1_545 S
C117 O116 1.302 1_565 S
C117 O119 1.235 1_565 S
C118 O123 1.287 . S
C118 O124 1.255 . S
O119 Fe111 1.997 . S
O119 C117 1.235 1_545 S
C120 O126 1.287 . S
C120 O127 1.255 . S
O121 Fe110 1.976 . S
O121 C128 1.287 . S
O122 Fe111 1.996 . S
O122 C128 1.255 . S
O123 Fe113 1.976 . S
O123 C118 1.287 . S
O124 Fe110 1.996 . S
O124 C118 1.255 . S
C125 O129 1.295 . S
C125 O130 1.235 . S
O126 Fe111 1.976 . S
O126 C120 1.287 . S
O127 Fe113 1.996 . S
O127 C120 1.255 . S
C128 O121 1.287 . S
C128 O122 1.255 . S
O129 Fe111 2.002 . S
O129 C125 1.295 . S
O130 Fe113 1.997 . S
O130 C125 1.235 . S
C131 O114 1.295 . S
C131 O115 1.235 . S
Fe132 O134 1.918 . S
Fe132 O137 1.997 . S
Fe132 O138 2.002 . S
Fe132 O143 1.976 . S
Fe132 O146 1.996 . S
Fe133 O134 1.918 . S
Fe133 O141 1.997 . S
Fe133 O144 1.996 . S
Fe133 O148 1.976 . S
Fe133 O151 2.002 . S
O134 Fe132 1.918 . S
O134 Fe133 1.918 . S
O134 Fe135 1.918 . S
Fe135 O134 1.918 . S
Fe135 O136 2.002 . S
Fe135 O145 1.976 . S
Fe135 O149 1.996 . S
Fe135 O152 1.997 . S
O136 Fe135 2.002 . S
O136 C153 1.295 . S
O137 Fe132 1.997 . S
O137 C153 1.235 . S
O138 Fe132 2.002 . S
O138 C139 1.295 . S
C139 O138 1.295 . S
C139 O141 1.235 . S
C140 O145 1.287 . S
C140 O146 1.255 . S
O141 Fe133 1.997 . S
O141 C139 1.235 . S
C142 O148 1.287 . S
C142 O149 1.255 . S
O143 Fe132 1.976 . S
O143 C150 1.287 . S
O144 Fe133 1.996 . S
O144 C150 1.255 . S
O145 Fe135 1.976 . S
O145 C140 1.287 . S
O146 Fe132 1.996 . S
O146 C140 1.255 . S
C147 O151 1.295 . S
C147 O152 1.235 . S
O148 Fe133 1.976 . S
O148 C142 1.287 . S
O149 Fe135 1.996 . S
O149 C142 1.255 . S
C150 O143 1.287 . S
C150 O144 1.255 . S
O151 Fe133 2.002 . S
O151 C147 1.295 . S
O152 Fe135 1.997 . S
O152 C147 1.235 . S
C153 O136 1.295 . S
C153 O137 1.235 . S
Fe154 O156 1.918 . S
Fe154 O159 1.997 . S
Fe154 O160 2.002 . S
Fe154 O165 1.976 . S
Fe154 O168 1.996 . S
Fe155 O156 1.918 . S
Fe155 O163 1.997 . S
Fe155 O166 1.996 . S
Fe155 O170 1.976 . S
Fe155 O173 2.002 . S
O156 Fe154 1.918 . S
O156 Fe155 1.918 . S
O156 Fe157 1.918 . S
Fe157 O156 1.918 . S
Fe157 O158 2.002 . S
Fe157 O167 1.976 . S
Fe157 O171 1.996 . S
Fe157 O174 1.997 . S
O158 Fe157 2.002 . S
O158 C175 1.295 . S
O159 Fe154 1.997 . S
O159 C175 1.235 . S
O160 Fe154 2.002 . S
O160 C161 1.295 . S
C161 O160 1.295 . S
C161 O163 1.235 . S
C162 O167 1.287 . S
C162 O168 1.255 . S
O163 Fe155 1.997 . S
O163 C161 1.235 . S
C164 O170 1.287 . S
C164 O171 1.255 . S
O165 Fe154 1.976 . S
O165 C172 1.287 . S
O166 Fe155 1.996 . S
O166 C172 1.255 . S
O167 Fe157 1.976 . S
O167 C162 1.287 . S
O168 Fe154 1.996 . S
O168 C162 1.255 . S
C169 O173 1.295 . S
C169 O174 1.235 . S
O170 Fe155 1.976 . S
O170 C164 1.287 . S
O171 Fe157 1.996 . S
O171 C164 1.255 . S
C172 O165 1.287 . S
C172 O166 1.255 . S
O173 Fe155 2.002 . S
O173 C169 1.295 . S
O174 Fe157 1.997 . S
O174 C169 1.235 . S
C175 O158 1.295 . S
C175 O159 1.235 . S
Fe176 O178 1.918 . S
Fe176 O181 1.997 . S
Fe176 O182 2.002 . S
Fe176 O187 1.976 . S
Fe176 O190 1.996 . S
Fe177 O178 1.918 . S
Fe177 O185 1.997 . S
Fe177 O188 1.996 . S
Fe177 O192 1.976 . S
Fe177 O195 2.002 . S
O178 Fe176 1.918 . S
O178 Fe177 1.918 . S
O178 Fe179 1.918 . S
Fe179 O178 1.918 . S
Fe179 O180 2.002 . S
Fe179 O189 1.976 . S
Fe179 O193 1.996 . S
Fe179 O196 1.997 . S
O180 Fe179 2.002 . S
O180 C197 1.295 . S
O181 Fe176 1.997 . S
O181 C197 1.235 . S
O182 Fe176 2.002 . S
O182 C183 1.295 . S
C183 O182 1.295 . S
C183 O185 1.235 . S
C184 O189 1.287 . S
C184 O190 1.255 . S
O185 Fe177 1.997 . S
O185 C183 1.235 . S
C186 O192 1.287 . S
C186 O193 1.255 . S
O187 Fe176 1.976 . S
O187 C194 1.287 . S
O188 Fe177 1.996 . S
O188 C194 1.255 . S
O189 Fe179 1.976 . S
O189 C184 1.287 . S
O190 Fe176 1.996 . S
O190 C184 1.255 . S
C191 O195 1.295 . S
C191 O196 1.235 . S
O192 Fe177 1.976 . S
O192 C186 1.287 . S
O193 Fe179 1.996 . S
O193 C186 1.255 . S
C194 O187 1.287 . S
C194 O188 1.255 . S
O195 Fe177 2.002 . S
O195 C191 1.295 . S
O196 Fe179 1.997 . S
O196 C191 1.235 . S
C197 O180 1.295 . S
C197 O181 1.235 . S
Fe198 O200 1.918 . S
Fe198 O203 1.997 . S
Fe198 O204 2.002 . S
Fe198 O209 1.976 . S
Fe198 O212 1.996 . S
Fe199 O200 1.918 . S
Fe199 O207 1.997 . S
Fe199 O210 1.996 . S
Fe199 O214 1.976 . S
Fe199 O217 2.002 . S
O200 Fe198 1.918 . S
O200 Fe199 1.918 . S
O200 Fe201 1.918 . S
Fe201 O200 1.918 . S
Fe201 O202 2.002 . S
Fe201 O211 1.976 . S
Fe201 O215 1.996 . S
Fe201 O218 1.997 . S
O202 Fe201 2.002 . S
O202 C219 1.295 . S
O203 Fe198 1.997 . S
O203 C219 1.235 . S
O204 Fe198 2.002 . S
O204 C205 1.295 . S
C205 O204 1.295 . S
C205 O207 1.235 . S
C206 O211 1.287 . S
C206 O212 1.255 . S
O207 Fe199 1.997 . S
O207 C205 1.235 . S
C208 O214 1.287 . S
C208 O215 1.255 . S
O209 Fe198 1.976 . S
O209 C216 1.287 . S
O210 Fe199 1.996 . S
O210 C216 1.255 . S
O211 Fe201 1.976 . S
O211 C206 1.287 . S
O212 Fe198 1.996 . S
O212 C206 1.255 . S
C213 O217 1.295 . S
C213 O218 1.235 . S
O214 Fe199 1.976 . S
O214 C208 1.287 . S
O215 Fe201 1.996 . S
O215 C208 1.255 . S
C216 O209 1.287 . S
C216 O210 1.255 . S
O217 Fe199 2.002 . S
O217 C213 1.295 . S
O218 Fe201 1.997 . S
O218 C213 1.235 . S
C219 O202 1.295 . S
C219 O203 1.235 . S
Fe220 O222 1.918 . S
Fe220 O225 1.997 . S
Fe220 O226 2.002 . S
Fe220 O231 1.976 . S
Fe220 O234 1.996 . S
Fe221 O222 1.918 . S
Fe221 O229 1.997 . S
Fe221 O232 1.996 . S
Fe221 O236 1.976 . S
Fe221 O239 2.002 . S
O222 Fe220 1.918 . S
O222 Fe221 1.918 . S
O222 Fe223 1.918 . S
Fe223 O222 1.918 . S
Fe223 O224 2.002 . S
Fe223 O233 1.976 . S
Fe223 O237 1.996 . S
Fe223 O240 1.997 . S
O224 Fe223 2.002 . S
O224 C241 1.295 . S
O225 Fe220 1.997 . S
O225 C241 1.235 . S
O226 Fe220 2.002 . S
O226 C227 1.295 . S
C227 O226 1.295 . S
C227 O229 1.235 . S
C228 O233 1.287 . S
C228 O234 1.255 . S
O229 Fe221 1.997 . S
O229 C227 1.235 . S
C230 O236 1.287 . S
C230 O237 1.255 . S
O231 Fe220 1.976 . S
O231 C238 1.287 . S
O232 Fe221 1.996 . S
O232 C238 1.255 . S
O233 Fe223 1.976 . S
O233 C228 1.287 . S
O234 Fe220 1.996 . S
O234 C228 1.255 . S
C235 O239 1.295 . S
C235 O240 1.235 . S
O236 Fe221 1.976 . S
O236 C230 1.287 . S
O237 Fe223 1.996 . S
O237 C230 1.255 . S
C238 O231 1.287 . S
C238 O232 1.255 . S
O239 Fe221 2.002 . S
O239 C235 1.295 . S
O240 Fe223 1.997 . S
O240 C235 1.235 . S
C241 O224 1.295 . S
C241 O225 1.235 . S
Fe242 O244 1.918 . S
Fe242 O247 1.997 . S
Fe242 O248 2.002 . S
Fe242 O253 1.976 . S
Fe242 O256 1.996 . S
Fe243 O244 1.918 . S
Fe243 O251 1.997 . S
Fe243 O254 1.996 . S
Fe243 O258 1.976 . S
Fe243 O261 2.002 . S
O244 Fe242 1.918 . S
O244 Fe243 1.918 . S
O244 Fe245 1.918 . S
Fe245 O244 1.918 . S
Fe245 O246 2.002 . S
Fe245 O255 1.976 . S
Fe245 O259 1.996 . S
Fe245 O262 1.997 . S
O246 Fe245 2.002 . S
O246 C263 1.295 . S
O247 Fe242 1.997 . S
O247 C263 1.235 . S
O248 Fe242 2.002 . S
O248 C249 1.295 . S
C249 O248 1.295 . S
C249 O251 1.235 . S
C250 O255 1.287 . S
C250 O256 1.255 . S
O251 Fe243 1.997 . S
O251 C249 1.235 . S
C252 O258 1.287 . S
C252 O259 1.255 . S
O253 Fe242 1.976 . S
O253 C260 1.287 . S
O254 Fe243 1.996 . S
O254 C260 1.255 . S
O255 Fe245 1.976 . S
O255 C250 1.287 . S
O256 Fe242 1.996 . S
O256 C250 1.255 . S
C257 O261 1.295 . S
C257 O262 1.235 . S
O258 Fe243 1.976 . S
O258 C252 1.287 . S
O259 Fe245 1.996 . S
O259 C252 1.255 . S
C260 O253 1.287 . S
C260 O254 1.255 . S
O261 Fe243 2.002 . S
O261 C257 1.295 . S
O262 Fe245 1.997 . S
O262 C257 1.235 . S
C263 O246 1.295 . S
C263 O247 1.235 . S
Fe264 O266 1.918 . S
Fe264 O269 1.997 . S
Fe264 O270 2.002 . S
Fe264 O275 1.976 . S
Fe264 O278 1.996 . S
Fe265 O266 1.918 . S
Fe265 O273 1.997 . S
Fe265 O276 1.996 . S
Fe265 O280 1.976 . S
Fe265 O283 2.002 . S
O266 Fe264 1.918 . S
O266 Fe265 1.918 . S
O266 Fe267 1.918 . S
Fe267 O266 1.918 . S
Fe267 O268 2.002 1_565 S
Fe267 O277 1.976 . S
Fe267 O281 1.996 . S
Fe267 O284 1.997 . S
O268 Fe267 2.002 1_545 S
O268 C285 1.295 1_545 S
O269 Fe264 1.997 . S
O269 C285 1.235 . S
O270 Fe264 2.002 . S
O270 C271 1.295 . S
C271 O270 1.295 . S
C271 O273 1.235 . S
C272 O277 1.287 . S
C272 O278 1.255 . S
O273 Fe265 1.997 . S
O273 C271 1.235 . S
C274 O280 1.287 . S
C274 O281 1.255 . S
O275 Fe264 1.976 . S
O275 C282 1.287 . S
O276 Fe265 1.996 . S
O276 C282 1.255 . S
O277 Fe267 1.976 . S
O277 C272 1.287 . S
O278 Fe264 1.996 . S
O278 C272 1.255 . S
C279 O283 1.295 . S
C279 O284 1.235 . S
O280 Fe265 1.976 . S
O280 C274 1.287 . S
O281 Fe267 1.996 . S
O281 C274 1.255 . S
C282 O275 1.287 . S
C282 O276 1.255 . S
O283 Fe265 2.002 . S
O283 C279 1.295 . S
O284 Fe267 1.997 . S
O284 C279 1.235 . S
C285 O268 1.295 1_565 S
C285 O269 1.235 . S
Fe286 O288 1.918 . S
Fe286 O291 1.997 . S
Fe286 O292 2.002 . S
Fe286 O297 1.976 . S
Fe286 O300 1.996 . S
Fe287 O288 1.918 . S
Fe287 O295 1.997 . S
Fe287 O298 1.996 . S
Fe287 O302 1.976 . S
Fe287 O305 2.002 . S
O288 Fe286 1.918 . S
O288 Fe287 1.918 . S
O288 Fe289 1.918 . S
Fe289 O288 1.918 . S
Fe289 O290 2.002 . S
Fe289 O299 1.976 . S
Fe289 O303 1.996 . S
Fe289 O306 1.997 . S
O290 Fe289 2.002 . S
O290 C307 1.295 . S
O291 Fe286 1.997 . S
O291 C307 1.235 . S
O292 Fe286 2.002 . S
O292 C293 1.295 . S
C293 O292 1.295 . S
C293 O295 1.235 . S
C294 O299 1.287 . S
C294 O300 1.255 . S
O295 Fe287 1.997 . S
O295 C293 1.235 . S
C296 O302 1.287 . S
C296 O303 1.255 . S
O297 Fe286 1.976 . S
O297 C304 1.287 . S
O298 Fe287 1.996 . S
O298 C304 1.255 . S
O299 Fe289 1.976 . S
O299 C294 1.287 . S
O300 Fe286 1.996 . S
O300 C294 1.255 . S
C301 O305 1.295 . S
C301 O306 1.235 . S
O302 Fe287 1.976 . S
O302 C296 1.287 . S
O303 Fe289 1.996 . S
O303 C296 1.255 . S
C304 O297 1.287 . S
C304 O298 1.255 . S
O305 Fe287 2.002 . S
O305 C301 1.295 . S
O306 Fe289 1.997 . S
O306 C301 1.235 . S
C307 O290 1.295 . S
C307 O291 1.235 . S
Fe308 O310 1.918 . S
Fe308 O313 1.997 . S
Fe308 O314 2.002 . S
Fe308 O319 1.976 . S
Fe308 O322 1.996 . S
Fe309 O310 1.918 . S
Fe309 O317 1.997 . S
Fe309 O320 1.996 . S
Fe309 O324 1.976 . S
Fe309 O327 2.002 . S
O310 Fe308 1.918 . S
O310 Fe309 1.918 . S
O310 Fe311 1.918 . S
Fe311 O310 1.918 . S
Fe311 O312 2.002 . S
Fe311 O321 1.976 . S
Fe311 O325 1.996 . S
Fe311 O328 1.997 . S
O312 Fe311 2.002 . S
O312 C329 1.295 . S
O313 Fe308 1.997 . S
O313 C329 1.235 . S
O314 Fe308 2.002 . S
O314 C315 1.295 . S
C315 O314 1.295 . S
C315 O317 1.235 . S
C316 O321 1.287 . S
C316 O322 1.255 . S
O317 Fe309 1.997 . S
O317 C315 1.235 . S
C318 O324 1.287 . S
C318 O325 1.255 . S
O319 Fe308 1.976 . S
O319 C326 1.287 . S
O320 Fe309 1.996 . S
O320 C326 1.255 . S
O321 Fe311 1.976 . S
O321 C316 1.287 . S
O322 Fe308 1.996 . S
O322 C316 1.255 . S
C323 O327 1.295 . S
C323 O328 1.235 . S
O324 Fe309 1.976 . S
O324 C318 1.287 . S
O325 Fe311 1.996 . S
O325 C318 1.255 . S
C326 O319 1.287 . S
C326 O320 1.255 . S
O327 Fe309 2.002 . S
O327 C323 1.295 . S
O328 Fe311 1.997 . S
O328 C323 1.235 . S
C329 O312 1.295 . S
C329 O313 1.235 . S
Fe330 O332 1.918 . S
Fe330 O335 1.997 . S
Fe330 O336 2.002 . S
Fe330 O341 1.976 . S
Fe330 O344 1.996 . S
Fe331 O332 1.918 . S
Fe331 O339 1.997 . S
Fe331 O342 1.996 . S
Fe331 O346 1.976 . S
Fe331 O349 2.002 . S
O332 Fe330 1.918 . S
O332 Fe331 1.918 . S
O332 Fe333 1.918 . S
Fe333 O332 1.918 . S
Fe333 O334 2.002 . S
Fe333 O343 1.976 . S
Fe333 O347 1.996 . S
Fe333 O350 1.997 . S
O334 Fe333 2.002 . S
O334 C351 1.295 . S
O335 Fe330 1.997 . S
O335 C351 1.235 . S
O336 Fe330 2.002 . S
O336 C337 1.295 . S
C337 O336 1.295 . S
C337 O339 1.235 . S
C338 O343 1.287 . S
C338 O344 1.255 . S
O339 Fe331 1.997 . S
O339 C337 1.235 . S
C340 O346 1.287 . S
C340 O347 1.255 . S
O341 Fe330 1.976 . S
O341 C348 1.287 . S
O342 Fe331 1.996 . S
O342 C348 1.255 . S
O343 Fe333 1.976 . S
O343 C338 1.287 . S
O344 Fe330 1.996 . S
O344 C338 1.255 . S
C345 O349 1.295 . S
C345 O350 1.235 . S
O346 Fe331 1.976 . S
O346 C340 1.287 . S
O347 Fe333 1.996 . S
O347 C340 1.255 . S
C348 O341 1.287 . S
C348 O342 1.255 . S
O349 Fe331 2.002 . S
O349 C345 1.295 . S
O350 Fe333 1.997 . S
O350 C345 1.235 . S
C351 O334 1.295 . S
C351 O335 1.235 . S
Fe352 O354 1.918 . S
Fe352 O357 1.997 . S
Fe352 O358 2.002 . S
Fe352 O363 1.976 . S
Fe352 O366 1.996 . S
Fe353 O354 1.918 . S
Fe353 O361 1.997 . S
Fe353 O364 1.996 . S
Fe353 O368 1.976 1_565 S
Fe353 O371 2.002 . S
O354 Fe352 1.918 . S
O354 Fe353 1.918 . S
O354 Fe355 1.918 . S
Fe355 O354 1.918 . S
Fe355 O356 2.002 . S
Fe355 O365 1.976 . S
Fe355 O369 1.996 . S
Fe355 O372 1.997 . S
O356 Fe355 2.002 . S
O356 C373 1.295 . S
O357 Fe352 1.997 . S
O357 C373 1.235 . S
O358 Fe352 2.002 . S
O358 C359 1.295 . S
C359 O358 1.295 . S
C359 O361 1.235 . S
C360 O365 1.287 . S
C360 O366 1.255 . S
O361 Fe353 1.997 . S
O361 C359 1.235 . S
C362 O368 1.287 1_565 S
C362 O369 1.255 . S
O363 Fe352 1.976 . S
O363 C370 1.287 . S
O364 Fe353 1.996 . S
O364 C370 1.255 . S
O365 Fe355 1.976 . S
O365 C360 1.287 . S
O366 Fe352 1.996 . S
O366 C360 1.255 . S
C367 O371 1.295 . S
C367 O372 1.235 . S
O368 Fe353 1.976 1_545 S
O368 C362 1.287 1_545 S
O369 Fe355 1.996 . S
O369 C362 1.255 . S
C370 O363 1.287 . S
C370 O364 1.255 . S
O371 Fe353 2.002 . S
O371 C367 1.295 . S
O372 Fe355 1.997 . S
O372 C367 1.235 . S
C373 O356 1.295 . S
C373 O357 1.235 . S
Fe374 O376 1.918 . S
Fe374 O379 1.997 . S
Fe374 O380 2.002 . S
Fe374 O385 1.976 . S
Fe374 O388 1.996 . S
Fe375 O376 1.918 . S
Fe375 O383 1.997 . S
Fe375 O386 1.996 . S
Fe375 O390 1.976 . S
Fe375 O393 2.002 . S
O376 Fe374 1.918 . S
O376 Fe375 1.918 . S
O376 Fe377 1.918 . S
Fe377 O376 1.918 . S
Fe377 O378 2.002 . S
Fe377 O387 1.976 . S
Fe377 O391 1.996 . S
Fe377 O394 1.997 . S
O378 Fe377 2.002 . S
O378 C395 1.295 . S
O379 Fe374 1.997 . S
O379 C395 1.235 . S
O380 Fe374 2.002 . S
O380 C381 1.295 . S
C381 O380 1.295 . S
C381 O383 1.235 . S
C382 O387 1.287 . S
C382 O388 1.255 . S
O383 Fe375 1.997 . S
O383 C381 1.235 . S
C384 O390 1.287 . S
C384 O391 1.255 . S
O385 Fe374 1.976 . S
O385 C392 1.287 . S
O386 Fe375 1.996 . S
O386 C392 1.255 . S
O387 Fe377 1.976 . S
O387 C382 1.287 . S
O388 Fe374 1.996 . S
O388 C382 1.255 . S
C389 O393 1.295 . S
C389 O394 1.235 . S
O390 Fe375 1.976 . S
O390 C384 1.287 . S
O391 Fe377 1.996 . S
O391 C384 1.255 . S
C392 O385 1.287 . S
C392 O386 1.255 . S
O393 Fe375 2.002 . S
O393 C389 1.295 . S
O394 Fe377 1.997 . S
O394 C389 1.235 . S
C395 O378 1.295 . S
C395 O379 1.235 . S
H396 C402 0.930 . S
H397 C405 0.930 . S
H398 C406 0.930 . S
H399 C407 0.930 . S
H400 C410 0.930 . S
H401 C411 0.930 . S
C402 H396 0.930 . S
C402 C403 1.355 . S
C402 C404 1.415 . S
C403 C402 1.355 . S
C403 C405 1.419 . S
C404 C402 1.415 . S
C404 C409 1.425 . S
C404 C411 1.409 . S
C405 H397 0.930 . S
C405 C403 1.419 . S
C405 C406 1.362 . S
C406 H398 0.930 . S
C406 C405 1.362 . S
C406 C409 1.409 . S
C407 H399 0.930 . S
C407 C408 1.355 . S
C407 C409 1.415 . S
C408 C407 1.355 . S
C408 C410 1.419 . S
C409 C404 1.425 . S
C409 C406 1.409 . S
C409 C407 1.415 . S
C410 H400 0.930 . S
C410 C408 1.419 . S
C410 C411 1.362 . S
C411 H401 0.930 . S
C411 C404 1.409 . S
C411 C410 1.362 . S
H412 C418 0.930 . S
H413 C421 0.930 1_455 S
H414 C422 0.930 . S
H415 C423 0.922 1_565 S
H416 C426 0.930 1_565 S
H417 C427 0.930 . S
C418 H412 0.930 . S
C418 C419 1.355 . S
C418 C420 1.415 . S
C419 C418 1.355 . S
C419 C421 1.419 . S
C420 C418 1.415 . S
C420 C425 1.425 . S
C420 C427 1.409 . S
C421 H413 0.930 1_655 S
C421 C419 1.419 . S
C421 C422 1.362 . S
C422 H414 0.930 . S
C422 C421 1.362 . S
C422 C425 1.409 . S
C423 H415 0.922 1_545 S
C423 C424 1.355 1_545 S
C423 C425 1.415 . S
C424 C423 1.355 1_565 S
C424 C426 1.419 1_565 S
C425 C420 1.425 . S
C425 C422 1.409 . S
C425 C423 1.415 . S
C426 H416 0.930 1_545 S
C426 C424 1.419 1_545 S
C426 C427 1.362 . S
C427 H417 0.930 . S
C427 C420 1.409 . S
C427 C426 1.362 . S
H428 C434 0.930 . S
H429 C437 0.930 . S
H430 C438 0.930 . S
H431 C439 0.930 . S
H432 C442 0.930 . S
H433 C443 0.930 . S
C434 H428 0.930 . S
C434 C435 1.355 . S
C434 C436 1.415 1_655 S
C435 C434 1.355 . S
C435 C437 1.419 . S
C436 C434 1.415 1_455 S
C436 C441 1.425 . S
C436 C443 1.409 1_565 S
C437 H429 0.930 . S
C437 C435 1.419 . S
C437 C438 1.362 1_655 S
C438 H430 0.930 . S
C438 C437 1.362 1_455 S
C438 C441 1.409 . S
C439 H431 0.930 . S
C439 C440 1.355 . S
C439 C441 1.415 . S
C440 C439 1.355 . S
C440 C442 1.419 1_565 S
C441 C436 1.425 . S
C441 C438 1.409 . S
C441 C439 1.415 . S
C442 H432 0.930 . S
C442 C440 1.419 1_545 S
C442 C443 1.362 . S
C443 H433 0.930 . S
C443 C436 1.409 1_545 S
C443 C442 1.362 . S
H444 C450 0.930 . S
H445 C453 0.930 1_455 S
H446 C454 0.930 . S
H447 C455 0.927 1_545 S
H448 C458 0.930 . S
H449 C459 0.930 . S
C450 H444 0.930 . S
C450 C451 1.355 . S
C450 C452 1.415 . S
C451 C450 1.355 . S
C451 C453 1.419 . S
C452 C450 1.415 . S
C452 C457 1.425 . S
C452 C459 1.409 . S
C453 H445 0.930 1_655 S
C453 C451 1.419 . S
C453 C454 1.362 . S
C454 H446 0.930 . S
C454 C453 1.362 . S
C454 C457 1.409 . S
C455 H447 0.927 1_565 S
C455 C456 1.355 . S
C455 C457 1.415 . S
C456 C455 1.355 . S
C456 C458 1.419 . S
C457 C452 1.425 . S
C457 C454 1.409 . S
C457 C455 1.415 . S
C458 H448 0.930 . S
C458 C456 1.419 . S
C458 C459 1.362 . S
C459 H449 0.930 . S
C459 C452 1.409 . S
C459 C458 1.362 . S
H460 C466 0.930 . S
H461 C469 0.930 . S
H462 C470 0.930 . S
H463 C471 0.930 . S
H464 C474 0.930 . S
H465 C475 0.930 . S
C466 H460 0.930 . S
C466 C467 1.355 1_545 S
C466 C468 1.415 . S
C467 C466 1.355 1_565 S
C467 C469 1.419 . S
C468 C466 1.415 . S
C468 C473 1.425 . S
C468 C475 1.409 . S
C469 H461 0.930 . S
C469 C467 1.419 . S
C469 C470 1.362 1_565 S
C470 H462 0.930 . S
C470 C469 1.362 1_545 S
C470 C473 1.409 . S
C471 H463 0.930 . S
C471 C472 1.355 . S
C471 C473 1.415 . S
C472 C471 1.355 . S
C472 C474 1.419 . S
C473 C468 1.425 . S
C473 C470 1.409 . S
C473 C471 1.415 . S
C474 H464 0.930 . S
C474 C472 1.419 . S
C474 C475 1.362 . S
C475 H465 0.930 . S
C475 C468 1.409 . S
C475 C474 1.362 . S
H476 C482 0.930 . S
H477 C485 0.930 . S
H478 C486 0.930 . S
H479 C487 0.930 . S
H480 C490 0.930 . S
H481 C491 0.930 . S
C482 H476 0.930 . S
C482 C483 1.355 . S
C482 C484 1.415 . S
C483 C482 1.355 . S
C483 C485 1.419 . S
C484 C482 1.415 . S
C484 C489 1.425 . S
C484 C491 1.409 . S
C485 H477 0.930 . S
C485 C483 1.419 . S
C485 C486 1.362 . S
C486 H478 0.930 . S
C486 C485 1.362 . S
C486 C489 1.409 . S
C487 H479 0.930 . S
C487 C488 1.355 . S
C487 C489 1.415 1_655 S
C488 C487 1.355 . S
C488 C490 1.419 . S
C489 C484 1.425 . S
C489 C486 1.409 . S
C489 C487 1.415 1_455 S
C490 H480 0.930 . S
C490 C488 1.419 . S
C490 C491 1.362 1_655 S
C491 H481 0.930 . S
C491 C484 1.409 . S
C491 C490 1.362 1_455 S
H492 C498 0.930 . S
H493 C501 0.930 . S
H494 C502 0.930 . S
H495 C503 0.930 . S
H496 C506 0.930 . S
H497 C507 0.930 . S
C498 H492 0.930 . S
C498 C499 1.355 . S
C498 C500 1.415 . S
C499 C498 1.355 . S
C499 C501 1.419 . S
C500 C498 1.415 . S
C500 C505 1.425 . S
C500 C507 1.409 . S
C501 H493 0.930 . S
C501 C499 1.419 . S
C501 C502 1.362 . S
C502 H494 0.930 . S
C502 C501 1.362 . S
C502 C505 1.409 . S
C503 H495 0.930 . S
C503 C504 1.355 . S
C503 C505 1.415 . S
C504 C503 1.355 . S
C504 C506 1.419 . S
C505 C500 1.425 . S
C505 C502 1.409 . S
C505 C503 1.415 . S
C506 H496 0.930 . S
C506 C504 1.419 . S
C506 C507 1.362 . S
C507 H497 0.930 . S
C507 C500 1.409 . S
C507 C506 1.362 . S
H508 C514 0.930 . S
H509 C517 0.930 . S
H510 C518 0.930 . S
H511 C519 0.930 . S
H512 C522 0.930 . S
H513 C523 0.930 . S
C514 H508 0.930 . S
C514 C515 1.355 . S
C514 C516 1.415 . S
C515 C514 1.355 . S
C515 C517 1.419 . S
C516 C514 1.415 . S
C516 C521 1.425 . S
C516 C523 1.409 . S
C517 H509 0.930 . S
C517 C515 1.419 . S
C517 C518 1.362 . S
C518 H510 0.930 . S
C518 C517 1.362 . S
C518 C521 1.409 . S
C519 H511 0.930 . S
C519 C520 1.355 . S
C519 C521 1.415 . S
C520 C519 1.355 . S
C520 C522 1.419 . S
C521 C516 1.425 . S
C521 C518 1.409 . S
C521 C519 1.415 . S
C522 H512 0.930 . S
C522 C520 1.419 . S
C522 C523 1.362 . S
C523 H513 0.930 . S
C523 C516 1.409 . S
C523 C522 1.362 . S
H524 C530 0.930 . S
H525 C533 0.930 . S
H526 C534 0.930 . S
H527 C535 0.930 . S
H528 C538 0.930 . S
H529 C539 0.930 . S
C530 H524 0.930 . S
C530 C531 1.355 . S
C530 C532 1.415 . S
C531 C530 1.355 . S
C531 C533 1.419 . S
C532 C530 1.415 . S
C532 C537 1.425 . S
C532 C539 1.409 . S
C533 H525 0.930 . S
C533 C531 1.419 . S
C533 C534 1.362 . S
C534 H526 0.930 . S
C534 C533 1.362 . S
C534 C537 1.409 . S
C535 H527 0.930 . S
C535 C536 1.355 . S
C535 C537 1.415 . S
C536 C535 1.355 . S
C536 C538 1.419 . S
C537 C532 1.425 . S
C537 C534 1.409 . S
C537 C535 1.415 . S
C538 H528 0.930 . S
C538 C536 1.419 . S
C538 C539 1.362 . S
C539 H529 0.930 . S
C539 C532 1.409 . S
C539 C538 1.362 . S
H540 C546 0.930 . S
H541 C549 0.930 . S
H542 C550 0.930 . S
H543 C551 0.930 . S
H544 C554 0.930 . S
H545 C555 0.930 . S
C546 H540 0.930 . S
C546 C547 1.355 . S
C546 C548 1.415 . S
C547 C546 1.355 . S
C547 C549 1.419 . S
C548 C546 1.415 . S
C548 C553 1.425 . S
C548 C555 1.409 . S
C549 H541 0.930 . S
C549 C547 1.419 . S
C549 C550 1.362 . S
C550 H542 0.930 . S
C550 C549 1.362 . S
C550 C553 1.409 . S
C551 H543 0.930 . S
C551 C552 1.355 . S
C551 C553 1.415 . S
C552 C551 1.355 . S
C552 C554 1.419 . S
C553 C548 1.425 . S
C553 C550 1.409 . S
C553 C551 1.415 . S
C554 H544 0.930 . S
C554 C552 1.419 . S
C554 C555 1.362 . S
C555 H545 0.930 . S
C555 C548 1.409 . S
C555 C554 1.362 . S
H556 C562 0.930 . S
H557 C565 0.930 . S
H558 C566 0.930 . S
H559 C567 0.930 . S
H560 C570 0.930 . S
H561 C571 0.930 . S
C562 H556 0.930 . S
C562 C563 1.355 . S
C562 C564 1.415 . S
C563 C562 1.355 . S
C563 C565 1.419 . S
C564 C562 1.415 . S
C564 C569 1.425 . S
C564 C571 1.409 . S
C565 H557 0.930 . S
C565 C563 1.419 . S
C565 C566 1.362 . S
C566 H558 0.930 . S
C566 C565 1.362 . S
C566 C569 1.409 . S
C567 H559 0.930 . S
C567 C568 1.355 . S
C567 C569 1.415 . S
C568 C567 1.355 . S
C568 C570 1.419 . S
C569 C564 1.425 . S
C569 C566 1.409 . S
C569 C567 1.415 . S
C570 H560 0.930 . S
C570 C568 1.419 . S
C570 C571 1.362 . S
C571 H561 0.930 . S
C571 C564 1.409 . S
C571 C570 1.362 . S
H572 C578 0.930 . S
H573 C581 0.930 . S
H574 C582 0.930 . S
H575 C583 0.930 . S
H576 C586 0.930 . S
H577 C587 0.930 . S
C578 H572 0.930 . S
C578 C579 1.355 . S
C578 C580 1.415 . S
C579 C578 1.355 . S
C579 C581 1.419 . S
C580 C578 1.415 . S
C580 C585 1.425 . S
C580 C587 1.409 . S
C581 H573 0.930 . S
C581 C579 1.419 . S
C581 C582 1.362 . S
C582 H574 0.930 . S
C582 C581 1.362 . S
C582 C585 1.409 . S
C583 H575 0.930 . S
C583 C584 1.355 . S
C583 C585 1.415 . S
C584 C583 1.355 . S
C584 C586 1.419 . S
C585 C580 1.425 . S
C585 C582 1.409 . S
C585 C583 1.415 . S
C586 H576 0.930 . S
C586 C584 1.419 . S
C586 C587 1.362 . S
C587 H577 0.930 . S
C587 C580 1.409 . S
C587 C586 1.362 . S
H588 C594 0.930 . S
H589 C597 0.930 . S
H590 C598 0.930 . S
H591 C599 0.930 . S
H592 C602 0.930 . S
H593 C603 0.930 . S
C594 H588 0.930 . S
C594 C595 1.355 . S
C594 C596 1.415 . S
C595 C594 1.355 . S
C595 C597 1.419 . S
C596 C594 1.415 . S
C596 C601 1.425 . S
C596 C603 1.409 . S
C597 H589 0.930 . S
C597 C595 1.419 . S
C597 C598 1.362 . S
C598 H590 0.930 . S
C598 C597 1.362 . S
C598 C601 1.409 . S
C599 H591 0.930 . S
C599 C600 1.355 . S
C599 C601 1.415 . S
C600 C599 1.355 . S
C600 C602 1.419 . S
C601 C596 1.425 . S
C601 C598 1.409 . S
C601 C599 1.415 . S
C602 H592 0.930 . S
C602 C600 1.419 . S
C602 C603 1.362 . S
C603 H593 0.930 . S
C603 C596 1.409 . S
C603 C602 1.362 . S
H604 C610 0.930 . S
H605 C613 0.930 . S
H606 C614 0.930 . S
H607 C615 0.930 . S
H608 C618 0.930 . S
H609 C619 0.930 . S
C610 H604 0.930 . S
C610 C611 1.355 . S
C610 C612 1.415 . S
C611 C610 1.355 . S
C611 C613 1.419 . S
C612 C610 1.415 . S
C612 C617 1.425 . S
C612 C619 1.409 . S
C613 H605 0.930 . S
C613 C611 1.419 . S
C613 C614 1.362 . S
C614 H606 0.930 . S
C614 C613 1.362 . S
C614 C617 1.409 . S
C615 H607 0.930 . S
C615 C616 1.355 . S
C615 C617 1.415 . S
C616 C615 1.355 . S
C616 C618 1.419 . S
C617 C612 1.425 . S
C617 C614 1.409 . S
C617 C615 1.415 . S
C618 H608 0.930 . S
C618 C616 1.419 . S
C618 C619 1.362 . S
C619 H609 0.930 . S
C619 C612 1.409 . S
C619 C618 1.362 . S
H620 C626 0.930 . S
H621 C629 0.930 . S
H622 C630 0.930 . S
H623 C631 0.930 . S
H624 C634 0.930 . S
H625 C635 0.930 . S
C626 H620 0.930 . S
C626 C627 1.355 . S
C626 C628 1.415 . S
C627 C626 1.355 . S
C627 C629 1.419 . S
C628 C626 1.415 . S
C628 C633 1.425 . S
C628 C635 1.409 . S
C629 H621 0.930 . S
C629 C627 1.419 . S
C629 C630 1.362 . S
C630 H622 0.930 . S
C630 C629 1.362 . S
C630 C633 1.409 . S
C631 H623 0.930 . S
C631 C632 1.355 . S
C631 C633 1.415 . S
C632 C631 1.355 . S
C632 C634 1.419 . S
C633 C628 1.425 . S
C633 C630 1.409 . S
C633 C631 1.415 . S
C634 H624 0.930 . S
C634 C632 1.419 . S
C634 C635 1.362 . S
C635 H625 0.930 . S
C635 C628 1.409 . S
C635 C634 1.362 . S
H636 C642 0.930 . S
H637 C645 0.930 . S
H638 C646 0.930 . S
H639 C647 0.930 . S
H640 C650 0.930 . S
H641 C651 0.930 . S
C642 H636 0.930 . S
C642 C643 1.355 . S
C642 C644 1.415 . S
C643 C642 1.355 . S
C643 C645 1.419 . S
C644 C642 1.415 . S
C644 C649 1.425 . S
C644 C651 1.409 . S
C645 H637 0.930 . S
C645 C643 1.419 . S
C645 C646 1.362 . S
C646 H638 0.930 . S
C646 C645 1.362 . S
C646 C649 1.409 . S
C647 H639 0.930 . S
C647 C648 1.355 . S
C647 C649 1.415 . S
C648 C647 1.355 . S
C648 C650 1.419 . S
C649 C644 1.425 . S
C649 C646 1.409 . S
C649 C647 1.415 . S
C650 H640 0.930 . S
C650 C648 1.419 . S
C650 C651 1.362 . S
C651 H641 0.930 . S
C651 C644 1.409 . S
C651 C650 1.362 . S
H652 C658 0.930 . S
H653 C661 0.930 . S
H654 C662 0.930 . S
H655 C663 0.930 . S
H656 C666 0.930 . S
H657 C667 0.930 . S
C658 H652 0.930 . S
C658 C659 1.355 . S
C658 C660 1.415 . S
C659 C658 1.355 . S
C659 C661 1.419 . S
C660 C658 1.415 . S
C660 C665 1.425 . S
C660 C667 1.409 . S
C661 H653 0.930 . S
C661 C659 1.419 . S
C661 C662 1.362 . S
C662 H654 0.930 . S
C662 C661 1.362 . S
C662 C665 1.409 . S
C663 H655 0.930 . S
C663 C664 1.355 . S
C663 C665 1.415 . S
C664 C663 1.355 . S
C664 C666 1.419 . S
C665 C660 1.425 . S
C665 C662 1.409 . S
C665 C663 1.415 . S
C666 H656 0.930 . S
C666 C664 1.419 . S
C666 C667 1.362 . S
C667 H657 0.930 . S
C667 C660 1.409 . S
C667 C666 1.362 . S
H668 C674 0.930 . S
H669 C677 0.930 . S
H670 C678 0.930 . S
H671 C679 0.930 . S
H672 C682 0.930 . S
H673 C683 0.930 . S
C674 H668 0.930 . S
C674 C675 1.355 . S
C674 C676 1.415 . S
C675 C674 1.355 . S
C675 C677 1.419 . S
C676 C674 1.415 . S
C676 C681 1.425 . S
C676 C683 1.409 . S
C677 H669 0.930 . S
C677 C675 1.419 . S
C677 C678 1.362 . S
C678 H670 0.930 . S
C678 C677 1.362 . S
C678 C681 1.409 . S
C679 H671 0.930 . S
C679 C680 1.355 . S
C679 C681 1.415 . S
C680 C679 1.355 . S
C680 C682 1.419 . S
C681 C676 1.425 . S
C681 C678 1.409 . S
C681 C679 1.415 . S
C682 H672 0.930 . S
C682 C680 1.419 . S
C682 C683 1.362 . S
C683 H673 0.930 . S
C683 C676 1.409 . S
C683 C682 1.362 . S
H684 C690 0.930 . S
H685 C693 0.930 . S
H686 C694 0.930 . S
H687 C695 0.930 . S
H688 C698 0.930 . S
H689 C699 0.930 . S
C690 H684 0.930 . S
C690 C691 1.355 . S
C690 C692 1.415 . S
C691 C690 1.355 . S
C691 C693 1.419 . S
C692 C690 1.415 . S
C692 C697 1.425 . S
C692 C699 1.409 . S
C693 H685 0.930 . S
C693 C691 1.419 . S
C693 C694 1.362 . S
C694 H686 0.930 . S
C694 C693 1.362 . S
C694 C697 1.409 . S
C695 H687 0.930 . S
C695 C696 1.355 . S
C695 C697 1.415 . S
C696 C695 1.355 . S
C696 C698 1.419 . S
C697 C692 1.425 . S
C697 C694 1.409 . S
C697 C695 1.415 . S
C698 H688 0.930 . S
C698 C696 1.419 . S
C698 C699 1.362 . S
C699 H689 0.930 . S
C699 C692 1.409 . S
C699 C698 1.362 . S
H700 C706 0.930 . S
H701 C709 0.930 . S
H702 C710 0.930 . S
H703 C711 0.930 . S
H704 C714 0.930 . S
H705 C715 0.930 . S
C706 H700 0.930 . S
C706 C707 1.355 . S
C706 C708 1.415 . S
C707 C706 1.355 . S
C707 C709 1.419 . S
C708 C706 1.415 . S
C708 C713 1.425 . S
C708 C715 1.409 . S
C709 H701 0.930 . S
C709 C707 1.419 . S
C709 C710 1.362 . S
C710 H702 0.930 . S
C710 C709 1.362 . S
C710 C713 1.409 . S
C711 H703 0.930 . S
C711 C712 1.355 . S
C711 C713 1.415 . S
C712 C711 1.355 . S
C712 C714 1.419 . S
C713 C708 1.425 . S
C713 C710 1.409 . S
C713 C711 1.415 . S
C714 H704 0.930 . S
C714 C712 1.419 . S
C714 C715 1.362 . S
C715 H705 0.930 . S
C715 C708 1.409 . S
C715 C714 1.362 . S
H716 C722 0.930 . S
H717 C725 0.930 . S
H718 C726 0.930 . S
H719 C727 0.930 . S
H720 C730 0.930 1_545 S
H721 C731 0.930 . S
C722 H716 0.930 . S
C722 C723 1.355 . S
C722 C724 1.415 . S
C723 C722 1.355 . S
C723 C725 1.419 1_545 S
C724 C722 1.415 . S
C724 C729 1.425 1_545 S
C724 C731 1.409 . S
C725 H717 0.930 . S
C725 C723 1.419 1_565 S
C725 C726 1.362 . S
C726 H718 0.930 . S
C726 C725 1.362 . S
C726 C729 1.409 . S
C727 H719 0.930 . S
C727 C728 1.355 . S
C727 C729 1.415 . S
C728 C727 1.355 . S
C728 C730 1.419 . S
C729 C724 1.425 1_565 S
C729 C726 1.409 . S
C729 C727 1.415 . S
C730 H720 0.930 1_565 S
C730 C728 1.419 . S
C730 C731 1.362 1_565 S
C731 H721 0.930 . S
C731 C724 1.409 . S
C731 C730 1.362 1_545 S
H732 C738 0.930 . S
H733 C741 0.930 1_554 S
H734 C742 0.930 . S
H735 C743 0.930 . S
H736 C746 0.930 . S
H737 C747 0.930 . S
C738 H732 0.930 . S
C738 C739 1.355 . S
C738 C740 1.415 . S
C739 C738 1.355 . S
C739 C741 1.419 . S
C740 C738 1.415 . S
C740 C745 1.425 . S
C740 C747 1.409 . S
C741 H733 0.930 1_556 S
C741 C739 1.419 . S
C741 C742 1.362 . S
C742 H734 0.930 . S
C742 C741 1.362 . S
C742 C745 1.409 . S
C743 H735 0.930 . S
C743 C744 1.355 . S
C743 C745 1.415 . S
C744 C743 1.355 . S
C744 C746 1.419 . S
C745 C740 1.425 . S
C745 C742 1.409 . S
C745 C743 1.415 . S
C746 H736 0.930 . S
C746 C744 1.419 . S
C746 C747 1.362 . S
C747 H737 0.930 . S
C747 C740 1.409 . S
C747 C746 1.362 . S
H748 C754 0.930 . S
H749 C757 0.923 1_455 S
H750 C758 0.930 . S
H751 C759 0.930 . S
H752 C762 0.930 1_554 S
H753 C763 0.930 . S
C754 H748 0.930 . S
C754 C755 1.355 . S
C754 C756 1.415 . S
C755 C754 1.355 . S
C755 C757 1.419 . S
C756 C754 1.415 . S
C756 C761 1.425 . S
C756 C763 1.409 . S
C757 H749 0.923 1_655 S
C757 C755 1.419 . S
C757 C758 1.362 . S
C758 H750 0.930 . S
C758 C757 1.362 . S
C758 C761 1.409 . S
C759 H751 0.930 . S
C759 C760 1.355 . S
C759 C761 1.415 . S
C760 C759 1.355 . S
C760 C762 1.419 . S
C761 C756 1.425 . S
C761 C758 1.409 . S
C761 C759 1.415 . S
C762 H752 0.930 1_556 S
C762 C760 1.419 . S
C762 C763 1.362 . S
C763 H753 0.930 . S
C763 C756 1.409 . S
C763 C762 1.362 . S
H764 C770 0.930 . S
H765 C773 0.930 . S
H766 C774 0.930 . S
H767 C775 0.930 . S
H768 C778 0.930 . S
H769 C779 0.930 . S
C770 H764 0.930 . S
C770 C771 1.355 . S
C770 C772 1.415 . S
C771 C770 1.355 . S
C771 C773 1.419 . S
C772 C770 1.415 . S
C772 C777 1.425 . S
C772 C779 1.409 . S
C773 H765 0.930 . S
C773 C771 1.419 . S
C773 C774 1.362 . S
C774 H766 0.930 . S
C774 C773 1.362 . S
C774 C777 1.409 . S
C775 H767 0.930 . S
C775 C776 1.355 . S
C775 C777 1.415 . S
C776 C775 1.355 . S
C776 C778 1.419 . S
C777 C772 1.425 . S
C777 C774 1.409 . S
C777 C775 1.415 . S
C778 H768 0.930 . S
C778 C776 1.419 . S
C778 C779 1.362 . S
C779 H769 0.930 . S
C779 C772 1.409 . S
C779 C778 1.362 . S
H780 C786 0.930 . S
H781 C789 0.930 . S
H782 C790 0.930 1_455 S
H783 C791 0.930 1_455 S
H784 C794 0.930 . S
H785 C795 0.930 . S
C786 H780 0.930 . S
C786 C787 1.355 . S
C786 C788 1.415 . S
C787 C786 1.355 . S
C787 C789 1.419 . S
C788 C786 1.415 . S
C788 C793 1.425 . S
C788 C795 1.409 . S
C789 H781 0.930 . S
C789 C787 1.419 . S
C789 C790 1.362 . S
C790 H782 0.930 1_655 S
C790 C789 1.362 . S
C790 C793 1.409 . S
C791 H783 0.930 1_655 S
C791 C792 1.355 . S
C791 C793 1.415 . S
C792 C791 1.355 . S
C792 C794 1.419 . S
C793 C788 1.425 . S
C793 C790 1.409 . S
C793 C791 1.415 . S
C794 H784 0.930 . S
C794 C792 1.419 . S
C794 C795 1.362 . S
C795 H785 0.930 . S
C795 C788 1.409 . S
C795 C794 1.362 . S
H796 C802 0.930 . S
H797 C805 0.930 . S
H798 C806 0.930 . S
H799 C807 0.930 . S
H800 C810 0.930 . S
H801 C811 0.930 . S
C802 H796 0.930 . S
C802 C803 1.355 . S
C802 C804 1.415 . S
C803 C802 1.355 . S
C803 C805 1.419 . S
C804 C802 1.415 . S
C804 C809 1.425 . S
C804 C811 1.409 . S
C805 H797 0.930 . S
C805 C803 1.419 . S
C805 C806 1.362 . S
C806 H798 0.930 . S
C806 C805 1.362 . S
C806 C809 1.409 . S
C807 H799 0.930 . S
C807 C808 1.355 . S
C807 C809 1.415 . S
C808 C807 1.355 . S
C808 C810 1.419 . S
C809 C804 1.425 . S
C809 C806 1.409 . S
C809 C807 1.415 . S
C810 H800 0.930 . S
C810 C808 1.419 . S
C810 C811 1.362 . S
C811 H801 0.930 . S
C811 C804 1.409 . S
C811 C810 1.362 . S
H812 C818 0.930 . S
H813 C821 0.930 . S
H814 C822 0.930 . S
H815 C823 0.930 . S
H816 C826 0.930 . S
H817 C827 0.930 . S
C818 H812 0.930 . S
C818 C819 1.355 . S
C818 C820 1.415 . S
C819 C818 1.355 . S
C819 C821 1.419 . S
C820 C818 1.415 . S
C820 C825 1.425 . S
C820 C827 1.409 . S
C821 H813 0.930 . S
C821 C819 1.419 . S
C821 C822 1.362 . S
C822 H814 0.930 . S
C822 C821 1.362 . S
C822 C825 1.409 . S
C823 H815 0.930 . S
C823 C824 1.355 . S
C823 C825 1.415 . S
C824 C823 1.355 . S
C824 C826 1.419 . S
C825 C820 1.425 . S
C825 C822 1.409 . S
C825 C823 1.415 . S
C826 H816 0.930 . S
C826 C824 1.419 . S
C826 C827 1.362 . S
C827 H817 0.930 . S
C827 C820 1.409 . S
C827 C826 1.362 . S
H828 C834 0.930 . S
H829 C837 0.930 . S
H830 C838 0.930 . S
H831 C839 0.930 . S
H832 C842 0.930 . S
H833 C843 0.930 . S
C834 H828 0.930 . S
C834 C835 1.355 . S
C834 C836 1.415 1_545 S
C835 C834 1.355 . S
C835 C837 1.419 1_545 S
C836 C834 1.415 1_565 S
C836 C841 1.425 . S
C836 C843 1.409 1_565 S
C837 H829 0.930 . S
C837 C835 1.419 1_565 S
C837 C838 1.362 . S
C838 H830 0.930 . S
C838 C837 1.362 . S
C838 C841 1.409 . S
C839 H831 0.930 . S
C839 C840 1.355 . S
C839 C841 1.415 . S
C840 C839 1.355 . S
C840 C842 1.419 . S
C841 C836 1.425 . S
C841 C838 1.409 . S
C841 C839 1.415 . S
C842 H832 0.930 . S
C842 C840 1.419 . S
C842 C843 1.362 1_565 S
C843 H833 0.930 . S
C843 C836 1.409 1_545 S
C843 C842 1.362 1_545 S
H844 C850 0.930 . S
H845 C853 0.930 1_556 S
H846 C854 0.930 . S
H847 C855 0.930 . S
H848 C858 0.930 . S
H849 C859 0.930 . S
C850 H844 0.930 . S
C850 C851 1.355 . S
C850 C852 1.415 . S
C851 C850 1.355 . S
C851 C853 1.419 . S
C852 C850 1.415 . S
C852 C857 1.425 . S
C852 C859 1.409 . S
C853 H845 0.930 1_554 S
C853 C851 1.419 . S
C853 C854 1.362 . S
C854 H846 0.930 . S
C854 C853 1.362 . S
C854 C857 1.409 . S
C855 H847 0.930 . S
C855 C856 1.355 . S
C855 C857 1.415 . S
C856 C855 1.355 . S
C856 C858 1.419 . S
C857 C852 1.425 . S
C857 C854 1.409 . S
C857 C855 1.415 . S
C858 H848 0.930 . S
C858 C856 1.419 . S
C858 C859 1.362 . S
C859 H849 0.930 . S
C859 C852 1.409 . S
C859 C858 1.362 . S
H860 C866 0.930 . S
H861 C869 0.930 . S
H862 C870 0.930 . S
H863 C871 0.930 . S
H864 C874 0.930 . S
H865 C875 0.930 . S
C866 H860 0.930 . S
C866 C867 1.355 . S
C866 C868 1.415 . S
C867 C866 1.355 . S
C867 C869 1.419 . S
C868 C866 1.415 . S
C868 C873 1.425 . S
C868 C875 1.409 . S
C869 H861 0.930 . S
C869 C867 1.419 . S
C869 C870 1.362 . S
C870 H862 0.930 . S
C870 C869 1.362 . S
C870 C873 1.409 . S
C871 H863 0.930 . S
C871 C872 1.355 . S
C871 C873 1.415 . S
C872 C871 1.355 . S
C872 C874 1.419 . S
C873 C868 1.425 . S
C873 C870 1.409 . S
C873 C871 1.415 . S
C874 H864 0.930 . S
C874 C872 1.419 . S
C874 C875 1.362 . S
C875 H865 0.930 . S
C875 C868 1.409 . S
C875 C874 1.362 . S
H876 C882 0.930 . S
H877 C885 0.930 . S
H878 C886 0.930 . S
H879 C887 0.930 . S
H880 C890 0.930 . S
H881 C891 0.930 . S
C882 H876 0.930 . S
C882 C883 1.355 . S
C882 C884 1.415 . S
C883 C882 1.355 . S
C883 C885 1.419 . S
C884 C882 1.415 . S
C884 C889 1.425 . S
C884 C891 1.409 . S
C885 H877 0.930 . S
C885 C883 1.419 . S
C885 C886 1.362 . S
C886 H878 0.930 . S
C886 C885 1.362 . S
C886 C889 1.409 . S
C887 H879 0.930 . S
C887 C888 1.355 1_455 S
C887 C889 1.415 . S
C888 C887 1.355 1_655 S
C888 C890 1.419 . S
C889 C884 1.425 . S
C889 C886 1.409 . S
C889 C887 1.415 . S
C890 H880 0.930 . S
C890 C888 1.419 . S
C890 C891 1.362 1_655 S
C891 H881 0.930 . S
C891 C884 1.409 . S
C891 C890 1.362 1_455 S
H892 C898 0.930 . S
H893 C901 0.930 . S
H894 C902 0.930 . S
H895 C903 0.930 . S
H896 C906 0.930 . S
H897 C907 0.930 . S
C898 H892 0.930 . S
C898 C899 1.355 . S
C898 C900 1.415 . S
C899 C898 1.355 . S
C899 C901 1.419 . S
C900 C898 1.415 . S
C900 C905 1.425 . S
C900 C907 1.409 . S
C901 H893 0.930 . S
C901 C899 1.419 . S
C901 C902 1.362 . S
C902 H894 0.930 . S
C902 C901 1.362 . S
C902 C905 1.409 . S
C903 H895 0.930 . S
C903 C904 1.355 . S
C903 C905 1.415 . S
C904 C903 1.355 . S
C904 C906 1.419 . S
C905 C900 1.425 . S
C905 C902 1.409 . S
C905 C903 1.415 . S
C906 H896 0.930 . S
C906 C904 1.419 . S
C906 C907 1.362 . S
C907 H897 0.930 . S
C907 C900 1.409 . S
C907 C906 1.362 . S
H908 C914 0.930 . S
H909 C917 0.930 . S
H910 C918 0.930 . S
H911 C919 0.930 . S
H912 C922 0.930 . S
H913 C923 0.930 . S
C914 H908 0.930 . S
C914 C915 1.355 . S
C914 C916 1.415 . S
C915 C914 1.355 . S
C915 C917 1.419 . S
C916 C914 1.415 . S
C916 C921 1.425 . S
C916 C923 1.409 . S
C917 H909 0.930 . S
C917 C915 1.419 . S
C917 C918 1.362 . S
C918 H910 0.930 . S
C918 C917 1.362 . S
C918 C921 1.409 . S
C919 H911 0.930 . S
C919 C920 1.355 . S
C919 C921 1.415 . S
C920 C919 1.355 . S
C920 C922 1.419 . S
C921 C916 1.425 . S
C921 C918 1.409 . S
C921 C919 1.415 . S
C922 H912 0.930 . S
C922 C920 1.419 . S
C922 C923 1.362 . S
C923 H913 0.930 . S
C923 C916 1.409 . S
C923 C922 1.362 . S
H924 C930 0.930 . S
H925 C933 0.930 . S
H926 C934 0.930 . S
H927 C935 0.930 . S
H928 C938 0.930 . S
H929 C939 0.930 . S
C930 H924 0.930 . S
C930 C931 1.355 . S
C930 C932 1.415 . S
C931 C930 1.355 . S
C931 C933 1.419 . S
C932 C930 1.415 . S
C932 C937 1.425 . S
C932 C939 1.409 . S
C933 H925 0.930 . S
C933 C931 1.419 . S
C933 C934 1.362 . S
C934 H926 0.930 . S
C934 C933 1.362 . S
C934 C937 1.409 . S
C935 H927 0.930 . S
C935 C936 1.355 . S
C935 C937 1.415 . S
C936 C935 1.355 . S
C936 C938 1.419 1_545 S
C937 C932 1.425 . S
C937 C934 1.409 . S
C937 C935 1.415 . S
C938 H928 0.930 . S
C938 C936 1.419 1_565 S
C938 C939 1.362 1_565 S
C939 H929 0.930 . S
C939 C932 1.409 . S
C939 C938 1.362 1_545 S
H940 C946 0.930 . S
H941 C949 0.930 . S
H942 C950 0.930 . S
H943 C951 0.930 . S
H944 C954 0.930 . S
H945 C955 0.930 . S
C946 H940 0.930 . S
C946 C947 1.355 . S
C946 C948 1.415 . S
C947 C946 1.355 . S
C947 C949 1.419 . S
C948 C946 1.415 . S
C948 C953 1.425 . S
C948 C955 1.409 1_455 S
C949 H941 0.930 . S
C949 C947 1.419 . S
C949 C950 1.362 . S
C950 H942 0.930 . S
C950 C949 1.362 . S
C950 C953 1.409 . S
C951 H943 0.930 . S
C951 C952 1.355 1_455 S
C951 C953 1.415 . S
C952 C951 1.355 1_655 S
C952 C954 1.419 . S
C953 C948 1.425 . S
C953 C950 1.409 . S
C953 C951 1.415 . S
C954 H944 0.930 . S
C954 C952 1.419 . S
C954 C955 1.362 . S
C955 H945 0.930 . S
C955 C948 1.409 1_655 S
C955 C954 1.362 . S
H956 C962 0.930 . S
H957 C965 0.930 . S
H958 C966 0.930 . S
H959 C967 0.930 . S
H960 C970 0.930 . S
H961 C971 0.930 . S
C962 H956 0.930 . S
C962 C963 1.355 . S
C962 C964 1.415 . S
C963 C962 1.355 . S
C963 C965 1.419 . S
C964 C962 1.415 . S
C964 C969 1.425 . S
C964 C971 1.409 . S
C965 H957 0.930 . S
C965 C963 1.419 . S
C965 C966 1.362 . S
C966 H958 0.930 . S
C966 C965 1.362 . S
C966 C969 1.409 . S
C967 H959 0.930 . S
C967 C968 1.355 . S
C967 C969 1.415 . S
C968 C967 1.355 . S
C968 C970 1.419 . S
C969 C964 1.425 . S
C969 C966 1.409 . S
C969 C967 1.415 . S
C970 H960 0.930 . S
C970 C968 1.419 . S
C970 C971 1.362 . S
C971 H961 0.930 . S
C971 C964 1.409 . S
C971 C970 1.362 . S
H972 C978 0.930 . S
H973 C981 0.930 . S
H974 C982 0.930 . S
H975 C983 0.930 . S
H976 C986 0.930 . S
H977 C987 0.930 . S
C978 H972 0.930 . S
C978 C979 1.355 . S
C978 C980 1.415 . S
C979 C978 1.355 . S
C979 C981 1.419 . S
C980 C978 1.415 . S
C980 C985 1.425 . S
C980 C987 1.409 . S
C981 H973 0.930 . S
C981 C979 1.419 . S
C981 C982 1.362 . S
C982 H974 0.930 . S
C982 C981 1.362 . S
C982 C985 1.409 . S
C983 H975 0.930 . S
C983 C984 1.355 . S
C983 C985 1.415 . S
C984 C983 1.355 . S
C984 C986 1.419 . S
C985 C980 1.425 . S
C985 C982 1.409 . S
C985 C983 1.415 . S
C986 H976 0.930 . S
C986 C984 1.419 . S
C986 C987 1.362 . S
C987 H977 0.930 . S
C987 C980 1.409 . S
C987 C986 1.362 . S
H988 C994 0.930 . S
H989 C997 0.930 . S
H990 C998 0.930 . S
H991 C999 0.930 . S
H992 C1002 0.930 . S
H993 C1003 0.930 . S
C994 H988 0.930 . S
C994 C995 1.355 . S
C994 C996 1.415 . S
C995 C994 1.355 . S
C995 C997 1.419 . S
C996 C994 1.415 . S
C996 C1001 1.425 . S
C996 C1003 1.409 . S
C997 H989 0.930 . S
C997 C995 1.419 . S
C997 C998 1.362 . S
C998 H990 0.930 . S
C998 C997 1.362 . S
C998 C1001 1.409 . S
C999 H991 0.930 . S
C999 C1000 1.355 . S
C999 C1001 1.415 . S
C1000 C999 1.355 . S
C1000 C1002 1.419 . S
C1001 C996 1.425 . S
C1001 C998 1.409 . S
C1001 C999 1.415 . S
C1002 H992 0.930 . S
C1002 C1000 1.419 . S
C1002 C1003 1.362 . S
C1003 H993 0.930 . S
C1003 C996 1.409 . S
C1003 C1002 1.362 . S
H1004 C1010 0.930 . S
H1005 C1013 0.930 . S
H1006 C1014 0.930 . S
H1007 C1015 0.930 . S
H1008 C1018 0.930 . S
H1009 C1019 0.930 . S
C1010 H1004 0.930 . S
C1010 C1011 1.355 . S
C1010 C1012 1.415 . S
C1011 C1010 1.355 . S
C1011 C1013 1.419 . S
C1012 C1010 1.415 . S
C1012 C1017 1.425 . S
C1012 C1019 1.409 . S
C1013 H1005 0.930 . S
C1013 C1011 1.419 . S
C1013 C1014 1.362 . S
C1014 H1006 0.930 . S
C1014 C1013 1.362 . S
C1014 C1017 1.409 . S
C1015 H1007 0.930 . S
C1015 C1016 1.355 . S
C1015 C1017 1.415 . S
C1016 C1015 1.355 . S
C1016 C1018 1.419 . S
C1017 C1012 1.425 . S
C1017 C1014 1.409 . S
C1017 C1015 1.415 . S
C1018 H1008 0.930 . S
C1018 C1016 1.419 . S
C1018 C1019 1.362 . S
C1019 H1009 0.930 . S
C1019 C1012 1.409 . S
C1019 C1018 1.362 . S
H1020 C1026 0.930 . S
H1021 C1029 0.930 . S
H1022 C1030 0.930 . S
H1023 C1031 0.930 . S
H1024 C1034 0.930 . S
H1025 C1035 0.930 . S
C1026 H1020 0.930 . S
C1026 C1027 1.355 . S
C1026 C1028 1.415 . S
C1027 C1026 1.355 . S
C1027 C1029 1.419 . S
C1028 C1026 1.415 . S
C1028 C1033 1.425 . S
C1028 C1035 1.409 . S
C1029 H1021 0.930 . S
C1029 C1027 1.419 . S
C1029 C1030 1.362 . S
C1030 H1022 0.930 . S
C1030 C1029 1.362 . S
C1030 C1033 1.409 . S
C1031 H1023 0.930 . S
C1031 C1032 1.355 . S
C1031 C1033 1.415 . S
C1032 C1031 1.355 . S
C1032 C1034 1.419 . S
C1033 C1028 1.425 . S
C1033 C1030 1.409 . S
C1033 C1031 1.415 . S
C1034 H1024 0.930 . S
C1034 C1032 1.419 . S
C1034 C1035 1.362 . S
C1035 H1025 0.930 . S
C1035 C1028 1.409 . S
C1035 C1034 1.362 . S
H1036 C1042 0.930 . S
H1037 C1045 0.930 . S
H1038 C1046 0.930 . S
H1039 C1047 0.930 . S
H1040 C1050 0.930 . S
H1041 C1051 0.930 . S
C1042 H1036 0.930 . S
C1042 C1043 1.355 . S
C1042 C1044 1.415 . S
C1043 C1042 1.355 . S
C1043 C1045 1.419 . S
C1044 C1042 1.415 . S
C1044 C1049 1.425 . S
C1044 C1051 1.409 . S
C1045 H1037 0.930 . S
C1045 C1043 1.419 . S
C1045 C1046 1.362 . S
C1046 H1038 0.930 . S
C1046 C1045 1.362 . S
C1046 C1049 1.409 . S
C1047 H1039 0.930 . S
C1047 C1048 1.355 . S
C1047 C1049 1.415 . S
C1048 C1047 1.355 . S
C1048 C1050 1.419 . S
C1049 C1044 1.425 . S
C1049 C1046 1.409 . S
C1049 C1047 1.415 . S
C1050 H1040 0.930 . S
C1050 C1048 1.419 . S
C1050 C1051 1.362 . S
C1051 H1041 0.930 . S
C1051 C1044 1.409 . S
C1051 C1050 1.362 . S
H1052 C1058 0.930 . S
H1053 C1061 0.930 . S
H1054 C1062 0.930 . S
H1055 C1063 0.930 . S
H1056 C1066 0.930 . S
H1057 C1067 0.930 . S
C1058 H1052 0.930 . S
C1058 C1059 1.355 . S
C1058 C1060 1.415 . S
C1059 C1058 1.355 . S
C1059 C1061 1.419 . S
C1060 C1058 1.415 . S
C1060 C1065 1.425 . S
C1060 C1067 1.409 . S
C1061 H1053 0.930 . S
C1061 C1059 1.419 . S
C1061 C1062 1.362 . S
C1062 H1054 0.930 . S
C1062 C1061 1.362 . S
C1062 C1065 1.409 . S
C1063 H1055 0.930 . S
C1063 C1064 1.355 . S
C1063 C1065 1.415 . S
C1064 C1063 1.355 . S
C1064 C1066 1.419 . S
C1065 C1060 1.425 . S
C1065 C1062 1.409 . S
C1065 C1063 1.415 . S
C1066 H1056 0.930 . S
C1066 C1064 1.419 . S
C1066 C1067 1.362 . S
C1067 H1057 0.930 . S
C1067 C1060 1.409 . S
C1067 C1066 1.362 . S
H1068 C1074 0.930 . S
H1069 C1077 0.930 . S
H1070 C1078 0.930 . S
H1071 C1079 0.930 . S
H1072 C1082 0.930 . S
H1073 C1083 0.930 . S
C1074 H1068 0.930 . S
C1074 C1075 1.355 . S
C1074 C1076 1.415 . S
C1075 C1074 1.355 . S
C1075 C1077 1.419 . S
C1076 C1074 1.415 . S
C1076 C1081 1.425 . S
C1076 C1083 1.409 . S
C1077 H1069 0.930 . S
C1077 C1075 1.419 . S
C1077 C1078 1.362 . S
C1078 H1070 0.930 . S
C1078 C1077 1.362 . S
C1078 C1081 1.409 . S
C1079 H1071 0.930 . S
C1079 C1080 1.355 . S
C1079 C1081 1.415 . S
C1080 C1079 1.355 . S
C1080 C1082 1.419 . S
C1081 C1076 1.425 . S
C1081 C1078 1.409 . S
C1081 C1079 1.415 . S
C1082 H1072 0.930 . S
C1082 C1080 1.419 . S
C1082 C1083 1.362 . S
C1083 H1073 0.930 . S
C1083 C1076 1.409 . S
C1083 C1082 1.362 . S
H1084 C1090 0.930 . S
H1085 C1093 0.930 . S
H1086 C1094 0.930 . S
H1087 C1095 0.930 . S
H1088 C1098 0.930 . S
H1089 C1099 0.930 . S
C1090 H1084 0.930 . S
C1090 C1091 1.355 . S
C1090 C1092 1.415 . S
C1091 C1090 1.355 . S
C1091 C1093 1.419 . S
C1092 C1090 1.415 . S
C1092 C1097 1.425 . S
C1092 C1099 1.409 . S
C1093 H1085 0.930 . S
C1093 C1091 1.419 . S
C1093 C1094 1.362 . S
C1094 H1086 0.930 . S
C1094 C1093 1.362 . S
C1094 C1097 1.409 . S
C1095 H1087 0.930 . S
C1095 C1096 1.355 . S
C1095 C1097 1.415 . S
C1096 C1095 1.355 . S
C1096 C1098 1.419 . S
C1097 C1092 1.425 . S
C1097 C1094 1.409 . S
C1097 C1095 1.415 . S
C1098 H1088 0.930 . S
C1098 C1096 1.419 . S
C1098 C1099 1.362 . S
C1099 H1089 0.930 . S
C1099 C1092 1.409 . S
C1099 C1098 1.362 . S
H1100 C1106 0.930 . S
H1101 C1109 0.930 . S
H1102 C1110 0.930 . S
H1103 C1111 0.930 . S
H1104 C1114 0.930 . S
H1105 C1115 0.930 . S
C1106 H1100 0.930 . S
C1106 C1107 1.355 . S
C1106 C1108 1.415 . S
C1107 C1106 1.355 . S
C1107 C1109 1.419 . S
C1108 C1106 1.415 . S
C1108 C1113 1.425 . S
C1108 C1115 1.409 . S
C1109 H1101 0.930 . S
C1109 C1107 1.419 . S
C1109 C1110 1.362 . S
C1110 H1102 0.930 . S
C1110 C1109 1.362 . S
C1110 C1113 1.409 . S
C1111 H1103 0.930 . S
C1111 C1112 1.355 . S
C1111 C1113 1.415 . S
C1112 C1111 1.355 . S
C1112 C1114 1.419 . S
C1113 C1108 1.425 . S
C1113 C1110 1.409 . S
C1113 C1111 1.415 . S
C1114 H1104 0.930 . S
C1114 C1112 1.419 . S
C1114 C1115 1.362 . S
C1115 H1105 0.930 . S
C1115 C1108 1.409 . S
C1115 C1114 1.362 . S
H1116 C1122 0.930 . S
H1117 C1125 0.930 . S
H1118 C1126 0.930 . S
H1119 C1127 0.930 . S
H1120 C1130 0.930 . S
H1121 C1131 0.930 . S
C1122 H1116 0.930 . S
C1122 C1123 1.355 . S
C1122 C1124 1.415 . S
C1123 C1122 1.355 . S
C1123 C1125 1.419 . S
C1124 C1122 1.415 . S
C1124 C1129 1.425 . S
C1124 C1131 1.409 . S
C1125 H1117 0.930 . S
C1125 C1123 1.419 . S
C1125 C1126 1.362 . S
C1126 H1118 0.930 . S
C1126 C1125 1.362 . S
C1126 C1129 1.409 . S
C1127 H1119 0.930 . S
C1127 C1128 1.355 . S
C1127 C1129 1.415 . S
C1128 C1127 1.355 . S
C1128 C1130 1.419 . S
C1129 C1124 1.425 . S
C1129 C1126 1.409 . S
C1129 C1127 1.415 . S
C1130 H1120 0.930 . S
C1130 C1128 1.419 . S
C1130 C1131 1.362 . S
C1131 H1121 0.930 . S
C1131 C1124 1.409 . S
C1131 C1130 1.362 . S
H1132 C1138 0.930 . S
H1133 C1141 0.930 . S
H1134 C1142 0.930 . S
H1135 C1143 0.930 . S
H1136 C1146 0.930 . S
H1137 C1147 0.930 . S
C1138 H1132 0.930 . S
C1138 C1139 1.355 . S
C1138 C1140 1.415 . S
C1139 C1138 1.355 . S
C1139 C1141 1.419 . S
C1140 C1138 1.415 . S
C1140 C1145 1.425 . S
C1140 C1147 1.409 . S
C1141 H1133 0.930 . S
C1141 C1139 1.419 . S
C1141 C1142 1.362 . S
C1142 H1134 0.930 . S
C1142 C1141 1.362 . S
C1142 C1145 1.409 . S
C1143 H1135 0.930 . S
C1143 C1144 1.355 . S
C1143 C1145 1.415 . S
C1144 C1143 1.355 . S
C1144 C1146 1.419 . S
C1145 C1140 1.425 . S
C1145 C1142 1.409 . S
C1145 C1143 1.415 . S
C1146 H1136 0.930 . S
C1146 C1144 1.419 . S
C1146 C1147 1.362 . S
C1147 H1137 0.930 . S
C1147 C1140 1.409 . S
C1147 C1146 1.362 . S
H1148 C1154 0.930 . S
H1149 C1157 0.930 . S
H1150 C1158 0.930 . S
H1151 C1159 0.930 . S
H1152 C1162 0.930 . S
H1153 C1163 0.930 . S
C1154 H1148 0.930 . S
C1154 C1155 1.355 . S
C1154 C1156 1.415 . S
C1155 C1154 1.355 . S
C1155 C1157 1.419 . S
C1156 C1154 1.415 . S
C1156 C1161 1.425 . S
C1156 C1163 1.409 . S
C1157 H1149 0.930 . S
C1157 C1155 1.419 . S
C1157 C1158 1.362 . S
C1158 H1150 0.930 . S
C1158 C1157 1.362 . S
C1158 C1161 1.409 . S
C1159 H1151 0.930 . S
C1159 C1160 1.355 . S
C1159 C1161 1.415 . S
C1160 C1159 1.355 . S
C1160 C1162 1.419 . S
C1161 C1156 1.425 . S
C1161 C1158 1.409 . S
C1161 C1159 1.415 . S
C1162 H1152 0.930 . S
C1162 C1160 1.419 . S
C1162 C1163 1.362 . S
C1163 H1153 0.930 . S
C1163 C1156 1.409 . S
C1163 C1162 1.362 . S
H1164 C1170 0.930 1_655 S
H1165 C1173 0.930 . S
H1166 C1174 0.930 . S
H1167 C1175 0.949 . S
H1168 C1178 0.930 . S
H1169 C1179 0.930 . S
C1170 H1164 0.930 1_455 S
C1170 C1171 1.355 1_556 S
C1170 C1172 1.415 . S
C1171 C1170 1.355 1_554 S
C1171 C1173 1.419 . S
C1172 C1170 1.415 . S
C1172 C1177 1.425 1_556 S
C1172 C1179 1.409 . S
C1173 H1165 0.930 . S
C1173 C1171 1.419 . S
C1173 C1174 1.362 . S
C1174 H1166 0.930 . S
C1174 C1173 1.362 . S
C1174 C1177 1.409 . S
C1175 H1167 0.949 . S
C1175 C1176 1.328 1_554 S
C1175 C1177 1.423 . S
C1176 C1175 1.328 1_556 S
C1176 C1178 1.419 . S
C1177 C1172 1.425 1_554 S
C1177 C1174 1.409 . S
C1177 C1175 1.423 . S
C1178 H1168 0.930 . S
C1178 C1176 1.419 . S
C1178 C1179 1.362 . S
C1179 H1169 0.930 . S
C1179 C1172 1.409 . S
C1179 C1178 1.362 . S
H1180 C1186 0.930 . S
H1181 C1189 0.930 . S
H1182 C1190 0.930 . S
H1183 C1191 0.930 . S
H1184 C1194 0.930 . S
H1185 C1195 0.930 . S
C1186 H1180 0.930 . S
C1186 C1187 1.355 . S
C1186 C1188 1.415 . S
C1187 C1186 1.355 . S
C1187 C1189 1.419 1_556 S
C1188 C1186 1.415 . S
C1188 C1193 1.425 1_556 S
C1188 C1195 1.409 . S
C1189 H1181 0.930 . S
C1189 C1187 1.419 1_554 S
C1189 C1190 1.362 . S
C1190 H1182 0.930 . S
C1190 C1189 1.362 . S
C1190 C1193 1.409 . S
C1191 H1183 0.930 . S
C1191 C1192 1.355 . S
C1191 C1193 1.415 . S
C1192 C1191 1.355 . S
C1192 C1194 1.419 1_554 S
C1193 C1188 1.425 1_554 S
C1193 C1190 1.409 . S
C1193 C1191 1.415 . S
C1194 H1184 0.930 . S
C1194 C1192 1.419 1_556 S
C1194 C1195 1.362 . S
C1195 H1185 0.930 . S
C1195 C1188 1.409 . S
C1195 C1194 1.362 . S
H1196 C1202 0.930 . S
H1197 C1205 0.930 . S
H1198 C1206 0.930 . S
H1199 C1207 0.930 1_565 S
H1200 C1210 0.930 . S
H1201 C1211 0.930 . S
C1202 H1196 0.930 . S
C1202 C1203 1.355 . S
C1202 C1204 1.415 . S
C1203 C1202 1.355 . S
C1203 C1205 1.419 . S
C1204 C1202 1.415 . S
C1204 C1209 1.425 1_554 S
C1204 C1211 1.409 . S
C1205 H1197 0.930 . S
C1205 C1203 1.419 . S
C1205 C1206 1.362 1_554 S
C1206 H1198 0.930 . S
C1206 C1205 1.362 1_556 S
C1206 C1209 1.409 . S
C1207 H1199 0.930 1_545 S
C1207 C1208 1.355 . S
C1207 C1209 1.415 . S
C1208 C1207 1.355 . S
C1208 C1210 1.419 . S
C1209 C1204 1.425 1_556 S
C1209 C1206 1.409 . S
C1209 C1207 1.415 . S
C1210 H1200 0.930 . S
C1210 C1208 1.419 . S
C1210 C1211 1.362 1_556 S
C1211 H1201 0.930 . S
C1211 C1204 1.409 . S
C1211 C1210 1.362 1_554 S
H1212 C1218 0.930 . S
H1213 C1221 0.930 . S
H1214 C1222 0.930 . S
H1215 C1223 0.930 . S
H1216 C1226 0.930 1_565 S
H1217 C1227 0.930 . S
C1218 H1212 0.930 . S
C1218 C1219 1.355 . S
C1218 C1220 1.415 . S
C1219 C1218 1.355 . S
C1219 C1221 1.419 . S
C1220 C1218 1.415 . S
C1220 C1225 1.425 . S
C1220 C1227 1.409 . S
C1221 H1213 0.930 . S
C1221 C1219 1.419 . S
C1221 C1222 1.362 . S
C1222 H1214 0.930 . S
C1222 C1221 1.362 . S
C1222 C1225 1.409 . S
C1223 H1215 0.930 . S
C1223 C1224 1.355 . S
C1223 C1225 1.415 . S
C1224 C1223 1.355 . S
C1224 C1226 1.419 . S
C1225 C1220 1.425 . S
C1225 C1222 1.409 . S
C1225 C1223 1.415 . S
C1226 H1216 0.930 1_545 S
C1226 C1224 1.419 . S
C1226 C1227 1.362 . S
C1227 H1217 0.930 . S
C1227 C1220 1.409 . S
C1227 C1226 1.362 . S
H1228 C1234 0.930 . S
H1229 C1237 0.930 . S
H1230 C1238 0.930 . S
H1231 C1239 0.930 . S
H1232 C1242 0.930 . S
H1233 C1243 0.930 . S
C1234 H1228 0.930 . S
C1234 C1235 1.355 . S
C1234 C1236 1.415 . S
C1235 C1234 1.355 . S
C1235 C1237 1.419 . S
C1236 C1234 1.415 . S
C1236 C1241 1.425 . S
C1236 C1243 1.409 . S
C1237 H1229 0.930 . S
C1237 C1235 1.419 . S
C1237 C1238 1.362 . S
C1238 H1230 0.930 . S
C1238 C1237 1.362 . S
C1238 C1241 1.409 . S
C1239 H1231 0.930 . S
C1239 C1240 1.355 . S
C1239 C1241 1.415 . S
C1240 C1239 1.355 . S
C1240 C1242 1.419 . S
C1241 C1236 1.425 . S
C1241 C1238 1.409 . S
C1241 C1239 1.415 . S
C1242 H1232 0.930 . S
C1242 C1240 1.419 . S
C1242 C1243 1.362 . S
C1243 H1233 0.930 . S
C1243 C1236 1.409 . S
C1243 C1242 1.362 . S
H1244 C1250 0.930 . S
H1245 C1253 0.930 . S
H1246 C1254 0.930 . S
H1247 C1255 0.930 . S
H1248 C1258 0.930 . S
H1249 C1259 0.930 . S
C1250 H1244 0.930 . S
C1250 C1251 1.355 . S
C1250 C1252 1.415 . S
C1251 C1250 1.355 . S
C1251 C1253 1.419 . S
C1252 C1250 1.415 . S
C1252 C1257 1.425 . S
C1252 C1259 1.409 . S
C1253 H1245 0.930 . S
C1253 C1251 1.419 . S
C1253 C1254 1.362 . S
C1254 H1246 0.930 . S
C1254 C1253 1.362 . S
C1254 C1257 1.409 . S
C1255 H1247 0.930 . S
C1255 C1256 1.355 . S
C1255 C1257 1.415 . S
C1256 C1255 1.355 . S
C1256 C1258 1.419 . S
C1257 C1252 1.425 . S
C1257 C1254 1.409 . S
C1257 C1255 1.415 . S
C1258 H1248 0.930 . S
C1258 C1256 1.419 . S
C1258 C1259 1.362 . S
C1259 H1249 0.930 . S
C1259 C1252 1.409 . S
C1259 C1258 1.362 . S
C403 C59 1.390 . S
C408 C15 1.362 . S
C419 C10 1.390 . S
C424 C29 1.399 . S
C435 C40 1.338 . S
C440 C54 1.312 1_565 S
C451 C87 1.366 . S
C456 C131 1.382 1_565 S
C467 C74 1.351 . S
C472 C109 1.340 . S
C483 C96 1.303 . S
C488 C118 1.323 . S
C499 C194 1.346 . S
C504 C147 1.303 . S
C515 C169 1.326 . S
C520 C142 1.385 . S
C531 C164 1.372 . S
C536 C183 1.390 . S
C547 C206 1.345 . S
C552 C257 1.313 . S
C563 C219 1.396 . S
C568 C228 1.387 . S
C579 C252 1.389 . S
C584 C241 1.400 . S
C595 C323 1.416 . S
C600 C271 1.425 . S
C611 C282 1.391 . S
C616 C293 1.385 . S
C627 C304 1.331 . S
C632 C318 1.304 . S
C643 C381 1.372 . S
C648 C351 1.423 . S
C659 C373 1.318 . S
C664 C338 1.384 . S
C675 C392 1.313 . S
C680 C360 1.345 . S
C691 C21 1.884 . S
C696 C294 1.897 . S
C707 C329 1.923 . S
C712 C37 1.920 . S
C723 C62 1.882 . S
C728 C272 1.860 . S
C739 C175 1.949 1_556 S
C744 C65 1.916 . S
C755 C18 1.901 1_655 S
C760 C191 1.895 1_556 S
C771 C153 1.887 1_556 S
C776 C30 1.912 . S
C787 C235 1.915 . S
C792 C81 1.944 1_655 S
C803 C103 1.924 . S
C808 C249 1.942 . S
C819 C213 1.905 . S
C824 C128 1.897 . S
C835 C125 1.939 . S
C840 C367 1.898 1_554 S
C851 C384 1.858 1_554 S
C856 C84 1.856 . S
C867 C345 1.894 1_554 S
C872 C106 1.888 . S
C883 C301 1.863 . S
C888 C184 1.909 . S
C899 C326 1.843 . S
C904 C150 1.860 . S
C915 C172 1.913 . S
C920 C279 1.866 1_545 S
C931 C216 1.867 . S
C936 C370 1.851 1_545 S
C947 C395 1.901 . S
C952 C238 1.894 . S
C963 C250 1.842 . S
C968 C348 1.853 . S
C979 C7 1.153 . S
C984 C337 1.147 . S
C995 C43 1.181 . S
C1000 C359 1.179 . S
C1011 C382 1.136 . S
C1016 C52 1.138 . S
C1027 C263 1.178 . S
C1032 C51 1.177 . S
C1043 C205 1.165 . S
C1048 C8 1.157 . S
C1059 C32 1.145 . S
C1064 C227 1.140 . S
C1075 C73 1.171 . S
C1080 C139 1.171 . S
C1091 C95 1.158 . S
C1096 C161 1.165 . S
C1107 C120 1.142 . S
C1112 C197 1.161 . S
C1123 C117 1.167 . S
C1128 C315 1.165 . S
C1139 C76 1.094 . S
C1144 C274 1.100 . S
C1155 C296 1.124 . S
C1160 C98 1.125 . S
C1171 C186 1.125 1_455 S
C1176 C389 1.132 . S
C1187 C340 1.080 . S
C1192 C140 1.087 . S
C1203 C162 1.123 . S
C1208 C362 1.122 1_545 S
C1219 C208 1.102 . S
C1224 C285 1.095 1_545 S
C1235 C230 1.137 1_455 S
C1240 C307 1.127 . S
C1251 C316 1.096 . S
C1256 C260 1.088 . S
