# Generated by pormake.
# Topology gan, (5)-cn, num edge types: 1
# Building blocks:
#     Node 0, Type 0, BuildingBlock: BEQFEK_clean_sbu_0, # of connection points: 5
#     Node 1, Type 0, BuildingBlock: BEQFEK_clean_sbu_0, # of connection points: 5
#     Node 2, Type 0, BuildingBlock: BEQFEK_clean_sbu_0, # of connection points: 5
#     Node 3, Type 0, BuildingBlock: BEQFEK_clean_sbu_0, # of connection points: 5
#     Node 4, Type 0, BuildingBlock: BEQFEK_clean_sbu_0, # of connection points: 5
#     Node 5, Type 0, BuildingBlock: BEQFEK_clean_sbu_0, # of connection points: 5
#     Node 6, Type 0, BuildingBlock: BEQFEK_clean_sbu_0, # of connection points: 5
#     Node 7, Type 0, BuildingBlock: BEQFEK_clean_sbu_0, # of connection points: 5
#     Node 8, Type 0, BuildingBlock: BEQFEK_clean_sbu_0, # of connection points: 5
#     Node 9, Type 0, BuildingBlock: BEQFEK_clean_sbu_0, # of connection points: 5
#     Node 10, Type 0, BuildingBlock: BEQFEK_clean_sbu_0, # of connection points: 5
#     Node 11, Type 0, BuildingBlock: BEQFEK_clean_sbu_0, # of connection points: 5
#     Node 12, Type 0, BuildingBlock: BEQFEK_clean_sbu_0, # of connection points: 5
#     Node 13, Type 0, BuildingBlock: BEQFEK_clean_sbu_0, # of connection points: 5
#     Node 14, Type 0, BuildingBlock: BEQFEK_clean_sbu_0, # of connection points: 5
#     Node 15, Type 0, BuildingBlock: BEQFEK_clean_sbu_0, # of connection points: 5
#     Edge 16, Type (0, 0), BuildingBlock: XUDNAN_clean_linker_2, # of connection points: 2
#     Edge 17, Type (0, 0), BuildingBlock: XUDNAN_clean_linker_2, # of connection points: 2
#     Edge 18, Type (0, 0), BuildingBlock: XUDNAN_clean_linker_2, # of connection points: 2
#     Edge 19, Type (0, 0), BuildingBlock: XUDNAN_clean_linker_2, # of connection points: 2
#     Edge 20, Type (0, 0), BuildingBlock: XUDNAN_clean_linker_2, # of connection points: 2
#     Edge 21, Type (0, 0), BuildingBlock: XUDNAN_clean_linker_2, # of connection points: 2
#     Edge 22, Type (0, 0), BuildingBlock: XUDNAN_clean_linker_2, # of connection points: 2
#     Edge 23, Type (0, 0), BuildingBlock: XUDNAN_clean_linker_2, # of connection points: 2
#     Edge 24, Type (0, 0), BuildingBlock: XUDNAN_clean_linker_2, # of connection points: 2
#     Edge 25, Type (0, 0), BuildingBlock: XUDNAN_clean_linker_2, # of connection points: 2
#     Edge 26, Type (0, 0), BuildingBlock: XUDNAN_clean_linker_2, # of connection points: 2
#     Edge 27, Type (0, 0), BuildingBlock: XUDNAN_clean_linker_2, # of connection points: 2
#     Edge 28, Type (0, 0), BuildingBlock: XUDNAN_clean_linker_2, # of connection points: 2
#     Edge 29, Type (0, 0), BuildingBlock: XUDNAN_clean_linker_2, # of connection points: 2
#     Edge 30, Type (0, 0), BuildingBlock: XUDNAN_clean_linker_2, # of connection points: 2
#     Edge 31, Type (0, 0), BuildingBlock: XUDNAN_clean_linker_2, # of connection points: 2
#     Edge 32, Type (0, 0), BuildingBlock: XUDNAN_clean_linker_2, # of connection points: 2
#     Edge 33, Type (0, 0), BuildingBlock: XUDNAN_clean_linker_2, # of connection points: 2
#     Edge 34, Type (0, 0), BuildingBlock: XUDNAN_clean_linker_2, # of connection points: 2
#     Edge 35, Type (0, 0), BuildingBlock: XUDNAN_clean_linker_2, # of connection points: 2
#     Edge 36, Type (0, 0), BuildingBlock: XUDNAN_clean_linker_2, # of connection points: 2
#     Edge 37, Type (0, 0), BuildingBlock: XUDNAN_clean_linker_2, # of connection points: 2
#     Edge 38, Type (0, 0), BuildingBlock: XUDNAN_clean_linker_2, # of connection points: 2
#     Edge 39, Type (0, 0), BuildingBlock: XUDNAN_clean_linker_2, # of connection points: 2
#     Edge 40, Type (0, 0), BuildingBlock: XUDNAN_clean_linker_2, # of connection points: 2
#     Edge 41, Type (0, 0), BuildingBlock: XUDNAN_clean_linker_2, # of connection points: 2
#     Edge 42, Type (0, 0), BuildingBlock: XUDNAN_clean_linker_2, # of connection points: 2
#     Edge 43, Type (0, 0), BuildingBlock: XUDNAN_clean_linker_2, # of connection points: 2
#     Edge 44, Type (0, 0), BuildingBlock: XUDNAN_clean_linker_2, # of connection points: 2
#     Edge 45, Type (0, 0), BuildingBlock: XUDNAN_clean_linker_2, # of connection points: 2
#     Edge 46, Type (0, 0), BuildingBlock: XUDNAN_clean_linker_2, # of connection points: 2
#     Edge 47, Type (0, 0), BuildingBlock: XUDNAN_clean_linker_2, # of connection points: 2
#     Edge 48, Type (0, 0), BuildingBlock: XUDNAN_clean_linker_2, # of connection points: 2
#     Edge 49, Type (0, 0), BuildingBlock: XUDNAN_clean_linker_2, # of connection points: 2
#     Edge 50, Type (0, 0), BuildingBlock: XUDNAN_clean_linker_2, # of connection points: 2
#     Edge 51, Type (0, 0), BuildingBlock: XUDNAN_clean_linker_2, # of connection points: 2
#     Edge 52, Type (0, 0), BuildingBlock: XUDNAN_clean_linker_2, # of connection points: 2
#     Edge 53, Type (0, 0), BuildingBlock: XUDNAN_clean_linker_2, # of connection points: 2
#     Edge 54, Type (0, 0), BuildingBlock: XUDNAN_clean_linker_2, # of connection points: 2
#     Edge 55, Type (0, 0), BuildingBlock: XUDNAN_clean_linker_2, # of connection points: 2
# Relax obj value: 0.119
# Max RMSD: 0.207
# Mean RMSD: 0.185
data_MOF--net-gan--node1-BEQFEK_clean_sbu_0--edge1-XUDNAN_clean_linker_2
_symmetry_space_group_name_H-M    P1
_symmetry_Int_Tables_number       1
_symmetry_cell_setting            triclinic
loop_
_symmetry_equiv_pos_as_xyz
'x, y, z'
_cell_length_a     44.467564
_cell_length_b     44.903576
_cell_length_c     44.005758
_cell_angle_alpha  91.766303
_cell_angle_beta   91.246529
_cell_angle_gamma 93.636607
loop_
_atom_site_label
_atom_site_type_symbol
_atom_site_fract_x
_atom_site_fract_y
_atom_site_fract_z
_atom_type_partial_charge
Co0 Co 0.11811 0.13268 0.09777 0.0
Co1 Co 0.15278 0.18432 0.13276 0.0
C2 C 0.14127 0.12881 0.16403 0.0
O3 O 0.12988 0.11807 0.13887 0.0
O4 O 0.15082 0.15617 0.16676 0.0
C5 C 0.07061 0.08919 0.09861 0.0
O6 O 0.07031 0.09817 0.12729 0.0
C7 C 0.1933 0.22863 0.16512 0.0
C8 C 0.1918 0.26663 0.13432 0.0
C9 C 0.20561 0.25724 0.16047 0.0
N10 N 0.17269 0.2217 0.14297 0.0
N11 N 0.17198 0.24438 0.12456 0.0
C12 C 0.20399 0.20652 0.18708 0.0
H13 H 0.18908 0.20606 0.20698 0.0
H14 H 0.22752 0.21235 0.19504 0.0
H15 H 0.20275 0.18387 0.17618 0.0
C16 C 0.07182 0.17812 0.09297 0.0
N17 N 0.09911 0.1693 0.10159 0.0
N18 N 0.11317 0.19062 0.11854 0.0
C19 C 0.09481 0.21317 0.12246 0.0
C20 C 0.06811 0.2062 0.10608 0.0
C21 C 0.04906 0.15914 0.07429 0.0
H22 H 0.03743 0.14282 0.08918 0.0
H23 H 0.03187 0.17272 0.06384 0.0
H24 H 0.06048 0.14654 0.0563 0.0
O25 O 0.1536 0.13535 0.07103 0.0
O26 O 0.17913 0.16897 0.10073 0.0
H27 H 0.11154 0.2588 0.12706 0.0
H28 H 0.08244 0.24889 0.15292 0.0
C29 C 0.10257 0.24082 0.14172 0.0
H30 H 0.11966 0.23653 0.15948 0.0
H31 H 0.15898 0.24409 0.10451 0.0
O32 O 0.0892 0.10185 0.08086 0.0
C33 C 0.1777 0.15115 0.07766 0.0
Co34 Co 0.10088 0.91493 0.38129 0.0
Co35 Co 0.14985 0.88554 0.34215 0.0
C36 C 0.16359 0.90275 0.40663 0.0
O37 O 0.1367 0.91092 0.40884 0.0
O38 O 0.17314 0.89258 0.38145 0.0
C39 C 0.07834 0.95724 0.42501 0.0
O40 O 0.10696 0.96392 0.43169 0.0
C41 C 0.19533 0.84932 0.31291 0.0
C42 C 0.18018 0.84987 0.26481 0.0
C43 C 0.2005 0.83727 0.28407 0.0
N44 N 0.17291 0.86802 0.31063 0.0
N45 N 0.16402 0.86815 0.28177 0.0
C46 C 0.21078 0.84283 0.34228 0.0
H47 H 0.19611 0.82689 0.35498 0.0
H48 H 0.21455 0.86364 0.35641 0.0
H49 H 0.23279 0.8332 0.33836 0.0
C50 C 0.10793 0.96115 0.33469 0.0
N51 N 0.1137 0.93431 0.34558 0.0
N52 N 0.1351 0.9228 0.32959 0.0
C53 C 0.14403 0.94248 0.30839 0.0
C54 C 0.12689 0.96726 0.31069 0.0
C55 C 0.08544 0.98101 0.34785 0.0
H56 H 0.06482 0.96748 0.35388 0.0
H57 H 0.09521 0.9923 0.36892 0.0
H58 H 0.07938 0.99821 0.33161 0.0
O59 O 0.08006 0.87536 0.37161 0.0
O60 O 0.11652 0.85408 0.3474 0.0
H61 H 0.16426 0.93066 0.26649 0.0
H62 H 0.18286 0.96229 0.28636 0.0
C63 C 0.17131 0.93995 0.28937 0.0
H64 H 0.1873 0.9252 0.30002 0.0
H65 H 0.14574 0.87941 0.27388 0.0
O66 O 0.07122 0.93798 0.40386 0.0
C67 C 0.09025 0.85269 0.35841 0.0
Co68 Co 0.38593 0.92383 0.58714 0.0
Co69 Co 0.3407 0.89258 0.63062 0.0
C70 C 0.3693 0.95144 0.64853 0.0
O71 O 0.38121 0.95252 0.62247 0.0
O72 O 0.35347 0.92845 0.65617 0.0
C73 C 0.44283 0.95238 0.58202 0.0
O74 O 0.44152 0.94925 0.61156 0.0
C75 C 0.31317 0.86135 0.68235 0.0
C76 C 0.27666 0.83384 0.65811 0.0
C77 C 0.29 0.83976 0.68658 0.0
N78 N 0.31373 0.86736 0.65258 0.0
N79 N 0.29162 0.85112 0.63836 0.0
C80 C 0.33341 0.87719 0.70614 0.0
H81 H 0.35629 0.86881 0.70487 0.0
H82 H 0.32464 0.874 0.7293 0.0
H83 H 0.33534 0.9014 0.70196 0.0
C84 C 0.41748 0.86723 0.59662 0.0
N85 N 0.39434 0.88498 0.6008 0.0
N86 N 0.37456 0.87154 0.61844 0.0
C87 C 0.38417 0.84469 0.6256 0.0
C88 C 0.41191 0.84108 0.61244 0.0
C89 C 0.44545 0.87651 0.5801 0.0
H90 H 0.43934 0.88713 0.5586 0.0
H91 H 0.4592 0.89316 0.59447 0.0
H92 H 0.45943 0.85753 0.57504 0.0
O93 O 0.34868 0.92156 0.56016 0.0
O94 O 0.31705 0.9038 0.59449 0.0
H95 H 0.37573 0.79993 0.64192 0.0
H96 H 0.36747 0.82986 0.66814 0.0
C97 C 0.36663 0.82233 0.64391 0.0
H98 H 0.34281 0.82038 0.63585 0.0
H99 H 0.28715 0.85139 0.61499 0.0
O100 O 0.42087 0.94172 0.5652 0.0
C101 C 0.32201 0.91371 0.56815 0.0
Co102 Co 0.37495 0.15962 0.84689 0.0
Co103 Co 0.41371 0.11451 0.88173 0.0
C104 C 0.39277 0.09993 0.81866 0.0
O105 O 0.38154 0.1254 0.81811 0.0
O106 O 0.40553 0.09086 0.84268 0.0
C107 C 0.33845 0.18511 0.80038 0.0
O108 O 0.35278 0.16777 0.78182 0.0
C109 C 0.44359 0.06609 0.91515 0.0
C110 C 0.46238 0.09339 0.95456 0.0
C111 C 0.46028 0.06459 0.94224 0.0
N112 N 0.43624 0.09453 0.91191 0.0
N113 N 0.44778 0.11061 0.93551 0.0
C114 C 0.4333 0.04087 0.89367 0.0
H115 H 0.41183 0.04573 0.88208 0.0
H116 H 0.43031 0.01966 0.90588 0.0
H117 H 0.45056 0.03829 0.87611 0.0
C118 C 0.33679 0.1513 0.90083 0.0
N119 N 0.36101 0.14516 0.88438 0.0
N120 N 0.37674 0.12588 0.89877 0.0
C121 C 0.36277 0.11893 0.92479 0.0
C122 C 0.33706 0.13487 0.92706 0.0
C123 C 0.31523 0.17415 0.89248 0.0
H124 H 0.32802 0.19491 0.88594 0.0
H125 H 0.30131 0.16564 0.87245 0.0
H126 H 0.30023 0.17938 0.91146 0.0
O127 O 0.4131 0.1846 0.85309 0.0
O128 O 0.44077 0.15061 0.8734 0.0
H129 H 0.3917 0.10802 0.96161 0.0
H130 H 0.35487 0.08884 0.96156 0.0
C131 C 0.37344 0.09701 0.9469 0.0
H132 H 0.38244 0.07777 0.9345 0.0
H133 H 0.44539 0.13345 0.93874 0.0
O134 O 0.34444 0.18498 0.82877 0.0
C135 C 0.43826 0.17664 0.86326 0.0
Co136 Co 0.60524 0.40506 0.89229 0.0
Co137 Co 0.65589 0.37418 0.85669 0.0
C138 C 0.66528 0.38925 0.92208 0.0
O139 O 0.63864 0.39833 0.92218 0.0
O140 O 0.67684 0.37979 0.89756 0.0
C141 C 0.57329 0.43097 0.94129 0.0
O142 O 0.58932 0.41352 0.95767 0.0
C143 C 0.69644 0.33123 0.8303 0.0
C144 C 0.69095 0.33848 0.78118 0.0
C145 C 0.70421 0.32038 0.80175 0.0
N146 N 0.67969 0.35491 0.82669 0.0
N147 N 0.67634 0.35885 0.79717 0.0
C148 C 0.70277 0.31805 0.86039 0.0
H149 H 0.68215 0.30531 0.8678 0.0
H150 H 0.70855 0.33611 0.87767 0.0
H151 H 0.72151 0.30291 0.85899 0.0
C152 C 0.616 0.45042 0.84565 0.0
N153 N 0.62117 0.4238 0.85742 0.0
N154 N 0.64374 0.41225 0.84328 0.0
C155 C 0.65429 0.43196 0.82273 0.0
C156 C 0.63666 0.45644 0.82311 0.0
C157 C 0.59232 0.4701 0.85664 0.0
H158 H 0.57096 0.45651 0.85977 0.0
H159 H 0.59963 0.48046 0.87903 0.0
H160 H 0.58833 0.48798 0.84044 0.0
O161 O 0.58294 0.36667 0.88138 0.0
O162 O 0.62056 0.34445 0.86008 0.0
H163 H 0.67899 0.42431 0.78237 0.0
H164 H 0.69613 0.45248 0.80784 0.0
C165 C 0.68354 0.4303 0.80676 0.0
H166 H 0.69762 0.41367 0.81721 0.0
H167 H 0.66213 0.37387 0.78775 0.0
O168 O 0.57652 0.43103 0.91264 0.0
C169 C 0.5935 0.3437 0.86911 0.0
Co170 Co 0.83248 0.37876 0.15789 0.0
Co171 Co 0.86634 0.42762 0.12091 0.0
C172 C 0.80532 0.40137 0.10009 0.0
O173 O 0.80343 0.38545 0.12365 0.0
O174 O 0.82856 0.41876 0.09564 0.0
C175 C 0.79842 0.32445 0.17692 0.0
O176 O 0.78571 0.3221 0.14965 0.0
C177 C 0.90079 0.45988 0.07336 0.0
C178 C 0.93065 0.48986 0.10325 0.0
C179 C 0.92464 0.48152 0.07309 0.0
N180 N 0.89367 0.45539 0.1025 0.0
N181 N 0.91134 0.4737 0.12011 0.0
C182 C 0.88419 0.44461 0.04669 0.0
H183 H 0.86026 0.43954 0.05219 0.0
H184 H 0.89425 0.4232 0.04115 0.0
H185 H 0.88543 0.45878 0.02648 0.0
C186 C 0.88577 0.34531 0.14162 0.0
N187 N 0.87049 0.37032 0.14215 0.0
N188 N 0.88551 0.39121 0.1273 0.0
C189 C 0.91116 0.38018 0.11716 0.0
C190 C 0.91211 0.35065 0.12567 0.0
C191 C 0.87363 0.31617 0.15347 0.0
H192 H 0.87195 0.31826 0.17856 0.0
H193 H 0.85062 0.3108 0.14381 0.0
H194 H 0.88792 0.2976 0.14752 0.0
O195 O 0.83681 0.41311 0.18743 0.0
O196 O 0.85826 0.44859 0.16017 0.0
H197 H 0.93883 0.42019 0.11058 0.0
H198 H 0.95615 0.38642 0.09963 0.0
C199 C 0.93461 0.3976 0.09995 0.0
H200 H 0.92643 0.39985 0.07624 0.0
H201 H 0.9108 0.47456 0.14381 0.0
O202 O 0.81785 0.34575 0.18334 0.0
C203 C 0.84731 0.43988 0.18501 0.0
Co204 Co 0.87285 0.666 0.35418 0.0
Co205 Co 0.91318 0.62956 0.39794 0.0
C206 C 0.88537 0.60147 0.34038 0.0
O207 O 0.87421 0.62578 0.33276 0.0
O208 O 0.90058 0.59978 0.36512 0.0
C209 C 0.84783 0.71808 0.33057 0.0
O210 O 0.87187 0.7312 0.3443 0.0
C211 C 0.94415 0.58428 0.43379 0.0
C212 C 0.96161 0.61254 0.47307 0.0
C213 C 0.96044 0.58354 0.46122 0.0
N214 N 0.93563 0.61228 0.43019 0.0
N215 N 0.9465 0.62902 0.45362 0.0
C216 C 0.93923 0.55982 0.40998 0.0
H217 H 0.9407 0.5692 0.38703 0.0
H218 H 0.91637 0.54883 0.41227 0.0
H219 H 0.95627 0.54297 0.41211 0.0
C220 C 0.83592 0.66826 0.40989 0.0
N221 N 0.86063 0.66049 0.39502 0.0
N222 N 0.8775 0.64548 0.41335 0.0
C223 C 0.86384 0.64309 0.44033 0.0
C224 C 0.83724 0.65757 0.43912 0.0
C225 C 0.81193 0.68606 0.39645 0.0
H226 H 0.82202 0.70825 0.39039 0.0
H227 H 0.80271 0.67461 0.37523 0.0
H228 H 0.7934 0.68919 0.41249 0.0
O229 O 0.91289 0.68889 0.35373 0.0
O230 O 0.94127 0.66155 0.38239 0.0
H231 H 0.89258 0.63897 0.47927 0.0
H232 H 0.85615 0.61954 0.48186 0.0
C233 C 0.8747 0.62543 0.46622 0.0
H234 H 0.88409 0.60463 0.45749 0.0
H235 H 0.94362 0.65183 0.4563 0.0
O236 O 0.84318 0.68988 0.33201 0.0
C237 C 0.93827 0.68395 0.36583 0.0
Co238 Co 0.86259 0.86125 0.8764 0.0
Co239 Co 0.91352 0.88862 0.91834 0.0
C240 C 0.89381 0.92151 0.86423 0.0
O241 O 0.87433 0.90009 0.85755 0.0
O242 O 0.91132 0.92062 0.88757 0.0
C243 C 0.80961 0.85394 0.84318 0.0
O244 O 0.80992 0.88282 0.84895 0.0
C245 C 0.95554 0.92325 0.95926 0.0
C246 C 0.96892 0.88832 0.99036 0.0
C247 C 0.97166 0.9187 0.98588 0.0
N248 N 0.9443 0.89659 0.94822 0.0
N249 N 0.95228 0.87584 0.96693 0.0
C250 C 0.94616 0.95234 0.94759 0.0
H251 H 0.92285 0.94962 0.93799 0.0
H252 H 0.96143 0.9595 0.92921 0.0
H253 H 0.94713 0.97002 0.96582 0.0
C254 C 0.90455 0.81195 0.87059 0.0
N255 N 0.89663 0.83841 0.8822 0.0
N256 N 0.91928 0.85104 0.89858 0.0
C257 C 0.94281 0.83349 0.897 0.0
C258 C 0.93412 0.80781 0.87977 0.0
C259 C 0.88408 0.79122 0.85114 0.0
H260 H 0.86084 0.79091 0.85983 0.0
H261 H 0.88357 0.79946 0.82763 0.0
H262 H 0.89186 0.76822 0.85066 0.0
O263 O 0.84061 0.86733 0.91425 0.0
O264 O 0.87721 0.88748 0.94407 0.0
H265 H 0.97882 0.83304 0.93006 0.0
H266 H 0.99088 0.83443 0.89157 0.0
C267 C 0.97431 0.84284 0.90773 0.0
H268 H 0.97757 0.8675 0.90988 0.0
H269 H 0.94448 0.85345 0.96496 0.0
O270 O 0.83211 0.83962 0.85084 0.0
C271 C 0.84977 0.8784 0.93986 0.0
Co272 Co 0.84703 0.14141 0.65672 0.0
Co273 Co 0.89405 0.10383 0.62239 0.0
C274 C 0.83193 0.11116 0.59568 0.0
O275 O 0.82433 0.12749 0.61816 0.0
O276 O 0.85782 0.10053 0.59487 0.0
C277 C 0.7947 0.15511 0.69401 0.0
O278 O 0.78339 0.12787 0.68745 0.0
C279 C 0.92639 0.06646 0.57873 0.0
C280 C 0.96941 0.06196 0.60372 0.0
C281 C 0.95429 0.0542 0.57648 0.0
N282 N 0.92493 0.08008 0.60633 0.0
N283 N 0.95089 0.07756 0.62093 0.0
C284 C 0.90332 0.06907 0.5538 0.0
H285 H 0.89529 0.09194 0.55426 0.0
H286 H 0.88378 0.05308 0.55748 0.0
H287 H 0.9126 0.06458 0.53106 0.0
C288 C 0.86162 0.09864 0.70578 0.0
N289 N 0.86437 0.10893 0.67733 0.0
N290 N 0.88234 0.09191 0.66209 0.0
C291 C 0.88995 0.06935 0.67979 0.0
C292 C 0.87743 0.07306 0.70814 0.0
C293 C 0.84445 0.1131 0.73042 0.0
H294 H 0.84671 0.13772 0.72873 0.0
H295 H 0.8203 0.1055 0.72785 0.0
H296 H 0.85248 0.10684 0.75325 0.0
O297 O 0.8789 0.1718 0.64662 0.0
O298 O 0.91299 0.14545 0.62406 0.0
H299 H 0.93306 0.05144 0.67562 0.0
H300 H 0.90313 0.02405 0.68234 0.0
C301 C 0.9091 0.04471 0.67006 0.0
H302 H 0.90629 0.03994 0.64528 0.0
H303 H 0.95631 0.08728 0.64235 0.0
O304 O 0.82007 0.16384 0.68356 0.0
C305 C 0.9042 0.17028 0.63398 0.0
Co306 Co 0.61814 0.07848 0.40687 0.0
Co307 Co 0.65775 0.12408 0.37051 0.0
C308 C 0.68328 0.09931 0.42569 0.0
O309 O 0.65907 0.08271 0.42759 0.0
O310 O 0.68668 0.1182 0.40479 0.0
C311 C 0.59382 0.06401 0.46319 0.0
O312 O 0.61425 0.08504 0.47218 0.0
C313 C 0.69825 0.1677 0.33774 0.0
C314 C 0.66844 0.17374 0.2978 0.0
C315 C 0.69658 0.18239 0.31032 0.0
N316 N 0.67203 0.15158 0.34116 0.0
N317 N 0.65456 0.15516 0.31706 0.0
C318 C 0.72501 0.16648 0.35876 0.0
H319 H 0.72443 0.14481 0.37016 0.0
H320 H 0.72443 0.18455 0.37647 0.0
H321 H 0.74631 0.16947 0.34621 0.0
C322 C 0.57648 0.12849 0.40449 0.0
N323 N 0.60326 0.11676 0.39953 0.0
N324 N 0.62095 0.13655 0.38593 0.0
C325 C 0.60632 0.16168 0.38265 0.0
C326 C 0.57758 0.15739 0.39391 0.0
C327 C 0.54966 0.11146 0.41677 0.0
H328 H 0.54807 0.08829 0.4071 0.0
H329 H 0.55254 0.11032 0.44181 0.0
H330 H 0.52853 0.12243 0.41165 0.0
O331 O 0.61975 0.0543 0.36825 0.0
O332 O 0.64944 0.08721 0.3448 0.0
H333 H 0.61363 0.18854 0.3439 0.0
H334 H 0.60907 0.20942 0.37866 0.0
C335 C 0.61917 0.18949 0.36861 0.0
H336 H 0.64398 0.19183 0.37214 0.0
H337 H 0.63314 0.14453 0.31361 0.0
O338 O 0.59088 0.05712 0.43501 0.0
C339 C 0.63445 0.06212 0.34502 0.0
Co340 Co 0.59877 0.89213 0.11013 0.0
Co341 Co 0.63069 0.85154 0.15709 0.0
C342 C 0.61576 0.91472 0.17357 0.0
O343 O 0.60521 0.91866 0.14688 0.0
O344 O 0.62561 0.88977 0.18096 0.0
C345 C 0.56266 0.93358 0.08002 0.0
O346 O 0.55359 0.93854 0.10783 0.0
C347 C 0.67671 0.83032 0.20075 0.0
C348 C 0.67083 0.78165 0.19144 0.0
C349 C 0.68821 0.8032 0.20829 0.0
N350 N 0.65421 0.82486 0.17988 0.0
N351 N 0.65064 0.79567 0.17481 0.0
C352 C 0.68583 0.86073 0.21406 0.0
H353 H 0.6661 0.87447 0.21535 0.0
H354 H 0.70262 0.87201 0.19928 0.0
H355 H 0.69576 0.85932 0.23727 0.0
C356 C 0.65473 0.883 0.0768 0.0
N357 N 0.63624 0.8769 0.1 0.0
N358 N 0.64986 0.8603 0.11953 0.0
C359 C 0.67745 0.85514 0.10913 0.0
C360 C 0.68156 0.86946 0.08181 0.0
C361 C 0.648 0.90436 0.05249 0.0
H362 H 0.62866 0.89481 0.0382 0.0
H363 H 0.64126 0.92556 0.06315 0.0
H364 H 0.66763 0.90914 0.03789 0.0
O365 O 0.56774 0.85965 0.11791 0.0
O366 O 0.59065 0.82993 0.1491 0.0
H367 H 0.68883 0.81561 0.13147 0.0
H368 H 0.71939 0.83306 0.11099 0.0
C369 C 0.69981 0.83734 0.12531 0.0
H370 H 0.70787 0.8496 0.14648 0.0
H371 H 0.63481 0.78534 0.1594 0.0
O372 O 0.58258 0.91488 0.07561 0.0
C373 C 0.56763 0.83617 0.1334 0.0
Co374 Co 0.34893 0.64301 0.15288 0.0
Co375 Co 0.39914 0.60888 0.12018 0.0
C376 C 0.33907 0.61928 0.08902 0.0
O377 O 0.32848 0.63153 0.11271 0.0
O378 O 0.36578 0.6104 0.08912 0.0
C379 C 0.31307 0.68864 0.17377 0.0
O380 O 0.32287 0.70039 0.14857 0.0
C381 C 0.42875 0.56577 0.08053 0.0
C382 C 0.47557 0.57069 0.0987 0.0
C383 C 0.45752 0.5562 0.07607 0.0
N384 N 0.42992 0.5852 0.10449 0.0
N385 N 0.45798 0.58797 0.11523 0.0
C386 C 0.40038 0.55596 0.06315 0.0
H387 H 0.38101 0.55521 0.07863 0.0
H388 H 0.40213 0.53362 0.05206 0.0
H389 H 0.39621 0.57233 0.0454 0.0
C390 C 0.35972 0.59767 0.19943 0.0
N391 N 0.36439 0.60928 0.17189 0.0
N392 N 0.38465 0.59418 0.15775 0.0
C393 C 0.39302 0.5721 0.17565 0.0
C394 C 0.37765 0.57366 0.20278 0.0
C395 C 0.33902 0.60994 0.22232 0.0
H396 H 0.31645 0.61181 0.21157 0.0
H397 H 0.33687 0.59562 0.24237 0.0
H398 H 0.34778 0.63274 0.22983 0.0
O399 O 0.38198 0.6742 0.14683 0.0
O400 O 0.4188 0.64954 0.12683 0.0
H401 H 0.43936 0.56428 0.1697 0.0
H402 H 0.41746 0.53273 0.1837 0.0
C403 C 0.41716 0.55156 0.168 0.0
H404 H 0.41367 0.54267 0.14431 0.0
H405 H 0.46523 0.60213 0.13356 0.0
O406 O 0.32042 0.6626 0.18018 0.0
C407 C 0.40866 0.67366 0.13702 0.0
Co408 Co 0.12624 0.58336 0.90288 0.0
Co409 Co 0.16437 0.6178 0.85614 0.0
C410 C 0.18931 0.60544 0.91898 0.0
O411 O 0.16427 0.5932 0.92723 0.0
O412 O 0.19242 0.615 0.89213 0.0
C413 C 0.08811 0.57001 0.95455 0.0
O414 O 0.10088 0.59387 0.96874 0.0
C415 C 0.20162 0.66719 0.83141 0.0
C416 C 0.1904 0.66095 0.78232 0.0
C417 C 0.20656 0.67951 0.80337 0.0
N418 N 0.18307 0.64256 0.82711 0.0
N419 N 0.17686 0.63867 0.79771 0.0
C420 C 0.21158 0.68013 0.86199 0.0
H421 H 0.23328 0.67096 0.86863 0.0
H422 H 0.19471 0.67383 0.87926 0.0
H423 H 0.215 0.70481 0.86146 0.0
C424 C 0.0841 0.63152 0.88994 0.0
N425 N 0.1104 0.61834 0.88671 0.0
N426 N 0.12704 0.63336 0.86732 0.0
C427 C 0.11194 0.65665 0.85775 0.0
C428 C 0.08423 0.65627 0.87175 0.0
C429 C 0.05832 0.61937 0.90812 0.0
H430 H 0.05535 0.59481 0.90451 0.0
H431 H 0.06329 0.62446 0.93259 0.0
H432 H 0.03699 0.62939 0.90171 0.0
O433 O 0.13237 0.55303 0.86996 0.0
O434 O 0.15666 0.57843 0.83477 0.0
H435 H 0.12643 0.66811 0.81337 0.0
H436 H 0.10906 0.69786 0.83365 0.0
C437 C 0.12398 0.67916 0.83598 0.0
H438 H 0.14646 0.68844 0.84418 0.0
H439 H 0.16245 0.62141 0.78828 0.0
O440 O 0.09616 0.56287 0.928 0.0
C441 C 0.14389 0.55429 0.8438 0.0
Co442 Co 0.09241 0.39315 0.6146 0.0
Co443 Co 0.12855 0.34338 0.64504 0.0
C444 C 0.11691 0.40204 0.67791 0.0
O445 O 0.10362 0.41261 0.655 0.0
O446 O 0.12651 0.37583 0.67693 0.0
C447 C 0.07282 0.4486 0.587 0.0
O448 O 0.09218 0.46402 0.60527 0.0
C449 C 0.17581 0.31605 0.6812 0.0
C450 C 0.17171 0.26954 0.66297 0.0
C451 C 0.18734 0.28819 0.68437 0.0
N452 N 0.15425 0.31379 0.65915 0.0
N453 N 0.15195 0.28592 0.64838 0.0
C454 C 0.18612 0.34479 0.69742 0.0
H455 H 0.18381 0.36372 0.68209 0.0
H456 H 0.20993 0.34444 0.70541 0.0
H457 H 0.17171 0.34826 0.71734 0.0
C458 C 0.14293 0.39077 0.57148 0.0
N459 N 0.1277 0.38051 0.59557 0.0
N460 N 0.14278 0.35958 0.60817 0.0
C461 C 0.16794 0.35575 0.59229 0.0
C462 C 0.16881 0.37532 0.56849 0.0
C463 C 0.13366 0.41594 0.55266 0.0
H464 H 0.10996 0.4114 0.54459 0.0
H465 H 0.13494 0.4368 0.56693 0.0
H466 H 0.14831 0.41907 0.53276 0.0
O467 O 0.06245 0.35879 0.61963 0.0
O468 O 0.08825 0.32263 0.63835 0.0
H469 H 0.18269 0.31242 0.60104 0.0
H470 H 0.21162 0.33773 0.5863 0.0
C471 C 0.1921 0.3359 0.60155 0.0
H472 H 0.19987 0.34196 0.62518 0.0
H473 H 0.13674 0.27803 0.63114 0.0
O474 O 0.07069 0.42027 0.58793 0.0
C475 C 0.06366 0.33216 0.62851 0.0
Co476 Co 0.62172 0.62526 0.61118 0.0
Co477 Co 0.65073 0.67806 0.6499 0.0
C478 C 0.64479 0.61778 0.67589 0.0
O479 O 0.63421 0.60727 0.65041 0.0
O480 O 0.65177 0.64558 0.67961 0.0
C481 C 0.58384 0.57326 0.60454 0.0
O482 O 0.5844 0.57594 0.63433 0.0
C483 C 0.65964 0.72117 0.69972 0.0
C484 C 0.68869 0.75683 0.67973 0.0
C485 C 0.67505 0.74844 0.70649 0.0
N486 N 0.66422 0.7138 0.67054 0.0
N487 N 0.68133 0.73527 0.65853 0.0
C488 C 0.63975 0.70274 0.71989 0.0
H489 H 0.62171 0.69005 0.70618 0.0
H490 H 0.62955 0.71704 0.73738 0.0
H491 H 0.65334 0.68637 0.73138 0.0
C492 C 0.56973 0.66543 0.61076 0.0
N493 N 0.59826 0.65903 0.61812 0.0
N494 N 0.61137 0.68177 0.63391 0.0
C495 C 0.59194 0.70347 0.63665 0.0
C496 C 0.56482 0.69383 0.62243 0.0
C497 C 0.54722 0.64404 0.59462 0.0
H498 H 0.55713 0.6351 0.57356 0.0
H499 H 0.54185 0.62493 0.6094 0.0
H500 H 0.52616 0.65488 0.58889 0.0
O501 O 0.65817 0.63607 0.5866 0.0
O502 O 0.67941 0.67195 0.6171 0.0
H503 H 0.62138 0.74263 0.64541 0.0
H504 H 0.58195 0.74929 0.64665 0.0
C505 C 0.59903 0.73324 0.65234 0.0
H506 H 0.59946 0.73056 0.67728 0.0
H507 H 0.68844 0.73488 0.63609 0.0
O508 O 0.59732 0.59319 0.589 0.0
C509 C 0.6798 0.65537 0.59316 0.0
Co510 Co 0.36131 0.36498 0.37051 0.0
Co511 Co 0.40591 0.39437 0.41827 0.0
C512 C 0.39337 0.42681 0.36321 0.0
O513 O 0.37472 0.40505 0.35554 0.0
O514 O 0.40908 0.42649 0.38778 0.0
C515 C 0.3517 0.34763 0.30977 0.0
O516 O 0.37782 0.36263 0.3073 0.0
C517 C 0.45587 0.42117 0.45722 0.0
C518 C 0.44665 0.39722 0.49957 0.0
C519 C 0.46604 0.41863 0.48709 0.0
N520 N 0.43153 0.40222 0.4526 0.0
N521 N 0.42623 0.38791 0.4779 0.0
C522 C 0.4698 0.43952 0.43278 0.0
H523 H 0.46543 0.4281 0.41025 0.0
H524 H 0.49448 0.44344 0.43683 0.0
H525 H 0.45941 0.46133 0.43243 0.0
C526 C 0.40359 0.31628 0.37335 0.0
N527 N 0.39447 0.34324 0.38199 0.0
N528 N 0.41439 0.35632 0.4013 0.0
C529 C 0.43728 0.3383 0.40516 0.0
C530 C 0.43118 0.31217 0.38763 0.0
C531 C 0.38565 0.29448 0.35263 0.0
H532 H 0.3612 0.29625 0.3562 0.0
H533 H 0.39047 0.29974 0.32869 0.0
H534 H 0.39159 0.27127 0.35663 0.0
O535 O 0.3328 0.36883 0.40411 0.0
O536 O 0.36504 0.39391 0.43597 0.0
H537 H 0.46108 0.3434 0.44786 0.0
H538 H 0.48433 0.33352 0.41647 0.0
C539 C 0.46541 0.34695 0.42347 0.0
H540 H 0.47197 0.3709 0.42065 0.0
H541 H 0.40852 0.37184 0.48035 0.0
O542 O 0.34023 0.34488 0.33578 0.0
C543 C 0.33857 0.38291 0.42927 0.0
H544 H 0.21407 0.26078 0.22187 0.0
H545 H 0.25225 0.29116 0.13754 0.0
H546 H 0.29511 0.31713 0.16647 0.0
H547 H 0.23449 0.32688 0.26675 0.0
H548 H 0.24269 0.30684 0.30051 0.0
H549 H 0.21521 0.29111 0.27291 0.0
H550 H 0.24462 0.24314 0.26836 0.0
H551 H 0.27227 0.25879 0.29586 0.0
H552 H 0.28392 0.24615 0.25893 0.0
H553 H 0.33407 0.33876 0.20487 0.0
H554 H 0.36472 0.35694 0.25006 0.0
H555 H 0.3005 0.31112 0.30837 0.0
C556 C 0.23164 0.27262 0.2095 0.0
C557 C 0.23038 0.27361 0.17759 0.0
C558 C 0.2531 0.29013 0.1621 0.0
C559 C 0.2775 0.30476 0.17827 0.0
C560 C 0.27848 0.3027 0.20978 0.0
C561 C 0.25604 0.28721 0.22521 0.0
C562 C 0.26207 0.28863 0.25908 0.0
C563 C 0.23714 0.30431 0.27579 0.0
C564 C 0.26596 0.25731 0.27126 0.0
C565 C 0.29145 0.3074 0.26036 0.0
C566 C 0.30067 0.31524 0.23175 0.0
C567 C 0.32711 0.33277 0.22741 0.0
C568 C 0.34438 0.34287 0.25315 0.0
C569 C 0.33491 0.33542 0.28262 0.0
C570 C 0.30829 0.31723 0.28611 0.0
H571 H 0.01306 0.05587 0.55946 0.0
H572 H 0.92475 0.01367 0.53617 0.0
H573 H 0.94643 0.98652 0.49307 0.0
H574 H 0.0398 0.0637 0.48295 0.0
H575 H 0.07769 0.05484 0.49282 0.0
H576 H 0.0549 0.07218 0.5208 0.0
H577 H 0.06311 0.02904 0.55727 0.0
H578 H 0.08599 0.01161 0.52945 0.0
H579 H 0.05372 0.99104 0.54429 0.0
H580 H 0.978 0.96347 0.45285 0.0
H581 H 0.01736 0.94407 0.42036 0.0
H582 H 0.08548 0.99981 0.47129 0.0
C583 C 0.99823 0.04105 0.54517 0.0
C584 C 0.96699 0.03769 0.55054 0.0
C585 C 0.94849 0.01763 0.53171 0.0
C586 C 0.96066 1.00187 0.50734 0.0
C587 C 0.99147 0.00612 0.50237 0.0
C588 C 0.01005 0.02504 0.52091 0.0
C589 C 0.0426 0.02471 0.51147 0.0
C590 C 0.05443 0.0557 0.50141 0.0
C591 C 0.06252 0.01342 0.53714 0.0
C592 C 0.03947 1.00251 0.48479 0.0
C593 C 0.00977 0.99221 0.47979 0.0
C594 C 1.00133 0.97139 0.45656 0.0
C595 C 0.02387 0.96054 0.43818 0.0
C596 C 0.05456 0.97038 0.44325 0.0
C597 C 0.06227 0.99184 0.46676 0.0
H598 H 0.18574 0.72202 0.76803 0.0
H599 H 0.26339 0.70032 0.82215 0.0
H600 H 0.29203 0.7453 0.80402 0.0
H601 H 0.22266 0.74285 0.70513 0.0
H602 H 0.1997 0.77308 0.69569 0.0
H603 H 0.18413 0.74268 0.71714 0.0
H604 H 0.17007 0.77987 0.75999 0.0
H605 H 0.18556 0.81054 0.73853 0.0
H606 H 0.19877 0.8057 0.77697 0.0
H607 H 0.31442 0.78637 0.77214 0.0
H608 H 0.32793 0.8211 0.73157 0.0
H609 H 0.23435 0.81805 0.70123 0.0
C610 C 0.20854 0.72725 0.77664 0.0
C611 C 0.2225 0.70806 0.79645 0.0
C612 C 0.25234 0.71518 0.80721 0.0
C613 C 0.26868 0.74062 0.79706 0.0
C614 C 0.25447 0.75881 0.77678 0.0
C615 C 0.22484 0.75267 0.76715 0.0
C616 C 0.21542 0.77398 0.74337 0.0
C617 C 0.20489 0.75713 0.71359 0.0
C618 C 0.19101 0.79369 0.75545 0.0
C619 C 0.24488 0.79197 0.73967 0.0
C620 C 0.26708 0.78328 0.7594 0.0
C621 C 0.29699 0.79424 0.75743 0.0
C622 C 0.30443 0.81423 0.73446 0.0
C623 C 0.28196 0.82314 0.71397 0.0
C624 C 0.25182 0.81223 0.71711 0.0
H625 H 0.46452 0.05433 1.0026 0.0
H626 H 0.48846 0.0182 0.91453 0.0
H627 H 0.51629 0.97949 0.93998 0.0
H628 H 0.53384 0.04602 0.03993 0.0
H629 H 0.51778 0.03598 0.07574 0.0
H630 H 0.4979 0.05912 0.05051 0.0
H631 H 0.45104 0.02173 0.05047 0.0
H632 H 0.47065 0.9986 0.076 0.0
H633 H 0.45503 0.98298 0.04043 0.0
H634 H 0.54523 0.94724 0.97601 0.0
H635 H 0.5692 0.92226 0.01877 0.0
H636 H 0.52523 0.97969 0.08276 0.0
C637 C 0.47523 0.03798 0.98861 0.0
C638 C 0.47395 0.03901 0.95655 0.0
C639 C 0.48845 0.01739 0.93908 0.0
C640 C 0.50457 0.9955 0.95338 0.0
C641 C 0.50578 0.99548 0.98513 0.0
C642 C 0.49113 0.01599 1.00247 0.0
C643 C 0.49632 0.01183 0.03614 0.0
C644 C 0.51242 0.0399 0.05146 0.0
C645 C 0.46648 1.00327 0.05167 0.0
C646 C 0.51662 0.98605 0.03519 0.0
C647 C 0.52193 0.9769 0.00561 0.0
C648 C 0.54092 0.95406 0.99923 0.0
C649 C 0.55454 0.94008 0.02368 0.0
C650 C 0.549 0.94888 0.05417 0.0
C651 C 0.52978 0.97223 0.05978 0.0
H652 H 0.2937 0.74462 0.16596 0.0
H653 H 0.29342 0.67329 0.23036 0.0
H654 H 0.26648 0.70437 0.26687 0.0
H655 H 0.30591 0.80554 0.22044 0.0
H656 H 0.28155 0.82947 0.20066 0.0
H657 H 0.30082 0.80164 0.17972 0.0
H658 H 0.24982 0.77916 0.15687 0.0
H659 H 0.23044 0.80708 0.17751 0.0
H660 H 0.21993 0.76805 0.18197 0.0
H661 H 0.23893 0.7435 0.29616 0.0
H662 H 0.21127 0.7862 0.31466 0.0
H663 H 0.23064 0.83194 0.23127 0.0
C664 C 0.28794 0.73543 0.1877 0.0
C665 C 0.29568 0.70648 0.19528 0.0
C666 C 0.28766 0.69537 0.224 0.0
C667 C 0.27246 0.71291 0.24493 0.0
C668 C 0.26545 0.74148 0.2368 0.0
C669 C 0.2728 0.75257 0.20879 0.0
C670 C 0.26236 0.78375 0.20532 0.0
C671 C 0.28927 0.80643 0.2013 0.0
C672 C 0.23926 0.78454 0.17885 0.0
C673 C 0.24783 0.78849 0.23571 0.0
C674 C 0.24997 0.76396 0.25366 0.0
C675 C 0.2375 0.76298 0.28244 0.0
C676 C 0.22216 0.78756 0.29296 0.0
C677 C 0.21959 0.81283 0.2748 0.0
C678 C 0.23267 0.81314 0.24585 0.0
H679 H 0.4546 0.96156 0.52167 0.0
H680 H 0.49025 0.98113 0.61331 0.0
H681 H 0.53292 0.01103 0.59267 0.0
H682 H 0.52727 0.95521 0.48626 0.0
H683 H 0.51585 0.97252 0.45181 0.0
H684 H 0.48831 0.95189 0.47368 0.0
H685 H 0.45651 0.99823 0.47707 0.0
H686 H 0.484 0.01904 0.45533 0.0
H687 H 0.47368 0.03319 0.49217 0.0
H688 H 0.57034 0.0406 0.56275 0.0
H689 H 0.60174 0.06632 0.52487 0.0
H690 H 0.54284 0.02697 0.45236 0.0
C691 C 0.47149 0.97198 0.53737 0.0
C692 C 0.46905 0.96902 0.56912 0.0
C693 C 0.49162 0.98301 0.5889 0.0
C694 C 0.51596 1.0001 0.57742 0.0
C695 C 0.51754 1.00284 0.54609 0.0
C696 C 0.49609 0.98904 0.52627 0.0
C697 C 0.50313 0.99584 0.49357 0.0
C698 C 0.50899 0.96715 0.47525 0.0
C699 C 0.47782 0.01258 0.47867 0.0
C700 C 0.53172 0.01584 0.4982 0.0
C701 C 0.53955 0.0196 0.52869 0.0
C702 C 0.56459 0.03768 0.53877 0.0
C703 C 0.58222 0.05226 0.51708 0.0
C704 C 0.57481 0.04855 0.48568 0.0
C705 C 0.54921 0.03004 0.47619 0.0
H706 H 0.31662 0.18689 0.74172 0.0
H707 H 0.3084 0.22733 0.83181 0.0
H708 H 0.27033 0.25977 0.81161 0.0
H709 H 0.30815 0.25367 0.69932 0.0
H710 H 0.28642 0.23432 0.66887 0.0
H711 H 0.31374 0.21501 0.69024 0.0
H712 H 0.27239 0.17438 0.70319 0.0
H713 H 0.24499 0.19349 0.6818 0.0
H714 H 0.23849 0.18528 0.72104 0.0
H715 H 0.23226 0.28719 0.78155 0.0
H716 H 0.19603 0.30594 0.74452 0.0
H717 H 0.22915 0.24741 0.67431 0.0
C718 C 0.30696 0.20266 0.75722 0.0
C719 C 0.31563 0.20464 0.78835 0.0
C720 C 0.30219 0.22543 0.80787 0.0
C721 C 0.28058 0.24401 0.79659 0.0
C722 C 0.27258 0.24148 0.76577 0.0
C723 C 0.28528 0.22124 0.7464 0.0
C724 C 0.27214 0.22226 0.71443 0.0
C725 C 0.29657 0.2319 0.69189 0.0
C726 C 0.25605 0.19206 0.70455 0.0
C727 C 0.24992 0.24612 0.71886 0.0
C728 C 0.25066 0.25711 0.74856 0.0
C729 C 0.23174 0.27898 0.75815 0.0
C730 C 0.21144 0.28974 0.73686 0.0
C731 C 0.21026 0.27865 0.70635 0.0
C732 C 0.22977 0.25652 0.69741 0.0
H733 H 0.0598 0.07077 0.03969 0.0
H734 H 0.03866 0.04868 0.13254 0.0
H735 H 0.01037 1.00239 0.11365 0.0
H736 H 0.98803 0.04219 0.00531 0.0
H737 H 1.00536 0.02856 0.9714 0.0
H738 H 0.02236 0.06066 0.99232 0.0
H739 H 0.07245 0.03435 0.99684 0.0
H740 H 0.05557 1.00208 0.97621 0.0
H741 H 0.07242 0.99811 0.01337 0.0
H742 H 0.98746 0.95714 0.08478 0.0
H743 H 0.96797 0.91786 0.04751 0.0
H744 H 1.00468 0.97004 0.97406 0.0
C745 C 0.04897 0.05636 0.05606 0.0
C746 C 0.05139 0.06317 0.08753 0.0
C747 C 0.03689 0.04386 0.10827 0.0
C748 C 0.0209 0.01752 0.0978 0.0
C749 C 0.01954 0.01115 0.0666 0.0
C750 C 0.03289 0.03018 0.04603 0.0
C751 C 0.02861 0.01802 0.01375 0.0
C752 C 0.00998 0.03858 0.99457 0.0
C753 C 0.05908 0.01283 0.9992 0.0
C754 C 0.01113 0.98891 0.01939 0.0
C755 C 0.00611 0.98532 0.05 0.0
C756 C 0.99098 0.95981 0.06074 0.0
C757 C 0.98021 0.93761 0.03949 0.0
C758 C 0.98452 0.94134 0.00803 0.0
C759 C 1.00055 0.96706 0.99797 0.0
H760 H 0.79944 0.21615 0.6963 0.0
H761 H 0.75406 0.13982 0.73772 0.0
H762 H 0.72868 0.1739 0.77272 0.0
H763 H 0.81059 0.26354 0.76402 0.0
H764 H 0.80277 0.29714 0.74474 0.0
H765 H 0.81859 0.26675 0.72422 0.0
H766 H 0.7744 0.26528 0.6847 0.0
H767 H 0.75861 0.29581 0.70494 0.0
H768 H 0.73617 0.26139 0.69754 0.0
H769 H 0.70829 0.21673 0.80325 0.0
H770 H 0.69035 0.26453 0.82292 0.0
H771 H 0.74719 0.31259 0.75964 0.0
C772 C 0.78431 0.2066 0.71288 0.0
C773 C 0.77885 0.17534 0.71449 0.0
C774 C 0.75851 0.16371 0.7361 0.0
C775 C 0.74416 0.18288 0.75618 0.0
C776 C 0.75014 0.21362 0.75407 0.0
C777 C 0.76943 0.22539 0.73266 0.0
C778 C 0.7706 0.2592 0.73374 0.0
C779 C 0.80254 0.27243 0.74219 0.0
C780 C 0.75926 0.27111 0.70344 0.0
C781 C 0.74892 0.26468 0.75907 0.0
C782 C 0.7377 0.23815 0.77086 0.0
C783 C 0.71707 0.23763 0.7943 0.0
C784 C 0.70725 0.26489 0.80556 0.0
C785 C 0.71788 0.29222 0.79319 0.0
C786 C 0.73904 0.292 0.76975 0.0
H787 H 0.05447 0.58558 1.00353 0.0
H788 H 0.06373 0.51549 0.93475 0.0
H789 H 0.01972 0.48706 0.95477 0.0
H790 H 0.03366 0.53792 0.06367 0.0
H791 H 0.00697 0.56237 0.07943 0.0
H792 H 0.03861 0.57765 0.0589 0.0
H793 H 1.00206 0.60329 0.02281 0.0
H794 H 0.97027 0.58775 0.04306 0.0
H795 H 0.97246 0.58103 1.0026 0.0
H796 H 0.97702 0.46478 0.98399 0.0
H797 H 0.9393 0.44963 0.02148 0.0
H798 H 0.95553 0.53531 0.06939 0.0
C799 C 0.04727 0.56424 0.99274 0.0
C800 C 0.06253 0.55273 0.96765 0.0
C801 C 0.05232 0.52478 0.95401 0.0
C802 C 0.02729 0.50849 0.96511 0.0
C803 C 0.01254 0.52057 0.98968 0.0
C804 C 0.02211 0.54777 1.00336 0.0
C805 C 1.00271 0.55527 0.02998 0.0
C806 C 0.02162 0.55847 0.05975 0.0
C807 C 0.98588 0.58351 0.02425 0.0
C808 C 0.98123 0.52772 0.02949 0.0
C809 C 0.98714 0.50809 0.00593 0.0
C810 C 0.97162 0.48024 1.00211 0.0
C811 C 0.94984 0.47198 0.02334 0.0
C812 C 0.94365 0.49166 0.04784 0.0
C813 C 0.95933 0.52002 0.05055 0.0
H814 H 0.79036 0.70148 0.30874 0.0
H815 H 0.85813 0.77558 0.3133 0.0
H816 H 0.82431 0.80586 0.28382 0.0
H817 H 0.76358 0.71239 0.23286 0.0
H818 H 0.72461 0.7029 0.24081 0.0
H819 H 0.75398 0.68703 0.26264 0.0
H820 H 0.73158 0.70743 0.31241 0.0
H821 H 0.70214 0.72339 0.29071 0.0
H822 H 0.72587 0.74672 0.31666 0.0
H823 H 0.78456 0.82709 0.25113 0.0
H824 H 0.74064 0.83864 0.21976 0.0
H825 H 0.69683 0.7524 0.23924 0.0
C826 C 0.79805 0.72408 0.30355 0.0
C827 C 0.82696 0.73611 0.31327 0.0
C828 C 0.83609 0.76586 0.30618 0.0
C829 C 0.81705 0.78326 0.28939 0.0
C830 C 0.78877 0.77075 0.28008 0.0
C831 C 0.77917 0.74194 0.28707 0.0
C832 C 0.74761 0.73398 0.27436 0.0
C833 C 0.74745 0.70751 0.2513 0.0
C834 C 0.72549 0.7275 0.30007 0.0
C835 C 0.74117 0.76269 0.25887 0.0
C836 C 0.76525 0.78356 0.26239 0.0
C837 C 0.76522 0.81122 0.24888 0.0
C838 C 0.73985 0.8178 0.23142 0.0
C839 C 0.71452 0.79705 0.22806 0.0
C840 C 0.71549 0.76906 0.24188 0.0
H841 H 0.0104 0.58606 0.49871 0.0
H842 H 0.9402 0.52404 0.45955 0.0
H843 H 0.96278 0.48273 0.48557 0.0
H844 H 0.07159 0.53654 0.4969 0.0
H845 H 0.08744 0.55009 0.53315 0.0
H846 H 0.06695 0.57446 0.50972 0.0
H847 H 0.03136 0.58455 0.5542 0.0
H848 H 0.05168 0.56018 0.57775 0.0
H849 H 0.01156 0.55352 0.57172 0.0
H850 H 0.99255 0.44823 0.5166 0.0
H851 H 0.02593 0.42334 0.55185 0.0
H852 H 0.07525 0.50824 0.57328 0.0
C853 C 0.99992 0.56374 0.49534 0.0
C854 C 0.97415 0.55819 0.47606 0.0
C855 C 0.96077 0.52875 0.47288 0.0
C856 C 0.97323 0.50514 0.48794 0.0
C857 C 0.9988 0.51138 0.5065 0.0
C858 C 0.01189 0.53999 0.51043 0.0
C859 C 0.03846 0.54095 0.53271 0.0
C860 C 0.06785 0.55111 0.51718 0.0
C861 C 0.03292 0.56098 0.56076 0.0
C862 C 0.03825 0.50838 0.54079 0.0
C863 C 0.0153 0.49169 0.52526 0.0
C864 C 0.01057 0.46107 0.52889 0.0
C865 C 0.02971 0.44714 0.54899 0.0
C866 C 0.05323 0.46381 0.56545 0.0
C867 C 0.05747 0.49486 0.56116 0.0
H868 H 0.5681 0.44315 1.00222 0.0
H869 H 0.53005 0.4627 0.91392 0.0
H870 H 0.49416 0.49485 0.93897 0.0
H871 H 0.49866 0.44133 0.04368 0.0
H872 H 0.51611 0.45918 0.07744 0.0
H873 H 0.53781 0.43668 0.05263 0.0
H874 H 0.57708 0.48127 0.04724 0.0
H875 H 0.55558 0.50385 0.07211 0.0
H876 H 0.56473 0.51645 0.03473 0.0
H877 H 0.46305 0.5257 0.97385 0.0
H878 H 0.4412 0.55489 0.01543 0.0
H879 H 0.50022 0.51561 0.08064 0.0
C880 C 0.55209 0.45401 0.98812 0.0
C881 C 0.55175 0.45027 0.95611 0.0
C882 C 0.53069 0.4652 0.93849 0.0
C883 C 0.51016 0.48342 0.95252 0.0
C884 C 0.5111 0.48658 0.98415 0.0
C885 C 0.53166 0.47244 1.0017 0.0
C886 C 0.52894 0.48051 0.03514 0.0
C887 C 0.51983 0.45277 0.05328 0.0
C888 C 0.55833 0.49648 0.04805 0.0
C889 C 0.50372 0.50156 0.03369 0.0
C890 C 0.49351 0.50456 1.00412 0.0
C891 C 0.47065 0.52326 0.99712 0.0
C892 C 0.45813 0.53952 0.02094 0.0
C893 C 0.46853 0.53698 0.05133 0.0
C894 C 0.49161 0.51773 0.05764 0.0
H895 H 0.68763 0.80754 0.71829 0.0
H896 H 0.68162 0.7219 0.76141 0.0
H897 H 0.70528 0.74472 0.80754 0.0
H898 H 0.75713 0.82482 0.73771 0.0
H899 H 0.75568 0.86436 0.74543 0.0
H900 H 0.72821 0.84534 0.72011 0.0
H901 H 0.68484 0.86352 0.75278 0.0
H902 H 0.71223 0.88336 0.77803 0.0
H903 H 0.6847 0.85682 0.79295 0.0
H904 H 0.74266 0.77063 0.84076 0.0
H905 H 0.78726 0.80031 0.86163 0.0
H906 H 0.77073 0.87052 0.79916 0.0
C907 C 0.68994 0.79404 0.73808 0.0
C908 C 0.68187 0.76314 0.73645 0.0
C909 C 0.68613 0.7458 0.76231 0.0
C910 C 0.69992 0.75862 0.78876 0.0
C911 C 0.70932 0.78876 0.78903 0.0
C912 C 0.704 0.80654 0.7646 0.0
C913 C 0.72118 0.8367 0.76843 0.0
C914 C 0.74176 0.84313 0.74133 0.0
C915 C 0.69943 0.86157 0.77335 0.0
C916 C 0.73925 0.83188 0.79716 0.0
C917 C 0.73145 0.80435 0.80906 0.0
C918 C 0.74821 0.79269 0.83246 0.0
C919 C 0.77371 0.80946 0.84386 0.0
C920 C 0.782 0.83756 0.83192 0.0
C921 C 0.7642 0.8493 0.80894 0.0
H922 H 0.70181 0.19082 0.24975 0.0
H923 H 0.74012 0.22194 0.33751 0.0
H924 H 0.77403 0.25828 0.31197 0.0
H925 H 0.77029 0.2015 0.20504 0.0
H926 H 0.74979 0.21451 0.17279 0.0
H927 H 0.73167 0.1881 0.19763 0.0
H928 H 0.6889 0.22383 0.20634 0.0
H929 H 0.70692 0.25038 0.18169 0.0
H930 H 0.6983 0.26161 0.22004 0.0
H931 H 0.80093 0.29373 0.27722 0.0
H932 H 0.81755 0.32685 0.23643 0.0
H933 H 0.75936 0.27445 0.17159 0.0
C934 C 0.71771 0.20488 0.26364 0.0
C935 C 0.71894 0.20278 0.29563 0.0
C936 C 0.73961 0.22207 0.31295 0.0
C937 C 0.75878 0.24306 0.29862 0.0
C938 C 0.75677 0.24461 0.26705 0.0
C939 C 0.73669 0.22607 0.24978 0.0
C940 C 0.73705 0.23387 0.21655 0.0
C941 C 0.74785 0.20795 0.19685 0.0
C942 C 0.70595 0.24297 0.20553 0.0
C943 C 0.76003 0.2602 0.21788 0.0
C944 C 0.77144 0.26575 0.24713 0.0
C945 C 0.79231 0.28947 0.25421 0.0
C946 C 0.80156 0.30819 0.23083 0.0
C947 C 0.7897 0.30329 0.20077 0.0
C948 C 0.76889 0.27876 0.19427 0.0
H949 H 0.48615 0.47729 0.48012 0.0
H950 H 0.49872 0.40005 0.53487 0.0
H951 H 0.53311 0.43089 0.56947 0.0
H952 H 0.56556 0.5102 0.48974 0.0
H953 H 0.55312 0.54764 0.49064 0.0
H954 H 0.53225 0.51858 0.46839 0.0
H955 H 0.48389 0.53042 0.49697 0.0
H956 H 0.50462 0.55901 0.51976 0.0
H957 H 0.48376 0.52902 0.53788 0.0
H958 H 0.55947 0.4711 0.60171 0.0
H959 H 0.58157 0.51759 0.62687 0.0
H960 H 0.55537 0.56773 0.54894 0.0
C961 C 0.49721 0.46638 0.49839 0.0
C962 C 0.49023 0.43607 0.5044 0.0
C963 C 0.50395 0.42323 0.52976 0.0
C964 C 0.52354 0.4405 0.54949 0.0
C965 C 0.52944 0.47046 0.54325 0.0
C966 C 0.5172 0.48319 0.51802 0.0
C967 C 0.52588 0.5163 0.51748 0.0
C968 C 0.54537 0.5236 0.48993 0.0
C969 C 0.49786 0.53475 0.51807 0.0
C970 C 0.54405 0.52032 0.54691 0.0
C971 C 0.54573 0.4936 0.56145 0.0
C972 C 0.55897 0.49205 0.59027 0.0
C973 C 0.57117 0.51853 0.60445 0.0
C974 C 0.57027 0.54595 0.58958 0.0
C975 C 0.55674 0.54685 0.56043 0.0
H976 H 0.13237 0.06771 0.16387 0.0
H977 H 0.15216 0.14507 0.22427 0.0
H978 H 0.15093 0.11221 0.2684 0.0
H979 H 0.0814 0.02795 0.21159 0.0
H980 H 0.09433 0.99178 0.20157 0.0
H981 H 0.09727 0.02132 0.17483 0.0
H982 H 0.15462 0.01514 0.17099 0.0
H983 H 0.15186 0.98552 0.19768 0.0
H984 H 0.17795 0.01742 0.20512 0.0
H985 H 0.14484 0.07081 0.30628 0.0
H986 H 0.13799 0.02394 0.33436 0.0
H987 H 0.12451 0.97361 0.24906 0.0
C988 C 0.1366 0.07781 0.18635 0.0
C989 C 0.14227 0.10908 0.19055 0.0
C990 C 0.14782 0.12124 0.2204 0.0
C991 C 0.14709 0.10273 0.24563 0.0
C992 C 0.14111 0.07206 0.24066 0.0
C993 C 0.13631 0.05966 0.2117 0.0
C994 C 0.13059 0.02603 0.21242 0.0
C995 C 0.09903 0.01621 0.19933 0.0
C996 C 0.15523 0.01009 0.19555 0.0
C997 C 0.13265 0.02139 0.24635 0.0
C998 C 0.13852 0.04824 0.26228 0.0
C999 C 0.14045 0.04968 0.29399 0.0
C1000 C 0.13639 0.02303 0.30975 0.0
C1001 C 0.13073 0.99531 0.29381 0.0
C1002 C 0.12901 0.99454 0.26172 0.0
H1003 H 0.22562 0.89817 0.41077 0.0
H1004 H 0.14741 0.91437 0.46498 0.0
H1005 H 0.17989 0.92056 0.51089 0.0
H1006 H 0.26456 0.85658 0.46666 0.0
H1007 H 0.30152 0.8725 0.45806 0.0
H1008 H 0.27225 0.86927 0.42897 0.0
H1009 H 0.27982 0.92597 0.42017 0.0
H1010 H 0.30899 0.92941 0.44937 0.0
H1011 H 0.27706 0.9521 0.45177 0.0
H1012 H 0.21957 0.92357 0.55115 0.0
H1013 H 0.265 0.92369 0.58407 0.0
H1014 H 0.3192 0.90767 0.50505 0.0
C1015 C 0.21535 0.90294 0.43231 0.0
C1016 C 0.18382 0.90572 0.43412 0.0
C1017 C 0.17139 0.91216 0.46281 0.0
C1018 C 0.18968 0.91575 0.48912 0.0
C1019 C 0.22053 0.91307 0.48655 0.0
C1020 C 0.23341 0.90689 0.45898 0.0
C1021 C 0.26735 0.90526 0.46291 0.0
C1022 C 0.27698 0.87404 0.4536 0.0
C1023 C 0.2843 0.92964 0.44499 0.0
C1024 C 0.27135 0.91125 0.49703 0.0
C1025 C 0.24391 0.91561 0.51005 0.0
C1026 C 0.24124 0.9204 0.54123 0.0
C1027 C 0.26721 0.9204 0.55975 0.0
C1028 C 0.2957 0.91591 0.54717 0.0
C1029 C 0.29782 0.91165 0.51526 0.0
H1030 H 0.36823 0.952 0.71124 0.0
H1031 H 0.38183 0.00959 0.63464 0.0
H1032 H 0.38986 0.05325 0.67 0.0
H1033 H 0.32949 1.00287 0.75882 0.0
H1034 H 0.3477 0.99271 0.79365 0.0
H1035 H 0.34248 0.96588 0.7624 0.0
H1036 H 0.39979 0.95862 0.76319 0.0
H1037 H 0.40522 0.98549 0.7944 0.0
H1038 H 0.42603 0.99061 0.76006 0.0
H1039 H 0.39377 0.09085 0.713 0.0
H1040 H 0.39717 0.12007 0.76145 0.0
H1041 H 0.3852 0.0384 0.81122 0.0
C1042 C 0.37276 0.97383 0.70194 0.0
C1043 C 0.37413 0.97743 0.67012 0.0
C1044 C 0.38063 0.00629 0.65888 0.0
C1045 C 0.38518 0.03124 0.67879 0.0
C1046 C 0.38369 0.02696 0.70996 0.0
C1047 C 0.378 0.99898 0.72158 0.0
C1048 C 0.37849 1.00062 0.75615 0.0
C1049 C 0.3477 0.98988 0.76847 0.0
C1050 C 0.4039 0.98278 0.76921 0.0
C1051 C 0.38495 0.03394 0.76209 0.0
C1052 C 0.38758 0.04865 0.73503 0.0
C1053 C 0.39209 0.07957 0.73434 0.0
C1054 C 0.39391 0.09598 0.76198 0.0
C1055 C 0.39171 0.0815 0.79007 0.0
C1056 C 0.38744 0.05 0.79009 0.0
H1057 H 0.27529 0.12589 0.92839 0.0
H1058 H 0.35453 0.14937 0.98532 0.0
H1059 H 0.32231 0.15489 0.02996 0.0
H1060 H 0.22639 0.17627 0.96405 0.0
H1061 H 0.19335 0.15082 0.96126 0.0
H1062 H 0.22259 0.1482 0.93379 0.0
H1063 H 0.22733 0.09267 0.94626 0.0
H1064 H 0.1981 0.09512 0.97379 0.0
H1065 H 0.23436 0.08275 0.98505 0.0
H1066 H 0.2819 0.16054 0.06748 0.0
H1067 H 0.23569 0.16327 0.09697 0.0
H1068 H 0.18173 0.13378 0.01695 0.0
C1069 C 0.2857 0.13212 0.95034 0.0
C1070 C 0.31733 0.13723 0.9536 0.0
C1071 C 0.33035 0.14519 0.98253 0.0
C1072 C 0.31224 0.14845 0.00793 0.0
C1073 C 0.28113 0.14338 1.00404 0.0
C1074 C 0.2679 0.13512 0.97608 0.0
C1075 C 0.23386 0.13091 0.97837 0.0
C1076 C 0.21813 0.15286 0.95817 0.0
C1077 C 0.22277 0.09843 0.97039 0.0
C1078 C 0.23005 0.13844 0.01189 0.0
C1079 C 0.25768 0.14571 0.02612 0.0
C1080 C 0.26015 0.15463 0.05668 0.0
C1081 C 0.23372 0.15621 0.07321 0.0
C1082 C 0.20508 0.1486 0.05934 0.0
C1083 C 0.2033 0.13938 0.02826 0.0
H1084 H 0.03198 0.22745 0.1504 0.0
H1085 H 0.04697 0.22839 0.05349 0.0
H1086 H 0.00721 0.26418 0.0475 0.0
H1087 H 0.95049 0.23462 0.14677 0.0
H1088 H 0.95085 0.25877 0.18027 0.0
H1089 H 0.97867 0.23151 0.1764 0.0
H1090 H 0.02126 0.27333 0.18437 0.0
H1091 H 0.9936 0.30073 0.18816 0.0
H1092 H 0.02231 0.30494 0.16004 0.0
H1093 H 0.96794 0.30207 0.05272 0.0
H1094 H 0.93101 0.33821 0.06842 0.0
H1095 H 0.94289 0.31399 0.1623 0.0
C1096 C 0.02671 0.23514 0.12793 0.0
C1097 C 0.04243 0.22531 0.10235 0.0
C1098 C 0.03489 0.23554 0.07326 0.0
C1099 C 0.01248 0.25592 0.06971 0.0
C1100 C 0.99785 0.26578 0.09552 0.0
C1101 C 1.00454 0.25561 0.12406 0.0
C1102 C 0.98635 0.27054 0.14825 0.0
C1103 C 0.96534 0.24748 0.16384 0.0
C1104 C 0.00712 0.28845 0.17158 0.0
C1105 C 0.96862 0.29097 0.12894 0.0
C1106 C 0.97549 0.28778 0.09856 0.0
C1107 C 0.96233 0.30466 0.07642 0.0
C1108 C 0.94156 0.32524 0.08554 0.0
C1109 C 0.93422 0.32886 0.11652 0.0
C1110 C 0.94796 0.31146 0.13843 0.0
H1111 H 0.53151 0.33563 0.87023 0.0
H1112 H 0.61264 0.28737 0.86161 0.0
H1113 H 0.58174 0.23969 0.85901 0.0
H1114 H 0.49069 0.28355 0.91632 0.0
H1115 H 0.45475 0.28773 0.89775 0.0
H1116 H 0.48313 0.31822 0.89892 0.0
H1117 H 0.48016 0.32036 0.84018 0.0
H1118 H 0.45169 0.28993 0.83883 0.0
H1119 H 0.48554 0.28714 0.8174 0.0
H1120 H 0.54244 0.19714 0.86039 0.0
H1121 H 0.49698 0.16263 0.86106 0.0
H1122 H 0.44083 0.23818 0.86526 0.0
C1123 C 0.54276 0.31503 0.86773 0.0
C1124 C 0.57455 0.31527 0.86626 0.0
C1125 C 0.58835 0.28781 0.86272 0.0
C1126 C 0.571 0.26058 0.86131 0.0
C1127 C 0.53978 0.26111 0.86303 0.0
C1128 C 0.52572 0.28761 0.86576 0.0
C1129 C 0.49173 0.28189 0.86648 0.0
C1130 C 0.47936 0.29354 0.89667 0.0
C1131 C 0.47638 0.29565 0.83909 0.0
C1132 C 0.48893 0.24804 0.8641 0.0
C1133 C 0.51697 0.23654 0.86242 0.0
C1134 C 0.52034 0.20589 0.86136 0.0
C1135 C 0.49439 0.18646 0.86186 0.0
C1136 C 0.46535 0.19768 0.86297 0.0
C1137 C 0.46269 0.22893 0.864 0.0
H1138 H 0.93948 0.74497 0.36228 0.0
H1139 H 0.99686 0.67041 0.36078 0.0
H1140 H 0.04164 0.70538 0.35592 0.0
H1141 H 0.98195 0.79245 0.31023 0.0
H1142 H 0.9763 0.82633 0.33182 0.0
H1143 H 0.94855 0.79532 0.33236 0.0
H1144 H 0.95297 0.79552 0.39115 0.0
H1145 H 0.98078 0.82645 0.39081 0.0
H1146 H 0.98939 0.79262 0.40924 0.0
H1147 H 0.08017 0.74844 0.35132 0.0
H1148 H 0.11027 0.79662 0.35198 0.0
H1149 H 0.02845 0.84365 0.3609 0.0
C1150 C 0.96145 0.73604 0.36041 0.0
C1151 C 0.96474 0.70496 0.36144 0.0
C1152 C 0.99389 0.69412 0.35983 0.0
C1153 C 0.01941 0.71381 0.35699 0.0
C1154 C 0.01548 0.74434 0.35633 0.0
C1155 C 0.98728 0.75546 0.35833 0.0
C1156 C 0.98954 0.78935 0.35941 0.0
C1157 C 0.97311 0.80158 0.33181 0.0
C1158 C 0.97746 0.8017 0.38944 0.0
C1159 C 0.02341 0.79554 0.35774 0.0
C1160 C 0.03788 0.76924 0.35547 0.0
C1161 C 0.06909 0.76917 0.3532 0.0
C1162 C 0.086 0.79666 0.35352 0.0
C1163 C 0.07178 0.82392 0.35665 0.0
C1164 C 0.04001 0.82321 0.35871 0.0
H1165 H 0.53185 0.71861 0.57701 0.0
H1166 H 0.53561 0.70518 0.67404 0.0
H1167 H 0.49506 0.73959 0.68144 0.0
H1168 H 0.52196 0.7947 0.58112 0.0
H1169 H 0.49573 0.79568 0.54941 0.0
H1170 H 0.52223 0.76701 0.55059 0.0
H1171 H 0.47863 0.72602 0.54519 0.0
H1172 H 0.45197 0.75457 0.54335 0.0
H1173 H 0.44801 0.72622 0.57137 0.0
H1174 H 0.46011 0.78031 0.67949 0.0
H1175 H 0.42765 0.82113 0.66771 0.0
H1176 H 0.44285 0.80689 0.57145 0.0
C1177 C 0.52322 0.72216 0.59957 0.0
C1178 C 0.53639 0.70903 0.62498 0.0
C1179 C 0.52539 0.71478 0.65435 0.0
C1180 C 0.50251 0.73438 0.65875 0.0
C1181 C 0.49067 0.74789 0.63348 0.0
C1182 C 0.50013 0.74167 0.60436 0.0
C1183 C 0.48448 0.76052 0.58145 0.0
C1184 C 0.50748 0.78067 0.56466 0.0
C1185 C 0.46459 0.74064 0.55901 0.0
C1186 C 0.46552 0.77879 0.60239 0.0
C1187 C 0.46958 0.7711 0.63229 0.0
C1188 C 0.45617 0.78605 0.6561 0.0
C1189 C 0.43777 0.80921 0.64918 0.0
C1190 C 0.43253 0.81707 0.6187 0.0
C1191 C 0.44661 0.80156 0.595 0.0
H1192 H 0.85635 0.01554 0.7176 0.0
H1193 H 0.90983 0.09027 0.75959 0.0
H1194 H 0.92031 0.05981 0.80426 0.0
H1195 H 0.82303 0.98866 0.78706 0.0
H1196 H 0.82392 0.94987 0.77551 0.0
H1197 H 0.8206 0.97774 0.74727 0.0
H1198 H 0.86782 0.95942 0.72075 0.0
H1199 H 0.87135 0.93157 0.74898 0.0
H1200 H 0.90258 0.95797 0.74237 0.0
H1201 H 0.92624 0.02018 0.84363 0.0
H1202 H 0.92489 0.97583 0.87568 0.0
H1203 H 0.86639 0.92735 0.80826 0.0
C1204 C 0.87014 0.02541 0.73634 0.0
C1205 C 0.8823 0.05517 0.73538 0.0
C1206 C 0.90023 0.06751 0.76015 0.0
C1207 C 0.90635 0.05036 0.78549 0.0
C1208 C 0.89421 0.02093 0.78572 0.0
C1209 C 0.87627 0.00864 0.76188 0.0
C1210 C 0.86584 0.97658 0.76779 0.0
C1211 C 0.8313 0.97301 0.76952 0.0
C1212 C 0.87761 0.95512 0.74353 0.0
C1213 C 0.8808 0.97266 0.79859 0.0
C1214 C 0.89719 0.99843 0.80851 0.0
C1215 C 0.91334 0.99994 0.83613 0.0
C1216 C 0.91252 0.97458 0.85416 0.0
C1217 C 0.89549 0.94803 0.84464 0.0
C1218 C 0.87953 0.94726 0.81638 0.0
H1219 H 0.7927 0.14797 0.5684 0.0
H1220 H 0.82354 0.05827 0.56407 0.0
H1221 H 0.78921 0.04571 0.51998 0.0
H1222 H 0.71485 0.12974 0.54583 0.0
H1223 H 0.712 0.16193 0.52269 0.0
H1224 H 0.73788 0.16349 0.55485 0.0
H1225 H 0.78175 0.17909 0.51973 0.0
H1226 H 0.75602 0.17741 0.48744 0.0
H1227 H 0.78889 0.15589 0.48683 0.0
H1228 H 0.7498 0.04207 0.47804 0.0
H1229 H 0.71096 0.04889 0.43811 0.0
H1230 H 0.70928 0.14227 0.46548 0.0
C1231 C 0.79192 0.12562 0.5583 0.0
C1232 C 0.81046 0.10392 0.56987 0.0
C1233 C 0.80942 0.07514 0.55563 0.0
C1234 C 0.78998 0.06781 0.53061 0.0
C1235 C 0.77214 0.0897 0.51958 0.0
C1236 C 0.77319 0.11815 0.53267 0.0
C1237 C 0.75267 0.13785 0.51535 0.0
C1238 C 0.72788 0.1489 0.53591 0.0
C1239 C 0.77093 0.16411 0.50152 0.0
C1240 C 0.73967 0.11593 0.49078 0.0
C1241 C 0.75097 0.08818 0.49392 0.0
C1242 C 0.74115 0.0638 0.47506 0.0
C1243 C 0.71915 0.06785 0.45247 0.0
C1244 C 0.70772 0.09617 0.44843 0.0
C1245 C 0.71827 0.12056 0.4677 0.0
H1246 H 0.62692 1.00041 0.33737 0.0
H1247 H 0.63655 0.0825 0.28786 0.0
H1248 H 0.63174 0.05365 0.23939 0.0
H1249 H 0.67136 0.95771 0.28537 0.0
H1250 H 0.64853 0.92339 0.28861 0.0
H1251 H 0.65154 0.95031 0.31992 0.0
H1252 H 0.59341 0.95174 0.32 0.0
H1253 H 0.59022 0.92484 0.28867 0.0
H1254 H 0.57347 0.96017 0.28552 0.0
H1255 H 0.62401 0.01697 0.19643 0.0
H1256 H 0.61871 0.97362 0.16065 0.0
H1257 H 0.61799 0.91398 0.23651 0.0
C1258 C 0.62792 0.0122 0.31628 0.0
C1259 C 0.63201 0.04373 0.3164 0.0
C1260 C 0.63358 0.05838 0.28836 0.0
C1261 C 0.63073 0.04221 0.26066 0.0
C1262 C 0.62678 0.01126 0.26123 0.0
C1263 C 0.6258 0.99625 0.28819 0.0
C1264 C 0.62267 0.96268 0.28197 0.0
C1265 C 0.65016 0.94764 0.29473 0.0
C1266 C 0.59318 0.94906 0.2948 0.0
C1267 C 0.62179 0.96136 0.2474 0.0
C1268 C 0.62383 0.98973 0.23605 0.0
C1269 C 0.62262 0.9946 0.20498 0.0
C1270 C 0.61948 0.9698 0.18483 0.0
C1271 C 0.61803 0.94039 0.19572 0.0
C1272 C 0.61927 0.93618 0.22749 0.0
H1273 H 0.69063 0.85748 0.02131 0.0
H1274 H 0.73619 0.89121 0.1046 0.0
H1275 H 0.78405 0.89796 0.07725 0.0
H1276 H 0.7514 0.81647 0.99296 0.0
H1277 H 0.74471 0.82516 0.95376 0.0
H1278 H 0.71395 0.82361 0.97974 0.0
H1279 H 0.70191 0.87746 0.96644 0.0
H1280 H 0.73263 0.87915 0.94039 0.0
H1281 H 0.73113 0.90712 0.97049 0.0
H1282 H 0.82692 0.90061 0.04102 0.0
H1283 H 0.86218 0.89838 0.9986 0.0
H1284 H 0.78885 0.8627 0.93858 0.0
C1285 C 0.71072 0.86641 0.03363 0.0
C1286 C 0.70993 0.87373 0.06502 0.0
C1287 C 0.73655 0.88524 0.08058 0.0
C1288 C 0.76374 0.88925 0.06522 0.0
C1289 C 0.76389 0.88167 0.03428 0.0
C1290 C 0.73811 0.87048 0.01862 0.0
C1291 C 0.74458 0.86368 0.98553 0.0
C1292 C 0.73829 0.83024 0.97754 0.0
C1293 C 0.72649 0.88301 0.96447 0.0
C1294 C 0.77802 0.87265 0.98509 0.0
C1295 C 0.78867 0.88308 0.01342 0.0
C1296 C 0.81884 0.89252 0.01871 0.0
C1297 C 0.83871 0.89116 0.99444 0.0
C1298 C 0.82838 0.88035 0.96519 0.0
C1299 C 0.79754 0.87108 0.96061 0.0
H1300 H 0.05641 0.6896 0.91463 0.0
H1301 H 0.05694 0.66868 0.8179 0.0
H1302 H 0.0168 0.70355 0.80932 0.0
H1303 H 0.97563 0.69721 0.92024 0.0
H1304 H 0.98008 0.72797 0.94759 0.0
H1305 H 0.00778 0.7004 0.94608 0.0
H1306 H 0.04979 0.74214 0.939 0.0
H1307 H 0.02223 0.76982 0.94043 0.0
H1308 H 0.04641 0.7674 0.90822 0.0
H1309 H 0.97729 0.74186 0.81137 0.0
H1310 H 0.94301 0.78171 0.82376 0.0
H1311 H 0.96852 0.77767 0.91907 0.0
C1312 C 0.0478 0.69223 0.89172 0.0
C1313 C 0.05964 0.67657 0.86687 0.0
C1314 C 0.04817 0.68068 0.83715 0.0
C1315 C 0.02534 0.70032 0.83212 0.0
C1316 C 0.01425 0.71569 0.85707 0.0
C1317 C 0.02516 0.71191 0.88629 0.0
C1318 C 0.01022 0.73189 0.90903 0.0
C1319 C 0.99237 0.71325 0.9321 0.0
C1320 C 0.03356 0.75413 0.92511 0.0
C1321 C 0.98938 0.74764 0.88806 0.0
C1322 C 0.99183 0.73785 0.8582 0.0
C1323 C 0.97507 0.74955 0.83471 0.0
C1324 C 0.95554 0.77203 0.84194 0.0
C1325 C 0.95307 0.78263 0.87233 0.0
C1326 C 0.97009 0.77006 0.89561 0.0
H1327 H 0.4705 0.68034 0.14002 0.0
H1328 H 0.39038 0.73041 0.13374 0.0
H1329 H 0.42237 0.77734 0.13178 0.0
H1330 H 0.51293 0.73462 0.18949 0.0
H1331 H 0.54848 0.72832 0.17227 0.0
H1332 H 0.51931 0.6986 0.17246 0.0
H1333 H 0.52171 0.69262 0.11383 0.0
H1334 H 0.55084 0.72236 0.11346 0.0
H1335 H 0.51687 0.72453 0.09075 0.0
H1336 H 0.46304 0.81844 0.12758 0.0
H1337 H 0.50957 0.85156 0.12674 0.0
H1338 H 0.56325 0.77543 0.14001 0.0
C1339 C 0.45972 0.7012 0.13819 0.0
C1340 C 0.42796 0.70175 0.1368 0.0
C1341 C 0.41467 0.72949 0.13486 0.0
C1342 C 0.43264 0.75624 0.13363 0.0
C1343 C 0.46387 0.75493 0.13491 0.0
C1344 C 0.47732 0.72819 0.13761 0.0
C1345 C 0.51138 0.7331 0.1396 0.0
C1346 C 0.52374 0.72307 0.17028 0.0
C1347 C 0.52605 0.71721 0.11281 0.0
C1348 C 0.51497 0.76674 0.13725 0.0
C1349 C 0.48729 0.77884 0.13419 0.0
C1350 C 0.48483 0.80927 0.1303 0.0
C1351 C 0.51136 0.82788 0.12974 0.0
C1352 C 0.53994 0.81609 0.13356 0.0
C1353 C 0.54167 0.7851 0.13745 0.0
H1354 H 0.96601 0.17614 0.63098 0.0
H1355 H 0.88629 0.22711 0.63121 0.0
H1356 H 0.91835 0.27379 0.62802 0.0
H1357 H 0.01103 0.2279 0.67888 0.0
H1358 H 0.04565 0.22229 0.65957 0.0
H1359 H 0.01644 0.19263 0.65974 0.0
H1360 H 0.01589 0.18933 0.60084 0.0
H1361 H 0.04516 0.21895 0.60049 0.0
H1362 H 0.01023 0.22236 0.57971 0.0
H1363 H 0.95888 0.31491 0.62479 0.0
H1364 H 1.00535 0.34806 0.62502 0.0
H1365 H 0.05906 0.27082 0.63001 0.0
C1366 C 0.95533 0.19712 0.62999 0.0
C1367 C 0.92364 0.198 0.63109 0.0
C1368 C 0.91051 0.22592 0.63037 0.0
C1369 C 0.92852 0.25254 0.62846 0.0
C1370 C 0.95967 0.25094 0.62767 0.0
C1371 C 0.97303 0.224 0.62865 0.0
C1372 C 0.00711 0.2287 0.62914 0.0
C1373 C 0.02086 0.2172 0.65859 0.0
C1374 C 0.02037 0.21396 0.60086 0.0
C1375 C 0.01079 0.26246 0.6283 0.0
C1376 C 0.98313 0.27481 0.6271 0.0
C1377 C 0.98068 0.30552 0.6258 0.0
C1378 C 0.00722 0.32416 0.62589 0.0
C1379 C 0.03585 0.31208 0.62767 0.0
C1380 C 0.03753 0.28077 0.62886 0.0
H1381 H 0.4606 0.28124 0.43116 0.0
H1382 H 0.4463 0.28642 0.33373 0.0
H1383 H 0.47921 0.24484 0.32532 0.0
H1384 H 0.5387 0.26719 0.42832 0.0
H1385 H 0.53775 0.24184 0.45931 0.0
H1386 H 0.51151 0.27073 0.45781 0.0
H1387 H 0.46701 0.23087 0.4608 0.0
H1388 H 0.49314 0.20182 0.46214 0.0
H1389 H 0.46366 0.2002 0.43326 0.0
H1390 H 0.51558 0.20492 0.32709 0.0
H1391 H 0.55397 0.16926 0.33894 0.0
H1392 H 0.54549 0.1892 0.43521 0.0
C1393 C 0.4644 0.2735 0.40809 0.0
C1394 C 0.4507 0.28684 0.38305 0.0
C1395 C 0.45612 0.27616 0.35321 0.0
C1396 C 0.47487 0.25263 0.34823 0.0
C1397 C 0.48807 0.23997 0.37334 0.0
C1398 C 0.48314 0.24998 0.40271 0.0
C1399 C 0.50105 0.23312 0.42556 0.0
C1400 C 0.52359 0.2545 0.44382 0.0
C1401 C 0.47995 0.21546 0.44669 0.0
C1402 C 0.51711 0.21237 0.40441 0.0
C1403 C 0.50911 0.21668 0.37439 0.0
C1404 C 0.52179 0.20114 0.3505 0.0
C1405 C 0.54351 0.18097 0.35741 0.0
C1406 C 0.55229 0.17641 0.3879 0.0
C1407 C 0.53868 0.19201 0.41175 0.0
H1408 H 0.63423 0.46194 0.76129 0.0
H1409 H 0.64841 0.51315 0.84598 0.0
H1410 H 0.65454 0.55974 0.81737 0.0
H1411 H 0.6862 0.50653 0.71549 0.0
H1412 H 0.66198 0.5035 0.68201 0.0
H1413 H 0.66058 0.4741 0.70901 0.0
H1414 H 0.60321 0.47905 0.71449 0.0
H1415 H 0.60446 0.50845 0.68753 0.0
H1416 H 0.58961 0.51488 0.72478 0.0
H1417 H 0.65885 0.60068 0.77952 0.0
H1418 H 0.65761 0.63352 0.73572 0.0
H1419 H 0.6378 0.55615 0.67532 0.0
C1420 C 0.63892 0.483 0.77366 0.0
C1421 C 0.64104 0.48413 0.80577 0.0
C1422 C 0.64672 0.51198 0.82137 0.0
C1423 C 0.65032 0.53847 0.8053 0.0
C1424 C 0.64786 0.53673 0.77363 0.0
C1425 C 0.64204 0.50975 0.75795 0.0
C1426 C 0.63888 0.51428 0.72399 0.0
C1427 C 0.66338 0.49868 0.7066 0.0
C1428 C 0.60715 0.50353 0.712 0.0
C1429 C 0.64378 0.54801 0.72304 0.0
C1430 C 0.64926 0.56046 0.75189 0.0
C1431 C 0.65451 0.59117 0.75683 0.0
C1432 C 0.65379 0.60969 0.73172 0.0
C1433 C 0.6475 0.5976 0.70195 0.0
C1434 C 0.64264 0.56622 0.69771 0.0
H1435 H 0.72687 0.39825 0.93334 0.0
H1436 H 0.6417 0.38023 0.97764 0.0
H1437 H 0.66825 0.38101 0.02744 0.0
H1438 H 0.77293 0.35533 0.98286 0.0
H1439 H 0.80489 0.38214 0.98337 0.0
H1440 H 0.7795 0.37873 0.9508 0.0
H1441 H 0.77088 0.43514 0.95601 0.0
H1442 H 0.79614 0.43868 0.98867 0.0
H1443 H 0.75821 0.4503 0.99157 0.0
H1444 H 0.70373 0.38238 0.07236 0.0
H1445 H 0.7458 0.38768 0.11012 0.0
H1446 H 0.80806 0.40882 0.03815 0.0
C1447 C 0.71393 0.39421 0.95353 0.0
C1448 C 0.68219 0.38899 0.95156 0.0
C1449 C 0.66598 0.38432 0.97856 0.0
C1450 C 0.68087 0.38463 0.00698 0.0
C1451 C 0.71205 0.39011 0.00825 0.0
C1452 C 0.72844 0.39511 0.98235 0.0
C1453 C 0.76165 0.40178 0.99046 0.0
C1454 C 0.78087 0.37808 0.97601 0.0
C1455 C 0.77234 0.43335 0.98112 0.0
C1456 C 0.76127 0.39959 0.02486 0.0
C1457 C 0.73243 0.39249 0.03454 0.0
C1458 C 0.72639 0.3882 0.0651 0.0
C1459 C 0.75043 0.39122 0.08639 0.0
C1460 C 0.78015 0.39899 0.07719 0.0
C1461 C 0.78552 0.40336 0.04596 0.0
H1462 H 0.85504 0.50141 0.18716 0.0
H1463 H 0.84494 0.42464 0.24454 0.0
H1464 H 0.8533 0.45773 0.2901 0.0
H1465 H 0.91282 0.54202 0.2307 0.0
H1466 H 0.89835 0.57814 0.22536 0.0
H1467 H 0.89077 0.54868 0.19701 0.0
H1468 H 0.83341 0.55439 0.20132 0.0
H1469 H 0.84082 0.58405 0.22953 0.0
H1470 H 0.81628 0.55202 0.238 0.0
H1471 H 0.86728 0.49825 0.32909 0.0
H1472 H 0.87958 0.54453 0.35972 0.0
H1473 H 0.87675 0.59608 0.27802 0.0
C1474 C 0.85427 0.49161 0.20933 0.0
C1475 C 0.84937 0.46036 0.21223 0.0
C1476 C 0.84846 0.44847 0.24168 0.0
C1477 C 0.85334 0.46708 0.26773 0.0
C1478 C 0.8586 0.49766 0.26406 0.0
C1479 C 0.85851 0.50998 0.23568 0.0
C1480 C 0.86435 0.54367 0.23823 0.0
C1481 C 0.89329 0.55371 0.22186 0.0
C1482 C 0.83708 0.55946 0.22605 0.0
C1483 C 0.86821 0.54828 0.27245 0.0
C1484 C 0.86513 0.52134 0.28682 0.0
C1485 C 0.8693 0.51951 0.31815 0.0
C1486 C 0.87646 0.54592 0.33534 0.0
C1487 C 0.87891 0.57391 0.3213 0.0
C1488 C 0.87464 0.57504 0.28941 0.0
H1489 H 0.68604 0.63374 0.53397 0.0
H1490 H 0.73369 0.68527 0.60733 0.0
H1491 H 0.778 0.69222 0.57534 0.0
H1492 H 0.75001 0.59645 0.50639 0.0
H1493 H 0.73918 0.59831 0.46682 0.0
H1494 H 0.71077 0.59713 0.49539 0.0
H1495 H 0.69058 0.64592 0.47546 0.0
H1496 H 0.71903 0.64732 0.4469 0.0
H1497 H 0.71596 0.67866 0.473 0.0
H1498 H 0.81783 0.69252 0.5368 0.0
H1499 H 0.85069 0.68696 0.49261 0.0
H1500 H 0.77776 0.63731 0.44274 0.0
C1501 C 0.70582 0.64642 0.54328 0.0
C1502 C 0.70628 0.6589 0.57326 0.0
C1503 C 0.73261 0.67552 0.58448 0.0
C1504 C 0.758 0.67962 0.56648 0.0
C1505 C 0.75679 0.6672 0.53711 0.0
C1506 C 0.73143 0.65104 0.52542 0.0
C1507 C 0.73631 0.64031 0.49292 0.0
C1508 C 0.73393 0.60601 0.49024 0.0
C1509 C 0.71415 0.65387 0.47076 0.0
C1510 C 0.76841 0.65278 0.48841 0.0
C1511 C 0.77974 0.66813 0.5143 0.0
C1512 C 0.80916 0.6808 0.51628 0.0
C1513 C 0.82762 0.67758 0.49116 0.0
C1514 C 0.81651 0.66211 0.46439 0.0
C1515 C 0.78649 0.64969 0.46288 0.0
H1516 H 0.36544 0.51385 0.21013 0.0
H1517 H 0.40098 0.59486 0.25755 0.0
H1518 H 0.41087 0.56609 0.30357 0.0
H1519 H 0.32734 0.4823 0.2743 0.0
H1520 H 0.33528 0.44445 0.26412 0.0
H1521 H 0.33201 0.47143 0.23499 0.0
H1522 H 0.38514 0.46034 0.21625 0.0
H1523 H 0.38857 0.43343 0.24546 0.0
H1524 H 0.41679 0.4638 0.2427 0.0
H1525 H 0.41785 0.52764 0.34421 0.0
H1526 H 0.41723 0.48387 0.37721 0.0
H1527 H 0.37491 0.42868 0.30355 0.0
C1528 C 0.37533 0.5254 0.23026 0.0
C1529 C 0.38262 0.55645 0.23046 0.0
C1530 C 0.39527 0.57104 0.25714 0.0
C1531 C 0.40105 0.55487 0.28326 0.0
C1532 C 0.39378 0.52415 0.28237 0.0
C1533 C 0.38089 0.50964 0.25663 0.0
C1534 C 0.3742 0.47671 0.26186 0.0
C1535 C 0.34019 0.46824 0.25864 0.0
C1536 C 0.39226 0.45744 0.24028 0.0
C1537 C 0.38531 0.47493 0.29453 0.0
C1538 C 0.39684 0.50241 0.30591 0.0
C1539 C 0.40873 0.50605 0.33554 0.0
C1540 C 0.40839 0.48104 0.3541 0.0
C1541 C 0.39589 0.45285 0.34311 0.0
C1542 C 0.38446 0.44992 0.3128 0.0
H1543 H 0.18949 0.60723 0.98186 0.0
H1544 H 0.24883 0.60942 0.90483 0.0
H1545 H 0.29304 0.6122 0.93992 0.0
H1546 H 0.23587 0.66064 0.0289 0.0
H1547 H 0.22756 0.6423 0.06388 0.0
H1548 H 0.20039 0.6395 0.03279 0.0
H1549 H 0.19935 0.58182 0.03391 0.0
H1550 H 0.22658 0.58444 0.06495 0.0
H1551 H 0.23411 0.56348 0.03066 0.0
H1552 H 0.3308 0.61249 0.98301 0.0
H1553 H 0.36 0.61544 0.03139 0.0
H1554 H 0.27693 0.61698 0.08127 0.0
C1555 C 0.2118 0.60821 0.97241 0.0
C1556 C 0.21566 0.60786 0.94052 0.0
C1557 C 0.24525 0.60965 0.9291 0.0
C1558 C 0.27053 0.61113 0.94887 0.0
C1559 C 0.26597 0.61131 0.98011 0.0
C1560 C 0.23739 0.61035 0.99189 0.0
C1561 C 0.23894 0.61208 0.02646 0.0
C1562 C 0.22485 0.64031 0.03872 0.0
C1563 C 0.22385 0.58376 0.03977 0.0
C1564 C 0.27284 0.61388 0.03221 0.0
C1565 C 0.28792 0.61304 0.0051 0.0
C1566 C 0.31925 0.61341 1.00438 0.0
C1567 C 0.33564 0.61496 0.03203 0.0
C1568 C 0.32084 0.61657 0.06019 0.0
C1569 C 0.28894 0.61604 0.06016 0.0
H1570 H 0.14 0.55208 0.78143 0.0
H1571 H 0.14138 0.49595 0.85988 0.0
H1572 H 0.13578 0.45097 0.82586 0.0
H1573 H 0.08259 0.50703 0.73997 0.0
H1574 H 0.09861 0.51344 0.70328 0.0
H1575 H 0.10473 0.54121 0.73357 0.0
H1576 H 0.16248 0.53986 0.7277 0.0
H1577 H 0.15653 0.51215 0.69732 0.0
H1578 H 0.17981 0.50475 0.72991 0.0
H1579 H 0.13102 0.41217 0.7833 0.0
H1580 H 0.12347 0.38212 0.73549 0.0
H1581 H 0.12103 0.46335 0.68478 0.0
C1582 C 0.13947 0.53029 0.79138 0.0
C1583 C 0.14147 0.52744 0.82328 0.0
C1584 C 0.14 0.4986 0.83551 0.0
C1585 C 0.13688 0.47296 0.81638 0.0
C1586 C 0.13476 0.47652 0.78506 0.0
C1587 C 0.13568 0.50445 0.77263 0.0
C1588 C 0.13129 0.50206 0.73833 0.0
C1589 C 0.1026 0.51681 0.7282 0.0
C1590 C 0.15919 0.5155 0.72238 0.0
C1591 C 0.12787 0.46844 0.73341 0.0
C1592 C 0.13034 0.45414 0.76064 0.0
C1593 C 0.12883 0.42312 0.76187 0.0
C1594 C 0.12459 0.40624 0.73459 0.0
C1595 C 0.12139 0.42036 0.70644 0.0
C1596 C 0.12299 0.45191 0.70597 0.0
H1597 H 0.28825 0.34583 0.43929 0.0
H1598 H 0.33453 0.43007 0.46883 0.0
H1599 H 0.29486 0.43816 0.506 0.0
H1600 H 0.21154 0.36774 0.4478 0.0
H1601 H 0.19801 0.33247 0.4625 0.0
H1602 H 0.22899 0.33403 0.43676 0.0
H1603 H 0.26193 0.30823 0.47612 0.0
H1604 H 0.23105 0.30658 0.50196 0.0
H1605 H 0.26699 0.32433 0.51407 0.0
H1606 H 0.25029 0.43746 0.53966 0.0
H1607 H 0.20551 0.42586 0.57076 0.0
H1608 H 0.18978 0.34065 0.52235 0.0
C1609 C 0.28979 0.36609 0.45339 0.0
C1610 C 0.31429 0.38747 0.45104 0.0
C1611 C 0.31593 0.41343 0.47028 0.0
C1612 C 0.29346 0.41828 0.49137 0.0
C1613 C 0.26969 0.39675 0.49327 0.0
C1614 C 0.26783 0.371 0.47509 0.0
C1615 C 0.24082 0.35063 0.48309 0.0
C1616 C 0.21852 0.34595 0.45592 0.0
C1617 C 0.2508 0.32067 0.49449 0.0
C1618 C 0.22782 0.36901 0.50852 0.0
C1619 C 0.24464 0.39571 0.51373 0.0
C1620 C 0.23698 0.41661 0.53586 0.0
C1621 C 0.21158 0.40992 0.55333 0.0
C1622 C 0.19449 0.38248 0.54877 0.0
C1623 C 0.20265 0.36178 0.52612 0.0
loop_
_geom_bond_atom_site_label_1
_geom_bond_atom_site_label_2
_geom_bond_distance
_geom_bond_site_symmetry_2
_ccdc_geom_bond_type
Co0 O3 1.970 . S
Co0 N17 1.989 . S
Co0 O25 1.967 . S
Co0 O32 1.920 . S
Co1 O4 1.966 . S
Co1 N10 2.022 . S
Co1 N18 1.993 . S
Co1 O26 1.941 . S
C2 O3 1.258 . S
C2 O4 1.263 . S
O3 Co0 1.970 . S
O3 C2 1.258 . S
O4 Co1 1.966 . S
O4 C2 1.263 . S
C5 O6 1.235 . S
C5 O32 1.289 . S
O6 C5 1.235 . S
C7 C9 1.400 . S
C7 N10 1.351 . S
C7 C12 1.501 . S
C8 C9 1.387 . S
C8 N11 1.341 . S
C9 C7 1.400 . S
C9 C8 1.387 . S
N10 Co1 2.022 . S
N10 C7 1.351 . S
N10 N11 1.365 . S
N11 C8 1.341 . S
N11 N10 1.365 . S
N11 H31 0.862 . S
C12 C7 1.501 . S
C12 H13 0.961 . S
C12 H14 0.961 . S
C12 H15 0.960 . S
H13 C12 0.961 . S
H14 C12 0.961 . S
H15 C12 0.960 . S
C16 N17 1.342 . S
C16 C20 1.401 . S
C16 C21 1.499 . S
N17 Co0 1.989 . S
N17 C16 1.342 . S
N17 N18 1.388 . S
N18 Co1 1.993 . S
N18 N17 1.388 . S
N18 C19 1.346 . S
C19 N18 1.346 . S
C19 C20 1.396 . S
C19 C29 1.510 . S
C20 C16 1.401 . S
C20 C19 1.396 . S
C21 C16 1.499 . S
C21 H22 0.959 . S
C21 H23 0.960 . S
C21 H24 0.961 . S
H22 C21 0.959 . S
H23 C21 0.960 . S
H24 C21 0.961 . S
O25 Co0 1.967 . S
O25 C33 1.258 . S
O26 Co1 1.941 . S
O26 C33 1.266 . S
H27 C29 0.959 . S
H28 C29 0.961 . S
C29 C19 1.510 . S
C29 H27 0.959 . S
C29 H28 0.961 . S
C29 H30 0.960 . S
H30 C29 0.960 . S
H31 N11 0.862 . S
O32 Co0 1.920 . S
O32 C5 1.289 . S
C33 O25 1.258 . S
C33 O26 1.266 . S
Co34 O37 1.970 . S
Co34 N51 1.989 . S
Co34 O59 1.967 . S
Co34 O66 1.920 . S
Co35 O38 1.966 . S
Co35 N44 2.022 . S
Co35 N52 1.993 . S
Co35 O60 1.941 . S
C36 O37 1.258 . S
C36 O38 1.263 . S
O37 Co34 1.970 . S
O37 C36 1.258 . S
O38 Co35 1.966 . S
O38 C36 1.263 . S
C39 O40 1.235 . S
C39 O66 1.289 . S
O40 C39 1.235 . S
C41 C43 1.400 . S
C41 N44 1.351 . S
C41 C46 1.501 . S
C42 C43 1.387 . S
C42 N45 1.341 . S
C43 C41 1.400 . S
C43 C42 1.387 . S
N44 Co35 2.022 . S
N44 C41 1.351 . S
N44 N45 1.365 . S
N45 C42 1.341 . S
N45 N44 1.365 . S
N45 H65 0.862 . S
C46 C41 1.501 . S
C46 H47 0.961 . S
C46 H48 0.961 . S
C46 H49 0.960 . S
H47 C46 0.961 . S
H48 C46 0.961 . S
H49 C46 0.960 . S
C50 N51 1.342 . S
C50 C54 1.401 . S
C50 C55 1.499 . S
N51 Co34 1.989 . S
N51 C50 1.342 . S
N51 N52 1.388 . S
N52 Co35 1.993 . S
N52 N51 1.388 . S
N52 C53 1.346 . S
C53 N52 1.346 . S
C53 C54 1.396 . S
C53 C63 1.510 . S
C54 C50 1.401 . S
C54 C53 1.396 . S
C55 C50 1.499 . S
C55 H56 0.959 . S
C55 H57 0.960 . S
C55 H58 0.961 . S
H56 C55 0.959 . S
H57 C55 0.960 . S
H58 C55 0.961 . S
O59 Co34 1.967 . S
O59 C67 1.258 . S
O60 Co35 1.941 . S
O60 C67 1.266 . S
H61 C63 0.959 . S
H62 C63 0.961 . S
C63 C53 1.510 . S
C63 H61 0.959 . S
C63 H62 0.961 . S
C63 H64 0.960 . S
H64 C63 0.960 . S
H65 N45 0.862 . S
O66 Co34 1.920 . S
O66 C39 1.289 . S
C67 O59 1.258 . S
C67 O60 1.266 . S
Co68 O71 1.970 . S
Co68 N85 1.989 . S
Co68 O93 1.967 . S
Co68 O100 1.920 . S
Co69 O72 1.966 . S
Co69 N78 2.022 . S
Co69 N86 1.993 . S
Co69 O94 1.941 . S
C70 O71 1.258 . S
C70 O72 1.263 . S
O71 Co68 1.970 . S
O71 C70 1.258 . S
O72 Co69 1.966 . S
O72 C70 1.263 . S
C73 O74 1.235 . S
C73 O100 1.289 . S
O74 C73 1.235 . S
C75 C77 1.400 . S
C75 N78 1.351 . S
C75 C80 1.501 . S
C76 C77 1.387 . S
C76 N79 1.341 . S
C77 C75 1.400 . S
C77 C76 1.387 . S
N78 Co69 2.022 . S
N78 C75 1.351 . S
N78 N79 1.365 . S
N79 C76 1.341 . S
N79 N78 1.365 . S
N79 H99 0.862 . S
C80 C75 1.501 . S
C80 H81 0.961 . S
C80 H82 0.961 . S
C80 H83 0.960 . S
H81 C80 0.961 . S
H82 C80 0.961 . S
H83 C80 0.960 . S
C84 N85 1.342 . S
C84 C88 1.401 . S
C84 C89 1.499 . S
N85 Co68 1.989 . S
N85 C84 1.342 . S
N85 N86 1.388 . S
N86 Co69 1.993 . S
N86 N85 1.388 . S
N86 C87 1.346 . S
C87 N86 1.346 . S
C87 C88 1.396 . S
C87 C97 1.510 . S
C88 C84 1.401 . S
C88 C87 1.396 . S
C89 C84 1.499 . S
C89 H90 0.959 . S
C89 H91 0.960 . S
C89 H92 0.961 . S
H90 C89 0.959 . S
H91 C89 0.960 . S
H92 C89 0.961 . S
O93 Co68 1.967 . S
O93 C101 1.258 . S
O94 Co69 1.941 . S
O94 C101 1.266 . S
H95 C97 0.959 . S
H96 C97 0.961 . S
C97 C87 1.510 . S
C97 H95 0.959 . S
C97 H96 0.961 . S
C97 H98 0.960 . S
H98 C97 0.960 . S
H99 N79 0.862 . S
O100 Co68 1.920 . S
O100 C73 1.289 . S
C101 O93 1.258 . S
C101 O94 1.266 . S
Co102 O105 1.970 . S
Co102 N119 1.989 . S
Co102 O127 1.967 . S
Co102 O134 1.920 . S
Co103 O106 1.966 . S
Co103 N112 2.022 . S
Co103 N120 1.993 . S
Co103 O128 1.941 . S
C104 O105 1.258 . S
C104 O106 1.263 . S
O105 Co102 1.970 . S
O105 C104 1.258 . S
O106 Co103 1.966 . S
O106 C104 1.263 . S
C107 O108 1.235 . S
C107 O134 1.289 . S
O108 C107 1.235 . S
C109 C111 1.400 . S
C109 N112 1.351 . S
C109 C114 1.501 . S
C110 C111 1.387 . S
C110 N113 1.341 . S
C111 C109 1.400 . S
C111 C110 1.387 . S
N112 Co103 2.022 . S
N112 C109 1.351 . S
N112 N113 1.365 . S
N113 C110 1.341 . S
N113 N112 1.365 . S
N113 H133 0.862 . S
C114 C109 1.501 . S
C114 H115 0.961 . S
C114 H116 0.961 . S
C114 H117 0.960 . S
H115 C114 0.961 . S
H116 C114 0.961 . S
H117 C114 0.960 . S
C118 N119 1.342 . S
C118 C122 1.401 . S
C118 C123 1.499 . S
N119 Co102 1.989 . S
N119 C118 1.342 . S
N119 N120 1.388 . S
N120 Co103 1.993 . S
N120 N119 1.388 . S
N120 C121 1.346 . S
C121 N120 1.346 . S
C121 C122 1.396 . S
C121 C131 1.510 . S
C122 C118 1.401 . S
C122 C121 1.396 . S
C123 C118 1.499 . S
C123 H124 0.959 . S
C123 H125 0.960 . S
C123 H126 0.961 . S
H124 C123 0.959 . S
H125 C123 0.960 . S
H126 C123 0.961 . S
O127 Co102 1.967 . S
O127 C135 1.258 . S
O128 Co103 1.941 . S
O128 C135 1.266 . S
H129 C131 0.959 . S
H130 C131 0.961 . S
C131 C121 1.510 . S
C131 H129 0.959 . S
C131 H130 0.961 . S
C131 H132 0.960 . S
H132 C131 0.960 . S
H133 N113 0.862 . S
O134 Co102 1.920 . S
O134 C107 1.289 . S
C135 O127 1.258 . S
C135 O128 1.266 . S
Co136 O139 1.970 . S
Co136 N153 1.989 . S
Co136 O161 1.967 . S
Co136 O168 1.920 . S
Co137 O140 1.966 . S
Co137 N146 2.022 . S
Co137 N154 1.993 . S
Co137 O162 1.941 . S
C138 O139 1.258 . S
C138 O140 1.263 . S
O139 Co136 1.970 . S
O139 C138 1.258 . S
O140 Co137 1.966 . S
O140 C138 1.263 . S
C141 O142 1.235 . S
C141 O168 1.289 . S
O142 C141 1.235 . S
C143 C145 1.400 . S
C143 N146 1.351 . S
C143 C148 1.501 . S
C144 C145 1.387 . S
C144 N147 1.341 . S
C145 C143 1.400 . S
C145 C144 1.387 . S
N146 Co137 2.022 . S
N146 C143 1.351 . S
N146 N147 1.365 . S
N147 C144 1.341 . S
N147 N146 1.365 . S
N147 H167 0.862 . S
C148 C143 1.501 . S
C148 H149 0.961 . S
C148 H150 0.961 . S
C148 H151 0.960 . S
H149 C148 0.961 . S
H150 C148 0.961 . S
H151 C148 0.960 . S
C152 N153 1.342 . S
C152 C156 1.401 . S
C152 C157 1.499 . S
N153 Co136 1.989 . S
N153 C152 1.342 . S
N153 N154 1.388 . S
N154 Co137 1.993 . S
N154 N153 1.388 . S
N154 C155 1.346 . S
C155 N154 1.346 . S
C155 C156 1.396 . S
C155 C165 1.510 . S
C156 C152 1.401 . S
C156 C155 1.396 . S
C157 C152 1.499 . S
C157 H158 0.959 . S
C157 H159 0.960 . S
C157 H160 0.961 . S
H158 C157 0.959 . S
H159 C157 0.960 . S
H160 C157 0.961 . S
O161 Co136 1.967 . S
O161 C169 1.258 . S
O162 Co137 1.941 . S
O162 C169 1.266 . S
H163 C165 0.959 . S
H164 C165 0.961 . S
C165 C155 1.510 . S
C165 H163 0.959 . S
C165 H164 0.961 . S
C165 H166 0.960 . S
H166 C165 0.960 . S
H167 N147 0.862 . S
O168 Co136 1.920 . S
O168 C141 1.289 . S
C169 O161 1.258 . S
C169 O162 1.266 . S
Co170 O173 1.970 . S
Co170 N187 1.989 . S
Co170 O195 1.967 . S
Co170 O202 1.920 . S
Co171 O174 1.966 . S
Co171 N180 2.022 . S
Co171 N188 1.993 . S
Co171 O196 1.941 . S
C172 O173 1.258 . S
C172 O174 1.263 . S
O173 Co170 1.970 . S
O173 C172 1.258 . S
O174 Co171 1.966 . S
O174 C172 1.263 . S
C175 O176 1.235 . S
C175 O202 1.289 . S
O176 C175 1.235 . S
C177 C179 1.400 . S
C177 N180 1.351 . S
C177 C182 1.501 . S
C178 C179 1.387 . S
C178 N181 1.341 . S
C179 C177 1.400 . S
C179 C178 1.387 . S
N180 Co171 2.022 . S
N180 C177 1.351 . S
N180 N181 1.365 . S
N181 C178 1.341 . S
N181 N180 1.365 . S
N181 H201 0.862 . S
C182 C177 1.501 . S
C182 H183 0.961 . S
C182 H184 0.961 . S
C182 H185 0.960 . S
H183 C182 0.961 . S
H184 C182 0.961 . S
H185 C182 0.960 . S
C186 N187 1.342 . S
C186 C190 1.401 . S
C186 C191 1.499 . S
N187 Co170 1.989 . S
N187 C186 1.342 . S
N187 N188 1.388 . S
N188 Co171 1.993 . S
N188 N187 1.388 . S
N188 C189 1.346 . S
C189 N188 1.346 . S
C189 C190 1.396 . S
C189 C199 1.510 . S
C190 C186 1.401 . S
C190 C189 1.396 . S
C191 C186 1.499 . S
C191 H192 0.959 . S
C191 H193 0.960 . S
C191 H194 0.961 . S
H192 C191 0.959 . S
H193 C191 0.960 . S
H194 C191 0.961 . S
O195 Co170 1.967 . S
O195 C203 1.258 . S
O196 Co171 1.941 . S
O196 C203 1.266 . S
H197 C199 0.959 . S
H198 C199 0.961 . S
C199 C189 1.510 . S
C199 H197 0.959 . S
C199 H198 0.961 . S
C199 H200 0.960 . S
H200 C199 0.960 . S
H201 N181 0.862 . S
O202 Co170 1.920 . S
O202 C175 1.289 . S
C203 O195 1.258 . S
C203 O196 1.266 . S
Co204 O207 1.970 . S
Co204 N221 1.989 . S
Co204 O229 1.967 . S
Co204 O236 1.920 . S
Co205 O208 1.966 . S
Co205 N214 2.022 . S
Co205 N222 1.993 . S
Co205 O230 1.941 . S
C206 O207 1.258 . S
C206 O208 1.263 . S
O207 Co204 1.970 . S
O207 C206 1.258 . S
O208 Co205 1.966 . S
O208 C206 1.263 . S
C209 O210 1.235 . S
C209 O236 1.289 . S
O210 C209 1.235 . S
C211 C213 1.400 . S
C211 N214 1.351 . S
C211 C216 1.501 . S
C212 C213 1.387 . S
C212 N215 1.341 . S
C213 C211 1.400 . S
C213 C212 1.387 . S
N214 Co205 2.022 . S
N214 C211 1.351 . S
N214 N215 1.365 . S
N215 C212 1.341 . S
N215 N214 1.365 . S
N215 H235 0.862 . S
C216 C211 1.501 . S
C216 H217 0.961 . S
C216 H218 0.961 . S
C216 H219 0.960 . S
H217 C216 0.961 . S
H218 C216 0.961 . S
H219 C216 0.960 . S
C220 N221 1.342 . S
C220 C224 1.401 . S
C220 C225 1.499 . S
N221 Co204 1.989 . S
N221 C220 1.342 . S
N221 N222 1.388 . S
N222 Co205 1.993 . S
N222 N221 1.388 . S
N222 C223 1.346 . S
C223 N222 1.346 . S
C223 C224 1.396 . S
C223 C233 1.510 . S
C224 C220 1.401 . S
C224 C223 1.396 . S
C225 C220 1.499 . S
C225 H226 0.959 . S
C225 H227 0.960 . S
C225 H228 0.961 . S
H226 C225 0.959 . S
H227 C225 0.960 . S
H228 C225 0.961 . S
O229 Co204 1.967 . S
O229 C237 1.258 . S
O230 Co205 1.941 . S
O230 C237 1.266 . S
H231 C233 0.959 . S
H232 C233 0.961 . S
C233 C223 1.510 . S
C233 H231 0.959 . S
C233 H232 0.961 . S
C233 H234 0.960 . S
H234 C233 0.960 . S
H235 N215 0.862 . S
O236 Co204 1.920 . S
O236 C209 1.289 . S
C237 O229 1.258 . S
C237 O230 1.266 . S
Co238 O241 1.970 . S
Co238 N255 1.989 . S
Co238 O263 1.967 . S
Co238 O270 1.920 . S
Co239 O242 1.966 . S
Co239 N248 2.022 . S
Co239 N256 1.993 . S
Co239 O264 1.941 . S
C240 O241 1.258 . S
C240 O242 1.263 . S
O241 Co238 1.970 . S
O241 C240 1.258 . S
O242 Co239 1.966 . S
O242 C240 1.263 . S
C243 O244 1.235 . S
C243 O270 1.289 . S
O244 C243 1.235 . S
C245 C247 1.400 . S
C245 N248 1.351 . S
C245 C250 1.501 . S
C246 C247 1.387 . S
C246 N249 1.341 . S
C247 C245 1.400 . S
C247 C246 1.387 . S
N248 Co239 2.022 . S
N248 C245 1.351 . S
N248 N249 1.365 . S
N249 C246 1.341 . S
N249 N248 1.365 . S
N249 H269 0.862 . S
C250 C245 1.501 . S
C250 H251 0.961 . S
C250 H252 0.961 . S
C250 H253 0.960 . S
H251 C250 0.961 . S
H252 C250 0.961 . S
H253 C250 0.960 . S
C254 N255 1.342 . S
C254 C258 1.401 . S
C254 C259 1.499 . S
N255 Co238 1.989 . S
N255 C254 1.342 . S
N255 N256 1.388 . S
N256 Co239 1.993 . S
N256 N255 1.388 . S
N256 C257 1.346 . S
C257 N256 1.346 . S
C257 C258 1.396 . S
C257 C267 1.510 . S
C258 C254 1.401 . S
C258 C257 1.396 . S
C259 C254 1.499 . S
C259 H260 0.959 . S
C259 H261 0.960 . S
C259 H262 0.961 . S
H260 C259 0.959 . S
H261 C259 0.960 . S
H262 C259 0.961 . S
O263 Co238 1.967 . S
O263 C271 1.258 . S
O264 Co239 1.941 . S
O264 C271 1.266 . S
H265 C267 0.959 . S
H266 C267 0.961 . S
C267 C257 1.510 . S
C267 H265 0.959 . S
C267 H266 0.961 . S
C267 H268 0.960 . S
H268 C267 0.960 . S
H269 N249 0.862 . S
O270 Co238 1.920 . S
O270 C243 1.289 . S
C271 O263 1.258 . S
C271 O264 1.266 . S
Co272 O275 1.970 . S
Co272 N289 1.989 . S
Co272 O297 1.967 . S
Co272 O304 1.920 . S
Co273 O276 1.966 . S
Co273 N282 2.022 . S
Co273 N290 1.993 . S
Co273 O298 1.941 . S
C274 O275 1.258 . S
C274 O276 1.263 . S
O275 Co272 1.970 . S
O275 C274 1.258 . S
O276 Co273 1.966 . S
O276 C274 1.263 . S
C277 O278 1.235 . S
C277 O304 1.289 . S
O278 C277 1.235 . S
C279 C281 1.400 . S
C279 N282 1.351 . S
C279 C284 1.501 . S
C280 C281 1.387 . S
C280 N283 1.341 . S
C281 C279 1.400 . S
C281 C280 1.387 . S
N282 Co273 2.022 . S
N282 C279 1.351 . S
N282 N283 1.365 . S
N283 C280 1.341 . S
N283 N282 1.365 . S
N283 H303 0.862 . S
C284 C279 1.501 . S
C284 H285 0.961 . S
C284 H286 0.961 . S
C284 H287 0.960 . S
H285 C284 0.961 . S
H286 C284 0.961 . S
H287 C284 0.960 . S
C288 N289 1.342 . S
C288 C292 1.401 . S
C288 C293 1.499 . S
N289 Co272 1.989 . S
N289 C288 1.342 . S
N289 N290 1.388 . S
N290 Co273 1.993 . S
N290 N289 1.388 . S
N290 C291 1.346 . S
C291 N290 1.346 . S
C291 C292 1.396 . S
C291 C301 1.510 . S
C292 C288 1.401 . S
C292 C291 1.396 . S
C293 C288 1.499 . S
C293 H294 0.959 . S
C293 H295 0.960 . S
C293 H296 0.961 . S
H294 C293 0.959 . S
H295 C293 0.960 . S
H296 C293 0.961 . S
O297 Co272 1.967 . S
O297 C305 1.258 . S
O298 Co273 1.941 . S
O298 C305 1.266 . S
H299 C301 0.959 . S
H300 C301 0.961 . S
C301 C291 1.510 . S
C301 H299 0.959 . S
C301 H300 0.961 . S
C301 H302 0.960 . S
H302 C301 0.960 . S
H303 N283 0.862 . S
O304 Co272 1.920 . S
O304 C277 1.289 . S
C305 O297 1.258 . S
C305 O298 1.266 . S
Co306 O309 1.970 . S
Co306 N323 1.989 . S
Co306 O331 1.967 . S
Co306 O338 1.920 . S
Co307 O310 1.966 . S
Co307 N316 2.022 . S
Co307 N324 1.993 . S
Co307 O332 1.941 . S
C308 O309 1.258 . S
C308 O310 1.263 . S
O309 Co306 1.970 . S
O309 C308 1.258 . S
O310 Co307 1.966 . S
O310 C308 1.263 . S
C311 O312 1.235 . S
C311 O338 1.289 . S
O312 C311 1.235 . S
C313 C315 1.400 . S
C313 N316 1.351 . S
C313 C318 1.501 . S
C314 C315 1.387 . S
C314 N317 1.341 . S
C315 C313 1.400 . S
C315 C314 1.387 . S
N316 Co307 2.022 . S
N316 C313 1.351 . S
N316 N317 1.365 . S
N317 C314 1.341 . S
N317 N316 1.365 . S
N317 H337 0.862 . S
C318 C313 1.501 . S
C318 H319 0.961 . S
C318 H320 0.961 . S
C318 H321 0.960 . S
H319 C318 0.961 . S
H320 C318 0.961 . S
H321 C318 0.960 . S
C322 N323 1.342 . S
C322 C326 1.401 . S
C322 C327 1.499 . S
N323 Co306 1.989 . S
N323 C322 1.342 . S
N323 N324 1.388 . S
N324 Co307 1.993 . S
N324 N323 1.388 . S
N324 C325 1.346 . S
C325 N324 1.346 . S
C325 C326 1.396 . S
C325 C335 1.510 . S
C326 C322 1.401 . S
C326 C325 1.396 . S
C327 C322 1.499 . S
C327 H328 0.959 . S
C327 H329 0.960 . S
C327 H330 0.961 . S
H328 C327 0.959 . S
H329 C327 0.960 . S
H330 C327 0.961 . S
O331 Co306 1.967 . S
O331 C339 1.258 . S
O332 Co307 1.941 . S
O332 C339 1.266 . S
H333 C335 0.959 . S
H334 C335 0.961 . S
C335 C325 1.510 . S
C335 H333 0.959 . S
C335 H334 0.961 . S
C335 H336 0.960 . S
H336 C335 0.960 . S
H337 N317 0.862 . S
O338 Co306 1.920 . S
O338 C311 1.289 . S
C339 O331 1.258 . S
C339 O332 1.266 . S
Co340 O343 1.970 . S
Co340 N357 1.989 . S
Co340 O365 1.967 . S
Co340 O372 1.920 . S
Co341 O344 1.966 . S
Co341 N350 2.022 . S
Co341 N358 1.993 . S
Co341 O366 1.941 . S
C342 O343 1.258 . S
C342 O344 1.263 . S
O343 Co340 1.970 . S
O343 C342 1.258 . S
O344 Co341 1.966 . S
O344 C342 1.263 . S
C345 O346 1.235 . S
C345 O372 1.289 . S
O346 C345 1.235 . S
C347 C349 1.400 . S
C347 N350 1.351 . S
C347 C352 1.501 . S
C348 C349 1.387 . S
C348 N351 1.341 . S
C349 C347 1.400 . S
C349 C348 1.387 . S
N350 Co341 2.022 . S
N350 C347 1.351 . S
N350 N351 1.365 . S
N351 C348 1.341 . S
N351 N350 1.365 . S
N351 H371 0.862 . S
C352 C347 1.501 . S
C352 H353 0.961 . S
C352 H354 0.961 . S
C352 H355 0.960 . S
H353 C352 0.961 . S
H354 C352 0.961 . S
H355 C352 0.960 . S
C356 N357 1.342 . S
C356 C360 1.401 . S
C356 C361 1.499 . S
N357 Co340 1.989 . S
N357 C356 1.342 . S
N357 N358 1.388 . S
N358 Co341 1.993 . S
N358 N357 1.388 . S
N358 C359 1.346 . S
C359 N358 1.346 . S
C359 C360 1.396 . S
C359 C369 1.510 . S
C360 C356 1.401 . S
C360 C359 1.396 . S
C361 C356 1.499 . S
C361 H362 0.959 . S
C361 H363 0.960 . S
C361 H364 0.961 . S
H362 C361 0.959 . S
H363 C361 0.960 . S
H364 C361 0.961 . S
O365 Co340 1.967 . S
O365 C373 1.258 . S
O366 Co341 1.941 . S
O366 C373 1.266 . S
H367 C369 0.959 . S
H368 C369 0.961 . S
C369 C359 1.510 . S
C369 H367 0.959 . S
C369 H368 0.961 . S
C369 H370 0.960 . S
H370 C369 0.960 . S
H371 N351 0.862 . S
O372 Co340 1.920 . S
O372 C345 1.289 . S
C373 O365 1.258 . S
C373 O366 1.266 . S
Co374 O377 1.970 . S
Co374 N391 1.989 . S
Co374 O399 1.967 . S
Co374 O406 1.920 . S
Co375 O378 1.966 . S
Co375 N384 2.022 . S
Co375 N392 1.993 . S
Co375 O400 1.941 . S
C376 O377 1.258 . S
C376 O378 1.263 . S
O377 Co374 1.970 . S
O377 C376 1.258 . S
O378 Co375 1.966 . S
O378 C376 1.263 . S
C379 O380 1.235 . S
C379 O406 1.289 . S
O380 C379 1.235 . S
C381 C383 1.400 . S
C381 N384 1.351 . S
C381 C386 1.501 . S
C382 C383 1.387 . S
C382 N385 1.341 . S
C383 C381 1.400 . S
C383 C382 1.387 . S
N384 Co375 2.022 . S
N384 C381 1.351 . S
N384 N385 1.365 . S
N385 C382 1.341 . S
N385 N384 1.365 . S
N385 H405 0.862 . S
C386 C381 1.501 . S
C386 H387 0.961 . S
C386 H388 0.961 . S
C386 H389 0.960 . S
H387 C386 0.961 . S
H388 C386 0.961 . S
H389 C386 0.960 . S
C390 N391 1.342 . S
C390 C394 1.401 . S
C390 C395 1.499 . S
N391 Co374 1.989 . S
N391 C390 1.342 . S
N391 N392 1.388 . S
N392 Co375 1.993 . S
N392 N391 1.388 . S
N392 C393 1.346 . S
C393 N392 1.346 . S
C393 C394 1.396 . S
C393 C403 1.510 . S
C394 C390 1.401 . S
C394 C393 1.396 . S
C395 C390 1.499 . S
C395 H396 0.959 . S
C395 H397 0.960 . S
C395 H398 0.961 . S
H396 C395 0.959 . S
H397 C395 0.960 . S
H398 C395 0.961 . S
O399 Co374 1.967 . S
O399 C407 1.258 . S
O400 Co375 1.941 . S
O400 C407 1.266 . S
H401 C403 0.959 . S
H402 C403 0.961 . S
C403 C393 1.510 . S
C403 H401 0.959 . S
C403 H402 0.961 . S
C403 H404 0.960 . S
H404 C403 0.960 . S
H405 N385 0.862 . S
O406 Co374 1.920 . S
O406 C379 1.289 . S
C407 O399 1.258 . S
C407 O400 1.266 . S
Co408 O411 1.970 . S
Co408 N425 1.989 . S
Co408 O433 1.967 . S
Co408 O440 1.920 . S
Co409 O412 1.966 . S
Co409 N418 2.022 . S
Co409 N426 1.993 . S
Co409 O434 1.941 . S
C410 O411 1.258 . S
C410 O412 1.263 . S
O411 Co408 1.970 . S
O411 C410 1.258 . S
O412 Co409 1.966 . S
O412 C410 1.263 . S
C413 O414 1.235 . S
C413 O440 1.289 . S
O414 C413 1.235 . S
C415 C417 1.400 . S
C415 N418 1.351 . S
C415 C420 1.501 . S
C416 C417 1.387 . S
C416 N419 1.341 . S
C417 C415 1.400 . S
C417 C416 1.387 . S
N418 Co409 2.022 . S
N418 C415 1.351 . S
N418 N419 1.365 . S
N419 C416 1.341 . S
N419 N418 1.365 . S
N419 H439 0.862 . S
C420 C415 1.501 . S
C420 H421 0.961 . S
C420 H422 0.961 . S
C420 H423 0.960 . S
H421 C420 0.961 . S
H422 C420 0.961 . S
H423 C420 0.960 . S
C424 N425 1.342 . S
C424 C428 1.401 . S
C424 C429 1.499 . S
N425 Co408 1.989 . S
N425 C424 1.342 . S
N425 N426 1.388 . S
N426 Co409 1.993 . S
N426 N425 1.388 . S
N426 C427 1.346 . S
C427 N426 1.346 . S
C427 C428 1.396 . S
C427 C437 1.510 . S
C428 C424 1.401 . S
C428 C427 1.396 . S
C429 C424 1.499 . S
C429 H430 0.959 . S
C429 H431 0.960 . S
C429 H432 0.961 . S
H430 C429 0.959 . S
H431 C429 0.960 . S
H432 C429 0.961 . S
O433 Co408 1.967 . S
O433 C441 1.258 . S
O434 Co409 1.941 . S
O434 C441 1.266 . S
H435 C437 0.959 . S
H436 C437 0.961 . S
C437 C427 1.510 . S
C437 H435 0.959 . S
C437 H436 0.961 . S
C437 H438 0.960 . S
H438 C437 0.960 . S
H439 N419 0.862 . S
O440 Co408 1.920 . S
O440 C413 1.289 . S
C441 O433 1.258 . S
C441 O434 1.266 . S
Co442 O445 1.970 . S
Co442 N459 1.989 . S
Co442 O467 1.967 . S
Co442 O474 1.920 . S
Co443 O446 1.966 . S
Co443 N452 2.022 . S
Co443 N460 1.993 . S
Co443 O468 1.941 . S
C444 O445 1.258 . S
C444 O446 1.263 . S
O445 Co442 1.970 . S
O445 C444 1.258 . S
O446 Co443 1.966 . S
O446 C444 1.263 . S
C447 O448 1.235 . S
C447 O474 1.289 . S
O448 C447 1.235 . S
C449 C451 1.400 . S
C449 N452 1.351 . S
C449 C454 1.501 . S
C450 C451 1.387 . S
C450 N453 1.341 . S
C451 C449 1.400 . S
C451 C450 1.387 . S
N452 Co443 2.022 . S
N452 C449 1.351 . S
N452 N453 1.365 . S
N453 C450 1.341 . S
N453 N452 1.365 . S
N453 H473 0.862 . S
C454 C449 1.501 . S
C454 H455 0.961 . S
C454 H456 0.961 . S
C454 H457 0.960 . S
H455 C454 0.961 . S
H456 C454 0.961 . S
H457 C454 0.960 . S
C458 N459 1.342 . S
C458 C462 1.401 . S
C458 C463 1.499 . S
N459 Co442 1.989 . S
N459 C458 1.342 . S
N459 N460 1.388 . S
N460 Co443 1.993 . S
N460 N459 1.388 . S
N460 C461 1.346 . S
C461 N460 1.346 . S
C461 C462 1.396 . S
C461 C471 1.510 . S
C462 C458 1.401 . S
C462 C461 1.396 . S
C463 C458 1.499 . S
C463 H464 0.959 . S
C463 H465 0.960 . S
C463 H466 0.961 . S
H464 C463 0.959 . S
H465 C463 0.960 . S
H466 C463 0.961 . S
O467 Co442 1.967 . S
O467 C475 1.258 . S
O468 Co443 1.941 . S
O468 C475 1.266 . S
H469 C471 0.959 . S
H470 C471 0.961 . S
C471 C461 1.510 . S
C471 H469 0.959 . S
C471 H470 0.961 . S
C471 H472 0.960 . S
H472 C471 0.960 . S
H473 N453 0.862 . S
O474 Co442 1.920 . S
O474 C447 1.289 . S
C475 O467 1.258 . S
C475 O468 1.266 . S
Co476 O479 1.970 . S
Co476 N493 1.989 . S
Co476 O501 1.967 . S
Co476 O508 1.920 . S
Co477 O480 1.966 . S
Co477 N486 2.022 . S
Co477 N494 1.993 . S
Co477 O502 1.941 . S
C478 O479 1.258 . S
C478 O480 1.263 . S
O479 Co476 1.970 . S
O479 C478 1.258 . S
O480 Co477 1.966 . S
O480 C478 1.263 . S
C481 O482 1.235 . S
C481 O508 1.289 . S
O482 C481 1.235 . S
C483 C485 1.400 . S
C483 N486 1.351 . S
C483 C488 1.501 . S
C484 C485 1.387 . S
C484 N487 1.341 . S
C485 C483 1.400 . S
C485 C484 1.387 . S
N486 Co477 2.022 . S
N486 C483 1.351 . S
N486 N487 1.365 . S
N487 C484 1.341 . S
N487 N486 1.365 . S
N487 H507 0.862 . S
C488 C483 1.501 . S
C488 H489 0.961 . S
C488 H490 0.961 . S
C488 H491 0.960 . S
H489 C488 0.961 . S
H490 C488 0.961 . S
H491 C488 0.960 . S
C492 N493 1.342 . S
C492 C496 1.401 . S
C492 C497 1.499 . S
N493 Co476 1.989 . S
N493 C492 1.342 . S
N493 N494 1.388 . S
N494 Co477 1.993 . S
N494 N493 1.388 . S
N494 C495 1.346 . S
C495 N494 1.346 . S
C495 C496 1.396 . S
C495 C505 1.510 . S
C496 C492 1.401 . S
C496 C495 1.396 . S
C497 C492 1.499 . S
C497 H498 0.959 . S
C497 H499 0.960 . S
C497 H500 0.961 . S
H498 C497 0.959 . S
H499 C497 0.960 . S
H500 C497 0.961 . S
O501 Co476 1.967 . S
O501 C509 1.258 . S
O502 Co477 1.941 . S
O502 C509 1.266 . S
H503 C505 0.959 . S
H504 C505 0.961 . S
C505 C495 1.510 . S
C505 H503 0.959 . S
C505 H504 0.961 . S
C505 H506 0.960 . S
H506 C505 0.960 . S
H507 N487 0.862 . S
O508 Co476 1.920 . S
O508 C481 1.289 . S
C509 O501 1.258 . S
C509 O502 1.266 . S
Co510 O513 1.970 . S
Co510 N527 1.989 . S
Co510 O535 1.967 . S
Co510 O542 1.920 . S
Co511 O514 1.966 . S
Co511 N520 2.022 . S
Co511 N528 1.993 . S
Co511 O536 1.941 . S
C512 O513 1.258 . S
C512 O514 1.263 . S
O513 Co510 1.970 . S
O513 C512 1.258 . S
O514 Co511 1.966 . S
O514 C512 1.263 . S
C515 O516 1.235 . S
C515 O542 1.289 . S
O516 C515 1.235 . S
C517 C519 1.400 . S
C517 N520 1.351 . S
C517 C522 1.501 . S
C518 C519 1.387 . S
C518 N521 1.341 . S
C519 C517 1.400 . S
C519 C518 1.387 . S
N520 Co511 2.022 . S
N520 C517 1.351 . S
N520 N521 1.365 . S
N521 C518 1.341 . S
N521 N520 1.365 . S
N521 H541 0.862 . S
C522 C517 1.501 . S
C522 H523 0.961 . S
C522 H524 0.961 . S
C522 H525 0.960 . S
H523 C522 0.961 . S
H524 C522 0.961 . S
H525 C522 0.960 . S
C526 N527 1.342 . S
C526 C530 1.401 . S
C526 C531 1.499 . S
N527 Co510 1.989 . S
N527 C526 1.342 . S
N527 N528 1.388 . S
N528 Co511 1.993 . S
N528 N527 1.388 . S
N528 C529 1.346 . S
C529 N528 1.346 . S
C529 C530 1.396 . S
C529 C539 1.510 . S
C530 C526 1.401 . S
C530 C529 1.396 . S
C531 C526 1.499 . S
C531 H532 0.959 . S
C531 H533 0.960 . S
C531 H534 0.961 . S
H532 C531 0.959 . S
H533 C531 0.960 . S
H534 C531 0.961 . S
O535 Co510 1.967 . S
O535 C543 1.258 . S
O536 Co511 1.941 . S
O536 C543 1.266 . S
H537 C539 0.959 . S
H538 C539 0.961 . S
C539 C529 1.510 . S
C539 H537 0.959 . S
C539 H538 0.961 . S
C539 H540 0.960 . S
H540 C539 0.960 . S
H541 N521 0.862 . S
O542 Co510 1.920 . S
O542 C515 1.289 . S
C543 O535 1.258 . S
C543 O536 1.266 . S
H544 C556 0.930 . S
H545 C558 0.930 . S
H546 C559 0.930 . S
H547 C563 0.959 . S
H548 C563 0.959 . S
H549 C563 0.961 . S
H550 C564 0.960 . S
H551 C564 0.961 . S
H552 C564 0.959 . S
H553 C567 0.929 . S
H554 C568 0.931 . S
H555 C570 0.930 . S
C556 H544 0.930 . S
C556 C557 1.399 . S
C556 C561 1.399 . S
C557 C556 1.399 . S
C557 C558 1.376 . S
C558 H545 0.930 . S
C558 C557 1.376 . S
C558 C559 1.388 . S
C559 H546 0.930 . S
C559 C558 1.388 . S
C559 C560 1.390 . S
C560 C559 1.390 . S
C560 C561 1.394 . S
C560 C566 1.465 . S
C561 C556 1.399 . S
C561 C560 1.394 . S
C561 C562 1.516 . S
C562 C561 1.516 . S
C562 C563 1.502 . S
C562 C564 1.561 . S
C562 C565 1.526 . S
C563 H547 0.959 . S
C563 H548 0.959 . S
C563 H549 0.961 . S
C563 C562 1.502 . S
C564 H550 0.960 . S
C564 H551 0.961 . S
C564 H552 0.959 . S
C564 C562 1.561 . S
C565 C562 1.526 . S
C565 C566 1.396 . S
C565 C570 1.390 . S
C566 C560 1.465 . S
C566 C565 1.396 . S
C566 C567 1.399 . S
C567 H553 0.929 . S
C567 C566 1.399 . S
C567 C568 1.385 . S
C568 H554 0.931 . S
C568 C567 1.385 . S
C568 C569 1.389 . S
C569 C568 1.389 . S
C569 C570 1.387 . S
C570 H555 0.930 . S
C570 C565 1.390 . S
C570 C569 1.387 . S
H571 C583 0.930 . S
H572 C585 0.930 . S
H573 C586 0.930 . S
H574 C590 0.959 1_655 S
H575 C590 0.959 . S
H576 C590 0.961 1_655 S
H577 C591 0.960 . S
H578 C591 0.961 . S
H579 C591 0.959 . S
H580 C594 0.929 . S
H581 C595 0.931 . S
H582 C597 0.932 . S
C583 H571 0.930 . S
C583 C584 1.399 . S
C583 C588 1.399 . S
C584 C583 1.399 . S
C584 C585 1.376 1_545 S
C585 H572 0.930 . S
C585 C584 1.376 1_565 S
C585 C586 1.388 . S
C586 H573 0.930 . S
C586 C585 1.388 . S
C586 C587 1.390 . S
C587 C586 1.390 . S
C587 C588 1.394 1_565 S
C587 C593 1.465 1_655 S
C588 C583 1.399 . S
C588 C587 1.394 1_545 S
C588 C589 1.516 1_655 S
C589 C588 1.516 1_455 S
C589 C590 1.502 . S
C589 C591 1.561 . S
C589 C592 1.526 1_545 S
C590 H574 0.959 1_455 S
C590 H575 0.959 . S
C590 H576 0.961 1_455 S
C590 C589 1.502 . S
C591 H577 0.960 . S
C591 H578 0.961 . S
C591 H579 0.959 . S
C591 C589 1.561 . S
C592 C589 1.526 1_565 S
C592 C593 1.396 . S
C592 C597 1.390 . S
C593 C587 1.465 1_455 S
C593 C592 1.396 . S
C593 C594 1.399 . S
C594 H580 0.929 . S
C594 C593 1.399 . S
C594 C595 1.385 . S
C595 H581 0.931 . S
C595 C594 1.385 . S
C595 C596 1.389 . S
C596 C595 1.389 . S
C596 C597 1.387 . S
C597 H582 0.932 . S
C597 C592 1.390 . S
C597 C596 1.387 . S
H598 C610 0.930 . S
H599 C612 0.930 . S
H600 C613 0.930 . S
H601 C617 0.959 . S
H602 C617 0.959 . S
H603 C617 0.961 . S
H604 C618 0.960 . S
H605 C618 0.961 . S
H606 C618 0.959 . S
H607 C621 0.929 . S
H608 C622 0.931 . S
H609 C624 0.930 . S
C610 H598 0.930 . S
C610 C611 1.399 . S
C610 C615 1.399 . S
C611 C610 1.399 . S
C611 C612 1.376 . S
C612 H599 0.930 . S
C612 C611 1.376 . S
C612 C613 1.388 . S
C613 H600 0.930 . S
C613 C612 1.388 . S
C613 C614 1.390 . S
C614 C613 1.390 . S
C614 C615 1.394 . S
C614 C620 1.465 . S
C615 C610 1.399 . S
C615 C614 1.394 . S
C615 C616 1.516 . S
C616 C615 1.516 . S
C616 C617 1.502 . S
C616 C618 1.561 . S
C616 C619 1.526 . S
C617 H601 0.959 . S
C617 H602 0.959 . S
C617 H603 0.961 . S
C617 C616 1.502 . S
C618 H604 0.960 . S
C618 H605 0.961 . S
C618 H606 0.959 . S
C618 C616 1.561 . S
C619 C616 1.526 . S
C619 C620 1.396 . S
C619 C624 1.390 . S
C620 C614 1.465 . S
C620 C619 1.396 . S
C620 C621 1.399 . S
C621 H607 0.929 . S
C621 C620 1.399 . S
C621 C622 1.385 . S
C622 H608 0.931 . S
C622 C621 1.385 . S
C622 C623 1.389 . S
C623 C622 1.389 . S
C623 C624 1.387 . S
C624 H609 0.930 . S
C624 C619 1.390 . S
C624 C623 1.387 . S
H625 C637 0.913 1_554 S
H626 C639 0.929 1_565 S
H627 C640 0.930 . S
H628 C644 0.959 . S
H629 C644 0.959 . S
H630 C644 0.961 . S
H631 C645 0.960 1_545 S
H632 C645 0.961 . S
H633 C645 0.959 . S
H634 C648 0.929 1_556 S
H635 C649 0.931 . S
H636 C651 0.930 . S
C637 H625 0.913 1_556 S
C637 C638 1.429 . S
C637 C642 1.387 1_556 S
C638 C637 1.429 . S
C638 C639 1.401 . S
C639 H626 0.929 1_545 S
C639 C638 1.401 . S
C639 C640 1.367 1_545 S
C640 H627 0.930 . S
C640 C639 1.367 1_565 S
C640 C641 1.390 . S
C641 C640 1.390 . S
C641 C642 1.394 1_566 S
C641 C647 1.465 1_556 S
C642 C637 1.387 1_554 S
C642 C641 1.394 1_544 S
C642 C643 1.516 . S
C643 C642 1.516 . S
C643 C644 1.502 . S
C643 C645 1.561 1_545 S
C643 C646 1.526 1_545 S
C644 H628 0.959 . S
C644 H629 0.959 . S
C644 H630 0.961 . S
C644 C643 1.502 . S
C645 H631 0.960 1_565 S
C645 H632 0.961 . S
C645 H633 0.959 . S
C645 C643 1.561 1_565 S
C646 C643 1.526 1_565 S
C646 C647 1.396 . S
C646 C651 1.390 . S
C647 C641 1.465 1_554 S
C647 C646 1.396 . S
C647 C648 1.399 . S
C648 H634 0.929 1_554 S
C648 C647 1.399 . S
C648 C649 1.385 . S
C649 H635 0.931 . S
C649 C648 1.385 . S
C649 C650 1.389 . S
C650 C649 1.389 . S
C650 C651 1.387 . S
C651 H636 0.930 . S
C651 C646 1.390 . S
C651 C650 1.387 . S
H652 C664 0.930 . S
H653 C666 0.930 . S
H654 C667 0.930 . S
H655 C671 0.959 . S
H656 C671 0.959 . S
H657 C671 0.961 . S
H658 C672 0.960 . S
H659 C672 0.961 . S
H660 C672 0.959 . S
H661 C675 0.929 . S
H662 C676 0.931 . S
H663 C678 0.930 . S
C664 H652 0.930 . S
C664 C665 1.399 . S
C664 C669 1.399 . S
C665 C664 1.399 . S
C665 C666 1.376 . S
C666 H653 0.930 . S
C666 C665 1.376 . S
C666 C667 1.388 . S
C667 H654 0.930 . S
C667 C666 1.388 . S
C667 C668 1.390 . S
C668 C667 1.390 . S
C668 C669 1.394 . S
C668 C674 1.465 . S
C669 C664 1.399 . S
C669 C668 1.394 . S
C669 C670 1.516 . S
C670 C669 1.516 . S
C670 C671 1.502 . S
C670 C672 1.561 . S
C670 C673 1.526 . S
C671 H655 0.959 . S
C671 H656 0.959 . S
C671 H657 0.961 . S
C671 C670 1.502 . S
C672 H658 0.960 . S
C672 H659 0.961 . S
C672 H660 0.959 . S
C672 C670 1.561 . S
C673 C670 1.526 . S
C673 C674 1.396 . S
C673 C678 1.390 . S
C674 C668 1.465 . S
C674 C673 1.396 . S
C674 C675 1.399 . S
C675 H661 0.929 . S
C675 C674 1.399 . S
C675 C676 1.385 . S
C676 H662 0.931 . S
C676 C675 1.385 . S
C676 C677 1.389 . S
C677 C676 1.389 . S
C677 C678 1.387 . S
C678 H663 0.930 . S
C678 C673 1.390 . S
C678 C677 1.387 . S
H679 C691 0.930 . S
H680 C693 0.930 . S
H681 C694 0.930 . S
H682 C698 0.959 . S
H683 C698 0.959 1_545 S
H684 C698 0.961 . S
H685 C699 0.960 . S
H686 C699 0.961 . S
H687 C699 0.959 . S
H688 C702 0.929 . S
H689 C703 0.931 . S
H690 C705 0.930 . S
C691 H679 0.930 . S
C691 C692 1.399 . S
C691 C696 1.399 1_565 S
C692 C691 1.399 . S
C692 C693 1.376 . S
C693 H680 0.930 . S
C693 C692 1.376 . S
C693 C694 1.388 1_565 S
C694 H681 0.930 . S
C694 C693 1.388 1_545 S
C694 C695 1.390 . S
C695 C694 1.390 . S
C695 C696 1.394 . S
C695 C701 1.465 . S
C696 C691 1.399 1_545 S
C696 C695 1.394 . S
C696 C697 1.516 . S
C697 C696 1.516 . S
C697 C698 1.502 1_545 S
C697 C699 1.561 . S
C697 C700 1.526 . S
C698 H682 0.959 . S
C698 H683 0.959 1_565 S
C698 H684 0.961 . S
C698 C697 1.502 1_565 S
C699 H685 0.960 . S
C699 H686 0.961 . S
C699 H687 0.959 . S
C699 C697 1.561 . S
C700 C697 1.526 . S
C700 C701 1.396 . S
C700 C705 1.390 . S
C701 C695 1.465 . S
C701 C700 1.396 . S
C701 C702 1.399 . S
C702 H688 0.929 . S
C702 C701 1.399 . S
C702 C703 1.385 . S
C703 H689 0.931 . S
C703 C702 1.385 . S
C703 C704 1.389 . S
C704 C703 1.389 . S
C704 C705 1.387 . S
C705 H690 0.930 . S
C705 C700 1.390 . S
C705 C704 1.387 . S
H706 C718 0.930 . S
H707 C720 0.930 . S
H708 C721 0.930 . S
H709 C725 0.959 . S
H710 C725 0.959 . S
H711 C725 0.961 . S
H712 C726 0.960 . S
H713 C726 0.961 . S
H714 C726 0.959 . S
H715 C729 0.929 . S
H716 C730 0.931 . S
H717 C732 0.930 . S
C718 H706 0.930 . S
C718 C719 1.399 . S
C718 C723 1.399 . S
C719 C718 1.399 . S
C719 C720 1.376 . S
C720 H707 0.930 . S
C720 C719 1.376 . S
C720 C721 1.388 . S
C721 H708 0.930 . S
C721 C720 1.388 . S
C721 C722 1.390 . S
C722 C721 1.390 . S
C722 C723 1.394 . S
C722 C728 1.465 . S
C723 C718 1.399 . S
C723 C722 1.394 . S
C723 C724 1.516 . S
C724 C723 1.516 . S
C724 C725 1.502 . S
C724 C726 1.561 . S
C724 C727 1.526 . S
C725 H709 0.959 . S
C725 H710 0.959 . S
C725 H711 0.961 . S
C725 C724 1.502 . S
C726 H712 0.960 . S
C726 H713 0.961 . S
C726 H714 0.959 . S
C726 C724 1.561 . S
C727 C724 1.526 . S
C727 C728 1.396 . S
C727 C732 1.390 . S
C728 C722 1.465 . S
C728 C727 1.396 . S
C728 C729 1.399 . S
C729 H715 0.929 . S
C729 C728 1.399 . S
C729 C730 1.385 . S
C730 H716 0.931 . S
C730 C729 1.385 . S
C730 C731 1.389 . S
C731 C730 1.389 . S
C731 C732 1.387 . S
C732 H717 0.930 . S
C732 C727 1.390 . S
C732 C731 1.387 . S
H733 C745 0.930 . S
H734 C747 0.930 . S
H735 C748 0.930 1_655 S
H736 C752 0.959 . S
H737 C752 0.959 . S
H738 C752 0.961 . S
H739 C753 0.961 1_545 S
H740 C753 0.961 . S
H741 C753 0.959 1_554 S
H742 C756 0.929 . S
H743 C757 0.931 . S
H744 C759 0.930 . S
C745 H733 0.930 . S
C745 C746 1.399 . S
C745 C750 1.399 . S
C746 C745 1.399 . S
C746 C747 1.376 . S
C747 H734 0.930 . S
C747 C746 1.376 . S
C747 C748 1.388 . S
C748 H735 0.930 1_455 S
C748 C747 1.388 . S
C748 C749 1.390 . S
C749 C748 1.390 . S
C749 C750 1.394 . S
C749 C755 1.484 1_455 S
C750 C745 1.399 . S
C750 C749 1.394 . S
C750 C751 1.516 1_554 S
C751 C750 1.516 1_556 S
C751 C752 1.502 . S
C751 C753 1.561 1_545 S
C751 C754 1.526 1_545 S
C752 H736 0.959 . S
C752 H737 0.959 . S
C752 H738 0.961 . S
C752 C751 1.502 . S
C753 H739 0.961 1_565 S
C753 H740 0.961 . S
C753 H741 0.959 1_556 S
C753 C751 1.561 1_565 S
C754 C751 1.526 1_565 S
C754 C755 1.393 1_466 S
C754 C759 1.390 . S
C755 C749 1.484 1_655 S
C755 C754 1.393 1_644 S
C755 C756 1.384 1_545 S
C756 H742 0.929 . S
C756 C755 1.384 1_565 S
C756 C757 1.385 1_554 S
C757 H743 0.931 . S
C757 C756 1.385 1_556 S
C757 C758 1.389 . S
C758 C757 1.389 . S
C758 C759 1.387 1_655 S
C759 H744 0.930 . S
C759 C754 1.390 . S
C759 C758 1.387 1_455 S
H760 C772 0.930 . S
H761 C774 0.930 . S
H762 C775 0.930 . S
H763 C779 0.959 . S
H764 C779 0.959 . S
H765 C779 0.961 . S
H766 C780 0.960 . S
H767 C780 0.961 . S
H768 C780 0.959 . S
H769 C783 0.929 . S
H770 C784 0.931 . S
H771 C786 0.930 . S
C772 H760 0.930 . S
C772 C773 1.399 . S
C772 C777 1.399 . S
C773 C772 1.399 . S
C773 C774 1.376 . S
C774 H761 0.930 . S
C774 C773 1.376 . S
C774 C775 1.388 . S
C775 H762 0.930 . S
C775 C774 1.388 . S
C775 C776 1.390 . S
C776 C775 1.390 . S
C776 C777 1.394 . S
C776 C782 1.465 . S
C777 C772 1.399 . S
C777 C776 1.394 . S
C777 C778 1.516 . S
C778 C777 1.516 . S
C778 C779 1.502 . S
C778 C780 1.561 . S
C778 C781 1.526 . S
C779 H763 0.959 . S
C779 H764 0.959 . S
C779 H765 0.961 . S
C779 C778 1.502 . S
C780 H766 0.960 . S
C780 H767 0.961 . S
C780 H768 0.959 . S
C780 C778 1.561 . S
C781 C778 1.526 . S
C781 C782 1.396 . S
C781 C786 1.390 . S
C782 C776 1.465 . S
C782 C781 1.396 . S
C782 C783 1.399 . S
C783 H769 0.929 . S
C783 C782 1.399 . S
C783 C784 1.385 . S
C784 H770 0.931 . S
C784 C783 1.385 . S
C784 C785 1.389 . S
C785 C784 1.389 . S
C785 C786 1.387 . S
C786 H771 0.930 . S
C786 C781 1.390 . S
C786 C785 1.387 . S
H787 C799 0.930 1_554 S
H788 C801 0.930 . S
H789 C802 0.944 . S
H790 C806 0.959 . S
H791 C806 0.959 . S
H792 C806 0.961 . S
H793 C807 0.960 . S
H794 C807 0.961 1_655 S
H795 C807 0.959 1_655 S
H796 C810 0.929 . S
H797 C811 0.931 . S
H798 C813 0.930 . S
C799 H787 0.930 1_556 S
C799 C800 1.399 . S
C799 C804 1.399 . S
C800 C799 1.399 . S
C800 C801 1.376 . S
C801 H788 0.930 . S
C801 C800 1.376 . S
C801 C802 1.388 . S
C802 H789 0.944 . S
C802 C801 1.388 . S
C802 C803 1.390 . S
C803 C802 1.390 . S
C803 C804 1.394 . S
C803 C809 1.465 1_455 S
C804 C799 1.399 . S
C804 C803 1.394 . S
C804 C805 1.516 1_556 S
C805 C804 1.516 1_554 S
C805 C806 1.502 . S
C805 C807 1.561 . S
C805 C808 1.526 1_455 S
C806 H790 0.959 . S
C806 H791 0.959 . S
C806 H792 0.961 . S
C806 C805 1.502 . S
C807 H793 0.960 . S
C807 H794 0.961 1_455 S
C807 H795 0.959 1_455 S
C807 C805 1.561 . S
C808 C805 1.526 1_655 S
C808 C809 1.396 1_554 S
C808 C813 1.390 . S
C809 C803 1.465 1_655 S
C809 C808 1.396 1_556 S
C809 C810 1.399 . S
C810 H796 0.929 . S
C810 C809 1.399 . S
C810 C811 1.385 . S
C811 H797 0.931 . S
C811 C810 1.385 . S
C811 C812 1.389 1_556 S
C812 C811 1.389 1_554 S
C812 C813 1.387 . S
C813 H798 0.930 . S
C813 C808 1.390 . S
C813 C812 1.387 . S
H814 C826 0.930 . S
H815 C828 0.930 . S
H816 C829 0.930 . S
H817 C833 0.959 . S
H818 C833 0.959 . S
H819 C833 0.961 . S
H820 C834 0.960 . S
H821 C834 0.961 . S
H822 C834 0.959 . S
H823 C837 0.929 . S
H824 C838 0.931 . S
H825 C840 0.930 . S
C826 H814 0.930 . S
C826 C827 1.399 . S
C826 C831 1.399 . S
C827 C826 1.399 . S
C827 C828 1.376 . S
C828 H815 0.930 . S
C828 C827 1.376 . S
C828 C829 1.388 . S
C829 H816 0.930 . S
C829 C828 1.388 . S
C829 C830 1.390 . S
C830 C829 1.390 . S
C830 C831 1.394 . S
C830 C836 1.465 . S
C831 C826 1.399 . S
C831 C830 1.394 . S
C831 C832 1.516 . S
C832 C831 1.516 . S
C832 C833 1.502 . S
C832 C834 1.561 . S
C832 C835 1.526 . S
C833 H817 0.959 . S
C833 H818 0.959 . S
C833 H819 0.961 . S
C833 C832 1.502 . S
C834 H820 0.960 . S
C834 H821 0.961 . S
C834 H822 0.959 . S
C834 C832 1.561 . S
C835 C832 1.526 . S
C835 C836 1.396 . S
C835 C840 1.390 . S
C836 C830 1.465 . S
C836 C835 1.396 . S
C836 C837 1.399 . S
C837 H823 0.929 . S
C837 C836 1.399 . S
C837 C838 1.385 . S
C838 H824 0.931 . S
C838 C837 1.385 . S
C838 C839 1.389 . S
C839 C838 1.389 . S
C839 C840 1.387 . S
C840 H825 0.930 . S
C840 C835 1.390 . S
C840 C839 1.387 . S
H841 C853 0.930 . S
H842 C855 0.930 . S
H843 C856 0.930 . S
H844 C860 0.959 . S
H845 C860 0.959 . S
H846 C860 0.961 . S
H847 C861 0.960 . S
H848 C861 0.961 . S
H849 C861 0.959 1_655 S
H850 C864 0.929 . S
H851 C865 0.931 . S
H852 C867 0.930 . S
C853 H841 0.930 . S
C853 C854 1.399 . S
C853 C858 1.399 . S
C854 C853 1.399 . S
C854 C855 1.376 . S
C855 H842 0.930 . S
C855 C854 1.376 . S
C855 C856 1.388 . S
C856 H843 0.930 . S
C856 C855 1.388 . S
C856 C857 1.390 . S
C857 C856 1.390 . S
C857 C858 1.394 . S
C857 C863 1.465 . S
C858 C853 1.399 . S
C858 C857 1.394 . S
C858 C859 1.516 1_655 S
C859 C858 1.516 1_455 S
C859 C860 1.502 . S
C859 C861 1.561 . S
C859 C862 1.526 . S
C860 H844 0.959 . S
C860 H845 0.959 . S
C860 H846 0.961 . S
C860 C859 1.502 . S
C861 H847 0.960 . S
C861 H848 0.961 . S
C861 H849 0.959 1_455 S
C861 C859 1.561 . S
C862 C859 1.526 . S
C862 C863 1.396 1_455 S
C862 C867 1.390 . S
C863 C857 1.465 . S
C863 C862 1.396 1_655 S
C863 C864 1.399 . S
C864 H850 0.929 . S
C864 C863 1.399 . S
C864 C865 1.385 1_655 S
C865 H851 0.931 . S
C865 C864 1.385 1_455 S
C865 C866 1.389 . S
C866 C865 1.389 . S
C866 C867 1.387 . S
C867 H852 0.930 . S
C867 C862 1.390 . S
C867 C866 1.387 . S
H868 C880 0.930 . S
H869 C882 0.930 . S
H870 C883 0.930 . S
H871 C887 0.959 . S
H872 C887 0.959 . S
H873 C887 0.961 . S
H874 C888 0.960 . S
H875 C888 0.961 . S
H876 C888 0.959 1_556 S
H877 C891 0.929 . S
H878 C892 0.931 . S
H879 C894 0.930 . S
C880 H868 0.930 . S
C880 C881 1.399 . S
C880 C885 1.399 . S
C881 C880 1.399 . S
C881 C882 1.376 . S
C882 H869 0.930 . S
C882 C881 1.376 . S
C882 C883 1.388 . S
C883 H870 0.930 . S
C883 C882 1.388 . S
C883 C884 1.390 . S
C884 C883 1.390 . S
C884 C885 1.394 . S
C884 C890 1.465 . S
C885 C880 1.399 . S
C885 C884 1.394 . S
C885 C886 1.516 1_556 S
C886 C885 1.516 1_554 S
C886 C887 1.502 . S
C886 C888 1.561 . S
C886 C889 1.526 . S
C887 H871 0.959 . S
C887 H872 0.959 . S
C887 H873 0.961 . S
C887 C886 1.502 . S
C888 H874 0.960 . S
C888 H875 0.961 . S
C888 H876 0.959 1_554 S
C888 C886 1.561 . S
C889 C886 1.526 . S
C889 C890 1.396 1_554 S
C889 C894 1.390 . S
C890 C884 1.465 . S
C890 C889 1.396 1_556 S
C890 C891 1.399 . S
C891 H877 0.929 . S
C891 C890 1.399 . S
C891 C892 1.385 . S
C892 H878 0.931 . S
C892 C891 1.385 . S
C892 C893 1.389 1_556 S
C893 C892 1.389 1_554 S
C893 C894 1.387 . S
C894 H879 0.930 . S
C894 C889 1.390 . S
C894 C893 1.387 . S
H895 C907 0.930 . S
H896 C909 0.930 . S
H897 C910 0.930 . S
H898 C914 0.959 . S
H899 C914 0.959 . S
H900 C914 0.961 . S
H901 C915 0.960 . S
H902 C915 0.961 . S
H903 C915 0.959 . S
H904 C918 0.929 . S
H905 C919 0.931 . S
H906 C921 0.930 . S
C907 H895 0.930 . S
C907 C908 1.399 . S
C907 C912 1.399 . S
C908 C907 1.399 . S
C908 C909 1.376 . S
C909 H896 0.930 . S
C909 C908 1.376 . S
C909 C910 1.388 . S
C910 H897 0.930 . S
C910 C909 1.388 . S
C910 C911 1.390 . S
C911 C910 1.390 . S
C911 C912 1.394 . S
C911 C917 1.465 . S
C912 C907 1.399 . S
C912 C911 1.394 . S
C912 C913 1.516 . S
C913 C912 1.516 . S
C913 C914 1.502 . S
C913 C915 1.561 . S
C913 C916 1.526 . S
C914 H898 0.959 . S
C914 H899 0.959 . S
C914 H900 0.961 . S
C914 C913 1.502 . S
C915 H901 0.960 . S
C915 H902 0.961 . S
C915 H903 0.959 . S
C915 C913 1.561 . S
C916 C913 1.526 . S
C916 C917 1.396 . S
C916 C921 1.390 . S
C917 C911 1.465 . S
C917 C916 1.396 . S
C917 C918 1.399 . S
C918 H904 0.929 . S
C918 C917 1.399 . S
C918 C919 1.385 . S
C919 H905 0.931 . S
C919 C918 1.385 . S
C919 C920 1.389 . S
C920 C919 1.389 . S
C920 C921 1.387 . S
C921 H906 0.930 . S
C921 C916 1.390 . S
C921 C920 1.387 . S
H922 C934 0.930 . S
H923 C936 0.930 . S
H924 C937 0.930 . S
H925 C941 0.959 . S
H926 C941 0.959 . S
H927 C941 0.961 . S
H928 C942 0.960 . S
H929 C942 0.961 . S
H930 C942 0.959 . S
H931 C945 0.929 . S
H932 C946 0.931 . S
H933 C948 0.930 . S
C934 H922 0.930 . S
C934 C935 1.399 . S
C934 C939 1.399 . S
C935 C934 1.399 . S
C935 C936 1.376 . S
C936 H923 0.930 . S
C936 C935 1.376 . S
C936 C937 1.388 . S
C937 H924 0.930 . S
C937 C936 1.388 . S
C937 C938 1.390 . S
C938 C937 1.390 . S
C938 C939 1.394 . S
C938 C944 1.465 . S
C939 C934 1.399 . S
C939 C938 1.394 . S
C939 C940 1.516 . S
C940 C939 1.516 . S
C940 C941 1.502 . S
C940 C942 1.561 . S
C940 C943 1.526 . S
C941 H925 0.959 . S
C941 H926 0.959 . S
C941 H927 0.961 . S
C941 C940 1.502 . S
C942 H928 0.960 . S
C942 H929 0.961 . S
C942 H930 0.959 . S
C942 C940 1.561 . S
C943 C940 1.526 . S
C943 C944 1.396 . S
C943 C948 1.390 . S
C944 C938 1.465 . S
C944 C943 1.396 . S
C944 C945 1.399 . S
C945 H931 0.929 . S
C945 C944 1.399 . S
C945 C946 1.385 . S
C946 H932 0.931 . S
C946 C945 1.385 . S
C946 C947 1.389 . S
C947 C946 1.389 . S
C947 C948 1.387 . S
C948 H933 0.930 . S
C948 C943 1.390 . S
C948 C947 1.387 . S
H949 C961 0.930 . S
H950 C963 0.930 . S
H951 C964 0.930 . S
H952 C968 0.959 . S
H953 C968 0.959 . S
H954 C968 0.961 . S
H955 C969 0.960 . S
H956 C969 0.961 . S
H957 C969 0.959 . S
H958 C972 0.929 . S
H959 C973 0.931 . S
H960 C975 0.930 . S
C961 H949 0.930 . S
C961 C962 1.399 . S
C961 C966 1.399 . S
C962 C961 1.399 . S
C962 C963 1.376 . S
C963 H950 0.930 . S
C963 C962 1.376 . S
C963 C964 1.388 . S
C964 H951 0.930 . S
C964 C963 1.388 . S
C964 C965 1.390 . S
C965 C964 1.390 . S
C965 C966 1.394 . S
C965 C971 1.465 . S
C966 C961 1.399 . S
C966 C965 1.394 . S
C966 C967 1.516 . S
C967 C966 1.516 . S
C967 C968 1.502 . S
C967 C969 1.561 . S
C967 C970 1.526 . S
C968 H952 0.959 . S
C968 H953 0.959 . S
C968 H954 0.961 . S
C968 C967 1.502 . S
C969 H955 0.960 . S
C969 H956 0.961 . S
C969 H957 0.959 . S
C969 C967 1.561 . S
C970 C967 1.526 . S
C970 C971 1.396 . S
C970 C975 1.390 . S
C971 C965 1.465 . S
C971 C970 1.396 . S
C971 C972 1.399 . S
C972 H958 0.929 . S
C972 C971 1.399 . S
C972 C973 1.385 . S
C973 H959 0.931 . S
C973 C972 1.385 . S
C973 C974 1.389 . S
C974 C973 1.389 . S
C974 C975 1.387 . S
C975 H960 0.930 . S
C975 C970 1.390 . S
C975 C974 1.387 . S
H976 C988 0.930 . S
H977 C990 0.930 . S
H978 C991 0.930 . S
H979 C995 0.959 . S
H980 C995 0.959 1_565 S
H981 C995 0.961 . S
H982 C996 0.960 . S
H983 C996 0.961 . S
H984 C996 0.959 . S
H985 C999 0.929 . S
H986 C1000 0.931 . S
H987 C1002 0.930 . S
C988 H976 0.930 . S
C988 C989 1.399 . S
C988 C993 1.399 . S
C989 C988 1.399 . S
C989 C990 1.376 . S
C990 H977 0.930 . S
C990 C989 1.376 . S
C990 C991 1.388 . S
C991 H978 0.930 . S
C991 C990 1.388 . S
C991 C992 1.390 . S
C992 C991 1.390 . S
C992 C993 1.394 . S
C992 C998 1.465 1_545 S
C993 C988 1.399 . S
C993 C992 1.394 . S
C993 C994 1.516 1_545 S
C994 C993 1.516 1_565 S
C994 C995 1.502 1_565 S
C994 C996 1.561 . S
C994 C997 1.526 . S
C995 H979 0.959 . S
C995 H980 0.959 1_545 S
C995 H981 0.961 . S
C995 C994 1.502 1_545 S
C996 H982 0.960 . S
C996 H983 0.961 . S
C996 H984 0.959 . S
C996 C994 1.561 . S
C997 C994 1.526 . S
C997 C998 1.396 . S
C997 C1002 1.390 . S
C998 C992 1.465 1_565 S
C998 C997 1.396 . S
C998 C999 1.399 . S
C999 H985 0.929 . S
C999 C998 1.399 . S
C999 C1000 1.385 . S
C1000 H986 0.931 . S
C1000 C999 1.385 . S
C1000 C1001 1.389 . S
C1001 C1000 1.389 . S
C1001 C1002 1.387 . S
C1002 H987 0.930 . S
C1002 C997 1.390 . S
C1002 C1001 1.387 . S
H1003 C1015 0.930 . S
H1004 C1017 0.930 . S
H1005 C1018 0.930 . S
H1006 C1022 0.959 . S
H1007 C1022 0.959 . S
H1008 C1022 0.961 . S
H1009 C1023 0.960 . S
H1010 C1023 0.961 . S
H1011 C1023 0.959 . S
H1012 C1026 0.929 . S
H1013 C1027 0.931 . S
H1014 C1029 0.930 . S
C1015 H1003 0.930 . S
C1015 C1016 1.399 . S
C1015 C1020 1.399 . S
C1016 C1015 1.399 . S
C1016 C1017 1.376 . S
C1017 H1004 0.930 . S
C1017 C1016 1.376 . S
C1017 C1018 1.388 . S
C1018 H1005 0.930 . S
C1018 C1017 1.388 . S
C1018 C1019 1.390 . S
C1019 C1018 1.390 . S
C1019 C1020 1.394 . S
C1019 C1025 1.465 . S
C1020 C1015 1.399 . S
C1020 C1019 1.394 . S
C1020 C1021 1.516 . S
C1021 C1020 1.516 . S
C1021 C1022 1.502 . S
C1021 C1023 1.561 . S
C1021 C1024 1.526 . S
C1022 H1006 0.959 . S
C1022 H1007 0.959 . S
C1022 H1008 0.961 . S
C1022 C1021 1.502 . S
C1023 H1009 0.960 . S
C1023 H1010 0.961 . S
C1023 H1011 0.959 . S
C1023 C1021 1.561 . S
C1024 C1021 1.526 . S
C1024 C1025 1.396 . S
C1024 C1029 1.390 . S
C1025 C1019 1.465 . S
C1025 C1024 1.396 . S
C1025 C1026 1.399 . S
C1026 H1012 0.929 . S
C1026 C1025 1.399 . S
C1026 C1027 1.385 . S
C1027 H1013 0.931 . S
C1027 C1026 1.385 . S
C1027 C1028 1.389 . S
C1028 C1027 1.389 . S
C1028 C1029 1.387 . S
C1029 H1014 0.930 . S
C1029 C1024 1.390 . S
C1029 C1028 1.387 . S
H1030 C1042 0.930 . S
H1031 C1044 0.930 . S
H1032 C1045 0.930 . S
H1033 C1049 0.959 . S
H1034 C1049 0.959 . S
H1035 C1049 0.961 . S
H1036 C1050 0.960 1_565 S
H1037 C1050 0.961 . S
H1038 C1050 0.959 . S
H1039 C1053 0.929 . S
H1040 C1054 0.931 . S
H1041 C1056 0.930 . S
C1042 H1030 0.930 . S
C1042 C1043 1.399 . S
C1042 C1047 1.399 . S
C1043 C1042 1.399 . S
C1043 C1044 1.376 . S
C1044 H1031 0.930 . S
C1044 C1043 1.376 . S
C1044 C1045 1.388 1_565 S
C1045 H1032 0.930 . S
C1045 C1044 1.388 1_545 S
C1045 C1046 1.390 . S
C1046 C1045 1.390 . S
C1046 C1047 1.394 1_545 S
C1046 C1052 1.465 . S
C1047 C1042 1.399 . S
C1047 C1046 1.394 1_565 S
C1047 C1048 1.516 1_565 S
C1048 C1047 1.516 1_545 S
C1048 C1049 1.502 1_545 S
C1048 C1050 1.561 . S
C1048 C1051 1.526 . S
C1049 H1033 0.959 . S
C1049 H1034 0.959 . S
C1049 H1035 0.961 . S
C1049 C1048 1.502 1_565 S
C1050 H1036 0.960 1_545 S
C1050 H1037 0.961 . S
C1050 H1038 0.959 . S
C1050 C1048 1.561 . S
C1051 C1048 1.526 . S
C1051 C1052 1.396 . S
C1051 C1056 1.390 . S
C1052 C1046 1.465 . S
C1052 C1051 1.396 . S
C1052 C1053 1.399 . S
C1053 H1039 0.929 . S
C1053 C1052 1.399 . S
C1053 C1054 1.385 . S
C1054 H1040 0.931 . S
C1054 C1053 1.385 . S
C1054 C1055 1.389 . S
C1055 C1054 1.389 . S
C1055 C1056 1.387 . S
C1056 H1041 0.930 . S
C1056 C1051 1.390 . S
C1056 C1055 1.387 . S
H1057 C1069 0.930 . S
H1058 C1071 0.930 . S
H1059 C1072 0.930 . S
H1060 C1076 0.959 . S
H1061 C1076 0.959 . S
H1062 C1076 0.961 . S
H1063 C1077 0.960 . S
H1064 C1077 0.961 . S
H1065 C1077 0.959 . S
H1066 C1080 0.929 . S
H1067 C1081 0.931 . S
H1068 C1083 0.930 . S
C1069 H1057 0.930 . S
C1069 C1070 1.399 . S
C1069 C1074 1.399 . S
C1070 C1069 1.399 . S
C1070 C1071 1.376 . S
C1071 H1058 0.930 . S
C1071 C1070 1.376 . S
C1071 C1072 1.388 1_556 S
C1072 H1059 0.930 . S
C1072 C1071 1.388 1_554 S
C1072 C1073 1.390 . S
C1073 C1072 1.390 . S
C1073 C1074 1.394 1_554 S
C1073 C1079 1.465 . S
C1074 C1069 1.399 . S
C1074 C1073 1.394 1_556 S
C1074 C1075 1.516 1_556 S
C1075 C1074 1.516 1_554 S
C1075 C1076 1.502 1_554 S
C1075 C1077 1.561 . S
C1075 C1078 1.526 . S
C1076 H1060 0.959 . S
C1076 H1061 0.959 . S
C1076 H1062 0.961 . S
C1076 C1075 1.502 1_556 S
C1077 H1063 0.960 . S
C1077 H1064 0.961 . S
C1077 H1065 0.959 . S
C1077 C1075 1.561 . S
C1078 C1075 1.526 . S
C1078 C1079 1.396 . S
C1078 C1083 1.390 . S
C1079 C1073 1.465 . S
C1079 C1078 1.396 . S
C1079 C1080 1.399 . S
C1080 H1066 0.929 . S
C1080 C1079 1.399 . S
C1080 C1081 1.385 . S
C1081 H1067 0.931 . S
C1081 C1080 1.385 . S
C1081 C1082 1.389 . S
C1082 C1081 1.389 . S
C1082 C1083 1.387 . S
C1083 H1068 0.930 . S
C1083 C1078 1.390 . S
C1083 C1082 1.387 . S
H1084 C1096 0.930 . S
H1085 C1098 0.930 . S
H1086 C1099 0.930 . S
H1087 C1103 0.959 1_655 S
H1088 C1103 0.952 1_655 S
H1089 C1103 0.961 . S
H1090 C1104 0.960 . S
H1091 C1104 0.961 . S
H1092 C1104 0.959 . S
H1093 C1107 0.929 . S
H1094 C1108 0.931 . S
H1095 C1110 0.930 . S
C1096 H1084 0.930 . S
C1096 C1097 1.399 . S
C1096 C1101 1.399 . S
C1097 C1096 1.399 . S
C1097 C1098 1.376 . S
C1098 H1085 0.930 . S
C1098 C1097 1.376 . S
C1098 C1099 1.388 . S
C1099 H1086 0.930 . S
C1099 C1098 1.388 . S
C1099 C1100 1.390 . S
C1100 C1099 1.390 . S
C1100 C1101 1.394 . S
C1100 C1106 1.465 1_455 S
C1101 C1096 1.399 . S
C1101 C1100 1.394 . S
C1101 C1102 1.516 . S
C1102 C1101 1.516 . S
C1102 C1103 1.502 . S
C1102 C1104 1.561 . S
C1102 C1105 1.526 1_455 S
C1103 H1087 0.959 1_455 S
C1103 H1088 0.952 1_455 S
C1103 H1089 0.961 . S
C1103 C1102 1.502 . S
C1104 H1090 0.960 . S
C1104 H1091 0.961 . S
C1104 H1092 0.959 . S
C1104 C1102 1.561 . S
C1105 C1102 1.526 1_655 S
C1105 C1106 1.396 . S
C1105 C1110 1.390 . S
C1106 C1100 1.465 1_655 S
C1106 C1105 1.396 . S
C1106 C1107 1.399 . S
C1107 H1093 0.929 . S
C1107 C1106 1.399 . S
C1107 C1108 1.385 . S
C1108 H1094 0.931 . S
C1108 C1107 1.385 . S
C1108 C1109 1.389 . S
C1109 C1108 1.389 . S
C1109 C1110 1.387 . S
C1110 H1095 0.930 . S
C1110 C1105 1.390 . S
C1110 C1109 1.387 . S
H1111 C1123 0.930 . S
H1112 C1125 0.930 . S
H1113 C1126 0.930 . S
H1114 C1130 0.959 . S
H1115 C1130 0.959 . S
H1116 C1130 0.961 . S
H1117 C1131 0.960 . S
H1118 C1131 0.961 . S
H1119 C1131 0.959 . S
H1120 C1134 0.929 . S
H1121 C1135 0.931 . S
H1122 C1137 0.930 . S
C1123 H1111 0.930 . S
C1123 C1124 1.399 . S
C1123 C1128 1.399 . S
C1124 C1123 1.399 . S
C1124 C1125 1.376 . S
C1125 H1112 0.930 . S
C1125 C1124 1.376 . S
C1125 C1126 1.388 . S
C1126 H1113 0.930 . S
C1126 C1125 1.388 . S
C1126 C1127 1.390 . S
C1127 C1126 1.390 . S
C1127 C1128 1.394 . S
C1127 C1133 1.465 . S
C1128 C1123 1.399 . S
C1128 C1127 1.394 . S
C1128 C1129 1.516 . S
C1129 C1128 1.516 . S
C1129 C1130 1.502 . S
C1129 C1131 1.561 . S
C1129 C1132 1.526 . S
C1130 H1114 0.959 . S
C1130 H1115 0.959 . S
C1130 H1116 0.961 . S
C1130 C1129 1.502 . S
C1131 H1117 0.960 . S
C1131 H1118 0.961 . S
C1131 H1119 0.959 . S
C1131 C1129 1.561 . S
C1132 C1129 1.526 . S
C1132 C1133 1.396 . S
C1132 C1137 1.390 . S
C1133 C1127 1.465 . S
C1133 C1132 1.396 . S
C1133 C1134 1.399 . S
C1134 H1120 0.929 . S
C1134 C1133 1.399 . S
C1134 C1135 1.385 . S
C1135 H1121 0.931 . S
C1135 C1134 1.385 . S
C1135 C1136 1.389 . S
C1136 C1135 1.389 . S
C1136 C1137 1.387 . S
C1137 H1122 0.930 . S
C1137 C1132 1.390 . S
C1137 C1136 1.387 . S
H1138 C1150 0.930 . S
H1139 C1152 0.930 . S
H1140 C1153 0.930 . S
H1141 C1157 0.959 . S
H1142 C1157 0.959 . S
H1143 C1157 0.961 . S
H1144 C1158 0.960 . S
H1145 C1158 0.961 . S
H1146 C1158 0.959 . S
H1147 C1161 0.929 . S
H1148 C1162 0.931 . S
H1149 C1164 0.930 . S
C1150 H1138 0.930 . S
C1150 C1151 1.399 . S
C1150 C1155 1.399 . S
C1151 C1150 1.399 . S
C1151 C1152 1.376 . S
C1152 H1139 0.930 . S
C1152 C1151 1.376 . S
C1152 C1153 1.388 . S
C1153 H1140 0.930 . S
C1153 C1152 1.388 . S
C1153 C1154 1.390 . S
C1154 C1153 1.390 . S
C1154 C1155 1.394 . S
C1154 C1160 1.465 1_655 S
C1155 C1150 1.399 . S
C1155 C1154 1.394 . S
C1155 C1156 1.516 1_655 S
C1156 C1155 1.516 1_455 S
C1156 C1157 1.502 . S
C1156 C1158 1.561 1_455 S
C1156 C1159 1.526 . S
C1157 H1141 0.959 . S
C1157 H1142 0.959 . S
C1157 H1143 0.961 . S
C1157 C1156 1.502 . S
C1158 H1144 0.960 . S
C1158 H1145 0.961 . S
C1158 H1146 0.959 . S
C1158 C1156 1.561 1_655 S
C1159 C1156 1.526 . S
C1159 C1160 1.396 . S
C1159 C1164 1.390 . S
C1160 C1154 1.465 1_455 S
C1160 C1159 1.396 . S
C1160 C1161 1.399 . S
C1161 H1147 0.929 . S
C1161 C1160 1.399 . S
C1161 C1162 1.385 . S
C1162 H1148 0.931 . S
C1162 C1161 1.385 . S
C1162 C1163 1.389 . S
C1163 C1162 1.389 . S
C1163 C1164 1.387 . S
C1164 H1149 0.930 . S
C1164 C1159 1.390 . S
C1164 C1163 1.387 . S
H1165 C1177 0.930 . S
H1166 C1179 0.930 . S
H1167 C1180 0.930 . S
H1168 C1184 0.959 . S
H1169 C1184 0.959 . S
H1170 C1184 0.961 . S
H1171 C1185 0.960 . S
H1172 C1185 0.961 . S
H1173 C1185 0.959 . S
H1174 C1188 0.929 . S
H1175 C1189 0.931 . S
H1176 C1191 0.930 . S
C1177 H1165 0.930 . S
C1177 C1178 1.399 . S
C1177 C1182 1.399 . S
C1178 C1177 1.399 . S
C1178 C1179 1.376 . S
C1179 H1166 0.930 . S
C1179 C1178 1.376 . S
C1179 C1180 1.388 . S
C1180 H1167 0.930 . S
C1180 C1179 1.388 . S
C1180 C1181 1.390 . S
C1181 C1180 1.390 . S
C1181 C1182 1.394 . S
C1181 C1187 1.465 . S
C1182 C1177 1.399 . S
C1182 C1181 1.394 . S
C1182 C1183 1.516 . S
C1183 C1182 1.516 . S
C1183 C1184 1.502 . S
C1183 C1185 1.561 . S
C1183 C1186 1.526 . S
C1184 H1168 0.959 . S
C1184 H1169 0.959 . S
C1184 H1170 0.961 . S
C1184 C1183 1.502 . S
C1185 H1171 0.960 . S
C1185 H1172 0.961 . S
C1185 H1173 0.959 . S
C1185 C1183 1.561 . S
C1186 C1183 1.526 . S
C1186 C1187 1.396 . S
C1186 C1191 1.390 . S
C1187 C1181 1.465 . S
C1187 C1186 1.396 . S
C1187 C1188 1.399 . S
C1188 H1174 0.929 . S
C1188 C1187 1.399 . S
C1188 C1189 1.385 . S
C1189 H1175 0.931 . S
C1189 C1188 1.385 . S
C1189 C1190 1.389 . S
C1190 C1189 1.389 . S
C1190 C1191 1.387 . S
C1191 H1176 0.930 . S
C1191 C1186 1.390 . S
C1191 C1190 1.387 . S
H1192 C1204 0.930 . S
H1193 C1206 0.930 . S
H1194 C1207 0.930 . S
H1195 C1211 0.959 . S
H1196 C1211 0.959 . S
H1197 C1211 0.961 . S
H1198 C1212 0.960 . S
H1199 C1212 0.961 . S
H1200 C1212 0.959 1_565 S
H1201 C1215 0.929 . S
H1202 C1216 0.931 . S
H1203 C1218 0.930 . S
C1204 H1192 0.930 . S
C1204 C1205 1.399 . S
C1204 C1209 1.399 . S
C1205 C1204 1.399 . S
C1205 C1206 1.376 . S
C1206 H1193 0.930 . S
C1206 C1205 1.376 . S
C1206 C1207 1.388 1_545 S
C1207 H1194 0.930 . S
C1207 C1206 1.388 1_565 S
C1207 C1208 1.390 . S
C1208 C1207 1.390 . S
C1208 C1209 1.394 1_565 S
C1208 C1214 1.465 . S
C1209 C1204 1.399 . S
C1209 C1208 1.394 1_545 S
C1209 C1210 1.516 . S
C1210 C1209 1.516 . S
C1210 C1211 1.502 . S
C1210 C1212 1.561 . S
C1210 C1213 1.526 1_545 S
C1211 H1195 0.959 . S
C1211 H1196 0.959 . S
C1211 H1197 0.961 . S
C1211 C1210 1.502 . S
C1212 H1198 0.960 . S
C1212 H1199 0.961 . S
C1212 H1200 0.959 1_545 S
C1212 C1210 1.561 . S
C1213 C1210 1.526 1_565 S
C1213 C1214 1.396 . S
C1213 C1218 1.390 . S
C1214 C1208 1.465 . S
C1214 C1213 1.396 . S
C1214 C1215 1.399 . S
C1215 H1201 0.929 . S
C1215 C1214 1.399 . S
C1215 C1216 1.385 . S
C1216 H1202 0.931 . S
C1216 C1215 1.385 . S
C1216 C1217 1.389 . S
C1217 C1216 1.389 . S
C1217 C1218 1.387 . S
C1218 H1203 0.930 . S
C1218 C1213 1.390 . S
C1218 C1217 1.387 . S
H1219 C1231 0.930 . S
H1220 C1233 0.930 . S
H1221 C1234 0.930 . S
H1222 C1238 0.959 . S
H1223 C1238 0.959 . S
H1224 C1238 0.961 . S
H1225 C1239 0.960 . S
H1226 C1239 0.961 . S
H1227 C1239 0.959 . S
H1228 C1242 0.929 . S
H1229 C1243 0.931 . S
H1230 C1245 0.930 . S
C1231 H1219 0.930 . S
C1231 C1232 1.399 . S
C1231 C1236 1.399 . S
C1232 C1231 1.399 . S
C1232 C1233 1.376 . S
C1233 H1220 0.930 . S
C1233 C1232 1.376 . S
C1233 C1234 1.388 . S
C1234 H1221 0.930 . S
C1234 C1233 1.388 . S
C1234 C1235 1.390 . S
C1235 C1234 1.390 . S
C1235 C1236 1.394 . S
C1235 C1241 1.465 . S
C1236 C1231 1.399 . S
C1236 C1235 1.394 . S
C1236 C1237 1.516 . S
C1237 C1236 1.516 . S
C1237 C1238 1.502 . S
C1237 C1239 1.561 . S
C1237 C1240 1.526 . S
C1238 H1222 0.959 . S
C1238 H1223 0.959 . S
C1238 H1224 0.961 . S
C1238 C1237 1.502 . S
C1239 H1225 0.960 . S
C1239 H1226 0.961 . S
C1239 H1227 0.959 . S
C1239 C1237 1.561 . S
C1240 C1237 1.526 . S
C1240 C1241 1.396 . S
C1240 C1245 1.390 . S
C1241 C1235 1.465 . S
C1241 C1240 1.396 . S
C1241 C1242 1.399 . S
C1242 H1228 0.929 . S
C1242 C1241 1.399 . S
C1242 C1243 1.385 . S
C1243 H1229 0.931 . S
C1243 C1242 1.385 . S
C1243 C1244 1.389 . S
C1244 C1243 1.389 . S
C1244 C1245 1.387 . S
C1245 H1230 0.930 . S
C1245 C1240 1.390 . S
C1245 C1244 1.387 . S
H1246 C1258 0.930 . S
H1247 C1260 0.930 . S
H1248 C1261 0.930 . S
H1249 C1265 0.959 . S
H1250 C1265 0.959 . S
H1251 C1265 0.961 . S
H1252 C1266 0.960 . S
H1253 C1266 0.961 . S
H1254 C1266 0.959 . S
H1255 C1269 0.929 1_545 S
H1256 C1270 0.931 . S
H1257 C1272 0.930 . S
C1258 H1246 0.930 . S
C1258 C1259 1.399 . S
C1258 C1263 1.399 1_545 S
C1259 C1258 1.399 . S
C1259 C1260 1.376 . S
C1260 H1247 0.930 . S
C1260 C1259 1.376 . S
C1260 C1261 1.388 . S
C1261 H1248 0.930 . S
C1261 C1260 1.388 . S
C1261 C1262 1.390 . S
C1262 C1261 1.390 . S
C1262 C1263 1.394 1_545 S
C1262 C1268 1.465 1_545 S
C1263 C1258 1.399 1_565 S
C1263 C1262 1.394 1_565 S
C1263 C1264 1.516 . S
C1264 C1263 1.516 . S
C1264 C1265 1.502 . S
C1264 C1266 1.561 . S
C1264 C1267 1.526 . S
C1265 H1249 0.959 . S
C1265 H1250 0.959 . S
C1265 H1251 0.961 . S
C1265 C1264 1.502 . S
C1266 H1252 0.960 . S
C1266 H1253 0.961 . S
C1266 H1254 0.959 . S
C1266 C1264 1.561 . S
C1267 C1264 1.526 . S
C1267 C1268 1.396 . S
C1267 C1272 1.390 . S
C1268 C1262 1.465 1_565 S
C1268 C1267 1.396 . S
C1268 C1269 1.399 . S
C1269 H1255 0.929 1_565 S
C1269 C1268 1.399 . S
C1269 C1270 1.385 . S
C1270 H1256 0.931 . S
C1270 C1269 1.385 . S
C1270 C1271 1.389 . S
C1271 C1270 1.389 . S
C1271 C1272 1.387 . S
C1272 H1257 0.930 . S
C1272 C1267 1.390 . S
C1272 C1271 1.387 . S
H1273 C1285 0.930 . S
H1274 C1287 0.930 . S
H1275 C1288 0.926 1_556 S
H1276 C1292 0.959 . S
H1277 C1292 0.959 . S
H1278 C1292 0.961 . S
H1279 C1293 0.960 1_554 S
H1280 C1293 0.961 . S
H1281 C1293 0.959 . S
H1282 C1296 0.929 . S
H1283 C1297 0.931 . S
H1284 C1299 0.930 . S
C1285 H1273 0.930 . S
C1285 C1286 1.399 . S
C1285 C1290 1.399 . S
C1286 C1285 1.399 . S
C1286 C1287 1.376 . S
C1287 H1274 0.930 . S
C1287 C1286 1.376 . S
C1287 C1288 1.392 . S
C1288 H1275 0.926 1_554 S
C1288 C1287 1.392 . S
C1288 C1289 1.389 1_554 S
C1289 C1288 1.389 1_556 S
C1289 C1290 1.394 1_556 S
C1289 C1295 1.465 . S
C1290 C1285 1.399 . S
C1290 C1289 1.394 1_554 S
C1290 C1291 1.516 . S
C1291 C1290 1.516 . S
C1291 C1292 1.502 . S
C1291 C1293 1.561 1_554 S
C1291 C1294 1.526 1_554 S
C1292 H1276 0.959 . S
C1292 H1277 0.959 . S
C1292 H1278 0.961 . S
C1292 C1291 1.502 . S
C1293 H1279 0.960 1_556 S
C1293 H1280 0.961 . S
C1293 H1281 0.959 . S
C1293 C1291 1.561 1_556 S
C1294 C1291 1.526 1_556 S
C1294 C1295 1.396 . S
C1294 C1299 1.390 . S
C1295 C1289 1.465 . S
C1295 C1294 1.396 . S
C1295 C1296 1.399 . S
C1296 H1282 0.929 . S
C1296 C1295 1.399 . S
C1296 C1297 1.385 . S
C1297 H1283 0.931 . S
C1297 C1296 1.385 . S
C1297 C1298 1.389 . S
C1298 C1297 1.389 . S
C1298 C1299 1.387 . S
C1299 H1284 0.930 . S
C1299 C1294 1.390 . S
C1299 C1298 1.387 . S
H1300 C1312 0.930 . S
H1301 C1314 0.930 . S
H1302 C1315 0.930 . S
H1303 C1319 0.959 . S
H1304 C1319 0.959 . S
H1305 C1319 0.961 . S
H1306 C1320 0.960 . S
H1307 C1320 0.961 . S
H1308 C1320 0.959 . S
H1309 C1323 0.929 1_455 S
H1310 C1324 0.931 . S
H1311 C1326 0.930 . S
C1312 H1300 0.930 . S
C1312 C1313 1.399 . S
C1312 C1317 1.399 . S
C1313 C1312 1.399 . S
C1313 C1314 1.376 . S
C1314 H1301 0.930 . S
C1314 C1313 1.376 . S
C1314 C1315 1.388 . S
C1315 H1302 0.930 . S
C1315 C1314 1.388 . S
C1315 C1316 1.390 . S
C1316 C1315 1.390 . S
C1316 C1317 1.394 . S
C1316 C1322 1.465 1_455 S
C1317 C1312 1.399 . S
C1317 C1316 1.394 . S
C1317 C1318 1.516 1_455 S
C1318 C1317 1.516 1_655 S
C1318 C1319 1.502 . S
C1318 C1320 1.561 . S
C1318 C1321 1.526 . S
C1319 H1303 0.959 . S
C1319 H1304 0.959 . S
C1319 H1305 0.961 . S
C1319 C1318 1.502 . S
C1320 H1306 0.960 . S
C1320 H1307 0.961 . S
C1320 H1308 0.959 . S
C1320 C1318 1.561 . S
C1321 C1318 1.526 . S
C1321 C1322 1.396 . S
C1321 C1326 1.390 . S
C1322 C1316 1.465 1_655 S
C1322 C1321 1.396 . S
C1322 C1323 1.399 . S
C1323 H1309 0.929 1_655 S
C1323 C1322 1.399 . S
C1323 C1324 1.385 . S
C1324 H1310 0.931 . S
C1324 C1323 1.385 . S
C1324 C1325 1.389 . S
C1325 C1324 1.389 . S
C1325 C1326 1.387 . S
C1326 H1311 0.930 . S
C1326 C1321 1.390 . S
C1326 C1325 1.387 . S
H1327 C1339 0.930 . S
H1328 C1341 0.930 . S
H1329 C1342 0.930 . S
H1330 C1346 0.959 . S
H1331 C1346 0.959 . S
H1332 C1346 0.961 . S
H1333 C1347 0.960 . S
H1334 C1347 0.961 . S
H1335 C1347 0.959 . S
H1336 C1350 0.929 . S
H1337 C1351 0.931 . S
H1338 C1353 0.930 . S
C1339 H1327 0.930 . S
C1339 C1340 1.399 . S
C1339 C1344 1.399 . S
C1340 C1339 1.399 . S
C1340 C1341 1.376 . S
C1341 H1328 0.930 . S
C1341 C1340 1.376 . S
C1341 C1342 1.388 . S
C1342 H1329 0.930 . S
C1342 C1341 1.388 . S
C1342 C1343 1.390 . S
C1343 C1342 1.390 . S
C1343 C1344 1.394 . S
C1343 C1349 1.465 . S
C1344 C1339 1.399 . S
C1344 C1343 1.394 . S
C1344 C1345 1.516 . S
C1345 C1344 1.516 . S
C1345 C1346 1.502 . S
C1345 C1347 1.561 . S
C1345 C1348 1.526 . S
C1346 H1330 0.959 . S
C1346 H1331 0.959 . S
C1346 H1332 0.961 . S
C1346 C1345 1.502 . S
C1347 H1333 0.960 . S
C1347 H1334 0.961 . S
C1347 H1335 0.959 . S
C1347 C1345 1.561 . S
C1348 C1345 1.526 . S
C1348 C1349 1.396 . S
C1348 C1353 1.390 . S
C1349 C1343 1.465 . S
C1349 C1348 1.396 . S
C1349 C1350 1.399 . S
C1350 H1336 0.929 . S
C1350 C1349 1.399 . S
C1350 C1351 1.385 . S
C1351 H1337 0.931 . S
C1351 C1350 1.385 . S
C1351 C1352 1.389 . S
C1352 C1351 1.389 . S
C1352 C1353 1.387 . S
C1353 H1338 0.930 . S
C1353 C1348 1.390 . S
C1353 C1352 1.387 . S
H1354 C1366 0.930 . S
H1355 C1368 0.930 . S
H1356 C1369 0.930 . S
H1357 C1373 0.959 . S
H1358 C1373 0.959 . S
H1359 C1373 0.961 . S
H1360 C1374 0.960 . S
H1361 C1374 0.961 . S
H1362 C1374 0.959 1_455 S
H1363 C1377 0.929 . S
H1364 C1378 0.931 . S
H1365 C1380 0.930 . S
C1366 H1354 0.930 . S
C1366 C1367 1.399 . S
C1366 C1371 1.399 . S
C1367 C1366 1.399 . S
C1367 C1368 1.376 . S
C1368 H1355 0.930 . S
C1368 C1367 1.376 . S
C1368 C1369 1.388 . S
C1369 H1356 0.930 . S
C1369 C1368 1.388 . S
C1369 C1370 1.390 . S
C1370 C1369 1.390 . S
C1370 C1371 1.394 . S
C1370 C1376 1.465 1_655 S
C1371 C1366 1.399 . S
C1371 C1370 1.394 . S
C1371 C1372 1.516 . S
C1372 C1371 1.516 . S
C1372 C1373 1.502 . S
C1372 C1374 1.561 . S
C1372 C1375 1.534 . S
C1373 H1357 0.959 . S
C1373 H1358 0.959 . S
C1373 H1359 0.961 . S
C1373 C1372 1.502 . S
C1374 H1360 0.960 . S
C1374 H1361 0.961 . S
C1374 H1362 0.959 1_655 S
C1374 C1372 1.561 . S
C1375 C1372 1.534 . S
C1375 C1376 1.395 1_655 S
C1375 C1380 1.383 1_655 S
C1376 C1370 1.465 1_455 S
C1376 C1375 1.395 1_455 S
C1376 C1377 1.399 . S
C1377 H1363 0.929 . S
C1377 C1376 1.399 . S
C1377 C1378 1.385 . S
C1378 H1364 0.931 . S
C1378 C1377 1.385 . S
C1378 C1379 1.389 . S
C1379 C1378 1.389 . S
C1379 C1380 1.387 . S
C1380 H1365 0.930 . S
C1380 C1375 1.383 1_455 S
C1380 C1379 1.387 . S
H1381 C1393 0.930 . S
H1382 C1395 0.930 . S
H1383 C1396 0.930 . S
H1384 C1400 0.959 . S
H1385 C1400 0.959 . S
H1386 C1400 0.961 . S
H1387 C1401 0.960 . S
H1388 C1401 0.961 . S
H1389 C1401 0.959 . S
H1390 C1404 0.929 . S
H1391 C1405 0.931 . S
H1392 C1407 0.930 . S
C1393 H1381 0.930 . S
C1393 C1394 1.399 . S
C1393 C1398 1.399 . S
C1394 C1393 1.399 . S
C1394 C1395 1.376 . S
C1395 H1382 0.930 . S
C1395 C1394 1.376 . S
C1395 C1396 1.388 . S
C1396 H1383 0.930 . S
C1396 C1395 1.388 . S
C1396 C1397 1.390 . S
C1397 C1396 1.390 . S
C1397 C1398 1.394 . S
C1397 C1403 1.465 . S
C1398 C1393 1.399 . S
C1398 C1397 1.394 . S
C1398 C1399 1.516 . S
C1399 C1398 1.516 . S
C1399 C1400 1.502 . S
C1399 C1401 1.561 . S
C1399 C1402 1.526 . S
C1400 H1384 0.959 . S
C1400 H1385 0.959 . S
C1400 H1386 0.961 . S
C1400 C1399 1.502 . S
C1401 H1387 0.960 . S
C1401 H1388 0.961 . S
C1401 H1389 0.959 . S
C1401 C1399 1.561 . S
C1402 C1399 1.526 . S
C1402 C1403 1.396 . S
C1402 C1407 1.390 . S
C1403 C1397 1.465 . S
C1403 C1402 1.396 . S
C1403 C1404 1.399 . S
C1404 H1390 0.929 . S
C1404 C1403 1.399 . S
C1404 C1405 1.385 . S
C1405 H1391 0.931 . S
C1405 C1404 1.385 . S
C1405 C1406 1.389 . S
C1406 C1405 1.389 . S
C1406 C1407 1.387 . S
C1407 H1392 0.930 . S
C1407 C1402 1.390 . S
C1407 C1406 1.387 . S
H1408 C1420 0.930 . S
H1409 C1422 0.930 . S
H1410 C1423 0.930 . S
H1411 C1427 0.959 . S
H1412 C1427 0.959 . S
H1413 C1427 0.961 . S
H1414 C1428 0.960 . S
H1415 C1428 0.961 . S
H1416 C1428 0.959 . S
H1417 C1431 0.929 . S
H1418 C1432 0.931 . S
H1419 C1434 0.930 . S
C1420 H1408 0.930 . S
C1420 C1421 1.399 . S
C1420 C1425 1.399 . S
C1421 C1420 1.399 . S
C1421 C1422 1.376 . S
C1422 H1409 0.930 . S
C1422 C1421 1.376 . S
C1422 C1423 1.388 . S
C1423 H1410 0.930 . S
C1423 C1422 1.388 . S
C1423 C1424 1.390 . S
C1424 C1423 1.390 . S
C1424 C1425 1.394 . S
C1424 C1430 1.465 . S
C1425 C1420 1.399 . S
C1425 C1424 1.394 . S
C1425 C1426 1.516 . S
C1426 C1425 1.516 . S
C1426 C1427 1.502 . S
C1426 C1428 1.561 . S
C1426 C1429 1.526 . S
C1427 H1411 0.959 . S
C1427 H1412 0.959 . S
C1427 H1413 0.961 . S
C1427 C1426 1.502 . S
C1428 H1414 0.960 . S
C1428 H1415 0.961 . S
C1428 H1416 0.959 . S
C1428 C1426 1.561 . S
C1429 C1426 1.526 . S
C1429 C1430 1.396 . S
C1429 C1434 1.390 . S
C1430 C1424 1.465 . S
C1430 C1429 1.396 . S
C1430 C1431 1.399 . S
C1431 H1417 0.929 . S
C1431 C1430 1.399 . S
C1431 C1432 1.385 . S
C1432 H1418 0.931 . S
C1432 C1431 1.385 . S
C1432 C1433 1.389 . S
C1433 C1432 1.389 . S
C1433 C1434 1.387 . S
C1434 H1419 0.930 . S
C1434 C1429 1.390 . S
C1434 C1433 1.387 . S
H1435 C1447 0.930 . S
H1436 C1449 0.930 . S
H1437 C1450 0.930 1_554 S
H1438 C1454 0.959 . S
H1439 C1454 0.959 . S
H1440 C1454 0.961 . S
H1441 C1455 0.960 . S
H1442 C1455 0.961 1_554 S
H1443 C1455 0.959 1_554 S
H1444 C1458 0.929 . S
H1445 C1459 0.931 . S
H1446 C1461 0.930 . S
C1447 H1435 0.930 . S
C1447 C1448 1.399 . S
C1447 C1452 1.399 . S
C1448 C1447 1.399 . S
C1448 C1449 1.376 . S
C1449 H1436 0.930 . S
C1449 C1448 1.376 . S
C1449 C1450 1.388 . S
C1450 H1437 0.930 1_556 S
C1450 C1449 1.388 . S
C1450 C1451 1.394 . S
C1451 C1450 1.394 . S
C1451 C1452 1.419 . S
C1451 C1457 1.440 1_556 S
C1452 C1447 1.399 . S
C1452 C1451 1.419 . S
C1452 C1453 1.516 . S
C1453 C1452 1.516 . S
C1453 C1454 1.502 . S
C1453 C1455 1.561 . S
C1453 C1456 1.526 1_556 S
C1454 H1438 0.959 . S
C1454 H1439 0.959 . S
C1454 H1440 0.961 . S
C1454 C1453 1.502 . S
C1455 H1441 0.960 . S
C1455 H1442 0.961 1_556 S
C1455 H1443 0.959 1_556 S
C1455 C1453 1.561 . S
C1456 C1453 1.526 1_554 S
C1456 C1457 1.396 . S
C1456 C1461 1.390 . S
C1457 C1451 1.440 1_554 S
C1457 C1456 1.396 . S
C1457 C1458 1.399 . S
C1458 H1444 0.929 . S
C1458 C1457 1.399 . S
C1458 C1459 1.385 . S
C1459 H1445 0.931 . S
C1459 C1458 1.385 . S
C1459 C1460 1.389 . S
C1460 C1459 1.389 . S
C1460 C1461 1.387 . S
C1461 H1446 0.930 . S
C1461 C1456 1.390 . S
C1461 C1460 1.387 . S
H1462 C1474 0.930 . S
H1463 C1476 0.930 . S
H1464 C1477 0.930 . S
H1465 C1481 0.959 . S
H1466 C1481 0.959 . S
H1467 C1481 0.961 . S
H1468 C1482 0.960 . S
H1469 C1482 0.961 . S
H1470 C1482 0.959 . S
H1471 C1485 0.929 . S
H1472 C1486 0.931 . S
H1473 C1488 0.930 . S
C1474 H1462 0.930 . S
C1474 C1475 1.399 . S
C1474 C1479 1.399 . S
C1475 C1474 1.399 . S
C1475 C1476 1.376 . S
C1476 H1463 0.930 . S
C1476 C1475 1.376 . S
C1476 C1477 1.388 . S
C1477 H1464 0.930 . S
C1477 C1476 1.388 . S
C1477 C1478 1.390 . S
C1478 C1477 1.390 . S
C1478 C1479 1.394 . S
C1478 C1484 1.465 . S
C1479 C1474 1.399 . S
C1479 C1478 1.394 . S
C1479 C1480 1.516 . S
C1480 C1479 1.516 . S
C1480 C1481 1.502 . S
C1480 C1482 1.561 . S
C1480 C1483 1.526 . S
C1481 H1465 0.959 . S
C1481 H1466 0.959 . S
C1481 H1467 0.961 . S
C1481 C1480 1.502 . S
C1482 H1468 0.960 . S
C1482 H1469 0.961 . S
C1482 H1470 0.959 . S
C1482 C1480 1.561 . S
C1483 C1480 1.526 . S
C1483 C1484 1.396 . S
C1483 C1488 1.390 . S
C1484 C1478 1.465 . S
C1484 C1483 1.396 . S
C1484 C1485 1.399 . S
C1485 H1471 0.929 . S
C1485 C1484 1.399 . S
C1485 C1486 1.385 . S
C1486 H1472 0.931 . S
C1486 C1485 1.385 . S
C1486 C1487 1.389 . S
C1487 C1486 1.389 . S
C1487 C1488 1.387 . S
C1488 H1473 0.930 . S
C1488 C1483 1.390 . S
C1488 C1487 1.387 . S
H1489 C1501 0.930 . S
H1490 C1503 0.930 . S
H1491 C1504 0.930 . S
H1492 C1508 0.959 . S
H1493 C1508 0.959 . S
H1494 C1508 0.961 . S
H1495 C1509 0.960 . S
H1496 C1509 0.961 . S
H1497 C1509 0.959 . S
H1498 C1512 0.929 . S
H1499 C1513 0.931 . S
H1500 C1515 0.930 . S
C1501 H1489 0.930 . S
C1501 C1502 1.399 . S
C1501 C1506 1.399 . S
C1502 C1501 1.399 . S
C1502 C1503 1.376 . S
C1503 H1490 0.930 . S
C1503 C1502 1.376 . S
C1503 C1504 1.388 . S
C1504 H1491 0.930 . S
C1504 C1503 1.388 . S
C1504 C1505 1.390 . S
C1505 C1504 1.390 . S
C1505 C1506 1.394 . S
C1505 C1511 1.465 . S
C1506 C1501 1.399 . S
C1506 C1505 1.394 . S
C1506 C1507 1.516 . S
C1507 C1506 1.516 . S
C1507 C1508 1.502 . S
C1507 C1509 1.561 . S
C1507 C1510 1.526 . S
C1508 H1492 0.959 . S
C1508 H1493 0.959 . S
C1508 H1494 0.961 . S
C1508 C1507 1.502 . S
C1509 H1495 0.960 . S
C1509 H1496 0.961 . S
C1509 H1497 0.959 . S
C1509 C1507 1.561 . S
C1510 C1507 1.526 . S
C1510 C1511 1.396 . S
C1510 C1515 1.390 . S
C1511 C1505 1.465 . S
C1511 C1510 1.396 . S
C1511 C1512 1.399 . S
C1512 H1498 0.929 . S
C1512 C1511 1.399 . S
C1512 C1513 1.385 . S
C1513 H1499 0.931 . S
C1513 C1512 1.385 . S
C1513 C1514 1.389 . S
C1514 C1513 1.389 . S
C1514 C1515 1.387 . S
C1515 H1500 0.930 . S
C1515 C1510 1.390 . S
C1515 C1514 1.387 . S
H1516 C1528 0.930 . S
H1517 C1530 0.930 . S
H1518 C1531 0.930 . S
H1519 C1535 0.959 . S
H1520 C1535 0.959 . S
H1521 C1535 0.961 . S
H1522 C1536 0.960 . S
H1523 C1536 0.961 . S
H1524 C1536 0.959 . S
H1525 C1539 0.929 . S
H1526 C1540 0.931 . S
H1527 C1542 0.930 . S
C1528 H1516 0.930 . S
C1528 C1529 1.399 . S
C1528 C1533 1.399 . S
C1529 C1528 1.399 . S
C1529 C1530 1.376 . S
C1530 H1517 0.930 . S
C1530 C1529 1.376 . S
C1530 C1531 1.388 . S
C1531 H1518 0.930 . S
C1531 C1530 1.388 . S
C1531 C1532 1.390 . S
C1532 C1531 1.390 . S
C1532 C1533 1.394 . S
C1532 C1538 1.465 . S
C1533 C1528 1.399 . S
C1533 C1532 1.394 . S
C1533 C1534 1.516 . S
C1534 C1533 1.516 . S
C1534 C1535 1.502 . S
C1534 C1536 1.561 . S
C1534 C1537 1.526 . S
C1535 H1519 0.959 . S
C1535 H1520 0.959 . S
C1535 H1521 0.961 . S
C1535 C1534 1.502 . S
C1536 H1522 0.960 . S
C1536 H1523 0.961 . S
C1536 H1524 0.959 . S
C1536 C1534 1.561 . S
C1537 C1534 1.526 . S
C1537 C1538 1.396 . S
C1537 C1542 1.390 . S
C1538 C1532 1.465 . S
C1538 C1537 1.396 . S
C1538 C1539 1.399 . S
C1539 H1525 0.929 . S
C1539 C1538 1.399 . S
C1539 C1540 1.385 . S
C1540 H1526 0.931 . S
C1540 C1539 1.385 . S
C1540 C1541 1.389 . S
C1541 C1540 1.389 . S
C1541 C1542 1.387 . S
C1542 H1527 0.930 . S
C1542 C1537 1.390 . S
C1542 C1541 1.387 . S
H1543 C1555 0.930 . S
H1544 C1557 0.930 . S
H1545 C1558 0.930 . S
H1546 C1562 0.959 . S
H1547 C1562 0.959 . S
H1548 C1562 0.961 . S
H1549 C1563 0.968 . S
H1550 C1563 0.961 . S
H1551 C1563 0.959 . S
H1552 C1566 0.929 . S
H1553 C1567 0.931 . S
H1554 C1569 0.930 . S
C1555 H1543 0.930 . S
C1555 C1556 1.399 . S
C1555 C1560 1.399 . S
C1556 C1555 1.399 . S
C1556 C1557 1.376 . S
C1557 H1544 0.930 . S
C1557 C1556 1.376 . S
C1557 C1558 1.388 . S
C1558 H1545 0.930 . S
C1558 C1557 1.388 . S
C1558 C1559 1.390 . S
C1559 C1558 1.390 . S
C1559 C1560 1.394 . S
C1559 C1565 1.465 1_556 S
C1560 C1555 1.399 . S
C1560 C1559 1.394 . S
C1560 C1561 1.516 . S
C1561 C1560 1.516 . S
C1561 C1562 1.502 . S
C1561 C1563 1.561 1_556 S
C1561 C1564 1.526 1_556 S
C1562 H1546 0.959 . S
C1562 H1547 0.959 . S
C1562 H1548 0.961 . S
C1562 C1561 1.502 . S
C1563 H1549 0.968 . S
C1563 H1550 0.961 . S
C1563 H1551 0.959 . S
C1563 C1561 1.561 1_554 S
C1564 C1561 1.526 1_554 S
C1564 C1565 1.396 . S
C1564 C1569 1.390 . S
C1565 C1559 1.465 1_554 S
C1565 C1564 1.396 . S
C1565 C1566 1.399 . S
C1566 H1552 0.929 . S
C1566 C1565 1.399 . S
C1566 C1567 1.385 . S
C1567 H1553 0.931 . S
C1567 C1566 1.385 . S
C1567 C1568 1.389 . S
C1568 C1567 1.389 . S
C1568 C1569 1.387 . S
C1569 H1554 0.930 . S
C1569 C1564 1.390 . S
C1569 C1568 1.387 . S
H1570 C1582 0.930 . S
H1571 C1584 0.930 . S
H1572 C1585 0.930 . S
H1573 C1589 0.959 . S
H1574 C1589 0.959 . S
H1575 C1589 0.961 . S
H1576 C1590 0.960 . S
H1577 C1590 0.961 . S
H1578 C1590 0.959 . S
H1579 C1593 0.929 . S
H1580 C1594 0.931 . S
H1581 C1596 0.930 . S
C1582 H1570 0.930 . S
C1582 C1583 1.399 . S
C1582 C1587 1.399 . S
C1583 C1582 1.399 . S
C1583 C1584 1.376 . S
C1584 H1571 0.930 . S
C1584 C1583 1.376 . S
C1584 C1585 1.388 . S
C1585 H1572 0.930 . S
C1585 C1584 1.388 . S
C1585 C1586 1.390 . S
C1586 C1585 1.390 . S
C1586 C1587 1.394 . S
C1586 C1592 1.465 . S
C1587 C1582 1.399 . S
C1587 C1586 1.394 . S
C1587 C1588 1.516 . S
C1588 C1587 1.516 . S
C1588 C1589 1.502 . S
C1588 C1590 1.561 . S
C1588 C1591 1.526 . S
C1589 H1573 0.959 . S
C1589 H1574 0.959 . S
C1589 H1575 0.961 . S
C1589 C1588 1.502 . S
C1590 H1576 0.960 . S
C1590 H1577 0.961 . S
C1590 H1578 0.959 . S
C1590 C1588 1.561 . S
C1591 C1588 1.526 . S
C1591 C1592 1.396 . S
C1591 C1596 1.390 . S
C1592 C1586 1.465 . S
C1592 C1591 1.396 . S
C1592 C1593 1.399 . S
C1593 H1579 0.929 . S
C1593 C1592 1.399 . S
C1593 C1594 1.385 . S
C1594 H1580 0.931 . S
C1594 C1593 1.385 . S
C1594 C1595 1.389 . S
C1595 C1594 1.389 . S
C1595 C1596 1.387 . S
C1596 H1581 0.930 . S
C1596 C1591 1.390 . S
C1596 C1595 1.387 . S
H1597 C1609 0.930 . S
H1598 C1611 0.930 . S
H1599 C1612 0.930 . S
H1600 C1616 0.959 . S
H1601 C1616 0.959 . S
H1602 C1616 0.961 . S
H1603 C1617 0.960 . S
H1604 C1617 0.961 . S
H1605 C1617 0.959 . S
H1606 C1620 0.929 . S
H1607 C1621 0.931 . S
H1608 C1623 0.930 . S
C1609 H1597 0.930 . S
C1609 C1610 1.399 . S
C1609 C1614 1.399 . S
C1610 C1609 1.399 . S
C1610 C1611 1.376 . S
C1611 H1598 0.930 . S
C1611 C1610 1.376 . S
C1611 C1612 1.388 . S
C1612 H1599 0.930 . S
C1612 C1611 1.388 . S
C1612 C1613 1.390 . S
C1613 C1612 1.390 . S
C1613 C1614 1.394 . S
C1613 C1619 1.465 . S
C1614 C1609 1.399 . S
C1614 C1613 1.394 . S
C1614 C1615 1.516 . S
C1615 C1614 1.516 . S
C1615 C1616 1.502 . S
C1615 C1617 1.561 . S
C1615 C1618 1.526 . S
C1616 H1600 0.959 . S
C1616 H1601 0.959 . S
C1616 H1602 0.961 . S
C1616 C1615 1.502 . S
C1617 H1603 0.960 . S
C1617 H1604 0.961 . S
C1617 H1605 0.959 . S
C1617 C1615 1.561 . S
C1618 C1615 1.526 . S
C1618 C1619 1.396 . S
C1618 C1623 1.390 . S
C1619 C1613 1.465 . S
C1619 C1618 1.396 . S
C1619 C1620 1.399 . S
C1620 H1606 0.929 . S
C1620 C1619 1.399 . S
C1620 C1621 1.385 . S
C1621 H1607 0.931 . S
C1621 C1620 1.385 . S
C1621 C1622 1.389 . S
C1622 C1621 1.389 . S
C1622 C1623 1.387 . S
C1623 H1608 0.930 . S
C1623 C1618 1.390 . S
C1623 C1622 1.387 . S
C557 C9 0.855 . S
C569 C515 0.918 . S
C584 C281 1.740 . S
C596 C39 1.923 . S
C611 C417 1.114 . S
C623 C77 1.140 . S
C638 C111 1.719 . S
C650 C345 1.817 . S
C665 C379 1.620 . S
C677 C43 1.412 . S
C692 C73 1.477 . S
C704 C311 1.466 . S
C719 C107 1.802 . S
C731 C451 1.646 . S
C746 C5 1.141 . S
C758 C247 0.974 . S
C773 C277 1.673 . S
C785 C145 1.482 . S
C800 C413 1.225 . S
C812 C179 1.189 . S
C827 C209 1.893 . S
C839 C349 1.693 . S
C854 C213 1.660 . S
C866 C447 1.752 . S
C881 C141 1.834 . S
C893 C383 1.688 . S
C908 C485 1.016 . S
C920 C243 1.006 . S
C935 C315 1.460 . S
C947 C175 1.621 . S
C962 C519 0.890 . S
C974 C481 1.040 . S
C989 C2 1.619 . S
C1001 C54 1.568 . S
C1016 C36 1.928 . S
C1028 C101 1.917 . S
C1043 C70 1.816 . S
C1055 C104 1.801 . S
C1070 C122 1.247 . S
C1082 C33 1.207 . S
C1097 C20 1.570 . S
C1109 C190 1.532 . S
C1124 C169 1.370 . S
C1136 C135 1.394 . S
C1151 C237 1.616 . S
C1163 C67 1.632 . S
C1178 C496 1.521 . S
C1190 C88 1.536 . S
C1205 C292 1.809 . S
C1217 C240 1.768 . S
C1232 C274 1.774 . S
C1244 C308 1.798 . S
C1259 C339 1.850 . S
C1271 C342 1.815 . S
C1286 C360 1.574 . S
C1298 C271 1.601 . S
C1313 C428 1.468 . S
C1325 C258 1.462 . S
C1340 C407 1.269 . S
C1352 C373 1.275 . S
C1367 C305 1.255 . S
C1379 C475 1.245 . S
C1394 C530 1.387 . S
C1406 C326 1.436 . S
C1421 C156 1.720 . S
C1433 C478 1.745 . S
C1448 C138 2.123 . S
C1460 C172 2.097 . S
C1475 C203 1.627 . S
C1487 C206 1.596 . S
C1502 C509 1.072 . S
C1514 C224 1.097 . S
C1529 C394 1.791 . S
C1541 C512 1.781 . S
C1556 C410 1.710 . S
C1568 C376 1.680 . S
C1583 C441 1.803 . S
C1595 C444 1.775 . S
C1610 C543 1.570 . S
C1622 C462 1.529 . S
