# Generated by pormake.
# Topology smm, (6)-cn, num edge types: 1
# Building blocks:
#     Node 0, Type 0, BuildingBlock: CUKXOW_clean_sbu_0, # of connection points: 6
#     Node 1, Type 0, BuildingBlock: CUKXOW_clean_sbu_0, # of connection points: 6
#     Node 2, Type 0, BuildingBlock: CUKXOW_clean_sbu_0, # of connection points: 6
#     Node 3, Type 0, BuildingBlock: CUKXOW_clean_sbu_0, # of connection points: 6
#     Node 4, Type 0, BuildingBlock: CUKXOW_clean_sbu_0, # of connection points: 6
#     Node 5, Type 0, BuildingBlock: CUKXOW_clean_sbu_0, # of connection points: 6
#     Node 6, Type 0, BuildingBlock: CUKXOW_clean_sbu_0, # of connection points: 6
#     Node 7, Type 0, BuildingBlock: CUKXOW_clean_sbu_0, # of connection points: 6
#     Node 8, Type 0, BuildingBlock: CUKXOW_clean_sbu_0, # of connection points: 6
#     Edge 9, Type (0, 0), BuildingBlock: ZUJKAS_clean_linker_0, # of connection points: 2
#     Edge 10, Type (0, 0), BuildingBlock: ZUJKAS_clean_linker_0, # of connection points: 2
#     Edge 11, Type (0, 0), BuildingBlock: ZUJKAS_clean_linker_0, # of connection points: 2
#     Edge 12, Type (0, 0), BuildingBlock: ZUJKAS_clean_linker_0, # of connection points: 2
#     Edge 13, Type (0, 0), BuildingBlock: ZUJKAS_clean_linker_0, # of connection points: 2
#     Edge 14, Type (0, 0), BuildingBlock: ZUJKAS_clean_linker_0, # of connection points: 2
#     Edge 15, Type (0, 0), BuildingBlock: ZUJKAS_clean_linker_0, # of connection points: 2
#     Edge 16, Type (0, 0), BuildingBlock: ZUJKAS_clean_linker_0, # of connection points: 2
#     Edge 17, Type (0, 0), BuildingBlock: ZUJKAS_clean_linker_0, # of connection points: 2
#     Edge 18, Type (0, 0), BuildingBlock: ZUJKAS_clean_linker_0, # of connection points: 2
#     Edge 19, Type (0, 0), BuildingBlock: ZUJKAS_clean_linker_0, # of connection points: 2
#     Edge 20, Type (0, 0), BuildingBlock: ZUJKAS_clean_linker_0, # of connection points: 2
#     Edge 21, Type (0, 0), BuildingBlock: ZUJKAS_clean_linker_0, # of connection points: 2
#     Edge 22, Type (0, 0), BuildingBlock: ZUJKAS_clean_linker_0, # of connection points: 2
#     Edge 23, Type (0, 0), BuildingBlock: ZUJKAS_clean_linker_0, # of connection points: 2
#     Edge 24, Type (0, 0), BuildingBlock: ZUJKAS_clean_linker_0, # of connection points: 2
#     Edge 25, Type (0, 0), BuildingBlock: ZUJKAS_clean_linker_0, # of connection points: 2
#     Edge 26, Type (0, 0), BuildingBlock: ZUJKAS_clean_linker_0, # of connection points: 2
#     Edge 27, Type (0, 0), BuildingBlock: ZUJKAS_clean_linker_0, # of connection points: 2
#     Edge 28, Type (0, 0), BuildingBlock: ZUJKAS_clean_linker_0, # of connection points: 2
#     Edge 29, Type (0, 0), BuildingBlock: ZUJKAS_clean_linker_0, # of connection points: 2
#     Edge 30, Type (0, 0), BuildingBlock: ZUJKAS_clean_linker_0, # of connection points: 2
#     Edge 31, Type (0, 0), BuildingBlock: ZUJKAS_clean_linker_0, # of connection points: 2
#     Edge 32, Type (0, 0), BuildingBlock: ZUJKAS_clean_linker_0, # of connection points: 2
#     Edge 33, Type (0, 0), BuildingBlock: ZUJKAS_clean_linker_0, # of connection points: 2
#     Edge 34, Type (0, 0), BuildingBlock: ZUJKAS_clean_linker_0, # of connection points: 2
#     Edge 35, Type (0, 0), BuildingBlock: ZUJKAS_clean_linker_0, # of connection points: 2
# Relax obj value: 0.088
# Max RMSD: 0.187
# Mean RMSD: 0.153
data_MOF--net-smm--node1-CUKXOW_clean_sbu_0--edge1-ZUJKAS_clean_linker_0
_symmetry_space_group_name_H-M    P1
_symmetry_Int_Tables_number       1
_symmetry_cell_setting            triclinic
loop_
_symmetry_equiv_pos_as_xyz
'x, y, z'
_cell_length_a     73.597841
_cell_length_b     65.317031
_cell_length_c     19.26677
_cell_angle_alpha  92.729491
_cell_angle_beta   92.93808
_cell_angle_gamma 120.65354
loop_
_atom_site_label
_atom_site_type_symbol
_atom_site_fract_x
_atom_site_fract_y
_atom_site_fract_z
_atom_type_partial_charge
Tb0 Tb 1.02064 0.23165 0.96188 0.0
C1 C 0.04971 0.23445 0.09327 0.0
Tb2 Tb 0.05309 0.21644 0.94348 0.0
O3 O 0.99503 0.19554 0.92634 0.0
O4 O 1.02242 0.20063 0.98042 0.0
O5 O 0.03696 0.24126 0.06576 0.0
C6 C 0.07501 0.19399 0.94134 0.0
O7 O 0.05688 0.22288 0.05622 0.0
C8 C 0.06491 0.25978 0.90784 0.0
C9 C 1.02621 0.21672 0.81358 0.0
O10 O 0.08258 0.2162 0.96347 0.0
O11 O 0.05505 0.18441 0.92037 0.0
O12 O 0.07154 0.24646 0.88079 0.0
O13 O 0.05392 0.24949 0.95706 0.0
O14 O 0.03435 0.20493 0.84341 0.0
O15 O 1.02214 0.23146 0.84994 0.0
C16 C 0.99829 0.25135 0.00157 0.0
O17 O 0.99639 0.23179 0.02194 0.0
O18 O 1.0127 0.25987 0.95741 0.0
C19 C 1.00491 0.18509 0.94851 0.0
Tb20 Tb 0.8357 0.89258 0.04195 0.0
C21 C 0.85563 0.88312 0.91158 0.0
Tb22 Tb 0.88036 0.90059 0.06107 0.0
O23 O 0.84832 0.93089 0.06745 0.0
O24 O 0.86647 0.91925 0.01923 0.0
O25 O 0.83841 0.88066 0.93791 0.0
C26 C 0.92148 0.91694 0.0544 0.0
O27 O 0.87396 0.89155 0.94931 0.0
C28 C 0.85071 0.86029 0.1039 0.0
C29 C 0.85991 0.90859 0.18942 0.0
O30 O 0.90637 0.89492 0.03913 0.0
O31 O 0.91345 0.92967 0.07479 0.0
O32 O 0.87039 0.8716 0.12937 0.0
O33 O 0.84896 0.87048 0.05199 0.0
O34 O 0.87787 0.91637 0.1594 0.0
O35 O 0.84102 0.89573 0.15425 0.0
C36 C 0.79434 0.87463 0.01061 0.0
O37 O 0.80248 0.86647 0.05488 0.0
O38 O 0.80949 0.89318 -0.01463 0.0
C39 C 0.86681 0.9374 0.04605 0.0
Tb40 Tb 0.22927 0.06901 0.93751 0.0
C41 C 0.20429 0.0353 0.05674 0.0
Tb42 Tb 0.18001 1.03143 0.91348 0.0
O43 O 0.22319 0.09772 0.91476 0.0
O44 O 0.20039 0.06718 0.95704 0.0
O45 O 0.22264 0.05092 0.03341 0.0
C46 C 0.13878 1.01494 0.91977 0.0
O47 O 0.1857 1.02587 0.01993 0.0
C48 C 0.20281 1.01158 0.88698 0.0
C49 C 0.20635 0.05723 0.78877 0.0
O50 O 0.15358 1.02733 0.9693 0.0
O51 O 0.14713 1.01162 0.86563 0.0
O52 O 0.18213 0.99984 0.87976 0.0
O53 O 0.20861 0.03258 0.90935 0.0
O54 O 0.18804 0.04927 0.81727 0.0
O55 O 0.22449 0.0633 0.82519 0.0
C56 C 0.27044 0.09303 0.98031 0.0
O57 O 0.26166 0.07657 0.92852 0.0
O58 O 0.25611 0.0963 0.00634 0.0
C59 C 0.20388 0.0863 0.93269 0.0
Tb60 Tb 0.69281 0.57873 0.34747 0.0
C61 C 0.6651 0.54619 0.21213 0.0
Tb62 Tb 0.66147 0.52275 0.35154 0.0
O63 O 0.71883 0.5736 0.38293 0.0
O64 O 0.69245 0.54627 0.32234 0.0
O65 O 0.67435 0.56756 0.24707 0.0
C66 C 0.64672 0.47584 0.35217 0.0
O67 O 0.66165 0.52658 0.24072 0.0
C68 C 0.64236 0.54732 0.37493 0.0
C69 C 0.68345 0.55719 0.49029 0.0
O70 O 0.66404 0.4927 0.38681 0.0
O71 O 0.63784 0.48547 0.31723 0.0
O72 O 0.63296 0.52421 0.37517 0.0
O73 O 0.66106 0.5544 0.36164 0.0
O74 O 0.67579 0.53549 0.4582 0.0
O75 O 0.68862 0.57662 0.45734 0.0
C76 C 0.71463 0.6243 0.31669 0.0
O77 O 0.69987 0.61591 0.3598 0.0
O78 O 0.71701 0.60709 0.29175 0.0
C79 C 0.7096 0.55164 0.35624 0.0
Tb80 Tb 0.50655 0.17657 0.39617 0.0
C81 C 0.53094 0.17161 0.27417 0.0
Tb82 Tb 0.55287 0.19105 0.42803 0.0
O83 O 0.51663 0.20835 0.33889 0.0
O84 O 0.53592 0.20914 0.42232 0.0
O85 O 0.51224 0.16534 0.29646 0.0
C86 C 0.59506 0.21744 0.42642 0.0
O87 O 0.54882 0.18262 0.31548 0.0
C88 C 0.52562 0.14677 0.45284 0.0
C89 C 0.52712 0.19122 0.54976 0.0
O90 O 0.58126 0.219 0.38608 0.0
O91 O 0.58511 0.20083 0.46815 0.0
O92 O 0.54515 0.15879 0.48044 0.0
O93 O 0.52351 0.15842 0.40572 0.0
O94 O 0.54593 0.20294 0.52453 0.0
O95 O 0.50942 0.17693 0.50925 0.0
C96 C 0.46463 0.15756 0.37365 0.0
O97 O 0.47768 0.17808 0.40763 0.0
O98 O 0.47516 0.14765 0.35442 0.0
C99 C 0.53501 0.22086 0.37372 0.0
Tb100 Tb 0.8608 0.36767 0.36156 0.0
C101 C 0.854 0.39293 0.23582 0.0
Tb102 Tb 0.84264 0.40083 0.38561 0.0
O103 O 0.83075 0.33628 0.38181 0.0
O104 O 0.83113 0.36553 0.34133 0.0
O105 O 0.86389 0.38245 0.26178 0.0
C106 C 0.82019 0.42258 0.38551 0.0
O107 O 0.84288 0.39949 0.273 0.0
C108 C 0.88303 0.4191 0.42795 0.0
C109 C 0.847 0.37326 0.5066 0.0
O110 O 0.83819 0.43028 0.35882 0.0
O111 O 0.81489 0.40269 0.413 0.0
O112 O 0.87098 0.42577 0.45573 0.0
O113 O 0.8728 0.4048 0.37553 0.0
O114 O 0.83523 0.38102 0.47694 0.0
O115 O 0.86149 0.37106 0.47433 0.0
C116 C 0.88352 0.34825 0.32445 0.0
O117 O 0.86455 0.34167 0.29837 0.0
O118 O 0.88969 0.36561 0.37289 0.0
C119 C 0.81943 0.34564 0.3649 0.0
Tb120 Tb 0.33859 0.87709 0.63471 0.0
C121 C 0.36536 0.87765 0.76766 0.0
Tb122 Tb 0.36846 0.85609 0.62461 0.0
O123 O 0.31142 0.84182 0.59876 0.0
O124 O 0.33742 0.84438 0.6552 0.0
O125 O 0.35703 0.88873 0.73501 0.0
C126 C 0.38412 0.82708 0.62284 0.0
O127 O 0.36777 0.86086 0.73601 0.0
C128 C 0.38948 0.90266 0.60808 0.0
C129 C 0.34755 0.86379 0.48892 0.0
O130 O 0.39052 0.84576 0.6661 0.0
O131 O 0.36866 0.82453 0.58024 0.0
O132 O 0.39788 0.88936 0.60591 0.0
O133 O 0.37041 0.88913 0.61927 0.0
O134 O 0.35425 0.85051 0.5183 0.0
O135 O 0.34285 0.87804 0.52501 0.0
C136 C 0.31899 0.90091 0.6669 0.0
O137 O 0.31682 0.88233 0.69581 0.0
O138 O 0.33221 0.90611 0.6191 0.0
C139 C 0.31987 0.8299 0.62155 0.0
Tb140 Tb 0.14653 0.53179 0.65839 0.0
C141 C 0.16691 0.52246 0.53 0.0
Tb142 Tb 0.1937 0.54307 0.67485 0.0
O143 O 0.15827 0.57002 0.6818 0.0
O144 O 0.17713 0.55927 0.63464 0.0
O145 O 0.14917 0.51619 0.55994 0.0
C146 C 0.23554 0.56424 0.67027 0.0
O147 O 0.18604 0.53577 0.56325 0.0
C148 C 0.16674 0.49863 0.70361 0.0
C149 C 0.17119 0.54591 0.80663 0.0
O150 O 0.2216 0.54303 0.64252 0.0
O151 O 0.22595 0.57367 0.70178 0.0
O152 O 0.18723 0.50838 0.70873 0.0
O153 O 0.16302 0.51427 0.68313 0.0
O154 O 0.18951 0.55425 0.77804 0.0
O155 O 0.15234 0.53408 0.77035 0.0
C156 C 0.10487 0.51377 0.62977 0.0
O157 O 0.11339 0.5079 0.67993 0.0
O158 O 0.11982 0.52982 0.59635 0.0
C159 C 0.17694 0.57718 0.66098 0.0
Tb160 Tb 0.54466 0.71166 0.61217 0.0
C161 C 0.52042 0.67927 0.73167 0.0
Tb162 Tb 0.49612 0.6713 0.58619 0.0
O163 O 0.53557 0.73739 0.58235 0.0
O164 O 0.51458 0.70713 0.63012 0.0
O165 O 0.53876 0.69228 0.70474 0.0
C166 C 0.45438 0.65319 0.57737 0.0
O167 O 0.50177 0.67222 0.69784 0.0
C168 C 0.52138 0.6544 0.56284 0.0
C169 C 0.52373 0.69503 0.4601 0.0
O170 O 0.4642 0.64355 0.60656 0.0
O171 O 0.46805 0.67271 0.55152 0.0
O172 O 0.50074 0.64138 0.55302 0.0
O173 O 0.52574 0.67495 0.58484 0.0
O174 O 0.50458 0.68472 0.48395 0.0
O175 O 0.54177 0.70459 0.50072 0.0
C176 C 0.585 0.74087 0.6604 0.0
O177 O 0.56884 0.74119 0.683 0.0
O178 O 0.57852 0.72415 0.6097 0.0
C179 C 0.51659 0.72512 0.60225 0.0
H180 H 0.08795 0.28213 0.80077 0.0
H181 H 0.09967 0.32253 0.76875 0.0
H182 H 0.06662 0.33226 0.93377 0.0
H183 H 0.05544 0.29196 0.96753 0.0
H184 H 0.07917 0.34487 0.72513 0.0
H185 H 0.12547 0.38929 0.9794 0.0
H186 H 0.11467 0.35794 0.95555 0.0
H187 H 0.09781 0.36843 -0.01499 0.0
C188 C 0.0832 0.29288 0.83038 0.0
C189 C 0.07093 0.28392 0.88711 0.0
C190 C 0.08983 0.31598 0.81176 0.0
C191 C 0.08437 0.33074 0.8494 0.0
C192 C 0.07148 0.32151 0.90477 0.0
H193 H 0.12264 0.47331 0.69564 0.0
H194 H 0.09953 0.43283 0.73248 0.0
C195 C 0.06493 0.29838 0.92371 0.0
C196 C 0.09284 0.3559 0.83142 0.0
H197 H 0.1257 0.41419 0.89505 0.0
C198 C 0.08916 0.36004 0.76252 0.0
C199 C 0.10601 0.37579 0.87997 0.0
C200 C 0.11143 0.37276 0.95395 0.0
C201 C 0.09873 0.38332 0.74044 0.0
C202 C 0.11216 0.40314 0.78873 0.0
C203 C 0.11526 0.39904 0.85813 0.0
C204 C 0.12542 0.42783 0.76676 0.0
C205 C 0.09529 0.38647 0.66477 0.0
C206 C 0.14754 0.43867 0.77466 0.0
C207 C 0.16057 0.46158 0.75413 0.0
C208 C 0.15192 0.47447 0.72531 0.0
C209 C 0.12974 0.46384 0.71774 0.0
C210 C 0.11657 0.44066 0.73837 0.0
H211 H 0.0872 0.3692 0.63199 0.0
H212 H 0.08534 0.39468 0.66016 0.0
H213 H 0.11067 0.3986 0.64385 0.0
H214 H 0.15481 0.42926 0.79622 0.0
H215 H 0.17758 0.46918 0.7608 0.0
H216 H 0.76294 0.82988 0.0335 0.0
H217 H 0.7271 0.8074 0.97409 0.0
H218 H 0.73935 0.86922 0.86725 0.0
H219 H 0.77541 0.89146 0.92473 0.0
H220 H 0.69343 0.81297 0.96888 0.0
H221 H 0.72195 0.81965 0.7056 0.0
H222 H 0.73944 0.82835 0.78433 0.0
H223 H 0.73159 0.84831 0.75158 0.0
C224 C 0.75787 0.83872 -0.00211 0.0
C225 C 0.77191 0.86231 -0.01682 0.0
C226 C 0.73744 0.82586 0.96385 0.0
C227 C 0.73075 0.83644 0.91484 0.0
C228 C 0.7444 0.86047 0.90321 0.0
H229 H 0.60034 0.7798 0.75273 0.0
H230 H 0.6359 0.80309 0.81302 0.0
C231 C 0.76489 0.87323 0.93659 0.0
C232 C 0.70963 0.82222 0.87519 0.0
H233 H 0.68498 0.80432 0.7101 0.0
C234 C 0.69158 0.811 0.91231 0.0
C235 C 0.70727 0.81923 0.80133 0.0
C236 C 0.7261 0.82931 0.75836 0.0
C237 C 0.67119 0.79727 0.87765 0.0
C238 C 0.66876 0.7953 0.80379 0.0
C239 C 0.68684 0.80611 0.76668 0.0
C240 C 0.64759 0.78203 0.7641 0.0
C241 C 0.65254 0.78463 0.92067 0.0
C242 C 0.64267 0.76324 0.71376 0.0
C243 C 0.62246 0.75022 0.67805 0.0
C244 C 0.60689 0.75578 0.69247 0.0
C245 C 0.61203 0.77503 0.74117 0.0
C246 C 0.63227 0.7882 0.77612 0.0
H247 H 0.65749 0.78181 0.97307 0.0
H248 H 0.64526 0.79575 0.92833 0.0
H249 H 0.6403 0.76702 0.89434 0.0
H250 H 0.65432 0.75831 0.70321 0.0
H251 H 0.61885 0.73543 0.64073 0.0
H252 H 0.24602 0.03281 0.90767 0.0
H253 H 0.26809 1.01738 0.86599 0.0
H254 H 0.21177 0.95281 0.77822 0.0
H255 H 0.18989 0.96859 0.81771 0.0
H256 H 0.26915 0.97794 0.89647 0.0
H257 H 0.24733 0.97124 0.61371 0.0
H258 H 0.24119 0.98754 0.67719 0.0
H259 H 0.22455 0.95558 0.66179 0.0
C260 C 0.23846 1.01557 0.87847 0.0
C261 C 0.21633 1.00218 0.86476 0.0
C262 C 0.25103 1.00665 0.85505 0.0
C263 C 0.24165 0.98414 0.81738 0.0
C264 C 0.21946 0.9705 0.80528 0.0
H265 H 0.29058 0.89 0.76382 0.0
H266 H 0.27322 0.91177 0.7995 0.0
C267 C 0.20695 0.97946 0.82849 0.0
C268 C 0.25489 0.97446 0.79287 0.0
H269 H 0.26431 0.94986 0.64864 0.0
C270 C 0.26824 0.97201 0.84217 0.0
C271 C 0.25404 0.9671 0.7218 0.0
C272 C 0.24118 0.97072 0.66547 0.0
C273 C 0.28008 0.96158 0.82284 0.0
C274 C 0.27821 0.95288 0.75248 0.0
C275 C 0.26553 0.9562 0.70271 0.0
C276 C 0.28876 0.93966 0.72999 0.0
C277 C 0.29456 0.96009 0.87807 0.0
C278 C 0.30277 0.94759 0.67722 0.0
C279 C 0.31258 0.93498 0.65616 0.0
C280 C 0.30844 0.91416 0.68728 0.0
C281 C 0.29419 0.90608 0.73922 0.0
C282 C 0.28437 0.91862 0.76007 0.0
H283 H 0.29925 0.97381 0.92243 0.0
H284 H 0.28611 0.94228 0.89883 0.0
H285 H 0.30913 0.96242 0.85638 0.0
H286 H 0.30628 0.96366 0.65282 0.0
H287 H 0.32347 0.94158 0.6159 0.0
H288 H 0.43851 0.1178 0.28794 0.0
H289 H 0.40506 0.10793 0.2246 0.0
H290 H 0.40775 0.16882 0.33351 0.0
H291 H 0.4417 0.17921 0.39574 0.0
H292 H 0.36647 0.09766 0.26133 0.0
H293 H 0.40435 0.18224 0.13162 0.0
H294 H 0.41952 0.17249 0.1816 0.0
H295 H 0.40699 0.18636 0.22514 0.0
C296 C 0.43182 0.1289 0.29913 0.0
C297 C 0.44274 0.1494 0.34616 0.0
C298 C 0.41273 0.12327 0.26281 0.0
C299 C 0.4042 0.13799 0.27299 0.0
C300 C 0.41438 0.1576 0.32345 0.0
H301 H 0.29021 0.12829 0.08548 0.0
H302 H 0.32346 0.1401 0.15463 0.0
C303 C 0.43361 0.16337 0.35951 0.0
C304 C 0.38513 0.13316 0.22868 0.0
H305 H 0.3672 0.157 0.10808 0.0
C306 C 0.36663 0.11063 0.22783 0.0
C307 C 0.38545 0.15006 0.1845 0.0
C308 C 0.40518 0.17406 0.18005 0.0
C309 C 0.3484 0.10462 0.1845 0.0
C310 C 0.34875 0.12154 0.14068 0.0
C311 C 0.3671 0.14411 0.1418 0.0
C312 C 0.32995 0.11613 0.09431 0.0
C313 C 0.3288 0.08032 0.18624 0.0
C314 C 0.32307 0.09936 0.03618 0.0
C315 C 0.3042 0.09276 -0.00382 0.0
C316 C 0.29196 0.10278 0.01418 0.0
C317 C 0.29939 0.12034 0.07051 0.0
C318 C 0.31831 0.12705 0.11009 0.0
H319 H 0.32997 0.07087 0.23114 0.0
H320 H 0.31454 0.08194 0.18918 0.0
H321 H 0.32653 0.06923 0.13746 0.0
H322 H 0.33202 0.09094 0.02297 0.0
H323 H 0.29875 0.0791 0.95319 0.0
H324 H 0.87042 0.30987 0.23173 0.0
H325 H 0.89203 0.29581 0.17904 0.0
H326 H 0.9478 0.35233 0.29946 0.0
H327 H 0.92602 0.36613 0.35387 0.0
H328 H 0.92442 0.3193 0.09862 0.0
H329 H 0.95253 0.29457 0.33546 0.0
H330 H 0.93128 0.30077 0.33495 0.0
H331 H 0.9584 0.32489 0.34049 0.0
C332 C 0.88725 0.31911 0.24768 0.0
C333 C 0.89655 0.33897 0.2972 0.0
C334 C 0.8996 0.31112 0.2173 0.0
C335 C 0.92152 0.32287 0.23561 0.0
C336 C 0.93086 0.34268 0.28549 0.0
H337 H 1.00492 0.29592 0.98196 0.0
H338 H 0.98751 0.31527 0.03752 0.0
C339 C 0.91844 0.35059 0.31643 0.0
C340 C 0.93445 0.31459 0.20058 0.0
H341 H 0.96652 0.29173 0.23018 0.0
C342 C 0.9337 0.31334 0.12737 0.0
C343 C 0.94642 0.30667 0.23814 0.0
C344 C 0.94711 0.30655 0.31654 0.0
C345 C 0.94428 0.30404 0.09064 0.0
C346 C 0.95633 0.29624 0.12821 0.0
C347 C 0.95738 0.29786 0.20146 0.0
C348 C 0.96679 0.2848 0.09278 0.0
C349 C 0.94177 0.30179 0.01193 0.0
C350 C 0.96113 0.26143 0.10594 0.0
C351 C 0.97112 0.25052 0.07487 0.0
C352 C 0.98699 0.26273 0.02987 0.0
C353 C 0.99257 0.28605 0.01591 0.0
C354 C 0.98261 0.29706 0.04747 0.0
H355 H 0.92813 0.30329 -0.00852 0.0
H356 H 0.95633 0.31632 -0.00768 0.0
H357 H 0.93946 0.28445 -0.00936 0.0
H358 H 0.94897 0.25161 0.14059 0.0
H359 H 0.96654 0.23255 0.08673 0.0
H360 H 0.85487 0.83676 0.20988 0.0
H361 H 0.82894 0.79754 0.24424 0.0
H362 H 0.78299 0.79216 0.08477 0.0
H363 H 0.80949 0.83096 0.04738 0.0
H364 H 0.79226 0.78015 0.29507 0.0
H365 H 0.77974 0.7303 0.03879 0.0
H366 H 0.8003 0.76116 0.05728 0.0
H367 H 0.77332 0.75329 0.03508 0.0
C368 C 0.83926 0.82719 0.18185 0.0
C369 C 0.83424 0.83695 0.12579 0.0
C370 C 0.82438 0.80476 0.2018 0.0
C371 C 0.80401 0.79154 0.16657 0.0
C372 C 0.79872 0.80162 0.11179 0.0
H373 H 0.70742 0.66103 0.34601 0.0
H374 H 0.72726 0.70179 0.30933 0.0
C375 C 0.81378 0.82398 0.09102 0.0
C376 C 0.78869 0.76721 0.18739 0.0
H377 H 0.7587 0.7083 0.12665 0.0
C378 C 0.78488 0.76444 0.25813 0.0
C379 C 0.77917 0.74659 0.13952 0.0
C380 C 0.78347 0.74787 0.0636 0.0
C381 C 0.7723 0.74178 0.28249 0.0
C382 C 0.76258 0.7212 0.23448 0.0
C383 C 0.766 0.72402 0.16353 0.0
C384 C 0.75008 0.69646 0.25691 0.0
C385 C 0.77037 0.74011 0.35991 0.0
C386 C 0.75579 0.67956 0.23818 0.0
C387 C 0.74425 0.65625 0.25791 0.0
C388 C 0.72677 0.64923 0.29735 0.0
C389 C 0.72096 0.66603 0.31625 0.0
C390 C 0.73239 0.68937 0.29564 0.0
H391 H 0.7832 0.75643 0.39063 0.0
H392 H 0.755 0.7381 0.3721 0.0
H393 H 0.77092 0.72444 0.37719 0.0
H394 H 0.76931 0.68446 0.20837 0.0
H395 H 0.74909 0.6437 0.24244 0.0
H396 H 0.07181 0.48103 0.69778 0.0
H397 H 0.03377 0.46418 0.66691 0.0
H398 H 0.04815 0.50625 0.48983 0.0
H399 H 0.08609 0.52346 0.52135 0.0
H400 H 1.01833 0.50825 0.56138 0.0
H401 H 0.99662 0.41382 0.51027 0.0
H402 H 1.00953 0.42691 0.59574 0.0
H403 H 1.02379 0.43821 0.52018 0.0
C404 C 0.06681 0.48663 0.65225 0.0
C405 C 0.08188 0.5035 0.61187 0.0
C406 C 0.04507 0.47687 0.63434 0.0
C407 C 0.03803 0.48363 0.57531 0.0
C408 C 0.05315 0.50066 0.5354 0.0
H409 H 0.91175 0.41335 0.35856 0.0
H410 H 0.94913 0.42883 0.39625 0.0
C411 C 0.07483 0.51047 0.55344 0.0
C412 C 1.01499 0.47348 0.55563 0.0
H413 H 0.96822 0.42124 0.50969 0.0
C414 C 1.00738 0.48922 0.55011 0.0
C415 C 1.00072 0.44866 0.53993 0.0
C416 C 1.00806 0.43091 0.54111 0.0
C417 C 0.98596 0.48088 0.52978 0.0
C418 C 0.97156 0.45601 0.51598 0.0
C419 C 0.97919 0.44027 0.52099 0.0
C420 C 0.94867 0.44607 0.4944 0.0
C421 C 0.97909 0.49887 0.52148 0.0
C422 C 0.93582 0.45021 0.53744 0.0
C423 C 0.91446 0.4414 0.51588 0.0
C424 C 0.90548 0.42802 0.45127 0.0
C425 C 0.91821 0.42346 0.40885 0.0
C426 C 0.93958 0.43234 0.4303 0.0
H427 H 0.99275 0.51695 0.51537 0.0
H428 H 0.96736 0.49344 0.47558 0.0
H429 H 0.97156 0.50011 0.5687 0.0
H430 H 0.9423 0.46027 0.58779 0.0
H431 H 0.90495 0.445 0.54986 0.0
H432 H 0.51149 0.60988 0.51524 0.0
H433 H 0.53556 0.59635 0.48243 0.0
H434 H 0.58897 0.66767 0.53306 0.0
H435 H 0.5648 0.68109 0.56741 0.0
H436 H 0.56291 0.61097 0.38029 0.0
H437 H 0.6076 0.62816 0.63886 0.0
H438 H 0.58321 0.62843 0.62861 0.0
H439 H 0.60759 0.65352 0.6067 0.0
C440 C 0.52838 0.62266 0.51983 0.0
C441 C 0.5363 0.64657 0.54422 0.0
C442 C 0.54213 0.61492 0.50091 0.0
C443 C 0.56414 0.63088 0.50602 0.0
C444 C 0.57211 0.65487 0.53001 0.0
H445 H 0.66162 0.59617 0.39902 0.0
H446 H 0.64448 0.61915 0.42783 0.0
C447 C 0.5583 0.66259 0.54926 0.0
C448 C 0.57842 0.62226 0.48443 0.0
H449 H 0.61802 0.61307 0.54501 0.0
C450 C 0.57503 0.61158 0.41629 0.0
C451 C 0.59438 0.62317 0.53116 0.0
C452 C 0.59838 0.63375 0.6056 0.0
C453 C 0.58676 0.60134 0.39415 0.0
C454 C 0.60219 0.60153 0.4415 0.0
C455 C 0.60619 0.61298 0.5088 0.0
C456 C 0.61289 0.58809 0.42382 0.0
C457 C 0.58238 0.59011 0.32036 0.0
C458 C 0.6009 0.5631 0.41289 0.0
C459 C 0.61063 0.55008 0.3968 0.0
C460 C 0.63258 0.56176 0.39107 0.0
C461 C 0.64467 0.58678 0.40233 0.0
C462 C 0.63491 0.59987 0.41905 0.0
H463 H 0.57445 0.5969 0.28573 0.0
H464 H 0.59727 0.59356 0.29852 0.0
H465 H 0.57174 0.57049 0.3202 0.0
H466 H 0.58396 0.55361 0.41736 0.0
H467 H 0.60091 0.5308 0.38881 0.0
H468 H 0.53304 0.1151 0.51704 0.0
H469 H 0.50727 0.07444 0.54319 0.0
H470 H 0.45643 0.08234 0.45418 0.0
H471 H 0.48235 0.12261 0.42594 0.0
H472 H 0.47634 0.05776 0.62493 0.0
H473 H 0.44015 1.01974 0.35582 0.0
H474 H 0.4639 0.04865 0.3736 0.0
H475 H 0.43829 0.04516 0.3833 0.0
C476 C 0.51638 0.10807 0.50235 0.0
C477 C 0.50976 0.12199 0.468 0.0
C478 C 0.5016 0.08479 0.51751 0.0
C479 C 0.47978 0.07487 0.49942 0.0
C480 C 0.47314 0.08903 0.4666 0.0
H481 H 0.37328 0.93207 0.58411 0.0
H482 H 0.39345 0.97455 0.5602 0.0
C483 C 0.48798 0.1122 0.45051 0.0
C484 C 0.46416 0.05005 0.51685 0.0
H485 H 0.42419 0.99496 0.44672 0.0
C486 C 0.46495 0.04412 0.58575 0.0
C487 C 0.44908 0.03203 0.46615 0.0
C488 C 0.44789 0.0366 0.39048 0.0
C489 C 0.45146 1.02086 0.60497 0.0
C490 C 0.43668 1.00285 0.55417 0.0
C491 C 0.43539 1.00882 0.48579 0.0
C492 C 0.42407 0.97732 0.56966 0.0
C493 C 0.45327 1.01559 0.67955 0.0
C494 C 0.4345 0.96474 0.58238 0.0
C495 C 0.42307 0.94067 0.59542 0.0
C496 C 0.40089 0.92849 0.59655 0.0
C497 C 0.39035 0.94103 0.58419 0.0
C498 C 0.40185 0.96524 0.57028 0.0
H499 H 0.46158 0.03217 0.71542 0.0
H500 H 0.43736 1.00358 0.69724 0.0
H501 H 0.46245 1.00642 0.68322 0.0
H502 H 0.45155 0.97353 0.58139 0.0
H503 H 0.43169 0.93152 0.60444 0.0
H504 H 0.16831 0.0714 0.00203 0.0
H505 H 0.1443 0.08701 -0.00059 0.0
H506 H 0.18323 0.13885 0.8604 0.0
H507 H 0.20681 0.12263 0.86093 0.0
H508 H 0.15351 0.13208 0.04171 0.0
H509 H 0.12418 0.111 0.7618 0.0
H510 H 0.13789 0.09791 0.80366 0.0
H511 H 0.15258 0.12765 0.7762 0.0
C512 C 0.17139 0.08565 0.96939 0.0
C513 C 0.18914 0.09541 0.93041 0.0
C514 C 0.15781 0.09476 0.96855 0.0
C515 C 0.16171 0.11385 0.92872 0.0
C516 C 0.17956 0.12375 0.89017 0.0
H517 H 0.11678 0.2127 -0.01643 0.0
H518 H 0.13711 0.19248 0.9813 0.0
C519 C 0.19312 0.1146 0.89093 0.0
C520 C 0.14775 0.12416 0.93025 0.0
H521 H 0.11693 0.13774 0.82641 0.0
C522 C 0.14541 0.13318 -0.00534 0.0
C523 C 0.13693 0.12532 0.86903 0.0
C524 C 0.13781 0.11474 0.79883 0.0
C525 C 0.13304 0.14387 -0.00069 0.0
C526 C 0.12298 0.14598 0.93772 0.0
C527 C 0.12483 0.13638 0.87352 0.0
C528 C 0.11062 0.15826 0.93882 0.0
C529 C 0.13066 0.15259 0.0703 0.0
C530 C 0.08907 0.14595 0.91409 0.0
C531 C 0.07744 0.15753 0.91501 0.0
C532 C 0.08721 0.18168 0.94023 0.0
C533 C 0.10881 0.19404 0.96424 0.0
C534 C 0.12042 0.18247 0.96333 0.0
H535 H 0.1342 0.1438 0.11253 0.0
H536 H 0.14197 0.17211 0.0795 0.0
H537 H 0.11437 0.14926 0.07381 0.0
H538 H 0.08119 0.12732 0.8946 0.0
H539 H 0.06082 0.14759 0.89602 0.0
H540 H 0.90355 0.95331 0.98247 0.0
H541 H 0.93102 0.99476 0.96988 0.0
H542 H 0.89542 1.01947 0.08093 0.0
H543 H 0.86831 0.97811 0.09559 0.0
H544 H 0.9279 1.02778 0.90229 0.0
H545 H 0.95369 0.06182 0.17928 0.0
H546 H 0.93751 1.03034 0.15202 0.0
H547 H 0.92559 0.0484 0.16116 0.0
C548 C 0.9018 0.96761 0.00538 0.0
C549 C 0.88388 0.96246 0.04072 0.0
C550 C 0.91746 0.99131 -0.00218 0.0
C551 C 0.91556 1.01038 0.02545 0.0
C552 C 0.89762 1.0052 0.06074 0.0
H553 H 0.96564 0.1512 0.8923 0.0
H554 H 0.94615 0.10868 0.90931 0.0
C555 C 0.88202 0.98151 0.06862 0.0
C556 C 0.93159 0.03556 0.01377 0.0
H557 H 0.96322 0.09143 0.09691 0.0
C558 C 0.93579 0.04162 0.945 0.0
C559 C 0.94227 0.05367 0.06932 0.0
C560 C 0.93973 0.0482 0.1446 0.0
C561 C 0.94958 0.06533 0.93015 0.0
C562 C 0.95915 0.08368 -0.01459 0.0
C563 C 0.95572 0.07748 0.05437 0.0
C564 C 0.97171 0.10946 0.97254 0.0
C565 C 0.95374 0.07046 0.85523 0.0
C566 C 0.99256 0.12436 0.00328 0.0
C567 C 1.00376 0.14889 -0.00606 0.0
C568 C 0.9942 0.15896 0.95422 0.0
C569 C 0.97348 0.14397 0.92289 0.0
C570 C 0.96235 0.11957 0.93223 0.0
H571 H 0.95132 0.05449 0.82337 0.0
H572 H 0.94247 0.07539 0.83257 0.0
H573 H 0.97013 0.08545 0.85113 0.0
H574 H 1.0001 0.11703 0.03497 0.0
H575 H 1.01967 0.16002 0.01898 0.0
H576 H 0.93954 0.89201 0.00846 0.0
H577 H 0.97634 0.90816 0.98138 0.0
H578 H 0.99052 0.97935 0.04542 0.0
H579 H 0.95366 0.96332 0.07205 0.0
H580 H 1.00485 0.97448 0.91378 0.0
H581 H 0.02903 0.93519 0.12306 0.0
H582 H 1.00537 0.91439 0.06901 0.0
H583 H 1.00559 0.93743 0.12443 0.0
C584 C 0.95058 0.91108 0.01739 0.0
C585 C 0.94388 0.92644 0.04276 0.0
C586 C 0.97155 0.92025 0.00201 0.0
C587 C 0.98613 0.94489 0.01199 0.0
C588 C 0.97947 0.96026 0.03755 0.0
H589 H 0.12161 1.02239 0.03163 0.0
H590 H 0.0841 1.00525 0.04854 0.0
C591 C 0.9585 0.95109 0.05305 0.0
C592 C 1.00825 0.95472 -0.00533 0.0
H593 H 0.05377 0.95505 0.04083 0.0
C594 C 1.01558 0.97023 0.94137 0.0
C595 C 1.02214 0.94919 0.03117 0.0
C596 C 1.01527 0.9333 0.09052 0.0
C597 C 0.03654 0.98042 0.92357 0.0
C598 C 0.05036 0.97472 0.95971 0.0
C599 C 0.04301 0.95917 0.01288 0.0
C600 C 0.07293 0.98586 0.94653 0.0
C601 C 0.04396 0.99765 0.86765 0.0
C602 C 0.07903 0.9807 0.88323 0.0
C603 C 0.10055 0.99049 0.87339 0.0
C604 C 0.11611 1.00545 0.92689 0.0
C605 C 0.10991 1.01085 -0.01041 0.0
C606 C 0.08852 1.00108 -0.00062 0.0
H607 H 0.03243 1.00327 0.85319 0.0
H608 H 0.05952 1.0138 0.88523 0.0
H609 H 0.04605 0.98898 0.82029 0.0
H610 H 0.06717 0.96876 0.84216 0.0
H611 H 0.10498 0.98605 0.82468 0.0
H612 H 0.73986 0.55666 0.45352 0.0
H613 H 0.75652 0.53255 0.46071 0.0
H614 H 0.71683 0.48785 0.27875 0.0
H615 H 0.69927 0.51124 0.27396 0.0
H616 H 0.72143 0.46137 0.36657 0.0
H617 H 0.80111 0.53901 0.34164 0.0
H618 H 0.78995 0.54367 0.41693 0.0
H619 H 0.7775 0.54076 0.33102 0.0
C620 C 0.73463 0.5416 0.41531 0.0
C621 C 0.71852 0.53598 0.36261 0.0
C622 C 0.74429 0.52794 0.41906 0.0
C623 C 0.73851 0.50885 0.36882 0.0
C624 C 0.72178 0.50264 0.31768 0.0
H625 H 0.82346 0.45554 0.29835 0.0
H626 H 0.80231 0.47466 0.29148 0.0
C627 C 0.71177 0.51602 0.31485 0.0
C628 C 0.75014 0.49567 0.36916 0.0
H629 H 0.79988 0.50378 0.37566 0.0
C630 C 0.73858 0.47063 0.36804 0.0
C631 C 0.77252 0.50762 0.36954 0.0
C632 C 0.78595 0.53421 0.36404 0.0
C633 C 0.74875 0.4573 0.36841 0.0
C634 C 0.77121 0.4694 0.37285 0.0
C635 C 0.7827 0.49441 0.37312 0.0
C636 C 0.78326 0.45667 0.37546 0.0
C637 C 0.73519 0.4304 0.36195 0.0
C638 C 0.77974 0.44013 0.42494 0.0
C639 C 0.79151 0.42872 0.42764 0.0
C640 C 0.80748 0.43423 0.38248 0.0
C641 C 0.81128 0.45103 0.33394 0.0
C642 C 0.79919 0.46197 0.33007 0.0
H643 H 0.71919 0.42419 0.33597 0.0
H644 H 0.74262 0.42212 0.33182 0.0
H645 H 0.73304 0.42393 0.41483 0.0
H646 H 0.76812 0.43625 0.46221 0.0
H647 H 0.78842 0.41597 0.46597 0.0
H648 H 0.61125 0.43975 0.27856 0.0
H649 H 0.59588 0.39666 0.28353 0.0
H650 H 0.64689 0.40988 0.43405 0.0
H651 H 0.66237 0.45315 0.42932 0.0
H652 H 0.61493 0.36811 0.25666 0.0
H653 H 0.5921 0.36545 0.52847 0.0
H654 H 0.5985 0.39047 0.4778 0.0
H655 H 0.61925 0.38656 0.51526 0.0
C656 C 0.61922 0.43349 0.31264 0.0
C657 C 0.63795 0.44981 0.35383 0.0
C658 C 0.61043 0.40886 0.31536 0.0
C659 C 0.62007 0.40002 0.35975 0.0
C660 C 0.63899 0.41629 0.4002 0.0
H661 H 0.5715 0.25144 0.45642 0.0
H662 H 0.59431 0.29477 0.45158 0.0
C663 C 0.64787 0.44098 0.39724 0.0
C664 C 0.61015 0.37377 0.36348 0.0
H665 H 0.58429 0.32903 0.47018 0.0
C666 C 0.60832 0.35956 0.30344 0.0
C667 C 0.60166 0.36263 0.42466 0.0
C668 C 0.60278 0.37695 0.49024 0.0
C669 C 0.5981 0.33454 0.30272 0.0
C670 C 0.58893 0.32329 0.36317 0.0
C671 C 0.59126 0.33758 0.42378 0.0
C672 C 0.57592 0.29677 0.36361 0.0
C673 C 0.59742 0.32045 0.23724 0.0
C674 C 0.55796 0.28339 0.31598 0.0
C675 C 0.54505 0.25867 0.31833 0.0
C676 C 0.54963 0.24678 0.36897 0.0
C677 C 0.56764 0.26009 0.41654 0.0
C678 C 0.58064 0.28486 0.41394 0.0
H679 H 0.61077 0.33151 0.20572 0.0
H680 H 0.59809 0.3044 0.24952 0.0
H681 H 0.58244 0.31455 0.20469 0.0
H682 H 0.55359 0.29214 0.27785 0.0
H683 H 0.5312 0.24894 0.28129 0.0
H684 H 0.62632 0.21878 0.51361 0.0
H685 H 0.66484 0.24302 0.50595 0.0
H686 H 0.65441 0.27309 0.32447 0.0
H687 H 0.61607 0.24917 0.33216 0.0
H688 H 0.68262 0.25322 0.31352 0.0
H689 H 0.70413 0.31842 0.54407 0.0
H690 H 0.68699 0.28733 0.55688 0.0
H691 H 0.67764 0.30176 0.5007 0.0
C692 C 0.6323 0.23067 0.47238 0.0
C693 C 0.61826 0.23211 0.42347 0.0
C694 C 0.65425 0.24455 0.46822 0.0
C695 C 0.66244 0.25997 0.41494 0.0
C696 C 0.64841 0.26138 0.36611 0.0
H697 H 0.79272 0.36156 0.32526 0.0
H698 H 0.75442 0.34189 0.33799 0.0
C699 C 0.62653 0.24771 0.37059 0.0
C700 C 0.68558 0.27394 0.40822 0.0
H701 H 0.73248 0.32016 0.48607 0.0
C702 C 0.69352 0.2679 0.35106 0.0
C703 C 0.69969 0.29319 0.45705 0.0
C704 C 0.69179 0.30079 0.51802 0.0
C705 C 0.71531 0.2803 0.34234 0.0
C706 C 0.72945 0.29924 0.39178 0.0
C707 C 0.72152 0.3056 0.4483 0.0
C708 C 0.75263 0.31184 0.38684 0.0
C709 C 0.72323 0.27301 0.28077 0.0
C710 C 0.76418 0.30151 0.41065 0.0
C711 C 0.78593 0.31272 0.40385 0.0
C712 C 0.79651 0.33443 0.37293 0.0
C713 C 0.78497 0.34491 0.34965 0.0
C714 C 0.76315 0.33371 0.3568 0.0
H715 H 0.71006 0.25945 0.24342 0.0
H716 H 0.7336 0.28887 0.25291 0.0
H717 H 0.73291 0.26544 0.29953 0.0
H718 H 0.7563 0.28465 0.43396 0.0
H719 H 0.79443 0.30426 0.42243 0.0
H720 H 0.48092 0.70863 0.67198 0.0
H721 H 0.4558 0.72272 0.66912 0.0
H722 H 0.49042 0.77099 0.51573 0.0
H723 H 0.51599 0.75759 0.52074 0.0
H724 H 0.48331 0.79376 0.61335 0.0
H725 H 0.4073 0.70994 0.53593 0.0
H726 H 0.42112 0.70759 0.61162 0.0
H727 H 0.43265 0.71231 0.52936 0.0
C728 C 0.48298 0.72205 0.63712 0.0
C729 C 0.50039 0.73207 0.59664 0.0
C730 C 0.4685 0.72995 0.635 0.0
C731 C 0.47094 0.7477 0.59136 0.0
C732 C 0.48811 0.75727 0.54975 0.0
H733 H 0.37997 0.79506 0.51691 0.0
H734 H 0.40044 0.77495 0.50783 0.0
C735 C 0.50273 0.74961 0.5526 0.0
C736 C 0.45677 0.75779 0.59307 0.0
H737 H 0.40491 0.74316 0.58118 0.0
C738 C 0.46618 0.78264 0.60572 0.0
C739 C 0.43438 0.74343 0.58221 0.0
C740 C 0.42327 0.71687 0.5633 0.0
C741 C 0.45393 0.79348 0.60894 0.0
C742 C 0.43153 0.77903 0.60193 0.0
C743 C 0.42206 0.75421 0.58772 0.0
C744 C 0.41781 0.78949 0.60934 0.0
C745 C 0.46524 0.8204 0.61854 0.0
C746 C 0.4202 0.80365 0.67023 0.0
C747 C 0.40879 0.81534 0.675 0.0
C748 C 0.39438 0.81268 0.61964 0.0
C749 C 0.39103 0.79743 0.56026 0.0
C750 C 0.40271 0.78596 0.55508 0.0
H751 H 0.48147 0.82876 0.60092 0.0
H752 H 0.45635 0.82728 0.58928 0.0
H753 H 0.46678 0.82614 0.67474 0.0
H754 H 0.43124 0.80606 0.71368 0.0
H755 H 0.4115 0.82677 0.72174 0.0
H756 H 0.17751 0.6168 0.71549 0.0
H757 H 0.20455 0.65878 0.70838 0.0
H758 H 0.24221 0.6372 0.59684 0.0
H759 H 0.21484 0.5951 0.60214 0.0
H760 H 0.24632 0.68546 0.75635 0.0
H761 H 0.23841 0.68224 0.4674 0.0
H762 H 0.21966 0.65835 0.51506 0.0
H763 H 0.24478 0.66123 0.5007 0.0
C764 C 0.19155 0.62099 0.68943 0.0
C765 C 0.19399 0.6026 0.65926 0.0
C766 C 0.20706 0.64504 0.68554 0.0
C767 C 0.22537 0.65134 0.65114 0.0
C768 C 0.22808 0.63294 0.62239 0.0
H769 H 0.33255 0.80161 0.68442 0.0
H770 H 0.31149 0.75812 0.69124 0.0
C771 C 0.2125 0.60884 0.62605 0.0
C772 C 0.24135 0.67713 0.6451 0.0
H773 H 0.26496 0.71866 0.52716 0.0
C774 C 0.25048 0.69268 0.70621 0.0
C775 C 0.24668 0.68673 0.5797 0.0
C776 C 0.23676 0.67137 0.51189 0.0
C777 C 0.26453 0.71741 0.7038 0.0
C778 C 0.26998 0.72699 0.63841 0.0
C779 C 0.26101 0.7114 0.57734 0.0
C780 C 0.28357 0.75328 0.63191 0.0
C781 C 0.27276 0.7332 0.77132 0.0
C782 C 0.27531 0.76507 0.59425 0.0
C783 C 0.28736 0.78979 0.58985 0.0
C784 C 0.30804 0.80344 0.62283 0.0
C785 C 0.31662 0.79162 0.65885 0.0
C786 C 0.30452 0.76677 0.66319 0.0
H787 H 0.26335 0.72404 0.81511 0.0
H788 H 0.28941 0.73813 0.78501 0.0
H789 H 0.27248 0.7499 0.76613 0.0
H790 H 0.25929 0.75518 0.56934 0.0
H791 H 0.28028 0.7983 0.56145 0.0
H792 H 0.43285 0.67382 0.52685 0.0
H793 H 0.39607 0.66229 0.54337 0.0
H794 H 0.38844 0.603 0.65454 0.0
H795 H 0.42517 0.61455 0.63871 0.0
H796 H 0.35832 0.62044 0.50321 0.0
H797 H 0.3701 0.63748 0.79109 0.0
H798 H 0.39193 0.64817 0.73678 0.0
H799 H 0.37857 0.61771 0.759 0.0
C800 C 0.42325 0.65827 0.5545 0.0
C801 C 0.4318 0.64511 0.58176 0.0
C802 C 0.40232 0.65177 0.5641 0.0
C803 C 0.38971 0.63215 0.60162 0.0
C804 C 0.39807 0.61856 0.62698 0.0
H805 H 0.25574 0.54486 0.60583 0.0
H806 H 0.29342 0.56383 0.58914 0.0
C807 C 0.41896 0.62503 0.61733 0.0
C808 C 0.36769 0.62555 0.61333 0.0
H809 H 0.33413 0.6148 0.74106 0.0
C810 C 0.35307 0.61943 0.55519 0.0
C811 C 0.36097 0.62473 0.68121 0.0
C812 C 0.37626 0.63261 0.74561 0.0
C813 C 0.33167 0.61141 0.56311 0.0
C814 C 0.32468 0.60911 0.63092 0.0
C815 C 0.33948 0.61632 0.68911 0.0
C816 C 0.30189 0.59787 0.6422 0.0
C817 C 0.31669 0.60531 0.49875 0.0
C818 C 0.29423 0.61049 0.67959 0.0
C819 C 0.27261 0.59959 0.68963 0.0
C820 C 0.25847 0.57588 0.66289 0.0
C821 C 0.26628 0.5632 0.62673 0.0
C822 C 0.28778 0.57406 0.61671 0.0
H823 H 0.32529 0.61466 0.45384 0.0
H824 H 0.30849 0.58581 0.48407 0.0
H825 H 0.30449 0.61008 0.50829 0.0
H826 H 0.30493 0.62884 0.70019 0.0
H827 H 0.26695 0.60972 0.71767 0.0
H828 H 0.03051 0.18665 0.72233 0.0
H829 H 0.03601 0.19122 0.59905 0.0
H830 H 1.0244 0.24966 0.60818 0.0
H831 H 1.01927 0.24561 0.73221 0.0
H832 H 1.01126 0.19102 0.48334 0.0
H833 H 0.08504 0.27928 0.54655 0.0
H834 H 0.07189 0.25896 0.61193 0.0
H835 H 0.06167 0.27681 0.57962 0.0
C836 C 0.0288 0.20025 0.69799 0.0
C837 C 1.02481 0.21604 0.73713 0.0
C838 C 0.03196 0.20283 0.62764 0.0
C839 C 0.03116 0.22117 0.5956 0.0
C840 C 1.02556 0.23577 0.63294 0.0
H841 H 0.04443 0.26406 0.18304 0.0
H842 H 0.04355 0.26269 0.30914 0.0
C843 C 1.02243 0.23325 0.70347 0.0
C844 C 0.03715 0.22558 0.52394 0.0
H845 H 0.0739 0.26665 0.42653 0.0
C846 C 1.02498 0.20748 0.47078 0.0
C847 C 0.0552 0.24706 0.50854 0.0
C848 C 0.06935 0.26659 0.56466 0.0
C849 C 0.03013 0.2105 0.40174 0.0
C850 C 0.04805 0.23205 0.38624 0.0
C851 C 0.06029 0.25013 0.43933 0.0
C852 C 0.0532 0.23655 0.314 0.0
C853 C 1.01609 0.19092 0.34558 0.0
C854 C 0.06002 0.22319 0.27636 0.0
C855 C 0.06053 0.22388 0.20426 0.0
C856 C 0.05411 0.23787 0.16945 0.0
C857 C 0.04914 0.25284 0.20843 0.0
C858 C 0.04872 0.25218 0.28038 0.0
H859 H 1.00103 0.17713 0.36485 0.0
H860 H 1.01228 0.19845 0.30045 0.0
H861 H 1.0246 0.18206 0.32672 0.0
H862 H 0.06371 0.2112 0.30218 0.0
H863 H 0.06454 0.21226 0.17556 0.0
H864 H 0.82131 0.86571 0.81607 0.0
H865 H 0.82205 0.86779 0.69012 0.0
H866 H 0.88922 0.89427 0.70914 0.0
H867 H 0.88872 0.89204 0.83492 0.0
H868 H 0.84761 0.91315 0.64163 0.0
H869 H 0.86722 0.847 0.53368 0.0
H870 H 0.85638 0.84483 0.6169 0.0
H871 H 0.884 0.86549 0.60921 0.0
C872 C 0.83615 0.87136 0.79338 0.0
C873 C 0.85504 0.87911 0.83553 0.0
C874 C 0.83651 0.87251 0.72147 0.0
C875 C 0.85568 0.88121 0.69086 0.0
C876 C 0.87424 0.88722 0.732 0.0
H877 H 0.89475 0.92542 0.28244 0.0
H878 H 0.89477 0.92207 0.40817 0.0
C879 C 0.87391 0.88604 0.80393 0.0
C880 C 0.85688 0.88731 0.61823 0.0
H881 H 0.86982 0.87626 0.45939 0.0
C882 C 0.85232 0.90499 0.60153 0.0
C883 C 0.86331 0.8768 0.56687 0.0
C884 C 0.86786 0.85733 0.5822 0.0
C885 C 0.85415 0.9126 0.53432 0.0
C886 C 0.86046 0.90201 0.48285 0.0
C887 C 0.86515 0.88442 0.49958 0.0
C888 C 0.86107 0.90777 0.41001 0.0
C889 C 0.84955 0.93204 0.51905 0.0
C890 C 0.84218 0.90147 0.37052 0.0
C891 C 0.84207 0.90336 0.29891 0.0
C892 C 0.86086 0.91142 0.26586 0.0
C893 C 0.88001 0.91914 0.30639 0.0
C894 C 0.88007 0.91717 0.37807 0.0
H895 H 0.85041 0.94252 0.56754 0.0
H896 H 0.86085 0.94442 0.48371 0.0
H897 H 0.8333 0.92383 0.49283 0.0
H898 H 0.82732 0.8939 0.39445 0.0
H899 H 0.82708 0.89736 0.26914 0.0
H900 H 0.2403 0.0748 0.71065 0.0
H901 H 0.23941 0.06884 0.5842 0.0
H902 H 0.17107 0.03213 0.56817 0.0
H903 H 0.17173 0.03834 0.69416 0.0
H904 H 0.21988 1.02424 0.50969 0.0
H905 H 0.18649 0.07863 0.41788 0.0
H906 H 0.19729 0.08186 0.50667 0.0
H907 H 0.17099 0.05767 0.47821 0.0
C908 C 0.22509 0.06586 0.68015 0.0
C909 C 0.20608 0.057 0.71238 0.0
C910 C 0.22463 0.06241 0.60805 0.0
C911 C 0.20519 0.05014 0.56727 0.0
C912 C 0.18623 0.04199 0.59889 0.0
H913 H 0.17014 1.00779 0.12876 0.0
H914 H 0.17002 1.00663 0.25499 0.0
C915 C 0.18666 0.04554 0.67092 0.0
C916 C 0.20468 0.04457 0.49215 0.0
H917 H 0.1885 0.05265 0.33248 0.0
C918 C 0.2131 1.03049 0.47077 0.0
C919 C 0.19572 0.05273 0.44203 0.0
C920 C 0.18728 0.06874 0.46218 0.0
C921 C 0.21268 1.0242 0.39997 0.0
C922 C 0.20369 0.03232 0.35006 0.0
C923 C 0.19515 0.04626 0.37143 0.0
C924 C 0.20413 1.02811 0.27484 0.0
C925 C 0.2217 1.00886 0.37894 0.0
C926 C 0.22345 0.03985 0.24476 0.0
C927 C 0.22362 0.04069 0.17268 0.0
C928 C 0.20443 1.02992 0.13002 0.0
C929 C 0.1852 1.01647 0.16015 0.0
C930 C 0.18506 1.01571 0.23221 0.0
H931 H 0.22354 0.99963 0.42335 0.0
H932 H 0.21141 0.99529 0.33572 0.0
H933 H 0.23756 1.02031 0.36015 0.0
H934 H 0.23829 0.04976 0.27722 0.0
H935 H 0.23872 0.05102 0.15107 0.0
H936 H 0.68226 0.52494 0.5766 0.0
H937 H 0.6781 0.525 0.70123 0.0
H938 H 0.68279 0.59358 0.70111 0.0
H939 H 0.6867 0.59364 0.57575 0.0
H940 H 0.70447 0.55998 0.81522 0.0
H941 H 0.62354 0.54669 0.77136 0.0
H942 H 0.63683 0.54171 0.70205 0.0
H943 H 0.64467 0.5716 0.73375 0.0
C944 C 0.68263 0.54016 0.60312 0.0
C945 C 0.68449 0.55913 0.56651 0.0
C946 C 0.6803 0.54017 0.67413 0.0
C947 C 0.67975 0.55907 0.70917 0.0
C948 C 0.68286 0.57871 0.67396 0.0
H949 H 0.66422 0.58025 0.13856 0.0
H950 H 0.66447 0.58194 0.01247 0.0
C951 C 0.68525 0.57877 0.60276 0.0
C952 C 0.67498 0.55748 0.78206 0.0
H953 H 0.63619 0.54822 0.88775 0.0
C954 C 0.68961 0.5575 0.83136 0.0
C955 C 0.65549 0.55415 0.80186 0.0
C956 C 0.6391 0.55335 0.7496 0.0
C957 C 0.68522 0.5542 0.90084 0.0
C958 C 0.66558 0.55043 0.92043 0.0
C959 C 0.65108 0.55085 0.87153 0.0
C960 C 0.66043 0.54694 -0.00733 0.0
C961 C 0.70161 0.55487 0.95292 0.0
C962 C 0.65697 0.52613 0.02172 0.0
C963 C 0.65692 0.5251 0.09366 0.0
C964 C 0.66044 0.54495 0.13674 0.0
C965 C 0.66189 0.56486 0.10659 0.0
C966 C 0.66189 0.56584 0.03473 0.0
H967 H 0.71731 0.56217 0.93175 0.0
H968 H 0.70349 0.56589 0.00149 0.0
H969 H 0.69629 0.53647 0.96687 0.0
H970 H 0.65567 0.51137 -0.01084 0.0
H971 H 0.65556 0.50944 0.1155 0.0
H972 H 0.49289 0.16538 0.62321 0.0
H973 H 0.49341 0.16186 0.74888 0.0
H974 H 0.56022 0.21468 0.77295 0.0
H975 H 0.55986 0.21873 0.64809 0.0
H976 H 0.51864 0.14672 0.8151 0.0
H977 H 0.53711 0.23523 0.93255 0.0
H978 H 0.52732 0.22513 0.84221 0.0
H979 H 0.55485 0.23693 0.86946 0.0
C980 C 0.50757 0.17671 0.65547 0.0
C981 C 0.52637 0.1922 0.62579 0.0
C982 C 0.50783 0.1746 0.72706 0.0
C983 C 0.52683 0.18806 0.7697 0.0
C984 C 0.54535 0.20442 0.7408 0.0
H985 H 0.56595 0.19196 0.20128 0.0
H986 H 0.56615 0.19269 0.07463 0.0
C987 C 0.54511 0.2066 0.66937 0.0
C988 C 0.52787 0.18332 0.84305 0.0
H989 H 0.5409 0.20977 0.00881 0.0
C990 C 0.52336 0.16041 0.85764 0.0
C991 C 0.53422 0.20136 0.89783 0.0
C992 C 0.53847 0.22598 0.88493 0.0
C993 C 0.52525 0.15512 0.92618 0.0
C994 C 0.5317 0.1732 0.98079 0.0
C995 C 0.53624 0.1961 0.96622 0.0
C996 C 0.53232 0.16849 0.05424 0.0
C997 C 0.52057 0.13041 0.93975 0.0
C998 C 0.51331 0.15397 0.08367 0.0
C999 C 0.5131 0.15357 0.15574 0.0
C1000 C 0.53191 0.16779 0.19911 0.0
C1001 C 0.55121 0.18084 0.16911 0.0
C1002 C 0.55137 0.18132 0.09694 0.0
H1003 H 0.52088 0.12048 0.89179 0.0
H1004 H 0.53217 0.13129 0.98077 0.0
H1005 H 0.50454 0.12017 0.95843 0.0
H1006 H 0.49844 0.14421 0.05127 0.0
H1007 H 0.49802 0.14318 0.17744 0.0
H1008 H 0.81161 0.36039 0.57259 0.0
H1009 H 0.80882 0.35919 0.69819 0.0
H1010 H 0.87253 0.37249 0.72929 0.0
H1011 H 0.87554 0.37375 0.6033 0.0
H1012 H 0.8375 0.33726 0.8192 0.0
H1013 H 0.84941 0.4285 0.80737 0.0
H1014 H 0.82912 0.40477 0.74789 0.0
H1015 H 0.85646 0.41469 0.73884 0.0
C1016 C 0.82489 0.36261 0.60611 0.0
C1017 C 0.84399 0.36773 0.57904 0.0
C1018 C 0.82318 0.36177 0.67743 0.0
C1019 C 0.84058 0.3661 0.72198 0.0
C1020 C 0.85902 0.36915 0.69484 0.0
H1021 H 0.88253 0.39403 0.15054 0.0
H1022 H 0.87791 0.38816 0.02352 0.0
C1023 C 0.86072 0.36989 0.62327 0.0
C1024 C 0.84067 0.37082 0.79673 0.0
H1025 H 0.84708 0.41416 0.91805 0.0
C1026 C 0.83943 0.35393 0.8411 0.0
C1027 C 0.84308 0.39262 0.82399 0.0
C1028 C 0.84472 0.41133 0.77735 0.0
C1029 C 0.84091 0.35852 0.91331 0.0
C1030 C 0.84416 0.38073 0.94069 0.0
C1031 C 0.84469 0.39726 0.89617 0.0
C1032 C 0.84819 0.38753 0.01565 0.0
C1033 C 0.83913 0.33971 0.95971 0.0
C1034 C 0.83366 0.39069 0.0518 0.0
C1035 C 0.83636 0.39433 0.1243 0.0
C1036 C 0.85357 0.39469 0.16061 0.0
C1037 C 0.86894 0.39341 0.1236 0.0
C1038 C 0.8663 0.38994 0.05138 0.0
H1039 H 0.83098 0.32168 0.93104 0.0
H1040 H 0.85527 0.34405 0.97909 0.0
H1041 H 0.83036 0.33913 0.00552 0.0
H1042 H 0.81975 0.38917 0.02426 0.0
H1043 H 0.82432 0.3953 0.15186 0.0
H1044 H 0.35748 0.83883 0.39626 0.0
H1045 H 0.36336 0.84564 0.27391 0.0
H1046 H 0.34466 0.89835 0.28821 0.0
H1047 H 0.33849 0.89161 0.41034 0.0
H1048 H 0.32745 0.86558 0.16756 0.0
H1049 H 0.41481 0.90758 0.21488 0.0
H1050 H 0.39974 0.87876 0.24767 0.0
H1051 H 0.39793 0.90342 0.28422 0.0
C1052 C 0.35435 0.85166 0.37328 0.0
C1053 C 0.34778 0.86491 0.41312 0.0
C1054 C 0.3579 0.85565 0.3037 0.0
C1055 C 0.35498 0.87294 0.27342 0.0
C1056 C 0.34725 0.88519 0.3116 0.0
H1057 H 0.3653 0.91291 0.84903 0.0
H1058 H 0.36668 0.91643 0.97608 0.0
C1059 C 0.34367 0.88121 0.38115 0.0
C1060 C 0.36003 0.87825 0.20165 0.0
H1061 H 0.40046 0.8982 0.09603 0.0
C1062 C 0.34341 0.87296 0.1518 0.0
C1063 C 0.38095 0.88802 0.18229 0.0
C1064 C 0.39945 0.895 0.23513 0.0
C1065 C 0.34702 0.87626 0.08172 0.0
C1066 C 0.36784 0.88542 0.06202 0.0
C1067 C 0.38458 0.89128 0.11208 0.0
C1068 C 0.37196 0.88709 -0.01147 0.0
C1069 C 0.32845 0.86908 0.0289 0.0
C1070 C 0.37566 0.87026 0.9549 0.0
C1071 C 0.37487 0.86814 0.88249 0.0
C1072 C 0.37028 0.8828 0.84337 0.0
C1073 C 0.36846 0.90105 0.87785 0.0
C1074 C 0.36932 0.90319 0.95023 0.0
H1075 H 0.31299 0.85875 0.0515 0.0
H1076 H 0.32952 0.88536 0.00951 0.0
H1077 H 0.32873 0.85815 -0.0165 0.0
H1078 H 0.37777 0.85778 -0.01567 0.0
H1079 H 0.37659 0.8541 0.85734 0.0
H1080 H 0.13805 0.53482 0.88496 0.0
H1081 H 0.13737 0.53014 0.00979 0.0
H1082 H 0.20412 0.55438 0.02566 0.0
H1083 H 0.20512 0.55942 0.90106 0.0
H1084 H 0.1478 0.49858 0.06948 0.0
H1085 H 0.19802 0.59144 0.19172 0.0
H1086 H 0.18671 0.58478 0.10233 0.0
H1087 H 0.20998 0.58333 0.12518 0.0
C1088 C 0.1527 0.53964 0.91517 0.0
C1089 C 0.17161 0.54731 0.8831 0.0
C1090 C 0.15224 0.5369 -0.01365 0.0
C1091 C 0.17068 0.54193 0.02642 0.0
C1092 C 0.18981 0.55073 -0.00456 0.0
H1093 H 0.19867 0.52748 0.45272 0.0
H1094 H 0.19866 0.52772 0.32623 0.0
C1095 C 0.19032 0.55356 0.92424 0.0
C1096 C 0.16951 0.53602 0.09923 0.0
H1097 H 0.18874 0.56019 0.26579 0.0
C1098 C 0.15665 0.51201 0.11261 0.0
C1099 C 0.18119 0.55366 0.15473 0.0
C1100 C 0.19462 0.57978 0.14307 0.0
C1101 C 0.15534 0.50511 0.18068 0.0
C1102 C 0.16707 0.52275 0.23607 0.0
C1103 C 0.17994 0.54673 0.22265 0.0
C1104 C 0.16565 0.51717 0.30916 0.0
C1105 C 0.14169 0.47908 0.19289 0.0
C1106 C 0.14681 0.51022 0.3405 0.0
C1107 C 0.14673 0.51008 0.41279 0.0
C1108 C 0.16558 0.51717 0.45431 0.0
C1109 C 0.18397 0.52225 0.42211 0.0
C1110 C 0.18401 0.52234 0.34995 0.0
H1111 H 0.13776 0.46728 0.14419 0.0
H1112 H 0.14973 0.47397 0.23284 0.0
H1113 H 0.12663 0.47595 0.21241 0.0
H1114 H 0.13257 0.50649 0.30959 0.0
H1115 H 0.1323 0.50603 0.43611 0.0
H1116 H 0.49106 0.67742 0.35802 0.0
H1117 H 0.49275 0.67039 0.23365 0.0
H1118 H 0.56042 0.70105 0.26707 0.0
H1119 H 0.55908 0.70847 0.39129 0.0
H1120 H 0.54713 0.71767 0.15612 0.0
H1121 H 0.50278 0.61864 0.14431 0.0
H1122 H 0.48935 0.63201 0.18429 0.0
H1123 H 0.51407 0.63734 0.22525 0.0
C1124 C 0.50633 0.68282 0.33896 0.0
C1125 C 0.52491 0.69337 0.38448 0.0
C1126 C 0.50721 0.67855 0.26817 0.0
C1127 C 0.52661 0.68462 0.24228 0.0
C1128 C 0.54529 0.69596 0.28686 0.0
H1129 H 0.55426 0.68366 0.81016 0.0
H1130 H 0.55694 0.68062 0.93558 0.0
C1131 C 0.54446 0.7003 0.3576 0.0
C1132 C 0.52752 0.68009 0.16782 0.0
H1133 H 0.50751 0.636 0.03492 0.0
C1134 C 0.53878 0.69983 0.12957 0.0
C1135 C 0.51663 0.65672 0.13426 0.0
C1136 C 0.50518 0.63493 0.17421 0.0
C1137 C 0.53855 0.69692 0.05729 0.0
C1138 C 0.52702 0.67361 0.02332 0.0
C1139 C 0.51635 0.65378 0.0618 0.0
C1140 C 0.52429 0.67001 0.94722 0.0
C1141 C 0.54977 0.71884 0.01748 0.0
C1142 C 0.50472 0.66377 0.91277 0.0
C1143 C 0.50308 0.66547 0.84131 0.0
C1144 C 0.52108 0.67355 0.804 0.0
C1145 C 0.54023 0.67787 0.83796 0.0
C1146 C 0.5418 0.67602 0.90932 0.0
H1147 H 0.55503 0.73559 0.05078 0.0
H1148 H 0.56398 0.71981 -0.00306 0.0
H1149 H 0.53924 0.71784 0.97239 0.0
H1150 H 0.49108 0.65907 0.94184 0.0
H1151 H 0.48808 0.6618 0.81631 0.0
loop_
_geom_bond_atom_site_label_1
_geom_bond_atom_site_label_2
_geom_bond_distance
_geom_bond_site_symmetry_2
_ccdc_geom_bond_type
Tb0 O3 2.453 . S
Tb0 O4 2.630 . S
Tb0 O5 2.374 . S
Tb0 O13 2.343 1_655 S
Tb0 O15 2.353 1_554 S
Tb0 O17 2.427 . S
Tb0 O18 2.513 . S
C1 O5 1.251 1_455 S
C1 O7 1.263 . S
Tb2 O4 2.317 1_455 S
Tb2 O7 2.353 . S
Tb2 O10 2.427 . S
Tb2 O11 2.513 . S
Tb2 O12 2.453 . S
Tb2 O13 2.596 . S
Tb2 O14 2.374 1_554 S
O3 Tb0 2.453 . S
O3 C19 1.245 . S
O4 Tb0 2.630 . S
O4 Tb2 2.317 1_655 S
O4 C19 1.278 . S
O5 Tb0 2.374 . S
O5 C1 1.251 1_655 S
C6 O10 1.275 . S
C6 O11 1.246 . S
O7 C1 1.263 . S
O7 Tb2 2.353 . S
C8 O12 1.245 . S
C8 O13 1.259 . S
C9 O14 1.250 . S
C9 O15 1.263 1_455 S
O10 Tb2 2.427 . S
O10 C6 1.275 . S
O11 Tb2 2.513 . S
O11 C6 1.246 . S
O12 Tb2 2.453 . S
O12 C8 1.245 . S
O13 Tb0 2.343 1_455 S
O13 Tb2 2.596 . S
O13 C8 1.259 . S
O14 Tb2 2.374 1_556 S
O14 C9 1.250 . S
O15 Tb0 2.353 1_556 S
O15 C9 1.263 1_655 S
C16 O17 1.275 . S
C16 O18 1.246 . S
O17 Tb0 2.427 . S
O17 C16 1.275 . S
O18 Tb0 2.513 . S
O18 C16 1.246 . S
C19 O3 1.245 . S
C19 O4 1.278 . S
Tb20 O23 2.453 . S
Tb20 O24 2.596 . S
Tb20 O25 2.374 1_554 S
Tb20 O33 2.343 . S
Tb20 O35 2.353 . S
Tb20 O37 2.427 . S
Tb20 O38 2.513 . S
C21 O25 1.251 . S
C21 O27 1.263 . S
Tb22 O24 2.343 . S
Tb22 O27 2.353 1_554 S
Tb22 O30 2.427 . S
Tb22 O31 2.513 . S
Tb22 O32 2.453 . S
Tb22 O33 2.596 . S
Tb22 O34 2.374 . S
O23 Tb20 2.453 . S
O23 C39 1.245 . S
O24 Tb20 2.596 . S
O24 Tb22 2.343 . S
O24 C39 1.259 . S
O25 Tb20 2.374 1_556 S
O25 C21 1.251 . S
C26 O30 1.275 . S
C26 O31 1.246 . S
O27 C21 1.263 . S
O27 Tb22 2.353 1_556 S
C28 O32 1.245 . S
C28 O33 1.259 . S
C29 O34 1.250 . S
C29 O35 1.263 . S
O30 Tb22 2.427 . S
O30 C26 1.275 . S
O31 Tb22 2.513 . S
O31 C26 1.246 . S
O32 Tb22 2.453 . S
O32 C28 1.245 . S
O33 Tb20 2.343 . S
O33 Tb22 2.596 . S
O33 C28 1.259 . S
O34 Tb22 2.374 . S
O34 C29 1.250 . S
O35 Tb20 2.353 . S
O35 C29 1.263 . S
C36 O37 1.275 . S
C36 O38 1.246 . S
O37 Tb20 2.427 . S
O37 C36 1.275 . S
O38 Tb20 2.513 . S
O38 C36 1.246 . S
C39 O23 1.245 . S
C39 O24 1.259 . S
Tb40 O43 2.453 . S
Tb40 O44 2.596 . S
Tb40 O45 2.374 . S
Tb40 O53 2.343 1_554 S
Tb40 O55 2.353 1_554 S
Tb40 O57 2.427 1_554 S
Tb40 O58 2.513 . S
C41 O45 1.251 . S
C41 O47 1.263 1_545 S
Tb42 O44 2.343 1_566 S
Tb42 O47 2.353 1_556 S
Tb42 O50 2.427 1_556 S
Tb42 O51 2.513 . S
Tb42 O52 2.453 . S
Tb42 O53 2.596 1_565 S
Tb42 O54 2.374 . S
O43 Tb40 2.453 . S
O43 C59 1.245 . S
O44 Tb40 2.596 . S
O44 Tb42 2.343 1_544 S
O44 C59 1.259 . S
O45 Tb40 2.374 . S
O45 C41 1.251 . S
C46 O50 1.275 1_556 S
C46 O51 1.246 . S
O47 C41 1.263 1_565 S
O47 Tb42 2.353 1_554 S
C48 O52 1.245 . S
C48 O53 1.259 1_565 S
C49 O54 1.250 1_545 S
C49 O55 1.263 . S
O50 Tb42 2.427 1_554 S
O50 C46 1.275 1_554 S
O51 Tb42 2.513 . S
O51 C46 1.246 . S
O52 Tb42 2.453 . S
O52 C48 1.245 . S
O53 Tb40 2.343 1_556 S
O53 Tb42 2.596 1_545 S
O53 C48 1.259 1_545 S
O54 Tb42 2.374 . S
O54 C49 1.250 1_565 S
O55 Tb40 2.353 1_556 S
O55 C49 1.263 . S
C56 O57 1.275 1_554 S
C56 O58 1.246 . S
O57 Tb40 2.427 1_556 S
O57 C56 1.275 1_556 S
O58 Tb40 2.513 . S
O58 C56 1.246 . S
C59 O43 1.245 . S
C59 O44 1.259 . S
Tb60 O63 2.453 . S
Tb60 O64 2.596 . S
Tb60 O65 2.374 . S
Tb60 O73 2.343 . S
Tb60 O75 2.353 . S
Tb60 O77 2.427 . S
Tb60 O78 2.513 . S
C61 O65 1.251 . S
C61 O67 1.263 . S
Tb62 O64 2.343 . S
Tb62 O67 2.353 . S
Tb62 O70 2.427 . S
Tb62 O71 2.513 . S
Tb62 O72 2.453 . S
Tb62 O73 2.596 . S
Tb62 O74 2.374 . S
O63 Tb60 2.453 . S
O63 C79 1.245 . S
O64 Tb60 2.596 . S
O64 Tb62 2.343 . S
O64 C79 1.259 . S
O65 Tb60 2.374 . S
O65 C61 1.251 . S
C66 O70 1.275 . S
C66 O71 1.246 . S
O67 C61 1.263 . S
O67 Tb62 2.353 . S
C68 O72 1.245 . S
C68 O73 1.259 . S
C69 O74 1.250 . S
C69 O75 1.263 . S
O70 Tb62 2.427 . S
O70 C66 1.275 . S
O71 Tb62 2.513 . S
O71 C66 1.246 . S
O72 Tb62 2.453 . S
O72 C68 1.245 . S
O73 Tb60 2.343 . S
O73 Tb62 2.596 . S
O73 C68 1.259 . S
O74 Tb62 2.374 . S
O74 C69 1.250 . S
O75 Tb60 2.353 . S
O75 C69 1.263 . S
C76 O77 1.275 . S
C76 O78 1.246 . S
O77 Tb60 2.427 . S
O77 C76 1.275 . S
O78 Tb60 2.513 . S
O78 C76 1.246 . S
C79 O63 1.245 . S
C79 O64 1.259 . S
Tb80 O83 2.453 . S
Tb80 O84 2.596 . S
Tb80 O85 2.374 . S
Tb80 O93 2.343 . S
Tb80 O95 2.353 . S
Tb80 O97 2.427 . S
Tb80 O98 2.513 . S
C81 O85 1.251 . S
C81 O87 1.263 . S
Tb82 O84 2.343 . S
Tb82 O87 2.353 . S
Tb82 O90 2.427 . S
Tb82 O91 2.513 . S
Tb82 O92 2.453 . S
Tb82 O93 2.596 . S
Tb82 O94 2.374 . S
O83 Tb80 2.453 . S
O83 C99 1.245 . S
O84 Tb80 2.596 . S
O84 Tb82 2.343 . S
O84 C99 1.259 . S
O85 Tb80 2.374 . S
O85 C81 1.251 . S
C86 O90 1.275 . S
C86 O91 1.246 . S
O87 C81 1.263 . S
O87 Tb82 2.353 . S
C88 O92 1.245 . S
C88 O93 1.259 . S
C89 O94 1.250 . S
C89 O95 1.263 . S
O90 Tb82 2.427 . S
O90 C86 1.275 . S
O91 Tb82 2.513 . S
O91 C86 1.246 . S
O92 Tb82 2.453 . S
O92 C88 1.245 . S
O93 Tb80 2.343 . S
O93 Tb82 2.596 . S
O93 C88 1.259 . S
O94 Tb82 2.374 . S
O94 C89 1.250 . S
O95 Tb80 2.353 . S
O95 C89 1.263 . S
C96 O97 1.275 . S
C96 O98 1.246 . S
O97 Tb80 2.427 . S
O97 C96 1.275 . S
O98 Tb80 2.513 . S
O98 C96 1.246 . S
C99 O83 1.245 . S
C99 O84 1.259 . S
Tb100 O103 2.453 . S
Tb100 O104 2.596 . S
Tb100 O105 2.374 . S
Tb100 O113 2.343 . S
Tb100 O115 2.353 . S
Tb100 O117 2.427 . S
Tb100 O118 2.513 . S
C101 O105 1.251 . S
C101 O107 1.263 . S
Tb102 O104 2.343 . S
Tb102 O107 2.353 . S
Tb102 O110 2.427 . S
Tb102 O111 2.513 . S
Tb102 O112 2.453 . S
Tb102 O113 2.596 . S
Tb102 O114 2.374 . S
O103 Tb100 2.453 . S
O103 C119 1.245 . S
O104 Tb100 2.596 . S
O104 Tb102 2.343 . S
O104 C119 1.259 . S
O105 Tb100 2.374 . S
O105 C101 1.251 . S
C106 O110 1.275 . S
C106 O111 1.246 . S
O107 C101 1.263 . S
O107 Tb102 2.353 . S
C108 O112 1.245 . S
C108 O113 1.259 . S
C109 O114 1.250 . S
C109 O115 1.263 . S
O110 Tb102 2.427 . S
O110 C106 1.275 . S
O111 Tb102 2.513 . S
O111 C106 1.246 . S
O112 Tb102 2.453 . S
O112 C108 1.245 . S
O113 Tb100 2.343 . S
O113 Tb102 2.596 . S
O113 C108 1.259 . S
O114 Tb102 2.374 . S
O114 C109 1.250 . S
O115 Tb100 2.353 . S
O115 C109 1.263 . S
C116 O117 1.275 . S
C116 O118 1.246 . S
O117 Tb100 2.427 . S
O117 C116 1.275 . S
O118 Tb100 2.513 . S
O118 C116 1.246 . S
C119 O103 1.245 . S
C119 O104 1.259 . S
Tb120 O123 2.453 . S
Tb120 O124 2.596 . S
Tb120 O125 2.374 . S
Tb120 O133 2.343 . S
Tb120 O135 2.353 . S
Tb120 O137 2.427 . S
Tb120 O138 2.513 . S
C121 O125 1.251 . S
C121 O127 1.263 . S
Tb122 O124 2.343 . S
Tb122 O127 2.353 . S
Tb122 O130 2.427 . S
Tb122 O131 2.513 . S
Tb122 O132 2.453 . S
Tb122 O133 2.596 . S
Tb122 O134 2.374 . S
O123 Tb120 2.453 . S
O123 C139 1.245 . S
O124 Tb120 2.596 . S
O124 Tb122 2.343 . S
O124 C139 1.259 . S
O125 Tb120 2.374 . S
O125 C121 1.251 . S
C126 O130 1.275 . S
C126 O131 1.246 . S
O127 C121 1.263 . S
O127 Tb122 2.353 . S
C128 O132 1.245 . S
C128 O133 1.259 . S
C129 O134 1.250 . S
C129 O135 1.263 . S
O130 Tb122 2.427 . S
O130 C126 1.275 . S
O131 Tb122 2.513 . S
O131 C126 1.246 . S
O132 Tb122 2.453 . S
O132 C128 1.245 . S
O133 Tb120 2.343 . S
O133 Tb122 2.596 . S
O133 C128 1.259 . S
O134 Tb122 2.374 . S
O134 C129 1.250 . S
O135 Tb120 2.353 . S
O135 C129 1.263 . S
C136 O137 1.275 . S
C136 O138 1.246 . S
O137 Tb120 2.427 . S
O137 C136 1.275 . S
O138 Tb120 2.513 . S
O138 C136 1.246 . S
C139 O123 1.245 . S
C139 O124 1.259 . S
Tb140 O143 2.453 . S
Tb140 O144 2.596 . S
Tb140 O145 2.374 . S
Tb140 O153 2.343 . S
Tb140 O155 2.353 . S
Tb140 O157 2.427 . S
Tb140 O158 2.513 . S
C141 O145 1.251 . S
C141 O147 1.263 . S
Tb142 O144 2.343 . S
Tb142 O147 2.353 . S
Tb142 O150 2.427 . S
Tb142 O151 2.513 . S
Tb142 O152 2.453 . S
Tb142 O153 2.596 . S
Tb142 O154 2.374 . S
O143 Tb140 2.453 . S
O143 C159 1.245 . S
O144 Tb140 2.596 . S
O144 Tb142 2.343 . S
O144 C159 1.259 . S
O145 Tb140 2.374 . S
O145 C141 1.251 . S
C146 O150 1.275 . S
C146 O151 1.246 . S
O147 C141 1.263 . S
O147 Tb142 2.353 . S
C148 O152 1.245 . S
C148 O153 1.259 . S
C149 O154 1.250 . S
C149 O155 1.263 . S
O150 Tb142 2.427 . S
O150 C146 1.275 . S
O151 Tb142 2.513 . S
O151 C146 1.246 . S
O152 Tb142 2.453 . S
O152 C148 1.245 . S
O153 Tb140 2.343 . S
O153 Tb142 2.596 . S
O153 C148 1.259 . S
O154 Tb142 2.374 . S
O154 C149 1.250 . S
O155 Tb140 2.353 . S
O155 C149 1.263 . S
C156 O157 1.275 . S
C156 O158 1.246 . S
O157 Tb140 2.427 . S
O157 C156 1.275 . S
O158 Tb140 2.513 . S
O158 C156 1.246 . S
C159 O143 1.245 . S
C159 O144 1.259 . S
Tb160 O163 2.453 . S
Tb160 O164 2.596 . S
Tb160 O165 2.374 . S
Tb160 O173 2.343 . S
Tb160 O175 2.353 . S
Tb160 O177 2.427 . S
Tb160 O178 2.513 . S
C161 O165 1.251 . S
C161 O167 1.263 . S
Tb162 O164 2.343 . S
Tb162 O167 2.353 . S
Tb162 O170 2.427 . S
Tb162 O171 2.513 . S
Tb162 O172 2.453 . S
Tb162 O173 2.596 . S
Tb162 O174 2.374 . S
O163 Tb160 2.453 . S
O163 C179 1.245 . S
O164 Tb160 2.596 . S
O164 Tb162 2.343 . S
O164 C179 1.259 . S
O165 Tb160 2.374 . S
O165 C161 1.251 . S
C166 O170 1.275 . S
C166 O171 1.246 . S
O167 C161 1.263 . S
O167 Tb162 2.353 . S
C168 O172 1.245 . S
C168 O173 1.259 . S
C169 O174 1.250 . S
C169 O175 1.263 . S
O170 Tb162 2.427 . S
O170 C166 1.275 . S
O171 Tb162 2.513 . S
O171 C166 1.246 . S
O172 Tb162 2.453 . S
O172 C168 1.245 . S
O173 Tb160 2.343 . S
O173 Tb162 2.596 . S
O173 C168 1.259 . S
O174 Tb162 2.374 . S
O174 C169 1.250 . S
O175 Tb160 2.353 . S
O175 C169 1.263 . S
C176 O177 1.275 . S
C176 O178 1.246 . S
O177 Tb160 2.427 . S
O177 C176 1.275 . S
O178 Tb160 2.513 . S
O178 C176 1.246 . S
C179 O163 1.245 . S
C179 O164 1.259 . S
H180 C188 0.929 . S
H181 C190 0.930 . S
H182 C192 0.930 . S
H183 C195 0.929 . S
H184 C198 0.930 . S
H185 C200 0.960 . S
H186 C200 0.960 . S
H187 C200 0.960 . S
C188 H180 0.929 . S
C188 C189 1.377 . S
C188 C190 1.384 . S
C189 C188 1.377 . S
C189 C195 1.390 1_554 S
C190 H181 0.930 . S
C190 C188 1.384 . S
C190 C191 1.372 1_554 S
C191 C190 1.372 1_556 S
C191 C192 1.400 . S
C191 C196 1.490 . S
C192 H182 0.930 . S
C192 C191 1.400 . S
C192 C195 1.386 . S
H193 C209 0.930 . S
H194 C210 0.931 . S
C195 H183 0.929 . S
C195 C189 1.390 1_556 S
C195 C192 1.386 . S
C196 C191 1.490 . S
C196 C198 1.395 . S
C196 C199 1.403 . S
H197 C203 0.930 . S
C198 H184 0.930 . S
C198 C196 1.395 . S
C198 C201 1.403 . S
C199 C196 1.403 . S
C199 C200 1.524 . S
C199 C203 1.400 . S
C200 H185 0.960 . S
C200 H186 0.960 . S
C200 H187 0.960 . S
C200 C199 1.524 . S
C201 C198 1.403 . S
C201 C202 1.392 . S
C201 C205 1.495 . S
C202 C201 1.392 . S
C202 C203 1.385 . S
C202 C204 1.478 . S
C203 H197 0.930 . S
C203 C199 1.400 . S
C203 C202 1.385 . S
C204 C202 1.478 . S
C204 C206 1.381 . S
C204 C210 1.383 . S
C205 C201 1.495 . S
C205 H211 0.959 . S
C205 H212 0.961 . S
C205 H213 0.960 . S
C206 C204 1.381 . S
C206 C207 1.394 . S
C206 H214 0.930 . S
C207 C206 1.394 . S
C207 C208 1.383 . S
C207 H215 0.929 . S
C208 C207 1.383 . S
C208 C209 1.377 . S
C209 H193 0.930 . S
C209 C208 1.377 . S
C209 C210 1.379 . S
C210 H194 0.931 . S
C210 C204 1.383 . S
C210 C209 1.379 . S
H211 C205 0.959 . S
H212 C205 0.961 . S
H213 C205 0.960 . S
H214 C206 0.930 . S
H215 C207 0.929 . S
H216 C224 0.929 . S
H217 C226 0.930 . S
H218 C228 0.930 . S
H219 C231 0.929 . S
H220 C234 0.930 1_554 S
H221 C236 0.960 . S
H222 C236 0.960 . S
H223 C236 0.960 . S
C224 H216 0.929 . S
C224 C225 1.377 . S
C224 C226 1.384 . S
C225 C224 1.377 . S
C225 C231 1.390 1_554 S
C226 H217 0.930 . S
C226 C224 1.384 . S
C226 C227 1.372 1_554 S
C227 C226 1.372 1_556 S
C227 C228 1.400 . S
C227 C232 1.490 . S
C228 H218 0.930 . S
C228 C227 1.400 . S
C228 C231 1.386 . S
H229 C245 0.930 . S
H230 C246 0.931 . S
C231 H219 0.929 . S
C231 C225 1.390 1_556 S
C231 C228 1.386 . S
C232 C227 1.490 . S
C232 C234 1.395 . S
C232 C235 1.403 . S
H233 C239 0.930 . S
C234 H220 0.930 1_556 S
C234 C232 1.395 . S
C234 C237 1.403 . S
C235 C232 1.403 . S
C235 C236 1.524 . S
C235 C239 1.400 . S
C236 H221 0.960 . S
C236 H222 0.960 . S
C236 H223 0.960 . S
C236 C235 1.524 . S
C237 C234 1.403 . S
C237 C238 1.392 . S
C237 C241 1.495 . S
C238 C237 1.392 . S
C238 C239 1.385 . S
C238 C240 1.478 . S
C239 H233 0.930 . S
C239 C235 1.400 . S
C239 C238 1.385 . S
C240 C238 1.478 . S
C240 C242 1.381 . S
C240 C246 1.383 . S
C241 C237 1.495 . S
C241 H247 0.959 1_556 S
C241 H248 0.961 . S
C241 H249 0.960 1_556 S
C242 C240 1.381 . S
C242 C243 1.394 . S
C242 H250 0.930 . S
C243 C242 1.394 . S
C243 C244 1.383 . S
C243 H251 0.929 . S
C244 C243 1.383 . S
C244 C245 1.377 . S
C245 H229 0.930 . S
C245 C244 1.377 . S
C245 C246 1.379 . S
C246 H230 0.931 . S
C246 C240 1.383 . S
C246 C245 1.379 . S
H247 C241 0.959 1_554 S
H248 C241 0.961 . S
H249 C241 0.960 1_554 S
H250 C242 0.930 . S
H251 C243 0.929 . S
H252 C260 0.929 1_545 S
H253 C262 0.930 . S
H254 C264 0.930 . S
H255 C267 0.929 . S
H256 C270 0.930 . S
H257 C272 0.960 . S
H258 C272 0.960 . S
H259 C272 0.960 . S
C260 H252 0.929 1_565 S
C260 C261 1.377 . S
C260 C262 1.384 . S
C261 C260 1.377 . S
C261 C267 1.390 . S
C262 H253 0.930 . S
C262 C260 1.384 . S
C262 C263 1.372 . S
C263 C262 1.372 . S
C263 C264 1.400 . S
C263 C268 1.490 . S
C264 H254 0.930 . S
C264 C263 1.400 . S
C264 C267 1.386 . S
H265 C281 0.930 . S
H266 C282 0.931 . S
C267 H255 0.929 . S
C267 C261 1.390 . S
C267 C264 1.386 . S
C268 C263 1.490 . S
C268 C270 1.395 . S
C268 C271 1.403 . S
H269 C275 0.930 . S
C270 H256 0.930 . S
C270 C268 1.395 . S
C270 C273 1.403 . S
C271 C268 1.403 . S
C271 C272 1.524 . S
C271 C275 1.400 . S
C272 H257 0.960 . S
C272 H258 0.960 . S
C272 H259 0.960 . S
C272 C271 1.524 . S
C273 C270 1.403 . S
C273 C274 1.392 . S
C273 C277 1.495 . S
C274 C273 1.392 . S
C274 C275 1.385 . S
C274 C276 1.478 . S
C275 H269 0.930 . S
C275 C271 1.400 . S
C275 C274 1.385 . S
C276 C274 1.478 . S
C276 C278 1.381 . S
C276 C282 1.383 . S
C277 C273 1.495 . S
C277 H283 0.959 . S
C277 H284 0.961 . S
C277 H285 0.960 . S
C278 C276 1.381 . S
C278 C279 1.394 . S
C278 H286 0.930 . S
C279 C278 1.394 . S
C279 C280 1.383 . S
C279 H287 0.929 . S
C280 C279 1.383 . S
C280 C281 1.377 . S
C281 H265 0.930 . S
C281 C280 1.377 . S
C281 C282 1.379 . S
C282 H266 0.931 . S
C282 C276 1.383 . S
C282 C281 1.379 . S
H283 C277 0.959 . S
H284 C277 0.961 . S
H285 C277 0.960 . S
H286 C278 0.930 . S
H287 C279 0.929 . S
H288 C296 0.929 . S
H289 C298 0.930 . S
H290 C300 0.930 . S
H291 C303 0.929 . S
H292 C306 0.930 . S
H293 C308 0.960 . S
H294 C308 0.960 . S
H295 C308 0.960 . S
C296 H288 0.929 . S
C296 C297 1.377 . S
C296 C298 1.384 . S
C297 C296 1.377 . S
C297 C303 1.390 . S
C298 H289 0.930 . S
C298 C296 1.384 . S
C298 C299 1.372 . S
C299 C298 1.372 . S
C299 C300 1.400 . S
C299 C304 1.490 . S
C300 H290 0.930 . S
C300 C299 1.400 . S
C300 C303 1.386 . S
H301 C317 0.930 . S
H302 C318 0.931 . S
C303 H291 0.929 . S
C303 C297 1.390 . S
C303 C300 1.386 . S
C304 C299 1.490 . S
C304 C306 1.395 . S
C304 C307 1.403 . S
H305 C311 0.930 . S
C306 H292 0.930 . S
C306 C304 1.395 . S
C306 C309 1.403 . S
C307 C304 1.403 . S
C307 C308 1.524 . S
C307 C311 1.400 . S
C308 H293 0.960 . S
C308 H294 0.960 . S
C308 H295 0.960 . S
C308 C307 1.524 . S
C309 C306 1.403 . S
C309 C310 1.392 . S
C309 C313 1.495 . S
C310 C309 1.392 . S
C310 C311 1.385 . S
C310 C312 1.478 . S
C311 H305 0.930 . S
C311 C307 1.400 . S
C311 C310 1.385 . S
C312 C310 1.478 . S
C312 C314 1.381 . S
C312 C318 1.383 . S
C313 C309 1.495 . S
C313 H319 0.959 . S
C313 H320 0.961 . S
C313 H321 0.960 . S
C314 C312 1.381 . S
C314 C315 1.394 1_554 S
C314 H322 0.930 . S
C315 C314 1.394 1_556 S
C315 C316 1.383 1_556 S
C315 H323 0.929 . S
C316 C315 1.383 1_554 S
C316 C317 1.377 . S
C317 H301 0.930 . S
C317 C316 1.377 . S
C317 C318 1.379 . S
C318 H302 0.931 . S
C318 C312 1.383 . S
C318 C317 1.379 . S
H319 C313 0.959 . S
H320 C313 0.961 . S
H321 C313 0.960 . S
H322 C314 0.930 . S
H323 C315 0.929 . S
H324 C332 0.929 . S
H325 C334 0.930 . S
H326 C336 0.930 . S
H327 C339 0.929 . S
H328 C342 0.930 . S
H329 C344 0.960 . S
H330 C344 0.960 . S
H331 C344 0.960 . S
C332 H324 0.929 . S
C332 C333 1.377 . S
C332 C334 1.384 . S
C333 C332 1.377 . S
C333 C339 1.390 . S
C334 H325 0.930 . S
C334 C332 1.384 . S
C334 C335 1.372 . S
C335 C334 1.372 . S
C335 C336 1.400 . S
C335 C340 1.490 . S
C336 H326 0.930 . S
C336 C335 1.400 . S
C336 C339 1.386 . S
H337 C353 0.930 . S
H338 C354 0.931 . S
C339 H327 0.929 . S
C339 C333 1.390 . S
C339 C336 1.386 . S
C340 C335 1.490 . S
C340 C342 1.395 . S
C340 C343 1.403 . S
H341 C347 0.930 . S
C342 H328 0.930 . S
C342 C340 1.395 . S
C342 C345 1.403 . S
C343 C340 1.403 . S
C343 C344 1.524 . S
C343 C347 1.400 . S
C344 H329 0.960 . S
C344 H330 0.960 . S
C344 H331 0.960 . S
C344 C343 1.524 . S
C345 C342 1.403 . S
C345 C346 1.392 . S
C345 C349 1.495 . S
C346 C345 1.392 . S
C346 C347 1.385 . S
C346 C348 1.478 . S
C347 H341 0.930 . S
C347 C343 1.400 . S
C347 C346 1.385 . S
C348 C346 1.478 . S
C348 C350 1.381 . S
C348 C354 1.383 . S
C349 C345 1.495 . S
C349 H355 0.959 . S
C349 H356 0.961 . S
C349 H357 0.960 . S
C350 C348 1.381 . S
C350 C351 1.394 . S
C350 H358 0.930 . S
C351 C350 1.394 . S
C351 C352 1.383 . S
C351 H359 0.929 . S
C352 C351 1.383 . S
C352 C353 1.377 . S
C353 H337 0.930 . S
C353 C352 1.377 . S
C353 C354 1.379 . S
C354 H338 0.931 . S
C354 C348 1.383 . S
C354 C353 1.379 . S
H355 C349 0.959 . S
H356 C349 0.961 . S
H357 C349 0.960 . S
H358 C350 0.930 . S
H359 C351 0.929 . S
H360 C368 0.929 . S
H361 C370 0.930 . S
H362 C372 0.930 . S
H363 C375 0.929 . S
H364 C378 0.930 . S
H365 C380 0.960 . S
H366 C380 0.960 . S
H367 C380 0.960 . S
C368 H360 0.929 . S
C368 C369 1.377 . S
C368 C370 1.384 . S
C369 C368 1.377 . S
C369 C375 1.390 . S
C370 H361 0.930 . S
C370 C368 1.384 . S
C370 C371 1.372 . S
C371 C370 1.372 . S
C371 C372 1.400 . S
C371 C376 1.490 . S
C372 H362 0.930 . S
C372 C371 1.400 . S
C372 C375 1.386 . S
H373 C389 0.930 . S
H374 C390 0.931 . S
C375 H363 0.929 . S
C375 C369 1.390 . S
C375 C372 1.386 . S
C376 C371 1.490 . S
C376 C378 1.395 . S
C376 C379 1.403 . S
H377 C383 0.930 . S
C378 H364 0.930 . S
C378 C376 1.395 . S
C378 C381 1.403 . S
C379 C376 1.403 . S
C379 C380 1.524 . S
C379 C383 1.400 . S
C380 H365 0.960 . S
C380 H366 0.960 . S
C380 H367 0.960 . S
C380 C379 1.524 . S
C381 C378 1.403 . S
C381 C382 1.392 . S
C381 C385 1.495 . S
C382 C381 1.392 . S
C382 C383 1.385 . S
C382 C384 1.478 . S
C383 H377 0.930 . S
C383 C379 1.400 . S
C383 C382 1.385 . S
C384 C382 1.478 . S
C384 C386 1.381 . S
C384 C390 1.383 . S
C385 C381 1.495 . S
C385 H391 0.959 . S
C385 H392 0.961 . S
C385 H393 0.960 . S
C386 C384 1.381 . S
C386 C387 1.394 . S
C386 H394 0.930 . S
C387 C386 1.394 . S
C387 C388 1.383 . S
C387 H395 0.929 . S
C388 C387 1.383 . S
C388 C389 1.377 . S
C389 H373 0.930 . S
C389 C388 1.377 . S
C389 C390 1.379 . S
C390 H374 0.931 . S
C390 C384 1.383 . S
C390 C389 1.379 . S
H391 C385 0.959 . S
H392 C385 0.961 . S
H393 C385 0.960 . S
H394 C386 0.930 . S
H395 C387 0.929 . S
H396 C404 0.929 . S
H397 C406 0.930 . S
H398 C408 0.930 . S
H399 C411 0.929 . S
H400 C414 0.930 1_455 S
H401 C416 0.960 . S
H402 C416 0.960 . S
H403 C416 0.960 . S
C404 H396 0.929 . S
C404 C405 1.377 . S
C404 C406 1.384 . S
C405 C404 1.377 . S
C405 C411 1.390 . S
C406 H397 0.930 . S
C406 C404 1.384 . S
C406 C407 1.372 . S
C407 C406 1.372 . S
C407 C408 1.400 . S
C407 C412 1.490 1_455 S
C408 H398 0.930 . S
C408 C407 1.400 . S
C408 C411 1.386 . S
H409 C425 0.930 . S
H410 C426 0.931 . S
C411 H399 0.929 . S
C411 C405 1.390 . S
C411 C408 1.386 . S
C412 C407 1.490 1_655 S
C412 C414 1.395 . S
C412 C415 1.403 . S
H413 C419 0.930 . S
C414 H400 0.930 1_655 S
C414 C412 1.395 . S
C414 C417 1.403 . S
C415 C412 1.403 . S
C415 C416 1.524 . S
C415 C419 1.400 . S
C416 H401 0.960 . S
C416 H402 0.960 . S
C416 H403 0.960 . S
C416 C415 1.524 . S
C417 C414 1.403 . S
C417 C418 1.392 . S
C417 C421 1.495 . S
C418 C417 1.392 . S
C418 C419 1.385 . S
C418 C420 1.478 . S
C419 H413 0.930 . S
C419 C415 1.400 . S
C419 C418 1.385 . S
C420 C418 1.478 . S
C420 C422 1.381 . S
C420 C426 1.383 . S
C421 C417 1.495 . S
C421 H427 0.959 . S
C421 H428 0.961 . S
C421 H429 0.960 . S
C422 C420 1.381 . S
C422 C423 1.394 . S
C422 H430 0.930 . S
C423 C422 1.394 . S
C423 C424 1.383 . S
C423 H431 0.929 . S
C424 C423 1.383 . S
C424 C425 1.377 . S
C425 H409 0.930 . S
C425 C424 1.377 . S
C425 C426 1.379 . S
C426 H410 0.931 . S
C426 C420 1.383 . S
C426 C425 1.379 . S
H427 C421 0.959 . S
H428 C421 0.961 . S
H429 C421 0.960 . S
H430 C422 0.930 . S
H431 C423 0.929 . S
H432 C440 0.929 . S
H433 C442 0.930 . S
H434 C444 0.930 . S
H435 C447 0.929 . S
H436 C450 0.930 . S
H437 C452 0.960 . S
H438 C452 0.960 . S
H439 C452 0.960 . S
C440 H432 0.929 . S
C440 C441 1.377 . S
C440 C442 1.384 . S
C441 C440 1.377 . S
C441 C447 1.390 . S
C442 H433 0.930 . S
C442 C440 1.384 . S
C442 C443 1.372 . S
C443 C442 1.372 . S
C443 C444 1.400 . S
C443 C448 1.490 . S
C444 H434 0.930 . S
C444 C443 1.400 . S
C444 C447 1.386 . S
H445 C461 0.930 . S
H446 C462 0.931 . S
C447 H435 0.929 . S
C447 C441 1.390 . S
C447 C444 1.386 . S
C448 C443 1.490 . S
C448 C450 1.395 . S
C448 C451 1.403 . S
H449 C455 0.930 . S
C450 H436 0.930 . S
C450 C448 1.395 . S
C450 C453 1.403 . S
C451 C448 1.403 . S
C451 C452 1.524 . S
C451 C455 1.400 . S
C452 H437 0.960 . S
C452 H438 0.960 . S
C452 H439 0.960 . S
C452 C451 1.524 . S
C453 C450 1.403 . S
C453 C454 1.392 . S
C453 C457 1.495 . S
C454 C453 1.392 . S
C454 C455 1.385 . S
C454 C456 1.478 . S
C455 H449 0.930 . S
C455 C451 1.400 . S
C455 C454 1.385 . S
C456 C454 1.478 . S
C456 C458 1.381 . S
C456 C462 1.383 . S
C457 C453 1.495 . S
C457 H463 0.959 . S
C457 H464 0.961 . S
C457 H465 0.960 . S
C458 C456 1.381 . S
C458 C459 1.394 . S
C458 H466 0.930 . S
C459 C458 1.394 . S
C459 C460 1.383 . S
C459 H467 0.929 . S
C460 C459 1.383 . S
C460 C461 1.377 . S
C461 H445 0.930 . S
C461 C460 1.377 . S
C461 C462 1.379 . S
C462 H446 0.931 . S
C462 C456 1.383 . S
C462 C461 1.379 . S
H463 C457 0.959 . S
H464 C457 0.961 . S
H465 C457 0.960 . S
H466 C458 0.930 . S
H467 C459 0.929 . S
H468 C476 0.929 . S
H469 C478 0.930 . S
H470 C480 0.930 . S
H471 C483 0.929 . S
H472 C486 0.930 . S
H473 C488 0.960 . S
H474 C488 0.960 . S
H475 C488 0.960 . S
C476 H468 0.929 . S
C476 C477 1.377 . S
C476 C478 1.384 . S
C477 C476 1.377 . S
C477 C483 1.390 . S
C478 H469 0.930 . S
C478 C476 1.384 . S
C478 C479 1.372 . S
C479 C478 1.372 . S
C479 C480 1.400 . S
C479 C484 1.490 . S
C480 H470 0.930 . S
C480 C479 1.400 . S
C480 C483 1.386 . S
H481 C497 0.930 . S
H482 C498 0.931 . S
C483 H471 0.929 . S
C483 C477 1.390 . S
C483 C480 1.386 . S
C484 C479 1.490 . S
C484 C486 1.395 . S
C484 C487 1.403 . S
H485 C491 0.930 . S
C486 H472 0.930 . S
C486 C484 1.395 . S
C486 C489 1.403 1_545 S
C487 C484 1.403 . S
C487 C488 1.524 . S
C487 C491 1.400 1_545 S
C488 H473 0.960 . S
C488 H474 0.960 . S
C488 H475 0.960 . S
C488 C487 1.524 . S
C489 C486 1.403 1_565 S
C489 C490 1.392 . S
C489 C493 1.495 . S
C490 C489 1.392 . S
C490 C491 1.385 . S
C490 C492 1.478 . S
C491 H485 0.930 . S
C491 C487 1.400 1_565 S
C491 C490 1.385 . S
C492 C490 1.478 . S
C492 C494 1.381 . S
C492 C498 1.383 . S
C493 C489 1.495 . S
C493 H499 0.959 . S
C493 H500 0.961 . S
C493 H501 0.960 . S
C494 C492 1.381 . S
C494 C495 1.394 . S
C494 H502 0.930 . S
C495 C494 1.394 . S
C495 C496 1.383 . S
C495 H503 0.929 . S
C496 C495 1.383 . S
C496 C497 1.377 . S
C497 H481 0.930 . S
C497 C496 1.377 . S
C497 C498 1.379 . S
C498 H482 0.931 . S
C498 C492 1.383 . S
C498 C497 1.379 . S
H499 C493 0.959 . S
H500 C493 0.961 . S
H501 C493 0.960 . S
H502 C494 0.930 . S
H503 C495 0.929 . S
H504 C512 0.929 . S
H505 C514 0.930 . S
H506 C516 0.930 . S
H507 C519 0.929 . S
H508 C522 0.930 . S
H509 C524 0.960 . S
H510 C524 0.960 . S
H511 C524 0.960 . S
C512 H504 0.929 . S
C512 C513 1.377 1_556 S
C512 C514 1.384 . S
C513 C512 1.377 1_554 S
C513 C519 1.390 . S
C514 H505 0.930 . S
C514 C512 1.384 . S
C514 C515 1.372 1_556 S
C515 C514 1.372 1_554 S
C515 C516 1.400 . S
C515 C520 1.490 . S
C516 H506 0.930 . S
C516 C515 1.400 . S
C516 C519 1.386 . S
H517 C533 0.930 . S
H518 C534 0.931 . S
C519 H507 0.929 . S
C519 C513 1.390 . S
C519 C516 1.386 . S
C520 C515 1.490 . S
C520 C522 1.395 . S
C520 C523 1.403 . S
H521 C527 0.930 . S
C522 H508 0.930 . S
C522 C520 1.395 . S
C522 C525 1.403 . S
C523 C520 1.403 . S
C523 C524 1.524 . S
C523 C527 1.400 . S
C524 H509 0.960 . S
C524 H510 0.960 . S
C524 H511 0.960 . S
C524 C523 1.524 . S
C525 C522 1.403 . S
C525 C526 1.392 . S
C525 C529 1.495 . S
C526 C525 1.392 . S
C526 C527 1.385 . S
C526 C528 1.478 . S
C527 H521 0.930 . S
C527 C523 1.400 . S
C527 C526 1.385 . S
C528 C526 1.478 . S
C528 C530 1.381 1_554 S
C528 C534 1.383 . S
C529 C525 1.495 . S
C529 H535 0.959 1_554 S
C529 H536 0.961 . S
C529 H537 0.960 1_554 S
C530 C528 1.381 1_556 S
C530 C531 1.394 . S
C530 H538 0.930 . S
C531 C530 1.394 . S
C531 C532 1.383 1_556 S
C531 H539 0.929 . S
C532 C531 1.383 1_554 S
C532 C533 1.377 . S
C533 H517 0.930 . S
C533 C532 1.377 . S
C533 C534 1.379 . S
C534 H518 0.931 . S
C534 C528 1.383 . S
C534 C533 1.379 . S
H535 C529 0.959 1_556 S
H536 C529 0.961 . S
H537 C529 0.960 1_556 S
H538 C530 0.930 . S
H539 C531 0.929 . S
H540 C548 0.929 . S
H541 C550 0.930 . S
H542 C552 0.930 1_556 S
H543 C555 0.929 . S
H544 C558 0.930 1_565 S
H545 C560 0.960 . S
H546 C560 0.960 1_565 S
H547 C560 0.960 1_566 S
C548 H540 0.929 . S
C548 C549 1.377 . S
C548 C550 1.384 . S
C549 C548 1.377 . S
C549 C555 1.390 1_554 S
C550 H541 0.930 . S
C550 C548 1.384 . S
C550 C551 1.372 . S
C551 C550 1.372 . S
C551 C552 1.400 . S
C551 C556 1.490 . S
C552 H542 0.930 1_554 S
C552 C551 1.400 . S
C552 C555 1.386 1_554 S
H553 C569 0.930 1_556 S
H554 C570 0.931 1_556 S
C555 H543 0.929 . S
C555 C549 1.390 1_556 S
C555 C552 1.386 1_556 S
C556 C551 1.490 . S
C556 C558 1.395 1_565 S
C556 C559 1.403 1_565 S
H557 C563 0.930 . S
C558 H544 0.930 1_545 S
C558 C556 1.395 1_545 S
C558 C561 1.403 . S
C559 C556 1.403 1_545 S
C559 C560 1.524 . S
C559 C563 1.400 . S
C560 H545 0.960 . S
C560 H546 0.960 1_545 S
C560 H547 0.960 1_544 S
C560 C559 1.524 . S
C561 C558 1.403 . S
C561 C562 1.392 . S
C561 C565 1.495 . S
C562 C561 1.392 . S
C562 C563 1.385 . S
C562 C564 1.478 . S
C563 H557 0.930 . S
C563 C559 1.400 . S
C563 C562 1.385 . S
C564 C562 1.478 . S
C564 C566 1.381 . S
C564 C570 1.383 . S
C565 C561 1.495 . S
C565 H571 0.959 . S
C565 H572 0.961 . S
C565 H573 0.960 . S
C566 C564 1.381 . S
C566 C567 1.394 . S
C566 H574 0.930 . S
C567 C566 1.394 . S
C567 C568 1.383 . S
C567 H575 0.929 . S
C568 C567 1.383 . S
C568 C569 1.377 . S
C569 H553 0.930 1_554 S
C569 C568 1.377 . S
C569 C570 1.379 . S
C570 H554 0.931 1_554 S
C570 C564 1.383 . S
C570 C569 1.379 . S
H571 C565 0.959 . S
H572 C565 0.961 . S
H573 C565 0.960 . S
H574 C566 0.930 . S
H575 C567 0.929 . S
H576 C584 0.929 1_556 S
H577 C586 0.930 1_556 S
H578 C588 0.930 . S
H579 C591 0.929 . S
H580 C594 0.930 . S
H581 C596 0.960 . S
H582 C596 0.960 . S
H583 C596 0.960 . S
C584 H576 0.929 1_554 S
C584 C585 1.377 . S
C584 C586 1.384 . S
C585 C584 1.377 . S
C585 C591 1.390 . S
C586 H577 0.930 1_554 S
C586 C584 1.384 . S
C586 C587 1.372 . S
C587 C586 1.372 . S
C587 C588 1.400 . S
C587 C592 1.490 . S
C588 H578 0.930 . S
C588 C587 1.400 . S
C588 C591 1.386 . S
H589 C605 0.930 . S
H590 C606 0.931 . S
C591 H579 0.929 . S
C591 C585 1.390 . S
C591 C588 1.386 . S
C592 C587 1.490 . S
C592 C594 1.395 . S
C592 C595 1.403 . S
H593 C599 0.930 . S
C594 H580 0.930 . S
C594 C592 1.395 . S
C594 C597 1.403 1_655 S
C595 C592 1.403 . S
C595 C596 1.524 . S
C595 C599 1.400 1_655 S
C596 H581 0.960 . S
C596 H582 0.960 . S
C596 H583 0.960 . S
C596 C595 1.524 . S
C597 C594 1.403 1_455 S
C597 C598 1.392 . S
C597 C601 1.495 1_554 S
C598 C597 1.392 . S
C598 C599 1.385 . S
C598 C600 1.478 . S
C599 H593 0.930 . S
C599 C595 1.400 1_455 S
C599 C598 1.385 . S
C600 C598 1.478 . S
C600 C602 1.381 1_554 S
C600 C606 1.383 . S
C601 C597 1.495 1_556 S
C601 H607 0.959 . S
C601 H608 0.961 1_556 S
C601 H609 0.960 . S
C602 C600 1.381 1_556 S
C602 C603 1.394 . S
C602 H610 0.930 . S
C603 C602 1.394 . S
C603 C604 1.383 . S
C603 H611 0.929 . S
C604 C603 1.383 . S
C604 C605 1.377 1_556 S
C605 H589 0.930 . S
C605 C604 1.377 1_554 S
C605 C606 1.379 . S
C606 H590 0.931 . S
C606 C600 1.383 . S
C606 C605 1.379 . S
H607 C601 0.959 . S
H608 C601 0.961 1_554 S
H609 C601 0.960 . S
H610 C602 0.930 . S
H611 C603 0.929 . S
H612 C620 0.929 . S
H613 C622 0.930 . S
H614 C624 0.930 . S
H615 C627 0.929 . S
H616 C630 0.930 . S
H617 C632 0.960 . S
H618 C632 0.960 . S
H619 C632 0.960 . S
C620 H612 0.929 . S
C620 C621 1.377 . S
C620 C622 1.384 . S
C621 C620 1.377 . S
C621 C627 1.390 . S
C622 H613 0.930 . S
C622 C620 1.384 . S
C622 C623 1.372 . S
C623 C622 1.372 . S
C623 C624 1.400 . S
C623 C628 1.490 . S
C624 H614 0.930 . S
C624 C623 1.400 . S
C624 C627 1.386 . S
H625 C641 0.930 . S
H626 C642 0.931 . S
C627 H615 0.929 . S
C627 C621 1.390 . S
C627 C624 1.386 . S
C628 C623 1.490 . S
C628 C630 1.395 . S
C628 C631 1.403 . S
H629 C635 0.930 . S
C630 H616 0.930 . S
C630 C628 1.395 . S
C630 C633 1.403 . S
C631 C628 1.403 . S
C631 C632 1.524 . S
C631 C635 1.400 . S
C632 H617 0.960 . S
C632 H618 0.960 . S
C632 H619 0.960 . S
C632 C631 1.524 . S
C633 C630 1.403 . S
C633 C634 1.392 . S
C633 C637 1.495 . S
C634 C633 1.392 . S
C634 C635 1.385 . S
C634 C636 1.478 . S
C635 H629 0.930 . S
C635 C631 1.400 . S
C635 C634 1.385 . S
C636 C634 1.478 . S
C636 C638 1.381 . S
C636 C642 1.383 . S
C637 C633 1.495 . S
C637 H643 0.959 . S
C637 H644 0.961 . S
C637 H645 0.960 . S
C638 C636 1.381 . S
C638 C639 1.394 . S
C638 H646 0.930 . S
C639 C638 1.394 . S
C639 C640 1.383 . S
C639 H647 0.929 . S
C640 C639 1.383 . S
C640 C641 1.377 . S
C641 H625 0.930 . S
C641 C640 1.377 . S
C641 C642 1.379 . S
C642 H626 0.931 . S
C642 C636 1.383 . S
C642 C641 1.379 . S
H643 C637 0.959 . S
H644 C637 0.961 . S
H645 C637 0.960 . S
H646 C638 0.930 . S
H647 C639 0.929 . S
H648 C656 0.929 . S
H649 C658 0.930 . S
H650 C660 0.930 . S
H651 C663 0.929 . S
H652 C666 0.930 . S
H653 C668 0.960 . S
H654 C668 0.960 . S
H655 C668 0.960 . S
C656 H648 0.929 . S
C656 C657 1.377 . S
C656 C658 1.384 . S
C657 C656 1.377 . S
C657 C663 1.390 . S
C658 H649 0.930 . S
C658 C656 1.384 . S
C658 C659 1.372 . S
C659 C658 1.372 . S
C659 C660 1.400 . S
C659 C664 1.490 . S
C660 H650 0.930 . S
C660 C659 1.400 . S
C660 C663 1.386 . S
H661 C677 0.930 . S
H662 C678 0.931 . S
C663 H651 0.929 . S
C663 C657 1.390 . S
C663 C660 1.386 . S
C664 C659 1.490 . S
C664 C666 1.395 . S
C664 C667 1.403 . S
H665 C671 0.930 . S
C666 H652 0.930 . S
C666 C664 1.395 . S
C666 C669 1.403 . S
C667 C664 1.403 . S
C667 C668 1.524 . S
C667 C671 1.400 . S
C668 H653 0.960 . S
C668 H654 0.960 . S
C668 H655 0.960 . S
C668 C667 1.524 . S
C669 C666 1.403 . S
C669 C670 1.392 . S
C669 C673 1.495 . S
C670 C669 1.392 . S
C670 C671 1.385 . S
C670 C672 1.478 . S
C671 H665 0.930 . S
C671 C667 1.400 . S
C671 C670 1.385 . S
C672 C670 1.478 . S
C672 C674 1.381 . S
C672 C678 1.383 . S
C673 C669 1.495 . S
C673 H679 0.959 . S
C673 H680 0.961 . S
C673 H681 0.960 . S
C674 C672 1.381 . S
C674 C675 1.394 . S
C674 H682 0.930 . S
C675 C674 1.394 . S
C675 C676 1.383 . S
C675 H683 0.929 . S
C676 C675 1.383 . S
C676 C677 1.377 . S
C677 H661 0.930 . S
C677 C676 1.377 . S
C677 C678 1.379 . S
C678 H662 0.931 . S
C678 C672 1.383 . S
C678 C677 1.379 . S
H679 C673 0.959 . S
H680 C673 0.961 . S
H681 C673 0.960 . S
H682 C674 0.930 . S
H683 C675 0.929 . S
H684 C692 0.929 . S
H685 C694 0.930 . S
H686 C696 0.930 . S
H687 C699 0.929 . S
H688 C702 0.930 . S
H689 C704 0.960 . S
H690 C704 0.960 . S
H691 C704 0.960 . S
C692 H684 0.929 . S
C692 C693 1.377 . S
C692 C694 1.384 . S
C693 C692 1.377 . S
C693 C699 1.390 . S
C694 H685 0.930 . S
C694 C692 1.384 . S
C694 C695 1.372 . S
C695 C694 1.372 . S
C695 C696 1.400 . S
C695 C700 1.490 . S
C696 H686 0.930 . S
C696 C695 1.400 . S
C696 C699 1.386 . S
H697 C713 0.930 . S
H698 C714 0.931 . S
C699 H687 0.929 . S
C699 C693 1.390 . S
C699 C696 1.386 . S
C700 C695 1.490 . S
C700 C702 1.395 . S
C700 C703 1.403 . S
H701 C707 0.930 . S
C702 H688 0.930 . S
C702 C700 1.395 . S
C702 C705 1.403 . S
C703 C700 1.403 . S
C703 C704 1.524 . S
C703 C707 1.400 . S
C704 H689 0.960 . S
C704 H690 0.960 . S
C704 H691 0.960 . S
C704 C703 1.524 . S
C705 C702 1.403 . S
C705 C706 1.392 . S
C705 C709 1.495 . S
C706 C705 1.392 . S
C706 C707 1.385 . S
C706 C708 1.478 . S
C707 H701 0.930 . S
C707 C703 1.400 . S
C707 C706 1.385 . S
C708 C706 1.478 . S
C708 C710 1.381 . S
C708 C714 1.383 . S
C709 C705 1.495 . S
C709 H715 0.959 . S
C709 H716 0.961 . S
C709 H717 0.960 . S
C710 C708 1.381 . S
C710 C711 1.394 . S
C710 H718 0.930 . S
C711 C710 1.394 . S
C711 C712 1.383 . S
C711 H719 0.929 . S
C712 C711 1.383 . S
C712 C713 1.377 . S
C713 H697 0.930 . S
C713 C712 1.377 . S
C713 C714 1.379 . S
C714 H698 0.931 . S
C714 C708 1.383 . S
C714 C713 1.379 . S
H715 C709 0.959 . S
H716 C709 0.961 . S
H717 C709 0.960 . S
H718 C710 0.930 . S
H719 C711 0.929 . S
H720 C728 0.929 . S
H721 C730 0.930 . S
H722 C732 0.930 . S
H723 C735 0.929 . S
H724 C738 0.930 . S
H725 C740 0.960 . S
H726 C740 0.960 . S
H727 C740 0.960 . S
C728 H720 0.929 . S
C728 C729 1.377 . S
C728 C730 1.384 . S
C729 C728 1.377 . S
C729 C735 1.390 . S
C730 H721 0.930 . S
C730 C728 1.384 . S
C730 C731 1.372 . S
C731 C730 1.372 . S
C731 C732 1.400 . S
C731 C736 1.490 . S
C732 H722 0.930 . S
C732 C731 1.400 . S
C732 C735 1.386 . S
H733 C749 0.930 . S
H734 C750 0.931 . S
C735 H723 0.929 . S
C735 C729 1.390 . S
C735 C732 1.386 . S
C736 C731 1.490 . S
C736 C738 1.395 . S
C736 C739 1.403 . S
H737 C743 0.930 . S
C738 H724 0.930 . S
C738 C736 1.395 . S
C738 C741 1.403 . S
C739 C736 1.403 . S
C739 C740 1.524 . S
C739 C743 1.400 . S
C740 H725 0.960 . S
C740 H726 0.960 . S
C740 H727 0.960 . S
C740 C739 1.524 . S
C741 C738 1.403 . S
C741 C742 1.392 . S
C741 C745 1.495 . S
C742 C741 1.392 . S
C742 C743 1.385 . S
C742 C744 1.478 . S
C743 H737 0.930 . S
C743 C739 1.400 . S
C743 C742 1.385 . S
C744 C742 1.478 . S
C744 C746 1.381 . S
C744 C750 1.383 . S
C745 C741 1.495 . S
C745 H751 0.959 . S
C745 H752 0.961 . S
C745 H753 0.960 . S
C746 C744 1.381 . S
C746 C747 1.394 . S
C746 H754 0.930 . S
C747 C746 1.394 . S
C747 C748 1.383 . S
C747 H755 0.929 . S
C748 C747 1.383 . S
C748 C749 1.377 . S
C749 H733 0.930 . S
C749 C748 1.377 . S
C749 C750 1.379 . S
C750 H734 0.931 . S
C750 C744 1.383 . S
C750 C749 1.379 . S
H751 C745 0.959 . S
H752 C745 0.961 . S
H753 C745 0.960 . S
H754 C746 0.930 . S
H755 C747 0.929 . S
H756 C764 0.929 . S
H757 C766 0.930 . S
H758 C768 0.930 . S
H759 C771 0.929 . S
H760 C774 0.930 . S
H761 C776 0.960 . S
H762 C776 0.960 . S
H763 C776 0.960 . S
C764 H756 0.929 . S
C764 C765 1.377 . S
C764 C766 1.384 . S
C765 C764 1.377 . S
C765 C771 1.390 . S
C766 H757 0.930 . S
C766 C764 1.384 . S
C766 C767 1.372 . S
C767 C766 1.372 . S
C767 C768 1.400 . S
C767 C772 1.490 . S
C768 H758 0.930 . S
C768 C767 1.400 . S
C768 C771 1.386 . S
H769 C785 0.930 . S
H770 C786 0.931 . S
C771 H759 0.929 . S
C771 C765 1.390 . S
C771 C768 1.386 . S
C772 C767 1.490 . S
C772 C774 1.395 . S
C772 C775 1.403 . S
H773 C779 0.930 . S
C774 H760 0.930 . S
C774 C772 1.395 . S
C774 C777 1.403 . S
C775 C772 1.403 . S
C775 C776 1.524 . S
C775 C779 1.400 . S
C776 H761 0.960 . S
C776 H762 0.960 . S
C776 H763 0.960 . S
C776 C775 1.524 . S
C777 C774 1.403 . S
C777 C778 1.392 . S
C777 C781 1.495 . S
C778 C777 1.392 . S
C778 C779 1.385 . S
C778 C780 1.478 . S
C779 H773 0.930 . S
C779 C775 1.400 . S
C779 C778 1.385 . S
C780 C778 1.478 . S
C780 C782 1.381 . S
C780 C786 1.383 . S
C781 C777 1.495 . S
C781 H787 0.959 . S
C781 H788 0.961 . S
C781 H789 0.960 . S
C782 C780 1.381 . S
C782 C783 1.394 . S
C782 H790 0.930 . S
C783 C782 1.394 . S
C783 C784 1.383 . S
C783 H791 0.929 . S
C784 C783 1.383 . S
C784 C785 1.377 . S
C785 H769 0.930 . S
C785 C784 1.377 . S
C785 C786 1.379 . S
C786 H770 0.931 . S
C786 C780 1.383 . S
C786 C785 1.379 . S
H787 C781 0.959 . S
H788 C781 0.961 . S
H789 C781 0.960 . S
H790 C782 0.930 . S
H791 C783 0.929 . S
H792 C800 0.929 . S
H793 C802 0.930 . S
H794 C804 0.930 . S
H795 C807 0.929 . S
H796 C810 0.930 . S
H797 C812 0.960 . S
H798 C812 0.960 . S
H799 C812 0.960 . S
C800 H792 0.929 . S
C800 C801 1.377 . S
C800 C802 1.384 . S
C801 C800 1.377 . S
C801 C807 1.390 . S
C802 H793 0.930 . S
C802 C800 1.384 . S
C802 C803 1.372 . S
C803 C802 1.372 . S
C803 C804 1.400 . S
C803 C808 1.490 . S
C804 H794 0.930 . S
C804 C803 1.400 . S
C804 C807 1.386 . S
H805 C821 0.930 . S
H806 C822 0.931 . S
C807 H795 0.929 . S
C807 C801 1.390 . S
C807 C804 1.386 . S
C808 C803 1.490 . S
C808 C810 1.395 . S
C808 C811 1.403 . S
H809 C815 0.930 . S
C810 H796 0.930 . S
C810 C808 1.395 . S
C810 C813 1.403 . S
C811 C808 1.403 . S
C811 C812 1.524 . S
C811 C815 1.400 . S
C812 H797 0.960 . S
C812 H798 0.960 . S
C812 H799 0.960 . S
C812 C811 1.524 . S
C813 C810 1.403 . S
C813 C814 1.392 . S
C813 C817 1.495 . S
C814 C813 1.392 . S
C814 C815 1.385 . S
C814 C816 1.478 . S
C815 H809 0.930 . S
C815 C811 1.400 . S
C815 C814 1.385 . S
C816 C814 1.478 . S
C816 C818 1.381 . S
C816 C822 1.383 . S
C817 C813 1.495 . S
C817 H823 0.959 . S
C817 H824 0.961 . S
C817 H825 0.960 . S
C818 C816 1.381 . S
C818 C819 1.394 . S
C818 H826 0.930 . S
C819 C818 1.394 . S
C819 C820 1.383 . S
C819 H827 0.929 . S
C820 C819 1.383 . S
C820 C821 1.377 . S
C821 H805 0.930 . S
C821 C820 1.377 . S
C821 C822 1.379 . S
C822 H806 0.931 . S
C822 C816 1.383 . S
C822 C821 1.379 . S
H823 C817 0.959 . S
H824 C817 0.961 . S
H825 C817 0.960 . S
H826 C818 0.930 . S
H827 C819 0.929 . S
H828 C836 0.929 1_655 S
H829 C838 0.920 . S
H830 C840 0.930 . S
H831 C843 0.929 . S
H832 C846 0.930 . S
H833 C848 0.960 . S
H834 C848 0.960 . S
H835 C848 0.960 . S
C836 H828 0.929 1_455 S
C836 C837 1.377 . S
C836 C838 1.384 . S
C837 C836 1.377 . S
C837 C843 1.390 . S
C838 H829 0.920 . S
C838 C836 1.384 . S
C838 C839 1.372 . S
C839 C838 1.372 . S
C839 C840 1.400 . S
C839 C844 1.490 . S
C840 H830 0.930 . S
C840 C839 1.400 . S
C840 C843 1.386 . S
H841 C857 0.930 . S
H842 C858 0.931 . S
C843 H831 0.929 . S
C843 C837 1.390 . S
C843 C840 1.386 . S
C844 C839 1.490 . S
C844 C846 1.395 1_455 S
C844 C847 1.403 . S
H845 C851 0.930 . S
C846 H832 0.930 . S
C846 C844 1.395 1_655 S
C846 C849 1.403 . S
C847 C844 1.403 . S
C847 C848 1.524 . S
C847 C851 1.400 . S
C848 H833 0.960 . S
C848 H834 0.960 . S
C848 H835 0.960 . S
C848 C847 1.524 . S
C849 C846 1.403 . S
C849 C850 1.392 1_655 S
C849 C853 1.495 . S
C850 C849 1.392 1_455 S
C850 C851 1.385 . S
C850 C852 1.478 . S
C851 H845 0.930 . S
C851 C847 1.400 . S
C851 C850 1.385 . S
C852 C850 1.478 . S
C852 C854 1.381 . S
C852 C858 1.383 . S
C853 C849 1.495 . S
C853 H859 0.959 . S
C853 H860 0.961 . S
C853 H861 0.960 . S
C854 C852 1.381 . S
C854 C855 1.394 . S
C854 H862 0.930 . S
C855 C854 1.394 . S
C855 C856 1.383 . S
C855 H863 0.929 . S
C856 C855 1.383 . S
C856 C857 1.377 . S
C857 H841 0.930 . S
C857 C856 1.377 . S
C857 C858 1.379 . S
C858 H842 0.931 . S
C858 C852 1.383 . S
C858 C857 1.379 . S
H859 C853 0.959 . S
H860 C853 0.961 . S
H861 C853 0.960 . S
H862 C854 0.930 . S
H863 C855 0.929 . S
H864 C872 0.929 . S
H865 C874 0.930 . S
H866 C876 0.930 . S
H867 C879 0.929 . S
H868 C882 0.930 . S
H869 C884 0.960 . S
H870 C884 0.960 . S
H871 C884 0.960 . S
C872 H864 0.929 . S
C872 C873 1.377 . S
C872 C874 1.384 . S
C873 C872 1.377 . S
C873 C879 1.390 . S
C874 H865 0.930 . S
C874 C872 1.384 . S
C874 C875 1.372 . S
C875 C874 1.372 . S
C875 C876 1.400 . S
C875 C880 1.490 . S
C876 H866 0.930 . S
C876 C875 1.400 . S
C876 C879 1.386 . S
H877 C893 0.930 . S
H878 C894 0.931 . S
C879 H867 0.929 . S
C879 C873 1.390 . S
C879 C876 1.386 . S
C880 C875 1.490 . S
C880 C882 1.395 . S
C880 C883 1.403 . S
H881 C887 0.930 . S
C882 H868 0.930 . S
C882 C880 1.395 . S
C882 C885 1.403 . S
C883 C880 1.403 . S
C883 C884 1.524 . S
C883 C887 1.400 . S
C884 H869 0.960 . S
C884 H870 0.960 . S
C884 H871 0.960 . S
C884 C883 1.524 . S
C885 C882 1.403 . S
C885 C886 1.392 . S
C885 C889 1.495 . S
C886 C885 1.392 . S
C886 C887 1.385 . S
C886 C888 1.478 . S
C887 H881 0.930 . S
C887 C883 1.400 . S
C887 C886 1.385 . S
C888 C886 1.478 . S
C888 C890 1.381 . S
C888 C894 1.383 . S
C889 C885 1.495 . S
C889 H895 0.959 . S
C889 H896 0.961 . S
C889 H897 0.960 . S
C890 C888 1.381 . S
C890 C891 1.394 . S
C890 H898 0.930 . S
C891 C890 1.394 . S
C891 C892 1.383 . S
C891 H899 0.929 . S
C892 C891 1.383 . S
C892 C893 1.377 . S
C893 H877 0.930 . S
C893 C892 1.377 . S
C893 C894 1.379 . S
C894 H878 0.931 . S
C894 C888 1.383 . S
C894 C893 1.379 . S
H895 C889 0.959 . S
H896 C889 0.961 . S
H897 C889 0.960 . S
H898 C890 0.930 . S
H899 C891 0.929 . S
H900 C908 0.929 . S
H901 C910 0.930 . S
H902 C912 0.930 . S
H903 C915 0.929 . S
H904 C918 0.930 . S
H905 C920 0.960 . S
H906 C920 0.960 . S
H907 C920 0.960 . S
C908 H900 0.929 . S
C908 C909 1.377 . S
C908 C910 1.384 . S
C909 C908 1.377 . S
C909 C915 1.390 1_545 S
C910 H901 0.930 . S
C910 C908 1.384 . S
C910 C911 1.372 . S
C911 C910 1.372 . S
C911 C912 1.400 1_545 S
C911 C916 1.490 . S
C912 H902 0.930 . S
C912 C911 1.400 1_565 S
C912 C915 1.386 . S
H913 C929 0.930 . S
H914 C930 0.931 . S
C915 H903 0.929 . S
C915 C909 1.390 1_565 S
C915 C912 1.386 . S
C916 C911 1.490 . S
C916 C918 1.395 . S
C916 C919 1.403 . S
H917 C923 0.930 . S
C918 H904 0.930 . S
C918 C916 1.395 . S
C918 C921 1.403 . S
C919 C916 1.403 . S
C919 C920 1.524 . S
C919 C923 1.400 . S
C920 H905 0.960 . S
C920 H906 0.960 . S
C920 H907 0.960 . S
C920 C919 1.524 . S
C921 C918 1.403 . S
C921 C922 1.392 . S
C921 C925 1.495 . S
C922 C921 1.392 . S
C922 C923 1.385 . S
C922 C924 1.478 . S
C923 H917 0.930 . S
C923 C919 1.400 . S
C923 C922 1.385 . S
C924 C922 1.478 . S
C924 C926 1.381 . S
C924 C930 1.383 1_545 S
C925 C921 1.495 . S
C925 H931 0.959 . S
C925 H932 0.961 1_545 S
C925 H933 0.960 . S
C926 C924 1.381 . S
C926 C927 1.394 . S
C926 H934 0.930 . S
C927 C926 1.394 . S
C927 C928 1.383 . S
C927 H935 0.929 . S
C928 C927 1.383 . S
C928 C929 1.377 1_545 S
C929 H913 0.930 . S
C929 C928 1.377 1_565 S
C929 C930 1.379 . S
C930 H914 0.931 . S
C930 C924 1.383 1_565 S
C930 C929 1.379 . S
H931 C925 0.959 . S
H932 C925 0.961 1_565 S
H933 C925 0.960 . S
H934 C926 0.930 . S
H935 C927 0.929 . S
H936 C944 0.929 . S
H937 C946 0.930 . S
H938 C948 0.930 . S
H939 C951 0.929 . S
H940 C954 0.930 . S
H941 C956 0.960 . S
H942 C956 0.960 . S
H943 C956 0.960 . S
C944 H936 0.929 . S
C944 C945 1.377 . S
C944 C946 1.384 . S
C945 C944 1.377 . S
C945 C951 1.390 . S
C946 H937 0.930 . S
C946 C944 1.384 . S
C946 C947 1.372 . S
C947 C946 1.372 . S
C947 C948 1.400 . S
C947 C952 1.490 . S
C948 H938 0.930 . S
C948 C947 1.400 . S
C948 C951 1.386 . S
H949 C965 0.930 . S
H950 C966 0.931 1_556 S
C951 H939 0.929 . S
C951 C945 1.390 . S
C951 C948 1.386 . S
C952 C947 1.490 . S
C952 C954 1.395 . S
C952 C955 1.403 . S
H953 C959 0.930 . S
C954 H940 0.930 . S
C954 C952 1.395 . S
C954 C957 1.403 . S
C955 C952 1.403 . S
C955 C956 1.524 . S
C955 C959 1.400 . S
C956 H941 0.960 . S
C956 H942 0.960 . S
C956 H943 0.960 . S
C956 C955 1.524 . S
C957 C954 1.403 . S
C957 C958 1.392 . S
C957 C961 1.495 . S
C958 C957 1.392 . S
C958 C959 1.385 . S
C958 C960 1.478 . S
C959 H953 0.930 . S
C959 C955 1.400 . S
C959 C958 1.385 . S
C960 C958 1.478 . S
C960 C962 1.381 . S
C960 C966 1.383 1_556 S
C961 C957 1.495 . S
C961 H967 0.959 . S
C961 H968 0.961 . S
C961 H969 0.960 . S
C962 C960 1.381 . S
C962 C963 1.394 1_556 S
C962 H970 0.930 . S
C963 C962 1.394 1_554 S
C963 C964 1.383 . S
C963 H971 0.929 . S
C964 C963 1.383 . S
C964 C965 1.377 . S
C965 H949 0.930 . S
C965 C964 1.377 . S
C965 C966 1.379 . S
C966 H950 0.931 1_554 S
C966 C960 1.383 1_554 S
C966 C965 1.379 . S
H967 C961 0.959 . S
H968 C961 0.961 . S
H969 C961 0.960 . S
H970 C962 0.930 . S
H971 C963 0.929 . S
H972 C980 0.929 . S
H973 C982 0.930 . S
H974 C984 0.930 . S
H975 C987 0.929 . S
H976 C990 0.930 . S
H977 C992 0.960 . S
H978 C992 0.960 . S
H979 C992 0.960 . S
C980 H972 0.929 . S
C980 C981 1.377 . S
C980 C982 1.384 . S
C981 C980 1.377 . S
C981 C987 1.390 . S
C982 H973 0.930 . S
C982 C980 1.384 . S
C982 C983 1.372 . S
C983 C982 1.372 . S
C983 C984 1.400 . S
C983 C988 1.490 . S
C984 H974 0.930 . S
C984 C983 1.400 . S
C984 C987 1.386 . S
H985 C1001 0.930 . S
H986 C1002 0.931 . S
C987 H975 0.929 . S
C987 C981 1.390 . S
C987 C984 1.386 . S
C988 C983 1.490 . S
C988 C990 1.395 . S
C988 C991 1.403 . S
H989 C995 0.930 . S
C990 H976 0.930 . S
C990 C988 1.395 . S
C990 C993 1.403 . S
C991 C988 1.403 . S
C991 C992 1.524 . S
C991 C995 1.400 . S
C992 H977 0.960 . S
C992 H978 0.960 . S
C992 H979 0.960 . S
C992 C991 1.524 . S
C993 C990 1.403 . S
C993 C994 1.392 . S
C993 C997 1.495 . S
C994 C993 1.392 . S
C994 C995 1.385 . S
C994 C996 1.478 . S
C995 H989 0.930 . S
C995 C991 1.400 . S
C995 C994 1.385 . S
C996 C994 1.478 . S
C996 C998 1.381 . S
C996 C1002 1.383 . S
C997 C993 1.495 . S
C997 H1003 0.959 . S
C997 H1004 0.961 . S
C997 H1005 0.960 . S
C998 C996 1.381 . S
C998 C999 1.394 1_556 S
C998 H1006 0.930 . S
C999 C998 1.394 1_554 S
C999 C1000 1.383 . S
C999 H1007 0.929 . S
C1000 C999 1.383 . S
C1000 C1001 1.377 . S
C1001 H985 0.930 . S
C1001 C1000 1.377 . S
C1001 C1002 1.379 1_554 S
C1002 H986 0.931 . S
C1002 C996 1.383 . S
C1002 C1001 1.379 1_556 S
H1003 C997 0.959 . S
H1004 C997 0.961 . S
H1005 C997 0.960 . S
H1006 C998 0.930 . S
H1007 C999 0.929 . S
H1008 C1016 0.929 . S
H1009 C1018 0.930 . S
H1010 C1020 0.930 . S
H1011 C1023 0.929 . S
H1012 C1026 0.930 . S
H1013 C1028 0.960 . S
H1014 C1028 0.960 . S
H1015 C1028 0.960 . S
C1016 H1008 0.929 . S
C1016 C1017 1.377 . S
C1016 C1018 1.384 . S
C1017 C1016 1.377 . S
C1017 C1023 1.390 . S
C1018 H1009 0.930 . S
C1018 C1016 1.384 . S
C1018 C1019 1.372 . S
C1019 C1018 1.372 . S
C1019 C1020 1.400 . S
C1019 C1024 1.490 . S
C1020 H1010 0.930 . S
C1020 C1019 1.400 . S
C1020 C1023 1.386 . S
H1021 C1037 0.930 . S
H1022 C1038 0.926 1_556 S
C1023 H1011 0.929 . S
C1023 C1017 1.390 . S
C1023 C1020 1.386 . S
C1024 C1019 1.490 . S
C1024 C1026 1.395 . S
C1024 C1027 1.403 . S
H1025 C1031 0.930 . S
C1026 H1012 0.930 . S
C1026 C1024 1.395 . S
C1026 C1029 1.403 . S
C1027 C1024 1.403 . S
C1027 C1028 1.524 . S
C1027 C1031 1.400 . S
C1028 H1013 0.960 . S
C1028 H1014 0.960 . S
C1028 H1015 0.960 . S
C1028 C1027 1.524 . S
C1029 C1026 1.403 . S
C1029 C1030 1.392 . S
C1029 C1033 1.495 . S
C1030 C1029 1.392 . S
C1030 C1031 1.385 . S
C1030 C1032 1.478 . S
C1031 H1025 0.930 . S
C1031 C1027 1.400 . S
C1031 C1030 1.385 . S
C1032 C1030 1.478 . S
C1032 C1034 1.381 . S
C1032 C1038 1.378 1_556 S
C1033 C1029 1.495 . S
C1033 H1039 0.959 . S
C1033 H1040 0.961 . S
C1033 H1041 0.960 . S
C1034 C1032 1.381 . S
C1034 C1035 1.394 1_556 S
C1034 H1042 0.930 . S
C1035 C1034 1.394 1_554 S
C1035 C1036 1.383 . S
C1035 H1043 0.929 . S
C1036 C1035 1.383 . S
C1036 C1037 1.377 . S
C1037 H1021 0.930 . S
C1037 C1036 1.377 . S
C1037 C1038 1.389 . S
C1038 H1022 0.926 1_554 S
C1038 C1032 1.378 1_554 S
C1038 C1037 1.389 . S
H1039 C1033 0.959 . S
H1040 C1033 0.961 . S
H1041 C1033 0.960 . S
H1042 C1034 0.930 . S
H1043 C1035 0.929 . S
H1044 C1052 0.929 . S
H1045 C1054 0.930 . S
H1046 C1056 0.930 . S
H1047 C1059 0.929 . S
H1048 C1062 0.930 . S
H1049 C1064 0.960 . S
H1050 C1064 0.960 . S
H1051 C1064 0.960 . S
C1052 H1044 0.929 . S
C1052 C1053 1.377 . S
C1052 C1054 1.384 . S
C1053 C1052 1.377 . S
C1053 C1059 1.390 . S
C1054 H1045 0.930 . S
C1054 C1052 1.384 . S
C1054 C1055 1.372 . S
C1055 C1054 1.372 . S
C1055 C1056 1.400 . S
C1055 C1060 1.490 . S
C1056 H1046 0.930 . S
C1056 C1055 1.400 . S
C1056 C1059 1.386 . S
H1057 C1073 0.930 . S
H1058 C1074 0.931 1_554 S
C1059 H1047 0.929 . S
C1059 C1053 1.390 . S
C1059 C1056 1.386 . S
C1060 C1055 1.490 . S
C1060 C1062 1.395 . S
C1060 C1063 1.403 . S
H1061 C1067 0.930 . S
C1062 H1048 0.930 . S
C1062 C1060 1.395 . S
C1062 C1065 1.403 . S
C1063 C1060 1.403 . S
C1063 C1064 1.524 . S
C1063 C1067 1.400 . S
C1064 H1049 0.960 . S
C1064 H1050 0.960 . S
C1064 H1051 0.960 . S
C1064 C1063 1.524 . S
C1065 C1062 1.403 . S
C1065 C1066 1.392 . S
C1065 C1069 1.495 . S
C1066 C1065 1.392 . S
C1066 C1067 1.385 . S
C1066 C1068 1.478 . S
C1067 H1061 0.930 . S
C1067 C1063 1.400 . S
C1067 C1066 1.385 . S
C1068 C1066 1.478 . S
C1068 C1070 1.381 1_554 S
C1068 C1074 1.383 1_554 S
C1069 C1065 1.495 . S
C1069 H1075 0.959 . S
C1069 H1076 0.961 . S
C1069 H1077 0.960 . S
C1070 C1068 1.381 1_556 S
C1070 C1071 1.394 . S
C1070 H1078 0.930 . S
C1071 C1070 1.394 . S
C1071 C1072 1.383 . S
C1071 H1079 0.929 . S
C1072 C1071 1.383 . S
C1072 C1073 1.377 . S
C1073 H1057 0.930 . S
C1073 C1072 1.377 . S
C1073 C1074 1.379 . S
C1074 H1058 0.931 1_556 S
C1074 C1068 1.383 1_556 S
C1074 C1073 1.379 . S
H1075 C1069 0.959 . S
H1076 C1069 0.961 . S
H1077 C1069 0.960 . S
H1078 C1070 0.930 . S
H1079 C1071 0.929 . S
H1080 C1088 0.929 . S
H1081 C1090 0.930 . S
H1082 C1092 0.930 . S
H1083 C1095 0.929 . S
H1084 C1098 0.930 . S
H1085 C1100 0.960 . S
H1086 C1100 0.960 . S
H1087 C1100 0.960 . S
C1088 H1080 0.929 . S
C1088 C1089 1.377 . S
C1088 C1090 1.384 1_556 S
C1089 C1088 1.377 . S
C1089 C1095 1.390 . S
C1090 H1081 0.930 . S
C1090 C1088 1.384 1_554 S
C1090 C1091 1.372 . S
C1091 C1090 1.372 . S
C1091 C1092 1.400 . S
C1091 C1096 1.490 . S
C1092 H1082 0.930 . S
C1092 C1091 1.400 . S
C1092 C1095 1.386 1_554 S
H1093 C1109 0.930 . S
H1094 C1110 0.931 . S
C1095 H1083 0.929 . S
C1095 C1089 1.390 . S
C1095 C1092 1.386 1_556 S
C1096 C1091 1.490 . S
C1096 C1098 1.395 . S
C1096 C1099 1.403 . S
H1097 C1103 0.930 . S
C1098 H1084 0.930 . S
C1098 C1096 1.395 . S
C1098 C1101 1.403 . S
C1099 C1096 1.403 . S
C1099 C1100 1.524 . S
C1099 C1103 1.400 . S
C1100 H1085 0.960 . S
C1100 H1086 0.960 . S
C1100 H1087 0.960 . S
C1100 C1099 1.524 . S
C1101 C1098 1.403 . S
C1101 C1102 1.392 . S
C1101 C1105 1.495 . S
C1102 C1101 1.392 . S
C1102 C1103 1.385 . S
C1102 C1104 1.478 . S
C1103 H1097 0.930 . S
C1103 C1099 1.400 . S
C1103 C1102 1.385 . S
C1104 C1102 1.478 . S
C1104 C1106 1.381 . S
C1104 C1110 1.383 . S
C1105 C1101 1.495 . S
C1105 H1111 0.959 . S
C1105 H1112 0.961 . S
C1105 H1113 0.960 . S
C1106 C1104 1.381 . S
C1106 C1107 1.394 . S
C1106 H1114 0.930 . S
C1107 C1106 1.394 . S
C1107 C1108 1.383 . S
C1107 H1115 0.929 . S
C1108 C1107 1.383 . S
C1108 C1109 1.377 . S
C1109 H1093 0.930 . S
C1109 C1108 1.377 . S
C1109 C1110 1.379 . S
C1110 H1094 0.931 . S
C1110 C1104 1.383 . S
C1110 C1109 1.379 . S
H1111 C1105 0.959 . S
H1112 C1105 0.961 . S
H1113 C1105 0.960 . S
H1114 C1106 0.930 . S
H1115 C1107 0.929 . S
H1116 C1124 0.929 . S
H1117 C1126 0.930 . S
H1118 C1128 0.930 . S
H1119 C1131 0.929 . S
H1120 C1134 0.930 . S
H1121 C1136 0.960 . S
H1122 C1136 0.960 . S
H1123 C1136 0.960 . S
C1124 H1116 0.929 . S
C1124 C1125 1.377 . S
C1124 C1126 1.384 . S
C1125 C1124 1.377 . S
C1125 C1131 1.390 . S
C1126 H1117 0.930 . S
C1126 C1124 1.384 . S
C1126 C1127 1.372 . S
C1127 C1126 1.372 . S
C1127 C1128 1.400 . S
C1127 C1132 1.490 . S
C1128 H1118 0.930 . S
C1128 C1127 1.400 . S
C1128 C1131 1.386 . S
H1129 C1145 0.930 . S
H1130 C1146 0.931 . S
C1131 H1119 0.929 . S
C1131 C1125 1.390 . S
C1131 C1128 1.386 . S
C1132 C1127 1.490 . S
C1132 C1134 1.395 . S
C1132 C1135 1.403 . S
H1133 C1139 0.930 . S
C1134 H1120 0.930 . S
C1134 C1132 1.395 . S
C1134 C1137 1.403 . S
C1135 C1132 1.403 . S
C1135 C1136 1.524 . S
C1135 C1139 1.400 . S
C1136 H1121 0.960 . S
C1136 H1122 0.960 . S
C1136 H1123 0.960 . S
C1136 C1135 1.524 . S
C1137 C1134 1.403 . S
C1137 C1138 1.392 . S
C1137 C1141 1.495 . S
C1138 C1137 1.392 . S
C1138 C1139 1.385 . S
C1138 C1140 1.478 . S
C1139 H1133 0.930 . S
C1139 C1135 1.400 . S
C1139 C1138 1.385 . S
C1140 C1138 1.478 . S
C1140 C1142 1.381 . S
C1140 C1146 1.383 . S
C1141 C1137 1.495 . S
C1141 H1147 0.959 . S
C1141 H1148 0.961 . S
C1141 H1149 0.960 . S
C1142 C1140 1.381 . S
C1142 C1143 1.394 1_554 S
C1142 H1150 0.930 . S
C1143 C1142 1.394 1_556 S
C1143 C1144 1.383 . S
C1143 H1151 0.929 . S
C1144 C1143 1.383 . S
C1144 C1145 1.377 . S
C1145 H1129 0.930 . S
C1145 C1144 1.377 . S
C1145 C1146 1.379 1_556 S
C1146 H1130 0.931 . S
C1146 C1140 1.383 . S
C1146 C1145 1.379 1_554 S
H1147 C1141 0.959 . S
H1148 C1141 0.961 . S
H1149 C1141 0.960 . S
H1150 C1142 0.930 . S
H1151 C1143 0.929 . S
C189 C8 2.264 . S
C208 C148 2.203 . S
C225 C36 1.587 . S
C244 C176 1.536 . S
C261 C48 1.961 . S
C280 C136 1.883 . S
C297 C96 1.173 . S
C316 C56 1.199 . S
C333 C116 1.461 . S
C352 C16 1.417 . S
C369 C28 1.790 . S
C388 C76 1.704 . S
C405 C156 2.104 . S
C424 C108 2.148 . S
C441 C168 2.397 . S
C460 C68 2.347 . S
C477 C88 2.682 . S
C496 C128 2.614 . S
C513 C59 1.581 . S
C532 C6 1.636 . S
C549 C39 1.743 . S
C568 C19 1.737 . S
C585 C26 1.299 . S
C604 C46 1.337 . S
C621 C79 1.590 . S
C640 C106 1.687 . S
C657 C66 1.705 . S
C676 C99 1.591 . S
C693 C86 1.729 . S
C712 C119 1.615 . S
C729 C179 1.695 . S
C748 C126 1.732 . S
C765 C159 2.050 . S
C784 C139 1.982 . S
C801 C166 1.569 . S
C820 C146 1.540 . S
C837 C9 0.959 . S
C856 C1 0.970 . S
C873 C21 0.950 . S
C892 C29 0.973 . S
C909 C49 0.945 . S
C928 C41 0.919 . S
C945 C69 0.981 . S
C964 C61 1.005 . S
C981 C89 0.949 . S
C1000 C81 0.926 . S
C1017 C109 0.966 . S
C1036 C101 0.945 . S
C1053 C129 0.955 . S
C1072 C121 0.938 . S
C1089 C149 0.951 . S
C1108 C141 0.927 . S
C1125 C169 0.954 . S
C1144 C161 0.973 . S
