# Generated by pormake.
# Topology wjz, (5)-cn, num edge types: 1
# Building blocks:
#     Node 0, Type 0, BuildingBlock: BEQFEK_clean_sbu_0, # of connection points: 5
#     Node 1, Type 0, BuildingBlock: BEQFEK_clean_sbu_0, # of connection points: 5
#     Node 2, Type 0, BuildingBlock: BEQFEK_clean_sbu_0, # of connection points: 5
#     Node 3, Type 0, BuildingBlock: BEQFEK_clean_sbu_0, # of connection points: 5
#     Node 4, Type 0, BuildingBlock: BEQFEK_clean_sbu_0, # of connection points: 5
#     Node 5, Type 0, BuildingBlock: BEQFEK_clean_sbu_0, # of connection points: 5
#     Node 6, Type 0, BuildingBlock: BEQFEK_clean_sbu_0, # of connection points: 5
#     Node 7, Type 0, BuildingBlock: BEQFEK_clean_sbu_0, # of connection points: 5
#     Node 8, Type 0, BuildingBlock: BEQFEK_clean_sbu_0, # of connection points: 5
#     Node 9, Type 0, BuildingBlock: BEQFEK_clean_sbu_0, # of connection points: 5
#     Node 10, Type 0, BuildingBlock: BEQFEK_clean_sbu_0, # of connection points: 5
#     Node 11, Type 0, BuildingBlock: BEQFEK_clean_sbu_0, # of connection points: 5
#     Edge 12, Type (0, 0), BuildingBlock: OJICUG_clean_linker_0, # of connection points: 2
#     Edge 13, Type (0, 0), BuildingBlock: OJICUG_clean_linker_0, # of connection points: 2
#     Edge 14, Type (0, 0), BuildingBlock: OJICUG_clean_linker_0, # of connection points: 2
#     Edge 15, Type (0, 0), BuildingBlock: OJICUG_clean_linker_0, # of connection points: 2
#     Edge 16, Type (0, 0), BuildingBlock: OJICUG_clean_linker_0, # of connection points: 2
#     Edge 17, Type (0, 0), BuildingBlock: OJICUG_clean_linker_0, # of connection points: 2
#     Edge 18, Type (0, 0), BuildingBlock: OJICUG_clean_linker_0, # of connection points: 2
#     Edge 19, Type (0, 0), BuildingBlock: OJICUG_clean_linker_0, # of connection points: 2
#     Edge 20, Type (0, 0), BuildingBlock: OJICUG_clean_linker_0, # of connection points: 2
#     Edge 21, Type (0, 0), BuildingBlock: OJICUG_clean_linker_0, # of connection points: 2
#     Edge 22, Type (0, 0), BuildingBlock: OJICUG_clean_linker_0, # of connection points: 2
#     Edge 23, Type (0, 0), BuildingBlock: OJICUG_clean_linker_0, # of connection points: 2
#     Edge 24, Type (0, 0), BuildingBlock: OJICUG_clean_linker_0, # of connection points: 2
#     Edge 25, Type (0, 0), BuildingBlock: OJICUG_clean_linker_0, # of connection points: 2
#     Edge 26, Type (0, 0), BuildingBlock: OJICUG_clean_linker_0, # of connection points: 2
#     Edge 27, Type (0, 0), BuildingBlock: OJICUG_clean_linker_0, # of connection points: 2
#     Edge 28, Type (0, 0), BuildingBlock: OJICUG_clean_linker_0, # of connection points: 2
#     Edge 29, Type (0, 0), BuildingBlock: OJICUG_clean_linker_0, # of connection points: 2
#     Edge 30, Type (0, 0), BuildingBlock: OJICUG_clean_linker_0, # of connection points: 2
#     Edge 31, Type (0, 0), BuildingBlock: OJICUG_clean_linker_0, # of connection points: 2
#     Edge 32, Type (0, 0), BuildingBlock: OJICUG_clean_linker_0, # of connection points: 2
#     Edge 33, Type (0, 0), BuildingBlock: OJICUG_clean_linker_0, # of connection points: 2
#     Edge 34, Type (0, 0), BuildingBlock: OJICUG_clean_linker_0, # of connection points: 2
#     Edge 35, Type (0, 0), BuildingBlock: OJICUG_clean_linker_0, # of connection points: 2
#     Edge 36, Type (0, 0), BuildingBlock: OJICUG_clean_linker_0, # of connection points: 2
#     Edge 37, Type (0, 0), BuildingBlock: OJICUG_clean_linker_0, # of connection points: 2
#     Edge 38, Type (0, 0), BuildingBlock: OJICUG_clean_linker_0, # of connection points: 2
#     Edge 39, Type (0, 0), BuildingBlock: OJICUG_clean_linker_0, # of connection points: 2
#     Edge 40, Type (0, 0), BuildingBlock: OJICUG_clean_linker_0, # of connection points: 2
#     Edge 41, Type (0, 0), BuildingBlock: OJICUG_clean_linker_0, # of connection points: 2
# Relax obj value: 0.251
# Max RMSD: 0.211
# Mean RMSD: 0.211
data_MOF--net-wjz--node1-BEQFEK_clean_sbu_0--edge1-OJICUG_clean_linker_0
_symmetry_space_group_name_H-M    P1
_symmetry_Int_Tables_number       1
_symmetry_cell_setting            triclinic
loop_
_symmetry_equiv_pos_as_xyz
'x, y, z'
_cell_length_a     52.953488
_cell_length_b     53.015992
_cell_length_c     14.53302
_cell_angle_alpha  89.911649
_cell_angle_beta   90.100083
_cell_angle_gamma 119.97741
loop_
_atom_site_label
_atom_site_type_symbol
_atom_site_fract_x
_atom_site_fract_y
_atom_site_fract_z
_atom_type_partial_charge
Co0 Co 0.34372 0.45726 0.02602 0.0
Co1 Co 0.37319 0.48681 0.21106 0.0
C2 C 0.3711 0.43164 0.13864 0.0
O3 O 0.35575 0.42919 0.06822 0.0
O4 O 0.37908 0.45276 0.19447 0.0
C5 C 0.34085 0.44063 0.84759 0.0
O6 O 0.35789 0.43176 0.88315 0.0
C7 C 0.37011 0.4767 0.40468 0.0
C8 C 0.39426 0.52035 0.46761 0.0
C9 C 0.37748 0.49094 0.48821 0.0
N10 N 0.38181 0.49658 0.33732 0.0
N11 N 0.39663 0.5227 0.37507 0.0
C12 C 0.34862 0.44514 0.38884 0.0
H13 H 0.33982 0.44137 0.31786 0.0
H14 H 0.33034 0.43736 0.4386 0.0
H15 H 0.35958 0.43224 0.39996 0.0
C16 C 0.29259 0.45693 0.11522 0.0
N17 N 0.32048 0.46275 0.11411 0.0
N18 N 0.33358 0.47671 0.18997 0.0
C19 C 0.31465 0.48082 0.24086 0.0
C20 C 0.28796 0.46821 0.19582 0.0
C21 C 0.27166 0.44258 0.03763 0.0
H22 H 0.28018 0.45638 0.9752 0.0
H23 H 0.27017 0.42139 0.02193 0.0
H24 H 0.2497 0.43917 0.05388 0.0
O25 O 0.37897 0.49484 0.99926 0.0
O26 O 0.40018 0.51895 0.1268 0.0
H27 H 0.34393 0.5157 0.32916 0.0
H28 H 0.30606 0.50298 0.35223 0.0
C29 C 0.32189 0.4962 0.3318 0.0
H30 H 0.32142 0.48126 0.3859 0.0
H31 H 0.4073 0.5421 0.33784 0.0
O32 O 0.32676 0.44796 0.90162 0.0
C33 C 0.39896 0.51727 0.03912 0.0
Co34 Co 0.89103 0.34151 0.18947 0.0
Co35 Co 0.88849 0.36921 0.37452 0.0
C36 C 0.94229 0.36738 0.30951 0.0
O37 O 0.93022 0.35261 0.23763 0.0
O38 O 0.92858 0.37511 0.36374 0.0
C39 C 0.90763 0.34757 0.01658 0.0
O40 O 0.92978 0.36808 0.06234 0.0
C41 C 0.89061 0.3635 0.56947 0.0
C42 C 0.88125 0.39651 0.62671 0.0
C43 C 0.88745 0.37487 0.65085 0.0
N44 N 0.88584 0.37717 0.4997 0.0
N45 N 0.88022 0.39693 0.53397 0.0
C46 C 0.89992 0.34125 0.55797 0.0
H47 H 0.92277 0.35056 0.58203 0.0
H48 H 0.89837 0.33454 0.48504 0.0
H49 H 0.88616 0.32182 0.60078 0.0
C50 C 0.83869 0.28953 0.27131 0.0
N51 N 0.86084 0.31734 0.2727 0.0
N52 N 0.85896 0.33002 0.34818 0.0
C53 C 0.83506 0.31102 0.39565 0.0
C54 C 0.82164 0.28459 0.34938 0.0
C55 C 0.83343 0.26861 0.19491 0.0
H56 H 0.83782 0.27999 0.1277 0.0
H57 H 0.84879 0.26023 0.20236 0.0
H58 H 0.81076 0.24998 0.1964 0.0
O59 O 0.88866 0.37701 0.16475 0.0
O60 O 0.8847 0.39727 0.29252 0.0
H61 H 0.83072 0.34093 0.48505 0.0
H62 H 0.8019 0.30387 0.49696 0.0
C63 C 0.82552 0.31794 0.4846 0.0
H64 H 0.83697 0.31423 0.54233 0.0
H65 H 0.87607 0.41088 0.49425 0.0
O66 O 0.88687 0.32723 0.06198 0.0
C67 C 0.88594 0.39674 0.20506 0.0
Co68 Co 0.54734 0.88692 0.3569 0.0
Co69 Co 0.51703 0.8854 0.5415 0.0
C70 C 0.5725 0.939 0.47288 0.0
O71 O 0.57532 0.92661 0.40191 0.0
O72 O 0.55108 0.92547 0.52745 0.0
C73 C 0.56266 0.90127 0.17881 0.0
O74 O 0.56956 0.9266 0.21498 0.0
C75 C 0.5266 0.89185 0.73544 0.0
C76 C 0.48274 0.87185 0.79738 0.0
C77 C 0.51218 0.88488 0.81859 0.0
N78 N 0.50682 0.88341 0.66758 0.0
N79 N 0.48057 0.87176 0.70473 0.0
C80 C 0.55834 0.9024 0.72065 0.0
H81 H 0.56239 0.89737 0.65008 0.0
H82 H 0.56625 0.89221 0.77128 0.0
H83 H 0.57092 0.92625 0.7314 0.0
C84 C 0.5471 0.83541 0.44161 0.0
N85 N 0.54139 0.85751 0.44259 0.0
N86 N 0.52733 0.85614 0.51868 0.0
C87 C 0.5232 0.83279 0.56802 0.0
C88 C 0.53574 0.81895 0.52125 0.0
C89 C 0.56158 0.82944 0.36313 0.0
H90 H 0.58416 0.84794 0.35569 0.0
H91 H 0.56207 0.80894 0.37331 0.0
H92 H 0.54977 0.82798 0.29843 0.0
O93 O 0.5099 0.88478 0.32981 0.0
O94 O 0.48514 0.88093 0.45656 0.0
H95 H 0.50232 0.80212 0.68087 0.0
H96 H 0.52322 0.83936 0.71292 0.0
C97 C 0.50828 0.82445 0.6597 0.0
H98 H 0.48834 0.82627 0.65786 0.0
H99 H 0.4612 0.86286 0.66706 0.0
O100 O 0.55702 0.88011 0.23234 0.0
C101 C 0.48726 0.88205 0.36896 0.0
Co102 Co 0.66182 0.54525 0.52948 0.0
Co103 Co 0.63152 0.515 0.71893 0.0
C104 C 0.63331 0.56971 0.64358 0.0
O105 O 0.64775 0.57172 0.5713 0.0
O106 O 0.6262 0.5491 0.70085 0.0
C107 C 0.69597 0.56773 0.33528 0.0
O108 O 0.72267 0.58925 0.32172 0.0
C109 C 0.64042 0.52558 0.91575 0.0
C110 C 0.60987 0.48404 0.98273 0.0
C111 C 0.63236 0.51205 0.00118 0.0
N112 N 0.62416 0.50646 0.84971 0.0
N113 N 0.60555 0.48171 0.89048 0.0
C114 C 0.66367 0.55644 0.89721 0.0
H115 H 0.68487 0.55747 0.88618 0.0
H116 H 0.66598 0.57065 0.95639 0.0
H117 H 0.65873 0.56492 0.83444 0.0
C118 C 0.71203 0.54557 0.62418 0.0
N119 N 0.68415 0.5398 0.62238 0.0
N120 N 0.67061 0.52455 0.69597 0.0
C121 C 0.68895 0.51878 0.74417 0.0
C122 C 0.716 0.5325 0.70163 0.0
C123 C 0.73359 0.56119 0.54911 0.0
H124 H 0.72634 0.5477 0.48582 0.0
H125 H 0.73428 0.58204 0.53377 0.0
H126 H 0.75571 0.56547 0.56779 0.0
O127 O 0.62764 0.50713 0.49829 0.0
O128 O 0.6051 0.48414 0.62787 0.0
H129 H 0.65668 0.48374 0.82679 0.0
H130 H 0.69202 0.487 0.83034 0.0
C131 C 0.68039 0.49945 0.8273 0.0
H132 H 0.68628 0.51291 0.89035 0.0
H133 H 0.59059 0.46295 0.85541 0.0
O134 O 0.68661 0.56256 0.4178 0.0
C135 C 0.60714 0.48519 0.53966 0.0
Co136 Co 0.11443 0.66008 0.69403 0.0
Co137 Co 0.1177 0.63247 0.87901 0.0
C138 C 0.06368 0.63441 0.81561 0.0
O139 O 0.07546 0.64906 0.74322 0.0
O140 O 0.07759 0.62667 0.86925 0.0
C141 C 0.09784 0.65393 0.52055 0.0
O142 O 0.07566 0.63335 0.56603 0.0
C143 C 0.11626 0.6387 0.074 0.0
C144 C 0.12464 0.60505 0.13188 0.0
C145 C 0.11901 0.62709 0.15567 0.0
N146 N 0.12069 0.62477 0.00448 0.0
N147 N 0.12578 0.60466 0.03916 0.0
C148 C 0.1073 0.66121 0.06199 0.0
H149 H 0.10837 0.66751 0.98875 0.0
H150 H 0.12164 0.68084 0.10321 0.0
H151 H 0.0847 0.65239 0.08768 0.0
C152 C 0.16658 0.71225 0.77509 0.0
N153 N 0.14473 0.68431 0.77666 0.0
N154 N 0.14706 0.67167 0.85173 0.0
C155 C 0.17107 0.69083 0.89853 0.0
C156 C 0.18402 0.71729 0.85237 0.0
C157 C 0.17169 0.73304 0.69829 0.0
H158 H 0.15176 0.7252 0.65564 0.0
H159 H 0.17838 0.755 0.72587 0.0
H160 H 0.18968 0.73489 0.65446 0.0
O161 O 0.1167 0.62458 0.66971 0.0
O162 O 0.12112 0.60421 0.79677 0.0
H163 H 0.20507 0.69791 0.99638 0.0
H164 H 0.17055 0.68806 0.04531 0.0
C165 C 0.18129 0.68399 0.98643 0.0
H166 H 0.17582 0.66091 0.98716 0.0
H167 H 0.12947 0.59038 0.99973 0.0
O168 O 0.1185 0.67428 0.56626 0.0
C169 C 0.11953 0.6048 0.70935 0.0
Co170 Co 0.45962 0.11645 0.8625 0.0
Co171 Co 0.48993 0.117 0.04686 0.0
C172 C 0.43425 0.0639 0.97644 0.0
O173 O 0.43148 0.07667 0.90622 0.0
O174 O 0.45572 0.07708 0.0312 0.0
C175 C 0.44412 0.10236 0.68399 0.0
O176 O 0.43648 0.07685 0.72034 0.0
C177 C 0.48008 0.10998 0.2408 0.0
C178 C 0.52386 0.12979 0.30349 0.0
C179 C 0.49442 0.11694 0.32427 0.0
N180 N 0.49992 0.11832 0.17326 0.0
N181 N 0.52612 0.1298 0.2109 0.0
C182 C 0.4484 0.09967 0.2253 0.0
H183 H 0.44452 0.10488 0.15466 0.0
H184 H 0.4405 0.10986 0.27576 0.0
H185 H 0.43567 0.0758 0.2356 0.0
C186 C 0.45942 0.16729 0.95143 0.0
N187 N 0.46558 0.14548 0.94988 0.0
N188 N 0.4798 0.14652 0.02544 0.0
C189 C 0.48371 0.16944 0.07661 0.0
C190 C 0.47069 0.18322 0.03202 0.0
C191 C 0.4442 0.17332 0.87509 0.0
H192 H 0.45427 0.17318 0.80836 0.0
H193 H 0.42108 0.15567 0.8729 0.0
H194 H 0.4452 0.19457 0.88433 0.0
O195 O 0.49696 0.11841 0.83558 0.0
O196 O 0.5218 0.12159 0.96172 0.0
H197 H 0.51849 0.1751 0.16588 0.0
H198 H 0.50537 0.19986 0.18936 0.0
C199 C 0.49884 0.17741 0.16811 0.0
H200 H 0.48379 0.1627 0.22149 0.0
H201 H 0.54552 0.13867 0.17358 0.0
O202 O 0.4503 0.12367 0.73741 0.0
C203 C 0.51957 0.12079 0.87413 0.0
Co204 Co 0.54856 0.66138 0.81944 0.0
Co205 Co 0.51831 0.63128 0.6298 0.0
C206 C 0.57255 0.63225 0.70617 0.0
O207 O 0.57472 0.64679 0.7783 0.0
O208 O 0.55204 0.6254 0.64863 0.0
C209 C 0.57147 0.6956 0.01338 0.0
O210 O 0.59311 0.72226 0.02645 0.0
C211 C 0.52921 0.63989 0.43307 0.0
C212 C 0.48738 0.61016 0.36586 0.0
C213 C 0.51566 0.63215 0.34757 0.0
N214 N 0.50985 0.62394 0.49899 0.0
N215 N 0.48493 0.6058 0.45807 0.0
C216 C 0.56026 0.66268 0.45185 0.0
H217 H 0.56869 0.65712 0.5135 0.0
H218 H 0.56165 0.68391 0.46502 0.0
H219 H 0.57434 0.66516 0.39206 0.0
C220 C 0.54933 0.71176 0.7246 0.0
N221 N 0.5435 0.68389 0.72626 0.0
N222 N 0.52834 0.67047 0.65239 0.0
C223 C 0.52274 0.68887 0.60402 0.0
C224 C 0.53642 0.71585 0.64687 0.0
C225 C 0.56472 0.73317 0.80021 0.0
H226 H 0.55106 0.72577 0.86315 0.0
H227 H 0.58559 0.73392 0.81599 0.0
H228 H 0.56898 0.75527 0.78182 0.0
O229 O 0.51014 0.62752 0.85048 0.0
O230 O 0.48716 0.60522 0.72059 0.0
H231 H 0.48741 0.65684 0.52175 0.0
H232 H 0.49162 0.69251 0.51566 0.0
C233 C 0.50357 0.68041 0.52043 0.0
H234 H 0.51713 0.68567 0.45779 0.0
H235 H 0.46597 0.5912 0.49304 0.0
O236 O 0.56608 0.68615 0.93099 0.0
C237 C 0.4881 0.60723 0.80881 0.0
Co238 Co 0.88802 0.5455 0.99304 0.0
Co239 Co 0.88764 0.51654 0.80729 0.0
C240 C 0.94042 0.57216 0.87839 0.0
O241 O 0.92768 0.57421 0.94966 0.0
O242 O 0.92735 0.55107 0.82242 0.0
C243 C 0.90206 0.56174 0.17092 0.0
O244 O 0.92779 0.56997 0.13521 0.0
C245 C 0.89403 0.52615 0.61372 0.0
C246 C 0.87475 0.48235 0.55194 0.0
C247 C 0.88729 0.5117 0.53069 0.0
N248 N 0.88593 0.50646 0.68155 0.0
N249 N 0.87473 0.48025 0.64457 0.0
C250 C 0.90407 0.55774 0.62851 0.0
H251 H 0.89883 0.56164 0.69899 0.0
H252 H 0.8937 0.5654 0.57769 0.0
H253 H 0.92796 0.57061 0.61813 0.0
C254 C 0.83605 0.54443 0.90847 0.0
N255 N 0.85858 0.53935 0.90707 0.0
N256 N 0.85766 0.5258 0.83033 0.0
C257 C 0.83418 0.52136 0.78095 0.0
C258 C 0.81977 0.53317 0.82842 0.0
C259 C 0.8295 0.5582 0.98772 0.0
H260 H 0.82742 0.54572 0.05137 0.0
H261 H 0.84804 0.58061 0.99787 0.0
H262 H 0.80913 0.55891 0.97667 0.0
O263 O 0.8867 0.50836 0.01911 0.0
O264 O 0.88385 0.48479 0.89051 0.0
H265 H 0.8285 0.48715 0.68963 0.0
H266 H 0.80376 0.50049 0.66747 0.0
C267 C 0.82621 0.5068 0.68868 0.0
H268 H 0.84105 0.5221 0.63602 0.0
H269 H 0.86614 0.46096 0.68235 0.0
O270 O 0.88064 0.55482 0.11712 0.0
C271 C 0.88469 0.48629 0.97816 0.0
Co272 Co 0.3437 0.88754 0.14553 0.0
Co273 Co 0.37293 0.88685 0.96071 0.0
C274 C 0.3712 0.9402 0.03162 0.0
O275 O 0.35585 0.92748 0.10208 0.0
O276 O 0.37913 0.92694 0.97615 0.0
C277 C 0.34206 0.90171 0.32368 0.0
O278 O 0.35995 0.92724 0.28755 0.0
C279 C 0.37029 0.89386 0.76683 0.0
C280 C 0.39357 0.87327 0.70492 0.0
C281 C 0.37746 0.88662 0.68365 0.0
N282 N 0.38147 0.88523 0.83468 0.0
N283 N 0.39577 0.87328 0.79753 0.0
C284 C 0.3494 0.90476 0.78184 0.0
H285 H 0.34011 0.89952 0.85216 0.0
H286 H 0.3314 0.89504 0.73077 0.0
H287 H 0.36106 0.92868 0.77221 0.0
C288 C 0.29244 0.83667 0.05797 0.0
N289 N 0.32034 0.85864 0.05831 0.0
N290 N 0.33322 0.8576 0.98222 0.0
C291 C 0.31405 0.83457 0.93168 0.0
C292 C 0.28751 0.82065 0.9775 0.0
C293 C 0.27174 0.83037 0.13596 0.0
H294 H 0.28183 0.82851 0.20071 0.0
H295 H 0.26776 0.84891 0.14418 0.0
H296 H 0.25072 0.81001 0.12459 0.0
O297 O 0.37879 0.88505 0.17261 0.0
O298 O 0.40005 0.88189 0.04571 0.0
H299 H 0.34256 0.82818 0.84227 0.0
H300 H 0.30447 0.80424 0.81817 0.0
C301 C 0.32086 0.82648 0.83999 0.0
H302 H 0.32103 0.84158 0.78702 0.0
H303 H 0.40597 0.8641 0.83522 0.0
O304 O 0.32703 0.88042 0.27011 0.0
C305 C 0.39879 0.88251 0.13335 0.0
Co306 Co 0.45625 0.34214 0.32112 0.0
Co307 Co 0.48739 0.37008 0.13682 0.0
C308 C 0.43186 0.36888 0.20028 0.0
O309 O 0.42869 0.35383 0.27199 0.0
O310 O 0.45352 0.37656 0.14697 0.0
C311 C 0.44582 0.34845 0.49447 0.0
O312 O 0.44443 0.3691 0.44861 0.0
C313 C 0.47938 0.36413 0.94179 0.0
C314 C 0.52155 0.39733 0.88368 0.0
C315 C 0.4937 0.37555 0.86005 0.0
N316 N 0.49793 0.3779 0.01125 0.0
N317 N 0.5232 0.39777 0.97641 0.0
C318 C 0.44786 0.34181 0.95387 0.0
H319 H 0.44268 0.33552 0.02711 0.0
H320 H 0.44236 0.32215 0.91257 0.0
H321 H 0.4342 0.3508 0.92825 0.0
C322 C 0.45604 0.28991 0.23858 0.0
N323 N 0.46205 0.31784 0.23777 0.0
N324 N 0.47705 0.33067 0.16299 0.0
C325 C 0.48197 0.31168 0.11573 0.0
C326 C 0.46851 0.28511 0.1612 0.0
C327 C 0.44031 0.26879 0.31451 0.0
H328 H 0.43093 0.27784 0.36377 0.0
H329 H 0.42268 0.24807 0.28554 0.0
H330 H 0.45575 0.26386 0.35114 0.0
O331 O 0.49432 0.37725 0.34632 0.0
O332 O 0.51938 0.39767 0.21987 0.0
H333 H 0.51695 0.34185 0.02873 0.0
H334 H 0.50887 0.30482 0.01732 0.0
C335 C 0.49918 0.31884 0.0282 0.0
H336 H 0.48452 0.31522 0.96911 0.0
H337 H 0.54133 0.41186 0.01573 0.0
O338 O 0.446 0.328 0.44907 0.0
C339 C 0.51716 0.39687 0.30729 0.0
Co340 Co 0.1168 0.45629 0.49286 0.0
Co341 Co 0.11852 0.48666 0.30828 0.0
C342 C 0.06551 0.43021 0.37338 0.0
O343 O 0.07783 0.42767 0.44502 0.0
O344 O 0.07882 0.45185 0.31947 0.0
C345 C 0.10028 0.44574 0.66613 0.0
O346 O 0.07788 0.44351 0.62014 0.0
C347 C 0.11646 0.47878 0.11323 0.0
C348 C 0.12441 0.52065 0.0554 0.0
C349 C 0.11911 0.49311 0.03161 0.0
N350 N 0.12069 0.49708 0.18279 0.0
N351 N 0.12546 0.52216 0.14813 0.0
C352 C 0.10812 0.4475 0.12515 0.0
H353 H 0.10963 0.44243 0.19827 0.0
H354 H 0.1225 0.44245 0.08317 0.0
H355 H 0.08546 0.43342 0.10032 0.0
C356 C 0.16924 0.45722 0.40836 0.0
N357 N 0.1471 0.46296 0.40895 0.0
N358 N 0.14875 0.47782 0.33427 0.0
C359 C 0.17258 0.48299 0.28582 0.0
C360 C 0.1861 0.46971 0.33019 0.0
C361 C 0.17457 0.44072 0.48201 0.0
H362 H 0.16431 0.44154 0.54752 0.0
H363 H 0.16479 0.41763 0.46053 0.0
H364 H 0.19832 0.44961 0.49203 0.0
O365 O 0.1182 0.49369 0.51732 0.0
O366 O 0.12148 0.5181 0.39042 0.0
H367 H 0.17576 0.51697 0.19696 0.0
H368 H 0.20562 0.51025 0.18603 0.0
C369 C 0.18186 0.49981 0.19736 0.0
H370 H 0.17112 0.48473 0.13904 0.0
H371 H 0.12904 0.54009 0.18758 0.0
O372 O 0.1213 0.4466 0.62093 0.0
C373 C 0.12029 0.51602 0.47784 0.0
Co374 Co 0.66227 0.11497 0.64698 0.0
Co375 Co 0.63276 0.11594 0.46243 0.0
C376 C 0.63468 0.06249 0.53285 0.0
O377 O 0.65007 0.07504 0.60349 0.0
O378 O 0.62672 0.07588 0.4778 0.0
C379 C 0.66389 0.10101 0.82557 0.0
O380 O 0.64591 0.07547 0.78968 0.0
C381 C 0.63586 0.10924 0.26856 0.0
C382 C 0.61201 0.12915 0.20564 0.0
C383 C 0.62857 0.11626 0.18502 0.0
N384 N 0.62432 0.11754 0.33599 0.0
N385 N 0.6097 0.12911 0.29822 0.0
C386 C 0.65711 0.0988 0.28421 0.0
H387 H 0.66604 0.10378 0.35505 0.0
H388 H 0.67532 0.10908 0.23414 0.0
H389 H 0.64591 0.07495 0.27335 0.0
C390 C 0.71355 0.16558 0.55842 0.0
N391 N 0.68555 0.14385 0.55949 0.0
N392 N 0.67248 0.14513 0.484 0.0
C393 C 0.6916 0.16815 0.43334 0.0
C394 C 0.71834 0.18173 0.47819 0.0
C395 C 0.73448 0.17157 0.6357 0.0
H396 H 0.73585 0.15172 0.64998 0.0
H397 H 0.75648 0.19009 0.61996 0.0
H398 H 0.72602 0.17655 0.6988 0.0
O399 O 0.6272 0.11746 0.67396 0.0
O400 O 0.60567 0.12081 0.54769 0.0
H401 H 0.70054 0.19921 0.32243 0.0
H402 H 0.68484 0.16219 0.28825 0.0
C403 C 0.68453 0.17664 0.34257 0.0
H404 H 0.66259 0.17437 0.34527 0.0
H405 H 0.59915 0.13798 0.33545 0.0
O406 O 0.67901 0.12222 0.77175 0.0
C407 C 0.60711 0.12006 0.63531 0.0
C408 C 0.35486 0.48897 0.64071 0.0
C409 C 0.36702 0.47759 0.57931 0.0
H410 H 0.33576 0.48534 0.77338 0.0
C411 C 0.36818 0.45259 0.60387 0.0
H412 H 0.35356 0.50813 0.62266 0.0
C413 C 0.35792 0.43948 0.68933 0.0
C414 C 0.34609 0.451 0.75161 0.0
H415 H 0.37775 0.44361 0.55796 0.0
H416 H 0.36004 0.42082 0.70783 0.0
C417 C 0.3442 0.47561 0.72599 0.0
C418 C 0.88101 0.33192 0.86573 0.0
C419 C 0.90346 0.35327 0.91999 0.0
H420 H 0.85826 0.32224 0.73661 0.0
C421 C 0.92044 0.38164 0.88449 0.0
H422 H 0.86742 0.31001 0.89169 0.0
C423 C 0.91472 0.38871 0.79762 0.0
C424 C 0.89242 0.36742 0.74371 0.0
H425 H 0.93768 0.39877 0.92484 0.0
H426 H 0.92791 0.41075 0.77214 0.0
C427 C 0.87571 0.33891 0.77762 0.0
C428 C 0.5286 0.86858 0.05737 0.0
C429 C 0.55235 0.89571 0.08283 0.0
H430 H 0.49659 0.84418 0.95386 0.0
C431 C 0.56289 0.91897 0.02028 0.0
H432 H 0.5196 0.85044 0.10504 0.0
C433 C 0.54971 0.91536 0.93447 0.0
C434 C 0.52553 0.88853 0.91007 0.0
H435 H 0.58086 0.94021 0.03873 0.0
H436 H 0.55797 0.93379 0.88805 0.0
C437 C 0.51509 0.86512 0.97185 0.0
C438 C 0.67829 0.53831 0.09279 0.0
C439 C 0.64772 0.52359 0.0905 0.0
H440 H 0.71708 0.56328 0.17092 0.0
C441 C 0.63258 0.52086 0.17293 0.0
H442 H 0.69069 0.53983 0.03193 0.0
C443 C 0.64794 0.53431 0.25445 0.0
C444 C 0.67863 0.5504 0.25464 0.0
H445 H 0.60896 0.5093 0.17353 0.0
H446 H 0.63587 0.53302 0.31604 0.0
C447 C 0.69347 0.55161 0.17319 0.0
C448 C 0.09146 0.61301 0.3019 0.0
C449 C 0.11377 0.63442 0.24833 0.0
H450 H 0.06826 0.60272 0.42858 0.0
C451 C 0.13024 0.66293 0.28239 0.0
H452 H 0.07844 0.59096 0.27637 0.0
C453 C 0.12469 0.6698 0.37023 0.0
C454 C 0.10223 0.64832 0.42413 0.0
H455 H 0.14772 0.6797 0.24178 0.0
H456 H 0.13811 0.6917 0.3963 0.0
C457 C 0.08548 0.61995 0.38849 0.0
C458 C 0.44334 0.08424 0.52583 0.0
C459 C 0.45443 0.10761 0.58797 0.0
H460 H 0.44777 0.06882 0.39429 0.0
C461 C 0.47864 0.13438 0.56219 0.0
H462 H 0.42501 0.06326 0.5445 0.0
C463 C 0.49205 0.13734 0.47685 0.0
C464 C 0.48108 0.1138 0.41552 0.0
H465 H 0.48805 0.15258 0.60953 0.0
H466 H 0.51091 0.158 0.45869 0.0
C467 C 0.45645 0.08736 0.44024 0.0
C468 C 0.54273 0.67809 0.25669 0.0
C469 C 0.52741 0.64754 0.25846 0.0
H470 H 0.56817 0.7168 0.17894 0.0
C471 C 0.52417 0.63243 0.17564 0.0
H472 H 0.54468 0.6905 0.31791 0.0
C473 C 0.53766 0.64775 0.09415 0.0
C474 C 0.55428 0.67838 0.09436 0.0
H475 H 0.51214 0.60884 0.17466 0.0
H476 H 0.53594 0.63567 0.03219 0.0
C477 C 0.55607 0.69323 0.1763 0.0
C478 C 0.86701 0.51386 0.37776 0.0
C479 C 0.89054 0.5249 0.43932 0.0
H480 H 0.85182 0.51778 0.2448 0.0
C481 C 0.91701 0.54953 0.4149 0.0
H482 H 0.84633 0.49501 0.39584 0.0
C483 C 0.92017 0.56262 0.32925 0.0
C484 C 0.89682 0.55146 0.26684 0.0
H485 H 0.93552 0.55825 0.46119 0.0
H486 H 0.94115 0.58099 0.31078 0.0
C487 C 0.87002 0.52723 0.29234 0.0
C488 C 0.35971 0.91979 0.48171 0.0
C489 C 0.34709 0.8964 0.41972 0.0
H490 H 0.37978 0.93509 0.61318 0.0
C491 C 0.34413 0.86947 0.44568 0.0
H492 H 0.36266 0.94088 0.46292 0.0
C493 C 0.35451 0.86636 0.53109 0.0
C494 C 0.36742 0.88992 0.59225 0.0
H495 H 0.33506 0.85123 0.39847 0.0
H496 H 0.35237 0.84556 0.54946 0.0
C497 C 0.36966 0.91654 0.56733 0.0
C498 C 0.47995 0.38941 0.71367 0.0
C499 C 0.48106 0.36811 0.76737 0.0
H500 H 0.4669 0.39954 0.58678 0.0
C501 C 0.46918 0.33962 0.73335 0.0
H502 H 0.48883 0.41144 0.7392 0.0
C503 C 0.45681 0.33268 0.6453 0.0
C504 C 0.45568 0.35406 0.59118 0.0
H505 H 0.47001 0.32293 0.77415 0.0
H506 H 0.4485 0.3108 0.61925 0.0
C507 C 0.46705 0.38238 0.62693 0.0
C508 C 0.1318 0.46953 0.90535 0.0
C509 C 0.11451 0.48073 0.93881 0.0
H510 H 0.1409 0.44944 0.79173 0.0
C511 C 0.09202 0.47921 0.88441 0.0
H512 H 0.14943 0.47074 0.94664 0.0
C513 C 0.08667 0.46647 0.79761 0.0
C514 C 0.10422 0.45565 0.76261 0.0
H515 H 0.07839 0.48761 0.90945 0.0
H516 H 0.06926 0.46595 0.75693 0.0
C517 C 0.12687 0.45729 0.81729 0.0
C518 C 0.6617 0.13329 0.94686 0.0
C519 C 0.65894 0.10642 0.9215 0.0
H520 H 0.65331 0.15717 0.04999 0.0
C521 C 0.64655 0.08312 0.984 0.0
H522 H 0.67058 0.15145 0.89924 0.0
C523 C 0.63665 0.08641 0.06951 0.0
C524 C 0.63867 0.11296 0.09383 0.0
H525 H 0.64375 0.06207 0.96568 0.0
H526 H 0.62669 0.06791 0.11571 0.0
C527 C 0.65135 0.13643 0.03215 0.0
C528 C 0.44095 0.55982 0.82752 0.0
C529 C 0.46403 0.58502 0.86654 0.0
H530 H 0.40246 0.51885 0.85099 0.0
C531 C 0.46484 0.5883 0.96308 0.0
H532 H 0.43956 0.55653 0.75373 0.0
C533 C 0.44367 0.56661 0.01929 0.0
C534 C 0.421 0.54111 0.98045 0.0
H535 H 0.48209 0.60754 0.99581 0.0
H536 H 0.44528 0.56974 0.09317 0.0
C537 C 0.4197 0.53816 0.88371 0.0
C538 C 0.88492 0.41751 0.05057 0.0
C539 C 0.88459 0.41921 0.14745 0.0
H540 H 0.88511 0.4371 0.92118 0.0
C541 C 0.88349 0.44268 0.18757 0.0
H542 H 0.88568 0.39967 0.01705 0.0
C543 C 0.88317 0.46415 0.1323 0.0
C544 C 0.88388 0.46266 0.03544 0.0
H545 H 0.88317 0.44468 0.26167 0.0
H546 H 0.88258 0.48207 0.16591 0.0
C547 C 0.88454 0.43895 0.99527 0.0
C548 C 0.41801 0.88038 0.28962 0.0
C549 C 0.42083 0.88093 0.19288 0.0
H550 H 0.43646 0.88021 0.42096 0.0
C551 C 0.44511 0.88079 0.15515 0.0
H552 H 0.39952 0.88037 0.32145 0.0
C553 C 0.46632 0.88073 0.21262 0.0
C554 C 0.46377 0.88074 0.30937 0.0
H555 H 0.448 0.88117 0.08128 0.0
H556 H 0.48493 0.88099 0.18078 0.0
C557 C 0.43919 0.88026 0.34709 0.0
C558 C 0.5668 0.44107 0.32844 0.0
C559 C 0.54089 0.41879 0.36656 0.0
H560 H 0.60808 0.47895 0.35302 0.0
C561 C 0.53751 0.41767 0.46311 0.0
H562 H 0.57026 0.44252 0.25473 0.0
C563 C 0.55917 0.4387 0.51986 0.0
C564 C 0.58481 0.46136 0.48154 0.0
H565 H 0.5179 0.40071 0.49522 0.0
H566 H 0.55555 0.43745 0.59347 0.0
C567 C 0.58849 0.46201 0.38519 0.0
C568 C 0.12086 0.56347 0.4976 0.0
C569 C 0.121 0.53931 0.53649 0.0
H570 H 0.12037 0.60296 0.52137 0.0
C571 C 0.12128 0.53714 0.63329 0.0
H572 H 0.12063 0.56586 0.42361 0.0
C573 C 0.12113 0.55843 0.68972 0.0
C574 C 0.12064 0.58241 0.65082 0.0
H575 H 0.12148 0.51886 0.6659 0.0
H576 H 0.12112 0.55593 0.76372 0.0
C577 C 0.12066 0.58472 0.55402 0.0
C578 C 0.56099 0.12205 0.6588 0.0
C579 C 0.58528 0.12167 0.69564 0.0
H580 H 0.52141 0.12214 0.68587 0.0
C581 C 0.58834 0.12202 0.79232 0.0
H582 H 0.55791 0.12183 0.58503 0.0
C583 C 0.56742 0.12223 0.85058 0.0
C584 C 0.54283 0.12202 0.81375 0.0
H585 H 0.60685 0.12184 0.82352 0.0
H586 H 0.57034 0.12213 0.92435 0.0
C587 C 0.54003 0.1222 0.71706 0.0
C588 C 0.26242 0.49469 0.24517 0.0
C589 C 0.26134 0.4682 0.22678 0.0
H590 H 0.23999 0.51581 0.29767 0.0
C591 C 0.23545 0.44198 0.24437 0.0
H592 H 0.28214 0.51519 0.23193 0.0
C593 C 0.21106 0.44235 0.28034 0.0
C594 C 0.21231 0.46894 0.29897 0.0
H595 H 0.23423 0.42128 0.23139 0.0
H596 H 0.19114 0.42194 0.29236 0.0
C597 C 0.23833 0.49505 0.28233 0.0
C598 C 0.79572 0.232 0.39616 0.0
C599 C 0.795 0.25766 0.37809 0.0
H600 H 0.77178 0.18762 0.44352 0.0
C601 C 0.76911 0.25815 0.39355 0.0
H602 H 0.81553 0.2312 0.38495 0.0
C603 C 0.74464 0.23379 0.4293 0.0
C604 C 0.74522 0.20809 0.44742 0.0
H605 H 0.76793 0.27758 0.3789 0.0
H606 H 0.72508 0.23492 0.44209 0.0
C607 C 0.77095 0.20733 0.4307 0.0
C608 C 0.56257 0.79254 0.56093 0.0
C609 C 0.53611 0.79235 0.55015 0.0
H610 H 0.58333 0.76819 0.60094 0.0
C611 C 0.50991 0.76697 0.57182 0.0
H612 H 0.58306 0.81194 0.54503 0.0
C613 C 0.51013 0.74249 0.60624 0.0
C614 C 0.53649 0.74254 0.61656 0.0
H615 H 0.48921 0.7662 0.56315 0.0
H616 H 0.48965 0.72348 0.62484 0.0
C617 C 0.56275 0.76776 0.59383 0.0
C618 C 0.79274 0.55937 0.78915 0.0
C619 C 0.79294 0.53313 0.79953 0.0
H620 H 0.76795 0.57964 0.74907 0.0
C621 C 0.76777 0.5068 0.7773 0.0
H622 H 0.81197 0.57994 0.80547 0.0
C623 C 0.7431 0.5067 0.74281 0.0
C624 C 0.7428 0.53285 0.73267 0.0
H625 H 0.76734 0.48627 0.78551 0.0
H626 H 0.72427 0.48614 0.72377 0.0
C627 C 0.7678 0.55922 0.75601 0.0
C628 C 0.23444 0.79437 0.93516 0.0
C629 C 0.26064 0.79414 0.94745 0.0
H630 H 0.1894 0.76996 0.89438 0.0
C631 C 0.26153 0.76877 0.92651 0.0
H632 H 0.23331 0.81377 0.95062 0.0
C633 C 0.23692 0.74427 0.89186 0.0
C634 C 0.21065 0.74433 0.8802 0.0
H635 H 0.2814 0.76797 0.93639 0.0
H636 H 0.23829 0.72509 0.87516 0.0
C637 C 0.20957 0.76959 0.90181 0.0
C638 C 0.44247 0.23284 0.11103 0.0
C639 C 0.46857 0.25831 0.13328 0.0
H640 H 0.42272 0.1889 0.06037 0.0
C641 C 0.49514 0.2589 0.12158 0.0
H642 H 0.42173 0.23203 0.11857 0.0
C643 C 0.49576 0.23483 0.0857 0.0
C644 C 0.46976 0.20927 0.06383 0.0
H645 H 0.51553 0.27825 0.13884 0.0
H646 H 0.51664 0.23614 0.07531 0.0
C647 C 0.44306 0.20844 0.07655 0.0
C648 C 0.38594 0.40378 0.24258 0.0
C649 C 0.38211 0.41126 0.15297 0.0
H650 H 0.40389 0.38358 0.3276 0.0
C651 C 0.39198 0.40182 0.07812 0.0
H652 H 0.37853 0.41077 0.30136 0.0
C653 C 0.40722 0.3869 0.09317 0.0
C654 C 0.41202 0.38042 0.18317 0.0
H655 H 0.3895 0.40749 0.00836 0.0
H656 H 0.41599 0.38119 0.03464 0.0
C657 C 0.40035 0.38811 0.25751 0.0
C658 C 0.99314 0.38782 0.25134 0.0
C659 C 0.97365 0.37866 0.32579 0.0
H660 H 0.0378 0.41183 0.2083 0.0
C661 C 0.98474 0.38365 0.41591 0.0
H662 H 0.98514 0.38444 0.18119 0.0
C663 C 0.01484 0.39862 0.43135 0.0
C664 C 0.0343 0.40962 0.35693 0.0
H665 H 0.97014 0.37681 0.47442 0.0
H666 H 0.02281 0.40317 0.50152 0.0
C667 C 0.02322 0.40357 0.26679 0.0
C668 C 0.61889 0.01971 0.42851 0.0
C669 C 0.62332 0.03108 0.51813 0.0
H670 H 0.60012 0.98147 0.34398 0.0
C671 C 0.61365 0.01183 0.59314 0.0
H672 H 0.62609 0.03407 0.36955 0.0
C673 C 0.59806 0.98175 0.57847 0.0
C674 C 0.59268 0.97036 0.4887 0.0
H675 H 0.61654 0.02001 0.66291 0.0
H676 H 0.58944 0.96745 0.63731 0.0
C677 C 0.60412 0.98961 0.41393 0.0
C678 C 0.61399 0.60115 0.58505 0.0
C679 C 0.62246 0.59014 0.65944 0.0
H680 H 0.59117 0.62299 0.54187 0.0
C681 C 0.61746 0.5962 0.74965 0.0
H682 H 0.61747 0.59669 0.5149 0.0
C683 C 0.60301 0.61181 0.76516 0.0
C684 C 0.59264 0.62094 0.6907 0.0
H685 H 0.62388 0.58804 0.80827 0.0
H686 H 0.59839 0.61515 0.83526 0.0
C687 C 0.59886 0.61608 0.60054 0.0
C688 C 0.01293 0.6159 0.75902 0.0
C689 C 0.03241 0.6233 0.83313 0.0
H690 H 0.96836 0.59355 0.7156 0.0
C691 C 0.0213 0.61682 0.92322 0.0
H692 H 0.02087 0.62046 0.68886 0.0
C693 C 0.99118 0.60204 0.93855 0.0
C694 C 0.97173 0.59277 0.86388 0.0
H695 H 0.03588 0.62233 0.98158 0.0
H696 H 0.98315 0.59625 0.00834 0.0
C697 C 0.98287 0.60039 0.77423 0.0
C698 C 0.40854 0.02074 0.08043 0.0
C699 C 0.41388 0.03252 0.99114 0.0
H700 H 0.38986 0.98211 0.16331 0.0
C701 C 0.40217 0.01363 0.91567 0.0
H702 H 0.41737 0.03476 0.13978 0.0
C703 C 0.38715 0.98346 0.92904 0.0
C704 C 0.38276 0.97169 0.01816 0.0
H705 H 0.40612 0.02208 0.84606 0.0
H706 H 0.37971 0.96936 0.86955 0.0
C707 C 0.39271 0.9906 0.09392 0.0
loop_
_geom_bond_atom_site_label_1
_geom_bond_atom_site_label_2
_geom_bond_distance
_geom_bond_site_symmetry_2
_ccdc_geom_bond_type
Co0 O3 1.970 . S
Co0 N17 1.989 . S
Co0 O25 1.967 . S
Co0 O32 1.920 1_554 S
Co1 O4 1.966 . S
Co1 N10 2.022 . S
Co1 N18 1.993 . S
Co1 O26 1.941 . S
C2 O3 1.258 . S
C2 O4 1.263 . S
O3 Co0 1.970 . S
O3 C2 1.258 . S
O4 Co1 1.966 . S
O4 C2 1.263 . S
C5 O6 1.235 . S
C5 O32 1.289 . S
O6 C5 1.235 . S
C7 C9 1.400 . S
C7 N10 1.351 . S
C7 C12 1.501 . S
C8 C9 1.387 . S
C8 N11 1.341 . S
C9 C7 1.400 . S
C9 C8 1.387 . S
N10 Co1 2.022 . S
N10 C7 1.351 . S
N10 N11 1.365 . S
N11 C8 1.341 . S
N11 N10 1.365 . S
N11 H31 0.862 . S
C12 C7 1.501 . S
C12 H13 0.961 . S
C12 H14 0.961 . S
C12 H15 0.960 . S
H13 C12 0.961 . S
H14 C12 0.961 . S
H15 C12 0.960 . S
C16 N17 1.342 . S
C16 C20 1.401 . S
C16 C21 1.499 1_554 S
N17 Co0 1.989 . S
N17 C16 1.342 . S
N17 N18 1.388 . S
N18 Co1 1.993 . S
N18 N17 1.388 . S
N18 C19 1.346 . S
C19 N18 1.346 . S
C19 C20 1.396 . S
C19 C29 1.510 . S
C20 C16 1.401 . S
C20 C19 1.396 . S
C21 C16 1.499 1_556 S
C21 H22 0.959 . S
C21 H23 0.960 . S
C21 H24 0.961 . S
H22 C21 0.959 . S
H23 C21 0.960 . S
H24 C21 0.961 . S
O25 Co0 1.967 . S
O25 C33 1.258 . S
O26 Co1 1.941 . S
O26 C33 1.266 . S
H27 C29 0.959 . S
H28 C29 0.961 . S
C29 C19 1.510 . S
C29 H27 0.959 . S
C29 H28 0.961 . S
C29 H30 0.960 . S
H30 C29 0.960 . S
H31 N11 0.862 . S
O32 Co0 1.920 1_556 S
O32 C5 1.289 . S
C33 O25 1.258 . S
C33 O26 1.266 . S
Co34 O37 1.970 . S
Co34 N51 1.989 . S
Co34 O59 1.967 . S
Co34 O66 1.920 . S
Co35 O38 1.966 . S
Co35 N44 2.022 . S
Co35 N52 1.993 . S
Co35 O60 1.941 . S
C36 O37 1.258 . S
C36 O38 1.263 . S
O37 Co34 1.970 . S
O37 C36 1.258 . S
O38 Co35 1.966 . S
O38 C36 1.263 . S
C39 O40 1.235 . S
C39 O66 1.289 . S
O40 C39 1.235 . S
C41 C43 1.400 . S
C41 N44 1.351 . S
C41 C46 1.501 . S
C42 C43 1.387 . S
C42 N45 1.341 . S
C43 C41 1.400 . S
C43 C42 1.387 . S
N44 Co35 2.022 . S
N44 C41 1.351 . S
N44 N45 1.365 . S
N45 C42 1.341 . S
N45 N44 1.365 . S
N45 H65 0.862 . S
C46 C41 1.501 . S
C46 H47 0.961 . S
C46 H48 0.961 . S
C46 H49 0.960 . S
H47 C46 0.961 . S
H48 C46 0.961 . S
H49 C46 0.960 . S
C50 N51 1.342 . S
C50 C54 1.401 . S
C50 C55 1.499 . S
N51 Co34 1.989 . S
N51 C50 1.342 . S
N51 N52 1.388 . S
N52 Co35 1.993 . S
N52 N51 1.388 . S
N52 C53 1.346 . S
C53 N52 1.346 . S
C53 C54 1.396 . S
C53 C63 1.510 . S
C54 C50 1.401 . S
C54 C53 1.396 . S
C55 C50 1.499 . S
C55 H56 0.959 . S
C55 H57 0.960 . S
C55 H58 0.961 . S
H56 C55 0.959 . S
H57 C55 0.960 . S
H58 C55 0.961 . S
O59 Co34 1.967 . S
O59 C67 1.258 . S
O60 Co35 1.941 . S
O60 C67 1.266 . S
H61 C63 0.959 . S
H62 C63 0.961 . S
C63 C53 1.510 . S
C63 H61 0.959 . S
C63 H62 0.961 . S
C63 H64 0.960 . S
H64 C63 0.960 . S
H65 N45 0.862 . S
O66 Co34 1.920 . S
O66 C39 1.289 . S
C67 O59 1.258 . S
C67 O60 1.266 . S
Co68 O71 1.970 . S
Co68 N85 1.989 . S
Co68 O93 1.967 . S
Co68 O100 1.920 . S
Co69 O72 1.966 . S
Co69 N78 2.022 . S
Co69 N86 1.993 . S
Co69 O94 1.941 . S
C70 O71 1.258 . S
C70 O72 1.263 . S
O71 Co68 1.970 . S
O71 C70 1.258 . S
O72 Co69 1.966 . S
O72 C70 1.263 . S
C73 O74 1.235 . S
C73 O100 1.289 . S
O74 C73 1.235 . S
C75 C77 1.400 . S
C75 N78 1.351 . S
C75 C80 1.501 . S
C76 C77 1.387 . S
C76 N79 1.341 . S
C77 C75 1.400 . S
C77 C76 1.387 . S
N78 Co69 2.022 . S
N78 C75 1.351 . S
N78 N79 1.365 . S
N79 C76 1.341 . S
N79 N78 1.365 . S
N79 H99 0.862 . S
C80 C75 1.501 . S
C80 H81 0.961 . S
C80 H82 0.961 . S
C80 H83 0.960 . S
H81 C80 0.961 . S
H82 C80 0.961 . S
H83 C80 0.960 . S
C84 N85 1.342 . S
C84 C88 1.401 . S
C84 C89 1.499 . S
N85 Co68 1.989 . S
N85 C84 1.342 . S
N85 N86 1.388 . S
N86 Co69 1.993 . S
N86 N85 1.388 . S
N86 C87 1.346 . S
C87 N86 1.346 . S
C87 C88 1.396 . S
C87 C97 1.510 . S
C88 C84 1.401 . S
C88 C87 1.396 . S
C89 C84 1.499 . S
C89 H90 0.959 . S
C89 H91 0.960 . S
C89 H92 0.961 . S
H90 C89 0.959 . S
H91 C89 0.960 . S
H92 C89 0.961 . S
O93 Co68 1.967 . S
O93 C101 1.258 . S
O94 Co69 1.941 . S
O94 C101 1.266 . S
H95 C97 0.959 . S
H96 C97 0.961 . S
C97 C87 1.510 . S
C97 H95 0.959 . S
C97 H96 0.961 . S
C97 H98 0.960 . S
H98 C97 0.960 . S
H99 N79 0.862 . S
O100 Co68 1.920 . S
O100 C73 1.289 . S
C101 O93 1.258 . S
C101 O94 1.266 . S
Co102 O105 1.970 . S
Co102 N119 1.989 . S
Co102 O127 1.967 . S
Co102 O134 1.920 . S
Co103 O106 1.966 . S
Co103 N112 2.022 . S
Co103 N120 1.993 . S
Co103 O128 1.941 . S
C104 O105 1.258 . S
C104 O106 1.263 . S
O105 Co102 1.970 . S
O105 C104 1.258 . S
O106 Co103 1.966 . S
O106 C104 1.263 . S
C107 O108 1.235 . S
C107 O134 1.289 . S
O108 C107 1.235 . S
C109 C111 1.400 1_556 S
C109 N112 1.351 . S
C109 C114 1.501 . S
C110 C111 1.387 1_556 S
C110 N113 1.341 . S
C111 C109 1.400 1_554 S
C111 C110 1.387 1_554 S
N112 Co103 2.022 . S
N112 C109 1.351 . S
N112 N113 1.365 . S
N113 C110 1.341 . S
N113 N112 1.365 . S
N113 H133 0.862 . S
C114 C109 1.501 . S
C114 H115 0.961 . S
C114 H116 0.961 . S
C114 H117 0.960 . S
H115 C114 0.961 . S
H116 C114 0.961 . S
H117 C114 0.960 . S
C118 N119 1.342 . S
C118 C122 1.401 . S
C118 C123 1.499 . S
N119 Co102 1.989 . S
N119 C118 1.342 . S
N119 N120 1.388 . S
N120 Co103 1.993 . S
N120 N119 1.388 . S
N120 C121 1.346 . S
C121 N120 1.346 . S
C121 C122 1.396 . S
C121 C131 1.510 . S
C122 C118 1.401 . S
C122 C121 1.396 . S
C123 C118 1.499 . S
C123 H124 0.959 . S
C123 H125 0.960 . S
C123 H126 0.961 . S
H124 C123 0.959 . S
H125 C123 0.960 . S
H126 C123 0.961 . S
O127 Co102 1.967 . S
O127 C135 1.258 . S
O128 Co103 1.941 . S
O128 C135 1.266 . S
H129 C131 0.959 . S
H130 C131 0.961 . S
C131 C121 1.510 . S
C131 H129 0.959 . S
C131 H130 0.961 . S
C131 H132 0.960 . S
H132 C131 0.960 . S
H133 N113 0.862 . S
O134 Co102 1.920 . S
O134 C107 1.289 . S
C135 O127 1.258 . S
C135 O128 1.266 . S
Co136 O139 1.970 . S
Co136 N153 1.989 . S
Co136 O161 1.967 . S
Co136 O168 1.920 . S
Co137 O140 1.966 . S
Co137 N146 2.022 1_556 S
Co137 N154 1.993 . S
Co137 O162 1.941 . S
C138 O139 1.258 . S
C138 O140 1.263 . S
O139 Co136 1.970 . S
O139 C138 1.258 . S
O140 Co137 1.966 . S
O140 C138 1.263 . S
C141 O142 1.235 . S
C141 O168 1.289 . S
O142 C141 1.235 . S
C143 C145 1.400 . S
C143 N146 1.351 . S
C143 C148 1.501 . S
C144 C145 1.387 . S
C144 N147 1.341 . S
C145 C143 1.400 . S
C145 C144 1.387 . S
N146 Co137 2.022 1_554 S
N146 C143 1.351 . S
N146 N147 1.365 . S
N147 C144 1.341 . S
N147 N146 1.365 . S
N147 H167 0.862 . S
C148 C143 1.501 . S
C148 H149 0.961 . S
C148 H150 0.961 . S
C148 H151 0.960 . S
H149 C148 0.961 . S
H150 C148 0.961 . S
H151 C148 0.960 . S
C152 N153 1.342 . S
C152 C156 1.401 . S
C152 C157 1.499 . S
N153 Co136 1.989 . S
N153 C152 1.342 . S
N153 N154 1.388 . S
N154 Co137 1.993 . S
N154 N153 1.388 . S
N154 C155 1.346 . S
C155 N154 1.346 . S
C155 C156 1.396 . S
C155 C165 1.510 1_556 S
C156 C152 1.401 . S
C156 C155 1.396 . S
C157 C152 1.499 . S
C157 H158 0.959 . S
C157 H159 0.960 . S
C157 H160 0.961 . S
H158 C157 0.959 . S
H159 C157 0.960 . S
H160 C157 0.961 . S
O161 Co136 1.967 . S
O161 C169 1.258 . S
O162 Co137 1.941 . S
O162 C169 1.266 . S
H163 C165 0.959 . S
H164 C165 0.961 . S
C165 C155 1.510 1_554 S
C165 H163 0.959 . S
C165 H164 0.961 . S
C165 H166 0.960 . S
H166 C165 0.960 . S
H167 N147 0.862 . S
O168 Co136 1.920 . S
O168 C141 1.289 . S
C169 O161 1.258 . S
C169 O162 1.266 . S
Co170 O173 1.970 . S
Co170 N187 1.989 . S
Co170 O195 1.967 . S
Co170 O202 1.920 . S
Co171 O174 1.966 . S
Co171 N180 2.022 . S
Co171 N188 1.993 . S
Co171 O196 1.941 . S
C172 O173 1.258 . S
C172 O174 1.263 1_556 S
O173 Co170 1.970 . S
O173 C172 1.258 . S
O174 Co171 1.966 . S
O174 C172 1.263 1_554 S
C175 O176 1.235 . S
C175 O202 1.289 . S
O176 C175 1.235 . S
C177 C179 1.400 . S
C177 N180 1.351 . S
C177 C182 1.501 . S
C178 C179 1.387 . S
C178 N181 1.341 . S
C179 C177 1.400 . S
C179 C178 1.387 . S
N180 Co171 2.022 . S
N180 C177 1.351 . S
N180 N181 1.365 . S
N181 C178 1.341 . S
N181 N180 1.365 . S
N181 H201 0.862 . S
C182 C177 1.501 . S
C182 H183 0.961 . S
C182 H184 0.961 . S
C182 H185 0.960 . S
H183 C182 0.961 . S
H184 C182 0.961 . S
H185 C182 0.960 . S
C186 N187 1.342 . S
C186 C190 1.411 . S
C186 C191 1.499 . S
N187 Co170 1.989 . S
N187 C186 1.342 . S
N187 N188 1.388 1_556 S
N188 Co171 1.993 . S
N188 N187 1.388 1_554 S
N188 C189 1.346 . S
C189 N188 1.346 . S
C189 C190 1.388 1_554 S
C189 C199 1.510 . S
C190 C186 1.411 . S
C190 C189 1.388 1_556 S
C191 C186 1.499 . S
C191 H192 0.959 . S
C191 H193 0.960 . S
C191 H194 0.961 . S
H192 C191 0.959 . S
H193 C191 0.960 . S
H194 C191 0.961 . S
O195 Co170 1.967 . S
O195 C203 1.258 . S
O196 Co171 1.941 . S
O196 C203 1.266 1_554 S
H197 C199 0.959 . S
H198 C199 0.961 . S
C199 C189 1.510 . S
C199 H197 0.959 . S
C199 H198 0.961 . S
C199 H200 0.960 . S
H200 C199 0.960 . S
H201 N181 0.862 . S
O202 Co170 1.920 . S
O202 C175 1.289 . S
C203 O195 1.258 . S
C203 O196 1.266 1_556 S
Co204 O207 1.970 . S
Co204 N221 1.989 . S
Co204 O229 1.967 . S
Co204 O236 1.920 . S
Co205 O208 1.966 . S
Co205 N214 2.022 . S
Co205 N222 1.993 . S
Co205 O230 1.941 . S
C206 O207 1.258 . S
C206 O208 1.263 . S
O207 Co204 1.970 . S
O207 C206 1.258 . S
O208 Co205 1.966 . S
O208 C206 1.263 . S
C209 O210 1.235 . S
C209 O236 1.289 . S
O210 C209 1.235 . S
C211 C213 1.400 . S
C211 N214 1.351 . S
C211 C216 1.501 . S
C212 C213 1.387 . S
C212 N215 1.341 . S
C213 C211 1.400 . S
C213 C212 1.387 . S
N214 Co205 2.022 . S
N214 C211 1.351 . S
N214 N215 1.365 . S
N215 C212 1.341 . S
N215 N214 1.365 . S
N215 H235 0.862 . S
C216 C211 1.501 . S
C216 H217 0.961 . S
C216 H218 0.961 . S
C216 H219 0.960 . S
H217 C216 0.961 . S
H218 C216 0.961 . S
H219 C216 0.960 . S
C220 N221 1.342 . S
C220 C224 1.401 . S
C220 C225 1.499 . S
N221 Co204 1.989 . S
N221 C220 1.342 . S
N221 N222 1.388 . S
N222 Co205 1.993 . S
N222 N221 1.388 . S
N222 C223 1.346 . S
C223 N222 1.346 . S
C223 C224 1.396 . S
C223 C233 1.510 . S
C224 C220 1.401 . S
C224 C223 1.396 . S
C225 C220 1.499 . S
C225 H226 0.959 . S
C225 H227 0.960 . S
C225 H228 0.961 . S
H226 C225 0.959 . S
H227 C225 0.960 . S
H228 C225 0.961 . S
O229 Co204 1.967 . S
O229 C237 1.258 . S
O230 Co205 1.941 . S
O230 C237 1.266 . S
H231 C233 0.959 . S
H232 C233 0.961 . S
C233 C223 1.510 . S
C233 H231 0.959 . S
C233 H232 0.961 . S
C233 H234 0.960 . S
H234 C233 0.960 . S
H235 N215 0.862 . S
O236 Co204 1.920 . S
O236 C209 1.289 . S
C237 O229 1.258 . S
C237 O230 1.266 . S
Co238 O241 1.970 . S
Co238 N255 1.989 . S
Co238 O263 1.967 . S
Co238 O270 1.920 1_556 S
Co239 O242 1.966 . S
Co239 N248 2.022 . S
Co239 N256 1.993 . S
Co239 O264 1.941 . S
C240 O241 1.258 . S
C240 O242 1.263 . S
O241 Co238 1.970 . S
O241 C240 1.258 . S
O242 Co239 1.966 . S
O242 C240 1.263 . S
C243 O244 1.235 . S
C243 O270 1.289 . S
O244 C243 1.235 . S
C245 C247 1.400 . S
C245 N248 1.351 . S
C245 C250 1.501 . S
C246 C247 1.387 . S
C246 N249 1.341 . S
C247 C245 1.400 . S
C247 C246 1.387 . S
N248 Co239 2.022 . S
N248 C245 1.351 . S
N248 N249 1.365 . S
N249 C246 1.341 . S
N249 N248 1.365 . S
N249 H269 0.862 . S
C250 C245 1.501 . S
C250 H251 0.961 . S
C250 H252 0.961 . S
C250 H253 0.960 . S
H251 C250 0.961 . S
H252 C250 0.961 . S
H253 C250 0.960 . S
C254 N255 1.342 . S
C254 C258 1.401 . S
C254 C259 1.499 1_556 S
N255 Co238 1.989 . S
N255 C254 1.342 . S
N255 N256 1.388 . S
N256 Co239 1.993 . S
N256 N255 1.388 . S
N256 C257 1.346 . S
C257 N256 1.346 . S
C257 C258 1.396 . S
C257 C267 1.510 . S
C258 C254 1.401 . S
C258 C257 1.396 . S
C259 C254 1.499 1_554 S
C259 H260 0.959 . S
C259 H261 0.960 . S
C259 H262 0.961 . S
H260 C259 0.959 . S
H261 C259 0.960 . S
H262 C259 0.961 . S
O263 Co238 1.967 . S
O263 C271 1.258 . S
O264 Co239 1.941 . S
O264 C271 1.266 . S
H265 C267 0.959 . S
H266 C267 0.961 . S
C267 C257 1.510 . S
C267 H265 0.959 . S
C267 H266 0.961 . S
C267 H268 0.960 . S
H268 C267 0.960 . S
H269 N249 0.862 . S
O270 Co238 1.920 1_554 S
O270 C243 1.289 . S
C271 O263 1.258 . S
C271 O264 1.266 . S
Co272 O275 1.970 . S
Co272 N289 1.989 . S
Co272 O297 1.967 . S
Co272 O304 1.920 . S
Co273 O276 1.966 . S
Co273 N282 2.022 . S
Co273 N290 1.993 . S
Co273 O298 1.941 1_556 S
C274 O275 1.258 . S
C274 O276 1.263 1_554 S
O275 Co272 1.970 . S
O275 C274 1.258 . S
O276 Co273 1.966 . S
O276 C274 1.263 1_556 S
C277 O278 1.235 . S
C277 O304 1.289 . S
O278 C277 1.235 . S
C279 C281 1.400 . S
C279 N282 1.351 . S
C279 C284 1.501 . S
C280 C281 1.387 . S
C280 N283 1.341 . S
C281 C279 1.400 . S
C281 C280 1.387 . S
N282 Co273 2.022 . S
N282 C279 1.351 . S
N282 N283 1.365 . S
N283 C280 1.341 . S
N283 N282 1.365 . S
N283 H303 0.862 . S
C284 C279 1.501 . S
C284 H285 0.961 . S
C284 H286 0.961 . S
C284 H287 0.960 . S
H285 C284 0.961 . S
H286 C284 0.961 . S
H287 C284 0.960 . S
C288 N289 1.342 . S
C288 C292 1.401 . S
C288 C293 1.499 . S
N289 Co272 1.989 . S
N289 C288 1.342 . S
N289 N290 1.388 1_554 S
N290 Co273 1.993 . S
N290 N289 1.388 1_556 S
N290 C291 1.346 . S
C291 N290 1.346 . S
C291 C292 1.396 1_556 S
C291 C301 1.510 . S
C292 C288 1.401 . S
C292 C291 1.396 1_554 S
C293 C288 1.499 . S
C293 H294 0.959 . S
C293 H295 0.960 . S
C293 H296 0.961 . S
H294 C293 0.959 . S
H295 C293 0.960 . S
H296 C293 0.961 . S
O297 Co272 1.967 . S
O297 C305 1.258 . S
O298 Co273 1.941 1_554 S
O298 C305 1.266 . S
H299 C301 0.959 . S
H300 C301 0.961 . S
C301 C291 1.510 . S
C301 H299 0.959 . S
C301 H300 0.961 . S
C301 H302 0.960 . S
H302 C301 0.960 . S
H303 N283 0.862 . S
O304 Co272 1.920 . S
O304 C277 1.289 . S
C305 O297 1.258 . S
C305 O298 1.266 . S
Co306 O309 1.970 . S
Co306 N323 1.989 . S
Co306 O331 1.967 . S
Co306 O338 1.920 . S
Co307 O310 1.966 . S
Co307 N316 2.022 1_554 S
Co307 N324 1.993 . S
Co307 O332 1.941 . S
C308 O309 1.258 . S
C308 O310 1.263 . S
O309 Co306 1.970 . S
O309 C308 1.258 . S
O310 Co307 1.966 . S
O310 C308 1.263 . S
C311 O312 1.235 . S
C311 O338 1.289 . S
O312 C311 1.235 . S
C313 C315 1.400 . S
C313 N316 1.351 . S
C313 C318 1.501 . S
C314 C315 1.387 . S
C314 N317 1.341 . S
C315 C313 1.400 . S
C315 C314 1.387 . S
N316 Co307 2.022 1_556 S
N316 C313 1.351 . S
N316 N317 1.365 . S
N317 C314 1.341 . S
N317 N316 1.365 . S
N317 H337 0.862 . S
C318 C313 1.501 . S
C318 H319 0.961 . S
C318 H320 0.961 . S
C318 H321 0.960 . S
H319 C318 0.961 . S
H320 C318 0.961 . S
H321 C318 0.960 . S
C322 N323 1.342 . S
C322 C326 1.401 . S
C322 C327 1.499 . S
N323 Co306 1.989 . S
N323 C322 1.342 . S
N323 N324 1.388 . S
N324 Co307 1.993 . S
N324 N323 1.388 . S
N324 C325 1.346 . S
C325 N324 1.346 . S
C325 C326 1.396 . S
C325 C335 1.510 . S
C326 C322 1.401 . S
C326 C325 1.396 . S
C327 C322 1.499 . S
C327 H328 0.959 . S
C327 H329 0.960 . S
C327 H330 0.961 . S
H328 C327 0.959 . S
H329 C327 0.960 . S
H330 C327 0.961 . S
O331 Co306 1.967 . S
O331 C339 1.258 . S
O332 Co307 1.941 . S
O332 C339 1.266 . S
H333 C335 0.959 1_556 S
H334 C335 0.961 1_556 S
C335 C325 1.510 . S
C335 H333 0.959 1_554 S
C335 H334 0.961 1_554 S
C335 H336 0.960 1_554 S
H336 C335 0.960 1_556 S
H337 N317 0.862 . S
O338 Co306 1.920 . S
O338 C311 1.289 . S
C339 O331 1.258 . S
C339 O332 1.266 . S
Co340 O343 1.970 . S
Co340 N357 1.989 . S
Co340 O365 1.967 . S
Co340 O372 1.920 . S
Co341 O344 1.966 . S
Co341 N350 2.022 . S
Co341 N358 1.993 . S
Co341 O366 1.941 . S
C342 O343 1.258 . S
C342 O344 1.263 . S
O343 Co340 1.970 . S
O343 C342 1.258 . S
O344 Co341 1.966 . S
O344 C342 1.263 . S
C345 O346 1.235 . S
C345 O372 1.289 . S
O346 C345 1.235 . S
C347 C349 1.400 1_554 S
C347 N350 1.351 . S
C347 C352 1.501 . S
C348 C349 1.387 1_554 S
C348 N351 1.341 . S
C349 C347 1.400 1_556 S
C349 C348 1.387 1_556 S
N350 Co341 2.022 . S
N350 C347 1.351 . S
N350 N351 1.365 . S
N351 C348 1.341 . S
N351 N350 1.365 . S
N351 H371 0.862 . S
C352 C347 1.501 . S
C352 H353 0.961 . S
C352 H354 0.961 . S
C352 H355 0.960 . S
H353 C352 0.961 . S
H354 C352 0.961 . S
H355 C352 0.960 . S
C356 N357 1.342 . S
C356 C360 1.401 . S
C356 C361 1.499 . S
N357 Co340 1.989 . S
N357 C356 1.342 . S
N357 N358 1.388 . S
N358 Co341 1.993 . S
N358 N357 1.388 . S
N358 C359 1.346 . S
C359 N358 1.346 . S
C359 C360 1.396 . S
C359 C369 1.510 . S
C360 C356 1.401 . S
C360 C359 1.396 . S
C361 C356 1.499 . S
C361 H362 0.959 . S
C361 H363 0.960 . S
C361 H364 0.961 . S
H362 C361 0.959 . S
H363 C361 0.960 . S
H364 C361 0.961 . S
O365 Co340 1.967 . S
O365 C373 1.258 . S
O366 Co341 1.941 . S
O366 C373 1.266 . S
H367 C369 0.959 . S
H368 C369 0.961 . S
C369 C359 1.510 . S
C369 H367 0.959 . S
C369 H368 0.961 . S
C369 H370 0.960 . S
H370 C369 0.960 . S
H371 N351 0.862 . S
O372 Co340 1.920 . S
O372 C345 1.289 . S
C373 O365 1.258 . S
C373 O366 1.266 . S
Co374 O377 1.970 . S
Co374 N391 1.989 . S
Co374 O399 1.967 . S
Co374 O406 1.920 . S
Co375 O378 1.966 . S
Co375 N384 2.022 . S
Co375 N392 1.993 . S
Co375 O400 1.941 . S
C376 O377 1.258 . S
C376 O378 1.263 . S
O377 Co374 1.970 . S
O377 C376 1.258 . S
O378 Co375 1.966 . S
O378 C376 1.263 . S
C379 O380 1.235 . S
C379 O406 1.289 . S
O380 C379 1.235 . S
C381 C383 1.400 . S
C381 N384 1.351 . S
C381 C386 1.501 . S
C382 C383 1.387 . S
C382 N385 1.341 . S
C383 C381 1.400 . S
C383 C382 1.387 . S
N384 Co375 2.022 . S
N384 C381 1.351 . S
N384 N385 1.365 . S
N385 C382 1.341 . S
N385 N384 1.365 . S
N385 H405 0.862 . S
C386 C381 1.501 . S
C386 H387 0.961 . S
C386 H388 0.961 . S
C386 H389 0.960 . S
H387 C386 0.961 . S
H388 C386 0.961 . S
H389 C386 0.960 . S
C390 N391 1.342 . S
C390 C394 1.401 . S
C390 C395 1.499 . S
N391 Co374 1.989 . S
N391 C390 1.342 . S
N391 N392 1.388 . S
N392 Co375 1.993 . S
N392 N391 1.388 . S
N392 C393 1.346 . S
C393 N392 1.346 . S
C393 C394 1.396 . S
C393 C403 1.510 . S
C394 C390 1.401 . S
C394 C393 1.396 . S
C395 C390 1.499 . S
C395 H396 0.959 . S
C395 H397 0.960 . S
C395 H398 0.961 . S
H396 C395 0.959 . S
H397 C395 0.960 . S
H398 C395 0.961 . S
O399 Co374 1.967 . S
O399 C407 1.258 . S
O400 Co375 1.941 . S
O400 C407 1.266 . S
H401 C403 0.959 . S
H402 C403 0.961 . S
C403 C393 1.510 . S
C403 H401 0.959 . S
C403 H402 0.961 . S
C403 H404 0.960 . S
H404 C403 0.960 . S
H405 N385 0.862 . S
O406 Co374 1.920 . S
O406 C379 1.289 . S
C407 O399 1.258 . S
C407 O400 1.266 . S
C408 C409 1.387 . S
C408 H412 0.950 . S
C408 C417 1.390 . S
C409 C408 1.387 . S
C409 C411 1.387 . S
H410 C417 0.950 . S
C411 C409 1.387 . S
C411 C413 1.390 . S
C411 H415 0.950 . S
H412 C408 0.950 . S
C413 C411 1.390 . S
C413 C414 1.387 . S
C413 H416 0.950 . S
C414 C413 1.387 . S
C414 C417 1.387 . S
H415 C411 0.950 . S
H416 C413 0.950 . S
C417 C408 1.390 . S
C417 H410 0.950 . S
C417 C414 1.387 . S
C418 C419 1.387 . S
C418 H422 0.950 . S
C418 C427 1.390 . S
C419 C418 1.387 . S
C419 C421 1.387 . S
H420 C427 0.950 . S
C421 C419 1.387 . S
C421 C423 1.390 . S
C421 H425 0.950 . S
H422 C418 0.950 . S
C423 C421 1.390 . S
C423 C424 1.387 . S
C423 H426 0.950 . S
C424 C423 1.387 . S
C424 C427 1.387 . S
H425 C421 0.950 . S
H426 C423 0.950 . S
C427 C418 1.390 . S
C427 H420 0.950 . S
C427 C424 1.387 . S
C428 C429 1.387 . S
C428 H432 0.950 . S
C428 C437 1.390 1_554 S
C429 C428 1.387 . S
C429 C431 1.387 . S
H430 C437 0.950 . S
C431 C429 1.387 . S
C431 C433 1.390 1_554 S
C431 H435 0.950 . S
H432 C428 0.950 . S
C433 C431 1.390 1_556 S
C433 C434 1.387 . S
C433 H436 0.950 . S
C434 C433 1.387 . S
C434 C437 1.387 . S
H435 C431 0.950 . S
H436 C433 0.950 . S
C437 C428 1.390 1_556 S
C437 H430 0.950 . S
C437 C434 1.387 . S
C438 C439 1.387 . S
C438 H442 0.950 . S
C438 C447 1.390 . S
C439 C438 1.387 . S
C439 C441 1.387 . S
H440 C447 0.950 . S
C441 C439 1.387 . S
C441 C443 1.390 . S
C441 H445 0.950 . S
H442 C438 0.950 . S
C443 C441 1.390 . S
C443 C444 1.387 . S
C443 H446 0.950 . S
C444 C443 1.387 . S
C444 C447 1.387 . S
H445 C441 0.950 . S
H446 C443 0.950 . S
C447 C438 1.390 . S
C447 H440 0.950 . S
C447 C444 1.387 . S
C448 C449 1.387 . S
C448 H452 0.950 . S
C448 C457 1.390 . S
C449 C448 1.387 . S
C449 C451 1.387 . S
H450 C457 0.950 . S
C451 C449 1.387 . S
C451 C453 1.390 . S
C451 H455 0.950 . S
H452 C448 0.950 . S
C453 C451 1.390 . S
C453 C454 1.387 . S
C453 H456 0.950 . S
C454 C453 1.387 . S
C454 C457 1.387 . S
H455 C451 0.950 . S
H456 C453 0.950 . S
C457 C448 1.390 . S
C457 H450 0.950 . S
C457 C454 1.387 . S
C458 C459 1.387 . S
C458 H462 0.950 . S
C458 C467 1.390 . S
C459 C458 1.387 . S
C459 C461 1.387 . S
H460 C467 0.950 . S
C461 C459 1.387 . S
C461 C463 1.390 . S
C461 H465 0.950 . S
H462 C458 0.950 . S
C463 C461 1.390 . S
C463 C464 1.387 . S
C463 H466 0.950 . S
C464 C463 1.387 . S
C464 C467 1.387 . S
H465 C461 0.950 . S
H466 C463 0.950 . S
C467 C458 1.390 . S
C467 H460 0.950 . S
C467 C464 1.387 . S
C468 C469 1.387 . S
C468 H472 0.950 . S
C468 C477 1.390 . S
C469 C468 1.387 . S
C469 C471 1.387 . S
H470 C477 0.950 . S
C471 C469 1.387 . S
C471 C473 1.390 . S
C471 H475 0.950 . S
H472 C468 0.950 . S
C473 C471 1.390 . S
C473 C474 1.387 . S
C473 H476 0.950 . S
C474 C473 1.387 . S
C474 C477 1.387 . S
H475 C471 0.950 . S
H476 C473 0.950 . S
C477 C468 1.390 . S
C477 H470 0.950 . S
C477 C474 1.387 . S
C478 C479 1.387 . S
C478 H482 0.950 . S
C478 C487 1.390 . S
C479 C478 1.387 . S
C479 C481 1.387 . S
H480 C487 0.950 . S
C481 C479 1.387 . S
C481 C483 1.390 . S
C481 H485 0.950 . S
H482 C478 0.950 . S
C483 C481 1.390 . S
C483 C484 1.387 . S
C483 H486 0.950 . S
C484 C483 1.387 . S
C484 C487 1.387 . S
H485 C481 0.950 . S
H486 C483 0.950 . S
C487 C478 1.390 . S
C487 H480 0.950 . S
C487 C484 1.387 . S
C488 C489 1.387 . S
C488 H492 0.950 . S
C488 C497 1.390 . S
C489 C488 1.387 . S
C489 C491 1.387 . S
H490 C497 0.950 . S
C491 C489 1.387 . S
C491 C493 1.390 . S
C491 H495 0.950 . S
H492 C488 0.950 . S
C493 C491 1.390 . S
C493 C494 1.387 . S
C493 H496 0.950 . S
C494 C493 1.387 . S
C494 C497 1.387 . S
H495 C491 0.950 . S
H496 C493 0.950 . S
C497 C488 1.390 . S
C497 H490 0.950 . S
C497 C494 1.387 . S
C498 C499 1.387 . S
C498 H502 0.950 . S
C498 C507 1.390 . S
C499 C498 1.387 . S
C499 C501 1.387 . S
H500 C507 0.950 . S
C501 C499 1.387 . S
C501 C503 1.390 . S
C501 H505 0.950 . S
H502 C498 0.950 . S
C503 C501 1.390 . S
C503 C504 1.387 . S
C503 H506 0.950 . S
C504 C503 1.387 . S
C504 C507 1.387 . S
H505 C501 0.950 . S
H506 C503 0.950 . S
C507 C498 1.390 . S
C507 H500 0.950 . S
C507 C504 1.387 . S
C508 C509 1.387 . S
C508 H512 0.950 . S
C508 C517 1.390 . S
C509 C508 1.387 . S
C509 C511 1.387 . S
H510 C517 0.950 . S
C511 C509 1.387 . S
C511 C513 1.390 . S
C511 H515 0.950 . S
H512 C508 0.950 . S
C513 C511 1.390 . S
C513 C514 1.387 . S
C513 H516 0.950 . S
C514 C513 1.387 . S
C514 C517 1.387 . S
H515 C511 0.950 . S
H516 C513 0.950 . S
C517 C508 1.390 . S
C517 H510 0.950 . S
C517 C514 1.387 . S
C518 C519 1.387 . S
C518 H522 0.950 . S
C518 C527 1.390 1_556 S
C519 C518 1.387 . S
C519 C521 1.387 . S
H520 C527 0.950 . S
C521 C519 1.387 . S
C521 C523 1.390 1_556 S
C521 H525 0.950 . S
H522 C518 0.950 . S
C523 C521 1.390 1_554 S
C523 C524 1.387 . S
C523 H526 0.950 . S
C524 C523 1.387 . S
C524 C527 1.387 . S
H525 C521 0.950 . S
H526 C523 0.950 . S
C527 C518 1.390 1_554 S
C527 H520 0.950 . S
C527 C524 1.387 . S
C528 C529 1.387 . S
C528 H532 0.950 . S
C528 C537 1.390 . S
C529 C528 1.387 . S
C529 C531 1.387 . S
H530 C537 0.950 . S
C531 C529 1.387 . S
C531 C533 1.390 . S
C531 H535 0.950 . S
H532 C528 0.950 . S
C533 C531 1.390 . S
C533 C534 1.387 1_556 S
C533 H536 0.950 1_556 S
C534 C533 1.387 1_554 S
C534 C537 1.387 1_554 S
H535 C531 0.950 . S
H536 C533 0.950 1_554 S
C537 C528 1.390 . S
C537 H530 0.950 . S
C537 C534 1.387 1_556 S
C538 C539 1.387 . S
C538 H542 0.950 . S
C538 C547 1.390 . S
C539 C538 1.387 . S
C539 C541 1.387 . S
H540 C547 0.950 1_556 S
C541 C539 1.387 . S
C541 C543 1.390 . S
C541 H545 0.950 . S
H542 C538 0.950 . S
C543 C541 1.390 . S
C543 C544 1.387 . S
C543 H546 0.950 . S
C544 C543 1.387 . S
C544 C547 1.387 . S
H545 C541 0.950 . S
H546 C543 0.950 . S
C547 C538 1.390 . S
C547 H540 0.950 1_554 S
C547 C544 1.387 . S
C548 C549 1.387 . S
C548 H552 0.950 . S
C548 C557 1.390 . S
C549 C548 1.387 . S
C549 C551 1.387 . S
H550 C557 0.950 . S
C551 C549 1.387 . S
C551 C553 1.390 . S
C551 H555 0.950 . S
H552 C548 0.950 . S
C553 C551 1.390 . S
C553 C554 1.387 . S
C553 H556 0.950 . S
C554 C553 1.387 . S
C554 C557 1.387 . S
H555 C551 0.950 . S
H556 C553 0.950 . S
C557 C548 1.390 . S
C557 H550 0.950 . S
C557 C554 1.387 . S
C558 C559 1.387 . S
C558 H562 0.950 . S
C558 C567 1.390 . S
C559 C558 1.387 . S
C559 C561 1.387 . S
H560 C567 0.950 . S
C561 C559 1.387 . S
C561 C563 1.390 . S
C561 H565 0.950 . S
H562 C558 0.950 . S
C563 C561 1.390 . S
C563 C564 1.387 . S
C563 H566 0.950 . S
C564 C563 1.387 . S
C564 C567 1.387 . S
H565 C561 0.950 . S
H566 C563 0.950 . S
C567 C558 1.390 . S
C567 H560 0.950 . S
C567 C564 1.387 . S
C568 C569 1.387 . S
C568 H572 0.950 . S
C568 C577 1.390 . S
C569 C568 1.387 . S
C569 C571 1.387 . S
H570 C577 0.950 . S
C571 C569 1.387 . S
C571 C573 1.390 . S
C571 H575 0.950 . S
H572 C568 0.950 . S
C573 C571 1.390 . S
C573 C574 1.387 . S
C573 H576 0.950 . S
C574 C573 1.387 . S
C574 C577 1.387 . S
H575 C571 0.950 . S
H576 C573 0.950 . S
C577 C568 1.390 . S
C577 H570 0.950 . S
C577 C574 1.387 . S
C578 C579 1.387 . S
C578 H582 0.950 . S
C578 C587 1.390 . S
C579 C578 1.387 . S
C579 C581 1.387 . S
H580 C587 0.950 . S
C581 C579 1.387 . S
C581 C583 1.390 . S
C581 H585 0.950 . S
H582 C578 0.950 . S
C583 C581 1.390 . S
C583 C584 1.387 . S
C583 H586 0.950 . S
C584 C583 1.387 . S
C584 C587 1.387 . S
H585 C581 0.950 . S
H586 C583 0.950 . S
C587 C578 1.390 . S
C587 H580 0.950 . S
C587 C584 1.387 . S
C588 C589 1.387 . S
C588 H592 0.950 . S
C588 C597 1.390 . S
C589 C588 1.387 . S
C589 C591 1.387 . S
H590 C597 0.950 . S
C591 C589 1.387 . S
C591 C593 1.390 . S
C591 H595 0.950 . S
H592 C588 0.950 . S
C593 C591 1.390 . S
C593 C594 1.387 . S
C593 H596 0.950 . S
C594 C593 1.387 . S
C594 C597 1.387 . S
H595 C591 0.950 . S
H596 C593 0.950 . S
C597 C588 1.390 . S
C597 H590 0.950 . S
C597 C594 1.387 . S
C598 C599 1.387 . S
C598 H602 0.950 . S
C598 C607 1.390 . S
C599 C598 1.387 . S
C599 C601 1.387 . S
H600 C607 0.950 . S
C601 C599 1.387 . S
C601 C603 1.390 . S
C601 H605 0.950 . S
H602 C598 0.950 . S
C603 C601 1.390 . S
C603 C604 1.387 . S
C603 H606 0.950 . S
C604 C603 1.387 . S
C604 C607 1.387 . S
H605 C601 0.950 . S
H606 C603 0.950 . S
C607 C598 1.390 . S
C607 H600 0.950 . S
C607 C604 1.387 . S
C608 C609 1.387 . S
C608 H612 0.950 . S
C608 C617 1.390 . S
C609 C608 1.387 . S
C609 C611 1.387 . S
H610 C617 0.950 . S
C611 C609 1.387 . S
C611 C613 1.390 . S
C611 H615 0.950 . S
H612 C608 0.950 . S
C613 C611 1.390 . S
C613 C614 1.387 . S
C613 H616 0.950 . S
C614 C613 1.387 . S
C614 C617 1.387 . S
H615 C611 0.950 . S
H616 C613 0.950 . S
C617 C608 1.390 . S
C617 H610 0.950 . S
C617 C614 1.387 . S
C618 C619 1.387 . S
C618 H622 0.950 . S
C618 C627 1.390 . S
C619 C618 1.387 . S
C619 C621 1.387 . S
H620 C627 0.950 . S
C621 C619 1.387 . S
C621 C623 1.390 . S
C621 H625 0.950 . S
H622 C618 0.950 . S
C623 C621 1.390 . S
C623 C624 1.387 . S
C623 H626 0.950 . S
C624 C623 1.387 . S
C624 C627 1.387 . S
H625 C621 0.950 . S
H626 C623 0.950 . S
C627 C618 1.390 . S
C627 H620 0.950 . S
C627 C624 1.387 . S
C628 C629 1.387 1_554 S
C628 H632 0.950 . S
C628 C637 1.390 1_554 S
C629 C628 1.387 1_556 S
C629 C631 1.387 . S
H630 C637 0.950 . S
C631 C629 1.387 . S
C631 C633 1.390 . S
C631 H635 0.950 . S
H632 C628 0.950 . S
C633 C631 1.390 . S
C633 C634 1.387 . S
C633 H636 0.950 . S
C634 C633 1.387 . S
C634 C637 1.387 . S
H635 C631 0.950 . S
H636 C633 0.950 . S
C637 C628 1.390 1_556 S
C637 H630 0.950 . S
C637 C634 1.387 . S
C638 C639 1.387 . S
C638 H642 0.950 . S
C638 C647 1.390 . S
C639 C638 1.387 . S
C639 C641 1.387 . S
H640 C647 0.950 1_556 S
C641 C639 1.387 . S
C641 C643 1.390 . S
C641 H645 0.950 . S
H642 C638 0.950 . S
C643 C641 1.390 . S
C643 C644 1.387 . S
C643 H646 0.950 . S
C644 C643 1.387 . S
C644 C647 1.387 . S
H645 C641 0.950 . S
H646 C643 0.950 . S
C647 C638 1.390 . S
C647 H640 0.950 1_554 S
C647 C644 1.387 . S
C648 C649 1.387 . S
C648 H652 0.950 . S
C648 C657 1.390 . S
C649 C648 1.387 . S
C649 C651 1.387 . S
H650 C657 0.950 . S
C651 C649 1.387 . S
C651 C653 1.390 . S
C651 H655 0.950 . S
H652 C648 0.950 . S
C653 C651 1.390 . S
C653 C654 1.387 . S
C653 H656 0.950 . S
C654 C653 1.387 . S
C654 C657 1.387 . S
H655 C651 0.950 . S
H656 C653 0.950 . S
C657 C648 1.390 . S
C657 H650 0.950 . S
C657 C654 1.387 . S
C658 C659 1.387 . S
C658 H662 0.950 . S
C658 C667 1.390 1_655 S
C659 C658 1.387 . S
C659 C661 1.387 . S
H660 C667 0.950 . S
C661 C659 1.387 . S
C661 C663 1.390 1_655 S
C661 H665 0.950 . S
H662 C658 0.950 . S
C663 C661 1.390 1_455 S
C663 C664 1.387 . S
C663 H666 0.950 . S
C664 C663 1.387 . S
C664 C667 1.387 . S
H665 C661 0.950 . S
H666 C663 0.950 . S
C667 C658 1.390 1_455 S
C667 H660 0.950 . S
C667 C664 1.387 . S
C668 C669 1.387 . S
C668 H672 0.950 . S
C668 C677 1.390 1_545 S
C669 C668 1.387 . S
C669 C671 1.387 . S
H670 C677 0.950 . S
C671 C669 1.387 . S
C671 C673 1.390 1_545 S
C671 H675 0.950 . S
H672 C668 0.950 . S
C673 C671 1.390 1_565 S
C673 C674 1.387 . S
C673 H676 0.950 . S
C674 C673 1.387 . S
C674 C677 1.387 . S
H675 C671 0.950 . S
H676 C673 0.950 . S
C677 C668 1.390 1_565 S
C677 H670 0.950 . S
C677 C674 1.387 . S
C678 C679 1.387 . S
C678 H682 0.950 . S
C678 C687 1.390 . S
C679 C678 1.387 . S
C679 C681 1.387 . S
H680 C687 0.950 . S
C681 C679 1.387 . S
C681 C683 1.390 . S
C681 H685 0.950 . S
H682 C678 0.950 . S
C683 C681 1.390 . S
C683 C684 1.387 . S
C683 H686 0.950 . S
C684 C683 1.387 . S
C684 C687 1.387 . S
H685 C681 0.950 . S
H686 C683 0.950 . S
C687 C678 1.390 . S
C687 H680 0.950 . S
C687 C684 1.387 . S
C688 C689 1.387 . S
C688 H692 0.950 . S
C688 C697 1.390 1_455 S
C689 C688 1.387 . S
C689 C691 1.387 . S
H690 C697 0.950 . S
C691 C689 1.387 . S
C691 C693 1.390 1_455 S
C691 H695 0.950 . S
H692 C688 0.950 . S
C693 C691 1.390 1_655 S
C693 C694 1.387 . S
C693 H696 0.950 . S
C694 C693 1.387 . S
C694 C697 1.387 . S
H695 C691 0.950 . S
H696 C693 0.950 . S
C697 C688 1.390 1_655 S
C697 H690 0.950 . S
C697 C694 1.387 . S
C698 C699 1.387 . S
C698 H702 0.950 . S
C698 C707 1.390 1_546 S
C699 C698 1.387 . S
C699 C701 1.387 . S
H700 C707 0.950 . S
C701 C699 1.387 . S
C701 C703 1.390 1_546 S
C701 H705 0.950 . S
H702 C698 0.950 . S
C703 C701 1.390 1_564 S
C703 C704 1.387 . S
C703 H706 0.950 . S
C704 C703 1.387 . S
C704 C707 1.387 . S
H705 C701 0.950 . S
H706 C703 0.950 . S
C707 C698 1.390 1_564 S
C707 H700 0.950 . S
C707 C704 1.387 . S
C409 C9 1.363 . S
C414 C5 1.323 . S
C419 C39 1.321 1_556 S
C424 C43 1.362 . S
C429 C73 1.323 . S
C434 C77 1.363 . S
C439 C111 1.362 . S
C444 C107 1.320 . S
C449 C145 1.363 . S
C454 C141 1.321 . S
C459 C175 1.319 . S
C464 C179 1.362 . S
C469 C213 1.362 . S
C474 C209 1.320 1_554 S
C479 C247 1.363 . S
C484 C243 1.323 . S
C489 C277 1.319 . S
C494 C281 1.362 . S
C499 C315 1.363 . S
C504 C311 1.320 . S
C509 C349 1.362 . S
C514 C345 1.321 . S
C519 C379 1.323 . S
C524 C383 1.363 . S
C529 C237 1.701 . S
C534 C33 1.701 . S
C539 C67 1.701 . S
C544 C271 1.702 1_554 S
C549 C305 1.701 . S
C554 C101 1.701 . S
C559 C339 1.702 . S
C564 C135 1.702 . S
C569 C373 1.701 . S
C574 C169 1.701 . S
C579 C407 1.701 . S
C584 C203 1.701 . S
C589 C20 1.620 . S
C594 C360 1.620 . S
C599 C54 1.622 . S
C604 C394 1.621 . S
C609 C88 1.621 . S
C614 C224 1.621 . S
C619 C258 1.623 . S
C624 C122 1.623 . S
C629 C292 1.622 1_556 S
C634 C156 1.622 . S
C639 C326 1.622 . S
C644 C190 1.618 1_554 S
C649 C2 1.580 . S
C654 C308 1.580 . S
C659 C36 1.580 . S
C664 C342 1.580 . S
C669 C376 1.579 . S
C674 C70 1.579 . S
C679 C104 1.580 . S
C684 C206 1.580 . S
C689 C138 1.580 . S
C694 C240 1.580 . S
C699 C172 1.580 . S
C704 C274 1.580 . S
