# Generated by pormake.
# Topology kag, (6)-cn, num edge types: 1
# Building blocks:
#     Node 0, Type 0, BuildingBlock: UKALOJ_clean_sbu_0, # of connection points: 6
#     Node 1, Type 0, BuildingBlock: UKALOJ_clean_sbu_0, # of connection points: 6
#     Node 2, Type 0, BuildingBlock: UKALOJ_clean_sbu_0, # of connection points: 6
#     Edge 3, Type (0, 0), BuildingBlock: KIFKEQ_clean_linker_1, # of connection points: 2
#     Edge 4, Type (0, 0), BuildingBlock: KIFKEQ_clean_linker_1, # of connection points: 2
#     Edge 5, Type (0, 0), BuildingBlock: KIFKEQ_clean_linker_1, # of connection points: 2
#     Edge 6, Type (0, 0), BuildingBlock: KIFKEQ_clean_linker_1, # of connection points: 2
#     Edge 7, Type (0, 0), BuildingBlock: KIFKEQ_clean_linker_1, # of connection points: 2
#     Edge 8, Type (0, 0), BuildingBlock: KIFKEQ_clean_linker_1, # of connection points: 2
#     Edge 9, Type (0, 0), BuildingBlock: KIFKEQ_clean_linker_1, # of connection points: 2
#     Edge 10, Type (0, 0), BuildingBlock: KIFKEQ_clean_linker_1, # of connection points: 2
#     Edge 11, Type (0, 0), BuildingBlock: KIFKEQ_clean_linker_1, # of connection points: 2
# Relax obj value: 0.125
# Max RMSD: 0.168
# Mean RMSD: 0.168
data_MOF--net-kag--node1-UKALOJ_clean_sbu_0--edge1-KIFKEQ_clean_linker_1
_symmetry_space_group_name_H-M    P1
_symmetry_Int_Tables_number       1
_symmetry_cell_setting            triclinic
loop_
_symmetry_equiv_pos_as_xyz
'x, y, z'
_cell_length_a     29.648709
_cell_length_b     29.699267
_cell_length_c     20.447767
_cell_angle_alpha  89.611652
_cell_angle_beta   90.199117
_cell_angle_gamma 119.77606
loop_
_atom_site_label
_atom_site_type_symbol
_atom_site_fract_x
_atom_site_fract_y
_atom_site_fract_z
_atom_type_partial_charge
Zn0 Zn -0.01175 0.46148 0.96312 0.0
O1 O 0.04463 0.539 0.95301 0.0
C2 C 0.06562 0.43047 0.98972 0.0
Zn3 Zn 0.00124 0.4611 0.07076 0.0
C4 C 0.06941 0.56315 1.00369 0.0
O5 O 0.06003 0.53939 0.05831 0.0
C6 C 0.91808 0.36016 0.03022 0.0
O7 O 0.94839 0.48674 0.09169 0.0
O8 O 0.93508 0.4862 0.98573 0.0
N9 N 0.02135 0.46413 0.16723 0.0
C10 C -0.00486 0.4579 0.22343 0.0
C11 C 0.0707 0.47171 0.24922 0.0
N12 N 0.06826 0.47268 0.18347 0.0
N13 N 0.02536 0.46269 0.27538 0.0
C14 C -0.00518 0.46697 0.81031 0.0
C15 C 0.91518 0.43648 0.78489 0.0
N16 N 0.9677 0.45647 0.8666 0.0
N17 N 0.91829 0.43761 0.85058 0.0
N18 N 0.96258 0.45438 0.7581 0.0
H19 H 0.07138 0.51406 0.85169 0.0
H20 H 0.06835 0.51745 0.76377 0.0
H21 H 0.06333 0.46062 0.80328 0.0
C22 C 0.05282 0.49152 0.80709 0.0
C23 C 0.93926 0.44412 0.22729 0.0
H24 H 0.91697 0.41906 0.18575 0.0
H25 H 0.9369 0.48023 0.2249 0.0
H26 H 0.92145 0.42379 0.27391 0.0
O27 O 0.94223 0.38367 0.08159 0.0
O28 O 0.93054 0.38376 0.97552 0.0
C29 C 0.92632 0.49508 0.04363 0.0
O30 O 0.04314 0.43852 0.94183 0.0
O31 O 0.05425 0.43618 0.04775 0.0
Zn32 Zn 0.45922 0.00431 0.96646 0.0
O33 O 0.47979 0.94777 0.94921 0.0
C34 C 0.35285 0.9275 1.00221 0.0
Zn35 Zn 0.45199 -0.00821 0.07443 0.0
C36 C 0.48177 0.92309 0.999 0.0
O37 O 0.47067 0.93311 0.0551 0.0
C38 C 0.43172 0.07468 0.04178 0.0
O39 O 0.53153 0.04421 0.08801 0.0
O40 O 0.53798 0.05736 0.98159 0.0
N41 N 0.44227 0.97066 0.1709 0.0
C42 C 0.45442 -0.00239 0.22723 0.0
C43 C 0.41738 0.91733 0.25242 0.0
N44 N 0.41923 0.92085 0.18676 0.0
N45 N 0.43897 0.96488 0.27932 0.0
C46 C 0.45851 -0.00131 0.81391 0.0
C47 C 0.48019 0.07655 0.78801 0.0
N48 N 0.46706 0.02533 0.87003 0.0
N49 N 0.48063 0.07368 0.85372 0.0
N50 N 0.46663 0.03006 0.76194 0.0
H51 H 0.41424 0.92097 0.85254 0.0
H52 H 0.47331 0.93537 0.811 0.0
H53 H 0.41749 0.92514 0.76422 0.0
C54 C 0.43941 0.94165 0.81017 0.0
C55 C 0.48326 0.05571 0.23059 0.0
H56 H 0.50574 0.0733 0.18547 0.0
H57 H 0.51001 0.0692 0.27314 0.0
H58 H 0.45491 0.06952 0.23589 0.0
O59 O 0.43414 0.0508 0.09219 0.0
O60 O 0.4397 0.06181 0.98576 0.0
C61 C 0.55895 0.06613 0.03779 0.0
O62 O 0.3806 0.94976 0.95232 0.0
O63 O 0.373 0.93899 0.05885 0.0
Zn64 Zn 0.52931 0.54154 0.07361 0.0
O65 O 0.50368 0.46284 0.09075 0.0
C66 C 0.6322 0.56076 0.04095 0.0
Zn67 Zn 0.53377 0.532 0.9659 0.0
C68 C 0.49743 0.4341 0.04203 0.0
O69 O 0.5083 0.45344 0.98477 0.0
C70 C 0.563 0.63901 0.99649 0.0
O71 O 0.45676 0.51172 0.94933 0.0
O72 O 0.45148 0.52223 0.05481 0.0
N73 N 0.54515 0.52173 0.8697 0.0
C74 C 0.52711 0.53041 0.81312 0.0
C75 C 0.58149 0.50604 0.78844 0.0
N76 N 0.57879 0.50646 0.85413 0.0
N77 N 0.54925 0.52069 0.76157 0.0
C78 C 0.52714 0.53428 0.22649 0.0
C79 C 0.50423 0.58963 0.25155 0.0
N80 N 0.52035 0.55403 0.17008 0.0
N81 N 0.50612 0.58834 0.18586 0.0
N82 N 0.51743 0.55624 0.2784 0.0
H83 H 0.50234 0.45401 0.21441 0.0
H84 H 0.54784 0.48286 0.27925 0.0
H85 H 0.5695 0.49685 0.19514 0.0
C86 C 0.53785 0.48993 0.22958 0.0
C87 C 0.49033 0.55119 0.80839 0.0
H88 H 0.49428 0.57549 0.85121 0.0
H89 H 0.44994 0.51813 0.80714 0.0
H90 H 0.49729 0.57437 0.76296 0.0
O91 O 0.55754 0.61031 0.94798 0.0
O92 O 0.5546 0.62004 0.05394 0.0
C93 C 0.43022 0.51034 0.99863 0.0
O94 O 0.60635 0.55973 0.09084 0.0
O95 O 0.61094 0.55142 0.9849 0.0
H96 H 0.91227 0.47436 0.6626 0.0
H97 H 0.03377 0.43702 0.69571 0.0
H98 H 0.92485 0.47407 0.54516 0.0
H99 H 0.05022 0.44188 0.57922 0.0
H100 H 0.03541 0.40183 0.36482 0.0
H101 H 0.01886 0.39869 0.4821 0.0
H102 H 0.9777 0.51875 0.45751 0.0
H103 H -0.00861 0.51884 0.33976 0.0
C104 C 0.9425 0.46723 0.64478 0.0
C105 C 0.97308 0.45738 0.68886 0.0
C106 C 0.95014 0.46756 0.57734 0.0
C107 C -0.01102 0.45847 0.55206 0.0
C108 C 0.01959 0.44862 0.59636 0.0
C109 C 0.01117 0.44726 0.66375 0.0
C110 C 0.02235 0.42703 0.385 0.0
C111 C 0.01401 0.46009 0.34387 0.0
C112 C 0.01336 0.42578 0.45219 0.0
C113 C -0.00286 0.4587 0.47998 0.0
C114 C -0.0109 0.49203 0.4382 0.0
C115 C -0.00294 0.49237 0.37079 0.0
H116 H 0.45418 0.90963 0.37269 0.0
H117 H 0.43133 0.04097 0.34398 0.0
H118 H 0.4583 0.92276 0.49027 0.0
H119 H 0.44073 0.05762 0.46047 0.0
H120 H 0.40748 0.04654 0.67676 0.0
H121 H 0.39919 0.02921 0.55957 0.0
H122 H 0.50897 0.97361 0.57577 0.0
H123 H 0.51404 -0.01177 0.69373 0.0
C124 C 0.45111 0.94201 0.39147 0.0
C125 C 0.44406 0.97518 0.34858 0.0
C126 C 0.45403 0.94995 0.45895 0.0
C127 C 0.45044 -0.00834 0.48543 0.0
C128 C 0.44325 0.02478 0.44235 0.0
C129 C 0.43927 0.01613 0.37494 0.0
C130 C 0.4293 0.03019 0.65478 0.0
C131 C 0.46095 0.01818 0.69358 0.0
C132 C 0.42511 0.02071 0.58763 0.0
C133 C 0.45367 0.00025 0.55753 0.0
C134 C 0.48555 -0.01159 0.59699 0.0
C135 C 0.48876 -0.0031 0.66445 0.0
H136 H 0.46009 0.4788 0.69243 0.0
H137 H 0.626 0.57578 0.6765 0.0
H138 H 0.45134 0.48539 0.57426 0.0
H139 H 0.61795 0.58537 0.55918 0.0
H140 H 0.59634 0.55464 0.34326 0.0
H141 H 0.60216 0.54323 0.4604 0.0
H142 H 0.45538 0.53886 0.48805 0.0
H143 H 0.44799 0.54553 0.36991 0.0
C144 C 0.49451 0.5023 0.66338 0.0
C145 C 0.54363 0.527 0.69294 0.0
C146 C 0.48969 0.50634 0.59579 0.0
C147 C 0.53396 0.53586 0.55656 0.0
C148 C 0.58304 0.56127 0.58704 0.0
C149 C 0.58779 0.55632 0.6543 0.0
C150 C 0.56453 0.54923 0.37433 0.0
C151 C 0.52067 0.54866 0.34744 0.0
C152 C 0.56835 0.54403 0.44179 0.0
C153 C 0.52916 0.53995 0.48432 0.0
C154 C 0.48578 0.54061 0.45714 0.0
C155 C 0.48163 0.54486 0.38952 0.0
H156 H 0.10393 0.3864 0.07339 0.0
H157 H 0.12918 0.45943 0.88332 0.0
H158 H 0.1903 0.39585 0.06954 0.0
H159 H 0.21624 0.47054 0.88036 0.0
H160 H 0.36974 0.47037 0.88967 0.0
H161 H 0.27621 0.43653 0.88046 0.0
H162 H 0.27175 0.4759 0.08258 0.0
H163 H 0.36439 0.50842 0.09223 0.0
C164 C 0.12754 0.40334 0.03012 0.0
C165 C 0.11039 0.42298 0.97914 0.0
C166 C 0.17706 0.40912 0.02812 0.0
C167 C 0.21049 0.4353 0.97554 0.0
C168 C 0.19138 0.45025 0.92158 0.0
C169 C 0.14148 0.44387 0.92323 0.0
C170 C 0.34868 0.47177 0.93206 0.0
C171 C 0.37435 0.49212 0.99168 0.0
C172 C 0.29518 0.45229 0.92677 0.0
C173 C 0.26656 0.45287 0.981 0.0
C174 C 0.29246 0.47359 0.04036 0.0
C175 C 0.34571 0.49286 0.0457 0.0
H176 H 0.61212 0.13206 0.13728 0.0
H177 H 0.63191 0.0756 0.95173 0.0
H178 H 0.70481 0.19566 0.13948 0.0
H179 H 0.7248 0.1364 0.95556 0.0
H180 H 0.85557 0.30391 0.93023 0.0
H181 H 0.77247 0.2256 0.9376 0.0
H182 H 0.7937 0.21788 0.14602 0.0
H183 H 0.8768 0.2986 0.13892 0.0
C184 C 0.63669 0.13265 0.09778 0.0
C185 C 0.61517 0.1002 0.04358 0.0
C186 C 0.68979 0.1686 0.09925 0.0
C187 C 0.72216 0.17167 0.04713 0.0
C188 C 0.70078 0.13615 0.9955 0.0
C189 C 0.64768 0.10131 0.99327 0.0
C190 C 0.84306 0.28522 0.97758 0.0
C191 C 0.8724 0.30781 0.03414 0.0
C192 C 0.79539 0.23983 0.98178 0.0
C193 C 0.77617 0.21544 0.04253 0.0
C194 C 0.80704 0.23624 0.09867 0.0
C195 C 0.85476 0.2822 0.09454 0.0
H196 H 0.47954 0.85677 0.09258 0.0
H197 H 0.52555 0.90464 0.89223 0.0
H198 H 0.51238 0.7968 0.08532 0.0
H199 H 0.55994 0.84514 0.88549 0.0
H200 H 0.53928 0.6767 0.88794 0.0
H201 H 0.52761 0.75226 0.88373 0.0
H202 H 0.59244 0.79511 0.07807 0.0
H203 H 0.60203 0.71835 0.08322 0.0
C204 C 0.49696 0.85467 0.04704 0.0
C205 C 0.49987 0.88529 0.99295 0.0
C206 C 0.51642 0.82075 0.04311 0.0
C207 C 0.53964 0.81693 0.98516 0.0
C208 C 0.54226 0.84728 0.93076 0.0
C209 C 0.52246 0.88117 0.93459 0.0
C210 C 0.55247 0.70315 0.92892 0.0
C211 C 0.57051 0.69129 0.98646 0.0
C212 C 0.54582 0.74648 0.9265 0.0
C213 C 0.55777 0.77875 0.98132 0.0
C214 C 0.58137 0.76994 0.03589 0.0
C215 C 0.58726 0.7263 0.03867 0.0
H216 H 0.92303 0.56872 0.96983 0.0
H217 H 0.85521 0.47244 0.14061 0.0
H218 H 0.86229 0.601 0.97856 0.0
H219 H 0.79153 0.50182 0.14713 0.0
H220 H 0.68643 0.56941 0.15371 0.0
H221 H 0.76735 0.56675 0.16296 0.0
H222 H 0.77443 0.56128 0.95203 0.0
H223 H 0.696 0.56622 0.94297 0.0
C224 C 0.89486 0.5545 1.00924 0.0
C225 C 0.89266 0.5174 0.05373 0.0
C226 C 0.86006 0.57285 1.01426 0.0
C227 C 0.8212 0.55309 0.06256 0.0
C228 C 0.82112 0.51814 0.10955 0.0
C229 C 0.8571 0.50085 0.10556 0.0
C230 C 0.70618 0.56894 0.10947 0.0
C231 C 0.68464 0.56748 0.04765 0.0
C232 C 0.75223 0.567 0.11476 0.0
C233 C 0.77726 0.56346 0.05833 0.0
C234 C 0.75692 0.56487 0.99664 0.0
C235 C 0.71143 0.56719 0.99138 0.0
H236 H 0.13652 0.62399 0.09814 0.0
H237 H 0.08533 0.62878 0.90124 0.0
H238 H 0.19635 0.71678 0.09327 0.0
H239 H 0.14419 0.72226 0.89713 0.0
H240 H 0.31165 0.86789 0.89401 0.0
H241 H 0.2363 0.78118 0.89162 0.0
H242 H 0.19995 0.79933 0.09093 0.0
H243 H 0.27662 0.88535 0.09407 0.0
C244 C 0.13783 0.64497 0.05397 0.0
C245 C 0.10653 0.61913 0.99998 0.0
C246 C 0.17162 0.69828 0.05143 0.0
C247 C 0.1745 0.72698 0.99506 0.0
C248 C 0.143 0.70114 0.94109 0.0
C249 C 0.10941 0.64765 0.94345 0.0
C250 C 0.28671 0.85393 0.93664 0.0
C251 C 0.30042 0.88274 0.99468 0.0
C252 C 0.24346 0.80422 0.93528 0.0
C253 C 0.21301 0.78297 0.9917 0.0
C254 C 0.22369 0.81415 0.04737 0.0
C255 C 0.26726 0.86351 0.04901 0.0
H256 H 0.51776 0.38414 0.13992 0.0
H257 H 0.42698 0.35881 0.96465 0.0
H258 H 0.48858 0.29148 0.14624 0.0
H259 H 0.39456 0.266 0.97316 0.0
H260 H 0.42798 0.13356 0.94254 0.0
H261 H 0.43323 0.21684 0.94991 0.0
H262 H 0.42413 0.20323 0.16093 0.0
H263 H 0.42148 0.11981 0.1534 0.0
C264 C 0.4906 0.35836 0.10371 0.0
C265 C 0.47553 0.37819 0.05088 0.0
C266 C 0.47337 0.30527 0.10761 0.0
C267 C 0.43985 0.27129 0.0595 0.0
C268 C 0.42165 0.29118 1.0098 0.0
C269 C 0.44006 0.34423 1.00489 0.0
C270 C 0.4263 0.14777 0.99062 0.0
C271 C 0.42509 0.12045 0.04745 0.0
C272 C 0.42878 0.19557 0.99489 0.0
C273 C 0.4293 0.21705 0.05611 0.0
C274 C 0.4247 0.18817 0.11305 0.0
C275 C 0.42277 0.14026 0.10876 0.0
loop_
_geom_bond_atom_site_label_1
_geom_bond_atom_site_label_2
_geom_bond_distance
_geom_bond_site_symmetry_2
_ccdc_geom_bond_type
Zn0 O1 2.055 . S
Zn0 O8 2.046 1_455 S
Zn0 N16 2.036 . S
Zn0 O28 2.053 1_455 S
Zn0 O30 2.066 . S
O1 Zn0 2.055 . S
O1 C4 1.259 . S
C2 O30 1.256 . S
C2 O31 1.244 1_556 S
Zn3 O5 2.046 . S
Zn3 O7 2.055 1_455 S
Zn3 N9 2.036 . S
Zn3 O27 2.066 1_455 S
Zn3 O31 2.053 . S
C4 O1 1.259 . S
C4 O5 1.254 1_556 S
O5 Zn3 2.046 . S
O5 C4 1.254 1_554 S
C6 O27 1.256 . S
C6 O28 1.244 1_554 S
O7 Zn3 2.055 1_655 S
O7 C29 1.259 . S
O8 Zn0 2.046 1_655 S
O8 C29 1.254 1_556 S
N9 Zn3 2.036 . S
N9 C10 1.298 1_455 S
N9 N12 1.398 . S
C10 N9 1.298 1_655 S
C10 N13 1.367 1_655 S
C10 C23 1.481 . S
C11 N12 1.299 . S
C11 N13 1.379 . S
N12 N9 1.398 . S
N12 C11 1.299 . S
N13 C10 1.367 1_455 S
N13 C11 1.379 . S
C14 N16 1.298 . S
C14 N18 1.367 . S
C14 C22 1.481 . S
C15 N17 1.299 . S
C15 N18 1.379 1_655 S
N16 Zn0 2.036 . S
N16 C14 1.298 . S
N16 N17 1.398 1_455 S
N17 C15 1.299 . S
N17 N16 1.398 1_655 S
N18 C14 1.367 . S
N18 C15 1.379 1_455 S
H19 C22 0.980 . S
H20 C22 0.981 . S
H21 C22 0.981 . S
C22 C14 1.481 . S
C22 H19 0.980 . S
C22 H20 0.981 . S
C22 H21 0.981 . S
C23 C10 1.481 . S
C23 H24 0.980 . S
C23 H25 0.981 . S
C23 H26 0.981 . S
H24 C23 0.980 . S
H25 C23 0.981 . S
H26 C23 0.981 . S
O27 Zn3 2.066 1_655 S
O27 C6 1.256 . S
O28 Zn0 2.053 1_655 S
O28 C6 1.244 1_556 S
C29 O7 1.259 . S
C29 O8 1.254 1_554 S
O30 Zn0 2.066 . S
O30 C2 1.256 . S
O31 C2 1.244 1_554 S
O31 Zn3 2.053 . S
Zn32 O33 2.055 1_545 S
Zn32 O40 2.046 . S
Zn32 N48 2.036 . S
Zn32 O60 2.053 . S
Zn32 O62 2.066 1_545 S
O33 Zn32 2.055 1_565 S
O33 C36 1.259 . S
C34 O62 1.256 . S
C34 O63 1.244 1_556 S
Zn35 O37 2.046 1_545 S
Zn35 O39 2.055 . S
Zn35 N41 2.036 . S
Zn35 O59 2.066 . S
Zn35 O63 2.053 1_545 S
C36 O33 1.259 . S
C36 O37 1.254 1_556 S
O37 Zn35 2.046 1_565 S
O37 C36 1.254 1_554 S
C38 O59 1.256 . S
C38 O60 1.244 1_554 S
O39 Zn35 2.055 . S
O39 C61 1.259 . S
O40 Zn32 2.046 . S
O40 C61 1.254 1_556 S
N41 Zn35 2.036 . S
N41 C42 1.298 . S
N41 N44 1.398 1_545 S
C42 N41 1.298 . S
C42 N45 1.367 . S
C42 C55 1.481 . S
C43 N44 1.299 . S
C43 N45 1.379 1_565 S
N44 N41 1.398 1_565 S
N44 C43 1.299 . S
N45 C42 1.367 . S
N45 C43 1.379 1_545 S
C46 N48 1.298 1_565 S
C46 N50 1.367 1_565 S
C46 C54 1.481 . S
C47 N49 1.299 . S
C47 N50 1.379 . S
N48 Zn32 2.036 . S
N48 C46 1.298 1_545 S
N48 N49 1.398 . S
N49 C47 1.299 . S
N49 N48 1.398 . S
N50 C46 1.367 1_545 S
N50 C47 1.379 . S
H51 C54 0.980 . S
H52 C54 0.981 . S
H53 C54 0.981 . S
C54 C46 1.481 . S
C54 H51 0.980 . S
C54 H52 0.981 . S
C54 H53 0.981 . S
C55 C42 1.481 . S
C55 H56 0.980 . S
C55 H57 0.981 . S
C55 H58 0.981 . S
H56 C55 0.980 . S
H57 C55 0.981 . S
H58 C55 0.981 . S
O59 Zn35 2.066 . S
O59 C38 1.256 . S
O60 Zn32 2.053 . S
O60 C38 1.244 1_556 S
C61 O39 1.259 . S
C61 O40 1.254 1_554 S
O62 Zn32 2.066 1_565 S
O62 C34 1.256 . S
O63 C34 1.244 1_554 S
O63 Zn35 2.053 1_565 S
Zn64 O65 2.055 . S
Zn64 O72 2.046 . S
Zn64 N80 2.036 . S
Zn64 O92 2.053 . S
Zn64 O94 2.066 . S
O65 Zn64 2.055 . S
O65 C68 1.259 . S
C66 O94 1.256 . S
C66 O95 1.244 1_554 S
Zn67 O69 2.046 . S
Zn67 O71 2.055 . S
Zn67 N73 2.036 . S
Zn67 O91 2.066 . S
Zn67 O95 2.053 . S
C68 O65 1.259 . S
C68 O69 1.254 1_554 S
O69 Zn67 2.046 . S
O69 C68 1.254 1_556 S
C70 O91 1.256 . S
C70 O92 1.244 1_556 S
O71 Zn67 2.055 . S
O71 C93 1.259 . S
O72 Zn64 2.046 . S
O72 C93 1.254 1_554 S
N73 Zn67 2.036 . S
N73 C74 1.298 . S
N73 N76 1.398 . S
C74 N73 1.298 . S
C74 N77 1.367 . S
C74 C87 1.481 . S
C75 N76 1.299 . S
C75 N77 1.379 . S
N76 N73 1.398 . S
N76 C75 1.299 . S
N77 C74 1.367 . S
N77 C75 1.379 . S
C78 N80 1.298 . S
C78 N82 1.367 . S
C78 C86 1.481 . S
C79 N81 1.299 . S
C79 N82 1.379 . S
N80 Zn64 2.036 . S
N80 C78 1.298 . S
N80 N81 1.398 . S
N81 C79 1.299 . S
N81 N80 1.398 . S
N82 C78 1.367 . S
N82 C79 1.379 . S
H83 C86 0.980 . S
H84 C86 0.981 . S
H85 C86 0.981 . S
C86 C78 1.481 . S
C86 H83 0.980 . S
C86 H84 0.981 . S
C86 H85 0.981 . S
C87 C74 1.481 . S
C87 H88 0.980 . S
C87 H89 0.981 . S
C87 H90 0.981 . S
H88 C87 0.980 . S
H89 C87 0.981 . S
H90 C87 0.981 . S
O91 Zn67 2.066 . S
O91 C70 1.256 . S
O92 Zn64 2.053 . S
O92 C70 1.244 1_554 S
C93 O71 1.259 . S
C93 O72 1.254 1_556 S
O94 Zn64 2.066 . S
O94 C66 1.256 . S
O95 C66 1.244 1_556 S
O95 Zn67 2.053 . S
H96 C104 0.950 . S
H97 C109 0.950 . S
H98 C106 0.950 . S
H99 C108 0.950 . S
H100 C110 0.950 . S
H101 C112 0.950 . S
H102 C114 0.950 . S
H103 C115 0.950 . S
C104 H96 0.950 . S
C104 C105 1.386 1_655 S
C104 C106 1.391 . S
C105 C104 1.386 1_455 S
C105 C109 1.393 . S
C106 H98 0.950 . S
C106 C104 1.391 . S
C106 C107 1.400 1_655 S
C107 C106 1.400 1_455 S
C107 C108 1.398 . S
C107 C113 1.491 . S
C108 H99 0.950 . S
C108 C107 1.398 . S
C108 C109 1.391 . S
C109 H97 0.950 . S
C109 C105 1.393 . S
C109 C108 1.391 . S
C110 H100 0.950 . S
C110 C111 1.386 1_455 S
C110 C112 1.391 . S
C111 C110 1.386 1_655 S
C111 C115 1.393 . S
C112 H101 0.950 . S
C112 C110 1.391 . S
C112 C113 1.400 . S
C113 C107 1.491 . S
C113 C112 1.400 . S
C113 C114 1.398 1_455 S
C114 H102 0.950 . S
C114 C113 1.398 1_655 S
C114 C115 1.391 . S
C115 H103 0.950 . S
C115 C111 1.393 . S
C115 C114 1.391 . S
H116 C124 0.950 . S
H117 C129 0.950 . S
H118 C126 0.950 . S
H119 C128 0.950 . S
H120 C130 0.950 . S
H121 C132 0.950 . S
H122 C134 0.950 . S
H123 C135 0.950 . S
C124 H116 0.950 . S
C124 C125 1.386 1_565 S
C124 C126 1.391 . S
C125 C124 1.386 1_545 S
C125 C129 1.393 . S
C126 H118 0.950 . S
C126 C124 1.391 . S
C126 C127 1.400 1_565 S
C127 C126 1.400 1_545 S
C127 C128 1.398 . S
C127 C133 1.491 . S
C128 H119 0.950 . S
C128 C127 1.398 . S
C128 C129 1.391 . S
C129 H117 0.950 . S
C129 C125 1.393 . S
C129 C128 1.391 . S
C130 H120 0.950 . S
C130 C131 1.386 1_545 S
C130 C132 1.391 . S
C131 C130 1.386 1_565 S
C131 C135 1.393 . S
C132 H121 0.950 . S
C132 C130 1.391 . S
C132 C133 1.400 . S
C133 C127 1.491 . S
C133 C132 1.400 . S
C133 C134 1.398 1_545 S
C134 H122 0.950 . S
C134 C133 1.398 1_565 S
C134 C135 1.391 . S
C135 H123 0.950 . S
C135 C131 1.393 . S
C135 C134 1.391 . S
H136 C144 0.950 . S
H137 C149 0.950 . S
H138 C146 0.950 . S
H139 C148 0.950 . S
H140 C150 0.950 . S
H141 C152 0.950 . S
H142 C154 0.950 . S
H143 C155 0.950 . S
C144 H136 0.950 . S
C144 C145 1.386 . S
C144 C146 1.391 . S
C145 C144 1.386 . S
C145 C149 1.393 . S
C146 H138 0.950 . S
C146 C144 1.391 . S
C146 C147 1.400 . S
C147 C146 1.400 . S
C147 C148 1.398 . S
C147 C153 1.491 . S
C148 H139 0.950 . S
C148 C147 1.398 . S
C148 C149 1.391 . S
C149 H137 0.950 . S
C149 C145 1.393 . S
C149 C148 1.391 . S
C150 H140 0.950 . S
C150 C151 1.386 . S
C150 C152 1.391 . S
C151 C150 1.386 . S
C151 C155 1.393 . S
C152 H141 0.950 . S
C152 C150 1.391 . S
C152 C153 1.400 . S
C153 C147 1.491 . S
C153 C152 1.400 . S
C153 C154 1.398 . S
C154 H142 0.950 . S
C154 C153 1.398 . S
C154 C155 1.391 . S
C155 H143 0.950 . S
C155 C151 1.393 . S
C155 C154 1.391 . S
H156 C164 0.950 . S
H157 C169 0.950 . S
H158 C166 0.950 . S
H159 C168 0.950 . S
H160 C170 0.950 . S
H161 C172 0.950 . S
H162 C174 0.950 . S
H163 C175 0.950 . S
C164 H156 0.950 . S
C164 C165 1.386 1_554 S
C164 C166 1.391 . S
C165 C164 1.386 1_556 S
C165 C169 1.393 . S
C166 H158 0.950 . S
C166 C164 1.391 . S
C166 C167 1.400 1_554 S
C167 C166 1.400 1_556 S
C167 C168 1.398 . S
C167 C173 1.491 . S
C168 H159 0.950 . S
C168 C167 1.398 . S
C168 C169 1.391 . S
C169 H157 0.950 . S
C169 C165 1.393 . S
C169 C168 1.391 . S
C170 H160 0.950 . S
C170 C171 1.386 . S
C170 C172 1.391 . S
C171 C170 1.386 . S
C171 C175 1.393 1_556 S
C172 H161 0.950 . S
C172 C170 1.391 . S
C172 C173 1.400 . S
C173 C167 1.491 . S
C173 C172 1.400 . S
C173 C174 1.398 1_556 S
C174 H162 0.950 . S
C174 C173 1.398 1_554 S
C174 C175 1.391 . S
C175 H163 0.950 . S
C175 C171 1.393 1_554 S
C175 C174 1.391 . S
H176 C184 0.950 . S
H177 C189 0.950 . S
H178 C186 0.950 . S
H179 C188 0.950 . S
H180 C190 0.950 . S
H181 C192 0.950 . S
H182 C194 0.950 . S
H183 C195 0.950 . S
C184 H176 0.950 . S
C184 C185 1.386 . S
C184 C186 1.391 . S
C185 C184 1.386 . S
C185 C189 1.393 1_554 S
C186 H178 0.950 . S
C186 C184 1.391 . S
C186 C187 1.400 . S
C187 C186 1.400 . S
C187 C188 1.398 1_554 S
C187 C193 1.491 . S
C188 H179 0.950 . S
C188 C187 1.398 1_556 S
C188 C189 1.391 . S
C189 H177 0.950 . S
C189 C185 1.393 1_556 S
C189 C188 1.391 . S
C190 H180 0.950 . S
C190 C191 1.386 1_556 S
C190 C192 1.391 . S
C191 C190 1.386 1_554 S
C191 C195 1.393 . S
C192 H181 0.950 . S
C192 C190 1.391 . S
C192 C193 1.400 1_556 S
C193 C187 1.491 . S
C193 C192 1.400 1_554 S
C193 C194 1.398 . S
C194 H182 0.950 . S
C194 C193 1.398 . S
C194 C195 1.391 . S
C195 H183 0.950 . S
C195 C191 1.393 . S
C195 C194 1.391 . S
H196 C204 0.950 . S
H197 C209 0.950 . S
H198 C206 0.950 . S
H199 C208 0.950 . S
H200 C210 0.950 . S
H201 C212 0.950 . S
H202 C214 0.950 1_554 S
H203 C215 0.950 1_554 S
C204 H196 0.950 . S
C204 C205 1.386 1_554 S
C204 C206 1.391 . S
C205 C204 1.386 1_556 S
C205 C209 1.393 . S
C206 H198 0.950 . S
C206 C204 1.391 . S
C206 C207 1.400 1_554 S
C207 C206 1.400 1_556 S
C207 C208 1.398 . S
C207 C213 1.491 . S
C208 H199 0.950 . S
C208 C207 1.398 . S
C208 C209 1.391 . S
C209 H197 0.950 . S
C209 C205 1.393 . S
C209 C208 1.391 . S
C210 H200 0.950 . S
C210 C211 1.386 . S
C210 C212 1.391 . S
C211 C210 1.386 . S
C211 C215 1.393 . S
C212 H201 0.950 . S
C212 C210 1.391 . S
C212 C213 1.400 . S
C213 C207 1.491 . S
C213 C212 1.400 . S
C213 C214 1.398 . S
C214 H202 0.950 1_556 S
C214 C213 1.398 . S
C214 C215 1.391 . S
C215 H203 0.950 1_556 S
C215 C211 1.393 . S
C215 C214 1.391 . S
H216 C224 0.950 . S
H217 C229 0.950 . S
H218 C226 0.950 . S
H219 C228 0.950 . S
H220 C230 0.950 . S
H221 C232 0.950 . S
H222 C234 0.950 . S
H223 C235 0.950 . S
C224 H216 0.950 . S
C224 C225 1.386 1_556 S
C224 C226 1.391 . S
C225 C224 1.386 1_554 S
C225 C229 1.393 . S
C226 H218 0.950 . S
C226 C224 1.391 . S
C226 C227 1.400 1_556 S
C227 C226 1.400 1_554 S
C227 C228 1.398 . S
C227 C233 1.491 . S
C228 H219 0.950 . S
C228 C227 1.398 . S
C228 C229 1.391 . S
C229 H217 0.950 . S
C229 C225 1.393 . S
C229 C228 1.391 . S
C230 H220 0.950 . S
C230 C231 1.386 . S
C230 C232 1.391 . S
C231 C230 1.386 . S
C231 C235 1.393 1_554 S
C232 H221 0.950 . S
C232 C230 1.391 . S
C232 C233 1.400 . S
C233 C227 1.491 . S
C233 C232 1.400 . S
C233 C234 1.398 1_554 S
C234 H222 0.950 . S
C234 C233 1.398 1_556 S
C234 C235 1.391 . S
C235 H223 0.950 . S
C235 C231 1.393 1_556 S
C235 C234 1.391 . S
H236 C244 0.950 . S
H237 C249 0.950 . S
H238 C246 0.950 . S
H239 C248 0.950 . S
H240 C250 0.950 . S
H241 C252 0.950 . S
H242 C254 0.950 . S
H243 C255 0.950 . S
C244 H236 0.950 . S
C244 C245 1.386 1_554 S
C244 C246 1.391 . S
C245 C244 1.386 1_556 S
C245 C249 1.393 . S
C246 H238 0.950 . S
C246 C244 1.391 . S
C246 C247 1.400 1_554 S
C247 C246 1.400 1_556 S
C247 C248 1.398 . S
C247 C253 1.491 . S
C248 H239 0.950 . S
C248 C247 1.398 . S
C248 C249 1.391 . S
C249 H237 0.950 . S
C249 C245 1.393 . S
C249 C248 1.391 . S
C250 H240 0.950 . S
C250 C251 1.386 . S
C250 C252 1.391 . S
C251 C250 1.386 . S
C251 C255 1.393 1_556 S
C252 H241 0.950 . S
C252 C250 1.391 . S
C252 C253 1.400 . S
C253 C247 1.491 . S
C253 C252 1.400 . S
C253 C254 1.398 1_556 S
C254 H242 0.950 . S
C254 C253 1.398 1_554 S
C254 C255 1.391 . S
C255 H243 0.950 . S
C255 C251 1.393 1_554 S
C255 C254 1.391 . S
H256 C264 0.950 . S
H257 C269 0.950 . S
H258 C266 0.950 . S
H259 C268 0.950 . S
H260 C270 0.950 . S
H261 C272 0.950 . S
H262 C274 0.950 . S
H263 C275 0.950 . S
C264 H256 0.950 . S
C264 C265 1.386 . S
C264 C266 1.391 . S
C265 C264 1.386 . S
C265 C269 1.393 1_554 S
C266 H258 0.950 . S
C266 C264 1.391 . S
C266 C267 1.400 . S
C267 C266 1.400 . S
C267 C268 1.398 1_554 S
C267 C273 1.491 . S
C268 H259 0.950 . S
C268 C267 1.398 1_556 S
C268 C269 1.391 . S
C269 H257 0.950 . S
C269 C265 1.393 1_556 S
C269 C268 1.391 . S
C270 H260 0.950 . S
C270 C271 1.386 1_556 S
C270 C272 1.391 . S
C271 C270 1.386 1_554 S
C271 C275 1.393 . S
C272 H261 0.950 . S
C272 C270 1.391 . S
C272 C273 1.400 1_556 S
C273 C267 1.491 . S
C273 C272 1.400 1_554 S
C273 C274 1.398 . S
C274 H262 0.950 . S
C274 C273 1.398 . S
C274 C275 1.391 . S
C275 H263 0.950 . S
C275 C271 1.393 . S
C275 C274 1.391 . S
C105 N18 1.483 . S
C111 N13 1.487 1_655 S
C125 N45 1.485 . S
C131 N50 1.488 1_565 S
C145 N77 1.484 . S
C151 N82 1.479 . S
C165 C2 1.184 . S
C171 C93 1.184 . S
C185 C61 1.182 . S
C191 C6 1.175 . S
C205 C36 1.182 . S
C211 C70 1.181 . S
C225 C29 1.183 . S
C231 C66 1.183 . S
C245 C4 1.184 . S
C251 C34 1.178 . S
C265 C68 1.182 . S
C271 C38 1.172 . S
