# Generated by pormake.
# Topology fni, (5)-cn, num edge types: 1
# Building blocks:
#     Node 0, Type 0, BuildingBlock: BEQFEK_clean_sbu_0, # of connection points: 5
#     Node 1, Type 0, BuildingBlock: BEQFEK_clean_sbu_0, # of connection points: 5
#     Node 2, Type 0, BuildingBlock: BEQFEK_clean_sbu_0, # of connection points: 5
#     Node 3, Type 0, BuildingBlock: BEQFEK_clean_sbu_0, # of connection points: 5
#     Node 4, Type 0, BuildingBlock: BEQFEK_clean_sbu_0, # of connection points: 5
#     Node 5, Type 0, BuildingBlock: BEQFEK_clean_sbu_0, # of connection points: 5
#     Node 6, Type 0, BuildingBlock: BEQFEK_clean_sbu_0, # of connection points: 5
#     Node 7, Type 0, BuildingBlock: BEQFEK_clean_sbu_0, # of connection points: 5
#     Edge 8, Type (0, 0), BuildingBlock: EZIPEK_clean_linker_0, # of connection points: 2
#     Edge 9, Type (0, 0), BuildingBlock: EZIPEK_clean_linker_0, # of connection points: 2
#     Edge 10, Type (0, 0), BuildingBlock: EZIPEK_clean_linker_0, # of connection points: 2
#     Edge 11, Type (0, 0), BuildingBlock: EZIPEK_clean_linker_0, # of connection points: 2
#     Edge 12, Type (0, 0), BuildingBlock: EZIPEK_clean_linker_0, # of connection points: 2
#     Edge 13, Type (0, 0), BuildingBlock: EZIPEK_clean_linker_0, # of connection points: 2
#     Edge 14, Type (0, 0), BuildingBlock: EZIPEK_clean_linker_0, # of connection points: 2
#     Edge 15, Type (0, 0), BuildingBlock: EZIPEK_clean_linker_0, # of connection points: 2
#     Edge 16, Type (0, 0), BuildingBlock: EZIPEK_clean_linker_0, # of connection points: 2
#     Edge 17, Type (0, 0), BuildingBlock: EZIPEK_clean_linker_0, # of connection points: 2
#     Edge 18, Type (0, 0), BuildingBlock: EZIPEK_clean_linker_0, # of connection points: 2
#     Edge 19, Type (0, 0), BuildingBlock: EZIPEK_clean_linker_0, # of connection points: 2
#     Edge 20, Type (0, 0), BuildingBlock: EZIPEK_clean_linker_0, # of connection points: 2
#     Edge 21, Type (0, 0), BuildingBlock: EZIPEK_clean_linker_0, # of connection points: 2
#     Edge 22, Type (0, 0), BuildingBlock: EZIPEK_clean_linker_0, # of connection points: 2
#     Edge 23, Type (0, 0), BuildingBlock: EZIPEK_clean_linker_0, # of connection points: 2
#     Edge 24, Type (0, 0), BuildingBlock: EZIPEK_clean_linker_0, # of connection points: 2
#     Edge 25, Type (0, 0), BuildingBlock: EZIPEK_clean_linker_0, # of connection points: 2
#     Edge 26, Type (0, 0), BuildingBlock: EZIPEK_clean_linker_0, # of connection points: 2
#     Edge 27, Type (0, 0), BuildingBlock: EZIPEK_clean_linker_0, # of connection points: 2
# Relax obj value: 0.172
# Max RMSD: 0.223
# Mean RMSD: 0.192
data_MOF--net-fni--node1-BEQFEK_clean_sbu_0--edge1-EZIPEK_clean_linker_0
_symmetry_space_group_name_H-M    P1
_symmetry_Int_Tables_number       1
_symmetry_cell_setting            triclinic
loop_
_symmetry_equiv_pos_as_xyz
'x, y, z'
_cell_length_a     38.026336
_cell_length_b     40.110306
_cell_length_c     15.100786
_cell_angle_alpha  91.268939
_cell_angle_beta   90.457188
_cell_angle_gamma 89.92707
loop_
_atom_site_label
_atom_site_type_symbol
_atom_site_fract_x
_atom_site_fract_y
_atom_site_fract_z
_atom_type_partial_charge
Co0 Co 0.37395 0.39731 0.12195 0.0
Co1 Co 0.39409 0.37494 0.92891 0.0
C2 C 0.31941 0.39385 0.98508 0.0
O3 O 0.32684 0.4028 0.06466 0.0
O4 O 0.34264 0.38232 0.93263 0.0
C5 C 0.35491 0.39397 0.30053 0.0
O6 O 0.32814 0.37729 0.26641 0.0
C7 C 0.38815 0.38423 0.73862 0.0
C8 C 0.43045 0.35225 0.68429 0.0
C9 C 0.40309 0.37315 0.66016 0.0
N10 N 0.40568 0.3705 0.8064 0.0
N11 N 0.43112 0.35157 0.77355 0.0
C12 C 0.35665 0.40635 0.74898 0.0
H13 H 0.33315 0.39071 0.76058 0.0
H14 H 0.36042 0.42348 0.80698 0.0
H15 H 0.35169 0.42106 0.68885 0.0
C16 C 0.42789 0.44838 0.08727 0.0
N17 N 0.40894 0.42139 0.06239 0.0
N18 N 0.41792 0.41195 0.98169 0.0
C19 C 0.44293 0.43274 0.95256 0.0
C20 C 0.45007 0.45648 0.01856 0.0
C21 C 0.42485 0.46576 0.17554 0.0
H22 H 0.39678 0.47122 0.18929 0.0
H23 H 0.44029 0.48922 0.17852 0.0
H24 H 0.43458 0.44893 0.22771 0.0
O25 O 0.38532 0.34923 0.12372 0.0
O26 O 0.4046 0.33266 0.9915 0.0
H27 H 0.48011 0.44917 0.85477 0.0
H28 H 0.43837 0.43432 0.81176 0.0
C29 C 0.45905 0.43036 0.86266 0.0
H30 H 0.47007 0.405 0.85177 0.0
H31 H 0.44847 0.33768 0.81194 0.0
O32 O 0.37554 0.40903 0.24929 0.0
C33 C 0.39781 0.32684 0.07221 0.0
Co34 Co 0.61035 0.8781 0.35979 0.0
Co35 Co 0.63645 0.89443 0.1694 0.0
C36 C 0.60889 0.826 0.22171 0.0
O37 O 0.59996 0.83414 0.30056 0.0
O38 O 0.62356 0.84661 0.17106 0.0
C39 C 0.61234 0.86013 0.53778 0.0
O40 O 0.62755 0.8334 0.50372 0.0
C41 C 0.62655 0.88966 0.97799 0.0
C42 C 0.66399 0.92671 0.92812 0.0
C43 C 0.63954 0.90289 0.90108 0.0
N44 N 0.64256 0.90481 0.04765 0.0
N45 N 0.66478 0.9271 0.01744 0.0
C46 C 0.60039 0.862 0.98522 0.0
H47 H 0.58255 0.86725 0.04164 0.0
H48 H 0.58472 0.8586 0.92349 0.0
H49 H 0.61462 0.83838 -0.00224 0.0
C50 C 0.56352 0.93529 0.32355 0.0
N51 N 0.58913 0.91382 0.29944 0.0
N52 N 0.60011 0.92108 0.21978 0.0
C53 C 0.58166 0.94744 0.19046 0.0
C54 C 0.55793 0.95737 0.25537 0.0
C55 C 0.54542 0.93496 0.41111 0.0
H56 H 0.56465 0.94166 0.4642 0.0
H57 H 0.53581 0.9094 0.42374 0.0
H58 H 0.52313 0.95282 0.4138 0.0
O59 O 0.66188 0.8838 0.36632 0.0
O60 O 0.68175 0.90001 0.23628 0.0
H61 H 0.56883 0.98434 0.09263 0.0
H62 H 0.58059 0.94351 0.04924 0.0
C63 C 0.58639 0.96254 0.10169 0.0
H64 H 0.61416 0.9704 0.09452 0.0
H65 H 0.68089 0.94216 0.05771 0.0
O66 O 0.59809 0.88088 0.48631 0.0
C67 C 0.68684 0.89306 0.31734 0.0
Co68 Co 0.11206 0.12734 0.42011 0.0
Co69 Co 0.13874 0.1107 0.61118 0.0
C70 C 0.11213 0.17949 0.55774 0.0
O71 O 0.10268 0.1715 0.47882 0.0
O72 O 0.12671 0.15868 0.60866 0.0
C73 C 0.11575 0.14421 0.24256 0.0
O74 O 0.13276 0.16982 0.2777 0.0
C75 C 0.13021 0.11608 0.80288 0.0
C76 C 0.16509 0.07649 0.85258 0.0
C77 C 0.14232 0.10166 0.87972 0.0
N78 N 0.14508 0.10026 0.73317 0.0
N79 N 0.16584 0.07652 0.76331 0.0
C80 C 0.10577 0.14522 0.7958 0.0
H81 H 0.08673 0.14067 0.7408 0.0
H82 H 0.09134 0.15007 0.85826 0.0
H83 H 0.12127 0.16781 0.78092 0.0
C84 C 0.06332 0.07211 0.45795 0.0
N85 N 0.09018 0.09242 0.48096 0.0
N86 N 0.10148 0.08499 0.56072 0.0
C87 C 0.08204 0.05964 0.59108 0.0
C88 C 0.05726 0.05065 0.52695 0.0
C89 C 0.04429 0.0731 0.371 0.0
H90 H 0.03619 0.09912 0.35769 0.0
H91 H 0.02089 0.05659 0.36982 0.0
H92 H 0.06246 0.065 0.31754 0.0
O93 O 0.16342 0.12062 0.4149 0.0
O94 O 0.18361 0.10412 0.54509 0.0
H95 H 0.06811 0.0238 0.69016 0.0
H96 H 0.08219 0.06418 0.73219 0.0
C97 C 0.08667 0.0447 0.68026 0.0
H98 H 0.11405 0.03552 0.68738 0.0
H99 H 0.18075 0.06056 0.723 0.0
O100 O 0.09961 0.12461 0.29309 0.0
C101 C 0.18846 0.11093 0.46405 0.0
Co102 Co 0.87024 0.6106 0.65527 0.0
Co103 Co 0.89483 0.62929 0.8466 0.0
C104 C 0.81836 0.6136 0.79261 0.0
O105 O 0.82397 0.60406 0.71285 0.0
O106 O 0.84299 0.62459 0.8425 0.0
C107 C 0.86555 0.58417 0.46409 0.0
O108 O 0.85561 0.55401 0.48472 0.0
C109 C 0.88769 0.62505 0.03851 0.0
C110 C 0.94293 0.6284 0.08382 0.0
C111 C 0.90914 0.62162 0.11224 0.0
N112 N 0.90801 0.63189 0.96871 0.0
N113 N 0.94082 0.63519 -0.00298 0.0
C114 C 0.84837 0.62262 0.03533 0.0
H115 H 0.8374 0.64425 -0.00014 0.0
H116 H 0.84053 0.59939 -0.00087 0.0
H117 H 0.83694 0.62253 0.10267 0.0
C118 C 0.92492 0.55631 0.68131 0.0
N119 N 0.9066 0.58364 0.70835 0.0
N120 N 0.91584 0.59106 0.79089 0.0
C121 C 0.9394 0.56821 0.8188 0.0
C122 C 0.94619 0.54597 0.75011 0.0
C123 C 0.92162 0.53902 0.59311 0.0
H124 H 0.89614 0.52568 0.58997 0.0
H125 H 0.94296 0.52047 0.5827 0.0
H126 H 0.92279 0.55732 0.53984 0.0
O127 O 0.88116 0.65898 0.66381 0.0
O128 O 0.90918 0.6711 0.78859 0.0
H129 H 0.97501 0.58429 0.92088 0.0
H130 H 0.96513 0.54065 0.92226 0.0
C131 C 0.95375 0.56571 0.91085 0.0
H132 H 0.93256 0.57022 0.95948 0.0
H133 H 0.96201 0.64045 0.95616 0.0
O134 O 0.86971 0.60622 0.52464 0.0
C135 C 0.89765 0.67977 0.71329 0.0
Co136 Co 0.39866 0.14337 0.35546 0.0
Co137 Co 0.37731 0.1248 0.15842 0.0
C138 C 0.39725 0.19537 0.22201 0.0
O139 O 0.40513 0.18833 0.30184 0.0
O140 O 0.38623 0.17315 0.16733 0.0
C141 C 0.42877 0.15555 0.54043 0.0
O142 O 0.45396 0.17514 0.51342 0.0
C143 C 0.39641 0.12984 0.97358 0.0
C144 C 0.35957 0.09589 0.90306 0.0
C145 C 0.38672 0.11827 0.8901 0.0
N146 N 0.37608 0.11509 0.03374 0.0
N147 N 0.35418 0.09464 0.99122 0.0
C148 C 0.42406 0.15526 0.99558 0.0
H149 H 0.43645 0.14988 0.06052 0.0
H150 H 0.44445 0.15573 0.94347 0.0
H151 H 0.41161 0.18028 -7e-05 0.0
C152 C 0.45025 0.08882 0.32031 0.0
N153 N 0.42409 0.10921 0.29454 0.0
N154 N 0.4145 0.10086 0.21304 0.0
C155 C 0.43433 0.07495 0.1845 0.0
C156 C 0.45763 0.06645 0.25152 0.0
C157 C 0.46687 0.09001 0.41023 0.0
H158 H 0.44639 0.08608 0.46083 0.0
H159 H 0.47839 0.11511 0.42223 0.0
H160 H 0.48768 0.0708 0.41704 0.0
O161 O 0.34822 0.13238 0.35121 0.0
O162 O 0.33099 0.11609 0.21629 0.0
H163 H 0.40277 0.05218 0.08209 0.0
H164 H 0.44702 0.03552 0.08959 0.0
C165 C 0.43076 0.05845 0.09512 0.0
H166 H 0.43931 0.07609 0.04412 0.0
H167 H 0.33516 0.08032 0.02214 0.0
O168 O 0.40706 0.14259 0.48551 0.0
C169 C 0.32446 0.12185 0.29802 0.0
Co170 Co 0.87481 0.88372 0.63091 0.0
Co171 Co 0.89777 0.86461 0.43966 0.0
C172 C 0.82235 0.88428 0.49159 0.0
O173 O 0.82864 0.8924 0.57233 0.0
O174 O 0.8464 0.87272 0.44155 0.0
C175 C 0.87141 0.91053 0.82136 0.0
O176 O 0.86316 0.94113 0.80006 0.0
C177 C 0.89105 0.86864 0.24751 0.0
C178 C 0.94622 0.86332 0.20495 0.0
C179 C 0.91274 0.87122 0.17488 0.0
N180 N 0.91099 0.86125 0.31836 0.0
N181 N 0.9437 0.85675 0.29172 0.0
C182 C 0.85183 0.87239 0.24864 0.0
H183 H 0.84007 0.85141 0.28472 0.0
H184 H 0.84474 0.89612 0.28321 0.0
H185 H 0.84056 0.87238 0.18066 0.0
C186 C 0.9322 0.93552 0.60671 0.0
N187 N 0.91247 0.90909 0.57906 0.0
N188 N 0.92097 0.90152 0.49644 0.0
C189 C 0.94533 0.92347 0.46896 0.0
C190 C 0.95353 0.94516 0.53811 0.0
C191 C 0.93013 0.95274 0.69512 0.0
H192 H 0.93007 0.9343 0.74811 0.0
H193 H 0.90563 0.9677 0.6977 0.0
H194 H 0.9527 0.96987 0.70649 0.0
O195 O 0.88374 0.835 0.62331 0.0
O196 O 0.90978 0.82196 0.49744 0.0
H197 H 0.97962 0.90708 0.36562 0.0
H198 H 0.97049 0.95089 0.36547 0.0
C199 C 0.95878 0.926 0.3766 0.0
H200 H 0.93704 0.92206 0.32838 0.0
H201 H 0.96463 0.85088 0.33373 0.0
O202 O 0.87442 0.88822 0.76123 0.0
C203 C 0.89882 0.81367 0.57312 0.0
Co204 Co 0.10795 0.36235 0.86003 0.0
Co205 Co 0.13231 0.38195 0.67023 0.0
C206 C 0.11114 0.31121 0.72001 0.0
O207 O 0.10183 0.3178 0.79948 0.0
O208 O 0.12322 0.3337 0.67087 0.0
C209 C 0.07769 0.36112 0.0491 0.0
O210 O 0.04446 0.35696 0.02758 0.0
C211 C 0.12714 0.37541 0.47735 0.0
C212 C 0.13938 0.42643 0.43529 0.0
C213 C 0.12706 0.39574 0.40445 0.0
N214 N 0.13739 0.39361 0.5489 0.0
N215 N 0.14595 0.42373 0.52265 0.0
C216 C 0.11789 0.33911 0.47842 0.0
H217 H 0.13928 0.32518 0.51161 0.0
H218 H 0.09323 0.33576 0.51597 0.0
H219 H 0.11444 0.32842 0.41055 0.0
C220 C 0.05598 0.41777 0.82575 0.0
N221 N 0.08298 0.39755 0.80201 0.0
N222 N 0.09299 0.40525 0.72145 0.0
C223 C 0.07186 0.42974 0.69131 0.0
C224 C 0.04814 0.43854 0.75652 0.0
C225 C 0.03808 0.41818 0.9133 0.0
H226 H 0.05789 0.41748 0.96712 0.0
H227 H 0.0207 0.3961 0.91622 0.0
H228 H 0.02165 0.44085 0.92268 0.0
O229 O 0.15838 0.37302 0.86448 0.0
O230 O 0.17724 0.39107 0.7359 0.0
H231 H 0.09609 0.46128 0.59782 0.0
H232 H 0.04911 0.45895 0.58671 0.0
C233 C 0.0732 0.44432 0.60121 0.0
H234 H 0.07565 0.42415 0.55052 0.0
H235 H 0.15449 0.44297 0.56518 0.0
O236 O 0.10072 0.36176 0.98903 0.0
C237 C 0.18275 0.38434 0.81686 0.0
Co238 Co 0.6085 0.64348 0.91755 0.0
Co239 Co 0.63244 0.62336 0.10817 0.0
C240 C 0.61013 0.69416 0.05907 0.0
O241 O 0.60127 0.68779 0.97878 0.0
O242 O 0.62231 0.67151 0.10815 0.0
C243 C 0.57877 0.64442 0.7274 0.0
O244 O 0.5455 0.64791 0.74811 0.0
C245 C 0.62706 0.6295 0.30093 0.0
C246 C 0.63997 0.57857 0.34315 0.0
C247 C 0.62735 0.60913 0.37371 0.0
N248 N 0.63743 0.61145 0.22961 0.0
N249 N 0.64636 0.58137 0.25599 0.0
C250 C 0.61748 0.66574 0.29993 0.0
H251 H 0.63872 0.67984 0.26766 0.0
H252 H 0.59274 0.669 0.26164 0.0
H253 H 0.61401 0.67632 0.36776 0.0
C254 C 0.55802 0.58633 0.94636 0.0
N255 N 0.58415 0.6073 0.97273 0.0
N256 N 0.59387 0.5996 0.05395 0.0
C257 C 0.57331 0.57449 0.08196 0.0
C258 C 0.5504 0.56515 0.01456 0.0
C259 C 0.54069 0.58558 0.85738 0.0
H260 H 0.52222 0.6069 0.8537 0.0
H261 H 0.52545 0.56227 0.84602 0.0
H262 H 0.56073 0.58731 0.8052 0.0
O263 O 0.65917 0.63391 0.91607 0.0
O264 O 0.67767 0.61483 0.04476 0.0
H265 H 0.59729 0.54315 0.17741 0.0
H266 H 0.55026 0.54521 0.18492 0.0
C267 C 0.57429 0.55998 0.17224 0.0
H268 H 0.57628 0.58019 0.22307 0.0
H269 H 0.65514 0.56225 0.21368 0.0
O270 O 0.60196 0.64435 0.78806 0.0
C271 C 0.6834 0.6223 0.96463 0.0
C272 C 0.53677 0.50386 0.01256 0.0
C273 C 0.52457 0.53731 0.01416 0.0
C274 C 0.46355 0.51761 0.00894 0.0
C275 C 0.47575 0.48434 0.01631 0.0
N276 N 0.52357 0.44586 0.03927 0.0
N277 N 0.47668 0.57651 0.02756 0.0
C278 C 0.51228 0.47746 0.02203 0.0
C279 C 0.48801 0.54435 0.01603 0.0
N280 N 0.57162 0.49725 -0.00098 0.0
N281 N 0.42872 0.52359 0.99267 0.0
H282 H 0.49381 0.59675 0.03294 0.0
H283 H 0.45054 0.58289 0.03918 0.0
H284 H 0.41001 0.50464 0.98724 0.0
H285 H 0.41881 0.54698 0.97714 0.0
H286 H 0.5815 0.47333 0.98765 0.0
H287 H 0.59037 0.51589 0.99122 0.0
H288 H 0.54963 0.44004 0.05398 0.0
H289 H 0.50645 0.42581 0.0463 0.0
C290 C 0.47124 0.0051 0.25417 0.0
C291 C 0.48339 0.03849 0.25153 0.0
C292 C 0.54443 0.01882 0.25837 0.0
C293 C 0.5323 0.98539 0.25282 0.0
N294 N 0.4846 0.94655 0.22934 0.0
N295 N 0.53127 0.07723 0.23623 0.0
C296 C 0.49579 0.97847 0.24607 0.0
C297 C 0.51995 0.0454 0.24938 0.0
N298 N 0.43637 0.99881 0.26746 0.0
N299 N 0.57919 0.0252 0.27522 0.0
H300 H 0.51411 0.09736 0.22958 0.0
H301 H 0.55741 0.08327 0.22444 0.0
H302 H 0.59793 0.00642 0.28224 0.0
H303 H 0.58896 0.04896 0.28963 0.0
H304 H 0.42653 0.97514 0.27963 0.0
H305 H 0.41756 0.01762 0.27409 0.0
H306 H 0.45859 0.94048 0.21424 0.0
H307 H 0.5018 0.92639 0.22277 0.0
C308 C 0.0163 0.96424 0.53621 0.0
C309 C 0.97999 0.97242 0.53814 0.0
C310 C 0.99455 0.03196 0.54169 0.0
C311 C 0.03058 0.02371 0.53091 0.0
N312 N 0.0755 0.98232 0.50371 0.0
N313 N 0.93396 0.01361 0.52885 0.0
C314 C 0.04142 0.98991 0.52427 0.0
C315 C 0.96891 0.00619 0.5372 0.0
N316 N 0.02683 0.93205 0.54846 0.0
N317 N 0.98495 0.06432 0.55865 0.0
H318 H 0.9144 0.99541 0.5255 0.0
H319 H 0.92453 0.03757 0.51796 0.0
H320 H 1.00299 0.08389 0.56206 0.0
H321 H 0.95959 0.07142 0.57659 0.0
H322 H 0.053 0.92512 0.55726 0.0
H323 H 0.00921 0.91255 0.55776 0.0
H324 H 0.08409 0.95824 0.4883 0.0
H325 H 0.09471 1.00043 0.49456 0.0
C326 C 0.03336 0.49953 0.75938 0.0
C327 C 0.02179 0.46593 0.7547 0.0
C328 C 0.96037 0.48468 0.75284 0.0
C329 C 0.97209 0.51819 0.74969 0.0
N330 N 0.01945 0.55753 0.73424 0.0
N331 N 0.97492 0.42607 0.73346 0.0
C332 C 0.00854 0.52563 0.74849 0.0
C333 C 0.98543 0.45835 0.74766 0.0
N334 N 0.06791 0.50655 0.77734 0.0
N335 N 0.92542 0.47808 0.76358 0.0
H336 H 0.99253 0.40614 0.72984 0.0
H337 H 0.94912 0.41931 0.71822 0.0
H338 H 0.90631 0.49674 0.76699 0.0
H339 H 0.91565 0.45443 0.77608 0.0
H340 H 0.07719 0.53053 0.79127 0.0
H341 H 0.08693 0.48814 0.78615 0.0
H342 H 0.04556 0.56384 0.72296 0.0
H343 H 1.00208 0.57737 0.72578 0.0
C344 C 0.37572 0.41678 0.44851 0.0
C345 C 0.36587 0.38902 0.3939 0.0
C346 C 0.37633 0.35176 0.51778 0.0
C347 C 0.39008 0.37886 0.56883 0.0
N348 N 0.40891 0.43627 0.57722 0.0
N349 N 0.36697 0.32901 0.37045 0.0
C350 C 0.39153 0.41119 0.53262 0.0
C351 C 0.36885 0.35615 0.42672 0.0
N352 N 0.36906 0.44846 0.42132 0.0
N353 N 0.36951 0.32199 0.55641 0.0
H354 H 0.36427 0.33073 0.302 0.0
H355 H 0.37242 0.30483 0.39055 0.0
H356 H 0.37382 0.31786 0.62357 0.0
H357 H 0.35616 0.3026 0.52367 0.0
H358 H 0.37255 0.46951 0.46207 0.0
H359 H 0.35685 0.45351 0.36099 0.0
H360 H 0.41395 0.45938 0.54986 0.0
H361 H 0.42098 0.43303 0.6387 0.0
C362 C 0.59823 0.89598 0.77071 0.0
C363 C 0.63215 0.89151 0.8086 0.0
C364 C 0.65371 0.86993 0.66643 0.0
C365 C 0.61881 0.8701 0.63179 0.0
N366 N 0.55674 0.87848 0.65627 0.0
N367 N 0.69009 0.86706 0.79785 0.0
C368 C 0.59069 0.88181 0.68545 0.0
C369 C 0.65927 0.8763 0.75812 0.0
N370 N 0.57358 0.9146 0.81487 0.0
N371 N 0.68188 0.86593 0.61142 0.0
H372 H 0.69502 0.87052 0.86545 0.0
H373 H 0.70919 0.85285 0.76529 0.0
H374 H 0.67959 0.86375 0.54275 0.0
H375 H 0.70781 0.86889 0.63302 0.0
H376 H 0.54969 0.92157 0.78652 0.0
H377 H 0.57826 0.92556 0.87712 0.0
H378 H 0.53507 0.8836 0.69612 0.0
H379 H 0.55014 0.86759 0.59502 0.0
C380 C 0.16306 0.12535 0.02603 0.0
C381 C 0.13522 0.11259 0.97246 0.0
C382 C 0.09367 0.12434 0.09268 0.0
C383 C 0.12216 0.13376 0.14911 0.0
N384 N 0.18518 0.13319 0.17505 0.0
N385 N 0.07516 0.09352 0.96057 0.0
C386 C 0.15725 0.13154 0.11748 0.0
C387 C 0.10079 0.11018 0.00746 0.0
N388 N 0.19486 0.13254 0.98948 0.0
N389 N 0.05984 0.12988 0.11914 0.0
H390 H 0.07952 0.08252 0.89839 0.0
H391 H 0.05061 0.08806 0.98666 0.0
H392 H 0.05359 0.1408 0.18034 0.0
H393 H 0.03817 0.12656 0.07723 0.0
H394 H 0.21478 0.14505 0.02441 0.0
H395 H 0.20009 0.12918 0.92219 0.0
H396 H 0.21098 0.12839 0.15565 0.0
H397 H 0.18246 0.13527 0.24352 0.0
C398 C 0.91194 0.62811 0.27794 0.0
C399 C 0.89898 0.6108 0.20199 0.0
C400 C 0.86171 0.57721 0.2966 0.0
C401 C 0.8779 0.59177 0.37319 0.0
N402 N 0.92961 0.62147 0.42925 0.0
N403 N 0.87151 0.56027 0.14451 0.0
C404 C 0.90638 0.61441 0.36204 0.0
C405 C 0.87692 0.58262 0.2127 0.0
N406 N 0.92867 0.65804 0.27101 0.0
N407 N 0.83116 0.55956 0.3022 0.0
H408 H 0.88441 0.56189 0.08409 0.0
H409 H 0.85757 0.53815 0.15211 0.0
H410 H 0.81737 0.55709 0.36098 0.0
H411 H 0.81746 0.55088 0.24621 0.0
H412 H 0.93651 0.67229 0.3262 0.0
H413 H 0.93111 0.67039 0.2114 0.0
H414 H 0.95222 0.63563 0.41995 0.0
H415 H 0.92916 0.60991 0.49019 0.0
C416 C 0.43205 0.11793 0.76959 0.0
C417 C 0.39971 0.1302 0.80383 0.0
C418 C 0.39242 0.16587 0.6749 0.0
C419 C 0.42244 0.15071 0.63604 0.0
N420 N 0.4717 0.11322 0.64431 0.0
N421 N 0.34869 0.16562 0.79112 0.0
C422 C 0.44282 0.12731 0.6834 0.0
C423 C 0.37987 0.15429 0.75724 0.0
N424 N 0.45245 0.09741 0.81985 0.0
N425 N 0.37655 0.19198 0.63352 0.0
H426 H 0.33962 0.1593 0.85354 0.0
H427 H 0.33078 0.18 0.75613 0.0
H428 H 0.38554 0.20122 0.57373 0.0
H429 H 0.35653 0.20638 0.66122 0.0
H430 H 0.47792 0.09025 0.80357 0.0
H431 H 0.44463 0.08885 0.88132 0.0
H432 H 0.48536 0.09297 0.66931 0.0
H433 H 0.48156 0.12133 0.58431 0.0
C434 C 0.88247 0.91159 0.07316 0.0
C435 C 0.90316 0.88245 0.08479 0.0
C436 C 0.91052 0.87841 0.92516 0.0
C437 C 0.88326 0.90241 0.91276 0.0
N438 N 0.83809 0.9368 0.9815 0.0
N439 N 0.93047 0.83382 0.0172 0.0
C440 C 0.8677 0.91772 0.98857 0.0
C441 C 0.91529 0.86451 0.00948 0.0
N442 N 0.87801 0.93412 0.14121 0.0
N443 N 0.93341 0.87018 0.85897 0.0
H444 H 0.93239 0.82148 0.07705 0.0
H445 H 0.93743 0.81912 0.96233 0.0
H446 H 0.93357 0.88164 0.79789 0.0
H447 H 0.9553 0.85502 0.86941 0.0
H448 H 0.86519 0.95686 0.13301 0.0
H449 H 0.89067 0.93188 0.20229 0.0
H450 H 0.82473 0.94609 0.03684 0.0
H451 H 0.82457 0.93996 0.92204 0.0
C452 C 0.08009 0.37252 0.30106 0.0
C453 C 0.11349 0.38785 0.31377 0.0
C454 C 0.11769 0.39345 0.15409 0.0
C455 C 0.08862 0.37132 0.1409 0.0
N456 N 0.04715 0.33386 0.20862 0.0
N457 N 0.16773 0.40609 0.24764 0.0
C458 C 0.07108 0.35912 0.21624 0.0
C459 C 0.13348 0.39625 0.23894 0.0
N460 N 0.05636 0.37176 0.36833 0.0
N461 N 0.12906 0.41349 0.08816 0.0
H462 H 0.18109 0.40682 0.30819 0.0
H463 H 0.18382 0.40975 0.19307 0.0
H464 H 0.11574 0.41602 0.02818 0.0
H465 H 0.14872 0.43132 0.09833 0.0
H466 H 0.03077 0.36294 0.35922 0.0
H467 H 0.06085 0.38346 0.42967 0.0
H468 H 0.03602 0.32286 0.26371 0.0
H469 H 0.04173 0.32119 0.14916 0.0
C470 C 0.57151 0.64559 0.56013 0.0
C471 C 0.58965 0.63405 0.6361 0.0
C472 C 0.63452 0.60928 0.53934 0.0
C473 C 0.614 0.61701 0.46404 0.0
N474 N 0.55642 0.63216 0.40808 0.0
N475 N 0.63129 0.59285 0.69081 0.0
C476 C 0.58039 0.63194 0.47583 0.0
C477 C 0.61912 0.61232 0.624 0.0
N478 N 0.54712 0.6705 0.56666 0.0
N479 N 0.66889 0.59985 0.53122 0.0
H480 H 0.61845 0.59047 0.75094 0.0
H481 H 0.65123 0.57527 0.68141 0.0
H482 H 0.68192 0.59888 0.47075 0.0
H483 H 0.68535 0.59675 0.58602 0.0
H484 H 0.53551 0.68107 0.51111 0.0
H485 H 0.54174 0.68336 0.62568 0.0
H486 H 0.53071 0.64065 0.41649 0.0
H487 H 0.56093 0.62035 0.34703 0.0
C488 C 0.23616 0.41881 0.86075 0.0
C489 C 0.21832 0.38768 0.85789 0.0
C490 C 0.26285 0.36437 0.95766 0.0
C491 C 0.28267 0.39404 0.95214 0.0
N492 N 0.29079 0.44841 0.89099 0.0
N493 N 0.2188 0.32879 0.88874 0.0
C494 C 0.27007 0.42099 0.90146 0.0
C495 C 0.23276 0.3599 0.90256 0.0
N496 N 0.22015 0.44657 0.82837 0.0
N497 N 0.27274 0.34048 0.01606 0.0
H498 H 0.19772 0.32405 0.84573 0.0
H499 H 0.23039 0.30715 0.91235 0.0
H500 H 0.29457 0.34317 0.0579 0.0
H501 H 0.25745 0.31968 0.0293 0.0
H502 H 0.2303 0.47054 0.83702 0.0
H503 H 0.19521 0.44613 0.79922 0.0
H504 H 0.28502 0.46707 0.84625 0.0
H505 H 0.31494 0.45147 0.9235 0.0
C506 C 0.63627 0.77042 0.19722 0.0
C507 C 0.60628 0.79101 0.18915 0.0
C508 C 0.5771 0.74753 0.09803 0.0
C509 C 0.6088 0.72867 0.09756 0.0
N510 N 0.6711 0.72636 0.13062 0.0
N511 N 0.54958 0.80157 0.12343 0.0
C512 C 0.63909 0.74127 0.14292 0.0
C513 C 0.57707 0.78028 0.13696 0.0
N514 N 0.66208 0.77865 0.25732 0.0
N515 N 0.54672 0.73373 0.06528 0.0
H516 H 0.54808 0.82508 0.15423 0.0
H517 H 0.52947 0.79674 0.0777 0.0
H518 H 0.54547 0.70969 0.03783 0.0
H519 H 0.52218 0.74502 0.07221 0.0
H520 H 0.68298 0.76287 0.27229 0.0
H521 H 0.66064 0.79975 0.2988 0.0
H522 H 0.69458 0.73643 0.155 0.0
H523 H 0.67482 0.70591 0.08795 0.0
C524 C 0.26981 0.08791 0.32908 0.0
C525 C 0.2883 0.11867 0.33408 0.0
C526 C 0.24434 0.14124 0.43764 0.0
C527 C 0.22433 0.11168 0.4267 0.0
N528 N 0.21478 0.05875 0.3519 0.0
N529 N 0.28842 0.17715 0.376 0.0
C530 C 0.23606 0.08558 0.36909 0.0
C531 C 0.27419 0.14605 0.38366 0.0
N532 N 0.28511 0.06049 0.29025 0.0
N533 N 0.23492 0.16474 0.50005 0.0
H534 H 0.30944 0.18206 0.33439 0.0
H535 H 0.27711 0.19865 0.40325 0.0
H536 H 0.21301 0.16224 0.54045 0.0
H537 H 0.25057 0.18519 0.51743 0.0
H538 H 0.27455 0.0366 0.29318 0.0
H539 H 0.30984 0.06102 0.26107 0.0
H540 H 0.21995 0.04086 0.30265 0.0
H541 H 0.19071 0.05552 0.38331 0.0
C542 C 0.90734 0.71855 0.58669 0.0
C543 C 0.90352 0.71417 0.67939 0.0
C544 C 0.90963 0.77456 0.69883 0.0
C545 C 0.90394 0.7791 0.60665 0.0
N546 N 0.89053 0.75266 0.46409 0.0
N547 N 0.89419 0.74113 0.82308 0.0
C548 C 0.90105 0.75037 0.55041 0.0
C549 C 0.90295 0.74299 0.73581 0.0
N550 N 0.91826 0.69277 0.53334 0.0
N551 N 0.92266 0.79992 0.75092 0.0
H552 H 0.88606 0.71929 0.85261 0.0
H553 H 0.89097 0.76234 0.86344 0.0
H554 H 0.93106 0.82239 0.72487 0.0
H555 H 0.92968 0.79661 0.81699 0.0
H556 H 0.92372 0.6958 0.46651 0.0
H557 H 0.92659 0.67008 0.55858 0.0
H558 H 0.88557 0.73164 0.42404 0.0
H559 H 0.88272 0.77486 0.43544 0.0
C560 C 0.7713 0.85839 0.41107 0.0
C561 C 0.78647 0.8871 0.45268 0.0
C562 C 0.73594 0.92056 0.4043 0.0
C563 C 0.7228 0.89251 0.35569 0.0
N564 N 0.73088 0.83639 0.29958 0.0
N565 N 0.78622 0.94681 0.47689 0.0
C566 C 0.74145 0.86194 0.35497 0.0
C567 C 0.76954 0.91859 0.44649 0.0
N568 N 0.78464 0.82747 0.4281 0.0
N569 N 0.71606 0.94888 0.41124 0.0
H570 H 0.81085 0.94649 0.50767 0.0
H571 H 0.77693 0.97077 0.46541 0.0
H572 H 0.6921 0.95164 0.37797 0.0
H573 H 0.72223 0.96875 0.45413 0.0
H574 H 0.77264 0.80537 0.40676 0.0
H575 H 0.80574 0.82373 0.47137 0.0
H576 H 0.7454 0.81462 0.28951 0.0
H577 H 0.70924 0.83828 0.25707 0.0
C578 C 0.07907 0.22555 0.63649 0.0
C579 C 0.10951 0.21436 0.59091 0.0
C580 C 0.1418 0.26359 0.64419 0.0
C581 C 0.11052 0.27658 0.68277 0.0
N582 N 0.04776 0.27244 0.70279 0.0
N583 N 0.16753 0.22544 0.53629 0.0
C584 C 0.07864 0.25822 0.67576 0.0
C585 C 0.14012 0.23432 0.58998 0.0
N586 N 0.05091 0.20471 0.64383 0.0
N587 N 0.17347 0.27843 0.66261 0.0
H588 H 0.16693 0.20425 0.49492 0.0
H589 H 0.18921 0.24069 0.52614 0.0
H590 H 0.17611 0.29916 0.705 0.0
H591 H 0.19749 0.26816 0.64358 0.0
H592 H 0.02962 0.20987 0.68492 0.0
H593 H 0.04989 0.1812 0.6129 0.0
H594 H 0.02325 0.26164 0.69065 0.0
H595 H 0.04629 0.29633 0.73114 0.0
C596 C 0.73476 0.64844 0.89105 0.0
C597 C 0.71903 0.6194 0.92554 0.0
C598 C 0.76854 0.58567 0.87029 0.0
C599 C 0.78241 0.61426 0.82933 0.0
N600 N 0.77638 0.67166 0.78845 0.0
N601 N 0.71798 0.55951 0.93696 0.0
C602 C 0.76473 0.64528 0.83601 0.0
C603 C 0.73517 0.58772 0.91252 0.0
N604 N 0.7218 0.67924 0.91391 0.0
N605 N 0.7877 0.55682 0.87085 0.0
H606 H 0.69367 0.56 0.96841 0.0
H607 H 0.72653 0.53552 0.9203 0.0
H608 H 0.81158 0.55413 0.83785 0.0
H609 H 0.78109 0.53635 0.9085 0.0
H610 H 0.73426 0.70148 0.89882 0.0
H611 H 0.70029 0.68264 0.95552 0.0
H612 H 0.76254 0.69395 0.78298 0.0
H613 H 0.79839 0.67024 0.74767 0.0
C614 C 0.36881 0.27266 0.101 0.0
C615 C 0.3996 0.29244 0.10564 0.0
C616 C 0.42982 0.24871 0.18881 0.0
C617 C 0.39797 0.23026 0.19064 0.0
N618 N 0.3352 0.22837 0.16562 0.0
N619 N 0.45792 0.30206 0.16391 0.0
C620 C 0.3669 0.24333 0.1515 0.0
C621 C 0.42969 0.28131 0.15271 0.0
N622 N 0.34148 0.28168 0.04715 0.0
N623 N 0.46045 0.23458 0.21753 0.0
H624 H 0.45918 0.32546 0.1352 0.0
H625 H 0.47901 0.29699 0.20595 0.0
H626 H 0.46162 0.21083 0.24412 0.0
H627 H 0.48507 0.24531 0.20891 0.0
H628 H 0.31981 0.26647 0.03386 0.0
H629 H 0.34196 0.30302 0.00894 0.0
H630 H 0.31121 0.23867 0.14666 0.0
H631 H 0.33247 0.2074 0.2045 0.0
loop_
_geom_bond_atom_site_label_1
_geom_bond_atom_site_label_2
_geom_bond_distance
_geom_bond_site_symmetry_2
_ccdc_geom_bond_type
Co0 O3 1.970 . S
Co0 N17 1.989 . S
Co0 O25 1.967 . S
Co0 O32 1.920 . S
Co1 O4 1.966 . S
Co1 N10 2.022 . S
Co1 N18 1.993 . S
Co1 O26 1.941 . S
C2 O3 1.258 . S
C2 O4 1.263 1_554 S
O3 Co0 1.970 . S
O3 C2 1.258 . S
O4 Co1 1.966 . S
O4 C2 1.263 1_556 S
C5 O6 1.235 . S
C5 O32 1.289 . S
O6 C5 1.235 . S
C7 C9 1.400 . S
C7 N10 1.351 . S
C7 C12 1.501 . S
C8 C9 1.387 . S
C8 N11 1.341 . S
C9 C7 1.400 . S
C9 C8 1.387 . S
N10 Co1 2.022 . S
N10 C7 1.351 . S
N10 N11 1.365 . S
N11 C8 1.341 . S
N11 N10 1.365 . S
N11 H31 0.862 . S
C12 C7 1.501 . S
C12 H13 0.961 . S
C12 H14 0.961 . S
C12 H15 0.960 . S
H13 C12 0.961 . S
H14 C12 0.961 . S
H15 C12 0.960 . S
C16 N17 1.342 . S
C16 C20 1.401 . S
C16 C21 1.499 . S
N17 Co0 1.989 . S
N17 C16 1.342 . S
N17 N18 1.388 1_554 S
N18 Co1 1.993 . S
N18 N17 1.388 1_556 S
N18 C19 1.346 . S
C19 N18 1.346 . S
C19 C20 1.396 1_556 S
C19 C29 1.510 . S
C20 C16 1.401 . S
C20 C19 1.396 1_554 S
C21 C16 1.499 . S
C21 H22 0.959 . S
C21 H23 0.960 . S
C21 H24 0.961 . S
H22 C21 0.959 . S
H23 C21 0.960 . S
H24 C21 0.961 . S
O25 Co0 1.967 . S
O25 C33 1.258 . S
O26 Co1 1.941 . S
O26 C33 1.266 1_556 S
H27 C29 0.959 . S
H28 C29 0.961 . S
C29 C19 1.510 . S
C29 H27 0.959 . S
C29 H28 0.961 . S
C29 H30 0.960 . S
H30 C29 0.960 . S
H31 N11 0.862 . S
O32 Co0 1.920 . S
O32 C5 1.289 . S
C33 O25 1.258 . S
C33 O26 1.266 1_554 S
Co34 O37 1.970 . S
Co34 N51 1.989 . S
Co34 O59 1.967 . S
Co34 O66 1.920 . S
Co35 O38 1.966 . S
Co35 N44 2.022 . S
Co35 N52 1.993 . S
Co35 O60 1.941 . S
C36 O37 1.258 . S
C36 O38 1.263 . S
O37 Co34 1.970 . S
O37 C36 1.258 . S
O38 Co35 1.966 . S
O38 C36 1.263 . S
C39 O40 1.235 . S
C39 O66 1.289 . S
O40 C39 1.235 . S
C41 C43 1.400 . S
C41 N44 1.351 1_556 S
C41 C46 1.501 . S
C42 C43 1.387 . S
C42 N45 1.341 . S
C43 C41 1.400 . S
C43 C42 1.387 . S
N44 Co35 2.022 . S
N44 C41 1.351 1_554 S
N44 N45 1.365 1_554 S
N45 C42 1.341 . S
N45 N44 1.365 1_556 S
N45 H65 0.862 1_556 S
C46 C41 1.501 . S
C46 H47 0.961 1_556 S
C46 H48 0.961 . S
C46 H49 0.960 . S
H47 C46 0.961 1_554 S
H48 C46 0.961 . S
H49 C46 0.960 . S
C50 N51 1.342 . S
C50 C54 1.401 . S
C50 C55 1.499 . S
N51 Co34 1.989 . S
N51 C50 1.342 . S
N51 N52 1.388 . S
N52 Co35 1.993 . S
N52 N51 1.388 . S
N52 C53 1.346 . S
C53 N52 1.346 . S
C53 C54 1.396 . S
C53 C63 1.510 . S
C54 C50 1.401 . S
C54 C53 1.396 . S
C55 C50 1.499 . S
C55 H56 0.959 . S
C55 H57 0.960 . S
C55 H58 0.961 . S
H56 C55 0.959 . S
H57 C55 0.960 . S
H58 C55 0.961 . S
O59 Co34 1.967 . S
O59 C67 1.258 . S
O60 Co35 1.941 . S
O60 C67 1.266 . S
H61 C63 0.959 . S
H62 C63 0.961 . S
C63 C53 1.510 . S
C63 H61 0.959 . S
C63 H62 0.961 . S
C63 H64 0.960 . S
H64 C63 0.960 . S
H65 N45 0.862 1_554 S
O66 Co34 1.920 . S
O66 C39 1.289 . S
C67 O59 1.258 . S
C67 O60 1.266 . S
Co68 O71 1.970 . S
Co68 N85 1.989 . S
Co68 O93 1.967 . S
Co68 O100 1.920 . S
Co69 O72 1.966 . S
Co69 N78 2.022 . S
Co69 N86 1.993 . S
Co69 O94 1.941 . S
C70 O71 1.258 . S
C70 O72 1.263 . S
O71 Co68 1.970 . S
O71 C70 1.258 . S
O72 Co69 1.966 . S
O72 C70 1.263 . S
C73 O74 1.235 . S
C73 O100 1.289 . S
O74 C73 1.235 . S
C75 C77 1.400 . S
C75 N78 1.351 . S
C75 C80 1.501 . S
C76 C77 1.387 . S
C76 N79 1.341 . S
C77 C75 1.400 . S
C77 C76 1.387 . S
N78 Co69 2.022 . S
N78 C75 1.351 . S
N78 N79 1.365 . S
N79 C76 1.341 . S
N79 N78 1.365 . S
N79 H99 0.862 . S
C80 C75 1.501 . S
C80 H81 0.961 . S
C80 H82 0.961 . S
C80 H83 0.960 . S
H81 C80 0.961 . S
H82 C80 0.961 . S
H83 C80 0.960 . S
C84 N85 1.342 . S
C84 C88 1.401 . S
C84 C89 1.499 . S
N85 Co68 1.989 . S
N85 C84 1.342 . S
N85 N86 1.388 . S
N86 Co69 1.993 . S
N86 N85 1.388 . S
N86 C87 1.346 . S
C87 N86 1.346 . S
C87 C88 1.396 . S
C87 C97 1.510 . S
C88 C84 1.401 . S
C88 C87 1.396 . S
C89 C84 1.499 . S
C89 H90 0.959 . S
C89 H91 0.960 . S
C89 H92 0.961 . S
H90 C89 0.959 . S
H91 C89 0.960 . S
H92 C89 0.961 . S
O93 Co68 1.967 . S
O93 C101 1.258 . S
O94 Co69 1.941 . S
O94 C101 1.266 . S
H95 C97 0.959 . S
H96 C97 0.961 . S
C97 C87 1.510 . S
C97 H95 0.959 . S
C97 H96 0.961 . S
C97 H98 0.960 . S
H98 C97 0.960 . S
H99 N79 0.862 . S
O100 Co68 1.920 . S
O100 C73 1.289 . S
C101 O93 1.258 . S
C101 O94 1.266 . S
Co102 O105 1.970 . S
Co102 N119 1.989 . S
Co102 O127 1.967 . S
Co102 O134 1.920 . S
Co103 O106 1.966 . S
Co103 N112 2.022 1_556 S
Co103 N120 1.993 . S
Co103 O128 1.941 . S
C104 O105 1.258 . S
C104 O106 1.263 . S
O105 Co102 1.970 . S
O105 C104 1.258 . S
O106 Co103 1.966 . S
O106 C104 1.263 . S
C107 O108 1.235 . S
C107 O134 1.289 . S
O108 C107 1.235 . S
C109 C111 1.400 . S
C109 N112 1.351 . S
C109 C114 1.501 . S
C110 C111 1.387 . S
C110 N113 1.341 . S
C111 C109 1.400 . S
C111 C110 1.387 . S
N112 Co103 2.022 1_554 S
N112 C109 1.351 . S
N112 N113 1.365 . S
N113 C110 1.341 . S
N113 N112 1.365 . S
N113 H133 0.862 . S
C114 C109 1.501 . S
C114 H115 0.961 . S
C114 H116 0.961 . S
C114 H117 0.960 . S
H115 C114 0.961 . S
H116 C114 0.961 . S
H117 C114 0.960 . S
C118 N119 1.342 . S
C118 C122 1.401 . S
C118 C123 1.499 . S
N119 Co102 1.989 . S
N119 C118 1.342 . S
N119 N120 1.388 . S
N120 Co103 1.993 . S
N120 N119 1.388 . S
N120 C121 1.346 . S
C121 N120 1.346 . S
C121 C122 1.396 . S
C121 C131 1.510 . S
C122 C118 1.401 . S
C122 C121 1.396 . S
C123 C118 1.499 . S
C123 H124 0.959 . S
C123 H125 0.960 . S
C123 H126 0.961 . S
H124 C123 0.959 . S
H125 C123 0.960 . S
H126 C123 0.961 . S
O127 Co102 1.967 . S
O127 C135 1.258 . S
O128 Co103 1.941 . S
O128 C135 1.266 . S
H129 C131 0.959 . S
H130 C131 0.961 . S
C131 C121 1.510 . S
C131 H129 0.959 . S
C131 H130 0.961 . S
C131 H132 0.960 . S
H132 C131 0.960 . S
H133 N113 0.862 . S
O134 Co102 1.920 . S
O134 C107 1.289 . S
C135 O127 1.258 . S
C135 O128 1.266 . S
Co136 O139 1.970 . S
Co136 N153 1.989 . S
Co136 O161 1.967 . S
Co136 O168 1.920 . S
Co137 O140 1.966 . S
Co137 N146 2.022 . S
Co137 N154 1.993 . S
Co137 O162 1.941 . S
C138 O139 1.258 . S
C138 O140 1.263 . S
O139 Co136 1.970 . S
O139 C138 1.258 . S
O140 Co137 1.966 . S
O140 C138 1.263 . S
C141 O142 1.235 . S
C141 O168 1.289 . S
O142 C141 1.235 . S
C143 C145 1.400 . S
C143 N146 1.351 1_556 S
C143 C148 1.501 . S
C144 C145 1.387 . S
C144 N147 1.341 . S
C145 C143 1.400 . S
C145 C144 1.387 . S
N146 Co137 2.022 . S
N146 C143 1.351 1_554 S
N146 N147 1.365 1_554 S
N147 C144 1.341 . S
N147 N146 1.365 1_556 S
N147 H167 0.862 1_556 S
C148 C143 1.501 . S
C148 H149 0.961 1_556 S
C148 H150 0.961 . S
C148 H151 0.960 . S
H149 C148 0.961 1_554 S
H150 C148 0.961 . S
H151 C148 0.960 . S
C152 N153 1.342 . S
C152 C156 1.401 . S
C152 C157 1.499 . S
N153 Co136 1.989 . S
N153 C152 1.342 . S
N153 N154 1.388 . S
N154 Co137 1.993 . S
N154 N153 1.388 . S
N154 C155 1.346 . S
C155 N154 1.346 . S
C155 C156 1.396 . S
C155 C165 1.510 . S
C156 C152 1.401 . S
C156 C155 1.396 . S
C157 C152 1.499 . S
C157 H158 0.959 . S
C157 H159 0.960 . S
C157 H160 0.961 . S
H158 C157 0.959 . S
H159 C157 0.960 . S
H160 C157 0.961 . S
O161 Co136 1.967 . S
O161 C169 1.258 . S
O162 Co137 1.941 . S
O162 C169 1.266 . S
H163 C165 0.959 . S
H164 C165 0.961 . S
C165 C155 1.510 . S
C165 H163 0.959 . S
C165 H164 0.961 . S
C165 H166 0.960 . S
H166 C165 0.960 . S
H167 N147 0.862 1_554 S
O168 Co136 1.920 . S
O168 C141 1.289 . S
C169 O161 1.258 . S
C169 O162 1.266 . S
Co170 O173 1.970 . S
Co170 N187 1.989 . S
Co170 O195 1.967 . S
Co170 O202 1.920 . S
Co171 O174 1.966 . S
Co171 N180 2.022 . S
Co171 N188 1.993 . S
Co171 O196 1.941 . S
C172 O173 1.258 . S
C172 O174 1.263 . S
O173 Co170 1.970 . S
O173 C172 1.258 . S
O174 Co171 1.966 . S
O174 C172 1.263 . S
C175 O176 1.235 . S
C175 O202 1.289 . S
O176 C175 1.235 . S
C177 C179 1.400 . S
C177 N180 1.351 . S
C177 C182 1.501 . S
C178 C179 1.387 . S
C178 N181 1.341 . S
C179 C177 1.400 . S
C179 C178 1.387 . S
N180 Co171 2.022 . S
N180 C177 1.351 . S
N180 N181 1.365 . S
N181 C178 1.341 . S
N181 N180 1.365 . S
N181 H201 0.862 . S
C182 C177 1.501 . S
C182 H183 0.961 . S
C182 H184 0.961 . S
C182 H185 0.960 . S
H183 C182 0.961 . S
H184 C182 0.961 . S
H185 C182 0.960 . S
C186 N187 1.342 . S
C186 C190 1.401 . S
C186 C191 1.499 . S
N187 Co170 1.989 . S
N187 C186 1.342 . S
N187 N188 1.388 . S
N188 Co171 1.993 . S
N188 N187 1.388 . S
N188 C189 1.346 . S
C189 N188 1.346 . S
C189 C190 1.396 . S
C189 C199 1.510 . S
C190 C186 1.401 . S
C190 C189 1.396 . S
C191 C186 1.499 . S
C191 H192 0.959 . S
C191 H193 0.960 . S
C191 H194 0.961 . S
H192 C191 0.959 . S
H193 C191 0.960 . S
H194 C191 0.961 . S
O195 Co170 1.967 . S
O195 C203 1.258 . S
O196 Co171 1.941 . S
O196 C203 1.266 . S
H197 C199 0.959 . S
H198 C199 0.961 . S
C199 C189 1.510 . S
C199 H197 0.959 . S
C199 H198 0.961 . S
C199 H200 0.960 . S
H200 C199 0.960 . S
H201 N181 0.862 . S
O202 Co170 1.920 . S
O202 C175 1.289 . S
C203 O195 1.258 . S
C203 O196 1.266 . S
Co204 O207 1.970 . S
Co204 N221 1.989 . S
Co204 O229 1.967 . S
Co204 O236 1.920 1_556 S
Co205 O208 1.966 . S
Co205 N214 2.022 . S
Co205 N222 1.993 . S
Co205 O230 1.941 . S
C206 O207 1.258 . S
C206 O208 1.263 . S
O207 Co204 1.970 . S
O207 C206 1.258 . S
O208 Co205 1.966 . S
O208 C206 1.263 . S
C209 O210 1.235 1_554 S
C209 O236 1.289 . S
O210 C209 1.235 1_556 S
C211 C213 1.400 . S
C211 N214 1.351 . S
C211 C216 1.501 . S
C212 C213 1.387 . S
C212 N215 1.341 . S
C213 C211 1.400 . S
C213 C212 1.387 . S
N214 Co205 2.022 . S
N214 C211 1.351 . S
N214 N215 1.365 . S
N215 C212 1.341 . S
N215 N214 1.365 . S
N215 H235 0.862 . S
C216 C211 1.501 . S
C216 H217 0.961 . S
C216 H218 0.961 . S
C216 H219 0.960 . S
H217 C216 0.961 . S
H218 C216 0.961 . S
H219 C216 0.960 . S
C220 N221 1.342 . S
C220 C224 1.401 . S
C220 C225 1.499 . S
N221 Co204 1.989 . S
N221 C220 1.342 . S
N221 N222 1.388 . S
N222 Co205 1.993 . S
N222 N221 1.388 . S
N222 C223 1.346 . S
C223 N222 1.346 . S
C223 C224 1.396 . S
C223 C233 1.510 . S
C224 C220 1.401 . S
C224 C223 1.396 . S
C225 C220 1.499 . S
C225 H226 0.959 . S
C225 H227 0.960 . S
C225 H228 0.961 . S
H226 C225 0.959 . S
H227 C225 0.960 . S
H228 C225 0.961 . S
O229 Co204 1.967 . S
O229 C237 1.258 . S
O230 Co205 1.941 . S
O230 C237 1.266 . S
H231 C233 0.959 . S
H232 C233 0.961 . S
C233 C223 1.510 . S
C233 H231 0.959 . S
C233 H232 0.961 . S
C233 H234 0.960 . S
H234 C233 0.960 . S
H235 N215 0.862 . S
O236 Co204 1.920 1_554 S
O236 C209 1.289 . S
C237 O229 1.258 . S
C237 O230 1.266 . S
Co238 O241 1.970 . S
Co238 N255 1.989 . S
Co238 O263 1.967 . S
Co238 O270 1.920 . S
Co239 O242 1.966 . S
Co239 N248 2.022 . S
Co239 N256 1.993 . S
Co239 O264 1.941 . S
C240 O241 1.258 1_554 S
C240 O242 1.263 . S
O241 Co238 1.970 . S
O241 C240 1.258 1_556 S
O242 Co239 1.966 . S
O242 C240 1.263 . S
C243 O244 1.235 . S
C243 O270 1.289 . S
O244 C243 1.235 . S
C245 C247 1.400 . S
C245 N248 1.351 . S
C245 C250 1.501 . S
C246 C247 1.387 . S
C246 N249 1.341 . S
C247 C245 1.400 . S
C247 C246 1.387 . S
N248 Co239 2.022 . S
N248 C245 1.351 . S
N248 N249 1.365 . S
N249 C246 1.341 . S
N249 N248 1.365 . S
N249 H269 0.862 . S
C250 C245 1.501 . S
C250 H251 0.961 . S
C250 H252 0.961 . S
C250 H253 0.960 . S
H251 C250 0.961 . S
H252 C250 0.961 . S
H253 C250 0.960 . S
C254 N255 1.342 . S
C254 C258 1.401 1_556 S
C254 C259 1.499 . S
N255 Co238 1.989 . S
N255 C254 1.342 . S
N255 N256 1.388 1_556 S
N256 Co239 1.993 . S
N256 N255 1.388 1_554 S
N256 C257 1.346 . S
C257 N256 1.346 . S
C257 C258 1.396 . S
C257 C267 1.510 . S
C258 C254 1.401 1_554 S
C258 C257 1.396 . S
C259 C254 1.499 . S
C259 H260 0.959 . S
C259 H261 0.960 . S
C259 H262 0.961 . S
H260 C259 0.959 . S
H261 C259 0.960 . S
H262 C259 0.961 . S
O263 Co238 1.967 . S
O263 C271 1.258 1_556 S
O264 Co239 1.941 . S
O264 C271 1.266 . S
H265 C267 0.959 . S
H266 C267 0.961 . S
C267 C257 1.510 . S
C267 H265 0.959 . S
C267 H266 0.961 . S
C267 H268 0.960 . S
H268 C267 0.960 . S
H269 N249 0.862 . S
O270 Co238 1.920 . S
O270 C243 1.289 . S
C271 O263 1.258 1_554 S
C271 O264 1.266 . S
C272 C273 1.363 . S
C272 C278 1.379 . S
C272 N280 1.356 . S
C273 C272 1.363 . S
C273 C279 1.363 1_554 S
C274 C275 1.363 1_556 S
C274 C279 1.379 . S
C274 N281 1.356 . S
C275 C274 1.363 1_554 S
C275 C278 1.363 . S
N276 C278 1.356 . S
N276 H288 0.984 . S
N276 H289 0.985 . S
N277 C279 1.356 . S
N277 H282 0.984 . S
N277 H283 0.985 . S
C278 C272 1.379 . S
C278 C275 1.363 . S
C278 N276 1.356 . S
C279 C273 1.363 1_556 S
C279 C274 1.379 . S
C279 N277 1.356 . S
N280 C272 1.356 . S
N280 H286 0.984 . S
N280 H287 0.984 . S
N281 C274 1.356 . S
N281 H284 0.984 . S
N281 H285 0.985 . S
H282 N277 0.984 . S
H283 N277 0.985 . S
H284 N281 0.984 . S
H285 N281 0.985 . S
H286 N280 0.984 . S
H287 N280 0.984 . S
H288 N276 0.984 . S
H289 N276 0.985 . S
C290 C291 1.363 . S
C290 C296 1.379 1_545 S
C290 N298 1.356 . S
C291 C290 1.363 . S
C291 C297 1.363 . S
C292 C293 1.363 1_545 S
C292 C297 1.379 . S
C292 N299 1.356 1_545 S
C293 C292 1.363 1_565 S
C293 C296 1.363 . S
N294 C296 1.356 . S
N294 H306 0.984 . S
N294 H307 0.985 . S
N295 C297 1.356 . S
N295 H300 0.984 . S
N295 H301 0.985 . S
C296 C290 1.379 1_565 S
C296 C293 1.363 . S
C296 N294 1.356 . S
C297 C291 1.363 . S
C297 C292 1.379 . S
C297 N295 1.356 . S
N298 C290 1.356 . S
N298 H304 0.984 . S
N298 H305 0.984 . S
N299 C292 1.356 1_565 S
N299 H302 0.984 . S
N299 H303 0.985 1_565 S
H300 N295 0.984 . S
H301 N295 0.985 . S
H302 N299 0.984 . S
H303 N299 0.985 1_545 S
H304 N298 0.984 . S
H305 N298 0.984 . S
H306 N294 0.984 . S
H307 N294 0.985 . S
C308 C309 1.365 1_455 S
C308 C314 1.379 . S
C308 N316 1.356 . S
C309 C308 1.365 1_655 S
C309 C315 1.363 1_655 S
C310 C311 1.363 1_565 S
C310 C315 1.379 . S
C310 N317 1.356 1_565 S
C311 C310 1.363 1_545 S
C311 C314 1.363 1_545 S
N312 C314 1.356 . S
N312 H324 0.984 . S
N312 H325 0.985 1_565 S
N313 C315 1.356 1_655 S
N313 H318 0.984 . S
N313 H319 0.985 . S
C314 C308 1.379 . S
C314 C311 1.363 1_565 S
C314 N312 1.356 . S
C315 C309 1.363 1_455 S
C315 C310 1.379 . S
C315 N313 1.356 1_455 S
N316 C308 1.356 . S
N316 H322 0.984 . S
N316 H323 0.984 1_455 S
N317 C310 1.356 1_545 S
N317 H320 0.984 . S
N317 H321 0.985 . S
H318 N313 0.984 . S
H319 N313 0.985 . S
H320 N317 0.984 . S
H321 N317 0.985 . S
H322 N316 0.984 . S
H323 N316 0.984 1_655 S
H324 N312 0.984 . S
H325 N312 0.985 1_545 S
C326 C327 1.363 . S
C326 C332 1.379 . S
C326 N334 1.356 . S
C327 C326 1.363 . S
C327 C333 1.363 1_455 S
C328 C329 1.363 . S
C328 C333 1.379 . S
C328 N335 1.356 . S
C329 C328 1.363 . S
C329 C332 1.363 1_655 S
N330 C332 1.352 1_655 S
N330 H342 0.966 1_655 S
N330 H343 1.007 . S
N331 C333 1.356 1_455 S
N331 H336 0.984 . S
N331 H337 0.985 1_455 S
C332 C326 1.379 . S
C332 C329 1.363 1_455 S
C332 N330 1.352 1_455 S
C333 C327 1.363 1_655 S
C333 C328 1.379 . S
C333 N331 1.356 1_655 S
N334 C326 1.356 . S
N334 H340 0.984 . S
N334 H341 0.984 . S
N335 C328 1.356 . S
N335 H338 0.984 . S
N335 H339 0.985 . S
H336 N331 0.984 . S
H337 N331 0.985 1_655 S
H338 N335 0.984 . S
H339 N335 0.985 . S
H340 N334 0.984 . S
H341 N334 0.984 . S
H342 N330 0.966 1_455 S
H343 N330 1.007 . S
C344 C345 1.363 . S
C344 C350 1.379 . S
C344 N352 1.356 . S
C345 C344 1.363 . S
C345 C351 1.363 . S
C346 C347 1.363 . S
C346 C351 1.379 . S
C346 N353 1.356 . S
C347 C346 1.363 . S
C347 C350 1.363 . S
N348 C350 1.356 . S
N348 H360 0.984 . S
N348 H361 0.985 . S
N349 C351 1.356 . S
N349 H354 0.984 . S
N349 H355 0.985 . S
C350 C344 1.379 . S
C350 C347 1.363 . S
C350 N348 1.356 . S
C351 C345 1.363 . S
C351 C346 1.379 . S
C351 N349 1.356 . S
N352 C344 1.356 . S
N352 H358 0.984 . S
N352 H359 0.984 . S
N353 C346 1.356 . S
N353 H356 0.984 . S
N353 H357 0.985 . S
H354 N349 0.984 . S
H355 N349 0.985 . S
H356 N353 0.984 . S
H357 N353 0.985 . S
H358 N352 0.984 . S
H359 N352 0.984 . S
H360 N348 0.984 . S
H361 N348 0.985 . S
C362 C363 1.363 . S
C362 C368 1.379 . S
C362 N370 1.356 . S
C363 C362 1.363 . S
C363 C369 1.363 . S
C364 C365 1.363 . S
C364 C369 1.379 . S
C364 N371 1.356 . S
C365 C364 1.363 . S
C365 C368 1.363 . S
N366 C368 1.356 . S
N366 H378 0.984 . S
N366 H379 0.985 . S
N367 C369 1.356 . S
N367 H372 0.984 . S
N367 H373 0.985 . S
C368 C362 1.379 . S
C368 C365 1.363 . S
C368 N366 1.356 . S
C369 C363 1.363 . S
C369 C364 1.379 . S
C369 N367 1.356 . S
N370 C362 1.356 . S
N370 H376 0.984 . S
N370 H377 0.984 . S
N371 C364 1.356 . S
N371 H374 0.984 . S
N371 H375 0.985 . S
H372 N367 0.984 . S
H373 N367 0.985 . S
H374 N371 0.984 . S
H375 N371 0.985 . S
H376 N370 0.984 . S
H377 N370 0.984 . S
H378 N366 0.984 . S
H379 N366 0.985 . S
C380 C381 1.363 . S
C380 C386 1.379 . S
C380 N388 1.356 1_554 S
C381 C380 1.363 . S
C381 C387 1.363 . S
C382 C383 1.363 . S
C382 C387 1.379 . S
C382 N389 1.356 . S
C383 C382 1.363 . S
C383 C386 1.363 . S
N384 C386 1.356 . S
N384 H396 0.984 . S
N384 H397 0.985 . S
N385 C387 1.356 1_556 S
N385 H390 0.984 . S
N385 H391 0.985 1_556 S
C386 C380 1.379 . S
C386 C383 1.363 . S
C386 N384 1.356 . S
C387 C381 1.363 . S
C387 C382 1.379 . S
C387 N385 1.356 1_554 S
N388 C380 1.356 1_556 S
N388 H394 0.984 . S
N388 H395 0.984 . S
N389 C382 1.356 . S
N389 H392 0.984 . S
N389 H393 0.985 . S
H390 N385 0.984 . S
H391 N385 0.985 1_554 S
H392 N389 0.984 . S
H393 N389 0.985 . S
H394 N388 0.984 . S
H395 N388 0.984 . S
H396 N384 0.984 . S
H397 N384 0.985 . S
C398 C399 1.363 . S
C398 C404 1.379 . S
C398 N406 1.356 . S
C399 C398 1.363 . S
C399 C405 1.363 . S
C400 C401 1.363 . S
C400 C405 1.379 . S
C400 N407 1.356 . S
C401 C400 1.363 . S
C401 C404 1.363 . S
N402 C404 1.356 . S
N402 H414 0.984 . S
N402 H415 0.985 . S
N403 C405 1.356 . S
N403 H408 0.984 . S
N403 H409 0.985 . S
C404 C398 1.379 . S
C404 C401 1.363 . S
C404 N402 1.356 . S
C405 C399 1.363 . S
C405 C400 1.379 . S
C405 N403 1.356 . S
N406 C398 1.356 . S
N406 H412 0.984 . S
N406 H413 0.984 . S
N407 C400 1.356 . S
N407 H410 0.984 . S
N407 H411 0.985 . S
H408 N403 0.984 . S
H409 N403 0.985 . S
H410 N407 0.984 . S
H411 N407 0.985 . S
H412 N406 0.984 . S
H413 N406 0.984 . S
H414 N402 0.984 . S
H415 N402 0.985 . S
C416 C417 1.363 . S
C416 C422 1.379 . S
C416 N424 1.356 . S
C417 C416 1.363 . S
C417 C423 1.363 . S
C418 C419 1.363 . S
C418 C423 1.379 . S
C418 N425 1.356 . S
C419 C418 1.363 . S
C419 C422 1.363 . S
N420 C422 1.356 . S
N420 H432 0.984 . S
N420 H433 0.985 . S
N421 C423 1.356 . S
N421 H426 0.984 . S
N421 H427 0.985 . S
C422 C416 1.379 . S
C422 C419 1.363 . S
C422 N420 1.356 . S
C423 C417 1.363 . S
C423 C418 1.379 . S
C423 N421 1.356 . S
N424 C416 1.356 . S
N424 H430 0.984 . S
N424 H431 0.984 . S
N425 C418 1.356 . S
N425 H428 0.984 . S
N425 H429 0.985 . S
H426 N421 0.984 . S
H427 N421 0.985 . S
H428 N425 0.984 . S
H429 N425 0.985 . S
H430 N424 0.984 . S
H431 N424 0.984 . S
H432 N420 0.984 . S
H433 N420 0.985 . S
C434 C435 1.363 . S
C434 C440 1.379 1_554 S
C434 N442 1.356 . S
C435 C434 1.363 . S
C435 C441 1.363 1_554 S
C436 C437 1.363 . S
C436 C441 1.379 . S
C436 N443 1.356 . S
C437 C436 1.363 . S
C437 C440 1.363 . S
N438 C440 1.356 . S
N438 H450 0.984 . S
N438 H451 0.985 . S
N439 C441 1.356 1_554 S
N439 H444 0.984 . S
N439 H445 0.985 1_554 S
C440 C434 1.379 1_556 S
C440 C437 1.363 . S
C440 N438 1.356 . S
C441 C435 1.363 1_556 S
C441 C436 1.379 . S
C441 N439 1.356 1_556 S
N442 C434 1.356 . S
N442 H448 0.984 . S
N442 H449 0.984 . S
N443 C436 1.356 . S
N443 H446 0.984 . S
N443 H447 0.985 . S
H444 N439 0.984 . S
H445 N439 0.985 1_556 S
H446 N443 0.984 . S
H447 N443 0.985 . S
H448 N442 0.984 . S
H449 N442 0.984 . S
H450 N438 0.984 . S
H451 N438 0.985 . S
C452 C453 1.363 . S
C452 C458 1.379 . S
C452 N460 1.356 . S
C453 C452 1.363 . S
C453 C459 1.363 . S
C454 C455 1.363 . S
C454 C459 1.379 . S
C454 N461 1.356 . S
C455 C454 1.363 . S
C455 C458 1.363 . S
N456 C458 1.356 . S
N456 H468 0.984 . S
N456 H469 0.985 . S
N457 C459 1.356 . S
N457 H462 0.984 . S
N457 H463 0.985 . S
C458 C452 1.379 . S
C458 C455 1.363 . S
C458 N456 1.356 . S
C459 C453 1.363 . S
C459 C454 1.379 . S
C459 N457 1.356 . S
N460 C452 1.356 . S
N460 H466 0.984 . S
N460 H467 0.984 . S
N461 C454 1.356 . S
N461 H464 0.984 . S
N461 H465 0.985 . S
H462 N457 0.984 . S
H463 N457 0.985 . S
H464 N461 0.984 . S
H465 N461 0.985 . S
H466 N460 0.984 . S
H467 N460 0.984 . S
H468 N456 0.984 . S
H469 N456 0.985 . S
C470 C471 1.363 . S
C470 C476 1.379 . S
C470 N478 1.356 . S
C471 C470 1.363 . S
C471 C477 1.363 . S
C472 C473 1.363 . S
C472 C477 1.379 . S
C472 N479 1.356 . S
C473 C472 1.363 . S
C473 C476 1.363 . S
N474 C476 1.356 . S
N474 H486 0.984 . S
N474 H487 0.985 . S
N475 C477 1.356 . S
N475 H480 0.984 . S
N475 H481 0.985 . S
C476 C470 1.379 . S
C476 C473 1.363 . S
C476 N474 1.356 . S
C477 C471 1.363 . S
C477 C472 1.379 . S
C477 N475 1.356 . S
N478 C470 1.356 . S
N478 H484 0.984 . S
N478 H485 0.984 . S
N479 C472 1.356 . S
N479 H482 0.984 . S
N479 H483 0.985 . S
H480 N475 0.984 . S
H481 N475 0.985 . S
H482 N479 0.984 . S
H483 N479 0.985 . S
H484 N478 0.984 . S
H485 N478 0.984 . S
H486 N474 0.984 . S
H487 N474 0.985 . S
C488 C489 1.363 . S
C488 C494 1.379 . S
C488 N496 1.356 . S
C489 C488 1.363 . S
C489 C495 1.363 . S
C490 C491 1.363 . S
C490 C495 1.379 . S
C490 N497 1.356 1_556 S
C491 C490 1.363 . S
C491 C494 1.363 . S
N492 C494 1.356 . S
N492 H504 0.984 . S
N492 H505 0.985 . S
N493 C495 1.356 . S
N493 H498 0.984 . S
N493 H499 0.985 . S
C494 C488 1.379 . S
C494 C491 1.363 . S
C494 N492 1.356 . S
C495 C489 1.363 . S
C495 C490 1.379 . S
C495 N493 1.356 . S
N496 C488 1.356 . S
N496 H502 0.984 . S
N496 H503 0.984 . S
N497 C490 1.356 1_554 S
N497 H500 0.984 . S
N497 H501 0.985 . S
H498 N493 0.984 . S
H499 N493 0.985 . S
H500 N497 0.984 . S
H501 N497 0.985 . S
H502 N496 0.984 . S
H503 N496 0.984 . S
H504 N492 0.984 . S
H505 N492 0.985 . S
C506 C507 1.363 . S
C506 C512 1.379 . S
C506 N514 1.356 . S
C507 C506 1.363 . S
C507 C513 1.363 . S
C508 C509 1.363 . S
C508 C513 1.379 . S
C508 N515 1.356 . S
C509 C508 1.363 . S
C509 C512 1.363 . S
N510 C512 1.356 . S
N510 H522 0.984 . S
N510 H523 0.985 . S
N511 C513 1.356 . S
N511 H516 0.984 . S
N511 H517 0.985 . S
C512 C506 1.379 . S
C512 C509 1.363 . S
C512 N510 1.356 . S
C513 C507 1.363 . S
C513 C508 1.379 . S
C513 N511 1.356 . S
N514 C506 1.356 . S
N514 H520 0.984 . S
N514 H521 0.984 . S
N515 C508 1.356 . S
N515 H518 0.984 . S
N515 H519 0.985 . S
H516 N511 0.984 . S
H517 N511 0.985 . S
H518 N515 0.984 . S
H519 N515 0.985 . S
H520 N514 0.984 . S
H521 N514 0.984 . S
H522 N510 0.984 . S
H523 N510 0.985 . S
C524 C525 1.363 . S
C524 C530 1.379 . S
C524 N532 1.356 . S
C525 C524 1.363 . S
C525 C531 1.363 . S
C526 C527 1.363 . S
C526 C531 1.379 . S
C526 N533 1.356 . S
C527 C526 1.363 . S
C527 C530 1.363 . S
N528 C530 1.356 . S
N528 H540 0.984 . S
N528 H541 0.985 . S
N529 C531 1.356 . S
N529 H534 0.984 . S
N529 H535 0.985 . S
C530 C524 1.379 . S
C530 C527 1.363 . S
C530 N528 1.356 . S
C531 C525 1.363 . S
C531 C526 1.379 . S
C531 N529 1.356 . S
N532 C524 1.356 . S
N532 H538 0.984 . S
N532 H539 0.984 . S
N533 C526 1.356 . S
N533 H536 0.984 . S
N533 H537 0.985 . S
H534 N529 0.984 . S
H535 N529 0.985 . S
H536 N533 0.984 . S
H537 N533 0.985 . S
H538 N532 0.984 . S
H539 N532 0.984 . S
H540 N528 0.984 . S
H541 N528 0.985 . S
C542 C543 1.363 . S
C542 C548 1.379 . S
C542 N550 1.356 . S
C543 C542 1.363 . S
C543 C549 1.363 . S
C544 C545 1.363 . S
C544 C549 1.379 . S
C544 N551 1.356 . S
C545 C544 1.363 . S
C545 C548 1.363 . S
N546 C548 1.356 . S
N546 H558 0.984 . S
N546 H559 0.985 . S
N547 C549 1.356 . S
N547 H552 0.984 . S
N547 H553 0.985 . S
C548 C542 1.379 . S
C548 C545 1.363 . S
C548 N546 1.356 . S
C549 C543 1.363 . S
C549 C544 1.379 . S
C549 N547 1.356 . S
N550 C542 1.356 . S
N550 H556 0.984 . S
N550 H557 0.984 . S
N551 C544 1.356 . S
N551 H554 0.984 . S
N551 H555 0.985 . S
H552 N547 0.984 . S
H553 N547 0.985 . S
H554 N551 0.984 . S
H555 N551 0.985 . S
H556 N550 0.984 . S
H557 N550 0.984 . S
H558 N546 0.984 . S
H559 N546 0.985 . S
C560 C561 1.363 . S
C560 C566 1.379 . S
C560 N568 1.356 . S
C561 C560 1.363 . S
C561 C567 1.363 . S
C562 C563 1.363 . S
C562 C567 1.379 . S
C562 N569 1.356 . S
C563 C562 1.363 . S
C563 C566 1.363 . S
N564 C566 1.356 . S
N564 H576 0.984 . S
N564 H577 0.985 . S
N565 C567 1.356 . S
N565 H570 0.984 . S
N565 H571 0.985 . S
C566 C560 1.379 . S
C566 C563 1.363 . S
C566 N564 1.356 . S
C567 C561 1.363 . S
C567 C562 1.379 . S
C567 N565 1.356 . S
N568 C560 1.356 . S
N568 H574 0.984 . S
N568 H575 0.984 . S
N569 C562 1.356 . S
N569 H572 0.984 . S
N569 H573 0.985 . S
H570 N565 0.984 . S
H571 N565 0.985 . S
H572 N569 0.984 . S
H573 N569 0.985 . S
H574 N568 0.984 . S
H575 N568 0.984 . S
H576 N564 0.984 . S
H577 N564 0.985 . S
C578 C579 1.363 . S
C578 C584 1.379 . S
C578 N586 1.356 . S
C579 C578 1.363 . S
C579 C585 1.363 . S
C580 C581 1.363 . S
C580 C585 1.379 . S
C580 N587 1.356 . S
C581 C580 1.363 . S
C581 C584 1.363 . S
N582 C584 1.356 . S
N582 H594 0.984 . S
N582 H595 0.985 . S
N583 C585 1.356 . S
N583 H588 0.984 . S
N583 H589 0.985 . S
C584 C578 1.379 . S
C584 C581 1.363 . S
C584 N582 1.356 . S
C585 C579 1.363 . S
C585 C580 1.379 . S
C585 N583 1.356 . S
N586 C578 1.356 . S
N586 H592 0.984 . S
N586 H593 0.984 . S
N587 C580 1.356 . S
N587 H590 0.984 . S
N587 H591 0.985 . S
H588 N583 0.984 . S
H589 N583 0.985 . S
H590 N587 0.984 . S
H591 N587 0.985 . S
H592 N586 0.984 . S
H593 N586 0.984 . S
H594 N582 0.984 . S
H595 N582 0.985 . S
C596 C597 1.363 . S
C596 C602 1.379 . S
C596 N604 1.356 . S
C597 C596 1.363 . S
C597 C603 1.363 . S
C598 C599 1.363 . S
C598 C603 1.379 . S
C598 N605 1.356 . S
C599 C598 1.363 . S
C599 C602 1.363 . S
N600 C602 1.356 . S
N600 H612 0.984 . S
N600 H613 0.985 . S
N601 C603 1.356 1_554 S
N601 H606 0.984 . S
N601 H607 0.985 . S
C602 C596 1.379 . S
C602 C599 1.363 . S
C602 N600 1.356 . S
C603 C597 1.363 . S
C603 C598 1.379 . S
C603 N601 1.356 1_556 S
N604 C596 1.356 . S
N604 H610 0.984 . S
N604 H611 0.984 . S
N605 C598 1.356 . S
N605 H608 0.984 . S
N605 H609 0.985 . S
H606 N601 0.984 . S
H607 N601 0.985 . S
H608 N605 0.984 . S
H609 N605 0.985 . S
H610 N604 0.984 . S
H611 N604 0.984 . S
H612 N600 0.984 . S
H613 N600 0.985 . S
C614 C615 1.363 . S
C614 C620 1.379 . S
C614 N622 1.356 . S
C615 C614 1.363 . S
C615 C621 1.363 . S
C616 C617 1.363 . S
C616 C621 1.379 . S
C616 N623 1.356 . S
C617 C616 1.363 . S
C617 C620 1.363 . S
N618 C620 1.356 . S
N618 H630 0.984 . S
N618 H631 0.985 . S
N619 C621 1.356 . S
N619 H624 0.984 . S
N619 H625 0.985 . S
C620 C614 1.379 . S
C620 C617 1.363 . S
C620 N618 1.356 . S
C621 C615 1.363 . S
C621 C616 1.379 . S
C621 N619 1.356 . S
N622 C614 1.356 . S
N622 H628 0.984 . S
N622 H629 0.984 . S
N623 C616 1.356 . S
N623 H626 0.984 . S
N623 H627 0.985 . S
H624 N619 0.984 . S
H625 N619 0.985 . S
H626 N623 0.984 . S
H627 N623 0.985 . S
H628 N622 0.984 . S
H629 N622 0.984 . S
H630 N618 0.984 . S
H631 N618 0.985 . S
C273 C258 1.471 . S
C275 C20 1.472 . S
C291 C156 1.524 . S
C293 C54 1.517 . S
C309 C190 1.617 . S
C311 C88 1.615 . S
C327 C224 1.552 . S
C329 C122 1.534 . S
C345 C5 1.417 . S
C347 C9 1.426 . S
C363 C43 1.354 . S
C365 C39 1.356 . S
C381 C77 1.425 1_554 S
C383 C73 1.412 . S
C399 C111 1.495 . S
C401 C107 1.468 . S
C417 C145 1.476 . S
C419 C141 1.450 . S
C435 C179 1.494 . S
C437 C175 1.469 . S
C453 C213 1.363 . S
C455 C209 1.364 . S
C471 C243 1.364 . S
C473 C247 1.363 . S
C489 C237 1.533 . S
C491 C2 1.526 1_556 S
C507 C36 1.498 . S
C509 C240 1.499 . S
C525 C169 1.688 . S
C527 C101 1.670 . S
C543 C135 1.691 . S
C545 C203 1.685 . S
C561 C172 1.713 . S
C563 C67 1.716 . S
C579 C70 1.696 . S
C581 C206 1.695 . S
C597 C271 1.629 1_556 S
C599 C104 1.626 . S
C615 C33 1.663 . S
C617 C138 1.653 . S
