# Generated by pormake.
# Topology wiv, (6)-cn, num edge types: 1
# Building blocks:
#     Node 0, Type 0, BuildingBlock: BETFEN_clean_sbu_0, # of connection points: 6
#     Node 1, Type 0, BuildingBlock: BETFEN_clean_sbu_0, # of connection points: 6
#     Node 2, Type 0, BuildingBlock: BETFEN_clean_sbu_0, # of connection points: 6
#     Node 3, Type 0, BuildingBlock: BETFEN_clean_sbu_0, # of connection points: 6
#     Node 4, Type 0, BuildingBlock: BETFEN_clean_sbu_0, # of connection points: 6
#     Node 5, Type 0, BuildingBlock: BETFEN_clean_sbu_0, # of connection points: 6
#     Node 6, Type 0, BuildingBlock: BETFEN_clean_sbu_0, # of connection points: 6
#     Node 7, Type 0, BuildingBlock: BETFEN_clean_sbu_0, # of connection points: 6
#     Node 8, Type 0, BuildingBlock: BETFEN_clean_sbu_0, # of connection points: 6
#     Node 9, Type 0, BuildingBlock: BETFEN_clean_sbu_0, # of connection points: 6
#     Node 10, Type 0, BuildingBlock: BETFEN_clean_sbu_0, # of connection points: 6
#     Node 11, Type 0, BuildingBlock: BETFEN_clean_sbu_0, # of connection points: 6
#     Node 12, Type 0, BuildingBlock: BETFEN_clean_sbu_0, # of connection points: 6
#     Node 13, Type 0, BuildingBlock: BETFEN_clean_sbu_0, # of connection points: 6
#     Node 14, Type 0, BuildingBlock: BETFEN_clean_sbu_0, # of connection points: 6
#     Node 15, Type 0, BuildingBlock: BETFEN_clean_sbu_0, # of connection points: 6
#     Edge 16, Type (0, 0), None
#     Edge 17, Type (0, 0), None
#     Edge 18, Type (0, 0), None
#     Edge 19, Type (0, 0), None
#     Edge 20, Type (0, 0), None
#     Edge 21, Type (0, 0), None
#     Edge 22, Type (0, 0), None
#     Edge 23, Type (0, 0), None
#     Edge 24, Type (0, 0), None
#     Edge 25, Type (0, 0), None
#     Edge 26, Type (0, 0), None
#     Edge 27, Type (0, 0), None
#     Edge 28, Type (0, 0), None
#     Edge 29, Type (0, 0), None
#     Edge 30, Type (0, 0), None
#     Edge 31, Type (0, 0), None
#     Edge 32, Type (0, 0), None
#     Edge 33, Type (0, 0), None
#     Edge 34, Type (0, 0), None
#     Edge 35, Type (0, 0), None
#     Edge 36, Type (0, 0), None
#     Edge 37, Type (0, 0), None
#     Edge 38, Type (0, 0), None
#     Edge 39, Type (0, 0), None
#     Edge 40, Type (0, 0), None
#     Edge 41, Type (0, 0), None
#     Edge 42, Type (0, 0), None
#     Edge 43, Type (0, 0), None
#     Edge 44, Type (0, 0), None
#     Edge 45, Type (0, 0), None
#     Edge 46, Type (0, 0), None
#     Edge 47, Type (0, 0), None
#     Edge 48, Type (0, 0), None
#     Edge 49, Type (0, 0), None
#     Edge 50, Type (0, 0), None
#     Edge 51, Type (0, 0), None
#     Edge 52, Type (0, 0), None
#     Edge 53, Type (0, 0), None
#     Edge 54, Type (0, 0), None
#     Edge 55, Type (0, 0), None
#     Edge 56, Type (0, 0), None
#     Edge 57, Type (0, 0), None
#     Edge 58, Type (0, 0), None
#     Edge 59, Type (0, 0), None
#     Edge 60, Type (0, 0), None
#     Edge 61, Type (0, 0), None
#     Edge 62, Type (0, 0), None
#     Edge 63, Type (0, 0), None
# Relax obj value: 0.347
# Max RMSD: 0.335
# Mean RMSD: 0.335
data_MOF--net-wiv--node1-BETFEN_clean_sbu_0--edge1-none
_symmetry_space_group_name_H-M    P1
_symmetry_Int_Tables_number       1
_symmetry_cell_setting            triclinic
loop_
_symmetry_equiv_pos_as_xyz
'x, y, z'
_cell_length_a     19.731826
_cell_length_b     19.742784
_cell_length_c     15.292735
_cell_angle_alpha  90.006784
_cell_angle_beta   90.002712
_cell_angle_gamma 89.740378
loop_
_atom_site_label
_atom_site_type_symbol
_atom_site_fract_x
_atom_site_fract_y
_atom_site_fract_z
_atom_type_partial_charge
Pr0 Pr 0.10225 -0.02427 0.26461 0.0
Pr1 Pr 0.2435 -0.02168 0.14366 0.0
C2 C 0.02392 -0.03891 0.40214 0.0
C3 C 0.03475 -0.07186 0.48305 0.0
C4 C -0.00108 -0.04866 0.55052 0.0
C5 C 0.02604 -0.0325 0.63186 0.0
C6 C 0.10853 -0.03334 0.64288 0.0
C7 C 0.13601 -0.07509 0.5632 0.0
C8 C 0.09683 0.90312 0.49294 0.0
C9 C 0.11008 0.11941 0.21738 0.0
C10 C 0.26141 0.11043 0.34477 0.0
C11 C 0.30512 0.01357 0.9935 0.0
C12 C 0.27223 0.02525 0.90832 0.0
C13 C 0.29241 -0.0153 0.84283 0.0
C14 C 0.24804 -0.0291 0.77697 0.0
C15 C 0.17304 -0.00338 0.76195 0.0
C16 C 0.16251 0.04562 0.83247 0.0
C17 C 0.21305 0.06325 0.89591 0.0
C18 C 0.2299 0.8177 0.25057 0.0
C19 C 0.13426 0.89945 0.99563 0.0
O20 O 0.01184 -0.07412 0.33166 0.0
O21 O 0.07035 0.00702 0.39329 0.0
O22 O 0.16672 0.0834 0.23458 0.0
O23 O 0.05428 0.08254 0.21918 0.0
O24 O 0.23061 0.08176 0.27214 0.0
O25 O 0.21123 0.07894 0.29466 0.0
O26 O 0.29429 0.05703 1.05435 0.0
O27 O 0.3062 -0.04838 1.02344 0.0
O28 O 0.19131 0.86534 0.20393 0.0
O29 O 0.19715 0.8619 0.20766 0.0
O30 O 0.15002 0.89534 0.0855 0.0
O31 O 0.16023 0.89525 1.07424 0.0
H32 H -0.0516 -0.04625 0.53253 0.0
H33 H -0.00822 -0.01686 0.68121 0.0
H34 H 0.12634 -0.04722 0.61539 0.0
H35 H 0.13574 0.8806 0.53271 0.0
H36 H 0.33909 -0.04427 0.84788 0.0
H37 H 0.26838 -0.07199 0.74059 0.0
H38 H 0.12279 0.08188 0.82715 0.0
H39 H 0.20727 0.10833 0.93494 0.0
Pr40 Pr -0.02113 0.57035 1.01761 0.0
Pr41 Pr -0.02396 0.71205 0.89677 0.0
C42 C 0.01399 0.50828 0.16806 0.0
C43 C 0.02634 0.5407 0.25343 0.0
C44 C -0.01426 0.52109 0.31909 0.0
C45 C -0.02842 0.56593 0.38455 0.0
C46 C -0.0025 0.64059 0.39938 0.0
C47 C 0.04675 0.65032 0.32898 0.0
C48 C 0.06435 0.59952 0.26565 0.0
C49 C 0.81867 0.58287 0.9105 0.0
C50 C 0.89616 0.68132 0.16395 0.0
C51 C -0.03805 0.79164 0.75979 0.0
C52 C -0.07002 0.78029 0.67839 0.0
C53 C -0.0479 0.81602 0.61046 0.0
C54 C -0.03213 0.78833 0.52901 0.0
C55 C -0.03249 0.70576 0.51841 0.0
C56 C -0.07364 0.67891 0.59836 0.0
C57 C 0.90548 0.71823 0.66897 0.0
C58 C 0.11988 0.7024 0.94438 0.0
C59 C 0.11085 0.55085 0.81651 0.0
O60 O 0.05734 0.51815 0.10687 0.0
O61 O -0.04806 0.50879 0.13848 0.0
O62 O 0.86552 0.62215 0.95727 0.0
O63 O 0.86215 0.61573 0.95354 0.0
O64 O 0.89486 0.66523 1.07417 0.0
O65 O 0.89518 0.65536 0.0851 0.0
O66 O -0.07447 0.80266 0.82962 0.0
O67 O 0.00846 0.74553 0.76942 0.0
O68 O 0.08372 0.64634 0.92656 0.0
O69 O 0.08315 0.75862 0.94275 0.0
O70 O 0.0823 0.58251 0.88876 0.0
O71 O 0.07939 0.60221 0.86553 0.0
H72 H -0.04322 0.47467 0.31421 0.0
H73 H -0.07152 0.54636 0.42087 0.0
H74 H 0.0832 0.68954 0.33426 0.0
H75 H 0.10936 0.60486 0.22644 0.0
H76 H -0.04892 0.8669 0.62734 0.0
H77 H -0.01972 0.82277 0.47838 0.0
H78 H -0.04588 0.68807 0.54581 0.0
H79 H 0.88224 0.6801 0.62906 0.0
Pr80 Pr 0.71057 0.83581 0.2647 0.0
Pr81 Pr 0.56931 0.83321 0.14374 0.0
C82 C 0.78895 0.85045 0.4022 0.0
C83 C 0.77809 0.88334 0.48315 0.0
C84 C 0.8139 0.86012 0.55062 0.0
C85 C 0.78679 0.84403 0.63197 0.0
C86 C 0.7043 0.84487 0.64297 0.0
C87 C 0.67681 0.88657 0.56327 0.0
C88 C 0.716 -0.09166 0.49302 0.0
C89 C 0.70269 0.69212 0.21741 0.0
C90 C 0.5514 0.70116 0.34489 0.0
C91 C 0.50768 0.79797 0.99358 0.0
C92 C 0.5406 0.78632 0.90841 0.0
C93 C 0.52043 0.82688 0.84294 0.0
C94 C 0.5648 0.84067 0.77709 0.0
C95 C 0.6398 0.81494 0.76207 0.0
C96 C 0.65032 0.76594 0.83258 0.0
C97 C 0.59978 0.74831 0.896 0.0
C98 C 0.58293 -0.00614 0.25056 0.0
C99 C 0.67854 -0.08805 0.99567 0.0
O100 O 0.80095 0.88573 0.33177 0.0
O101 O 0.74257 0.80448 0.3933 0.0
O102 O 0.64606 0.72815 0.23463 0.0
O103 O 0.75849 0.72899 0.21924 0.0
O104 O 0.5822 0.72982 0.27227 0.0
O105 O 0.60158 0.73265 0.2948 0.0
O106 O 0.51852 0.7545 1.05441 0.0
O107 O 0.50657 0.85992 1.02356 0.0
O108 O 0.62152 -0.0538 0.20396 0.0
O109 O 0.61568 -0.05036 0.20769 0.0
O110 O 0.66281 -0.08382 0.08554 0.0
O111 O 0.65257 -0.08374 1.07427 0.0
H112 H 0.86441 0.85767 0.53262 0.0
H113 H 0.82105 0.8284 0.68133 0.0
H114 H 0.6865 0.85872 0.61547 0.0
H115 H 0.67706 -0.06916 0.53278 0.0
H116 H 0.47374 0.85586 0.84799 0.0
H117 H 0.54447 0.88356 0.74069 0.0
H118 H 0.69005 0.72968 0.82726 0.0
H119 H 0.60555 0.70323 0.93501 0.0
Pr120 Pr 0.83387 0.24119 1.01754 0.0
Pr121 Pr 0.83675 0.0995 0.89665 0.0
C122 C 0.79872 0.30322 0.16801 0.0
C123 C 0.78641 0.27078 0.25336 0.0
C124 C 0.82701 0.29041 0.31902 0.0
C125 C 0.84117 0.24559 0.38448 0.0
C126 C 0.81529 0.17091 0.3993 0.0
C127 C 0.76603 0.16116 0.3289 0.0
C128 C 0.74842 0.21195 0.26557 0.0
C129 C -0.00589 0.22867 0.91055 0.0
C130 C -0.08357 0.13026 0.16395 0.0
C131 C 0.85088 0.01994 0.75965 0.0
C132 C 0.88287 0.03127 0.67826 0.0
C133 C 0.86074 -0.00447 0.61033 0.0
C134 C 0.84494 0.02319 0.52889 0.0
C135 C 0.84529 0.10576 0.5183 0.0
C136 C 0.88645 0.13263 0.59826 0.0
C137 C -0.09264 0.09333 0.66885 0.0
C138 C 0.6929 0.10914 0.94421 0.0
C139 C 0.70195 0.26069 0.81634 0.0
O140 O 0.75537 0.29332 0.10683 0.0
O141 O 0.86076 0.30278 0.13842 0.0
O142 O -0.05275 0.18939 0.95727 0.0
O143 O -0.04939 0.1958 0.95354 0.0
O144 O -0.08213 0.14634 1.07416 0.0
O145 O -0.08244 0.15623 0.08511 0.0
O146 O 0.88728 0.00889 0.82949 0.0
O147 O 0.80438 0.06606 0.76926 0.0
O148 O 0.72906 0.1652 0.92642 0.0
O149 O 0.72964 0.05292 0.94258 0.0
O150 O 0.7305 0.22903 0.8886 0.0
O151 O 0.73341 0.20933 0.86537 0.0
H152 H 0.85595 0.33684 0.31415 0.0
H153 H 0.88426 0.26519 0.42081 0.0
H154 H 0.7296 0.12193 0.33418 0.0
H155 H 0.70341 0.20659 0.22636 0.0
H156 H 0.86177 -0.05534 0.62721 0.0
H157 H 0.8325 -0.01126 0.47826 0.0
H158 H 0.85869 0.12345 0.54571 0.0
H159 H -0.06941 0.13147 0.62895 0.0
Pr160 Pr 0.09998 0.33714 0.14679 0.0
Pr161 Pr 0.2419 0.33409 0.26737 0.0
C162 C 0.01904 0.35066 1.01053 0.0
C163 C 0.031 0.38134 0.92842 0.0
C164 C -0.00466 0.35927 0.86032 0.0
C165 C 0.02321 0.34384 0.77879 0.0
C166 C 0.1059 0.34423 0.76839 0.0
C167 C 0.13256 0.38504 0.84857 0.0
C168 C 0.09324 0.40544 0.91936 0.0
C169 C 0.10963 0.19315 0.19419 0.0
C170 C 0.26076 0.2022 1.06595 0.0
C171 C 0.30399 0.29887 0.41796 0.0
C172 C 0.27161 0.28609 0.50339 0.0
C173 C 0.29102 0.3266 0.5693 0.0
C174 C 0.246 0.34057 0.63472 0.0
C175 C 0.17138 0.31439 0.64941 0.0
C176 C 0.16199 0.26507 0.57897 0.0
C177 C 0.21291 0.24782 0.51553 0.0
C178 C 0.22983 0.49401 0.15986 0.0
C179 C 0.13058 0.41801 0.41338 0.0
O180 O 0.00965 0.38833 1.07956 0.0
O181 O 0.06427 0.30349 1.02098 0.0
O182 O 0.16576 0.22925 0.17647 0.0
O183 O 0.05344 0.22996 0.19281 0.0
O184 O 0.22946 0.23078 0.13846 0.0
O185 O 0.20967 0.23372 0.11524 0.0
O186 O 0.29442 0.25568 0.3565 0.0
O187 O 0.30312 0.36093 0.38866 0.0
O188 O 0.19052 0.44745 0.20701 0.0
O189 O 0.19686 0.45079 0.20321 0.0
O190 O 0.14688 0.41826 0.32369 0.0
O191 O 0.15658 0.41788 0.33449 0.0
H192 H -0.05562 0.3613 0.87667 0.0
H193 H -0.01127 0.33219 0.72777 0.0
H194 H 0.12353 0.3574 0.79576 0.0
H195 H 0.13112 0.42894 0.87935 0.0
H196 H 0.33735 0.35574 0.56456 0.0
H197 H 0.26531 0.38376 0.67105 0.0
H198 H 0.12297 0.2284 0.58414 0.0
H199 H 0.20767 0.20294 0.47607 0.0
Pr200 Pr 0.33458 0.56855 0.89392 0.0
Pr201 Pr 0.33741 0.70994 1.01481 0.0
C202 C 0.29919 0.5069 0.74367 0.0
C203 C 0.28705 0.53969 0.65842 0.0
C204 C 0.32749 0.51964 0.59269 0.0
C205 C 0.34122 0.56414 0.52691 0.0
C206 C 0.31532 0.63905 0.512 0.0
C207 C 0.26619 0.6493 0.5825 0.0
C208 C 0.24885 0.59875 0.64609 0.0
C209 C 0.49514 0.5817 1.00093 0.0
C210 C 0.41489 0.67828 0.74629 0.0
C211 C 0.35158 0.7889 0.152 0.0
C212 C 0.38362 0.77766 0.23344 0.0
C213 C 0.36004 0.81329 0.30088 0.0
C214 C 0.34412 0.78617 0.38221 0.0
C215 C 0.34519 0.7037 0.39306 0.0
C216 C 0.38688 0.67637 0.31329 0.0
C217 C 0.40858 0.71559 0.24308 0.0
C218 C 0.19361 0.70199 0.96746 0.0
C219 C 0.20223 0.5512 0.09526 0.0
O220 O 0.25585 0.51746 0.80478 0.0
O221 O 0.36124 0.50619 0.77335 0.0
O222 O 0.44771 0.62055 0.95428 0.0
O223 O 0.45109 0.61453 0.95797 0.0
O224 O 0.41788 0.66219 0.83607 0.0
O225 O 0.41785 0.65217 0.82497 0.0
O226 O 0.38776 0.79995 0.08211 0.0
O227 O 0.30515 0.7431 0.14257 0.0
O228 O 0.22969 0.6455 0.98506 0.0
O229 O 0.23046 0.75778 0.96917 0.0
O230 O 0.23112 0.58165 1.0225 0.0
O231 O 0.23408 0.6012 1.04536 0.0
H232 H 0.3566 0.47305 0.59761 0.0
H233 H 0.38423 0.544 0.49053 0.0
H234 H 0.22969 0.68879 0.57717 0.0
H235 H 0.20385 0.60445 0.68534 0.0
H236 H 0.35697 0.86364 0.28283 0.0
H237 H 0.32778 0.8203 0.4314 0.0
H238 H 0.359 0.68597 0.36561 0.0
H239 H 0.43094 0.67662 0.28284 0.0
Pr240 Pr 0.71282 0.47438 0.14665 0.0
Pr241 Pr 0.57088 0.47749 0.26724 0.0
C242 C 0.79378 0.4608 1.01043 0.0
C243 C 0.78177 0.43018 0.92827 0.0
C244 C 0.81742 0.45229 0.86019 0.0
C245 C 0.78956 0.46772 0.77867 0.0
C246 C 0.70686 0.46733 0.76827 0.0
C247 C 0.6802 0.42651 0.84843 0.0
C248 C 0.71951 0.40611 0.91922 0.0
C249 C 0.70314 0.6184 0.19411 0.0
C250 C 0.5521 0.60948 1.06578 0.0
C251 C 0.50879 0.51273 0.41783 0.0
C252 C 0.54117 0.52549 0.50326 0.0
C253 C 0.52175 0.48498 0.56915 0.0
C254 C 0.56677 0.471 0.63457 0.0
C255 C 0.64139 0.49718 0.6493 0.0
C256 C 0.65078 0.54652 0.57889 0.0
C257 C 0.59987 0.56377 0.51544 0.0
C258 C 0.58296 0.31754 0.15975 0.0
C259 C 0.6822 0.39353 0.41325 0.0
O260 O 0.80309 0.42308 1.0794 0.0
O261 O 0.74863 0.50803 1.02091 0.0
O262 O 0.64701 0.58229 0.17635 0.0
O263 O 0.75932 0.58159 0.19271 0.0
O264 O 0.58329 0.58079 0.13831 0.0
O265 O 0.60326 0.57776 0.11472 0.0
O266 O 0.51837 0.55591 0.35638 0.0
O267 O 0.50965 0.45066 0.3885 0.0
O268 O 0.62227 0.36411 0.20688 0.0
O269 O 0.61592 0.36077 0.20309 0.0
O270 O 0.6659 0.39331 0.32356 0.0
O271 O 0.6562 0.39369 0.33435 0.0
H272 H 0.86836 0.4503 0.87656 0.0
H273 H 0.82403 0.47943 0.72769 0.0
H274 H 0.68923 0.45415 0.79563 0.0
H275 H 0.68162 0.38264 0.87919 0.0
H276 H 0.47543 0.45584 0.56438 0.0
H277 H 0.54745 0.4278 0.67088 0.0
H278 H 0.68979 0.5832 0.5841 0.0
H279 H 0.60511 0.60864 0.47599 0.0
Pr280 Pr 0.47819 0.24297 0.89392 0.0
Pr281 Pr 0.47539 0.1016 1.01475 0.0
C282 C 0.51358 0.30463 0.7437 0.0
C283 C 0.52573 0.27186 0.65844 0.0
C284 C 0.48531 0.29191 0.5927 0.0
C285 C 0.47158 0.24742 0.5269 0.0
C286 C 0.49747 0.1725 0.51197 0.0
C287 C 0.54659 0.16225 0.58249 0.0
C288 C 0.56394 0.21279 0.6461 0.0
C289 C 0.31767 0.22982 1.00087 0.0
C290 C 0.39792 0.13329 0.74621 0.0
C291 C 0.46126 0.02262 0.1519 0.0
C292 C 0.42924 0.03387 0.23335 0.0
C293 C 0.45279 -0.00175 0.30079 0.0
C294 C 0.46868 0.02538 0.38214 0.0
C295 C 0.46761 0.10785 0.39301 0.0
C296 C 0.42596 0.13517 0.31322 0.0
C297 C 0.40427 0.09594 0.24299 0.0
C298 C 0.61918 0.10954 0.96735 0.0
C299 C 0.61057 0.26035 0.09517 0.0
O300 O 0.55691 0.29409 0.80482 0.0
O301 O 0.45152 0.30531 0.77336 0.0
O302 O 0.36508 0.19098 0.95422 0.0
O303 O 0.36167 0.19684 0.95802 0.0
O304 O 0.39491 0.14939 0.836 0.0
O305 O 0.39492 0.1594 0.8249 0.0
O306 O 0.42506 0.01159 0.08202 0.0
O307 O 0.50769 0.06841 0.14247 0.0
O308 O 0.58311 0.16604 0.98499 0.0
O309 O 0.58232 0.05376 0.96905 0.0
O310 O 0.58167 0.22988 1.02243 0.0
O311 O 0.57872 0.21034 1.04526 0.0
H312 H 0.45621 0.33851 0.59763 0.0
H313 H 0.42858 0.26756 0.49052 0.0
H314 H 0.58308 0.12274 0.57716 0.0
H315 H 0.60892 0.20708 0.68536 0.0
H316 H 0.45584 -0.05212 0.28276 0.0
H317 H 0.48496 -0.00875 0.43135 0.0
H318 H 0.45382 0.12558 0.36556 0.0
H319 H 0.3819 0.1349 0.28276 0.0
Pr320 Pr 0.60275 0.47549 0.7653 0.0
Pr321 Pr 0.74399 0.47827 0.64439 0.0
C322 C 0.52428 0.46049 0.90266 0.0
C323 C 0.53519 0.42777 0.98373 0.0
C324 C 0.49947 0.45136 1.05111 0.0
C325 C 0.52651 0.46738 0.13247 0.0
C326 C 0.60902 0.46646 0.14348 0.0
C327 C 0.6365 0.42474 1.06374 0.0
C328 C 0.59728 0.40277 0.99356 0.0
C329 C 0.61047 0.61922 0.71791 0.0
C330 C 0.76159 0.61053 0.84565 0.0
C331 C 0.80559 0.51353 0.49428 0.0
C332 C 0.77256 0.52503 0.40913 0.0
C333 C 0.79278 0.48451 0.34365 0.0
C334 C 0.74852 0.47082 0.27764 0.0
C335 C 0.6735 0.49646 0.26251 0.0
C336 C 0.66296 0.54551 0.33298 0.0
C337 C 0.71341 0.56307 0.39659 0.0
C338 C 0.72979 0.31751 0.75109 0.0
C339 C 0.63516 0.40037 0.49573 0.0
O340 O 0.51259 0.42506 0.83226 0.0
O341 O 0.57044 0.50666 0.8938 0.0
O342 O 0.66712 0.58325 0.73523 0.0
O343 O 0.55469 0.58229 0.71977 0.0
O344 O 0.73101 0.5817 0.77294 0.0
O345 O 0.71143 0.57878 0.79582 0.0
O346 O 0.79469 0.55703 0.55507 0.0
O347 O 0.80692 0.4516 0.52434 0.0
O348 O 0.69148 0.36533 0.70454 0.0
O349 O 0.69706 0.36187 0.70833 0.0
O350 O 0.65059 0.39526 0.5857 0.0
O351 O 0.66105 0.39543 0.57427 0.0
H352 H 0.44905 0.45439 1.03299 0.0
H353 H 0.49226 0.48352 0.18163 0.0
H354 H 0.62678 0.45258 0.11596 0.0
H355 H 0.63641 0.38053 1.03326 0.0
H356 H 0.83949 0.45557 0.34873 0.0
H357 H 0.769 0.42799 0.24126 0.0
H358 H 0.62331 0.58186 0.32753 0.0
H359 H 0.70762 0.60816 0.43558 0.0
Pr360 Pr 0.47868 0.06994 0.51679 0.0
Pr361 Pr 0.47561 0.21165 0.39602 0.0
C362 C 0.51378 0.00795 0.66726 0.0
C363 C 0.52587 0.04058 0.7526 0.0
C364 C 0.48526 0.02099 0.81827 0.0
C365 C 0.47127 0.06575 0.8839 0.0
C366 C 0.4972 0.1404 0.89879 0.0
C367 C 0.5465 0.15009 0.82842 0.0
C368 C 0.56398 0.09933 0.76495 0.0
C369 C 0.31841 0.08281 0.40986 0.0
C370 C 0.39685 0.18071 0.66368 0.0
C371 C 0.46132 0.29175 0.25946 0.0
C372 C 0.42975 0.28024 0.17781 0.0
C373 C 0.45204 0.31591 0.10988 0.0
C374 C 0.46759 0.28824 1.02835 0.0
C375 C 0.46723 0.20562 1.0178 0.0
C376 C 0.42626 0.1788 0.09791 0.0
C377 C 0.40537 0.21812 0.16851 0.0
C378 C 0.61952 0.20212 0.44377 0.0
C379 C 0.61077 0.05083 0.31549 0.0
O380 O 0.55719 0.01792 0.60617 0.0
O381 O 0.45179 0.00812 0.63748 0.0
O382 O 0.36533 0.12193 0.45659 0.0
O383 O 0.36194 0.11578 0.45277 0.0
O384 O 0.39473 0.1646 0.5739 0.0
O385 O 0.395 0.15459 0.58492 0.0
O386 O 0.4245 0.30207 0.32909 0.0
O387 O 0.50816 0.24603 0.26919 0.0
O388 O 0.58342 0.14605 0.42583 0.0
O389 O 0.58271 0.2583 0.44214 0.0
O390 O 0.58205 0.0822 0.38787 0.0
O391 O 0.57905 0.10213 0.36427 0.0
H392 H 0.45629 -0.02542 0.81337 0.0
H393 H 0.4282 0.04612 0.92021 0.0
H394 H 0.58307 0.18919 0.83381 0.0
H395 H 0.60901 0.10465 0.72578 0.0
H396 H 0.45083 0.3668 0.12664 0.0
H397 H 0.47982 0.32274 0.97764 0.0
H398 H 0.45393 0.18798 1.04523 0.0
H399 H 0.3822 0.17993 0.12862 0.0
Pr400 Pr 0.21001 0.33605 0.76543 0.0
Pr401 Pr 0.06877 0.33329 0.64449 0.0
C402 C 0.28848 0.35107 0.90279 0.0
C403 C 0.27757 0.38377 0.98388 0.0
C404 C 0.31329 0.36015 1.05124 0.0
C405 C 0.28627 0.34418 0.1326 0.0
C406 C 0.20376 0.34509 0.1436 0.0
C407 C 0.17627 0.38681 1.06387 0.0
C408 C 0.21548 0.40878 0.99371 0.0
C409 C 0.20229 0.19233 0.71793 0.0
C410 C 0.05119 0.20102 0.8457 0.0
C411 C 0.00718 0.29803 0.49437 0.0
C412 C 0.04021 0.28651 0.40922 0.0
C413 C 0.01999 0.32703 0.34375 0.0
C414 C 0.06427 0.34073 0.27777 0.0
C415 C 0.13929 0.31509 0.26266 0.0
C416 C 0.14983 0.26603 0.3331 0.0
C417 C 0.09937 0.24847 0.39669 0.0
C418 C 0.08301 0.49406 0.75123 0.0
C419 C 0.17762 0.41122 0.49587 0.0
O420 O 0.30016 0.38651 0.83242 0.0
O421 O 0.24232 0.30489 0.89391 0.0
O422 O 0.14564 0.2283 0.73527 0.0
O423 O 0.25807 0.22926 0.71984 0.0
O424 O 0.08177 0.22985 0.773 0.0
O425 O 0.10134 0.23277 0.79589 0.0
O426 O 0.01806 0.25454 0.55516 0.0
O427 O 0.00588 0.35996 0.52443 0.0
O428 O 0.12131 0.44621 0.70469 0.0
O429 O 0.11573 0.44969 0.70848 0.0
O430 O 0.16217 0.4163 0.58584 0.0
O431 O 0.15172 0.41614 0.57441 0.0
H432 H 0.36369 0.35707 1.03309 0.0
H433 H 0.32052 0.328 0.18176 0.0
H434 H 0.186 0.35897 0.11609 0.0
H435 H 0.17633 0.431 1.0334 0.0
H436 H -0.02672 0.35596 0.34882 0.0
H437 H 0.04379 0.38356 0.24139 0.0
H438 H 0.18948 0.22969 0.32765 0.0
H439 H 0.10516 0.20338 0.43567 0.0
Pr440 Pr 0.3341 0.74162 0.51685 0.0
Pr441 Pr 0.33719 0.59991 0.39604 0.0
C442 C 0.29896 0.80357 0.66735 0.0
C443 C 0.28687 0.77094 0.75268 0.0
C444 C 0.32747 0.79054 0.81835 0.0
C445 C 0.34148 0.74579 0.88396 0.0
C446 C 0.31557 0.67113 0.89884 0.0
C447 C 0.26626 0.66144 0.82848 0.0
C448 C 0.24877 0.71218 0.76502 0.0
C449 C 0.49439 0.72877 0.40997 0.0
C450 C 0.4159 0.63086 0.66374 0.0
C451 C 0.35147 0.51985 0.25942 0.0
C452 C 0.38307 0.53132 0.17779 0.0
C453 C 0.36077 0.49565 0.10987 0.0
C454 C 0.34519 0.52331 1.02835 0.0
C455 C 0.34556 0.60592 1.01782 0.0
C456 C 0.38656 0.63275 0.09792 0.0
C457 C 0.40748 0.59343 0.16849 0.0
C458 C 0.19328 0.60942 0.44376 0.0
C459 C 0.20205 0.76073 0.31548 0.0
O460 O 0.25556 0.79359 0.60624 0.0
O461 O 0.36096 0.80341 0.63759 0.0
O462 O 0.44746 0.68965 0.45668 0.0
O463 O 0.45085 0.6958 0.45286 0.0
O464 O 0.41805 0.64697 0.57395 0.0
O465 O 0.41777 0.65698 0.58499 0.0
O466 O 0.38824 0.50946 0.32908 0.0
O467 O 0.30468 0.56563 0.26914 0.0
O468 O 0.22938 0.6655 0.42584 0.0
O469 O 0.2301 0.55324 0.44212 0.0
O470 O 0.23076 0.72935 0.38787 0.0
O471 O 0.23376 0.70942 0.36427 0.0
H472 H 0.35644 0.83696 0.81346 0.0
H473 H 0.38455 0.76543 0.92028 0.0
H474 H 0.22968 0.62234 0.83388 0.0
H475 H 0.20374 0.70686 0.72583 0.0
H476 H 0.36199 0.44475 0.12662 0.0
H477 H 0.33294 0.4888 0.97764 0.0
H478 H 0.35888 0.62357 1.04525 0.0
H479 H 0.43063 0.63163 0.12862 0.0
Pr480 Pr 0.6005 0.83672 0.64618 0.0
Pr481 Pr 0.74238 0.83383 0.7668 0.0
C482 C 0.52035 0.85044 0.50941 0.0
C483 C 0.53188 0.88167 0.42757 0.0
C484 C 0.49619 0.85934 0.35965 0.0
C485 C 0.52389 0.84378 0.27812 0.0
C486 C 0.60655 0.84416 0.26764 0.0
C487 C 0.63333 0.88523 0.34767 0.0
C488 C 0.594 -0.09395 0.41826 0.0
C489 C 0.61002 0.69284 0.694 0.0
C490 C 0.76115 0.70193 0.56578 0.0
C491 C 0.80454 0.79861 0.91726 0.0
C492 C 0.77212 0.78578 1.00263 0.0
C493 C 0.79158 0.82622 1.06856 0.0
C494 C 0.74658 0.8402 0.13398 0.0
C495 C 0.67192 0.81414 0.14866 0.0
C496 C 0.66248 0.76484 1.07825 0.0
C497 C 0.71337 0.74757 1.01477 0.0
C498 C 0.72976 -0.00617 0.65967 0.0
C499 C 0.63126 -0.08305 0.91323 0.0
O500 O 0.51012 0.88755 0.57879 0.0
O501 O 0.56609 0.80366 0.51948 0.0
O502 O 0.66618 0.7289 0.67616 0.0
O503 O 0.55385 0.72967 0.69234 0.0
O504 O 0.72984 0.73049 0.63825 0.0
O505 O 0.71022 0.73337 0.61533 0.0
O506 O 0.79513 0.75543 0.85574 0.0
O507 O 0.80361 0.86069 0.88803 0.0
O508 O 0.69062 -0.05293 0.70664 0.0
O509 O 0.69691 -0.04955 0.70284 0.0
O510 O 0.64753 -0.08219 0.82354 0.0
O511 O 0.65733 -0.08239 0.83437 0.0
H512 H 0.44531 0.86055 0.37642 0.0
H513 H 0.48948 0.8313 0.22741 0.0
H514 H 0.62419 0.85751 0.29503 0.0
H515 H 0.63213 -0.07078 0.37832 0.0
H516 H 0.83795 0.8553 1.06385 0.0
H517 H 0.766 0.88334 0.17034 0.0
H518 H 0.62342 0.7282 0.08344 0.0
H519 H 0.70809 0.7027 0.97533 0.0
Pr520 Pr 0.8342 0.06833 0.39437 0.0
Pr521 Pr 0.83691 0.20975 0.51526 0.0
C522 C 0.79884 0.00652 0.2443 0.0
C523 C 0.78662 0.03931 0.15909 0.0
C524 C 0.827 0.01922 0.09335 0.0
C525 C 0.84069 0.06367 1.02752 0.0
C526 C 0.81492 0.13862 1.01265 0.0
C527 C 0.76582 0.14893 0.08314 0.0
C528 C 0.74846 0.09841 0.14677 0.0
C529 C -0.00517 0.08179 0.5009 0.0
C530 C -0.08641 0.17777 0.24631 0.0
C531 C 0.85124 0.28803 0.65296 0.0
C532 C 0.88361 0.27708 0.73426 0.0
C533 C 0.85972 0.31264 0.80159 0.0
C534 C 0.84375 0.28563 0.88288 0.0
C535 C 0.84492 0.2032 0.89374 0.0
C536 C 0.88681 0.17584 0.81408 0.0
C537 C -0.09123 0.21511 0.74404 0.0
C538 C 0.69316 0.20176 0.46755 0.0
C539 C 0.70196 0.05098 0.59533 0.0
O540 O 0.75551 0.0169 0.30548 0.0
O541 O 0.86092 0.00596 0.27389 0.0
O542 O -0.05273 0.12056 0.4544 0.0
O543 O -0.04932 0.11454 0.45809 0.0
O544 O -0.0825 0.16209 0.33621 0.0
O545 O -0.08273 0.15182 0.32497 0.0
O546 O 0.88701 0.29973 0.58287 0.0
O547 O 0.80508 0.2419 0.64367 0.0
O548 O 0.72926 0.1453 0.48529 0.0
O549 O 0.72999 0.25757 0.46953 0.0
O550 O 0.73079 0.08154 0.52267 0.0
O551 O 0.73371 0.10093 0.54527 0.0
H552 H 0.85606 -0.0274 0.09825 0.0
H553 H 0.88362 0.04342 0.99108 0.0
H554 H 0.72937 0.18848 1.07782 0.0
H555 H 0.70348 0.10415 0.18602 0.0
H556 H 0.85543 0.36277 0.78325 0.0
H557 H 0.82638 0.31959 0.93167 0.0
H558 H 0.85888 0.18548 0.86627 0.0
H559 H -0.06907 0.17596 0.78371 0.0
Pr560 Pr 0.21234 -0.0252 0.64606 0.0
Pr561 Pr 0.07044 -0.02224 0.7667 0.0
C562 C 0.29261 -0.03895 0.50939 0.0
C563 C 0.28097 -0.07007 0.42749 0.0
C564 C 0.31664 -0.04774 0.35956 0.0
C565 C 0.28893 -0.0322 0.27804 0.0
C566 C 0.20627 -0.03258 0.26756 0.0
C567 C 0.1795 -0.07361 0.3476 0.0
C568 C 0.21883 0.90562 0.41822 0.0
C569 C 0.20274 0.11871 0.69391 0.0
C570 C 0.05173 0.10971 0.56556 0.0
C571 C 0.00827 0.01298 0.91715 0.0
C572 C 0.04072 0.02576 1.00252 0.0
C573 C 0.02126 -0.0147 1.06842 0.0
C574 C 0.06624 -0.02866 0.13386 0.0
C575 C 0.14089 -0.00259 0.14858 0.0
C576 C 0.15034 0.04672 1.07818 0.0
C577 C 0.09946 0.06398 1.01469 0.0
C578 C 0.08307 0.8177 0.6597 0.0
C579 C 0.18157 0.89477 0.91319 0.0
O580 O 0.30266 -0.07618 0.57869 0.0
O581 O 0.24701 0.00794 0.51955 0.0
O582 O 0.14661 0.08263 0.67605 0.0
O583 O 0.25892 0.08189 0.69225 0.0
O584 O 0.08294 0.08104 0.63806 0.0
O585 O 0.10274 0.07808 0.61477 0.0
O586 O 0.01772 0.05616 0.85566 0.0
O587 O 0.00915 -0.0491 0.88786 0.0
O588 O 0.12221 0.86449 0.70662 0.0
O589 O 0.11592 0.86111 0.70283 0.0
O590 O 0.16533 0.89378 0.8235 0.0
O591 O 0.1555 0.894 0.83434 0.0
H592 H 0.36752 -0.04897 0.37632 0.0
H593 H 0.32334 -0.01974 0.22733 0.0
H594 H 0.18864 -0.0459 0.29495 0.0
H595 H 0.1807 0.88243 0.37826 0.0
H596 H -0.0251 -0.04378 1.06368 0.0
H597 H 0.04682 -0.07179 0.17021 0.0
H598 H 0.18939 0.08336 0.0834 0.0
H599 H 0.10474 0.10885 0.97526 0.0
Pr600 Pr -0.02139 0.74317 0.3945 0.0
Pr601 Pr -0.02409 0.60177 0.51533 0.0
C602 C 0.01397 0.80499 0.24448 0.0
C603 C 0.02617 0.77219 0.15927 0.0
C604 C -0.0142 0.7923 0.09353 0.0
C605 C -0.02789 0.74787 1.02767 0.0
C606 C -0.00214 0.67291 1.01277 0.0
C607 C 0.04694 0.66258 0.08327 0.0
C608 C 0.06431 0.71308 0.14693 0.0
C609 C 0.81799 0.72969 0.50089 0.0
C610 C 0.89938 0.63382 0.24629 0.0
C611 C -0.03845 0.52348 0.65299 0.0
C612 C -0.07079 0.53445 0.7343 0.0
C613 C -0.0469 0.49891 0.80164 0.0
C614 C -0.03095 0.52592 0.88294 0.0
C615 C -0.03213 0.60834 0.89382 0.0
C616 C -0.07398 0.63571 0.81414 0.0
C617 C 0.90406 0.59643 0.74409 0.0
C618 C 0.11965 0.60975 0.46759 0.0
C619 C 0.11087 0.76053 0.5954 0.0
O620 O 0.05731 0.7946 0.30565 0.0
O621 O -0.0481 0.80558 0.27407 0.0
O622 O 0.86556 0.69093 0.45442 0.0
O623 O 0.86211 0.6968 0.45821 0.0
O624 O 0.89534 0.64947 0.3362 0.0
O625 O 0.89555 0.65976 0.32495 0.0
O626 O -0.07426 0.51184 0.58292 0.0
O627 O 0.00774 0.56957 0.64371 0.0
O628 O 0.08355 0.66621 0.48536 0.0
O629 O 0.08282 0.55395 0.46956 0.0
O630 O 0.08202 0.72995 0.52276 0.0
O631 O 0.0791 0.71059 0.54533 0.0
H632 H -0.04325 0.83894 0.09844 0.0
H633 H -0.0708 0.76815 0.99121 0.0
H634 H 0.08336 0.623 1.07795 0.0
H635 H 0.10929 0.70732 0.18618 0.0
H636 H -0.04259 0.44878 0.78329 0.0
H637 H -0.01358 0.49196 0.93172 0.0
H638 H -0.04607 0.62607 0.86635 0.0
H639 H 0.8819 0.63559 0.78376 0.0
loop_
_geom_bond_atom_site_label_1
_geom_bond_atom_site_label_2
_geom_bond_distance
_geom_bond_site_symmetry_2
_ccdc_geom_bond_type
Pr0 C2 2.880 . S
Pr0 O20 2.562 . S
Pr0 O21 2.490 . S
Pr0 O22 2.695 . S
Pr0 O23 2.512 . S
Pr0 O25 2.437 . S
Pr0 O28 2.436 1_545 S
Pr0 O30 2.438 . S
Pr1 C11 2.880 1_554 S
Pr1 O22 2.436 . S
Pr1 O24 2.438 . S
Pr1 O26 2.562 1_554 S
Pr1 O27 2.490 1_554 S
Pr1 O28 2.695 1_545 S
Pr1 O29 2.512 1_545 S
Pr1 O31 2.437 1_545 S
C2 Pr0 2.880 . S
C2 C3 1.491 . S
C2 O20 1.254 . S
C2 O21 1.225 . S
C3 C2 1.491 . S
C3 C4 1.392 . S
C3 C8 1.356 . S
C4 C3 1.392 . S
C4 C5 1.368 . S
C4 H32 0.929 . S
C5 C4 1.368 . S
C5 C6 1.386 . S
C5 H33 0.929 . S
C6 C5 1.386 . S
C6 C7 1.373 . S
C7 C6 1.373 . S
C7 C8 1.409 . S
C7 H34 0.931 1_545 S
C8 C3 1.356 . S
C8 C7 1.409 . S
C8 H35 0.930 1_545 S
C9 O22 1.270 . S
C9 O23 1.248 . S
C10 O24 1.267 . S
C10 O25 1.278 . S
C11 Pr1 2.880 1_556 S
C11 C12 1.491 . S
C11 O26 1.254 . S
C11 O27 1.225 . S
C12 C11 1.491 . S
C12 C13 1.392 1_545 S
C12 C17 1.356 . S
C13 C12 1.392 1_565 S
C13 C14 1.368 . S
C13 H36 0.929 . S
C14 C13 1.368 . S
C14 C15 1.386 1_565 S
C14 H37 0.929 . S
C15 C14 1.386 1_545 S
C15 C16 1.373 . S
C16 C15 1.373 . S
C16 C17 1.409 . S
C16 H38 0.931 . S
C17 C12 1.356 . S
C17 C16 1.409 . S
C17 H39 0.930 . S
C18 O28 1.270 . S
C18 O29 1.248 . S
C19 O30 1.267 . S
C19 O31 1.278 1_545 S
O20 Pr0 2.562 . S
O20 C2 1.254 . S
O21 Pr0 2.490 . S
O21 C2 1.225 . S
O22 Pr0 2.695 . S
O22 Pr1 2.436 . S
O22 C9 1.270 . S
O23 Pr0 2.512 . S
O23 C9 1.248 . S
O24 Pr1 2.438 . S
O24 C10 1.267 . S
O25 Pr0 2.437 . S
O25 C10 1.278 . S
O26 Pr1 2.562 1_556 S
O26 C11 1.254 . S
O27 Pr1 2.490 1_556 S
O27 C11 1.225 . S
O28 Pr0 2.436 1_565 S
O28 Pr1 2.695 1_565 S
O28 C18 1.270 . S
O29 Pr1 2.512 1_565 S
O29 C18 1.248 . S
O30 Pr0 2.438 . S
O30 C19 1.267 . S
O31 Pr1 2.437 1_565 S
O31 C19 1.278 1_565 S
H32 C4 0.929 . S
H33 C5 0.929 . S
H34 C7 0.931 1_565 S
H35 C8 0.930 1_565 S
H36 C13 0.929 . S
H37 C14 0.929 . S
H38 C16 0.931 . S
H39 C17 0.930 . S
Pr40 C42 2.880 1_556 S
Pr40 O60 2.562 1_556 S
Pr40 O61 2.490 1_556 S
Pr40 O62 2.695 1_455 S
Pr40 O63 2.512 1_455 S
Pr40 O65 2.437 1_455 S
Pr40 O68 2.436 . S
Pr40 O70 2.438 . S
Pr41 C51 2.880 . S
Pr41 O62 2.436 1_455 S
Pr41 O64 2.438 . S
Pr41 O66 2.562 . S
Pr41 O67 2.490 . S
Pr41 O68 2.695 . S
Pr41 O69 2.512 . S
Pr41 O71 2.437 . S
C42 Pr40 2.880 1_554 S
C42 C43 1.491 . S
C42 O60 1.254 . S
C42 O61 1.225 . S
C43 C42 1.491 . S
C43 C44 1.392 1_455 S
C43 C48 1.356 . S
C44 C43 1.392 1_655 S
C44 C45 1.368 . S
C44 H72 0.929 . S
C45 C44 1.368 . S
C45 C46 1.386 1_655 S
C45 H73 0.929 . S
C46 C45 1.386 1_455 S
C46 C47 1.373 . S
C47 C46 1.373 . S
C47 C48 1.409 . S
C47 H74 0.931 . S
C48 C43 1.356 . S
C48 C47 1.409 . S
C48 H75 0.930 . S
C49 O62 1.270 . S
C49 O63 1.248 . S
C50 O64 1.267 . S
C50 O65 1.278 1_455 S
C51 Pr41 2.880 . S
C51 C52 1.491 . S
C51 O66 1.254 . S
C51 O67 1.225 . S
C52 C51 1.491 . S
C52 C53 1.392 . S
C52 C57 1.356 . S
C53 C52 1.392 . S
C53 C54 1.368 . S
C53 H76 0.929 . S
C54 C53 1.368 . S
C54 C55 1.386 . S
C54 H77 0.929 . S
C55 C54 1.386 . S
C55 C56 1.373 . S
C56 C55 1.373 . S
C56 C57 1.409 . S
C56 H78 0.931 1_455 S
C57 C52 1.356 . S
C57 C56 1.409 . S
C57 H79 0.930 1_455 S
C58 O68 1.270 . S
C58 O69 1.248 . S
C59 O70 1.267 . S
C59 O71 1.278 . S
O60 Pr40 2.562 1_554 S
O60 C42 1.254 . S
O61 Pr40 2.490 1_554 S
O61 C42 1.225 . S
O62 Pr40 2.695 1_655 S
O62 Pr41 2.436 1_655 S
O62 C49 1.270 . S
O63 Pr40 2.512 1_655 S
O63 C49 1.248 . S
O64 Pr41 2.438 . S
O64 C50 1.267 . S
O65 Pr40 2.437 1_655 S
O65 C50 1.278 1_655 S
O66 Pr41 2.562 . S
O66 C51 1.254 . S
O67 Pr41 2.490 . S
O67 C51 1.225 . S
O68 Pr40 2.436 . S
O68 Pr41 2.695 . S
O68 C58 1.270 . S
O69 Pr41 2.512 . S
O69 C58 1.248 . S
O70 Pr40 2.438 . S
O70 C59 1.267 . S
O71 Pr41 2.437 . S
O71 C59 1.278 . S
H72 C44 0.929 . S
H73 C45 0.929 . S
H74 C47 0.931 . S
H75 C48 0.930 . S
H76 C53 0.929 . S
H77 C54 0.929 . S
H78 C56 0.931 1_655 S
H79 C57 0.930 1_655 S
Pr80 C82 2.880 . S
Pr80 O100 2.562 . S
Pr80 O101 2.490 . S
Pr80 O102 2.695 . S
Pr80 O103 2.512 . S
Pr80 O105 2.437 . S
Pr80 O108 2.436 1_565 S
Pr80 O110 2.438 . S
Pr81 C91 2.880 1_554 S
Pr81 O102 2.436 . S
Pr81 O104 2.438 . S
Pr81 O106 2.562 1_554 S
Pr81 O107 2.490 1_554 S
Pr81 O108 2.695 1_565 S
Pr81 O109 2.512 1_565 S
Pr81 O111 2.437 1_565 S
C82 Pr80 2.880 . S
C82 C83 1.491 . S
C82 O100 1.254 . S
C82 O101 1.225 . S
C83 C82 1.491 . S
C83 C84 1.392 . S
C83 C88 1.356 . S
C84 C83 1.392 . S
C84 C85 1.368 . S
C84 H112 0.929 . S
C85 C84 1.368 . S
C85 C86 1.386 . S
C85 H113 0.929 . S
C86 C85 1.386 . S
C86 C87 1.373 . S
C87 C86 1.373 . S
C87 C88 1.409 . S
C87 H114 0.931 1_565 S
C88 C83 1.356 . S
C88 C87 1.409 . S
C88 H115 0.930 1_565 S
C89 O102 1.270 . S
C89 O103 1.248 . S
C90 O104 1.267 . S
C90 O105 1.278 . S
C91 Pr81 2.880 1_556 S
C91 C92 1.491 . S
C91 O106 1.254 . S
C91 O107 1.225 . S
C92 C91 1.491 . S
C92 C93 1.392 1_565 S
C92 C97 1.356 . S
C93 C92 1.392 1_545 S
C93 C94 1.368 . S
C93 H116 0.929 . S
C94 C93 1.368 . S
C94 C95 1.386 1_545 S
C94 H117 0.929 . S
C95 C94 1.386 1_565 S
C95 C96 1.373 . S
C96 C95 1.373 . S
C96 C97 1.409 . S
C96 H118 0.931 . S
C97 C92 1.356 . S
C97 C96 1.409 . S
C97 H119 0.930 . S
C98 O108 1.270 . S
C98 O109 1.248 . S
C99 O110 1.267 . S
C99 O111 1.278 1_565 S
O100 Pr80 2.562 . S
O100 C82 1.254 . S
O101 Pr80 2.490 . S
O101 C82 1.225 . S
O102 Pr80 2.695 . S
O102 Pr81 2.436 . S
O102 C89 1.270 . S
O103 Pr80 2.512 . S
O103 C89 1.248 . S
O104 Pr81 2.438 . S
O104 C90 1.267 . S
O105 Pr80 2.437 . S
O105 C90 1.278 . S
O106 Pr81 2.562 1_556 S
O106 C91 1.254 . S
O107 Pr81 2.490 1_556 S
O107 C91 1.225 . S
O108 Pr80 2.436 1_545 S
O108 Pr81 2.695 1_545 S
O108 C98 1.270 . S
O109 Pr81 2.512 1_545 S
O109 C98 1.248 . S
O110 Pr80 2.438 . S
O110 C99 1.267 . S
O111 Pr81 2.437 1_545 S
O111 C99 1.278 1_545 S
H112 C84 0.929 . S
H113 C85 0.929 . S
H114 C87 0.931 1_545 S
H115 C88 0.930 1_545 S
H116 C93 0.929 . S
H117 C94 0.929 . S
H118 C96 0.931 . S
H119 C97 0.930 . S
Pr120 C122 2.880 1_556 S
Pr120 O140 2.562 1_556 S
Pr120 O141 2.490 1_556 S
Pr120 O142 2.695 1_655 S
Pr120 O143 2.512 1_655 S
Pr120 O145 2.437 1_655 S
Pr120 O148 2.436 . S
Pr120 O150 2.438 . S
Pr121 C131 2.880 . S
Pr121 O142 2.436 1_655 S
Pr121 O144 2.438 . S
Pr121 O146 2.562 . S
Pr121 O147 2.490 . S
Pr121 O148 2.695 . S
Pr121 O149 2.512 . S
Pr121 O151 2.437 . S
C122 Pr120 2.880 1_554 S
C122 C123 1.491 . S
C122 O140 1.254 . S
C122 O141 1.225 . S
C123 C122 1.491 . S
C123 C124 1.392 1_655 S
C123 C128 1.356 . S
C124 C123 1.392 1_455 S
C124 C125 1.368 . S
C124 H152 0.929 . S
C125 C124 1.368 . S
C125 C126 1.386 1_455 S
C125 H153 0.929 . S
C126 C125 1.386 1_655 S
C126 C127 1.373 . S
C127 C126 1.373 . S
C127 C128 1.409 . S
C127 H154 0.931 . S
C128 C123 1.356 . S
C128 C127 1.409 . S
C128 H155 0.930 . S
C129 O142 1.270 . S
C129 O143 1.248 . S
C130 O144 1.267 . S
C130 O145 1.278 1_655 S
C131 Pr121 2.880 . S
C131 C132 1.491 . S
C131 O146 1.254 . S
C131 O147 1.225 . S
C132 C131 1.491 . S
C132 C133 1.392 . S
C132 C137 1.356 . S
C133 C132 1.392 . S
C133 C134 1.368 . S
C133 H156 0.929 . S
C134 C133 1.368 . S
C134 C135 1.386 . S
C134 H157 0.929 . S
C135 C134 1.386 . S
C135 C136 1.373 . S
C136 C135 1.373 . S
C136 C137 1.409 . S
C136 H158 0.931 1_655 S
C137 C132 1.356 . S
C137 C136 1.409 . S
C137 H159 0.930 1_655 S
C138 O148 1.270 . S
C138 O149 1.248 . S
C139 O150 1.267 . S
C139 O151 1.278 . S
O140 Pr120 2.562 1_554 S
O140 C122 1.254 . S
O141 Pr120 2.490 1_554 S
O141 C122 1.225 . S
O142 Pr120 2.695 1_455 S
O142 Pr121 2.436 1_455 S
O142 C129 1.270 . S
O143 Pr120 2.512 1_455 S
O143 C129 1.248 . S
O144 Pr121 2.438 . S
O144 C130 1.267 . S
O145 Pr120 2.437 1_455 S
O145 C130 1.278 1_455 S
O146 Pr121 2.562 . S
O146 C131 1.254 . S
O147 Pr121 2.490 . S
O147 C131 1.225 . S
O148 Pr120 2.436 . S
O148 Pr121 2.695 . S
O148 C138 1.270 . S
O149 Pr121 2.512 . S
O149 C138 1.248 . S
O150 Pr120 2.438 . S
O150 C139 1.267 . S
O151 Pr121 2.437 . S
O151 C139 1.278 . S
H152 C124 0.929 . S
H153 C125 0.929 . S
H154 C127 0.931 . S
H155 C128 0.930 . S
H156 C133 0.929 . S
H157 C134 0.929 . S
H158 C136 0.931 1_455 S
H159 C137 0.930 1_455 S
Pr160 C162 2.880 1_554 S
Pr160 O180 2.562 1_554 S
Pr160 O181 2.490 1_554 S
Pr160 O182 2.695 . S
Pr160 O183 2.512 . S
Pr160 O185 2.437 . S
Pr160 O188 2.436 . S
Pr160 O190 2.438 . S
Pr161 C171 2.880 . S
Pr161 O182 2.436 . S
Pr161 O184 2.438 . S
Pr161 O186 2.562 . S
Pr161 O187 2.490 . S
Pr161 O188 2.695 . S
Pr161 O189 2.512 . S
Pr161 O191 2.437 . S
C162 Pr160 2.880 1_556 S
C162 C163 1.491 . S
C162 O180 1.254 . S
C162 O181 1.225 . S
C163 C162 1.491 . S
C163 C164 1.392 . S
C163 C168 1.356 . S
C164 C163 1.392 . S
C164 C165 1.368 . S
C164 H192 0.929 . S
C165 C164 1.368 . S
C165 C166 1.386 . S
C165 H193 0.929 . S
C166 C165 1.386 . S
C166 C167 1.373 . S
C167 C166 1.373 . S
C167 C168 1.409 . S
C167 H194 0.931 . S
C168 C163 1.356 . S
C168 C167 1.409 . S
C168 H195 0.930 . S
C169 O182 1.270 . S
C169 O183 1.248 . S
C170 O184 1.267 . S
C170 O185 1.278 . S
C171 Pr161 2.880 . S
C171 C172 1.491 . S
C171 O186 1.254 . S
C171 O187 1.225 . S
C172 C171 1.491 . S
C172 C173 1.392 . S
C172 C177 1.356 . S
C173 C172 1.392 . S
C173 C174 1.368 . S
C173 H196 0.929 . S
C174 C173 1.368 . S
C174 C175 1.386 . S
C174 H197 0.929 . S
C175 C174 1.386 . S
C175 C176 1.373 . S
C176 C175 1.373 . S
C176 C177 1.409 . S
C176 H198 0.931 . S
C177 C172 1.356 . S
C177 C176 1.409 . S
C177 H199 0.930 . S
C178 O188 1.270 . S
C178 O189 1.248 . S
C179 O190 1.267 . S
C179 O191 1.278 . S
O180 Pr160 2.562 1_556 S
O180 C162 1.254 . S
O181 Pr160 2.490 1_556 S
O181 C162 1.225 . S
O182 Pr160 2.695 . S
O182 Pr161 2.436 . S
O182 C169 1.270 . S
O183 Pr160 2.512 . S
O183 C169 1.248 . S
O184 Pr161 2.438 . S
O184 C170 1.267 . S
O185 Pr160 2.437 . S
O185 C170 1.278 . S
O186 Pr161 2.562 . S
O186 C171 1.254 . S
O187 Pr161 2.490 . S
O187 C171 1.225 . S
O188 Pr160 2.436 . S
O188 Pr161 2.695 . S
O188 C178 1.270 . S
O189 Pr161 2.512 . S
O189 C178 1.248 . S
O190 Pr160 2.438 . S
O190 C179 1.267 . S
O191 Pr161 2.437 . S
O191 C179 1.278 . S
H192 C164 0.929 . S
H193 C165 0.929 . S
H194 C167 0.931 . S
H195 C168 0.930 . S
H196 C173 0.929 . S
H197 C174 0.929 . S
H198 C176 0.931 . S
H199 C177 0.930 . S
Pr200 C202 2.880 . S
Pr200 O220 2.562 . S
Pr200 O221 2.490 . S
Pr200 O222 2.695 . S
Pr200 O223 2.512 . S
Pr200 O225 2.437 . S
Pr200 O228 2.436 . S
Pr200 O230 2.438 . S
Pr201 C211 2.880 1_556 S
Pr201 O222 2.436 . S
Pr201 O224 2.438 . S
Pr201 O226 2.562 1_556 S
Pr201 O227 2.490 1_556 S
Pr201 O228 2.695 . S
Pr201 O229 2.512 . S
Pr201 O231 2.437 . S
C202 Pr200 2.880 . S
C202 C203 1.491 . S
C202 O220 1.254 . S
C202 O221 1.225 . S
C203 C202 1.491 . S
C203 C204 1.392 . S
C203 C208 1.356 . S
C204 C203 1.392 . S
C204 C205 1.368 . S
C204 H232 0.929 . S
C205 C204 1.368 . S
C205 C206 1.386 . S
C205 H233 0.929 . S
C206 C205 1.386 . S
C206 C207 1.373 . S
C207 C206 1.373 . S
C207 C208 1.409 . S
C207 H234 0.931 . S
C208 C203 1.356 . S
C208 C207 1.409 . S
C208 H235 0.930 . S
C209 O222 1.270 . S
C209 O223 1.248 . S
C210 O224 1.267 . S
C210 O225 1.278 . S
C211 Pr201 2.880 1_554 S
C211 C212 1.491 . S
C211 O226 1.254 . S
C211 O227 1.225 . S
C212 C211 1.491 . S
C212 C213 1.392 . S
C212 C217 1.356 . S
C213 C212 1.392 . S
C213 C214 1.368 . S
C213 H236 0.929 . S
C214 C213 1.368 . S
C214 C215 1.386 . S
C214 H237 0.929 . S
C215 C214 1.386 . S
C215 C216 1.373 . S
C216 C215 1.373 . S
C216 C217 1.409 . S
C216 H238 0.931 . S
C217 C212 1.356 . S
C217 C216 1.409 . S
C217 H239 0.930 . S
C218 O228 1.270 . S
C218 O229 1.248 . S
C219 O230 1.267 . S
C219 O231 1.278 . S
O220 Pr200 2.562 . S
O220 C202 1.254 . S
O221 Pr200 2.490 . S
O221 C202 1.225 . S
O222 Pr200 2.695 . S
O222 Pr201 2.436 . S
O222 C209 1.270 . S
O223 Pr200 2.512 . S
O223 C209 1.248 . S
O224 Pr201 2.438 . S
O224 C210 1.267 . S
O225 Pr200 2.437 . S
O225 C210 1.278 . S
O226 Pr201 2.562 1_554 S
O226 C211 1.254 . S
O227 Pr201 2.490 1_554 S
O227 C211 1.225 . S
O228 Pr200 2.436 . S
O228 Pr201 2.695 . S
O228 C218 1.270 . S
O229 Pr201 2.512 . S
O229 C218 1.248 . S
O230 Pr200 2.438 . S
O230 C219 1.267 . S
O231 Pr201 2.437 . S
O231 C219 1.278 . S
H232 C204 0.929 . S
H233 C205 0.929 . S
H234 C207 0.931 . S
H235 C208 0.930 . S
H236 C213 0.929 . S
H237 C214 0.929 . S
H238 C216 0.931 . S
H239 C217 0.930 . S
Pr240 C242 2.880 1_554 S
Pr240 O260 2.562 1_554 S
Pr240 O261 2.490 1_554 S
Pr240 O262 2.695 . S
Pr240 O263 2.512 . S
Pr240 O265 2.437 . S
Pr240 O268 2.436 . S
Pr240 O270 2.438 . S
Pr241 C251 2.880 . S
Pr241 O262 2.436 . S
Pr241 O264 2.438 . S
Pr241 O266 2.562 . S
Pr241 O267 2.490 . S
Pr241 O268 2.695 . S
Pr241 O269 2.512 . S
Pr241 O271 2.437 . S
C242 Pr240 2.880 1_556 S
C242 C243 1.491 . S
C242 O260 1.254 . S
C242 O261 1.225 . S
C243 C242 1.491 . S
C243 C244 1.392 . S
C243 C248 1.356 . S
C244 C243 1.392 . S
C244 C245 1.368 . S
C244 H272 0.929 . S
C245 C244 1.368 . S
C245 C246 1.386 . S
C245 H273 0.929 . S
C246 C245 1.386 . S
C246 C247 1.373 . S
C247 C246 1.373 . S
C247 C248 1.409 . S
C247 H274 0.931 . S
C248 C243 1.356 . S
C248 C247 1.409 . S
C248 H275 0.930 . S
C249 O262 1.270 . S
C249 O263 1.248 . S
C250 O264 1.267 . S
C250 O265 1.278 . S
C251 Pr241 2.880 . S
C251 C252 1.491 . S
C251 O266 1.254 . S
C251 O267 1.225 . S
C252 C251 1.491 . S
C252 C253 1.392 . S
C252 C257 1.356 . S
C253 C252 1.392 . S
C253 C254 1.368 . S
C253 H276 0.929 . S
C254 C253 1.368 . S
C254 C255 1.386 . S
C254 H277 0.929 . S
C255 C254 1.386 . S
C255 C256 1.373 . S
C256 C255 1.373 . S
C256 C257 1.409 . S
C256 H278 0.931 . S
C257 C252 1.356 . S
C257 C256 1.409 . S
C257 H279 0.930 . S
C258 O268 1.270 . S
C258 O269 1.248 . S
C259 O270 1.267 . S
C259 O271 1.278 . S
O260 Pr240 2.562 1_556 S
O260 C242 1.254 . S
O261 Pr240 2.490 1_556 S
O261 C242 1.225 . S
O262 Pr240 2.695 . S
O262 Pr241 2.436 . S
O262 C249 1.270 . S
O263 Pr240 2.512 . S
O263 C249 1.248 . S
O264 Pr241 2.438 . S
O264 C250 1.267 . S
O265 Pr240 2.437 . S
O265 C250 1.278 . S
O266 Pr241 2.562 . S
O266 C251 1.254 . S
O267 Pr241 2.490 . S
O267 C251 1.225 . S
O268 Pr240 2.436 . S
O268 Pr241 2.695 . S
O268 C258 1.270 . S
O269 Pr241 2.512 . S
O269 C258 1.248 . S
O270 Pr240 2.438 . S
O270 C259 1.267 . S
O271 Pr241 2.437 . S
O271 C259 1.278 . S
H272 C244 0.929 . S
H273 C245 0.929 . S
H274 C247 0.931 . S
H275 C248 0.930 . S
H276 C253 0.929 . S
H277 C254 0.929 . S
H278 C256 0.931 . S
H279 C257 0.930 . S
Pr280 C282 2.880 . S
Pr280 O300 2.562 . S
Pr280 O301 2.490 . S
Pr280 O302 2.695 . S
Pr280 O303 2.512 . S
Pr280 O305 2.437 . S
Pr280 O308 2.436 . S
Pr280 O310 2.438 . S
Pr281 C291 2.880 1_556 S
Pr281 O302 2.436 . S
Pr281 O304 2.438 . S
Pr281 O306 2.562 1_556 S
Pr281 O307 2.490 1_556 S
Pr281 O308 2.695 . S
Pr281 O309 2.512 . S
Pr281 O311 2.437 . S
C282 Pr280 2.880 . S
C282 C283 1.491 . S
C282 O300 1.254 . S
C282 O301 1.225 . S
C283 C282 1.491 . S
C283 C284 1.392 . S
C283 C288 1.356 . S
C284 C283 1.392 . S
C284 C285 1.368 . S
C284 H312 0.929 . S
C285 C284 1.368 . S
C285 C286 1.386 . S
C285 H313 0.929 . S
C286 C285 1.386 . S
C286 C287 1.373 . S
C287 C286 1.373 . S
C287 C288 1.409 . S
C287 H314 0.931 . S
C288 C283 1.356 . S
C288 C287 1.409 . S
C288 H315 0.930 . S
C289 O302 1.270 . S
C289 O303 1.248 . S
C290 O304 1.267 . S
C290 O305 1.278 . S
C291 Pr281 2.880 1_554 S
C291 C292 1.491 . S
C291 O306 1.254 . S
C291 O307 1.225 . S
C292 C291 1.491 . S
C292 C293 1.392 . S
C292 C297 1.356 . S
C293 C292 1.392 . S
C293 C294 1.368 . S
C293 H316 0.929 . S
C294 C293 1.368 . S
C294 C295 1.386 . S
C294 H317 0.929 . S
C295 C294 1.386 . S
C295 C296 1.373 . S
C296 C295 1.373 . S
C296 C297 1.409 . S
C296 H318 0.931 . S
C297 C292 1.356 . S
C297 C296 1.409 . S
C297 H319 0.930 . S
C298 O308 1.270 . S
C298 O309 1.248 . S
C299 O310 1.267 . S
C299 O311 1.278 . S
O300 Pr280 2.562 . S
O300 C282 1.254 . S
O301 Pr280 2.490 . S
O301 C282 1.225 . S
O302 Pr280 2.695 . S
O302 Pr281 2.436 . S
O302 C289 1.270 . S
O303 Pr280 2.512 . S
O303 C289 1.248 . S
O304 Pr281 2.438 . S
O304 C290 1.267 . S
O305 Pr280 2.437 . S
O305 C290 1.278 . S
O306 Pr281 2.562 1_554 S
O306 C291 1.254 . S
O307 Pr281 2.490 1_554 S
O307 C291 1.225 . S
O308 Pr280 2.436 . S
O308 Pr281 2.695 . S
O308 C298 1.270 . S
O309 Pr281 2.512 . S
O309 C298 1.248 . S
O310 Pr280 2.438 . S
O310 C299 1.267 . S
O311 Pr281 2.437 . S
O311 C299 1.278 . S
H312 C284 0.929 . S
H313 C285 0.929 . S
H314 C287 0.931 . S
H315 C288 0.930 . S
H316 C293 0.929 . S
H317 C294 0.929 . S
H318 C296 0.931 . S
H319 C297 0.930 . S
Pr320 C322 2.880 . S
Pr320 O340 2.562 . S
Pr320 O341 2.490 . S
Pr320 O342 2.695 . S
Pr320 O343 2.512 . S
Pr320 O345 2.437 . S
Pr320 O348 2.436 . S
Pr320 O350 2.438 . S
Pr321 C331 2.880 . S
Pr321 O342 2.436 . S
Pr321 O344 2.438 . S
Pr321 O346 2.562 . S
Pr321 O347 2.490 . S
Pr321 O348 2.695 . S
Pr321 O349 2.512 . S
Pr321 O351 2.437 . S
C322 Pr320 2.880 . S
C322 C323 1.491 . S
C322 O340 1.254 . S
C322 O341 1.225 . S
C323 C322 1.491 . S
C323 C324 1.392 . S
C323 C328 1.356 . S
C324 C323 1.392 . S
C324 C325 1.368 1_556 S
C324 H352 0.929 . S
C325 C324 1.368 1_554 S
C325 C326 1.386 . S
C325 H353 0.929 . S
C326 C325 1.386 . S
C326 C327 1.373 . S
C327 C326 1.373 . S
C327 C328 1.409 1_554 S
C327 H354 0.931 . S
C328 C323 1.356 . S
C328 C327 1.409 1_556 S
C328 H355 0.930 . S
C329 O342 1.270 . S
C329 O343 1.248 . S
C330 O344 1.267 . S
C330 O345 1.278 . S
C331 Pr321 2.880 . S
C331 C332 1.491 . S
C331 O346 1.254 . S
C331 O347 1.225 . S
C332 C331 1.491 . S
C332 C333 1.392 . S
C332 C337 1.356 . S
C333 C332 1.392 . S
C333 C334 1.368 . S
C333 H356 0.929 . S
C334 C333 1.368 . S
C334 C335 1.386 . S
C334 H357 0.929 . S
C335 C334 1.386 . S
C335 C336 1.373 . S
C336 C335 1.373 . S
C336 C337 1.409 . S
C336 H358 0.931 . S
C337 C332 1.356 . S
C337 C336 1.409 . S
C337 H359 0.930 . S
C338 O348 1.270 . S
C338 O349 1.248 . S
C339 O350 1.267 . S
C339 O351 1.278 . S
O340 Pr320 2.562 . S
O340 C322 1.254 . S
O341 Pr320 2.490 . S
O341 C322 1.225 . S
O342 Pr320 2.695 . S
O342 Pr321 2.436 . S
O342 C329 1.270 . S
O343 Pr320 2.512 . S
O343 C329 1.248 . S
O344 Pr321 2.438 . S
O344 C330 1.267 . S
O345 Pr320 2.437 . S
O345 C330 1.278 . S
O346 Pr321 2.562 . S
O346 C331 1.254 . S
O347 Pr321 2.490 . S
O347 C331 1.225 . S
O348 Pr320 2.436 . S
O348 Pr321 2.695 . S
O348 C338 1.270 . S
O349 Pr321 2.512 . S
O349 C338 1.248 . S
O350 Pr320 2.438 . S
O350 C339 1.267 . S
O351 Pr321 2.437 . S
O351 C339 1.278 . S
H352 C324 0.929 . S
H353 C325 0.929 . S
H354 C327 0.931 . S
H355 C328 0.930 . S
H356 C333 0.929 . S
H357 C334 0.929 . S
H358 C336 0.931 . S
H359 C337 0.930 . S
Pr360 C362 2.880 . S
Pr360 O380 2.562 . S
Pr360 O381 2.490 . S
Pr360 O382 2.695 . S
Pr360 O383 2.512 . S
Pr360 O385 2.437 . S
Pr360 O388 2.436 . S
Pr360 O390 2.438 . S
Pr361 C371 2.880 . S
Pr361 O382 2.436 . S
Pr361 O384 2.438 . S
Pr361 O386 2.562 . S
Pr361 O387 2.490 . S
Pr361 O388 2.695 . S
Pr361 O389 2.512 . S
Pr361 O391 2.437 . S
C362 Pr360 2.880 . S
C362 C363 1.491 . S
C362 O380 1.254 . S
C362 O381 1.225 . S
C363 C362 1.491 . S
C363 C364 1.392 . S
C363 C368 1.356 . S
C364 C363 1.392 . S
C364 C365 1.368 . S
C364 H392 0.929 . S
C365 C364 1.368 . S
C365 C366 1.386 . S
C365 H393 0.929 . S
C366 C365 1.386 . S
C366 C367 1.373 . S
C367 C366 1.373 . S
C367 C368 1.409 . S
C367 H394 0.931 . S
C368 C363 1.356 . S
C368 C367 1.409 . S
C368 H395 0.930 . S
C369 O382 1.270 . S
C369 O383 1.248 . S
C370 O384 1.267 . S
C370 O385 1.278 . S
C371 Pr361 2.880 . S
C371 C372 1.491 . S
C371 O386 1.254 . S
C371 O387 1.225 . S
C372 C371 1.491 . S
C372 C373 1.392 . S
C372 C377 1.356 . S
C373 C372 1.392 . S
C373 C374 1.368 1_554 S
C373 H396 0.929 . S
C374 C373 1.368 1_556 S
C374 C375 1.386 . S
C374 H397 0.929 . S
C375 C374 1.386 . S
C375 C376 1.373 . S
C376 C375 1.373 . S
C376 C377 1.409 1_556 S
C376 H398 0.931 . S
C377 C372 1.356 . S
C377 C376 1.409 1_554 S
C377 H399 0.930 . S
C378 O388 1.270 . S
C378 O389 1.248 . S
C379 O390 1.267 . S
C379 O391 1.278 . S
O380 Pr360 2.562 . S
O380 C362 1.254 . S
O381 Pr360 2.490 . S
O381 C362 1.225 . S
O382 Pr360 2.695 . S
O382 Pr361 2.436 . S
O382 C369 1.270 . S
O383 Pr360 2.512 . S
O383 C369 1.248 . S
O384 Pr361 2.438 . S
O384 C370 1.267 . S
O385 Pr360 2.437 . S
O385 C370 1.278 . S
O386 Pr361 2.562 . S
O386 C371 1.254 . S
O387 Pr361 2.490 . S
O387 C371 1.225 . S
O388 Pr360 2.436 . S
O388 Pr361 2.695 . S
O388 C378 1.270 . S
O389 Pr361 2.512 . S
O389 C378 1.248 . S
O390 Pr360 2.438 . S
O390 C379 1.267 . S
O391 Pr361 2.437 . S
O391 C379 1.278 . S
H392 C364 0.929 . S
H393 C365 0.929 . S
H394 C367 0.931 . S
H395 C368 0.930 . S
H396 C373 0.929 . S
H397 C374 0.929 . S
H398 C376 0.931 . S
H399 C377 0.930 . S
Pr400 C402 2.880 . S
Pr400 O420 2.562 . S
Pr400 O421 2.490 . S
Pr400 O422 2.695 . S
Pr400 O423 2.512 . S
Pr400 O425 2.437 . S
Pr400 O428 2.436 . S
Pr400 O430 2.438 . S
Pr401 C411 2.880 . S
Pr401 O422 2.436 . S
Pr401 O424 2.438 . S
Pr401 O426 2.562 . S
Pr401 O427 2.490 . S
Pr401 O428 2.695 . S
Pr401 O429 2.512 . S
Pr401 O431 2.437 . S
C402 Pr400 2.880 . S
C402 C403 1.491 . S
C402 O420 1.254 . S
C402 O421 1.225 . S
C403 C402 1.491 . S
C403 C404 1.392 . S
C403 C408 1.356 . S
C404 C403 1.392 . S
C404 C405 1.368 1_556 S
C404 H432 0.929 . S
C405 C404 1.368 1_554 S
C405 C406 1.386 . S
C405 H433 0.929 . S
C406 C405 1.386 . S
C406 C407 1.373 . S
C407 C406 1.373 . S
C407 C408 1.409 1_554 S
C407 H434 0.931 . S
C408 C403 1.356 . S
C408 C407 1.409 1_556 S
C408 H435 0.930 . S
C409 O422 1.270 . S
C409 O423 1.248 . S
C410 O424 1.267 . S
C410 O425 1.278 . S
C411 Pr401 2.880 . S
C411 C412 1.491 . S
C411 O426 1.254 . S
C411 O427 1.225 . S
C412 C411 1.491 . S
C412 C413 1.392 . S
C412 C417 1.356 . S
C413 C412 1.392 . S
C413 C414 1.368 . S
C413 H436 0.929 . S
C414 C413 1.368 . S
C414 C415 1.386 . S
C414 H437 0.929 . S
C415 C414 1.386 . S
C415 C416 1.373 . S
C416 C415 1.373 . S
C416 C417 1.409 . S
C416 H438 0.931 . S
C417 C412 1.356 . S
C417 C416 1.409 . S
C417 H439 0.930 . S
C418 O428 1.270 . S
C418 O429 1.248 . S
C419 O430 1.267 . S
C419 O431 1.278 . S
O420 Pr400 2.562 . S
O420 C402 1.254 . S
O421 Pr400 2.490 . S
O421 C402 1.225 . S
O422 Pr400 2.695 . S
O422 Pr401 2.436 . S
O422 C409 1.270 . S
O423 Pr400 2.512 . S
O423 C409 1.248 . S
O424 Pr401 2.438 . S
O424 C410 1.267 . S
O425 Pr400 2.437 . S
O425 C410 1.278 . S
O426 Pr401 2.562 . S
O426 C411 1.254 . S
O427 Pr401 2.490 . S
O427 C411 1.225 . S
O428 Pr400 2.436 . S
O428 Pr401 2.695 . S
O428 C418 1.270 . S
O429 Pr401 2.512 . S
O429 C418 1.248 . S
O430 Pr400 2.438 . S
O430 C419 1.267 . S
O431 Pr401 2.437 . S
O431 C419 1.278 . S
H432 C404 0.929 . S
H433 C405 0.929 . S
H434 C407 0.931 . S
H435 C408 0.930 . S
H436 C413 0.929 . S
H437 C414 0.929 . S
H438 C416 0.931 . S
H439 C417 0.930 . S
Pr440 C442 2.880 . S
Pr440 O460 2.562 . S
Pr440 O461 2.490 . S
Pr440 O462 2.695 . S
Pr440 O463 2.512 . S
Pr440 O465 2.437 . S
Pr440 O468 2.436 . S
Pr440 O470 2.438 . S
Pr441 C451 2.880 . S
Pr441 O462 2.436 . S
Pr441 O464 2.438 . S
Pr441 O466 2.562 . S
Pr441 O467 2.490 . S
Pr441 O468 2.695 . S
Pr441 O469 2.512 . S
Pr441 O471 2.437 . S
C442 Pr440 2.880 . S
C442 C443 1.491 . S
C442 O460 1.254 . S
C442 O461 1.225 . S
C443 C442 1.491 . S
C443 C444 1.392 . S
C443 C448 1.356 . S
C444 C443 1.392 . S
C444 C445 1.368 . S
C444 H472 0.929 . S
C445 C444 1.368 . S
C445 C446 1.386 . S
C445 H473 0.929 . S
C446 C445 1.386 . S
C446 C447 1.373 . S
C447 C446 1.373 . S
C447 C448 1.409 . S
C447 H474 0.931 . S
C448 C443 1.356 . S
C448 C447 1.409 . S
C448 H475 0.930 . S
C449 O462 1.270 . S
C449 O463 1.248 . S
C450 O464 1.267 . S
C450 O465 1.278 . S
C451 Pr441 2.880 . S
C451 C452 1.491 . S
C451 O466 1.254 . S
C451 O467 1.225 . S
C452 C451 1.491 . S
C452 C453 1.392 . S
C452 C457 1.356 . S
C453 C452 1.392 . S
C453 C454 1.368 1_554 S
C453 H476 0.929 . S
C454 C453 1.368 1_556 S
C454 C455 1.386 . S
C454 H477 0.929 . S
C455 C454 1.386 . S
C455 C456 1.373 . S
C456 C455 1.373 . S
C456 C457 1.409 1_556 S
C456 H478 0.931 . S
C457 C452 1.356 . S
C457 C456 1.409 1_554 S
C457 H479 0.930 . S
C458 O468 1.270 . S
C458 O469 1.248 . S
C459 O470 1.267 . S
C459 O471 1.278 . S
O460 Pr440 2.562 . S
O460 C442 1.254 . S
O461 Pr440 2.490 . S
O461 C442 1.225 . S
O462 Pr440 2.695 . S
O462 Pr441 2.436 . S
O462 C449 1.270 . S
O463 Pr440 2.512 . S
O463 C449 1.248 . S
O464 Pr441 2.438 . S
O464 C450 1.267 . S
O465 Pr440 2.437 . S
O465 C450 1.278 . S
O466 Pr441 2.562 . S
O466 C451 1.254 . S
O467 Pr441 2.490 . S
O467 C451 1.225 . S
O468 Pr440 2.436 . S
O468 Pr441 2.695 . S
O468 C458 1.270 . S
O469 Pr441 2.512 . S
O469 C458 1.248 . S
O470 Pr440 2.438 . S
O470 C459 1.267 . S
O471 Pr441 2.437 . S
O471 C459 1.278 . S
H472 C444 0.929 . S
H473 C445 0.929 . S
H474 C447 0.931 . S
H475 C448 0.930 . S
H476 C453 0.929 . S
H477 C454 0.929 . S
H478 C456 0.931 . S
H479 C457 0.930 . S
Pr480 C482 2.880 . S
Pr480 O500 2.562 . S
Pr480 O501 2.490 . S
Pr480 O502 2.695 . S
Pr480 O503 2.512 . S
Pr480 O505 2.437 . S
Pr480 O508 2.436 1_565 S
Pr480 O510 2.438 . S
Pr481 C491 2.880 . S
Pr481 O502 2.436 . S
Pr481 O504 2.438 . S
Pr481 O506 2.562 . S
Pr481 O507 2.490 . S
Pr481 O508 2.695 1_565 S
Pr481 O509 2.512 1_565 S
Pr481 O511 2.437 1_565 S
C482 Pr480 2.880 . S
C482 C483 1.491 . S
C482 O500 1.254 . S
C482 O501 1.225 . S
C483 C482 1.491 . S
C483 C484 1.392 . S
C483 C488 1.356 . S
C484 C483 1.392 . S
C484 C485 1.368 . S
C484 H512 0.929 . S
C485 C484 1.368 . S
C485 C486 1.386 . S
C485 H513 0.929 . S
C486 C485 1.386 . S
C486 C487 1.373 . S
C487 C486 1.373 . S
C487 C488 1.409 . S
C487 H514 0.931 1_565 S
C488 C483 1.356 . S
C488 C487 1.409 . S
C488 H515 0.930 1_565 S
C489 O502 1.270 . S
C489 O503 1.248 . S
C490 O504 1.267 . S
C490 O505 1.278 . S
C491 Pr481 2.880 . S
C491 C492 1.491 . S
C491 O506 1.254 . S
C491 O507 1.225 . S
C492 C491 1.491 . S
C492 C493 1.392 1_565 S
C492 C497 1.356 . S
C493 C492 1.392 1_545 S
C493 C494 1.368 1_556 S
C493 H516 0.929 . S
C494 C493 1.368 1_554 S
C494 C495 1.386 1_545 S
C494 H517 0.929 . S
C495 C494 1.386 1_565 S
C495 C496 1.373 . S
C496 C495 1.373 . S
C496 C497 1.409 1_554 S
C496 H518 0.931 . S
C497 C492 1.356 . S
C497 C496 1.409 1_556 S
C497 H519 0.930 . S
C498 O508 1.270 . S
C498 O509 1.248 . S
C499 O510 1.267 . S
C499 O511 1.278 1_565 S
O500 Pr480 2.562 . S
O500 C482 1.254 . S
O501 Pr480 2.490 . S
O501 C482 1.225 . S
O502 Pr480 2.695 . S
O502 Pr481 2.436 . S
O502 C489 1.270 . S
O503 Pr480 2.512 . S
O503 C489 1.248 . S
O504 Pr481 2.438 . S
O504 C490 1.267 . S
O505 Pr480 2.437 . S
O505 C490 1.278 . S
O506 Pr481 2.562 . S
O506 C491 1.254 . S
O507 Pr481 2.490 . S
O507 C491 1.225 . S
O508 Pr480 2.436 1_545 S
O508 Pr481 2.695 1_545 S
O508 C498 1.270 . S
O509 Pr481 2.512 1_545 S
O509 C498 1.248 . S
O510 Pr480 2.438 . S
O510 C499 1.267 . S
O511 Pr481 2.437 1_545 S
O511 C499 1.278 1_545 S
H512 C484 0.929 . S
H513 C485 0.929 . S
H514 C487 0.931 1_545 S
H515 C488 0.930 1_545 S
H516 C493 0.929 . S
H517 C494 0.929 . S
H518 C496 0.931 . S
H519 C497 0.930 . S
Pr520 C522 2.880 . S
Pr520 O540 2.562 . S
Pr520 O541 2.490 . S
Pr520 O542 2.695 1_655 S
Pr520 O543 2.512 1_655 S
Pr520 O545 2.437 1_655 S
Pr520 O548 2.436 . S
Pr520 O550 2.438 . S
Pr521 C531 2.880 . S
Pr521 O542 2.436 1_655 S
Pr521 O544 2.438 . S
Pr521 O546 2.562 . S
Pr521 O547 2.490 . S
Pr521 O548 2.695 . S
Pr521 O549 2.512 . S
Pr521 O551 2.437 . S
C522 Pr520 2.880 . S
C522 C523 1.491 . S
C522 O540 1.254 . S
C522 O541 1.225 . S
C523 C522 1.491 . S
C523 C524 1.392 1_655 S
C523 C528 1.356 . S
C524 C523 1.392 1_455 S
C524 C525 1.368 1_554 S
C524 H552 0.929 . S
C525 C524 1.368 1_556 S
C525 C526 1.386 1_455 S
C525 H553 0.929 . S
C526 C525 1.386 1_655 S
C526 C527 1.373 . S
C527 C526 1.373 . S
C527 C528 1.409 1_556 S
C527 H554 0.931 . S
C528 C523 1.356 . S
C528 C527 1.409 1_554 S
C528 H555 0.930 . S
C529 O542 1.270 . S
C529 O543 1.248 . S
C530 O544 1.267 . S
C530 O545 1.278 1_655 S
C531 Pr521 2.880 . S
C531 C532 1.491 . S
C531 O546 1.254 . S
C531 O547 1.225 . S
C532 C531 1.491 . S
C532 C533 1.392 . S
C532 C537 1.356 . S
C533 C532 1.392 . S
C533 C534 1.368 . S
C533 H556 0.929 . S
C534 C533 1.368 . S
C534 C535 1.386 . S
C534 H557 0.929 . S
C535 C534 1.386 . S
C535 C536 1.373 . S
C536 C535 1.373 . S
C536 C537 1.409 . S
C536 H558 0.931 1_655 S
C537 C532 1.356 . S
C537 C536 1.409 . S
C537 H559 0.930 1_655 S
C538 O548 1.270 . S
C538 O549 1.248 . S
C539 O550 1.267 . S
C539 O551 1.278 . S
O540 Pr520 2.562 . S
O540 C522 1.254 . S
O541 Pr520 2.490 . S
O541 C522 1.225 . S
O542 Pr520 2.695 1_455 S
O542 Pr521 2.436 1_455 S
O542 C529 1.270 . S
O543 Pr520 2.512 1_455 S
O543 C529 1.248 . S
O544 Pr521 2.438 . S
O544 C530 1.267 . S
O545 Pr520 2.437 1_455 S
O545 C530 1.278 1_455 S
O546 Pr521 2.562 . S
O546 C531 1.254 . S
O547 Pr521 2.490 . S
O547 C531 1.225 . S
O548 Pr520 2.436 . S
O548 Pr521 2.695 . S
O548 C538 1.270 . S
O549 Pr521 2.512 . S
O549 C538 1.248 . S
O550 Pr520 2.438 . S
O550 C539 1.267 . S
O551 Pr521 2.437 . S
O551 C539 1.278 . S
H552 C524 0.929 . S
H553 C525 0.929 . S
H554 C527 0.931 . S
H555 C528 0.930 . S
H556 C533 0.929 . S
H557 C534 0.929 . S
H558 C536 0.931 1_455 S
H559 C537 0.930 1_455 S
Pr560 C562 2.880 . S
Pr560 O580 2.562 . S
Pr560 O581 2.490 . S
Pr560 O582 2.695 . S
Pr560 O583 2.512 . S
Pr560 O585 2.437 . S
Pr560 O588 2.436 1_545 S
Pr560 O590 2.438 . S
Pr561 C571 2.880 . S
Pr561 O582 2.436 . S
Pr561 O584 2.438 . S
Pr561 O586 2.562 . S
Pr561 O587 2.490 . S
Pr561 O588 2.695 1_545 S
Pr561 O589 2.512 1_545 S
Pr561 O591 2.437 1_545 S
C562 Pr560 2.880 . S
C562 C563 1.491 . S
C562 O580 1.254 . S
C562 O581 1.225 . S
C563 C562 1.491 . S
C563 C564 1.392 . S
C563 C568 1.356 . S
C564 C563 1.392 . S
C564 C565 1.368 . S
C564 H592 0.929 . S
C565 C564 1.368 . S
C565 C566 1.386 . S
C565 H593 0.929 . S
C566 C565 1.386 . S
C566 C567 1.373 . S
C567 C566 1.373 . S
C567 C568 1.409 . S
C567 H594 0.931 1_545 S
C568 C563 1.356 . S
C568 C567 1.409 . S
C568 H595 0.930 1_545 S
C569 O582 1.270 . S
C569 O583 1.248 . S
C570 O584 1.267 . S
C570 O585 1.278 . S
C571 Pr561 2.880 . S
C571 C572 1.491 . S
C571 O586 1.254 . S
C571 O587 1.225 . S
C572 C571 1.491 . S
C572 C573 1.392 1_545 S
C572 C577 1.356 . S
C573 C572 1.392 1_565 S
C573 C574 1.368 1_556 S
C573 H596 0.929 . S
C574 C573 1.368 1_554 S
C574 C575 1.386 1_565 S
C574 H597 0.929 . S
C575 C574 1.386 1_545 S
C575 C576 1.373 . S
C576 C575 1.373 . S
C576 C577 1.409 1_554 S
C576 H598 0.931 . S
C577 C572 1.356 . S
C577 C576 1.409 1_556 S
C577 H599 0.930 . S
C578 O588 1.270 . S
C578 O589 1.248 . S
C579 O590 1.267 . S
C579 O591 1.278 1_545 S
O580 Pr560 2.562 . S
O580 C562 1.254 . S
O581 Pr560 2.490 . S
O581 C562 1.225 . S
O582 Pr560 2.695 . S
O582 Pr561 2.436 . S
O582 C569 1.270 . S
O583 Pr560 2.512 . S
O583 C569 1.248 . S
O584 Pr561 2.438 . S
O584 C570 1.267 . S
O585 Pr560 2.437 . S
O585 C570 1.278 . S
O586 Pr561 2.562 . S
O586 C571 1.254 . S
O587 Pr561 2.490 . S
O587 C571 1.225 . S
O588 Pr560 2.436 1_565 S
O588 Pr561 2.695 1_565 S
O588 C578 1.270 . S
O589 Pr561 2.512 1_565 S
O589 C578 1.248 . S
O590 Pr560 2.438 . S
O590 C579 1.267 . S
O591 Pr561 2.437 1_565 S
O591 C579 1.278 1_565 S
H592 C564 0.929 . S
H593 C565 0.929 . S
H594 C567 0.931 1_565 S
H595 C568 0.930 1_565 S
H596 C573 0.929 . S
H597 C574 0.929 . S
H598 C576 0.931 . S
H599 C577 0.930 . S
Pr600 C602 2.880 . S
Pr600 O620 2.562 . S
Pr600 O621 2.490 . S
Pr600 O622 2.695 1_455 S
Pr600 O623 2.512 1_455 S
Pr600 O625 2.437 1_455 S
Pr600 O628 2.436 . S
Pr600 O630 2.438 . S
Pr601 C611 2.880 . S
Pr601 O622 2.436 1_455 S
Pr601 O624 2.438 . S
Pr601 O626 2.562 . S
Pr601 O627 2.490 . S
Pr601 O628 2.695 . S
Pr601 O629 2.512 . S
Pr601 O631 2.437 . S
C602 Pr600 2.880 . S
C602 C603 1.491 . S
C602 O620 1.254 . S
C602 O621 1.225 . S
C603 C602 1.491 . S
C603 C604 1.392 1_455 S
C603 C608 1.356 . S
C604 C603 1.392 1_655 S
C604 C605 1.368 1_554 S
C604 H632 0.929 . S
C605 C604 1.368 1_556 S
C605 C606 1.386 1_655 S
C605 H633 0.929 . S
C606 C605 1.386 1_455 S
C606 C607 1.373 . S
C607 C606 1.373 . S
C607 C608 1.409 1_556 S
C607 H634 0.931 . S
C608 C603 1.356 . S
C608 C607 1.409 1_554 S
C608 H635 0.930 . S
C609 O622 1.270 . S
C609 O623 1.248 . S
C610 O624 1.267 . S
C610 O625 1.278 1_455 S
C611 Pr601 2.880 . S
C611 C612 1.491 . S
C611 O626 1.254 . S
C611 O627 1.225 . S
C612 C611 1.491 . S
C612 C613 1.392 . S
C612 C617 1.356 . S
C613 C612 1.392 . S
C613 C614 1.368 . S
C613 H636 0.929 . S
C614 C613 1.368 . S
C614 C615 1.386 . S
C614 H637 0.929 . S
C615 C614 1.386 . S
C615 C616 1.373 . S
C616 C615 1.373 . S
C616 C617 1.409 . S
C616 H638 0.931 1_455 S
C617 C612 1.356 . S
C617 C616 1.409 . S
C617 H639 0.930 1_455 S
C618 O628 1.270 . S
C618 O629 1.248 . S
C619 O630 1.267 . S
C619 O631 1.278 . S
O620 Pr600 2.562 . S
O620 C602 1.254 . S
O621 Pr600 2.490 . S
O621 C602 1.225 . S
O622 Pr600 2.695 1_655 S
O622 Pr601 2.436 1_655 S
O622 C609 1.270 . S
O623 Pr600 2.512 1_655 S
O623 C609 1.248 . S
O624 Pr601 2.438 . S
O624 C610 1.267 . S
O625 Pr600 2.437 1_655 S
O625 C610 1.278 1_655 S
O626 Pr601 2.562 . S
O626 C611 1.254 . S
O627 Pr601 2.490 . S
O627 C611 1.225 . S
O628 Pr600 2.436 . S
O628 Pr601 2.695 . S
O628 C618 1.270 . S
O629 Pr601 2.512 . S
O629 C618 1.248 . S
O630 Pr600 2.438 . S
O630 C619 1.267 . S
O631 Pr601 2.437 . S
O631 C619 1.278 . S
H632 C604 0.929 . S
H633 C605 0.929 . S
H634 C607 0.931 . S
H635 C608 0.930 . S
H636 C613 0.929 . S
H637 C614 0.929 . S
H638 C616 0.931 1_655 S
H639 C617 0.930 1_655 S
C459 C18 2.384 . S
C330 C49 2.384 . S
C98 C379 2.384 . S
C129 C410 2.384 . S
C178 C219 2.384 1_554 S
C250 C209 2.384 1_554 S
C258 C299 2.384 1_554 S
C170 C289 2.384 1_554 S
C139 C338 2.384 . S
C369 C10 2.384 . S
C59 C418 2.384 . S
C90 C449 2.384 . S
C498 C539 2.384 . S
C570 C529 2.384 . S
C619 C578 2.384 . S
C609 C490 2.384 . S
C9 C169 1.299 . S
C218 C58 1.299 . S
C89 C249 1.299 . S
C138 C298 1.299 . S
C329 C489 1.299 . S
C538 C378 1.299 . S
C409 C569 1.299 . S
C458 C618 1.299 . S
C579 C19 5.717 1_556 S
C50 C610 5.717 1_556 S
C99 C499 5.717 1_554 S
C130 C530 5.717 1_556 S
C179 C419 5.717 . S
C210 C450 5.717 . S
C259 C339 5.717 . S
C370 C290 5.717 . S
C6 C15 4.748 . S
C55 C46 4.748 . S
C86 C95 4.748 . S
C126 C135 4.748 . S
C175 C166 4.748 . S
C215 C206 4.748 . S
C246 C255 4.748 . S
C286 C295 4.748 . S
C326 C335 4.748 . S
C366 C375 4.748 . S
C415 C406 4.748 . S
C455 C446 4.748 . S
C486 C495 4.748 . S
C526 C535 4.748 . S
C575 C566 4.748 . S
C615 C606 4.748 . S
