# Generated by pormake.
# Topology npo, (4)-cn, num edge types: 1
# Building blocks:
#     Node 0, Type 0, BuildingBlock: AZAVOO_clean_sbu_0, # of connection points: 4
#     Node 1, Type 0, BuildingBlock: AZAVOO_clean_sbu_0, # of connection points: 4
#     Node 2, Type 0, BuildingBlock: AZAVOO_clean_sbu_0, # of connection points: 4
#     Node 3, Type 0, BuildingBlock: AZAVOO_clean_sbu_0, # of connection points: 4
#     Node 4, Type 0, BuildingBlock: AZAVOO_clean_sbu_0, # of connection points: 4
#     Node 5, Type 0, BuildingBlock: AZAVOO_clean_sbu_0, # of connection points: 4
#     Edge 6, Type (0, 0), BuildingBlock: FUNLAD_clean_linker_1, # of connection points: 2
#     Edge 7, Type (0, 0), BuildingBlock: FUNLAD_clean_linker_1, # of connection points: 2
#     Edge 8, Type (0, 0), BuildingBlock: FUNLAD_clean_linker_1, # of connection points: 2
#     Edge 9, Type (0, 0), BuildingBlock: FUNLAD_clean_linker_1, # of connection points: 2
#     Edge 10, Type (0, 0), BuildingBlock: FUNLAD_clean_linker_1, # of connection points: 2
#     Edge 11, Type (0, 0), BuildingBlock: FUNLAD_clean_linker_1, # of connection points: 2
#     Edge 12, Type (0, 0), BuildingBlock: FUNLAD_clean_linker_1, # of connection points: 2
#     Edge 13, Type (0, 0), BuildingBlock: FUNLAD_clean_linker_1, # of connection points: 2
#     Edge 14, Type (0, 0), BuildingBlock: FUNLAD_clean_linker_1, # of connection points: 2
#     Edge 15, Type (0, 0), BuildingBlock: FUNLAD_clean_linker_1, # of connection points: 2
#     Edge 16, Type (0, 0), BuildingBlock: FUNLAD_clean_linker_1, # of connection points: 2
#     Edge 17, Type (0, 0), BuildingBlock: FUNLAD_clean_linker_1, # of connection points: 2
# Relax obj value: 0.262
# Max RMSD: 0.248
# Mean RMSD: 0.231
data_MOF--net-npo--node1-AZAVOO_clean_sbu_0--edge1-FUNLAD_clean_linker_1
_symmetry_space_group_name_H-M    P1
_symmetry_Int_Tables_number       1
_symmetry_cell_setting            triclinic
loop_
_symmetry_equiv_pos_as_xyz
'x, y, z'
_cell_length_a     46.632105
_cell_length_b     42.191133
_cell_length_c     26.766516
_cell_angle_alpha  89.564196
_cell_angle_beta   90.576514
_cell_angle_gamma 130.61179
loop_
_atom_site_label
_atom_site_type_symbol
_atom_site_fract_x
_atom_site_fract_y
_atom_site_fract_z
_atom_type_partial_charge
Mg0 Mg 0.50287 0.10612 0.23322 0.0
O1 O 0.56727 0.15105 0.22979 0.0
O2 O 0.58874 0.11812 0.24954 0.0
Mg3 Mg 0.53619 0.04903 0.25827 0.0
C4 C 0.59425 0.15102 0.23742 0.0
C5 C 0.48844 0.16726 0.22788 0.0
O6 O 0.46749 0.14325 0.2658 0.0
O7 O 0.50149 0.08259 0.15607 0.0
O8 O 0.52144 0.04795 0.1757 0.0
O9 O 0.50448 0.11408 0.31594 0.0
O10 O 0.50209 0.06554 0.27964 0.0
C11 C 0.50995 0.06034 0.14382 0.0
C12 C 0.50447 0.08353 0.31995 0.0
O13 O 0.50558 0.15865 0.20281 0.0
Mg14 Mg 0.38211 0.43249 0.73605 0.0
O15 O 0.39127 0.49308 0.73094 0.0
O16 O 0.44992 0.54462 0.75919 0.0
Mg17 Mg 0.47761 0.51777 0.78264 0.0
C18 C 0.41843 0.53154 0.74095 0.0
C19 C 0.30228 0.39405 0.67768 0.0
O20 O 0.27863 0.37035 0.64117 0.0
O21 O 0.42011 0.45405 0.66909 0.0
O22 O 0.47827 0.50445 0.69942 0.0
O23 O 0.36134 0.4211 0.81499 0.0
O24 O 0.42093 0.45714 0.79375 0.0
C25 C 0.45575 0.48145 0.66352 0.0
C26 C 0.39641 0.44342 0.82835 0.0
O27 O 0.3313 0.39754 0.68319 0.0
Mg28 Mg 0.93763 0.5238 0.26143 0.0
O29 O 0.88439 0.45616 0.24911 0.0
O30 O 0.89793 0.41626 0.22711 0.0
Mg31 Mg 0.96233 0.45876 0.23317 0.0
C32 C 0.87424 0.42116 0.23618 0.0
C33 C 0.89461 0.55576 0.25534 0.0
O34 O 0.91573 0.57173 0.2152 0.0
O35 O 0.94334 0.50527 0.33892 0.0
O36 O 0.95806 0.46613 0.31667 0.0
O37 O 0.94398 0.53659 0.17902 0.0
O38 O 0.96978 0.51511 0.2204 0.0
C39 C 0.95163 0.48243 0.34975 0.0
C40 C 0.96403 0.52545 0.17875 0.0
O41 O 0.89876 0.53604 0.28641 0.0
Mg42 Mg 0.49358 0.88953 0.73714 0.0
O43 O 0.43128 0.85836 0.74217 0.0
O44 O 0.42614 0.90658 0.7571 0.0
Mg45 Mg 0.48624 0.96976 0.7601 0.0
C46 C 0.41143 0.86883 0.74965 0.0
C47 C 0.49958 0.82268 0.71888 0.0
O48 O 0.5321 0.85302 0.73997 0.0
O49 O 0.49554 0.91272 0.65877 0.0
O50 O 0.49302 0.96256 0.67723 0.0
O51 O 0.49584 0.88423 0.81967 0.0
O52 O 0.50801 0.93853 0.78158 0.0
C53 C 0.49563 0.94197 0.64566 0.0
C54 C 0.50333 0.91955 0.82257 0.0
O55 O 0.4764 0.82822 0.70907 0.0
Mg56 Mg 0.61051 0.54498 0.24367 0.0
O57 O 0.57162 0.47418 0.2554 0.0
O58 O 0.51528 0.45022 0.28209 0.0
Mg59 Mg 0.51764 0.50609 0.28424 0.0
C60 C 0.53786 0.4444 0.26956 0.0
C61 C 0.68658 0.57739 0.19881 0.0
O62 O 0.69293 0.61258 0.20036 0.0
O63 O 0.57953 0.53317 0.17022 0.0
O64 O 0.52418 0.51131 0.19863 0.0
O65 O 0.62797 0.55557 0.32319 0.0
O66 O 0.57921 0.54841 0.29509 0.0
C67 C 0.54642 0.52057 0.16277 0.0
C68 C 0.59884 0.552 0.33244 0.0
O69 O 0.6539 0.54339 0.20921 0.0
Mg70 Mg 0.0859 0.47919 0.75892 0.0
O71 O 0.13465 0.54868 0.74682 0.0
O72 O 0.11407 0.58393 0.74557 0.0
Mg73 Mg 0.05018 0.53558 0.75766 0.0
C74 C 0.14059 0.58262 0.74295 0.0
C75 C 0.15127 0.48189 0.73385 0.0
O76 O 0.14698 0.49577 0.69292 0.0
O77 O 0.08525 0.49155 0.84159 0.0
O78 O 0.06139 0.52347 0.83561 0.0
O79 O 0.07303 0.47004 0.67666 0.0
O80 O 0.04797 0.48524 0.73053 0.0
C81 C 0.07367 0.50884 0.86149 0.0
C82 C 0.05185 0.47915 0.68524 0.0
O83 O 0.12956 0.4712 0.77065 0.0
H84 H 0.51816 0.22871 0.19186 0.0
C85 C 0.49698 0.20727 0.21949 0.0
H86 H 0.46195 0.19852 0.2772 0.0
H87 H 0.56185 0.3868 0.33733 0.0
H88 H 0.56843 0.3572 0.40993 0.0
H89 H 0.54296 0.28446 0.40926 0.0
H90 H 0.5107 0.24088 0.33617 0.0
C91 C 0.48214 0.21931 0.24836 0.0
C92 C 0.49721 0.26312 0.24807 0.0
C93 C 0.51594 0.28815 0.29136 0.0
C94 C 0.53078 0.33014 0.29177 0.0
C95 C 0.54976 0.3546 0.33518 0.0
C96 C 0.55386 0.33806 0.37707 0.0
C97 C 0.53951 0.29711 0.37669 0.0
C98 C 0.52089 0.27236 0.33445 0.0
H99 H 0.49668 0.37721 0.28809 0.0
C100 C 0.52379 0.40137 0.27063 0.0
H101 H 0.56897 0.41423 0.22971 0.0
H102 H 0.4596 0.22268 0.16086 0.0
H103 H 0.45369 0.25279 0.08819 0.0
H104 H 0.48156 0.32645 0.08798 0.0
H105 H 0.51525 0.37034 0.16072 0.0
C106 C 0.5426 0.39099 0.2492 0.0
C107 C 0.52692 0.34705 0.24896 0.0
C108 C 0.50825 0.32216 0.20572 0.0
C109 C 0.49291 0.27995 0.20546 0.0
C110 C 0.47286 0.25528 0.16257 0.0
C111 C 0.46902 0.2721 0.1207 0.0
C112 C 0.48466 0.31355 0.12061 0.0
C113 C 0.50397 0.33841 0.16256 0.0
H114 H 0.31342 0.43377 0.74231 0.0
C115 C 0.29462 0.41556 0.711 0.0
H116 H 0.24492 0.39298 0.67212 0.0
H117 H 0.151 0.39671 0.82374 0.0
H118 H 0.12665 0.32639 0.84006 0.0
H119 H 0.16024 0.30327 0.80972 0.0
H120 H 0.21844 0.35049 0.76254 0.0
C121 C 0.2642 0.41212 0.70272 0.0
C122 C 0.2528 0.43048 0.73538 0.0
C123 C 0.21983 0.40329 0.76459 0.0
C124 C 0.20074 0.41679 0.78252 0.0
C125 C 0.16679 0.38822 0.80946 0.0
C126 C 0.15253 0.34775 0.81914 0.0
C127 C 0.17142 0.33472 0.80203 0.0
C128 C 0.20464 0.362 0.7749 0.0
H129 H 0.1919 0.47928 0.69874 0.0
C130 C 0.17943 0.47647 0.7344 0.0
H131 H 0.17704 0.46401 0.81148 0.0
H132 H 0.31864 0.49242 0.68738 0.0
H133 H 0.34619 0.56478 0.67786 0.0
H134 H 0.31524 0.58931 0.71403 0.0
H135 H 0.25575 0.54127 0.7586 0.0
C136 C 0.18961 0.46751 0.77569 0.0
C137 C 0.21492 0.45759 0.7712 0.0
C138 C 0.25088 0.48657 0.74856 0.0
C139 C 0.26949 0.47279 0.72956 0.0
C140 C 0.30375 0.50152 0.70339 0.0
C141 C 0.31985 0.54308 0.69775 0.0
C142 C 0.30236 0.55689 0.71798 0.0
C143 C 0.26824 0.52908 0.74316 0.0
H144 H 0.63678 0.20884 0.19606 0.0
C145 C 0.63284 0.18985 0.2274 0.0
H146 H 0.6581 0.18347 0.2874 0.0
H147 H 0.82543 0.29593 0.21773 0.0
H148 H 0.80874 0.22906 0.23151 0.0
H149 H 0.74288 0.16622 0.24849 0.0
H150 H 0.69354 0.17016 0.25304 0.0
C151 C 0.66251 0.20258 0.25589 0.0
C152 C 0.70197 0.24073 0.24332 0.0
C153 C 0.73031 0.2375 0.23852 0.0
C154 C 0.76806 0.27345 0.22658 0.0
C155 C 0.7961 0.26965 0.22513 0.0
C156 C 0.78695 0.23135 0.23312 0.0
C157 C 0.74991 0.196 0.2428 0.0
C158 C 0.72183 0.19882 0.2455 0.0
H159 H 0.8167 0.3856 0.26414 0.0
C160 C 0.83368 0.38463 0.23774 0.0
H161 H 0.83451 0.34994 0.18277 0.0
H162 H 0.65809 0.26183 0.26089 0.0
H163 H 0.67256 0.32631 0.2366 0.0
H164 H 0.73353 0.38341 0.19738 0.0
H165 H 0.78111 0.37706 0.18522 0.0
C166 C 0.81742 0.35061 0.20928 0.0
C167 C 0.77709 0.31219 0.2168 0.0
C168 C 0.74807 0.31455 0.21791 0.0
C169 C 0.71137 0.27985 0.23485 0.0
C170 C 0.68509 0.28561 0.24353 0.0
C171 C 0.69324 0.32274 0.23041 0.0
C172 C 0.72764 0.35499 0.20872 0.0
C173 C 0.75485 0.35112 0.20247 0.0
H174 H 0.51088 0.77967 0.72156 0.0
C175 C 0.48945 0.78179 0.71204 0.0
H176 H 0.43236 0.74806 0.69156 0.0
H177 H 0.48077 0.62944 0.65773 0.0
H178 H 0.51996 0.67711 0.59003 0.0
H179 H 0.52427 0.73749 0.57158 0.0
H180 H 0.48958 0.7507 0.62102 0.0
C181 C 0.45461 0.74691 0.69906 0.0
C182 C 0.44499 0.70556 0.70156 0.0
C183 C 0.46458 0.69763 0.67151 0.0
C184 C 0.46164 0.6625 0.68168 0.0
C185 C 0.48216 0.65582 0.65177 0.0
C186 C 0.50461 0.68281 0.61266 0.0
C187 C 0.50707 0.71683 0.6023 0.0
C188 C 0.48728 0.72425 0.63118 0.0
H189 H 0.38736 0.55098 0.71189 0.0
C190 C 0.41363 0.56211 0.72906 0.0
H191 H 0.46834 0.61482 0.75262 0.0
H192 H 0.39789 0.70717 0.75963 0.0
H193 H 0.35533 0.65686 0.82332 0.0
H194 H 0.35072 0.59629 0.84163 0.0
H195 H 0.38846 0.58555 0.79622 0.0
C196 C 0.44135 0.60318 0.73731 0.0
C197 C 0.43854 0.63491 0.72123 0.0
C198 C 0.41604 0.64049 0.74804 0.0
C199 C 0.41902 0.67572 0.73782 0.0
C200 C 0.39681 0.68106 0.7658 0.0
C201 C 0.37228 0.65242 0.80254 0.0
C202 C 0.36968 0.61832 0.81285 0.0
C203 C 0.39143 0.61243 0.78632 0.0
H204 H 0.7456 0.60742 0.1815 0.0
C205 C 0.71886 0.57871 0.19463 0.0
H206 H 0.69104 0.51936 0.22713 0.0
H207 H 0.81152 0.50301 0.16765 0.0
H208 H 0.75802 0.44897 0.11631 0.0
H209 H 0.70132 0.44203 0.11002 0.0
H210 H 0.69766 0.48887 0.15534 0.0
C211 C 0.71748 0.54806 0.21335 0.0
C212 C 0.75182 0.55246 0.21741 0.0
C213 C 0.75362 0.52509 0.19027 0.0
C214 C 0.78653 0.52948 0.19333 0.0
C215 C 0.78742 0.50143 0.16619 0.0
C216 C 0.75687 0.4702 0.13665 0.0
C217 C 0.72493 0.46625 0.13318 0.0
C218 C 0.72319 0.49333 0.15947 0.0
H219 H 0.84614 0.54266 0.2943 0.0
C220 C 0.86307 0.55568 0.26059 0.0
H221 H 0.86859 0.57874 0.18778 0.0
H222 H 0.75497 0.60492 0.28213 0.0
H223 H 0.80831 0.65853 0.33373 0.0
H224 H 0.86698 0.6692 0.33441 0.0
H225 H 0.87231 0.62567 0.28414 0.0
C226 C 0.85301 0.56781 0.22262 0.0
C227 C 0.81764 0.56134 0.22334 0.0
C228 C 0.81548 0.58795 0.25164 0.0
C229 C 0.78222 0.58296 0.24952 0.0
C230 C 0.78008 0.60849 0.28039 0.0
C231 C 0.81042 0.6392 0.31059 0.0
C232 C 0.84341 0.64512 0.3111 0.0
C233 C 0.84606 0.61986 0.28211 0.0
H234 H 0.3533 0.84555 0.75655 0.0
C235 C 0.3699 0.83636 0.74934 0.0
H236 H 0.36824 0.78607 0.73368 0.0
H237 H 0.20518 0.6582 0.83265 0.0
H238 H 0.24311 0.67326 0.90614 0.0
H239 H 0.31236 0.72971 0.90504 0.0
H240 H 0.34404 0.77164 0.83051 0.0
C241 C 0.35227 0.79612 0.74029 0.0
C242 C 0.31052 0.76362 0.74143 0.0
C243 C 0.2926 0.73921 0.78507 0.0
C244 C 0.25283 0.70626 0.78541 0.0
C245 C 0.23546 0.68295 0.82992 0.0
C246 C 0.25687 0.69143 0.87248 0.0
C247 C 0.29585 0.72324 0.87188 0.0
C248 C 0.31367 0.74702 0.82883 0.0
H249 H 0.20179 0.61886 0.73729 0.0
C250 C 0.18009 0.62149 0.7386 0.0
H251 H 0.16967 0.66342 0.74077 0.0
H252 H 0.33618 0.8056 0.6523 0.0
H253 H 0.29813 0.79097 0.57903 0.0
H254 H 0.22904 0.73345 0.57951 0.0
H255 H 0.19755 0.69019 0.65334 0.0
C256 C 0.19052 0.65955 0.73999 0.0
C257 C 0.23125 0.69724 0.74167 0.0
C258 C 0.24899 0.72266 0.69866 0.0
C259 C 0.28877 0.75586 0.69846 0.0
C260 C 0.306 0.78016 0.65457 0.0
C261 C 0.2845 0.77205 0.61225 0.0
C262 C 0.2456 0.73965 0.61252 0.0
C263 C 0.22789 0.71507 0.65509 0.0
H264 H 0.49613 0.91652 0.90425 0.0
C265 C 0.5032 0.93547 0.8712 0.0
H266 H 0.52023 0.99251 0.8434 0.0
H267 H 0.44397 0.96829 0.06523 0.0
H268 H 0.38431 0.9117 0.02582 0.0
H269 H 0.38223 0.89042 0.93933 0.0
H270 H 0.43987 0.92525 0.892 0.0
C271 C 0.51151 0.97237 0.87565 0.0
C272 C 0.51204 0.98823 0.92525 0.0
C273 C 0.47793 0.96847 0.95166 0.0
C274 C 0.47903 0.98159 0.00092 0.0
C275 C 0.44473 0.96019 0.02732 0.0
C276 C 0.41027 0.92759 0.00517 0.0
C277 C 0.40911 0.91554 0.95652 0.0
C278 C 0.44243 0.93564 0.92987 0.0
H279 H 0.49599 0.05821 0.06382 0.0
C280 C 0.50646 0.04851 0.09096 0.0
H281 H 0.52775 0.01746 0.10245 0.0
H282 H 0.58221 0.03476 0.88316 0.0
H283 H 0.6416 0.09337 0.9212 0.0
H284 H 0.64334 0.1171 0.00601 0.0
H285 H 0.58566 0.08228 0.05335 0.0
C286 C 0.51614 0.02625 0.07603 0.0
C287 C 0.51414 0.01514 0.02296 0.0
C288 C 0.54802 0.03618 -0.00439 0.0
C289 C 0.54697 0.02274 0.94661 0.0
C290 C 0.58132 0.04386 0.92041 0.0
C291 C 0.61563 0.07754 0.94181 0.0
C292 C 0.61661 0.09087 0.98958 0.0
C293 C 0.58331 0.07054 0.01637 0.0
H294 H 0.60267 0.54704 0.41369 0.0
C295 C 0.58661 0.54742 0.38432 0.0
H296 H 0.54027 0.54407 0.36778 0.0
H297 H 0.50063 0.45108 0.58963 0.0
H298 H 0.49449 0.39725 0.54459 0.0
H299 H 0.50893 0.40504 0.45466 0.0
H300 H 0.53029 0.467 0.40958 0.0
C301 C 0.55589 0.5422 0.39621 0.0
C302 C 0.54334 0.53536 0.4489 0.0
C303 C 0.52924 0.49799 0.47404 0.0
C304 C 0.5191 0.49255 0.5252 0.0
C305 C 0.50722 0.45606 0.55024 0.0
C306 C 0.5038 0.42502 0.52491 0.0
C307 C 0.51207 0.42948 0.47434 0.0
C308 C 0.52459 0.46541 0.44899 0.0
H309 H 0.45101 0.46713 0.58337 0.0
C310 C 0.47089 0.48713 0.61315 0.0
H311 H 0.52789 0.53802 0.63128 0.0
H312 H 0.56908 0.61038 0.41143 0.0
H313 H 0.57287 0.66303 0.45563 0.0
H314 H 0.55272 0.6523 0.54344 0.0
H315 H 0.52892 0.58905 0.5877 0.0
C316 C 0.50774 0.51662 0.60255 0.0
C317 C 0.5212 0.52351 0.55032 0.0
C318 C 0.5349 0.56063 0.52502 0.0
C319 C 0.54603 0.56658 0.47423 0.0
C320 C 0.55991 0.60409 0.4499 0.0
C321 C 0.56226 0.63458 0.47483 0.0
C322 C 0.55094 0.62856 0.52428 0.0
C323 C 0.53737 0.59209 0.54926 0.0
H324 H 0.07529 0.49064 0.93875 0.0
C325 C 0.07091 0.50874 0.91626 0.0
H326 H 0.05503 0.54569 0.91568 0.0
H327 H 0.94732 0.44262 0.10082 0.0
H328 H 0.90749 0.387 0.04038 0.0
H329 H 0.93115 0.39195 0.95612 0.0
H330 H 0.99482 0.4522 0.93205 0.0
C331 C 0.05916 0.52718 0.93769 0.0
C332 C 0.04753 0.5203 0.99047 0.0
C333 C 0.01016 0.48481 0.00358 0.0
C334 C 0.99619 0.48241 0.05155 0.0
C335 C 0.95897 0.44646 0.06428 0.0
C336 C 0.93589 0.41423 0.03007 0.0
C337 C 0.94924 0.41699 0.98267 0.0
C338 C 0.98588 0.4518 0.96933 0.0
H339 H 0.96951 0.52688 0.09678 0.0
C340 C 0.97844 0.52265 0.13203 0.0
H341 H 0.01391 0.51426 0.16756 0.0
H342 H 0.12166 0.58972 0.97838 0.0
H343 H 0.16197 0.64478 0.03949 0.0
H344 H 0.13745 0.64122 0.12253 0.0
H345 H 0.07256 0.58271 0.14499 0.0
C346 C 0.00332 0.51647 0.13253 0.0
C347 C 0.01938 0.51591 0.08553 0.0
C348 C 0.05755 0.54992 0.07371 0.0
C349 C 0.07163 0.55214 0.02589 0.0
C350 C 0.10958 0.58682 0.01422 0.0
C351 C 0.13298 0.6185 0.04895 0.0
C352 C 0.11918 0.61648 0.09572 0.0
C353 C 0.0819 0.58271 0.10814 0.0
H354 H 0.51153 0.08783 0.40193 0.0
C355 C 0.50822 0.07064 0.36913 0.0
H356 H 0.5009 0.0188 0.3422 0.0
H357 H 0.56989 0.04865 0.57339 0.0
H358 H 0.62802 0.11285 0.5409 0.0
H359 H 0.63111 0.13549 0.45439 0.0
H360 H 0.57603 0.09429 0.40003 0.0
C361 C 0.50589 0.03732 0.37445 0.0
C362 C 0.50557 0.0219 0.42471 0.0
C363 C 0.53826 0.04598 0.45555 0.0
C364 C 0.53664 0.03259 0.50511 0.0
C365 C 0.56954 0.05746 0.53546 0.0
C366 C 0.60312 0.09428 0.51722 0.0
C367 C 0.60485 0.10706 0.46854 0.0
C368 C 0.57294 0.08325 0.43784 0.0
H369 H 0.49886 0.93361 0.5648 0.0
C370 C 0.49842 0.95223 0.59211 0.0
H371 H 0.50084 0.00347 0.6038 0.0
H372 H 0.43871 0.96675 0.37372 0.0
H373 H 0.38112 0.90181 0.40553 0.0
H374 H 0.37815 0.87887 0.49179 0.0
H375 H 0.43277 0.9206 0.5466 0.0
C376 C 0.49999 0.98376 0.57679 0.0
C377 C 0.50259 0.99482 0.52332 0.0
C378 C 0.47035 0.9698 0.49175 0.0
C379 C 0.47195 0.98324 0.4422 0.0
C380 C 0.43918 0.95802 0.41162 0.0
C381 C 0.40586 0.92068 0.42944 0.0
C382 C 0.4042 0.90776 0.47799 0.0
C383 C 0.43589 0.93197 0.50902 0.0
H384 H 0.38688 0.44284 0.90938 0.0
C385 C 0.40797 0.45263 0.88137 0.0
H386 H 0.46463 0.48048 0.8677 0.0
H387 H 0.53394 0.57697 0.07074 0.0
H388 H 0.55579 0.63416 0.01472 0.0
H389 H 0.53207 0.6206 0.92798 0.0
H390 H 0.48618 0.54974 0.8968 0.0
C391 C 0.44335 0.47037 0.89552 0.0
C392 C 0.45555 0.47795 0.94877 0.0
C393 C 0.48264 0.51956 0.96626 0.0
C394 C 0.49659 0.5274 0.01613 0.0
C395 C 0.52294 0.56924 0.03295 0.0
C396 C 0.5356 0.60238 0.00124 0.0
C397 C 0.52222 0.59474 0.95241 0.0
C398 C 0.49599 0.5539 0.93495 0.0
H399 H 0.55203 0.52361 0.08045 0.0
C400 C 0.53309 0.51581 0.11083 0.0
H401 H 0.47836 0.49205 0.1303 0.0
H402 H 0.40574 0.39431 0.92625 0.0
H403 H 0.38366 0.33732 0.9825 0.0
H404 H 0.40671 0.35096 0.06957 0.0
H405 H 0.45227 0.42181 0.10074 0.0
C406 C 0.49807 0.50131 0.1004 0.0
C407 C 0.48366 0.49358 0.04823 0.0
C408 C 0.45621 0.45196 0.03099 0.0
C409 C 0.44242 0.44409 0.98102 0.0
C410 C 0.4164 0.4022 0.96417 0.0
C411 C 0.40364 0.36911 -0.00398 0.0
C412 C 0.41664 0.37679 0.04502 0.0
C413 C 0.44273 0.41764 0.06246 0.0
H414 H 0.01716 0.49332 0.65615 0.0
C415 C 0.03418 0.48532 0.64526 0.0
H416 H 0.05554 0.4745 0.58469 0.0
H417 H 0.90718 0.44153 0.4849 0.0
H418 H 0.86965 0.37876 0.53615 0.0
H419 H 0.90028 0.36488 0.59731 0.0
H420 H 0.96837 0.41372 0.60805 0.0
C421 C 0.03773 0.48111 0.59681 0.0
C422 C 0.01913 0.48819 0.55865 0.0
C423 C 0.97931 0.45873 0.55233 0.0
C424 C 0.96174 0.46592 0.51594 0.0
C425 C 0.9219 0.43674 0.51109 0.0
C426 C 0.90008 0.4008 0.54041 0.0
C427 C 0.91732 0.39306 0.57494 0.0
C428 C 0.95646 0.42151 0.58093 0.0
H429 H 0.95813 0.45154 0.40881 0.0
C430 C 0.95712 0.47626 0.40178 0.0
H431 H 0.96947 0.53026 0.43133 0.0
H432 H 0.09558 0.55231 0.56448 0.0
H433 H 0.13276 0.61495 0.51335 0.0
H434 H 0.10239 0.62639 0.4484 0.0
H435 H 0.03467 0.57552 0.43454 0.0
C436 C 0.96743 0.50346 0.43833 0.0
C437 C 0.98408 0.50158 0.48469 0.0
C438 C 0.02364 0.53198 0.49264 0.0
C439 C 0.04121 0.52521 0.52966 0.0
C440 C 0.08083 0.5558 0.53661 0.0
C441 C 0.10251 0.59189 0.50753 0.0
C442 C 0.08541 0.59833 0.47098 0.0
C443 C 0.04648 0.56881 0.46336 0.0
loop_
_geom_bond_atom_site_label_1
_geom_bond_atom_site_label_2
_geom_bond_distance
_geom_bond_site_symmetry_2
_ccdc_geom_bond_type
Mg0 O1 2.028 . S
Mg0 O7 1.986 . S
Mg0 O9 2.114 . S
Mg0 O10 2.251 . S
Mg0 O13 2.010 . S
O1 Mg0 2.028 . S
O1 C4 1.250 . S
O2 Mg3 2.028 . S
O2 C4 1.248 . S
Mg3 O2 2.028 . S
Mg3 O8 2.032 . S
Mg3 O10 2.079 . S
C4 O1 1.250 . S
C4 O2 1.248 . S
C5 O6 1.264 . S
C5 O13 1.249 . S
O6 C5 1.264 . S
O7 Mg0 1.986 . S
O7 C11 1.246 . S
O8 Mg3 2.032 . S
O8 C11 1.259 . S
O9 Mg0 2.114 . S
O9 C12 1.252 . S
O10 Mg0 2.251 . S
O10 Mg3 2.079 . S
O10 C12 1.273 . S
C11 O7 1.246 . S
C11 O8 1.259 . S
C12 O9 1.252 . S
C12 O10 1.273 . S
O13 Mg0 2.010 . S
O13 C5 1.249 . S
Mg14 O15 2.028 . S
Mg14 O21 1.986 . S
Mg14 O23 2.114 . S
Mg14 O24 2.251 . S
Mg14 O27 2.010 . S
O15 Mg14 2.028 . S
O15 C18 1.250 . S
O16 Mg17 2.028 . S
O16 C18 1.248 . S
Mg17 O16 2.028 . S
Mg17 O22 2.032 . S
Mg17 O24 2.079 . S
C18 O15 1.250 . S
C18 O16 1.248 . S
C19 O20 1.264 . S
C19 O27 1.249 . S
O20 C19 1.264 . S
O21 Mg14 1.986 . S
O21 C25 1.246 . S
O22 Mg17 2.032 . S
O22 C25 1.259 . S
O23 Mg14 2.114 . S
O23 C26 1.252 . S
O24 Mg14 2.251 . S
O24 Mg17 2.079 . S
O24 C26 1.273 . S
C25 O21 1.246 . S
C25 O22 1.259 . S
C26 O23 1.252 . S
C26 O24 1.273 . S
O27 Mg14 2.010 . S
O27 C19 1.249 . S
Mg28 O29 2.028 . S
Mg28 O35 1.986 . S
Mg28 O37 2.114 . S
Mg28 O38 2.251 . S
Mg28 O41 2.010 . S
O29 Mg28 2.028 . S
O29 C32 1.250 . S
O30 Mg31 2.028 . S
O30 C32 1.248 . S
Mg31 O30 2.028 . S
Mg31 O36 2.032 . S
Mg31 O38 2.079 . S
C32 O29 1.250 . S
C32 O30 1.248 . S
C33 O34 1.264 . S
C33 O41 1.249 . S
O34 C33 1.264 . S
O35 Mg28 1.986 . S
O35 C39 1.246 . S
O36 Mg31 2.032 . S
O36 C39 1.259 . S
O37 Mg28 2.114 . S
O37 C40 1.252 . S
O38 Mg28 2.251 . S
O38 Mg31 2.079 . S
O38 C40 1.273 . S
C39 O35 1.246 . S
C39 O36 1.259 . S
C40 O37 1.252 . S
C40 O38 1.273 . S
O41 Mg28 2.010 . S
O41 C33 1.249 . S
Mg42 O43 2.028 . S
Mg42 O49 1.986 . S
Mg42 O51 2.114 . S
Mg42 O52 2.251 . S
Mg42 O55 2.010 . S
O43 Mg42 2.028 . S
O43 C46 1.250 . S
O44 Mg45 2.028 . S
O44 C46 1.248 . S
Mg45 O44 2.028 . S
Mg45 O50 2.032 . S
Mg45 O52 2.079 . S
C46 O43 1.250 . S
C46 O44 1.248 . S
C47 O48 1.264 . S
C47 O55 1.249 . S
O48 C47 1.264 . S
O49 Mg42 1.986 . S
O49 C53 1.246 . S
O50 Mg45 2.032 . S
O50 C53 1.259 . S
O51 Mg42 2.114 . S
O51 C54 1.252 . S
O52 Mg42 2.251 . S
O52 Mg45 2.079 . S
O52 C54 1.273 . S
C53 O49 1.246 . S
C53 O50 1.259 . S
C54 O51 1.252 . S
C54 O52 1.273 . S
O55 Mg42 2.010 . S
O55 C47 1.249 . S
Mg56 O57 2.028 . S
Mg56 O63 1.986 . S
Mg56 O65 2.114 . S
Mg56 O66 2.251 . S
Mg56 O69 2.010 . S
O57 Mg56 2.028 . S
O57 C60 1.250 . S
O58 Mg59 2.028 . S
O58 C60 1.248 . S
Mg59 O58 2.028 . S
Mg59 O64 2.032 . S
Mg59 O66 2.079 . S
C60 O57 1.250 . S
C60 O58 1.248 . S
C61 O62 1.264 . S
C61 O69 1.249 . S
O62 C61 1.264 . S
O63 Mg56 1.986 . S
O63 C67 1.246 . S
O64 Mg59 2.032 . S
O64 C67 1.259 . S
O65 Mg56 2.114 . S
O65 C68 1.252 . S
O66 Mg56 2.251 . S
O66 Mg59 2.079 . S
O66 C68 1.273 . S
C67 O63 1.246 . S
C67 O64 1.259 . S
C68 O65 1.252 . S
C68 O66 1.273 . S
O69 Mg56 2.010 . S
O69 C61 1.249 . S
Mg70 O71 2.028 . S
Mg70 O77 1.986 . S
Mg70 O79 2.114 . S
Mg70 O80 2.251 . S
Mg70 O83 2.010 . S
O71 Mg70 2.028 . S
O71 C74 1.250 . S
O72 Mg73 2.028 . S
O72 C74 1.248 . S
Mg73 O72 2.028 . S
Mg73 O78 2.032 . S
Mg73 O80 2.079 . S
C74 O71 1.250 . S
C74 O72 1.248 . S
C75 O76 1.264 . S
C75 O83 1.249 . S
O76 C75 1.264 . S
O77 Mg70 1.986 . S
O77 C81 1.246 . S
O78 Mg73 2.032 . S
O78 C81 1.259 . S
O79 Mg70 2.114 . S
O79 C82 1.252 . S
O80 Mg70 2.251 . S
O80 Mg73 2.079 . S
O80 C82 1.273 . S
C81 O77 1.246 . S
C81 O78 1.259 . S
C82 O79 1.252 . S
C82 O80 1.273 . S
O83 Mg70 2.010 . S
O83 C75 1.249 . S
H84 C85 0.951 . S
C85 H84 0.951 . S
C85 C91 1.265 . S
H86 C91 0.950 . S
H87 C95 0.949 . S
H88 C96 0.950 . S
H89 C97 0.951 . S
H90 C98 0.951 . S
C91 C85 1.265 . S
C91 H86 0.950 . S
C91 C92 1.478 . S
C92 C91 1.478 . S
C92 C93 1.397 . S
C92 C109 1.394 . S
C93 C92 1.397 . S
C93 C94 1.438 . S
C93 C98 1.429 . S
C94 C93 1.438 . S
C94 C95 1.428 . S
C94 C107 1.394 . S
C95 H87 0.949 . S
C95 C94 1.428 . S
C95 C96 1.345 . S
C96 H88 0.950 . S
C96 C95 1.345 . S
C96 C97 1.424 . S
C97 H89 0.951 . S
C97 C96 1.424 . S
C97 C98 1.347 . S
C98 H90 0.951 . S
C98 C93 1.429 . S
C98 C97 1.347 . S
H99 C100 0.951 . S
C100 H99 0.951 . S
C100 C106 1.265 . S
H101 C106 0.950 . S
H102 C110 0.949 . S
H103 C111 0.950 . S
H104 C112 0.951 . S
H105 C113 0.951 . S
C106 C100 1.265 . S
C106 H101 0.950 . S
C106 C107 1.478 . S
C107 C94 1.394 . S
C107 C106 1.478 . S
C107 C108 1.397 . S
C108 C107 1.397 . S
C108 C109 1.438 . S
C108 C113 1.429 . S
C109 C92 1.394 . S
C109 C108 1.438 . S
C109 C110 1.428 . S
C110 H102 0.949 . S
C110 C109 1.428 . S
C110 C111 1.345 . S
C111 H103 0.950 . S
C111 C110 1.345 . S
C111 C112 1.424 . S
C112 H104 0.951 . S
C112 C111 1.424 . S
C112 C113 1.347 . S
C113 H105 0.951 . S
C113 C108 1.429 . S
C113 C112 1.347 . S
H114 C115 0.951 . S
C115 H114 0.951 . S
C115 C121 1.265 . S
H116 C121 0.950 . S
H117 C125 0.949 . S
H118 C126 0.950 . S
H119 C127 0.951 . S
H120 C128 0.951 . S
C121 C115 1.265 . S
C121 H116 0.950 . S
C121 C122 1.478 . S
C122 C121 1.478 . S
C122 C123 1.397 . S
C122 C139 1.394 . S
C123 C122 1.397 . S
C123 C124 1.438 . S
C123 C128 1.429 . S
C124 C123 1.438 . S
C124 C125 1.428 . S
C124 C137 1.394 . S
C125 H117 0.949 . S
C125 C124 1.428 . S
C125 C126 1.345 . S
C126 H118 0.950 . S
C126 C125 1.345 . S
C126 C127 1.424 . S
C127 H119 0.951 . S
C127 C126 1.424 . S
C127 C128 1.347 . S
C128 H120 0.951 . S
C128 C123 1.429 . S
C128 C127 1.347 . S
H129 C130 0.951 . S
C130 H129 0.951 . S
C130 C136 1.265 . S
H131 C136 0.950 . S
H132 C140 0.949 . S
H133 C141 0.950 . S
H134 C142 0.951 . S
H135 C143 0.951 . S
C136 C130 1.265 . S
C136 H131 0.950 . S
C136 C137 1.478 . S
C137 C124 1.394 . S
C137 C136 1.478 . S
C137 C138 1.397 . S
C138 C137 1.397 . S
C138 C139 1.438 . S
C138 C143 1.429 . S
C139 C122 1.394 . S
C139 C138 1.438 . S
C139 C140 1.428 . S
C140 H132 0.949 . S
C140 C139 1.428 . S
C140 C141 1.345 . S
C141 H133 0.950 . S
C141 C140 1.345 . S
C141 C142 1.424 . S
C142 H134 0.951 . S
C142 C141 1.424 . S
C142 C143 1.347 . S
C143 H135 0.951 . S
C143 C138 1.429 . S
C143 C142 1.347 . S
H144 C145 0.951 . S
C145 H144 0.951 . S
C145 C151 1.265 . S
H146 C151 0.950 . S
H147 C155 0.949 . S
H148 C156 0.950 . S
H149 C157 0.951 . S
H150 C158 0.951 . S
C151 C145 1.265 . S
C151 H146 0.950 . S
C151 C152 1.478 . S
C152 C151 1.478 . S
C152 C153 1.397 . S
C152 C169 1.394 . S
C153 C152 1.397 . S
C153 C154 1.438 . S
C153 C158 1.429 . S
C154 C153 1.438 . S
C154 C155 1.428 . S
C154 C167 1.394 . S
C155 H147 0.949 . S
C155 C154 1.428 . S
C155 C156 1.345 . S
C156 H148 0.950 . S
C156 C155 1.345 . S
C156 C157 1.424 . S
C157 H149 0.951 . S
C157 C156 1.424 . S
C157 C158 1.347 . S
C158 H150 0.951 . S
C158 C153 1.429 . S
C158 C157 1.347 . S
H159 C160 0.951 . S
C160 H159 0.951 . S
C160 C166 1.265 . S
H161 C166 0.950 . S
H162 C170 0.949 . S
H163 C171 0.950 . S
H164 C172 0.951 . S
H165 C173 0.951 . S
C166 C160 1.265 . S
C166 H161 0.950 . S
C166 C167 1.478 . S
C167 C154 1.394 . S
C167 C166 1.478 . S
C167 C168 1.397 . S
C168 C167 1.397 . S
C168 C169 1.438 . S
C168 C173 1.429 . S
C169 C152 1.394 . S
C169 C168 1.438 . S
C169 C170 1.428 . S
C170 H162 0.949 . S
C170 C169 1.428 . S
C170 C171 1.345 . S
C171 H163 0.950 . S
C171 C170 1.345 . S
C171 C172 1.424 . S
C172 H164 0.951 . S
C172 C171 1.424 . S
C172 C173 1.347 . S
C173 H165 0.951 . S
C173 C168 1.429 . S
C173 C172 1.347 . S
H174 C175 0.951 . S
C175 H174 0.951 . S
C175 C181 1.265 . S
H176 C181 0.950 . S
H177 C185 0.949 . S
H178 C186 0.950 . S
H179 C187 0.951 . S
H180 C188 0.951 . S
C181 C175 1.265 . S
C181 H176 0.950 . S
C181 C182 1.478 . S
C182 C181 1.478 . S
C182 C183 1.397 . S
C182 C199 1.394 . S
C183 C182 1.397 . S
C183 C184 1.438 . S
C183 C188 1.429 . S
C184 C183 1.438 . S
C184 C185 1.428 . S
C184 C197 1.394 . S
C185 H177 0.949 . S
C185 C184 1.428 . S
C185 C186 1.345 . S
C186 H178 0.950 . S
C186 C185 1.345 . S
C186 C187 1.424 . S
C187 H179 0.951 . S
C187 C186 1.424 . S
C187 C188 1.347 . S
C188 H180 0.951 . S
C188 C183 1.429 . S
C188 C187 1.347 . S
H189 C190 0.951 . S
C190 H189 0.951 . S
C190 C196 1.265 . S
H191 C196 0.950 . S
H192 C200 0.949 . S
H193 C201 0.950 . S
H194 C202 0.951 . S
H195 C203 0.951 . S
C196 C190 1.265 . S
C196 H191 0.950 . S
C196 C197 1.478 . S
C197 C184 1.394 . S
C197 C196 1.478 . S
C197 C198 1.397 . S
C198 C197 1.397 . S
C198 C199 1.438 . S
C198 C203 1.429 . S
C199 C182 1.394 . S
C199 C198 1.438 . S
C199 C200 1.428 . S
C200 H192 0.949 . S
C200 C199 1.428 . S
C200 C201 1.345 . S
C201 H193 0.950 . S
C201 C200 1.345 . S
C201 C202 1.424 . S
C202 H194 0.951 . S
C202 C201 1.424 . S
C202 C203 1.347 . S
C203 H195 0.951 . S
C203 C198 1.429 . S
C203 C202 1.347 . S
H204 C205 0.951 . S
C205 H204 0.951 . S
C205 C211 1.265 . S
H206 C211 0.950 . S
H207 C215 0.949 . S
H208 C216 0.950 . S
H209 C217 0.951 . S
H210 C218 0.951 . S
C211 C205 1.265 . S
C211 H206 0.950 . S
C211 C212 1.478 . S
C212 C211 1.478 . S
C212 C213 1.397 . S
C212 C229 1.394 . S
C213 C212 1.397 . S
C213 C214 1.438 . S
C213 C218 1.429 . S
C214 C213 1.438 . S
C214 C215 1.428 . S
C214 C227 1.394 . S
C215 H207 0.949 . S
C215 C214 1.428 . S
C215 C216 1.345 . S
C216 H208 0.950 . S
C216 C215 1.345 . S
C216 C217 1.424 . S
C217 H209 0.951 . S
C217 C216 1.424 . S
C217 C218 1.347 . S
C218 H210 0.951 . S
C218 C213 1.429 . S
C218 C217 1.347 . S
H219 C220 0.951 . S
C220 H219 0.951 . S
C220 C226 1.265 . S
H221 C226 0.950 . S
H222 C230 0.949 . S
H223 C231 0.950 . S
H224 C232 0.951 . S
H225 C233 0.951 . S
C226 C220 1.265 . S
C226 H221 0.950 . S
C226 C227 1.478 . S
C227 C214 1.394 . S
C227 C226 1.478 . S
C227 C228 1.397 . S
C228 C227 1.397 . S
C228 C229 1.438 . S
C228 C233 1.429 . S
C229 C212 1.394 . S
C229 C228 1.438 . S
C229 C230 1.428 . S
C230 H222 0.949 . S
C230 C229 1.428 . S
C230 C231 1.345 . S
C231 H223 0.950 . S
C231 C230 1.345 . S
C231 C232 1.424 . S
C232 H224 0.951 . S
C232 C231 1.424 . S
C232 C233 1.347 . S
C233 H225 0.951 . S
C233 C228 1.429 . S
C233 C232 1.347 . S
H234 C235 0.951 . S
C235 H234 0.951 . S
C235 C241 1.265 . S
H236 C241 0.950 . S
H237 C245 0.949 . S
H238 C246 0.950 . S
H239 C247 0.951 . S
H240 C248 0.951 . S
C241 C235 1.265 . S
C241 H236 0.950 . S
C241 C242 1.478 . S
C242 C241 1.478 . S
C242 C243 1.397 . S
C242 C259 1.394 . S
C243 C242 1.397 . S
C243 C244 1.438 . S
C243 C248 1.429 . S
C244 C243 1.438 . S
C244 C245 1.428 . S
C244 C257 1.394 . S
C245 H237 0.949 . S
C245 C244 1.428 . S
C245 C246 1.345 . S
C246 H238 0.950 . S
C246 C245 1.345 . S
C246 C247 1.424 . S
C247 H239 0.951 . S
C247 C246 1.424 . S
C247 C248 1.347 . S
C248 H240 0.951 . S
C248 C243 1.429 . S
C248 C247 1.347 . S
H249 C250 0.951 . S
C250 H249 0.951 . S
C250 C256 1.265 . S
H251 C256 0.950 . S
H252 C260 0.949 . S
H253 C261 0.950 . S
H254 C262 0.951 . S
H255 C263 0.951 . S
C256 C250 1.265 . S
C256 H251 0.950 . S
C256 C257 1.478 . S
C257 C244 1.394 . S
C257 C256 1.478 . S
C257 C258 1.397 . S
C258 C257 1.397 . S
C258 C259 1.438 . S
C258 C263 1.429 . S
C259 C242 1.394 . S
C259 C258 1.438 . S
C259 C260 1.428 . S
C260 H252 0.949 . S
C260 C259 1.428 . S
C260 C261 1.345 . S
C261 H253 0.950 . S
C261 C260 1.345 . S
C261 C262 1.424 . S
C262 H254 0.951 . S
C262 C261 1.424 . S
C262 C263 1.347 . S
C263 H255 0.951 . S
C263 C258 1.429 . S
C263 C262 1.347 . S
H264 C265 0.951 . S
C265 H264 0.951 . S
C265 C271 1.265 . S
H266 C271 0.950 . S
H267 C275 0.949 . S
H268 C276 0.950 . S
H269 C277 0.951 . S
H270 C278 0.951 1_556 S
C271 C265 1.265 . S
C271 H266 0.950 . S
C271 C272 1.478 . S
C272 C271 1.478 . S
C272 C273 1.397 1_556 S
C272 C289 1.394 1_565 S
C273 C272 1.397 1_554 S
C273 C274 1.438 . S
C273 C278 1.429 . S
C274 C273 1.438 . S
C274 C275 1.428 . S
C274 C287 1.394 1_565 S
C275 H267 0.949 . S
C275 C274 1.428 . S
C275 C276 1.345 . S
C276 H268 0.950 . S
C276 C275 1.345 . S
C276 C277 1.424 . S
C277 H269 0.951 . S
C277 C276 1.424 . S
C277 C278 1.347 . S
C278 H270 0.951 1_554 S
C278 C273 1.429 . S
C278 C277 1.347 . S
H279 C280 0.951 . S
C280 H279 0.951 . S
C280 C286 1.265 . S
H281 C286 0.950 . S
H282 C290 0.949 . S
H283 C291 0.950 . S
H284 C292 0.951 . S
H285 C293 0.951 1_554 S
C286 C280 1.265 . S
C286 H281 0.950 . S
C286 C287 1.478 . S
C287 C274 1.394 1_545 S
C287 C286 1.478 . S
C287 C288 1.397 1_554 S
C288 C287 1.397 1_556 S
C288 C289 1.438 . S
C288 C293 1.429 . S
C289 C272 1.394 1_545 S
C289 C288 1.438 . S
C289 C290 1.428 . S
C290 H282 0.949 . S
C290 C289 1.428 . S
C290 C291 1.345 . S
C291 H283 0.950 . S
C291 C290 1.345 . S
C291 C292 1.424 . S
C292 H284 0.951 . S
C292 C291 1.424 . S
C292 C293 1.347 . S
C293 H285 0.951 1_556 S
C293 C288 1.429 . S
C293 C292 1.347 . S
H294 C295 0.951 . S
C295 H294 0.951 . S
C295 C301 1.265 . S
H296 C301 0.950 . S
H297 C305 0.949 . S
H298 C306 0.950 . S
H299 C307 0.951 . S
H300 C308 0.951 . S
C301 C295 1.265 . S
C301 H296 0.950 . S
C301 C302 1.478 . S
C302 C301 1.478 . S
C302 C303 1.397 . S
C302 C319 1.394 . S
C303 C302 1.397 . S
C303 C304 1.438 . S
C303 C308 1.429 . S
C304 C303 1.438 . S
C304 C305 1.428 . S
C304 C317 1.394 . S
C305 H297 0.949 . S
C305 C304 1.428 . S
C305 C306 1.345 . S
C306 H298 0.950 . S
C306 C305 1.345 . S
C306 C307 1.424 . S
C307 H299 0.951 . S
C307 C306 1.424 . S
C307 C308 1.347 . S
C308 H300 0.951 . S
C308 C303 1.429 . S
C308 C307 1.347 . S
H309 C310 0.951 . S
C310 H309 0.951 . S
C310 C316 1.265 . S
H311 C316 0.950 . S
H312 C320 0.949 . S
H313 C321 0.950 . S
H314 C322 0.951 . S
H315 C323 0.951 . S
C316 C310 1.265 . S
C316 H311 0.950 . S
C316 C317 1.478 . S
C317 C304 1.394 . S
C317 C316 1.478 . S
C317 C318 1.397 . S
C318 C317 1.397 . S
C318 C319 1.438 . S
C318 C323 1.429 . S
C319 C302 1.394 . S
C319 C318 1.438 . S
C319 C320 1.428 . S
C320 H312 0.949 . S
C320 C319 1.428 . S
C320 C321 1.345 . S
C321 H313 0.950 . S
C321 C320 1.345 . S
C321 C322 1.424 . S
C322 H314 0.951 . S
C322 C321 1.424 . S
C322 C323 1.347 . S
C323 H315 0.951 . S
C323 C318 1.429 . S
C323 C322 1.347 . S
H324 C325 0.951 . S
C325 H324 0.951 . S
C325 C331 1.265 . S
H326 C331 0.950 1_655 S
H327 C335 0.949 . S
H328 C336 0.950 . S
H329 C337 0.951 . S
H330 C338 0.951 . S
C331 C325 1.265 . S
C331 H326 0.950 1_455 S
C331 C332 1.478 . S
C332 C331 1.478 . S
C332 C333 1.397 1_455 S
C332 C349 1.394 . S
C333 C332 1.397 1_655 S
C333 C334 1.438 1_556 S
C333 C338 1.429 . S
C334 C333 1.438 1_554 S
C334 C335 1.428 . S
C334 C347 1.394 . S
C335 H327 0.949 . S
C335 C334 1.428 . S
C335 C336 1.345 . S
C336 H328 0.950 . S
C336 C335 1.345 . S
C336 C337 1.424 1_554 S
C337 H329 0.951 . S
C337 C336 1.424 1_556 S
C337 C338 1.347 . S
C338 H330 0.951 . S
C338 C333 1.429 . S
C338 C337 1.347 . S
H339 C340 0.951 . S
C340 H339 0.951 . S
C340 C346 1.265 . S
H341 C346 0.950 1_455 S
H342 C350 0.949 . S
H343 C351 0.950 . S
H344 C352 0.951 . S
H345 C353 0.951 . S
C346 C340 1.265 . S
C346 H341 0.950 1_655 S
C346 C347 1.478 . S
C347 C334 1.394 . S
C347 C346 1.478 . S
C347 C348 1.397 1_655 S
C348 C347 1.397 1_455 S
C348 C349 1.438 1_554 S
C348 C353 1.429 . S
C349 C332 1.394 . S
C349 C348 1.438 1_556 S
C349 C350 1.428 . S
C350 H342 0.949 . S
C350 C349 1.428 . S
C350 C351 1.345 . S
C351 H343 0.950 . S
C351 C350 1.345 . S
C351 C352 1.424 1_556 S
C352 H344 0.951 . S
C352 C351 1.424 1_554 S
C352 C353 1.347 . S
C353 H345 0.951 . S
C353 C348 1.429 . S
C353 C352 1.347 . S
H354 C355 0.951 . S
C355 H354 0.951 . S
C355 C361 1.265 . S
H356 C361 0.950 . S
H357 C365 0.949 . S
H358 C366 0.950 . S
H359 C367 0.951 . S
H360 C368 0.951 . S
C361 C355 1.265 . S
C361 H356 0.950 . S
C361 C362 1.478 . S
C362 C361 1.478 . S
C362 C363 1.397 . S
C362 C379 1.394 1_545 S
C363 C362 1.397 . S
C363 C364 1.438 . S
C363 C368 1.429 . S
C364 C363 1.438 . S
C364 C365 1.428 . S
C364 C377 1.394 1_545 S
C365 H357 0.949 . S
C365 C364 1.428 . S
C365 C366 1.345 . S
C366 H358 0.950 . S
C366 C365 1.345 . S
C366 C367 1.424 . S
C367 H359 0.951 . S
C367 C366 1.424 . S
C367 C368 1.347 . S
C368 H360 0.951 . S
C368 C363 1.429 . S
C368 C367 1.347 . S
H369 C370 0.951 . S
C370 H369 0.951 . S
C370 C376 1.265 . S
H371 C376 0.950 . S
H372 C380 0.949 . S
H373 C381 0.950 . S
H374 C382 0.951 . S
H375 C383 0.951 . S
C376 C370 1.265 . S
C376 H371 0.950 . S
C376 C377 1.478 . S
C377 C364 1.394 1_565 S
C377 C376 1.478 . S
C377 C378 1.397 . S
C378 C377 1.397 . S
C378 C379 1.438 . S
C378 C383 1.429 . S
C379 C362 1.394 1_565 S
C379 C378 1.438 . S
C379 C380 1.428 . S
C380 H372 0.949 . S
C380 C379 1.428 . S
C380 C381 1.345 . S
C381 H373 0.950 . S
C381 C380 1.345 . S
C381 C382 1.424 . S
C382 H374 0.951 . S
C382 C381 1.424 . S
C382 C383 1.347 . S
C383 H375 0.951 . S
C383 C378 1.429 . S
C383 C382 1.347 . S
H384 C385 0.951 . S
C385 H384 0.951 . S
C385 C391 1.265 . S
H386 C391 0.950 . S
H387 C395 0.949 . S
H388 C396 0.950 . S
H389 C397 0.951 . S
H390 C398 0.951 . S
C391 C385 1.265 . S
C391 H386 0.950 . S
C391 C392 1.478 . S
C392 C391 1.478 . S
C392 C393 1.397 . S
C392 C409 1.394 . S
C393 C392 1.397 . S
C393 C394 1.438 1_556 S
C393 C398 1.429 . S
C394 C393 1.438 1_554 S
C394 C395 1.428 . S
C394 C407 1.394 . S
C395 H387 0.949 . S
C395 C394 1.428 . S
C395 C396 1.345 . S
C396 H388 0.950 . S
C396 C395 1.345 . S
C396 C397 1.424 1_554 S
C397 H389 0.951 . S
C397 C396 1.424 1_556 S
C397 C398 1.347 . S
C398 H390 0.951 . S
C398 C393 1.429 . S
C398 C397 1.347 . S
H399 C400 0.951 . S
C400 H399 0.951 . S
C400 C406 1.265 . S
H401 C406 0.950 . S
H402 C410 0.949 . S
H403 C411 0.950 . S
H404 C412 0.951 . S
H405 C413 0.951 . S
C406 C400 1.265 . S
C406 H401 0.950 . S
C406 C407 1.478 . S
C407 C394 1.394 . S
C407 C406 1.478 . S
C407 C408 1.397 . S
C408 C407 1.397 . S
C408 C409 1.438 1_554 S
C408 C413 1.429 . S
C409 C392 1.394 . S
C409 C408 1.438 1_556 S
C409 C410 1.428 . S
C410 H402 0.949 . S
C410 C409 1.428 . S
C410 C411 1.345 . S
C411 H403 0.950 . S
C411 C410 1.345 . S
C411 C412 1.424 1_556 S
C412 H404 0.951 . S
C412 C411 1.424 1_554 S
C412 C413 1.347 . S
C413 H405 0.951 . S
C413 C408 1.429 . S
C413 C412 1.347 . S
H414 C415 0.951 . S
C415 H414 0.951 . S
C415 C421 1.265 . S
H416 C421 0.950 . S
H417 C425 0.949 . S
H418 C426 0.950 . S
H419 C427 0.951 . S
H420 C428 0.951 . S
C421 C415 1.265 . S
C421 H416 0.950 . S
C421 C422 1.478 . S
C422 C421 1.478 . S
C422 C423 1.397 . S
C422 C439 1.394 . S
C423 C422 1.397 . S
C423 C424 1.438 1_455 S
C423 C428 1.429 . S
C424 C423 1.438 1_655 S
C424 C425 1.428 . S
C424 C437 1.394 . S
C425 H417 0.949 . S
C425 C424 1.428 . S
C425 C426 1.345 . S
C426 H418 0.950 . S
C426 C425 1.345 . S
C426 C427 1.424 1_655 S
C427 H419 0.951 . S
C427 C426 1.424 1_455 S
C427 C428 1.347 . S
C428 H420 0.951 . S
C428 C423 1.429 . S
C428 C427 1.347 . S
H429 C430 0.951 . S
C430 H429 0.951 . S
C430 C436 1.265 . S
H431 C436 0.950 . S
H432 C440 0.949 . S
H433 C441 0.950 . S
H434 C442 0.966 . S
H435 C443 0.951 . S
C436 C430 1.265 . S
C436 H431 0.950 . S
C436 C437 1.478 . S
C437 C424 1.394 . S
C437 C436 1.478 . S
C437 C438 1.397 . S
C438 C437 1.397 . S
C438 C439 1.438 1_655 S
C438 C443 1.429 . S
C439 C422 1.394 . S
C439 C438 1.438 1_455 S
C439 C440 1.428 . S
C440 H432 0.949 . S
C440 C439 1.428 . S
C440 C441 1.345 . S
C441 H433 0.950 . S
C441 C440 1.345 . S
C441 C442 1.411 1_455 S
C442 H434 0.966 . S
C442 C441 1.411 1_655 S
C442 C443 1.345 . S
C443 H435 0.951 . S
C443 C438 1.429 . S
C443 C442 1.345 . S
C85 C5 1.034 . S
C100 C60 0.959 . S
C115 C19 0.947 . S
C130 C75 1.029 . S
C145 C4 1.013 . S
C160 C32 1.010 . S
C175 C47 0.882 . S
C190 C18 1.018 . S
C205 C61 0.939 . S
C220 C33 1.057 . S
C235 C46 0.987 . S
C250 C74 1.031 . S
C265 C54 1.418 . S
C280 C11 1.400 . S
C295 C68 1.424 . S
C310 C25 1.410 . S
C325 C81 1.389 . S
C340 C40 1.409 . S
C355 C12 1.412 . S
C370 C53 1.411 . S
C385 C26 1.424 . S
C400 C67 1.410 . S
C415 C82 1.427 . S
C430 C39 1.369 . S
