# Generated by pormake.
# Topology zfo, (5)-cn, num edge types: 1
# Building blocks:
#     Node 0, Type 0, BuildingBlock: XOMCOT_clean_sbu_0, # of connection points: 5
#     Node 1, Type 0, BuildingBlock: XOMCOT_clean_sbu_0, # of connection points: 5
#     Node 2, Type 0, BuildingBlock: XOMCOT_clean_sbu_0, # of connection points: 5
#     Node 3, Type 0, BuildingBlock: XOMCOT_clean_sbu_0, # of connection points: 5
#     Node 4, Type 0, BuildingBlock: XOMCOT_clean_sbu_0, # of connection points: 5
#     Node 5, Type 0, BuildingBlock: XOMCOT_clean_sbu_0, # of connection points: 5
#     Node 6, Type 0, BuildingBlock: XOMCOT_clean_sbu_0, # of connection points: 5
#     Node 7, Type 0, BuildingBlock: XOMCOT_clean_sbu_0, # of connection points: 5
#     Node 8, Type 0, BuildingBlock: XOMCOT_clean_sbu_0, # of connection points: 5
#     Node 9, Type 0, BuildingBlock: XOMCOT_clean_sbu_0, # of connection points: 5
#     Node 10, Type 0, BuildingBlock: XOMCOT_clean_sbu_0, # of connection points: 5
#     Node 11, Type 0, BuildingBlock: XOMCOT_clean_sbu_0, # of connection points: 5
#     Node 12, Type 0, BuildingBlock: XOMCOT_clean_sbu_0, # of connection points: 5
#     Node 13, Type 0, BuildingBlock: XOMCOT_clean_sbu_0, # of connection points: 5
#     Node 14, Type 0, BuildingBlock: XOMCOT_clean_sbu_0, # of connection points: 5
#     Node 15, Type 0, BuildingBlock: XOMCOT_clean_sbu_0, # of connection points: 5
#     Edge 16, Type (0, 0), None
#     Edge 17, Type (0, 0), None
#     Edge 18, Type (0, 0), None
#     Edge 19, Type (0, 0), None
#     Edge 20, Type (0, 0), None
#     Edge 21, Type (0, 0), None
#     Edge 22, Type (0, 0), None
#     Edge 23, Type (0, 0), None
#     Edge 24, Type (0, 0), None
#     Edge 25, Type (0, 0), None
#     Edge 26, Type (0, 0), None
#     Edge 27, Type (0, 0), None
#     Edge 28, Type (0, 0), None
#     Edge 29, Type (0, 0), None
#     Edge 30, Type (0, 0), None
#     Edge 31, Type (0, 0), None
#     Edge 32, Type (0, 0), None
#     Edge 33, Type (0, 0), None
#     Edge 34, Type (0, 0), None
#     Edge 35, Type (0, 0), None
#     Edge 36, Type (0, 0), None
#     Edge 37, Type (0, 0), None
#     Edge 38, Type (0, 0), None
#     Edge 39, Type (0, 0), None
#     Edge 40, Type (0, 0), None
#     Edge 41, Type (0, 0), None
#     Edge 42, Type (0, 0), None
#     Edge 43, Type (0, 0), None
#     Edge 44, Type (0, 0), None
#     Edge 45, Type (0, 0), None
#     Edge 46, Type (0, 0), None
#     Edge 47, Type (0, 0), None
#     Edge 48, Type (0, 0), None
#     Edge 49, Type (0, 0), None
#     Edge 50, Type (0, 0), None
#     Edge 51, Type (0, 0), None
#     Edge 52, Type (0, 0), None
#     Edge 53, Type (0, 0), None
#     Edge 54, Type (0, 0), None
#     Edge 55, Type (0, 0), None
# Relax obj value: 0.235
# Max RMSD: 0.199
# Mean RMSD: 0.199
data_MOF--net-zfo--node1-XOMCOT_clean_sbu_0--edge1-none
_symmetry_space_group_name_H-M    P1
_symmetry_Int_Tables_number       1
_symmetry_cell_setting            triclinic
loop_
_symmetry_equiv_pos_as_xyz
'x, y, z'
_cell_length_a     16.52746
_cell_length_b     16.526832
_cell_length_c     29.671782
_cell_angle_alpha  89.243703
_cell_angle_beta   90.743952
_cell_angle_gamma 90.215127
loop_
_atom_site_label
_atom_site_type_symbol
_atom_site_fract_x
_atom_site_fract_y
_atom_site_fract_z
_atom_type_partial_charge
Co0 Co 0.19338 0.23785 0.17284 0.0
C1 C 0.36559 0.21846 0.19278 0.0
C2 C 0.31513 0.11139 0.16431 0.0
C3 C 0.39788 0.11055 0.15863 0.0
N4 N 0.2944 0.18104 0.18443 0.0
N5 N 0.42897 0.17841 0.17655 0.0
H6 H 0.37162 0.28082 0.20229 0.0
H7 H 0.27272 0.07106 0.14786 0.0
C8 C 0.06252 0.10126 0.18256 0.0
O9 O 1.00186 0.15184 0.17825 0.0
N10 N 0.09705 0.29949 0.1586 0.0
C11 C 0.09433 0.3534 0.12377 0.0
C12 C 1.03662 0.41063 0.13148 0.0
C13 C 1.04076 0.32584 0.18734 0.0
N14 N 1.00433 0.39387 0.17171 0.0
C15 C 0.2699 0.25918 0.08815 0.0
C16 C 0.16005 0.17052 0.03776 0.0
C17 C 0.2222 0.21245 0.01573 0.0
C18 C 0.27819 0.25647 0.04147 0.0
C19 C 0.15325 0.17583 0.08441 0.0
N20 N 0.20758 0.2201 0.10894 0.0
H21 H 0.31152 0.29556 0.1076 0.0
H22 H 0.10194 0.14759 0.10014 0.0
H23 H 0.13526 0.35513 0.09574 0.0
H24 H 1.02797 0.29708 0.21932 0.0
O25 O 0.24789 0.34267 0.17896 0.0
O26 O 0.19175 0.27447 0.23489 0.0
O27 O 0.13587 0.12731 0.18058 0.0
C28 C 0.23185 0.33839 0.22171 0.0
H29 H 0.43059 0.06994 0.13714 0.0
H30 H 1.01843 0.45961 0.10903 0.0
H31 H 0.1146 0.13731 0.01886 0.0
H32 H 0.32686 0.28985 0.02557 0.0
Co33 Co 0.87244 0.18857 0.67785 0.0
C34 C 0.89268 0.3604 0.69532 0.0
C35 C 0.99991 0.31178 0.66749 0.0
C36 C 1.00049 0.39497 0.66138 0.0
N37 N 0.93041 0.2897 0.68785 0.0
N38 N 0.93273 0.42485 0.67943 0.0
H39 H 0.82999 0.36591 0.7038 0.0
H40 H 1.0404 0.2702 0.65135 0.0
C41 C 1.00667 0.05612 0.68507 0.0
O42 O 0.9546 0.99699 0.67916 0.0
N43 N 0.80872 0.09292 0.66494 0.0
C44 C 0.75456 0.09169 0.63022 0.0
C45 C 0.69755 1.03299 0.63776 0.0
C46 C 0.78236 1.03487 0.69365 0.0
N47 N 0.71442 0.9985 0.67783 0.0
C48 C 0.85187 0.26806 0.5926 0.0
C49 C 0.93674 0.15772 0.54249 0.0
C50 C 0.89761 0.22209 0.52028 0.0
C51 C 0.85537 0.27825 0.54588 0.0
C52 C 0.93086 0.14922 0.58911 0.0
N53 N 0.88872 0.2039 0.61358 0.0
H54 H 0.81698 0.30999 0.61194 0.0
H55 H 0.95694 0.09636 0.6048 0.0
H56 H 0.75282 0.13394 0.60219 0.0
H57 H 0.81109 1.02051 0.72567 0.0
O58 O 0.76863 0.24312 0.68472 0.0
O59 O 0.8381 0.18637 0.74056 0.0
O60 O 0.98238 0.13003 0.68495 0.0
C61 C 0.77474 0.22774 0.72775 0.0
H62 H 1.04117 0.42895 0.63992 0.0
H63 H 0.64898 1.01514 0.61514 0.0
H64 H 0.9682 0.11189 0.52377 0.0
H65 H 0.82399 0.3286 0.52987 0.0
Co66 Co 0.92318 0.87034 0.17998 0.0
C67 C 0.749 0.87264 0.19015 0.0
C68 C 0.79384 0.9944 0.19042 0.0
C69 C 0.71003 0.99603 0.18965 0.0
N70 N 0.81791 0.91637 0.19068 0.0
N71 N 0.68331 0.919 0.1911 0.0
H72 H 0.74518 0.80844 0.1843 0.0
H73 H 0.83344 1.04634 0.18755 0.0
C74 C 1.04593 1.01203 0.18637 0.0
O75 O 0.10621 0.96182 0.1935 0.0
N76 N 1.02605 0.81929 0.16691 0.0
C77 C 0.06336 0.82307 0.12671 0.0
C78 C 0.11636 0.75976 0.1238 0.0
C79 C 0.05987 0.75468 0.18838 0.0
N80 N 0.11355 0.71612 0.16235 0.0
C81 C 0.88592 0.81205 0.09189 0.0
C82 C 0.89129 0.96023 0.04754 0.0
C83 C 0.8815 0.88975 0.02239 0.0
C84 C 0.87646 0.81515 0.04514 0.0
C85 C 0.89938 0.95463 0.09432 0.0
N86 N 0.90037 0.88084 0.11572 0.0
H87 H 0.88578 0.75372 0.10871 0.0
H88 H 0.90626 1.00996 0.11279 0.0
H89 H 1.05202 0.86791 0.10057 0.0
H90 H 1.04685 0.73634 0.22264 0.0
O91 O 0.87778 0.76319 0.19078 0.0
O92 O 0.92999 0.84031 0.24391 0.0
O93 O 0.97345 0.98472 0.18156 0.0
C94 C 0.88952 0.77504 0.23348 0.0
H95 H 0.67204 1.0489 0.18553 0.0
H96 H 0.15782 0.7494 0.09661 0.0
H97 H 0.89382 1.0191 0.03109 0.0
H98 H 0.86924 0.75927 0.0268 0.0
Co99 Co 0.23376 0.91472 0.67551 0.0
C100 C 0.22827 0.74033 0.6903 0.0
C101 C 0.10814 0.786 0.68102 0.0
C102 C 0.10543 0.70247 0.68007 0.0
N103 N 0.1858 0.80963 0.68723 0.0
N104 N 0.18131 0.6749 0.68655 0.0
H105 H 0.29325 0.73616 0.68905 0.0
H106 H 0.05792 0.82593 0.67369 0.0
C107 C 0.09541 1.03738 0.68775 0.0
O108 O 0.14737 0.09485 0.69776 0.0
N109 N 0.285 1.01778 0.66172 0.0
C110 C 0.27921 0.0586 0.6221 0.0
C111 C 0.34001 0.1152 0.62005 0.0
C112 C 0.34842 1.05219 0.68353 0.0
N113 N 0.38394 0.11043 0.65849 0.0
C114 C 0.2882 0.87786 0.58735 0.0
C115 C 0.14078 0.89337 0.54305 0.0
C116 C 0.21044 0.87982 0.51789 0.0
C117 C 0.28449 0.86996 0.54067 0.0
C118 C 0.14688 0.89991 0.58982 0.0
N119 N 0.2205 0.89505 0.61128 0.0
H120 H 0.34654 0.87397 0.60392 0.0
H121 H 0.09224 0.91076 0.60812 0.0
H122 H 0.2345 1.04781 0.59597 0.0
H123 H 0.36869 1.03562 0.71703 0.0
O124 O 0.34113 0.86824 0.68471 0.0
O125 O 0.26746 0.91926 0.73878 0.0
O126 O 0.12066 0.96594 0.67895 0.0
C127 C 0.33246 0.88012 0.72744 0.0
H128 H 0.05362 0.66551 0.67109 0.0
H129 H 0.34882 0.15949 0.59345 0.0
H130 H 0.08225 0.90025 0.5266 0.0
H131 H 0.33986 0.86023 0.52239 0.0
Co132 Co 0.68848 0.37245 0.81049 0.0
C133 C 0.86033 0.3927 0.79306 0.0
C134 C 0.81167 0.49992 0.82088 0.0
C135 C 0.89485 0.5005 0.82701 0.0
N136 N 0.78962 0.43043 0.80051 0.0
N137 N 0.92475 0.43275 0.80897 0.0
H138 H 0.86585 0.33001 0.78457 0.0
H139 H 0.77007 0.5404 0.83701 0.0
C140 C 0.55603 0.5067 0.80326 0.0
O141 O 0.49689 0.45463 0.80916 0.0
N142 N 0.59283 0.30871 0.82337 0.0
C143 C 0.59159 0.2545 0.85806 0.0
C144 C 0.53291 0.19749 0.85051 0.0
C145 C 0.53479 0.2824 0.79465 0.0
N146 N 0.49842 0.21443 0.81045 0.0
C147 C 0.76791 0.35189 0.89575 0.0
C148 C 0.65747 0.43667 0.94584 0.0
C149 C 0.72187 0.39762 0.96806 0.0
C150 C 0.77808 0.35542 0.94246 0.0
C151 C 0.649 0.43077 0.89922 0.0
N152 N 0.70374 0.38869 0.87475 0.0
H153 H 0.80988 0.31704 0.87641 0.0
H154 H 0.59612 0.45678 0.88352 0.0
H155 H 0.63384 0.25271 0.88609 0.0
H156 H 0.52043 0.31118 0.76264 0.0
O157 O 0.74305 0.26864 0.80362 0.0
O158 O 0.68633 0.33817 0.74777 0.0
O159 O 0.62994 0.48241 0.80339 0.0
C160 C 0.7277 0.27481 0.76058 0.0
H161 H 0.9288 0.54118 0.84848 0.0
H162 H 0.51505 0.14888 0.87312 0.0
H163 H 0.6116 0.46808 0.96455 0.0
H164 H 0.82846 0.32411 0.95848 0.0
Co165 Co 0.73772 0.6935 0.31552 0.0
C166 C 0.71834 0.86573 0.29562 0.0
C167 C 0.6113 0.81525 0.32414 0.0
C168 C 0.61048 0.89799 0.32985 0.0
N169 N 0.68091 0.79453 0.30397 0.0
N170 N 0.67832 0.92909 0.31189 0.0
H171 H 0.78068 0.87177 0.28608 0.0
H172 H 0.57099 0.77282 0.34059 0.0
C173 C 0.60112 0.56267 0.30576 0.0
O174 O 0.6517 0.50199 0.30998 0.0
N175 N 0.79937 0.59714 0.32971 0.0
C176 C 0.85327 0.59436 0.36453 0.0
C177 C 0.91052 0.53669 0.35679 0.0
C178 C 0.82574 0.54092 0.30093 0.0
N179 N 0.89377 0.50448 0.31654 0.0
C180 C 0.75911 0.76993 0.40021 0.0
C181 C 0.67047 0.66004 0.45061 0.0
C182 C 0.71241 0.72217 0.47263 0.0
C183 C 0.75642 0.77818 0.4469 0.0
C184 C 0.67576 0.65327 0.40396 0.0
N185 N 0.72002 0.70762 0.37942 0.0
H186 H 0.79548 0.81156 0.38076 0.0
H187 H 0.6475 0.60198 0.38822 0.0
H188 H 0.85498 0.63523 0.39259 0.0
H189 H 0.79699 0.52819 0.26895 0.0
O190 O 0.84254 0.748 0.30938 0.0
O191 O 0.7743 0.69193 0.25345 0.0
O192 O 0.62718 0.636 0.3078 0.0
C193 C 0.83822 0.73202 0.26663 0.0
H194 H 0.56991 0.93067 0.35137 0.0
H195 H 0.95948 0.51846 0.37923 0.0
H196 H 0.63727 0.61457 0.46951 0.0
H197 H 0.78981 0.82684 0.46279 0.0
Co198 Co 0.41465 0.73383 0.81282 0.0
C199 C 0.24026 0.72833 0.79807 0.0
C200 C 0.28593 0.60821 0.80742 0.0
C201 C 0.20241 0.60551 0.80842 0.0
N202 N 0.30956 0.68586 0.80115 0.0
N203 N 0.17484 0.68139 0.8019 0.0
H204 H 0.2361 0.79332 0.79927 0.0
H205 H 0.32586 0.558 0.81478 0.0
C206 C 0.53731 0.59546 0.80059 0.0
O207 O 0.5948 0.64742 0.7906 0.0
N208 N 0.51772 0.78507 0.82658 0.0
C209 C 0.5585 0.77935 0.86621 0.0
C210 C 0.61508 0.84017 0.86824 0.0
C211 C 0.55213 0.84848 0.80475 0.0
N212 N 0.61033 0.88405 0.82978 0.0
C213 C 0.37774 0.78828 0.90098 0.0
C214 C 0.39346 0.64091 0.94533 0.0
C215 C 0.37983 0.71058 0.97046 0.0
C216 C 0.36985 0.78459 0.94766 0.0
C217 C 0.39998 0.64698 0.89855 0.0
N218 N 0.39501 0.72058 0.87706 0.0
H219 H 0.37376 0.84661 0.88439 0.0
H220 H 0.41089 0.59233 0.88028 0.0
H221 H 0.54772 0.73467 0.89237 0.0
H222 H 0.53557 0.86871 0.77124 0.0
O223 O 0.36818 0.8412 0.80362 0.0
O224 O 0.41918 0.7675 0.74955 0.0
O225 O 0.46587 0.62071 0.80938 0.0
C226 C 0.38003 0.83249 0.76089 0.0
H227 H 0.16545 0.55372 0.81745 0.0
H228 H 0.65935 0.84903 0.89484 0.0
H229 H 0.40041 0.5824 0.9618 0.0
H230 H 0.36006 0.83997 0.96591 0.0
Co231 Co 0.3702 0.42332 0.30834 0.0
C232 C 0.3725 0.24912 0.2982 0.0
C233 C 0.49425 0.29396 0.29801 0.0
C234 C 0.49589 0.21015 0.29881 0.0
N235 N 0.41623 0.31804 0.29767 0.0
N236 N 0.41886 0.18343 0.29731 0.0
H237 H 0.30828 0.24531 0.304 0.0
H238 H 0.54619 0.33356 0.3009 0.0
C239 C 0.51189 0.54609 0.30198 0.0
O240 O 0.46169 0.60641 0.29494 0.0
N241 N 0.31914 0.52619 0.32139 0.0
C242 C 0.32287 0.56349 0.36159 0.0
C243 C 0.25953 0.61646 0.3645 0.0
C244 C 0.25453 0.56001 0.29991 0.0
N245 N 0.21592 0.61365 0.32594 0.0
C246 C 0.31191 0.38605 0.39644 0.0
C247 C 0.46007 0.39157 0.44079 0.0
C248 C 0.38959 0.38174 0.46594 0.0
C249 C 0.31501 0.37663 0.4432 0.0
C250 C 0.45448 0.39963 0.394 0.0
N251 N 0.3807 0.40055 0.3726 0.0
H252 H 0.25359 0.38587 0.37963 0.0
H253 H 0.50981 0.40654 0.37553 0.0
H254 H 0.36769 0.55216 0.38773 0.0
H255 H 0.23622 0.54699 0.26565 0.0
O256 O 0.26305 0.37791 0.29756 0.0
O257 O 0.34018 0.43012 0.2444 0.0
O258 O 0.48457 0.47359 0.30673 0.0
C259 C 0.27492 0.38964 0.25486 0.0
H260 H 0.54874 0.17215 0.30299 0.0
H261 H 0.24913 0.6579 0.39169 0.0
H262 H 0.51893 0.39415 0.45723 0.0
H263 H 0.25913 0.36938 0.46154 0.0
Co264 Co 0.91174 0.86768 0.8155 0.0
C265 C 0.73948 0.88691 0.79566 0.0
C266 C 0.78997 0.99413 0.824 0.0
C267 C 0.70723 0.99495 0.82978 0.0
N268 N 0.81068 0.92442 0.80391 0.0
N269 N 0.6762 0.92697 0.81198 0.0
H270 H 0.73344 0.82454 0.78617 0.0
H271 H 0.83241 1.03453 0.84036 0.0
C272 C 1.04258 1.00427 0.8058 0.0
O273 O 0.10323 0.95368 0.81016 0.0
N274 N 1.00811 0.80608 0.82973 0.0
C275 C 1.01091 0.75221 0.86458 0.0
C276 C 0.0687 0.69505 0.8569 0.0
C277 C 0.06441 0.77978 0.80099 0.0
N278 N 0.10099 0.7119 0.81668 0.0
C279 C 0.83528 0.84628 0.9002 0.0
C280 C 0.94507 0.93502 0.95058 0.0
C281 C 0.88298 0.89303 0.97261 0.0
C282 C 0.82701 0.84897 0.94689 0.0
C283 C 0.95185 0.92974 0.90392 0.0
N284 N 0.89755 0.88542 0.8794 0.0
H285 H 0.79369 0.80986 0.88076 0.0
H286 H 1.00312 0.95803 0.88819 0.0
H287 H 0.96996 0.75044 0.89261 0.0
H288 H 0.07708 0.80846 0.76897 0.0
O289 O 0.85729 0.76283 0.80939 0.0
O290 O 0.91338 0.83106 0.75345 0.0
O291 O 0.96923 0.97824 0.80774 0.0
C292 C 0.87331 0.76712 0.76664 0.0
H293 H 0.67455 1.03562 0.85124 0.0
H294 H 0.08692 0.64606 0.87934 0.0
H295 H 0.99051 0.96827 0.96947 0.0
H296 H 0.77838 0.81554 0.96279 0.0
Co297 Co 0.23273 0.91675 0.31049 0.0
C298 C 0.2126 0.74489 0.29307 0.0
C299 C 0.10522 0.79353 0.32075 0.0
C300 C 0.10462 0.71034 0.32692 0.0
N301 N 0.17481 0.8156 0.30046 0.0
N302 N 0.17252 0.68053 0.30901 0.0
H303 H 0.27531 0.73937 0.28461 0.0
H304 H 0.06465 0.83514 0.33681 0.0
C305 C 0.09849 1.04919 0.30328 0.0
O306 O 0.15057 0.10832 0.30921 0.0
N307 N 0.29641 1.0124 0.32343 0.0
C308 C 0.35054 1.01367 0.35817 0.0
C309 C 0.40746 0.07249 0.35068 0.0
C310 C 0.32269 0.07052 0.29475 0.0
N311 N 0.39047 0.10703 0.31064 0.0
C312 C 0.25331 0.83723 0.39574 0.0
C313 C 0.1684 0.94755 0.44585 0.0
C314 C 0.20758 0.88321 0.46807 0.0
C315 C 0.24983 0.82706 0.44246 0.0
C316 C 0.17426 0.95603 0.39923 0.0
N317 N 0.21643 0.90137 0.37476 0.0
H318 H 0.28822 0.79532 0.3764 0.0
H319 H 0.14816 1.00888 0.38354 0.0
H320 H 0.35235 0.97136 0.38616 0.0
H321 H 0.29403 0.08482 0.26269 0.0
O322 O 0.33656 0.86223 0.30363 0.0
O323 O 0.26708 0.919 0.24778 0.0
O324 O 0.12277 0.97528 0.30339 0.0
C325 C 0.33044 0.87763 0.26059 0.0
H326 H 0.06384 0.67638 0.34833 0.0
H327 H 0.45606 0.09034 0.37329 0.0
H328 H 0.13693 0.99337 0.46457 0.0
H329 H 0.28123 0.77672 0.45847 0.0
Co330 Co 0.18203 0.23513 0.80838 0.0
C331 C 0.35622 0.23276 0.79835 0.0
C332 C 0.31127 0.11103 0.79768 0.0
C333 C 0.39508 0.10929 0.79845 0.0
N334 N 0.28728 0.18908 0.79767 0.0
N335 N 0.42183 0.18631 0.79731 0.0
H336 H 0.36009 0.29692 0.80434 0.0
H337 H 0.27159 0.0591 0.80033 0.0
C338 C 0.05922 0.09349 0.80197 0.0
O339 O 0.99897 0.14373 0.7948 0.0
N340 N 0.07918 0.28621 0.82145 0.0
C341 C 1.04185 0.28246 0.86165 0.0
C342 C 0.98873 0.3457 0.86452 0.0
C343 C 1.0453 0.35073 0.79992 0.0
N344 N 0.99149 0.38916 0.82591 0.0
C345 C 0.21927 0.29344 0.89646 0.0
C346 C 0.21397 0.14524 0.94081 0.0
C347 C 0.22371 0.21573 0.96596 0.0
C348 C 0.22872 0.29034 0.94322 0.0
C349 C 0.2059 0.15085 0.89402 0.0
N350 N 0.20485 0.22464 0.87263 0.0
H351 H 0.21938 0.35176 0.87964 0.0
H352 H 0.19908 0.09552 0.87554 0.0
H353 H 0.05325 0.2377 0.88782 0.0
H354 H 0.05834 0.36905 0.76566 0.0
O355 O 0.22748 0.34225 0.79757 0.0
O356 O 0.17522 0.26514 0.74444 0.0
O357 O 0.13171 0.12078 0.80681 0.0
C358 C 0.21574 0.33038 0.75487 0.0
H359 H 0.43304 0.05635 0.80233 0.0
H360 H 0.94726 0.3561 0.8917 0.0
H361 H 0.21147 0.08638 0.95725 0.0
H362 H 0.23591 0.34621 0.96155 0.0
Co363 Co 0.87145 0.19067 0.31283 0.0
C364 C 0.87699 0.36508 0.29815 0.0
C365 C 0.99715 0.31932 0.30725 0.0
C366 C 0.99995 0.40285 0.30822 0.0
N367 N 0.91943 0.29575 0.30114 0.0
N368 N 0.92404 0.43042 0.30192 0.0
H369 H 0.81201 0.3693 0.29945 0.0
H370 H 1.04737 0.27933 0.31447 0.0
C371 C 1.00975 0.06795 0.30061 0.0
O372 O 0.95778 1.01049 0.29061 0.0
N373 N 0.82017 0.08762 0.32661 0.0
C374 C 0.82578 1.04685 0.36626 0.0
C375 C 0.76504 0.99016 0.36823 0.0
C376 C 0.75691 0.05313 0.30469 0.0
N377 N 0.72142 0.99483 0.32969 0.0
C378 C 0.817 0.22753 0.401 0.0
C379 C 0.96442 0.21196 0.4453 0.0
C380 C 0.89475 0.22549 0.47045 0.0
C381 C 0.82071 0.2354 0.44768 0.0
C382 C 0.95832 0.20545 0.39852 0.0
N383 N 0.8847 0.21032 0.37706 0.0
H384 H 0.75866 0.23144 0.38443 0.0
H385 H 1.01297 0.19464 0.38022 0.0
H386 H 0.87034 0.05771 0.39246 0.0
H387 H 0.7368 0.06965 0.27116 0.0
O388 O 0.7641 0.23718 0.30363 0.0
O389 O 0.83778 0.18617 0.24956 0.0
O390 O 0.98453 0.13941 0.3094 0.0
C391 C 0.77278 0.22532 0.2609 0.0
H392 H 1.05184 0.43979 0.31709 0.0
H393 H 0.7561 0.9459 0.39483 0.0
H394 H 1.02294 0.20507 0.46175 0.0
H395 H 0.76534 0.24513 0.46595 0.0
Co396 Co 0.41663 0.7329 0.17786 0.0
C397 C 0.24476 0.71278 0.19524 0.0
C398 C 0.29342 0.60541 0.16756 0.0
C399 C 0.21025 0.60482 0.16138 0.0
N400 N 0.31547 0.67499 0.18786 0.0
N401 N 0.18042 0.67271 0.17927 0.0
H402 H 0.23923 0.77548 0.2037 0.0
H403 H 0.33505 0.56484 0.15151 0.0
C404 C 0.54906 0.59863 0.18508 0.0
O405 O 0.60819 0.65071 0.17918 0.0
N406 N 0.5123 0.79659 0.16495 0.0
C407 C 0.51359 0.85077 0.13023 0.0
C408 C 0.57239 0.90769 0.13774 0.0
C409 C 0.57039 0.82284 0.19365 0.0
N410 N 0.60691 0.89066 0.17777 0.0
C411 C 0.33719 0.75349 0.0926 0.0
C412 C 0.44758 0.66865 0.04251 0.0
C413 C 0.38322 0.70776 0.02029 0.0
C414 C 0.32703 0.74998 0.04588 0.0
C415 C 0.45604 0.67453 0.08913 0.0
N416 N 0.40133 0.71665 0.1136 0.0
H417 H 0.29524 0.78838 0.11193 0.0
H418 H 0.5089 0.64847 0.10483 0.0
H419 H 0.47129 0.85261 0.10223 0.0
H420 H 0.58468 0.79414 0.2257 0.0
O421 O 0.36212 0.83674 0.18472 0.0
O422 O 0.41883 0.7672 0.24058 0.0
O423 O 0.47515 0.62293 0.18496 0.0
C424 C 0.37747 0.83056 0.22776 0.0
H425 H 0.1763 0.56405 0.13995 0.0
H426 H 0.59025 0.95632 0.11514 0.0
H427 H 0.49343 0.6372 0.0238 0.0
H428 H 0.27667 0.78134 0.02987 0.0
Co429 Co 0.36759 0.41183 0.67284 0.0
C430 C 0.38684 0.23955 0.69264 0.0
C431 C 0.49403 0.29007 0.66426 0.0
C432 C 0.49484 0.20734 0.65846 0.0
N433 N 0.42434 0.31076 0.68439 0.0
N434 N 0.42687 0.17629 0.67628 0.0
H435 H 0.32448 0.2335 0.70216 0.0
H436 H 0.53441 0.33253 0.6479 0.0
C437 C 0.5042 0.54266 0.68258 0.0
O438 O 0.45361 0.60332 0.6783 0.0
N439 N 0.306 0.50822 0.65866 0.0
C440 C 0.25213 0.51106 0.62381 0.0
C441 C 0.19495 0.56883 0.63152 0.0
C442 C 0.27968 0.56446 0.68743 0.0
N443 N 0.21179 0.60105 0.67176 0.0
C444 C 0.34616 0.33545 0.58813 0.0
C445 C 0.43486 0.4453 0.53775 0.0
C446 C 0.39287 0.38322 0.51572 0.0
C447 C 0.34883 0.32722 0.54145 0.0
C448 C 0.4296 0.45204 0.58441 0.0
N449 N 0.3853 0.39771 0.60894 0.0
H450 H 0.30975 0.29384 0.60759 0.0
H451 H 0.4579 0.5033 0.60015 0.0
H452 H 0.25037 0.47016 0.59577 0.0
H453 H 0.30836 0.57709 0.71944 0.0
O454 O 0.26275 0.35738 0.67897 0.0
O455 O 0.33102 0.41341 0.73491 0.0
O456 O 0.47816 0.46931 0.68058 0.0
C457 C 0.26708 0.37335 0.72172 0.0
H458 H 0.53547 0.17468 0.63697 0.0
H459 H 0.14597 0.58707 0.60909 0.0
H460 H 0.4681 0.49076 0.51886 0.0
H461 H 0.3154 0.27859 0.52555 0.0
Co462 Co 0.69053 0.37157 0.17552 0.0
C463 C 0.86495 0.37713 0.19017 0.0
C464 C 0.81917 0.49727 0.18099 0.0
C465 C 0.9027 0.50007 0.17997 0.0
N466 N 0.79561 0.41956 0.18717 0.0
N467 N 0.93028 0.42417 0.18632 0.0
H468 H 0.86916 0.31215 0.18893 0.0
H469 H 0.77918 0.54748 0.17374 0.0
C470 C 0.5678 0.50988 0.18774 0.0
O471 O 0.51032 0.4579 0.1977 0.0
N472 N 0.58749 0.32027 0.16178 0.0
C473 C 0.54675 0.32579 0.12211 0.0
C474 C 0.49009 0.26503 0.12018 0.0
C475 C 0.55298 0.25705 0.18373 0.0
N476 N 0.49472 0.22149 0.15875 0.0
C477 C 0.72747 0.31712 0.08737 0.0
C478 C 0.71164 0.46448 0.04301 0.0
C479 C 0.72528 0.39481 0.01789 0.0
C480 C 0.73533 0.3208 0.04069 0.0
C481 C 0.70515 0.45841 0.0898 0.0
N482 N 0.71016 0.38482 0.11128 0.0
H483 H 0.7315 0.2588 0.10396 0.0
H484 H 0.69424 0.51306 0.10807 0.0
H485 H 0.55762 0.3703 0.09588 0.0
H486 H 0.56947 0.23699 0.21728 0.0
O487 O 0.73705 0.26422 0.18472 0.0
O488 O 0.68605 0.33792 0.2388 0.0
O489 O 0.63926 0.48466 0.17896 0.0
C490 C 0.72521 0.27293 0.22745 0.0
H491 H 0.93963 0.55195 0.17104 0.0
H492 H 0.44586 0.25602 0.09357 0.0
H493 H 0.70464 0.52298 0.02654 0.0
H494 H 0.74515 0.26543 0.02243 0.0
Co495 Co 0.73507 0.6821 0.68 0.0
C496 C 0.73271 0.8563 0.69 0.0
C497 C 0.61098 0.81137 0.6906 0.0
C498 C 0.60925 0.89518 0.6898 0.0
N499 N 0.68902 0.78736 0.69068 0.0
N500 N 0.68627 0.92192 0.69098 0.0
H501 H 0.79688 0.86016 0.68405 0.0
H502 H 0.55905 0.7717 0.68794 0.0
C503 C 0.59342 0.55928 0.68638 0.0
O504 O 0.64365 0.49899 0.69347 0.0
N505 N 0.78615 0.57924 0.66695 0.0
C506 C 0.78243 0.54192 0.62675 0.0
C507 C 0.84569 0.48883 0.62388 0.0
C508 C 0.85067 0.54537 0.68848 0.0
N509 N 0.88914 0.49159 0.66249 0.0
C510 C 0.79338 0.71932 0.59191 0.0
C511 C 0.6452 0.71391 0.54756 0.0
C512 C 0.71569 0.72367 0.52241 0.0
C513 C 0.79028 0.72873 0.54514 0.0
C514 C 0.6508 0.70588 0.59435 0.0
N515 N 0.72459 0.70489 0.61574 0.0
H516 H 0.8517 0.71946 0.60872 0.0
H517 H 0.59547 0.69905 0.61283 0.0
H518 H 0.73768 0.5533 0.60058 0.0
H519 H 0.86898 0.55842 0.72273 0.0
O520 O 0.84219 0.72755 0.69079 0.0
O521 O 0.76506 0.67531 0.74394 0.0
O522 O 0.62071 0.63178 0.68159 0.0
C523 C 0.83029 0.71583 0.73349 0.0
H524 H 0.55632 0.93314 0.68587 0.0
H525 H 0.85611 0.44737 0.5967 0.0
H526 H 0.58634 0.71138 0.53112 0.0
H527 H 0.84616 0.73594 0.5268 0.0
loop_
_geom_bond_atom_site_label_1
_geom_bond_atom_site_label_2
_geom_bond_distance
_geom_bond_site_symmetry_2
_ccdc_geom_bond_type
Co0 N4 2.148 . S
Co0 N10 2.128 1_455 S
Co0 N20 2.194 . S
Co0 O25 2.351 . S
Co0 O26 2.155 . S
Co0 O27 2.096 . S
C1 N4 1.301 . S
C1 N5 1.328 . S
C1 H6 0.930 . S
C2 C3 1.333 . S
C2 N4 1.317 . S
C2 H7 0.930 . S
C3 C2 1.333 . S
C3 N5 1.350 . S
C3 H29 0.931 . S
N4 Co0 2.148 . S
N4 C1 1.301 . S
N4 C2 1.317 . S
N5 C1 1.328 . S
N5 C3 1.350 . S
H6 C1 0.930 . S
H7 C2 0.930 . S
C8 O9 1.224 . S
C8 O27 1.247 . S
O9 C8 1.224 . S
N10 Co0 2.128 1_655 S
N10 C11 1.355 . S
N10 C13 1.311 . S
C11 N10 1.355 . S
C11 C12 1.363 . S
C11 H23 0.929 . S
C12 C11 1.363 . S
C12 N14 1.375 . S
C12 H30 0.931 . S
C13 N10 1.311 . S
C13 N14 1.347 . S
C13 H24 0.929 . S
N14 C12 1.375 . S
N14 C13 1.347 . S
C15 C18 1.365 . S
C15 N20 1.328 . S
C15 H21 0.929 . S
C16 C17 1.362 . S
C16 C19 1.378 . S
C16 H31 0.929 . S
C17 C16 1.362 . S
C17 C18 1.366 . S
C18 C15 1.365 . S
C18 C17 1.366 . S
C18 H32 0.930 . S
C19 C16 1.378 . S
C19 N20 1.315 . S
C19 H22 0.930 . S
N20 Co0 2.194 . S
N20 C15 1.328 . S
N20 C19 1.315 . S
H21 C15 0.929 . S
H22 C19 0.930 . S
H23 C11 0.929 . S
H24 C13 0.929 . S
O25 Co0 2.351 . S
O25 C28 1.244 . S
O26 Co0 2.155 . S
O26 C28 1.240 . S
O27 Co0 2.096 . S
O27 C8 1.247 . S
C28 O25 1.244 . S
C28 O26 1.240 . S
H29 C3 0.931 . S
H30 C12 0.931 . S
H31 C16 0.929 . S
H32 C18 0.930 . S
Co33 N37 2.148 . S
Co33 N43 2.128 1_545 S
Co33 N53 2.194 . S
Co33 O58 2.351 . S
Co33 O59 2.155 . S
Co33 O60 2.096 . S
C34 N37 1.301 . S
C34 N38 1.328 . S
C34 H39 0.930 . S
C35 C36 1.333 . S
C35 N37 1.317 . S
C35 H40 0.930 . S
C36 C35 1.333 . S
C36 N38 1.350 . S
C36 H62 0.931 . S
N37 Co33 2.148 . S
N37 C34 1.301 . S
N37 C35 1.317 . S
N38 C34 1.328 . S
N38 C36 1.350 . S
H39 C34 0.930 . S
H40 C35 0.930 . S
C41 O42 1.224 . S
C41 O60 1.247 . S
O42 C41 1.224 . S
N43 Co33 2.128 1_565 S
N43 C44 1.355 . S
N43 C46 1.311 . S
C44 N43 1.355 . S
C44 C45 1.363 . S
C44 H56 0.929 . S
C45 C44 1.363 . S
C45 N47 1.375 . S
C45 H63 0.931 . S
C46 N43 1.311 . S
C46 N47 1.347 . S
C46 H57 0.929 . S
N47 C45 1.375 . S
N47 C46 1.347 . S
C48 C51 1.365 . S
C48 N53 1.328 . S
C48 H54 0.929 . S
C49 C50 1.362 . S
C49 C52 1.378 . S
C49 H64 0.929 . S
C50 C49 1.362 . S
C50 C51 1.366 . S
C51 C48 1.365 . S
C51 C50 1.366 . S
C51 H65 0.930 . S
C52 C49 1.378 . S
C52 N53 1.315 . S
C52 H55 0.930 . S
N53 Co33 2.194 . S
N53 C48 1.328 . S
N53 C52 1.315 . S
H54 C48 0.929 . S
H55 C52 0.930 . S
H56 C44 0.929 . S
H57 C46 0.929 . S
O58 Co33 2.351 . S
O58 C61 1.244 . S
O59 Co33 2.155 . S
O59 C61 1.240 . S
O60 Co33 2.096 . S
O60 C41 1.247 . S
C61 O58 1.244 . S
C61 O59 1.240 . S
H62 C36 0.931 . S
H63 C45 0.931 . S
H64 C49 0.929 . S
H65 C51 0.930 . S
Co66 N70 2.148 . S
Co66 N76 2.128 1_655 S
Co66 N86 2.194 . S
Co66 O91 2.351 . S
Co66 O92 2.155 . S
Co66 O93 2.096 . S
C67 N70 1.301 . S
C67 N71 1.328 . S
C67 H72 0.930 . S
C68 C69 1.333 . S
C68 N70 1.317 . S
C68 H73 0.930 . S
C69 C68 1.333 . S
C69 N71 1.350 . S
C69 H95 0.931 . S
N70 Co66 2.148 . S
N70 C67 1.301 . S
N70 C68 1.317 . S
N71 C67 1.328 . S
N71 C69 1.350 . S
H72 C67 0.930 . S
H73 C68 0.930 . S
C74 O75 1.224 . S
C74 O93 1.247 . S
O75 C74 1.224 . S
N76 Co66 2.128 1_455 S
N76 C77 1.355 . S
N76 C79 1.311 . S
C77 N76 1.355 . S
C77 C78 1.363 . S
C77 H89 0.929 . S
C78 C77 1.363 . S
C78 N80 1.375 . S
C78 H96 0.931 . S
C79 N76 1.311 . S
C79 N80 1.347 . S
C79 H90 0.929 . S
N80 C78 1.375 . S
N80 C79 1.347 . S
C81 C84 1.365 . S
C81 N86 1.328 . S
C81 H87 0.929 . S
C82 C83 1.362 . S
C82 C85 1.378 . S
C82 H97 0.929 . S
C83 C82 1.362 . S
C83 C84 1.366 . S
C84 C81 1.365 . S
C84 C83 1.366 . S
C84 H98 0.930 . S
C85 C82 1.378 . S
C85 N86 1.315 . S
C85 H88 0.930 . S
N86 Co66 2.194 . S
N86 C81 1.328 . S
N86 C85 1.315 . S
H87 C81 0.929 . S
H88 C85 0.930 . S
H89 C77 0.929 . S
H90 C79 0.929 . S
O91 Co66 2.351 . S
O91 C94 1.244 . S
O92 Co66 2.155 . S
O92 C94 1.240 . S
O93 Co66 2.096 . S
O93 C74 1.247 . S
C94 O91 1.244 . S
C94 O92 1.240 . S
H95 C69 0.931 . S
H96 C78 0.931 . S
H97 C82 0.929 . S
H98 C84 0.930 . S
Co99 N103 2.148 . S
Co99 N109 2.128 1_565 S
Co99 N119 2.194 . S
Co99 O124 2.351 . S
Co99 O125 2.155 . S
Co99 O126 2.096 . S
C100 N103 1.301 . S
C100 N104 1.328 . S
C100 H105 0.930 . S
C101 C102 1.333 . S
C101 N103 1.317 . S
C101 H106 0.930 . S
C102 C101 1.333 . S
C102 N104 1.350 . S
C102 H128 0.931 . S
N103 Co99 2.148 . S
N103 C100 1.301 . S
N103 C101 1.317 . S
N104 C100 1.328 . S
N104 C102 1.350 . S
H105 C100 0.930 . S
H106 C101 0.930 . S
C107 O108 1.224 . S
C107 O126 1.247 . S
O108 C107 1.224 . S
N109 Co99 2.128 1_545 S
N109 C110 1.355 . S
N109 C112 1.311 . S
C110 N109 1.355 . S
C110 C111 1.363 . S
C110 H122 0.929 . S
C111 C110 1.363 . S
C111 N113 1.375 . S
C111 H129 0.931 . S
C112 N109 1.311 . S
C112 N113 1.347 . S
C112 H123 0.929 . S
N113 C111 1.375 . S
N113 C112 1.347 . S
C114 C117 1.365 . S
C114 N119 1.328 . S
C114 H120 0.929 . S
C115 C116 1.362 . S
C115 C118 1.378 . S
C115 H130 0.929 . S
C116 C115 1.362 . S
C116 C117 1.366 . S
C117 C114 1.365 . S
C117 C116 1.366 . S
C117 H131 0.930 . S
C118 C115 1.378 . S
C118 N119 1.315 . S
C118 H121 0.930 . S
N119 Co99 2.194 . S
N119 C114 1.328 . S
N119 C118 1.315 . S
H120 C114 0.929 . S
H121 C118 0.930 . S
H122 C110 0.929 . S
H123 C112 0.929 . S
O124 Co99 2.351 . S
O124 C127 1.244 . S
O125 Co99 2.155 . S
O125 C127 1.240 . S
O126 Co99 2.096 . S
O126 C107 1.247 . S
C127 O124 1.244 . S
C127 O125 1.240 . S
H128 C102 0.931 . S
H129 C111 0.931 . S
H130 C115 0.929 . S
H131 C117 0.930 . S
Co132 N136 2.148 . S
Co132 N142 2.128 . S
Co132 N152 2.194 . S
Co132 O157 2.351 . S
Co132 O158 2.155 . S
Co132 O159 2.096 . S
C133 N136 1.301 . S
C133 N137 1.328 . S
C133 H138 0.930 . S
C134 C135 1.333 . S
C134 N136 1.317 . S
C134 H139 0.930 . S
C135 C134 1.333 . S
C135 N137 1.350 . S
C135 H161 0.931 . S
N136 Co132 2.148 . S
N136 C133 1.301 . S
N136 C134 1.317 . S
N137 C133 1.328 . S
N137 C135 1.350 . S
H138 C133 0.930 . S
H139 C134 0.930 . S
C140 O141 1.224 . S
C140 O159 1.247 . S
O141 C140 1.224 . S
N142 Co132 2.128 . S
N142 C143 1.355 . S
N142 C145 1.311 . S
C143 N142 1.355 . S
C143 C144 1.363 . S
C143 H155 0.929 . S
C144 C143 1.363 . S
C144 N146 1.375 . S
C144 H162 0.931 . S
C145 N142 1.311 . S
C145 N146 1.347 . S
C145 H156 0.929 . S
N146 C144 1.375 . S
N146 C145 1.347 . S
C147 C150 1.365 . S
C147 N152 1.328 . S
C147 H153 0.929 . S
C148 C149 1.362 . S
C148 C151 1.378 . S
C148 H163 0.929 . S
C149 C148 1.362 . S
C149 C150 1.366 . S
C150 C147 1.365 . S
C150 C149 1.366 . S
C150 H164 0.930 . S
C151 C148 1.378 . S
C151 N152 1.315 . S
C151 H154 0.930 . S
N152 Co132 2.194 . S
N152 C147 1.328 . S
N152 C151 1.315 . S
H153 C147 0.929 . S
H154 C151 0.930 . S
H155 C143 0.929 . S
H156 C145 0.929 . S
O157 Co132 2.351 . S
O157 C160 1.244 . S
O158 Co132 2.155 . S
O158 C160 1.240 . S
O159 Co132 2.096 . S
O159 C140 1.247 . S
C160 O157 1.244 . S
C160 O158 1.240 . S
H161 C135 0.931 . S
H162 C144 0.931 . S
H163 C148 0.929 . S
H164 C150 0.930 . S
Co165 N169 2.148 . S
Co165 N175 2.128 . S
Co165 N185 2.194 . S
Co165 O190 2.351 . S
Co165 O191 2.155 . S
Co165 O192 2.096 . S
C166 N169 1.301 . S
C166 N170 1.328 . S
C166 H171 0.930 . S
C167 C168 1.333 . S
C167 N169 1.317 . S
C167 H172 0.930 . S
C168 C167 1.333 . S
C168 N170 1.350 . S
C168 H194 0.931 . S
N169 Co165 2.148 . S
N169 C166 1.301 . S
N169 C167 1.317 . S
N170 C166 1.328 . S
N170 C168 1.350 . S
H171 C166 0.930 . S
H172 C167 0.930 . S
C173 O174 1.224 . S
C173 O192 1.247 . S
O174 C173 1.224 . S
N175 Co165 2.128 . S
N175 C176 1.355 . S
N175 C178 1.311 . S
C176 N175 1.355 . S
C176 C177 1.363 . S
C176 H188 0.929 . S
C177 C176 1.363 . S
C177 N179 1.375 . S
C177 H195 0.931 . S
C178 N175 1.311 . S
C178 N179 1.347 . S
C178 H189 0.929 . S
N179 C177 1.375 . S
N179 C178 1.347 . S
C180 C183 1.365 . S
C180 N185 1.328 . S
C180 H186 0.929 . S
C181 C182 1.362 . S
C181 C184 1.378 . S
C181 H196 0.929 . S
C182 C181 1.362 . S
C182 C183 1.366 . S
C183 C180 1.365 . S
C183 C182 1.366 . S
C183 H197 0.930 . S
C184 C181 1.378 . S
C184 N185 1.315 . S
C184 H187 0.930 . S
N185 Co165 2.194 . S
N185 C180 1.328 . S
N185 C184 1.315 . S
H186 C180 0.929 . S
H187 C184 0.930 . S
H188 C176 0.929 . S
H189 C178 0.929 . S
O190 Co165 2.351 . S
O190 C193 1.244 . S
O191 Co165 2.155 . S
O191 C193 1.240 . S
O192 Co165 2.096 . S
O192 C173 1.247 . S
C193 O190 1.244 . S
C193 O191 1.240 . S
H194 C168 0.931 . S
H195 C177 0.931 . S
H196 C181 0.929 . S
H197 C183 0.930 . S
Co198 N202 2.148 . S
Co198 N208 2.128 . S
Co198 N218 2.194 . S
Co198 O223 2.351 . S
Co198 O224 2.155 . S
Co198 O225 2.096 . S
C199 N202 1.301 . S
C199 N203 1.328 . S
C199 H204 0.930 . S
C200 C201 1.333 . S
C200 N202 1.317 . S
C200 H205 0.930 . S
C201 C200 1.333 . S
C201 N203 1.350 . S
C201 H227 0.931 . S
N202 Co198 2.148 . S
N202 C199 1.301 . S
N202 C200 1.317 . S
N203 C199 1.328 . S
N203 C201 1.350 . S
H204 C199 0.930 . S
H205 C200 0.930 . S
C206 O207 1.224 . S
C206 O225 1.247 . S
O207 C206 1.224 . S
N208 Co198 2.128 . S
N208 C209 1.355 . S
N208 C211 1.311 . S
C209 N208 1.355 . S
C209 C210 1.363 . S
C209 H221 0.929 . S
C210 C209 1.363 . S
C210 N212 1.375 . S
C210 H228 0.931 . S
C211 N208 1.311 . S
C211 N212 1.347 . S
C211 H222 0.929 . S
N212 C210 1.375 . S
N212 C211 1.347 . S
C213 C216 1.365 . S
C213 N218 1.328 . S
C213 H219 0.929 . S
C214 C215 1.362 . S
C214 C217 1.378 . S
C214 H229 0.929 . S
C215 C214 1.362 . S
C215 C216 1.366 . S
C216 C213 1.365 . S
C216 C215 1.366 . S
C216 H230 0.930 . S
C217 C214 1.378 . S
C217 N218 1.315 . S
C217 H220 0.930 . S
N218 Co198 2.194 . S
N218 C213 1.328 . S
N218 C217 1.315 . S
H219 C213 0.929 . S
H220 C217 0.930 . S
H221 C209 0.929 . S
H222 C211 0.929 . S
O223 Co198 2.351 . S
O223 C226 1.244 . S
O224 Co198 2.155 . S
O224 C226 1.240 . S
O225 Co198 2.096 . S
O225 C206 1.247 . S
C226 O223 1.244 . S
C226 O224 1.240 . S
H227 C201 0.931 . S
H228 C210 0.931 . S
H229 C214 0.929 . S
H230 C216 0.930 . S
Co231 N235 2.148 . S
Co231 N241 2.128 . S
Co231 N251 2.194 . S
Co231 O256 2.351 . S
Co231 O257 2.155 . S
Co231 O258 2.096 . S
C232 N235 1.301 . S
C232 N236 1.328 . S
C232 H237 0.930 . S
C233 C234 1.333 . S
C233 N235 1.317 . S
C233 H238 0.930 . S
C234 C233 1.333 . S
C234 N236 1.350 . S
C234 H260 0.931 . S
N235 Co231 2.148 . S
N235 C232 1.301 . S
N235 C233 1.317 . S
N236 C232 1.328 . S
N236 C234 1.350 . S
H237 C232 0.930 . S
H238 C233 0.930 . S
C239 O240 1.224 . S
C239 O258 1.247 . S
O240 C239 1.224 . S
N241 Co231 2.128 . S
N241 C242 1.355 . S
N241 C244 1.311 . S
C242 N241 1.355 . S
C242 C243 1.363 . S
C242 H254 0.929 . S
C243 C242 1.363 . S
C243 N245 1.375 . S
C243 H261 0.931 . S
C244 N241 1.311 . S
C244 N245 1.347 . S
C244 H255 0.929 . S
N245 C243 1.375 . S
N245 C244 1.347 . S
C246 C249 1.365 . S
C246 N251 1.328 . S
C246 H252 0.929 . S
C247 C248 1.362 . S
C247 C250 1.378 . S
C247 H262 0.929 . S
C248 C247 1.362 . S
C248 C249 1.366 . S
C249 C246 1.365 . S
C249 C248 1.366 . S
C249 H263 0.930 . S
C250 C247 1.378 . S
C250 N251 1.315 . S
C250 H253 0.930 . S
N251 Co231 2.194 . S
N251 C246 1.328 . S
N251 C250 1.315 . S
H252 C246 0.929 . S
H253 C250 0.930 . S
H254 C242 0.929 . S
H255 C244 0.929 . S
O256 Co231 2.351 . S
O256 C259 1.244 . S
O257 Co231 2.155 . S
O257 C259 1.240 . S
O258 Co231 2.096 . S
O258 C239 1.247 . S
C259 O256 1.244 . S
C259 O257 1.240 . S
H260 C234 0.931 . S
H261 C243 0.931 . S
H262 C247 0.929 . S
H263 C249 0.930 . S
Co264 N268 2.148 . S
Co264 N274 2.128 1_655 S
Co264 N284 2.194 . S
Co264 O289 2.351 . S
Co264 O290 2.155 . S
Co264 O291 2.096 . S
C265 N268 1.301 . S
C265 N269 1.328 . S
C265 H270 0.930 . S
C266 C267 1.333 . S
C266 N268 1.317 . S
C266 H271 0.930 . S
C267 C266 1.333 . S
C267 N269 1.350 . S
C267 H293 0.931 . S
N268 Co264 2.148 . S
N268 C265 1.301 . S
N268 C266 1.317 . S
N269 C265 1.328 . S
N269 C267 1.350 . S
H270 C265 0.930 . S
H271 C266 0.930 . S
C272 O273 1.224 . S
C272 O291 1.247 . S
O273 C272 1.224 . S
N274 Co264 2.128 1_455 S
N274 C275 1.355 . S
N274 C277 1.311 . S
C275 N274 1.355 . S
C275 C276 1.363 . S
C275 H287 0.929 . S
C276 C275 1.363 . S
C276 N278 1.375 . S
C276 H294 0.931 . S
C277 N274 1.311 . S
C277 N278 1.347 . S
C277 H288 0.929 . S
N278 C276 1.375 . S
N278 C277 1.347 . S
C279 C282 1.365 . S
C279 N284 1.328 . S
C279 H285 0.929 . S
C280 C281 1.362 . S
C280 C283 1.378 . S
C280 H295 0.929 . S
C281 C280 1.362 . S
C281 C282 1.366 . S
C282 C279 1.365 . S
C282 C281 1.366 . S
C282 H296 0.930 . S
C283 C280 1.378 . S
C283 N284 1.315 . S
C283 H286 0.930 . S
N284 Co264 2.194 . S
N284 C279 1.328 . S
N284 C283 1.315 . S
H285 C279 0.929 . S
H286 C283 0.930 . S
H287 C275 0.929 . S
H288 C277 0.929 . S
O289 Co264 2.351 . S
O289 C292 1.244 . S
O290 Co264 2.155 . S
O290 C292 1.240 . S
O291 Co264 2.096 . S
O291 C272 1.247 . S
C292 O289 1.244 . S
C292 O290 1.240 . S
H293 C267 0.931 . S
H294 C276 0.931 . S
H295 C280 0.929 . S
H296 C282 0.930 . S
Co297 N301 2.148 . S
Co297 N307 2.128 1_565 S
Co297 N317 2.194 . S
Co297 O322 2.351 . S
Co297 O323 2.155 . S
Co297 O324 2.096 . S
C298 N301 1.301 . S
C298 N302 1.328 . S
C298 H303 0.930 . S
C299 C300 1.333 . S
C299 N301 1.317 . S
C299 H304 0.930 . S
C300 C299 1.333 . S
C300 N302 1.350 . S
C300 H326 0.931 . S
N301 Co297 2.148 . S
N301 C298 1.301 . S
N301 C299 1.317 . S
N302 C298 1.328 . S
N302 C300 1.350 . S
H303 C298 0.930 . S
H304 C299 0.930 . S
C305 O306 1.224 . S
C305 O324 1.247 . S
O306 C305 1.224 . S
N307 Co297 2.128 1_545 S
N307 C308 1.355 . S
N307 C310 1.311 . S
C308 N307 1.355 . S
C308 C309 1.363 . S
C308 H320 0.929 . S
C309 C308 1.363 . S
C309 N311 1.375 . S
C309 H327 0.931 . S
C310 N307 1.311 . S
C310 N311 1.347 . S
C310 H321 0.929 . S
N311 C309 1.375 . S
N311 C310 1.347 . S
C312 C315 1.365 . S
C312 N317 1.328 . S
C312 H318 0.929 . S
C313 C314 1.362 . S
C313 C316 1.378 . S
C313 H328 0.929 . S
C314 C313 1.362 . S
C314 C315 1.366 . S
C315 C312 1.365 . S
C315 C314 1.366 . S
C315 H329 0.930 . S
C316 C313 1.378 . S
C316 N317 1.315 . S
C316 H319 0.930 . S
N317 Co297 2.194 . S
N317 C312 1.328 . S
N317 C316 1.315 . S
H318 C312 0.929 . S
H319 C316 0.930 . S
H320 C308 0.929 . S
H321 C310 0.929 . S
O322 Co297 2.351 . S
O322 C325 1.244 . S
O323 Co297 2.155 . S
O323 C325 1.240 . S
O324 Co297 2.096 . S
O324 C305 1.247 . S
C325 O322 1.244 . S
C325 O323 1.240 . S
H326 C300 0.931 . S
H327 C309 0.931 . S
H328 C313 0.929 . S
H329 C315 0.930 . S
Co330 N334 2.148 . S
Co330 N340 2.128 1_455 S
Co330 N350 2.194 . S
Co330 O355 2.351 . S
Co330 O356 2.155 . S
Co330 O357 2.096 . S
C331 N334 1.301 . S
C331 N335 1.328 . S
C331 H336 0.930 . S
C332 C333 1.333 . S
C332 N334 1.317 . S
C332 H337 0.930 . S
C333 C332 1.333 . S
C333 N335 1.350 . S
C333 H359 0.931 . S
N334 Co330 2.148 . S
N334 C331 1.301 . S
N334 C332 1.317 . S
N335 C331 1.328 . S
N335 C333 1.350 . S
H336 C331 0.930 . S
H337 C332 0.930 . S
C338 O339 1.224 . S
C338 O357 1.247 . S
O339 C338 1.224 . S
N340 Co330 2.128 1_655 S
N340 C341 1.355 . S
N340 C343 1.311 . S
C341 N340 1.355 . S
C341 C342 1.363 . S
C341 H353 0.929 . S
C342 C341 1.363 . S
C342 N344 1.375 . S
C342 H360 0.931 . S
C343 N340 1.311 . S
C343 N344 1.347 . S
C343 H354 0.929 . S
N344 C342 1.375 . S
N344 C343 1.347 . S
C345 C348 1.365 . S
C345 N350 1.328 . S
C345 H351 0.929 . S
C346 C347 1.362 . S
C346 C349 1.378 . S
C346 H361 0.929 . S
C347 C346 1.362 . S
C347 C348 1.366 . S
C348 C345 1.365 . S
C348 C347 1.366 . S
C348 H362 0.930 . S
C349 C346 1.378 . S
C349 N350 1.315 . S
C349 H352 0.930 . S
N350 Co330 2.194 . S
N350 C345 1.328 . S
N350 C349 1.315 . S
H351 C345 0.929 . S
H352 C349 0.930 . S
H353 C341 0.929 . S
H354 C343 0.929 . S
O355 Co330 2.351 . S
O355 C358 1.244 . S
O356 Co330 2.155 . S
O356 C358 1.240 . S
O357 Co330 2.096 . S
O357 C338 1.247 . S
C358 O355 1.244 . S
C358 O356 1.240 . S
H359 C333 0.931 . S
H360 C342 0.931 . S
H361 C346 0.929 . S
H362 C348 0.930 . S
Co363 N367 2.148 . S
Co363 N373 2.128 1_545 S
Co363 N383 2.194 . S
Co363 O388 2.351 . S
Co363 O389 2.155 . S
Co363 O390 2.096 . S
C364 N367 1.301 . S
C364 N368 1.328 . S
C364 H369 0.930 . S
C365 C366 1.333 . S
C365 N367 1.317 . S
C365 H370 0.930 . S
C366 C365 1.333 . S
C366 N368 1.350 . S
C366 H392 0.931 . S
N367 Co363 2.148 . S
N367 C364 1.301 . S
N367 C365 1.317 . S
N368 C364 1.328 . S
N368 C366 1.350 . S
H369 C364 0.930 . S
H370 C365 0.930 . S
C371 O372 1.224 . S
C371 O390 1.247 . S
O372 C371 1.224 . S
N373 Co363 2.128 1_565 S
N373 C374 1.355 . S
N373 C376 1.311 . S
C374 N373 1.355 . S
C374 C375 1.363 . S
C374 H386 0.929 . S
C375 C374 1.363 . S
C375 N377 1.375 . S
C375 H393 0.931 . S
C376 N373 1.311 . S
C376 N377 1.347 . S
C376 H387 0.929 . S
N377 C375 1.375 . S
N377 C376 1.347 . S
C378 C381 1.365 . S
C378 N383 1.328 . S
C378 H384 0.929 . S
C379 C380 1.362 . S
C379 C382 1.378 . S
C379 H394 0.929 . S
C380 C379 1.362 . S
C380 C381 1.366 . S
C381 C378 1.365 . S
C381 C380 1.366 . S
C381 H395 0.930 . S
C382 C379 1.378 . S
C382 N383 1.315 . S
C382 H385 0.930 . S
N383 Co363 2.194 . S
N383 C378 1.328 . S
N383 C382 1.315 . S
H384 C378 0.929 . S
H385 C382 0.930 . S
H386 C374 0.929 . S
H387 C376 0.929 . S
O388 Co363 2.351 . S
O388 C391 1.244 . S
O389 Co363 2.155 . S
O389 C391 1.240 . S
O390 Co363 2.096 . S
O390 C371 1.247 . S
C391 O388 1.244 . S
C391 O389 1.240 . S
H392 C366 0.931 . S
H393 C375 0.931 . S
H394 C379 0.929 . S
H395 C381 0.930 . S
Co396 N400 2.148 . S
Co396 N406 2.128 . S
Co396 N416 2.194 . S
Co396 O421 2.351 . S
Co396 O422 2.155 . S
Co396 O423 2.096 . S
C397 N400 1.301 . S
C397 N401 1.328 . S
C397 H402 0.930 . S
C398 C399 1.333 . S
C398 N400 1.317 . S
C398 H403 0.930 . S
C399 C398 1.333 . S
C399 N401 1.350 . S
C399 H425 0.931 . S
N400 Co396 2.148 . S
N400 C397 1.301 . S
N400 C398 1.317 . S
N401 C397 1.328 . S
N401 C399 1.350 . S
H402 C397 0.930 . S
H403 C398 0.930 . S
C404 O405 1.224 . S
C404 O423 1.247 . S
O405 C404 1.224 . S
N406 Co396 2.128 . S
N406 C407 1.355 . S
N406 C409 1.311 . S
C407 N406 1.355 . S
C407 C408 1.363 . S
C407 H419 0.929 . S
C408 C407 1.363 . S
C408 N410 1.375 . S
C408 H426 0.931 . S
C409 N406 1.311 . S
C409 N410 1.347 . S
C409 H420 0.929 . S
N410 C408 1.375 . S
N410 C409 1.347 . S
C411 C414 1.365 . S
C411 N416 1.328 . S
C411 H417 0.929 . S
C412 C413 1.362 . S
C412 C415 1.378 . S
C412 H427 0.929 . S
C413 C412 1.362 . S
C413 C414 1.366 . S
C414 C411 1.365 . S
C414 C413 1.366 . S
C414 H428 0.930 . S
C415 C412 1.378 . S
C415 N416 1.315 . S
C415 H418 0.930 . S
N416 Co396 2.194 . S
N416 C411 1.328 . S
N416 C415 1.315 . S
H417 C411 0.929 . S
H418 C415 0.930 . S
H419 C407 0.929 . S
H420 C409 0.929 . S
O421 Co396 2.351 . S
O421 C424 1.244 . S
O422 Co396 2.155 . S
O422 C424 1.240 . S
O423 Co396 2.096 . S
O423 C404 1.247 . S
C424 O421 1.244 . S
C424 O422 1.240 . S
H425 C399 0.931 . S
H426 C408 0.931 . S
H427 C412 0.929 . S
H428 C414 0.930 . S
Co429 N433 2.148 . S
Co429 N439 2.128 . S
Co429 N449 2.194 . S
Co429 O454 2.351 . S
Co429 O455 2.155 . S
Co429 O456 2.096 . S
C430 N433 1.301 . S
C430 N434 1.328 . S
C430 H435 0.930 . S
C431 C432 1.333 . S
C431 N433 1.317 . S
C431 H436 0.930 . S
C432 C431 1.333 . S
C432 N434 1.350 . S
C432 H458 0.931 . S
N433 Co429 2.148 . S
N433 C430 1.301 . S
N433 C431 1.317 . S
N434 C430 1.328 . S
N434 C432 1.350 . S
H435 C430 0.930 . S
H436 C431 0.930 . S
C437 O438 1.224 . S
C437 O456 1.247 . S
O438 C437 1.224 . S
N439 Co429 2.128 . S
N439 C440 1.355 . S
N439 C442 1.311 . S
C440 N439 1.355 . S
C440 C441 1.363 . S
C440 H452 0.929 . S
C441 C440 1.363 . S
C441 N443 1.375 . S
C441 H459 0.931 . S
C442 N439 1.311 . S
C442 N443 1.347 . S
C442 H453 0.929 . S
N443 C441 1.375 . S
N443 C442 1.347 . S
C444 C447 1.365 . S
C444 N449 1.328 . S
C444 H450 0.929 . S
C445 C446 1.362 . S
C445 C448 1.378 . S
C445 H460 0.929 . S
C446 C445 1.362 . S
C446 C447 1.366 . S
C447 C444 1.365 . S
C447 C446 1.366 . S
C447 H461 0.930 . S
C448 C445 1.378 . S
C448 N449 1.315 . S
C448 H451 0.930 . S
N449 Co429 2.194 . S
N449 C444 1.328 . S
N449 C448 1.315 . S
H450 C444 0.929 . S
H451 C448 0.930 . S
H452 C440 0.929 . S
H453 C442 0.929 . S
O454 Co429 2.351 . S
O454 C457 1.244 . S
O455 Co429 2.155 . S
O455 C457 1.240 . S
O456 Co429 2.096 . S
O456 C437 1.247 . S
C457 O454 1.244 . S
C457 O455 1.240 . S
H458 C432 0.931 . S
H459 C441 0.931 . S
H460 C445 0.929 . S
H461 C447 0.930 . S
Co462 N466 2.148 . S
Co462 N472 2.128 . S
Co462 N482 2.194 . S
Co462 O487 2.351 . S
Co462 O488 2.155 . S
Co462 O489 2.096 . S
C463 N466 1.301 . S
C463 N467 1.328 . S
C463 H468 0.930 . S
C464 C465 1.333 . S
C464 N466 1.317 . S
C464 H469 0.930 . S
C465 C464 1.333 . S
C465 N467 1.350 . S
C465 H491 0.931 . S
N466 Co462 2.148 . S
N466 C463 1.301 . S
N466 C464 1.317 . S
N467 C463 1.328 . S
N467 C465 1.350 . S
H468 C463 0.930 . S
H469 C464 0.930 . S
C470 O471 1.224 . S
C470 O489 1.247 . S
O471 C470 1.224 . S
N472 Co462 2.128 . S
N472 C473 1.355 . S
N472 C475 1.311 . S
C473 N472 1.355 . S
C473 C474 1.363 . S
C473 H485 0.929 . S
C474 C473 1.363 . S
C474 N476 1.375 . S
C474 H492 0.931 . S
C475 N472 1.311 . S
C475 N476 1.347 . S
C475 H486 0.929 . S
N476 C474 1.375 . S
N476 C475 1.347 . S
C477 C480 1.365 . S
C477 N482 1.328 . S
C477 H483 0.929 . S
C478 C479 1.362 . S
C478 C481 1.378 . S
C478 H493 0.929 . S
C479 C478 1.362 . S
C479 C480 1.366 . S
C480 C477 1.365 . S
C480 C479 1.366 . S
C480 H494 0.930 . S
C481 C478 1.378 . S
C481 N482 1.315 . S
C481 H484 0.930 . S
N482 Co462 2.194 . S
N482 C477 1.328 . S
N482 C481 1.315 . S
H483 C477 0.929 . S
H484 C481 0.930 . S
H485 C473 0.929 . S
H486 C475 0.929 . S
O487 Co462 2.351 . S
O487 C490 1.244 . S
O488 Co462 2.155 . S
O488 C490 1.240 . S
O489 Co462 2.096 . S
O489 C470 1.247 . S
C490 O487 1.244 . S
C490 O488 1.240 . S
H491 C465 0.931 . S
H492 C474 0.931 . S
H493 C478 0.929 . S
H494 C480 0.930 . S
Co495 N499 2.148 . S
Co495 N505 2.128 . S
Co495 N515 2.194 . S
Co495 O520 2.351 . S
Co495 O521 2.155 . S
Co495 O522 2.096 . S
C496 N499 1.301 . S
C496 N500 1.328 . S
C496 H501 0.930 . S
C497 C498 1.333 . S
C497 N499 1.317 . S
C497 H502 0.930 . S
C498 C497 1.333 . S
C498 N500 1.350 . S
C498 H524 0.931 . S
N499 Co495 2.148 . S
N499 C496 1.301 . S
N499 C497 1.317 . S
N500 C496 1.328 . S
N500 C498 1.350 . S
H501 C496 0.930 . S
H502 C497 0.930 . S
C503 O504 1.224 . S
C503 O522 1.247 . S
O504 C503 1.224 . S
N505 Co495 2.128 . S
N505 C506 1.355 . S
N505 C508 1.311 . S
C506 N505 1.355 . S
C506 C507 1.363 . S
C506 H518 0.929 . S
C507 C506 1.363 . S
C507 N509 1.375 . S
C507 H525 0.931 . S
C508 N505 1.311 . S
C508 N509 1.347 . S
C508 H519 0.929 . S
N509 C507 1.375 . S
N509 C508 1.347 . S
C510 C513 1.365 . S
C510 N515 1.328 . S
C510 H516 0.929 . S
C511 C512 1.362 . S
C511 C514 1.378 . S
C511 H526 0.929 . S
C512 C511 1.362 . S
C512 C513 1.366 . S
C513 C510 1.365 . S
C513 C512 1.366 . S
C513 H527 0.930 . S
C514 C511 1.378 . S
C514 N515 1.315 . S
C514 H517 0.930 . S
N515 Co495 2.194 . S
N515 C510 1.328 . S
N515 C514 1.315 . S
H516 C510 0.929 . S
H517 C514 0.930 . S
H518 C506 0.929 . S
H519 C508 0.929 . S
O520 Co495 2.351 . S
O520 C523 1.244 . S
O521 Co495 2.155 . S
O521 C523 1.240 . S
O522 Co495 2.096 . S
O522 C503 1.247 . S
C523 O520 1.244 . S
C523 O521 1.240 . S
H524 C498 0.931 . S
H525 C507 0.931 . S
H526 C511 0.929 . S
H527 C513 0.930 . S
C8 C74 2.964 1_445 S
C107 C41 2.964 1_465 S
C206 C140 2.964 . S
C173 C239 2.964 . S
C338 C272 2.964 1_445 S
C305 C371 2.964 1_465 S
C470 C404 2.964 . S
C437 C503 2.964 . S
C17 C347 1.693 1_554 S
C380 C50 1.693 . S
C281 C83 1.693 1_556 S
C314 C116 1.693 . S
C479 C149 1.693 1_554 S
C512 C182 1.693 . S
C413 C215 1.693 1_554 S
C446 C248 1.693 . S
C28 C259 1.710 . S
C61 C160 1.710 . S
C193 C94 1.710 . S
C226 C127 1.710 . S
C292 C523 1.710 . S
C325 C424 1.710 . S
C358 C457 1.710 . S
C391 C490 1.710 . S
N476 N5 1.353 . S
N38 N509 1.353 . S
N410 N71 1.353 . S
N443 N104 1.353 . S
N344 N137 1.353 . S
N170 N377 1.353 . S
N278 N203 1.353 . S
N236 N311 1.353 . S
N212 N269 1.353 . S
N245 N302 1.353 . S
N146 N335 1.353 . S
N368 N179 1.353 . S
N80 N401 1.353 . S
N434 N113 1.353 . S
N467 N14 1.353 . S
N47 N500 1.353 . S
