# Generated by pormake.
# Topology tfs, (6)-cn, num edge types: 1
# Building blocks:
#     Node 0, Type 0, BuildingBlock: HISSIN_clean_sbu_0, # of connection points: 6
#     Node 1, Type 0, BuildingBlock: HISSIN_clean_sbu_0, # of connection points: 6
#     Node 2, Type 0, BuildingBlock: HISSIN_clean_sbu_0, # of connection points: 6
#     Node 3, Type 0, BuildingBlock: HISSIN_clean_sbu_0, # of connection points: 6
#     Node 4, Type 0, BuildingBlock: HISSIN_clean_sbu_0, # of connection points: 6
#     Node 5, Type 0, BuildingBlock: HISSIN_clean_sbu_0, # of connection points: 6
#     Edge 6, Type (0, 0), BuildingBlock: XUDNAN_clean_linker_2, # of connection points: 2
#     Edge 7, Type (0, 0), BuildingBlock: XUDNAN_clean_linker_2, # of connection points: 2
#     Edge 8, Type (0, 0), BuildingBlock: XUDNAN_clean_linker_2, # of connection points: 2
#     Edge 9, Type (0, 0), BuildingBlock: XUDNAN_clean_linker_2, # of connection points: 2
#     Edge 10, Type (0, 0), BuildingBlock: XUDNAN_clean_linker_2, # of connection points: 2
#     Edge 11, Type (0, 0), BuildingBlock: XUDNAN_clean_linker_2, # of connection points: 2
#     Edge 12, Type (0, 0), BuildingBlock: XUDNAN_clean_linker_2, # of connection points: 2
#     Edge 13, Type (0, 0), BuildingBlock: XUDNAN_clean_linker_2, # of connection points: 2
#     Edge 14, Type (0, 0), BuildingBlock: XUDNAN_clean_linker_2, # of connection points: 2
#     Edge 15, Type (0, 0), BuildingBlock: XUDNAN_clean_linker_2, # of connection points: 2
#     Edge 16, Type (0, 0), BuildingBlock: XUDNAN_clean_linker_2, # of connection points: 2
#     Edge 17, Type (0, 0), BuildingBlock: XUDNAN_clean_linker_2, # of connection points: 2
#     Edge 18, Type (0, 0), BuildingBlock: XUDNAN_clean_linker_2, # of connection points: 2
#     Edge 19, Type (0, 0), BuildingBlock: XUDNAN_clean_linker_2, # of connection points: 2
#     Edge 20, Type (0, 0), BuildingBlock: XUDNAN_clean_linker_2, # of connection points: 2
#     Edge 21, Type (0, 0), BuildingBlock: XUDNAN_clean_linker_2, # of connection points: 2
#     Edge 22, Type (0, 0), BuildingBlock: XUDNAN_clean_linker_2, # of connection points: 2
#     Edge 23, Type (0, 0), BuildingBlock: XUDNAN_clean_linker_2, # of connection points: 2
# Relax obj value: 0.545
# Max RMSD: 0.295
# Mean RMSD: 0.295
data_MOF--net-tfs--node1-HISSIN_clean_sbu_0--edge1-XUDNAN_clean_linker_2
_symmetry_space_group_name_H-M    P1
_symmetry_Int_Tables_number       1
_symmetry_cell_setting            triclinic
loop_
_symmetry_equiv_pos_as_xyz
'x, y, z'
_cell_length_a     55.503057
_cell_length_b     55.49818
_cell_length_c     15.137414
_cell_angle_alpha  90.089941
_cell_angle_beta   89.913671
_cell_angle_gamma 120.00877
loop_
_atom_site_label
_atom_site_type_symbol
_atom_site_fract_x
_atom_site_fract_y
_atom_site_fract_z
_atom_type_partial_charge
Eu0 Eu 0.22315 0.3986 0.9241 0.0
Eu1 Eu 0.19844 0.44214 0.93646 0.0
C2 C 0.20878 0.41659 0.10738 0.0
C3 C 0.24602 0.34287 0.95926 0.0
C4 C 0.26252 0.34892 0.03552 0.0
C5 C 0.24228 0.29729 0.95248 0.0
C6 C 0.26953 0.32967 0.06815 0.0
C7 C 0.23538 0.31661 0.91957 0.0
C8 C 0.26018 0.30399 0.02537 0.0
C9 C 0.24292 0.36465 0.91331 0.0
O10 O 0.24438 0.46785 0.9653 0.0
O11 O 0.25833 0.44126 0.88859 0.0
C12 C 0.26382 0.46496 0.92531 0.0
O13 O 0.21261 0.40475 0.78496 0.0
O14 O 0.18874 0.4685 0.01761 0.0
O15 O 0.17771 0.46321 0.87876 0.0
O16 O 0.21666 0.44777 0.80147 0.0
C17 C 0.21545 0.42789 0.7515 0.0
O18 O 0.17763 0.37278 0.95939 0.0
O19 O 0.16313 0.4005 0.89369 0.0
O20 O 0.18988 0.4192 0.06397 0.0
O21 O 0.21831 0.3584 0.8846 0.0
O22 O 0.25698 0.39006 0.94329 0.0
O23 O 0.2271 0.41226 0.06633 0.0
C24 C 0.18922 0.50648 0.9449 0.0
C25 C 0.1729 0.51543 0.9008 0.0
C26 C 0.22205 0.55448 0.984 0.0
C27 C 0.18096 0.54366 0.89867 0.0
C28 C 0.21409 0.52629 0.98542 0.0
C29 C 0.20546 0.56353 0.94131 0.0
C30 C 0.17925 0.47644 0.95174 0.0
C31 C 0.15782 0.3763 0.92538 0.0
H32 H 0.27103 0.36897 0.0678 0.0
H33 H 0.23495 0.27782 0.91752 0.0
H34 H 0.2831 0.33527 0.12508 0.0
H35 H 0.22284 0.31152 0.86028 0.0
H36 H 0.15367 0.50049 0.8689 0.0
H37 H 0.24085 0.56906 0.01854 0.0
H38 H 0.16794 0.54988 0.86376 0.0
H39 H 0.22714 0.51996 0.01978 0.0
Eu40 Eu 0.82011 0.22379 0.03586 0.0
Eu41 Eu 0.75106 0.1888 0.03413 0.0
C42 C 0.78429 0.19891 0.21048 0.0
C43 C 0.9015 0.25796 0.01159 0.0
C44 C 0.90753 0.23633 0.0025 0.0
C45 C 0.94955 0.29155 0.97744 0.0
C46 C 0.93465 0.24241 0.98186 0.0
C47 C 0.92259 0.28547 -0.00238 0.0
C48 C 0.95608 0.27018 0.97025 0.0
C49 C 0.87436 0.25324 0.04278 0.0
O50 O 0.76195 0.23159 0.07974 0.0
O51 O 0.80697 0.25622 0.02921 0.0
C52 C 0.78431 0.2552 0.05984 0.0
O53 O 0.80663 0.21209 0.89373 0.0
O54 O 0.71164 0.17304 0.10402 0.0
O55 O 0.71177 0.16305 0.96564 0.0
O56 O 0.76594 0.21274 0.9076 0.0
C57 C 0.78528 0.21257 0.85811 0.0
O58 O 0.8086 0.17845 0.03308 0.0
O59 O 0.76382 0.15923 0.97956 0.0
O60 O 0.76566 0.17921 0.16017 0.0
O61 O 0.85937 0.25843 0.9882 0.0
O62 O 0.85943 0.23192 0.09387 0.0
O63 O 0.80474 0.22151 0.17546 0.0
C64 C 0.67369 0.16778 0.01683 0.0
C65 C 0.66378 0.1669 0.93077 0.0
C66 C 0.63763 0.17637 0.07378 0.0
C67 C 0.64092 0.17053 0.9165 0.0
C68 C 0.66042 0.17266 0.0881 0.0
C69 C 0.62743 0.17503 0.98793 0.0
C70 C 0.69668 0.1621 0.03321 0.0
C71 C 0.78619 0.15778 -0.00281 0.0
H72 H 0.89151 0.21491 0.0131 0.0
H73 H 0.9655 0.31319 0.97102 0.0
H74 H 0.9389 0.22544 0.97604 0.0
H75 H 0.91841 0.30246 0.00524 0.0
H76 H 0.6734 0.16301 0.87439 0.0
H77 H 0.62743 0.17938 0.13032 0.0
H78 H 0.63368 0.16962 0.84951 0.0
H79 H 0.66732 0.1731 0.15529 0.0
Eu80 Eu 0.60402 0.82867 0.03711 0.0
Eu81 Eu 0.55907 0.76073 0.02966 0.0
C82 C 0.57759 0.79445 0.20715 0.0
C83 C 0.66347 0.90787 0.04265 0.0
C84 C 0.67111 0.92954 0.10338 0.0
C85 C 0.70244 0.93895 0.94953 0.0
C86 C 0.69357 0.95597 0.08613 0.0
C87 C 0.67969 0.91246 0.96661 0.0
C88 C 0.70909 0.96131 0.00769 0.0
C89 C 0.63654 0.88232 0.05541 0.0
O90 O 0.53241 0.7809 0.03393 0.0
O91 O 0.56434 0.82439 0.98306 0.0
C92 C 0.5386 0.80516 0.00039 0.0
O93 O 0.60864 0.81447 0.90319 0.0
O94 O 0.52528 0.72445 0.09495 0.0
O95 O 0.54232 0.71942 0.97166 0.0
O96 O 0.56445 0.77679 0.88932 0.0
C97 C 0.58787 0.79639 0.85433 0.0
O98 O 0.63048 0.80888 0.06261 0.0
O99 O 0.60099 0.76466 0.00957 0.0
O100 O 0.5763 0.77283 0.16784 0.0
O101 O 0.62111 0.87067 0.98598 0.0
O102 O 0.63444 0.86436 0.11487 0.0
O103 O 0.57831 0.81442 0.15986 0.0
C104 C 0.4951 0.68568 0.00545 0.0
C105 C 0.4879 0.67926 0.91605 0.0
C106 C 0.45021 0.64646 0.04736 0.0
C107 C 0.46229 0.65628 0.89268 0.0
C108 C 0.47581 0.66935 0.07068 0.0
C109 C 0.44341 0.63927 0.95814 0.0
C110 C 0.52334 0.70729 0.03266 0.0
C111 C 0.62569 0.78432 0.03545 0.0
H112 H 0.65869 0.92644 0.16211 0.0
H113 H 0.71417 0.94213 0.88922 0.0
H114 H 0.69755 0.97256 0.13193 0.0
H115 H 0.67411 0.89594 0.91886 0.0
H116 H 0.50231 0.69146 0.86416 0.0
H117 H 0.43631 0.63364 0.09942 0.0
H118 H 0.45751 0.65146 0.82332 0.0
H119 H 0.48097 0.6737 0.14007 0.0
Eu120 Eu 0.78126 0.59939 0.93702 0.0
Eu121 Eu 0.80684 0.5567 0.92091 0.0
C122 C 0.79361 0.57487 0.10518 0.0
C123 C 0.75173 0.65217 0.95635 0.0
C124 C 0.77221 0.67981 0.97407 0.0
C125 C 0.71711 0.66657 0.94649 0.0
C126 C 0.76505 0.70074 0.9784 0.0
C127 C 0.72431 0.64589 0.94134 0.0
C128 C 0.73726 0.69428 0.96595 0.0
C129 C 0.75702 0.62873 0.96321 0.0
O130 O 0.76152 0.52987 0.95513 0.0
O131 O 0.74734 0.55754 0.88845 0.0
C132 C 0.74194 0.53317 0.9187 0.0
O133 O 0.7981 0.60651 0.7997 0.0
O134 O 0.83547 0.54271 0.96291 0.0
O135 O 0.80675 0.52168 0.85531 0.0
O136 O 0.7976 0.56501 0.7821 0.0
C137 C 0.799 0.58768 0.74945 0.0
O138 O 0.82797 0.62642 0.95655 0.0
O139 O 0.84208 0.5989 0.88465 0.0
O140 O 0.81241 0.57178 0.06224 0.0
O141 O 0.75072 0.61135 0.89756 0.0
O142 O 0.77746 0.631 0.01185 0.0
O143 O 0.77366 0.57583 0.06288 0.0
C144 C 0.81966 0.49476 0.94133 0.0
C145 C 0.82764 0.47878 0.89076 0.0
C146 C 0.79905 0.45756 0.04967 0.0
C147 C 0.8213 0.45233 0.91896 0.0
C148 C 0.80532 0.48406 0.02104 0.0
C149 C 0.80691 0.44133 -0.00127 0.0
C150 C 0.82556 0.52194 0.90735 0.0
C151 C 0.84728 0.62286 0.91806 0.0
H152 H 0.79352 0.68511 0.9865 0.0
H153 H 0.6954 0.66044 0.93875 0.0
H154 H 0.78118 0.72186 0.99262 0.0
H155 H 0.70808 0.62462 0.9291 0.0
H156 H 0.83846 0.48664 0.82857 0.0
H157 H 0.78815 0.44983 0.11173 0.0
H158 H 0.82716 0.44026 0.87705 0.0
H159 H 0.79882 0.49608 0.06068 0.0
Eu160 Eu 0.18203 0.77526 0.03016 0.0
Eu161 Eu 0.25147 0.81409 0.02799 0.0
C162 C 0.21678 0.79073 0.20305 0.0
C163 C 0.10084 0.74174 0.02514 0.0
C164 C 0.07791 0.72303 0.07566 0.0
C165 C 0.07013 0.75088 0.93473 0.0
C166 C 0.0512 0.71777 0.05498 0.0
C167 C 0.09693 0.75607 0.95544 0.0
C168 C 0.04683 0.73122 0.9832 0.0
C169 C 0.12797 0.74404 0.04291 0.0
O170 O 0.24261 0.77003 0.03522 0.0
O171 O 0.197 0.74581 0.98842 0.0
C172 C 0.22092 0.74725 0.00575 0.0
O173 O 0.19379 0.79423 0.89616 0.0
O174 O 0.29018 0.8287 0.10056 0.0
O175 O 0.29134 0.84302 0.96674 0.0
O176 O 0.23749 0.79934 0.88802 0.0
C177 C 0.21487 0.79653 0.85021 0.0
O178 O 0.1914 0.81952 0.05476 0.0
O179 O 0.23695 0.84462 0.00574 0.0
O180 O 0.23546 0.81388 0.16561 0.0
O181 O 0.14242 0.74379 0.97509 0.0
O182 O 0.14346 0.7612 0.1048 0.0
O183 O 0.19995 0.76951 0.15448 0.0
C184 C 0.32946 0.83761 0.01428 0.0
C185 C 0.33879 0.83827 0.92741 0.0
C186 C 0.36649 0.83007 0.06823 0.0
C187 C 0.36183 0.83501 0.91129 0.0
C188 C 0.34357 0.83347 0.08439 0.0
C189 C 0.37602 0.83102 0.98157 0.0
C190 C 0.30585 0.84218 0.03331 0.0
C191 C 0.21345 0.84293 0.02989 0.0
H192 H 0.08052 0.71167 0.12944 0.0
H193 H 0.0676 0.76187 0.87973 0.0
H194 H 0.03385 0.70217 0.09291 0.0
H195 H 0.11444 0.77068 0.91577 0.0
H196 H 0.32848 0.84153 0.87186 0.0
H197 H 0.37722 0.82748 0.12391 0.0
H198 H 0.36858 0.83564 0.84372 0.0
H199 H 0.3371 0.83321 0.15212 0.0
Eu200 Eu 0.39904 0.17503 0.06576 0.0
Eu201 Eu 0.44414 0.2434 0.06088 0.0
C202 C 0.42622 0.20911 0.23767 0.0
C203 C 0.34216 0.09419 0.07782 0.0
C204 C 0.34092 0.07214 0.12613 0.0
C205 C 0.29693 0.06235 0.01434 0.0
C206 C 0.31827 0.04532 0.11751 0.0
C207 C 0.31992 0.08933 0.02246 0.0
C208 C 0.29602 0.03987 0.06083 0.0
C209 C 0.36802 0.12118 0.08256 0.0
O210 O 0.47031 0.22275 0.06322 0.0
O211 O 0.43846 0.18021 0.00611 0.0
C212 C 0.46417 0.19907 0.02514 0.0
O213 O 0.39317 0.18996 0.93475 0.0
O214 O 0.47944 0.27952 0.12155 0.0
O215 O 0.46011 0.28473 0.00401 0.0
O216 O 0.43721 0.22773 0.91955 0.0
C217 C 0.41363 0.2082 0.88524 0.0
O218 O 0.37199 0.19386 0.09485 0.0
O219 O 0.40209 0.23998 0.05915 0.0
O220 O 0.4284 0.23136 0.20042 0.0
O221 O 0.3807 0.13334 0.00939 0.0
O222 O 0.37116 0.13864 0.14537 0.0
O223 O 0.42487 0.18906 0.18876 0.0
C224 C 0.50818 0.31786 0.02845 0.0
C225 C 0.51349 0.32413 0.93809 0.0
C226 C 0.55455 0.35609 0.06219 0.0
C227 C 0.53893 0.34653 0.9103 0.0
C228 C 0.52911 0.3338 0.08993 0.0
C229 C 0.55956 0.36309 0.97221 0.0
C230 C 0.4804 0.2967 0.06102 0.0
C231 C 0.37727 0.21949 0.08087 0.0
H232 H 0.35804 0.07548 0.16854 0.0
H233 H 0.28011 0.05907 0.97074 0.0
H234 H 0.31892 0.02869 0.15272 0.0
H235 H 0.32059 0.10618 0.98446 0.0
H236 H 0.49778 0.31223 0.88898 0.0
H237 H 0.5698 0.3686 0.11171 0.0
H238 H 0.54228 0.35118 0.8404 0.0
H239 H 0.52546 0.32958 0.16003 0.0
H240 H 0.38222 0.27088 0.08934 0.0
H241 H 0.3207 0.18286 0.08505 0.0
H242 H 0.28314 0.19464 0.0832 0.0
H243 H 0.34277 0.29311 0.22847 0.0
H244 H 0.35501 0.32513 0.16815 0.0
H245 H 0.37659 0.30948 0.17693 0.0
H246 H 0.38027 0.30914 0.00619 0.0
H247 H 0.35876 0.32477 -0.00311 0.0
H248 H 0.34889 0.29243 0.94107 0.0
H249 H 0.25258 0.21673 0.06695 0.0
H250 H 0.23209 0.24689 0.04203 0.0
H251 H 0.31429 0.31986 0.05952 0.0
C252 C 0.36086 0.25397 0.08906 0.0
C253 C 0.35442 0.22592 0.08716 0.0
C254 C 0.32616 0.20451 0.08694 0.0
C255 C 0.30469 0.21102 0.08585 0.0
C256 C 0.31188 0.23898 0.08615 0.0
C257 C 0.33933 0.26007 0.08855 0.0
C258 C 0.34183 0.28845 0.08436 0.0
C259 C 0.35482 0.30501 0.16957 0.0
C260 C 0.35841 0.30463 0.00225 0.0
C261 C 0.31151 0.28014 0.07697 0.0
C262 C 0.29445 0.25156 0.07853 0.0
C263 C 0.26574 0.23913 0.06697 0.0
C264 C 0.25429 0.25639 0.05254 0.0
C265 C 0.27155 0.28572 0.05001 0.0
C266 C 0.30044 0.29757 0.06356 0.0
H267 H 0.11293 0.37436 0.84407 0.0
H268 H 0.13639 0.32656 0.01407 0.0
H269 H 0.08682 0.29059 0.0296 0.0
H270 H 0.05516 0.36345 0.96188 0.0
H271 H 0.03437 0.36087 0.86713 0.0
H272 H 0.07168 0.38078 0.86024 0.0
H273 H 0.07077 0.3514 0.72561 0.0
H274 H 0.03335 0.33139 0.73193 0.0
H275 H 0.05345 0.31404 0.73484 0.0
H276 H 0.03429 0.26298 0.04134 0.0
H277 H 0.98391 0.24631 0.04776 0.0
H278 H 0.99528 0.31122 0.86428 0.0
C279 C 0.10776 0.3561 0.88331 0.0
C280 C 0.12857 0.35329 0.92787 0.0
C281 C 0.12083 0.32911 0.97891 0.0
C282 C 0.09272 0.30854 0.98802 0.0
C283 C 0.07268 0.31229 0.94464 0.0
C284 C 0.07993 0.33536 0.89255 0.0
C285 C 0.05449 0.33554 0.85772 0.0
C286 C 0.0539 0.3617 0.88864 0.0
C287 C 0.05293 0.33293 0.75651 0.0
C288 C 0.03174 0.30954 0.90113 0.0
C289 C 0.04256 0.29619 0.9502 0.0
C290 C 0.02556 0.27294 0.00166 0.0
C291 C 0.9969 0.26351 0.00451 0.0
C292 C 0.98552 0.27739 0.95643 0.0
C293 C 1.00324 0.3002 0.90224 0.0
H294 H 0.79054 0.12204 0.11048 0.0
H295 H 0.77681 0.13373 0.83643 0.0
H296 H 0.76463 0.08534 0.80328 0.0
H297 H 0.81462 0.06889 0.07288 0.0
H298 H 0.79574 0.04943 0.16898 0.0
H299 H 0.81067 0.08671 0.1666 0.0
H300 H 0.76232 0.08077 0.20203 0.0
H301 H 0.74723 0.04364 0.20369 0.0
H302 H 0.73326 0.05933 0.13109 0.0
H303 H 0.74518 0.03447 0.80547 0.0
H304 H 0.71866 0.9848 0.84276 0.0
H305 H 0.74467 0.00468 0.11635 0.0
C306 C 0.78635 0.11468 0.04286 0.0
C307 C 0.78532 0.13158 0.97526 0.0
C308 C 0.77827 0.12109 0.88832 0.0
C309 C 0.77139 0.09369 0.869 0.0
C310 C 0.7715 0.07702 0.93762 0.0
C311 C 0.77895 0.08712 0.02288 0.0
C312 C 0.77299 0.06378 0.08693 0.0
C313 C 0.80013 0.06743 0.12615 0.0
C314 C 0.75274 0.06177 0.16017 0.0
C315 C 0.75957 0.0389 0.02534 0.0
C316 C 0.75958 0.04708 0.9392 0.0
C317 C 0.74572 0.02779 0.8722 0.0
C318 C 0.73077 0.99947 0.89411 0.0
C319 C 0.72957 0.99057 0.98258 0.0
C320 C 0.74508 0.01066 0.04811 0.0
H321 H 0.69691 0.69884 0.87482 0.0
H322 H 0.75715 0.73752 0.08616 0.0
H323 H 0.73836 0.76867 0.11751 0.0
H324 H 0.69308 0.76022 0.80478 0.0
H325 H 0.65606 0.74 0.78688 0.0
H326 H 0.67738 0.72426 0.77177 0.0
H327 H 0.6465 0.68546 0.88305 0.0
H328 H 0.62522 0.70111 0.89881 0.0
H329 H 0.64137 0.69493 0.99256 0.0
H330 H 0.7097 0.79298 0.13406 0.0
H331 H 0.6732 0.80637 0.13697 0.0
H332 H 0.63015 0.74849 0.92329 0.0
C333 C 0.70641 0.71397 0.92737 0.0
C334 C 0.7286 0.7156 0.97786 0.0
C335 C 0.7405 0.73607 0.04523 0.0
C336 C 0.72984 0.7538 0.06395 0.0
C337 C 0.70725 0.75082 0.01487 0.0
C338 C 0.69575 0.73138 0.94785 0.0
C339 C 0.67002 0.73031 0.91012 0.0
C340 C 0.67442 0.73924 0.81261 0.0
C341 C 0.64427 0.70123 0.9219 0.0
C342 C 0.66835 0.75167 0.96781 0.0
C343 C 0.69025 0.76376 0.02676 0.0
C344 C 0.69257 0.78372 0.08779 0.0
C345 C 0.6718 0.79122 0.08901 0.0
C346 C 0.6488 0.77831 0.03086 0.0
C347 C 0.64737 0.75856 0.9691 0.0
H348 H 1.00107 0.71776 0.08825 0.0
H349 H 0.02676 0.72415 0.81416 0.0
H350 H 0.97797 0.70375 0.76721 0.0
H351 H 0.94371 0.65254 0.07126 0.0
H352 H 0.92174 0.65838 0.14567 0.0
H353 H 0.95892 0.67831 0.15749 0.0
H354 H 0.9573 0.72403 0.14466 0.0
H355 H 0.91999 0.70417 0.13289 0.0
H356 H 0.94082 0.72946 0.05027 0.0
H357 H 0.9267 0.67527 0.75083 0.0
H358 H 0.87635 0.64205 0.76653 0.0
H359 H 0.88286 0.65427 0.04997 0.0
C360 C 0.99652 0.71539 0.01822 0.0
C361 C 0.01793 0.7228 0.95497 0.0
C362 C 0.01096 0.71927 0.864 0.0
C363 C 0.98322 0.70755 0.8366 0.0
C364 C 0.96259 0.69967 0.90075 0.0
C365 C 0.96889 0.70369 0.98972 0.0
C366 C 0.94264 0.69091 0.04553 0.0
C367 C 0.94171 0.66872 0.10865 0.0
C368 C 0.94004 0.71349 0.09633 0.0
C369 C 0.92062 0.67794 0.97419 0.0
C370 C 0.93263 0.68357 0.89105 0.0
C371 C 0.91698 0.67138 0.81524 0.0
C372 C 0.88846 0.65255 0.82469 0.0
C373 C 0.87585 0.64632 0.90908 0.0
C374 C 0.89196 0.6596 0.98455 0.0
H375 H 0.22451 0.87965 0.16334 0.0
H376 H 0.20366 0.86537 0.88587 0.0
H377 H 0.21469 0.91419 0.86916 0.0
H378 H 0.20164 0.93388 0.20018 0.0
H379 H 0.23058 0.95343 0.27355 0.0
H380 H 0.21442 0.91605 0.2682 0.0
H381 H 0.26236 0.92088 0.23372 0.0
H382 H 0.27859 0.95811 0.23757 0.0
H383 H 0.28205 0.94138 0.14012 0.0
H384 H 0.23747 0.96595 0.8758 0.0
H385 H 0.26867 0.0158 0.90554 0.0
H386 H 0.27297 0.9969 0.18137 0.0
C387 C 0.22084 0.88655 0.10048 0.0
C388 C 0.21239 0.86879 0.02643 0.0
C389 C 0.20926 0.87863 0.94369 0.0
C390 C 0.21556 0.90631 0.93371 0.0
C391 C 0.22487 0.92378 0.00733 0.0
C392 C 0.22707 0.91417 0.08962 0.0
C393 C 0.24107 0.93789 0.15517 0.0
C394 C 0.22071 0.93515 0.22862 0.0
C395 C 0.26758 0.93966 0.19382 0.0
C396 C 0.24793 0.96245 0.09574 0.0
C397 C 0.238 0.95389 0.01114 0.0
C398 C 0.24461 0.97291 0.94245 0.0
C399 C 0.26233 1.00132 0.96016 0.0
C400 C 0.27339 0.01053 0.04595 0.0
C401 C 0.26511 0.99072 0.11489 0.0
H402 H 0.17952 0.69244 0.99152 0.0
H403 H 0.2693 0.74618 0.98738 0.0
H404 H 0.27496 0.70531 0.96456 0.0
H405 H 0.1796 0.63724 0.11265 0.0
H406 H 0.15065 0.60991 0.05342 0.0
H407 H 0.15352 0.64354 0.06488 0.0
H408 H 0.15109 0.64699 0.89473 0.0
H409 H 0.14829 0.61337 0.88274 0.0
H410 H 0.17555 0.64312 0.82622 0.0
H411 H 0.27106 0.65877 0.94279 0.0
H412 H 0.25791 0.60938 0.93076 0.0
H413 H 0.17082 0.58558 0.95716 0.0
C414 C 0.20035 0.69562 0.98508 0.0
C415 C 0.22395 0.72253 0.99098 0.0
C416 C 0.25088 0.72577 0.98339 0.0
C417 C 0.25434 0.70269 0.97002 0.0
C418 C 0.23068 0.67646 0.96493 0.0
C419 C 0.20421 0.67275 0.97273 0.0
C420 C 0.18235 0.64217 0.96858 0.0
C421 C 0.16555 0.63266 0.05503 0.0
C422 C 0.16319 0.63606 0.88827 0.0
C423 C 0.20069 0.62933 0.95753 0.0
C424 C 0.22847 0.6495 0.95481 0.0
C425 C 0.24937 0.64275 0.94525 0.0
C426 C 0.24167 0.61459 0.9391 0.0
C427 C 0.21332 0.59343 0.94343 0.0
C428 C 0.19264 0.60112 0.95229 0.0
H429 H 0.51789 0.22514 0.08784 0.0
H430 H 0.46118 0.15962 0.91074 0.0
H431 H 0.49789 0.14855 0.8749 0.0
H432 H 0.58119 0.24731 0.95726 0.0
H433 H 0.60264 0.25327 0.05328 0.0
H434 H 0.57257 0.25755 0.06029 0.0
H435 H 0.55353 0.22248 0.19012 0.0
H436 H 0.58348 0.21806 0.18345 0.0
H437 H 0.54901 0.1882 0.17567 0.0
H438 H 0.53973 0.14311 0.86274 0.0
H439 H 0.5836 0.14246 0.87973 0.0
H440 H 0.61325 0.21111 0.06561 0.0
C441 C 0.51331 0.2087 0.04071 0.0
C442 C 0.48668 0.19329 0.00198 0.0
C443 C 0.48139 0.17166 0.94153 0.0
C444 C 0.50215 0.16529 0.92035 0.0
C445 C 0.52807 0.18067 0.9603 0.0
C446 C 0.53374 0.20188 0.01935 0.0
C447 C 0.56289 0.21415 0.05653 0.0
C448 C 0.58088 0.2449 0.03024 0.0
C449 C 0.56216 0.21049 0.15742 0.0
C450 C 0.57248 0.19619 0.01022 0.0
C451 C 0.55219 0.17725 0.95422 0.0
C452 C 0.5559 0.158 0.90579 0.0
C453 C 0.58095 0.15789 0.91553 0.0
C454 C 0.6019 0.1768 0.97368 0.0
C455 C 0.59758 0.19632 0.02095 0.0
H456 H 0.39075 0.61746 0.0289 0.0
H457 H 0.4385 0.60104 0.83503 0.0
H458 H 0.39736 0.55542 0.80285 0.0
H459 H 0.35349 0.54912 0.11564 0.0
H460 H 0.32126 0.5491 0.1308 0.0
H461 H 0.35385 0.58136 0.13489 0.0
H462 H 0.33682 0.60167 0.01174 0.0
H463 H 0.3041 0.56949 0.00762 0.0
H464 H 0.32458 0.58319 0.90864 0.0
H465 H 0.35246 0.51042 0.7992 0.0
H466 H 0.30551 0.46983 0.81732 0.0
H467 H 0.28626 0.51526 0.01234 0.0
C468 C 0.39247 0.60434 0.97921 0.0
C469 C 0.41784 0.61291 0.9341 0.0
C470 C 0.4192 0.59517 0.86933 0.0
C471 C 0.39599 0.56912 0.85101 0.0
C472 C 0.37148 0.56114 0.89757 0.0
C473 C 0.36942 0.57829 0.95969 0.0
C474 C 0.34073 0.56439 0.00152 0.0
C475 C 0.34245 0.56078 0.10164 0.0
C476 C 0.32567 0.58065 0.98113 0.0
C477 C 0.32718 0.53659 0.95417 0.0
C478 C 0.34533 0.53519 0.8946 0.0
C479 C 0.33797 0.51134 0.84506 0.0
C480 C 0.31126 0.48833 0.8562 0.0
C481 C 0.29214 0.48933 0.91614 0.0
C482 C 0.3003 0.51387 0.96558 0.0
H483 H 0.83871 0.41628 0.98345 0.0
H484 H 0.75825 0.4014 0.07539 0.0
H485 H 0.74495 0.35294 0.11166 0.0
H486 H 0.81347 0.35184 0.87572 0.0
H487 H 0.84291 0.34795 0.90359 0.0
H488 H 0.84713 0.38216 0.89367 0.0
H489 H 0.8672 0.39408 0.05244 0.0
H490 H 0.86306 0.35987 0.06281 0.0
H491 H 0.84734 0.37186 0.14289 0.0
H492 H 0.73916 0.30505 0.12728 0.0
H493 H 0.74137 0.26175 0.12156 0.0
H494 H 0.82526 0.30799 0.01566 0.0
C495 C 0.81831 0.40292 0.01153 0.0
C496 C 0.79956 0.41275 0.0267 0.0
C497 C 0.77318 0.39456 0.06444 0.0
C498 C 0.76537 0.36693 0.08485 0.0
C499 C 0.78419 0.35782 0.06738 0.0
C500 C 0.81015 0.37532 0.03183 0.0
C501 C 0.82597 0.36009 0.01495 0.0
C502 C 0.83275 0.36054 0.91612 0.0
C503 C 0.85246 0.3722 0.07168 0.0
C504 C 0.80467 0.33114 0.04509 0.0
C505 C 0.78079 0.33027 0.07575 0.0
C506 C 0.75785 0.30554 0.10412 0.0
C507 C 0.75931 0.28103 0.10047 0.0
C508 C 0.78351 0.2814 0.06831 0.0
C509 C 0.80651 0.30694 0.04114 0.0
H510 H 0.39062 0.79509 0.05755 0.0
H511 H 0.41915 0.86312 0.87023 0.0
H512 H 0.46277 0.86216 0.84933 0.0
H513 H 0.45558 0.81786 0.16161 0.0
H514 H 0.45085 0.78351 0.17589 0.0
H515 H 0.42104 0.78822 0.17192 0.0
H516 H 0.40052 0.75279 0.04321 0.0
H517 H 0.43026 0.74792 0.04691 0.0
H518 H 0.42105 0.75811 0.94512 0.0
H519 H 0.50451 0.85634 0.85715 0.0
H520 H 0.54109 0.84469 0.88797 0.0
H521 H 0.48543 0.77974 0.06835 0.0
C522 C 0.40599 0.80969 0.01179 0.0
C523 C 0.40144 0.82914 0.96525 0.0
C524 C 0.422 0.84778 0.90558 0.0
C525 C 0.4469 0.84748 0.89362 0.0
C526 C 0.45085 0.82828 0.94126 0.0
C527 C 0.43091 0.80956 -0.00138 0.0
C528 C 0.44069 0.79153 0.04331 0.0
C529 C 0.44213 0.79553 0.14415 0.0
C530 C 0.42201 0.76076 0.0181 0.0
C531 C 0.46946 0.80342 0.00334 0.0
C532 C 0.47485 0.82459 0.94462 0.0
C533 C 0.50044 0.83962 0.9023 0.0
C534 C 0.52113 0.83291 0.92058 0.0
C535 C 0.5161 0.81124 0.98036 0.0
C536 C 0.48979 0.79618 0.02158 0.0
H537 H 0.71949 0.48227 0.00134 0.0
H538 H 0.69966 0.52978 0.81732 0.0
H539 H 0.65181 0.49027 0.80412 0.0
H540 H 0.67714 0.41439 0.89775 0.0
H541 H 0.66631 0.3962 0.00165 0.0
H542 H 0.69961 0.42759 0.99281 0.0
H543 H 0.68637 0.44941 0.12208 0.0
H544 H 0.65308 0.41811 0.13142 0.0
H545 H 0.65483 0.45113 0.11542 0.0
H546 H 0.6058 0.44635 0.81387 0.0
H547 H 0.56401 0.40186 0.85204 0.0
H548 H 0.61323 0.38278 0.031 0.0
C549 C 0.70517 0.48427 0.95761 0.0
C550 C 0.71339 0.50912 0.91009 0.0
C551 C 0.69388 0.511 0.85448 0.0
C552 C 0.66665 0.48861 0.84621 0.0
C553 C 0.65918 0.46448 0.89419 0.0
C554 C 0.67779 0.46218 0.94913 0.0
C555 C 0.66401 0.43442 -0.00333 0.0
C556 C 0.67758 0.41713 0.97063 0.0
C557 C 0.66461 0.43852 0.09735 0.0
C558 C 0.63467 0.42166 0.96063 0.0
C559 C 0.63245 0.43923 0.90087 0.0
C560 C 0.60732 0.4323 0.86007 0.0
C561 C 0.58372 0.40688 0.88176 0.0
C562 C 0.58532 0.38872 0.94416 0.0
C563 C 0.61128 0.39622 0.98329 0.0
H564 H 0.22209 0.39635 0.62337 0.0
H565 H 0.21149 0.46817 0.6618 0.0
H566 H 0.21137 0.47402 0.50122 0.0
H567 H 0.26785 0.42419 0.42894 0.0
H568 H 0.25283 0.39078 0.37507 0.0
H569 H 0.25369 0.39283 0.49397 0.0
H570 H 0.20031 0.35978 0.49928 0.0
H571 H 0.19925 0.35769 0.38053 0.0
H572 H 0.17795 0.36866 0.43832 0.0
H573 H 0.20796 0.47 0.34065 0.0
H574 H 0.20438 0.45798 0.183 0.0
H575 H 0.21964 0.39033 0.24309 0.0
C576 C 0.21998 0.41343 0.59789 0.0
C577 C 0.21676 0.43177 0.65511 0.0
C578 C 0.21409 0.4539 0.61938 0.0
C579 C 0.21399 0.45743 0.52821 0.0
C580 C 0.21692 0.43888 0.47372 0.0
C581 C 0.22016 0.41748 0.50666 0.0
C582 C 0.22225 0.4002 0.43253 0.0
C583 C 0.25086 0.40213 0.43265 0.0
C584 C 0.19852 0.36979 0.43802 0.0
C585 C 0.21894 0.41488 0.35312 0.0
C586 C 0.21588 0.43711 0.37903 0.0
C587 C 0.21071 0.45292 0.31916 0.0
C588 C 0.20852 0.44581 0.23004 0.0
C589 C 0.21177 0.4233 0.20167 0.0
C590 C 0.21743 0.40783 0.26359 0.0
H591 H 0.82421 0.22824 0.72415 0.0
H592 H 0.73543 0.18866 0.77485 0.0
H593 H 0.72604 0.17977 0.61591 0.0
H594 H 0.82238 0.26267 0.52206 0.0
H595 H 0.84887 0.25836 0.46747 0.0
H596 H 0.8489 0.26105 0.58609 0.0
H597 H 0.84817 0.21417 0.59985 0.0
H598 H 0.84793 0.21123 0.48125 0.0
H599 H 0.82099 0.18367 0.54601 0.0
H600 H 0.72568 0.17268 0.45454 0.0
H601 H 0.73456 0.17327 0.29483 0.0
H602 H 0.82351 0.2209 0.34303 0.0
C603 C 0.80285 0.21779 0.70147 0.0
C604 C 0.78055 0.20911 0.7618 0.0
C605 C 0.75285 0.19567 0.72983 0.0
C606 C 0.74726 0.19035 0.63968 0.0
C607 C 0.7696 0.19896 0.58198 0.0
C608 C 0.79686 0.21284 0.61096 0.0
C609 C 0.81689 0.22083 0.53369 0.0
C610 C 0.83535 0.25262 0.52694 0.0
C611 C 0.83453 0.20662 0.54065 0.0
C612 C 0.79656 0.20915 0.4572 0.0
C613 C 0.7694 0.19621 0.48712 0.0
C614 C 0.74683 0.18294 0.43004 0.0
C615 C 0.7521 0.18324 0.33954 0.0
C616 C 0.77969 0.19717 0.3068 0.0
C617 C 0.80221 0.21026 0.36646 0.0
H618 H 0.56097 0.75717 0.72341 0.0
H619 H 0.62054 0.84462 0.76755 0.0
H620 H 0.62441 0.8528 0.60741 0.0
H621 H 0.59558 0.75051 0.52659 0.0
H622 H 0.56351 0.727 0.47131 0.0
H623 H 0.56515 0.72757 0.59024 0.0
H624 H 0.52379 0.73674 0.59731 0.0
H625 H 0.52206 0.73629 0.47846 0.0
H626 H 0.52599 0.76606 0.53883 0.0
H627 H 0.61981 0.85276 0.44644 0.0
H628 H 0.61022 0.84365 0.28765 0.0
H629 H 0.55642 0.75565 0.34141 0.0
C630 C 0.57485 0.77797 0.69903 0.0
C631 C 0.59044 0.80027 0.75779 0.0
C632 C 0.60855 0.82719 0.72376 0.0
C633 C 0.61083 0.83209 0.6329 0.0
C634 C 0.5952 0.8098 0.57675 0.0
C635 C 0.57785 0.78319 0.60787 0.0
C636 C 0.56385 0.763 0.53198 0.0
C637 C 0.57255 0.7407 0.52992 0.0
C638 C 0.53203 0.74975 0.53697 0.0
C639 C 0.57576 0.78263 0.45382 0.0
C640 C 0.59359 0.80954 0.48183 0.0
C641 C 0.60617 0.83175 0.42335 0.0
C642 C 0.60048 0.82638 0.33341 0.0
C643 C 0.58272 0.79896 0.30264 0.0
C644 C 0.57034 0.77673 0.36348 0.0
H645 H 0.8078 0.55735 0.62227 0.0
H646 H 0.79409 0.62732 0.65806 0.0
H647 H 0.79459 0.63311 0.49704 0.0
H648 H 0.85417 0.58624 0.42903 0.0
H649 H 0.84025 0.55281 0.3759 0.0
H650 H 0.84074 0.55508 0.49476 0.0
H651 H 0.78761 0.52069 0.49899 0.0
H652 H 0.78693 0.51837 0.38031 0.0
H653 H 0.76468 0.52845 0.43657 0.0
H654 H 0.79175 0.62875 0.33563 0.0
H655 H 0.78833 0.61606 0.17849 0.0
H656 H 0.8063 0.55049 0.24248 0.0
C657 C 0.80518 0.57406 0.59625 0.0
C658 C 0.80084 0.59184 0.65288 0.0
C659 C 0.79751 0.61346 0.61621 0.0
C660 C 0.79778 0.61696 0.52477 0.0
C661 C 0.80175 0.5989 0.47092 0.0
C662 C 0.80567 0.57805 0.50486 0.0
C663 C 0.80864 0.56103 0.43152 0.0
C664 C 0.83768 0.56398 0.4329 0.0
C665 C 0.78559 0.53032 0.43722 0.0
C666 C 0.80494 0.57515 0.35123 0.0
C667 C 0.80103 0.59696 0.37603 0.0
C668 C 0.79521 0.61204 0.31509 0.0
C669 C 0.79316 0.60457 0.22623 0.0
C670 C 0.79719 0.58244 0.19903 0.0
C671 C 0.80358 0.56777 0.26196 0.0
H672 H 0.25451 0.8202 0.3355 0.0
H673 H 0.16878 0.75622 0.28728 0.0
H674 H 0.1598 0.7513 0.44679 0.0
H675 H 0.26368 0.78724 0.52897 0.0
H676 H 0.28496 0.81939 0.58732 0.0
H677 H 0.28504 0.81887 0.4683 0.0
H678 H 0.2715 0.85727 0.46517 0.0
H679 H 0.27141 0.85794 0.58418 0.0
H680 H 0.24091 0.85192 0.52384 0.0
H681 H 0.1589 0.75388 0.60732 0.0
H682 H 0.16699 0.76181 0.76701 0.0
H683 H 0.25396 0.82186 0.7181 0.0
C684 C 0.23388 0.80528 0.3589 0.0
C685 C 0.21233 0.78861 0.29922 0.0
C686 C 0.18565 0.76909 0.33187 0.0
C687 C 0.18027 0.76618 0.42234 0.0
C688 C 0.20187 0.78272 0.4795 0.0
C689 C 0.22821 0.80172 0.44979 0.0
C690 C 0.24767 0.81622 0.52684 0.0
C691 C 0.27176 0.81005 0.5279 0.0
C692 C 0.25851 0.84771 0.52487 0.0
C693 C 0.22798 0.8024 0.60392 0.0
C694 C 0.20163 0.78337 0.57437 0.0
C695 C 0.17944 0.76857 0.63164 0.0
C696 C 0.18423 0.77332 0.72206 0.0
C697 C 0.21107 0.79239 0.75436 0.0
C698 C 0.23333 0.80698 0.69471 0.0
H699 H 0.44042 0.24721 0.75377 0.0
H700 H 0.38113 0.15976 0.79855 0.0
H701 H 0.37837 0.15113 0.63858 0.0
H702 H 0.40664 0.2528 0.55298 0.0
H703 H 0.439 0.27648 0.49938 0.0
H704 H 0.43649 0.27617 0.61812 0.0
H705 H 0.47825 0.26774 0.62982 0.0
H706 H 0.48077 0.26784 0.51116 0.0
H707 H 0.47684 0.23842 0.57343 0.0
H708 H 0.38442 0.15075 0.47754 0.0
H709 H 0.39461 0.15967 0.31886 0.0
H710 H 0.44693 0.24794 0.37222 0.0
C711 C 0.42676 0.22633 0.72958 0.0
C712 C 0.411 0.20415 0.78856 0.0
C713 C 0.39323 0.17712 0.75465 0.0
C714 C 0.39161 0.17194 0.66388 0.0
C715 C 0.40753 0.19409 0.60758 0.0
C716 C 0.42439 0.22085 0.63849 0.0
C717 C 0.43873 0.24088 0.56253 0.0
C718 C 0.42966 0.26288 0.558 0.0
C719 C 0.47053 0.25452 0.56969 0.0
C720 C 0.42757 0.22102 0.48459 0.0
C721 C 0.40988 0.19411 0.51271 0.0
C722 C 0.39795 0.17176 0.45438 0.0
C723 C 0.404 0.17703 0.36447 0.0
C724 C 0.42144 0.20448 0.33348 0.0
C725 C 0.43331 0.2268 0.39431 0.0
loop_
_geom_bond_atom_site_label_1
_geom_bond_atom_site_label_2
_geom_bond_distance
_geom_bond_site_symmetry_2
_ccdc_geom_bond_type
Eu0 C9 2.828 1_556 S
Eu0 O11 2.392 . S
Eu0 O13 2.418 . S
Eu0 O18 2.373 . S
Eu0 O21 2.488 . S
Eu0 O22 2.471 1_556 S
Eu0 O23 2.349 1_556 S
Eu1 O10 2.373 . S
Eu1 O14 2.488 . S
Eu1 O15 2.471 1_554 S
Eu1 O16 2.349 1_554 S
Eu1 O19 2.392 . S
Eu1 O20 2.418 . S
Eu1 C30 2.828 1_554 S
C2 O20 1.244 . S
C2 O23 1.265 . S
C3 C4 1.379 . S
C3 C7 1.373 1_554 S
C3 C9 1.505 . S
C4 C3 1.379 . S
C4 C6 1.369 . S
C4 H32 0.930 . S
C5 C7 1.383 . S
C5 C8 1.382 1_556 S
C5 H33 0.930 . S
C6 C4 1.369 . S
C6 C8 1.392 . S
C6 H34 0.930 . S
C7 C3 1.373 1_556 S
C7 C5 1.383 . S
C7 H35 0.931 . S
C8 C5 1.382 1_554 S
C8 C6 1.392 . S
C9 Eu0 2.828 1_554 S
C9 C3 1.505 . S
C9 O21 1.249 1_554 S
C9 O22 1.244 . S
O10 Eu1 2.373 . S
O10 C12 1.258 . S
O11 Eu0 2.392 . S
O11 C12 1.242 1_556 S
C12 O10 1.258 . S
C12 O11 1.242 1_554 S
O13 Eu0 2.418 . S
O13 C17 1.244 . S
O14 Eu1 2.488 . S
O14 C30 1.249 1_554 S
O15 Eu1 2.471 1_556 S
O15 C30 1.244 . S
O16 Eu1 2.349 1_556 S
O16 C17 1.265 . S
C17 O13 1.244 . S
C17 O16 1.265 . S
O18 Eu0 2.373 . S
O18 C31 1.258 . S
O19 Eu1 2.392 . S
O19 C31 1.242 1_554 S
O20 Eu1 2.418 . S
O20 C2 1.244 . S
O21 Eu0 2.488 . S
O21 C9 1.249 1_556 S
O22 Eu0 2.471 1_554 S
O22 C9 1.244 . S
O23 Eu0 2.349 1_554 S
O23 C2 1.265 . S
C24 C25 1.379 . S
C24 C28 1.373 1_556 S
C24 C30 1.505 . S
C25 C24 1.379 . S
C25 C27 1.369 . S
C25 H36 0.930 . S
C26 C28 1.383 . S
C26 C29 1.382 1_554 S
C26 H37 0.930 . S
C27 C25 1.369 . S
C27 C29 1.392 . S
C27 H38 0.930 . S
C28 C24 1.373 1_554 S
C28 C26 1.383 . S
C28 H39 0.931 . S
C29 C26 1.382 1_556 S
C29 C27 1.392 . S
C30 Eu1 2.828 1_556 S
C30 O14 1.249 1_556 S
C30 O15 1.244 . S
C30 C24 1.505 . S
C31 O18 1.258 . S
C31 O19 1.242 1_556 S
H32 C4 0.930 . S
H33 C5 0.930 . S
H34 C6 0.930 . S
H35 C7 0.931 . S
H36 C25 0.930 . S
H37 C26 0.930 . S
H38 C27 0.930 . S
H39 C28 0.931 . S
Eu40 C49 2.828 1_556 S
Eu40 O51 2.392 . S
Eu40 O53 2.418 . S
Eu40 O58 2.373 . S
Eu40 O61 2.488 . S
Eu40 O62 2.471 1_556 S
Eu40 O63 2.349 1_556 S
Eu41 O50 2.373 . S
Eu41 O54 2.488 . S
Eu41 O55 2.471 1_554 S
Eu41 O56 2.349 1_554 S
Eu41 O59 2.392 . S
Eu41 O60 2.418 . S
Eu41 C70 2.828 1_554 S
C42 O60 1.244 . S
C42 O63 1.265 . S
C43 C44 1.379 . S
C43 C47 1.373 1_554 S
C43 C49 1.505 . S
C44 C43 1.379 . S
C44 C46 1.369 . S
C44 H72 0.930 . S
C45 C47 1.383 . S
C45 C48 1.382 1_556 S
C45 H73 0.930 . S
C46 C44 1.369 . S
C46 C48 1.392 . S
C46 H74 0.930 . S
C47 C43 1.373 1_556 S
C47 C45 1.383 . S
C47 H75 0.931 . S
C48 C45 1.382 1_554 S
C48 C46 1.392 . S
C49 Eu40 2.828 1_554 S
C49 C43 1.505 . S
C49 O61 1.249 1_554 S
C49 O62 1.244 . S
O50 Eu41 2.373 . S
O50 C52 1.258 . S
O51 Eu40 2.392 . S
O51 C52 1.242 1_556 S
C52 O50 1.258 . S
C52 O51 1.242 1_554 S
O53 Eu40 2.418 . S
O53 C57 1.244 . S
O54 Eu41 2.488 . S
O54 C70 1.249 1_554 S
O55 Eu41 2.471 1_556 S
O55 C70 1.244 . S
O56 Eu41 2.349 1_556 S
O56 C57 1.265 . S
C57 O53 1.244 . S
C57 O56 1.265 . S
O58 Eu40 2.373 . S
O58 C71 1.258 . S
O59 Eu41 2.392 . S
O59 C71 1.242 1_554 S
O60 Eu41 2.418 . S
O60 C42 1.244 . S
O61 Eu40 2.488 . S
O61 C49 1.249 1_556 S
O62 Eu40 2.471 1_554 S
O62 C49 1.244 . S
O63 Eu40 2.349 1_554 S
O63 C42 1.265 . S
C64 C65 1.379 . S
C64 C68 1.373 1_556 S
C64 C70 1.505 . S
C65 C64 1.379 . S
C65 C67 1.369 . S
C65 H76 0.930 . S
C66 C68 1.383 . S
C66 C69 1.382 1_554 S
C66 H77 0.930 . S
C67 C65 1.369 . S
C67 C69 1.392 . S
C67 H78 0.930 . S
C68 C64 1.373 1_554 S
C68 C66 1.383 . S
C68 H79 0.931 . S
C69 C66 1.382 1_556 S
C69 C67 1.392 . S
C70 Eu41 2.828 1_556 S
C70 O54 1.249 1_556 S
C70 O55 1.244 . S
C70 C64 1.505 . S
C71 O58 1.258 . S
C71 O59 1.242 1_556 S
H72 C44 0.930 . S
H73 C45 0.930 . S
H74 C46 0.930 . S
H75 C47 0.931 . S
H76 C65 0.930 . S
H77 C66 0.930 . S
H78 C67 0.930 . S
H79 C68 0.931 . S
Eu80 C89 2.828 1_556 S
Eu80 O91 2.392 . S
Eu80 O93 2.418 . S
Eu80 O98 2.373 . S
Eu80 O101 2.488 . S
Eu80 O102 2.471 1_556 S
Eu80 O103 2.349 1_556 S
Eu81 O90 2.373 . S
Eu81 O94 2.488 . S
Eu81 O95 2.471 1_554 S
Eu81 O96 2.349 1_554 S
Eu81 O99 2.392 . S
Eu81 O100 2.418 . S
Eu81 C110 2.828 1_554 S
C82 O100 1.244 . S
C82 O103 1.265 . S
C83 C84 1.379 . S
C83 C87 1.373 1_554 S
C83 C89 1.505 . S
C84 C83 1.379 . S
C84 C86 1.369 . S
C84 H112 0.930 . S
C85 C87 1.383 . S
C85 C88 1.382 1_556 S
C85 H113 0.930 . S
C86 C84 1.369 . S
C86 C88 1.392 . S
C86 H114 0.930 . S
C87 C83 1.373 1_556 S
C87 C85 1.383 . S
C87 H115 0.931 . S
C88 C85 1.382 1_554 S
C88 C86 1.392 . S
C89 Eu80 2.828 1_554 S
C89 C83 1.505 . S
C89 O101 1.249 1_554 S
C89 O102 1.244 . S
O90 Eu81 2.373 . S
O90 C92 1.258 . S
O91 Eu80 2.392 . S
O91 C92 1.242 1_556 S
C92 O90 1.258 . S
C92 O91 1.242 1_554 S
O93 Eu80 2.418 . S
O93 C97 1.244 . S
O94 Eu81 2.488 . S
O94 C110 1.249 1_554 S
O95 Eu81 2.471 1_556 S
O95 C110 1.244 . S
O96 Eu81 2.349 1_556 S
O96 C97 1.265 . S
C97 O93 1.244 . S
C97 O96 1.265 . S
O98 Eu80 2.373 . S
O98 C111 1.258 . S
O99 Eu81 2.392 . S
O99 C111 1.242 1_554 S
O100 Eu81 2.418 . S
O100 C82 1.244 . S
O101 Eu80 2.488 . S
O101 C89 1.249 1_556 S
O102 Eu80 2.471 1_554 S
O102 C89 1.244 . S
O103 Eu80 2.349 1_554 S
O103 C82 1.265 . S
C104 C105 1.379 . S
C104 C108 1.373 1_556 S
C104 C110 1.505 . S
C105 C104 1.379 . S
C105 C107 1.369 . S
C105 H116 0.930 . S
C106 C108 1.383 . S
C106 C109 1.382 1_554 S
C106 H117 0.930 . S
C107 C105 1.369 . S
C107 C109 1.392 . S
C107 H118 0.930 . S
C108 C104 1.373 1_554 S
C108 C106 1.383 . S
C108 H119 0.931 . S
C109 C106 1.382 1_556 S
C109 C107 1.392 . S
C110 Eu81 2.828 1_556 S
C110 O94 1.249 1_556 S
C110 O95 1.244 . S
C110 C104 1.505 . S
C111 O98 1.258 . S
C111 O99 1.242 1_556 S
H112 C84 0.930 . S
H113 C85 0.930 . S
H114 C86 0.930 . S
H115 C87 0.931 . S
H116 C105 0.930 . S
H117 C106 0.930 . S
H118 C107 0.930 . S
H119 C108 0.931 . S
Eu120 C129 2.828 1_556 S
Eu120 O131 2.392 . S
Eu120 O133 2.418 . S
Eu120 O138 2.373 . S
Eu120 O141 2.488 . S
Eu120 O142 2.471 1_556 S
Eu120 O143 2.349 1_556 S
Eu121 O130 2.373 . S
Eu121 O134 2.488 . S
Eu121 O135 2.471 1_554 S
Eu121 O136 2.349 1_554 S
Eu121 O139 2.392 . S
Eu121 O140 2.418 . S
Eu121 C150 2.828 1_554 S
C122 O140 1.244 . S
C122 O143 1.265 . S
C123 C124 1.379 . S
C123 C127 1.373 1_554 S
C123 C129 1.505 . S
C124 C123 1.379 . S
C124 C126 1.369 . S
C124 H152 0.930 . S
C125 C127 1.383 . S
C125 C128 1.382 1_556 S
C125 H153 0.930 . S
C126 C124 1.369 . S
C126 C128 1.392 . S
C126 H154 0.930 . S
C127 C123 1.373 1_556 S
C127 C125 1.383 . S
C127 H155 0.931 . S
C128 C125 1.382 1_554 S
C128 C126 1.392 . S
C129 Eu120 2.828 1_554 S
C129 C123 1.505 . S
C129 O141 1.249 1_554 S
C129 O142 1.244 . S
O130 Eu121 2.373 . S
O130 C132 1.258 . S
O131 Eu120 2.392 . S
O131 C132 1.242 1_556 S
C132 O130 1.258 . S
C132 O131 1.242 1_554 S
O133 Eu120 2.418 . S
O133 C137 1.244 . S
O134 Eu121 2.488 . S
O134 C150 1.249 1_554 S
O135 Eu121 2.471 1_556 S
O135 C150 1.244 . S
O136 Eu121 2.349 1_556 S
O136 C137 1.265 . S
C137 O133 1.244 . S
C137 O136 1.265 . S
O138 Eu120 2.373 . S
O138 C151 1.258 . S
O139 Eu121 2.392 . S
O139 C151 1.242 1_554 S
O140 Eu121 2.418 . S
O140 C122 1.244 . S
O141 Eu120 2.488 . S
O141 C129 1.249 1_556 S
O142 Eu120 2.471 1_554 S
O142 C129 1.244 . S
O143 Eu120 2.349 1_554 S
O143 C122 1.265 . S
C144 C145 1.379 . S
C144 C148 1.373 1_556 S
C144 C150 1.505 . S
C145 C144 1.379 . S
C145 C147 1.369 . S
C145 H156 0.930 . S
C146 C148 1.383 . S
C146 C149 1.382 1_554 S
C146 H157 0.930 . S
C147 C145 1.369 . S
C147 C149 1.392 . S
C147 H158 0.930 . S
C148 C144 1.373 1_554 S
C148 C146 1.383 . S
C148 H159 0.931 . S
C149 C146 1.382 1_556 S
C149 C147 1.392 . S
C150 Eu121 2.828 1_556 S
C150 O134 1.249 1_556 S
C150 O135 1.244 . S
C150 C144 1.505 . S
C151 O138 1.258 . S
C151 O139 1.242 1_556 S
H152 C124 0.930 . S
H153 C125 0.930 . S
H154 C126 0.930 . S
H155 C127 0.931 . S
H156 C145 0.930 . S
H157 C146 0.930 . S
H158 C147 0.930 . S
H159 C148 0.931 . S
Eu160 C169 2.828 1_556 S
Eu160 O171 2.392 . S
Eu160 O173 2.418 . S
Eu160 O178 2.373 . S
Eu160 O181 2.488 . S
Eu160 O182 2.471 1_556 S
Eu160 O183 2.349 1_556 S
Eu161 O170 2.373 . S
Eu161 O174 2.488 . S
Eu161 O175 2.471 1_554 S
Eu161 O176 2.349 1_554 S
Eu161 O179 2.392 . S
Eu161 O180 2.418 . S
Eu161 C190 2.828 1_554 S
C162 O180 1.244 . S
C162 O183 1.265 . S
C163 C164 1.379 . S
C163 C167 1.373 1_554 S
C163 C169 1.505 . S
C164 C163 1.379 . S
C164 C166 1.369 . S
C164 H192 0.930 . S
C165 C167 1.383 . S
C165 C168 1.382 1_556 S
C165 H193 0.930 . S
C166 C164 1.369 . S
C166 C168 1.392 . S
C166 H194 0.930 . S
C167 C163 1.373 1_556 S
C167 C165 1.383 . S
C167 H195 0.931 . S
C168 C165 1.382 1_554 S
C168 C166 1.392 . S
C169 Eu160 2.828 1_554 S
C169 C163 1.505 . S
C169 O181 1.249 1_554 S
C169 O182 1.244 . S
O170 Eu161 2.373 . S
O170 C172 1.258 . S
O171 Eu160 2.392 . S
O171 C172 1.242 1_556 S
C172 O170 1.258 . S
C172 O171 1.242 1_554 S
O173 Eu160 2.418 . S
O173 C177 1.244 . S
O174 Eu161 2.488 . S
O174 C190 1.249 1_554 S
O175 Eu161 2.471 1_556 S
O175 C190 1.244 . S
O176 Eu161 2.349 1_556 S
O176 C177 1.265 . S
C177 O173 1.244 . S
C177 O176 1.265 . S
O178 Eu160 2.373 . S
O178 C191 1.258 . S
O179 Eu161 2.392 . S
O179 C191 1.242 1_554 S
O180 Eu161 2.418 . S
O180 C162 1.244 . S
O181 Eu160 2.488 . S
O181 C169 1.249 1_556 S
O182 Eu160 2.471 1_554 S
O182 C169 1.244 . S
O183 Eu160 2.349 1_554 S
O183 C162 1.265 . S
C184 C185 1.379 . S
C184 C188 1.373 1_556 S
C184 C190 1.505 . S
C185 C184 1.379 . S
C185 C187 1.369 . S
C185 H196 0.930 . S
C186 C188 1.383 . S
C186 C189 1.382 1_554 S
C186 H197 0.930 . S
C187 C185 1.369 . S
C187 C189 1.392 . S
C187 H198 0.930 . S
C188 C184 1.373 1_554 S
C188 C186 1.383 . S
C188 H199 0.931 . S
C189 C186 1.382 1_556 S
C189 C187 1.392 . S
C190 Eu161 2.828 1_556 S
C190 O174 1.249 1_556 S
C190 O175 1.244 . S
C190 C184 1.505 . S
C191 O178 1.258 . S
C191 O179 1.242 1_556 S
H192 C164 0.930 . S
H193 C165 0.930 . S
H194 C166 0.930 . S
H195 C167 0.931 . S
H196 C185 0.930 . S
H197 C186 0.930 . S
H198 C187 0.930 . S
H199 C188 0.931 . S
Eu200 C209 2.828 1_556 S
Eu200 O211 2.392 . S
Eu200 O213 2.418 . S
Eu200 O218 2.373 . S
Eu200 O221 2.488 . S
Eu200 O222 2.471 1_556 S
Eu200 O223 2.349 1_556 S
Eu201 O210 2.373 . S
Eu201 O214 2.488 . S
Eu201 O215 2.471 1_554 S
Eu201 O216 2.349 1_554 S
Eu201 O219 2.392 . S
Eu201 O220 2.418 . S
Eu201 C230 2.828 1_554 S
C202 O220 1.244 . S
C202 O223 1.265 . S
C203 C204 1.379 . S
C203 C207 1.373 1_554 S
C203 C209 1.505 . S
C204 C203 1.379 . S
C204 C206 1.369 . S
C204 H232 0.930 . S
C205 C207 1.383 . S
C205 C208 1.382 1_556 S
C205 H233 0.930 . S
C206 C204 1.369 . S
C206 C208 1.392 . S
C206 H234 0.930 . S
C207 C203 1.373 1_556 S
C207 C205 1.383 . S
C207 H235 0.931 . S
C208 C205 1.382 1_554 S
C208 C206 1.392 . S
C209 Eu200 2.828 1_554 S
C209 C203 1.505 . S
C209 O221 1.249 1_554 S
C209 O222 1.244 . S
O210 Eu201 2.373 . S
O210 C212 1.258 . S
O211 Eu200 2.392 . S
O211 C212 1.242 1_556 S
C212 O210 1.258 . S
C212 O211 1.242 1_554 S
O213 Eu200 2.418 . S
O213 C217 1.244 . S
O214 Eu201 2.488 . S
O214 C230 1.249 1_554 S
O215 Eu201 2.471 1_556 S
O215 C230 1.244 . S
O216 Eu201 2.349 1_556 S
O216 C217 1.265 . S
C217 O213 1.244 . S
C217 O216 1.265 . S
O218 Eu200 2.373 . S
O218 C231 1.258 . S
O219 Eu201 2.392 . S
O219 C231 1.242 1_554 S
O220 Eu201 2.418 . S
O220 C202 1.244 . S
O221 Eu200 2.488 . S
O221 C209 1.249 1_556 S
O222 Eu200 2.471 1_554 S
O222 C209 1.244 . S
O223 Eu200 2.349 1_554 S
O223 C202 1.265 . S
C224 C225 1.379 . S
C224 C228 1.373 1_556 S
C224 C230 1.505 . S
C225 C224 1.379 . S
C225 C227 1.369 . S
C225 H236 0.930 . S
C226 C228 1.383 . S
C226 C229 1.382 1_554 S
C226 H237 0.930 . S
C227 C225 1.369 . S
C227 C229 1.392 . S
C227 H238 0.930 . S
C228 C224 1.373 1_554 S
C228 C226 1.383 . S
C228 H239 0.931 . S
C229 C226 1.382 1_556 S
C229 C227 1.392 . S
C230 Eu201 2.828 1_556 S
C230 O214 1.249 1_556 S
C230 O215 1.244 . S
C230 C224 1.505 . S
C231 O218 1.258 . S
C231 O219 1.242 1_556 S
H232 C204 0.930 . S
H233 C205 0.930 . S
H234 C206 0.930 . S
H235 C207 0.931 . S
H236 C225 0.930 . S
H237 C226 0.930 . S
H238 C227 0.930 . S
H239 C228 0.931 . S
H240 C252 0.930 . S
H241 C254 0.930 . S
H242 C255 0.930 . S
H243 C259 0.959 . S
H244 C259 0.959 . S
H245 C259 0.961 . S
H246 C260 0.960 . S
H247 C260 0.961 . S
H248 C260 0.959 . S
H249 C263 0.929 . S
H250 C264 0.931 . S
H251 C266 0.930 . S
C252 H240 0.930 . S
C252 C253 1.399 1_554 S
C252 C257 1.399 . S
C253 C252 1.399 1_556 S
C253 C254 1.376 . S
C254 H241 0.930 . S
C254 C253 1.376 . S
C254 C255 1.388 . S
C255 H242 0.930 . S
C255 C254 1.388 . S
C255 C256 1.390 . S
C256 C255 1.390 . S
C256 C257 1.394 1_556 S
C256 C262 1.465 . S
C257 C252 1.399 . S
C257 C256 1.394 1_554 S
C257 C258 1.516 . S
C258 C257 1.516 . S
C258 C259 1.502 . S
C258 C260 1.561 . S
C258 C261 1.526 . S
C259 H243 0.959 . S
C259 H244 0.959 . S
C259 H245 0.961 . S
C259 C258 1.502 . S
C260 H246 0.960 . S
C260 H247 0.961 . S
C260 H248 0.959 . S
C260 C258 1.561 . S
C261 C258 1.526 . S
C261 C262 1.396 1_554 S
C261 C266 1.390 . S
C262 C256 1.465 . S
C262 C261 1.396 1_556 S
C262 C263 1.399 . S
C263 H249 0.929 . S
C263 C262 1.399 . S
C263 C264 1.385 . S
C264 H250 0.931 . S
C264 C263 1.385 . S
C264 C265 1.389 1_556 S
C265 C264 1.389 1_554 S
C265 C266 1.387 . S
C266 H251 0.930 . S
C266 C261 1.390 . S
C266 C265 1.387 . S
H267 C279 0.930 . S
H268 C281 0.930 . S
H269 C282 0.930 . S
H270 C286 0.959 . S
H271 C286 0.959 . S
H272 C286 0.961 . S
H273 C287 0.960 . S
H274 C287 0.961 . S
H275 C287 0.959 . S
H276 C290 0.929 . S
H277 C291 0.931 . S
H278 C293 0.930 1_655 S
C279 H267 0.930 . S
C279 C280 1.399 1_556 S
C279 C284 1.399 . S
C280 C279 1.399 1_554 S
C280 C281 1.376 . S
C281 H268 0.930 . S
C281 C280 1.376 . S
C281 C282 1.388 . S
C282 H269 0.930 . S
C282 C281 1.388 . S
C282 C283 1.390 . S
C283 C282 1.390 . S
C283 C284 1.394 1_554 S
C283 C289 1.465 . S
C284 C279 1.399 . S
C284 C283 1.394 1_556 S
C284 C285 1.516 . S
C285 C284 1.516 . S
C285 C286 1.502 . S
C285 C287 1.561 . S
C285 C288 1.526 . S
C286 H270 0.959 . S
C286 H271 0.959 . S
C286 H272 0.961 . S
C286 C285 1.502 . S
C287 H273 0.960 . S
C287 H274 0.961 . S
C287 H275 0.959 . S
C287 C285 1.561 . S
C288 C285 1.526 . S
C288 C289 1.396 1_556 S
C288 C293 1.390 . S
C289 C283 1.465 . S
C289 C288 1.396 1_554 S
C289 C290 1.399 . S
C290 H276 0.929 . S
C290 C289 1.399 . S
C290 C291 1.385 1_455 S
C291 H277 0.931 . S
C291 C290 1.385 1_655 S
C291 C292 1.389 . S
C292 C291 1.389 . S
C292 C293 1.387 1_654 S
C293 H278 0.930 1_455 S
C293 C288 1.390 . S
C293 C292 1.387 1_456 S
H294 C306 0.930 . S
H295 C308 0.930 . S
H296 C309 0.930 . S
H297 C313 0.959 . S
H298 C313 0.959 . S
H299 C313 0.961 . S
H300 C314 0.960 . S
H301 C314 0.961 . S
H302 C314 0.959 . S
H303 C317 0.929 . S
H304 C318 0.931 . S
H305 C320 0.930 . S
C306 H294 0.930 . S
C306 C307 1.399 1_554 S
C306 C311 1.399 . S
C307 C306 1.399 1_556 S
C307 C308 1.376 . S
C308 H295 0.930 . S
C308 C307 1.376 . S
C308 C309 1.388 . S
C309 H296 0.930 . S
C309 C308 1.388 . S
C309 C310 1.390 . S
C310 C309 1.390 . S
C310 C311 1.394 1_556 S
C310 C316 1.465 . S
C311 C306 1.399 . S
C311 C310 1.394 1_554 S
C311 C312 1.516 . S
C312 C311 1.516 . S
C312 C313 1.502 . S
C312 C314 1.561 . S
C312 C315 1.526 . S
C313 H297 0.959 . S
C313 H298 0.959 . S
C313 H299 0.961 . S
C313 C312 1.502 . S
C314 H300 0.960 . S
C314 H301 0.961 . S
C314 H302 0.959 . S
C314 C312 1.561 . S
C315 C312 1.526 . S
C315 C316 1.396 1_554 S
C315 C320 1.390 . S
C316 C310 1.465 . S
C316 C315 1.396 1_556 S
C316 C317 1.399 . S
C317 H303 0.929 . S
C317 C316 1.399 . S
C317 C318 1.385 1_545 S
C318 H304 0.931 . S
C318 C317 1.385 1_565 S
C318 C319 1.389 1_556 S
C319 C318 1.389 1_554 S
C319 C320 1.387 1_565 S
C320 H305 0.930 . S
C320 C315 1.390 . S
C320 C319 1.387 1_545 S
H321 C333 0.930 . S
H322 C335 0.930 . S
H323 C336 0.930 . S
H324 C340 0.959 . S
H325 C340 0.959 . S
H326 C340 0.961 . S
H327 C341 0.960 . S
H328 C341 0.961 . S
H329 C341 0.959 . S
H330 C344 0.929 . S
H331 C345 0.931 . S
H332 C347 0.930 . S
C333 H321 0.930 . S
C333 C334 1.399 1_556 S
C333 C338 1.399 . S
C334 C333 1.399 1_554 S
C334 C335 1.376 . S
C335 H322 0.930 . S
C335 C334 1.376 . S
C335 C336 1.388 . S
C336 H323 0.930 . S
C336 C335 1.388 . S
C336 C337 1.390 . S
C337 C336 1.390 . S
C337 C338 1.394 1_554 S
C337 C343 1.465 . S
C338 C333 1.399 . S
C338 C337 1.394 1_556 S
C338 C339 1.516 . S
C339 C338 1.516 . S
C339 C340 1.502 . S
C339 C341 1.561 . S
C339 C342 1.526 . S
C340 H324 0.959 . S
C340 H325 0.959 . S
C340 H326 0.961 . S
C340 C339 1.502 . S
C341 H327 0.960 . S
C341 H328 0.961 . S
C341 H329 0.959 . S
C341 C339 1.561 . S
C342 C339 1.526 . S
C342 C343 1.396 1_556 S
C342 C347 1.390 . S
C343 C337 1.465 . S
C343 C342 1.396 1_554 S
C343 C344 1.399 . S
C344 H330 0.929 . S
C344 C343 1.399 . S
C344 C345 1.385 . S
C345 H331 0.931 . S
C345 C344 1.385 . S
C345 C346 1.389 . S
C346 C345 1.389 . S
C346 C347 1.387 1_554 S
C347 H332 0.930 . S
C347 C342 1.390 . S
C347 C346 1.387 1_556 S
H348 C360 0.930 . S
H349 C362 0.930 . S
H350 C363 0.930 . S
H351 C367 0.959 . S
H352 C367 0.959 . S
H353 C367 0.961 . S
H354 C368 0.960 . S
H355 C368 0.961 . S
H356 C368 0.959 . S
H357 C371 0.929 . S
H358 C372 0.931 . S
H359 C374 0.930 . S
C360 H348 0.930 . S
C360 C361 1.399 1_655 S
C360 C365 1.399 . S
C361 C360 1.399 1_455 S
C361 C362 1.376 1_554 S
C362 H349 0.930 . S
C362 C361 1.376 1_556 S
C362 C363 1.388 1_455 S
C363 H350 0.930 . S
C363 C362 1.388 1_655 S
C363 C364 1.390 . S
C364 C363 1.390 . S
C364 C365 1.394 1_556 S
C364 C370 1.465 . S
C365 C360 1.399 . S
C365 C364 1.394 1_554 S
C365 C366 1.516 . S
C366 C365 1.516 . S
C366 C367 1.502 . S
C366 C368 1.561 . S
C366 C369 1.526 . S
C367 H351 0.959 . S
C367 H352 0.959 . S
C367 H353 0.961 . S
C367 C366 1.502 . S
C368 H354 0.960 . S
C368 H355 0.961 . S
C368 H356 0.959 . S
C368 C366 1.561 . S
C369 C366 1.526 . S
C369 C370 1.396 1_554 S
C369 C374 1.390 . S
C370 C364 1.465 . S
C370 C369 1.396 1_556 S
C370 C371 1.399 . S
C371 H357 0.929 . S
C371 C370 1.399 . S
C371 C372 1.385 . S
C372 H358 0.931 . S
C372 C371 1.385 . S
C372 C373 1.389 . S
C373 C372 1.389 . S
C373 C374 1.387 1_556 S
C374 H359 0.930 . S
C374 C369 1.390 . S
C374 C373 1.387 1_554 S
H375 C387 0.930 . S
H376 C389 0.930 . S
H377 C390 0.930 . S
H378 C394 0.959 . S
H379 C394 0.959 . S
H380 C394 0.961 . S
H381 C395 0.960 . S
H382 C395 0.961 . S
H383 C395 0.959 . S
H384 C398 0.929 . S
H385 C399 0.931 . S
H386 C401 0.930 . S
C387 H375 0.930 . S
C387 C388 1.399 1_554 S
C387 C392 1.399 . S
C388 C387 1.399 1_556 S
C388 C389 1.376 . S
C389 H376 0.930 . S
C389 C388 1.376 . S
C389 C390 1.388 . S
C390 H377 0.930 . S
C390 C389 1.388 . S
C390 C391 1.390 . S
C391 C390 1.390 . S
C391 C392 1.394 1_556 S
C391 C397 1.465 . S
C392 C387 1.399 . S
C392 C391 1.394 1_554 S
C392 C393 1.516 . S
C393 C392 1.516 . S
C393 C394 1.502 . S
C393 C395 1.561 . S
C393 C396 1.526 . S
C394 H378 0.959 . S
C394 H379 0.959 . S
C394 H380 0.961 . S
C394 C393 1.502 . S
C395 H381 0.960 . S
C395 H382 0.961 . S
C395 H383 0.959 . S
C395 C393 1.561 . S
C396 C393 1.526 . S
C396 C397 1.396 1_554 S
C396 C401 1.390 . S
C397 C391 1.465 . S
C397 C396 1.396 1_556 S
C397 C398 1.399 . S
C398 H384 0.929 . S
C398 C397 1.399 . S
C398 C399 1.385 1_565 S
C399 H385 0.931 . S
C399 C398 1.385 1_545 S
C399 C400 1.389 1_556 S
C400 C399 1.389 1_554 S
C400 C401 1.387 1_545 S
C401 H386 0.930 . S
C401 C396 1.390 . S
C401 C400 1.387 1_565 S
H402 C414 0.930 . S
H403 C416 0.930 . S
H404 C417 0.930 . S
H405 C421 0.959 . S
H406 C421 0.959 . S
H407 C421 0.961 . S
H408 C422 0.960 . S
H409 C422 0.961 . S
H410 C422 0.959 . S
H411 C425 0.929 . S
H412 C426 0.931 . S
H413 C428 0.930 . S
C414 H402 0.930 . S
C414 C415 1.399 1_556 S
C414 C419 1.399 . S
C415 C414 1.399 1_554 S
C415 C416 1.376 . S
C416 H403 0.930 . S
C416 C415 1.376 . S
C416 C417 1.388 . S
C417 H404 0.930 . S
C417 C416 1.388 . S
C417 C418 1.390 . S
C418 C417 1.390 . S
C418 C419 1.394 1_554 S
C418 C424 1.465 . S
C419 C414 1.399 . S
C419 C418 1.394 1_556 S
C419 C420 1.516 . S
C420 C419 1.516 . S
C420 C421 1.502 . S
C420 C422 1.561 . S
C420 C423 1.526 . S
C421 H405 0.959 . S
C421 H406 0.959 . S
C421 H407 0.961 . S
C421 C420 1.502 . S
C422 H408 0.960 . S
C422 H409 0.961 . S
C422 H410 0.959 . S
C422 C420 1.561 . S
C423 C420 1.526 . S
C423 C424 1.396 1_556 S
C423 C428 1.390 . S
C424 C418 1.465 . S
C424 C423 1.396 1_554 S
C424 C425 1.399 . S
C425 H411 0.929 . S
C425 C424 1.399 . S
C425 C426 1.385 . S
C426 H412 0.931 . S
C426 C425 1.385 . S
C426 C427 1.389 1_554 S
C427 C426 1.389 1_556 S
C427 C428 1.387 . S
C428 H413 0.930 . S
C428 C423 1.390 . S
C428 C427 1.387 . S
H429 C441 0.930 . S
H430 C443 0.930 . S
H431 C444 0.930 . S
H432 C448 0.959 . S
H433 C448 0.959 . S
H434 C448 0.961 . S
H435 C449 0.960 . S
H436 C449 0.961 . S
H437 C449 0.959 . S
H438 C452 0.929 . S
H439 C453 0.931 . S
H440 C455 0.930 . S
C441 H429 0.930 . S
C441 C442 1.399 . S
C441 C446 1.399 1_554 S
C442 C441 1.399 . S
C442 C443 1.376 1_554 S
C443 H430 0.930 . S
C443 C442 1.376 1_556 S
C443 C444 1.388 . S
C444 H431 0.930 . S
C444 C443 1.388 . S
C444 C445 1.390 . S
C445 C444 1.390 . S
C445 C446 1.394 . S
C445 C451 1.465 . S
C446 C441 1.399 1_556 S
C446 C445 1.394 . S
C446 C447 1.516 1_556 S
C447 C446 1.516 1_554 S
C447 C448 1.499 1_554 S
C447 C449 1.565 . S
C447 C450 1.525 1_554 S
C448 H432 0.959 . S
C448 H433 0.959 . S
C448 H434 0.961 . S
C448 C447 1.499 1_556 S
C449 H435 0.960 . S
C449 H436 0.961 . S
C449 H437 0.959 . S
C449 C447 1.565 . S
C450 C447 1.525 1_556 S
C450 C451 1.396 . S
C450 C455 1.390 . S
C451 C445 1.465 . S
C451 C450 1.396 . S
C451 C452 1.399 . S
C452 H438 0.929 . S
C452 C451 1.399 . S
C452 C453 1.385 . S
C453 H439 0.931 . S
C453 C452 1.385 . S
C453 C454 1.389 . S
C454 C453 1.389 . S
C454 C455 1.387 . S
C455 H440 0.930 . S
C455 C450 1.390 . S
C455 C454 1.387 . S
H456 C468 0.930 . S
H457 C470 0.930 . S
H458 C471 0.930 . S
H459 C475 0.959 . S
H460 C475 0.959 . S
H461 C475 0.961 . S
H462 C476 0.960 . S
H463 C476 0.961 . S
H464 C476 0.959 . S
H465 C479 0.929 . S
H466 C480 0.931 . S
H467 C482 0.930 . S
C468 H456 0.930 . S
C468 C469 1.399 1_554 S
C468 C473 1.399 . S
C469 C468 1.399 1_556 S
C469 C470 1.376 . S
C470 H457 0.930 . S
C470 C469 1.376 . S
C470 C471 1.388 . S
C471 H458 0.930 . S
C471 C470 1.388 . S
C471 C472 1.390 . S
C472 C471 1.390 . S
C472 C473 1.394 1_556 S
C472 C478 1.465 . S
C473 C468 1.399 . S
C473 C472 1.394 1_554 S
C473 C474 1.516 . S
C474 C473 1.516 . S
C474 C475 1.502 . S
C474 C476 1.561 . S
C474 C477 1.526 . S
C475 H459 0.959 . S
C475 H460 0.959 . S
C475 H461 0.961 . S
C475 C474 1.502 . S
C476 H462 0.960 . S
C476 H463 0.961 . S
C476 H464 0.959 . S
C476 C474 1.561 . S
C477 C474 1.526 . S
C477 C478 1.396 1_554 S
C477 C482 1.390 . S
C478 C472 1.465 . S
C478 C477 1.396 1_556 S
C478 C479 1.399 . S
C479 H465 0.929 . S
C479 C478 1.399 . S
C479 C480 1.385 . S
C480 H466 0.931 . S
C480 C479 1.385 . S
C480 C481 1.389 . S
C481 C480 1.389 . S
C481 C482 1.387 1_556 S
C482 H467 0.930 . S
C482 C477 1.390 . S
C482 C481 1.387 1_554 S
H483 C495 0.930 . S
H484 C497 0.930 . S
H485 C498 0.930 . S
H486 C502 0.959 . S
H487 C502 0.959 . S
H488 C502 0.961 . S
H489 C503 0.960 . S
H490 C503 0.961 . S
H491 C503 0.959 1_554 S
H492 C506 0.929 . S
H493 C507 0.931 . S
H494 C509 0.930 . S
C495 H483 0.930 . S
C495 C496 1.399 . S
C495 C500 1.399 . S
C496 C495 1.399 . S
C496 C497 1.376 1_556 S
C497 H484 0.930 . S
C497 C496 1.376 1_554 S
C497 C498 1.388 . S
C498 H485 0.930 . S
C498 C497 1.388 . S
C498 C499 1.390 . S
C499 C498 1.390 . S
C499 C500 1.394 1_554 S
C499 C505 1.465 . S
C500 C495 1.399 . S
C500 C499 1.394 1_556 S
C500 C501 1.516 . S
C501 C500 1.516 . S
C501 C502 1.502 . S
C501 C503 1.561 . S
C501 C504 1.526 . S
C502 H486 0.959 . S
C502 H487 0.959 . S
C502 H488 0.961 . S
C502 C501 1.502 . S
C503 H489 0.960 . S
C503 H490 0.961 . S
C503 H491 0.959 1_556 S
C503 C501 1.561 . S
C504 C501 1.526 . S
C504 C505 1.396 1_556 S
C504 C509 1.390 . S
C505 C499 1.465 . S
C505 C504 1.396 1_554 S
C505 C506 1.399 . S
C506 H492 0.929 . S
C506 C505 1.399 . S
C506 C507 1.385 . S
C507 H493 0.931 . S
C507 C506 1.385 . S
C507 C508 1.389 . S
C508 C507 1.389 . S
C508 C509 1.387 1_554 S
C509 H494 0.930 . S
C509 C504 1.390 . S
C509 C508 1.387 1_556 S
H510 C522 0.930 1_554 S
H511 C524 0.930 . S
H512 C525 0.930 . S
H513 C529 0.959 . S
H514 C529 0.959 . S
H515 C529 0.961 . S
H516 C530 0.960 . S
H517 C530 0.961 . S
H518 C530 0.959 . S
H519 C533 0.929 . S
H520 C534 0.931 . S
H521 C536 0.930 . S
C522 H510 0.930 1_556 S
C522 C523 1.399 . S
C522 C527 1.399 . S
C523 C522 1.399 . S
C523 C524 1.376 . S
C524 H511 0.930 . S
C524 C523 1.376 . S
C524 C525 1.388 . S
C525 H512 0.930 . S
C525 C524 1.388 . S
C525 C526 1.390 . S
C526 C525 1.390 . S
C526 C527 1.394 . S
C526 C532 1.465 . S
C527 C522 1.399 . S
C527 C526 1.394 . S
C527 C528 1.516 1_556 S
C528 C527 1.516 1_554 S
C528 C529 1.502 . S
C528 C530 1.561 1_554 S
C528 C531 1.526 . S
C529 H513 0.959 . S
C529 H514 0.959 . S
C529 H515 0.961 . S
C529 C528 1.502 . S
C530 H516 0.960 . S
C530 H517 0.961 . S
C530 H518 0.959 . S
C530 C528 1.561 1_556 S
C531 C528 1.526 . S
C531 C532 1.396 1_554 S
C531 C536 1.390 . S
C532 C526 1.465 . S
C532 C531 1.396 1_556 S
C532 C533 1.399 . S
C533 H519 0.929 . S
C533 C532 1.399 . S
C533 C534 1.385 . S
C534 H520 0.931 . S
C534 C533 1.385 . S
C534 C535 1.389 . S
C535 C534 1.389 . S
C535 C536 1.387 1_556 S
C536 H521 0.930 . S
C536 C531 1.390 . S
C536 C535 1.387 1_554 S
H537 C549 0.930 . S
H538 C551 0.930 . S
H539 C552 0.930 . S
H540 C556 0.959 . S
H541 C556 0.959 . S
H542 C556 0.961 . S
H543 C557 0.960 . S
H544 C557 0.961 . S
H545 C557 0.959 . S
H546 C560 0.929 . S
H547 C561 0.931 . S
H548 C563 0.930 . S
C549 H537 0.930 . S
C549 C550 1.399 1_554 S
C549 C554 1.399 . S
C550 C549 1.399 1_556 S
C550 C551 1.376 . S
C551 H538 0.930 . S
C551 C550 1.376 . S
C551 C552 1.388 . S
C552 H539 0.930 . S
C552 C551 1.388 . S
C552 C553 1.390 . S
C553 C552 1.390 . S
C553 C554 1.394 1_556 S
C553 C559 1.465 . S
C554 C549 1.399 . S
C554 C553 1.394 1_554 S
C554 C555 1.516 . S
C555 C554 1.516 . S
C555 C556 1.502 . S
C555 C557 1.561 . S
C555 C558 1.526 . S
C556 H540 0.959 . S
C556 H541 0.959 . S
C556 H542 0.961 . S
C556 C555 1.502 . S
C557 H543 0.960 . S
C557 H544 0.961 . S
C557 H545 0.959 . S
C557 C555 1.561 . S
C558 C555 1.526 . S
C558 C559 1.396 1_554 S
C558 C563 1.390 . S
C559 C553 1.465 . S
C559 C558 1.396 1_556 S
C559 C560 1.399 . S
C560 H546 0.929 . S
C560 C559 1.399 . S
C560 C561 1.385 . S
C561 H547 0.931 . S
C561 C560 1.385 . S
C561 C562 1.389 . S
C562 C561 1.389 . S
C562 C563 1.387 1_556 S
C563 H548 0.930 . S
C563 C558 1.390 . S
C563 C562 1.387 1_554 S
H564 C576 0.930 . S
H565 C578 0.930 . S
H566 C579 0.930 . S
H567 C583 0.959 . S
H568 C583 0.959 . S
H569 C583 0.961 . S
H570 C584 0.960 . S
H571 C584 0.961 . S
H572 C584 0.959 . S
H573 C587 0.929 . S
H574 C588 0.931 . S
H575 C590 0.930 . S
C576 H564 0.930 . S
C576 C577 1.399 . S
C576 C581 1.399 . S
C577 C576 1.399 . S
C577 C578 1.376 . S
C578 H565 0.930 . S
C578 C577 1.376 . S
C578 C579 1.388 . S
C579 H566 0.930 . S
C579 C578 1.388 . S
C579 C580 1.390 . S
C580 C579 1.390 . S
C580 C581 1.394 . S
C580 C586 1.465 . S
C581 C576 1.399 . S
C581 C580 1.394 . S
C581 C582 1.516 . S
C582 C581 1.516 . S
C582 C583 1.502 . S
C582 C584 1.561 . S
C582 C585 1.526 . S
C583 H567 0.959 . S
C583 H568 0.959 . S
C583 H569 0.961 . S
C583 C582 1.502 . S
C584 H570 0.960 . S
C584 H571 0.961 . S
C584 H572 0.959 . S
C584 C582 1.561 . S
C585 C582 1.526 . S
C585 C586 1.396 . S
C585 C590 1.390 . S
C586 C580 1.465 . S
C586 C585 1.396 . S
C586 C587 1.399 . S
C587 H573 0.929 . S
C587 C586 1.399 . S
C587 C588 1.385 . S
C588 H574 0.931 . S
C588 C587 1.385 . S
C588 C589 1.389 . S
C589 C588 1.389 . S
C589 C590 1.387 . S
C590 H575 0.930 . S
C590 C585 1.390 . S
C590 C589 1.387 . S
H591 C603 0.930 . S
H592 C605 0.930 . S
H593 C606 0.930 . S
H594 C610 0.959 . S
H595 C610 0.959 . S
H596 C610 0.961 . S
H597 C611 0.960 . S
H598 C611 0.961 . S
H599 C611 0.959 . S
H600 C614 0.929 . S
H601 C615 0.931 . S
H602 C617 0.930 . S
C603 H591 0.930 . S
C603 C604 1.399 . S
C603 C608 1.399 . S
C604 C603 1.399 . S
C604 C605 1.376 . S
C605 H592 0.930 . S
C605 C604 1.376 . S
C605 C606 1.388 . S
C606 H593 0.930 . S
C606 C605 1.388 . S
C606 C607 1.390 . S
C607 C606 1.390 . S
C607 C608 1.394 . S
C607 C613 1.465 . S
C608 C603 1.399 . S
C608 C607 1.394 . S
C608 C609 1.516 . S
C609 C608 1.516 . S
C609 C610 1.502 . S
C609 C611 1.561 . S
C609 C612 1.526 . S
C610 H594 0.959 . S
C610 H595 0.959 . S
C610 H596 0.961 . S
C610 C609 1.502 . S
C611 H597 0.960 . S
C611 H598 0.961 . S
C611 H599 0.959 . S
C611 C609 1.561 . S
C612 C609 1.526 . S
C612 C613 1.396 . S
C612 C617 1.390 . S
C613 C607 1.465 . S
C613 C612 1.396 . S
C613 C614 1.399 . S
C614 H600 0.929 . S
C614 C613 1.399 . S
C614 C615 1.385 . S
C615 H601 0.931 . S
C615 C614 1.385 . S
C615 C616 1.389 . S
C616 C615 1.389 . S
C616 C617 1.387 . S
C617 H602 0.930 . S
C617 C612 1.390 . S
C617 C616 1.387 . S
H618 C630 0.930 . S
H619 C632 0.930 . S
H620 C633 0.930 . S
H621 C637 0.959 . S
H622 C637 0.959 . S
H623 C637 0.961 . S
H624 C638 0.960 . S
H625 C638 0.961 . S
H626 C638 0.959 . S
H627 C641 0.929 . S
H628 C642 0.931 . S
H629 C644 0.930 . S
C630 H618 0.930 . S
C630 C631 1.399 . S
C630 C635 1.399 . S
C631 C630 1.399 . S
C631 C632 1.376 . S
C632 H619 0.930 . S
C632 C631 1.376 . S
C632 C633 1.388 . S
C633 H620 0.930 . S
C633 C632 1.388 . S
C633 C634 1.390 . S
C634 C633 1.390 . S
C634 C635 1.394 . S
C634 C640 1.465 . S
C635 C630 1.399 . S
C635 C634 1.394 . S
C635 C636 1.516 . S
C636 C635 1.516 . S
C636 C637 1.502 . S
C636 C638 1.561 . S
C636 C639 1.526 . S
C637 H621 0.959 . S
C637 H622 0.959 . S
C637 H623 0.961 . S
C637 C636 1.502 . S
C638 H624 0.960 . S
C638 H625 0.961 . S
C638 H626 0.959 . S
C638 C636 1.561 . S
C639 C636 1.526 . S
C639 C640 1.396 . S
C639 C644 1.390 . S
C640 C634 1.465 . S
C640 C639 1.396 . S
C640 C641 1.399 . S
C641 H627 0.929 . S
C641 C640 1.399 . S
C641 C642 1.385 . S
C642 H628 0.931 . S
C642 C641 1.385 . S
C642 C643 1.389 . S
C643 C642 1.389 . S
C643 C644 1.387 . S
C644 H629 0.930 . S
C644 C639 1.390 . S
C644 C643 1.387 . S
H645 C657 0.930 . S
H646 C659 0.930 . S
H647 C660 0.930 . S
H648 C664 0.959 . S
H649 C664 0.959 . S
H650 C664 0.961 . S
H651 C665 0.960 . S
H652 C665 0.961 . S
H653 C665 0.959 . S
H654 C668 0.929 . S
H655 C669 0.931 . S
H656 C671 0.930 . S
C657 H645 0.930 . S
C657 C658 1.399 . S
C657 C662 1.399 . S
C658 C657 1.399 . S
C658 C659 1.376 . S
C659 H646 0.930 . S
C659 C658 1.376 . S
C659 C660 1.388 . S
C660 H647 0.930 . S
C660 C659 1.388 . S
C660 C661 1.390 . S
C661 C660 1.390 . S
C661 C662 1.394 . S
C661 C667 1.465 . S
C662 C657 1.399 . S
C662 C661 1.394 . S
C662 C663 1.516 . S
C663 C662 1.516 . S
C663 C664 1.502 . S
C663 C665 1.561 . S
C663 C666 1.526 . S
C664 H648 0.959 . S
C664 H649 0.959 . S
C664 H650 0.961 . S
C664 C663 1.502 . S
C665 H651 0.960 . S
C665 H652 0.961 . S
C665 H653 0.959 . S
C665 C663 1.561 . S
C666 C663 1.526 . S
C666 C667 1.396 . S
C666 C671 1.390 . S
C667 C661 1.465 . S
C667 C666 1.396 . S
C667 C668 1.399 . S
C668 H654 0.929 . S
C668 C667 1.399 . S
C668 C669 1.385 . S
C669 H655 0.931 . S
C669 C668 1.385 . S
C669 C670 1.389 . S
C670 C669 1.389 . S
C670 C671 1.387 . S
C671 H656 0.930 . S
C671 C666 1.390 . S
C671 C670 1.387 . S
H672 C684 0.930 . S
H673 C686 0.930 . S
H674 C687 0.930 . S
H675 C691 0.959 . S
H676 C691 0.959 . S
H677 C691 0.961 . S
H678 C692 0.960 . S
H679 C692 0.961 . S
H680 C692 0.959 . S
H681 C695 0.929 . S
H682 C696 0.931 . S
H683 C698 0.930 . S
C684 H672 0.930 . S
C684 C685 1.399 . S
C684 C689 1.399 . S
C685 C684 1.399 . S
C685 C686 1.376 . S
C686 H673 0.930 . S
C686 C685 1.376 . S
C686 C687 1.388 . S
C687 H674 0.930 . S
C687 C686 1.388 . S
C687 C688 1.390 . S
C688 C687 1.390 . S
C688 C689 1.394 . S
C688 C694 1.465 . S
C689 C684 1.399 . S
C689 C688 1.394 . S
C689 C690 1.516 . S
C690 C689 1.516 . S
C690 C691 1.502 . S
C690 C692 1.561 . S
C690 C693 1.526 . S
C691 H675 0.959 . S
C691 H676 0.959 . S
C691 H677 0.961 . S
C691 C690 1.502 . S
C692 H678 0.960 . S
C692 H679 0.961 . S
C692 H680 0.959 . S
C692 C690 1.561 . S
C693 C690 1.526 . S
C693 C694 1.396 . S
C693 C698 1.390 . S
C694 C688 1.465 . S
C694 C693 1.396 . S
C694 C695 1.399 . S
C695 H681 0.929 . S
C695 C694 1.399 . S
C695 C696 1.385 . S
C696 H682 0.931 . S
C696 C695 1.385 . S
C696 C697 1.389 . S
C697 C696 1.389 . S
C697 C698 1.387 . S
C698 H683 0.930 . S
C698 C693 1.390 . S
C698 C697 1.387 . S
H699 C711 0.930 . S
H700 C713 0.930 . S
H701 C714 0.930 . S
H702 C718 0.959 . S
H703 C718 0.959 . S
H704 C718 0.961 . S
H705 C719 0.960 . S
H706 C719 0.961 . S
H707 C719 0.959 . S
H708 C722 0.929 . S
H709 C723 0.931 . S
H710 C725 0.930 . S
C711 H699 0.930 . S
C711 C712 1.399 . S
C711 C716 1.399 . S
C712 C711 1.399 . S
C712 C713 1.376 . S
C713 H700 0.930 . S
C713 C712 1.376 . S
C713 C714 1.388 . S
C714 H701 0.930 . S
C714 C713 1.388 . S
C714 C715 1.390 . S
C715 C714 1.390 . S
C715 C716 1.394 . S
C715 C721 1.465 . S
C716 C711 1.399 . S
C716 C715 1.394 . S
C716 C717 1.516 . S
C717 C716 1.516 . S
C717 C718 1.502 . S
C717 C719 1.561 . S
C717 C720 1.526 . S
C718 H702 0.959 . S
C718 H703 0.959 . S
C718 H704 0.961 . S
C718 C717 1.502 . S
C719 H705 0.960 . S
C719 H706 0.961 . S
C719 H707 0.959 . S
C719 C717 1.561 . S
C720 C717 1.526 . S
C720 C721 1.396 . S
C720 C725 1.390 . S
C721 C715 1.465 . S
C721 C720 1.396 . S
C721 C722 1.399 . S
C722 H708 0.929 . S
C722 C721 1.399 . S
C722 C723 1.385 . S
C723 H709 0.931 . S
C723 C722 1.385 . S
C723 C724 1.389 . S
C724 C723 1.389 . S
C724 C725 1.387 . S
C725 H710 0.930 . S
C725 C720 1.390 . S
C725 C724 1.387 . S
C253 C231 1.894 . S
C265 C8 1.607 . S
C280 C31 1.895 1_554 S
C292 C48 1.637 . S
C307 C71 1.890 . S
C319 C88 1.594 . S
C334 C128 1.622 . S
C346 C111 1.891 1_554 S
C361 C168 1.624 . S
C373 C151 1.899 . S
C388 C191 1.890 . S
C400 C208 1.595 . S
C415 C172 1.930 . S
C427 C29 1.900 . S
C442 C212 1.923 . S
C454 C69 1.886 . S
C469 C109 1.920 . S
C481 C12 1.920 1_556 S
C496 C149 1.893 . S
C508 C52 1.930 . S
C523 C189 1.903 . S
C535 C92 1.918 1_556 S
C550 C132 1.918 1_556 S
C562 C229 1.904 . S
C577 C17 1.490 . S
C589 C2 1.417 . S
C604 C57 1.465 . S
C616 C42 1.449 . S
C631 C97 1.421 . S
C643 C82 1.486 . S
C658 C137 1.412 . S
C670 C122 1.482 . S
C685 C162 1.490 . S
C697 C177 1.417 . S
C712 C217 1.423 . S
C724 C202 1.486 . S
