# Generated by pormake.
# Topology uns, (4)-cn, num edge types: 1
# Building blocks:
#     Node 0, Type 0, BuildingBlock: ESEHIV_clean_sbu_0, # of connection points: 4
#     Node 1, Type 0, BuildingBlock: ESEHIV_clean_sbu_0, # of connection points: 4
#     Node 2, Type 0, BuildingBlock: ESEHIV_clean_sbu_0, # of connection points: 4
#     Node 3, Type 0, BuildingBlock: ESEHIV_clean_sbu_0, # of connection points: 4
#     Node 4, Type 0, BuildingBlock: ESEHIV_clean_sbu_0, # of connection points: 4
#     Node 5, Type 0, BuildingBlock: ESEHIV_clean_sbu_0, # of connection points: 4
#     Node 6, Type 0, BuildingBlock: ESEHIV_clean_sbu_0, # of connection points: 4
#     Node 7, Type 0, BuildingBlock: ESEHIV_clean_sbu_0, # of connection points: 4
#     Node 8, Type 0, BuildingBlock: ESEHIV_clean_sbu_0, # of connection points: 4
#     Node 9, Type 0, BuildingBlock: ESEHIV_clean_sbu_0, # of connection points: 4
#     Node 10, Type 0, BuildingBlock: ESEHIV_clean_sbu_0, # of connection points: 4
#     Node 11, Type 0, BuildingBlock: ESEHIV_clean_sbu_0, # of connection points: 4
#     Node 12, Type 0, BuildingBlock: ESEHIV_clean_sbu_0, # of connection points: 4
#     Node 13, Type 0, BuildingBlock: ESEHIV_clean_sbu_0, # of connection points: 4
#     Node 14, Type 0, BuildingBlock: ESEHIV_clean_sbu_0, # of connection points: 4
#     Node 15, Type 0, BuildingBlock: ESEHIV_clean_sbu_0, # of connection points: 4
#     Node 16, Type 0, BuildingBlock: ESEHIV_clean_sbu_0, # of connection points: 4
#     Node 17, Type 0, BuildingBlock: ESEHIV_clean_sbu_0, # of connection points: 4
#     Node 18, Type 0, BuildingBlock: ESEHIV_clean_sbu_0, # of connection points: 4
#     Node 19, Type 0, BuildingBlock: ESEHIV_clean_sbu_0, # of connection points: 4
#     Node 20, Type 0, BuildingBlock: ESEHIV_clean_sbu_0, # of connection points: 4
#     Node 21, Type 0, BuildingBlock: ESEHIV_clean_sbu_0, # of connection points: 4
#     Node 22, Type 0, BuildingBlock: ESEHIV_clean_sbu_0, # of connection points: 4
#     Node 23, Type 0, BuildingBlock: ESEHIV_clean_sbu_0, # of connection points: 4
#     Node 24, Type 0, BuildingBlock: ESEHIV_clean_sbu_0, # of connection points: 4
#     Node 25, Type 0, BuildingBlock: ESEHIV_clean_sbu_0, # of connection points: 4
#     Node 26, Type 0, BuildingBlock: ESEHIV_clean_sbu_0, # of connection points: 4
#     Node 27, Type 0, BuildingBlock: ESEHIV_clean_sbu_0, # of connection points: 4
#     Node 28, Type 0, BuildingBlock: ESEHIV_clean_sbu_0, # of connection points: 4
#     Node 29, Type 0, BuildingBlock: ESEHIV_clean_sbu_0, # of connection points: 4
#     Node 30, Type 0, BuildingBlock: ESEHIV_clean_sbu_0, # of connection points: 4
#     Node 31, Type 0, BuildingBlock: ESEHIV_clean_sbu_0, # of connection points: 4
#     Node 32, Type 0, BuildingBlock: ESEHIV_clean_sbu_0, # of connection points: 4
#     Node 33, Type 0, BuildingBlock: ESEHIV_clean_sbu_0, # of connection points: 4
#     Node 34, Type 0, BuildingBlock: ESEHIV_clean_sbu_0, # of connection points: 4
#     Node 35, Type 0, BuildingBlock: ESEHIV_clean_sbu_0, # of connection points: 4
#     Edge 36, Type (0, 0), BuildingBlock: UVAHIK_clean_linker_0, # of connection points: 2
#     Edge 37, Type (0, 0), BuildingBlock: UVAHIK_clean_linker_0, # of connection points: 2
#     Edge 38, Type (0, 0), BuildingBlock: UVAHIK_clean_linker_0, # of connection points: 2
#     Edge 39, Type (0, 0), BuildingBlock: UVAHIK_clean_linker_0, # of connection points: 2
#     Edge 40, Type (0, 0), BuildingBlock: UVAHIK_clean_linker_0, # of connection points: 2
#     Edge 41, Type (0, 0), BuildingBlock: UVAHIK_clean_linker_0, # of connection points: 2
#     Edge 42, Type (0, 0), BuildingBlock: UVAHIK_clean_linker_0, # of connection points: 2
#     Edge 43, Type (0, 0), BuildingBlock: UVAHIK_clean_linker_0, # of connection points: 2
#     Edge 44, Type (0, 0), BuildingBlock: UVAHIK_clean_linker_0, # of connection points: 2
#     Edge 45, Type (0, 0), BuildingBlock: UVAHIK_clean_linker_0, # of connection points: 2
#     Edge 46, Type (0, 0), BuildingBlock: UVAHIK_clean_linker_0, # of connection points: 2
#     Edge 47, Type (0, 0), BuildingBlock: UVAHIK_clean_linker_0, # of connection points: 2
#     Edge 48, Type (0, 0), BuildingBlock: UVAHIK_clean_linker_0, # of connection points: 2
#     Edge 49, Type (0, 0), BuildingBlock: UVAHIK_clean_linker_0, # of connection points: 2
#     Edge 50, Type (0, 0), BuildingBlock: UVAHIK_clean_linker_0, # of connection points: 2
#     Edge 51, Type (0, 0), BuildingBlock: UVAHIK_clean_linker_0, # of connection points: 2
#     Edge 52, Type (0, 0), BuildingBlock: UVAHIK_clean_linker_0, # of connection points: 2
#     Edge 53, Type (0, 0), BuildingBlock: UVAHIK_clean_linker_0, # of connection points: 2
#     Edge 54, Type (0, 0), BuildingBlock: UVAHIK_clean_linker_0, # of connection points: 2
#     Edge 55, Type (0, 0), BuildingBlock: UVAHIK_clean_linker_0, # of connection points: 2
#     Edge 56, Type (0, 0), BuildingBlock: UVAHIK_clean_linker_0, # of connection points: 2
#     Edge 57, Type (0, 0), BuildingBlock: UVAHIK_clean_linker_0, # of connection points: 2
#     Edge 58, Type (0, 0), BuildingBlock: UVAHIK_clean_linker_0, # of connection points: 2
#     Edge 59, Type (0, 0), BuildingBlock: UVAHIK_clean_linker_0, # of connection points: 2
#     Edge 60, Type (0, 0), BuildingBlock: UVAHIK_clean_linker_0, # of connection points: 2
#     Edge 61, Type (0, 0), BuildingBlock: UVAHIK_clean_linker_0, # of connection points: 2
#     Edge 62, Type (0, 0), BuildingBlock: UVAHIK_clean_linker_0, # of connection points: 2
#     Edge 63, Type (0, 0), BuildingBlock: UVAHIK_clean_linker_0, # of connection points: 2
#     Edge 64, Type (0, 0), BuildingBlock: UVAHIK_clean_linker_0, # of connection points: 2
#     Edge 65, Type (0, 0), BuildingBlock: UVAHIK_clean_linker_0, # of connection points: 2
#     Edge 66, Type (0, 0), BuildingBlock: UVAHIK_clean_linker_0, # of connection points: 2
#     Edge 67, Type (0, 0), BuildingBlock: UVAHIK_clean_linker_0, # of connection points: 2
#     Edge 68, Type (0, 0), BuildingBlock: UVAHIK_clean_linker_0, # of connection points: 2
#     Edge 69, Type (0, 0), BuildingBlock: UVAHIK_clean_linker_0, # of connection points: 2
#     Edge 70, Type (0, 0), BuildingBlock: UVAHIK_clean_linker_0, # of connection points: 2
#     Edge 71, Type (0, 0), BuildingBlock: UVAHIK_clean_linker_0, # of connection points: 2
#     Edge 72, Type (0, 0), BuildingBlock: UVAHIK_clean_linker_0, # of connection points: 2
#     Edge 73, Type (0, 0), BuildingBlock: UVAHIK_clean_linker_0, # of connection points: 2
#     Edge 74, Type (0, 0), BuildingBlock: UVAHIK_clean_linker_0, # of connection points: 2
#     Edge 75, Type (0, 0), BuildingBlock: UVAHIK_clean_linker_0, # of connection points: 2
#     Edge 76, Type (0, 0), BuildingBlock: UVAHIK_clean_linker_0, # of connection points: 2
#     Edge 77, Type (0, 0), BuildingBlock: UVAHIK_clean_linker_0, # of connection points: 2
#     Edge 78, Type (0, 0), BuildingBlock: UVAHIK_clean_linker_0, # of connection points: 2
#     Edge 79, Type (0, 0), BuildingBlock: UVAHIK_clean_linker_0, # of connection points: 2
#     Edge 80, Type (0, 0), BuildingBlock: UVAHIK_clean_linker_0, # of connection points: 2
#     Edge 81, Type (0, 0), BuildingBlock: UVAHIK_clean_linker_0, # of connection points: 2
#     Edge 82, Type (0, 0), BuildingBlock: UVAHIK_clean_linker_0, # of connection points: 2
#     Edge 83, Type (0, 0), BuildingBlock: UVAHIK_clean_linker_0, # of connection points: 2
#     Edge 84, Type (0, 0), BuildingBlock: UVAHIK_clean_linker_0, # of connection points: 2
#     Edge 85, Type (0, 0), BuildingBlock: UVAHIK_clean_linker_0, # of connection points: 2
#     Edge 86, Type (0, 0), BuildingBlock: UVAHIK_clean_linker_0, # of connection points: 2
#     Edge 87, Type (0, 0), BuildingBlock: UVAHIK_clean_linker_0, # of connection points: 2
#     Edge 88, Type (0, 0), BuildingBlock: UVAHIK_clean_linker_0, # of connection points: 2
#     Edge 89, Type (0, 0), BuildingBlock: UVAHIK_clean_linker_0, # of connection points: 2
#     Edge 90, Type (0, 0), BuildingBlock: UVAHIK_clean_linker_0, # of connection points: 2
#     Edge 91, Type (0, 0), BuildingBlock: UVAHIK_clean_linker_0, # of connection points: 2
#     Edge 92, Type (0, 0), BuildingBlock: UVAHIK_clean_linker_0, # of connection points: 2
#     Edge 93, Type (0, 0), BuildingBlock: UVAHIK_clean_linker_0, # of connection points: 2
#     Edge 94, Type (0, 0), BuildingBlock: UVAHIK_clean_linker_0, # of connection points: 2
#     Edge 95, Type (0, 0), BuildingBlock: UVAHIK_clean_linker_0, # of connection points: 2
#     Edge 96, Type (0, 0), BuildingBlock: UVAHIK_clean_linker_0, # of connection points: 2
#     Edge 97, Type (0, 0), BuildingBlock: UVAHIK_clean_linker_0, # of connection points: 2
#     Edge 98, Type (0, 0), BuildingBlock: UVAHIK_clean_linker_0, # of connection points: 2
#     Edge 99, Type (0, 0), BuildingBlock: UVAHIK_clean_linker_0, # of connection points: 2
#     Edge 100, Type (0, 0), BuildingBlock: UVAHIK_clean_linker_0, # of connection points: 2
#     Edge 101, Type (0, 0), BuildingBlock: UVAHIK_clean_linker_0, # of connection points: 2
#     Edge 102, Type (0, 0), BuildingBlock: UVAHIK_clean_linker_0, # of connection points: 2
#     Edge 103, Type (0, 0), BuildingBlock: UVAHIK_clean_linker_0, # of connection points: 2
#     Edge 104, Type (0, 0), BuildingBlock: UVAHIK_clean_linker_0, # of connection points: 2
#     Edge 105, Type (0, 0), BuildingBlock: UVAHIK_clean_linker_0, # of connection points: 2
#     Edge 106, Type (0, 0), BuildingBlock: UVAHIK_clean_linker_0, # of connection points: 2
#     Edge 107, Type (0, 0), BuildingBlock: UVAHIK_clean_linker_0, # of connection points: 2
# Relax obj value: 0.007
# Max RMSD: 0.085
# Mean RMSD: 0.063
data_MOF--net-uns--node1-ESEHIV_clean_sbu_0--edge1-UVAHIK_clean_linker_0
_symmetry_space_group_name_H-M    P1
_symmetry_Int_Tables_number       1
_symmetry_cell_setting            triclinic
loop_
_symmetry_equiv_pos_as_xyz
'x, y, z'
_cell_length_a     84.543605
_cell_length_b     83.460341
_cell_length_c     57.218431
_cell_angle_alpha  93.239382
_cell_angle_beta   90.029256
_cell_angle_gamma 120.66308
loop_
_atom_site_label
_atom_site_type_symbol
_atom_site_fract_x
_atom_site_fract_y
_atom_site_fract_z
_atom_type_partial_charge
Cu0 Cu 0.27554 0.2175 0.01913 0.0
N1 N 0.2816 0.21412 0.04922 0.0
N2 N 0.29615 0.2095 0.07852 0.0
C3 C 0.29492 0.21058 0.05513 0.0
C4 C 0.28302 0.21246 0.08756 0.0
C5 C 0.27409 0.21529 0.06948 0.0
O6 O 0.27774 0.19938 0.99824 0.0
C7 C 0.29168 0.25272 0.99662 0.0
O8 O 0.27944 0.24373 0.97943 0.0
H9 H 0.30376 0.20921 0.04252 0.0
H10 H 0.26297 0.2181 0.071 0.0
N11 N 0.25092 0.21177 0.01811 0.0
N12 N 0.22503 0.21207 0.01032 0.0
C13 C 0.24367 0.22173 0.01031 0.0
C14 C 0.23641 0.19541 0.02356 0.0
C15 C 0.22049 0.19553 0.01881 0.0
C16 C 0.26766 0.19142 0.97979 0.0
O17 O 0.25683 0.19725 0.9725 0.0
H18 H 0.25182 0.23555 0.00415 0.0
H19 H 0.23736 0.18399 0.03006 0.0
O20 O 0.29245 0.24379 0.0135 0.0
H21 H 0.27995 0.21244 0.10592 0.0
H22 H 0.20665 0.18422 0.02135 0.0
Cu23 Cu 0.83719 0.06716 0.08003 0.0
N24 N 0.8209 0.05311 0.10302 0.0
N25 N 0.79373 0.03641 0.11992 0.0
C26 C 0.80253 0.04197 0.09959 0.0
C27 C 0.80726 0.044 0.13674 0.0
C28 C 0.82396 0.05433 0.12629 0.0
O29 O 0.83259 0.05044 0.05196 0.0
C30 C 0.82447 0.09295 0.08801 0.0
O31 O 0.80894 0.07904 0.09482 0.0
H32 H 0.79572 0.039 0.08254 0.0
H33 H 0.83724 0.06302 0.13514 0.0
N34 N 0.86215 0.07806 0.089 0.0
N35 N 0.89223 0.09947 0.08921 0.0
C36 C 0.87512 0.09487 0.08217 0.0
C37 C 0.87141 0.07178 0.10099 0.0
C38 C 0.89004 0.08494 0.10096 0.0
C39 C 0.8354 0.03707 0.0553 0.0
O40 O 0.8402 0.03554 0.07651 0.0
H41 H 0.87212 0.10335 0.07147 0.0
H42 H 0.86517 0.05852 0.1089 0.0
O43 O 0.83549 0.08946 0.07669 0.0
H44 H 0.8052 0.04321 0.1554 0.0
H45 H 0.90107 0.08393 0.10897 0.0
Cu46 Cu 0.97933 0.78054 0.05463 0.0
N47 N 0.9567 0.75821 0.05747 0.0
N48 N 0.93164 0.73759 0.07597 0.0
C49 C 0.9485 0.75319 0.07819 0.0
C50 C 0.9292 0.73259 0.05277 0.0
C51 C 0.94459 0.7454 0.04139 0.0
O52 O 0.97209 0.79944 0.05986 0.0
C53 C 0.99683 0.76423 0.07319 0.0
O54 O 0.98476 0.7512 0.05818 0.0
H55 H 0.95481 0.76107 0.09459 0.0
H56 H 0.94651 0.74563 0.02271 0.0
N57 N 0.9912 0.78384 0.02582 0.0
N58 N 1.01493 0.79695 0.00164 0.0
C59 C 1.00741 0.79924 0.02151 0.0
C60 C 0.98833 0.77131 0.00802 0.0
C61 C 1.00286 0.77936 0.99309 0.0
C62 C 0.96543 0.80274 0.04192 0.0
O63 O 0.96659 0.79582 0.02125 0.0
H64 H 1.01411 0.81148 0.03359 0.0
H65 H 0.97704 0.75702 0.00663 0.0
O66 O 0.99693 0.7796 0.07617 0.0
H67 H 0.9169 0.72092 0.04443 0.0
H68 H 1.00463 0.77255 0.97749 0.0
Cu69 Cu 0.22187 0.25828 0.45623 0.0
N70 N 0.21613 0.26271 0.42622 0.0
N71 N 0.21035 0.27694 0.39799 0.0
C72 C 0.21813 0.2789 0.41946 0.0
C73 C 0.20353 0.25884 0.39081 0.0
C74 C 0.20707 0.25014 0.40818 0.0
O75 O 0.20251 0.25709 0.4766 0.0
C76 C 0.25702 0.27894 0.482 0.0
O77 O 0.24883 0.26786 0.49896 0.0
H78 H 0.2249 0.29181 0.4303 0.0
H79 H 0.20267 0.2355 0.40797 0.0
N80 N 0.21994 0.23464 0.45616 0.0
N81 N 0.22473 0.21118 0.46362 0.0
C82 C 0.23199 0.22995 0.46441 0.0
C83 C 0.2046 0.21827 0.45008 0.0
C84 C 0.2075 0.2039 0.4545 0.0
C85 C 0.1977 0.26934 0.4778 0.0
O86 O 0.20824 0.28538 0.46868 0.0
H87 H 0.24571 0.24004 0.47111 0.0
H88 H 0.19189 0.21687 0.44367 0.0
O89 O 0.24751 0.27774 0.46396 0.0
H90 H 0.19573 0.25207 0.37463 0.0
H91 H 0.19736 0.18917 0.45209 0.0
Cu92 Cu 0.78053 0.9719 0.4362 0.0
N93 N 0.77769 0.98803 0.41715 0.0
N94 N 0.76804 1.00701 0.40573 0.0
C95 C 0.76742 0.99582 0.42236 0.0
C96 C 0.7792 1.00615 0.38941 0.0
C97 C 0.78513 0.99446 0.3965 0.0
O98 O 0.79238 0.98652 0.46604 0.0
C99 C 0.74925 0.94232 0.41544 0.0
O100 O 0.75793 0.95215 0.39769 0.0
H101 H 0.75991 0.9935 0.43832 0.0
H102 H 0.79419 0.9909 0.38727 0.0
N103 N 0.79589 0.96355 0.42421 0.0
N104 N 0.80621 0.94362 0.41974 0.0
C105 C 0.79178 0.94572 0.42493 0.0
C106 C 0.81363 0.97317 0.41825 0.0
C107 C 0.82004 0.96089 0.41551 0.0
C108 C 0.80562 1.00322 0.46375 0.0
O109 O 0.80998 1.00903 0.44258 0.0
H110 H 0.77881 0.9347 0.43089 0.0
H111 H 0.82162 0.98815 0.41726 0.0
O112 O 0.75632 0.94867 0.4361 0.0
H113 H 0.78272 1.01325 0.37332 0.0
H114 H 0.83395 0.9645 0.41153 0.0
Cu115 Cu 0.07553 0.81189 0.47841 0.0
N116 N 0.08697 0.81674 0.44962 0.0
N117 N 0.1086 0.82382 0.42299 0.0
C118 C 0.10466 0.82196 0.44594 0.0
C119 C 0.0927 0.81961 0.41188 0.0
C120 C 0.07942 0.81527 0.42834 0.0
O121 O 0.09523 0.82845 0.50126 0.0
C122 C 0.0533 0.77468 0.49616 0.0
O123 O 0.04905 0.78238 0.51382 0.0
H124 H 0.11432 0.82395 0.45982 0.0
H125 H 0.06522 0.81123 0.42505 0.0
N126 N 0.05764 0.8189 0.47796 0.0
N127 N 0.03202 0.82029 0.48274 0.0
C128 C 0.04 0.80986 0.4847 0.0
C129 C 0.06084 0.8355 0.47148 0.0
C130 C 0.04516 0.83641 0.47436 0.0
C131 C 0.0932 0.83778 0.51818 0.0
O132 O 0.07653 0.83391 0.52334 0.0
H133 H 0.03311 0.79593 0.49078 0.0
H134 H 0.07388 0.84635 0.46547 0.0
O135 O 0.06452 0.78497 0.48118 0.0
H136 H 0.0908 0.81979 0.39321 0.0
H137 H 0.04375 0.84828 0.4711 0.0
Cu138 Cu 0.7796 0.83058 0.95244 0.0
N139 N 0.75771 0.83119 0.95377 0.0
N140 N 0.73624 0.83604 0.93796 0.0
C141 C 0.74901 0.83112 0.93395 0.0
C142 C 0.73689 0.83922 0.96149 0.0
C143 C 0.75019 0.83632 0.97117 0.0
O144 O 0.79639 0.85502 0.94044 0.0
C145 C 0.76209 0.79311 0.94614 0.0
O146 O 0.75628 0.7965 0.96607 0.0
H147 H 0.75315 0.829 0.9167 0.0
H148 H 0.75485 0.839 0.98934 0.0
N149 N 0.79071 0.8295 0.98056 0.0
N150 N 0.81198 0.82821 0.00275 0.0
C151 C 0.80693 0.83003 0.98106 0.0
C152 C 0.78514 0.8272 0.00278 0.0
C153 C 0.79821 0.8264 0.01648 0.0
C154 C 0.80115 0.86833 0.9562 0.0
O155 O 0.79586 0.86419 0.97768 0.0
H156 H 0.81462 0.83125 0.96549 0.0
H157 H 0.7724 0.82594 0.00858 0.0
O158 O 0.77316 0.80706 0.93465 0.0
H159 H 0.72888 0.84405 0.97103 0.0
H160 H 0.79757 0.82464 0.03511 0.0
Cu161 Cu 0.21597 0.95609 0.88281 0.0
N162 N 0.20915 0.9446 0.85232 0.0
N163 N 0.20012 0.92381 0.82134 0.0
C164 C 0.20105 0.92636 0.845 0.0
C165 C 0.20783 0.9411 0.81354 0.0
C166 C 0.21335 0.95382 0.8326 0.0
O167 O 0.19771 0.93957 0.90485 0.0
C168 C 0.25283 0.97199 0.90501 0.0
O169 O 0.24641 0.97549 0.92431 0.0
H170 H 0.19655 0.91521 0.85667 0.0
H171 H 0.22039 0.96885 0.83216 0.0
N172 N 0.21425 0.9777 0.88317 0.0
N173 N 0.21889 1.00662 0.88934 0.0
C174 C 0.22547 0.99512 0.89302 0.0
C175 C 0.20016 0.97821 0.87314 0.0
C176 C 0.20295 0.9959 0.87685 0.0
C177 C 0.19336 0.92294 0.90887 0.0
O178 O 0.20324 0.91614 0.90006 0.0
H179 H 0.2382 0.99931 0.90252 0.0
H180 H 0.18853 0.9664 0.86389 0.0
O181 O 0.2419 0.96332 0.88741 0.0
H182 H 0.20951 0.94437 0.79534 0.0
H183 H 0.19366 1.00036 0.8712 0.0
Cu184 Cu 0.08316 0.29461 0.96368 0.0
N185 N 0.10398 0.3188 0.96626 0.0
N186 N 0.13044 0.34289 0.95501 0.0
C187 C 0.11859 0.32431 0.95249 0.0
C188 C 0.12301 0.34942 0.97099 0.0
C189 C 0.10669 0.33451 0.97795 0.0
O190 O 0.09263 0.27861 0.95219 0.0
C191 C 0.05788 0.3051 0.95523 0.0
O192 O 0.06226 0.30996 0.97756 0.0
H193 H 0.11999 0.31498 0.93987 0.0
H194 H 0.09717 0.33525 0.98992 0.0
N195 N 0.07233 0.28526 0.9923 0.0
N196 N 0.05229 0.26517 0.01681 0.0
C197 C 0.05834 0.2677 0.99472 0.0
C198 C 0.0754 0.2941 0.0137 0.0
C199 C 0.06295 0.28177 0.02881 0.0
C200 C 0.10536 0.28028 0.96598 0.0
O201 O 0.10961 0.29123 0.98521 0.0
H202 H 0.05229 0.25717 0.98032 0.0
H203 H 0.08564 0.3086 0.01789 0.0
O204 O 0.06512 0.29677 0.94426 0.0
H205 H 0.12876 0.36395 0.97687 0.0
H206 H 0.06176 0.28479 0.04716 0.0
Cu207 Cu 0.80909 0.74705 0.52294 0.0
N208 N 0.80928 0.72468 0.51918 0.0
N209 N 0.81416 0.70208 0.52996 0.0
C210 C 0.81194 0.71649 0.5372 0.0
C211 C 0.81278 0.70119 0.50632 0.0
C212 C 0.80984 0.71518 0.49973 0.0
O213 O 0.83412 0.76506 0.53476 0.0
C214 C 0.77291 0.72909 0.53387 0.0
O215 O 0.77314 0.71943 0.51507 0.0
H216 H 0.81326 0.72176 0.55525 0.0
H217 H 0.809 0.71864 0.48203 0.0
N218 N 0.80509 0.75575 0.49521 0.0
N219 N 0.80318 0.77567 0.47231 0.0
C220 C 0.80948 0.77354 0.49292 0.0
C221 C 0.79566 0.74624 0.47532 0.0
C222 C 0.79446 0.75849 0.46118 0.0
C223 C 0.8461 0.76963 0.51897 0.0
O224 O 0.84054 0.76306 0.49727 0.0
H225 H 0.81644 0.78453 0.50664 0.0
H226 H 0.78948 0.73135 0.4717 0.0
O227 O 0.78827 0.74257 0.54235 0.0
H228 H 0.8142 0.69142 0.49454 0.0
H229 H 0.78744 0.75495 0.4442 0.0
Cu230 Cu 0.28485 0.07305 0.60121 0.0
N231 N 0.28995 0.08472 0.63151 0.0
N232 N 0.30159 0.10629 0.66169 0.0
C233 C 0.29987 0.10313 0.63808 0.0
C234 C 0.29231 0.0892 0.67018 0.0
C235 C 0.28517 0.07599 0.65158 0.0
O236 O 0.28656 0.09158 0.57978 0.0
C237 C 0.304 0.05529 0.57933 0.0
O238 O 0.29419 0.05242 0.56008 0.0
H239 H 0.30613 0.11392 0.62579 0.0
H240 H 0.27724 0.061 0.65259 0.0
N241 N 0.26055 0.05271 0.60035 0.0
N242 N 0.23506 0.02437 0.59536 0.0
C243 C 0.25351 0.03463 0.59266 0.0
C244 C 0.24614 0.05388 0.60801 0.0
C245 C 0.23049 0.03656 0.60497 0.0
C246 C 0.27542 0.0874 0.56232 0.0
O247 O 0.2638 0.06971 0.55633 0.0
H248 H 0.26173 0.0291 0.58552 0.0
H249 H 0.24699 0.06657 0.61523 0.0
O250 O 0.30225 0.06412 0.5971 0.0
H251 H 0.29074 0.08641 0.68853 0.0
H252 H 0.21673 0.03332 0.60918 0.0
Cu253 Cu 0.96951 0.20404 0.56985 0.0
N254 N 0.94682 0.20311 0.56912 0.0
N255 N 0.92037 0.19786 0.58487 0.0
C256 C 0.93694 0.19954 0.58862 0.0
C257 C 0.91986 0.20064 0.56189 0.0
C258 C 0.93616 0.20374 0.55216 0.0
O259 O 0.96128 0.17827 0.57757 0.0
C260 C 0.98635 0.24049 0.58489 0.0
O261 O 0.97613 0.23917 0.56676 0.0
H262 H 0.94189 0.19803 0.60532 0.0
H263 H 0.93972 0.20583 0.53399 0.0
N264 N 0.98354 0.20968 0.54271 0.0
N265 N 1.00946 0.21836 0.52313 0.0
C266 C 0.99992 0.21049 0.54229 0.0
C267 C 0.98263 0.21733 0.52304 0.0
C268 C 0.99858 0.22266 0.51092 0.0
C269 C 0.95726 0.16607 0.56052 0.0
O270 O 0.96282 0.17181 0.53957 0.0
H271 H 1.00524 0.20651 0.55665 0.0
H272 H 0.97171 0.21985 0.5185 0.0
O273 O 0.98556 0.22566 0.59137 0.0
H274 H 0.90834 0.1999 0.55258 0.0
H275 H 1.0021 0.22968 0.49475 0.0
Cu276 Cu 0.93986 0.54542 0.3962 0.0
N277 N 0.96138 0.5443 0.39469 0.0
N278 N 0.98148 0.53805 0.41148 0.0
C279 C 0.97056 0.5454 0.41453 0.0
C280 C 0.97932 0.53241 0.38848 0.0
C281 C 0.96675 0.53609 0.37823 0.0
O282 O 0.92231 0.51984 0.40452 0.0
C283 C 0.95958 0.58187 0.41142 0.0
O284 O 0.96638 0.58091 0.39109 0.0
H285 H 0.96796 0.5501 0.43131 0.0
H286 H 0.96063 0.53139 0.36076 0.0
N287 N 0.9318 0.5503 0.36816 0.0
N288 N 0.91344 0.55419 0.34359 0.0
C289 C 0.91592 0.55027 0.36547 0.0
C290 C 0.93978 0.5545 0.3473 0.0
C291 C 0.92852 0.55693 0.33214 0.0
C292 C 0.91423 0.50739 0.38768 0.0
O293 O 0.91479 0.51275 0.36642 0.0
H294 H 0.90643 0.54753 0.37946 0.0
H295 H 0.95283 0.55568 0.34337 0.0
O296 O 0.94617 0.5668 0.41855 0.0
H297 H 0.98506 0.52465 0.38008 0.0
H298 H 0.93115 0.56017 0.314 0.0
Cu299 Cu 0.49922 0.404 0.42478 0.0
N300 N 0.48258 0.38874 0.44681 0.0
N301 N 0.45471 0.3716 0.46202 0.0
C302 C 0.46487 0.38441 0.4466 0.0
C303 C 0.46669 0.3678 0.47247 0.0
C304 C 0.48382 0.37829 0.46295 0.0
O305 O 0.49241 0.38694 0.39642 0.0
C306 C 0.49895 0.43376 0.44601 0.0
O307 O 0.50083 0.4254 0.46364 0.0
H308 H 0.45955 0.39041 0.43489 0.0
H309 H 0.49605 0.37778 0.46691 0.0
N310 N 0.52463 0.41466 0.43135 0.0
N311 N 0.55484 0.43467 0.42695 0.0
C312 C 0.5376 0.42691 0.41749 0.0
C313 C 0.53393 0.41462 0.45041 0.0
C314 C 0.55253 0.42687 0.44771 0.0
C315 C 0.49883 0.37597 0.3963 0.0
O316 O 0.51036 0.37822 0.4133 0.0
H317 H 0.53425 0.4307 0.40123 0.0
H318 H 0.52764 0.40678 0.46553 0.0
O319 O 0.49705 0.42633 0.42522 0.0
H320 H 0.46322 0.35763 0.48539 0.0
H321 H 0.56343 0.42995 0.4603 0.0
Cu322 Cu 0.64179 0.10515 0.34901 0.0
N323 N 0.62206 0.08049 0.34468 0.0
N324 N 0.59685 0.05511 0.35642 0.0
C325 C 0.60674 0.07395 0.35731 0.0
C326 C 0.60627 0.04952 0.3425 0.0
C327 C 0.6218 0.0652 0.33526 0.0
O328 O 0.62972 0.11897 0.35982 0.0
C329 C 0.66893 0.09777 0.36116 0.0
O330 O 0.66721 0.09382 0.33844 0.0
H331 H 0.60381 0.08284 0.36874 0.0
H332 H 0.63277 0.06538 0.32537 0.0
N333 N 0.6549 0.11556 0.32185 0.0
N334 N 0.67849 0.13525 0.30054 0.0
C335 C 0.67187 0.13092 0.32222 0.0
C336 C 0.65062 0.10979 0.29908 0.0
C337 C 0.66517 0.12189 0.2859 0.0
C338 C 0.63228 0.13383 0.35112 0.0
O339 O 0.64654 0.14308 0.3381 0.0
H340 H 0.6793 0.13864 0.33826 0.0
H341 H 0.63791 0.09762 0.29255 0.0
O342 O 0.65903 0.10371 0.37073 0.0
H343 H 0.60267 0.03517 0.33877 0.0
H344 H 0.66577 0.12103 0.267 0.0
Cu345 Cu 0.88268 0.58948 0.73752 0.0
N346 N 0.87665 0.59177 0.7068 0.0
N347 N 0.86858 0.60175 0.67587 0.0
C348 C 0.87136 0.60348 0.69942 0.0
C349 C 0.87224 0.58839 0.66828 0.0
C350 C 0.87722 0.58231 0.68731 0.0
O351 O 0.86352 0.58882 0.75741 0.0
C352 C 0.91801 0.61206 0.76245 0.0
O353 O 0.91004 0.60272 0.78084 0.0
H354 H 0.86996 0.61331 0.71107 0.0
H355 H 0.88107 0.57178 0.68697 0.0
N356 N 0.8812 0.5663 0.73918 0.0
N357 N 0.88645 0.54367 0.74888 0.0
C358 C 0.89281 0.56225 0.75009 0.0
C359 C 0.86707 0.54974 0.73079 0.0
C360 C 0.87027 0.53582 0.73665 0.0
C361 C 0.86102 0.6022 0.76386 0.0
O362 O 0.8735 0.61936 0.75951 0.0
H363 H 0.90562 0.57266 0.75878 0.0
H364 H 0.85506 0.54791 0.72149 0.0
O365 O 0.90829 0.60933 0.744 0.0
H366 H 0.87126 0.5832 0.65026 0.0
H367 H 0.86103 0.521 0.73286 0.0
Cu368 Cu 0.45119 0.31404 0.79312 0.0
N369 N 0.44969 0.32928 0.77128 0.0
N370 N 0.43843 0.34522 0.75429 0.0
C371 C 0.43707 0.33461 0.77209 0.0
C372 C 0.45269 0.34669 0.74189 0.0
C373 C 0.4596 0.33688 0.75241 0.0
O374 O 0.46492 0.33098 0.82058 0.0
C375 C 0.41813 0.28545 0.77614 0.0
O376 O 0.42684 0.29295 0.75714 0.0
H377 H 0.42714 0.33075 0.78571 0.0
H378 H 0.47096 0.33535 0.74662 0.0
N379 N 0.46357 0.3015 0.78383 0.0
N380 N 0.47245 0.28056 0.78732 0.0
C381 C 0.4662 0.29088 0.79839 0.0
C382 C 0.4683 0.29783 0.76262 0.0
C383 C 0.47384 0.28495 0.76474 0.0
C384 C 0.48231 0.34067 0.81802 0.0
O385 O 0.48903 0.33796 0.79848 0.0
H386 H 0.46241 0.28989 0.81654 0.0
H387 H 0.46692 0.30334 0.74657 0.0
O388 O 0.42602 0.29304 0.79611 0.0
H389 H 0.45769 0.35406 0.72612 0.0
H390 H 0.47806 0.27894 0.75059 0.0
Cu391 Cu 0.73753 0.15221 0.7826 0.0
N392 N 0.75987 0.15246 0.78013 0.0
N393 N 0.78539 0.15686 0.76237 0.0
C394 C 0.76931 0.15657 0.76021 0.0
C395 C 0.78601 0.15268 0.78474 0.0
C396 C 0.7703 0.15006 0.79567 0.0
O397 O 0.74522 0.1787 0.78149 0.0
C398 C 0.71982 0.1181 0.7594 0.0
O399 O 0.7312 0.11694 0.77384 0.0
H400 H 0.76431 0.15926 0.74436 0.0
H401 H 0.76689 0.14688 0.81368 0.0
N402 N 0.7236 0.14311 0.80951 0.0
N403 N 0.69788 0.13192 0.83007 0.0
C404 C 0.7053 0.13637 0.80886 0.0
C405 C 0.72794 0.14267 0.83205 0.0
C406 C 0.71208 0.13595 0.84482 0.0
C407 C 0.75394 0.18846 0.80016 0.0
O408 O 0.75572 0.17996 0.81768 0.0
H409 H 0.69764 0.1354 0.79315 0.0
H410 H 0.74165 0.14735 0.83887 0.0
O411 O 0.72058 0.13376 0.75847 0.0
H412 H 0.79718 0.15198 0.79286 0.0
H413 H 0.7111 0.13426 0.86348 0.0
Cu414 Cu 0.44226 0.16371 0.2617 0.0
N415 N 0.43648 0.16815 0.23197 0.0
N416 N 0.42197 0.17357 0.20333 0.0
C417 C 0.42444 0.17363 0.22675 0.0
C418 C 0.43298 0.16786 0.19359 0.0
C419 C 0.44174 0.16441 0.2112 0.0
O420 O 0.44197 0.18256 0.28394 0.0
C421 C 0.42204 0.12715 0.28225 0.0
O422 O 0.43116 0.13509 0.30217 0.0
H423 H 0.41708 0.17681 0.23991 0.0
H424 H 0.45089 0.15899 0.20899 0.0
N425 N 0.46614 0.16709 0.26224 0.0
N426 N 0.49168 0.16701 0.273 0.0
C427 C 0.4739 0.1612 0.27772 0.0
C428 C 0.47947 0.17684 0.24727 0.0
C429 C 0.49512 0.17681 0.25379 0.0
C430 C 0.45425 0.19945 0.28068 0.0
O431 O 0.4656 0.20253 0.26356 0.0
H432 H 0.46683 0.15324 0.29246 0.0
H433 H 0.47805 0.18383 0.23278 0.0
O434 O 0.42435 0.13718 0.26512 0.0
H435 H 0.43449 0.16605 0.17502 0.0
H436 H 0.50803 0.18347 0.24493 0.0
Cu437 Cu 0.89963 0.29902 0.27252 0.0
N438 N 0.89799 0.27587 0.2743 0.0
N439 N 0.89125 0.24761 0.25935 0.0
C440 C 0.88764 0.26154 0.25858 0.0
C441 C 0.90442 0.25332 0.2764 0.0
C442 C 0.90852 0.27076 0.28568 0.0
O443 O 0.8749 0.29135 0.25985 0.0
C444 C 0.93676 0.31877 0.26561 0.0
O445 O 0.93558 0.31441 0.28748 0.0
H446 H 0.8787 0.26201 0.24544 0.0
H447 H 0.91918 0.27948 0.29873 0.0
N448 N 0.90287 0.31253 0.30151 0.0
N449 N 0.90449 0.33477 0.32712 0.0
C450 C 0.90173 0.32807 0.30447 0.0
C451 C 0.90643 0.3092 0.32305 0.0
C452 C 0.90751 0.32291 0.33885 0.0
C453 C 0.8624 0.28392 0.27495 0.0
O454 O 0.86739 0.28384 0.29665 0.0
H455 H 0.89904 0.33438 0.29015 0.0
H456 H 0.90803 0.29758 0.32701 0.0
O457 O 0.92178 0.31391 0.2542 0.0
H458 H 0.91111 0.24578 0.28115 0.0
H459 H 0.90998 0.32385 0.35757 0.0
Cu460 Cu 0.75376 0.6073 0.27756 0.0
N461 N 0.77679 0.62946 0.27648 0.0
N462 N 0.80244 0.65016 0.25897 0.0
C463 C 0.78594 0.63416 0.25635 0.0
C464 C 0.80366 0.6558 0.28188 0.0
C465 C 0.78788 0.64299 0.29264 0.0
O466 O 0.76008 0.58835 0.26787 0.0
C467 C 0.73575 0.62519 0.26825 0.0
O468 O 0.74524 0.63327 0.28792 0.0
H469 H 0.78039 0.62589 0.23998 0.0
H470 H 0.78489 0.64351 0.31092 0.0
N471 N 0.7424 0.6006 0.30684 0.0
N472 N 0.72091 0.58306 0.33221 0.0
C473 C 0.72632 0.58462 0.30975 0.0
C474 C 0.74736 0.60956 0.32824 0.0
C475 C 0.73421 0.5988 0.34386 0.0
C476 C 0.76951 0.58654 0.28392 0.0
O477 O 0.77253 0.59609 0.30411 0.0
H478 H 0.71886 0.57426 0.29554 0.0
H479 H 0.75958 0.62298 0.33228 0.0
O480 O 0.73705 0.61172 0.25855 0.0
H481 H 0.81526 0.6681 0.29043 0.0
H482 H 0.73435 0.60253 0.36231 0.0
Cu483 Cu 0.48751 0.09034 0.90728 0.0
N484 N 0.49262 0.0848 0.9367 0.0
N485 N 0.49986 0.07111 0.96402 0.0
C486 C 0.49934 0.07361 0.94092 0.0
C487 C 0.49319 0.08121 0.97467 0.0
C488 C 0.48865 0.0895 0.95782 0.0
O489 O 0.50712 0.09236 0.88708 0.0
C490 C 0.45119 0.06882 0.88249 0.0
O491 O 0.45833 0.07855 0.86413 0.0
H492 H 0.50309 0.06685 0.9272 0.0
H493 H 0.48245 0.09799 0.96073 0.0
N494 N 0.49002 0.11414 0.90936 0.0
N495 N 0.48981 0.13989 0.90034 0.0
C496 C 0.48426 0.12187 0.89381 0.0
C497 C 0.49969 0.12779 0.92609 0.0
C498 C 0.4995 0.14357 0.92069 0.0
C499 C 0.51017 0.07967 0.87902 0.0
O500 O 0.49757 0.06204 0.8806 0.0
H501 H 0.47637 0.11451 0.87791 0.0
H502 H 0.50691 0.12658 0.94084 0.0
O503 O 0.46159 0.07129 0.90014 0.0
H504 H 0.49149 0.08243 0.9933 0.0
H505 H 0.50657 0.15692 0.93062 0.0
Cu506 Cu 0.94081 0.41377 0.90948 0.0
N507 N 0.94589 0.42609 0.93958 0.0
N508 N 0.95935 0.44764 0.9697 0.0
C509 C 0.9586 0.44402 0.94617 0.0
C510 C 0.94655 0.43133 0.97807 0.0
C511 C 0.93837 0.41815 0.95957 0.0
O512 O 0.9446 0.4321 0.8869 0.0
C513 C 0.95913 0.39454 0.88941 0.0
O514 O 0.95063 0.39256 0.8693 0.0
H515 H 0.96749 0.45401 0.93401 0.0
H516 H 0.92786 0.40365 0.96066 0.0
N517 N 0.91595 0.3944 0.90701 0.0
N518 N 0.88934 0.36853 0.89527 0.0
C519 C 0.90787 0.37828 0.89333 0.0
C520 C 0.90206 0.39483 0.91786 0.0
C521 C 0.88574 0.37898 0.91078 0.0
C522 C 0.9363 0.42753 0.86689 0.0
O523 O 0.92656 0.40978 0.8598 0.0
H524 H 0.91538 0.3739 0.88199 0.0
H525 H 0.90366 0.40618 0.9297 0.0
O526 O 0.95695 0.40334 0.90686 0.0
H527 H 0.94328 0.42901 0.9963 0.0
H528 H 0.87219 0.37575 0.91609 0.0
Cu529 Cu 0.64491 0.55722 0.88424 0.0
N530 N 0.62234 0.55629 0.88183 0.0
N531 N 0.59528 0.54971 0.89679 0.0
C532 C 0.61308 0.55527 0.90138 0.0
C533 C 0.5933 0.5473 0.87318 0.0
C534 C 0.61002 0.55136 0.86398 0.0
O535 O 0.63717 0.53373 0.89904 0.0
C536 C 0.66542 0.59489 0.88773 0.0
O537 O 0.65699 0.5907 0.86706 0.0
H538 H 0.61893 0.55685 0.91878 0.0
H539 H 0.61252 0.54942 0.84582 0.0
N540 N 0.65679 0.55704 0.85633 0.0
N541 N 0.68023 0.56088 0.83413 0.0
C542 C 0.67495 0.56308 0.85577 0.0
C543 C 0.65036 0.55097 0.8341 0.0
C544 C 0.66476 0.55319 0.82042 0.0
C545 C 0.62619 0.51949 0.88556 0.0
O546 O 0.62311 0.52206 0.86403 0.0
H547 H 0.68406 0.56861 0.87116 0.0
H548 H 0.63621 0.54511 0.82823 0.0
O549 O 0.66192 0.58151 0.90065 0.0
H550 H 0.5805 0.54212 0.8633 0.0
H551 H 0.66393 0.54951 0.80183 0.0
Cu552 Cu 0.60701 0.8875 0.73537 0.0
N553 N 0.62783 0.8849 0.73728 0.0
N554 N 0.64769 0.87872 0.75509 0.0
C555 C 0.63507 0.88402 0.75788 0.0
C556 C 0.64839 0.87621 0.73164 0.0
C557 C 0.63609 0.87993 0.72073 0.0
O558 O 0.58776 0.86307 0.74504 0.0
C559 C 0.62788 0.92443 0.74766 0.0
O560 O 0.63788 0.92121 0.7327 0.0
H561 H 0.63024 0.88608 0.77465 0.0
H562 H 0.63275 0.87817 0.70217 0.0
N563 N 0.60059 0.89199 0.70589 0.0
N564 N 0.58587 0.90057 0.6813 0.0
C565 C 0.58581 0.89384 0.70228 0.0
C566 C 0.61044 0.89782 0.68649 0.0
C567 C 0.60138 0.90306 0.67129 0.0
C568 C 0.57897 0.85 0.72908 0.0
O569 O 0.5798 0.85439 0.70727 0.0
H570 H 0.5758 0.89138 0.7155 0.0
H571 H 0.62374 0.89918 0.68408 0.0
O572 O 0.61279 0.91051 0.75381 0.0
H573 H 0.6568 0.87153 0.7229 0.0
H574 H 0.60614 0.90876 0.65447 0.0
Cu575 Cu 0.157 0.72084 0.69063 0.0
N576 N 0.14024 0.70668 0.71331 0.0
N577 N 0.11292 0.69185 0.73047 0.0
C578 C 0.12269 0.70285 0.71322 0.0
C579 C 0.12495 0.68865 0.74191 0.0
C580 C 0.14174 0.69774 0.73125 0.0
O581 O 0.15322 0.70279 0.66429 0.0
C582 C 0.1538 0.75013 0.7057 0.0
O583 O 0.15753 0.74451 0.72482 0.0
H584 H 0.11729 0.70819 0.70063 0.0
H585 H 0.154 0.69753 0.73601 0.0
N586 N 0.18221 0.73377 0.6995 0.0
N587 N 0.21226 0.75452 0.69623 0.0
C588 C 0.19502 0.74791 0.68755 0.0
C589 C 0.19167 0.73147 0.71662 0.0
C590 C 0.21023 0.74415 0.7145 0.0
C591 C 0.15983 0.69242 0.6685 0.0
O592 O 0.16835 0.69506 0.68878 0.0
H593 H 0.19174 0.7529 0.67227 0.0
H594 H 0.18562 0.7211 0.72943 0.0
O595 O 0.1524 0.74124 0.68611 0.0
H596 H 0.12179 0.67999 0.75659 0.0
H597 H 0.22135 0.74561 0.72554 0.0
Cu598 Cu 0.31089 0.44881 0.74601 0.0
N599 N 0.30354 0.44428 0.77711 0.0
N600 N 0.28641 0.43402 0.80877 0.0
C601 C 0.28718 0.43939 0.78671 0.0
C602 C 0.30297 0.43593 0.8133 0.0
C603 C 0.31343 0.44223 0.79384 0.0
O604 O 0.29079 0.44703 0.72681 0.0
C605 C 0.331 0.43312 0.72273 0.0
O606 O 0.33737 0.44725 0.70937 0.0
H607 H 0.27572 0.43874 0.77736 0.0
H608 H 0.32706 0.44435 0.79157 0.0
N609 N 0.33108 0.47327 0.74516 0.0
N610 N 0.3542 0.49976 0.73229 0.0
C611 C 0.33973 0.48257 0.72623 0.0
C612 C 0.34025 0.48515 0.76375 0.0
C613 C 0.35447 0.50146 0.7559 0.0
C614 C 0.27418 0.43358 0.7266 0.0
O615 O 0.27024 0.41867 0.73765 0.0
H616 H 0.33553 0.47687 0.70836 0.0
H617 H 0.337 0.48205 0.78182 0.0
O618 O 0.31876 0.4308 0.7374 0.0
H619 H 0.30703 0.43246 0.82931 0.0
H620 H 0.36461 0.5134 0.76676 0.0
Cu621 Cu 0.56125 0.93095 0.12857 0.0
N622 N 0.55567 0.93582 0.09915 0.0
N623 N 0.54845 0.94935 0.07169 0.0
C624 C 0.55082 0.94849 0.09487 0.0
C625 C 0.55193 0.93666 0.06104 0.0
C626 C 0.55636 0.92834 0.07802 0.0
O627 O 0.54516 0.93476 0.14998 0.0
C628 C 0.59762 0.94798 0.15097 0.0
O629 O 0.58963 0.93717 0.16824 0.0
H630 H 0.54953 0.95723 0.10852 0.0
H631 H 0.56 0.9177 0.07517 0.0
N632 N 0.55557 0.90602 0.12806 0.0
N633 N 0.55713 0.8803 0.13236 0.0
C634 C 0.56651 0.8992 0.13335 0.0
C635 C 0.53882 0.89095 0.12327 0.0
C636 C 0.53971 0.87513 0.12593 0.0
C637 C 0.53722 0.92489 0.16718 0.0
O638 O 0.54179 0.91287 0.17355 0.0
H639 H 0.58093 0.90788 0.13838 0.0
H640 H 0.52671 0.89149 0.11854 0.0
O641 O 0.58775 0.94784 0.13403 0.0
H642 H 0.55125 0.93351 0.04233 0.0
H643 H 0.52835 0.8609 0.1233 0.0
Cu644 Cu 0.11955 0.64865 0.11867 0.0
N645 N 0.12028 0.66569 0.09801 0.0
N646 N 0.11186 0.68558 0.08619 0.0
C647 C 0.10709 0.67021 0.09791 0.0
C648 C 0.12888 0.69092 0.0785 0.0
C649 C 0.13407 0.67869 0.08593 0.0
O650 O 0.12946 0.66468 0.14792 0.0
C651 C 0.08974 0.62081 0.09431 0.0
O652 O 0.10176 0.62946 0.07825 0.0
H653 H 0.09479 0.66313 0.10793 0.0
H654 H 0.14737 0.67994 0.08397 0.0
N655 N 0.13374 0.63751 0.11193 0.0
N656 N 0.14355 0.61732 0.11586 0.0
C657 C 0.13234 0.62338 0.12387 0.0
C658 C 0.14621 0.64049 0.09555 0.0
C659 C 0.15238 0.62814 0.09805 0.0
C660 C 0.14703 0.67501 0.14929 0.0
O661 O 0.15672 0.67242 0.13323 0.0
H662 H 0.12331 0.61777 0.13838 0.0
H663 H 0.15047 0.65083 0.0827 0.0
O664 O 0.09417 0.62715 0.1157 0.0
H665 H 0.13728 0.70318 0.06897 0.0
H666 H 0.16235 0.62703 0.08732 0.0
Cu667 Cu 0.41002 0.48019 0.08888 0.0
N668 N 0.43299 0.48193 0.09075 0.0
N669 N 0.4602 0.48902 0.07585 0.0
C670 C 0.44226 0.48283 0.07124 0.0
C671 C 0.46228 0.49206 0.09942 0.0
C672 C 0.44547 0.48775 0.10856 0.0
O673 O 0.41755 0.50663 0.08703 0.0
C674 C 0.39593 0.4461 0.06707 0.0
O675 O 0.40356 0.44551 0.08676 0.0
H676 H 0.43625 0.48064 0.0538 0.0
H677 H 0.44292 0.49009 0.1266 0.0
N678 N 0.39446 0.47053 0.11432 0.0
N679 N 0.36853 0.46016 0.13432 0.0
C680 C 0.37778 0.46896 0.1154 0.0
C681 C 0.3959 0.46245 0.13327 0.0
C682 C 0.37991 0.45602 0.14561 0.0
C683 C 0.4209 0.51606 0.10671 0.0
O684 O 0.41625 0.50712 0.12598 0.0
H685 H 0.3723 0.47363 0.10202 0.0
H686 H 0.40753 0.46096 0.1375 0.0
O687 O 0.39674 0.46141 0.06286 0.0
H688 H 0.47516 0.49785 0.1093 0.0
H689 H 0.3769 0.44879 0.16159 0.0
Cu690 Cu 0.10313 0.47702 0.60766 0.0
N691 N 0.08296 0.48045 0.60974 0.0
N692 N 0.06417 0.48852 0.59319 0.0
C693 C 0.07374 0.47968 0.59011 0.0
C694 C 0.06723 0.49481 0.61598 0.0
C695 C 0.07902 0.49001 0.62608 0.0
O696 O 0.12005 0.49965 0.59192 0.0
C697 C 0.08047 0.43935 0.60236 0.0
O698 O 0.07388 0.44437 0.62027 0.0
H699 H 0.0754 0.47411 0.57337 0.0
H700 H 0.08565 0.49482 0.64328 0.0
N701 N 0.11369 0.4761 0.63608 0.0
N702 N 0.13199 0.47101 0.65903 0.0
C703 C 0.12846 0.474 0.6372 0.0
C704 C 0.10746 0.47417 0.658 0.0
C705 C 0.11875 0.47104 0.67221 0.0
C706 C 0.13305 0.51387 0.60347 0.0
O707 O 0.13908 0.51155 0.62337 0.0
H708 H 0.136 0.47386 0.62198 0.0
H709 H 0.09518 0.47425 0.66309 0.0
O710 O 0.09413 0.45214 0.59203 0.0
H711 H 0.0627 0.50371 0.62422 0.0
H712 H 0.11716 0.46868 0.69069 0.0
Cu713 Cu 0.55612 0.63963 0.6239 0.0
N714 N 0.55843 0.61838 0.62149 0.0
N715 N 0.5557 0.59264 0.60292 0.0
C716 C 0.54866 0.60393 0.6056 0.0
C717 C 0.57054 0.60028 0.61778 0.0
C718 C 0.5722 0.61617 0.6292 0.0
O719 O 0.53042 0.63067 0.61516 0.0
C720 C 0.59173 0.66738 0.61512 0.0
O721 O 0.59325 0.66592 0.63762 0.0
H722 H 0.5375 0.60261 0.59478 0.0
H723 H 0.58337 0.62609 0.64098 0.0
N724 N 0.55907 0.6513 0.65399 0.0
N725 N 0.56058 0.6729 0.6806 0.0
C726 C 0.55724 0.66634 0.65792 0.0
C727 C 0.56365 0.64804 0.67498 0.0
C728 C 0.56468 0.66142 0.69143 0.0
C729 C 0.5195 0.61785 0.62817 0.0
O730 O 0.52645 0.6125 0.64442 0.0
H731 H 0.55398 0.67264 0.6441 0.0
H732 H 0.56629 0.63693 0.67804 0.0
O733 O 0.57593 0.65753 0.60472 0.0
H734 H 0.57996 0.59521 0.61953 0.0
H735 H 0.56811 0.66253 0.7099 0.0
Cu736 Cu 0.42155 0.93829 0.57143 0.0
N737 N 0.4297 0.94161 0.54043 0.0
N738 N 0.44691 0.95255 0.50888 0.0
C739 C 0.44693 0.95028 0.53214 0.0
C740 C 0.42904 0.94484 0.5023 0.0
C741 C 0.41853 0.93811 0.52167 0.0
O742 O 0.44047 0.93912 0.59242 0.0
C743 C 0.40725 0.96019 0.5959 0.0
O744 O 0.40705 0.95235 0.61526 0.0
H745 H 0.45929 0.9557 0.54298 0.0
H746 H 0.40376 0.93184 0.52231 0.0
N747 N 0.401 0.91406 0.57259 0.0
N748 N 0.37597 0.88859 0.58449 0.0
C749 C 0.38673 0.90742 0.5872 0.0
C750 C 0.39904 0.89892 0.56022 0.0
C751 C 0.38371 0.88326 0.5675 0.0
C752 C 0.45737 0.95184 0.59514 0.0
O753 O 0.46325 0.96774 0.58546 0.0
H754 H 0.38472 0.91606 0.60025 0.0
H755 H 0.40852 0.89923 0.54731 0.0
O756 O 0.41364 0.95656 0.57747 0.0
H757 H 0.42396 0.94454 0.48481 0.0
H758 H 0.37876 0.869 0.56102 0.0
Cu759 Cu 0.16507 0.42711 0.22567 0.0
N760 N 0.17205 0.42244 0.25483 0.0
N761 N 0.17828 0.40808 0.28249 0.0
C762 C 0.1705 0.4063 0.26106 0.0
C763 C 0.18461 0.42598 0.29022 0.0
C764 C 0.18073 0.43472 0.27326 0.0
O765 O 0.18129 0.4254 0.20227 0.0
C766 C 0.12771 0.40863 0.20456 0.0
O767 O 0.13484 0.41824 0.18611 0.0
H768 H 0.16371 0.39344 0.25016 0.0
H769 H 0.18433 0.44916 0.27425 0.0
N770 N 0.17075 0.45216 0.22568 0.0
N771 N 0.17201 0.4784 0.2153 0.0
C772 C 0.1616 0.45953 0.21552 0.0
C773 C 0.18739 0.46691 0.23207 0.0
C774 C 0.18817 0.48298 0.2259 0.0
C775 C 0.18504 0.41243 0.1996 0.0
O776 O 0.17491 0.39677 0.20972 0.0
H777 H 0.14808 0.45124 0.2072 0.0
H778 H 0.19861 0.46595 0.23952 0.0
O779 O 0.13834 0.40998 0.22136 0.0
H780 H 0.19208 0.43255 0.30665 0.0
H781 H 0.2 0.49695 0.22838 0.0
Cu782 Cu 0.61321 0.73072 0.23554 0.0
N783 N 0.61811 0.74161 0.26637 0.0
N784 N 0.63058 0.76286 0.29691 0.0
C785 C 0.62883 0.7599 0.27327 0.0
C786 C 0.62049 0.74572 0.30509 0.0
C787 C 0.61285 0.73271 0.28629 0.0
O788 O 0.61716 0.75073 0.21575 0.0
C789 C 0.63108 0.71164 0.21341 0.0
O790 O 0.62141 0.70905 0.19413 0.0
H791 H 0.63568 0.77074 0.26115 0.0
H792 H 0.6043 0.71774 0.28706 0.0
N793 N 0.58831 0.71146 0.23207 0.0
N794 N 0.56149 0.68684 0.21798 0.0
C795 C 0.58007 0.69652 0.21637 0.0
C796 C 0.5745 0.71116 0.24402 0.0
C797 C 0.55807 0.69612 0.23548 0.0
C798 C 0.60844 0.74817 0.19643 0.0
O799 O 0.59817 0.73111 0.187 0.0
H800 H 0.5875 0.69304 0.20373 0.0
H801 H 0.57623 0.72158 0.25755 0.0
O802 O 0.62975 0.7208 0.23114 0.0
H803 H 0.61872 0.74274 0.32339 0.0
H804 H 0.5446 0.69277 0.24125 0.0
Cu805 Cu 0.31505 0.88875 0.26378 0.0
N806 N 0.30396 0.8835 0.29287 0.0
N807 N 0.28228 0.87573 0.31962 0.0
C808 C 0.28596 0.87675 0.29656 0.0
C809 C 0.29871 0.88212 0.33079 0.0
C810 C 0.31203 0.88697 0.31428 0.0
O811 O 0.29609 0.86936 0.24157 0.0
C812 C 0.32995 0.92538 0.24366 0.0
O813 O 0.33242 0.91819 0.22396 0.0
H814 H 0.27591 0.87328 0.28255 0.0
H815 H 0.32662 0.89295 0.31767 0.0
N816 N 0.33637 0.88676 0.26474 0.0
N817 N 0.36431 0.89043 0.25846 0.0
C818 C 0.35187 0.89531 0.25231 0.0
C819 C 0.33917 0.87621 0.27918 0.0
C820 C 0.35616 0.87833 0.27532 0.0
C821 C 0.29157 0.85258 0.24524 0.0
O822 O 0.30052 0.84997 0.26192 0.0
H823 H 0.35406 0.90508 0.2393 0.0
H824 H 0.32948 0.86748 0.29172 0.0
O825 O 0.32231 0.91492 0.26048 0.0
H826 H 0.30104 0.88335 0.34957 0.0
H827 H 0.36186 0.87122 0.2842 0.0
C828 C 0.31382 0.21262 0.11488 0.0
C829 C 0.30893 0.20619 0.09123 0.0
C830 C 0.32617 0.20943 0.12721 0.0
C831 C 0.36241 0.19708 0.11842 0.0
H832 H 0.35431 0.18523 0.18349 0.0
C833 C 0.40357 0.17074 0.16781 0.0
C834 C 0.40945 0.1776 0.19117 0.0
C835 C 0.39153 0.17459 0.15596 0.0
C836 C 0.3569 0.18873 0.16541 0.0
H837 H 0.3131 0.19103 0.06222 0.0
H838 H 0.33447 0.18534 0.08369 0.0
H839 H 0.33289 0.19101 0.16219 0.0
H840 H 0.40713 0.19407 0.22019 0.0
H841 H 0.38602 0.20068 0.19955 0.0
H842 H 0.38633 0.19464 0.1216 0.0
C843 C 0.32903 0.19319 0.09263 0.0
C844 C 0.34461 0.19207 0.15316 0.0
C845 C 0.31673 0.19644 0.08027 0.0
C846 C 0.40279 0.18835 0.20236 0.0
C847 C 0.39066 0.19216 0.19049 0.0
C848 C 0.37466 0.19369 0.13065 0.0
C849 C 0.33396 0.19966 0.11628 0.0
C850 C 0.34715 0.19624 0.12945 0.0
C851 C 0.38491 0.18537 0.1671 0.0
C852 C 0.37205 0.1894 0.15429 0.0
H853 H 0.30835 0.22043 0.12383 0.0
H854 H 0.32983 0.21492 0.14525 0.0
H855 H 0.36506 0.2006 0.10036 0.0
H856 H 0.40801 0.1621 0.15864 0.0
H857 H 0.38715 0.16883 0.13812 0.0
C858 C 0.85061 0.1244 0.10278 0.0
C859 C 0.83154 0.11181 0.09987 0.0
C860 C 0.85744 0.14021 0.11839 0.0
C861 C 0.8459 0.17181 0.1516 0.0
H862 H 0.88155 0.17603 0.19791 0.0
C863 C 0.86625 0.22287 0.23362 0.0
C864 C 0.88441 0.23167 0.2427 0.0
C865 C 0.85995 0.20846 0.21597 0.0
C866 C 0.87186 0.17536 0.18496 0.0
H867 H 0.80474 0.10679 0.10989 0.0
H868 H 0.81669 0.13472 0.13657 0.0
H869 H 0.87092 0.152 0.16591 0.0
H870 H 0.91023 0.23225 0.24036 0.0
H871 H 0.89955 0.20754 0.2091 0.0
H872 H 0.84707 0.19538 0.17014 0.0
C873 C 0.82633 0.13217 0.12699 0.0
C874 C 0.86573 0.1615 0.1666 0.0
C875 C 0.81949 0.11618 0.11168 0.0
C876 C 0.89608 0.22553 0.23396 0.0
C877 C 0.88989 0.21131 0.216 0.0
C878 C 0.85225 0.18589 0.16974 0.0
C879 C 0.84538 0.14401 0.13113 0.0
C880 C 0.85258 0.15947 0.1498 0.0
C881 C 0.87175 0.20264 0.20656 0.0
C882 C 0.86522 0.1878 0.18687 0.0
H883 H 0.86034 0.1215 0.0941 0.0
H884 H 0.8722 0.14921 0.121 0.0
H885 H 0.83587 0.17068 0.13882 0.0
H886 H 0.85691 0.22722 0.24019 0.0
H887 H 0.84577 0.20189 0.20975 0.0
C888 C 0.82924 0.67817 0.24342 0.0
C889 C 0.81582 0.65903 0.24103 0.0
C890 C 0.8419 0.68672 0.22578 0.0
C891 C 0.84918 0.68049 0.16236 0.0
H892 H 0.89997 0.71777 0.17852 0.0
C893 C 0.90498 0.70977 0.09191 0.0
C894 C 0.91874 0.72878 0.0944 0.0
C895 C 0.89256 0.70129 0.10978 0.0
C896 C 0.88579 0.70756 0.17361 0.0
H897 H 0.80583 0.63388 0.21814 0.0
H898 H 0.82768 0.6487 0.18764 0.0
H899 H 0.87833 0.70326 0.20951 0.0
H900 H 0.92975 0.75377 0.11775 0.0
H901 H 0.90818 0.73912 0.14862 0.0
H902 H 0.85658 0.68484 0.12649 0.0
C903 C 0.82822 0.65724 0.20294 0.0
C904 C 0.87334 0.6992 0.19147 0.0
C905 C 0.81561 0.6487 0.22055 0.0
C906 C 0.91963 0.73905 0.11526 0.0
C907 C 0.90719 0.73059 0.13308 0.0
C908 C 0.86162 0.68888 0.14451 0.0
C909 C 0.84152 0.6764 0.2052 0.0
C910 C 0.85484 0.68551 0.18614 0.0
C911 C 0.89345 0.71156 0.13068 0.0
C912 C 0.88014 0.70255 0.14981 0.0
H913 H 0.82979 0.68668 0.25873 0.0
H914 H 0.85177 0.70154 0.2281 0.0
H915 H 0.83501 0.67025 0.15748 0.0
H916 H 0.90396 0.70132 0.07629 0.0
H917 H 0.88241 0.68656 0.10732 0.0
C918 C 0.20486 0.2888 0.36175 0.0
C919 C 0.20807 0.29063 0.38618 0.0
C920 C 0.20177 0.3015 0.35044 0.0
C921 C 0.20754 0.34895 0.35822 0.0
H922 H 0.17088 0.33041 0.30745 0.0
C923 C 0.1837 0.39593 0.3185 0.0
C924 C 0.1806 0.39432 0.29406 0.0
C925 C 0.18683 0.38319 0.3296 0.0
C926 C 0.18132 0.33591 0.32141 0.0
H927 H 0.21043 0.30749 0.41774 0.0
H928 H 0.20508 0.32953 0.39812 0.0
H929 H 0.17706 0.3088 0.32683 0.0
H930 H 0.17841 0.37776 0.26229 0.0
H931 H 0.18381 0.3556 0.28158 0.0
H932 H 0.21179 0.37605 0.35282 0.0
C933 C 0.20522 0.31841 0.38759 0.0
C934 C 0.18489 0.32347 0.33256 0.0
C935 C 0.20832 0.30572 0.3989 0.0
C936 C 0.18046 0.37937 0.28113 0.0
C937 C 0.18359 0.36662 0.29225 0.0
C938 C 0.20396 0.36138 0.34708 0.0
C939 C 0.20178 0.31644 0.36319 0.0
C940 C 0.19805 0.32978 0.35116 0.0
C941 C 0.18697 0.3684 0.31665 0.0
C942 C 0.19078 0.35506 0.32851 0.0
H943 H 0.20481 0.27757 0.35127 0.0
H944 H 0.19952 0.29966 0.33161 0.0
H945 H 0.21799 0.35445 0.37217 0.0
H946 H 0.18363 0.40701 0.32916 0.0
H947 H 0.189 0.38486 0.34845 0.0
C948 C 0.6451 0.79736 0.30173 0.0
C949 C 0.6414 0.78046 0.3106 0.0
C950 C 0.65558 0.81437 0.31497 0.0
C951 C 0.67392 0.83499 0.37588 0.0
H952 H 0.70645 0.87873 0.34287 0.0
C953 C 0.73053 0.90761 0.42056 0.0
C954 C 0.73297 0.92346 0.40989 0.0
C955 C 0.71798 0.88956 0.41063 0.0
C956 C 0.6973 0.86671 0.35241 0.0
H957 H 0.64617 0.7684 0.34046 0.0
H958 H 0.66465 0.79796 0.3633 0.0
H959 H 0.68795 0.84887 0.32101 0.0
H960 H 0.7233 0.93282 0.38161 0.0
H961 H 0.70135 0.9017 0.36483 0.0
H962 H 0.68375 0.85307 0.40741 0.0
C963 C 0.6591 0.79809 0.34631 0.0
C964 C 0.68659 0.8495 0.3398 0.0
C965 C 0.64849 0.78107 0.33313 0.0
C966 C 0.72177 0.92089 0.39021 0.0
C967 C 0.70931 0.90302 0.38042 0.0
C968 C 0.68479 0.85227 0.38856 0.0
C969 C 0.66287 0.81505 0.33743 0.0
C970 C 0.67456 0.83336 0.35125 0.0
C971 C 0.70774 0.88712 0.38988 0.0
C972 C 0.69646 0.86841 0.37693 0.0
H973 H 0.63965 0.79744 0.28464 0.0
H974 H 0.65779 0.82699 0.30761 0.0
H975 H 0.66474 0.82298 0.3854 0.0
H976 H 0.73918 0.90916 0.43549 0.0
H977 H 0.71711 0.87761 0.41839 0.0
C978 C 0.14266 0.8396 0.42558 0.0
C979 C 0.126 0.8289 0.41254 0.0
C980 C 0.15949 0.84446 0.41548 0.0
C981 C 0.18123 0.84871 0.3579 0.0
H982 H 0.2196 0.84855 0.39484 0.0
C983 C 0.24811 0.85842 0.31719 0.0
C984 C 0.26472 0.86995 0.33008 0.0
C985 C 0.23114 0.85314 0.32717 0.0
C986 C 0.20911 0.84884 0.38433 0.0
H987 H 0.1141 0.8147 0.37863 0.0
H988 H 0.14334 0.82305 0.3611 0.0
H989 H 0.19024 0.83996 0.41229 0.0
H990 H 0.27627 0.88503 0.36371 0.0
H991 H 0.2468 0.87576 0.38106 0.0
H992 H 0.20011 0.85753 0.32992 0.0
C993 C 0.14345 0.828 0.37904 0.0
C994 C 0.19225 0.84394 0.39436 0.0
C995 C 0.12663 0.82319 0.38912 0.0
C996 C 0.26385 0.87592 0.3533 0.0
C997 C 0.24689 0.8706 0.36329 0.0
C998 C 0.19808 0.85357 0.34785 0.0
C999 C 0.16013 0.83871 0.39207 0.0
C1000 C 0.17808 0.84384 0.38131 0.0
C1001 C 0.23031 0.85919 0.35035 0.0
C1002 C 0.21226 0.85375 0.36095 0.0
H1003 H 0.14275 0.8445 0.44352 0.0
H1004 H 0.17204 0.85299 0.42596 0.0
H1005 H 0.17078 0.84909 0.3474 0.0
H1006 H 0.24815 0.85328 0.29942 0.0
H1007 H 0.21865 0.84411 0.3168 0.0
C1008 C 0.66329 0.86232 0.76906 0.0
C1009 C 0.65695 0.87484 0.77343 0.0
C1010 C 0.67161 0.85807 0.78703 0.0
C1011 C 0.69452 0.87522 0.84639 0.0
H1012 H 0.6836 0.82431 0.84951 0.0
C1013 C 0.71983 0.85201 0.92525 0.0
C1014 C 0.72607 0.83946 0.92039 0.0
C1015 C 0.71098 0.85609 0.90775 0.0
C1016 C 0.687 0.83866 0.84882 0.0
H1017 H 0.65491 0.89299 0.80038 0.0
H1018 H 0.66913 0.88543 0.83163 0.0
H1019 H 0.66955 0.83207 0.81827 0.0
H1020 H 0.7272 0.82095 0.89316 0.0
H1021 H 0.71217 0.82824 0.86275 0.0
H1022 H 0.71203 0.88182 0.87688 0.0
C1023 C 0.66778 0.87895 0.81424 0.0
C1024 C 0.67892 0.84313 0.83081 0.0
C1025 C 0.65941 0.88315 0.79629 0.0
C1026 C 0.72283 0.83084 0.8976 0.0
C1027 C 0.71398 0.83489 0.88014 0.0
C1028 C 0.70263 0.87075 0.86439 0.0
C1029 C 0.67392 0.86626 0.80994 0.0
C1030 C 0.68257 0.86149 0.82926 0.0
C1031 C 0.70802 0.84769 0.88485 0.0
C1032 C 0.69904 0.8524 0.86588 0.0
H1033 H 0.66155 0.85549 0.75182 0.0
H1034 H 0.67634 0.84842 0.78288 0.0
H1035 H 0.69792 0.88956 0.84567 0.0
H1036 H 0.72213 0.85906 0.94245 0.0
H1037 H 0.7064 0.86582 0.91223 0.0
C1038 C 0.2009 0.90615 0.78544 0.0
C1039 C 0.1934 0.90646 0.8073 0.0
C1040 C 0.19469 0.88933 0.772 0.0
C1041 C 0.16976 0.83796 0.77742 0.0
H1042 H 0.16781 0.83575 0.70949 0.0
C1043 C 0.14113 0.76788 0.72564 0.0
C1044 C 0.1524 0.76704 0.7082 0.0
C1045 C 0.14387 0.78503 0.73469 0.0
C1046 C 0.16833 0.83617 0.72844 0.0
H1047 H 0.1731 0.8893 0.83181 0.0
H1048 H 0.16198 0.86003 0.80829 0.0
H1049 H 0.17703 0.86525 0.73184 0.0
H1050 H 0.17477 0.78338 0.68563 0.0
H1051 H 0.17958 0.81361 0.70135 0.0
H1052 H 0.16109 0.80897 0.77411 0.0
C1053 C 0.17302 0.87272 0.80171 0.0
C1054 C 0.17369 0.8531 0.74131 0.0
C1055 C 0.17936 0.88953 0.81524 0.0
C1056 C 0.16559 0.78364 0.69865 0.0
C1057 C 0.16843 0.80094 0.70784 0.0
C1058 C 0.16428 0.82108 0.76461 0.0
C1059 C 0.1807 0.87233 0.77995 0.0
C1060 C 0.17453 0.85425 0.76602 0.0
C1061 C 0.15816 0.80183 0.72675 0.0
C1062 C 0.16348 0.81992 0.73997 0.0
H1063 H 0.21192 0.91887 0.77892 0.0
H1064 H 0.20121 0.88965 0.75562 0.0
H1065 H 0.17064 0.83827 0.79633 0.0
H1066 H 0.13101 0.75528 0.73348 0.0
H1067 H 0.13545 0.78517 0.74887 0.0
C1068 C 0.15776 0.3459 0.93535 0.0
C1069 C 0.14671 0.35344 0.94175 0.0
C1070 C 0.17315 0.35572 0.92171 0.0
C1071 C 0.1921 0.39027 0.87772 0.0
H1072 H 0.2389 0.39606 0.89637 0.0
C1073 C 0.25792 0.4318 0.82404 0.0
C1074 C 0.27063 0.42569 0.82343 0.0
C1075 C 0.24291 0.42389 0.83884 0.0
C1076 C 0.2259 0.39434 0.89059 0.0
H1077 H 0.14306 0.3771 0.93871 0.0
H1078 H 0.16985 0.39416 0.91442 0.0
H1079 H 0.21267 0.38045 0.92132 0.0
H1080 H 0.27707 0.4059 0.83699 0.0
H1081 H 0.25079 0.3917 0.86194 0.0
H1082 H 0.20502 0.40348 0.84656 0.0
C1083 C 0.16664 0.38072 0.92018 0.0
C1084 C 0.21088 0.38548 0.90506 0.0
C1085 C 0.15142 0.37104 0.93423 0.0
C1086 C 0.26776 0.41122 0.83747 0.0
C1087 C 0.25267 0.40312 0.85191 0.0
C1088 C 0.20707 0.39888 0.863 0.0
C1089 C 0.17768 0.37315 0.91379 0.0
C1090 C 0.19379 0.38325 0.89875 0.0
C1091 C 0.24009 0.40946 0.8531 0.0
C1092 C 0.22419 0.40093 0.86912 0.0
H1093 H 0.1545 0.33241 0.94098 0.0
H1094 H 0.18134 0.34948 0.91697 0.0
H1095 H 0.17904 0.38862 0.87232 0.0
H1096 H 0.25984 0.44298 0.81347 0.0
H1097 H 0.23372 0.42935 0.83937 0.0
C1098 C 0.81424 0.68949 0.56825 0.0
C1099 C 0.81874 0.69122 0.54447 0.0
C1100 C 0.81934 0.67968 0.58259 0.0
C1101 C 0.85237 0.663 0.5868 0.0
H1102 H 0.81953 0.6318 0.63345 0.0
C1103 C 0.86727 0.61394 0.63777 0.0
C1104 C 0.86313 0.61208 0.66164 0.0
C1105 C 0.86186 0.6237 0.62386 0.0
C1106 C 0.82898 0.64063 0.62072 0.0
H1107 H 0.83212 0.68374 0.51728 0.0
H1108 H 0.84069 0.66641 0.54209 0.0
H1109 H 0.80986 0.64817 0.60837 0.0
H1110 H 0.84988 0.61915 0.68945 0.0
H1111 H 0.8407 0.63643 0.66529 0.0
H1112 H 0.87148 0.6555 0.59912 0.0
C1113 C 0.8334 0.67285 0.54975 0.0
C1114 C 0.82341 0.65003 0.60629 0.0
C1115 C 0.82827 0.68263 0.53539 0.0
C1116 C 0.85346 0.62038 0.67122 0.0
C1117 C 0.84801 0.63013 0.65727 0.0
C1118 C 0.85792 0.65362 0.60122 0.0
C1119 C 0.82911 0.67133 0.5736 0.0
C1120 C 0.83501 0.6613 0.58906 0.0
C1121 C 0.85213 0.63193 0.63337 0.0
C1122 C 0.84629 0.64224 0.61834 0.0
H1123 H 0.80674 0.6957 0.57585 0.0
H1124 H 0.81591 0.67896 0.60088 0.0
H1125 H 0.86183 0.67183 0.57408 0.0
H1126 H 0.87486 0.60798 0.62976 0.0
H1127 H 0.86512 0.62457 0.6055 0.0
C1128 C 0.39871 0.25141 0.78325 0.0
C1129 C 0.40083 0.26723 0.7729 0.0
C1130 C 0.38556 0.23339 0.77397 0.0
C1131 C 0.36339 0.21094 0.7166 0.0
H1132 H 0.33342 0.1665 0.74978 0.0
C1133 C 0.31378 0.1404 0.66639 0.0
C1134 C 0.31162 0.12403 0.67517 0.0
C1135 C 0.3234 0.15753 0.67957 0.0
C1136 C 0.34186 0.17872 0.74021 0.0
H1137 H 0.38999 0.27673 0.74618 0.0
H1138 H 0.36683 0.24559 0.7306 0.0
H1139 H 0.35167 0.19669 0.7718 0.0
H1140 H 0.31821 0.11301 0.70464 0.0
H1141 H 0.33526 0.14281 0.72734 0.0
H1142 H 0.3542 0.1932 0.68514 0.0
C1143 C 0.37549 0.24691 0.74542 0.0
C1144 C 0.35227 0.19605 0.75289 0.0
C1145 C 0.38858 0.26476 0.75456 0.0
C1146 C 0.31936 0.12527 0.69746 0.0
C1147 C 0.32912 0.14241 0.71055 0.0
C1148 C 0.35316 0.19368 0.70399 0.0
C1149 C 0.3744 0.231 0.75422 0.0
C1150 C 0.36307 0.2124 0.7412 0.0
C1151 C 0.33133 0.15884 0.70181 0.0
C1152 C 0.34216 0.17728 0.71554 0.0
H1153 H 0.40823 0.25292 0.79707 0.0
H1154 H 0.38508 0.22143 0.78117 0.0
H1155 H 0.3719 0.22316 0.70702 0.0
H1156 H 0.30778 0.13992 0.64947 0.0
H1157 H 0.32444 0.16974 0.67235 0.0
C1158 C 0.8931 0.1988 0.59963 0.0
C1159 C 0.90619 0.19328 0.60189 0.0
C1160 C 0.87985 0.19488 0.6167 0.0
C1161 C 0.87029 0.1822 0.6789 0.0
H1162 H 0.82047 0.1686 0.6615 0.0
C1163 C 0.81189 0.15524 0.74598 0.0
C1164 C 0.799 0.16112 0.74457 0.0
C1165 C 0.82487 0.1592 0.72857 0.0
C1166 C 0.83437 0.17257 0.66674 0.0
H1167 H 0.91489 0.17847 0.62358 0.0
H1168 H 0.89197 0.17161 0.65298 0.0
H1169 H 0.84293 0.1754 0.63119 0.0
H1170 H 0.79025 0.17631 0.72366 0.0
H1171 H 0.81268 0.18308 0.69355 0.0
H1172 H 0.86174 0.17934 0.71443 0.0
C1173 C 0.89217 0.17944 0.63841 0.0
C1174 C 0.8473 0.1765 0.64929 0.0
C1175 C 0.90539 0.18339 0.62144 0.0
C1176 C 0.79961 0.17118 0.72527 0.0
C1177 C 0.81256 0.17509 0.70789 0.0
C1178 C 0.85736 0.17825 0.69633 0.0
C1179 C 0.87929 0.18525 0.63647 0.0
C1180 C 0.86546 0.18133 0.65508 0.0
C1181 C 0.82537 0.16914 0.70921 0.0
C1182 C 0.83919 0.17334 0.69054 0.0
H1183 H 0.89335 0.20654 0.58495 0.0
H1184 H 0.8703 0.19975 0.61463 0.0
H1185 H 0.88419 0.18621 0.68419 0.0
H1186 H 0.8118 0.1473 0.76033 0.0
H1187 H 0.83433 0.15415 0.73011 0.0
C1188 C 0.98481 0.53259 0.45301 0.0
C1189 C 0.99056 0.5339 0.42971 0.0
C1190 C 0.99311 0.52804 0.47054 0.0
C1191 C 1.02043 0.50544 0.47974 0.0
H1192 H 0.02937 0.52991 0.54202 0.0
C1193 C 0.0614 0.49444 0.55175 0.0
C1194 C 0.05562 0.49328 0.575 0.0
C1195 C 0.05349 0.4994 0.5342 0.0
C1196 C 1.02676 0.52275 0.52483 0.0
H1197 H 1.00983 0.53152 0.40693 0.0
H1198 H 1.02433 0.52355 0.43757 0.0
H1199 H 1.01618 0.53891 0.51109 0.0
H1200 H 0.03684 0.49649 0.59779 0.0
H1201 H 1.02288 0.50504 0.56709 0.0
H1202 H 0.03093 0.48922 0.49348 0.0
C1203 C 1.01322 0.5259 0.44215 0.0
C1204 C 1.01921 0.52795 0.50703 0.0
C1205 C 1.00492 0.53051 0.42455 0.0
C1206 C 0.0417 0.49733 0.58016 0.0
C1207 C 0.03374 0.50229 0.56253 0.0
C1208 C 0.02795 0.50022 0.49755 0.0
C1209 C 1.0074 0.52458 0.4654 0.0
C1210 C 1.01591 0.51936 0.48423 0.0
C1211 C 0.03953 0.50339 0.53927 0.0
C1212 C 0.03123 0.5088 0.52037 0.0
H1213 H 0.97356 0.53461 0.45778 0.0
H1214 H 0.98799 0.5268 0.48809 0.0
H1215 H 1.01781 0.49828 0.46254 0.0
H1216 H 0.07238 0.49194 0.54708 0.0
H1217 H 0.05861 0.50048 0.51667 0.0
C1218 C 0.49002 0.45541 0.46467 0.0
C1219 C 0.50252 0.45286 0.45114 0.0
C1220 C 0.49567 0.47244 0.47737 0.0
C1221 C 0.5368 0.50938 0.50856 0.0
H1222 H 0.50927 0.53466 0.51724 0.0
C1223 C 0.56295 0.57429 0.57384 0.0
C1224 C 0.54996 0.57736 0.58537 0.0
C1225 C 0.55742 0.56016 0.55585 0.0
C1226 C 0.51704 0.52765 0.51538 0.0
H1227 H 0.53059 0.46617 0.43989 0.0
H1228 H 0.54053 0.49598 0.46204 0.0
H1229 H 0.49891 0.50891 0.48744 0.0
H1230 H 0.52093 0.56766 0.58743 0.0
H1231 H 0.51112 0.54253 0.55692 0.0
H1232 H 0.5544 0.52726 0.53709 0.0
C1233 C 0.52628 0.48491 0.46257 0.0
C1234 C 0.51114 0.51296 0.49807 0.0
C1235 C 0.52052 0.46798 0.44955 0.0
C1236 C 0.53127 0.56574 0.57873 0.0
C1237 C 0.52569 0.5514 0.56103 0.0
C1238 C 0.54252 0.52383 0.52612 0.0
C1239 C 0.51409 0.48711 0.4773 0.0
C1240 C 0.52094 0.50363 0.49447 0.0
C1241 C 0.53868 0.54844 0.54911 0.0
C1242 C 0.53272 0.5332 0.52993 0.0
H1243 H 0.47625 0.44378 0.46682 0.0
H1244 H 0.48597 0.4736 0.48867 0.0
H1245 H 0.54447 0.50225 0.50658 0.0
H1246 H 0.57747 0.58319 0.57825 0.0
H1247 H 0.56796 0.55873 0.54695 0.0
C1248 C 0.56807 0.04877 0.3753 0.0
C1249 C 0.58138 0.04382 0.37066 0.0
C1250 C 0.55363 0.03854 0.39019 0.0
C1251 C 0.53003 0.99364 0.42094 0.0
H1252 H 0.51021 0.01974 0.45701 0.0
C1253 C 0.4785 0.96175 0.49676 0.0
C1254 C 0.46255 0.96289 0.49445 0.0
C1255 C 0.49337 0.9714 0.48208 0.0
C1256 C 0.51559 1.01225 0.44702 0.0
H1257 H 0.59008 0.02431 0.37823 0.0
H1258 H 0.56545 1.00688 0.40488 0.0
H1259 H 0.53526 0.03679 0.43083 0.0
H1260 H 0.44993 0.97547 0.47548 0.0
H1261 H 0.47597 0.99265 0.45041 0.0
H1262 H 0.51058 0.96923 0.43804 0.0
C1263 C 0.56563 1.01826 0.39646 0.0
C1264 C 0.52989 0.02199 0.43176 0.0
C1265 C 0.57986 0.0283 0.38117 0.0
C1266 C 0.46194 0.97417 0.47752 0.0
C1267 C 0.4769 0.9841 0.46327 0.0
C1268 C 0.51595 0.984 0.4366 0.0
C1269 C 0.55229 0.02326 0.40136 0.0
C1270 C 0.53725 1.01283 0.41819 0.0
C1271 C 0.49274 0.98274 0.46524 0.0
C1272 C 0.50843 0.99315 0.44961 0.0
H1273 H 0.5688 0.06057 0.36728 0.0
H1274 H 0.54348 0.04265 0.39281 0.0
H1275 H 0.53496 0.98588 0.41068 0.0
H1276 H 0.47931 0.95313 0.50959 0.0
H1277 H 0.50543 0.97015 0.48407 0.0
C1278 C 0.51658 0.05372 0.96317 0.0
C1279 C 0.50533 0.0593 0.97485 0.0
C1280 C 0.52156 0.04202 0.97351 0.0
C1281 C 0.52559 0.0256 0.03085 0.0
H1282 H 0.52435 0.98482 0.99327 0.0
C1283 C 0.53362 0.96848 0.07266 0.0
C1284 C 0.54366 0.96157 0.06068 0.0
C1285 C 0.5291 0.98043 0.06208 0.0
C1286 C 0.52502 0.99628 0.00399 0.0
H1287 H 0.49044 0.05657 0.00671 0.0
H1288 H 0.49925 0.03644 0.02467 0.0
H1289 H 0.51656 1.00576 0.9751 0.0
H1290 H 0.55702 0.96212 0.02816 0.0
H1291 H 0.54934 0.98304 0.00981 0.0
H1292 H 0.53416 1.01626 0.0597 0.0
C1293 C 0.50439 0.0413 0.00759 0.0
C1294 C 0.52052 1.00829 0.99355 0.0
C1295 C 0.49934 0.05291 0.99724 0.0
C1296 C 0.54905 0.96693 0.0378 0.0
C1297 C 0.54461 0.97894 0.02725 0.0
C1298 C 0.53016 1.01365 0.04127 0.0
C1299 C 0.51552 0.03565 0.99585 0.0
C1300 C 0.52068 0.02307 0.00686 0.0
C1301 C 0.53458 0.98588 0.03924 0.0
C1302 C 0.52988 0.99876 0.02803 0.0
H1303 H 0.52173 0.05852 0.94612 0.0
H1304 H 0.53036 0.03817 0.96409 0.0
H1305 H 0.52614 0.03701 0.04156 0.0
H1306 H 0.52898 0.96444 0.09014 0.0
H1307 H 0.52108 0.98517 0.07174 0.0
C1308 C 0.97912 0.48229 0.97332 0.0
C1309 C 0.97154 0.46496 0.98332 0.0
C1310 C 0.9907 0.499 0.98667 0.0
C1311 C 1.00512 0.51924 0.04852 0.0
H1312 H 0.04633 0.55914 0.0185 0.0
C1313 C 0.06494 0.58712 0.09835 0.0
C1314 C 0.07225 0.60362 0.08649 0.0
C1315 C 0.05121 0.56998 0.08737 0.0
C1316 C 0.03477 0.54826 0.02717 0.0
H1317 H 0.9707 0.45183 0.01532 0.0
H1318 H 0.99092 0.48075 0.03836 0.0
H1319 H 1.02586 0.53008 0.99602 0.0
H1320 H 0.06999 0.61533 0.0547 0.0
H1321 H 0.04596 0.58593 0.03608 0.0
H1322 H 1.01436 0.53755 0.07984 0.0
C1323 C 0.9876 0.48153 0.02035 0.0
C1324 C 1.02295 0.53152 0.01419 0.0
C1325 C 0.97597 0.46485 0.00704 0.0
C1326 C 0.06471 0.60284 0.06426 0.0
C1327 C 0.05105 0.58591 0.05344 0.0
C1328 C 1.01704 0.53604 0.06158 0.0
C1329 C 0.99517 0.4989 0.0104 0.0
C1330 C 1.00785 0.51676 0.02456 0.0
C1331 C 0.04458 0.5691 0.06438 0.0
C1332 C 0.03194 0.55087 0.05101 0.0
H1333 H 0.97586 0.483 0.95526 0.0
H1334 H 0.99596 0.51204 0.97839 0.0
H1335 H 0.99357 0.50833 0.05716 0.0
H1336 H 0.07067 0.58723 0.11534 0.0
H1337 H 0.04654 0.55733 0.09636 0.0
C1338 C 0.5629 0.53023 0.90876 0.0
C1339 C 0.58117 0.54459 0.91396 0.0
C1340 C 0.5497 0.52426 0.92614 0.0
C1341 C 0.54008 0.53834 0.98505 0.0
H1342 H 0.50605 0.48526 0.98814 0.0
C1343 C 0.49256 0.5085 0.06373 0.0
C1344 C 0.47431 0.49406 0.05866 0.0
C1345 C 0.50573 0.51439 0.04633 0.0
C1346 C 0.51531 0.50015 0.98743 0.0
H1347 H 0.59959 0.56432 0.94142 0.0
H1348 H 0.57677 0.55386 0.97164 0.0
H1349 H 0.52811 0.49639 0.95698 0.0
H1350 H 0.45594 0.47402 0.03137 0.0
H1351 H 0.47869 0.48439 1.00111 0.0
H1352 H 0.52727 0.54211 0.01547 0.0
C1353 C 0.57255 0.54722 0.95413 0.0
C1354 C 0.52797 0.50655 0.96948 0.0
C1355 C 0.58572 0.55312 0.93682 0.0
C1356 C 0.46977 0.48532 0.0359 0.0
C1357 C 0.48292 0.49117 0.01854 0.0
C1358 C 0.52741 0.53194 0.00299 0.0
C1359 C 0.55438 0.53256 0.94915 0.0
C1360 C 0.54057 0.52575 0.96802 0.0
C1361 C 0.50105 0.50595 0.02339 0.0
C1362 C 0.51483 0.51274 0.00447 0.0
H1363 H 0.5589 0.52321 0.89145 0.0
H1364 H 0.53582 0.5131 0.92153 0.0
H1365 H 0.54935 0.55323 0.98435 0.0
H1366 H 0.49658 0.51567 0.08096 0.0
H1367 H 0.5196 0.52562 0.05087 0.0
C1368 C 0.23808 0.03379 0.9176 0.0
C1369 C 0.22658 0.02605 0.89732 0.0
C1370 C 0.24424 0.05225 0.9261 0.0
C1371 C 0.23153 0.08859 0.92367 0.0
H1372 H 0.28095 0.12269 0.94876 0.0
C1373 C 0.25537 0.16567 0.94788 0.0
C1374 C 0.2661 0.17409 0.9686 0.0
C1375 C 0.25204 0.14827 0.93869 0.0
C1376 C 0.26703 0.11329 0.94203 0.0
H1377 H 0.21359 0.03227 0.86936 0.0
H1378 H 0.22417 0.0641 0.88409 0.0
H1379 H 0.2724 0.09106 0.93416 0.0
H1380 H 0.28223 0.17094 0.99548 0.0
H1381 H 0.27622 0.14048 0.97964 0.0
H1382 H 0.22595 0.1105 0.93172 0.0
C1383 C 0.22809 0.05582 0.89382 0.0
C1384 C 0.26214 0.09514 0.93365 0.0
C1385 C 0.22199 0.03749 0.88535 0.0
C1386 C 0.27396 0.16492 0.97944 0.0
C1387 C 0.27054 0.14743 0.97029 0.0
C1388 C 0.23637 0.10663 0.93209 0.0
C1389 C 0.23902 0.06339 0.91453 0.0
C1390 C 0.24435 0.0826 0.92415 0.0
C1391 C 0.25922 0.13867 0.95003 0.0
C1392 C 0.25423 0.11934 0.94123 0.0
H1393 H 0.24184 0.02541 0.92734 0.0
H1394 H 0.25259 0.05758 0.94215 0.0
H1395 H 0.21758 0.07921 0.91699 0.0
H1396 H 0.2492 0.17234 0.93894 0.0
H1397 H 0.24364 0.14224 0.92275 0.0
C1398 C 1.02495 0.24984 0.04129 0.0
C1399 C 0.03694 0.24854 0.02532 0.0
C1400 C 1.00965 0.2337 0.04886 0.0
C1401 C 0.99149 0.18465 0.05858 0.0
H1402 H 0.94333 0.17891 0.05048 0.0
C1403 C 0.92467 0.11546 0.07733 0.0
C1404 C 0.90912 0.1162 0.08421 0.0
C1405 C 0.94057 0.13156 0.07072 0.0
C1406 C 0.95663 0.18032 0.05342 0.0
H1407 H 0.04256 0.22934 0.00525 0.0
H1408 H 1.01608 0.20106 0.01907 0.0
H1409 H 0.97045 0.20704 0.03865 0.0
H1410 H 0.89824 0.13446 0.09065 0.0
H1411 H 0.92609 0.16268 0.08057 0.0
H1412 H 0.97799 0.15839 0.07418 0.0
C1413 C 1.01843 0.21459 0.02545 0.0
C1414 C 0.9722 0.19647 0.04641 0.0
C1415 C 0.03349 0.23074 0.01745 0.0
C1416 C 0.90997 0.13347 0.08511 0.0
C1417 C 0.92596 0.14964 0.07907 0.0
C1418 C 0.97596 0.16865 0.0661 0.0
C1419 C 1.00623 0.2159 0.04106 0.0
C1420 C 0.98978 0.19879 0.04881 0.0
C1421 C 0.94146 0.14895 0.07133 0.0
C1422 C 0.95822 0.16616 0.06359 0.0
H1423 H 1.02718 0.26336 0.0475 0.0
H1424 H 1.00051 0.23513 0.06094 0.0
H1425 H 1.00492 0.18614 0.0608 0.0
H1426 H 0.92429 0.10227 0.07625 0.0
H1427 H 0.95194 0.13019 0.06456 0.0
C1428 C 0.94049 0.80634 0.06136 0.0
C1429 C 0.95341 0.81096 0.0437 0.0
C1430 C 0.92607 0.81006 0.05929 0.0
C1431 C 0.90027 0.81756 0.0124 0.0
H1432 H 0.87734 0.82943 0.06377 0.0
C1433 C 0.84382 0.83529 0.99522 0.0
C1434 C 0.82834 0.82773 0.00937 0.0
C1435 C 0.85934 0.83417 1.00092 0.0
C1436 C 0.88349 0.82596 0.04923 0.0
H1437 H 0.96212 0.8243 0.011 0.0
H1438 H 0.93778 0.83154 0.00792 0.0
H1439 H 0.90433 0.82667 0.07156 0.0
H1440 H 0.8175 0.8133 0.0411 0.0
H1441 H 0.84459 0.81142 0.05105 0.0
H1442 H 0.87955 0.81677 0.99007 0.0
C1443 C 0.9382 0.82443 0.02296 0.0
C1444 C 0.89901 0.82438 0.05371 0.0
C1445 C 0.95237 0.82053 0.02488 0.0
C1446 C 0.82911 0.81941 0.02979 0.0
C1447 C 0.84471 0.81834 0.03554 0.0
C1448 C 0.88489 0.8192 0.00794 0.0
C1449 C 0.92435 0.81858 0.03958 0.0
C1450 C 0.90774 0.8203 0.0353 0.0
C1451 C 0.85998 0.8255 0.02101 0.0
C1452 C 0.8763 0.82354 0.02622 0.0
H1453 H 0.94073 0.79867 0.07587 0.0
H1454 H 0.91572 0.8053 0.07246 0.0
H1455 H 0.90614 0.81384 0.99777 0.0
H1456 H 0.84407 0.8422 0.97968 0.0
H1457 H 0.87094 0.84023 0.98954 0.0
C1458 C 0.03502 0.21195 0.52625 0.0
C1459 C 0.02812 0.22294 0.51831 0.0
C1460 C 0.05325 0.21667 0.52232 0.0
C1461 C 0.09396 0.24677 0.48643 0.0
H1462 H 0.12062 0.23655 0.53274 0.0
C1463 C 0.1725 0.2768 0.48242 0.0
C1464 C 0.17902 0.26455 0.48576 0.0
C1465 C 0.1543 0.27166 0.48719 0.0
C1466 C 0.11334 0.23938 0.51954 0.0
H1467 H 0.03526 0.24773 0.5002 0.0
H1468 H 0.06701 0.25623 0.4938 0.0
H1469 H 0.08876 0.22789 0.53915 0.0
H1470 H 0.1714 0.23736 0.49755 0.0
H1471 H 0.13968 0.22852 0.50629 0.0
H1472 H 0.11873 0.25862 0.46711 0.0
C1473 C 0.05826 0.24362 0.50254 0.0
C1474 C 0.09496 0.23433 0.52315 0.0
C1475 C 0.03997 0.23876 0.50625 0.0
C1476 C 0.16693 0.24721 0.49483 0.0
C1477 C 0.14873 0.24213 0.49986 0.0
C1478 C 0.11237 0.25199 0.48298 0.0
C1479 C 0.06526 0.23267 0.51052 0.0
C1480 C 0.08493 0.23795 0.50665 0.0
C1481 C 0.14206 0.25416 0.49567 0.0
C1482 C 0.12235 0.24841 0.49948 0.0
H1483 H 1.02624 0.19955 0.53535 0.0
H1484 H 0.05783 0.20759 0.52836 0.0
H1485 H 0.08677 0.24947 0.47299 0.0
H1486 H 0.18131 0.29026 0.47545 0.0
H1487 H 0.14978 0.28141 0.48409 0.0
C1488 C 0.79012 0.79151 0.45082 0.0
C1489 C 0.80429 0.79247 0.46482 0.0
C1490 C 0.79078 0.80781 0.44452 0.0
C1491 C 0.82226 0.85812 0.43782 0.0
H1492 H 0.77847 0.86145 0.44555 0.0
C1493 C 0.82299 0.92766 0.43011 0.0
C1494 C 0.80696 0.92683 0.42166 0.0
C1495 C 0.82307 0.91126 0.43406 0.0
C1496 C 0.79076 0.86072 0.44283 0.0
H1497 H 0.83055 0.81138 0.48257 0.0
H1498 H 0.8318 0.83987 0.47141 0.0
H1499 H 0.77785 0.83298 0.45447 0.0
H1500 H 0.77873 0.90812 0.40964 0.0
H1501 H 0.77895 0.87958 0.41569 0.0
H1502 H 0.83514 0.88572 0.42583 0.0
C1503 C 0.82012 0.82647 0.46539 0.0
C1504 C 0.7904 0.84436 0.44807 0.0
C1505 C 0.81934 0.81016 0.47195 0.0
C1506 C 0.79122 0.90922 0.41647 0.0
C1507 C 0.79134 0.89284 0.42012 0.0
C1508 C 0.82258 0.87444 0.4323 0.0
C1509 C 0.80576 0.82551 0.4518 0.0
C1510 C 0.80615 0.84286 0.44572 0.0
C1511 C 0.80716 0.89357 0.4294 0.0
C1512 C 0.80684 0.87603 0.43478 0.0
H1513 H 0.77827 0.77814 0.4452 0.0
H1514 H 0.77956 0.80658 0.43389 0.0
H1515 H 0.83458 0.85734 0.4356 0.0
H1516 H 0.83528 0.941 0.43455 0.0
H1517 H 0.83546 0.91252 0.4415 0.0
C1518 C 0.22626 0.99504 0.57117 0.0
C1519 C 0.22251 1.0047 0.58922 0.0
C1520 C 0.21333 0.97632 0.56433 0.0
C1521 C 0.16327 0.94219 0.56611 0.0
H1522 H 0.17658 0.90496 0.54991 0.0
C1523 C 0.10722 0.86503 0.54807 0.0
C1524 C 0.10945 0.85496 0.52913 0.0
C1525 C 0.12179 0.88253 0.55635 0.0
C1526 C 0.17262 0.91521 0.55416 0.0
H1527 H 0.20257 1.00167 0.61508 0.0
H1528 H 0.18025 0.96937 0.60324 0.0
H1529 H 0.2006 0.93696 0.562 0.0
H1530 H 0.12914 0.85521 0.50464 0.0
H1531 H 0.1545 0.8858 0.51891 0.0
H1532 H 0.13543 0.92073 0.55807 0.0
C1533 C 0.19294 0.97633 0.59391 0.0
C1534 C 0.18642 0.93358 0.56109 0.0
C1535 C 0.2058 0.99493 0.60072 0.0
C1536 C 0.12692 0.86251 0.51934 0.0
C1537 C 0.14151 0.8801 0.52756 0.0
C1538 C 0.14954 0.92392 0.55915 0.0
C1539 C 0.19635 0.96681 0.57537 0.0
C1540 C 0.1819 0.94729 0.56735 0.0
C1541 C 0.13903 0.89057 0.54584 0.0
C1542 C 0.15394 0.91008 0.55324 0.0
H1543 H 0.23893 1.00211 0.56184 0.0
H1544 H 0.21641 0.96948 0.54992 0.0
H1545 H 0.15926 0.95242 0.57026 0.0
H1546 H 0.09402 0.85963 0.55617 0.0
H1547 H 0.11943 0.8899 0.57083 0.0
C1548 C 0.82535 0.90131 0.96443 0.0
C1549 C 0.80964 0.88814 0.95112 0.0
C1550 C 0.82991 0.91995 0.9674 0.0
C1551 C 0.80636 0.94677 0.97064 0.0
H1552 H 0.85592 0.9882 0.98405 0.0
C1553 C 0.82183 1.01801 0.01676 0.0
C1554 C 0.83406 0.02351 0.03624 0.0
C1555 C 0.81961 1.00358 1.00055 0.0
C1556 C 0.84197 0.97681 0.98029 0.0
H1557 H 0.78671 0.88425 0.92971 0.0
H1558 H 0.7948 0.91701 0.9345 0.0
H1559 H 0.85125 0.95928 0.96457 0.0
H1560 H 0.8541 0.0188 0.05332 0.0
H1561 H 0.8505 0.99421 0.02521 0.0
H1562 H 0.79715 0.96419 0.98714 0.0
C1563 C 0.80367 0.91293 0.94264 0.0
C1564 C 0.83929 0.96019 0.96913 0.0
C1565 C 0.79922 0.89424 0.93948 0.0
C1566 C 0.8445 1.01487 0.03858 0.0
C1567 C 0.84254 1.00082 0.02232 0.0
C1568 C 0.80906 0.96346 0.98174 0.0
C1569 C 0.81867 0.92587 0.95743 0.0
C1570 C 0.82146 0.94468 0.9649 0.0
C1571 C 0.82989 0.99474 0.00326 0.0
C1572 C 0.82691 0.97846 0.98748 0.0
H1573 H 0.83329 0.89686 0.97414 0.0
H1574 H 0.84141 0.92932 0.97914 0.0
H1575 H 0.79242 0.93512 0.9679 0.0
H1576 H 0.81353 0.02433 0.01455 0.0
H1577 H 0.80976 0.99923 0.98602 0.0
C1578 C 0.16563 0.91777 0.93161 0.0
C1579 C 0.17599 0.91061 0.92107 0.0
C1580 C 0.14863 0.9059 0.94148 0.0
C1581 C 0.11905 0.85709 0.96091 0.0
H1582 H 0.08011 0.86843 0.95586 0.0
C1583 C 0.0429 0.80337 0.97998 0.0
C1584 C 0.03286 0.8099 0.99281 0.0
C1585 C 0.06043 0.81585 0.97195 0.0
C1586 C 0.09086 0.86512 0.95764 0.0
H1587 H 0.1764 0.88515 0.91287 0.0
H1588 H 0.14681 0.86453 0.92943 0.0
H1589 H 0.11032 0.88961 0.94095 0.0
H1590 H 0.03351 0.83489 0.00685 0.0
H1591 H 0.064 0.85665 0.99274 0.0
H1592 H 0.09936 0.83236 0.97713 0.0
C1593 C 0.1519 0.87938 0.93065 0.0
C1594 C 0.10831 0.87735 0.94913 0.0
C1595 C 0.16895 0.89126 0.92099 0.0
C1596 C 0.04084 0.82932 0.99718 0.0
C1597 C 0.0583 0.84182 0.98891 0.0
C1598 C 0.10155 0.84478 0.9692 0.0
C1599 C 0.14134 0.88644 0.94093 0.0
C1600 C 0.12273 0.87355 0.95056 0.0
C1601 C 0.06841 0.83527 0.97627 0.0
C1602 C 0.08717 0.84858 0.96765 0.0
H1603 H 0.17057 0.93259 0.93209 0.0
H1604 H 0.14122 0.91206 0.94957 0.0
H1605 H 0.12974 0.85372 0.96288 0.0
H1606 H 0.03736 0.78855 0.97645 0.0
H1607 H 0.06768 0.81025 0.96211 0.0
C1608 C 0.10894 0.25258 0.95557 0.0
C1609 C 0.11674 0.27185 0.96054 0.0
C1610 C 0.12006 0.24452 0.95598 0.0
C1611 C 0.16908 0.25612 0.95716 0.0
H1612 H 0.15134 0.21357 0.99511 0.0
C1613 C 0.21833 0.23673 1.00062 0.0
C1614 C 0.21254 0.21773 0.00194 0.0
C1615 C 0.2062 0.24214 0.99253 0.0
C1616 C 0.15646 0.22527 0.98416 0.0
H1617 H 0.1422 0.29794 0.96848 0.0
H1618 H 0.16148 0.28414 0.96877 0.0
H1619 H 0.13076 0.22459 0.98433 0.0
H1620 H 0.18937 0.18958 0.99509 0.0
H1621 H 0.16833 0.19901 0.98116 0.0
H1622 H 0.19489 0.25708 0.95741 0.0
C1623 C 0.14693 0.2751 0.96455 0.0
C1624 C 0.1446 0.23156 0.9779 0.0
C1625 C 0.13586 0.28303 0.96445 0.0
C1626 C 0.1943 0.20433 0.99479 0.0
C1627 C 0.18218 0.20975 0.98673 0.0
C1628 C 0.18093 0.24984 0.96341 0.0
C1629 C 0.13915 0.25568 0.96104 0.0
C1630 C 0.15087 0.24732 0.96473 0.0
C1631 C 0.18794 0.22873 0.98551 0.0
C1632 C 0.1749 0.23456 0.9774 0.0
H1633 H 0.0942 0.24364 0.95282 0.0
H1634 H 0.11365 0.22953 0.95301 0.0
H1635 H 0.17431 0.26811 0.94669 0.0
H1636 H 0.23214 0.24748 0.00621 0.0
H1637 H 0.21107 0.2569 0.99222 0.0
C1638 C 0.87404 0.77304 0.53912 0.0
C1639 C 0.86611 0.78002 0.52418 0.0
C1640 C 0.89284 0.779 0.53794 0.0
C1641 C 0.92873 0.79735 0.49374 0.0
H1642 H 0.96209 0.80276 0.54414 0.0
C1643 C 1.00511 0.82421 0.47789 0.0
C1644 C 1.01358 0.81565 0.4887 0.0
C1645 C 0.98749 0.82018 0.48387 0.0
C1646 C 0.95286 0.80111 0.52986 0.0
H1647 H 0.87166 0.79959 0.49774 0.0
H1648 H 0.90443 0.81066 0.4965 0.0
H1649 H 0.93115 0.79652 0.55307 0.0
H1650 H 1.01 0.79615 0.51457 0.0
H1651 H 0.97901 0.78888 0.5248 0.0
H1652 H 0.95017 0.80176 0.4705 0.0
C1653 C 0.89622 0.8002 0.50859 0.0
C1654 C 0.93515 0.79758 0.53498 0.0
C1655 C 0.87749 0.7941 0.50956 0.0
C1656 C 1.00386 0.80287 0.50571 0.0
C1657 C 0.98617 0.79887 0.51178 0.0
C1658 C 0.94634 0.80087 0.48865 0.0
C1659 C 0.90397 0.79205 0.52184 0.0
C1660 C 0.92292 0.79585 0.51697 0.0
C1661 C 0.97773 0.80743 0.50084 0.0
C1662 C 0.95873 0.80298 0.50661 0.0
H1663 H 0.86544 0.76186 0.55017 0.0
H1664 H 0.89832 0.7724 0.54839 0.0
H1665 H 0.91956 0.79552 0.47929 0.0
H1666 H 1.01203 0.83397 0.46457 0.0
H1667 H 0.98155 0.82723 0.47526 0.0
C1668 C 0.24653 0.20832 0.49014 0.0
C1669 C 0.23281 0.20075 0.47212 0.0
C1670 C 0.25334 0.1976 0.49926 0.0
C1671 C 0.25579 0.15442 0.4861 0.0
H1672 H 0.26375 0.15663 0.5532 0.0
C1673 C 0.2619 0.09717 0.53081 0.0
C1674 C 0.27386 0.10211 0.55048 0.0
C1675 C 0.25892 0.11039 0.52078 0.0
C1676 C 0.26187 0.15599 0.53438 0.0
H1677 H 0.21609 0.17602 0.44914 0.0
H1678 H 0.22766 0.15744 0.46508 0.0
H1679 H 0.25497 0.17746 0.53671 0.0
H1680 H 0.29235 0.12517 0.57471 0.0
H1681 H 0.28728 0.14833 0.55708 0.0
H1682 H 0.26245 0.13283 0.48374 0.0
C1683 C 0.2333 0.17168 0.47219 0.0
C1684 C 0.25682 0.16799 0.52489 0.0
C1685 C 0.22646 0.18233 0.46317 0.0
C1686 C 0.28309 0.12083 0.55954 0.0
C1687 C 0.28004 0.13409 0.54953 0.0
C1688 C 0.26082 0.14245 0.49557 0.0
C1689 C 0.24675 0.17906 0.49051 0.0
C1690 C 0.25343 0.16721 0.50061 0.0
C1691 C 0.26777 0.12904 0.5301 0.0
C1692 C 0.2637 0.14283 0.5199 0.0
H1693 H 0.2517 0.22238 0.49762 0.0
H1694 H 0.26382 0.20389 0.51318 0.0
H1695 H 0.25372 0.15362 0.46729 0.0
H1696 H 0.25447 0.08291 0.52334 0.0
H1697 H 0.24919 0.1058 0.50608 0.0
C1698 C 0.82476 1.01188 0.50137 0.0
C1699 C 0.81655 1.01658 0.48373 0.0
C1700 C 0.83854 0.02594 0.51668 0.0
C1701 C 0.86028 0.07652 0.53718 0.0
H1702 H 0.90528 0.07516 0.54225 0.0
C1703 C 0.94231 0.13266 0.54563 0.0
C1704 C 0.94277 0.14611 0.56204 0.0
C1705 C 0.92658 0.11489 0.54228 0.0
C1706 C 0.89281 0.07576 0.54113 0.0
H1707 H 0.81566 0.03945 0.46905 0.0
H1708 H 0.83906 0.06366 0.49576 0.0
H1709 H 0.87737 0.04792 0.52514 0.0
H1710 H 0.92725 0.15102 0.58866 0.0
H1711 H 0.89973 0.11984 0.58298 0.0
H1712 H 0.87587 0.10465 0.55206 0.0
C1713 C 0.83505 0.04928 0.49801 0.0
C1714 C 0.87671 0.06002 0.53152 0.0
C1715 C 0.8216 0.03537 0.48261 0.0
C1716 C 0.92747 0.14092 0.57611 0.0
C1717 C 0.91158 0.12312 0.57258 0.0
C1718 C 0.87633 0.09222 0.54688 0.0
C1719 C 0.84414 0.04491 0.51485 0.0
C1720 C 0.86034 0.06037 0.52875 0.0
C1721 C 0.91071 0.11004 0.55508 0.0
C1722 C 0.89299 0.09229 0.54837 0.0
H1723 H 0.82138 0.99756 0.50239 0.0
H1724 H 0.84516 0.02203 0.52951 0.0
H1725 H 0.84791 0.07727 0.53562 0.0
H1726 H 0.9538 0.13625 0.53437 0.0
H1727 H 0.92649 0.1054 0.52851 0.0
C1728 C 0.89591 0.47396 0.37318 0.0
C1729 C 0.90841 0.48749 0.38998 0.0
C1730 C 0.89366 0.45614 0.37081 0.0
C1731 C 0.91965 0.43241 0.3811 0.0
H1732 H 0.87406 0.38845 0.35842 0.0
C1733 C 0.91408 0.36082 0.35754 0.0
C1734 C 0.90409 0.35101 0.33675 0.0
C1735 C 0.91382 0.37664 0.36672 0.0
C1736 C 0.88695 0.40061 0.36459 0.0
H1737 H 0.92772 0.49256 0.41832 0.0
H1738 H 0.92355 0.4612 0.41454 0.0
H1739 H 0.87415 0.41683 0.37134 0.0
H1740 H 0.88569 0.35011 0.30963 0.0
H1741 H 0.88534 0.37766 0.32544 0.0
H1742 H 0.93245 0.41619 0.37408 0.0
C1743 C 0.91561 0.46449 0.40296 0.0
C1744 C 0.887 0.41693 0.37206 0.0
C1745 C 0.91779 0.48238 0.40542 0.0
C1746 C 0.89371 0.35737 0.32551 0.0
C1747 C 0.89333 0.37309 0.33476 0.0
C1748 C 0.91957 0.41604 0.37372 0.0
C1749 C 0.90392 0.4513 0.38512 0.0
C1750 C 0.90342 0.43321 0.37999 0.0
C1751 C 0.90342 0.38299 0.35547 0.0
C1752 C 0.90328 0.40002 0.36495 0.0
H1753 H 0.88858 0.47749 0.3609 0.0
H1754 H 0.88468 0.44656 0.35673 0.0
H1755 H 0.93262 0.44468 0.38674 0.0
H1756 H 0.92235 0.35645 0.3666 0.0
H1757 H 0.92165 0.3838 0.38276 0.0
C1758 C 0.57309 0.45193 0.3933 0.0
C1759 C 0.57182 0.4491 0.41744 0.0
C1760 C 0.58927 0.46618 0.38415 0.0
C1761 C 0.63955 0.49829 0.39766 0.0
H1762 H 0.63568 0.52588 0.34791 0.0
C1763 C 0.70331 0.565 0.36579 0.0
C1764 C 0.70438 0.56793 0.34169 0.0
C1765 C 0.68732 0.55047 0.37498 0.0
C1766 C 0.63709 0.5182 0.36159 0.0
H1767 H 0.58699 0.45941 0.45075 0.0
H1768 H 0.61507 0.48415 0.43487 0.0
H1769 H 0.60786 0.50087 0.36386 0.0
H1770 H 0.68901 0.55761 0.3085 0.0
H1771 H 0.66142 0.53224 0.32436 0.0
H1772 H 0.6688 0.51565 0.3954 0.0
C1773 C 0.60358 0.47516 0.4229 0.0
C1774 C 0.62105 0.50378 0.37079 0.0
C1775 C 0.58739 0.4609 0.43207 0.0
C1776 C 0.68891 0.55581 0.32708 0.0
C1777 C 0.67291 0.54131 0.33628 0.0
C1778 C 0.6556 0.51272 0.38846 0.0
C1779 C 0.60477 0.4781 0.39879 0.0
C1780 C 0.62199 0.49356 0.38898 0.0
C1781 C 0.67183 0.53839 0.36039 0.0
C1782 C 0.65465 0.52292 0.37025 0.0
H1783 H 0.56161 0.44302 0.38133 0.0
H1784 H 0.58967 0.46768 0.36545 0.0
H1785 H 0.64094 0.49062 0.41137 0.0
H1786 H 0.71489 0.57383 0.37766 0.0
H1787 H 0.68705 0.54889 0.39365 0.0
C1788 C 0.62069 0.15523 0.34224 0.0
C1789 C 0.61745 0.1385 0.35123 0.0
C1790 C 0.60621 0.15843 0.33837 0.0
C1791 C 0.55595 0.13281 0.32632 0.0
H1792 H 0.5626 0.18238 0.33286 0.0
C1793 C 0.49867 0.14789 0.29826 0.0
C1794 C 0.50463 0.16392 0.2857 0.0
C1795 C 0.51145 0.1446 0.30947 0.0
C1796 C 0.56052 0.16845 0.33078 0.0
H1797 H 0.59636 0.11234 0.36413 0.0
H1798 H 0.57109 0.11803 0.35759 0.0
H1799 H 0.58663 0.17722 0.34744 0.0
H1800 H 0.52878 0.18936 0.27595 0.0
H1801 H 0.55088 0.18357 0.29503 0.0
H1802 H 0.52997 0.12414 0.30924 0.0
C1803 C 0.58487 0.1286 0.35327 0.0
C1804 C 0.57433 0.16548 0.33917 0.0
C1805 C 0.59942 0.12542 0.35728 0.0
C1806 C 0.52364 0.17674 0.28513 0.0
C1807 C 0.53636 0.17352 0.29639 0.0
C1808 C 0.54211 0.13578 0.31792 0.0
C1809 C 0.58801 0.14499 0.34329 0.0
C1810 C 0.57243 0.1477 0.33666 0.0
C1811 C 0.5305 0.15735 0.30859 0.0
C1812 C 0.54437 0.15373 0.3196 0.0
H1813 H 0.63437 0.16561 0.33732 0.0
H1814 H 0.60922 0.17114 0.33046 0.0
H1815 H 0.55404 0.11897 0.32381 0.0
H1816 H 0.48415 0.13768 0.29899 0.0
H1817 H 0.50641 0.13207 0.31884 0.0
C1818 C 0.70087 0.55403 0.8104 0.0
C1819 C 0.69846 0.56539 0.82735 0.0
C1820 C 0.71855 0.55813 0.80426 0.0
C1821 C 0.76851 0.58761 0.82396 0.0
H1822 H 0.77617 0.5733 0.76126 0.0
C1823 C 0.84079 0.6122 0.78469 0.0
C1824 C 0.84301 0.59804 0.77349 0.0
C1825 C 0.82345 0.60837 0.79224 0.0
C1826 C 0.77423 0.5773 0.77889 0.0
H1827 H 0.71277 0.59024 0.85071 0.0
H1828 H 0.74354 0.59796 0.83937 0.0
H1829 H 0.74569 0.56688 0.7718 0.0
H1830 H 0.82861 0.56871 0.7616 0.0
H1831 H 0.79844 0.56223 0.77426 0.0
H1832 H 0.79741 0.59868 0.83051 0.0
C1833 C 0.73188 0.58543 0.83133 0.0
C1834 C 0.75666 0.57351 0.78506 0.0
C1835 C 0.71418 0.5811 0.8378 0.0
C1836 C 0.82749 0.57995 0.77026 0.0
C1837 C 0.81014 0.57624 0.77736 0.0
C1838 C 0.78617 0.59173 0.8176 0.0
C1839 C 0.73441 0.57397 0.81453 0.0
C1840 C 0.7534 0.57844 0.80779 0.0
C1841 C 0.80787 0.59041 0.78832 0.0
C1842 C 0.78921 0.58648 0.79505 0.0
H1843 H 0.68904 0.54169 0.80228 0.0
H1844 H 0.7197 0.54862 0.7917 0.0
H1845 H 0.76672 0.59137 0.84175 0.0
H1846 H 0.85242 0.62628 0.78744 0.0
H1847 H 0.82214 0.6196 0.80057 0.0
C1848 C 0.47859 0.26739 0.82162 0.0
C1849 C 0.4751 0.26649 0.79739 0.0
C1850 C 0.47995 0.25325 0.83176 0.0
C1851 C 0.48762 0.21365 0.81865 0.0
H1852 H 0.46477 0.19793 0.8783 0.0
C1853 C 0.48359 0.15071 0.86358 0.0
C1854 C 0.48689 0.15294 0.88801 0.0
C1855 C 0.48155 0.16387 0.85172 0.0
C1856 C 0.47141 0.20224 0.86176 0.0
H1857 H 0.47066 0.24992 0.76482 0.0
H1858 H 0.47312 0.22528 0.78251 0.0
H1859 H 0.46294 0.22228 0.85922 0.0
H1860 H 0.49008 0.17065 0.91903 0.0
H1861 H 0.48689 0.19356 0.89849 0.0
H1862 H 0.49619 0.19364 0.82134 0.0
C1863 C 0.47491 0.23705 0.79366 0.0
C1864 C 0.47036 0.21626 0.85079 0.0
C1865 C 0.47352 0.25123 0.78348 0.0
C1866 C 0.4878 0.16852 0.90023 0.0
C1867 C 0.48573 0.18161 0.88842 0.0
C1868 C 0.4887 0.19961 0.82967 0.0
C1869 C 0.4779 0.23774 0.818 0.0
C1870 C 0.4786 0.22232 0.82919 0.0
C1871 C 0.48264 0.17954 0.86398 0.0
C1872 C 0.48076 0.19383 0.85152 0.0
H1873 H 0.48029 0.27907 0.83286 0.0
H1874 H 0.48269 0.25452 0.85047 0.0
H1875 H 0.49426 0.21804 0.80213 0.0
H1876 H 0.48293 0.139 0.85352 0.0
H1877 H 0.47901 0.16169 0.83293 0.0
C1878 C 0.87931 0.34571 0.86055 0.0
C1879 C 0.87587 0.35117 0.88279 0.0
C1880 C 0.86573 0.32936 0.8481 0.0
C1881 C 0.81499 0.29567 0.84589 0.0
H1882 H 0.82735 0.2625 0.81123 0.0
C1883 C 0.7627 0.21791 0.82341 0.0
C1884 C 0.76387 0.2091 0.80239 0.0
C1885 C 0.77545 0.23672 0.82932 0.0
C1886 C 0.82367 0.27176 0.82045 0.0
H1887 H 0.8556 0.34312 0.90967 0.0
H1888 H 0.8322 0.31482 0.88831 0.0
H1889 H 0.85185 0.29202 0.82967 0.0
H1890 H 0.7791 0.21319 0.77074 0.0
H1891 H 0.80158 0.24632 0.78102 0.0
H1892 H 0.7868 0.27519 0.83727 0.0
C1893 C 0.84516 0.32336 0.88006 0.0
C1894 C 0.83775 0.28871 0.83111 0.0
C1895 C 0.85866 0.33964 0.89242 0.0
C1896 C 0.77761 0.21976 0.78679 0.0
C1897 C 0.79064 0.23862 0.79288 0.0
C1898 C 0.80095 0.27874 0.83534 0.0
C1899 C 0.84836 0.31805 0.8576 0.0
C1900 C 0.83358 0.30073 0.84444 0.0
C1901 C 0.78999 0.2472 0.81454 0.0
C1902 C 0.80505 0.26635 0.82288 0.0
H1903 H 0.89232 0.35429 0.85246 0.0
H1904 H 0.86871 0.32583 0.83081 0.0
H1905 H 0.8112 0.30472 0.85544 0.0
H1906 H 0.75247 0.20992 0.83596 0.0
H1907 H 0.77458 0.2427 0.84622 0.0
C1908 C 0.44144 0.21654 0.30482 0.0
C1909 C 0.45646 0.21584 0.29535 0.0
C1910 C 0.444 0.23322 0.31613 0.0
C1911 C 0.47982 0.27762 0.34628 0.0
H1912 H 0.45091 0.29908 0.32736 0.0
C1913 C 0.50512 0.35428 0.37214 0.0
C1914 C 0.49241 0.35945 0.37946 0.0
C1915 C 0.49924 0.33668 0.36106 0.0
C1916 C 0.45899 0.29322 0.33309 0.0
H1917 H 0.48593 0.23193 0.29097 0.0
H1918 H 0.4904 0.26045 0.31102 0.0
H1919 H 0.44281 0.26773 0.31161 0.0
H1920 H 0.46345 0.35037 0.38012 0.0
H1921 H 0.453 0.31932 0.36092 0.0
H1922 H 0.49591 0.3027 0.36783 0.0
C1923 C 0.47664 0.24832 0.30965 0.0
C1924 C 0.4543 0.27521 0.32408 0.0
C1925 C 0.47405 0.23193 0.29808 0.0
C1926 C 0.4736 0.3469 0.37431 0.0
C1927 C 0.46763 0.32905 0.36343 0.0
C1928 C 0.48438 0.29543 0.35539 0.0
C1929 C 0.46168 0.24933 0.31862 0.0
C1930 C 0.46494 0.26737 0.33019 0.0
C1931 C 0.48038 0.32345 0.35739 0.0
C1932 C 0.47438 0.30378 0.34852 0.0
H1933 H 0.42769 0.20445 0.30278 0.0
H1934 H 0.4322 0.23351 0.32293 0.0
H1935 H 0.48811 0.2719 0.35171 0.0
H1936 H 0.51971 0.36363 0.37586 0.0
H1937 H 0.50958 0.33328 0.356 0.0
C1938 C 0.70518 0.15 0.27446 0.0
C1939 C 0.69606 0.15095 0.29462 0.0
C1940 C 0.72256 0.16504 0.26941 0.0
C1941 C 0.76259 0.20762 0.29872 0.0
H1942 H 0.77788 0.22122 0.23544 0.0
C1943 C 0.83034 0.27435 0.28445 0.0
C1944 C 0.84244 0.27286 0.26889 0.0
C1945 C 0.81178 0.26041 0.28436 0.0
C1946 C 0.77383 0.21753 0.2532 0.0
H1947 H 0.6978 0.16893 0.32455 0.0
H1948 H 0.72768 0.19506 0.31567 0.0
H1949 H 0.747 0.19492 0.24192 0.0
H1950 H 0.84433 0.256 0.24014 0.0
H1951 H 0.81166 0.23148 0.23982 0.0
H1952 H 0.78922 0.2301 0.31008 0.0
C1953 C 0.72179 0.18253 0.30407 0.0
C1954 C 0.75613 0.20239 0.25695 0.0
C1955 C 0.70456 0.1675 0.30919 0.0
C1956 C 0.83525 0.25774 0.25198 0.0
C1957 C 0.81656 0.24361 0.25197 0.0
C1958 C 0.78011 0.22272 0.29499 0.0
C1959 C 0.73124 0.18148 0.28431 0.0
C1960 C 0.75019 0.19731 0.27983 0.0
C1961 C 0.8048 0.2444 0.2689 0.0
C1962 C 0.78597 0.22804 0.27223 0.0
H1963 H 0.69911 0.13744 0.26292 0.0
H1964 H 0.72939 0.16356 0.25415 0.0
H1965 H 0.75887 0.20391 0.31655 0.0
H1966 H 0.83553 0.28577 0.2978 0.0
H1967 H 0.80308 0.26174 0.29726 0.0
C1968 C 0.88061 0.5454 0.34468 0.0
C1969 C 0.8979 0.5551 0.33449 0.0
C1970 C 0.86567 0.54656 0.3363 0.0
C1971 C 0.84833 0.56026 0.28548 0.0
H1972 H 0.81664 0.56374 0.33183 0.0
C1973 C 0.79494 0.58331 0.26668 0.0
C1974 C 0.77924 0.57613 0.28034 0.0
C1975 C 0.80825 0.57824 0.27018 0.0
C1976 C 0.82509 0.56244 0.31851 0.0
H1977 H 0.91281 0.57358 0.30717 0.0
H1978 H 0.88682 0.57571 0.29267 0.0
H1979 H 0.84216 0.56039 0.34432 0.0
H1980 H 0.7646 0.55728 0.30726 0.0
H1981 H 0.78712 0.54767 0.31252 0.0
H1982 H 0.83128 0.56265 0.2597 0.0
C1983 C 0.88474 0.56697 0.307 0.0
C1984 C 0.83984 0.56054 0.32574 0.0
C1985 C 0.89971 0.56577 0.31537 0.0
C1986 C 0.77641 0.56275 0.29619 0.0
C1987 C 0.78954 0.55755 0.29952 0.0
C1988 C 0.83351 0.56217 0.27822 0.0
C1989 C 0.86752 0.5575 0.31748 0.0
C1990 C 0.85169 0.55939 0.30939 0.0
C1991 C 0.8061 0.56592 0.28745 0.0
C1992 C 0.82162 0.56323 0.29465 0.0
H1993 H 0.8785 0.53672 0.35907 0.0
H1994 H 0.85258 0.53872 0.34455 0.0
H1995 H 0.85702 0.55924 0.27232 0.0
H1996 H 0.79774 0.59409 0.25487 0.0
H1997 H 0.82081 0.58505 0.2606 0.0
C1998 C 0.53235 0.07235 0.85818 0.0
C1999 C 0.52906 0.08496 0.8716 0.0
C2000 C 0.55039 0.077 0.85291 0.0
C2001 C 0.59767 0.1043 0.87583 0.0
H2002 H 0.6128 0.10295 0.81223 0.0
C2003 C 0.67448 0.1325 0.85565 0.0
C2004 C 0.67892 0.12535 0.83555 0.0
C2005 C 0.65613 0.12713 0.85997 0.0
C2006 C 0.60887 0.10306 0.8302 0.0
H2007 H 0.54232 0.11236 0.89002 0.0
H2008 H 0.57366 0.12014 0.8814 0.0
H2009 H 0.58101 0.09401 0.81946 0.0
H2010 H 0.66756 0.10642 0.8047 0.0
H2011 H 0.63559 0.09616 0.81272 0.0
H2012 H 0.62506 0.11254 0.88691 0.0
C2013 C 0.56227 0.10678 0.8747 0.0
C2014 C 0.59057 0.09804 0.83426 0.0
C2015 C 0.54427 0.10235 0.87948 0.0
C2016 C 0.66455 0.11231 0.82021 0.0
C2017 C 0.64617 0.10658 0.82478 0.0
C2018 C 0.61584 0.10889 0.87185 0.0
C2019 C 0.56556 0.09415 0.86146 0.0
C2020 C 0.58481 0.09879 0.8571 0.0
C2021 C 0.64159 0.11408 0.84458 0.0
C2022 C 0.62188 0.10856 0.84893 0.0
H2023 H 0.52099 0.05883 0.85191 0.0
H2024 H 0.55252 0.06696 0.8427 0.0
H2025 H 0.59357 0.10482 0.89366 0.0
H2026 H 0.6853 0.14276 0.86762 0.0
H2027 H 0.6535 0.13364 0.87516 0.0
C2028 C 0.94284 0.46024 0.86225 0.0
C2029 C 0.93544 0.4417 0.8531 0.0
C2030 C 0.94012 0.47292 0.8503 0.0
C2031 C 0.92568 0.48051 0.79225 0.0
H2032 H 0.91191 0.51171 0.82899 0.0
C2033 C 0.8901 0.51609 0.7506 0.0
C2034 C 0.8945 0.534 0.75952 0.0
C2035 C 0.89707 0.50626 0.7615 0.0
C2036 C 0.916 0.50333 0.81844 0.0
H2037 H 0.91987 0.42222 0.82373 0.0
H2038 H 0.9151 0.44417 0.80307 0.0
H2039 H 0.92087 0.49226 0.84871 0.0
H2040 H 0.90999 0.55563 0.78696 0.0
H2041 H 0.92235 0.53859 0.80577 0.0
H2042 H 0.92053 0.49136 0.76197 0.0
C2043 C 0.92314 0.44903 0.81938 0.0
C2044 C 0.92117 0.49215 0.82978 0.0
C2045 C 0.92581 0.43637 0.83133 0.0
C2046 C 0.90638 0.54195 0.77945 0.0
C2047 C 0.91332 0.53207 0.79042 0.0
C2048 C 0.92051 0.49168 0.78092 0.0
C2049 C 0.92999 0.46741 0.82885 0.0
C2050 C 0.92585 0.48039 0.81684 0.0
C2051 C 0.90866 0.51402 0.78168 0.0
C2052 C 0.91536 0.50306 0.79383 0.0
H2053 H 0.95033 0.46485 0.87897 0.0
H2054 H 0.94583 0.48701 0.85799 0.0
H2055 H 0.92951 0.47192 0.78168 0.0
H2056 H 0.88119 0.50958 0.73516 0.0
H2057 H 0.893 0.49234 0.75436 0.0
C2058 C 0.59574 0.49592 0.89924 0.0
C2059 C 0.61382 0.5008 0.89394 0.0
C2060 C 0.58146 0.47718 0.89765 0.0
C2061 C 0.57075 0.43345 0.864 0.0
H2062 H 0.52529 0.41161 0.89753 0.0
C2063 C 0.5133 0.359 0.83755 0.0
C2064 C 0.49531 0.35568 0.83529 0.0
C2065 C 0.52719 0.37526 0.84942 0.0
C2066 C 0.53786 0.41754 0.88792 0.0
H2067 H 0.63132 0.48987 0.88398 0.0
H2068 H 0.60674 0.45712 0.88243 0.0
H2069 H 0.55109 0.44239 0.91099 0.0
H2070 H 0.47755 0.36646 0.84477 0.0
H2071 H 0.50201 0.39526 0.86539 0.0
H2072 H 0.55762 0.40904 0.84064 0.0
C2073 C 0.60339 0.46773 0.88738 0.0
C2074 C 0.5527 0.43521 0.89566 0.0
C2075 C 0.61761 0.48649 0.88878 0.0
C2076 C 0.49125 0.36854 0.84646 0.0
C2077 C 0.50531 0.38507 0.8582 0.0
C2078 C 0.55603 0.4159 0.85633 0.0
C2079 C 0.58494 0.46285 0.89057 0.0
C2080 C 0.56939 0.44345 0.88377 0.0
C2081 C 0.52364 0.38895 0.85908 0.0
C2082 C 0.53933 0.40762 0.86811 0.0
H2083 H 0.59233 0.50672 0.90248 0.0
H2084 H 0.56752 0.47413 0.90009 0.0
H2085 H 0.58305 0.43943 0.85383 0.0
H2086 H 0.51684 0.34929 0.82928 0.0
H2087 H 0.54094 0.3774 0.85029 0.0
C2088 C 0.57128 0.69949 0.71057 0.0
C2089 C 0.56033 0.68913 0.69059 0.0
C2090 C 0.57167 0.71575 0.71938 0.0
C2091 C 0.54602 0.74121 0.71693 0.0
H2092 H 0.59326 0.78502 0.73459 0.0
C2093 C 0.55913 0.8161 0.71732 0.0
C2094 C 0.57217 0.83013 0.73321 0.0
C2095 C 0.55586 0.79788 0.71687 0.0
C2096 C 0.57988 0.77286 0.73019 0.0
H2097 H 0.54068 0.68755 0.66484 0.0
H2098 H 0.54155 0.71582 0.67985 0.0
H2099 H 0.59136 0.75529 0.72445 0.0
H2100 H 0.5914 0.83576 0.76192 0.0
H2101 H 0.58554 0.80378 0.76135 0.0
H2102 H 0.53461 0.75886 0.72211 0.0
C2103 C 0.5498 0.7114 0.68887 0.0
C2104 C 0.5788 0.75576 0.72431 0.0
C2105 C 0.54947 0.69525 0.68003 0.0
C2106 C 0.58107 0.82523 0.74967 0.0
C2107 C 0.57792 0.80695 0.74908 0.0
C2108 C 0.5471 0.75828 0.72281 0.0
C2109 C 0.561 0.722 0.70856 0.0
C2110 C 0.56191 0.73977 0.7171 0.0
C2111 C 0.56565 0.79316 0.7322 0.0
C2112 C 0.56411 0.77446 0.72903 0.0
H2113 H 0.57989 0.69529 0.71911 0.0
H2114 H 0.58034 0.72343 0.73469 0.0
H2115 H 0.53271 0.72915 0.71199 0.0
H2116 H 0.55215 0.81945 0.70429 0.0
H2117 H 0.54645 0.78778 0.70348 0.0
C2118 C 0.24519 0.76778 0.68734 0.0
C2119 C 0.22919 0.76898 0.68701 0.0
C2120 C 0.26131 0.78128 0.67725 0.0
C2121 C 0.28611 0.82981 0.66002 0.0
H2122 H 0.30986 0.81246 0.61609 0.0
C2123 C 0.34713 0.8811 0.6045 0.0
C2124 C 0.36026 0.87633 0.5978 0.0
C2125 C 0.3313 0.86851 0.61607 0.0
C2126 C 0.30373 0.8177 0.62864 0.0
H2127 H 0.21781 0.78567 0.6765 0.0
H2128 H 0.24608 0.80948 0.6593 0.0
H2129 H 0.2826 0.78993 0.63557 0.0
H2130 H 0.3676 0.85506 0.59911 0.0
H2131 H 0.34074 0.83359 0.62007 0.0
H2132 H 0.30746 0.85757 0.65372 0.0
C2133 C 0.24608 0.79798 0.66717 0.0
C2134 C 0.28795 0.80467 0.63972 0.0
C2135 C 0.22986 0.78428 0.67686 0.0
C2136 C 0.35755 0.85899 0.60364 0.0
C2137 C 0.34199 0.84659 0.61556 0.0
C2138 C 0.30212 0.84289 0.64924 0.0
C2139 C 0.26194 0.79652 0.66697 0.0
C2140 C 0.27891 0.81054 0.65552 0.0
C2141 C 0.32838 0.85094 0.62164 0.0
C2142 C 0.31122 0.83706 0.63332 0.0
H2143 H 0.24509 0.75612 0.69487 0.0
H2144 H 0.27332 0.77982 0.6775 0.0
H2145 H 0.27953 0.83478 0.67223 0.0
H2146 H 0.34881 0.89432 0.6001 0.0
H2147 H 0.32117 0.87243 0.6201 0.0
C2148 C 0.24084 0.42422 0.7235 0.0
C2149 C 0.25913 0.43594 0.71709 0.0
C2150 C 0.22692 0.42756 0.71664 0.0
C2151 C 0.21417 0.45065 0.67359 0.0
H2152 H 0.18199 0.4512 0.72146 0.0
C2153 C 0.16328 0.47586 0.65516 0.0
C2154 C 0.14625 0.46739 0.66609 0.0
C2155 C 0.17696 0.47198 0.66137 0.0
C2156 C 0.19059 0.45082 0.70771 0.0
H2157 H 0.27694 0.46004 0.69775 0.0
H2158 H 0.25253 0.4656 0.68534 0.0
H2159 H 0.20549 0.44383 0.7314 0.0
H2160 H 0.13021 0.44806 0.692 0.0
H2161 H 0.15376 0.44081 0.70242 0.0
H2162 H 0.1991 0.45716 0.64971 0.0
C2163 C 0.24902 0.45389 0.69582 0.0
C2164 C 0.20416 0.44664 0.71348 0.0
C2165 C 0.26302 0.45072 0.70298 0.0
C2166 C 0.14327 0.45499 0.68348 0.0
C2167 C 0.15685 0.45089 0.68947 0.0
C2168 C 0.20044 0.45457 0.66772 0.0
C2169 C 0.23085 0.44254 0.7029 0.0
C2170 C 0.21617 0.44659 0.69653 0.0
C2171 C 0.17394 0.45929 0.67848 0.0
C2172 C 0.18847 0.45483 0.68471 0.0
H2173 H 0.23733 0.41276 0.73443 0.0
H2174 H 0.21304 0.41844 0.72218 0.0
H2175 H 0.22307 0.45052 0.66006 0.0
H2176 H 0.1661 0.48568 0.64194 0.0
H2177 H 0.19 0.47914 0.65285 0.0
C2178 C 0.38771 0.90482 0.22778 0.0
C2179 C 0.38249 0.89661 0.24943 0.0
C2180 C 0.40512 0.9101 0.21893 0.0
C2181 C 0.45174 0.91872 0.23717 0.0
H2182 H 0.45651 0.91134 0.17065 0.0
C2183 C 0.51384 0.91606 0.19855 0.0
C2184 C 0.52121 0.92507 0.17786 0.0
C2185 C 0.49776 0.91465 0.20746 0.0
C2186 C 0.45547 0.91369 0.18925 0.0
H2187 H 0.39219 0.8882 0.27888 0.0
H2188 H 0.4217 0.89656 0.26324 0.0
H2189 H 0.42692 0.90502 0.1855 0.0
H2190 H 0.51741 0.93988 0.15048 0.0
H2191 H 0.48925 0.93724 0.16594 0.0
H2192 H 0.48014 0.92679 0.24094 0.0
C2193 C 0.41259 0.89928 0.25314 0.0
C2194 C 0.43847 0.91011 0.19781 0.0
C2195 C 0.39534 0.89414 0.26202 0.0
C2196 C 0.51222 0.93293 0.16653 0.0
C2197 C 0.49597 0.93128 0.17527 0.0
C2198 C 0.46863 0.92208 0.22865 0.0
C2199 C 0.41781 0.90732 0.23144 0.0
C2200 C 0.43626 0.91235 0.22196 0.0
C2201 C 0.48844 0.92199 0.19576 0.0
C2202 C 0.4707 0.91944 0.20461 0.0
H2203 H 0.37829 0.90693 0.21746 0.0
H2204 H 0.40862 0.91645 0.2023 0.0
H2205 H 0.45085 0.92111 0.25579 0.0
H2206 H 0.52034 0.9098 0.20771 0.0
H2207 H 0.49229 0.90728 0.22317 0.0
C2208 C 0.18206 0.50712 0.19439 0.0
C2209 C 0.16789 0.49101 0.20394 0.0
C2210 C 0.1784 0.51967 0.18385 0.0
C2211 C 0.14542 0.5362 0.18253 0.0
H2212 H 0.16961 0.55799 0.12548 0.0
C2213 C 0.13087 0.58754 0.13544 0.0
C2214 C 0.14553 0.60243 0.1246 0.0
C2215 C 0.13282 0.57327 0.14426 0.0
C2216 C 0.16291 0.55229 0.14158 0.0
H2217 H 0.13863 0.47551 0.20966 0.0
H2218 H 0.13217 0.49759 0.19133 0.0
H2219 H 0.17415 0.53437 0.1422 0.0
H2220 H 0.17384 0.6139 0.11477 0.0
H2221 H 0.17743 0.58934 0.13046 0.0
H2222 H 0.13452 0.5544 0.1823 0.0
C2223 C 0.14619 0.50047 0.19209 0.0
C2224 C 0.16546 0.53863 0.15114 0.0
C2225 C 0.14984 0.48773 0.20244 0.0
C2226 C 0.16219 0.60257 0.12273 0.0
C2227 C 0.16421 0.58838 0.13172 0.0
C2228 C 0.14298 0.55 0.17308 0.0
C2229 C 0.16045 0.51662 0.18264 0.0
C2230 C 0.15687 0.53047 0.17184 0.0
C2231 C 0.14956 0.57348 0.14267 0.0
C2232 C 0.15178 0.55837 0.15251 0.0
H2233 H 0.19608 0.51001 0.19488 0.0
H2234 H 0.18976 0.532 0.17698 0.0
H2235 H 0.13875 0.53041 0.19863 0.0
H2236 H 0.11773 0.58676 0.13686 0.0
H2237 H 0.12107 0.56194 0.15208 0.0
C2238 C 0.55229 0.6658 0.18143 0.0
C2239 C 0.54792 0.67071 0.20346 0.0
C2240 C 0.53884 0.65059 0.16718 0.0
C2241 C 0.48814 0.62103 0.15771 0.0
H2242 H 0.49834 0.58479 0.12711 0.0
C2243 C 0.43088 0.54647 0.12854 0.0
C2244 C 0.43317 0.53664 0.10936 0.0
C2245 C 0.44476 0.56459 0.13575 0.0
C2246 C 0.4953 0.59495 0.1351 0.0
H2247 H 0.52578 0.66264 0.2278 0.0
H2248 H 0.50259 0.63661 0.20305 0.0
H2249 H 0.5231 0.6126 0.14841 0.0
H2250 H 0.45163 0.5385 0.08205 0.0
H2251 H 0.47596 0.57046 0.09443 0.0
H2252 H 0.46036 0.60341 0.14474 0.0
C2253 C 0.51634 0.6447 0.19658 0.0
C2254 C 0.50953 0.61089 0.14742 0.0
C2255 C 0.52975 0.65975 0.21085 0.0
C2256 C 0.44931 0.54583 0.09663 0.0
C2257 C 0.46337 0.56402 0.10401 0.0
C2258 C 0.47397 0.60519 0.14532 0.0
C2259 C 0.52062 0.63997 0.17448 0.0
C2260 C 0.50603 0.62391 0.15939 0.0
C2261 C 0.46149 0.57345 0.12412 0.0
C2262 C 0.4772 0.59165 0.13432 0.0
H2263 H 0.566 0.67388 0.17489 0.0
H2264 H 0.54263 0.6474 0.15023 0.0
H2265 H 0.48501 0.63096 0.16624 0.0
H2266 H 0.4187 0.53969 0.13887 0.0
H2267 H 0.44277 0.57115 0.15143 0.0
C2268 C 0.14107 0.66397 0.64065 0.0
C2269 C 0.1579 0.67702 0.65211 0.0
C2270 C 0.13855 0.64708 0.63014 0.0
C2271 C 0.15723 0.61603 0.63744 0.0
H2272 H 0.12969 0.589 0.58026 0.0
C2273 C 0.15452 0.54835 0.60684 0.0
C2274 C 0.1374 0.53307 0.5991 0.0
C2275 C 0.15736 0.56643 0.60886 0.0
C2276 C 0.13733 0.59632 0.59635 0.0
H2277 H 0.18564 0.68333 0.65988 0.0
H2278 H 0.18152 0.65454 0.64111 0.0
H2279 H 0.1336 0.61966 0.59185 0.0
H2280 H 0.11002 0.52497 0.58628 0.0
H2281 H 0.11486 0.55655 0.59013 0.0
H2282 H 0.16071 0.59288 0.64249 0.0
C2283 C 0.17004 0.65687 0.64075 0.0
C2284 C 0.13956 0.6139 0.60299 0.0
C2285 C 0.17247 0.6735 0.65133 0.0
C2286 C 0.1235 0.53648 0.59194 0.0
C2287 C 0.12626 0.55463 0.59428 0.0
C2288 C 0.15498 0.59859 0.63091 0.0
C2289 C 0.15284 0.64304 0.6309 0.0
C2290 C 0.14977 0.6241 0.62352 0.0
C2291 C 0.14302 0.56975 0.60369 0.0
C2292 C 0.1452 0.58849 0.61014 0.0
H2293 H 0.12953 0.66621 0.64123 0.0
H2294 H 0.12512 0.63676 0.6227 0.0
H2295 H 0.1647 0.62313 0.65373 0.0
H2296 H 0.1655 0.5462 0.61248 0.0
H2297 H 0.17065 0.57773 0.61545 0.0
C2298 C 0.37633 0.53224 0.72298 0.0
C2299 C 0.36764 0.51296 0.71714 0.0
C2300 C 0.39039 0.54503 0.70935 0.0
C2301 C 0.41384 0.54943 0.6522 0.0
H2302 H 0.45468 0.59186 0.68635 0.0
C2303 C 0.48857 0.59005 0.62056 0.0
C2304 C 0.49936 0.60923 0.62684 0.0
C2305 C 0.47026 0.5798 0.62721 0.0
C2306 C 0.44327 0.58031 0.67641 0.0
H2307 H 0.36675 0.49201 0.6922 0.0
H2308 H 0.39161 0.51416 0.6688 0.0
H2309 H 0.42743 0.57094 0.70699 0.0
H2310 H 0.49942 0.63294 0.64422 0.0
H2311 H 0.46731 0.6151 0.65577 0.0
H2312 H 0.43034 0.55847 0.62182 0.0
C2313 C 0.3873 0.51956 0.68353 0.0
C2314 C 0.42753 0.56824 0.68828 0.0
C2315 C 0.37304 0.50679 0.697 0.0
C2316 C 0.49121 0.61826 0.63859 0.0
C2317 C 0.47293 0.60797 0.64552 0.0
C2318 C 0.42971 0.56143 0.64036 0.0
C2319 C 0.39639 0.5389 0.68968 0.0
C2320 C 0.41262 0.55246 0.67646 0.0
C2321 C 0.46249 0.58848 0.64075 0.0
C2322 C 0.44471 0.57691 0.65239 0.0
H2323 H 0.37229 0.53743 0.7382 0.0
H2324 H 0.39664 0.55977 0.71441 0.0
H2325 H 0.40258 0.5377 0.64231 0.0
H2326 H 0.49474 0.5827 0.6121 0.0
H2327 H 0.46271 0.56481 0.62343 0.0
C2328 C 0.5787 0.9205 0.658 0.0
C2329 C 0.57298 0.90565 0.67265 0.0
C2330 C 0.56635 0.9258 0.6503 0.0
C2331 C 0.52018 0.92028 0.6627 0.0
H2332 H 0.52538 0.93987 0.60156 0.0
C2333 C 0.46457 0.93141 0.61855 0.0
C2334 C 0.47073 0.94774 0.60654 0.0
C2335 C 0.47709 0.92678 0.62752 0.0
C2336 C 0.52382 0.9346 0.61879 0.0
H2337 H 0.54954 0.88445 0.69014 0.0
H2338 H 0.52791 0.89323 0.67627 0.0
H2339 H 0.54666 0.93044 0.61469 0.0
H2340 H 0.4951 0.97212 0.59495 0.0
H2341 H 0.51685 0.96399 0.61042 0.0
H2342 H 0.497 0.92407 0.66642 0.0
C2343 C 0.54208 0.90125 0.67122 0.0
C2344 C 0.53611 0.92921 0.62641 0.0
C2345 C 0.55449 0.8961 0.67913 0.0
C2346 C 0.4898 0.95946 0.60413 0.0
C2347 C 0.5023 0.95472 0.61285 0.0
C2348 C 0.50777 0.92549 0.65495 0.0
C2349 C 0.5478 0.91627 0.65676 0.0
C2350 C 0.53455 0.92198 0.64854 0.0
C2351 C 0.49613 0.93822 0.62449 0.0
C2352 C 0.50943 0.93277 0.6329 0.0
H2353 H 0.59288 0.92838 0.65293 0.0
H2354 H 0.57152 0.93766 0.63961 0.0
H2355 H 0.51861 0.91517 0.68002 0.0
H2356 H 0.45 0.922 0.62072 0.0
H2357 H 0.47181 0.91391 0.63624 0.0
C2358 C 0.21398 0.43308 0.17828 0.0
C2359 C 0.2026 0.41623 0.18879 0.0
C2360 C 0.23149 0.43756 0.17073 0.0
C2361 C 0.26156 0.41712 0.1586 0.0
H2362 H 0.30094 0.46875 0.16753 0.0
C2363 C 0.33874 0.43957 0.15262 0.0
C2364 C 0.35006 0.45548 0.14036 0.0
C2365 C 0.32067 0.43474 0.15777 0.0
C2366 C 0.29008 0.45428 0.16471 0.0
H2367 H 0.20078 0.39074 0.1991 0.0
H2368 H 0.23121 0.39864 0.18649 0.0
H2369 H 0.26963 0.46028 0.17704 0.0
H2370 H 0.35123 0.47899 0.12444 0.0
H2371 H 0.31981 0.47065 0.13349 0.0
H2372 H 0.28221 0.41115 0.14678 0.0
C2373 C 0.22657 0.40832 0.18357 0.0
C2374 C 0.27203 0.4494 0.17008 0.0
C2375 C 0.20903 0.40378 0.19092 0.0
C2376 C 0.34288 0.46656 0.13369 0.0
C2377 C 0.32489 0.46186 0.13907 0.0
C2378 C 0.27964 0.42199 0.15345 0.0
C2379 C 0.23823 0.42541 0.17365 0.0
C2380 C 0.25745 0.43072 0.16716 0.0
C2381 C 0.31348 0.44581 0.15106 0.0
C2382 C 0.29417 0.44064 0.15647 0.0
H2383 H 0.20952 0.44302 0.17629 0.0
H2384 H 0.2398 0.45067 0.16275 0.0
H2385 H 0.25078 0.40266 0.15564 0.0
H2386 H 0.34372 0.43062 0.15787 0.0
H2387 H 0.31235 0.4224 0.16722 0.0
C2388 C 0.5519 0.85036 0.14599 0.0
C2389 C 0.5639 0.86808 0.13791 0.0
C2390 C 0.55822 0.83834 0.1511 0.0
C2391 C 0.60068 0.83691 0.16388 0.0
H2392 H 0.56792 0.78384 0.14973 0.0
C2393 C 0.59818 0.76119 0.16514 0.0
C2394 C 0.60726 0.76377 0.18684 0.0
C2395 C 0.59477 0.77484 0.15751 0.0
C2396 C 0.57742 0.79862 0.15354 0.0
H2397 H 0.5921 0.88701 0.12896 0.0
H2398 H 0.60315 0.86595 0.13761 0.0
H2399 H 0.55842 0.80556 0.13943 0.0
H2400 H 0.62049 0.78315 0.21711 0.0
H2401 H 0.61426 0.80674 0.20406 0.0
H2402 H 0.61983 0.8299 0.17758 0.0
C2403 C 0.58884 0.86144 0.14033 0.0
C2404 C 0.57181 0.81112 0.14795 0.0
C2405 C 0.5825 0.87354 0.13532 0.0
C2406 C 0.61353 0.7807 0.20025 0.0
C2407 C 0.60999 0.7943 0.1927 0.0
C2408 C 0.60633 0.82437 0.16941 0.0
C2409 C 0.57674 0.8436 0.14817 0.0
C2410 C 0.58324 0.83044 0.15326 0.0
C2411 C 0.60018 0.7914 0.17145 0.0
C2412 C 0.59472 0.80501 0.16449 0.0
H2413 H 0.53759 0.84581 0.14872 0.0
H2414 H 0.54855 0.82496 0.15765 0.0
H2415 H 0.60984 0.85165 0.16842 0.0
H2416 H 0.59327 0.7484 0.15426 0.0
H2417 H 0.5876 0.77224 0.14079 0.0
C2418 C 0.26025 0.83572 0.22391 0.0
C2419 C 0.27577 0.83576 0.2329 0.0
C2420 C 0.24439 0.81879 0.21596 0.0
C2421 C 0.22209 0.76756 0.22327 0.0
H2422 H 0.19219 0.76123 0.16828 0.0
C2423 C 0.17392 0.69569 0.17596 0.0
C2424 C 0.15702 0.69167 0.16592 0.0
C2425 C 0.18616 0.71336 0.18663 0.0
C2426 C 0.20021 0.76282 0.18392 0.0
H2427 H 0.28713 0.81818 0.23914 0.0
H2428 H 0.26012 0.7892 0.22492 0.0
H2429 H 0.21826 0.79224 0.18046 0.0
H2430 H 0.13961 0.70308 0.1594 0.0
H2431 H 0.16109 0.73419 0.17816 0.0
H2432 H 0.20446 0.7382 0.22649 0.0
C2433 C 0.25974 0.80197 0.22464 0.0
C2434 C 0.21521 0.78063 0.19088 0.0
C2435 C 0.27538 0.8187 0.23262 0.0
C2436 C 0.15232 0.70561 0.16754 0.0
C2437 C 0.16477 0.72351 0.17792 0.0
C2438 C 0.20723 0.74985 0.21629 0.0
C2439 C 0.24377 0.80159 0.21683 0.0
C2440 C 0.22666 0.78316 0.21035 0.0
C2441 C 0.18203 0.72772 0.1872 0.0
C2442 C 0.1963 0.7471 0.19622 0.0
H2443 H 0.26003 0.84858 0.22405 0.0
H2444 H 0.23239 0.81909 0.21001 0.0
H2445 H 0.23017 0.76896 0.23876 0.0
H2446 H 0.1781 0.68538 0.17453 0.0
H2447 H 0.19934 0.71604 0.19328 0.0
C2448 C 0.29801 0.28415 0.9853 0.0
C2449 C 0.3033 0.27345 0.99774 0.0
C2450 C 0.30816 0.30373 0.98794 0.0
C2451 C 0.35393 0.34364 0.00504 0.0
H2452 H 0.32896 0.37025 0.02367 0.0
C2453 C 0.39244 0.41577 0.05316 0.0
C2454 C 0.38676 0.42882 0.05127 0.0
C2455 C 0.38263 0.39804 0.04178 0.0
C2456 C 0.33616 0.36317 0.01795 0.0
H2457 H 0.32366 0.27499 0.02225 0.0
H2458 H 0.34163 0.30908 0.02628 0.0
H2459 H 0.31102 0.33667 0.01307 0.0
H2460 H 0.3666 0.43367 0.035 0.0
H2461 H 0.34935 0.40243 0.01449 0.0
H2462 H 0.37902 0.36989 0.00973 0.0
C2463 C 0.32955 0.30233 0.01464 0.0
C2464 C 0.32585 0.34387 0.012 0.0
C2465 C 0.31922 0.28279 0.01238 0.0
C2466 C 0.37138 0.42396 0.03668 0.0
C2467 C 0.36141 0.40599 0.02518 0.0
C2468 C 0.36419 0.3629 0.01061 0.0
C2469 C 0.32403 0.31304 0.00267 0.0
C2470 C 0.33468 0.33381 0.00616 0.0
C2471 C 0.36676 0.39267 0.02792 0.0
C2472 C 0.35553 0.37287 0.01796 0.0
H2473 H 0.28574 0.27741 0.97402 0.0
H2474 H 0.30361 0.31161 0.97843 0.0
H2475 H 0.36111 0.33634 1.00018 0.0
H2476 H 0.40426 0.41902 0.0642 0.0
H2477 H 0.38712 0.38827 0.04481 0.0
C2478 C 0.62923 0.95748 0.16701 0.0
C2479 C 0.61808 0.95864 0.14972 0.0
C2480 C 0.64836 0.9663 0.1648 0.0
C2481 C 0.68738 1.00288 0.13273 0.0
H2482 H 0.71209 0.97659 0.14963 0.0
C2483 C 0.76215 0.02772 0.10677 0.0
C2484 C 0.77406 0.02694 0.12329 0.0
C2485 C 0.74328 0.01942 0.11057 0.0
C2486 C 0.70547 0.98424 0.14507 0.0
H2487 H 0.61852 0.97035 0.11665 0.0
H2488 H 0.65168 0.98555 0.11273 0.0
H2489 H 0.67919 0.96262 0.15561 0.0
H2490 H 0.77511 1.01636 0.15663 0.0
H2491 H 0.74224 1.00205 0.16338 0.0
H2492 H 0.71361 0.02443 0.12204 0.0
C2493 C 0.64572 0.978 0.12819 0.0
C2494 C 0.68656 0.97623 0.14854 0.0
C2495 C 0.62662 0.96919 0.1304 0.0
C2496 C 0.76644 1.01738 0.1436 0.0
C2497 C 0.74753 1.00902 0.14737 0.0
C2498 C 0.70626 1.01087 0.12923 0.0
C2499 C 0.65687 0.97656 0.14523 0.0
C2500 C 0.6772 0.98538 0.1423 0.0
C2501 C 0.73569 1.01006 0.131 0.0
C2502 C 0.71558 1.00163 0.13521 0.0
H2503 H 0.62316 0.94949 0.18213 0.0
H2504 H 0.65647 0.96508 0.17846 0.0
H2505 H 0.68078 1.01054 0.1281 0.0
H2506 H 0.76741 0.03511 0.09106 0.0
H2507 H 0.73461 0.02032 0.0974 0.0
C2508 C 1.00501 0.74305 0.09112 0.0
C2509 C 1.01085 0.7609 0.08357 0.0
C2510 C 1.01744 0.73691 0.0938 0.0
C2511 C 0.06639 0.74985 0.09659 0.0
H2512 H 0.04666 0.70044 0.06586 0.0
C2513 C 0.11042 0.71439 0.08174 0.0
C2514 C 0.10158 0.69511 0.08485 0.0
C2515 C 0.1004 0.72362 0.08176 0.0
C2516 C 0.05239 0.71413 0.07481 0.0
H2517 H 0.03454 0.78674 0.07413 0.0
H2518 H 0.05654 0.77602 0.07902 0.0
H2519 H 0.02786 0.71473 0.06792 0.0
H2520 H 0.07504 0.67048 0.08981 0.0
H2521 H 0.05782 0.68645 0.09045 0.0
H2522 H 0.09094 0.74906 0.10367 0.0
C2523 C 0.04227 0.76683 0.08306 0.0
C2524 C 0.04156 0.72237 0.07598 0.0
C2525 C 0.02973 0.77306 0.08047 0.0
C2526 C 0.08243 0.68533 0.08764 0.0
C2527 C 0.07247 0.69452 0.08771 0.0
C2528 C 0.07726 0.7415 0.09557 0.0
C2529 C 0.03608 0.74836 0.08871 0.0
C2530 C 0.04826 0.74022 0.08716 0.0
C2531 C 0.08125 0.71381 0.0848 0.0
C2532 C 0.0703 0.72339 0.08491 0.0
H2533 H 0.99053 0.73335 0.09348 0.0
H2534 H 1.01225 0.72277 0.09873 0.0
H2535 H 0.07199 0.76362 0.10528 0.0
H2536 H 0.12515 0.72247 0.07973 0.0
H2537 H 0.10765 0.73844 0.07923 0.0
C2538 C 0.28834 0.2907 0.50091 0.0
C2539 C 0.27753 0.2908 0.48226 0.0
C2540 C 0.30761 0.30037 0.5001 0.0
C2541 C 0.34731 0.33721 0.46892 0.0
H2542 H 0.3729 0.31326 0.49142 0.0
C2543 C 0.42339 0.36329 0.44796 0.0
C2544 C 0.43505 0.36305 0.46538 0.0
C2545 C 0.40443 0.35507 0.45107 0.0
C2546 C 0.36605 0.3203 0.48532 0.0
H2547 H 0.27876 0.30161 0.4483 0.0
H2548 H 0.3122 0.3183 0.44682 0.0
H2549 H 0.33968 0.29832 0.49509 0.0
H2550 H 0.4355 0.35385 0.49994 0.0
H2551 H 0.40245 0.33948 0.50533 0.0
H2552 H 0.37365 0.35909 0.45895 0.0
C2553 C 0.30584 0.31092 0.46225 0.0
C2554 C 0.34692 0.31171 0.48745 0.0
C2555 C 0.28658 0.30125 0.46306 0.0
C2556 C 0.42705 0.3542 0.486 0.0
C2557 C 0.40803 0.34592 0.4891 0.0
C2558 C 0.36642 0.34577 0.46677 0.0
C2559 C 0.31667 0.31044 0.48062 0.0
C2560 C 0.33722 0.31997 0.47915 0.0
C2561 C 0.39643 0.34627 0.47169 0.0
C2562 C 0.37609 0.33739 0.47478 0.0
H2563 H 0.28191 0.28284 0.51601 0.0
H2564 H 0.31541 0.29989 0.51478 0.0
H2565 H 0.34047 0.34421 0.46269 0.0
H2566 H 0.4288 0.36956 0.43162 0.0
H2567 H 0.39598 0.35533 0.43704 0.0
C2568 C 0.67567 0.08305 0.39398 0.0
C2569 C 0.68153 0.09397 0.3745 0.0
C2570 C 0.68595 0.0755 0.40246 0.0
C2571 C 0.73149 0.0784 0.39907 0.0
H2572 H 0.70332 0.02497 0.40517 0.0
C2573 C 0.7651 0.03305 0.39164 0.0
C2574 C 0.75882 1.01767 0.40552 0.0
C2575 C 0.75613 0.04326 0.39127 0.0
C2576 C 0.71145 0.03994 0.40395 0.0
H2577 H 0.70308 0.10643 0.34951 0.0
H2578 H 0.72113 0.09382 0.36452 0.0
H2579 H 0.68735 0.04208 0.40034 0.0
H2580 H 0.7379 1.00107 0.42989 0.0
H2581 H 0.72256 0.01907 0.42961 0.0
H2582 H 0.75557 0.07627 0.40228 0.0
C2583 C 0.7087 0.09096 0.37334 0.0
C2584 C 0.70225 0.04978 0.40122 0.0
C2585 C 0.69835 0.0982 0.3647 0.0
C2586 C 0.74332 1.01289 0.41913 0.0
C2587 C 0.73435 0.02313 0.41878 0.0
C2588 C 0.74068 0.06859 0.40188 0.0
C2589 C 0.70237 0.079 0.39182 0.0
C2590 C 0.71214 0.06907 0.39823 0.0
C2591 C 0.7406 0.03845 0.4048 0.0
C2592 C 0.7308 0.04914 0.40384 0.0
H2593 H 0.6626 0.07931 0.40158 0.0
H2594 H 0.68075 0.06644 0.41683 0.0
H2595 H 0.73956 0.09329 0.39714 0.0
H2596 H 0.77705 0.03735 0.38109 0.0
H2597 H 0.76123 0.05477 0.38 0.0
C2598 C 0.02852 0.74215 0.50523 0.0
C2599 C 0.04392 0.75395 0.49234 0.0
C2600 C 1.01896 0.72271 0.50034 0.0
C2601 C 1.02403 0.68461 0.47149 0.0
H2602 H 0.97076 0.65726 0.465 0.0
C2603 C 0.98509 0.61491 0.41771 0.0
C2604 C 0.9683 0.60026 0.42516 0.0
C2605 C 0.99368 0.63256 0.42941 0.0
C2606 C 0.98561 0.6646 0.46715 0.0
H2607 H 0.06145 0.75438 0.46443 0.0
H2608 H 0.04498 0.7207 0.45607 0.0
H2609 H 0.98718 0.6903 0.4789 0.0
H2610 H 0.94741 0.59286 0.45106 0.0
H2611 H 0.96255 0.62413 0.47171 0.0
H2612 H 1.02261 0.65917 0.45941 0.0
C2613 C 0.04029 0.7264 0.47005 0.0
C2614 C 0.99504 0.68357 0.47508 0.0
C2615 C 0.04971 0.74578 0.47478 0.0
C2616 C 0.96034 0.6038 0.44489 0.0
C2617 C 0.96897 0.62172 0.45662 0.0
C2618 C 1.01465 0.66574 0.46366 0.0
C2619 C 1.0247 0.71457 0.48263 0.0
C2620 C 1.01442 0.69394 0.47675 0.0
C2621 C 0.98583 0.6363 0.44902 0.0
C2622 C 0.99535 0.65558 0.46073 0.0
H2623 H 1.0236 0.74794 0.51881 0.0
H2624 H 1.00711 0.71404 0.51048 0.0
H2625 H 0.03891 0.692 0.47309 0.0
H2626 H 0.99173 0.61285 0.40262 0.0
H2627 H 1.00642 0.64344 0.4227 0.0
C2628 C 0.68306 0.62209 0.91789 0.0
C2629 C 0.67884 0.61488 0.89447 0.0
C2630 C 0.69419 0.64148 0.9232 0.0
C2631 C 0.71007 0.68665 0.89568 0.0
H2632 H 0.74371 0.70815 0.94962 0.0
C2633 C 0.75595 0.76719 0.91538 0.0
C2634 C 0.75597 0.77334 0.93876 0.0
C2635 C 0.74847 0.74803 0.90916 0.0
C2636 C 0.73433 0.70237 0.93449 0.0
H2637 H 0.68399 0.62227 0.85836 0.0
H2638 H 0.70355 0.65551 0.86751 0.0
H2639 H 0.7268 0.67436 0.9412 0.0
H2640 H 0.74887 0.76422 0.97402 0.0
H2641 H 0.73609 0.73136 0.96329 0.0
H2642 H 0.71749 0.71464 0.88908 0.0
C2643 C 0.69784 0.64651 0.88187 0.0
C2644 C 0.72455 0.68294 0.92973 0.0
C2645 C 0.68667 0.62733 0.87663 0.0
C2646 C 0.74899 0.76004 0.95578 0.0
C2647 C 0.74177 0.7411 0.94967 0.0
C2648 C 0.7199 0.70606 0.90039 0.0
C2649 C 0.70143 0.65399 0.90519 0.0
C2650 C 0.71217 0.67476 0.91032 0.0
C2651 C 0.74115 0.73473 0.92627 0.0
C2652 C 0.73203 0.7142 0.91999 0.0
H2653 H 0.6772 0.61287 0.93202 0.0
H2654 H 0.69659 0.64668 0.94139 0.0
H2655 H 0.70044 0.68095 0.88081 0.0
H2656 H 0.76119 0.77706 0.90187 0.0
H2657 H 0.74832 0.74361 0.89096 0.0
C2658 C 0.28056 0.98068 0.88056 0.0
C2659 C 0.27304 0.97976 0.90275 0.0
C2660 C 0.29964 0.98922 0.87811 0.0
C2661 C 0.34336 1.00315 0.90979 0.0
H2662 H 0.36577 0.03876 0.86219 0.0
C2663 C 0.42276 0.05047 0.90565 0.0
C2664 C 0.43079 0.05656 0.88395 0.0
C2665 C 0.40357 0.0403 0.90756 0.0
C2666 C 0.35983 0.02862 0.87531 0.0
H2667 H 0.27992 0.98682 0.93985 0.0
H2668 H 0.31319 1.00134 0.93561 0.0
H2669 H 0.33255 0.02239 0.86621 0.0
H2670 H 0.42472 0.05611 0.84706 0.0
H2671 H 0.39138 0.03776 0.8501 0.0
H2672 H 0.37046 1.00893 0.91863 0.0
C2673 C 0.30426 0.99552 0.92007 0.0
C2674 C 0.34069 0.01927 0.87768 0.0
C2675 C 0.28516 0.98723 0.92249 0.0
C2676 C 0.41906 0.05174 0.86408 0.0
C2677 C 0.39984 0.04133 0.86592 0.0
C2678 C 0.36249 1.01228 0.90721 0.0
C2679 C 0.31178 0.99685 0.89781 0.0
C2680 C 0.33219 1.00649 0.89505 0.0
C2681 C 0.39173 0.03563 0.88776 0.0
C2682 C 0.37112 0.0253 0.89002 0.0
H2683 H 0.27171 0.97516 0.86492 0.0
H2684 H 0.30491 0.98982 0.86073 0.0
H2685 H 0.33727 0.99323 0.92317 0.0
H2686 H 0.43129 0.05403 0.92142 0.0
H2687 H 0.3981 0.03658 0.92479 0.0
C2688 C 0.04472 0.31157 0.91927 0.0
C2689 C 0.04615 0.31116 0.94373 0.0
C2690 C 0.03551 0.3199 0.90959 0.0
C2691 C 1.02571 0.35692 0.92494 0.0
H2692 H 0.98434 0.33344 0.88038 0.0
C2693 C 0.97826 0.38663 0.91453 0.0
C2694 C 0.97041 0.38564 0.89244 0.0
C2695 C 0.98826 0.37775 0.91787 0.0
C2696 C 0.99609 0.34036 0.89252 0.0
H2697 H 0.03795 0.31818 0.97696 0.0
H2698 H 1.02241 0.33266 0.96023 0.0
H2699 H 1.00022 0.31689 0.89054 0.0
H2700 H 0.96711 0.37451 0.85644 0.0
H2701 H 0.9849 0.35924 0.8622 0.0
H2702 H 1.02183 0.38031 0.92716 0.0
C2703 C 0.02851 0.32681 0.94851 0.0
C2704 C 1.00516 0.33084 0.89832 0.0
C2705 C 0.03743 0.31842 0.95807 0.0
C2706 C 0.97297 0.37559 0.8737 0.0
C2707 C 0.98308 0.36672 0.87705 0.0
C2708 C 1.01684 0.36646 0.91902 0.0
C2709 C 0.02779 0.32809 0.92426 0.0
C2710 C 1.01975 0.33885 0.9151 0.0
C2711 C 0.99088 0.36768 0.89921 0.0
C2712 C 1.00153 0.35814 0.90326 0.0
H2713 H 0.05127 0.30612 0.90773 0.0
H2714 H 0.03507 0.32064 0.89078 0.0
H2715 H 0.03709 0.36356 0.93768 0.0
H2716 H 0.97649 0.39408 0.92945 0.0
H2717 H 0.99366 0.37852 0.93533 0.0
C2718 C 0.75314 0.73549 0.56184 0.0
C2719 C 0.75478 0.72482 0.54311 0.0
C2720 C 0.73566 0.73156 0.56906 0.0
C2721 C 0.68677 0.7079 0.54766 0.0
H2722 H 0.67563 0.70583 0.61343 0.0
C2723 C 0.61199 0.67164 0.58098 0.0
C2724 C 0.60896 0.67837 0.60254 0.0
C2725 C 0.62985 0.67963 0.57239 0.0
C2726 C 0.67851 0.70666 0.59496 0.0
H2727 H 0.73919 0.7014 0.51767 0.0
H2728 H 0.70919 0.69466 0.53021 0.0
H2729 H 0.70684 0.71554 0.60196 0.0
H2730 H 0.6219 0.69958 0.63105 0.0
H2731 H 0.65267 0.71396 0.61572 0.0
H2732 H 0.65843 0.69888 0.5406 0.0
C2733 C 0.72127 0.70623 0.53914 0.0
C2734 C 0.69648 0.71222 0.58841 0.0
C2735 C 0.73858 0.71004 0.53208 0.0
C2736 C 0.62383 0.69405 0.61441 0.0
C2737 C 0.64155 0.70214 0.60576 0.0
C2738 C 0.66881 0.70242 0.5542 0.0
C2739 C 0.71951 0.71699 0.55756 0.0
C2740 C 0.70079 0.71265 0.56467 0.0
C2741 C 0.64499 0.69461 0.58512 0.0
C2742 C 0.66435 0.70152 0.57795 0.0
H2743 H 0.76531 0.74698 0.57069 0.0
H2744 H 0.7348 0.74015 0.58332 0.0
H2745 H 0.68966 0.70835 0.5292 0.0
H2746 H 0.60084 0.6594 0.57164 0.0
H2747 H 0.63191 0.67336 0.55649 0.0
C2748 C 0.32339 0.04649 0.60286 0.0
C2749 C 0.31613 0.04716 0.58101 0.0
C2750 C 0.33396 0.03797 0.60469 0.0
C2751 C 0.36244 0.02346 0.57076 0.0
H2752 H 0.35213 0.98979 0.62008 0.0
C2753 C 0.39487 0.97665 0.57302 0.0
C2754 C 0.39852 0.97186 0.59475 0.0
C2755 C 0.38555 0.98649 0.57165 0.0
C2756 C 0.35551 0.99938 0.60641 0.0
H2757 H 0.31471 0.03958 0.54388 0.0
H2758 H 0.33337 0.02499 0.54704 0.0
H2759 H 0.33492 1.00578 0.61715 0.0
H2760 H 0.39553 0.97422 0.63218 0.0
H2761 H 0.37991 0.99192 0.62995 0.0
H2762 H 0.38324 1.01742 0.5602 0.0
C2763 C 0.33083 0.03105 0.56279 0.0
C2764 C 0.34551 1.00852 0.60469 0.0
C2765 C 0.32006 0.03936 0.56099 0.0
C2766 C 0.39291 0.97757 0.61512 0.0
C2767 C 0.38376 0.98762 0.61379 0.0
C2768 C 0.37259 1.01449 0.57263 0.0
C2769 C 0.33779 0.03007 0.58471 0.0
C2770 C 0.34875 0.02061 0.58676 0.0
C2771 C 0.37973 0.99209 0.592 0.0
C2772 C 0.36924 1.00218 0.59041 0.0
H2773 H 0.32066 0.05229 0.61869 0.0
H2774 H 0.33922 0.03767 0.62182 0.0
H2775 H 0.3655 0.03285 0.55691 0.0
H2776 H 0.39881 0.97238 0.5569 0.0
H2777 H 0.38252 0.98928 0.55448 0.0
C2778 C 0.0539 0.40687 0.60173 0.0
C2779 C 0.07228 0.41904 0.59617 0.0
C2780 C 0.04629 0.38756 0.59974 0.0
C2781 C 0.05827 0.35082 0.60023 0.0
H2782 H 1.00709 0.31916 0.58007 0.0
C2783 C 1.01793 0.26853 0.58981 0.0
C2784 C 0.99923 0.25947 0.59526 0.0
C2785 C 0.02869 0.28816 0.59132 0.0
C2786 C 1.02134 0.32776 0.58605 0.0
H2787 H 0.09706 0.42035 0.5837 0.0
H2788 H 0.08363 0.38622 0.58003 0.0
H2789 H 1.02216 0.35265 0.57695 0.0
H2790 H 0.9774 0.26368 0.60768 0.0
H2791 H 0.99616 0.29766 0.61128 0.0
H2792 H 0.05726 0.32563 0.60928 0.0
C2793 C 0.07515 0.39181 0.58604 0.0
C2794 C 0.03003 0.34703 0.58415 0.0
C2795 C 0.08278 0.41133 0.58783 0.0
C2796 C 0.99188 0.27029 0.60385 0.0
C2797 C 1.00256 0.28979 0.60546 0.0
C2798 C 0.04952 0.33138 0.60206 0.0
C2799 C 0.05682 0.37968 0.59221 0.0
C2800 C 0.0485 0.35893 0.59167 0.0
C2801 C 1.02085 0.29903 0.59812 0.0
C2802 C 0.03079 0.31965 0.59548 0.0
H2803 H 0.04542 0.41232 0.60831 0.0
H2804 H 0.03225 0.3788 0.60497 0.0
H2805 H 0.07248 0.35954 0.60631 0.0
H2806 H 1.02378 0.26054 0.58241 0.0
H2807 H 0.0427 0.29478 0.58549 0.0
C2808 C 0.94963 0.62424 0.78068 0.0
C2809 C 0.9385 0.62328 0.76171 0.0
C2810 C 0.96879 0.63297 0.77892 0.0
C2811 C 1.00801 0.66527 0.743 0.0
H2812 H 0.0322 0.64096 0.76875 0.0
C2813 C 0.08152 0.68409 0.71769 0.0
C2814 C 0.09364 0.68476 0.73515 0.0
C2815 C 0.06295 0.6774 0.72214 0.0
C2816 C 1.02574 0.6481 0.7617 0.0
H2817 H 0.93907 0.63132 0.72619 0.0
H2818 H 0.97228 0.64635 0.72307 0.0
H2819 H 0.99947 0.62842 0.77457 0.0
H2820 H 0.09537 0.67885 0.77119 0.0
H2821 H 0.063 0.6671 0.77888 0.0
H2822 H 0.03423 0.6848 0.72988 0.0
C2823 C 0.96628 0.64054 0.73946 0.0
C2824 C 1.00692 0.6409 0.76507 0.0
C2825 C 0.94714 0.63182 0.74122 0.0
C2826 C 0.08652 0.67839 0.75719 0.0
C2827 C 0.0679 0.67164 0.76162 0.0
C2828 C 1.02681 0.67244 0.73959 0.0
C2829 C 0.97739 0.64101 0.75814 0.0
C2830 C 0.99771 0.64928 0.7556 0.0
C2831 C 0.05585 0.6711 0.74417 0.0
C2832 C 0.03593 0.66386 0.7487 0.0
H2833 H 0.9435 0.61784 0.79675 0.0
H2834 H 0.97686 0.6333 0.79383 0.0
H2835 H 1.00156 0.67235 0.7358 0.0
H2836 H 0.08623 0.68846 0.70036 0.0
H2837 H 0.05408 0.67687 0.7081 0.0
C2838 C 0.3345 0.40737 0.73851 0.0
C2839 C 0.33996 0.42167 0.72301 0.0
C2840 C 0.34434 0.39808 0.74045 0.0
C2841 C 0.39066 0.40497 0.73104 0.0
H2842 H 0.36684 0.35173 0.73781 0.0
C2843 C 0.43264 0.36769 0.73448 0.0
C2844 C 0.42698 0.35312 0.74963 0.0
C2845 C 0.42167 0.37545 0.73027 0.0
C2846 C 0.37377 0.36666 0.73625 0.0
H2847 H 0.35979 0.4369 0.69685 0.0
H2848 H 0.37679 0.42073 0.70021 0.0
H2849 H 0.34818 0.36597 0.73225 0.0
H2850 H 0.40478 0.33518 0.77179 0.0
H2851 H 0.38616 0.34905 0.76513 0.0
H2852 H 0.41622 0.40583 0.73548 0.0
C2853 C 0.36504 0.41683 0.71108 0.0
C2854 C 0.36302 0.37482 0.73299 0.0
C2855 C 0.35516 0.42602 0.70903 0.0
C2856 C 0.40989 0.3465 0.76027 0.0
C2857 C 0.39898 0.35433 0.75616 0.0
C2858 C 0.4014 0.39685 0.73446 0.0
C2859 C 0.35996 0.40294 0.72708 0.0
C2860 C 0.37132 0.39409 0.73031 0.0
C2861 C 0.4047 0.36897 0.74114 0.0
C2862 C 0.39315 0.37757 0.73713 0.0
H2863 H 0.32292 0.40367 0.74962 0.0
H2864 H 0.34008 0.38753 0.75305 0.0
H2865 H 0.39755 0.4199 0.72945 0.0
H2866 H 0.44567 0.37331 0.72598 0.0
H2867 H 0.42649 0.38649 0.71831 0.0
C2868 C 0.62038 0.94976 0.75777 0.0
C2869 C 0.63334 0.94421 0.75341 0.0
C2870 C 0.62565 0.96874 0.75756 0.0
C2871 C 0.65785 1.00969 0.72814 0.0
H2872 H 0.65705 0.04175 0.77922 0.0
C2873 C 0.7091 0.08807 0.7369 0.0
C2874 C 0.70464 0.10036 0.74869 0.0
C2875 C 0.69624 0.06898 0.73406 0.0
C2876 C 0.65697 0.03295 0.76453 0.0
H2877 H 0.66216 0.95433 0.74727 0.0
H2878 H 0.67112 0.98697 0.74678 0.0
H2879 H 0.6422 1.00803 0.78329 0.0
H2880 H 0.68297 0.10247 0.76596 0.0
H2881 H 0.66018 0.06896 0.7607 0.0
H2882 H 0.67286 0.03434 0.70946 0.0
C2883 C 0.65693 0.97679 0.75005 0.0
C2884 C 0.64851 1.01364 0.76695 0.0
C2885 C 0.65177 0.95807 0.75046 0.0
C2886 C 0.6866 0.09336 0.75623 0.0
C2887 C 0.67368 0.07412 0.75361 0.0
C2888 C 0.66609 0.02885 0.72562 0.0
C2889 C 0.64386 0.98228 0.75281 0.0
C2890 C 0.64949 1.00196 0.74908 0.0
C2891 C 0.67858 0.06159 0.74324 0.0
C2892 C 0.66644 0.04089 0.74411 0.0
H2893 H 0.60605 0.93941 0.75988 0.0
H2894 H 0.61533 0.97268 0.75985 0.0
H2895 H 0.65861 1.00095 0.71398 0.0
H2896 H 0.72306 0.09304 0.7315 0.0
H2897 H 0.7007 0.05988 0.72627 0.0
C2898 C 0.33885 0.95421 0.2699 0.0
C2899 C 0.33749 0.94593 0.24727 0.0
C2900 C 0.34703 0.97362 0.27371 0.0
C2901 C 0.35928 1.01677 0.24466 0.0
H2902 H 0.39495 0.04151 0.29625 0.0
C2903 C 0.40464 0.09762 0.25612 0.0
C2904 C 0.41051 0.10637 0.27877 0.0
C2905 C 0.39503 0.0781 0.25251 0.0
C2906 C 0.3848 0.03491 0.282 0.0
H2907 H 0.34342 0.95177 0.21085 0.0
H2908 H 0.35739 0.98563 0.21748 0.0
H2909 H 0.37943 1.00771 0.28951 0.0
H2910 H 0.41028 0.10119 0.31548 0.0
H2911 H 0.39294 0.06725 0.30937 0.0
H2912 H 0.36427 0.04382 0.23736 0.0
C2913 C 0.35215 0.97704 0.23228 0.0
C2914 C 0.37593 1.01544 0.27807 0.0
C2915 C 0.34419 0.95761 0.2285 0.0
C2916 C 0.40607 0.09499 0.29778 0.0
C2917 C 0.39624 0.07544 0.2942 0.0
C2918 C 0.36796 0.03624 0.24877 0.0
C2919 C 0.35389 0.98533 0.255 0.0
C2920 C 0.36312 1.0061 0.25929 0.0
C2921 C 0.39074 0.06663 0.27146 0.0
C2922 C 0.38097 0.04569 0.26744 0.0
H2923 H 0.3339 0.94573 0.28483 0.0
H2924 H 0.34794 0.97947 0.29139 0.0
H2925 H 0.34932 1.01004 0.23021 0.0
H2926 H 0.40792 0.10587 0.24099 0.0
H2927 H 0.39142 0.07208 0.23468 0.0
C2928 C 0.95849 0.33328 0.23192 0.0
C2929 C 0.95537 0.32798 0.25519 0.0
C2930 C 0.97635 0.34131 0.22297 0.0
C2931 C 1.02081 0.34356 0.23364 0.0
H2932 H 0.04378 0.38952 0.20178 0.0
C2933 C 0.09963 0.38791 0.2271 0.0
C2934 C 0.10729 0.3976 0.20692 0.0
C2935 C 0.08059 0.37853 0.23013 0.0
C2936 C 0.03752 0.37651 0.21033 0.0
H2937 H 0.9689 0.32741 0.28722 0.0
H2938 H 0.99929 0.341 0.27178 0.0
H2939 H 1.01123 0.37478 0.2114 0.0
H2940 H 0.10063 0.40475 0.17394 0.0
H2941 H 0.06738 0.3882 0.17911 0.0
H2942 H 0.04688 0.34518 0.23287 0.0
C2943 C 0.98811 0.33887 0.26027 0.0
C2944 C 1.01883 0.36806 0.21582 0.0
C2945 C 0.97054 0.33113 0.26918 0.0
C2946 C 0.09527 0.39743 0.1897 0.0
C2947 C 0.07617 0.38804 0.19276 0.0
C2948 C 0.03937 0.3519 0.22809 0.0
C2949 C 0.99132 0.34391 0.23703 0.0
C2950 C 1.01036 0.35172 0.2281 0.0
C2951 C 0.06853 0.37849 0.21308 0.0
C2952 C 0.04819 0.36876 0.21688 0.0
H2953 H 0.94718 0.3311 0.22065 0.0
H2954 H 0.97838 0.34509 0.20496 0.0
H2955 H 1.01466 0.33077 0.24269 0.0
H2956 H 0.10838 0.38779 0.24084 0.0
H2957 H 0.07538 0.37166 0.24622 0.0
C2958 C 0.71475 0.62602 0.23675 0.0
C2959 C 0.72433 0.63241 0.25858 0.0
C2960 C 0.70477 0.634 0.22833 0.0
C2961 C 0.70254 0.67741 0.23686 0.0
H2962 H 0.6527 0.64806 0.21093 0.0
C2963 C 0.65433 0.70713 0.23497 0.0
C2964 C 0.64266 0.70294 0.2152 0.0
C2965 C 0.66465 0.69844 0.23728 0.0
C2966 C 0.66671 0.65649 0.21786 0.0
H2967 H 0.73031 0.65186 0.28883 0.0
H2968 H 0.71321 0.66533 0.27443 0.0
H2969 H 0.66995 0.63263 0.21973 0.0
H2970 H 0.63276 0.68618 0.18232 0.0
H2971 H 0.65078 0.67096 0.18643 0.0
H2972 H 0.69932 0.70116 0.23556 0.0
C2973 C 0.71359 0.65452 0.26347 0.0
C2974 C 0.6766 0.64763 0.22285 0.0
C2975 C 0.72337 0.64662 0.27181 0.0
C2976 C 0.64165 0.68983 0.19774 0.0
C2977 C 0.65189 0.68098 0.20017 0.0
C2978 C 0.69269 0.6862 0.23197 0.0
C2979 C 0.70434 0.64859 0.24151 0.0
C2980 C 0.69449 0.65794 0.23301 0.0
C2981 C 0.66355 0.68519 0.21998 0.0
C2982 C 0.67449 0.67584 0.22293 0.0
H2983 H 0.71514 0.61508 0.22613 0.0
H2984 H 0.69774 0.62905 0.21134 0.0
H2985 H 0.71644 0.68589 0.24414 0.0
H2986 H 0.65543 0.71708 0.24883 0.0
H2987 H 0.67327 0.70187 0.25294 0.0
loop_
_geom_bond_atom_site_label_1
_geom_bond_atom_site_label_2
_geom_bond_distance
_geom_bond_site_symmetry_2
_ccdc_geom_bond_type
Cu0 N1 1.999 . S
Cu0 O6 1.974 . S
Cu0 N11 1.985 . S
Cu0 O20 1.959 . S
N1 Cu0 1.999 . S
N1 C3 1.263 . S
N1 C5 1.389 . S
N2 C3 1.358 . S
N2 C4 1.400 . S
C3 N1 1.263 . S
C3 N2 1.358 . S
C3 H9 0.930 . S
C4 N2 1.400 . S
C4 C5 1.351 . S
C4 H21 0.930 . S
C5 N1 1.389 . S
C5 C4 1.351 . S
C5 H10 0.930 . S
O6 Cu0 1.974 . S
O6 C16 1.282 . S
C7 O8 1.261 . S
C7 O20 1.251 . S
O8 C7 1.261 . S
H9 C3 0.930 . S
H10 C5 0.930 . S
N11 Cu0 1.985 . S
N11 C13 1.335 . S
N11 C14 1.390 . S
N12 C13 1.345 . S
N12 C15 1.336 . S
C13 N11 1.335 . S
C13 N12 1.345 . S
C13 H18 0.930 . S
C14 N11 1.390 . S
C14 C15 1.346 . S
C14 H19 0.930 . S
C15 N12 1.336 . S
C15 C14 1.346 . S
C15 H22 0.929 1_554 S
C16 O6 1.282 . S
C16 O17 1.216 . S
O17 C16 1.216 . S
H18 C13 0.930 . S
H19 C14 0.930 . S
O20 Cu0 1.959 . S
O20 C7 1.251 . S
H21 C4 0.930 . S
H22 C15 0.929 1_556 S
Cu23 N24 1.999 . S
Cu23 O29 1.974 . S
Cu23 N34 1.985 . S
Cu23 O43 1.959 . S
N24 Cu23 1.999 . S
N24 C26 1.263 . S
N24 C28 1.389 . S
N25 C26 1.358 . S
N25 C27 1.400 . S
C26 N24 1.263 . S
C26 N25 1.358 . S
C26 H32 0.930 . S
C27 N25 1.400 . S
C27 C28 1.351 . S
C27 H44 0.930 . S
C28 N24 1.389 . S
C28 C27 1.351 . S
C28 H33 0.930 . S
O29 Cu23 1.974 . S
O29 C39 1.282 . S
C30 O31 1.261 . S
C30 O43 1.251 . S
O31 C30 1.261 . S
H32 C26 0.930 . S
H33 C28 0.930 . S
N34 Cu23 1.985 . S
N34 C36 1.335 . S
N34 C37 1.390 . S
N35 C36 1.345 . S
N35 C38 1.336 . S
C36 N34 1.335 . S
C36 N35 1.345 . S
C36 H41 0.930 . S
C37 N34 1.390 . S
C37 C38 1.346 . S
C37 H42 0.930 . S
C38 N35 1.336 . S
C38 C37 1.346 . S
C38 H45 0.929 . S
C39 O29 1.282 . S
C39 O40 1.216 . S
O40 C39 1.216 . S
H41 C36 0.930 . S
H42 C37 0.930 . S
O43 Cu23 1.959 . S
O43 C30 1.251 . S
H44 C27 0.930 . S
H45 C38 0.929 . S
Cu46 N47 1.999 . S
Cu46 O52 1.974 . S
Cu46 N57 1.985 . S
Cu46 O66 1.959 . S
N47 Cu46 1.999 . S
N47 C49 1.263 . S
N47 C51 1.389 . S
N48 C49 1.358 . S
N48 C50 1.400 . S
C49 N47 1.263 . S
C49 N48 1.358 . S
C49 H55 0.930 . S
C50 N48 1.400 . S
C50 C51 1.351 . S
C50 H67 0.930 . S
C51 N47 1.389 . S
C51 C50 1.351 . S
C51 H56 0.930 . S
O52 Cu46 1.974 . S
O52 C62 1.282 . S
C53 O54 1.261 . S
C53 O66 1.251 . S
O54 C53 1.261 . S
H55 C49 0.930 . S
H56 C51 0.930 . S
N57 Cu46 1.985 . S
N57 C59 1.335 . S
N57 C60 1.390 . S
N58 C59 1.337 1_455 S
N58 C61 1.296 1_455 S
C59 N57 1.335 . S
C59 N58 1.337 1_655 S
C59 H64 0.930 . S
C60 N57 1.390 . S
C60 C61 1.346 . S
C60 H65 0.930 . S
C61 N58 1.296 1_655 S
C61 C60 1.346 . S
C61 H68 0.929 . S
C62 O52 1.282 . S
C62 O63 1.216 . S
O63 C62 1.216 . S
H64 C59 0.930 . S
H65 C60 0.930 . S
O66 Cu46 1.959 . S
O66 C53 1.251 . S
H67 C50 0.930 . S
H68 C61 0.929 . S
Cu69 N70 1.999 . S
Cu69 O75 1.974 . S
Cu69 N80 1.985 . S
Cu69 O89 1.959 . S
N70 Cu69 1.999 . S
N70 C72 1.263 . S
N70 C74 1.389 . S
N71 C72 1.358 . S
N71 C73 1.400 . S
C72 N70 1.263 . S
C72 N71 1.358 . S
C72 H78 0.930 . S
C73 N71 1.400 . S
C73 C74 1.351 . S
C73 H90 0.930 . S
C74 N70 1.389 . S
C74 C73 1.351 . S
C74 H79 0.930 . S
O75 Cu69 1.974 . S
O75 C85 1.282 . S
C76 O77 1.261 . S
C76 O89 1.251 . S
O77 C76 1.261 . S
H78 C72 0.930 . S
H79 C74 0.930 . S
N80 Cu69 1.985 . S
N80 C82 1.335 . S
N80 C83 1.390 . S
N81 C82 1.345 . S
N81 C84 1.336 . S
C82 N80 1.335 . S
C82 N81 1.345 . S
C82 H87 0.930 . S
C83 N80 1.390 . S
C83 C84 1.346 . S
C83 H88 0.930 . S
C84 N81 1.336 . S
C84 C83 1.346 . S
C84 H91 0.929 . S
C85 O75 1.282 . S
C85 O86 1.216 . S
O86 C85 1.216 . S
H87 C82 0.930 . S
H88 C83 0.930 . S
O89 Cu69 1.959 . S
O89 C76 1.251 . S
H90 C73 0.930 . S
H91 C84 0.929 . S
Cu92 N93 1.999 . S
Cu92 O98 1.974 . S
Cu92 N103 1.985 . S
Cu92 O112 1.959 . S
N93 Cu92 1.999 . S
N93 C95 1.263 . S
N93 C97 1.389 . S
N94 C95 1.358 . S
N94 C96 1.400 . S
C95 N93 1.263 . S
C95 N94 1.358 . S
C95 H101 0.930 . S
C96 N94 1.400 . S
C96 C97 1.351 . S
C96 H113 0.930 . S
C97 N93 1.389 . S
C97 C96 1.351 . S
C97 H102 0.930 . S
O98 Cu92 1.974 . S
O98 C108 1.282 . S
C99 O100 1.261 . S
C99 O112 1.251 . S
O100 C99 1.261 . S
H101 C95 0.930 . S
H102 C97 0.930 . S
N103 Cu92 1.985 . S
N103 C105 1.335 . S
N103 C106 1.390 . S
N104 C105 1.345 . S
N104 C107 1.336 . S
C105 N103 1.335 . S
C105 N104 1.345 . S
C105 H110 0.930 . S
C106 N103 1.390 . S
C106 C107 1.346 . S
C106 H111 0.930 . S
C107 N104 1.336 . S
C107 C106 1.346 . S
C107 H114 0.929 . S
C108 O98 1.282 . S
C108 O109 1.216 . S
O109 C108 1.216 . S
H110 C105 0.930 . S
H111 C106 0.930 . S
O112 Cu92 1.959 . S
O112 C99 1.251 . S
H113 C96 0.930 . S
H114 C107 0.929 . S
Cu115 N116 1.999 . S
Cu115 O121 1.974 . S
Cu115 N126 1.985 . S
Cu115 O135 1.959 . S
N116 Cu115 1.999 . S
N116 C118 1.263 . S
N116 C120 1.389 . S
N117 C118 1.358 . S
N117 C119 1.400 . S
C118 N116 1.263 . S
C118 N117 1.358 . S
C118 H124 0.930 . S
C119 N117 1.400 . S
C119 C120 1.351 . S
C119 H136 0.930 . S
C120 N116 1.389 . S
C120 C119 1.351 . S
C120 H125 0.930 . S
O121 Cu115 1.974 . S
O121 C131 1.282 . S
C122 O123 1.261 . S
C122 O135 1.251 . S
O123 C122 1.261 . S
H124 C118 0.930 . S
H125 C120 0.930 . S
N126 Cu115 1.985 . S
N126 C128 1.335 . S
N126 C129 1.390 . S
N127 C128 1.373 . S
N127 C130 1.353 . S
C128 N126 1.335 . S
C128 N127 1.373 . S
C128 H133 0.930 . S
C129 N126 1.390 . S
C129 C130 1.346 . S
C129 H134 0.930 . S
C130 N127 1.353 . S
C130 C129 1.346 . S
C130 H137 0.929 . S
C131 O121 1.282 . S
C131 O132 1.216 . S
O132 C131 1.216 . S
H133 C128 0.930 . S
H134 C129 0.930 . S
O135 Cu115 1.959 . S
O135 C122 1.251 . S
H136 C119 0.930 . S
H137 C130 0.929 . S
Cu138 N139 1.999 . S
Cu138 O144 1.974 . S
Cu138 N149 1.985 . S
Cu138 O158 1.959 . S
N139 Cu138 1.999 . S
N139 C141 1.263 . S
N139 C143 1.389 . S
N140 C141 1.358 . S
N140 C142 1.400 . S
C141 N139 1.263 . S
C141 N140 1.358 . S
C141 H147 0.930 . S
C142 N140 1.400 . S
C142 C143 1.351 . S
C142 H159 0.930 . S
C143 N139 1.389 . S
C143 C142 1.351 . S
C143 H148 0.930 . S
O144 Cu138 1.974 . S
O144 C154 1.282 . S
C145 O146 1.261 . S
C145 O158 1.251 . S
O146 C145 1.261 . S
H147 C141 0.930 . S
H148 C143 0.930 . S
N149 Cu138 1.985 . S
N149 C151 1.335 . S
N149 C152 1.390 . S
N150 C151 1.345 . S
N150 C153 1.336 . S
C151 N149 1.335 . S
C151 N150 1.345 . S
C151 H156 0.930 . S
C152 N149 1.390 . S
C152 C153 1.346 . S
C152 H157 0.930 . S
C153 N150 1.336 . S
C153 C152 1.346 . S
C153 H160 0.929 . S
C154 O144 1.282 . S
C154 O155 1.216 . S
O155 C154 1.216 . S
H156 C151 0.930 . S
H157 C152 0.930 . S
O158 Cu138 1.959 . S
O158 C145 1.251 . S
H159 C142 0.930 . S
H160 C153 0.929 . S
Cu161 N162 1.999 . S
Cu161 O167 1.974 . S
Cu161 N172 1.985 . S
Cu161 O181 1.959 . S
N162 Cu161 1.999 . S
N162 C164 1.263 . S
N162 C166 1.389 . S
N163 C164 1.358 . S
N163 C165 1.400 . S
C164 N162 1.263 . S
C164 N163 1.358 . S
C164 H170 0.930 . S
C165 N163 1.400 . S
C165 C166 1.351 . S
C165 H182 0.930 . S
C166 N162 1.389 . S
C166 C165 1.351 . S
C166 H171 0.930 . S
O167 Cu161 1.974 . S
O167 C177 1.282 . S
C168 O169 1.261 . S
C168 O181 1.251 . S
O169 C168 1.261 . S
H170 C164 0.930 . S
H171 C166 0.930 . S
N172 Cu161 1.985 . S
N172 C174 1.335 . S
N172 C175 1.390 . S
N173 C174 1.350 . S
N173 C176 1.339 . S
C174 N172 1.335 . S
C174 N173 1.350 . S
C174 H179 0.930 . S
C175 N172 1.390 . S
C175 C176 1.346 . S
C175 H180 0.930 . S
C176 N173 1.339 . S
C176 C175 1.346 . S
C176 H183 0.929 . S
C177 O167 1.282 . S
C177 O178 1.216 . S
O178 C177 1.216 . S
H179 C174 0.930 . S
H180 C175 0.930 . S
O181 Cu161 1.959 . S
O181 C168 1.251 . S
H182 C165 0.930 . S
H183 C176 0.929 . S
Cu184 N185 1.999 . S
Cu184 O190 1.974 . S
Cu184 N195 1.985 . S
Cu184 O204 1.959 . S
N185 Cu184 1.999 . S
N185 C187 1.263 . S
N185 C189 1.389 . S
N186 C187 1.358 . S
N186 C188 1.400 . S
C187 N185 1.263 . S
C187 N186 1.358 . S
C187 H193 0.930 . S
C188 N186 1.400 . S
C188 C189 1.351 . S
C188 H205 0.930 . S
C189 N185 1.389 . S
C189 C188 1.351 . S
C189 H194 0.930 . S
O190 Cu184 1.974 . S
O190 C200 1.282 . S
C191 O192 1.261 . S
C191 O204 1.251 . S
O192 C191 1.261 . S
H193 C187 0.930 . S
H194 C189 0.930 . S
N195 Cu184 1.985 . S
N195 C197 1.335 . S
N195 C198 1.390 . S
N196 C197 1.345 . S
N196 C199 1.336 . S
C197 N195 1.335 . S
C197 N196 1.345 . S
C197 H202 0.930 . S
C198 N195 1.390 . S
C198 C199 1.346 . S
C198 H203 0.930 . S
C199 N196 1.336 . S
C199 C198 1.346 . S
C199 H206 0.929 . S
C200 O190 1.282 . S
C200 O201 1.216 . S
O201 C200 1.216 . S
H202 C197 0.930 . S
H203 C198 0.930 . S
O204 Cu184 1.959 . S
O204 C191 1.251 . S
H205 C188 0.930 . S
H206 C199 0.929 . S
Cu207 N208 1.999 . S
Cu207 O213 1.974 . S
Cu207 N218 1.985 . S
Cu207 O227 1.959 . S
N208 Cu207 1.999 . S
N208 C210 1.263 . S
N208 C212 1.389 . S
N209 C210 1.358 . S
N209 C211 1.400 . S
C210 N208 1.263 . S
C210 N209 1.358 . S
C210 H216 0.930 . S
C211 N209 1.400 . S
C211 C212 1.351 . S
C211 H228 0.930 . S
C212 N208 1.389 . S
C212 C211 1.351 . S
C212 H217 0.930 . S
O213 Cu207 1.974 . S
O213 C223 1.282 . S
C214 O215 1.261 . S
C214 O227 1.251 . S
O215 C214 1.261 . S
H216 C210 0.930 . S
H217 C212 0.930 . S
N218 Cu207 1.985 . S
N218 C220 1.335 . S
N218 C221 1.390 . S
N219 C220 1.345 . S
N219 C222 1.336 . S
C220 N218 1.335 . S
C220 N219 1.345 . S
C220 H225 0.930 . S
C221 N218 1.390 . S
C221 C222 1.346 . S
C221 H226 0.930 . S
C222 N219 1.336 . S
C222 C221 1.346 . S
C222 H229 0.929 . S
C223 O213 1.282 . S
C223 O224 1.216 . S
O224 C223 1.216 . S
H225 C220 0.930 . S
H226 C221 0.930 . S
O227 Cu207 1.959 . S
O227 C214 1.251 . S
H228 C211 0.930 . S
H229 C222 0.929 . S
Cu230 N231 1.999 . S
Cu230 O236 1.974 . S
Cu230 N241 1.985 . S
Cu230 O250 1.959 . S
N231 Cu230 1.999 . S
N231 C233 1.263 . S
N231 C235 1.389 . S
N232 C233 1.358 . S
N232 C234 1.400 . S
C233 N231 1.263 . S
C233 N232 1.358 . S
C233 H239 0.930 . S
C234 N232 1.400 . S
C234 C235 1.351 . S
C234 H251 0.930 . S
C235 N231 1.389 . S
C235 C234 1.351 . S
C235 H240 0.930 . S
O236 Cu230 1.974 . S
O236 C246 1.282 . S
C237 O238 1.261 . S
C237 O250 1.251 . S
O238 C237 1.261 . S
H239 C233 0.930 . S
H240 C235 0.930 . S
N241 Cu230 1.985 . S
N241 C243 1.335 . S
N241 C244 1.390 . S
N242 C243 1.346 . S
N242 C245 1.343 . S
C243 N241 1.335 . S
C243 N242 1.346 . S
C243 H248 0.930 . S
C244 N241 1.390 . S
C244 C245 1.346 . S
C244 H249 0.930 . S
C245 N242 1.343 . S
C245 C244 1.346 . S
C245 H252 0.929 . S
C246 O236 1.282 . S
C246 O247 1.216 . S
O247 C246 1.216 . S
H248 C243 0.930 . S
H249 C244 0.930 . S
O250 Cu230 1.959 . S
O250 C237 1.251 . S
H251 C234 0.930 . S
H252 C245 0.929 . S
Cu253 N254 1.999 . S
Cu253 O259 1.974 . S
Cu253 N264 1.985 . S
Cu253 O273 1.959 . S
N254 Cu253 1.999 . S
N254 C256 1.263 . S
N254 C258 1.389 . S
N255 C256 1.358 . S
N255 C257 1.400 . S
C256 N254 1.263 . S
C256 N255 1.358 . S
C256 H262 0.930 . S
C257 N255 1.400 . S
C257 C258 1.351 . S
C257 H274 0.930 . S
C258 N254 1.389 . S
C258 C257 1.351 . S
C258 H263 0.930 . S
O259 Cu253 1.974 . S
O259 C269 1.282 . S
C260 O261 1.261 . S
C260 O273 1.251 . S
O261 C260 1.261 . S
H262 C256 0.930 . S
H263 C258 0.930 . S
N264 Cu253 1.985 . S
N264 C266 1.335 . S
N264 C267 1.390 . S
N265 C266 1.345 . S
N265 C268 1.336 . S
C266 N264 1.335 . S
C266 N265 1.345 . S
C266 H271 0.930 . S
C267 N264 1.390 . S
C267 C268 1.346 . S
C267 H272 0.930 . S
C268 N265 1.336 . S
C268 C267 1.346 . S
C268 H275 0.929 . S
C269 O259 1.282 . S
C269 O270 1.216 . S
O270 C269 1.216 . S
H271 C266 0.930 . S
H272 C267 0.930 . S
O273 Cu253 1.959 . S
O273 C260 1.251 . S
H274 C257 0.930 . S
H275 C268 0.929 . S
Cu276 N277 1.999 . S
Cu276 O282 1.974 . S
Cu276 N287 1.985 . S
Cu276 O296 1.959 . S
N277 Cu276 1.999 . S
N277 C279 1.263 . S
N277 C281 1.389 . S
N278 C279 1.358 . S
N278 C280 1.400 . S
C279 N277 1.263 . S
C279 N278 1.358 . S
C279 H285 0.930 . S
C280 N278 1.400 . S
C280 C281 1.351 . S
C280 H297 0.930 . S
C281 N277 1.389 . S
C281 C280 1.351 . S
C281 H286 0.930 . S
O282 Cu276 1.974 . S
O282 C292 1.282 . S
C283 O284 1.261 . S
C283 O296 1.251 . S
O284 C283 1.261 . S
H285 C279 0.930 . S
H286 C281 0.930 . S
N287 Cu276 1.985 . S
N287 C289 1.335 . S
N287 C290 1.390 . S
N288 C289 1.345 . S
N288 C291 1.336 . S
C289 N287 1.335 . S
C289 N288 1.345 . S
C289 H294 0.930 . S
C290 N287 1.390 . S
C290 C291 1.346 . S
C290 H295 0.930 . S
C291 N288 1.336 . S
C291 C290 1.346 . S
C291 H298 0.929 . S
C292 O282 1.282 . S
C292 O293 1.216 . S
O293 C292 1.216 . S
H294 C289 0.930 . S
H295 C290 0.930 . S
O296 Cu276 1.959 . S
O296 C283 1.251 . S
H297 C280 0.930 . S
H298 C291 0.929 . S
Cu299 N300 1.999 . S
Cu299 O305 1.974 . S
Cu299 N310 1.985 . S
Cu299 O319 1.959 . S
N300 Cu299 1.999 . S
N300 C302 1.263 . S
N300 C304 1.389 . S
N301 C302 1.358 . S
N301 C303 1.400 . S
C302 N300 1.263 . S
C302 N301 1.358 . S
C302 H308 0.930 . S
C303 N301 1.400 . S
C303 C304 1.351 . S
C303 H320 0.930 . S
C304 N300 1.389 . S
C304 C303 1.351 . S
C304 H309 0.930 . S
O305 Cu299 1.974 . S
O305 C315 1.282 . S
C306 O307 1.261 . S
C306 O319 1.251 . S
O307 C306 1.261 . S
H308 C302 0.930 . S
H309 C304 0.930 . S
N310 Cu299 1.985 . S
N310 C312 1.335 . S
N310 C313 1.390 . S
N311 C312 1.345 . S
N311 C314 1.336 . S
C312 N310 1.335 . S
C312 N311 1.345 . S
C312 H317 0.930 . S
C313 N310 1.390 . S
C313 C314 1.346 . S
C313 H318 0.930 . S
C314 N311 1.336 . S
C314 C313 1.346 . S
C314 H321 0.929 . S
C315 O305 1.282 . S
C315 O316 1.216 . S
O316 C315 1.216 . S
H317 C312 0.930 . S
H318 C313 0.930 . S
O319 Cu299 1.959 . S
O319 C306 1.251 . S
H320 C303 0.930 . S
H321 C314 0.929 . S
Cu322 N323 1.999 . S
Cu322 O328 1.974 . S
Cu322 N333 1.985 . S
Cu322 O342 1.959 . S
N323 Cu322 1.999 . S
N323 C325 1.263 . S
N323 C327 1.389 . S
N324 C325 1.358 . S
N324 C326 1.400 . S
C325 N323 1.263 . S
C325 N324 1.358 . S
C325 H331 0.930 . S
C326 N324 1.400 . S
C326 C327 1.351 . S
C326 H343 0.930 . S
C327 N323 1.389 . S
C327 C326 1.351 . S
C327 H332 0.930 . S
O328 Cu322 1.974 . S
O328 C338 1.282 . S
C329 O330 1.261 . S
C329 O342 1.251 . S
O330 C329 1.261 . S
H331 C325 0.930 . S
H332 C327 0.930 . S
N333 Cu322 1.985 . S
N333 C335 1.335 . S
N333 C336 1.390 . S
N334 C335 1.345 . S
N334 C337 1.336 . S
C335 N333 1.335 . S
C335 N334 1.345 . S
C335 H340 0.930 . S
C336 N333 1.390 . S
C336 C337 1.346 . S
C336 H341 0.930 . S
C337 N334 1.336 . S
C337 C336 1.346 . S
C337 H344 0.929 . S
C338 O328 1.282 . S
C338 O339 1.216 . S
O339 C338 1.216 . S
H340 C335 0.930 . S
H341 C336 0.930 . S
O342 Cu322 1.959 . S
O342 C329 1.251 . S
H343 C326 0.930 . S
H344 C337 0.929 . S
Cu345 N346 1.999 . S
Cu345 O351 1.974 . S
Cu345 N356 1.985 . S
Cu345 O365 1.959 . S
N346 Cu345 1.999 . S
N346 C348 1.263 . S
N346 C350 1.389 . S
N347 C348 1.358 . S
N347 C349 1.400 . S
C348 N346 1.263 . S
C348 N347 1.358 . S
C348 H354 0.930 . S
C349 N347 1.400 . S
C349 C350 1.351 . S
C349 H366 0.930 . S
C350 N346 1.389 . S
C350 C349 1.351 . S
C350 H355 0.930 . S
O351 Cu345 1.974 . S
O351 C361 1.282 . S
C352 O353 1.261 . S
C352 O365 1.251 . S
O353 C352 1.261 . S
H354 C348 0.930 . S
H355 C350 0.930 . S
N356 Cu345 1.985 . S
N356 C358 1.335 . S
N356 C359 1.390 . S
N357 C358 1.345 . S
N357 C360 1.336 . S
C358 N356 1.335 . S
C358 N357 1.345 . S
C358 H363 0.930 . S
C359 N356 1.390 . S
C359 C360 1.346 . S
C359 H364 0.930 . S
C360 N357 1.336 . S
C360 C359 1.346 . S
C360 H367 0.929 . S
C361 O351 1.282 . S
C361 O362 1.216 . S
O362 C361 1.216 . S
H363 C358 0.930 . S
H364 C359 0.930 . S
O365 Cu345 1.959 . S
O365 C352 1.251 . S
H366 C349 0.930 . S
H367 C360 0.929 . S
Cu368 N369 1.999 . S
Cu368 O374 1.974 . S
Cu368 N379 1.985 . S
Cu368 O388 1.959 . S
N369 Cu368 1.999 . S
N369 C371 1.263 . S
N369 C373 1.389 . S
N370 C371 1.358 . S
N370 C372 1.400 . S
C371 N369 1.263 . S
C371 N370 1.358 . S
C371 H377 0.930 . S
C372 N370 1.400 . S
C372 C373 1.351 . S
C372 H389 0.930 . S
C373 N369 1.389 . S
C373 C372 1.351 . S
C373 H378 0.930 . S
O374 Cu368 1.974 . S
O374 C384 1.282 . S
C375 O376 1.261 . S
C375 O388 1.251 . S
O376 C375 1.261 . S
H377 C371 0.930 . S
H378 C373 0.930 . S
N379 Cu368 1.985 . S
N379 C381 1.335 . S
N379 C382 1.390 . S
N380 C381 1.345 . S
N380 C383 1.336 . S
C381 N379 1.335 . S
C381 N380 1.345 . S
C381 H386 0.930 . S
C382 N379 1.390 . S
C382 C383 1.346 . S
C382 H387 0.930 . S
C383 N380 1.336 . S
C383 C382 1.346 . S
C383 H390 0.929 . S
C384 O374 1.282 . S
C384 O385 1.216 . S
O385 C384 1.216 . S
H386 C381 0.930 . S
H387 C382 0.930 . S
O388 Cu368 1.959 . S
O388 C375 1.251 . S
H389 C372 0.930 . S
H390 C383 0.929 . S
Cu391 N392 1.999 . S
Cu391 O397 1.974 . S
Cu391 N402 1.985 . S
Cu391 O411 1.959 . S
N392 Cu391 1.999 . S
N392 C394 1.263 . S
N392 C396 1.389 . S
N393 C394 1.358 . S
N393 C395 1.400 . S
C394 N392 1.263 . S
C394 N393 1.358 . S
C394 H400 0.930 . S
C395 N393 1.400 . S
C395 C396 1.351 . S
C395 H412 0.930 . S
C396 N392 1.389 . S
C396 C395 1.351 . S
C396 H401 0.930 . S
O397 Cu391 1.974 . S
O397 C407 1.282 . S
C398 O399 1.261 . S
C398 O411 1.251 . S
O399 C398 1.261 . S
H400 C394 0.930 . S
H401 C396 0.930 . S
N402 Cu391 1.985 . S
N402 C404 1.335 . S
N402 C405 1.390 . S
N403 C404 1.345 . S
N403 C406 1.336 . S
C404 N402 1.335 . S
C404 N403 1.345 . S
C404 H409 0.930 . S
C405 N402 1.390 . S
C405 C406 1.346 . S
C405 H410 0.930 . S
C406 N403 1.336 . S
C406 C405 1.346 . S
C406 H413 0.929 . S
C407 O397 1.282 . S
C407 O408 1.216 . S
O408 C407 1.216 . S
H409 C404 0.930 . S
H410 C405 0.930 . S
O411 Cu391 1.959 . S
O411 C398 1.251 . S
H412 C395 0.930 . S
H413 C406 0.929 . S
Cu414 N415 1.999 . S
Cu414 O420 1.974 . S
Cu414 N425 1.985 . S
Cu414 O434 1.959 . S
N415 Cu414 1.999 . S
N415 C417 1.263 . S
N415 C419 1.389 . S
N416 C417 1.358 . S
N416 C418 1.400 . S
C417 N415 1.263 . S
C417 N416 1.358 . S
C417 H423 0.930 . S
C418 N416 1.400 . S
C418 C419 1.351 . S
C418 H435 0.930 . S
C419 N415 1.389 . S
C419 C418 1.351 . S
C419 H424 0.930 . S
O420 Cu414 1.974 . S
O420 C430 1.282 . S
C421 O422 1.261 . S
C421 O434 1.251 . S
O422 C421 1.261 . S
H423 C417 0.930 . S
H424 C419 0.930 . S
N425 Cu414 1.985 . S
N425 C427 1.335 . S
N425 C428 1.390 . S
N426 C427 1.345 . S
N426 C429 1.336 . S
C427 N425 1.335 . S
C427 N426 1.345 . S
C427 H432 0.930 . S
C428 N425 1.390 . S
C428 C429 1.346 . S
C428 H433 0.930 . S
C429 N426 1.336 . S
C429 C428 1.346 . S
C429 H436 0.929 . S
C430 O420 1.282 . S
C430 O431 1.216 . S
O431 C430 1.216 . S
H432 C427 0.930 . S
H433 C428 0.930 . S
O434 Cu414 1.959 . S
O434 C421 1.251 . S
H435 C418 0.930 . S
H436 C429 0.929 . S
Cu437 N438 1.999 . S
Cu437 O443 1.974 . S
Cu437 N448 1.985 . S
Cu437 O457 1.959 . S
N438 Cu437 1.999 . S
N438 C440 1.263 . S
N438 C442 1.389 . S
N439 C440 1.358 . S
N439 C441 1.400 . S
C440 N438 1.263 . S
C440 N439 1.358 . S
C440 H446 0.930 . S
C441 N439 1.400 . S
C441 C442 1.351 . S
C441 H458 0.930 . S
C442 N438 1.389 . S
C442 C441 1.351 . S
C442 H447 0.930 . S
O443 Cu437 1.974 . S
O443 C453 1.282 . S
C444 O445 1.261 . S
C444 O457 1.251 . S
O445 C444 1.261 . S
H446 C440 0.930 . S
H447 C442 0.930 . S
N448 Cu437 1.985 . S
N448 C450 1.335 . S
N448 C451 1.390 . S
N449 C450 1.345 . S
N449 C452 1.336 . S
C450 N448 1.335 . S
C450 N449 1.345 . S
C450 H455 0.930 . S
C451 N448 1.390 . S
C451 C452 1.346 . S
C451 H456 0.930 . S
C452 N449 1.336 . S
C452 C451 1.346 . S
C452 H459 0.929 . S
C453 O443 1.282 . S
C453 O454 1.216 . S
O454 C453 1.216 . S
H455 C450 0.930 . S
H456 C451 0.930 . S
O457 Cu437 1.959 . S
O457 C444 1.251 . S
H458 C441 0.930 . S
H459 C452 0.929 . S
Cu460 N461 1.999 . S
Cu460 O466 1.974 . S
Cu460 N471 1.985 . S
Cu460 O480 1.959 . S
N461 Cu460 1.999 . S
N461 C463 1.263 . S
N461 C465 1.389 . S
N462 C463 1.358 . S
N462 C464 1.400 . S
C463 N461 1.263 . S
C463 N462 1.358 . S
C463 H469 0.930 . S
C464 N462 1.400 . S
C464 C465 1.351 . S
C464 H481 0.930 . S
C465 N461 1.389 . S
C465 C464 1.351 . S
C465 H470 0.930 . S
O466 Cu460 1.974 . S
O466 C476 1.282 . S
C467 O468 1.261 . S
C467 O480 1.251 . S
O468 C467 1.261 . S
H469 C463 0.930 . S
H470 C465 0.930 . S
N471 Cu460 1.985 . S
N471 C473 1.335 . S
N471 C474 1.390 . S
N472 C473 1.345 . S
N472 C475 1.336 . S
C473 N471 1.335 . S
C473 N472 1.345 . S
C473 H478 0.930 . S
C474 N471 1.390 . S
C474 C475 1.346 . S
C474 H479 0.930 . S
C475 N472 1.336 . S
C475 C474 1.346 . S
C475 H482 0.929 . S
C476 O466 1.282 . S
C476 O477 1.216 . S
O477 C476 1.216 . S
H478 C473 0.930 . S
H479 C474 0.930 . S
O480 Cu460 1.959 . S
O480 C467 1.251 . S
H481 C464 0.930 . S
H482 C475 0.929 . S
Cu483 N484 1.999 . S
Cu483 O489 1.974 . S
Cu483 N494 1.985 . S
Cu483 O503 1.959 . S
N484 Cu483 1.999 . S
N484 C486 1.263 . S
N484 C488 1.389 . S
N485 C486 1.358 . S
N485 C487 1.400 . S
C486 N484 1.263 . S
C486 N485 1.358 . S
C486 H492 0.930 . S
C487 N485 1.400 . S
C487 C488 1.351 . S
C487 H504 0.930 . S
C488 N484 1.389 . S
C488 C487 1.351 . S
C488 H493 0.930 . S
O489 Cu483 1.974 . S
O489 C499 1.282 . S
C490 O491 1.261 . S
C490 O503 1.251 . S
O491 C490 1.261 . S
H492 C486 0.930 . S
H493 C488 0.930 . S
N494 Cu483 1.985 . S
N494 C496 1.335 . S
N494 C497 1.390 . S
N495 C496 1.345 . S
N495 C498 1.336 . S
C496 N494 1.335 . S
C496 N495 1.345 . S
C496 H501 0.930 . S
C497 N494 1.390 . S
C497 C498 1.346 . S
C497 H502 0.930 . S
C498 N495 1.336 . S
C498 C497 1.346 . S
C498 H505 0.929 . S
C499 O489 1.282 . S
C499 O500 1.216 . S
O500 C499 1.216 . S
H501 C496 0.930 . S
H502 C497 0.930 . S
O503 Cu483 1.959 . S
O503 C490 1.251 . S
H504 C487 0.930 . S
H505 C498 0.929 . S
Cu506 N507 1.999 . S
Cu506 O512 1.974 . S
Cu506 N517 1.985 . S
Cu506 O526 1.959 . S
N507 Cu506 1.999 . S
N507 C509 1.263 . S
N507 C511 1.389 . S
N508 C509 1.358 . S
N508 C510 1.400 . S
C509 N507 1.263 . S
C509 N508 1.358 . S
C509 H515 0.930 . S
C510 N508 1.400 . S
C510 C511 1.351 . S
C510 H527 0.930 . S
C511 N507 1.389 . S
C511 C510 1.351 . S
C511 H516 0.930 . S
O512 Cu506 1.974 . S
O512 C522 1.282 . S
C513 O514 1.261 . S
C513 O526 1.251 . S
O514 C513 1.261 . S
H515 C509 0.930 . S
H516 C511 0.930 . S
N517 Cu506 1.985 . S
N517 C519 1.335 . S
N517 C520 1.390 . S
N518 C519 1.345 . S
N518 C521 1.336 . S
C519 N517 1.335 . S
C519 N518 1.345 . S
C519 H524 0.930 . S
C520 N517 1.390 . S
C520 C521 1.346 . S
C520 H525 0.930 . S
C521 N518 1.336 . S
C521 C520 1.346 . S
C521 H528 0.929 . S
C522 O512 1.282 . S
C522 O523 1.216 . S
O523 C522 1.216 . S
H524 C519 0.930 . S
H525 C520 0.930 . S
O526 Cu506 1.959 . S
O526 C513 1.251 . S
H527 C510 0.930 . S
H528 C521 0.929 . S
Cu529 N530 1.999 . S
Cu529 O535 1.974 . S
Cu529 N540 1.985 . S
Cu529 O549 1.959 . S
N530 Cu529 1.999 . S
N530 C532 1.263 . S
N530 C534 1.389 . S
N531 C532 1.358 . S
N531 C533 1.400 . S
C532 N530 1.263 . S
C532 N531 1.358 . S
C532 H538 0.930 . S
C533 N531 1.400 . S
C533 C534 1.351 . S
C533 H550 0.930 . S
C534 N530 1.389 . S
C534 C533 1.351 . S
C534 H539 0.930 . S
O535 Cu529 1.974 . S
O535 C545 1.282 . S
C536 O537 1.261 . S
C536 O549 1.251 . S
O537 C536 1.261 . S
H538 C532 0.930 . S
H539 C534 0.930 . S
N540 Cu529 1.985 . S
N540 C542 1.335 . S
N540 C543 1.390 . S
N541 C542 1.345 . S
N541 C544 1.336 . S
C542 N540 1.335 . S
C542 N541 1.345 . S
C542 H547 0.930 . S
C543 N540 1.390 . S
C543 C544 1.346 . S
C543 H548 0.930 . S
C544 N541 1.336 . S
C544 C543 1.346 . S
C544 H551 0.929 . S
C545 O535 1.282 . S
C545 O546 1.216 . S
O546 C545 1.216 . S
H547 C542 0.930 . S
H548 C543 0.930 . S
O549 Cu529 1.959 . S
O549 C536 1.251 . S
H550 C533 0.930 . S
H551 C544 0.929 . S
Cu552 N553 1.999 . S
Cu552 O558 1.974 . S
Cu552 N563 1.985 . S
Cu552 O572 1.959 . S
N553 Cu552 1.999 . S
N553 C555 1.263 . S
N553 C557 1.389 . S
N554 C555 1.358 . S
N554 C556 1.400 . S
C555 N553 1.263 . S
C555 N554 1.358 . S
C555 H561 0.930 . S
C556 N554 1.400 . S
C556 C557 1.351 . S
C556 H573 0.930 . S
C557 N553 1.389 . S
C557 C556 1.351 . S
C557 H562 0.930 . S
O558 Cu552 1.974 . S
O558 C568 1.282 . S
C559 O560 1.261 . S
C559 O572 1.251 . S
O560 C559 1.261 . S
H561 C555 0.930 . S
H562 C557 0.930 . S
N563 Cu552 1.985 . S
N563 C565 1.335 . S
N563 C566 1.390 . S
N564 C565 1.345 . S
N564 C567 1.336 . S
C565 N563 1.335 . S
C565 N564 1.345 . S
C565 H570 0.930 . S
C566 N563 1.390 . S
C566 C567 1.346 . S
C566 H571 0.930 . S
C567 N564 1.336 . S
C567 C566 1.346 . S
C567 H574 0.929 . S
C568 O558 1.282 . S
C568 O569 1.216 . S
O569 C568 1.216 . S
H570 C565 0.930 . S
H571 C566 0.930 . S
O572 Cu552 1.959 . S
O572 C559 1.251 . S
H573 C556 0.930 . S
H574 C567 0.929 . S
Cu575 N576 1.999 . S
Cu575 O581 1.974 . S
Cu575 N586 1.985 . S
Cu575 O595 1.959 . S
N576 Cu575 1.999 . S
N576 C578 1.263 . S
N576 C580 1.389 . S
N577 C578 1.358 . S
N577 C579 1.400 . S
C578 N576 1.263 . S
C578 N577 1.358 . S
C578 H584 0.930 . S
C579 N577 1.400 . S
C579 C580 1.351 . S
C579 H596 0.930 . S
C580 N576 1.389 . S
C580 C579 1.351 . S
C580 H585 0.930 . S
O581 Cu575 1.974 . S
O581 C591 1.282 . S
C582 O583 1.261 . S
C582 O595 1.251 . S
O583 C582 1.261 . S
H584 C578 0.930 . S
H585 C580 0.930 . S
N586 Cu575 1.985 . S
N586 C588 1.335 . S
N586 C589 1.390 . S
N587 C588 1.345 . S
N587 C590 1.336 . S
C588 N586 1.335 . S
C588 N587 1.345 . S
C588 H593 0.930 . S
C589 N586 1.390 . S
C589 C590 1.346 . S
C589 H594 0.930 . S
C590 N587 1.336 . S
C590 C589 1.346 . S
C590 H597 0.929 . S
C591 O581 1.282 . S
C591 O592 1.216 . S
O592 C591 1.216 . S
H593 C588 0.930 . S
H594 C589 0.930 . S
O595 Cu575 1.959 . S
O595 C582 1.251 . S
H596 C579 0.930 . S
H597 C590 0.929 . S
Cu598 N599 1.999 . S
Cu598 O604 1.974 . S
Cu598 N609 1.985 . S
Cu598 O618 1.959 . S
N599 Cu598 1.999 . S
N599 C601 1.263 . S
N599 C603 1.389 . S
N600 C601 1.358 . S
N600 C602 1.400 . S
C601 N599 1.263 . S
C601 N600 1.358 . S
C601 H607 0.930 . S
C602 N600 1.400 . S
C602 C603 1.351 . S
C602 H619 0.930 . S
C603 N599 1.389 . S
C603 C602 1.351 . S
C603 H608 0.930 . S
O604 Cu598 1.974 . S
O604 C614 1.282 . S
C605 O606 1.261 . S
C605 O618 1.251 . S
O606 C605 1.261 . S
H607 C601 0.930 . S
H608 C603 0.930 . S
N609 Cu598 1.985 . S
N609 C611 1.335 . S
N609 C612 1.390 . S
N610 C611 1.345 . S
N610 C613 1.336 . S
C611 N609 1.335 . S
C611 N610 1.345 . S
C611 H616 0.930 . S
C612 N609 1.390 . S
C612 C613 1.346 . S
C612 H617 0.930 . S
C613 N610 1.336 . S
C613 C612 1.346 . S
C613 H620 0.929 . S
C614 O604 1.282 . S
C614 O615 1.216 . S
O615 C614 1.216 . S
H616 C611 0.930 . S
H617 C612 0.930 . S
O618 Cu598 1.959 . S
O618 C605 1.251 . S
H619 C602 0.930 . S
H620 C613 0.929 . S
Cu621 N622 1.999 . S
Cu621 O627 1.974 . S
Cu621 N632 1.985 . S
Cu621 O641 1.959 . S
N622 Cu621 1.999 . S
N622 C624 1.263 . S
N622 C626 1.389 . S
N623 C624 1.358 . S
N623 C625 1.400 . S
C624 N622 1.263 . S
C624 N623 1.358 . S
C624 H630 0.930 . S
C625 N623 1.400 . S
C625 C626 1.351 . S
C625 H642 0.930 . S
C626 N622 1.389 . S
C626 C625 1.351 . S
C626 H631 0.930 . S
O627 Cu621 1.974 . S
O627 C637 1.282 . S
C628 O629 1.261 . S
C628 O641 1.251 . S
O629 C628 1.261 . S
H630 C624 0.930 . S
H631 C626 0.930 . S
N632 Cu621 1.985 . S
N632 C634 1.335 . S
N632 C635 1.390 . S
N633 C634 1.345 . S
N633 C636 1.336 . S
C634 N632 1.335 . S
C634 N633 1.345 . S
C634 H639 0.930 . S
C635 N632 1.390 . S
C635 C636 1.346 . S
C635 H640 0.930 . S
C636 N633 1.336 . S
C636 C635 1.346 . S
C636 H643 0.929 . S
C637 O627 1.282 . S
C637 O638 1.216 . S
O638 C637 1.216 . S
H639 C634 0.930 . S
H640 C635 0.930 . S
O641 Cu621 1.959 . S
O641 C628 1.251 . S
H642 C625 0.930 . S
H643 C636 0.929 . S
Cu644 N645 1.999 . S
Cu644 O650 1.974 . S
Cu644 N655 1.985 . S
Cu644 O664 1.959 . S
N645 Cu644 1.999 . S
N645 C647 1.263 . S
N645 C649 1.389 . S
N646 C647 1.358 . S
N646 C648 1.400 . S
C647 N645 1.263 . S
C647 N646 1.358 . S
C647 H653 0.930 . S
C648 N646 1.400 . S
C648 C649 1.351 . S
C648 H665 0.930 . S
C649 N645 1.389 . S
C649 C648 1.351 . S
C649 H654 0.930 . S
O650 Cu644 1.974 . S
O650 C660 1.282 . S
C651 O652 1.261 . S
C651 O664 1.251 . S
O652 C651 1.261 . S
H653 C647 0.930 . S
H654 C649 0.930 . S
N655 Cu644 1.985 . S
N655 C657 1.335 . S
N655 C658 1.390 . S
N656 C657 1.345 . S
N656 C659 1.336 . S
C657 N655 1.335 . S
C657 N656 1.345 . S
C657 H662 0.930 . S
C658 N655 1.390 . S
C658 C659 1.346 . S
C658 H663 0.930 . S
C659 N656 1.336 . S
C659 C658 1.346 . S
C659 H666 0.929 . S
C660 O650 1.282 . S
C660 O661 1.216 . S
O661 C660 1.216 . S
H662 C657 0.930 . S
H663 C658 0.930 . S
O664 Cu644 1.959 . S
O664 C651 1.251 . S
H665 C648 0.930 . S
H666 C659 0.929 . S
Cu667 N668 1.999 . S
Cu667 O673 1.974 . S
Cu667 N678 1.985 . S
Cu667 O687 1.959 . S
N668 Cu667 1.999 . S
N668 C670 1.263 . S
N668 C672 1.389 . S
N669 C670 1.358 . S
N669 C671 1.400 . S
C670 N668 1.263 . S
C670 N669 1.358 . S
C670 H676 0.930 . S
C671 N669 1.400 . S
C671 C672 1.351 . S
C671 H688 0.930 . S
C672 N668 1.389 . S
C672 C671 1.351 . S
C672 H677 0.930 . S
O673 Cu667 1.974 . S
O673 C683 1.282 . S
C674 O675 1.261 . S
C674 O687 1.251 . S
O675 C674 1.261 . S
H676 C670 0.930 . S
H677 C672 0.930 . S
N678 Cu667 1.985 . S
N678 C680 1.335 . S
N678 C681 1.390 . S
N679 C680 1.345 . S
N679 C682 1.336 . S
C680 N678 1.335 . S
C680 N679 1.345 . S
C680 H685 0.930 . S
C681 N678 1.390 . S
C681 C682 1.346 . S
C681 H686 0.930 . S
C682 N679 1.336 . S
C682 C681 1.346 . S
C682 H689 0.929 . S
C683 O673 1.282 . S
C683 O684 1.216 . S
O684 C683 1.216 . S
H685 C680 0.930 . S
H686 C681 0.930 . S
O687 Cu667 1.959 . S
O687 C674 1.251 . S
H688 C671 0.930 . S
H689 C682 0.929 . S
Cu690 N691 1.999 . S
Cu690 O696 1.974 . S
Cu690 N701 1.985 . S
Cu690 O710 1.959 . S
N691 Cu690 1.999 . S
N691 C693 1.263 . S
N691 C695 1.389 . S
N692 C693 1.358 . S
N692 C694 1.400 . S
C693 N691 1.263 . S
C693 N692 1.358 . S
C693 H699 0.930 . S
C694 N692 1.400 . S
C694 C695 1.351 . S
C694 H711 0.930 . S
C695 N691 1.389 . S
C695 C694 1.351 . S
C695 H700 0.930 . S
O696 Cu690 1.974 . S
O696 C706 1.282 . S
C697 O698 1.261 . S
C697 O710 1.251 . S
O698 C697 1.261 . S
H699 C693 0.930 . S
H700 C695 0.930 . S
N701 Cu690 1.985 . S
N701 C703 1.335 . S
N701 C704 1.390 . S
N702 C703 1.345 . S
N702 C705 1.336 . S
C703 N701 1.335 . S
C703 N702 1.345 . S
C703 H708 0.930 . S
C704 N701 1.390 . S
C704 C705 1.346 . S
C704 H709 0.930 . S
C705 N702 1.336 . S
C705 C704 1.346 . S
C705 H712 0.929 . S
C706 O696 1.282 . S
C706 O707 1.216 . S
O707 C706 1.216 . S
H708 C703 0.930 . S
H709 C704 0.930 . S
O710 Cu690 1.959 . S
O710 C697 1.251 . S
H711 C694 0.930 . S
H712 C705 0.929 . S
Cu713 N714 1.999 . S
Cu713 O719 1.974 . S
Cu713 N724 1.985 . S
Cu713 O733 1.959 . S
N714 Cu713 1.999 . S
N714 C716 1.263 . S
N714 C718 1.389 . S
N715 C716 1.358 . S
N715 C717 1.400 . S
C716 N714 1.263 . S
C716 N715 1.358 . S
C716 H722 0.930 . S
C717 N715 1.400 . S
C717 C718 1.351 . S
C717 H734 0.930 . S
C718 N714 1.389 . S
C718 C717 1.351 . S
C718 H723 0.930 . S
O719 Cu713 1.974 . S
O719 C729 1.282 . S
C720 O721 1.261 . S
C720 O733 1.251 . S
O721 C720 1.261 . S
H722 C716 0.930 . S
H723 C718 0.930 . S
N724 Cu713 1.985 . S
N724 C726 1.335 . S
N724 C727 1.390 . S
N725 C726 1.345 . S
N725 C728 1.336 . S
C726 N724 1.335 . S
C726 N725 1.345 . S
C726 H731 0.930 . S
C727 N724 1.390 . S
C727 C728 1.346 . S
C727 H732 0.930 . S
C728 N725 1.336 . S
C728 C727 1.346 . S
C728 H735 0.929 . S
C729 O719 1.282 . S
C729 O730 1.216 . S
O730 C729 1.216 . S
H731 C726 0.930 . S
H732 C727 0.930 . S
O733 Cu713 1.959 . S
O733 C720 1.251 . S
H734 C717 0.930 . S
H735 C728 0.929 . S
Cu736 N737 1.999 . S
Cu736 O742 1.974 . S
Cu736 N747 1.985 . S
Cu736 O756 1.959 . S
N737 Cu736 1.999 . S
N737 C739 1.263 . S
N737 C741 1.389 . S
N738 C739 1.358 . S
N738 C740 1.400 . S
C739 N737 1.263 . S
C739 N738 1.358 . S
C739 H745 0.930 . S
C740 N738 1.400 . S
C740 C741 1.351 . S
C740 H757 0.930 . S
C741 N737 1.389 . S
C741 C740 1.351 . S
C741 H746 0.930 . S
O742 Cu736 1.974 . S
O742 C752 1.282 . S
C743 O744 1.261 . S
C743 O756 1.251 . S
O744 C743 1.261 . S
H745 C739 0.930 . S
H746 C741 0.930 . S
N747 Cu736 1.985 . S
N747 C749 1.335 . S
N747 C750 1.390 . S
N748 C749 1.345 . S
N748 C751 1.336 . S
C749 N747 1.335 . S
C749 N748 1.345 . S
C749 H754 0.930 . S
C750 N747 1.390 . S
C750 C751 1.346 . S
C750 H755 0.930 . S
C751 N748 1.336 . S
C751 C750 1.346 . S
C751 H758 0.929 . S
C752 O742 1.282 . S
C752 O753 1.216 . S
O753 C752 1.216 . S
H754 C749 0.930 . S
H755 C750 0.930 . S
O756 Cu736 1.959 . S
O756 C743 1.251 . S
H757 C740 0.930 . S
H758 C751 0.929 . S
Cu759 N760 1.999 . S
Cu759 O765 1.974 . S
Cu759 N770 1.985 . S
Cu759 O779 1.959 . S
N760 Cu759 1.999 . S
N760 C762 1.263 . S
N760 C764 1.389 . S
N761 C762 1.358 . S
N761 C763 1.400 . S
C762 N760 1.263 . S
C762 N761 1.358 . S
C762 H768 0.930 . S
C763 N761 1.400 . S
C763 C764 1.351 . S
C763 H780 0.930 . S
C764 N760 1.389 . S
C764 C763 1.351 . S
C764 H769 0.930 . S
O765 Cu759 1.974 . S
O765 C775 1.282 . S
C766 O767 1.261 . S
C766 O779 1.251 . S
O767 C766 1.261 . S
H768 C762 0.930 . S
H769 C764 0.930 . S
N770 Cu759 1.985 . S
N770 C772 1.335 . S
N770 C773 1.390 . S
N771 C772 1.345 . S
N771 C774 1.336 . S
C772 N770 1.335 . S
C772 N771 1.345 . S
C772 H777 0.930 . S
C773 N770 1.390 . S
C773 C774 1.346 . S
C773 H778 0.930 . S
C774 N771 1.336 . S
C774 C773 1.346 . S
C774 H781 0.929 . S
C775 O765 1.282 . S
C775 O776 1.216 . S
O776 C775 1.216 . S
H777 C772 0.930 . S
H778 C773 0.930 . S
O779 Cu759 1.959 . S
O779 C766 1.251 . S
H780 C763 0.930 . S
H781 C774 0.929 . S
Cu782 N783 1.999 . S
Cu782 O788 1.974 . S
Cu782 N793 1.985 . S
Cu782 O802 1.959 . S
N783 Cu782 1.999 . S
N783 C785 1.263 . S
N783 C787 1.389 . S
N784 C785 1.358 . S
N784 C786 1.400 . S
C785 N783 1.263 . S
C785 N784 1.358 . S
C785 H791 0.930 . S
C786 N784 1.400 . S
C786 C787 1.351 . S
C786 H803 0.930 . S
C787 N783 1.389 . S
C787 C786 1.351 . S
C787 H792 0.930 . S
O788 Cu782 1.974 . S
O788 C798 1.282 . S
C789 O790 1.261 . S
C789 O802 1.251 . S
O790 C789 1.261 . S
H791 C785 0.930 . S
H792 C787 0.930 . S
N793 Cu782 1.985 . S
N793 C795 1.335 . S
N793 C796 1.390 . S
N794 C795 1.345 . S
N794 C797 1.336 . S
C795 N793 1.335 . S
C795 N794 1.345 . S
C795 H800 0.930 . S
C796 N793 1.390 . S
C796 C797 1.346 . S
C796 H801 0.930 . S
C797 N794 1.336 . S
C797 C796 1.346 . S
C797 H804 0.929 . S
C798 O788 1.282 . S
C798 O799 1.216 . S
O799 C798 1.216 . S
H800 C795 0.930 . S
H801 C796 0.930 . S
O802 Cu782 1.959 . S
O802 C789 1.251 . S
H803 C786 0.930 . S
H804 C797 0.929 . S
Cu805 N806 1.999 . S
Cu805 O811 1.974 . S
Cu805 N816 1.985 . S
Cu805 O825 1.959 . S
N806 Cu805 1.999 . S
N806 C808 1.263 . S
N806 C810 1.389 . S
N807 C808 1.358 . S
N807 C809 1.400 . S
C808 N806 1.263 . S
C808 N807 1.358 . S
C808 H814 0.930 . S
C809 N807 1.400 . S
C809 C810 1.351 . S
C809 H826 0.930 . S
C810 N806 1.389 . S
C810 C809 1.351 . S
C810 H815 0.930 . S
O811 Cu805 1.974 . S
O811 C821 1.282 . S
C812 O813 1.261 . S
C812 O825 1.251 . S
O813 C812 1.261 . S
H814 C808 0.930 . S
H815 C810 0.930 . S
N816 Cu805 1.985 . S
N816 C818 1.335 . S
N816 C819 1.390 . S
N817 C818 1.345 . S
N817 C820 1.336 . S
C818 N816 1.335 . S
C818 N817 1.345 . S
C818 H823 0.930 . S
C819 N816 1.390 . S
C819 C820 1.346 . S
C819 H824 0.930 . S
C820 N817 1.336 . S
C820 C819 1.346 . S
C820 H827 0.929 . S
C821 O811 1.282 . S
C821 O822 1.216 . S
O822 C821 1.216 . S
H823 C818 0.930 . S
H824 C819 0.930 . S
O825 Cu805 1.959 . S
O825 C812 1.251 . S
H826 C809 0.930 . S
H827 C820 0.929 . S
C828 C829 1.349 . S
C828 C830 1.327 . S
C828 H853 0.950 . S
C829 C828 1.349 . S
C829 C845 1.349 . S
C830 C828 1.327 . S
C830 C849 1.429 . S
C830 H854 0.950 . S
C831 C848 1.574 . S
C831 C850 1.368 . S
C831 H855 0.949 . S
H832 C836 0.949 . S
C833 C834 1.349 . S
C833 C835 1.327 . S
C833 H856 0.950 . S
C834 C833 1.349 . S
C834 C846 1.349 . S
C835 C833 1.327 . S
C835 C851 1.429 . S
C835 H857 0.950 . S
C836 H832 0.949 . S
C836 C844 1.574 . S
C836 C852 1.368 . S
H837 C845 0.950 . S
H838 C843 0.950 . S
H839 C844 0.949 . S
H840 C846 0.950 . S
H841 C847 0.950 . S
H842 C848 0.949 . S
C843 H838 0.950 . S
C843 C845 1.327 . S
C843 C849 1.429 . S
C844 C836 1.574 . S
C844 H839 0.949 . S
C844 C850 1.368 . S
C845 C829 1.349 . S
C845 H837 0.950 . S
C845 C843 1.327 . S
C846 C834 1.349 . S
C846 H840 0.950 . S
C846 C847 1.327 . S
C847 H841 0.950 . S
C847 C846 1.327 . S
C847 C851 1.429 . S
C848 C831 1.574 . S
C848 H842 0.949 . S
C848 C852 1.368 . S
C849 C830 1.429 . S
C849 C843 1.429 . S
C849 C850 1.523 . S
C850 C831 1.368 . S
C850 C844 1.368 . S
C850 C849 1.523 . S
C851 C835 1.429 . S
C851 C847 1.429 . S
C851 C852 1.523 . S
C852 C836 1.368 . S
C852 C848 1.368 . S
C852 C851 1.523 . S
H853 C828 0.950 . S
H854 C830 0.950 . S
H855 C831 0.949 . S
H856 C833 0.950 . S
H857 C835 0.950 . S
C858 C859 1.349 . S
C858 C860 1.327 . S
C858 H883 0.950 . S
C859 C858 1.349 . S
C859 C875 1.349 . S
C860 C858 1.327 . S
C860 C879 1.429 . S
C860 H884 0.950 . S
C861 C878 1.574 . S
C861 C880 1.368 . S
C861 H885 0.949 . S
H862 C866 0.949 . S
C863 C864 1.349 . S
C863 C865 1.327 . S
C863 H886 0.950 . S
C864 C863 1.349 . S
C864 C876 1.349 . S
C865 C863 1.327 . S
C865 C881 1.429 . S
C865 H887 0.950 . S
C866 H862 0.949 . S
C866 C874 1.574 . S
C866 C882 1.368 . S
H867 C875 0.950 . S
H868 C873 0.950 . S
H869 C874 0.949 . S
H870 C876 0.950 . S
H871 C877 0.950 . S
H872 C878 0.949 . S
C873 H868 0.950 . S
C873 C875 1.327 . S
C873 C879 1.429 . S
C874 C866 1.574 . S
C874 H869 0.949 . S
C874 C880 1.368 . S
C875 C859 1.349 . S
C875 H867 0.950 . S
C875 C873 1.327 . S
C876 C864 1.349 . S
C876 H870 0.950 . S
C876 C877 1.327 . S
C877 H871 0.950 . S
C877 C876 1.327 . S
C877 C881 1.429 . S
C878 C861 1.574 . S
C878 H872 0.949 . S
C878 C882 1.368 . S
C879 C860 1.429 . S
C879 C873 1.429 . S
C879 C880 1.523 . S
C880 C861 1.368 . S
C880 C874 1.368 . S
C880 C879 1.523 . S
C881 C865 1.429 . S
C881 C877 1.429 . S
C881 C882 1.523 . S
C882 C866 1.368 . S
C882 C878 1.368 . S
C882 C881 1.523 . S
H883 C858 0.950 . S
H884 C860 0.950 . S
H885 C861 0.949 . S
H886 C863 0.950 . S
H887 C865 0.950 . S
C888 C889 1.349 . S
C888 C890 1.327 . S
C888 H913 0.950 . S
C889 C888 1.349 . S
C889 C905 1.349 . S
C890 C888 1.327 . S
C890 C909 1.429 . S
C890 H914 0.950 . S
C891 C908 1.574 . S
C891 C910 1.368 . S
C891 H915 0.949 . S
H892 C896 0.949 . S
C893 C894 1.349 . S
C893 C895 1.327 . S
C893 H916 0.950 . S
C894 C893 1.349 . S
C894 C906 1.349 . S
C895 C893 1.327 . S
C895 C911 1.429 . S
C895 H917 0.950 . S
C896 H892 0.949 . S
C896 C904 1.574 . S
C896 C912 1.368 . S
H897 C905 0.950 . S
H898 C903 0.950 . S
H899 C904 0.949 . S
H900 C906 0.950 . S
H901 C907 0.950 . S
H902 C908 0.949 . S
C903 H898 0.950 . S
C903 C905 1.327 . S
C903 C909 1.429 . S
C904 C896 1.574 . S
C904 H899 0.949 . S
C904 C910 1.368 . S
C905 C889 1.349 . S
C905 H897 0.950 . S
C905 C903 1.327 . S
C906 C894 1.349 . S
C906 H900 0.950 . S
C906 C907 1.327 . S
C907 H901 0.950 . S
C907 C906 1.327 . S
C907 C911 1.429 . S
C908 C891 1.574 . S
C908 H902 0.949 . S
C908 C912 1.368 . S
C909 C890 1.429 . S
C909 C903 1.429 . S
C909 C910 1.523 . S
C910 C891 1.368 . S
C910 C904 1.368 . S
C910 C909 1.523 . S
C911 C895 1.429 . S
C911 C907 1.429 . S
C911 C912 1.523 . S
C912 C896 1.368 . S
C912 C908 1.368 . S
C912 C911 1.523 . S
H913 C888 0.950 . S
H914 C890 0.950 . S
H915 C891 0.949 . S
H916 C893 0.950 . S
H917 C895 0.950 . S
C918 C919 1.349 . S
C918 C920 1.327 . S
C918 H943 0.950 . S
C919 C918 1.349 . S
C919 C935 1.349 . S
C920 C918 1.327 . S
C920 C939 1.429 . S
C920 H944 0.950 . S
C921 C938 1.574 . S
C921 C940 1.368 . S
C921 H945 0.949 . S
H922 C926 0.949 . S
C923 C924 1.349 . S
C923 C925 1.327 . S
C923 H946 0.950 . S
C924 C923 1.349 . S
C924 C936 1.349 . S
C925 C923 1.327 . S
C925 C941 1.429 . S
C925 H947 0.950 . S
C926 H922 0.949 . S
C926 C934 1.574 . S
C926 C942 1.368 . S
H927 C935 0.950 . S
H928 C933 0.950 . S
H929 C934 0.949 . S
H930 C936 0.950 . S
H931 C937 0.950 . S
H932 C938 0.949 . S
C933 H928 0.950 . S
C933 C935 1.327 . S
C933 C939 1.429 . S
C934 C926 1.574 . S
C934 H929 0.949 . S
C934 C940 1.368 . S
C935 C919 1.349 . S
C935 H927 0.950 . S
C935 C933 1.327 . S
C936 C924 1.349 . S
C936 H930 0.950 . S
C936 C937 1.327 . S
C937 H931 0.950 . S
C937 C936 1.327 . S
C937 C941 1.429 . S
C938 C921 1.574 . S
C938 H932 0.949 . S
C938 C942 1.368 . S
C939 C920 1.429 . S
C939 C933 1.429 . S
C939 C940 1.523 . S
C940 C921 1.368 . S
C940 C934 1.368 . S
C940 C939 1.523 . S
C941 C925 1.429 . S
C941 C937 1.429 . S
C941 C942 1.523 . S
C942 C926 1.368 . S
C942 C938 1.368 . S
C942 C941 1.523 . S
H943 C918 0.950 . S
H944 C920 0.950 . S
H945 C921 0.949 . S
H946 C923 0.950 . S
H947 C925 0.950 . S
C948 C949 1.349 . S
C948 C950 1.327 . S
C948 H973 0.950 . S
C949 C948 1.349 . S
C949 C965 1.349 . S
C950 C948 1.327 . S
C950 C969 1.429 . S
C950 H974 0.950 . S
C951 C968 1.574 . S
C951 C970 1.368 . S
C951 H975 0.949 . S
H952 C956 0.949 . S
C953 C954 1.349 . S
C953 C955 1.327 . S
C953 H976 0.950 . S
C954 C953 1.349 . S
C954 C966 1.349 . S
C955 C953 1.327 . S
C955 C971 1.429 . S
C955 H977 0.950 . S
C956 H952 0.949 . S
C956 C964 1.574 . S
C956 C972 1.368 . S
H957 C965 0.950 . S
H958 C963 0.950 . S
H959 C964 0.949 . S
H960 C966 0.950 . S
H961 C967 0.950 . S
H962 C968 0.949 . S
C963 H958 0.950 . S
C963 C965 1.327 . S
C963 C969 1.429 . S
C964 C956 1.574 . S
C964 H959 0.949 . S
C964 C970 1.368 . S
C965 C949 1.349 . S
C965 H957 0.950 . S
C965 C963 1.327 . S
C966 C954 1.349 . S
C966 H960 0.950 . S
C966 C967 1.327 . S
C967 H961 0.950 . S
C967 C966 1.327 . S
C967 C971 1.429 . S
C968 C951 1.574 . S
C968 H962 0.949 . S
C968 C972 1.368 . S
C969 C950 1.429 . S
C969 C963 1.429 . S
C969 C970 1.523 . S
C970 C951 1.368 . S
C970 C964 1.368 . S
C970 C969 1.523 . S
C971 C955 1.429 . S
C971 C967 1.429 . S
C971 C972 1.523 . S
C972 C956 1.368 . S
C972 C968 1.368 . S
C972 C971 1.523 . S
H973 C948 0.950 . S
H974 C950 0.950 . S
H975 C951 0.949 . S
H976 C953 0.950 . S
H977 C955 0.950 . S
C978 C979 1.349 . S
C978 C980 1.327 . S
C978 H1003 0.950 . S
C979 C978 1.349 . S
C979 C995 1.349 . S
C980 C978 1.327 . S
C980 C999 1.429 . S
C980 H1004 0.950 . S
C981 C998 1.574 . S
C981 C1000 1.368 . S
C981 H1005 0.949 . S
H982 C986 0.949 . S
C983 C984 1.349 . S
C983 C985 1.327 . S
C983 H1006 0.950 . S
C984 C983 1.349 . S
C984 C996 1.349 . S
C985 C983 1.327 . S
C985 C1001 1.429 . S
C985 H1007 0.950 . S
C986 H982 0.949 . S
C986 C994 1.574 . S
C986 C1002 1.368 . S
H987 C995 0.950 . S
H988 C993 0.950 . S
H989 C994 0.949 . S
H990 C996 0.950 . S
H991 C997 0.950 . S
H992 C998 0.949 . S
C993 H988 0.950 . S
C993 C995 1.327 . S
C993 C999 1.429 . S
C994 C986 1.574 . S
C994 H989 0.949 . S
C994 C1000 1.368 . S
C995 C979 1.349 . S
C995 H987 0.950 . S
C995 C993 1.327 . S
C996 C984 1.349 . S
C996 H990 0.950 . S
C996 C997 1.327 . S
C997 H991 0.950 . S
C997 C996 1.327 . S
C997 C1001 1.429 . S
C998 C981 1.574 . S
C998 H992 0.949 . S
C998 C1002 1.368 . S
C999 C980 1.429 . S
C999 C993 1.429 . S
C999 C1000 1.523 . S
C1000 C981 1.368 . S
C1000 C994 1.368 . S
C1000 C999 1.523 . S
C1001 C985 1.429 . S
C1001 C997 1.429 . S
C1001 C1002 1.523 . S
C1002 C986 1.368 . S
C1002 C998 1.368 . S
C1002 C1001 1.523 . S
H1003 C978 0.950 . S
H1004 C980 0.950 . S
H1005 C981 0.949 . S
H1006 C983 0.950 . S
H1007 C985 0.950 . S
C1008 C1009 1.349 . S
C1008 C1010 1.327 . S
C1008 H1033 0.950 . S
C1009 C1008 1.349 . S
C1009 C1025 1.349 . S
C1010 C1008 1.327 . S
C1010 C1029 1.429 . S
C1010 H1034 0.950 . S
C1011 C1028 1.574 . S
C1011 C1030 1.368 . S
C1011 H1035 0.949 . S
H1012 C1016 0.949 . S
C1013 C1014 1.349 . S
C1013 C1015 1.327 . S
C1013 H1036 0.950 . S
C1014 C1013 1.349 . S
C1014 C1026 1.349 . S
C1015 C1013 1.327 . S
C1015 C1031 1.429 . S
C1015 H1037 0.950 . S
C1016 H1012 0.949 . S
C1016 C1024 1.574 . S
C1016 C1032 1.368 . S
H1017 C1025 0.950 . S
H1018 C1023 0.950 . S
H1019 C1024 0.949 . S
H1020 C1026 0.950 . S
H1021 C1027 0.950 . S
H1022 C1028 0.949 . S
C1023 H1018 0.950 . S
C1023 C1025 1.327 . S
C1023 C1029 1.429 . S
C1024 C1016 1.574 . S
C1024 H1019 0.949 . S
C1024 C1030 1.368 . S
C1025 C1009 1.349 . S
C1025 H1017 0.950 . S
C1025 C1023 1.327 . S
C1026 C1014 1.349 . S
C1026 H1020 0.950 . S
C1026 C1027 1.327 . S
C1027 H1021 0.950 . S
C1027 C1026 1.327 . S
C1027 C1031 1.429 . S
C1028 C1011 1.574 . S
C1028 H1022 0.949 . S
C1028 C1032 1.368 . S
C1029 C1010 1.429 . S
C1029 C1023 1.429 . S
C1029 C1030 1.523 . S
C1030 C1011 1.368 . S
C1030 C1024 1.368 . S
C1030 C1029 1.523 . S
C1031 C1015 1.429 . S
C1031 C1027 1.429 . S
C1031 C1032 1.523 . S
C1032 C1016 1.368 . S
C1032 C1028 1.368 . S
C1032 C1031 1.523 . S
H1033 C1008 0.950 . S
H1034 C1010 0.950 . S
H1035 C1011 0.949 . S
H1036 C1013 0.950 . S
H1037 C1015 0.950 . S
C1038 C1039 1.349 . S
C1038 C1040 1.327 . S
C1038 H1063 0.950 . S
C1039 C1038 1.349 . S
C1039 C1055 1.349 . S
C1040 C1038 1.327 . S
C1040 C1059 1.429 . S
C1040 H1064 0.950 . S
C1041 C1058 1.574 . S
C1041 C1060 1.368 . S
C1041 H1065 0.949 . S
H1042 C1046 0.949 . S
C1043 C1044 1.349 . S
C1043 C1045 1.327 . S
C1043 H1066 0.950 . S
C1044 C1043 1.349 . S
C1044 C1056 1.349 . S
C1045 C1043 1.327 . S
C1045 C1061 1.429 . S
C1045 H1067 0.950 . S
C1046 H1042 0.949 . S
C1046 C1054 1.574 . S
C1046 C1062 1.368 . S
H1047 C1055 0.950 . S
H1048 C1053 0.950 . S
H1049 C1054 0.949 . S
H1050 C1056 0.950 . S
H1051 C1057 0.950 . S
H1052 C1058 0.949 . S
C1053 H1048 0.950 . S
C1053 C1055 1.327 . S
C1053 C1059 1.429 . S
C1054 C1046 1.574 . S
C1054 H1049 0.949 . S
C1054 C1060 1.368 . S
C1055 C1039 1.349 . S
C1055 H1047 0.950 . S
C1055 C1053 1.327 . S
C1056 C1044 1.349 . S
C1056 H1050 0.950 . S
C1056 C1057 1.327 . S
C1057 H1051 0.950 . S
C1057 C1056 1.327 . S
C1057 C1061 1.429 . S
C1058 C1041 1.574 . S
C1058 H1052 0.949 . S
C1058 C1062 1.368 . S
C1059 C1040 1.429 . S
C1059 C1053 1.429 . S
C1059 C1060 1.523 . S
C1060 C1041 1.368 . S
C1060 C1054 1.368 . S
C1060 C1059 1.523 . S
C1061 C1045 1.429 . S
C1061 C1057 1.429 . S
C1061 C1062 1.523 . S
C1062 C1046 1.368 . S
C1062 C1058 1.368 . S
C1062 C1061 1.523 . S
H1063 C1038 0.950 . S
H1064 C1040 0.950 . S
H1065 C1041 0.949 . S
H1066 C1043 0.950 . S
H1067 C1045 0.950 . S
C1068 C1069 1.349 . S
C1068 C1070 1.327 . S
C1068 H1093 0.950 . S
C1069 C1068 1.349 . S
C1069 C1085 1.349 . S
C1070 C1068 1.327 . S
C1070 C1089 1.429 . S
C1070 H1094 0.950 . S
C1071 C1088 1.574 . S
C1071 C1090 1.368 . S
C1071 H1095 0.949 . S
H1072 C1076 0.949 . S
C1073 C1074 1.349 . S
C1073 C1075 1.327 . S
C1073 H1096 0.950 . S
C1074 C1073 1.349 . S
C1074 C1086 1.349 . S
C1075 C1073 1.327 . S
C1075 C1091 1.429 . S
C1075 H1097 0.950 . S
C1076 H1072 0.949 . S
C1076 C1084 1.574 . S
C1076 C1092 1.368 . S
H1077 C1085 0.950 . S
H1078 C1083 0.950 . S
H1079 C1084 0.949 . S
H1080 C1086 0.950 . S
H1081 C1087 0.950 . S
H1082 C1088 0.949 . S
C1083 H1078 0.950 . S
C1083 C1085 1.327 . S
C1083 C1089 1.429 . S
C1084 C1076 1.574 . S
C1084 H1079 0.949 . S
C1084 C1090 1.368 . S
C1085 C1069 1.349 . S
C1085 H1077 0.950 . S
C1085 C1083 1.327 . S
C1086 C1074 1.349 . S
C1086 H1080 0.950 . S
C1086 C1087 1.327 . S
C1087 H1081 0.950 . S
C1087 C1086 1.327 . S
C1087 C1091 1.429 . S
C1088 C1071 1.574 . S
C1088 H1082 0.949 . S
C1088 C1092 1.368 . S
C1089 C1070 1.429 . S
C1089 C1083 1.429 . S
C1089 C1090 1.523 . S
C1090 C1071 1.368 . S
C1090 C1084 1.368 . S
C1090 C1089 1.523 . S
C1091 C1075 1.429 . S
C1091 C1087 1.429 . S
C1091 C1092 1.523 . S
C1092 C1076 1.368 . S
C1092 C1088 1.368 . S
C1092 C1091 1.523 . S
H1093 C1068 0.950 . S
H1094 C1070 0.950 . S
H1095 C1071 0.949 . S
H1096 C1073 0.950 . S
H1097 C1075 0.950 . S
C1098 C1099 1.349 . S
C1098 C1100 1.327 . S
C1098 H1123 0.950 . S
C1099 C1098 1.349 . S
C1099 C1115 1.349 . S
C1100 C1098 1.327 . S
C1100 C1119 1.429 . S
C1100 H1124 0.950 . S
C1101 C1118 1.574 . S
C1101 C1120 1.368 . S
C1101 H1125 0.949 . S
H1102 C1106 0.949 . S
C1103 C1104 1.349 . S
C1103 C1105 1.327 . S
C1103 H1126 0.950 . S
C1104 C1103 1.349 . S
C1104 C1116 1.349 . S
C1105 C1103 1.327 . S
C1105 C1121 1.429 . S
C1105 H1127 0.950 . S
C1106 H1102 0.949 . S
C1106 C1114 1.574 . S
C1106 C1122 1.368 . S
H1107 C1115 0.950 . S
H1108 C1113 0.950 . S
H1109 C1114 0.949 . S
H1110 C1116 0.950 . S
H1111 C1117 0.950 . S
H1112 C1118 0.949 . S
C1113 H1108 0.950 . S
C1113 C1115 1.327 . S
C1113 C1119 1.429 . S
C1114 C1106 1.574 . S
C1114 H1109 0.949 . S
C1114 C1120 1.368 . S
C1115 C1099 1.349 . S
C1115 H1107 0.950 . S
C1115 C1113 1.327 . S
C1116 C1104 1.349 . S
C1116 H1110 0.950 . S
C1116 C1117 1.327 . S
C1117 H1111 0.950 . S
C1117 C1116 1.327 . S
C1117 C1121 1.429 . S
C1118 C1101 1.574 . S
C1118 H1112 0.949 . S
C1118 C1122 1.368 . S
C1119 C1100 1.429 . S
C1119 C1113 1.429 . S
C1119 C1120 1.523 . S
C1120 C1101 1.368 . S
C1120 C1114 1.368 . S
C1120 C1119 1.523 . S
C1121 C1105 1.429 . S
C1121 C1117 1.429 . S
C1121 C1122 1.523 . S
C1122 C1106 1.368 . S
C1122 C1118 1.368 . S
C1122 C1121 1.523 . S
H1123 C1098 0.950 . S
H1124 C1100 0.950 . S
H1125 C1101 0.949 . S
H1126 C1103 0.950 . S
H1127 C1105 0.950 . S
C1128 C1129 1.349 . S
C1128 C1130 1.327 . S
C1128 H1153 0.950 . S
C1129 C1128 1.349 . S
C1129 C1145 1.349 . S
C1130 C1128 1.327 . S
C1130 C1149 1.429 . S
C1130 H1154 0.950 . S
C1131 C1148 1.574 . S
C1131 C1150 1.368 . S
C1131 H1155 0.949 . S
H1132 C1136 0.949 . S
C1133 C1134 1.349 . S
C1133 C1135 1.327 . S
C1133 H1156 0.950 . S
C1134 C1133 1.349 . S
C1134 C1146 1.349 . S
C1135 C1133 1.327 . S
C1135 C1151 1.429 . S
C1135 H1157 0.950 . S
C1136 H1132 0.949 . S
C1136 C1144 1.574 . S
C1136 C1152 1.368 . S
H1137 C1145 0.950 . S
H1138 C1143 0.950 . S
H1139 C1144 0.949 . S
H1140 C1146 0.950 . S
H1141 C1147 0.950 . S
H1142 C1148 0.949 . S
C1143 H1138 0.950 . S
C1143 C1145 1.327 . S
C1143 C1149 1.429 . S
C1144 C1136 1.574 . S
C1144 H1139 0.949 . S
C1144 C1150 1.368 . S
C1145 C1129 1.349 . S
C1145 H1137 0.950 . S
C1145 C1143 1.327 . S
C1146 C1134 1.349 . S
C1146 H1140 0.950 . S
C1146 C1147 1.327 . S
C1147 H1141 0.950 . S
C1147 C1146 1.327 . S
C1147 C1151 1.429 . S
C1148 C1131 1.574 . S
C1148 H1142 0.949 . S
C1148 C1152 1.368 . S
C1149 C1130 1.429 . S
C1149 C1143 1.429 . S
C1149 C1150 1.523 . S
C1150 C1131 1.368 . S
C1150 C1144 1.368 . S
C1150 C1149 1.523 . S
C1151 C1135 1.429 . S
C1151 C1147 1.429 . S
C1151 C1152 1.523 . S
C1152 C1136 1.368 . S
C1152 C1148 1.368 . S
C1152 C1151 1.523 . S
H1153 C1128 0.950 . S
H1154 C1130 0.950 . S
H1155 C1131 0.949 . S
H1156 C1133 0.950 . S
H1157 C1135 0.950 . S
C1158 C1159 1.349 . S
C1158 C1160 1.327 . S
C1158 H1183 0.950 . S
C1159 C1158 1.349 . S
C1159 C1175 1.349 . S
C1160 C1158 1.327 . S
C1160 C1179 1.429 . S
C1160 H1184 0.950 . S
C1161 C1178 1.574 . S
C1161 C1180 1.368 . S
C1161 H1185 0.949 . S
H1162 C1166 0.949 . S
C1163 C1164 1.349 . S
C1163 C1165 1.327 . S
C1163 H1186 0.950 . S
C1164 C1163 1.349 . S
C1164 C1176 1.349 . S
C1165 C1163 1.327 . S
C1165 C1181 1.429 . S
C1165 H1187 0.950 . S
C1166 H1162 0.949 . S
C1166 C1174 1.574 . S
C1166 C1182 1.368 . S
H1167 C1175 0.950 . S
H1168 C1173 0.950 . S
H1169 C1174 0.949 . S
H1170 C1176 0.950 . S
H1171 C1177 0.950 . S
H1172 C1178 0.949 . S
C1173 H1168 0.950 . S
C1173 C1175 1.327 . S
C1173 C1179 1.429 . S
C1174 C1166 1.574 . S
C1174 H1169 0.949 . S
C1174 C1180 1.368 . S
C1175 C1159 1.349 . S
C1175 H1167 0.950 . S
C1175 C1173 1.327 . S
C1176 C1164 1.349 . S
C1176 H1170 0.950 . S
C1176 C1177 1.327 . S
C1177 H1171 0.950 . S
C1177 C1176 1.327 . S
C1177 C1181 1.429 . S
C1178 C1161 1.574 . S
C1178 H1172 0.949 . S
C1178 C1182 1.368 . S
C1179 C1160 1.429 . S
C1179 C1173 1.429 . S
C1179 C1180 1.523 . S
C1180 C1161 1.368 . S
C1180 C1174 1.368 . S
C1180 C1179 1.523 . S
C1181 C1165 1.429 . S
C1181 C1177 1.429 . S
C1181 C1182 1.523 . S
C1182 C1166 1.368 . S
C1182 C1178 1.368 . S
C1182 C1181 1.523 . S
H1183 C1158 0.950 . S
H1184 C1160 0.950 . S
H1185 C1161 0.949 . S
H1186 C1163 0.950 . S
H1187 C1165 0.950 . S
C1188 C1189 1.349 . S
C1188 C1190 1.327 . S
C1188 H1213 0.950 . S
C1189 C1188 1.349 . S
C1189 C1205 1.349 . S
C1190 C1188 1.327 . S
C1190 C1209 1.429 . S
C1190 H1214 0.950 . S
C1191 C1208 1.574 . S
C1191 C1210 1.368 1_455 S
C1191 H1215 0.949 . S
H1192 C1196 0.949 . S
C1193 C1194 1.349 . S
C1193 C1195 1.327 . S
C1193 H1216 0.950 . S
C1194 C1193 1.349 . S
C1194 C1206 1.349 . S
C1195 C1193 1.327 . S
C1195 C1211 1.429 . S
C1195 H1217 0.950 . S
C1196 H1192 0.949 . S
C1196 C1204 1.574 . S
C1196 C1212 1.368 1_655 S
H1197 C1205 0.950 . S
H1198 C1203 0.950 . S
H1199 C1204 0.949 . S
H1200 C1206 0.950 . S
H1201 C1207 0.950 . S
H1202 C1208 0.949 . S
C1203 H1198 0.950 . S
C1203 C1205 1.327 . S
C1203 C1209 1.429 . S
C1204 C1196 1.574 . S
C1204 H1199 0.949 . S
C1204 C1210 1.368 . S
C1205 C1189 1.349 . S
C1205 H1197 0.950 . S
C1205 C1203 1.327 . S
C1206 C1194 1.349 . S
C1206 H1200 0.950 . S
C1206 C1207 1.327 . S
C1207 H1201 0.950 . S
C1207 C1206 1.327 . S
C1207 C1211 1.429 . S
C1208 C1191 1.574 . S
C1208 H1202 0.949 . S
C1208 C1212 1.368 . S
C1209 C1190 1.429 . S
C1209 C1203 1.429 . S
C1209 C1210 1.523 . S
C1210 C1191 1.368 1_655 S
C1210 C1204 1.368 . S
C1210 C1209 1.523 . S
C1211 C1195 1.429 . S
C1211 C1207 1.429 . S
C1211 C1212 1.523 . S
C1212 C1196 1.368 1_455 S
C1212 C1208 1.368 . S
C1212 C1211 1.523 . S
H1213 C1188 0.950 . S
H1214 C1190 0.950 . S
H1215 C1191 0.949 . S
H1216 C1193 0.950 . S
H1217 C1195 0.950 . S
C1218 C1219 1.349 . S
C1218 C1220 1.327 . S
C1218 H1243 0.950 . S
C1219 C1218 1.349 . S
C1219 C1235 1.349 . S
C1220 C1218 1.327 . S
C1220 C1239 1.429 . S
C1220 H1244 0.950 . S
C1221 C1238 1.574 . S
C1221 C1240 1.368 . S
C1221 H1245 0.949 . S
H1222 C1226 0.949 . S
C1223 C1224 1.349 . S
C1223 C1225 1.327 . S
C1223 H1246 0.950 . S
C1224 C1223 1.349 . S
C1224 C1236 1.349 . S
C1225 C1223 1.327 . S
C1225 C1241 1.429 . S
C1225 H1247 0.950 . S
C1226 H1222 0.949 . S
C1226 C1234 1.574 . S
C1226 C1242 1.368 . S
H1227 C1235 0.950 . S
H1228 C1233 0.950 . S
H1229 C1234 0.949 . S
H1230 C1236 0.950 . S
H1231 C1237 0.950 . S
H1232 C1238 0.949 . S
C1233 H1228 0.950 . S
C1233 C1235 1.327 . S
C1233 C1239 1.429 . S
C1234 C1226 1.574 . S
C1234 H1229 0.949 . S
C1234 C1240 1.368 . S
C1235 C1219 1.349 . S
C1235 H1227 0.950 . S
C1235 C1233 1.327 . S
C1236 C1224 1.349 . S
C1236 H1230 0.950 . S
C1236 C1237 1.327 . S
C1237 H1231 0.950 . S
C1237 C1236 1.327 . S
C1237 C1241 1.429 . S
C1238 C1221 1.574 . S
C1238 H1232 0.949 . S
C1238 C1242 1.368 . S
C1239 C1220 1.429 . S
C1239 C1233 1.429 . S
C1239 C1240 1.523 . S
C1240 C1221 1.368 . S
C1240 C1234 1.368 . S
C1240 C1239 1.523 . S
C1241 C1225 1.429 . S
C1241 C1237 1.429 . S
C1241 C1242 1.523 . S
C1242 C1226 1.368 . S
C1242 C1238 1.368 . S
C1242 C1241 1.523 . S
H1243 C1218 0.950 . S
H1244 C1220 0.950 . S
H1245 C1221 0.949 . S
H1246 C1223 0.950 . S
H1247 C1225 0.950 . S
C1248 C1249 1.349 . S
C1248 C1250 1.327 . S
C1248 H1273 0.950 . S
C1249 C1248 1.349 . S
C1249 C1265 1.349 . S
C1250 C1248 1.327 . S
C1250 C1269 1.429 . S
C1250 H1274 0.950 . S
C1251 C1268 1.574 1_545 S
C1251 C1270 1.368 . S
C1251 H1275 0.949 1_545 S
H1252 C1256 0.949 . S
C1253 C1254 1.349 . S
C1253 C1255 1.327 . S
C1253 H1276 0.950 . S
C1254 C1253 1.349 . S
C1254 C1266 1.349 . S
C1255 C1253 1.327 . S
C1255 C1271 1.429 . S
C1255 H1277 0.950 . S
C1256 H1252 0.949 . S
C1256 C1264 1.574 . S
C1256 C1272 1.368 1_545 S
H1257 C1265 0.950 . S
H1258 C1263 0.950 . S
H1259 C1264 0.949 . S
H1260 C1266 0.950 . S
H1261 C1267 0.950 1_545 S
H1262 C1268 0.949 . S
C1263 H1258 0.950 . S
C1263 C1265 1.327 . S
C1263 C1269 1.429 . S
C1264 C1256 1.574 . S
C1264 H1259 0.949 . S
C1264 C1270 1.368 . S
C1265 C1249 1.349 . S
C1265 H1257 0.950 . S
C1265 C1263 1.327 . S
C1266 C1254 1.349 . S
C1266 H1260 0.950 . S
C1266 C1267 1.327 . S
C1267 H1261 0.950 1_565 S
C1267 C1266 1.327 . S
C1267 C1271 1.429 . S
C1268 C1251 1.574 1_565 S
C1268 H1262 0.949 . S
C1268 C1272 1.368 . S
C1269 C1250 1.429 . S
C1269 C1263 1.429 . S
C1269 C1270 1.523 . S
C1270 C1251 1.368 . S
C1270 C1264 1.368 . S
C1270 C1269 1.523 . S
C1271 C1255 1.429 . S
C1271 C1267 1.429 . S
C1271 C1272 1.523 . S
C1272 C1256 1.368 1_565 S
C1272 C1268 1.368 . S
C1272 C1271 1.523 . S
H1273 C1248 0.950 . S
H1274 C1250 0.950 . S
H1275 C1251 0.949 1_565 S
H1276 C1253 0.950 . S
H1277 C1255 0.950 . S
C1278 C1279 1.349 . S
C1278 C1280 1.327 . S
C1278 H1303 0.950 . S
C1279 C1278 1.349 . S
C1279 C1295 1.349 . S
C1280 C1278 1.327 . S
C1280 C1299 1.429 . S
C1280 H1304 0.950 . S
C1281 C1298 1.574 1_556 S
C1281 C1300 1.368 1_565 S
C1281 H1305 0.949 . S
H1282 C1286 0.948 . S
C1283 C1284 1.349 . S
C1283 C1285 1.327 . S
C1283 H1306 0.950 . S
C1284 C1283 1.349 . S
C1284 C1296 1.349 . S
C1285 C1283 1.327 . S
C1285 C1301 1.429 . S
C1285 H1307 0.950 . S
C1286 H1282 0.948 . S
C1286 C1294 1.574 1_565 S
C1286 C1302 1.368 . S
H1287 C1295 0.950 . S
H1288 C1293 0.950 1_565 S
H1289 C1294 0.949 1_556 S
H1290 C1296 0.950 . S
H1291 C1297 0.950 . S
H1292 C1298 0.949 . S
C1293 H1288 0.950 1_545 S
C1293 C1295 1.327 . S
C1293 C1299 1.429 . S
C1294 C1286 1.574 1_545 S
C1294 H1289 0.949 1_554 S
C1294 C1300 1.368 1_554 S
C1295 C1279 1.349 . S
C1295 H1287 0.950 . S
C1295 C1293 1.327 . S
C1296 C1284 1.349 . S
C1296 H1290 0.950 . S
C1296 C1297 1.327 . S
C1297 H1291 0.950 . S
C1297 C1296 1.327 . S
C1297 C1301 1.429 . S
C1298 C1281 1.574 1_554 S
C1298 H1292 0.949 . S
C1298 C1302 1.368 . S
C1299 C1280 1.429 . S
C1299 C1293 1.429 . S
C1299 C1300 1.523 . S
C1300 C1281 1.368 1_545 S
C1300 C1294 1.368 1_556 S
C1300 C1299 1.523 . S
C1301 C1285 1.429 . S
C1301 C1297 1.429 . S
C1301 C1302 1.523 . S
C1302 C1286 1.368 . S
C1302 C1298 1.368 . S
C1302 C1301 1.523 . S
H1303 C1278 0.950 . S
H1304 C1280 0.950 . S
H1305 C1281 0.949 . S
H1306 C1283 0.950 . S
H1307 C1285 0.950 . S
C1308 C1309 1.349 . S
C1308 C1310 1.327 . S
C1308 H1333 0.950 . S
C1309 C1308 1.349 . S
C1309 C1325 1.349 . S
C1310 C1308 1.327 . S
C1310 C1329 1.429 . S
C1310 H1334 0.950 . S
C1311 C1328 1.574 . S
C1311 C1330 1.351 1_454 S
C1311 H1335 0.949 . S
H1312 C1316 0.944 1_556 S
C1313 C1314 1.349 . S
C1313 C1315 1.327 . S
C1313 H1336 0.950 . S
C1314 C1313 1.349 . S
C1314 C1326 1.349 . S
C1315 C1313 1.327 . S
C1315 C1331 1.429 . S
C1315 H1337 0.950 . S
C1316 H1312 0.944 1_554 S
C1316 C1324 1.583 1_554 S
C1316 C1332 1.380 . S
H1317 C1325 0.950 . S
H1318 C1323 0.950 1_554 S
H1319 C1324 0.922 1_655 S
H1320 C1326 0.950 . S
H1321 C1327 0.950 . S
H1322 C1328 0.949 . S
C1323 H1318 0.950 1_556 S
C1323 C1325 1.327 . S
C1323 C1329 1.429 . S
C1324 C1316 1.583 1_556 S
C1324 H1319 0.922 1_455 S
C1324 C1330 1.398 1_455 S
C1325 C1309 1.349 . S
C1325 H1317 0.950 . S
C1325 C1323 1.327 . S
C1326 C1314 1.349 . S
C1326 H1320 0.950 . S
C1326 C1327 1.327 . S
C1327 H1321 0.950 . S
C1327 C1326 1.327 . S
C1327 C1331 1.429 . S
C1328 C1311 1.574 . S
C1328 H1322 0.949 . S
C1328 C1332 1.368 . S
C1329 C1310 1.429 . S
C1329 C1323 1.429 . S
C1329 C1330 1.531 . S
C1330 C1311 1.351 1_656 S
C1330 C1324 1.398 1_655 S
C1330 C1329 1.531 . S
C1331 C1315 1.429 . S
C1331 C1327 1.429 . S
C1331 C1332 1.523 . S
C1332 C1316 1.380 . S
C1332 C1328 1.368 . S
C1332 C1331 1.523 . S
H1333 C1308 0.950 . S
H1334 C1310 0.950 . S
H1335 C1311 0.949 . S
H1336 C1313 0.950 . S
H1337 C1315 0.950 . S
C1338 C1339 1.349 . S
C1338 C1340 1.327 . S
C1338 H1363 0.950 . S
C1339 C1338 1.349 . S
C1339 C1355 1.349 . S
C1340 C1338 1.327 . S
C1340 C1359 1.429 . S
C1340 H1364 0.950 . S
C1341 C1358 1.574 . S
C1341 C1360 1.368 1_554 S
C1341 H1365 0.949 . S
H1342 C1346 0.949 . S
C1343 C1344 1.349 . S
C1343 C1345 1.327 . S
C1343 H1366 0.950 . S
C1344 C1343 1.349 . S
C1344 C1356 1.349 . S
C1345 C1343 1.327 . S
C1345 C1361 1.429 . S
C1345 H1367 0.950 . S
C1346 H1342 0.949 . S
C1346 C1354 1.574 . S
C1346 C1362 1.368 1_556 S
H1347 C1355 0.950 . S
H1348 C1353 0.950 1_554 S
H1349 C1354 0.949 . S
H1350 C1356 0.950 . S
H1351 C1357 0.950 . S
H1352 C1358 0.949 . S
C1353 H1348 0.950 1_556 S
C1353 C1355 1.327 . S
C1353 C1359 1.429 . S
C1354 C1346 1.574 . S
C1354 H1349 0.949 . S
C1354 C1360 1.368 . S
C1355 C1339 1.349 . S
C1355 H1347 0.950 . S
C1355 C1353 1.327 . S
C1356 C1344 1.349 . S
C1356 H1350 0.950 . S
C1356 C1357 1.327 . S
C1357 H1351 0.950 . S
C1357 C1356 1.327 . S
C1357 C1361 1.429 . S
C1358 C1341 1.574 . S
C1358 H1352 0.949 . S
C1358 C1362 1.368 . S
C1359 C1340 1.429 . S
C1359 C1353 1.429 . S
C1359 C1360 1.523 . S
C1360 C1341 1.368 1_556 S
C1360 C1354 1.368 . S
C1360 C1359 1.523 . S
C1361 C1345 1.429 . S
C1361 C1357 1.429 . S
C1361 C1362 1.523 . S
C1362 C1346 1.368 1_554 S
C1362 C1358 1.368 . S
C1362 C1361 1.523 . S
H1363 C1338 0.950 . S
H1364 C1340 0.950 . S
H1365 C1341 0.949 . S
H1366 C1343 0.950 . S
H1367 C1345 0.950 . S
C1368 C1369 1.349 . S
C1368 C1370 1.327 . S
C1368 H1393 0.950 . S
C1369 C1368 1.349 . S
C1369 C1385 1.349 . S
C1370 C1368 1.327 . S
C1370 C1389 1.429 . S
C1370 H1394 0.950 . S
C1371 C1388 1.574 . S
C1371 C1390 1.368 . S
C1371 H1395 0.949 . S
H1372 C1376 0.949 . S
C1373 C1374 1.349 . S
C1373 C1375 1.327 . S
C1373 H1396 0.950 . S
C1374 C1373 1.349 . S
C1374 C1386 1.349 . S
C1375 C1373 1.327 . S
C1375 C1391 1.429 . S
C1375 H1397 0.950 1_554 S
C1376 H1372 0.949 . S
C1376 C1384 1.574 1_554 S
C1376 C1392 1.367 1_554 S
H1377 C1385 0.950 . S
H1378 C1383 0.950 . S
H1379 C1384 0.949 1_554 S
H1380 C1386 0.950 . S
H1381 C1387 0.950 . S
H1382 C1388 0.949 . S
C1383 H1378 0.950 . S
C1383 C1385 1.327 . S
C1383 C1389 1.429 . S
C1384 C1376 1.574 1_556 S
C1384 H1379 0.949 1_556 S
C1384 C1390 1.368 . S
C1385 C1369 1.349 . S
C1385 H1377 0.950 . S
C1385 C1383 1.327 . S
C1386 C1374 1.349 . S
C1386 H1380 0.950 . S
C1386 C1387 1.327 . S
C1387 H1381 0.950 . S
C1387 C1386 1.327 . S
C1387 C1391 1.429 . S
C1388 C1371 1.574 . S
C1388 H1382 0.949 . S
C1388 C1392 1.371 . S
C1389 C1370 1.429 . S
C1389 C1383 1.429 . S
C1389 C1390 1.523 . S
C1390 C1371 1.368 . S
C1390 C1384 1.368 . S
C1390 C1389 1.523 . S
C1391 C1375 1.429 . S
C1391 C1387 1.429 . S
C1391 C1392 1.522 1_554 S
C1392 C1376 1.367 1_556 S
C1392 C1388 1.371 . S
C1392 C1391 1.522 1_556 S
H1393 C1368 0.950 . S
H1394 C1370 0.950 . S
H1395 C1371 0.949 . S
H1396 C1373 0.950 . S
H1397 C1375 0.950 1_556 S
C1398 C1399 1.349 . S
C1398 C1400 1.327 . S
C1398 H1423 0.950 . S
C1399 C1398 1.349 . S
C1399 C1415 1.349 . S
C1400 C1398 1.327 . S
C1400 C1419 1.429 . S
C1400 H1424 0.950 . S
C1401 C1418 1.556 1_556 S
C1401 C1420 1.368 . S
C1401 H1425 0.949 . S
H1402 C1406 0.949 . S
C1403 C1404 1.349 . S
C1403 C1405 1.327 . S
C1403 H1426 0.950 . S
C1404 C1403 1.349 . S
C1404 C1416 1.349 . S
C1405 C1403 1.327 . S
C1405 C1421 1.429 . S
C1405 H1427 0.950 . S
C1406 H1402 0.949 . S
C1406 C1414 1.574 . S
C1406 C1422 1.368 . S
H1407 C1415 0.950 . S
H1408 C1413 0.950 . S
H1409 C1414 0.949 . S
H1410 C1416 0.950 . S
H1411 C1417 0.950 . S
H1412 C1418 0.950 1_556 S
C1413 H1408 0.950 . S
C1413 C1415 1.327 . S
C1413 C1419 1.429 . S
C1414 C1406 1.574 . S
C1414 H1409 0.949 . S
C1414 C1420 1.368 1_554 S
C1415 C1399 1.349 . S
C1415 H1407 0.950 . S
C1415 C1413 1.327 . S
C1416 C1404 1.349 . S
C1416 H1410 0.950 . S
C1416 C1417 1.327 . S
C1417 H1411 0.950 . S
C1417 C1416 1.327 . S
C1417 C1421 1.429 . S
C1418 C1401 1.556 1_554 S
C1418 H1412 0.950 1_554 S
C1418 C1422 1.387 . S
C1419 C1400 1.429 . S
C1419 C1413 1.429 . S
C1419 C1420 1.523 . S
C1420 C1401 1.368 . S
C1420 C1414 1.368 1_556 S
C1420 C1419 1.523 . S
C1421 C1405 1.429 . S
C1421 C1417 1.429 . S
C1421 C1422 1.523 . S
C1422 C1406 1.368 . S
C1422 C1418 1.387 . S
C1422 C1421 1.523 . S
H1423 C1398 0.950 . S
H1424 C1400 0.950 . S
H1425 C1401 0.949 . S
H1426 C1403 0.950 . S
H1427 C1405 0.950 . S
C1428 C1429 1.349 . S
C1428 C1430 1.327 . S
C1428 H1453 0.950 . S
C1429 C1428 1.349 . S
C1429 C1445 1.349 . S
C1430 C1428 1.327 . S
C1430 C1449 1.429 . S
C1430 H1454 0.950 . S
C1431 C1448 1.574 1_554 S
C1431 C1450 1.368 . S
C1431 H1455 0.957 . S
H1432 C1436 0.949 . S
C1433 C1434 1.349 . S
C1433 C1435 1.327 . S
C1433 H1456 0.950 . S
C1434 C1433 1.349 . S
C1434 C1446 1.349 . S
C1435 C1433 1.327 . S
C1435 C1451 1.429 . S
C1435 H1457 0.950 . S
C1436 H1432 0.949 . S
C1436 C1444 1.574 . S
C1436 C1452 1.368 1_554 S
H1437 C1445 0.950 . S
H1438 C1443 0.950 . S
H1439 C1444 0.949 . S
H1440 C1446 0.950 . S
H1441 C1447 0.950 . S
H1442 C1448 0.949 . S
C1443 H1438 0.950 . S
C1443 C1445 1.327 . S
C1443 C1449 1.429 . S
C1444 C1436 1.574 . S
C1444 H1439 0.949 . S
C1444 C1450 1.368 . S
C1445 C1429 1.349 . S
C1445 H1437 0.950 . S
C1445 C1443 1.327 . S
C1446 C1434 1.349 . S
C1446 H1440 0.950 . S
C1446 C1447 1.327 . S
C1447 H1441 0.950 . S
C1447 C1446 1.327 . S
C1447 C1451 1.429 . S
C1448 C1431 1.574 1_556 S
C1448 H1442 0.949 . S
C1448 C1452 1.368 . S
C1449 C1430 1.429 . S
C1449 C1443 1.429 . S
C1449 C1450 1.523 . S
C1450 C1431 1.368 . S
C1450 C1444 1.368 . S
C1450 C1449 1.523 . S
C1451 C1435 1.429 . S
C1451 C1447 1.429 . S
C1451 C1452 1.523 . S
C1452 C1436 1.368 1_556 S
C1452 C1448 1.368 . S
C1452 C1451 1.523 . S
H1453 C1428 0.950 . S
H1454 C1430 0.950 . S
H1455 C1431 0.957 . S
H1456 C1433 0.950 . S
H1457 C1435 0.950 . S
C1458 C1459 1.349 . S
C1458 C1460 1.327 . S
C1458 H1483 0.950 . S
C1459 C1458 1.349 . S
C1459 C1475 1.349 . S
C1460 C1458 1.327 . S
C1460 C1479 1.429 . S
C1460 H1484 0.950 . S
C1461 C1478 1.574 . S
C1461 C1480 1.368 . S
C1461 H1485 0.949 . S
H1462 C1466 0.949 . S
C1463 C1464 1.349 . S
C1463 C1465 1.327 . S
C1463 H1486 0.950 . S
C1464 C1463 1.349 . S
C1464 C1476 1.349 . S
C1465 C1463 1.327 . S
C1465 C1481 1.429 . S
C1465 H1487 0.950 . S
C1466 H1462 0.949 . S
C1466 C1474 1.574 . S
C1466 C1482 1.368 . S
H1467 C1475 0.950 . S
H1468 C1473 0.950 . S
H1469 C1474 0.949 . S
H1470 C1476 0.950 . S
H1471 C1477 0.950 . S
H1472 C1478 0.949 . S
C1473 H1468 0.950 . S
C1473 C1475 1.327 . S
C1473 C1479 1.429 . S
C1474 C1466 1.574 . S
C1474 H1469 0.949 . S
C1474 C1480 1.368 . S
C1475 C1459 1.349 . S
C1475 H1467 0.950 . S
C1475 C1473 1.327 . S
C1476 C1464 1.349 . S
C1476 H1470 0.950 . S
C1476 C1477 1.327 . S
C1477 H1471 0.950 . S
C1477 C1476 1.327 . S
C1477 C1481 1.429 . S
C1478 C1461 1.574 . S
C1478 H1472 0.949 . S
C1478 C1482 1.368 . S
C1479 C1460 1.429 . S
C1479 C1473 1.429 . S
C1479 C1480 1.523 . S
C1480 C1461 1.368 . S
C1480 C1474 1.368 . S
C1480 C1479 1.523 . S
C1481 C1465 1.429 . S
C1481 C1477 1.429 . S
C1481 C1482 1.523 . S
C1482 C1466 1.368 . S
C1482 C1478 1.368 . S
C1482 C1481 1.523 . S
H1483 C1458 0.950 . S
H1484 C1460 0.950 . S
H1485 C1461 0.949 . S
H1486 C1463 0.950 . S
H1487 C1465 0.950 . S
C1488 C1489 1.349 . S
C1488 C1490 1.327 . S
C1488 H1513 0.950 . S
C1489 C1488 1.349 . S
C1489 C1505 1.349 . S
C1490 C1488 1.327 . S
C1490 C1509 1.429 . S
C1490 H1514 0.950 . S
C1491 C1508 1.574 . S
C1491 C1510 1.368 . S
C1491 H1515 0.949 . S
H1492 C1496 0.949 . S
C1493 C1494 1.349 . S
C1493 C1495 1.327 . S
C1493 H1516 0.950 . S
C1494 C1493 1.349 . S
C1494 C1506 1.349 . S
C1495 C1493 1.327 . S
C1495 C1511 1.429 . S
C1495 H1517 0.950 . S
C1496 H1492 0.949 . S
C1496 C1504 1.574 . S
C1496 C1512 1.368 . S
H1497 C1505 0.950 . S
H1498 C1503 0.950 . S
H1499 C1504 0.949 . S
H1500 C1506 0.950 . S
H1501 C1507 0.950 . S
H1502 C1508 0.949 . S
C1503 H1498 0.950 . S
C1503 C1505 1.327 . S
C1503 C1509 1.429 . S
C1504 C1496 1.574 . S
C1504 H1499 0.949 . S
C1504 C1510 1.368 . S
C1505 C1489 1.349 . S
C1505 H1497 0.950 . S
C1505 C1503 1.327 . S
C1506 C1494 1.349 . S
C1506 H1500 0.950 . S
C1506 C1507 1.327 . S
C1507 H1501 0.950 . S
C1507 C1506 1.327 . S
C1507 C1511 1.429 . S
C1508 C1491 1.574 . S
C1508 H1502 0.949 . S
C1508 C1512 1.368 . S
C1509 C1490 1.429 . S
C1509 C1503 1.429 . S
C1509 C1510 1.523 . S
C1510 C1491 1.368 . S
C1510 C1504 1.368 . S
C1510 C1509 1.523 . S
C1511 C1495 1.429 . S
C1511 C1507 1.429 . S
C1511 C1512 1.523 . S
C1512 C1496 1.368 . S
C1512 C1508 1.368 . S
C1512 C1511 1.523 . S
H1513 C1488 0.950 . S
H1514 C1490 0.950 . S
H1515 C1491 0.949 . S
H1516 C1493 0.950 . S
H1517 C1495 0.950 . S
C1518 C1519 1.349 . S
C1518 C1520 1.327 . S
C1518 H1543 0.950 . S
C1519 C1518 1.349 . S
C1519 C1535 1.349 . S
C1520 C1518 1.327 . S
C1520 C1539 1.429 . S
C1520 H1544 0.950 . S
C1521 C1538 1.574 . S
C1521 C1540 1.368 . S
C1521 H1545 0.949 . S
H1522 C1526 0.949 . S
C1523 C1524 1.349 . S
C1523 C1525 1.327 . S
C1523 H1546 0.950 . S
C1524 C1523 1.349 . S
C1524 C1536 1.349 . S
C1525 C1523 1.327 . S
C1525 C1541 1.429 . S
C1525 H1547 0.950 . S
C1526 H1522 0.949 . S
C1526 C1534 1.574 . S
C1526 C1542 1.368 . S
H1527 C1535 0.950 . S
H1528 C1533 0.950 . S
H1529 C1534 0.949 . S
H1530 C1536 0.950 . S
H1531 C1537 0.950 . S
H1532 C1538 0.949 . S
C1533 H1528 0.950 . S
C1533 C1535 1.327 . S
C1533 C1539 1.429 . S
C1534 C1526 1.574 . S
C1534 H1529 0.949 . S
C1534 C1540 1.368 . S
C1535 C1519 1.349 . S
C1535 H1527 0.950 . S
C1535 C1533 1.327 . S
C1536 C1524 1.349 . S
C1536 H1530 0.950 . S
C1536 C1537 1.327 . S
C1537 H1531 0.950 . S
C1537 C1536 1.327 . S
C1537 C1541 1.429 . S
C1538 C1521 1.574 . S
C1538 H1532 0.949 . S
C1538 C1542 1.368 . S
C1539 C1520 1.429 . S
C1539 C1533 1.429 . S
C1539 C1540 1.523 . S
C1540 C1521 1.368 . S
C1540 C1534 1.368 . S
C1540 C1539 1.523 . S
C1541 C1525 1.429 . S
C1541 C1537 1.429 . S
C1541 C1542 1.523 . S
C1542 C1526 1.368 . S
C1542 C1538 1.368 . S
C1542 C1541 1.523 . S
H1543 C1518 0.950 . S
H1544 C1520 0.950 . S
H1545 C1521 0.949 . S
H1546 C1523 0.950 . S
H1547 C1525 0.950 . S
C1548 C1549 1.349 . S
C1548 C1550 1.327 . S
C1548 H1573 0.950 . S
C1549 C1548 1.349 . S
C1549 C1565 1.349 . S
C1550 C1548 1.327 . S
C1550 C1569 1.429 . S
C1550 H1574 0.950 1_556 S
C1551 C1568 1.574 . S
C1551 C1570 1.368 . S
C1551 H1575 0.949 . S
H1552 C1556 0.949 . S
C1553 C1554 1.349 . S
C1553 C1555 1.327 . S
C1553 H1576 0.950 . S
C1554 C1553 1.349 . S
C1554 C1566 1.349 . S
C1555 C1553 1.327 . S
C1555 C1571 1.429 . S
C1555 H1577 0.950 1_554 S
C1556 H1552 0.949 . S
C1556 C1564 1.574 . S
C1556 C1572 1.368 . S
H1557 C1565 0.950 . S
H1558 C1563 0.950 . S
H1559 C1564 0.949 . S
H1560 C1566 0.950 . S
H1561 C1567 0.950 . S
H1562 C1568 0.949 . S
C1563 H1558 0.950 . S
C1563 C1565 1.327 . S
C1563 C1569 1.429 . S
C1564 C1556 1.574 . S
C1564 H1559 0.949 . S
C1564 C1570 1.368 1_554 S
C1565 C1549 1.349 . S
C1565 H1557 0.950 . S
C1565 C1563 1.327 . S
C1566 C1554 1.349 . S
C1566 H1560 0.950 . S
C1566 C1567 1.327 . S
C1567 H1561 0.950 . S
C1567 C1566 1.327 . S
C1567 C1571 1.429 . S
C1568 C1551 1.574 . S
C1568 H1562 0.949 . S
C1568 C1572 1.368 1_556 S
C1569 C1550 1.429 . S
C1569 C1563 1.429 . S
C1569 C1570 1.523 . S
C1570 C1551 1.368 . S
C1570 C1564 1.368 1_556 S
C1570 C1569 1.523 . S
C1571 C1555 1.429 . S
C1571 C1567 1.429 . S
C1571 C1572 1.523 . S
C1572 C1556 1.368 . S
C1572 C1568 1.368 1_554 S
C1572 C1571 1.523 . S
H1573 C1548 0.950 . S
H1574 C1550 0.950 1_554 S
H1575 C1551 0.949 . S
H1576 C1553 0.950 . S
H1577 C1555 0.950 1_556 S
C1578 C1579 1.349 . S
C1578 C1580 1.327 . S
C1578 H1603 0.950 . S
C1579 C1578 1.349 . S
C1579 C1595 1.349 . S
C1580 C1578 1.327 . S
C1580 C1599 1.429 . S
C1580 H1604 0.950 . S
C1581 C1598 1.574 . S
C1581 C1600 1.368 . S
C1581 H1605 0.949 . S
H1582 C1586 0.963 . S
C1583 C1584 1.349 . S
C1583 C1585 1.327 1_554 S
C1583 H1606 0.953 . S
C1584 C1583 1.349 . S
C1584 C1596 1.349 . S
C1585 C1583 1.327 1_556 S
C1585 C1601 1.429 1_556 S
C1585 H1607 0.950 . S
C1586 H1582 0.963 . S
C1586 C1594 1.565 1_554 S
C1586 C1602 1.362 1_554 S
H1587 C1595 0.950 . S
H1588 C1593 0.950 . S
H1589 C1594 0.949 . S
H1590 C1596 0.950 . S
H1591 C1597 0.950 . S
H1592 C1598 0.949 . S
C1593 H1588 0.950 . S
C1593 C1595 1.327 . S
C1593 C1599 1.429 . S
C1594 C1586 1.565 1_556 S
C1594 H1589 0.949 . S
C1594 C1600 1.368 . S
C1595 C1579 1.349 . S
C1595 H1587 0.950 . S
C1595 C1593 1.327 . S
C1596 C1584 1.349 . S
C1596 H1590 0.950 . S
C1596 C1597 1.327 . S
C1597 H1591 0.950 . S
C1597 C1596 1.327 . S
C1597 C1601 1.429 . S
C1598 C1581 1.574 . S
C1598 H1592 0.949 . S
C1598 C1602 1.368 . S
C1599 C1580 1.429 . S
C1599 C1593 1.429 . S
C1599 C1600 1.523 . S
C1600 C1581 1.368 . S
C1600 C1594 1.368 . S
C1600 C1599 1.523 . S
C1601 C1585 1.429 1_554 S
C1601 C1597 1.429 . S
C1601 C1602 1.523 1_554 S
C1602 C1586 1.362 1_556 S
C1602 C1598 1.368 . S
C1602 C1601 1.523 1_556 S
H1603 C1578 0.950 . S
H1604 C1580 0.950 . S
H1605 C1581 0.949 . S
H1606 C1583 0.953 . S
H1607 C1585 0.950 . S
C1608 C1609 1.349 . S
C1608 C1610 1.327 . S
C1608 H1633 0.950 . S
C1609 C1608 1.349 . S
C1609 C1625 1.349 . S
C1610 C1608 1.327 . S
C1610 C1629 1.429 . S
C1610 H1634 0.950 . S
C1611 C1628 1.574 1_556 S
C1611 C1630 1.368 . S
C1611 H1635 0.949 1_556 S
H1612 C1616 0.949 . S
C1613 C1614 1.349 . S
C1613 C1615 1.327 . S
C1613 H1636 0.950 . S
C1614 C1613 1.349 . S
C1614 C1626 1.349 1_554 S
C1615 C1613 1.327 . S
C1615 C1631 1.450 . S
C1615 H1637 0.950 . S
C1616 H1612 0.949 . S
C1616 C1624 1.574 . S
C1616 C1632 1.368 . S
H1617 C1625 0.950 . S
H1618 C1623 0.950 . S
H1619 C1624 0.949 . S
H1620 C1626 0.950 . S
H1621 C1627 0.950 . S
H1622 C1628 0.949 . S
C1623 H1618 0.950 . S
C1623 C1625 1.327 . S
C1623 C1629 1.429 . S
C1624 C1616 1.574 . S
C1624 H1619 0.949 . S
C1624 C1630 1.368 . S
C1625 C1609 1.349 . S
C1625 H1617 0.950 . S
C1625 C1623 1.327 . S
C1626 C1614 1.349 1_556 S
C1626 H1620 0.950 . S
C1626 C1627 1.327 . S
C1627 H1621 0.950 . S
C1627 C1626 1.327 . S
C1627 C1631 1.417 1_556 S
C1628 C1611 1.574 1_554 S
C1628 H1622 0.949 . S
C1628 C1632 1.368 1_554 S
C1629 C1610 1.429 . S
C1629 C1623 1.429 . S
C1629 C1630 1.523 . S
C1630 C1611 1.368 . S
C1630 C1624 1.368 . S
C1630 C1629 1.523 . S
C1631 C1615 1.450 . S
C1631 C1627 1.417 1_554 S
C1631 C1632 1.514 1_554 S
C1632 C1616 1.368 . S
C1632 C1628 1.368 1_556 S
C1632 C1631 1.514 1_556 S
H1633 C1608 0.950 . S
H1634 C1610 0.950 . S
H1635 C1611 0.949 1_554 S
H1636 C1613 0.950 . S
H1637 C1615 0.950 . S
C1638 C1639 1.349 . S
C1638 C1640 1.327 . S
C1638 H1663 0.950 . S
C1639 C1638 1.349 . S
C1639 C1655 1.349 . S
C1640 C1638 1.327 . S
C1640 C1659 1.429 . S
C1640 H1664 0.950 . S
C1641 C1658 1.574 . S
C1641 C1660 1.368 . S
C1641 H1665 0.949 . S
H1642 C1646 0.949 . S
C1643 C1644 1.349 . S
C1643 C1645 1.327 . S
C1643 H1666 0.950 . S
C1644 C1643 1.349 . S
C1644 C1656 1.349 . S
C1645 C1643 1.327 . S
C1645 C1661 1.429 . S
C1645 H1667 0.950 . S
C1646 H1642 0.949 . S
C1646 C1654 1.574 . S
C1646 C1662 1.368 . S
H1647 C1655 0.950 . S
H1648 C1653 0.950 . S
H1649 C1654 0.949 . S
H1650 C1656 0.950 . S
H1651 C1657 0.950 . S
H1652 C1658 0.949 . S
C1653 H1648 0.950 . S
C1653 C1655 1.327 . S
C1653 C1659 1.429 . S
C1654 C1646 1.574 . S
C1654 H1649 0.949 . S
C1654 C1660 1.368 . S
C1655 C1639 1.349 . S
C1655 H1647 0.950 . S
C1655 C1653 1.327 . S
C1656 C1644 1.349 . S
C1656 H1650 0.950 . S
C1656 C1657 1.327 . S
C1657 H1651 0.950 . S
C1657 C1656 1.327 . S
C1657 C1661 1.429 . S
C1658 C1641 1.574 . S
C1658 H1652 0.949 . S
C1658 C1662 1.368 . S
C1659 C1640 1.429 . S
C1659 C1653 1.429 . S
C1659 C1660 1.523 . S
C1660 C1641 1.368 . S
C1660 C1654 1.368 . S
C1660 C1659 1.523 . S
C1661 C1645 1.429 . S
C1661 C1657 1.429 . S
C1661 C1662 1.523 . S
C1662 C1646 1.368 . S
C1662 C1658 1.368 . S
C1662 C1661 1.523 . S
H1663 C1638 0.950 . S
H1664 C1640 0.950 . S
H1665 C1641 0.949 . S
H1666 C1643 0.950 . S
H1667 C1645 0.950 . S
C1668 C1669 1.349 . S
C1668 C1670 1.327 . S
C1668 H1693 0.950 . S
C1669 C1668 1.349 . S
C1669 C1685 1.349 . S
C1670 C1668 1.327 . S
C1670 C1689 1.429 . S
C1670 H1694 0.950 . S
C1671 C1688 1.574 . S
C1671 C1690 1.368 . S
C1671 H1695 0.949 . S
H1672 C1676 0.949 . S
C1673 C1674 1.349 . S
C1673 C1675 1.327 . S
C1673 H1696 0.950 . S
C1674 C1673 1.349 . S
C1674 C1686 1.349 . S
C1675 C1673 1.327 . S
C1675 C1691 1.429 . S
C1675 H1697 0.950 . S
C1676 H1672 0.949 . S
C1676 C1684 1.574 . S
C1676 C1692 1.368 . S
H1677 C1685 0.950 . S
H1678 C1683 0.950 . S
H1679 C1684 0.949 . S
H1680 C1686 0.950 . S
H1681 C1687 0.950 . S
H1682 C1688 0.949 . S
C1683 H1678 0.950 . S
C1683 C1685 1.327 . S
C1683 C1689 1.429 . S
C1684 C1676 1.574 . S
C1684 H1679 0.949 . S
C1684 C1690 1.368 . S
C1685 C1669 1.349 . S
C1685 H1677 0.950 . S
C1685 C1683 1.327 . S
C1686 C1674 1.349 . S
C1686 H1680 0.950 . S
C1686 C1687 1.327 . S
C1687 H1681 0.950 . S
C1687 C1686 1.327 . S
C1687 C1691 1.429 . S
C1688 C1671 1.574 . S
C1688 H1682 0.949 . S
C1688 C1692 1.368 . S
C1689 C1670 1.429 . S
C1689 C1683 1.429 . S
C1689 C1690 1.523 . S
C1690 C1671 1.368 . S
C1690 C1684 1.368 . S
C1690 C1689 1.523 . S
C1691 C1675 1.429 . S
C1691 C1687 1.429 . S
C1691 C1692 1.523 . S
C1692 C1676 1.368 . S
C1692 C1688 1.368 . S
C1692 C1691 1.523 . S
H1693 C1668 0.950 . S
H1694 C1670 0.950 . S
H1695 C1671 0.949 . S
H1696 C1673 0.950 . S
H1697 C1675 0.950 . S
C1698 C1699 1.349 . S
C1698 C1700 1.327 . S
C1698 H1723 0.950 . S
C1699 C1698 1.349 . S
C1699 C1715 1.349 . S
C1700 C1698 1.327 . S
C1700 C1719 1.429 . S
C1700 H1724 0.950 . S
C1701 C1718 1.574 . S
C1701 C1720 1.368 . S
C1701 H1725 0.949 . S
H1702 C1706 0.949 . S
C1703 C1704 1.349 . S
C1703 C1705 1.327 . S
C1703 H1726 0.950 . S
C1704 C1703 1.349 . S
C1704 C1716 1.349 . S
C1705 C1703 1.327 . S
C1705 C1721 1.429 . S
C1705 H1727 0.950 . S
C1706 H1702 0.949 . S
C1706 C1714 1.574 . S
C1706 C1722 1.368 . S
H1707 C1715 0.950 . S
H1708 C1713 0.950 . S
H1709 C1714 0.949 . S
H1710 C1716 0.950 . S
H1711 C1717 0.950 . S
H1712 C1718 0.949 . S
C1713 H1708 0.950 . S
C1713 C1715 1.327 . S
C1713 C1719 1.429 . S
C1714 C1706 1.574 . S
C1714 H1709 0.949 . S
C1714 C1720 1.368 . S
C1715 C1699 1.349 . S
C1715 H1707 0.950 . S
C1715 C1713 1.327 . S
C1716 C1704 1.349 . S
C1716 H1710 0.950 . S
C1716 C1717 1.327 . S
C1717 H1711 0.950 . S
C1717 C1716 1.327 . S
C1717 C1721 1.429 . S
C1718 C1701 1.574 . S
C1718 H1712 0.949 . S
C1718 C1722 1.368 . S
C1719 C1700 1.429 . S
C1719 C1713 1.429 . S
C1719 C1720 1.523 . S
C1720 C1701 1.368 . S
C1720 C1714 1.368 . S
C1720 C1719 1.523 . S
C1721 C1705 1.429 . S
C1721 C1717 1.429 . S
C1721 C1722 1.523 . S
C1722 C1706 1.368 . S
C1722 C1718 1.368 . S
C1722 C1721 1.523 . S
H1723 C1698 0.950 . S
H1724 C1700 0.950 . S
H1725 C1701 0.949 . S
H1726 C1703 0.950 . S
H1727 C1705 0.950 . S
C1728 C1729 1.349 . S
C1728 C1730 1.327 . S
C1728 H1753 0.950 . S
C1729 C1728 1.349 . S
C1729 C1745 1.349 . S
C1730 C1728 1.327 . S
C1730 C1749 1.429 . S
C1730 H1754 0.950 . S
C1731 C1748 1.574 . S
C1731 C1750 1.368 . S
C1731 H1755 0.949 . S
H1732 C1736 0.949 . S
C1733 C1734 1.349 . S
C1733 C1735 1.327 . S
C1733 H1756 0.950 . S
C1734 C1733 1.349 . S
C1734 C1746 1.349 . S
C1735 C1733 1.327 . S
C1735 C1751 1.429 . S
C1735 H1757 0.950 . S
C1736 H1732 0.949 . S
C1736 C1744 1.574 . S
C1736 C1752 1.368 . S
H1737 C1745 0.950 . S
H1738 C1743 0.950 . S
H1739 C1744 0.949 . S
H1740 C1746 0.950 . S
H1741 C1747 0.950 . S
H1742 C1748 0.949 . S
C1743 H1738 0.950 . S
C1743 C1745 1.327 . S
C1743 C1749 1.429 . S
C1744 C1736 1.574 . S
C1744 H1739 0.949 . S
C1744 C1750 1.368 . S
C1745 C1729 1.349 . S
C1745 H1737 0.950 . S
C1745 C1743 1.327 . S
C1746 C1734 1.349 . S
C1746 H1740 0.950 . S
C1746 C1747 1.327 . S
C1747 H1741 0.950 . S
C1747 C1746 1.327 . S
C1747 C1751 1.429 . S
C1748 C1731 1.574 . S
C1748 H1742 0.949 . S
C1748 C1752 1.368 . S
C1749 C1730 1.429 . S
C1749 C1743 1.429 . S
C1749 C1750 1.523 . S
C1750 C1731 1.368 . S
C1750 C1744 1.368 . S
C1750 C1749 1.523 . S
C1751 C1735 1.429 . S
C1751 C1747 1.429 . S
C1751 C1752 1.523 . S
C1752 C1736 1.368 . S
C1752 C1748 1.368 . S
C1752 C1751 1.523 . S
H1753 C1728 0.950 . S
H1754 C1730 0.950 . S
H1755 C1731 0.949 . S
H1756 C1733 0.950 . S
H1757 C1735 0.950 . S
C1758 C1759 1.349 . S
C1758 C1760 1.327 . S
C1758 H1783 0.950 . S
C1759 C1758 1.349 . S
C1759 C1775 1.349 . S
C1760 C1758 1.327 . S
C1760 C1779 1.429 . S
C1760 H1784 0.950 . S
C1761 C1778 1.574 . S
C1761 C1780 1.368 . S
C1761 H1785 0.949 . S
H1762 C1766 0.949 . S
C1763 C1764 1.349 . S
C1763 C1765 1.327 . S
C1763 H1786 0.950 . S
C1764 C1763 1.349 . S
C1764 C1776 1.349 . S
C1765 C1763 1.327 . S
C1765 C1781 1.429 . S
C1765 H1787 0.950 . S
C1766 H1762 0.949 . S
C1766 C1774 1.574 . S
C1766 C1782 1.368 . S
H1767 C1775 0.950 . S
H1768 C1773 0.950 . S
H1769 C1774 0.949 . S
H1770 C1776 0.950 . S
H1771 C1777 0.950 . S
H1772 C1778 0.949 . S
C1773 H1768 0.950 . S
C1773 C1775 1.327 . S
C1773 C1779 1.429 . S
C1774 C1766 1.574 . S
C1774 H1769 0.949 . S
C1774 C1780 1.368 . S
C1775 C1759 1.349 . S
C1775 H1767 0.950 . S
C1775 C1773 1.327 . S
C1776 C1764 1.349 . S
C1776 H1770 0.950 . S
C1776 C1777 1.327 . S
C1777 H1771 0.950 . S
C1777 C1776 1.327 . S
C1777 C1781 1.429 . S
C1778 C1761 1.574 . S
C1778 H1772 0.949 . S
C1778 C1782 1.368 . S
C1779 C1760 1.429 . S
C1779 C1773 1.429 . S
C1779 C1780 1.523 . S
C1780 C1761 1.368 . S
C1780 C1774 1.368 . S
C1780 C1779 1.523 . S
C1781 C1765 1.429 . S
C1781 C1777 1.429 . S
C1781 C1782 1.523 . S
C1782 C1766 1.368 . S
C1782 C1778 1.368 . S
C1782 C1781 1.523 . S
H1783 C1758 0.950 . S
H1784 C1760 0.950 . S
H1785 C1761 0.949 . S
H1786 C1763 0.950 . S
H1787 C1765 0.950 . S
C1788 C1789 1.349 . S
C1788 C1790 1.327 . S
C1788 H1813 0.950 . S
C1789 C1788 1.349 . S
C1789 C1805 1.349 . S
C1790 C1788 1.327 . S
C1790 C1809 1.429 . S
C1790 H1814 0.950 . S
C1791 C1808 1.574 . S
C1791 C1810 1.368 . S
C1791 H1815 0.949 . S
H1792 C1796 0.949 . S
C1793 C1794 1.349 . S
C1793 C1795 1.327 . S
C1793 H1816 0.950 . S
C1794 C1793 1.349 . S
C1794 C1806 1.349 . S
C1795 C1793 1.327 . S
C1795 C1811 1.429 . S
C1795 H1817 0.950 . S
C1796 H1792 0.949 . S
C1796 C1804 1.574 . S
C1796 C1812 1.368 . S
H1797 C1805 0.950 . S
H1798 C1803 0.950 . S
H1799 C1804 0.949 . S
H1800 C1806 0.950 . S
H1801 C1807 0.950 . S
H1802 C1808 0.949 . S
C1803 H1798 0.950 . S
C1803 C1805 1.327 . S
C1803 C1809 1.429 . S
C1804 C1796 1.574 . S
C1804 H1799 0.949 . S
C1804 C1810 1.368 . S
C1805 C1789 1.349 . S
C1805 H1797 0.950 . S
C1805 C1803 1.327 . S
C1806 C1794 1.349 . S
C1806 H1800 0.950 . S
C1806 C1807 1.327 . S
C1807 H1801 0.950 . S
C1807 C1806 1.327 . S
C1807 C1811 1.429 . S
C1808 C1791 1.574 . S
C1808 H1802 0.949 . S
C1808 C1812 1.368 . S
C1809 C1790 1.429 . S
C1809 C1803 1.429 . S
C1809 C1810 1.523 . S
C1810 C1791 1.368 . S
C1810 C1804 1.368 . S
C1810 C1809 1.523 . S
C1811 C1795 1.429 . S
C1811 C1807 1.429 . S
C1811 C1812 1.523 . S
C1812 C1796 1.368 . S
C1812 C1808 1.368 . S
C1812 C1811 1.523 . S
H1813 C1788 0.950 . S
H1814 C1790 0.950 . S
H1815 C1791 0.949 . S
H1816 C1793 0.950 . S
H1817 C1795 0.950 . S
C1818 C1819 1.349 . S
C1818 C1820 1.327 . S
C1818 H1843 0.950 . S
C1819 C1818 1.349 . S
C1819 C1835 1.349 . S
C1820 C1818 1.327 . S
C1820 C1839 1.429 . S
C1820 H1844 0.950 . S
C1821 C1838 1.574 . S
C1821 C1840 1.368 . S
C1821 H1845 0.949 . S
H1822 C1826 0.949 . S
C1823 C1824 1.349 . S
C1823 C1825 1.327 . S
C1823 H1846 0.950 . S
C1824 C1823 1.349 . S
C1824 C1836 1.349 . S
C1825 C1823 1.327 . S
C1825 C1841 1.429 . S
C1825 H1847 0.950 . S
C1826 H1822 0.949 . S
C1826 C1834 1.574 . S
C1826 C1842 1.368 . S
H1827 C1835 0.950 . S
H1828 C1833 0.950 . S
H1829 C1834 0.949 . S
H1830 C1836 0.950 . S
H1831 C1837 0.950 . S
H1832 C1838 0.949 . S
C1833 H1828 0.950 . S
C1833 C1835 1.327 . S
C1833 C1839 1.429 . S
C1834 C1826 1.574 . S
C1834 H1829 0.949 . S
C1834 C1840 1.368 . S
C1835 C1819 1.349 . S
C1835 H1827 0.950 . S
C1835 C1833 1.327 . S
C1836 C1824 1.349 . S
C1836 H1830 0.950 . S
C1836 C1837 1.327 . S
C1837 H1831 0.950 . S
C1837 C1836 1.327 . S
C1837 C1841 1.429 . S
C1838 C1821 1.574 . S
C1838 H1832 0.949 . S
C1838 C1842 1.368 . S
C1839 C1820 1.429 . S
C1839 C1833 1.429 . S
C1839 C1840 1.523 . S
C1840 C1821 1.368 . S
C1840 C1834 1.368 . S
C1840 C1839 1.523 . S
C1841 C1825 1.429 . S
C1841 C1837 1.429 . S
C1841 C1842 1.523 . S
C1842 C1826 1.368 . S
C1842 C1838 1.368 . S
C1842 C1841 1.523 . S
H1843 C1818 0.950 . S
H1844 C1820 0.950 . S
H1845 C1821 0.949 . S
H1846 C1823 0.950 . S
H1847 C1825 0.950 . S
C1848 C1849 1.349 . S
C1848 C1850 1.327 . S
C1848 H1873 0.950 . S
C1849 C1848 1.349 . S
C1849 C1865 1.349 . S
C1850 C1848 1.327 . S
C1850 C1869 1.429 . S
C1850 H1874 0.950 . S
C1851 C1868 1.574 . S
C1851 C1870 1.368 . S
C1851 H1875 0.949 . S
H1852 C1856 0.949 . S
C1853 C1854 1.349 . S
C1853 C1855 1.327 . S
C1853 H1876 0.950 . S
C1854 C1853 1.349 . S
C1854 C1866 1.349 . S
C1855 C1853 1.327 . S
C1855 C1871 1.429 . S
C1855 H1877 0.950 . S
C1856 H1852 0.949 . S
C1856 C1864 1.574 . S
C1856 C1872 1.368 . S
H1857 C1865 0.950 . S
H1858 C1863 0.950 . S
H1859 C1864 0.949 . S
H1860 C1866 0.950 . S
H1861 C1867 0.950 . S
H1862 C1868 0.949 . S
C1863 H1858 0.950 . S
C1863 C1865 1.327 . S
C1863 C1869 1.429 . S
C1864 C1856 1.574 . S
C1864 H1859 0.949 . S
C1864 C1870 1.368 . S
C1865 C1849 1.349 . S
C1865 H1857 0.950 . S
C1865 C1863 1.327 . S
C1866 C1854 1.349 . S
C1866 H1860 0.950 . S
C1866 C1867 1.327 . S
C1867 H1861 0.950 . S
C1867 C1866 1.327 . S
C1867 C1871 1.429 . S
C1868 C1851 1.574 . S
C1868 H1862 0.949 . S
C1868 C1872 1.368 . S
C1869 C1850 1.429 . S
C1869 C1863 1.429 . S
C1869 C1870 1.523 . S
C1870 C1851 1.368 . S
C1870 C1864 1.368 . S
C1870 C1869 1.523 . S
C1871 C1855 1.429 . S
C1871 C1867 1.429 . S
C1871 C1872 1.523 . S
C1872 C1856 1.368 . S
C1872 C1868 1.368 . S
C1872 C1871 1.523 . S
H1873 C1848 0.950 . S
H1874 C1850 0.950 . S
H1875 C1851 0.949 . S
H1876 C1853 0.950 . S
H1877 C1855 0.950 . S
C1878 C1879 1.349 . S
C1878 C1880 1.327 . S
C1878 H1903 0.950 . S
C1879 C1878 1.349 . S
C1879 C1895 1.349 . S
C1880 C1878 1.327 . S
C1880 C1899 1.429 . S
C1880 H1904 0.950 . S
C1881 C1898 1.574 . S
C1881 C1900 1.368 . S
C1881 H1905 0.949 . S
H1882 C1886 0.949 . S
C1883 C1884 1.349 . S
C1883 C1885 1.327 . S
C1883 H1906 0.950 . S
C1884 C1883 1.349 . S
C1884 C1896 1.349 . S
C1885 C1883 1.327 . S
C1885 C1901 1.429 . S
C1885 H1907 0.950 . S
C1886 H1882 0.949 . S
C1886 C1894 1.574 . S
C1886 C1902 1.368 . S
H1887 C1895 0.950 . S
H1888 C1893 0.950 . S
H1889 C1894 0.949 . S
H1890 C1896 0.950 . S
H1891 C1897 0.950 . S
H1892 C1898 0.949 . S
C1893 H1888 0.950 . S
C1893 C1895 1.327 . S
C1893 C1899 1.429 . S
C1894 C1886 1.574 . S
C1894 H1889 0.949 . S
C1894 C1900 1.368 . S
C1895 C1879 1.349 . S
C1895 H1887 0.950 . S
C1895 C1893 1.327 . S
C1896 C1884 1.349 . S
C1896 H1890 0.950 . S
C1896 C1897 1.327 . S
C1897 H1891 0.950 . S
C1897 C1896 1.327 . S
C1897 C1901 1.429 . S
C1898 C1881 1.574 . S
C1898 H1892 0.949 . S
C1898 C1902 1.368 . S
C1899 C1880 1.429 . S
C1899 C1893 1.429 . S
C1899 C1900 1.523 . S
C1900 C1881 1.368 . S
C1900 C1894 1.368 . S
C1900 C1899 1.523 . S
C1901 C1885 1.429 . S
C1901 C1897 1.429 . S
C1901 C1902 1.523 . S
C1902 C1886 1.368 . S
C1902 C1898 1.368 . S
C1902 C1901 1.523 . S
H1903 C1878 0.950 . S
H1904 C1880 0.950 . S
H1905 C1881 0.949 . S
H1906 C1883 0.950 . S
H1907 C1885 0.950 . S
C1908 C1909 1.349 . S
C1908 C1910 1.327 . S
C1908 H1933 0.950 . S
C1909 C1908 1.349 . S
C1909 C1925 1.349 . S
C1910 C1908 1.327 . S
C1910 C1929 1.429 . S
C1910 H1934 0.950 . S
C1911 C1928 1.574 . S
C1911 C1930 1.368 . S
C1911 H1935 0.949 . S
H1912 C1916 0.949 . S
C1913 C1914 1.349 . S
C1913 C1915 1.327 . S
C1913 H1936 0.950 . S
C1914 C1913 1.349 . S
C1914 C1926 1.349 . S
C1915 C1913 1.327 . S
C1915 C1931 1.429 . S
C1915 H1937 0.950 . S
C1916 H1912 0.949 . S
C1916 C1924 1.574 . S
C1916 C1932 1.368 . S
H1917 C1925 0.950 . S
H1918 C1923 0.950 . S
H1919 C1924 0.949 . S
H1920 C1926 0.950 . S
H1921 C1927 0.950 . S
H1922 C1928 0.949 . S
C1923 H1918 0.950 . S
C1923 C1925 1.327 . S
C1923 C1929 1.429 . S
C1924 C1916 1.574 . S
C1924 H1919 0.949 . S
C1924 C1930 1.368 . S
C1925 C1909 1.349 . S
C1925 H1917 0.950 . S
C1925 C1923 1.327 . S
C1926 C1914 1.349 . S
C1926 H1920 0.950 . S
C1926 C1927 1.327 . S
C1927 H1921 0.950 . S
C1927 C1926 1.327 . S
C1927 C1931 1.429 . S
C1928 C1911 1.574 . S
C1928 H1922 0.949 . S
C1928 C1932 1.368 . S
C1929 C1910 1.429 . S
C1929 C1923 1.429 . S
C1929 C1930 1.523 . S
C1930 C1911 1.368 . S
C1930 C1924 1.368 . S
C1930 C1929 1.523 . S
C1931 C1915 1.429 . S
C1931 C1927 1.429 . S
C1931 C1932 1.523 . S
C1932 C1916 1.368 . S
C1932 C1928 1.368 . S
C1932 C1931 1.523 . S
H1933 C1908 0.950 . S
H1934 C1910 0.950 . S
H1935 C1911 0.949 . S
H1936 C1913 0.950 . S
H1937 C1915 0.950 . S
C1938 C1939 1.349 . S
C1938 C1940 1.327 . S
C1938 H1963 0.950 . S
C1939 C1938 1.349 . S
C1939 C1955 1.349 . S
C1940 C1938 1.327 . S
C1940 C1959 1.429 . S
C1940 H1964 0.950 . S
C1941 C1958 1.574 . S
C1941 C1960 1.368 . S
C1941 H1965 0.949 . S
H1942 C1946 0.949 . S
C1943 C1944 1.349 . S
C1943 C1945 1.327 . S
C1943 H1966 0.950 . S
C1944 C1943 1.349 . S
C1944 C1956 1.349 . S
C1945 C1943 1.327 . S
C1945 C1961 1.429 . S
C1945 H1967 0.950 . S
C1946 H1942 0.949 . S
C1946 C1954 1.574 . S
C1946 C1962 1.368 . S
H1947 C1955 0.950 . S
H1948 C1953 0.950 . S
H1949 C1954 0.949 . S
H1950 C1956 0.950 . S
H1951 C1957 0.950 . S
H1952 C1958 0.949 . S
C1953 H1948 0.950 . S
C1953 C1955 1.327 . S
C1953 C1959 1.429 . S
C1954 C1946 1.574 . S
C1954 H1949 0.949 . S
C1954 C1960 1.368 . S
C1955 C1939 1.349 . S
C1955 H1947 0.950 . S
C1955 C1953 1.327 . S
C1956 C1944 1.349 . S
C1956 H1950 0.950 . S
C1956 C1957 1.327 . S
C1957 H1951 0.950 . S
C1957 C1956 1.327 . S
C1957 C1961 1.429 . S
C1958 C1941 1.574 . S
C1958 H1952 0.949 . S
C1958 C1962 1.368 . S
C1959 C1940 1.429 . S
C1959 C1953 1.429 . S
C1959 C1960 1.523 . S
C1960 C1941 1.368 . S
C1960 C1954 1.368 . S
C1960 C1959 1.523 . S
C1961 C1945 1.429 . S
C1961 C1957 1.429 . S
C1961 C1962 1.523 . S
C1962 C1946 1.368 . S
C1962 C1958 1.368 . S
C1962 C1961 1.523 . S
H1963 C1938 0.950 . S
H1964 C1940 0.950 . S
H1965 C1941 0.949 . S
H1966 C1943 0.950 . S
H1967 C1945 0.950 . S
C1968 C1969 1.349 . S
C1968 C1970 1.327 . S
C1968 H1993 0.950 . S
C1969 C1968 1.349 . S
C1969 C1985 1.349 . S
C1970 C1968 1.327 . S
C1970 C1989 1.429 . S
C1970 H1994 0.950 . S
C1971 C1988 1.574 . S
C1971 C1990 1.368 . S
C1971 H1995 0.949 . S
H1972 C1976 0.949 . S
C1973 C1974 1.349 . S
C1973 C1975 1.327 . S
C1973 H1996 0.950 . S
C1974 C1973 1.349 . S
C1974 C1986 1.349 . S
C1975 C1973 1.327 . S
C1975 C1991 1.429 . S
C1975 H1997 0.950 . S
C1976 H1972 0.949 . S
C1976 C1984 1.574 . S
C1976 C1992 1.368 . S
H1977 C1985 0.950 . S
H1978 C1983 0.950 . S
H1979 C1984 0.949 . S
H1980 C1986 0.950 . S
H1981 C1987 0.950 . S
H1982 C1988 0.949 . S
C1983 H1978 0.950 . S
C1983 C1985 1.327 . S
C1983 C1989 1.429 . S
C1984 C1976 1.574 . S
C1984 H1979 0.949 . S
C1984 C1990 1.368 . S
C1985 C1969 1.349 . S
C1985 H1977 0.950 . S
C1985 C1983 1.327 . S
C1986 C1974 1.349 . S
C1986 H1980 0.950 . S
C1986 C1987 1.327 . S
C1987 H1981 0.950 . S
C1987 C1986 1.327 . S
C1987 C1991 1.429 . S
C1988 C1971 1.574 . S
C1988 H1982 0.949 . S
C1988 C1992 1.368 . S
C1989 C1970 1.429 . S
C1989 C1983 1.429 . S
C1989 C1990 1.523 . S
C1990 C1971 1.368 . S
C1990 C1984 1.368 . S
C1990 C1989 1.523 . S
C1991 C1975 1.429 . S
C1991 C1987 1.429 . S
C1991 C1992 1.523 . S
C1992 C1976 1.368 . S
C1992 C1988 1.368 . S
C1992 C1991 1.523 . S
H1993 C1968 0.950 . S
H1994 C1970 0.950 . S
H1995 C1971 0.949 . S
H1996 C1973 0.950 . S
H1997 C1975 0.950 . S
C1998 C1999 1.349 . S
C1998 C2000 1.327 . S
C1998 H2023 0.950 . S
C1999 C1998 1.349 . S
C1999 C2015 1.349 . S
C2000 C1998 1.327 . S
C2000 C2019 1.429 . S
C2000 H2024 0.950 . S
C2001 C2018 1.574 . S
C2001 C2020 1.368 . S
C2001 H2025 0.949 . S
H2002 C2006 0.949 . S
C2003 C2004 1.349 . S
C2003 C2005 1.327 . S
C2003 H2026 0.950 . S
C2004 C2003 1.349 . S
C2004 C2016 1.349 . S
C2005 C2003 1.327 . S
C2005 C2021 1.429 . S
C2005 H2027 0.950 . S
C2006 H2002 0.949 . S
C2006 C2014 1.574 . S
C2006 C2022 1.368 . S
H2007 C2015 0.950 . S
H2008 C2013 0.950 . S
H2009 C2014 0.949 . S
H2010 C2016 0.950 . S
H2011 C2017 0.950 . S
H2012 C2018 0.949 . S
C2013 H2008 0.950 . S
C2013 C2015 1.327 . S
C2013 C2019 1.429 . S
C2014 C2006 1.574 . S
C2014 H2009 0.949 . S
C2014 C2020 1.368 . S
C2015 C1999 1.349 . S
C2015 H2007 0.950 . S
C2015 C2013 1.327 . S
C2016 C2004 1.349 . S
C2016 H2010 0.950 . S
C2016 C2017 1.327 . S
C2017 H2011 0.950 . S
C2017 C2016 1.327 . S
C2017 C2021 1.429 . S
C2018 C2001 1.574 . S
C2018 H2012 0.949 . S
C2018 C2022 1.368 . S
C2019 C2000 1.429 . S
C2019 C2013 1.429 . S
C2019 C2020 1.523 . S
C2020 C2001 1.368 . S
C2020 C2014 1.368 . S
C2020 C2019 1.523 . S
C2021 C2005 1.429 . S
C2021 C2017 1.429 . S
C2021 C2022 1.523 . S
C2022 C2006 1.368 . S
C2022 C2018 1.368 . S
C2022 C2021 1.523 . S
H2023 C1998 0.950 . S
H2024 C2000 0.950 . S
H2025 C2001 0.949 . S
H2026 C2003 0.950 . S
H2027 C2005 0.950 . S
C2028 C2029 1.349 . S
C2028 C2030 1.327 . S
C2028 H2053 0.950 . S
C2029 C2028 1.349 . S
C2029 C2045 1.349 . S
C2030 C2028 1.327 . S
C2030 C2049 1.429 . S
C2030 H2054 0.950 . S
C2031 C2048 1.574 . S
C2031 C2050 1.368 . S
C2031 H2055 0.949 . S
H2032 C2036 0.949 . S
C2033 C2034 1.349 . S
C2033 C2035 1.327 . S
C2033 H2056 0.950 . S
C2034 C2033 1.349 . S
C2034 C2046 1.349 . S
C2035 C2033 1.327 . S
C2035 C2051 1.429 . S
C2035 H2057 0.950 . S
C2036 H2032 0.949 . S
C2036 C2044 1.574 . S
C2036 C2052 1.368 . S
H2037 C2045 0.950 . S
H2038 C2043 0.950 . S
H2039 C2044 0.949 . S
H2040 C2046 0.950 . S
H2041 C2047 0.950 . S
H2042 C2048 0.949 . S
C2043 H2038 0.950 . S
C2043 C2045 1.327 . S
C2043 C2049 1.429 . S
C2044 C2036 1.574 . S
C2044 H2039 0.949 . S
C2044 C2050 1.368 . S
C2045 C2029 1.349 . S
C2045 H2037 0.950 . S
C2045 C2043 1.327 . S
C2046 C2034 1.349 . S
C2046 H2040 0.950 . S
C2046 C2047 1.327 . S
C2047 H2041 0.950 . S
C2047 C2046 1.327 . S
C2047 C2051 1.429 . S
C2048 C2031 1.574 . S
C2048 H2042 0.949 . S
C2048 C2052 1.368 . S
C2049 C2030 1.429 . S
C2049 C2043 1.429 . S
C2049 C2050 1.523 . S
C2050 C2031 1.368 . S
C2050 C2044 1.368 . S
C2050 C2049 1.523 . S
C2051 C2035 1.429 . S
C2051 C2047 1.429 . S
C2051 C2052 1.523 . S
C2052 C2036 1.368 . S
C2052 C2048 1.368 . S
C2052 C2051 1.523 . S
H2053 C2028 0.950 . S
H2054 C2030 0.950 . S
H2055 C2031 0.949 . S
H2056 C2033 0.950 . S
H2057 C2035 0.950 . S
C2058 C2059 1.349 . S
C2058 C2060 1.327 . S
C2058 H2083 0.950 . S
C2059 C2058 1.349 . S
C2059 C2075 1.349 . S
C2060 C2058 1.327 . S
C2060 C2079 1.429 . S
C2060 H2084 0.950 . S
C2061 C2078 1.574 . S
C2061 C2080 1.368 . S
C2061 H2085 0.949 . S
H2062 C2066 0.949 . S
C2063 C2064 1.349 . S
C2063 C2065 1.327 . S
C2063 H2086 0.950 . S
C2064 C2063 1.349 . S
C2064 C2076 1.349 . S
C2065 C2063 1.327 . S
C2065 C2081 1.429 . S
C2065 H2087 0.950 . S
C2066 H2062 0.949 . S
C2066 C2074 1.574 . S
C2066 C2082 1.368 . S
H2067 C2075 0.950 . S
H2068 C2073 0.950 . S
H2069 C2074 0.949 . S
H2070 C2076 0.950 . S
H2071 C2077 0.950 . S
H2072 C2078 0.949 . S
C2073 H2068 0.950 . S
C2073 C2075 1.327 . S
C2073 C2079 1.429 . S
C2074 C2066 1.574 . S
C2074 H2069 0.949 . S
C2074 C2080 1.368 . S
C2075 C2059 1.349 . S
C2075 H2067 0.950 . S
C2075 C2073 1.327 . S
C2076 C2064 1.349 . S
C2076 H2070 0.950 . S
C2076 C2077 1.327 . S
C2077 H2071 0.950 . S
C2077 C2076 1.327 . S
C2077 C2081 1.429 . S
C2078 C2061 1.574 . S
C2078 H2072 0.949 . S
C2078 C2082 1.368 . S
C2079 C2060 1.429 . S
C2079 C2073 1.429 . S
C2079 C2080 1.523 . S
C2080 C2061 1.368 . S
C2080 C2074 1.368 . S
C2080 C2079 1.523 . S
C2081 C2065 1.429 . S
C2081 C2077 1.429 . S
C2081 C2082 1.523 . S
C2082 C2066 1.368 . S
C2082 C2078 1.368 . S
C2082 C2081 1.523 . S
H2083 C2058 0.950 . S
H2084 C2060 0.950 . S
H2085 C2061 0.949 . S
H2086 C2063 0.950 . S
H2087 C2065 0.950 . S
C2088 C2089 1.349 . S
C2088 C2090 1.327 . S
C2088 H2113 0.950 . S
C2089 C2088 1.349 . S
C2089 C2105 1.349 . S
C2090 C2088 1.327 . S
C2090 C2109 1.429 . S
C2090 H2114 0.950 . S
C2091 C2108 1.574 . S
C2091 C2110 1.368 . S
C2091 H2115 0.949 . S
H2092 C2096 0.949 . S
C2093 C2094 1.349 . S
C2093 C2095 1.327 . S
C2093 H2116 0.950 . S
C2094 C2093 1.349 . S
C2094 C2106 1.349 . S
C2095 C2093 1.327 . S
C2095 C2111 1.429 . S
C2095 H2117 0.950 . S
C2096 H2092 0.949 . S
C2096 C2104 1.574 . S
C2096 C2112 1.368 . S
H2097 C2105 0.950 . S
H2098 C2103 0.950 . S
H2099 C2104 0.949 . S
H2100 C2106 0.950 . S
H2101 C2107 0.950 . S
H2102 C2108 0.949 . S
C2103 H2098 0.950 . S
C2103 C2105 1.327 . S
C2103 C2109 1.429 . S
C2104 C2096 1.574 . S
C2104 H2099 0.949 . S
C2104 C2110 1.368 . S
C2105 C2089 1.349 . S
C2105 H2097 0.950 . S
C2105 C2103 1.327 . S
C2106 C2094 1.349 . S
C2106 H2100 0.950 . S
C2106 C2107 1.327 . S
C2107 H2101 0.950 . S
C2107 C2106 1.327 . S
C2107 C2111 1.429 . S
C2108 C2091 1.574 . S
C2108 H2102 0.949 . S
C2108 C2112 1.368 . S
C2109 C2090 1.429 . S
C2109 C2103 1.429 . S
C2109 C2110 1.523 . S
C2110 C2091 1.368 . S
C2110 C2104 1.368 . S
C2110 C2109 1.523 . S
C2111 C2095 1.429 . S
C2111 C2107 1.429 . S
C2111 C2112 1.523 . S
C2112 C2096 1.368 . S
C2112 C2108 1.368 . S
C2112 C2111 1.523 . S
H2113 C2088 0.950 . S
H2114 C2090 0.950 . S
H2115 C2091 0.949 . S
H2116 C2093 0.950 . S
H2117 C2095 0.950 . S
C2118 C2119 1.349 . S
C2118 C2120 1.327 . S
C2118 H2143 0.950 . S
C2119 C2118 1.349 . S
C2119 C2135 1.349 . S
C2120 C2118 1.327 . S
C2120 C2139 1.429 . S
C2120 H2144 0.950 . S
C2121 C2138 1.574 . S
C2121 C2140 1.368 . S
C2121 H2145 0.949 . S
H2122 C2126 0.949 . S
C2123 C2124 1.349 . S
C2123 C2125 1.327 . S
C2123 H2146 0.950 . S
C2124 C2123 1.349 . S
C2124 C2136 1.349 . S
C2125 C2123 1.327 . S
C2125 C2141 1.429 . S
C2125 H2147 0.950 . S
C2126 H2122 0.949 . S
C2126 C2134 1.574 . S
C2126 C2142 1.368 . S
H2127 C2135 0.950 . S
H2128 C2133 0.950 . S
H2129 C2134 0.949 . S
H2130 C2136 0.950 . S
H2131 C2137 0.950 . S
H2132 C2138 0.949 . S
C2133 H2128 0.950 . S
C2133 C2135 1.327 . S
C2133 C2139 1.429 . S
C2134 C2126 1.574 . S
C2134 H2129 0.949 . S
C2134 C2140 1.368 . S
C2135 C2119 1.349 . S
C2135 H2127 0.950 . S
C2135 C2133 1.327 . S
C2136 C2124 1.349 . S
C2136 H2130 0.950 . S
C2136 C2137 1.327 . S
C2137 H2131 0.950 . S
C2137 C2136 1.327 . S
C2137 C2141 1.429 . S
C2138 C2121 1.574 . S
C2138 H2132 0.949 . S
C2138 C2142 1.368 . S
C2139 C2120 1.429 . S
C2139 C2133 1.429 . S
C2139 C2140 1.523 . S
C2140 C2121 1.368 . S
C2140 C2134 1.368 . S
C2140 C2139 1.523 . S
C2141 C2125 1.429 . S
C2141 C2137 1.429 . S
C2141 C2142 1.523 . S
C2142 C2126 1.368 . S
C2142 C2138 1.368 . S
C2142 C2141 1.523 . S
H2143 C2118 0.950 . S
H2144 C2120 0.950 . S
H2145 C2121 0.949 . S
H2146 C2123 0.950 . S
H2147 C2125 0.950 . S
C2148 C2149 1.349 . S
C2148 C2150 1.327 . S
C2148 H2173 0.950 . S
C2149 C2148 1.349 . S
C2149 C2165 1.349 . S
C2150 C2148 1.327 . S
C2150 C2169 1.429 . S
C2150 H2174 0.950 . S
C2151 C2168 1.574 . S
C2151 C2170 1.368 . S
C2151 H2175 0.949 . S
H2152 C2156 0.949 . S
C2153 C2154 1.349 . S
C2153 C2155 1.327 . S
C2153 H2176 0.950 . S
C2154 C2153 1.349 . S
C2154 C2166 1.349 . S
C2155 C2153 1.327 . S
C2155 C2171 1.429 . S
C2155 H2177 0.950 . S
C2156 H2152 0.949 . S
C2156 C2164 1.574 . S
C2156 C2172 1.368 . S
H2157 C2165 0.950 . S
H2158 C2163 0.950 . S
H2159 C2164 0.949 . S
H2160 C2166 0.950 . S
H2161 C2167 0.950 . S
H2162 C2168 0.949 . S
C2163 H2158 0.950 . S
C2163 C2165 1.327 . S
C2163 C2169 1.429 . S
C2164 C2156 1.574 . S
C2164 H2159 0.949 . S
C2164 C2170 1.368 . S
C2165 C2149 1.349 . S
C2165 H2157 0.950 . S
C2165 C2163 1.327 . S
C2166 C2154 1.349 . S
C2166 H2160 0.950 . S
C2166 C2167 1.327 . S
C2167 H2161 0.950 . S
C2167 C2166 1.327 . S
C2167 C2171 1.429 . S
C2168 C2151 1.574 . S
C2168 H2162 0.949 . S
C2168 C2172 1.368 . S
C2169 C2150 1.429 . S
C2169 C2163 1.429 . S
C2169 C2170 1.523 . S
C2170 C2151 1.368 . S
C2170 C2164 1.368 . S
C2170 C2169 1.523 . S
C2171 C2155 1.429 . S
C2171 C2167 1.429 . S
C2171 C2172 1.523 . S
C2172 C2156 1.368 . S
C2172 C2168 1.368 . S
C2172 C2171 1.523 . S
H2173 C2148 0.950 . S
H2174 C2150 0.950 . S
H2175 C2151 0.949 . S
H2176 C2153 0.950 . S
H2177 C2155 0.950 . S
C2178 C2179 1.349 . S
C2178 C2180 1.327 . S
C2178 H2203 0.950 . S
C2179 C2178 1.349 . S
C2179 C2195 1.349 . S
C2180 C2178 1.327 . S
C2180 C2199 1.429 . S
C2180 H2204 0.950 . S
C2181 C2198 1.574 . S
C2181 C2200 1.368 . S
C2181 H2205 0.949 . S
H2182 C2186 0.949 . S
C2183 C2184 1.349 . S
C2183 C2185 1.327 . S
C2183 H2206 0.950 . S
C2184 C2183 1.349 . S
C2184 C2196 1.349 . S
C2185 C2183 1.327 . S
C2185 C2201 1.429 . S
C2185 H2207 0.950 . S
C2186 H2182 0.949 . S
C2186 C2194 1.574 . S
C2186 C2202 1.368 . S
H2187 C2195 0.950 . S
H2188 C2193 0.950 . S
H2189 C2194 0.949 . S
H2190 C2196 0.950 . S
H2191 C2197 0.950 . S
H2192 C2198 0.949 . S
C2193 H2188 0.950 . S
C2193 C2195 1.327 . S
C2193 C2199 1.429 . S
C2194 C2186 1.574 . S
C2194 H2189 0.949 . S
C2194 C2200 1.368 . S
C2195 C2179 1.349 . S
C2195 H2187 0.950 . S
C2195 C2193 1.327 . S
C2196 C2184 1.349 . S
C2196 H2190 0.950 . S
C2196 C2197 1.327 . S
C2197 H2191 0.950 . S
C2197 C2196 1.327 . S
C2197 C2201 1.429 . S
C2198 C2181 1.574 . S
C2198 H2192 0.949 . S
C2198 C2202 1.368 . S
C2199 C2180 1.429 . S
C2199 C2193 1.429 . S
C2199 C2200 1.523 . S
C2200 C2181 1.368 . S
C2200 C2194 1.368 . S
C2200 C2199 1.523 . S
C2201 C2185 1.429 . S
C2201 C2197 1.429 . S
C2201 C2202 1.523 . S
C2202 C2186 1.368 . S
C2202 C2198 1.368 . S
C2202 C2201 1.523 . S
H2203 C2178 0.950 . S
H2204 C2180 0.950 . S
H2205 C2181 0.949 . S
H2206 C2183 0.950 . S
H2207 C2185 0.950 . S
C2208 C2209 1.349 . S
C2208 C2210 1.327 . S
C2208 H2233 0.950 . S
C2209 C2208 1.349 . S
C2209 C2225 1.349 . S
C2210 C2208 1.327 . S
C2210 C2229 1.429 . S
C2210 H2234 0.950 . S
C2211 C2228 1.574 . S
C2211 C2230 1.368 . S
C2211 H2235 0.949 . S
H2212 C2216 0.949 . S
C2213 C2214 1.349 . S
C2213 C2215 1.327 . S
C2213 H2236 0.950 . S
C2214 C2213 1.349 . S
C2214 C2226 1.349 . S
C2215 C2213 1.327 . S
C2215 C2231 1.429 . S
C2215 H2237 0.950 . S
C2216 H2212 0.949 . S
C2216 C2224 1.574 . S
C2216 C2232 1.368 . S
H2217 C2225 0.950 . S
H2218 C2223 0.950 . S
H2219 C2224 0.949 . S
H2220 C2226 0.950 . S
H2221 C2227 0.950 . S
H2222 C2228 0.949 . S
C2223 H2218 0.950 . S
C2223 C2225 1.327 . S
C2223 C2229 1.429 . S
C2224 C2216 1.574 . S
C2224 H2219 0.949 . S
C2224 C2230 1.368 . S
C2225 C2209 1.349 . S
C2225 H2217 0.950 . S
C2225 C2223 1.327 . S
C2226 C2214 1.349 . S
C2226 H2220 0.950 . S
C2226 C2227 1.327 . S
C2227 H2221 0.950 . S
C2227 C2226 1.327 . S
C2227 C2231 1.429 . S
C2228 C2211 1.574 . S
C2228 H2222 0.949 . S
C2228 C2232 1.368 . S
C2229 C2210 1.429 . S
C2229 C2223 1.429 . S
C2229 C2230 1.523 . S
C2230 C2211 1.368 . S
C2230 C2224 1.368 . S
C2230 C2229 1.523 . S
C2231 C2215 1.429 . S
C2231 C2227 1.429 . S
C2231 C2232 1.523 . S
C2232 C2216 1.368 . S
C2232 C2228 1.368 . S
C2232 C2231 1.523 . S
H2233 C2208 0.950 . S
H2234 C2210 0.950 . S
H2235 C2211 0.949 . S
H2236 C2213 0.950 . S
H2237 C2215 0.950 . S
C2238 C2239 1.349 . S
C2238 C2240 1.327 . S
C2238 H2263 0.950 . S
C2239 C2238 1.349 . S
C2239 C2255 1.349 . S
C2240 C2238 1.327 . S
C2240 C2259 1.429 . S
C2240 H2264 0.950 . S
C2241 C2258 1.574 . S
C2241 C2260 1.368 . S
C2241 H2265 0.949 . S
H2242 C2246 0.949 . S
C2243 C2244 1.349 . S
C2243 C2245 1.327 . S
C2243 H2266 0.950 . S
C2244 C2243 1.349 . S
C2244 C2256 1.349 . S
C2245 C2243 1.327 . S
C2245 C2261 1.429 . S
C2245 H2267 0.950 . S
C2246 H2242 0.949 . S
C2246 C2254 1.574 . S
C2246 C2262 1.368 . S
H2247 C2255 0.950 . S
H2248 C2253 0.950 . S
H2249 C2254 0.949 . S
H2250 C2256 0.950 . S
H2251 C2257 0.950 . S
H2252 C2258 0.949 . S
C2253 H2248 0.950 . S
C2253 C2255 1.327 . S
C2253 C2259 1.429 . S
C2254 C2246 1.574 . S
C2254 H2249 0.949 . S
C2254 C2260 1.368 . S
C2255 C2239 1.349 . S
C2255 H2247 0.950 . S
C2255 C2253 1.327 . S
C2256 C2244 1.349 . S
C2256 H2250 0.950 . S
C2256 C2257 1.327 . S
C2257 H2251 0.950 . S
C2257 C2256 1.327 . S
C2257 C2261 1.429 . S
C2258 C2241 1.574 . S
C2258 H2252 0.949 . S
C2258 C2262 1.368 . S
C2259 C2240 1.429 . S
C2259 C2253 1.429 . S
C2259 C2260 1.523 . S
C2260 C2241 1.368 . S
C2260 C2254 1.368 . S
C2260 C2259 1.523 . S
C2261 C2245 1.429 . S
C2261 C2257 1.429 . S
C2261 C2262 1.523 . S
C2262 C2246 1.368 . S
C2262 C2258 1.368 . S
C2262 C2261 1.523 . S
H2263 C2238 0.950 . S
H2264 C2240 0.950 . S
H2265 C2241 0.949 . S
H2266 C2243 0.950 . S
H2267 C2245 0.950 . S
C2268 C2269 1.349 . S
C2268 C2270 1.327 . S
C2268 H2293 0.950 . S
C2269 C2268 1.349 . S
C2269 C2285 1.349 . S
C2270 C2268 1.327 . S
C2270 C2289 1.429 . S
C2270 H2294 0.950 . S
C2271 C2288 1.574 . S
C2271 C2290 1.368 . S
C2271 H2295 0.949 . S
H2272 C2276 0.949 . S
C2273 C2274 1.349 . S
C2273 C2275 1.327 . S
C2273 H2296 0.950 . S
C2274 C2273 1.349 . S
C2274 C2286 1.349 . S
C2275 C2273 1.327 . S
C2275 C2291 1.429 . S
C2275 H2297 0.950 . S
C2276 H2272 0.949 . S
C2276 C2284 1.574 . S
C2276 C2292 1.368 . S
H2277 C2285 0.950 . S
H2278 C2283 0.950 . S
H2279 C2284 0.949 . S
H2280 C2286 0.950 . S
H2281 C2287 0.950 . S
H2282 C2288 0.949 . S
C2283 H2278 0.950 . S
C2283 C2285 1.327 . S
C2283 C2289 1.429 . S
C2284 C2276 1.574 . S
C2284 H2279 0.949 . S
C2284 C2290 1.368 . S
C2285 C2269 1.349 . S
C2285 H2277 0.950 . S
C2285 C2283 1.327 . S
C2286 C2274 1.349 . S
C2286 H2280 0.950 . S
C2286 C2287 1.327 . S
C2287 H2281 0.950 . S
C2287 C2286 1.327 . S
C2287 C2291 1.429 . S
C2288 C2271 1.574 . S
C2288 H2282 0.949 . S
C2288 C2292 1.368 . S
C2289 C2270 1.429 . S
C2289 C2283 1.429 . S
C2289 C2290 1.523 . S
C2290 C2271 1.368 . S
C2290 C2284 1.368 . S
C2290 C2289 1.523 . S
C2291 C2275 1.429 . S
C2291 C2287 1.429 . S
C2291 C2292 1.523 . S
C2292 C2276 1.368 . S
C2292 C2288 1.368 . S
C2292 C2291 1.523 . S
H2293 C2268 0.950 . S
H2294 C2270 0.950 . S
H2295 C2271 0.949 . S
H2296 C2273 0.950 . S
H2297 C2275 0.950 . S
C2298 C2299 1.349 . S
C2298 C2300 1.327 . S
C2298 H2323 0.950 . S
C2299 C2298 1.349 . S
C2299 C2315 1.349 . S
C2300 C2298 1.327 . S
C2300 C2319 1.429 . S
C2300 H2324 0.950 . S
C2301 C2318 1.574 . S
C2301 C2320 1.368 . S
C2301 H2325 0.949 . S
H2302 C2306 0.949 . S
C2303 C2304 1.349 . S
C2303 C2305 1.327 . S
C2303 H2326 0.950 . S
C2304 C2303 1.349 . S
C2304 C2316 1.349 . S
C2305 C2303 1.327 . S
C2305 C2321 1.429 . S
C2305 H2327 0.950 . S
C2306 H2302 0.949 . S
C2306 C2314 1.574 . S
C2306 C2322 1.368 . S
H2307 C2315 0.950 . S
H2308 C2313 0.950 . S
H2309 C2314 0.949 . S
H2310 C2316 0.950 . S
H2311 C2317 0.950 . S
H2312 C2318 0.949 . S
C2313 H2308 0.950 . S
C2313 C2315 1.327 . S
C2313 C2319 1.429 . S
C2314 C2306 1.574 . S
C2314 H2309 0.949 . S
C2314 C2320 1.368 . S
C2315 C2299 1.349 . S
C2315 H2307 0.950 . S
C2315 C2313 1.327 . S
C2316 C2304 1.349 . S
C2316 H2310 0.950 . S
C2316 C2317 1.327 . S
C2317 H2311 0.950 . S
C2317 C2316 1.327 . S
C2317 C2321 1.429 . S
C2318 C2301 1.574 . S
C2318 H2312 0.949 . S
C2318 C2322 1.368 . S
C2319 C2300 1.429 . S
C2319 C2313 1.429 . S
C2319 C2320 1.523 . S
C2320 C2301 1.368 . S
C2320 C2314 1.368 . S
C2320 C2319 1.523 . S
C2321 C2305 1.429 . S
C2321 C2317 1.429 . S
C2321 C2322 1.523 . S
C2322 C2306 1.368 . S
C2322 C2318 1.368 . S
C2322 C2321 1.523 . S
H2323 C2298 0.950 . S
H2324 C2300 0.950 . S
H2325 C2301 0.949 . S
H2326 C2303 0.950 . S
H2327 C2305 0.950 . S
C2328 C2329 1.349 . S
C2328 C2330 1.327 . S
C2328 H2353 0.950 . S
C2329 C2328 1.349 . S
C2329 C2345 1.349 . S
C2330 C2328 1.327 . S
C2330 C2349 1.429 . S
C2330 H2354 0.950 . S
C2331 C2348 1.574 . S
C2331 C2350 1.368 . S
C2331 H2355 0.949 . S
H2332 C2336 0.949 . S
C2333 C2334 1.349 . S
C2333 C2335 1.327 . S
C2333 H2356 0.950 . S
C2334 C2333 1.349 . S
C2334 C2346 1.349 . S
C2335 C2333 1.327 . S
C2335 C2351 1.429 . S
C2335 H2357 0.950 . S
C2336 H2332 0.949 . S
C2336 C2344 1.574 . S
C2336 C2352 1.368 . S
H2337 C2345 0.950 . S
H2338 C2343 0.950 . S
H2339 C2344 0.949 . S
H2340 C2346 0.950 . S
H2341 C2347 0.950 . S
H2342 C2348 0.949 . S
C2343 H2338 0.950 . S
C2343 C2345 1.327 . S
C2343 C2349 1.429 . S
C2344 C2336 1.574 . S
C2344 H2339 0.949 . S
C2344 C2350 1.368 . S
C2345 C2329 1.349 . S
C2345 H2337 0.950 . S
C2345 C2343 1.327 . S
C2346 C2334 1.349 . S
C2346 H2340 0.950 . S
C2346 C2347 1.327 . S
C2347 H2341 0.950 . S
C2347 C2346 1.327 . S
C2347 C2351 1.429 . S
C2348 C2331 1.574 . S
C2348 H2342 0.949 . S
C2348 C2352 1.368 . S
C2349 C2330 1.429 . S
C2349 C2343 1.429 . S
C2349 C2350 1.523 . S
C2350 C2331 1.368 . S
C2350 C2344 1.368 . S
C2350 C2349 1.523 . S
C2351 C2335 1.429 . S
C2351 C2347 1.429 . S
C2351 C2352 1.523 . S
C2352 C2336 1.368 . S
C2352 C2348 1.368 . S
C2352 C2351 1.523 . S
H2353 C2328 0.950 . S
H2354 C2330 0.950 . S
H2355 C2331 0.949 . S
H2356 C2333 0.950 . S
H2357 C2335 0.950 . S
C2358 C2359 1.349 . S
C2358 C2360 1.327 . S
C2358 H2383 0.950 . S
C2359 C2358 1.349 . S
C2359 C2375 1.349 . S
C2360 C2358 1.327 . S
C2360 C2379 1.429 . S
C2360 H2384 0.950 . S
C2361 C2378 1.574 . S
C2361 C2380 1.368 . S
C2361 H2385 0.949 . S
H2362 C2366 0.949 . S
C2363 C2364 1.349 . S
C2363 C2365 1.327 . S
C2363 H2386 0.950 . S
C2364 C2363 1.349 . S
C2364 C2376 1.349 . S
C2365 C2363 1.327 . S
C2365 C2381 1.429 . S
C2365 H2387 0.950 . S
C2366 H2362 0.949 . S
C2366 C2374 1.574 . S
C2366 C2382 1.368 . S
H2367 C2375 0.950 . S
H2368 C2373 0.950 . S
H2369 C2374 0.949 . S
H2370 C2376 0.950 . S
H2371 C2377 0.950 . S
H2372 C2378 0.949 . S
C2373 H2368 0.950 . S
C2373 C2375 1.327 . S
C2373 C2379 1.429 . S
C2374 C2366 1.574 . S
C2374 H2369 0.949 . S
C2374 C2380 1.368 . S
C2375 C2359 1.349 . S
C2375 H2367 0.950 . S
C2375 C2373 1.327 . S
C2376 C2364 1.349 . S
C2376 H2370 0.950 . S
C2376 C2377 1.327 . S
C2377 H2371 0.950 . S
C2377 C2376 1.327 . S
C2377 C2381 1.429 . S
C2378 C2361 1.574 . S
C2378 H2372 0.949 . S
C2378 C2382 1.368 . S
C2379 C2360 1.429 . S
C2379 C2373 1.429 . S
C2379 C2380 1.523 . S
C2380 C2361 1.368 . S
C2380 C2374 1.368 . S
C2380 C2379 1.523 . S
C2381 C2365 1.429 . S
C2381 C2377 1.429 . S
C2381 C2382 1.523 . S
C2382 C2366 1.368 . S
C2382 C2378 1.368 . S
C2382 C2381 1.523 . S
H2383 C2358 0.950 . S
H2384 C2360 0.950 . S
H2385 C2361 0.949 . S
H2386 C2363 0.950 . S
H2387 C2365 0.950 . S
C2388 C2389 1.349 . S
C2388 C2390 1.327 . S
C2388 H2413 0.950 . S
C2389 C2388 1.349 . S
C2389 C2405 1.349 . S
C2390 C2388 1.327 . S
C2390 C2409 1.429 . S
C2390 H2414 0.950 . S
C2391 C2408 1.574 . S
C2391 C2410 1.368 . S
C2391 H2415 0.949 . S
H2392 C2396 0.949 . S
C2393 C2394 1.349 . S
C2393 C2395 1.327 . S
C2393 H2416 0.950 . S
C2394 C2393 1.349 . S
C2394 C2406 1.349 . S
C2395 C2393 1.327 . S
C2395 C2411 1.429 . S
C2395 H2417 0.950 . S
C2396 H2392 0.949 . S
C2396 C2404 1.574 . S
C2396 C2412 1.368 . S
H2397 C2405 0.950 . S
H2398 C2403 0.950 . S
H2399 C2404 0.949 . S
H2400 C2406 0.950 . S
H2401 C2407 0.950 . S
H2402 C2408 0.949 . S
C2403 H2398 0.950 . S
C2403 C2405 1.327 . S
C2403 C2409 1.429 . S
C2404 C2396 1.574 . S
C2404 H2399 0.949 . S
C2404 C2410 1.368 . S
C2405 C2389 1.349 . S
C2405 H2397 0.950 . S
C2405 C2403 1.327 . S
C2406 C2394 1.349 . S
C2406 H2400 0.950 . S
C2406 C2407 1.327 . S
C2407 H2401 0.950 . S
C2407 C2406 1.327 . S
C2407 C2411 1.429 . S
C2408 C2391 1.574 . S
C2408 H2402 0.949 . S
C2408 C2412 1.368 . S
C2409 C2390 1.429 . S
C2409 C2403 1.429 . S
C2409 C2410 1.523 . S
C2410 C2391 1.368 . S
C2410 C2404 1.368 . S
C2410 C2409 1.523 . S
C2411 C2395 1.429 . S
C2411 C2407 1.429 . S
C2411 C2412 1.523 . S
C2412 C2396 1.368 . S
C2412 C2408 1.368 . S
C2412 C2411 1.523 . S
H2413 C2388 0.950 . S
H2414 C2390 0.950 . S
H2415 C2391 0.949 . S
H2416 C2393 0.950 . S
H2417 C2395 0.950 . S
C2418 C2419 1.349 . S
C2418 C2420 1.327 . S
C2418 H2443 0.950 . S
C2419 C2418 1.349 . S
C2419 C2435 1.349 . S
C2420 C2418 1.327 . S
C2420 C2439 1.429 . S
C2420 H2444 0.950 . S
C2421 C2438 1.574 . S
C2421 C2440 1.368 . S
C2421 H2445 0.949 . S
H2422 C2426 0.949 . S
C2423 C2424 1.349 . S
C2423 C2425 1.327 . S
C2423 H2446 0.950 . S
C2424 C2423 1.349 . S
C2424 C2436 1.349 . S
C2425 C2423 1.327 . S
C2425 C2441 1.429 . S
C2425 H2447 0.950 . S
C2426 H2422 0.949 . S
C2426 C2434 1.574 . S
C2426 C2442 1.368 . S
H2427 C2435 0.950 . S
H2428 C2433 0.950 . S
H2429 C2434 0.949 . S
H2430 C2436 0.950 . S
H2431 C2437 0.950 . S
H2432 C2438 0.949 . S
C2433 H2428 0.950 . S
C2433 C2435 1.327 . S
C2433 C2439 1.429 . S
C2434 C2426 1.574 . S
C2434 H2429 0.949 . S
C2434 C2440 1.368 . S
C2435 C2419 1.349 . S
C2435 H2427 0.950 . S
C2435 C2433 1.327 . S
C2436 C2424 1.349 . S
C2436 H2430 0.950 . S
C2436 C2437 1.327 . S
C2437 H2431 0.950 . S
C2437 C2436 1.327 . S
C2437 C2441 1.429 . S
C2438 C2421 1.574 . S
C2438 H2432 0.949 . S
C2438 C2442 1.368 . S
C2439 C2420 1.429 . S
C2439 C2433 1.429 . S
C2439 C2440 1.523 . S
C2440 C2421 1.368 . S
C2440 C2434 1.368 . S
C2440 C2439 1.523 . S
C2441 C2425 1.429 . S
C2441 C2437 1.429 . S
C2441 C2442 1.523 . S
C2442 C2426 1.368 . S
C2442 C2438 1.368 . S
C2442 C2441 1.523 . S
H2443 C2418 0.950 . S
H2444 C2420 0.950 . S
H2445 C2421 0.949 . S
H2446 C2423 0.950 . S
H2447 C2425 0.950 . S
C2448 C2449 1.349 . S
C2448 C2450 1.327 . S
C2448 H2473 0.950 . S
C2449 C2448 1.349 . S
C2449 C2465 1.349 . S
C2450 C2448 1.327 . S
C2450 C2469 1.429 . S
C2450 H2474 0.950 . S
C2451 C2468 1.574 . S
C2451 C2470 1.368 . S
C2451 H2475 0.949 . S
H2452 C2456 0.949 . S
C2453 C2454 1.349 . S
C2453 C2455 1.327 . S
C2453 H2476 0.950 . S
C2454 C2453 1.349 . S
C2454 C2466 1.349 . S
C2455 C2453 1.327 . S
C2455 C2471 1.429 . S
C2455 H2477 0.950 . S
C2456 H2452 0.949 . S
C2456 C2464 1.574 . S
C2456 C2472 1.368 . S
H2457 C2465 0.950 . S
H2458 C2463 0.950 . S
H2459 C2464 0.949 . S
H2460 C2466 0.950 . S
H2461 C2467 0.950 . S
H2462 C2468 0.949 . S
C2463 H2458 0.950 . S
C2463 C2465 1.327 . S
C2463 C2469 1.429 . S
C2464 C2456 1.574 . S
C2464 H2459 0.949 . S
C2464 C2470 1.368 . S
C2465 C2449 1.349 . S
C2465 H2457 0.950 . S
C2465 C2463 1.327 . S
C2466 C2454 1.349 . S
C2466 H2460 0.950 . S
C2466 C2467 1.327 . S
C2467 H2461 0.950 . S
C2467 C2466 1.327 . S
C2467 C2471 1.429 . S
C2468 C2451 1.574 . S
C2468 H2462 0.949 . S
C2468 C2472 1.368 . S
C2469 C2450 1.429 . S
C2469 C2463 1.429 . S
C2469 C2470 1.523 . S
C2470 C2451 1.368 . S
C2470 C2464 1.368 . S
C2470 C2469 1.523 . S
C2471 C2455 1.429 . S
C2471 C2467 1.429 . S
C2471 C2472 1.523 . S
C2472 C2456 1.368 . S
C2472 C2468 1.368 . S
C2472 C2471 1.523 . S
H2473 C2448 0.950 . S
H2474 C2450 0.950 . S
H2475 C2451 0.949 . S
H2476 C2453 0.950 . S
H2477 C2455 0.950 . S
C2478 C2479 1.349 . S
C2478 C2480 1.327 . S
C2478 H2503 0.950 . S
C2479 C2478 1.349 . S
C2479 C2495 1.349 . S
C2480 C2478 1.327 . S
C2480 C2499 1.429 . S
C2480 H2504 0.950 . S
C2481 C2498 1.574 . S
C2481 C2500 1.368 . S
C2481 H2505 0.949 . S
H2482 C2486 0.949 . S
C2483 C2484 1.371 . S
C2483 C2485 1.326 . S
C2483 H2506 0.931 1_565 S
C2484 C2483 1.371 . S
C2484 C2496 1.349 . S
C2485 C2483 1.326 . S
C2485 C2501 1.429 . S
C2485 H2507 0.950 . S
C2486 H2482 0.949 . S
C2486 C2494 1.574 . S
C2486 C2502 1.368 . S
H2487 C2495 0.950 . S
H2488 C2493 0.950 . S
H2489 C2494 0.949 . S
H2490 C2496 0.950 . S
H2491 C2497 0.950 . S
H2492 C2498 0.949 . S
C2493 H2488 0.950 . S
C2493 C2495 1.327 . S
C2493 C2499 1.429 . S
C2494 C2486 1.574 . S
C2494 H2489 0.949 . S
C2494 C2500 1.368 . S
C2495 C2479 1.349 . S
C2495 H2487 0.950 . S
C2495 C2493 1.327 . S
C2496 C2484 1.349 . S
C2496 H2490 0.950 . S
C2496 C2497 1.327 . S
C2497 H2491 0.950 . S
C2497 C2496 1.327 . S
C2497 C2501 1.429 . S
C2498 C2481 1.574 . S
C2498 H2492 0.949 . S
C2498 C2502 1.368 . S
C2499 C2480 1.429 . S
C2499 C2493 1.429 . S
C2499 C2500 1.523 . S
C2500 C2481 1.368 . S
C2500 C2494 1.368 . S
C2500 C2499 1.523 . S
C2501 C2485 1.429 . S
C2501 C2497 1.429 . S
C2501 C2502 1.523 . S
C2502 C2486 1.368 . S
C2502 C2498 1.368 . S
C2502 C2501 1.523 . S
H2503 C2478 0.950 . S
H2504 C2480 0.950 . S
H2505 C2481 0.949 . S
H2506 C2483 0.931 1_545 S
H2507 C2485 0.950 . S
C2508 C2509 1.349 . S
C2508 C2510 1.327 . S
C2508 H2533 0.950 . S
C2509 C2508 1.349 . S
C2509 C2525 1.402 . S
C2510 C2508 1.327 . S
C2510 C2529 1.429 1_655 S
C2510 H2534 0.950 . S
C2511 C2528 1.574 . S
C2511 C2530 1.368 . S
C2511 H2535 0.949 . S
H2512 C2516 0.949 . S
C2513 C2514 1.349 . S
C2513 C2515 1.327 . S
C2513 H2536 0.950 . S
C2514 C2513 1.349 . S
C2514 C2526 1.349 . S
C2515 C2513 1.327 . S
C2515 C2531 1.429 . S
C2515 H2537 0.950 . S
C2516 H2512 0.949 . S
C2516 C2524 1.574 . S
C2516 C2532 1.368 . S
H2517 C2525 0.990 1_455 S
H2518 C2523 0.950 . S
H2519 C2524 0.949 . S
H2520 C2526 0.950 . S
H2521 C2527 0.950 . S
H2522 C2528 0.949 . S
C2523 H2518 0.950 . S
C2523 C2525 1.262 1_455 S
C2523 C2529 1.429 . S
C2524 C2516 1.574 . S
C2524 H2519 0.949 . S
C2524 C2530 1.368 . S
C2525 C2509 1.402 . S
C2525 H2517 0.990 1_655 S
C2525 C2523 1.262 1_655 S
C2526 C2514 1.349 . S
C2526 H2520 0.950 . S
C2526 C2527 1.327 . S
C2527 H2521 0.950 . S
C2527 C2526 1.327 . S
C2527 C2531 1.429 . S
C2528 C2511 1.574 . S
C2528 H2522 0.949 . S
C2528 C2532 1.368 . S
C2529 C2510 1.429 1_455 S
C2529 C2523 1.429 . S
C2529 C2530 1.523 . S
C2530 C2511 1.368 . S
C2530 C2524 1.368 . S
C2530 C2529 1.523 . S
C2531 C2515 1.429 . S
C2531 C2527 1.429 . S
C2531 C2532 1.523 . S
C2532 C2516 1.368 . S
C2532 C2528 1.368 . S
C2532 C2531 1.523 . S
H2533 C2508 0.950 . S
H2534 C2510 0.950 . S
H2535 C2511 0.949 . S
H2536 C2513 0.950 . S
H2537 C2515 0.950 . S
C2538 C2539 1.349 . S
C2538 C2540 1.327 . S
C2538 H2563 0.950 . S
C2539 C2538 1.349 . S
C2539 C2555 1.349 . S
C2540 C2538 1.327 . S
C2540 C2559 1.429 . S
C2540 H2564 0.950 . S
C2541 C2558 1.574 . S
C2541 C2560 1.368 . S
C2541 H2565 0.949 . S
H2542 C2546 0.949 . S
C2543 C2544 1.349 . S
C2543 C2545 1.327 . S
C2543 H2566 0.950 . S
C2544 C2543 1.349 . S
C2544 C2556 1.349 . S
C2545 C2543 1.327 . S
C2545 C2561 1.429 . S
C2545 H2567 0.950 . S
C2546 H2542 0.949 . S
C2546 C2554 1.574 . S
C2546 C2562 1.368 . S
H2547 C2555 0.950 . S
H2548 C2553 0.950 . S
H2549 C2554 0.949 . S
H2550 C2556 0.950 . S
H2551 C2557 0.950 . S
H2552 C2558 0.949 . S
C2553 H2548 0.950 . S
C2553 C2555 1.327 . S
C2553 C2559 1.429 . S
C2554 C2546 1.574 . S
C2554 H2549 0.949 . S
C2554 C2560 1.368 . S
C2555 C2539 1.349 . S
C2555 H2547 0.950 . S
C2555 C2553 1.327 . S
C2556 C2544 1.349 . S
C2556 H2550 0.950 . S
C2556 C2557 1.327 . S
C2557 H2551 0.950 . S
C2557 C2556 1.327 . S
C2557 C2561 1.429 . S
C2558 C2541 1.574 . S
C2558 H2552 0.949 . S
C2558 C2562 1.368 . S
C2559 C2540 1.429 . S
C2559 C2553 1.429 . S
C2559 C2560 1.523 . S
C2560 C2541 1.368 . S
C2560 C2554 1.368 . S
C2560 C2559 1.523 . S
C2561 C2545 1.429 . S
C2561 C2557 1.429 . S
C2561 C2562 1.523 . S
C2562 C2546 1.368 . S
C2562 C2558 1.368 . S
C2562 C2561 1.523 . S
H2563 C2538 0.950 . S
H2564 C2540 0.950 . S
H2565 C2541 0.949 . S
H2566 C2543 0.950 . S
H2567 C2545 0.950 . S
C2568 C2569 1.349 . S
C2568 C2570 1.327 . S
C2568 H2593 0.950 . S
C2569 C2568 1.349 . S
C2569 C2585 1.349 . S
C2570 C2568 1.327 . S
C2570 C2589 1.429 . S
C2570 H2594 0.950 . S
C2571 C2588 1.574 . S
C2571 C2590 1.368 . S
C2571 H2595 0.949 . S
H2572 C2576 0.949 . S
C2573 C2574 1.349 . S
C2573 C2575 1.327 . S
C2573 H2596 0.950 . S
C2574 C2573 1.349 . S
C2574 C2586 1.344 . S
C2575 C2573 1.327 . S
C2575 C2591 1.429 . S
C2575 H2597 0.950 . S
C2576 H2572 0.949 . S
C2576 C2584 1.574 . S
C2576 C2592 1.368 . S
H2577 C2585 0.950 . S
H2578 C2583 0.950 . S
H2579 C2584 0.949 . S
H2580 C2586 0.932 1_565 S
H2581 C2587 0.950 . S
H2582 C2588 0.949 . S
C2583 H2578 0.950 . S
C2583 C2585 1.327 . S
C2583 C2589 1.429 . S
C2584 C2576 1.574 . S
C2584 H2579 0.949 . S
C2584 C2590 1.368 . S
C2585 C2569 1.349 . S
C2585 H2577 0.950 . S
C2585 C2583 1.327 . S
C2586 C2574 1.344 . S
C2586 H2580 0.932 1_545 S
C2586 C2587 1.350 . S
C2587 H2581 0.950 . S
C2587 C2586 1.350 . S
C2587 C2591 1.429 . S
C2588 C2571 1.574 . S
C2588 H2582 0.949 . S
C2588 C2592 1.368 . S
C2589 C2570 1.429 . S
C2589 C2583 1.429 . S
C2589 C2590 1.523 . S
C2590 C2571 1.368 . S
C2590 C2584 1.368 . S
C2590 C2589 1.523 . S
C2591 C2575 1.429 . S
C2591 C2587 1.429 . S
C2591 C2592 1.523 . S
C2592 C2576 1.368 . S
C2592 C2588 1.368 . S
C2592 C2591 1.523 . S
H2593 C2568 0.950 . S
H2594 C2570 0.950 . S
H2595 C2571 0.949 . S
H2596 C2573 0.950 . S
H2597 C2575 0.950 . S
C2598 C2599 1.349 . S
C2598 C2600 1.327 1_455 S
C2598 H2623 0.951 1_455 S
C2599 C2598 1.349 . S
C2599 C2615 1.349 . S
C2600 C2598 1.327 1_655 S
C2600 C2619 1.429 . S
C2600 H2624 0.950 . S
C2601 C2618 1.574 . S
C2601 C2620 1.368 . S
C2601 H2625 0.920 1_655 S
H2602 C2606 0.949 . S
C2603 C2604 1.349 . S
C2603 C2605 1.327 . S
C2603 H2626 0.950 . S
C2604 C2603 1.349 . S
C2604 C2616 1.349 . S
C2605 C2603 1.327 . S
C2605 C2621 1.429 . S
C2605 H2627 0.950 . S
C2606 H2602 0.949 . S
C2606 C2614 1.574 . S
C2606 C2622 1.368 . S
H2607 C2615 0.950 . S
H2608 C2613 0.950 . S
H2609 C2614 0.949 . S
H2610 C2616 0.950 . S
H2611 C2617 0.950 . S
H2612 C2618 0.949 . S
C2613 H2608 0.950 . S
C2613 C2615 1.327 . S
C2613 C2619 1.429 1_455 S
C2614 C2606 1.574 . S
C2614 H2609 0.949 . S
C2614 C2620 1.368 . S
C2615 C2599 1.349 . S
C2615 H2607 0.950 . S
C2615 C2613 1.327 . S
C2616 C2604 1.349 . S
C2616 H2610 0.950 . S
C2616 C2617 1.327 . S
C2617 H2611 0.950 . S
C2617 C2616 1.327 . S
C2617 C2621 1.429 . S
C2618 C2601 1.574 . S
C2618 H2612 0.949 . S
C2618 C2622 1.368 . S
C2619 C2600 1.429 . S
C2619 C2613 1.429 1_655 S
C2619 C2620 1.523 . S
C2620 C2601 1.368 . S
C2620 C2614 1.368 . S
C2620 C2619 1.523 . S
C2621 C2605 1.429 . S
C2621 C2617 1.429 . S
C2621 C2622 1.523 . S
C2622 C2606 1.368 . S
C2622 C2618 1.368 . S
C2622 C2621 1.523 . S
H2623 C2598 0.951 1_655 S
H2624 C2600 0.950 . S
H2625 C2601 0.920 1_455 S
H2626 C2603 0.950 . S
H2627 C2605 0.950 . S
C2628 C2629 1.349 . S
C2628 C2630 1.327 . S
C2628 H2653 0.950 . S
C2629 C2628 1.349 . S
C2629 C2645 1.349 . S
C2630 C2628 1.327 . S
C2630 C2649 1.429 . S
C2630 H2654 0.950 . S
C2631 C2648 1.574 . S
C2631 C2650 1.368 . S
C2631 H2655 0.949 . S
H2632 C2636 0.949 . S
C2633 C2634 1.349 . S
C2633 C2635 1.327 . S
C2633 H2656 0.950 . S
C2634 C2633 1.349 . S
C2634 C2646 1.349 . S
C2635 C2633 1.327 . S
C2635 C2651 1.429 . S
C2635 H2657 0.950 . S
C2636 H2632 0.949 . S
C2636 C2644 1.574 . S
C2636 C2652 1.368 . S
H2637 C2645 0.950 . S
H2638 C2643 0.950 . S
H2639 C2644 0.949 . S
H2640 C2646 0.950 . S
H2641 C2647 0.950 . S
H2642 C2648 0.949 . S
C2643 H2638 0.950 . S
C2643 C2645 1.327 . S
C2643 C2649 1.429 . S
C2644 C2636 1.574 . S
C2644 H2639 0.949 . S
C2644 C2650 1.368 . S
C2645 C2629 1.349 . S
C2645 H2637 0.950 . S
C2645 C2643 1.327 . S
C2646 C2634 1.349 . S
C2646 H2640 0.950 . S
C2646 C2647 1.327 . S
C2647 H2641 0.950 . S
C2647 C2646 1.327 . S
C2647 C2651 1.429 . S
C2648 C2631 1.574 . S
C2648 H2642 0.949 . S
C2648 C2652 1.368 . S
C2649 C2630 1.429 . S
C2649 C2643 1.429 . S
C2649 C2650 1.523 . S
C2650 C2631 1.368 . S
C2650 C2644 1.368 . S
C2650 C2649 1.523 . S
C2651 C2635 1.429 . S
C2651 C2647 1.429 . S
C2651 C2652 1.523 . S
C2652 C2636 1.368 . S
C2652 C2648 1.368 . S
C2652 C2651 1.523 . S
H2653 C2628 0.950 . S
H2654 C2630 0.950 . S
H2655 C2631 0.949 . S
H2656 C2633 0.950 . S
H2657 C2635 0.950 . S
C2658 C2659 1.349 . S
C2658 C2660 1.327 1_565 S
C2658 H2683 0.950 . S
C2659 C2658 1.349 . S
C2659 C2675 1.349 . S
C2660 C2658 1.327 1_545 S
C2660 C2679 1.429 . S
C2660 H2684 0.950 . S
C2661 C2678 1.574 . S
C2661 C2680 1.368 . S
C2661 H2685 0.927 1_545 S
H2662 C2666 0.949 . S
C2663 C2664 1.349 . S
C2663 C2665 1.327 . S
C2663 H2686 0.950 . S
C2664 C2663 1.349 . S
C2664 C2676 1.349 . S
C2665 C2663 1.327 . S
C2665 C2681 1.429 . S
C2665 H2687 0.950 . S
C2666 H2662 0.949 . S
C2666 C2674 1.574 . S
C2666 C2682 1.368 . S
H2667 C2675 0.950 . S
H2668 C2673 0.950 . S
H2669 C2674 0.949 . S
H2670 C2676 0.950 . S
H2671 C2677 0.950 . S
H2672 C2678 0.949 . S
C2673 H2668 0.950 . S
C2673 C2675 1.327 . S
C2673 C2679 1.429 1_565 S
C2674 C2666 1.574 . S
C2674 H2669 0.949 . S
C2674 C2680 1.368 . S
C2675 C2659 1.349 . S
C2675 H2667 0.950 . S
C2675 C2673 1.327 . S
C2676 C2664 1.349 . S
C2676 H2670 0.950 . S
C2676 C2677 1.327 . S
C2677 H2671 0.950 . S
C2677 C2676 1.327 . S
C2677 C2681 1.429 . S
C2678 C2661 1.574 . S
C2678 H2672 0.949 . S
C2678 C2682 1.368 . S
C2679 C2660 1.429 . S
C2679 C2673 1.429 1_545 S
C2679 C2680 1.523 . S
C2680 C2661 1.368 . S
C2680 C2674 1.368 . S
C2680 C2679 1.523 . S
C2681 C2665 1.429 . S
C2681 C2677 1.429 . S
C2681 C2682 1.523 . S
C2682 C2666 1.368 . S
C2682 C2678 1.368 . S
C2682 C2681 1.523 . S
H2683 C2658 0.950 . S
H2684 C2660 0.950 . S
H2685 C2661 0.927 1_565 S
H2686 C2663 0.950 . S
H2687 C2665 0.950 . S
C2688 C2689 1.349 . S
C2688 C2690 1.327 1_455 S
C2688 H2713 0.950 . S
C2689 C2688 1.349 . S
C2689 C2705 1.349 . S
C2690 C2688 1.327 1_655 S
C2690 C2709 1.429 . S
C2690 H2714 0.950 . S
C2691 C2708 1.574 . S
C2691 C2710 1.368 . S
C2691 H2715 0.949 1_655 S
H2692 C2696 0.949 . S
C2693 C2694 1.349 . S
C2693 C2695 1.327 . S
C2693 H2716 0.950 . S
C2694 C2693 1.349 . S
C2694 C2706 1.349 . S
C2695 C2693 1.327 . S
C2695 C2711 1.429 . S
C2695 H2717 0.950 . S
C2696 H2692 0.949 . S
C2696 C2704 1.574 . S
C2696 C2712 1.368 . S
H2697 C2705 0.950 . S
H2698 C2703 0.950 . S
H2699 C2704 0.949 . S
H2700 C2706 0.950 . S
H2701 C2707 0.950 . S
H2702 C2708 0.949 . S
C2703 H2698 0.950 . S
C2703 C2705 1.327 . S
C2703 C2709 1.429 1_455 S
C2704 C2696 1.574 . S
C2704 H2699 0.949 . S
C2704 C2710 1.368 . S
C2705 C2689 1.349 . S
C2705 H2697 0.950 . S
C2705 C2703 1.327 . S
C2706 C2694 1.349 . S
C2706 H2700 0.950 . S
C2706 C2707 1.327 . S
C2707 H2701 0.950 . S
C2707 C2706 1.327 . S
C2707 C2711 1.429 . S
C2708 C2691 1.574 . S
C2708 H2702 0.949 . S
C2708 C2712 1.368 . S
C2709 C2690 1.429 . S
C2709 C2703 1.429 1_655 S
C2709 C2710 1.523 . S
C2710 C2691 1.368 . S
C2710 C2704 1.368 . S
C2710 C2709 1.523 . S
C2711 C2695 1.429 . S
C2711 C2707 1.429 . S
C2711 C2712 1.523 . S
C2712 C2696 1.368 . S
C2712 C2708 1.368 . S
C2712 C2711 1.523 . S
H2713 C2688 0.950 . S
H2714 C2690 0.950 . S
H2715 C2691 0.949 1_455 S
H2716 C2693 0.950 . S
H2717 C2695 0.950 . S
C2718 C2719 1.349 . S
C2718 C2720 1.327 . S
C2718 H2743 0.950 . S
C2719 C2718 1.349 . S
C2719 C2735 1.349 . S
C2720 C2718 1.327 . S
C2720 C2739 1.429 . S
C2720 H2744 0.950 . S
C2721 C2738 1.574 . S
C2721 C2740 1.368 . S
C2721 H2745 0.949 . S
H2722 C2726 0.949 . S
C2723 C2724 1.349 . S
C2723 C2725 1.327 . S
C2723 H2746 0.950 . S
C2724 C2723 1.349 . S
C2724 C2736 1.349 . S
C2725 C2723 1.327 . S
C2725 C2741 1.429 . S
C2725 H2747 0.950 . S
C2726 H2722 0.949 . S
C2726 C2734 1.574 . S
C2726 C2742 1.368 . S
H2727 C2735 0.950 . S
H2728 C2733 0.950 . S
H2729 C2734 0.949 . S
H2730 C2736 0.950 . S
H2731 C2737 0.950 . S
H2732 C2738 0.949 . S
C2733 H2728 0.950 . S
C2733 C2735 1.327 . S
C2733 C2739 1.429 . S
C2734 C2726 1.574 . S
C2734 H2729 0.949 . S
C2734 C2740 1.368 . S
C2735 C2719 1.349 . S
C2735 H2727 0.950 . S
C2735 C2733 1.327 . S
C2736 C2724 1.349 . S
C2736 H2730 0.950 . S
C2736 C2737 1.327 . S
C2737 H2731 0.950 . S
C2737 C2736 1.327 . S
C2737 C2741 1.429 . S
C2738 C2721 1.574 . S
C2738 H2732 0.949 . S
C2738 C2742 1.368 . S
C2739 C2720 1.429 . S
C2739 C2733 1.429 . S
C2739 C2740 1.523 . S
C2740 C2721 1.368 . S
C2740 C2734 1.368 . S
C2740 C2739 1.523 . S
C2741 C2725 1.429 . S
C2741 C2737 1.429 . S
C2741 C2742 1.523 . S
C2742 C2726 1.368 . S
C2742 C2738 1.368 . S
C2742 C2741 1.523 . S
H2743 C2718 0.950 . S
H2744 C2720 0.950 . S
H2745 C2721 0.949 . S
H2746 C2723 0.950 . S
H2747 C2725 0.950 . S
C2748 C2749 1.349 . S
C2748 C2750 1.327 1_545 S
C2748 H2773 0.950 . S
C2749 C2748 1.349 . S
C2749 C2765 1.349 . S
C2750 C2748 1.327 1_565 S
C2750 C2769 1.429 . S
C2750 H2774 0.950 . S
C2751 C2768 1.574 . S
C2751 C2770 1.368 . S
C2751 H2775 0.949 1_565 S
H2752 C2756 0.949 . S
C2753 C2754 1.349 . S
C2753 C2755 1.327 . S
C2753 H2776 0.950 . S
C2754 C2753 1.349 . S
C2754 C2766 1.349 . S
C2755 C2753 1.327 . S
C2755 C2771 1.429 . S
C2755 H2777 0.950 . S
C2756 H2752 0.949 . S
C2756 C2764 1.574 . S
C2756 C2772 1.368 . S
H2757 C2765 0.950 . S
H2758 C2763 0.950 . S
H2759 C2764 0.949 . S
H2760 C2766 0.950 . S
H2761 C2767 0.950 . S
H2762 C2768 0.949 . S
C2763 H2758 0.950 . S
C2763 C2765 1.327 . S
C2763 C2769 1.429 1_545 S
C2764 C2756 1.574 . S
C2764 H2759 0.949 . S
C2764 C2770 1.368 . S
C2765 C2749 1.349 . S
C2765 H2757 0.950 . S
C2765 C2763 1.327 . S
C2766 C2754 1.349 . S
C2766 H2760 0.950 . S
C2766 C2767 1.327 . S
C2767 H2761 0.950 . S
C2767 C2766 1.327 . S
C2767 C2771 1.429 . S
C2768 C2751 1.574 . S
C2768 H2762 0.949 . S
C2768 C2772 1.368 . S
C2769 C2750 1.429 . S
C2769 C2763 1.429 1_565 S
C2769 C2770 1.523 . S
C2770 C2751 1.368 . S
C2770 C2764 1.368 . S
C2770 C2769 1.523 . S
C2771 C2755 1.429 . S
C2771 C2767 1.429 . S
C2771 C2772 1.523 . S
C2772 C2756 1.368 . S
C2772 C2768 1.368 . S
C2772 C2771 1.523 . S
H2773 C2748 0.950 . S
H2774 C2750 0.950 . S
H2775 C2751 0.949 1_545 S
H2776 C2753 0.950 . S
H2777 C2755 0.950 . S
C2778 C2779 1.349 . S
C2778 C2780 1.327 . S
C2778 H2803 0.950 . S
C2779 C2778 1.349 . S
C2779 C2795 1.349 . S
C2780 C2778 1.327 . S
C2780 C2799 1.429 . S
C2780 H2804 0.950 . S
C2781 C2798 1.574 . S
C2781 C2800 1.368 . S
C2781 H2805 0.949 . S
H2782 C2786 0.949 1_655 S
C2783 C2784 1.349 . S
C2783 C2785 1.327 1_655 S
C2783 H2806 0.950 . S
C2784 C2783 1.349 . S
C2784 C2796 1.349 . S
C2785 C2783 1.327 1_455 S
C2785 C2801 1.429 . S
C2785 H2807 0.950 . S
C2786 H2782 0.949 1_455 S
C2786 C2794 1.574 . S
C2786 C2802 1.368 . S
H2787 C2795 0.950 . S
H2788 C2793 0.950 . S
H2789 C2794 0.949 . S
H2790 C2796 0.950 . S
H2791 C2797 0.950 . S
H2792 C2798 0.949 . S
C2793 H2788 0.950 . S
C2793 C2795 1.327 . S
C2793 C2799 1.429 . S
C2794 C2786 1.574 . S
C2794 H2789 0.949 . S
C2794 C2800 1.368 . S
C2795 C2779 1.349 . S
C2795 H2787 0.950 . S
C2795 C2793 1.327 . S
C2796 C2784 1.349 . S
C2796 H2790 0.950 . S
C2796 C2797 1.327 . S
C2797 H2791 0.950 . S
C2797 C2796 1.327 . S
C2797 C2801 1.429 1_655 S
C2798 C2781 1.574 . S
C2798 H2792 0.949 . S
C2798 C2802 1.368 . S
C2799 C2780 1.429 . S
C2799 C2793 1.429 . S
C2799 C2800 1.523 . S
C2800 C2781 1.368 . S
C2800 C2794 1.368 . S
C2800 C2799 1.523 . S
C2801 C2785 1.429 . S
C2801 C2797 1.429 1_455 S
C2801 C2802 1.523 . S
C2802 C2786 1.368 . S
C2802 C2798 1.368 . S
C2802 C2801 1.523 . S
H2803 C2778 0.950 . S
H2804 C2780 0.950 . S
H2805 C2781 0.949 . S
H2806 C2783 0.950 . S
H2807 C2785 0.950 . S
C2808 C2809 1.349 . S
C2808 C2810 1.327 . S
C2808 H2833 0.950 . S
C2809 C2808 1.349 . S
C2809 C2825 1.349 . S
C2810 C2808 1.327 . S
C2810 C2829 1.429 . S
C2810 H2834 0.950 . S
C2811 C2828 1.574 . S
C2811 C2830 1.368 . S
C2811 H2835 0.949 . S
H2812 C2816 0.949 1_455 S
C2813 C2814 1.349 . S
C2813 C2815 1.327 . S
C2813 H2836 0.950 . S
C2814 C2813 1.349 . S
C2814 C2826 1.349 . S
C2815 C2813 1.327 . S
C2815 C2831 1.429 . S
C2815 H2837 0.950 . S
C2816 H2812 0.949 1_655 S
C2816 C2824 1.574 . S
C2816 C2832 1.368 1_655 S
H2817 C2825 0.950 . S
H2818 C2823 0.950 . S
H2819 C2824 0.949 . S
H2820 C2826 0.950 . S
H2821 C2827 0.950 . S
H2822 C2828 0.949 1_455 S
C2823 H2818 0.950 . S
C2823 C2825 1.327 . S
C2823 C2829 1.429 . S
C2824 C2816 1.574 . S
C2824 H2819 0.949 . S
C2824 C2830 1.368 . S
C2825 C2809 1.349 . S
C2825 H2817 0.950 . S
C2825 C2823 1.327 . S
C2826 C2814 1.349 . S
C2826 H2820 0.950 . S
C2826 C2827 1.327 . S
C2827 H2821 0.950 . S
C2827 C2826 1.327 . S
C2827 C2831 1.429 . S
C2828 C2811 1.574 . S
C2828 H2822 0.949 1_655 S
C2828 C2832 1.368 1_655 S
C2829 C2810 1.429 . S
C2829 C2823 1.429 . S
C2829 C2830 1.523 . S
C2830 C2811 1.368 . S
C2830 C2824 1.368 . S
C2830 C2829 1.523 . S
C2831 C2815 1.429 . S
C2831 C2827 1.429 . S
C2831 C2832 1.523 . S
C2832 C2816 1.368 1_455 S
C2832 C2828 1.368 1_455 S
C2832 C2831 1.523 . S
H2833 C2808 0.950 . S
H2834 C2810 0.950 . S
H2835 C2811 0.949 . S
H2836 C2813 0.950 . S
H2837 C2815 0.950 . S
C2838 C2839 1.349 . S
C2838 C2840 1.327 . S
C2838 H2863 0.950 . S
C2839 C2838 1.349 . S
C2839 C2855 1.349 . S
C2840 C2838 1.327 . S
C2840 C2859 1.429 . S
C2840 H2864 0.950 . S
C2841 C2858 1.574 . S
C2841 C2860 1.368 . S
C2841 H2865 0.949 . S
H2842 C2846 0.949 . S
C2843 C2844 1.349 . S
C2843 C2845 1.327 . S
C2843 H2866 0.950 . S
C2844 C2843 1.349 . S
C2844 C2856 1.349 . S
C2845 C2843 1.327 . S
C2845 C2861 1.429 . S
C2845 H2867 0.950 . S
C2846 H2842 0.949 . S
C2846 C2854 1.574 . S
C2846 C2862 1.368 . S
H2847 C2855 0.950 . S
H2848 C2853 0.950 . S
H2849 C2854 0.949 . S
H2850 C2856 0.950 . S
H2851 C2857 0.950 . S
H2852 C2858 0.949 . S
C2853 H2848 0.950 . S
C2853 C2855 1.327 . S
C2853 C2859 1.429 . S
C2854 C2846 1.574 . S
C2854 H2849 0.949 . S
C2854 C2860 1.368 . S
C2855 C2839 1.349 . S
C2855 H2847 0.950 . S
C2855 C2853 1.327 . S
C2856 C2844 1.349 . S
C2856 H2850 0.950 . S
C2856 C2857 1.327 . S
C2857 H2851 0.950 . S
C2857 C2856 1.327 . S
C2857 C2861 1.429 . S
C2858 C2841 1.574 . S
C2858 H2852 0.949 . S
C2858 C2862 1.368 . S
C2859 C2840 1.429 . S
C2859 C2853 1.429 . S
C2859 C2860 1.523 . S
C2860 C2841 1.368 . S
C2860 C2854 1.368 . S
C2860 C2859 1.523 . S
C2861 C2845 1.429 . S
C2861 C2857 1.429 . S
C2861 C2862 1.523 . S
C2862 C2846 1.368 . S
C2862 C2858 1.368 . S
C2862 C2861 1.523 . S
H2863 C2838 0.950 . S
H2864 C2840 0.950 . S
H2865 C2841 0.949 . S
H2866 C2843 0.950 . S
H2867 C2845 0.950 . S
C2868 C2869 1.349 . S
C2868 C2870 1.327 . S
C2868 H2893 0.950 . S
C2869 C2868 1.349 . S
C2869 C2885 1.349 . S
C2870 C2868 1.327 . S
C2870 C2889 1.429 . S
C2870 H2894 0.950 . S
C2871 C2888 1.574 1_565 S
C2871 C2890 1.368 . S
C2871 H2895 0.949 . S
H2872 C2876 0.949 . S
C2873 C2874 1.349 . S
C2873 C2875 1.327 . S
C2873 H2896 0.950 . S
C2874 C2873 1.349 . S
C2874 C2886 1.349 . S
C2875 C2873 1.327 . S
C2875 C2891 1.429 . S
C2875 H2897 0.950 . S
C2876 H2872 0.949 . S
C2876 C2884 1.574 1_545 S
C2876 C2892 1.368 . S
H2877 C2885 0.950 . S
H2878 C2883 0.950 . S
H2879 C2884 0.949 . S
H2880 C2886 0.950 . S
H2881 C2887 0.950 . S
H2882 C2888 0.949 . S
C2883 H2878 0.950 . S
C2883 C2885 1.327 . S
C2883 C2889 1.429 . S
C2884 C2876 1.574 1_565 S
C2884 H2879 0.949 . S
C2884 C2890 1.368 . S
C2885 C2869 1.349 . S
C2885 H2877 0.950 . S
C2885 C2883 1.327 . S
C2886 C2874 1.349 . S
C2886 H2880 0.950 . S
C2886 C2887 1.327 . S
C2887 H2881 0.950 . S
C2887 C2886 1.327 . S
C2887 C2891 1.429 . S
C2888 C2871 1.574 1_545 S
C2888 H2882 0.949 . S
C2888 C2892 1.368 . S
C2889 C2870 1.429 . S
C2889 C2883 1.429 . S
C2889 C2890 1.523 . S
C2890 C2871 1.368 . S
C2890 C2884 1.368 . S
C2890 C2889 1.523 . S
C2891 C2875 1.429 . S
C2891 C2887 1.429 . S
C2891 C2892 1.523 . S
C2892 C2876 1.368 . S
C2892 C2888 1.368 . S
C2892 C2891 1.523 . S
H2893 C2868 0.950 . S
H2894 C2870 0.950 . S
H2895 C2871 0.949 . S
H2896 C2873 0.950 . S
H2897 C2875 0.950 . S
C2898 C2899 1.349 . S
C2898 C2900 1.327 . S
C2898 H2923 0.950 . S
C2899 C2898 1.349 . S
C2899 C2915 1.349 . S
C2900 C2898 1.327 . S
C2900 C2919 1.429 . S
C2900 H2924 0.950 . S
C2901 C2918 1.574 1_565 S
C2901 C2920 1.368 . S
C2901 H2925 0.949 . S
H2902 C2906 0.949 . S
C2903 C2904 1.349 . S
C2903 C2905 1.327 . S
C2903 H2926 0.950 . S
C2904 C2903 1.349 . S
C2904 C2916 1.349 . S
C2905 C2903 1.327 . S
C2905 C2921 1.429 . S
C2905 H2927 0.950 . S
C2906 H2902 0.949 . S
C2906 C2914 1.574 1_545 S
C2906 C2922 1.368 . S
H2907 C2915 0.950 . S
H2908 C2913 0.950 . S
H2909 C2914 0.949 . S
H2910 C2916 0.950 . S
H2911 C2917 0.950 . S
H2912 C2918 0.949 . S
C2913 H2908 0.950 . S
C2913 C2915 1.327 . S
C2913 C2919 1.429 . S
C2914 C2906 1.574 1_565 S
C2914 H2909 0.949 . S
C2914 C2920 1.368 . S
C2915 C2899 1.349 . S
C2915 H2907 0.950 . S
C2915 C2913 1.327 . S
C2916 C2904 1.349 . S
C2916 H2910 0.950 . S
C2916 C2917 1.327 . S
C2917 H2911 0.950 . S
C2917 C2916 1.327 . S
C2917 C2921 1.429 . S
C2918 C2901 1.574 1_545 S
C2918 H2912 0.949 . S
C2918 C2922 1.368 . S
C2919 C2900 1.429 . S
C2919 C2913 1.429 . S
C2919 C2920 1.523 . S
C2920 C2901 1.368 . S
C2920 C2914 1.368 . S
C2920 C2919 1.523 . S
C2921 C2905 1.429 . S
C2921 C2917 1.429 . S
C2921 C2922 1.523 . S
C2922 C2906 1.368 . S
C2922 C2918 1.368 . S
C2922 C2921 1.523 . S
H2923 C2898 0.950 . S
H2924 C2900 0.950 . S
H2925 C2901 0.949 . S
H2926 C2903 0.950 . S
H2927 C2905 0.950 . S
C2928 C2929 1.349 . S
C2928 C2930 1.327 . S
C2928 H2953 0.950 . S
C2929 C2928 1.349 . S
C2929 C2945 1.349 . S
C2930 C2928 1.327 . S
C2930 C2949 1.429 . S
C2930 H2954 0.950 . S
C2931 C2948 1.574 1_655 S
C2931 C2950 1.368 . S
C2931 H2955 0.949 . S
H2932 C2936 0.949 . S
C2933 C2934 1.349 . S
C2933 C2935 1.327 . S
C2933 H2956 0.950 . S
C2934 C2933 1.349 . S
C2934 C2946 1.349 . S
C2935 C2933 1.327 . S
C2935 C2951 1.429 . S
C2935 H2957 0.950 . S
C2936 H2932 0.949 . S
C2936 C2944 1.574 1_455 S
C2936 C2952 1.368 . S
H2937 C2945 0.950 . S
H2938 C2943 0.950 . S
H2939 C2944 0.949 . S
H2940 C2946 0.950 . S
H2941 C2947 0.950 . S
H2942 C2948 0.949 . S
C2943 H2938 0.950 . S
C2943 C2945 1.327 . S
C2943 C2949 1.429 . S
C2944 C2936 1.574 1_655 S
C2944 H2939 0.949 . S
C2944 C2950 1.368 . S
C2945 C2929 1.349 . S
C2945 H2937 0.950 . S
C2945 C2943 1.327 . S
C2946 C2934 1.349 . S
C2946 H2940 0.950 . S
C2946 C2947 1.327 . S
C2947 H2941 0.950 . S
C2947 C2946 1.327 . S
C2947 C2951 1.429 . S
C2948 C2931 1.574 1_455 S
C2948 H2942 0.949 . S
C2948 C2952 1.368 . S
C2949 C2930 1.429 . S
C2949 C2943 1.429 . S
C2949 C2950 1.523 . S
C2950 C2931 1.368 . S
C2950 C2944 1.368 . S
C2950 C2949 1.523 . S
C2951 C2935 1.429 . S
C2951 C2947 1.429 . S
C2951 C2952 1.523 . S
C2952 C2936 1.368 . S
C2952 C2948 1.368 . S
C2952 C2951 1.523 . S
H2953 C2928 0.950 . S
H2954 C2930 0.950 . S
H2955 C2931 0.949 . S
H2956 C2933 0.950 . S
H2957 C2935 0.950 . S
C2958 C2959 1.349 . S
C2958 C2960 1.327 . S
C2958 H2983 0.950 . S
C2959 C2958 1.349 . S
C2959 C2975 1.349 . S
C2960 C2958 1.327 . S
C2960 C2979 1.429 . S
C2960 H2984 0.950 . S
C2961 C2978 1.574 . S
C2961 C2980 1.368 . S
C2961 H2985 0.949 . S
H2962 C2966 0.949 . S
C2963 C2964 1.349 . S
C2963 C2965 1.327 . S
C2963 H2986 0.950 . S
C2964 C2963 1.349 . S
C2964 C2976 1.349 . S
C2965 C2963 1.327 . S
C2965 C2981 1.429 . S
C2965 H2987 0.950 . S
C2966 H2962 0.949 . S
C2966 C2974 1.574 . S
C2966 C2982 1.368 . S
H2967 C2975 0.950 . S
H2968 C2973 0.950 . S
H2969 C2974 0.949 . S
H2970 C2976 0.950 . S
H2971 C2977 0.950 . S
H2972 C2978 0.949 . S
C2973 H2968 0.950 . S
C2973 C2975 1.327 . S
C2973 C2979 1.429 . S
C2974 C2966 1.574 . S
C2974 H2969 0.949 . S
C2974 C2980 1.368 . S
C2975 C2959 1.349 . S
C2975 H2967 0.950 . S
C2975 C2973 1.327 . S
C2976 C2964 1.349 . S
C2976 H2970 0.950 . S
C2976 C2977 1.327 . S
C2977 H2971 0.950 . S
C2977 C2976 1.327 . S
C2977 C2981 1.429 . S
C2978 C2961 1.574 . S
C2978 H2972 0.949 . S
C2978 C2982 1.368 . S
C2979 C2960 1.429 . S
C2979 C2973 1.429 . S
C2979 C2980 1.523 . S
C2980 C2961 1.368 . S
C2980 C2974 1.368 . S
C2980 C2979 1.523 . S
C2981 C2965 1.429 . S
C2981 C2977 1.429 . S
C2981 C2982 1.523 . S
C2982 C2966 1.368 . S
C2982 C2978 1.368 . S
C2982 C2981 1.523 . S
H2983 C2958 0.950 . S
H2984 C2960 0.950 . S
H2985 C2961 0.949 . S
H2986 C2963 0.950 . S
H2987 C2965 0.950 . S
C829 N2 1.358 . S
C834 N416 1.358 . S
C859 C30 1.383 . S
C864 N439 1.346 . S
C889 N462 1.352 . S
C894 N48 1.352 . S
C919 N71 1.352 . S
C924 N761 1.352 . S
C949 N784 1.346 . S
C954 C99 1.383 . S
C979 N117 1.358 . S
C984 N807 1.358 . S
C1009 N554 1.358 . S
C1014 N140 1.358 . S
C1039 N163 1.346 . S
C1044 C582 1.383 . S
C1069 N186 1.352 . S
C1074 N600 1.352 . S
C1099 N209 1.352 . S
C1104 N347 1.352 . S
C1129 C375 1.383 . S
C1134 N232 1.346 . S
C1159 N255 1.358 . S
C1164 N393 1.358 . S
C1189 N278 1.358 . S
C1194 N692 1.358 . S
C1219 C306 1.383 . S
C1224 N715 1.346 . S
C1249 N324 1.352 . S
C1254 N738 1.352 . S
C1279 N485 1.352 . S
C1284 N623 1.352 . S
C1309 N508 1.346 . S
C1314 C651 1.383 . S
C1339 N531 1.358 . S
C1344 N669 1.358 . S
C1369 N173 1.487 1_545 S
C1374 C16 1.509 . S
C1399 N196 1.533 1_655 S
C1404 N35 1.562 . S
C1429 C62 1.594 . S
C1434 N150 1.582 . S
C1459 N265 1.583 1_455 S
C1464 C85 1.595 . S
C1489 N219 1.532 . S
C1494 N104 1.562 . S
C1519 N242 1.488 1_565 S
C1524 C131 1.508 . S
C1549 C154 1.681 . S
C1554 C39 1.710 1_565 S
C1579 C177 1.647 . S
C1584 N58 1.687 . S
C1609 C200 1.659 . S
C1614 N12 1.656 . S
C1639 C223 1.659 . S
C1644 N127 1.615 1_655 S
C1669 N81 1.652 . S
C1674 C246 1.646 . S
C1699 C108 1.710 1_545 S
C1704 C269 1.681 . S
C1729 C292 1.509 . S
C1734 N449 1.494 . S
C1759 N311 1.562 . S
C1764 N472 1.533 . S
C1789 C338 1.594 . S
C1794 N426 1.582 . S
C1819 N541 1.583 . S
C1824 C361 1.595 . S
C1849 N380 1.562 . S
C1854 N495 1.532 . S
C1879 N518 1.494 . S
C1884 C407 1.508 . S
C1909 C430 1.681 . S
C1914 C315 1.710 . S
C1939 N334 1.652 . S
C1944 C453 1.647 . S
C1969 N288 1.656 . S
C1974 C476 1.659 . S
C1999 C499 1.659 . S
C2004 N403 1.657 . S
C2029 C522 1.646 . S
C2034 N357 1.652 . S
C2059 C545 1.681 . S
C2064 C384 1.710 . S
C2089 N725 1.494 . S
C2094 C568 1.509 . S
C2119 N587 1.562 . S
C2124 N748 1.533 . S
C2149 C614 1.594 . S
C2154 N702 1.582 . S
C2179 N817 1.583 . S
C2184 C637 1.595 . S
C2209 N771 1.532 . S
C2214 N656 1.562 . S
C2239 N794 1.494 . S
C2244 C683 1.508 . S
C2269 C591 1.710 . S
C2274 C706 1.681 . S
C2299 N610 1.652 . S
C2304 C729 1.647 . S
C2329 N564 1.656 . S
C2334 C752 1.659 . S
C2359 C775 1.659 . S
C2364 N679 1.657 . S
C2389 N633 1.652 . S
C2394 C798 1.646 . S
C2419 C821 1.681 . S
C2424 C660 1.710 . S
C2449 C7 1.515 . S
C2454 C674 1.515 . S
C2479 C628 1.612 . S
C2484 N25 1.517 1_565 S
C2509 C53 1.612 . S
C2514 N646 1.517 . S
C2539 C76 1.612 . S
C2544 N301 1.517 . S
C2569 C329 1.612 . S
C2574 N94 1.517 1_545 S
C2599 C122 1.515 . S
C2604 C283 1.515 . S
C2629 C536 1.899 . S
C2634 C145 1.899 . S
C2659 C168 1.923 . S
C2664 C490 1.928 . S
C2689 C191 1.928 . S
C2694 C513 1.923 . S
C2719 C214 1.928 . S
C2724 C720 1.923 . S
C2749 C237 1.923 . S
C2754 C743 1.928 . S
C2779 C697 1.899 . S
C2784 C260 1.899 . S
C2809 C352 1.612 . S
C2814 N577 1.517 . S
C2839 C605 1.612 . S
C2844 N370 1.517 . S
C2869 C559 1.515 . S
C2874 C398 1.515 . S
C2899 C812 1.899 . S
C2904 C421 1.899 . S
C2929 C444 1.923 . S
C2934 C766 1.928 . S
C2959 C467 1.928 . S
C2964 C789 1.923 . S
