# Generated by pormake.
# Topology vby, (6)-cn, num edge types: 1
# Building blocks:
#     Node 0, Type 0, BuildingBlock: BETFAJ_clean_sbu_0, # of connection points: 6
#     Node 1, Type 0, BuildingBlock: BETFAJ_clean_sbu_0, # of connection points: 6
#     Node 2, Type 0, BuildingBlock: BETFAJ_clean_sbu_0, # of connection points: 6
#     Node 3, Type 0, BuildingBlock: BETFAJ_clean_sbu_0, # of connection points: 6
#     Node 4, Type 0, BuildingBlock: BETFAJ_clean_sbu_0, # of connection points: 6
#     Node 5, Type 0, BuildingBlock: BETFAJ_clean_sbu_0, # of connection points: 6
#     Node 6, Type 0, BuildingBlock: BETFAJ_clean_sbu_0, # of connection points: 6
#     Node 7, Type 0, BuildingBlock: BETFAJ_clean_sbu_0, # of connection points: 6
#     Edge 8, Type (0, 0), BuildingBlock: TEMPAE_clean_linker_10, # of connection points: 2
#     Edge 9, Type (0, 0), BuildingBlock: TEMPAE_clean_linker_10, # of connection points: 2
#     Edge 10, Type (0, 0), BuildingBlock: TEMPAE_clean_linker_10, # of connection points: 2
#     Edge 11, Type (0, 0), BuildingBlock: TEMPAE_clean_linker_10, # of connection points: 2
#     Edge 12, Type (0, 0), BuildingBlock: TEMPAE_clean_linker_10, # of connection points: 2
#     Edge 13, Type (0, 0), BuildingBlock: TEMPAE_clean_linker_10, # of connection points: 2
#     Edge 14, Type (0, 0), BuildingBlock: TEMPAE_clean_linker_10, # of connection points: 2
#     Edge 15, Type (0, 0), BuildingBlock: TEMPAE_clean_linker_10, # of connection points: 2
#     Edge 16, Type (0, 0), BuildingBlock: TEMPAE_clean_linker_10, # of connection points: 2
#     Edge 17, Type (0, 0), BuildingBlock: TEMPAE_clean_linker_10, # of connection points: 2
#     Edge 18, Type (0, 0), BuildingBlock: TEMPAE_clean_linker_10, # of connection points: 2
#     Edge 19, Type (0, 0), BuildingBlock: TEMPAE_clean_linker_10, # of connection points: 2
#     Edge 20, Type (0, 0), BuildingBlock: TEMPAE_clean_linker_10, # of connection points: 2
#     Edge 21, Type (0, 0), BuildingBlock: TEMPAE_clean_linker_10, # of connection points: 2
#     Edge 22, Type (0, 0), BuildingBlock: TEMPAE_clean_linker_10, # of connection points: 2
#     Edge 23, Type (0, 0), BuildingBlock: TEMPAE_clean_linker_10, # of connection points: 2
#     Edge 24, Type (0, 0), BuildingBlock: TEMPAE_clean_linker_10, # of connection points: 2
#     Edge 25, Type (0, 0), BuildingBlock: TEMPAE_clean_linker_10, # of connection points: 2
#     Edge 26, Type (0, 0), BuildingBlock: TEMPAE_clean_linker_10, # of connection points: 2
#     Edge 27, Type (0, 0), BuildingBlock: TEMPAE_clean_linker_10, # of connection points: 2
#     Edge 28, Type (0, 0), BuildingBlock: TEMPAE_clean_linker_10, # of connection points: 2
#     Edge 29, Type (0, 0), BuildingBlock: TEMPAE_clean_linker_10, # of connection points: 2
#     Edge 30, Type (0, 0), BuildingBlock: TEMPAE_clean_linker_10, # of connection points: 2
#     Edge 31, Type (0, 0), BuildingBlock: TEMPAE_clean_linker_10, # of connection points: 2
# Relax obj value: 0.202
# Max RMSD: 0.217
# Mean RMSD: 0.217
data_MOF--net-vby--node1-BETFAJ_clean_sbu_0--edge1-TEMPAE_clean_linker_10
_symmetry_space_group_name_H-M    P1
_symmetry_Int_Tables_number       1
_symmetry_cell_setting            triclinic
loop_
_symmetry_equiv_pos_as_xyz
'x, y, z'
_cell_length_a     15.913564
_cell_length_b     105.14512
_cell_length_c     29.872658
_cell_angle_alpha  89.962958
_cell_angle_beta   85.621869
_cell_angle_gamma 89.941459
loop_
_atom_site_label
_atom_site_type_symbol
_atom_site_fract_x
_atom_site_fract_y
_atom_site_fract_z
_atom_type_partial_charge
Sm0 Sm 0.05499 0.40068 0.00914 0.0
Sm1 Sm 0.05777 0.37024 0.01881 0.0
C2 C 1.02685 0.42495 0.98959 0.0
C3 C 0.04229 0.43874 0.99695 0.0
C4 C 0.05848 0.44675 0.95962 0.0
C5 C 0.06147 0.46001 0.96472 0.0
C6 C 0.04805 0.46568 0.00741 0.0
C7 C 0.03432 0.4576 0.04498 0.0
C8 C 1.03136 0.44431 0.03983 0.0
C9 C 0.06675 0.39145 0.09551 0.0
C10 C 0.87763 0.38434 0.01092 0.0
C11 C 0.06571 0.34653 0.04953 0.0
C12 C 0.10478 0.33374 0.04053 0.0
C13 C 0.16697 0.32917 0.06752 0.0
C14 C 0.19852 0.31673 0.06237 0.0
C15 C 0.16835 0.30842 0.03025 0.0
C16 C 0.10699 0.31307 0.00279 0.0
C17 C 0.07561 0.32553 0.00787 0.0
C18 C 0.06735 0.37706 0.92825 0.0
C19 C 0.23831 0.38649 0.00741 0.0
O20 O 0.0848 0.41805 0.96735 0.0
O21 O 0.98346 0.4186 0.02123 0.0
O22 O 1.02249 0.38665 0.06637 0.0
O23 O 0.10263 0.40179 0.07991 0.0
O24 O 0.92086 0.39418 0.99376 0.0
O25 O 0.91527 0.37469 0.02978 0.0
O26 O 0.11366 0.35577 0.06257 0.0
O27 O 1.00861 0.35047 0.02325 0.0
O28 O 0.06337 0.38429 0.96187 0.0
O29 O 0.06926 0.36539 0.94228 0.0
O30 O 0.19839 0.37587 0.02025 0.0
O31 O 0.19807 0.39701 0.99692 0.0
H32 H 0.06592 0.44276 0.92611 0.0
H33 H 0.07117 0.46583 0.93488 0.0
H34 H 1.02506 0.46154 0.07847 0.0
H35 H 1.01846 0.43844 0.06934 0.0
H36 H 0.18998 0.33514 0.09347 0.0
H37 H 0.24484 0.3135 0.08458 0.0
H38 H 0.08289 0.30707 0.97728 0.0
H39 H 1.02736 0.32862 0.98661 0.0
Sm40 Sm 1.01606 0.65572 0.01465 0.0
Sm41 Sm 1.01329 0.62739 0.0287 0.0
C42 C 0.99949 0.6798 0.98807 0.0
C43 C 0.95334 0.69205 0.99588 0.0
C44 C 0.92345 0.69857 0.95921 0.0
C45 C 0.88878 0.71081 0.96437 0.0
C46 C 0.88316 0.71695 0.00644 0.0
C47 C 0.91094 0.71023 0.04348 0.0
C48 C 0.94569 0.69797 0.03826 0.0
C49 C 0.03334 0.64895 0.10284 0.0
C50 C 0.83057 0.64077 0.02813 0.0
C51 C 0.04136 0.60325 0.05093 0.0
C52 C 1.02536 0.58941 0.04546 0.0
C53 C 1.02174 0.58154 0.08354 0.0
C54 C 1.01922 0.56826 0.07932 0.0
C55 C 1.02027 0.56245 0.0368 0.0
C56 C 1.02073 0.57039 0.99869 0.0
C57 C 1.0236 0.5837 0.00294 0.0
C58 C 1.00102 0.63463 0.94024 0.0
C59 C 0.19315 0.64227 0.01823 0.0
O60 O 0.96086 0.67027 0.97035 0.0
O61 O 0.05042 0.67615 0.0179 0.0
O62 O 0.98352 0.64359 0.07761 0.0
O63 O 0.07004 0.65859 0.08274 0.0
O64 O 0.87252 0.6514 0.01823 0.0
O65 O 0.86969 0.63005 0.03666 0.0
O66 O 0.08317 0.60925 0.01803 0.0
O67 O 0.98465 0.61039 0.07284 0.0
O68 O 0.04985 0.63956 0.96675 0.0
O69 O 0.95959 0.62527 0.95968 0.0
O70 O 0.14825 0.63386 0.04256 0.0
O71 O 0.15473 0.6507 0.99414 0.0
H72 H 0.92882 0.6943 0.92611 0.0
H73 H 0.86688 0.71552 0.93517 0.0
H74 H 0.90851 0.71462 0.07633 0.0
H75 H 0.96852 0.69326 0.06724 0.0
H76 H 1.02358 0.58566 0.11669 0.0
H77 H 1.01744 0.56252 0.1095 0.0
H78 H 1.02211 0.5663 0.96537 0.0
H79 H 1.02698 0.58951 0.97289 0.0
Sm80 Sm 0.06621 0.65519 0.52743 0.0
Sm81 Sm 0.07794 0.62717 0.51163 0.0
C82 C 0.07585 0.67939 0.5538 0.0
C83 C 0.12299 0.69158 0.54927 0.0
C84 C 0.12784 0.69933 0.58724 0.0
C85 C 0.16213 0.7116 0.58335 0.0
C86 C 0.19251 0.71648 0.54126 0.0
C87 C 0.19022 0.70852 0.5034 0.0
C88 C 0.15568 0.69622 0.50733 0.0
C89 C 0.05592 0.64853 0.43844 0.0
C90 C 0.25303 0.64205 0.51072 0.0
C91 C 0.07682 0.60292 0.48527 0.0
C92 C 0.0503 0.58958 0.49417 0.0
C93 C 0.04735 0.58122 0.45777 0.0
C94 C 0.03455 0.56816 0.46475 0.0
C95 C 1.02397 0.56307 0.50848 0.0
C96 C 1.02429 0.57158 0.54502 0.0
C97 C 0.03761 0.58468 0.53795 0.0
C98 C 0.07887 0.63396 0.60152 0.0
C99 C 0.88934 0.64052 0.52544 0.0
O100 O 0.10795 0.66993 0.57532 0.0
O101 O 0.03588 0.67563 0.51964 0.0
O102 O 0.10696 0.64361 0.46399 0.0
O103 O 1.01371 0.65762 0.45877 0.0
O104 O 0.20838 0.65095 0.53271 0.0
O105 O 0.21486 0.63291 0.48997 0.0
O106 O 1.02175 0.61129 0.47343 0.0
O107 O 0.13206 0.60775 0.51054 0.0
O108 O 0.03169 0.63873 0.57392 0.0
O109 O 0.12402 0.62494 0.58256 0.0
O110 O 0.9342 0.63088 0.50788 0.0
O111 O 0.92622 0.6504 0.54295 0.0
H112 H 0.10284 0.69601 0.61993 0.0
H113 H 0.16406 0.71731 0.61339 0.0
H114 H 0.21235 0.71193 0.47039 0.0
H115 H 0.15243 0.6905 0.47738 0.0
H116 H 0.05817 0.58473 0.4237 0.0
H117 H 0.03625 0.562 0.43566 0.0
H118 H 1.01512 0.56812 0.57918 0.0
H119 H 0.04005 0.59092 0.56665 0.0
Sm120 Sm 0.97385 0.40025 0.51714 0.0
Sm121 Sm 0.97491 0.37018 0.51246 0.0
C122 C 0.99032 0.42516 0.52619 0.0
C123 C 1.0009 0.43921 0.52924 0.0
C124 C 0.97374 0.44594 0.56835 0.0
C125 C 0.97845 0.4593 0.56956 0.0
C126 C 1.00989 0.46628 0.53154 0.0
C127 C 0.0378 0.45944 0.49264 0.0
C128 C 0.03362 0.44613 0.49158 0.0
C129 C 0.95948 0.38977 0.4327 0.0
C130 C 0.15399 0.38487 0.51777 0.0
C131 C 0.97011 0.34629 0.48353 0.0
C132 C 0.93133 0.33358 0.4927 0.0
C133 C 0.9005 0.3267 0.45717 0.0
C134 C 0.86918 0.31432 0.46379 0.0
C135 C 0.86798 0.30844 0.50622 0.0
C136 C 0.8978 0.31544 0.54201 0.0
C137 C 0.92902 0.32786 0.53536 0.0
C138 C 0.96577 0.37752 0.60221 0.0
C139 C 0.79234 0.38579 0.52338 0.0
O140 O 0.94523 0.41831 0.55592 0.0
O141 O 1.02862 0.41864 0.49331 0.0
O142 O 1.00778 0.38579 0.46141 0.0
O143 O 0.91732 0.39953 0.44851 0.0
O144 O 0.11041 0.395 0.53224 0.0
O145 O 0.11695 0.3748 0.50147 0.0
O146 O 0.92218 0.35534 0.4691 0.0
O147 O 1.02472 0.35043 0.51084 0.0
O148 O 0.96845 0.38474 0.56842 0.0
O149 O 0.96462 0.36579 0.58894 0.0
O150 O 0.83297 0.37516 0.51139 0.0
O151 O 0.83215 0.39643 0.53239 0.0
H152 H 0.94809 0.44091 0.59794 0.0
H153 H 0.95744 0.46413 0.60039 0.0
H154 H 0.06092 0.46438 0.46236 0.0
H155 H 0.05418 0.44128 0.46068 0.0
H156 H 0.90218 0.33082 0.42386 0.0
H157 H 0.84795 0.30923 0.43524 0.0
H158 H 0.8969 0.31133 0.5753 0.0
H159 H 0.95219 0.33291 0.5635 0.0
Sm160 Sm 0.56964 0.90185 0.01236 0.0
Sm161 Sm 0.57168 0.87033 0.02795 0.0
C162 C 0.56188 0.92507 0.97745 0.0
C163 C 0.57414 0.93889 0.98498 0.0
C164 C 0.58722 0.94698 0.94772 0.0
C165 C 0.59088 0.96021 0.9532 0.0
C166 C 0.58166 0.96576 0.99624 0.0
C167 C 0.5703 0.95757 0.03369 0.0
C168 C 0.56645 0.94429 0.02812 0.0
C169 C 0.56099 0.89542 0.1035 0.0
C170 C 0.39303 0.88536 0.02066 0.0
C171 C 0.57737 0.847 0.06216 0.0
C172 C 0.61408 0.8341 0.05342 0.0
C173 C 0.65511 0.8279 0.0873 0.0
C174 C 0.68568 0.81544 0.08123 0.0
C175 C 0.67584 0.80876 0.04107 0.0
C176 C 0.63552 0.81506 0.0069 0.0
C177 C 0.60513 0.82756 0.01295 0.0
C178 C 0.57531 0.87689 0.93709 0.0
C179 C 0.75281 0.8865 0.0159 0.0
O180 O 0.49887 0.91955 0.00069 0.0
O181 O 0.62863 0.91775 0.97124 0.0
O182 O 0.56325 0.88807 0.07008 0.0
O183 O 0.56409 0.90703 0.08852 0.0
O184 O 0.43557 0.89478 0.99988 0.0
O185 O 0.43116 0.8761 0.0417 0.0
O186 O 0.62855 0.85615 0.07246 0.0
O187 O 0.51836 0.85089 0.03696 0.0
O188 O 0.5733 0.88414 0.97068 0.0
O189 O 0.57913 0.86524 0.9514 0.0
O190 O 0.7132 0.87558 0.02513 0.0
O191 O 0.71307 0.89734 0.00804 0.0
H192 H 0.59245 0.94306 0.91407 0.0
H193 H 0.59837 0.9661 0.92343 0.0
H194 H 0.56416 0.9614 0.06741 0.0
H195 H 0.55611 0.93827 0.05747 0.0
H196 H 0.66232 0.83264 0.11896 0.0
H197 H 0.71526 0.81092 0.10858 0.0
H198 H 0.62767 0.81035 0.97527 0.0
H199 H 0.57398 0.83204 0.98607 0.0
Sm200 Sm 0.50723 0.15489 0.01269 0.0
Sm201 Sm 0.49735 0.12688 0.02617 0.0
C202 C 0.49593 0.17935 0.98928 0.0
C203 C 0.44991 0.19165 0.99746 0.0
C204 C 0.39876 0.19652 0.96508 0.0
C205 C 0.36367 0.20877 0.96952 0.0
C206 C 0.37907 0.21657 0.00638 0.0
C207 C 0.42873 0.21155 0.0393 0.0
C208 C 0.46375 0.19931 0.03487 0.0
C209 C 0.52105 0.14761 0.10092 0.0
C210 C 0.31956 0.14154 0.02949 0.0
C211 C 0.5066 0.10256 0.05179 0.0
C212 C 0.52976 0.08912 0.04162 0.0
C213 C 0.54997 0.08115 0.07694 0.0
C214 C 0.56205 0.06806 0.0702 0.0
C215 C 0.55458 0.06252 0.02772 0.0
C216 C 0.53647 0.07063 0.99197 0.0
C217 C 0.52393 0.08376 0.99886 0.0
C218 C 0.49523 0.13394 0.93631 0.0
C219 C 0.68308 0.14057 0.0136 0.0
O220 O 0.4593 0.17013 0.9687 0.0
O221 O 0.5429 0.17517 0.02015 0.0
O222 O 0.46843 0.14295 0.0757 0.0
O223 O 0.56435 0.15659 0.0806 0.0
O224 O 0.36317 0.15126 0.01199 0.0
O225 O 0.35814 0.13157 0.04511 0.0
O226 O 0.56564 0.11088 0.05773 0.0
O227 O 0.44324 0.10744 0.03248 0.0
O228 O 0.54163 0.13882 0.96411 0.0
O229 O 0.45298 0.1246 0.95491 0.0
O230 O 0.63786 0.13166 0.03541 0.0
O231 O 0.64542 0.14964 0.99197 0.0
H232 H 0.38746 0.19097 0.9356 0.0
H233 H 0.32486 0.21216 0.94376 0.0
H234 H 0.44317 0.21726 0.06788 0.0
H235 H 0.50369 0.196 0.06025 0.0
H236 H 0.55372 0.085 0.11037 0.0
H237 H 0.57439 0.06222 0.09884 0.0
H238 H 0.53141 0.06683 0.95861 0.0
H239 H 0.50805 0.08967 0.97102 0.0
Sm240 Sm 0.56607 0.15543 0.52648 0.0
Sm241 Sm 0.57172 0.12549 0.50749 0.0
C242 C 0.57012 0.17835 0.56399 0.0
C243 C 0.60625 0.19127 0.55655 0.0
C244 C 0.62278 0.19876 0.59373 0.0
C245 C 0.65276 0.21124 0.58801 0.0
C246 C 0.66701 0.2166 0.54484 0.0
C247 C 0.65171 0.20896 0.50751 0.0
C248 C 0.62164 0.19645 0.51329 0.0
C249 C 0.58105 0.15094 0.43388 0.0
C250 C 0.74765 0.14081 0.50883 0.0
C251 C 0.56292 0.10183 0.47588 0.0
C252 C 0.5527 0.08807 0.48597 0.0
C253 C 0.51352 0.08035 0.45543 0.0
C254 C 0.50906 0.06715 0.46137 0.0
C255 C 0.54372 0.06127 0.49813 0.0
C256 C 0.58109 0.06908 0.52946 0.0
C257 C 0.58581 0.08234 0.52337 0.0
C258 C 0.57756 0.13241 0.59698 0.0
C259 C 0.3868 0.14054 0.5168 0.0
O260 O 0.62191 0.16915 0.57289 0.0
O261 O 0.51203 0.17474 0.53791 0.0
O262 O 0.57903 0.14291 0.46513 0.0
O263 O 0.57881 0.16218 0.45176 0.0
O264 O 0.70504 0.14961 0.53265 0.0
O265 O 0.70842 0.13193 0.48692 0.0
O266 O 0.49732 0.10927 0.48254 0.0
O267 O 0.63316 0.10734 0.48508 0.0
O268 O 0.53413 0.1378 0.56878 0.0
O269 O 0.61297 0.1223 0.57912 0.0
O270 O 0.42999 0.13025 0.50326 0.0
O271 O 0.42366 0.15086 0.53157 0.0
H272 H 0.61165 0.19499 0.62742 0.0
H273 H 0.66509 0.21669 0.61756 0.0
H274 H 0.66111 0.21274 0.47377 0.0
H275 H 0.6094 0.19088 0.484 0.0
H276 H 0.48761 0.08453 0.4263 0.0
H277 H 0.47852 0.06152 0.43696 0.0
H278 H 0.6089 0.06491 0.55802 0.0
H279 H 0.61666 0.08807 0.54737 0.0
Sm280 Sm 0.48894 0.90002 0.52896 0.0
Sm281 Sm 0.49361 0.87005 0.51812 0.0
C282 C 0.49491 0.92434 0.55404 0.0
C283 C 0.51069 0.93788 0.54158 0.0
C284 C 0.5612 0.94532 0.56787 0.0
C285 C 0.56866 0.95848 0.56097 0.0
C286 C 0.5255 0.9646 0.52758 0.0
C287 C 0.47671 0.95706 0.50038 0.0
C288 C 0.46931 0.94388 0.50731 0.0
C289 C 0.48485 0.89138 0.44117 0.0
C290 C 0.67388 0.88514 0.52414 0.0
C291 C 0.4916 0.8465 0.48553 0.0
C292 C 0.45473 0.83365 0.49353 0.0
C293 C 0.43939 0.82599 0.45659 0.0
C294 C 0.40907 0.81354 0.46274 0.0
C295 C 0.39323 0.80839 0.50612 0.0
C296 C 0.40777 0.81618 0.5432 0.0
C297 C 0.43808 0.82867 0.53699 0.0
C298 C 0.47359 0.8762 0.60945 0.0
C299 C 0.31283 0.88476 0.53147 0.0
O300 O 0.55885 0.91656 0.5554 0.0
O301 O 0.42772 0.91883 0.5406 0.0
O302 O 0.52854 0.88661 0.47063 0.0
O303 O 0.44701 0.90153 0.45691 0.0
O304 O 0.6314 0.89584 0.53264 0.0
O305 O 0.63635 0.87436 0.51424 0.0
O306 O 0.44173 0.85556 0.47308 0.0
O307 O 0.54627 0.85049 0.51301 0.0
O308 O 0.47902 0.88371 0.57659 0.0
O309 O 0.47383 0.86466 0.59416 0.0
O310 O 0.35526 0.87563 0.50932 0.0
O311 O 0.35257 0.8939 0.55174 0.0
H312 H 0.59289 0.941 0.59491 0.0
H313 H 0.60593 0.96391 0.583 0.0
H314 H 0.44357 0.96137 0.47388 0.0
H315 H 0.42966 0.93843 0.4865 0.0
H316 H 0.45221 0.82957 0.42275 0.0
H317 H 0.39995 0.80785 0.43331 0.0
H318 H 0.39533 0.81265 0.57711 0.0
H319 H 0.44913 0.83438 0.56612 0.0
C320 C 0.37785 0.37566 0.99054 0.0
C321 C 0.33224 0.38647 0.00561 0.0
C322 C 0.46654 0.37526 0.98978 0.0
C323 C 0.5111 0.38574 0.00619 0.0
C324 C 0.46509 0.39665 0.02187 0.0
C325 C 0.37657 0.39697 0.02059 0.0
C326 C 0.51258 0.36363 0.97122 0.0
C327 C 0.50921 0.40787 0.04102 0.0
C328 C 0.73167 0.37905 0.04428 0.0
C329 C 0.78415 0.38434 0.00925 0.0
C330 C 0.64305 0.37963 0.0441 0.0
C331 C 0.60554 0.38524 0.00722 0.0
C332 C 0.65855 0.39031 0.97124 0.0
C333 C 0.74684 0.39001 0.97308 0.0
C334 C 0.5895 0.37444 0.08382 0.0
C335 C 0.62203 0.39597 0.93051 0.0
H336 H 0.34405 0.36753 0.9787 0.0
H337 H 0.34167 0.40529 0.03278 0.0
H338 H 0.561 0.36643 0.94432 0.0
H339 H 0.5459 0.35892 0.99799 0.0
H340 H 0.46939 0.35661 0.95728 0.0
H341 H 0.46446 0.41548 0.05297 0.0
H342 H 0.54491 0.40472 0.06955 0.0
H343 H 0.55541 0.41195 0.0153 0.0
H344 H 0.75995 0.37477 0.07256 0.0
H345 H 0.78695 0.39405 0.94573 0.0
H346 H 0.54949 0.36657 0.07295 0.0
H347 H 0.54662 0.38198 0.09818 0.0
H348 H 0.62805 0.37084 0.11062 0.0
H349 H 0.5803 0.38895 0.91558 0.0
H350 H 0.67164 0.39895 0.90442 0.0
H351 H 0.58283 0.40438 0.94043 0.0
C352 C 0.33923 0.6466 0.98291 0.0
C353 C 0.2865 0.6424 0.01972 0.0
C354 C 0.42777 0.64626 0.98377 0.0
C355 C 0.46465 0.642 0.02291 0.0
C356 C 0.41136 0.63804 0.06053 0.0
C357 C 0.3233 0.63811 0.05821 0.0
C358 C 0.4819 0.65026 0.94249 0.0
C359 C 0.44733 0.6338 0.10343 0.0
C360 C 0.69269 0.63007 0.01625 0.0
C361 C 0.73686 0.64094 0.02828 0.0
C362 C 0.60458 0.63035 0.01362 0.0
C363 C 0.55878 0.64165 0.02461 0.0
C364 C 0.60302 0.65257 0.03771 0.0
C365 C 0.6914 0.65214 0.03867 0.0
C366 C 0.56065 0.61858 0.99834 0.0
C367 C 0.55689 0.6647 0.05106 0.0
H368 H 0.31127 0.64985 0.95296 0.0
H369 H 0.28298 0.63496 0.08699 0.0
H370 H 0.52205 0.65844 0.9505 0.0
H371 H 0.52467 0.64236 0.93117 0.0
H372 H 0.44378 0.653 0.91436 0.0
H373 H 0.39743 0.63156 0.13032 0.0
H374 H 0.48701 0.62522 0.09704 0.0
H375 H 0.48847 0.64135 0.1157 0.0
H376 H 0.72738 0.62143 0.00762 0.0
H377 H 0.72496 0.66057 0.04815 0.0
H378 H 0.5256 0.62084 0.96861 0.0
H379 H 0.5139 0.61524 0.0252 0.0
H380 H 0.60542 0.6107 0.98948 0.0
H381 H 0.52361 0.66838 0.02244 0.0
H382 H 0.59997 0.67221 0.06191 0.0
H383 H 0.5084 0.66277 0.07893 0.0
C384 C 0.75488 0.65173 0.51172 0.0
C385 C 0.79618 0.64058 0.5236 0.0
C386 C 0.6672 0.65194 0.50782 0.0
C387 C 0.61862 0.64086 0.51786 0.0
C388 C 0.66006 0.62961 0.53068 0.0
C389 C 0.74847 0.62953 0.53241 0.0
C390 C 0.62672 0.664 0.49237 0.0
C391 C 0.61083 0.61771 0.54333 0.0
C392 C 0.38385 0.64608 0.5502 0.0
C393 C 0.3465 0.64196 0.5117 0.0
C394 C 0.47177 0.6455 0.55298 0.0
C395 C 0.5245 0.64114 0.51572 0.0
C396 C 0.4871 0.6372 0.47635 0.0
C397 C 0.39858 0.63742 0.47516 0.0
C398 C 0.50809 0.64938 0.59616 0.0
C399 C 0.54066 0.63292 0.43524 0.0
H400 H 0.7917 0.66025 0.50422 0.0
H401 H 0.78013 0.62089 0.5417 0.0
H402 H 0.59076 0.66199 0.46276 0.0
H403 H 0.58129 0.66769 0.51925 0.0
H404 H 0.67378 0.67155 0.48325 0.0
H405 H 0.65184 0.60991 0.55417 0.0
H406 H 0.56233 0.61983 0.57103 0.0
H407 H 0.57727 0.61434 0.5144 0.0
H408 H 0.34393 0.64944 0.5788 0.0
H409 H 0.37014 0.63425 0.44527 0.0
H410 H 0.55034 0.65769 0.59015 0.0
H411 H 0.54669 0.64151 0.60854 0.0
H412 H 0.45842 0.65191 0.62284 0.0
H413 H 0.58672 0.64046 0.42459 0.0
H414 H 0.50236 0.63069 0.40669 0.0
H415 H 0.57726 0.62434 0.44315 0.0
C416 C 0.65513 0.39641 0.50967 0.0
C417 C 0.69852 0.38583 0.52497 0.0
C418 C 0.56671 0.39629 0.50835 0.0
C419 C 0.51979 0.38552 0.52431 0.0
C420 C 0.56335 0.37496 0.54101 0.0
C421 C 0.65208 0.37514 0.54028 0.0
C422 C 0.5237 0.40759 0.4888 0.0
C423 C 0.51617 0.36346 0.55986 0.0
C424 C 0.28423 0.39056 0.5559 0.0
C425 C 0.24726 0.3849 0.51969 0.0
C426 C 0.37241 0.39057 0.55837 0.0
C427 C 0.4255 0.38523 0.5229 0.0
C428 C 0.38826 0.37968 0.48591 0.0
C429 C 0.29976 0.37936 0.48519 0.0
C430 C 0.40867 0.39617 0.59921 0.0
C431 C 0.44198 0.37426 0.44664 0.0
H432 H 0.69071 0.40464 0.49729 0.0
H433 H 0.6852 0.36696 0.55236 0.0
H434 H 0.48791 0.40447 0.46029 0.0
H435 H 0.47773 0.41181 0.51434 0.0
H436 H 0.56916 0.41507 0.47672 0.0
H437 H 0.55862 0.3564 0.57421 0.0
H438 H 0.46766 0.36642 0.58649 0.0
H439 H 0.48286 0.35876 0.53312 0.0
H440 H 0.24394 0.39475 0.58288 0.0
H441 H 0.27158 0.37507 0.45695 0.0
H442 H 0.44894 0.40446 0.58933 0.0
H443 H 0.4493 0.38905 0.61454 0.0
H444 H 0.3589 0.39931 0.62496 0.0
H445 H 0.48614 0.38163 0.43234 0.0
H446 H 0.40363 0.37075 0.41966 0.0
H447 H 0.48065 0.36627 0.45799 0.0
C448 C 0.89076 0.89722 0.02882 0.0
C449 C 0.84691 0.88651 0.01504 0.0
C450 C 0.97925 0.89704 0.03048 0.0
C451 C 1.02589 0.88602 0.01664 0.0
C452 C 0.98193 0.87529 0.00166 0.0
C453 C 0.89326 0.87559 0.00177 0.0
C454 C 1.02271 0.90858 0.04786 0.0
C455 C 1.02865 0.86348 0.9852 0.0
C456 C 0.26131 0.89025 0.98245 0.0
C457 C 0.29931 0.88522 0.01954 0.0
C458 C 0.17297 0.89036 0.98074 0.0
C459 C 0.12045 0.88572 0.01766 0.0
C460 C 0.15858 0.88074 0.05543 0.0
C461 C 0.24731 0.88036 0.05559 0.0
C462 C 0.1359 0.89536 0.93915 0.0
C463 C 0.10554 0.876 0.09605 0.0
H464 H 0.85557 0.90565 0.0396 0.0
H465 H 0.86014 0.86729 0.99079 0.0
H466 H 0.05871 0.90586 0.0768 0.0
H467 H 0.06858 0.91241 0.02147 0.0
H468 H 0.97753 0.91624 0.05866 0.0
H469 H 0.98583 0.85616 0.97282 0.0
H470 H 0.0765 0.86597 0.95761 0.0
H471 H 0.06274 0.85929 0.01268 0.0
H472 H 0.30093 0.89393 0.95425 0.0
H473 H 0.27602 0.87656 0.08453 0.0
H474 H 0.096 0.9038 0.9477 0.0
H475 H 0.09474 0.88804 0.92545 0.0
H476 H 0.18518 0.89809 0.91254 0.0
H477 H 0.06238 0.88365 0.10924 0.0
H478 H 0.14445 0.87283 0.12332 0.0
H479 H 0.06581 0.86793 0.08655 0.0
C480 C 0.1793 0.15282 0.03532 0.0
C481 C 0.22589 0.14153 0.02935 0.0
C482 C 0.09079 0.15287 0.03399 0.0
C483 C 0.04787 0.14147 0.02456 0.0
C484 C 0.09507 0.13008 0.01786 0.0
C485 C 0.18297 0.13021 0.02119 0.0
C486 C 0.04312 0.16513 0.04305 0.0
C487 C 0.05295 0.11779 0.00618 0.0
C488 C 0.81154 0.13752 0.05602 0.0
C489 C 0.77621 0.14076 0.01592 0.0
C490 C 0.89927 0.13805 0.05964 0.0
C491 C 0.95384 0.1414 0.02169 0.0
C492 C 0.91833 0.14449 0.98085 0.0
C493 C 0.83 0.14439 0.97875 0.0
C494 C 0.93344 0.13516 0.10431 0.0
C495 C 0.97374 0.14768 0.93911 0.0
H496 H 0.21202 0.16159 0.04173 0.0
H497 H 0.21867 0.12148 0.0159 0.0
H498 H 1.01133 0.16802 0.01288 0.0
H499 H 0.9933 0.16373 0.07069 0.0
H500 H 0.08494 0.17301 0.05233 0.0
H501 H 0.09881 0.10989 1.00017 0.0
H502 H 1.00599 0.11498 0.03373 0.0
H503 H 1.01846 0.11912 0.9756 0.0
H504 H 0.77019 0.13488 0.08506 0.0
H505 H 0.80302 0.14687 0.94765 0.0
H506 H 0.97389 0.1431 0.11431 0.0
H507 H 0.97339 0.1265 0.1015 0.0
H508 H 0.8825 0.13362 0.13132 0.0
H509 H 1.01151 0.1563 0.9449 0.0
H510 H 0.93673 0.1494 0.90962 0.0
H511 H 1.01873 0.13979 0.93106 0.0
C512 C 0.24666 0.12933 0.52443 0.0
C513 C 0.29329 0.14047 0.51514 0.0
C514 C 0.15812 0.12918 0.5234 0.0
C515 C 0.11497 0.14031 0.51106 0.0
C516 C 0.16223 0.15151 0.50062 0.0
C517 C 0.25031 0.15152 0.50362 0.0
C518 C 0.11059 0.11715 0.53639 0.0
C519 C 0.1198 0.16349 0.48587 0.0
C520 C 0.8925 0.13631 0.47148 0.0
C521 C 0.84152 0.14063 0.50882 0.0
C522 C 0.98133 0.13635 0.4714 0.0
C523 C 1.02042 0.14035 0.51018 0.0
C524 C 0.96887 0.14446 0.54827 0.0
C525 C 0.88055 0.14475 0.54682 0.0
C526 C 0.03344 0.13228 0.42953 0.0
C527 C 1.00695 0.14841 0.59088 0.0
H528 H 0.27933 0.12077 0.53359 0.0
H529 H 0.28596 0.16013 0.49588 0.0
H530 H 0.06342 0.11911 0.56488 0.0
H531 H 0.07558 0.11378 0.50798 0.0
H532 H 0.15295 0.10941 0.54628 0.0
H533 H 0.16577 0.17114 0.47629 0.0
H534 H 0.08266 0.16141 0.45676 0.0
H535 H 0.07514 0.16705 0.51334 0.0
H536 H 0.86295 0.13317 0.4419 0.0
H537 H 0.84171 0.14797 0.57604 0.0
H538 H 0.07205 0.12384 0.43678 0.0
H539 H 0.07766 0.14 0.41826 0.0
H540 H 0.9939 0.12989 0.40163 0.0
H541 H 0.04722 0.14065 0.60256 0.0
H542 H 0.95825 0.15078 0.61826 0.0
H543 H 0.04792 0.15684 0.58439 0.0
C544 C 0.81463 0.8961 0.5132 0.0
C545 C 0.76737 0.88524 0.52585 0.0
C546 C 0.90317 0.89624 0.51414 0.0
C547 C 0.94568 0.88541 0.52965 0.0
C548 C 0.89782 0.87452 0.54344 0.0
C549 C 0.80973 0.87449 0.54062 0.0
C550 C 0.9514 0.9079 0.49769 0.0
C551 C 0.93964 0.8629 0.56152 0.0
C552 C 0.1795 0.88004 0.49486 0.0
C553 C 0.219 0.88497 0.53156 0.0
C554 C 0.0912 0.88035 0.49348 0.0
C555 C 0.04018 0.88533 0.53038 0.0
C556 C 0.07972 0.89016 0.56787 0.0
C557 C 0.16854 0.89012 0.56767 0.0
C558 C 0.05255 0.87547 0.4522 0.0
C559 C 1.02811 0.8952 0.60851 0.0
H560 H 0.78248 0.90442 0.50152 0.0
H561 H 0.77363 0.86611 0.55094 0.0
H562 H 0.98702 0.91187 0.52494 0.0
H563 H 0.99809 0.90528 0.4697 0.0
H564 H 0.90943 0.91543 0.48581 0.0
H565 H 0.89327 0.85551 0.57333 0.0
H566 H 0.98394 0.8587 0.5351 0.0
H567 H 0.97708 0.86562 0.58988 0.0
H568 H 0.21796 0.87617 0.46657 0.0
H569 H 0.19846 0.89389 0.59624 0.0
H570 H 1.01277 0.88298 0.4384 0.0
H571 H 1.011 0.86725 0.46115 0.0
H572 H 0.10092 0.87245 0.42553 0.0
H573 H 0.98987 0.90345 0.59891 0.0
H574 H 0.06799 0.89822 0.63553 0.0
H575 H 0.98357 0.88778 0.62205 0.0
C576 C 0.07529 0.54098 0.05903 0.0
C577 C 1.02395 0.54821 0.03236 0.0
C578 C 0.08016 0.52763 0.05527 0.0
C579 C 0.0324 0.5212 0.02413 0.0
C580 C 0.98045 0.52843 0.99707 0.0
C581 C 0.97707 0.54179 0.00139 0.0
C582 C 0.13689 0.52039 0.08459 0.0
C583 C 0.92805 0.52202 0.96361 0.0
C584 C 0.1008 0.48774 0.98578 0.0
C585 C 0.04544 0.47992 0.01238 0.0
C586 C 0.09722 0.50112 0.9892 0.0
C587 C 0.03679 0.50695 0.01998 0.0
C588 C 0.98099 0.49913 0.04708 0.0
C589 C 0.98595 0.48578 0.04297 0.0
C590 C 0.15833 0.50902 0.95979 0.0
C591 C 0.91545 0.50487 0.08029 0.0
H592 H 0.11301 0.54579 0.08253 0.0
H593 H 0.93659 0.54721 0.98087 0.0
H594 H 0.09943 0.51339 0.10549 0.0
H595 H 0.18467 0.51498 0.06336 0.0
H596 H 0.17003 0.52676 0.10711 0.0
H597 H 0.89091 0.52893 0.94505 0.0
H598 H 0.96942 0.51654 0.93902 0.0
H599 H 0.884 0.51515 0.98114 0.0
H600 H 0.14778 0.4834 0.96243 0.0
H601 H 0.94182 0.47992 0.06324 0.0
H602 H 0.19679 0.51501 0.98096 0.0
H603 H 0.12325 0.51555 0.93871 0.0
H604 H 0.20137 0.50309 0.93745 0.0
H605 H 0.94644 0.51086 0.10478 0.0
H606 H 0.87687 0.49753 0.09901 0.0
H607 H 0.87287 0.51116 0.06251 0.0
C608 C 0.94713 0.48768 0.55466 0.0
C609 C 1.012 0.48059 0.5318 0.0
C610 C 0.94679 0.50109 0.55354 0.0
C611 C 1.0124 0.5077 0.52858 0.0
C612 C 0.07853 0.50063 0.5059 0.0
C613 C 0.07781 0.48725 0.508 0.0
C614 C 0.87538 0.50821 0.57855 0.0
C615 C 0.14971 0.50722 0.47878 0.0
C616 C 0.9733 0.54134 0.48601 0.0
C617 C 1.01627 0.54894 0.51555 0.0
C618 C 0.97069 0.52799 0.49022 0.0
C619 C 1.01113 0.52196 0.52519 0.0
C620 C 0.05255 0.52956 0.55592 0.0
C621 C 0.05498 0.54289 0.55063 0.0
C622 C 0.92592 0.52031 0.45659 0.0
C623 C 0.09591 0.52358 0.59393 0.0
H624 H 0.89524 0.48275 0.5727 0.0
H625 H 0.12929 0.48198 0.49091 0.0
H626 H 0.9007 0.51522 0.60178 0.0
H627 H 0.83935 0.5136 0.55446 0.0
H628 H 0.83136 0.50175 0.59821 0.0
H629 H 0.19679 0.5004 0.46337 0.0
H630 H 0.1242 0.51293 0.45165 0.0
H631 H 0.18226 0.51389 0.50042 0.0
H632 H 0.94166 0.54582 0.45928 0.0
H633 H 0.08941 0.54854 0.5734 0.0
H634 H 0.87649 0.51431 0.47417 0.0
H635 H 0.97132 0.51382 0.43811 0.0
H636 H 0.89612 0.52642 0.43187 0.0
H637 H 0.05141 0.51732 0.61403 0.0
H638 H 0.12096 0.5308 0.61656 0.0
H639 H 0.14893 0.51754 0.58018 0.0
C640 C 0.52673 0.98598 0.03433 0.0
C641 C 0.58155 0.98 0.00166 0.0
C642 C 0.52377 0.99934 0.03864 0.0
C643 C 0.57654 1.00705 0.00947 0.0
C644 C 0.6325 1.00111 0.97669 0.0
C645 C 0.63452 0.98773 0.97329 0.0
C646 C 0.46333 1.00521 0.0742 0.0
C647 C 0.68999 1.0089 0.94487 0.0
C648 C 0.51125 0.04174 0.99315 0.0
C649 C 0.56282 0.04834 0.02147 0.0
C650 C 0.51575 0.02839 0.98857 0.0
C651 C 0.57275 0.02132 0.01308 0.0
C652 C 0.62553 0.02791 0.04137 0.0
C653 C 0.62027 0.04126 0.04503 0.0
C654 C 0.45855 0.02183 0.95781 0.0
C655 C 0.68721 0.02082 0.0682 0.0
H656 H 0.4845 0.98022 0.05607 0.0
H657 H 0.67822 0.98331 0.94838 0.0
H658 H 0.49819 1.01136 0.09658 0.0
H659 H 0.41741 1.01134 0.05819 0.0
H660 H 0.42802 0.99793 0.09501 0.0
H661 H 0.73003 1.00287 0.9213 0.0
H662 H 0.65202 0.01536 0.92505 0.0
H663 H 0.73154 0.01494 0.96412 0.0
H664 H 0.46566 0.04696 0.97522 0.0
H665 H 0.66165 0.04617 0.06642 0.0
H666 H 0.41594 0.01519 0.97746 0.0
H667 H 0.49648 0.01608 0.9325 0.0
H668 H 0.41958 0.02867 0.93999 0.0
H669 H 0.65293 0.01393 0.09106 0.0
H670 H 0.72412 0.02729 0.08855 0.0
H671 H 0.73164 0.01528 0.04537 0.0
C672 C 0.55866 0.03923 0.46508 0.0
C673 C 0.54231 0.04706 0.50288 0.0
C674 C 0.55672 0.02587 0.46861 0.0
C675 C 0.5378 0.02007 0.51101 0.0
C676 C 0.52158 0.02789 0.54937 0.0
C677 C 0.52426 0.04125 0.54489 0.0
C678 C 0.57502 0.01795 0.42685 0.0
C679 C 0.50073 0.02215 0.59518 0.0
C680 C 0.45677 0.9858 0.51379 0.0
C681 C 0.52921 0.97881 0.5223 0.0
C682 C 0.45863 0.99916 0.51013 0.0
C683 C 0.53478 1.00583 0.51509 0.0
C684 C 0.6082 0.99884 0.52349 0.0
C685 C 0.60457 0.98548 0.52697 0.0
C686 C 0.37877 1.00618 0.50123 0.0
C687 C 0.69086 1.0055 0.52876 0.0
H688 H 0.57407 0.04356 0.43256 0.0
H689 H 0.51071 0.04716 0.57426 0.0
H690 H 0.62964 1.01161 0.43105 0.0
H691 H 0.52024 1.01178 0.42138 0.0
H692 H 0.58902 0.02389 0.39641 0.0
H693 H 0.49014 0.0295 0.62173 0.0
H694 H 0.44321 0.01621 0.59476 0.0
H695 H 0.55272 0.01582 0.60411 0.0
H696 H 0.39782 0.98083 0.51082 0.0
H697 H 0.66126 0.98023 0.53297 0.0
H698 H 0.38867 1.01179 0.46982 0.0
H699 H 0.36213 1.01299 0.52886 0.0
H700 H 0.32473 0.99964 0.49811 0.0
H701 H 0.71002 1.01097 0.49788 0.0
H702 H 0.74218 0.99875 0.5354 0.0
H703 H 0.6835 1.01241 0.55686 0.0
C704 C 0.14313 0.2849 0.01893 0.0
C705 C 0.19918 0.2949 0.02618 0.0
C706 C 0.17075 0.27216 0.01567 0.0
C707 C 0.25681 0.2692 0.01966 0.0
C708 C 0.31379 0.27923 0.02687 0.0
C709 C 0.28443 0.29189 0.03008 0.0
C710 C 0.10753 0.26183 0.00818 0.0
C711 C 0.40608 0.27658 0.03113 0.0
C712 C 0.31722 0.23525 0.05145 0.0
C713 C 0.34596 0.22999 0.00977 0.0
C714 C 0.28805 0.24791 0.05513 0.0
C715 C 0.28719 0.25564 0.01624 0.0
C716 C 0.31562 0.25039 0.97405 0.0
C717 C 0.34458 0.23771 0.97134 0.0
C718 C 0.25817 0.25304 0.10079 0.0
C719 C 0.31612 0.25823 0.93167 0.0
H720 H 0.07695 0.28701 0.01656 0.0
H721 H 0.32873 0.29948 0.03512 0.0
H722 H 0.12682 0.25654 0.97694 0.0
H723 H 0.1057 0.2549 0.03625 0.0
H724 H 0.043 0.26566 0.00555 0.0
H725 H 0.44238 0.28538 0.03672 0.0
H726 H 0.41353 0.26997 0.05953 0.0
H727 H 0.43385 0.27186 1.00025 0.0
H728 H 0.31672 0.22941 0.08137 0.0
H729 H 0.36777 0.23392 0.93901 0.0
H730 H 0.19172 0.25624 0.10072 0.0
H731 H 0.2963 0.26145 0.10881 0.0
H732 H 0.26258 0.24585 0.12779 0.0
H733 H 0.25162 0.26175 0.92697 0.0
H734 H 0.3391 0.25275 0.90139 0.0
H735 H 0.35699 0.26669 0.93449 0.0
C736 C 0.65835 0.78615 0.01407 0.0
C737 C 0.70631 0.79527 0.03526 0.0
C738 C 0.68541 0.77341 0.00919 0.0
C739 C 0.76267 0.76956 0.02575 0.0
C740 C 0.81157 0.77871 0.04699 0.0
C741 C 0.78293 0.79138 0.05151 0.0
C742 C 0.63094 0.76402 0.98647 0.0
C743 C 0.89451 0.77511 0.06493 0.0
C744 C 0.80023 0.73423 0.04947 0.0
C745 C 0.85101 0.73039 0.01127 0.0
C746 C 0.77086 0.74686 0.05452 0.0
C747 C 0.7926 0.756 0.02065 0.0
C748 C 0.84361 0.75219 0.98199 0.0
C749 C 0.87206 0.73951 0.9778 0.0
C750 C 0.71645 0.75044 0.09621 0.0
C751 C 0.86882 0.76156 0.94507 0.0
H752 H 0.59856 0.78892 0.00192 0.0
H753 H 0.8213 0.7983 0.06738 0.0
H754 H 0.66692 0.75981 0.95682 0.0
H755 H 0.61273 0.75611 0.00979 0.0
H756 H 0.57274 0.76848 0.97531 0.0
H757 H 0.92509 0.78329 0.08068 0.0
H758 H 0.8846 0.76743 0.09025 0.0
H759 H 0.93821 0.77136 0.03734 0.0
H760 H 0.7825 0.72731 0.07537 0.0
H761 H 0.91231 0.73679 0.94847 0.0
H762 H 0.65497 0.75418 0.08683 0.0
H763 H 0.74715 0.75813 0.11444 0.0
H764 H 0.70463 0.74225 0.11936 0.0
H765 H 0.81179 0.76574 0.93171 0.0
H766 H 0.90783 0.7571 0.91689 0.0
H767 H 0.90505 0.76949 0.95869 0.0
C768 C 0.29423 0.73307 0.50783 0.0
C769 C 0.22351 0.72995 0.53682 0.0
C770 C 0.32294 0.74573 0.5031 0.0
C771 C 0.27997 0.75561 0.52777 0.0
C772 C 0.2087 0.75252 0.55712 0.0
C773 C 0.1815 0.7398 0.56128 0.0
C774 C 0.39935 0.74854 0.47157 0.0
C775 C 0.16054 0.7627 0.58391 0.0
C776 C 0.39415 0.78705 0.54538 0.0
C777 C 0.36297 0.79492 0.51237 0.0
C778 C 0.36789 0.7743 0.55074 0.0
C779 C 0.30874 0.76918 0.52248 0.0
C780 C 0.27664 0.77708 0.48929 0.0
C781 C 0.30397 0.78979 0.48467 0.0
C782 C 0.40395 0.76626 0.58652 0.0
C783 C 0.21318 0.7721 0.45857 0.0
H784 H 0.32787 0.72558 0.48911 0.0
H785 H 0.12601 0.7376 0.5832 0.0
H786 H 0.38228 0.75528 0.44514 0.0
H787 H 0.44867 0.75318 0.49018 0.0
H788 H 0.42638 0.73982 0.45515 0.0
H789 H 0.10724 0.75876 0.60577 0.0
H790 H 0.20333 0.76785 0.60526 0.0
H791 H 0.13529 0.76979 0.56086 0.0
H792 H 0.44053 0.79079 0.56662 0.0
H793 H 0.27831 0.79577 0.45948 0.0
H794 H 0.43697 0.75788 0.57091 0.0
H795 H 0.35237 0.76261 0.61014 0.0
H796 H 0.44898 0.77163 0.60594 0.0
H797 H 0.23977 0.7638 0.43941 0.0
H798 H 0.19437 0.77941 0.43439 0.0
H799 H 0.15591 0.76877 0.47869 0.0
C800 C 0.87912 0.28642 0.53952 0.0
C801 C 0.83734 0.29499 0.5127 0.0
C802 C 0.85233 0.27369 0.54495 0.0
C803 C 0.78175 0.26932 0.52312 0.0
C804 C 0.73901 0.27793 0.4962 0.0
C805 C 0.76719 0.2906 0.49133 0.0
C806 C 0.90002 0.26488 0.57386 0.0
C807 C 0.66328 0.27376 0.47248 0.0
C808 C 0.75605 0.23356 0.50395 0.0
C809 C 0.69649 0.23012 0.53904 0.0
C810 C 0.78429 0.24622 0.4984 0.0
C811 C 0.75241 0.25578 0.52859 0.0
C812 C 0.6922 0.25239 0.56399 0.0
C813 C 0.66506 0.23967 0.56874 0.0
C814 C 0.84864 0.24936 0.46025 0.0
C815 C 0.6561 0.26223 0.59687 0.0
H816 H 0.93404 0.28959 0.55571 0.0
H817 H 0.73352 0.29713 0.47103 0.0
H818 H 0.85687 0.26098 0.60143 0.0
H819 H 0.92525 0.2567 0.5536 0.0
H820 H 0.95326 0.26972 0.58878 0.0
H821 H 0.63699 0.28157 0.45273 0.0
H822 H 0.68079 0.26574 0.4495 0.0
H823 H 0.61322 0.27027 0.49735 0.0
H824 H 0.78172 0.2263 0.48108 0.0
H825 H 0.61807 0.23725 0.59554 0.0
H826 H 0.90594 0.25341 0.47369 0.0
H827 H 0.82307 0.25668 0.43824 0.0
H828 H 0.86712 0.24088 0.43956 0.0
H829 H 0.70758 0.26681 0.61404 0.0
H830 H 0.61017 0.25809 0.62271 0.0
H831 H 0.62411 0.26982 0.57872 0.0
C832 C 0.09909 0.3961 0.17452 0.0
C833 C 0.05701 0.38856 0.14456 0.0
C834 C 0.0845 0.39466 0.22131 0.0
C835 C 1.02671 0.38537 0.23906 0.0
C836 C 0.98694 0.3773 0.20896 0.0
C837 C 1.0023 0.37902 0.1621 0.0
C838 C 0.1283 0.40353 0.25176 0.0
C839 C 0.92579 0.36716 0.22623 0.0
C840 C 0.03402 0.37896 0.36515 0.0
C841 C 0.97064 0.38713 0.38352 0.0
C842 C 0.05054 0.37777 0.31815 0.0
C843 C 1.00296 0.38498 0.28877 0.0
C844 C 0.93656 0.3928 0.30733 0.0
C845 C 0.92113 0.39373 0.35422 0.0
C846 C 0.12114 0.3692 0.29999 0.0
C847 C 0.88414 0.4007 0.27768 0.0
H848 H 0.14187 0.40345 0.16139 0.0
H849 H 0.96977 0.37311 0.13924 0.0
H850 H 0.08096 0.40968 0.27041 0.0
H851 H 0.16088 0.39801 0.27694 0.0
H852 H 0.17521 0.40972 0.2329 0.0
H853 H 0.90782 0.36073 0.19905 0.0
H854 H 0.95345 0.36139 0.25254 0.0
H855 H 0.86782 0.3717 0.24188 0.0
H856 H 0.07246 0.37379 0.38747 0.0
H857 H 0.87166 0.40001 0.368 0.0
H858 H 0.17395 0.37506 0.28495 0.0
H859 H 0.09962 0.36302 0.27302 0.0
H860 H 0.14527 0.3631 0.32656 0.0
H861 H 0.92459 0.40796 0.25973 0.0
H862 H 0.83143 0.40564 0.29705 0.0
H863 H 0.85764 0.39462 0.25189 0.0
C864 C 0.99195 0.63693 0.1746 0.0
C865 C 0.0403 0.64631 0.15134 0.0
C866 C 0.99618 0.63522 0.22131 0.0
C867 C 0.04956 0.64313 0.24522 0.0
C868 C 0.10079 0.65225 0.22133 0.0
C869 C 0.09573 0.65368 0.17491 0.0
C870 C 0.94134 0.62528 0.24532 0.0
C871 C 0.15827 0.66096 0.24514 0.0
C872 C 0.99189 0.65261 0.36636 0.0
C873 C 0.05159 0.646 0.38969 0.0
C874 C 0.98825 0.65127 0.31982 0.0
C875 C 0.04553 0.64305 0.29553 0.0
C876 C 0.10376 0.63589 0.31912 0.0
C877 C 0.10627 0.63747 0.36599 0.0
C878 C 0.92532 0.65915 0.29639 0.0
C879 C 0.16525 0.62691 0.29463 0.0
H880 H 0.94962 0.63112 0.15654 0.0
H881 H 0.13414 0.66086 0.15717 0.0
H882 H 0.97863 0.61953 0.26788 0.0
H883 H 0.89026 0.63 0.26655 0.0
H884 H 0.91224 0.61881 0.22152 0.0
H885 H 0.19841 0.66691 0.22137 0.0
H886 H 0.11993 0.66736 0.26812 0.0
H887 H 0.19975 0.65534 0.26588 0.0
H888 H 0.94866 0.65911 0.38443 0.0
H889 H 0.15205 0.63225 0.38385 0.0
H890 H 0.88771 0.65299 0.27539 0.0
H891 H 0.95925 0.66612 0.27369 0.0
H892 H 0.88147 0.66444 0.3204 0.0
H893 H 0.13207 0.62064 0.27188 0.0
H894 H 0.19896 0.6209 0.3181 0.0
H895 H 0.21254 0.63244 0.27351 0.0
C896 C 0.95894 0.62902 0.86377 0.0
C897 C 1.00767 0.63651 0.89076 0.0
C898 C 0.96879 0.62978 0.81668 0.0
C899 C 1.02861 0.63829 0.79577 0.0
C900 C 0.07575 0.64624 0.82289 0.0
C901 C 0.06485 0.64524 0.87007 0.0
C902 C 0.91722 0.6211 0.78928 0.0
C903 C 0.13965 0.65552 0.80206 0.0
C904 C 0.11782 0.62861 0.67877 0.0
C905 C 0.06931 0.63588 0.65094 0.0
C906 C 0.10673 0.62958 0.72578 0.0
C907 C 0.04583 0.6381 0.74574 0.0
C908 C 0.99844 0.64578 0.71776 0.0
C909 C 1.01062 0.64456 0.67068 0.0
C910 C 0.15858 0.62118 0.75411 0.0
C911 C 0.9334 0.65505 0.73757 0.0
H912 H 0.91425 0.6223 0.87948 0.0
H913 H 0.10242 0.6511 0.89071 0.0
H914 H 0.88383 0.62671 0.76464 0.0
H915 H 0.95953 0.61433 0.76999 0.0
H916 H 0.86999 0.61556 0.81051 0.0
H917 H 0.16563 0.6618 0.8275 0.0
H918 H 0.19251 0.65022 0.78429 0.0
H919 H 0.11078 0.66151 0.77678 0.0
H920 H 0.16366 0.62193 0.6638 0.0
H921 H 0.97324 0.65026 0.64935 0.0
H922 H 0.11654 0.61457 0.77421 0.0
H923 H 0.19188 0.62704 0.77805 0.0
H924 H 0.20595 0.61549 0.7335 0.0
H925 H 0.88127 0.64977 0.75602 0.0
H926 H 0.90658 0.66102 0.71148 0.0
H927 H 0.96162 0.66136 0.76212 0.0
C928 C 1.02868 0.39042 0.66234 0.0
C929 C 0.9712 0.38121 0.6499 0.0
C930 C 0.04618 0.39193 0.70775 0.0
C931 C 1.00351 0.3843 0.74154 0.0
C932 C 0.94112 0.37564 0.7291 0.0
C933 C 0.92702 0.37405 0.68353 0.0
C934 C 0.11446 0.40106 0.71907 0.0
C935 C 0.89221 0.36752 0.7637 0.0
C936 C 0.10203 0.37302 0.84685 0.0
C937 C 0.06163 0.38064 0.88044 0.0
C938 C 0.08824 0.37478 0.80131 0.0
C939 C 1.02999 0.38411 0.78884 0.0
C940 C 0.99118 0.39217 0.82258 0.0
C941 C 1.00837 0.39045 0.86796 0.0
C942 C 0.13306 0.36618 0.76674 0.0
C943 C 0.92733 0.40204 0.81124 0.0
H944 H 0.06401 0.39582 0.63635 0.0
H945 H 0.88265 0.3669 0.67401 0.0
H946 H 0.09326 0.40694 0.74861 0.0
H947 H 0.17045 0.39559 0.72802 0.0
H948 H 0.13385 0.40744 0.69049 0.0
H949 H 0.83866 0.36255 0.74955 0.0
H950 H 0.9346 0.36026 0.77682 0.0
H951 H 0.86736 0.37343 0.79252 0.0
H952 H 0.14331 0.36543 0.85636 0.0
H953 H 0.9761 0.39625 0.8939 0.0
H954 H 0.16075 0.37183 0.73791 0.0
H955 H 0.08725 0.35945 0.75363 0.0
H956 H 0.18403 0.36058 0.7809 0.0
H957 H 0.95122 0.40772 0.78167 0.0
H958 H 0.91097 0.40857 0.83979 0.0
H959 H 0.86893 0.39721 0.80231 0.0
C960 C 0.52628 0.88055 0.16941 0.0
C961 C 0.55875 0.89211 0.15217 0.0
C962 C 0.51553 0.87841 0.21637 0.0
C963 C 0.53914 0.88796 0.24671 0.0
C964 C 0.57574 0.89935 0.22903 0.0
C965 C 0.58418 0.90132 0.18233 0.0
C966 C 0.4754 0.86619 0.23351 0.0
C967 C 0.6034 0.90975 0.25953 0.0
C968 C 0.43339 0.89303 0.36436 0.0
C969 C 0.49448 0.88858 0.39204 0.0
C970 C 0.44467 0.89206 0.31726 0.0
C971 C 0.51992 0.88672 0.29676 0.0
C972 C 0.58035 0.88168 0.32466 0.0
C973 C 0.56659 0.88257 0.37193 0.0
C974 C 0.37758 0.89736 0.28935 0.0
C975 C 0.66183 0.87603 0.30458 0.0
H976 H 0.50603 0.87342 0.14636 0.0
H977 H 0.60984 0.91025 0.16935 0.0
H978 H 0.51278 0.86186 0.25944 0.0
H979 H 0.41169 0.86824 0.24963 0.0
H980 H 0.46921 0.85917 0.20616 0.0
H981 H 0.63744 0.91752 0.24062 0.0
H982 H 0.54751 0.91388 0.27875 0.0
H983 H 0.64516 0.9058 0.28419 0.0
H984 H 0.37715 0.8976 0.37961 0.0
H985 H 0.61425 0.87913 0.39302 0.0
H986 H 0.36239 0.89043 0.26317 0.0
H987 H 0.40131 0.90612 0.27195 0.0
H988 H 0.31872 0.89975 0.31006 0.0
H989 H 0.6496 0.86917 0.27767 0.0
H990 H 0.69736 0.87113 0.33016 0.0
H991 H 0.70204 0.88371 0.28903 0.0
C992 C 0.45856 0.14158 0.17832 0.0
C993 C 0.52876 0.1446 0.14905 0.0
C994 C 0.46536 0.14088 0.22519 0.0
C995 C 0.54457 0.14294 0.24299 0.0
C996 C 0.61648 0.14506 0.21295 0.0
C997 C 0.60743 0.14605 0.16663 0.0
C998 C 0.38678 0.13877 0.2558 0.0
C999 C 0.70257 0.147 0.22985 0.0
C1000 C 0.55557 0.15872 0.35724 0.0
C1001 C 0.5723 0.14847 0.38534 0.0
C1002 C 0.54415 0.15694 0.31149 0.0
C1003 C 0.55099 0.14458 0.29262 0.0
C1004 C 0.56804 0.13415 0.3208 0.0
C1005 C 0.5778 0.1362 0.36694 0.0
C1006 C 0.52527 0.16836 0.28322 0.0
C1007 C 0.57734 0.12086 0.30204 0.0
H1008 H 0.39756 0.14051 0.1649 0.0
H1009 H 0.66208 0.14827 0.14406 0.0
H1010 H 0.39784 0.13141 0.28131 0.0
H1011 H 0.36998 0.14772 0.27407 0.0
H1012 H 0.33242 0.13584 0.237 0.0
H1013 H 0.75344 0.14668 0.20224 0.0
H1014 H 0.70482 0.1564 0.24659 0.0
H1015 H 0.71543 0.13965 0.25508 0.0
H1016 H 0.55057 0.16823 0.37118 0.0
H1017 H 0.59046 0.12823 0.38847 0.0
H1018 H 0.46707 0.1667 0.26586 0.0
H1019 H 0.57747 0.16987 0.25697 0.0
H1020 H 0.517 0.1772 0.30346 0.0
H1021 H 0.52026 0.11819 0.28512 0.0
H1022 H 0.58767 0.11371 0.32845 0.0
H1023 H 0.63143 0.12052 0.27632 0.0
C1024 C 0.4548 0.1288 0.85903 0.0
C1025 C 0.50535 0.13578 0.88668 0.0
C1026 C 0.46625 0.12958 0.81193 0.0
C1027 C 0.52992 0.13756 0.7915 0.0
C1028 C 0.57945 0.14496 0.81926 0.0
C1029 C 0.5666 0.14399 0.86648 0.0
C1030 C 0.4118 0.12151 0.784 0.0
C1031 C 0.64773 0.15363 0.79907 0.0
C1032 C 0.61543 0.12704 0.67452 0.0
C1033 C 0.57031 0.13475 0.64636 0.0
C1034 C 0.60505 0.12819 0.72155 0.0
C1035 C 0.54816 0.13732 0.74136 0.0
C1036 C 0.50471 0.14548 0.71304 0.0
C1037 C 0.51624 0.1441 0.6659 0.0
C1038 C 0.65289 0.11928 0.75009 0.0
C1039 C 0.44393 0.1554 0.73256 0.0
H1040 H 0.40691 0.1225 0.87427 0.0
H1041 H 0.60574 0.14945 0.88755 0.0
H1042 H 0.38137 0.12751 0.7593 0.0
H1043 H 0.45154 0.11441 0.76475 0.0
H1044 H 0.36193 0.11637 0.80483 0.0
H1045 H 0.67586 0.15954 0.82486 0.0
H1046 H 0.69844 0.14786 0.78143 0.0
H1047 H 0.62215 0.15999 0.77377 0.0
H1048 H 0.65781 0.11985 0.65978 0.0
H1049 H 0.48142 0.15014 0.64441 0.0
H1050 H 0.60793 0.11298 0.76971 0.0
H1051 H 0.68765 0.12476 0.77445 0.0
H1052 H 0.69853 0.11325 0.72965 0.0
H1053 H 0.38868 0.15066 0.75026 0.0
H1054 H 0.42121 0.16177 0.70636 0.0
H1055 H 0.4742 0.16126 0.75767 0.0
C1056 C 0.5275 0.88957 0.67126 0.0
C1057 C 0.47802 0.87943 0.65778 0.0
C1058 C 0.54385 0.89117 0.71682 0.0
C1059 C 0.5079 0.88265 0.74991 0.0
C1060 C 0.45343 0.87292 0.7365 0.0
C1061 C 0.44055 0.8713 0.69073 0.0
C1062 C 0.60388 0.90146 0.72906 0.0
C1063 C 0.41142 0.86383 0.77034 0.0
C1064 C 0.61386 0.87341 0.85563 0.0
C1065 C 0.56783 0.88034 0.88924 0.0
C1066 C 0.59883 0.87478 0.81003 0.0
C1067 C 0.53343 0.88292 0.7975 0.0
C1068 C 0.48824 0.89025 0.8313 0.0
C1069 C 0.50686 0.88902 0.8767 0.0
C1070 C 0.65065 0.86703 0.77546 0.0
C1071 C 0.4165 0.89877 0.82002 0.0
H1072 H 0.55757 0.89579 0.64588 0.0
H1073 H 0.4022 0.86345 0.68053 0.0
H1074 H 0.57712 0.90692 0.75856 0.0
H1075 H 0.66338 0.89704 0.7385 0.0
H1076 H 0.61902 0.90816 0.70082 0.0
H1077 H 0.36275 0.85791 0.75561 0.0
H1078 H 0.45941 0.8574 0.78321 0.0
H1079 H 0.38141 0.86913 0.79944 0.0
H1080 H 0.66079 0.86664 0.86518 0.0
H1081 H 0.46997 0.89423 0.90263 0.0
H1082 H 0.67372 0.87313 0.74677 0.0
H1083 H 0.61089 0.85948 0.76211 0.0
H1084 H 0.70567 0.86246 0.78967 0.0
H1085 H 0.43585 0.90495 0.79095 0.0
H1086 H 0.39373 0.90486 0.84883 0.0
H1087 H 0.36326 0.89282 0.8103 0.0
loop_
_geom_bond_atom_site_label_1
_geom_bond_atom_site_label_2
_geom_bond_distance
_geom_bond_site_symmetry_2
_ccdc_geom_bond_type
Sm0 C2 2.846 1_455 S
Sm0 O20 2.543 1_554 S
Sm0 O21 2.450 . S
Sm0 O22 2.681 . S
Sm0 O23 2.464 . S
Sm0 O24 2.396 1_455 S
Sm0 O28 2.386 1_554 S
Sm0 O31 2.408 . S
Sm1 C11 2.846 . S
Sm1 O22 2.386 . S
Sm1 O25 2.408 1_455 S
Sm1 O26 2.543 . S
Sm1 O27 2.450 1_554 S
Sm1 O28 2.681 1_554 S
Sm1 O29 2.464 1_554 S
Sm1 O30 2.396 1_554 S
C2 Sm0 2.846 1_655 S
C2 C3 1.506 . S
C2 O20 1.261 1_654 S
C2 O21 1.242 1_655 S
C3 C2 1.506 . S
C3 C4 1.358 1_554 S
C3 C8 1.382 . S
C4 C3 1.358 1_556 S
C4 C5 1.385 . S
C4 H32 0.930 . S
C5 C4 1.385 . S
C5 C6 1.395 1_556 S
C5 H33 0.929 . S
C6 C5 1.395 1_554 S
C6 C7 1.335 . S
C7 C6 1.335 . S
C7 C8 1.398 . S
C7 H34 0.930 . S
C8 C3 1.382 . S
C8 C7 1.398 . S
C8 H35 0.929 . S
C9 O22 1.271 . S
C9 O23 1.251 . S
C10 O24 1.252 . S
C10 O25 1.272 . S
C11 Sm1 2.846 . S
C11 C12 1.506 . S
C11 O26 1.261 . S
C11 O27 1.242 1_554 S
C12 C11 1.506 . S
C12 C13 1.358 . S
C12 C17 1.382 1_554 S
C13 C12 1.358 . S
C13 C14 1.385 . S
C13 H36 0.930 . S
C14 C13 1.385 . S
C14 C15 1.395 . S
C14 H37 0.929 . S
C15 C14 1.395 . S
C15 C16 1.335 1_554 S
C16 C15 1.335 1_556 S
C16 C17 1.398 . S
C16 H38 0.930 . S
C17 C12 1.382 1_556 S
C17 C16 1.398 . S
C17 H39 0.929 . S
C18 O28 1.271 . S
C18 O29 1.251 . S
C19 O30 1.252 1_554 S
C19 O31 1.272 . S
O20 Sm0 2.543 1_556 S
O20 C2 1.261 1_456 S
O21 Sm0 2.450 . S
O21 C2 1.242 1_455 S
O22 Sm0 2.681 . S
O22 Sm1 2.386 . S
O22 C9 1.271 . S
O23 Sm0 2.464 . S
O23 C9 1.251 . S
O24 Sm0 2.396 1_655 S
O24 C10 1.252 . S
O25 Sm1 2.408 1_655 S
O25 C10 1.272 . S
O26 Sm1 2.543 . S
O26 C11 1.261 . S
O27 Sm1 2.450 1_556 S
O27 C11 1.242 1_556 S
O28 Sm0 2.386 1_556 S
O28 Sm1 2.681 1_556 S
O28 C18 1.271 . S
O29 Sm1 2.464 1_556 S
O29 C18 1.251 . S
O30 Sm1 2.396 1_556 S
O30 C19 1.252 1_556 S
O31 Sm0 2.408 . S
O31 C19 1.272 . S
H32 C4 0.930 . S
H33 C5 0.929 . S
H34 C7 0.930 . S
H35 C8 0.929 . S
H36 C13 0.930 . S
H37 C14 0.929 . S
H38 C16 0.930 . S
H39 C17 0.929 . S
Sm40 C42 2.846 . S
Sm40 O60 2.543 1_554 S
Sm40 O61 2.450 . S
Sm40 O62 2.681 . S
Sm40 O63 2.464 . S
Sm40 O64 2.396 . S
Sm40 O68 2.386 1_554 S
Sm40 O71 2.408 1_655 S
Sm41 C51 2.846 1_655 S
Sm41 O62 2.386 . S
Sm41 O65 2.408 . S
Sm41 O66 2.543 . S
Sm41 O67 2.450 1_554 S
Sm41 O68 2.681 1_554 S
Sm41 O69 2.464 1_554 S
Sm41 O70 2.396 1_654 S
C42 Sm40 2.846 . S
C42 C43 1.506 . S
C42 O60 1.261 1_554 S
C42 O61 1.242 . S
C43 C42 1.506 . S
C43 C44 1.358 1_554 S
C43 C48 1.382 . S
C44 C43 1.358 1_556 S
C44 C45 1.385 . S
C44 H72 0.930 . S
C45 C44 1.385 . S
C45 C46 1.395 1_556 S
C45 H73 0.929 . S
C46 C45 1.395 1_554 S
C46 C47 1.335 . S
C47 C46 1.335 . S
C47 C48 1.398 . S
C47 H74 0.930 . S
C48 C43 1.382 . S
C48 C47 1.398 . S
C48 H75 0.929 . S
C49 O62 1.271 . S
C49 O63 1.251 . S
C50 O64 1.252 . S
C50 O65 1.272 . S
C51 Sm41 2.846 1_455 S
C51 C52 1.506 . S
C51 O66 1.261 1_455 S
C51 O67 1.242 1_454 S
C52 C51 1.506 . S
C52 C53 1.358 . S
C52 C57 1.382 1_554 S
C53 C52 1.358 . S
C53 C54 1.385 . S
C53 H76 0.930 . S
C54 C53 1.385 . S
C54 C55 1.395 . S
C54 H77 0.929 . S
C55 C54 1.395 . S
C55 C56 1.335 1_554 S
C56 C55 1.335 1_556 S
C56 C57 1.398 . S
C56 H78 0.930 . S
C57 C52 1.382 1_556 S
C57 C56 1.398 . S
C57 H79 0.929 . S
C58 O68 1.271 . S
C58 O69 1.251 . S
C59 O70 1.252 1_554 S
C59 O71 1.272 . S
O60 Sm40 2.543 1_556 S
O60 C42 1.261 1_556 S
O61 Sm40 2.450 . S
O61 C42 1.242 . S
O62 Sm40 2.681 . S
O62 Sm41 2.386 . S
O62 C49 1.271 . S
O63 Sm40 2.464 . S
O63 C49 1.251 . S
O64 Sm40 2.396 . S
O64 C50 1.252 . S
O65 Sm41 2.408 . S
O65 C50 1.272 . S
O66 Sm41 2.543 . S
O66 C51 1.261 1_655 S
O67 Sm41 2.450 1_556 S
O67 C51 1.242 1_656 S
O68 Sm40 2.386 1_556 S
O68 Sm41 2.681 1_556 S
O68 C58 1.271 . S
O69 Sm41 2.464 1_556 S
O69 C58 1.251 . S
O70 Sm41 2.396 1_456 S
O70 C59 1.252 1_556 S
O71 Sm40 2.408 1_455 S
O71 C59 1.272 . S
H72 C44 0.930 . S
H73 C45 0.929 . S
H74 C47 0.930 . S
H75 C48 0.929 . S
H76 C53 0.930 . S
H77 C54 0.929 . S
H78 C56 0.930 . S
H79 C57 0.929 . S
Sm80 C82 2.846 . S
Sm80 O100 2.543 . S
Sm80 O101 2.450 . S
Sm80 O102 2.681 . S
Sm80 O103 2.464 . S
Sm80 O104 2.396 . S
Sm80 O108 2.386 . S
Sm80 O111 2.408 1_455 S
Sm81 C91 2.846 1_455 S
Sm81 O102 2.386 . S
Sm81 O105 2.408 . S
Sm81 O106 2.543 . S
Sm81 O107 2.450 . S
Sm81 O108 2.681 . S
Sm81 O109 2.464 . S
Sm81 O110 2.396 1_455 S
C82 Sm80 2.846 . S
C82 C83 1.506 . S
C82 O100 1.261 . S
C82 O101 1.242 . S
C83 C82 1.506 . S
C83 C84 1.358 . S
C83 C88 1.382 . S
C84 C83 1.358 . S
C84 C85 1.385 . S
C84 H112 0.930 . S
C85 C84 1.385 . S
C85 C86 1.395 . S
C85 H113 0.929 . S
C86 C85 1.395 . S
C86 C87 1.335 . S
C87 C86 1.335 . S
C87 C88 1.398 . S
C87 H114 0.930 . S
C88 C83 1.382 . S
C88 C87 1.398 . S
C88 H115 0.929 . S
C89 O102 1.271 . S
C89 O103 1.251 . S
C90 O104 1.252 . S
C90 O105 1.272 . S
C91 Sm81 2.846 1_655 S
C91 C92 1.506 . S
C91 O106 1.261 1_655 S
C91 O107 1.242 1_655 S
C92 C91 1.506 . S
C92 C93 1.358 . S
C92 C97 1.382 . S
C93 C92 1.358 . S
C93 C94 1.385 . S
C93 H116 0.930 . S
C94 C93 1.385 . S
C94 C95 1.395 . S
C94 H117 0.929 . S
C95 C94 1.395 . S
C95 C96 1.335 . S
C96 C95 1.335 . S
C96 C97 1.398 . S
C96 H118 0.930 . S
C97 C92 1.382 . S
C97 C96 1.398 . S
C97 H119 0.929 . S
C98 O108 1.271 . S
C98 O109 1.251 . S
C99 O110 1.252 . S
C99 O111 1.272 . S
O100 Sm80 2.543 . S
O100 C82 1.261 . S
O101 Sm80 2.450 . S
O101 C82 1.242 . S
O102 Sm80 2.681 . S
O102 Sm81 2.386 . S
O102 C89 1.271 . S
O103 Sm80 2.464 . S
O103 C89 1.251 . S
O104 Sm80 2.396 . S
O104 C90 1.252 . S
O105 Sm81 2.408 . S
O105 C90 1.272 . S
O106 Sm81 2.543 . S
O106 C91 1.261 1_455 S
O107 Sm81 2.450 . S
O107 C91 1.242 1_455 S
O108 Sm80 2.386 . S
O108 Sm81 2.681 . S
O108 C98 1.271 . S
O109 Sm81 2.464 . S
O109 C98 1.251 . S
O110 Sm81 2.396 1_655 S
O110 C99 1.252 . S
O111 Sm80 2.408 1_655 S
O111 C99 1.272 . S
H112 C84 0.930 . S
H113 C85 0.929 . S
H114 C87 0.930 . S
H115 C88 0.929 . S
H116 C93 0.930 . S
H117 C94 0.929 . S
H118 C96 0.930 . S
H119 C97 0.929 . S
Sm120 C122 2.846 1_655 S
Sm120 O140 2.543 . S
Sm120 O141 2.450 . S
Sm120 O142 2.681 . S
Sm120 O143 2.464 . S
Sm120 O144 2.396 1_655 S
Sm120 O148 2.386 . S
Sm120 O151 2.408 . S
Sm121 C131 2.846 . S
Sm121 O142 2.386 . S
Sm121 O145 2.408 1_655 S
Sm121 O146 2.543 . S
Sm121 O147 2.450 . S
Sm121 O148 2.681 . S
Sm121 O149 2.464 . S
Sm121 O150 2.396 . S
C122 Sm120 2.846 1_455 S
C122 C123 1.506 . S
C122 O140 1.261 1_455 S
C122 O141 1.242 1_455 S
C123 C122 1.506 . S
C123 C124 1.358 . S
C123 C128 1.382 . S
C124 C123 1.358 . S
C124 C125 1.385 . S
C124 H152 0.930 . S
C125 C124 1.385 . S
C125 C126 1.395 . S
C125 H153 0.929 . S
C126 C125 1.395 . S
C126 C127 1.335 . S
C127 C126 1.335 . S
C127 C128 1.398 . S
C127 H154 0.930 . S
C128 C123 1.382 . S
C128 C127 1.398 . S
C128 H155 0.929 . S
C129 O142 1.271 . S
C129 O143 1.251 . S
C130 O144 1.252 . S
C130 O145 1.272 . S
C131 Sm121 2.846 . S
C131 C132 1.506 . S
C131 O146 1.261 . S
C131 O147 1.242 . S
C132 C131 1.506 . S
C132 C133 1.358 . S
C132 C137 1.382 . S
C133 C132 1.358 . S
C133 C134 1.385 . S
C133 H156 0.930 . S
C134 C133 1.385 . S
C134 C135 1.395 . S
C134 H157 0.929 . S
C135 C134 1.395 . S
C135 C136 1.335 . S
C136 C135 1.335 . S
C136 C137 1.398 . S
C136 H158 0.930 . S
C137 C132 1.382 . S
C137 C136 1.398 . S
C137 H159 0.929 . S
C138 O148 1.271 . S
C138 O149 1.251 . S
C139 O150 1.252 . S
C139 O151 1.272 . S
O140 Sm120 2.543 . S
O140 C122 1.261 1_655 S
O141 Sm120 2.450 . S
O141 C122 1.242 1_655 S
O142 Sm120 2.681 . S
O142 Sm121 2.386 . S
O142 C129 1.271 . S
O143 Sm120 2.464 . S
O143 C129 1.251 . S
O144 Sm120 2.396 1_455 S
O144 C130 1.252 . S
O145 Sm121 2.408 1_455 S
O145 C130 1.272 . S
O146 Sm121 2.543 . S
O146 C131 1.261 . S
O147 Sm121 2.450 . S
O147 C131 1.242 . S
O148 Sm120 2.386 . S
O148 Sm121 2.681 . S
O148 C138 1.271 . S
O149 Sm121 2.464 . S
O149 C138 1.251 . S
O150 Sm121 2.396 . S
O150 C139 1.252 . S
O151 Sm120 2.408 . S
O151 C139 1.272 . S
H152 C124 0.930 . S
H153 C125 0.929 . S
H154 C127 0.930 . S
H155 C128 0.929 . S
H156 C133 0.930 . S
H157 C134 0.929 . S
H158 C136 0.930 . S
H159 C137 0.929 . S
Sm160 C162 2.846 . S
Sm160 O180 2.543 1_554 S
Sm160 O181 2.450 . S
Sm160 O182 2.681 . S
Sm160 O183 2.464 . S
Sm160 O184 2.396 . S
Sm160 O188 2.386 1_554 S
Sm160 O191 2.408 . S
Sm161 C171 2.846 . S
Sm161 O182 2.386 . S
Sm161 O185 2.408 . S
Sm161 O186 2.543 . S
Sm161 O187 2.450 1_554 S
Sm161 O188 2.681 1_554 S
Sm161 O189 2.464 1_554 S
Sm161 O190 2.396 1_554 S
C162 Sm160 2.846 . S
C162 C163 1.506 . S
C162 O180 1.261 1_554 S
C162 O181 1.242 . S
C163 C162 1.506 . S
C163 C164 1.358 1_554 S
C163 C168 1.382 . S
C164 C163 1.358 1_556 S
C164 C165 1.385 . S
C164 H192 0.930 . S
C165 C164 1.385 . S
C165 C166 1.395 1_556 S
C165 H193 0.929 . S
C166 C165 1.395 1_554 S
C166 C167 1.335 . S
C167 C166 1.335 . S
C167 C168 1.398 . S
C167 H194 0.930 . S
C168 C163 1.382 . S
C168 C167 1.398 . S
C168 H195 0.929 . S
C169 O182 1.271 . S
C169 O183 1.251 . S
C170 O184 1.252 . S
C170 O185 1.272 . S
C171 Sm161 2.846 . S
C171 C172 1.506 . S
C171 O186 1.261 . S
C171 O187 1.242 1_554 S
C172 C171 1.506 . S
C172 C173 1.358 . S
C172 C177 1.382 1_554 S
C173 C172 1.358 . S
C173 C174 1.385 . S
C173 H196 0.930 . S
C174 C173 1.385 . S
C174 C175 1.395 . S
C174 H197 0.929 . S
C175 C174 1.395 . S
C175 C176 1.335 1_554 S
C176 C175 1.335 1_556 S
C176 C177 1.398 . S
C176 H198 0.930 . S
C177 C172 1.382 1_556 S
C177 C176 1.398 . S
C177 H199 0.929 . S
C178 O188 1.271 . S
C178 O189 1.251 . S
C179 O190 1.252 1_554 S
C179 O191 1.272 . S
O180 Sm160 2.543 1_556 S
O180 C162 1.261 1_556 S
O181 Sm160 2.450 . S
O181 C162 1.242 . S
O182 Sm160 2.681 . S
O182 Sm161 2.386 . S
O182 C169 1.271 . S
O183 Sm160 2.464 . S
O183 C169 1.251 . S
O184 Sm160 2.396 . S
O184 C170 1.252 . S
O185 Sm161 2.408 . S
O185 C170 1.272 . S
O186 Sm161 2.543 . S
O186 C171 1.261 . S
O187 Sm161 2.450 1_556 S
O187 C171 1.242 1_556 S
O188 Sm160 2.386 1_556 S
O188 Sm161 2.681 1_556 S
O188 C178 1.271 . S
O189 Sm161 2.464 1_556 S
O189 C178 1.251 . S
O190 Sm161 2.396 1_556 S
O190 C179 1.252 1_556 S
O191 Sm160 2.408 . S
O191 C179 1.272 . S
H192 C164 0.930 . S
H193 C165 0.929 . S
H194 C167 0.930 . S
H195 C168 0.929 . S
H196 C173 0.930 . S
H197 C174 0.929 . S
H198 C176 0.930 . S
H199 C177 0.929 . S
Sm200 C202 2.846 . S
Sm200 O220 2.543 1_554 S
Sm200 O221 2.450 . S
Sm200 O222 2.681 . S
Sm200 O223 2.464 . S
Sm200 O224 2.396 . S
Sm200 O228 2.386 1_554 S
Sm200 O231 2.408 . S
Sm201 C211 2.846 . S
Sm201 O222 2.386 . S
Sm201 O225 2.408 . S
Sm201 O226 2.543 . S
Sm201 O227 2.450 1_554 S
Sm201 O228 2.681 1_554 S
Sm201 O229 2.464 1_554 S
Sm201 O230 2.396 1_554 S
C202 Sm200 2.846 . S
C202 C203 1.506 . S
C202 O220 1.261 1_554 S
C202 O221 1.242 . S
C203 C202 1.506 . S
C203 C204 1.358 1_554 S
C203 C208 1.382 . S
C204 C203 1.358 1_556 S
C204 C205 1.385 . S
C204 H232 0.930 . S
C205 C204 1.385 . S
C205 C206 1.395 1_556 S
C205 H233 0.929 . S
C206 C205 1.395 1_554 S
C206 C207 1.335 . S
C207 C206 1.335 . S
C207 C208 1.398 . S
C207 H234 0.930 . S
C208 C203 1.382 . S
C208 C207 1.398 . S
C208 H235 0.929 . S
C209 O222 1.271 . S
C209 O223 1.251 . S
C210 O224 1.252 . S
C210 O225 1.272 . S
C211 Sm201 2.846 . S
C211 C212 1.506 . S
C211 O226 1.261 . S
C211 O227 1.242 1_554 S
C212 C211 1.506 . S
C212 C213 1.358 . S
C212 C217 1.382 1_554 S
C213 C212 1.358 . S
C213 C214 1.385 . S
C213 H236 0.930 . S
C214 C213 1.385 . S
C214 C215 1.395 . S
C214 H237 0.929 . S
C215 C214 1.395 . S
C215 C216 1.335 1_554 S
C216 C215 1.335 1_556 S
C216 C217 1.398 . S
C216 H238 0.930 . S
C217 C212 1.382 1_556 S
C217 C216 1.398 . S
C217 H239 0.929 . S
C218 O228 1.271 . S
C218 O229 1.251 . S
C219 O230 1.252 1_554 S
C219 O231 1.272 . S
O220 Sm200 2.543 1_556 S
O220 C202 1.261 1_556 S
O221 Sm200 2.450 . S
O221 C202 1.242 . S
O222 Sm200 2.681 . S
O222 Sm201 2.386 . S
O222 C209 1.271 . S
O223 Sm200 2.464 . S
O223 C209 1.251 . S
O224 Sm200 2.396 . S
O224 C210 1.252 . S
O225 Sm201 2.408 . S
O225 C210 1.272 . S
O226 Sm201 2.543 . S
O226 C211 1.261 . S
O227 Sm201 2.450 1_556 S
O227 C211 1.242 1_556 S
O228 Sm200 2.386 1_556 S
O228 Sm201 2.681 1_556 S
O228 C218 1.271 . S
O229 Sm201 2.464 1_556 S
O229 C218 1.251 . S
O230 Sm201 2.396 1_556 S
O230 C219 1.252 1_556 S
O231 Sm200 2.408 . S
O231 C219 1.272 . S
H232 C204 0.930 . S
H233 C205 0.929 . S
H234 C207 0.930 . S
H235 C208 0.929 . S
H236 C213 0.930 . S
H237 C214 0.929 . S
H238 C216 0.930 . S
H239 C217 0.929 . S
Sm240 C242 2.846 . S
Sm240 O260 2.543 . S
Sm240 O261 2.450 . S
Sm240 O262 2.681 . S
Sm240 O263 2.464 . S
Sm240 O264 2.396 . S
Sm240 O268 2.386 . S
Sm240 O271 2.408 . S
Sm241 C251 2.846 . S
Sm241 O262 2.386 . S
Sm241 O265 2.408 . S
Sm241 O266 2.543 . S
Sm241 O267 2.450 . S
Sm241 O268 2.681 . S
Sm241 O269 2.464 . S
Sm241 O270 2.396 . S
C242 Sm240 2.846 . S
C242 C243 1.506 . S
C242 O260 1.261 . S
C242 O261 1.242 . S
C243 C242 1.506 . S
C243 C244 1.358 . S
C243 C248 1.382 . S
C244 C243 1.358 . S
C244 C245 1.385 . S
C244 H272 0.930 . S
C245 C244 1.385 . S
C245 C246 1.395 . S
C245 H273 0.929 . S
C246 C245 1.395 . S
C246 C247 1.335 . S
C247 C246 1.335 . S
C247 C248 1.398 . S
C247 H274 0.930 . S
C248 C243 1.382 . S
C248 C247 1.398 . S
C248 H275 0.929 . S
C249 O262 1.271 . S
C249 O263 1.251 . S
C250 O264 1.252 . S
C250 O265 1.272 . S
C251 Sm241 2.846 . S
C251 C252 1.506 . S
C251 O266 1.261 . S
C251 O267 1.242 . S
C252 C251 1.506 . S
C252 C253 1.358 . S
C252 C257 1.382 . S
C253 C252 1.358 . S
C253 C254 1.385 . S
C253 H276 0.930 . S
C254 C253 1.385 . S
C254 C255 1.395 . S
C254 H277 0.929 . S
C255 C254 1.395 . S
C255 C256 1.335 . S
C256 C255 1.335 . S
C256 C257 1.398 . S
C256 H278 0.930 . S
C257 C252 1.382 . S
C257 C256 1.398 . S
C257 H279 0.929 . S
C258 O268 1.271 . S
C258 O269 1.251 . S
C259 O270 1.252 . S
C259 O271 1.272 . S
O260 Sm240 2.543 . S
O260 C242 1.261 . S
O261 Sm240 2.450 . S
O261 C242 1.242 . S
O262 Sm240 2.681 . S
O262 Sm241 2.386 . S
O262 C249 1.271 . S
O263 Sm240 2.464 . S
O263 C249 1.251 . S
O264 Sm240 2.396 . S
O264 C250 1.252 . S
O265 Sm241 2.408 . S
O265 C250 1.272 . S
O266 Sm241 2.543 . S
O266 C251 1.261 . S
O267 Sm241 2.450 . S
O267 C251 1.242 . S
O268 Sm240 2.386 . S
O268 Sm241 2.681 . S
O268 C258 1.271 . S
O269 Sm241 2.464 . S
O269 C258 1.251 . S
O270 Sm241 2.396 . S
O270 C259 1.252 . S
O271 Sm240 2.408 . S
O271 C259 1.272 . S
H272 C244 0.930 . S
H273 C245 0.929 . S
H274 C247 0.930 . S
H275 C248 0.929 . S
H276 C253 0.930 . S
H277 C254 0.929 . S
H278 C256 0.930 . S
H279 C257 0.929 . S
Sm280 C282 2.846 . S
Sm280 O300 2.543 . S
Sm280 O301 2.450 . S
Sm280 O302 2.681 . S
Sm280 O303 2.464 . S
Sm280 O304 2.396 . S
Sm280 O308 2.386 . S
Sm280 O311 2.408 . S
Sm281 C291 2.846 . S
Sm281 O302 2.386 . S
Sm281 O305 2.408 . S
Sm281 O306 2.543 . S
Sm281 O307 2.450 . S
Sm281 O308 2.681 . S
Sm281 O309 2.464 . S
Sm281 O310 2.396 . S
C282 Sm280 2.846 . S
C282 C283 1.506 . S
C282 O300 1.261 . S
C282 O301 1.242 . S
C283 C282 1.506 . S
C283 C284 1.358 . S
C283 C288 1.382 . S
C284 C283 1.358 . S
C284 C285 1.385 . S
C284 H312 0.930 . S
C285 C284 1.385 . S
C285 C286 1.395 . S
C285 H313 0.929 . S
C286 C285 1.395 . S
C286 C287 1.335 . S
C287 C286 1.335 . S
C287 C288 1.398 . S
C287 H314 0.930 . S
C288 C283 1.382 . S
C288 C287 1.398 . S
C288 H315 0.929 . S
C289 O302 1.271 . S
C289 O303 1.251 . S
C290 O304 1.252 . S
C290 O305 1.272 . S
C291 Sm281 2.846 . S
C291 C292 1.506 . S
C291 O306 1.261 . S
C291 O307 1.242 . S
C292 C291 1.506 . S
C292 C293 1.358 . S
C292 C297 1.382 . S
C293 C292 1.358 . S
C293 C294 1.385 . S
C293 H316 0.930 . S
C294 C293 1.385 . S
C294 C295 1.395 . S
C294 H317 0.929 . S
C295 C294 1.395 . S
C295 C296 1.335 . S
C296 C295 1.335 . S
C296 C297 1.398 . S
C296 H318 0.930 . S
C297 C292 1.382 . S
C297 C296 1.398 . S
C297 H319 0.929 . S
C298 O308 1.271 . S
C298 O309 1.251 . S
C299 O310 1.252 . S
C299 O311 1.272 . S
O300 Sm280 2.543 . S
O300 C282 1.261 . S
O301 Sm280 2.450 . S
O301 C282 1.242 . S
O302 Sm280 2.681 . S
O302 Sm281 2.386 . S
O302 C289 1.271 . S
O303 Sm280 2.464 . S
O303 C289 1.251 . S
O304 Sm280 2.396 . S
O304 C290 1.252 . S
O305 Sm281 2.408 . S
O305 C290 1.272 . S
O306 Sm281 2.543 . S
O306 C291 1.261 . S
O307 Sm281 2.450 . S
O307 C291 1.242 . S
O308 Sm280 2.386 . S
O308 Sm281 2.681 . S
O308 C298 1.271 . S
O309 Sm281 2.464 . S
O309 C298 1.251 . S
O310 Sm281 2.396 . S
O310 C299 1.252 . S
O311 Sm280 2.408 . S
O311 C299 1.272 . S
H312 C284 0.930 . S
H313 C285 0.929 . S
H314 C287 0.930 . S
H315 C288 0.929 . S
H316 C293 0.930 . S
H317 C294 0.929 . S
H318 C296 0.930 . S
H319 C297 0.929 . S
C320 C321 1.391 1_556 S
C320 C322 1.394 . S
C320 H336 0.931 . S
C321 C320 1.391 1_554 S
C321 C325 1.376 . S
C322 C320 1.394 . S
C322 C323 1.369 1_556 S
C322 C326 1.531 . S
C323 C322 1.369 1_554 S
C323 C324 1.410 . S
C323 C331 1.503 . S
C324 C323 1.410 . S
C324 C325 1.392 . S
C324 C327 1.511 . S
C325 C321 1.376 . S
C325 C324 1.392 . S
C325 H337 0.929 . S
C326 C322 1.531 . S
C326 H338 0.960 . S
C326 H339 0.962 . S
C326 H340 0.960 . S
C327 C324 1.511 . S
C327 H341 0.961 . S
C327 H342 0.961 . S
C327 H343 0.961 . S
C328 C329 1.370 . S
C328 C330 1.363 . S
C328 H344 0.931 . S
C329 C328 1.370 . S
C329 C333 1.408 . S
C330 C328 1.363 . S
C330 C331 1.370 . S
C330 C334 1.524 . S
C331 C323 1.503 . S
C331 C330 1.370 . S
C331 C332 1.403 . S
C332 C331 1.403 . S
C332 C333 1.404 . S
C332 C335 1.539 1_554 S
C333 C329 1.408 . S
C333 C332 1.404 . S
C333 H345 0.927 1_554 S
C334 C330 1.524 . S
C334 H346 0.956 . S
C334 H347 0.961 . S
C334 H348 0.961 . S
C335 C332 1.539 1_556 S
C335 H349 0.958 . S
C335 H350 0.961 1_556 S
C335 H351 0.960 1_556 S
H336 C320 0.931 . S
H337 C325 0.929 . S
H338 C326 0.960 . S
H339 C326 0.962 . S
H340 C326 0.960 . S
H341 C327 0.961 . S
H342 C327 0.961 . S
H343 C327 0.961 . S
H344 C328 0.931 . S
H345 C333 0.927 1_556 S
H346 C334 0.956 . S
H347 C334 0.961 . S
H348 C334 0.961 . S
H349 C335 0.958 . S
H350 C335 0.961 1_554 S
H351 C335 0.960 1_554 S
C352 C353 1.391 1_556 S
C352 C354 1.394 . S
C352 H368 0.931 . S
C353 C352 1.391 1_554 S
C353 C357 1.376 . S
C354 C352 1.394 . S
C354 C355 1.369 1_556 S
C354 C358 1.531 . S
C355 C354 1.369 1_554 S
C355 C356 1.410 . S
C355 C363 1.503 . S
C356 C355 1.410 . S
C356 C357 1.392 . S
C356 C359 1.511 . S
C357 C353 1.376 . S
C357 C356 1.392 . S
C357 H369 0.929 . S
C358 C354 1.531 . S
C358 H370 0.960 . S
C358 H371 0.962 . S
C358 H372 0.960 . S
C359 C356 1.511 . S
C359 H373 0.961 . S
C359 H374 0.961 . S
C359 H375 0.961 . S
C360 C361 1.370 1_556 S
C360 C362 1.363 . S
C360 H376 0.931 . S
C361 C360 1.370 1_554 S
C361 C365 1.408 . S
C362 C360 1.363 . S
C362 C363 1.370 1_556 S
C362 C366 1.524 . S
C363 C355 1.503 . S
C363 C362 1.370 1_554 S
C363 C364 1.403 . S
C364 C363 1.403 . S
C364 C365 1.404 . S
C364 C367 1.539 . S
C365 C361 1.408 . S
C365 C364 1.404 . S
C365 H377 0.930 . S
C366 C362 1.524 . S
C366 H378 0.956 . S
C366 H379 0.961 . S
C366 H380 0.961 . S
C367 C364 1.539 . S
C367 H381 0.958 . S
C367 H382 0.961 . S
C367 H383 0.960 . S
H368 C352 0.931 . S
H369 C357 0.929 . S
H370 C358 0.960 . S
H371 C358 0.962 . S
H372 C358 0.960 . S
H373 C359 0.961 . S
H374 C359 0.961 . S
H375 C359 0.961 . S
H376 C360 0.931 . S
H377 C365 0.930 . S
H378 C366 0.956 . S
H379 C366 0.961 . S
H380 C366 0.961 . S
H381 C367 0.958 . S
H382 C367 0.961 . S
H383 C367 0.960 . S
C384 C385 1.391 . S
C384 C386 1.394 . S
C384 H400 0.931 . S
C385 C384 1.391 . S
C385 C389 1.376 . S
C386 C384 1.394 . S
C386 C387 1.369 . S
C386 C390 1.531 . S
C387 C386 1.369 . S
C387 C388 1.410 . S
C387 C395 1.503 . S
C388 C387 1.410 . S
C388 C389 1.392 . S
C388 C391 1.511 . S
C389 C385 1.376 . S
C389 C388 1.392 . S
C389 H401 0.929 . S
C390 C386 1.531 . S
C390 H402 0.960 . S
C390 H403 0.962 . S
C390 H404 0.960 . S
C391 C388 1.511 . S
C391 H405 0.961 . S
C391 H406 0.961 . S
C391 H407 0.961 . S
C392 C393 1.370 . S
C392 C394 1.363 . S
C392 H408 0.931 . S
C393 C392 1.370 . S
C393 C397 1.408 . S
C394 C392 1.363 . S
C394 C395 1.370 . S
C394 C398 1.524 . S
C395 C387 1.503 . S
C395 C394 1.370 . S
C395 C396 1.403 . S
C396 C395 1.403 . S
C396 C397 1.404 . S
C396 C399 1.539 . S
C397 C393 1.408 . S
C397 C396 1.404 . S
C397 H409 0.930 . S
C398 C394 1.524 . S
C398 H410 0.956 . S
C398 H411 0.961 . S
C398 H412 0.961 . S
C399 C396 1.539 . S
C399 H413 0.958 . S
C399 H414 0.961 . S
C399 H415 0.960 . S
H400 C384 0.931 . S
H401 C389 0.929 . S
H402 C390 0.960 . S
H403 C390 0.962 . S
H404 C390 0.960 . S
H405 C391 0.961 . S
H406 C391 0.961 . S
H407 C391 0.961 . S
H408 C392 0.931 . S
H409 C397 0.930 . S
H410 C398 0.956 . S
H411 C398 0.961 . S
H412 C398 0.961 . S
H413 C399 0.958 . S
H414 C399 0.961 . S
H415 C399 0.960 . S
C416 C417 1.391 . S
C416 C418 1.394 . S
C416 H432 0.931 . S
C417 C416 1.391 . S
C417 C421 1.376 . S
C418 C416 1.394 . S
C418 C419 1.369 . S
C418 C422 1.531 . S
C419 C418 1.369 . S
C419 C420 1.410 . S
C419 C427 1.503 . S
C420 C419 1.410 . S
C420 C421 1.392 . S
C420 C423 1.511 . S
C421 C417 1.376 . S
C421 C420 1.392 . S
C421 H433 0.929 . S
C422 C418 1.531 . S
C422 H434 0.960 . S
C422 H435 0.962 . S
C422 H436 0.960 . S
C423 C420 1.511 . S
C423 H437 0.961 . S
C423 H438 0.961 . S
C423 H439 0.961 . S
C424 C425 1.370 . S
C424 C426 1.363 . S
C424 H440 0.931 . S
C425 C424 1.370 . S
C425 C429 1.408 . S
C426 C424 1.363 . S
C426 C427 1.370 . S
C426 C430 1.524 . S
C427 C419 1.503 . S
C427 C426 1.370 . S
C427 C428 1.403 . S
C428 C427 1.403 . S
C428 C429 1.404 . S
C428 C431 1.539 . S
C429 C425 1.408 . S
C429 C428 1.404 . S
C429 H441 0.930 . S
C430 C426 1.524 . S
C430 H442 0.956 . S
C430 H443 0.961 . S
C430 H444 0.961 . S
C431 C428 1.539 . S
C431 H445 0.958 . S
C431 H446 0.961 . S
C431 H447 0.960 . S
H432 C416 0.931 . S
H433 C421 0.929 . S
H434 C422 0.960 . S
H435 C422 0.962 . S
H436 C422 0.960 . S
H437 C423 0.961 . S
H438 C423 0.961 . S
H439 C423 0.961 . S
H440 C424 0.931 . S
H441 C429 0.930 . S
H442 C430 0.956 . S
H443 C430 0.961 . S
H444 C430 0.961 . S
H445 C431 0.958 . S
H446 C431 0.961 . S
H447 C431 0.960 . S
C448 C449 1.391 . S
C448 C450 1.394 . S
C448 H464 0.931 . S
C449 C448 1.391 . S
C449 C453 1.376 . S
C450 C448 1.394 . S
C450 C451 1.369 1_655 S
C450 C454 1.531 . S
C451 C450 1.369 1_455 S
C451 C452 1.410 1_455 S
C451 C459 1.503 . S
C452 C451 1.410 1_655 S
C452 C453 1.392 . S
C452 C455 1.511 1_655 S
C453 C449 1.376 . S
C453 C452 1.392 . S
C453 H465 0.929 . S
C454 C450 1.531 . S
C454 H466 0.960 1_655 S
C454 H467 0.962 1_655 S
C454 H468 0.960 . S
C455 C452 1.511 1_455 S
C455 H469 0.961 1_554 S
C455 H470 0.961 1_554 S
C455 H471 0.961 . S
C456 C457 1.370 1_556 S
C456 C458 1.363 . S
C456 H472 0.931 . S
C457 C456 1.370 1_554 S
C457 C461 1.408 . S
C458 C456 1.363 . S
C458 C459 1.370 1_556 S
C458 C462 1.524 . S
C459 C451 1.503 . S
C459 C458 1.370 1_554 S
C459 C460 1.403 . S
C460 C459 1.403 . S
C460 C461 1.404 . S
C460 C463 1.539 . S
C461 C457 1.408 . S
C461 C460 1.404 . S
C461 H473 0.930 . S
C462 C458 1.524 . S
C462 H474 0.956 . S
C462 H475 0.961 . S
C462 H476 0.961 . S
C463 C460 1.539 . S
C463 H477 0.958 . S
C463 H478 0.961 . S
C463 H479 0.960 . S
H464 C448 0.931 . S
H465 C453 0.929 . S
H466 C454 0.960 1_455 S
H467 C454 0.962 1_455 S
H468 C454 0.960 . S
H469 C455 0.961 1_556 S
H470 C455 0.961 1_556 S
H471 C455 0.961 . S
H472 C456 0.931 . S
H473 C461 0.930 . S
H474 C462 0.956 . S
H475 C462 0.961 . S
H476 C462 0.961 . S
H477 C463 0.958 . S
H478 C463 0.961 . S
H479 C463 0.960 . S
C480 C481 1.391 . S
C480 C482 1.394 . S
C480 H496 0.931 . S
C481 C480 1.391 . S
C481 C485 1.376 . S
C482 C480 1.394 . S
C482 C483 1.369 1_455 S
C482 C486 1.531 1_455 S
C483 C482 1.369 1_655 S
C483 C484 1.410 1_655 S
C483 C491 1.503 . S
C484 C483 1.410 1_455 S
C484 C485 1.392 . S
C484 C487 1.511 . S
C485 C481 1.376 . S
C485 C484 1.392 . S
C485 H497 0.929 . S
C486 C482 1.531 1_655 S
C486 H498 0.960 1_554 S
C486 H499 0.962 . S
C486 H500 0.960 1_554 S
C487 C484 1.511 . S
C487 H501 0.961 . S
C487 H502 0.961 1_455 S
C487 H503 0.961 1_554 S
C488 C489 1.370 . S
C488 C490 1.363 . S
C488 H504 0.931 . S
C489 C488 1.370 . S
C489 C493 1.408 1_554 S
C490 C488 1.363 . S
C490 C491 1.370 . S
C490 C494 1.524 . S
C491 C483 1.503 . S
C491 C490 1.370 . S
C491 C492 1.403 1_554 S
C492 C491 1.403 1_556 S
C492 C493 1.404 . S
C492 C495 1.539 . S
C493 C489 1.408 1_556 S
C493 C492 1.404 . S
C493 H505 0.930 . S
C494 C490 1.524 . S
C494 H506 0.956 . S
C494 H507 0.961 . S
C494 H508 0.961 . S
C495 C492 1.539 . S
C495 H509 0.958 . S
C495 H510 0.961 . S
C495 H511 0.960 . S
H496 C480 0.931 . S
H497 C485 0.929 . S
H498 C486 0.960 1_556 S
H499 C486 0.962 . S
H500 C486 0.960 1_556 S
H501 C487 0.961 . S
H502 C487 0.961 1_655 S
H503 C487 0.961 1_556 S
H504 C488 0.931 . S
H505 C493 0.930 . S
H506 C494 0.956 . S
H507 C494 0.961 . S
H508 C494 0.961 . S
H509 C495 0.958 . S
H510 C495 0.961 . S
H511 C495 0.960 . S
C512 C513 1.391 . S
C512 C514 1.394 . S
C512 H528 0.931 . S
C513 C512 1.391 . S
C513 C517 1.376 . S
C514 C512 1.394 . S
C514 C515 1.369 . S
C514 C518 1.531 . S
C515 C514 1.369 . S
C515 C516 1.410 . S
C515 C523 1.503 . S
C516 C515 1.410 . S
C516 C517 1.392 . S
C516 C519 1.511 . S
C517 C513 1.376 . S
C517 C516 1.392 . S
C517 H529 0.929 . S
C518 C514 1.531 . S
C518 H530 0.960 . S
C518 H531 0.962 . S
C518 H532 0.960 . S
C519 C516 1.511 . S
C519 H533 0.961 . S
C519 H534 0.961 . S
C519 H535 0.961 . S
C520 C521 1.370 . S
C520 C522 1.363 . S
C520 H536 0.931 . S
C521 C520 1.370 . S
C521 C525 1.408 . S
C522 C520 1.363 . S
C522 C523 1.370 1_655 S
C522 C526 1.524 1_655 S
C523 C515 1.503 . S
C523 C522 1.370 1_455 S
C523 C524 1.403 1_455 S
C524 C523 1.403 1_655 S
C524 C525 1.404 . S
C524 C527 1.539 1_655 S
C525 C521 1.408 . S
C525 C524 1.404 . S
C525 H537 0.930 . S
C526 C522 1.524 1_455 S
C526 H538 0.956 . S
C526 H539 0.961 . S
C526 H540 0.961 1_455 S
C527 C524 1.539 1_455 S
C527 H541 0.958 . S
C527 H542 0.961 1_455 S
C527 H543 0.960 . S
H528 C512 0.931 . S
H529 C517 0.929 . S
H530 C518 0.960 . S
H531 C518 0.962 . S
H532 C518 0.960 . S
H533 C519 0.961 . S
H534 C519 0.961 . S
H535 C519 0.961 . S
H536 C520 0.931 . S
H537 C525 0.930 . S
H538 C526 0.956 . S
H539 C526 0.961 . S
H540 C526 0.961 1_655 S
H541 C527 0.958 . S
H542 C527 0.961 1_655 S
H543 C527 0.960 . S
C544 C545 1.391 . S
C544 C546 1.394 . S
C544 H560 0.931 . S
C545 C544 1.391 . S
C545 C549 1.376 . S
C546 C544 1.394 . S
C546 C547 1.369 . S
C546 C550 1.531 . S
C547 C546 1.369 . S
C547 C548 1.410 . S
C547 C555 1.503 . S
C548 C547 1.410 . S
C548 C549 1.392 . S
C548 C551 1.511 . S
C549 C545 1.376 . S
C549 C548 1.392 . S
C549 H561 0.929 . S
C550 C546 1.531 . S
C550 H562 0.960 . S
C550 H563 0.962 . S
C550 H564 0.960 . S
C551 C548 1.511 . S
C551 H565 0.961 . S
C551 H566 0.961 . S
C551 H567 0.961 . S
C552 C553 1.370 . S
C552 C554 1.363 . S
C552 H568 0.931 . S
C553 C552 1.370 . S
C553 C557 1.408 . S
C554 C552 1.363 . S
C554 C555 1.370 1_455 S
C554 C558 1.524 1_455 S
C555 C547 1.503 . S
C555 C554 1.370 1_655 S
C555 C556 1.403 1_655 S
C556 C555 1.403 1_455 S
C556 C557 1.404 . S
C556 C559 1.539 1_455 S
C557 C553 1.408 . S
C557 C556 1.404 . S
C557 H569 0.930 . S
C558 C554 1.524 1_655 S
C558 H570 0.956 . S
C558 H571 0.961 . S
C558 H572 0.961 1_655 S
C559 C556 1.539 1_655 S
C559 H573 0.958 . S
C559 H574 0.961 . S
C559 H575 0.960 . S
H560 C544 0.931 . S
H561 C549 0.929 . S
H562 C550 0.960 . S
H563 C550 0.962 . S
H564 C550 0.960 . S
H565 C551 0.961 . S
H566 C551 0.961 . S
H567 C551 0.961 . S
H568 C552 0.931 . S
H569 C557 0.930 . S
H570 C558 0.956 . S
H571 C558 0.961 . S
H572 C558 0.961 1_455 S
H573 C559 0.958 . S
H574 C559 0.961 . S
H575 C559 0.960 . S
C576 C577 1.391 . S
C576 C578 1.394 . S
C576 H592 0.931 . S
C577 C576 1.391 . S
C577 C581 1.376 . S
C578 C576 1.394 . S
C578 C579 1.369 . S
C578 C582 1.531 . S
C579 C578 1.369 . S
C579 C580 1.410 1_455 S
C579 C587 1.503 1_455 S
C580 C579 1.410 1_655 S
C580 C581 1.392 1_655 S
C580 C583 1.511 . S
C581 C577 1.376 . S
C581 C580 1.392 1_455 S
C581 H593 0.929 1_455 S
C582 C578 1.531 . S
C582 H594 0.960 . S
C582 H595 0.962 1_554 S
C582 H596 0.960 . S
C583 C580 1.511 . S
C583 H597 0.961 . S
C583 H598 0.961 . S
C583 H599 0.961 . S
C584 C585 1.370 1_556 S
C584 C586 1.363 . S
C584 H600 0.931 . S
C585 C584 1.370 1_554 S
C585 C589 1.408 . S
C586 C584 1.363 . S
C586 C587 1.370 1_556 S
C586 C590 1.524 . S
C587 C579 1.503 1_655 S
C587 C586 1.370 1_554 S
C587 C588 1.403 . S
C588 C587 1.403 . S
C588 C589 1.404 . S
C588 C591 1.539 . S
C589 C585 1.408 . S
C589 C588 1.404 . S
C589 H601 0.930 . S
C590 C586 1.524 . S
C590 H602 0.956 1_655 S
C590 H603 0.961 . S
C590 H604 0.961 . S
C591 C588 1.539 . S
C591 H605 0.958 1_655 S
C591 H606 0.961 . S
C591 H607 0.960 . S
H592 C576 0.931 . S
H593 C581 0.929 1_655 S
H594 C582 0.960 . S
H595 C582 0.962 1_556 S
H596 C582 0.960 . S
H597 C583 0.961 . S
H598 C583 0.961 . S
H599 C583 0.961 . S
H600 C584 0.931 . S
H601 C589 0.930 . S
H602 C590 0.956 1_455 S
H603 C590 0.961 . S
H604 C590 0.961 . S
H605 C591 0.958 1_455 S
H606 C591 0.961 . S
H607 C591 0.960 . S
C608 C609 1.391 . S
C608 C610 1.394 1_455 S
C608 H624 0.931 1_455 S
C609 C608 1.391 . S
C609 C613 1.376 . S
C610 C608 1.394 1_655 S
C610 C611 1.369 1_655 S
C610 C614 1.531 . S
C611 C610 1.369 1_455 S
C611 C612 1.410 . S
C611 C619 1.503 1_455 S
C612 C611 1.410 . S
C612 C613 1.392 . S
C612 C615 1.511 . S
C613 C609 1.376 . S
C613 C612 1.392 . S
C613 H625 0.929 . S
C614 C610 1.531 . S
C614 H626 0.960 . S
C614 H627 0.962 . S
C614 H628 0.960 . S
C615 C612 1.511 . S
C615 H629 0.961 . S
C615 H630 0.961 . S
C615 H631 0.961 . S
C616 C617 1.370 . S
C616 C618 1.363 . S
C616 H632 0.931 . S
C617 C616 1.370 . S
C617 C621 1.408 . S
C618 C616 1.363 . S
C618 C619 1.370 . S
C618 C622 1.524 . S
C619 C611 1.503 1_655 S
C619 C618 1.370 . S
C619 C620 1.403 . S
C620 C619 1.403 . S
C620 C621 1.404 . S
C620 C623 1.539 1_655 S
C621 C617 1.408 . S
C621 C620 1.404 . S
C621 H633 0.930 . S
C622 C618 1.524 . S
C622 H634 0.956 . S
C622 H635 0.961 1_655 S
C622 H636 0.961 . S
C623 C620 1.539 1_455 S
C623 H637 0.958 1_455 S
C623 H638 0.961 . S
C623 H639 0.960 . S
H624 C608 0.931 1_655 S
H625 C613 0.929 . S
H626 C614 0.960 . S
H627 C614 0.962 . S
H628 C614 0.960 . S
H629 C615 0.961 . S
H630 C615 0.961 . S
H631 C615 0.961 . S
H632 C616 0.931 . S
H633 C621 0.930 . S
H634 C622 0.956 . S
H635 C622 0.961 1_455 S
H636 C622 0.961 . S
H637 C623 0.958 1_655 S
H638 C623 0.961 . S
H639 C623 0.960 . S
C640 C641 1.391 . S
C640 C642 1.394 . S
C640 H656 0.931 . S
C641 C640 1.391 . S
C641 C645 1.376 1_554 S
C642 C640 1.394 . S
C642 C643 1.369 . S
C642 C646 1.506 1_565 S
C643 C642 1.369 . S
C643 C644 1.410 1_554 S
C643 C651 1.503 1_565 S
C644 C643 1.410 1_556 S
C644 C645 1.392 . S
C644 C647 1.511 . S
C645 C641 1.376 1_556 S
C645 C644 1.392 . S
C645 H657 0.929 . S
C646 C642 1.506 1_545 S
C646 H658 0.979 . S
C646 H659 0.984 . S
C646 H660 0.945 1_545 S
C647 C644 1.511 . S
C647 H661 0.961 . S
C647 H662 0.961 . S
C647 H663 0.961 . S
C648 C649 1.370 1_556 S
C648 C650 1.363 . S
C648 H664 0.931 . S
C649 C648 1.370 1_554 S
C649 C653 1.408 . S
C650 C648 1.363 . S
C650 C651 1.370 1_556 S
C650 C654 1.524 . S
C651 C643 1.503 1_545 S
C651 C650 1.370 1_554 S
C651 C652 1.403 . S
C652 C651 1.403 . S
C652 C653 1.404 . S
C652 C655 1.539 1_545 S
C653 C649 1.408 . S
C653 C652 1.404 . S
C653 H665 0.930 . S
C654 C650 1.524 . S
C654 H666 0.956 . S
C654 H667 0.961 . S
C654 H668 0.961 . S
C655 C652 1.539 1_565 S
C655 H669 0.958 . S
C655 H670 0.973 . S
C655 H671 0.960 . S
H656 C640 0.931 . S
H657 C645 0.929 . S
H658 C646 0.979 . S
H659 C646 0.984 . S
H660 C646 0.945 1_565 S
H661 C647 0.961 . S
H662 C647 0.961 . S
H663 C647 0.961 . S
H664 C648 0.931 . S
H665 C653 0.930 . S
H666 C654 0.956 . S
H667 C654 0.961 . S
H668 C654 0.961 . S
H669 C655 0.958 . S
H670 C655 0.973 . S
H671 C655 0.960 . S
C672 C673 1.391 . S
C672 C674 1.394 . S
C672 H688 0.931 . S
C673 C672 1.391 . S
C673 C677 1.376 . S
C674 C672 1.394 . S
C674 C675 1.369 . S
C674 C678 1.531 . S
C675 C674 1.369 . S
C675 C676 1.410 . S
C675 C683 1.503 1_545 S
C676 C675 1.410 . S
C676 C677 1.392 . S
C676 C679 1.511 . S
C677 C673 1.376 . S
C677 C676 1.392 . S
C677 H689 0.929 . S
C678 C674 1.531 . S
C678 H690 0.960 . S
C678 H691 0.962 . S
C678 H692 0.960 . S
C679 C676 1.511 . S
C679 H693 0.961 . S
C679 H694 0.961 1_545 S
C679 H695 0.961 . S
C680 C681 1.370 . S
C680 C682 1.363 . S
C680 H696 0.931 . S
C681 C680 1.370 . S
C681 C685 1.408 . S
C682 C680 1.363 . S
C682 C683 1.370 . S
C682 C686 1.524 . S
C683 C675 1.503 1_565 S
C683 C682 1.370 . S
C683 C684 1.403 . S
C684 C683 1.403 . S
C684 C685 1.404 . S
C684 C687 1.539 1_565 S
C685 C681 1.408 . S
C685 C684 1.404 . S
C685 H697 0.930 . S
C686 C682 1.524 . S
C686 H698 0.956 . S
C686 H699 0.961 . S
C686 H700 0.961 . S
C687 C684 1.539 1_545 S
C687 H701 0.958 . S
C687 H702 0.961 . S
C687 H703 0.960 . S
H688 C672 0.931 . S
H689 C677 0.929 . S
H690 C678 0.960 . S
H691 C678 0.962 . S
H692 C678 0.960 . S
H693 C679 0.961 . S
H694 C679 0.961 1_565 S
H695 C679 0.961 . S
H696 C680 0.931 . S
H697 C685 0.930 . S
H698 C686 0.956 . S
H699 C686 0.961 . S
H700 C686 0.961 . S
H701 C687 0.958 . S
H702 C687 0.961 . S
H703 C687 0.960 . S
C704 C705 1.391 . S
C704 C706 1.394 . S
C704 H720 0.931 . S
C705 C704 1.391 . S
C705 C709 1.376 . S
C706 C704 1.394 . S
C706 C707 1.369 . S
C706 C710 1.531 . S
C707 C706 1.369 . S
C707 C708 1.412 . S
C707 C715 1.503 . S
C708 C707 1.412 . S
C708 C709 1.395 . S
C708 C711 1.506 1_554 S
C709 C705 1.376 . S
C709 C708 1.395 . S
C709 H721 0.929 . S
C710 C706 1.531 . S
C710 H722 0.960 . S
C710 H723 0.962 . S
C710 H724 0.960 . S
C711 C708 1.506 1_556 S
C711 H725 0.961 . S
C711 H726 0.961 . S
C711 H727 0.961 . S
C712 C713 1.370 . S
C712 C714 1.363 . S
C712 H728 0.931 . S
C713 C712 1.370 . S
C713 C717 1.408 1_554 S
C714 C712 1.363 . S
C714 C715 1.370 . S
C714 C718 1.524 . S
C715 C707 1.503 . S
C715 C714 1.370 . S
C715 C716 1.403 1_554 S
C716 C715 1.403 1_556 S
C716 C717 1.404 . S
C716 C719 1.539 . S
C717 C713 1.408 1_556 S
C717 C716 1.404 . S
C717 H729 0.930 . S
C718 C714 1.524 . S
C718 H730 0.956 . S
C718 H731 0.961 . S
C718 H732 0.961 . S
C719 C716 1.539 . S
C719 H733 0.958 . S
C719 H734 0.961 . S
C719 H735 0.960 . S
H720 C704 0.931 . S
H721 C709 0.929 . S
H722 C710 0.960 . S
H723 C710 0.962 . S
H724 C710 0.960 . S
H725 C711 0.961 . S
H726 C711 0.961 . S
H727 C711 0.961 . S
H728 C712 0.931 . S
H729 C717 0.930 . S
H730 C718 0.956 . S
H731 C718 0.961 . S
H732 C718 0.961 . S
H733 C719 0.958 . S
H734 C719 0.961 . S
H735 C719 0.960 . S
C736 C737 1.381 1_556 S
C736 C738 1.396 . S
C736 H752 0.938 . S
C737 C736 1.381 1_554 S
C737 C741 1.376 . S
C738 C736 1.396 . S
C738 C739 1.369 1_556 S
C738 C742 1.531 . S
C739 C738 1.369 1_554 S
C739 C740 1.410 . S
C739 C747 1.503 . S
C740 C739 1.410 . S
C740 C741 1.392 . S
C740 C743 1.511 . S
C741 C737 1.376 . S
C741 C740 1.392 . S
C741 H753 0.929 . S
C742 C738 1.531 . S
C742 H754 0.960 . S
C742 H755 0.962 . S
C742 H756 0.960 . S
C743 C740 1.511 . S
C743 H757 0.961 . S
C743 H758 0.961 . S
C743 H759 0.961 . S
C744 C745 1.370 . S
C744 C746 1.363 . S
C744 H760 0.931 . S
C745 C744 1.370 . S
C745 C749 1.408 1_554 S
C746 C744 1.363 . S
C746 C747 1.370 . S
C746 C750 1.524 . S
C747 C739 1.503 . S
C747 C746 1.370 . S
C747 C748 1.403 1_554 S
C748 C747 1.403 1_556 S
C748 C749 1.404 . S
C748 C751 1.539 . S
C749 C745 1.408 1_556 S
C749 C748 1.404 . S
C749 H761 0.930 . S
C750 C746 1.524 . S
C750 H762 0.956 . S
C750 H763 0.961 . S
C750 H764 0.961 . S
C751 C748 1.539 . S
C751 H765 0.958 . S
C751 H766 0.961 . S
C751 H767 0.960 . S
H752 C736 0.938 . S
H753 C741 0.929 . S
H754 C742 0.960 . S
H755 C742 0.962 . S
H756 C742 0.960 . S
H757 C743 0.961 . S
H758 C743 0.961 . S
H759 C743 0.961 . S
H760 C744 0.931 . S
H761 C749 0.930 . S
H762 C750 0.956 . S
H763 C750 0.961 . S
H764 C750 0.961 . S
H765 C751 0.958 . S
H766 C751 0.961 . S
H767 C751 0.960 . S
C768 C769 1.391 . S
C768 C770 1.394 . S
C768 H784 0.931 . S
C769 C768 1.391 . S
C769 C773 1.376 . S
C770 C768 1.394 . S
C770 C771 1.369 . S
C770 C774 1.531 . S
C771 C770 1.369 . S
C771 C772 1.410 . S
C771 C779 1.503 . S
C772 C771 1.410 . S
C772 C773 1.392 . S
C772 C775 1.511 . S
C773 C769 1.376 . S
C773 C772 1.392 . S
C773 H785 0.929 . S
C774 C770 1.531 . S
C774 H786 0.960 . S
C774 H787 0.962 . S
C774 H788 0.960 . S
C775 C772 1.511 . S
C775 H789 0.961 . S
C775 H790 0.961 . S
C775 H791 0.961 . S
C776 C777 1.370 . S
C776 C778 1.363 . S
C776 H792 0.931 . S
C777 C776 1.370 . S
C777 C781 1.408 . S
C778 C776 1.363 . S
C778 C779 1.370 . S
C778 C782 1.524 . S
C779 C771 1.503 . S
C779 C778 1.370 . S
C779 C780 1.403 . S
C780 C779 1.403 . S
C780 C781 1.404 . S
C780 C783 1.539 . S
C781 C777 1.408 . S
C781 C780 1.404 . S
C781 H793 0.930 . S
C782 C778 1.524 . S
C782 H794 0.956 . S
C782 H795 0.961 . S
C782 H796 0.961 . S
C783 C780 1.539 . S
C783 H797 0.958 . S
C783 H798 0.961 . S
C783 H799 0.960 . S
H784 C768 0.931 . S
H785 C773 0.929 . S
H786 C774 0.960 . S
H787 C774 0.962 . S
H788 C774 0.960 . S
H789 C775 0.961 . S
H790 C775 0.961 . S
H791 C775 0.961 . S
H792 C776 0.931 . S
H793 C781 0.930 . S
H794 C782 0.956 . S
H795 C782 0.961 . S
H796 C782 0.961 . S
H797 C783 0.958 . S
H798 C783 0.961 . S
H799 C783 0.960 . S
C800 C801 1.391 . S
C800 C802 1.394 . S
C800 H816 0.931 . S
C801 C800 1.391 . S
C801 C805 1.376 . S
C802 C800 1.394 . S
C802 C803 1.369 . S
C802 C806 1.531 . S
C803 C802 1.369 . S
C803 C804 1.410 . S
C803 C811 1.503 . S
C804 C803 1.410 . S
C804 C805 1.392 . S
C804 C807 1.511 . S
C805 C801 1.376 . S
C805 C804 1.392 . S
C805 H817 0.929 . S
C806 C802 1.531 . S
C806 H818 0.960 . S
C806 H819 0.962 . S
C806 H820 0.960 . S
C807 C804 1.511 . S
C807 H821 0.961 . S
C807 H822 0.961 . S
C807 H823 0.961 . S
C808 C809 1.370 . S
C808 C810 1.363 . S
C808 H824 0.931 . S
C809 C808 1.370 . S
C809 C813 1.408 . S
C810 C808 1.363 . S
C810 C811 1.370 . S
C810 C814 1.524 . S
C811 C803 1.503 . S
C811 C810 1.370 . S
C811 C812 1.403 . S
C812 C811 1.403 . S
C812 C813 1.404 . S
C812 C815 1.539 . S
C813 C809 1.408 . S
C813 C812 1.404 . S
C813 H825 0.930 . S
C814 C810 1.524 . S
C814 H826 0.956 . S
C814 H827 0.961 . S
C814 H828 0.961 . S
C815 C812 1.539 . S
C815 H829 0.958 . S
C815 H830 0.961 . S
C815 H831 0.960 . S
H816 C800 0.931 . S
H817 C805 0.929 . S
H818 C806 0.960 . S
H819 C806 0.962 . S
H820 C806 0.960 . S
H821 C807 0.961 . S
H822 C807 0.961 . S
H823 C807 0.961 . S
H824 C808 0.931 . S
H825 C813 0.930 . S
H826 C814 0.956 . S
H827 C814 0.961 . S
H828 C814 0.961 . S
H829 C815 0.958 . S
H830 C815 0.961 . S
H831 C815 0.960 . S
C832 C833 1.391 . S
C832 C834 1.394 . S
C832 H848 0.931 . S
C833 C832 1.391 . S
C833 C837 1.376 . S
C834 C832 1.394 . S
C834 C835 1.369 1_455 S
C834 C838 1.531 . S
C835 C834 1.369 1_655 S
C835 C836 1.410 . S
C835 C843 1.503 . S
C836 C835 1.410 . S
C836 C837 1.392 1_655 S
C836 C839 1.511 . S
C837 C833 1.376 . S
C837 C836 1.392 1_455 S
C837 H849 0.929 . S
C838 C834 1.531 . S
C838 H850 0.960 1_455 S
C838 H851 0.962 . S
C838 H852 0.960 1_455 S
C839 C836 1.511 . S
C839 H853 0.961 . S
C839 H854 0.961 . S
C839 H855 0.961 . S
C840 C841 1.370 1_455 S
C840 C842 1.363 . S
C840 H856 0.931 . S
C841 C840 1.370 1_655 S
C841 C845 1.408 . S
C842 C840 1.363 . S
C842 C843 1.370 1_455 S
C842 C846 1.524 . S
C843 C835 1.503 . S
C843 C842 1.370 1_655 S
C843 C844 1.403 . S
C844 C843 1.403 . S
C844 C845 1.404 . S
C844 C847 1.539 . S
C845 C841 1.408 . S
C845 C844 1.404 . S
C845 H857 0.930 . S
C846 C842 1.524 . S
C846 H858 0.956 . S
C846 H859 0.961 . S
C846 H860 0.961 . S
C847 C844 1.539 . S
C847 H861 0.958 . S
C847 H862 0.961 . S
C847 H863 0.960 . S
H848 C832 0.931 . S
H849 C837 0.929 . S
H850 C838 0.960 1_655 S
H851 C838 0.962 . S
H852 C838 0.960 1_655 S
H853 C839 0.961 . S
H854 C839 0.961 . S
H855 C839 0.961 . S
H856 C840 0.931 . S
H857 C845 0.930 . S
H858 C846 0.956 . S
H859 C846 0.961 . S
H860 C846 0.961 . S
H861 C847 0.958 . S
H862 C847 0.961 . S
H863 C847 0.960 . S
C864 C865 1.391 . S
C864 C866 1.394 . S
C864 H880 0.931 . S
C865 C864 1.391 . S
C865 C869 1.376 1_655 S
C866 C864 1.394 . S
C866 C867 1.366 1_655 S
C866 C870 1.531 . S
C867 C866 1.366 1_455 S
C867 C868 1.411 . S
C867 C875 1.504 . S
C868 C867 1.411 . S
C868 C869 1.392 . S
C868 C871 1.511 . S
C869 C865 1.376 1_455 S
C869 C868 1.392 . S
C869 H881 0.929 . S
C870 C866 1.531 . S
C870 H882 0.960 . S
C870 H883 0.962 . S
C870 H884 0.960 . S
C871 C868 1.511 . S
C871 H885 0.961 . S
C871 H886 0.961 . S
C871 H887 0.961 . S
C872 C873 1.370 1_655 S
C872 C874 1.363 . S
C872 H888 0.931 . S
C873 C872 1.370 1_455 S
C873 C877 1.408 . S
C874 C872 1.363 . S
C874 C875 1.370 1_655 S
C874 C878 1.524 . S
C875 C867 1.504 . S
C875 C874 1.370 1_455 S
C875 C876 1.403 . S
C876 C875 1.403 . S
C876 C877 1.404 . S
C876 C879 1.539 . S
C877 C873 1.408 . S
C877 C876 1.404 . S
C877 H889 0.930 . S
C878 C874 1.524 . S
C878 H890 0.956 . S
C878 H891 0.961 . S
C878 H892 0.961 . S
C879 C876 1.539 . S
C879 H893 0.958 . S
C879 H894 0.961 . S
C879 H895 0.960 . S
H880 C864 0.931 . S
H881 C869 0.929 . S
H882 C870 0.960 . S
H883 C870 0.962 . S
H884 C870 0.960 . S
H885 C871 0.961 . S
H886 C871 0.961 . S
H887 C871 0.961 . S
H888 C872 0.931 . S
H889 C877 0.930 . S
H890 C878 0.956 . S
H891 C878 0.961 . S
H892 C878 0.961 . S
H893 C879 0.958 . S
H894 C879 0.961 . S
H895 C879 0.960 . S
C896 C897 1.391 . S
C896 C898 1.394 . S
C896 H912 0.931 . S
C897 C896 1.391 . S
C897 C901 1.376 1_655 S
C898 C896 1.394 . S
C898 C899 1.369 . S
C898 C902 1.531 . S
C899 C898 1.369 . S
C899 C900 1.410 1_655 S
C899 C907 1.503 1_655 S
C900 C899 1.410 1_455 S
C900 C901 1.392 . S
C900 C903 1.511 . S
C901 C897 1.376 1_455 S
C901 C900 1.392 . S
C901 H913 0.929 . S
C902 C898 1.531 . S
C902 H914 0.960 . S
C902 H915 0.962 . S
C902 H916 0.960 . S
C903 C900 1.511 . S
C903 H917 0.961 . S
C903 H918 0.961 . S
C903 H919 0.961 . S
C904 C905 1.370 . S
C904 C906 1.363 1_455 S
C904 H920 0.931 1_455 S
C905 C904 1.370 . S
C905 C909 1.408 . S
C906 C904 1.363 1_655 S
C906 C907 1.370 1_655 S
C906 C910 1.524 . S
C907 C899 1.503 1_455 S
C907 C906 1.370 1_455 S
C907 C908 1.403 . S
C908 C907 1.403 . S
C908 C909 1.404 . S
C908 C911 1.539 . S
C909 C905 1.408 . S
C909 C908 1.404 . S
C909 H921 0.930 . S
C910 C906 1.524 . S
C910 H922 0.956 . S
C910 H923 0.961 . S
C910 H924 0.961 . S
C911 C908 1.539 . S
C911 H925 0.958 . S
C911 H926 0.961 . S
C911 H927 0.960 . S
H912 C896 0.931 . S
H913 C901 0.929 . S
H914 C902 0.960 . S
H915 C902 0.962 . S
H916 C902 0.960 . S
H917 C903 0.961 . S
H918 C903 0.961 . S
H919 C903 0.961 . S
H920 C904 0.931 1_655 S
H921 C909 0.930 . S
H922 C910 0.956 . S
H923 C910 0.961 . S
H924 C910 0.961 . S
H925 C911 0.958 . S
H926 C911 0.961 . S
H927 C911 0.960 . S
C928 C929 1.391 1_455 S
C928 C930 1.394 . S
C928 H944 0.931 . S
C929 C928 1.391 1_655 S
C929 C933 1.376 . S
C930 C928 1.394 . S
C930 C931 1.369 1_455 S
C930 C934 1.531 . S
C931 C930 1.369 1_655 S
C931 C932 1.410 . S
C931 C939 1.503 1_655 S
C932 C931 1.410 . S
C932 C933 1.392 . S
C932 C935 1.511 . S
C933 C929 1.376 . S
C933 C932 1.392 . S
C933 H945 0.929 . S
C934 C930 1.531 . S
C934 H946 0.960 . S
C934 H947 0.962 . S
C934 H948 0.960 . S
C935 C932 1.511 . S
C935 H949 0.961 . S
C935 H950 0.961 . S
C935 H951 0.961 . S
C936 C937 1.370 . S
C936 C938 1.363 . S
C936 H952 0.931 . S
C937 C936 1.370 . S
C937 C941 1.408 1_455 S
C938 C936 1.363 . S
C938 C939 1.370 . S
C938 C942 1.524 . S
C939 C931 1.503 1_455 S
C939 C938 1.370 . S
C939 C940 1.403 1_455 S
C940 C939 1.403 1_655 S
C940 C941 1.404 . S
C940 C943 1.539 . S
C941 C937 1.408 1_655 S
C941 C940 1.404 . S
C941 H953 0.930 . S
C942 C938 1.524 . S
C942 H954 0.956 . S
C942 H955 0.961 . S
C942 H956 0.961 . S
C943 C940 1.539 . S
C943 H957 0.958 . S
C943 H958 0.961 . S
C943 H959 0.960 . S
H944 C928 0.931 . S
H945 C933 0.929 . S
H946 C934 0.960 . S
H947 C934 0.962 . S
H948 C934 0.960 . S
H949 C935 0.961 . S
H950 C935 0.961 . S
H951 C935 0.961 . S
H952 C936 0.931 . S
H953 C941 0.930 . S
H954 C942 0.956 . S
H955 C942 0.961 . S
H956 C942 0.961 . S
H957 C943 0.958 . S
H958 C943 0.961 . S
H959 C943 0.960 . S
C960 C961 1.391 . S
C960 C962 1.394 . S
C960 H976 0.931 . S
C961 C960 1.391 . S
C961 C965 1.376 . S
C962 C960 1.394 . S
C962 C963 1.369 . S
C962 C966 1.531 . S
C963 C962 1.369 . S
C963 C964 1.410 . S
C963 C971 1.503 . S
C964 C963 1.410 . S
C964 C965 1.392 . S
C964 C967 1.511 . S
C965 C961 1.376 . S
C965 C964 1.392 . S
C965 H977 0.929 . S
C966 C962 1.531 . S
C966 H978 0.960 . S
C966 H979 0.962 . S
C966 H980 0.960 . S
C967 C964 1.511 . S
C967 H981 0.961 . S
C967 H982 0.961 . S
C967 H983 0.961 . S
C968 C969 1.370 . S
C968 C970 1.363 . S
C968 H984 0.931 . S
C969 C968 1.370 . S
C969 C973 1.408 . S
C970 C968 1.363 . S
C970 C971 1.370 . S
C970 C974 1.524 . S
C971 C963 1.503 . S
C971 C970 1.370 . S
C971 C972 1.403 . S
C972 C971 1.403 . S
C972 C973 1.404 . S
C972 C975 1.539 . S
C973 C969 1.408 . S
C973 C972 1.404 . S
C973 H985 0.930 . S
C974 C970 1.524 . S
C974 H986 0.956 . S
C974 H987 0.961 . S
C974 H988 0.961 . S
C975 C972 1.539 . S
C975 H989 0.958 . S
C975 H990 0.961 . S
C975 H991 0.960 . S
H976 C960 0.931 . S
H977 C965 0.929 . S
H978 C966 0.960 . S
H979 C966 0.962 . S
H980 C966 0.960 . S
H981 C967 0.961 . S
H982 C967 0.961 . S
H983 C967 0.961 . S
H984 C968 0.931 . S
H985 C973 0.930 . S
H986 C974 0.956 . S
H987 C974 0.961 . S
H988 C974 0.961 . S
H989 C975 0.958 . S
H990 C975 0.961 . S
H991 C975 0.960 . S
C992 C993 1.391 . S
C992 C994 1.394 . S
C992 H1008 0.931 . S
C993 C992 1.391 . S
C993 C997 1.376 . S
C994 C992 1.394 . S
C994 C995 1.369 . S
C994 C998 1.531 . S
C995 C994 1.369 . S
C995 C996 1.410 . S
C995 C1003 1.503 . S
C996 C995 1.410 . S
C996 C997 1.392 . S
C996 C999 1.511 . S
C997 C993 1.376 . S
C997 C996 1.392 . S
C997 H1009 0.929 . S
C998 C994 1.531 . S
C998 H1010 0.960 . S
C998 H1011 0.962 . S
C998 H1012 0.960 . S
C999 C996 1.511 . S
C999 H1013 0.961 . S
C999 H1014 0.961 . S
C999 H1015 0.961 . S
C1000 C1001 1.370 . S
C1000 C1002 1.363 . S
C1000 H1016 0.931 . S
C1001 C1000 1.370 . S
C1001 C1005 1.408 . S
C1002 C1000 1.363 . S
C1002 C1003 1.370 . S
C1002 C1006 1.524 . S
C1003 C995 1.503 . S
C1003 C1002 1.370 . S
C1003 C1004 1.403 . S
C1004 C1003 1.403 . S
C1004 C1005 1.404 . S
C1004 C1007 1.539 . S
C1005 C1001 1.408 . S
C1005 C1004 1.404 . S
C1005 H1017 0.930 . S
C1006 C1002 1.524 . S
C1006 H1018 0.956 . S
C1006 H1019 0.961 . S
C1006 H1020 0.961 . S
C1007 C1004 1.539 . S
C1007 H1021 0.958 . S
C1007 H1022 0.961 . S
C1007 H1023 0.960 . S
H1008 C992 0.931 . S
H1009 C997 0.929 . S
H1010 C998 0.960 . S
H1011 C998 0.962 . S
H1012 C998 0.960 . S
H1013 C999 0.961 . S
H1014 C999 0.961 . S
H1015 C999 0.961 . S
H1016 C1000 0.931 . S
H1017 C1005 0.930 . S
H1018 C1006 0.956 . S
H1019 C1006 0.961 . S
H1020 C1006 0.961 . S
H1021 C1007 0.958 . S
H1022 C1007 0.961 . S
H1023 C1007 0.960 . S
C1024 C1025 1.391 . S
C1024 C1026 1.394 . S
C1024 H1040 0.931 . S
C1025 C1024 1.391 . S
C1025 C1029 1.376 . S
C1026 C1024 1.394 . S
C1026 C1027 1.369 . S
C1026 C1030 1.531 . S
C1027 C1026 1.369 . S
C1027 C1028 1.410 . S
C1027 C1035 1.503 . S
C1028 C1027 1.410 . S
C1028 C1029 1.392 . S
C1028 C1031 1.511 . S
C1029 C1025 1.376 . S
C1029 C1028 1.392 . S
C1029 H1041 0.929 . S
C1030 C1026 1.531 . S
C1030 H1042 0.960 . S
C1030 H1043 0.962 . S
C1030 H1044 0.960 . S
C1031 C1028 1.511 . S
C1031 H1045 0.961 . S
C1031 H1046 0.961 . S
C1031 H1047 0.961 . S
C1032 C1033 1.370 . S
C1032 C1034 1.363 . S
C1032 H1048 0.931 . S
C1033 C1032 1.370 . S
C1033 C1037 1.408 . S
C1034 C1032 1.363 . S
C1034 C1035 1.370 . S
C1034 C1038 1.524 . S
C1035 C1027 1.503 . S
C1035 C1034 1.370 . S
C1035 C1036 1.403 . S
C1036 C1035 1.403 . S
C1036 C1037 1.404 . S
C1036 C1039 1.539 . S
C1037 C1033 1.408 . S
C1037 C1036 1.404 . S
C1037 H1049 0.930 . S
C1038 C1034 1.524 . S
C1038 H1050 0.956 . S
C1038 H1051 0.961 . S
C1038 H1052 0.961 . S
C1039 C1036 1.539 . S
C1039 H1053 0.958 . S
C1039 H1054 0.961 . S
C1039 H1055 0.960 . S
H1040 C1024 0.931 . S
H1041 C1029 0.929 . S
H1042 C1030 0.960 . S
H1043 C1030 0.962 . S
H1044 C1030 0.960 . S
H1045 C1031 0.961 . S
H1046 C1031 0.961 . S
H1047 C1031 0.961 . S
H1048 C1032 0.931 . S
H1049 C1037 0.930 . S
H1050 C1038 0.956 . S
H1051 C1038 0.961 . S
H1052 C1038 0.961 . S
H1053 C1039 0.958 . S
H1054 C1039 0.961 . S
H1055 C1039 0.960 . S
C1056 C1057 1.391 . S
C1056 C1058 1.394 . S
C1056 H1072 0.931 . S
C1057 C1056 1.391 . S
C1057 C1061 1.376 . S
C1058 C1056 1.394 . S
C1058 C1059 1.369 . S
C1058 C1062 1.531 . S
C1059 C1058 1.369 . S
C1059 C1060 1.410 . S
C1059 C1067 1.503 . S
C1060 C1059 1.410 . S
C1060 C1061 1.392 . S
C1060 C1063 1.511 . S
C1061 C1057 1.376 . S
C1061 C1060 1.392 . S
C1061 H1073 0.929 . S
C1062 C1058 1.531 . S
C1062 H1074 0.960 . S
C1062 H1075 0.962 . S
C1062 H1076 0.960 . S
C1063 C1060 1.511 . S
C1063 H1077 0.961 . S
C1063 H1078 0.961 . S
C1063 H1079 0.961 . S
C1064 C1065 1.370 . S
C1064 C1066 1.363 . S
C1064 H1080 0.931 . S
C1065 C1064 1.370 . S
C1065 C1069 1.408 . S
C1066 C1064 1.363 . S
C1066 C1067 1.370 . S
C1066 C1070 1.524 . S
C1067 C1059 1.503 . S
C1067 C1066 1.370 . S
C1067 C1068 1.403 . S
C1068 C1067 1.403 . S
C1068 C1069 1.404 . S
C1068 C1071 1.539 . S
C1069 C1065 1.408 . S
C1069 C1068 1.404 . S
C1069 H1081 0.930 . S
C1070 C1066 1.524 . S
C1070 H1082 0.956 . S
C1070 H1083 0.961 . S
C1070 H1084 0.961 . S
C1071 C1068 1.539 . S
C1071 H1085 0.958 . S
C1071 H1086 0.961 . S
C1071 H1087 0.960 . S
H1072 C1056 0.931 . S
H1073 C1061 0.929 . S
H1074 C1062 0.960 . S
H1075 C1062 0.962 . S
H1076 C1062 0.960 . S
H1077 C1063 0.961 . S
H1078 C1063 0.961 . S
H1079 C1063 0.961 . S
H1080 C1064 0.931 . S
H1081 C1069 0.930 . S
H1082 C1070 0.956 . S
H1083 C1070 0.961 . S
H1084 C1070 0.961 . S
H1085 C1071 0.958 . S
H1086 C1071 0.961 . S
H1087 C1071 0.960 . S
C321 C19 2.291 . S
C329 C10 2.322 . S
C353 C59 2.300 . S
C361 C50 2.318 . S
C385 C99 2.328 . S
C393 C90 2.307 . S
C417 C139 2.327 . S
C425 C130 2.307 . S
C449 C179 2.321 . S
C457 C170 2.309 . S
C481 C210 2.317 . S
C489 C219 2.313 . S
C513 C259 2.294 . S
C521 C250 2.322 . S
C545 C290 2.316 . S
C553 C299 2.314 . S
C577 C55 2.624 . S
C585 C6 2.626 . S
C609 C126 2.632 . S
C617 C95 2.618 . S
C641 C166 2.599 . S
C649 C215 2.635 . S
C673 C255 2.594 . S
C681 C286 2.636 . S
C705 C15 1.820 . S
C713 C206 1.840 . S
C737 C175 1.840 . S
C745 C46 1.832 . S
C769 C86 1.816 . S
C777 C295 1.844 . S
C801 C135 1.850 . S
C809 C246 1.828 . S
C833 C9 1.464 . S
C841 C129 1.480 . S
C865 C49 1.593 . S
C873 C89 1.601 . S
C897 C58 1.498 . S
C905 C98 1.489 . S
C929 C138 1.617 . S
C937 C18 1.590 . S
C961 C169 1.484 . S
C969 C289 1.475 . S
C993 C209 1.600 . S
C1001 C249 1.602 . S
C1025 C218 1.493 . S
C1033 C258 1.487 . S
C1057 C298 1.617 . S
C1065 C178 1.593 . S
