# Generated by pormake.
# Topology wjg, (4)-cn, num edge types: 1
# Building blocks:
#     Node 0, Type 0, BuildingBlock: TATPOV_clean_sbu_0, # of connection points: 4
#     Node 1, Type 0, BuildingBlock: TATPOV_clean_sbu_0, # of connection points: 4
#     Node 2, Type 0, BuildingBlock: TATPOV_clean_sbu_0, # of connection points: 4
#     Node 3, Type 0, BuildingBlock: TATPOV_clean_sbu_0, # of connection points: 4
#     Node 4, Type 0, BuildingBlock: TATPOV_clean_sbu_0, # of connection points: 4
#     Node 5, Type 0, BuildingBlock: TATPOV_clean_sbu_0, # of connection points: 4
#     Node 6, Type 0, BuildingBlock: TATPOV_clean_sbu_0, # of connection points: 4
#     Node 7, Type 0, BuildingBlock: TATPOV_clean_sbu_0, # of connection points: 4
#     Node 8, Type 0, BuildingBlock: TATPOV_clean_sbu_0, # of connection points: 4
#     Node 9, Type 0, BuildingBlock: TATPOV_clean_sbu_0, # of connection points: 4
#     Node 10, Type 0, BuildingBlock: TATPOV_clean_sbu_0, # of connection points: 4
#     Node 11, Type 0, BuildingBlock: TATPOV_clean_sbu_0, # of connection points: 4
#     Edge 12, Type (0, 0), BuildingBlock: TEMPAE_clean_linker_10, # of connection points: 2
#     Edge 13, Type (0, 0), BuildingBlock: TEMPAE_clean_linker_10, # of connection points: 2
#     Edge 14, Type (0, 0), BuildingBlock: TEMPAE_clean_linker_10, # of connection points: 2
#     Edge 15, Type (0, 0), BuildingBlock: TEMPAE_clean_linker_10, # of connection points: 2
#     Edge 16, Type (0, 0), BuildingBlock: TEMPAE_clean_linker_10, # of connection points: 2
#     Edge 17, Type (0, 0), BuildingBlock: TEMPAE_clean_linker_10, # of connection points: 2
#     Edge 18, Type (0, 0), BuildingBlock: TEMPAE_clean_linker_10, # of connection points: 2
#     Edge 19, Type (0, 0), BuildingBlock: TEMPAE_clean_linker_10, # of connection points: 2
#     Edge 20, Type (0, 0), BuildingBlock: TEMPAE_clean_linker_10, # of connection points: 2
#     Edge 21, Type (0, 0), BuildingBlock: TEMPAE_clean_linker_10, # of connection points: 2
#     Edge 22, Type (0, 0), BuildingBlock: TEMPAE_clean_linker_10, # of connection points: 2
#     Edge 23, Type (0, 0), BuildingBlock: TEMPAE_clean_linker_10, # of connection points: 2
#     Edge 24, Type (0, 0), BuildingBlock: TEMPAE_clean_linker_10, # of connection points: 2
#     Edge 25, Type (0, 0), BuildingBlock: TEMPAE_clean_linker_10, # of connection points: 2
#     Edge 26, Type (0, 0), BuildingBlock: TEMPAE_clean_linker_10, # of connection points: 2
#     Edge 27, Type (0, 0), BuildingBlock: TEMPAE_clean_linker_10, # of connection points: 2
#     Edge 28, Type (0, 0), BuildingBlock: TEMPAE_clean_linker_10, # of connection points: 2
#     Edge 29, Type (0, 0), BuildingBlock: TEMPAE_clean_linker_10, # of connection points: 2
#     Edge 30, Type (0, 0), BuildingBlock: TEMPAE_clean_linker_10, # of connection points: 2
#     Edge 31, Type (0, 0), BuildingBlock: TEMPAE_clean_linker_10, # of connection points: 2
#     Edge 32, Type (0, 0), BuildingBlock: TEMPAE_clean_linker_10, # of connection points: 2
#     Edge 33, Type (0, 0), BuildingBlock: TEMPAE_clean_linker_10, # of connection points: 2
#     Edge 34, Type (0, 0), BuildingBlock: TEMPAE_clean_linker_10, # of connection points: 2
#     Edge 35, Type (0, 0), BuildingBlock: TEMPAE_clean_linker_10, # of connection points: 2
# Relax obj value: 0.292
# Max RMSD: 0.117
# Mean RMSD: 0.115
data_MOF--net-wjg--node1-TATPOV_clean_sbu_0--edge1-TEMPAE_clean_linker_10
_symmetry_space_group_name_H-M    P1
_symmetry_Int_Tables_number       1
_symmetry_cell_setting            triclinic
loop_
_symmetry_equiv_pos_as_xyz
'x, y, z'
_cell_length_a     35.491879
_cell_length_b     35.546301
_cell_length_c     35.772162
_cell_angle_alpha  90.078054
_cell_angle_beta   90.033501
_cell_angle_gamma 119.94966
loop_
_atom_site_label
_atom_site_type_symbol
_atom_site_fract_x
_atom_site_fract_y
_atom_site_fract_z
_atom_type_partial_charge
Zn0 Zn 0.2594 0.44665 0.31141 0.0
Zn1 Zn 0.20621 0.42918 0.2666 0.0
O2 O 0.24481 0.49732 0.26286 0.0
O3 O 0.2691 0.50628 0.32046 0.0
O4 O 0.15573 0.41002 0.22887 0.0
O5 O 0.30094 0.43881 0.28033 0.0
O6 O 0.23953 0.39543 0.25203 0.0
C7 C 0.26425 0.52232 0.29063 0.0
C8 C 0.18586 0.3961 0.34657 0.0
O9 O 0.17517 0.41122 0.31873 0.0
O10 O 0.22286 0.39931 0.34698 0.0
C11 C 0.1239 0.41592 0.2364 0.0
O12 O 0.12492 0.43556 0.26784 0.0
C13 C 0.27944 0.40721 0.25854 0.0
Zn14 Zn 0.78302 0.11796 0.7777 0.0
Zn15 Zn 0.76744 0.1182 0.71075 0.0
O16 O 0.78102 0.18028 0.71231 0.0
O17 O 0.78527 0.17774 0.77377 0.0
O18 O 0.7468 0.09294 0.65857 0.0
O19 O 0.83819 0.11741 0.77817 0.0
O20 O 0.82886 0.12416 0.71852 0.0
C21 C 0.78514 0.19786 0.74433 0.0
C22 C 0.70263 0.07492 0.77777 0.0
O23 O 0.71375 0.09359 0.74606 0.0
O24 O 0.7281 0.06455 0.79323 0.0
C25 C 0.71525 0.05441 0.65415 0.0
O26 O 0.69536 0.03133 0.68387 0.0
C27 C 0.85271 0.12388 0.74522 0.0
Zn28 Zn 0.57896 0.77387 0.0784 0.0
Zn29 Zn 0.63753 0.77687 0.99485 0.0
O30 O 0.57063 0.73878 0.99192 0.0
O31 O 0.56306 0.71732 0.04956 0.0
O32 O 0.66405 0.76608 0.94784 0.0
O33 O 0.61028 0.83342 0.0517 0.0
O34 O 0.64845 0.83938 0.99995 0.0
C35 C 0.54562 0.71609 0.01828 0.0
C36 C 0.6516 0.76372 0.0701 0.0
O37 O 0.67121 0.77135 0.03915 0.0
O38 O 0.61054 0.74004 0.06848 0.0
C39 C 0.64594 0.72756 0.93469 0.0
O40 O 0.61006 0.69752 0.95049 0.0
C41 C 0.63469 0.85587 0.02471 0.0
Zn42 Zn 0.70612 0.51551 0.28811 0.0
Zn43 Zn 0.786 0.5518 0.27612 0.0
O44 O 0.75961 0.48609 0.25921 0.0
O45 O 0.68943 0.45792 0.269 0.0
O46 O 0.84755 0.58258 0.25348 0.0
O47 O 0.69051 0.55209 0.2588 0.0
O48 O 0.76164 0.59155 0.25646 0.0
C49 C 0.72089 0.45371 0.25812 0.0
C50 C 0.75736 0.54659 0.3559 0.0
O51 O 0.78972 0.55713 0.33412 0.0
O52 O 0.71924 0.529 0.34256 0.0
C53 C 0.86967 0.56424 0.24578 0.0
O54 O 0.85434 0.52355 0.25555 0.0
C55 C 0.72415 0.58734 0.25063 0.0
Zn56 Zn 0.31587 0.841 0.76083 0.0
Zn57 Zn 0.32122 0.90983 0.67866 0.0
O58 O 0.35502 0.8776 0.66661 0.0
O59 O 0.36592 0.88001 0.72569 0.0
O60 O 0.32296 0.94387 0.63214 0.0
O61 O 0.25472 0.81782 0.73665 0.0
O62 O 0.2592 0.86106 0.68855 0.0
C63 C 0.36498 0.86249 0.69454 0.0
C64 C 0.33554 0.92854 0.75445 0.0
O65 O 0.33185 0.94745 0.72588 0.0
O66 O 0.35417 0.90642 0.74895 0.0
C67 C 0.35827 0.96324 0.61364 0.0
O68 O 0.39217 0.96127 0.62583 0.0
C69 C 0.2375 0.82852 0.71024 0.0
Zn70 Zn 0.3885 0.21926 0.06969 0.0
Zn71 Zn 0.35292 0.22873 0.97906 0.0
O72 O 0.41801 0.27259 0.98975 0.0
O73 O 0.40461 0.27919 0.04748 0.0
O74 O 0.33556 0.24558 0.9302 0.0
O75 O 0.37382 0.16657 0.03435 0.0
O76 O 0.34967 0.16972 0.97708 0.0
C77 C 0.43249 0.2894 0.02164 0.0
C78 C 0.31641 0.22587 0.05086 0.0
O79 O 0.30467 0.2173 0.01709 0.0
O80 O 0.35646 0.25251 0.05601 0.0
C81 C 0.36226 0.26858 0.90478 0.0
O82 O 0.40346 0.28001 0.90838 0.0
C83 C 0.35972 0.15024 0.00195 0.0
Zn84 Zn 0.59044 0.85919 0.27199 0.0
Zn85 Zn 0.61511 0.86151 0.33444 0.0
O86 O 0.54607 0.824 0.33128 0.0
O87 O 0.52672 0.83124 0.27468 0.0
O88 O 0.63213 0.88734 0.38672 0.0
O89 O 0.61899 0.81988 0.26817 0.0
O90 O 0.63245 0.81636 0.32783 0.0
C91 C 0.51625 0.8152 0.30696 0.0
C92 C 0.66094 0.92843 0.26836 0.0
O93 O 0.66106 0.90751 0.2973 0.0
O94 O 0.6246 0.92168 0.25649 0.0
C95 C 0.62263 0.91565 0.3978 0.0
O96 O 0.60088 0.92705 0.37519 0.0
C97 C 0.63331 0.80566 0.29398 0.0
Zn98 Zn 0.861 0.55244 0.67325 0.0
Zn99 Zn 0.82361 0.57552 0.71233 0.0
O100 O 0.81131 0.51469 0.73351 0.0
O101 O 0.86787 0.51438 0.70932 0.0
O102 O 0.79204 0.59577 0.74812 0.0
O103 O 0.91106 0.61085 0.66387 0.0
O104 O 0.88854 0.62529 0.71609 0.0
C105 C 0.83584 0.49791 0.73129 0.0
C106 C 0.79567 0.54732 0.63164 0.0
O107 O 0.79833 0.57245 0.65839 0.0
O108 O 0.81531 0.52606 0.63437 0.0
C109 C 0.78171 0.62423 0.73943 0.0
O110 O 0.79009 0.64045 0.70549 0.0
C111 C 0.91778 0.63612 0.69105 0.0
Zn112 Zn 0.23402 0.74638 0.96102 0.0
Zn113 Zn 0.19979 0.74455 0.02082 0.0
O114 O 0.24006 0.71584 0.02727 0.0
O115 O 0.26593 0.71592 0.97143 0.0
O116 O 0.15463 0.72152 0.06334 0.0
O117 O 0.26309 0.81283 0.97022 0.0
O118 O 0.23938 0.80881 0.02792 0.0
C119 C 0.26334 0.70685 0.00568 0.0
C120 C 0.16269 0.73707 0.93906 0.0
O121 O 0.16767 0.74937 0.97311 0.0
O122 O 0.18138 0.71674 0.92827 0.0
C123 C 0.11509 0.69332 0.05655 0.0
O124 O 0.10411 0.67913 0.0221 0.0
C125 C 0.26155 0.83151 1.0001 0.0
Zn126 Zn 0.43069 0.14761 0.22354 0.0
Zn127 Zn 0.40525 0.1325 0.2881 0.0
O128 O 0.47376 0.15943 0.28548 0.0
O129 O 0.49216 0.16349 0.22649 0.0
O130 O 0.38824 0.10321 0.33909 0.0
O131 O 0.4138 0.19551 0.22775 0.0
O132 O 0.39431 0.18325 0.28691 0.0
C133 C 0.50301 0.16918 0.26046 0.0
C134 C 0.3552 0.07488 0.21814 0.0
O135 O 0.35662 0.08815 0.25158 0.0
O136 O 0.38996 0.09155 0.19947 0.0
C137 C 0.39689 0.12352 0.37009 0.0
O138 O 0.41701 0.16616 0.36981 0.0
C139 C 0.39938 0.2046 0.25692 0.0
Zn140 Zn 0.14573 0.45808 0.68562 0.0
Zn141 Zn 0.21347 0.44734 0.69269 0.0
O142 O 0.23738 0.5133 0.70353 0.0
O143 O 0.18001 0.52135 0.69842 0.0
O144 O 0.25925 0.43397 0.71254 0.0
O145 O 0.1074 0.41321 0.72277 0.0
O146 O 0.15997 0.39799 0.71912 0.0
C147 C 0.22035 0.53761 0.70424 0.0
C148 C 0.17298 0.43111 0.61734 0.0
O149 O 0.20535 0.43555 0.63646 0.0
O150 O 0.14433 0.43773 0.63215 0.0
C151 C 0.25245 0.39537 0.70924 0.0
O152 O 0.21977 0.36771 0.68838 0.0
C153 C 0.1219 0.38794 0.72983 0.0
Zn154 Zn 0.64816 0.21523 0.0026 0.0
Zn155 Zn 0.76433 0.26547 0.04999 0.0
O156 O 0.73526 0.29446 0.08273 0.0
O157 O 0.69036 0.25305 0.04185 0.0
O158 O 0.822 0.2801 0.07602 0.0
O159 O 0.66018 0.16596 0.01221 0.0
O160 O 0.72521 0.19634 0.04219 0.0
C161 C 0.6971 0.27709 0.06984 0.0
C162 C 0.73925 0.27307 0.97868 0.0
O163 O 0.77573 0.28538 0.99443 0.0
O164 O 0.70917 0.26949 1.00002 0.0
C165 C 0.85569 0.31766 0.07332 0.0
O166 O 0.85358 0.34683 0.05228 0.0
C167 C 0.69091 0.1631 0.02842 0.0
C168 C 0.28558 0.59481 0.31699 0.0
C169 C 0.28798 0.57001 0.28755 0.0
C170 C 0.31698 0.63884 0.32116 0.0
C171 C 0.35251 0.65796 0.29611 0.0
C172 C 0.35331 0.6338 0.26479 0.0
C173 C 0.32061 0.59014 0.26063 0.0
C174 C 0.31381 0.66384 0.35398 0.0
C175 C 0.3908 0.65272 0.23759 0.0
C176 C 0.437 0.778 0.29198 0.0
C177 C 0.47126 0.77921 0.31259 0.0
C178 C 0.39683 0.73941 0.28852 0.0
C179 C 0.39136 0.70086 0.30505 0.0
C180 C 0.42492 0.70262 0.32787 0.0
C181 C 0.46424 0.74197 0.33182 0.0
C182 C 0.36134 0.73942 0.26527 0.0
C183 C 0.4207 0.66221 0.34574 0.0
H184 H 0.26043 0.57906 0.33797 0.0
H185 H 0.3229 0.57073 0.23829 0.0
H186 H 0.33712 0.66669 0.376 0.0
H187 H 0.32243 0.69722 0.34551 0.0
H188 H 0.28064 0.64747 0.36626 0.0
H189 H 0.38486 0.63109 0.21317 0.0
H190 H 0.39695 0.6847 0.22729 0.0
H191 H 0.42077 0.65804 0.25204 0.0
H192 H 0.44233 0.80677 0.27703 0.0
H193 H 0.49079 0.74257 0.34734 0.0
H194 H 0.32923 0.72003 0.27898 0.0
H195 H 0.35961 0.72432 0.2377 0.0
H196 H 0.36736 0.77285 0.26046 0.0
H197 H 0.39065 0.64575 0.36276 0.0
H198 H 0.4489 0.66939 0.36393 0.0
H199 H 0.41813 0.6391 0.32363 0.0
C200 C 0.79129 0.26526 0.71609 0.0
C201 C 0.78873 0.24114 0.7479 0.0
C202 C 0.79521 0.30644 0.71935 0.0
C203 C 0.79605 0.32376 0.75529 0.0
C204 C 0.79217 0.29904 0.78747 0.0
C205 C 0.78907 0.2583 0.78339 0.0
C206 C 0.79972 0.33198 0.68428 0.0
C207 C 0.79199 0.31585 0.82622 0.0
C208 C 0.85792 0.44628 0.75475 0.0
C209 C 0.82455 0.4558 0.74853 0.0
C210 C 0.8488 0.4035 0.75979 0.0
C211 C 0.80512 0.3693 0.7588 0.0
C212 C 0.77103 0.37907 0.75638 0.0
C213 C 0.78116 0.42242 0.75121 0.0
C214 C 0.88621 0.39473 0.76263 0.0
C215 C 0.72401 0.34354 0.75606 0.0
H216 H 0.79093 0.25228 0.68858 0.0
H217 H 0.78672 0.23982 0.80817 0.0
H218 H 0.77454 0.34176 0.68368 0.0
H219 H 0.83191 0.36214 0.68408 0.0
H220 H 0.79666 0.31323 0.65847 0.0
H221 H 0.78566 0.29134 0.84821 0.0
H222 H 0.8238 0.34522 0.83204 0.0
H223 H 0.76677 0.32552 0.82815 0.0
H224 H 0.89153 0.47212 0.75304 0.0
H225 H 0.75526 0.42958 0.74627 0.0
H226 H 0.88836 0.37918 0.7364 0.0
H227 H 0.88087 0.37198 0.78586 0.0
H228 H 0.91782 0.42494 0.76715 0.0
H229 H 0.7159 0.32747 0.72828 0.0
H230 H 0.70176 0.35647 0.76149 0.0
H231 H 0.71803 0.31839 0.77724 0.0
C232 C 0.48474 0.72497 0.99252 0.0
C233 C 0.49925 0.70485 0.01784 0.0
C234 C 0.44277 0.71941 0.99526 0.0
C235 C 0.41405 0.69226 0.02349 0.0
C236 C 0.42783 0.67035 0.04814 0.0
C237 C 0.47039 0.67727 0.04528 0.0
C238 C 0.42965 0.74379 0.96858 0.0
C239 C 0.39794 0.6403 0.07797 0.0
C240 C 0.32563 0.7194 0.04591 0.0
C241 C 0.29354 0.69306 0.02006 0.0
C242 C 0.36411 0.71741 0.04942 0.0
C243 C 0.37001 0.68771 0.0271 0.0
C244 C 0.33547 0.65782 0.0041 0.0
C245 C 0.29795 0.66134 1.00039 0.0
C246 C 0.40015 0.75015 0.07408 0.0
C247 C 0.33965 0.62469 0.98076 0.0
H248 H 0.5068 0.7466 0.97142 0.0
H249 H 0.48135 0.66156 0.06493 0.0
H250 H 0.40041 0.72061 0.95251 0.0
H251 H 0.42102 0.76523 0.98452 0.0
H252 H 0.4559 0.764 0.9485 0.0
H253 H 0.41213 0.62274 0.09267 0.0
H254 H 0.39115 0.6592 0.0989 0.0
H255 H 0.36633 0.61616 0.06551 0.0
H256 H 0.32266 0.74453 0.06056 0.0
H257 H 0.27328 0.64119 0.98014 0.0
H258 H 0.42634 0.77502 0.05629 0.0
H259 H 0.41463 0.73438 0.0909 0.0
H260 H 0.38856 0.76681 0.09329 0.0
H261 H 0.36116 0.64106 0.95654 0.0
H262 H 0.30764 0.59908 0.96997 0.0
H263 H 0.35461 0.60909 0.99724 0.0
C264 C 0.56166 0.23022 0.29605 0.0
C265 C 0.54967 0.19761 0.26909 0.0
C266 C 0.60204 0.26863 0.29393 0.0
C267 C 0.6314 0.27372 0.26482 0.0
C268 C 0.62233 0.23778 0.2418 0.0
C269 C 0.58115 0.20027 0.24377 0.0
C270 C 0.6104 0.30586 0.3195 0.0
C271 C 0.65385 0.24047 0.21224 0.0
C272 C 0.67462 0.38543 0.22501 0.0
C273 C 0.7109 0.40961 0.24782 0.0
C274 C 0.65079 0.34013 0.22734 0.0
C275 C 0.6641 0.31853 0.25288 0.0
C276 C 0.70451 0.34242 0.27163 0.0
C277 C 0.72742 0.38808 0.26921 0.0
C278 C 0.6086 0.31617 0.20578 0.0
C279 C 0.72157 0.32048 0.29701 0.0
H280 H 0.53758 0.22822 0.31583 0.0
H281 H 0.57231 0.1747 0.22326 0.0
H282 H 0.64354 0.32075 0.33158 0.0
H283 H 0.60826 0.33131 0.30322 0.0
H284 H 0.58656 0.29543 0.34276 0.0
H285 H 0.65064 0.20812 0.20739 0.0
H286 H 0.64652 0.25119 0.18545 0.0
H287 H 0.68799 0.26392 0.2201 0.0
H288 H 0.66217 0.40231 0.20829 0.0
H289 H 0.75556 0.40679 0.28691 0.0
H290 H 0.58077 0.30084 0.22546 0.0
H291 H 0.60825 0.29001 0.18864 0.0
H292 H 0.6035 0.33801 0.18693 0.0
H293 H 0.7099 0.31975 0.32591 0.0
H294 H 0.75769 0.33875 0.2977 0.0
H295 H 0.71029 0.28659 0.28804 0.0
C296 C 0.33383 0.78944 0.66313 0.0
C297 C 0.35357 0.81614 0.69433 0.0
C298 C 0.31686 0.74429 0.66518 0.0
C299 C 0.31957 0.72538 0.69922 0.0
C300 C 0.34172 0.75246 0.73005 0.0
C301 C 0.35874 0.79745 0.72711 0.0
C302 C 0.294 0.71659 0.63149 0.0
C303 C 0.34518 0.73372 0.7669 0.0
C304 C 0.22801 0.6103 0.71659 0.0
C305 C 0.2476 0.58551 0.70776 0.0
C306 C 0.25145 0.65579 0.71488 0.0
C307 C 0.29559 0.67723 0.70368 0.0
C308 C 0.31605 0.65255 0.69595 0.0
C309 C 0.29187 0.60694 0.69831 0.0
C310 C 0.22851 0.68086 0.72397 0.0
C311 C 0.36296 0.67421 0.68373 0.0
H312 H 0.32996 0.8035 0.63756 0.0
H313 H 0.37449 0.81787 0.75122 0.0
H314 H 0.30585 0.69357 0.62579 0.0
H315 H 0.2586 0.69703 0.63714 0.0
H316 H 0.29885 0.7364 0.60606 0.0
H317 H 0.3672 0.75928 0.78685 0.0
H318 H 0.31247 0.71533 0.77979 0.0
H319 H 0.3572 0.71061 0.76256 0.0
H320 H 0.19387 0.59402 0.72408 0.0
H321 H 0.30714 0.58803 0.69112 0.0
H322 H 0.22708 0.69813 0.69867 0.0
H323 H 0.24688 0.7058 0.74562 0.0
H324 H 0.19481 0.6595 0.73416 0.0
H325 H 0.36653 0.69009 0.65625 0.0
H326 H 0.37491 0.65079 0.68114 0.0
H327 H 0.38397 0.69997 0.70389 0.0
C328 C 0.67181 0.33076 0.07499 0.0
C329 C 0.66394 0.28843 0.08038 0.0
C330 C 0.63698 0.33873 0.0703 0.0
C331 C 0.59364 0.30348 0.07117 0.0
C332 C 0.58587 0.26151 0.08063 0.0
C333 C 0.62115 0.25449 0.08479 0.0
C334 C 0.64676 0.38404 0.06078 0.0
C335 C 0.54032 0.22305 0.08266 0.0
C336 C 0.49142 0.31259 0.06968 0.0
C337 C 0.47766 0.30144 0.0324 0.0
C338 C 0.53055 0.31612 0.08236 0.0
C339 C 0.55674 0.3085 0.05719 0.0
C340 C 0.54461 0.30035 0.01896 0.0
C341 C 0.50531 0.29702 0.00701 0.0
C342 C 0.54254 0.32546 0.12315 0.0
C343 C 0.57175 0.2923 0.99106 0.0
H344 H 0.70491 0.35687 0.07084 0.0
H345 H 0.61517 0.22168 0.08855 0.0
H346 H 0.64358 0.38642 0.03013 0.0
H347 H 0.62341 0.39172 0.07454 0.0
H348 H 0.68033 0.40876 0.06912 0.0
H349 H 0.53971 0.19406 0.09493 0.0
H350 H 0.51908 0.23104 0.09961 0.0
H351 H 0.52627 0.2146 0.05409 0.0
H352 H 0.47059 0.31661 0.08949 0.0
H353 H 0.49526 0.28877 0.97813 0.0
H354 H 0.54004 0.29624 0.1367 0.0
H355 H 0.52108 0.33473 0.13834 0.0
H356 H 0.57672 0.35203 0.12608 0.0
H357 H 0.60625 0.31848 0.99273 0.0
H358 H 0.56012 0.29043 0.96191 0.0
H359 H 0.57061 0.26127 0.99777 0.0
C360 C 0.27399 0.33851 0.2328 0.0
C361 C 0.2992 0.38058 0.24733 0.0
C362 C 0.29112 0.31036 0.22999 0.0
C363 C 0.33403 0.32444 0.24267 0.0
C364 C 0.36036 0.3677 0.25505 0.0
C365 C 0.34286 0.3953 0.25671 0.0
C366 C 0.26259 0.26487 0.21534 0.0
C367 C 0.40612 0.38406 0.26915 0.0
C368 C 0.3598 0.2408 0.28296 0.0
C369 C 0.38519 0.23741 0.2546 0.0
C370 C 0.34282 0.26885 0.27929 0.0
C371 C 0.35051 0.29336 0.24608 0.0
C372 C 0.37627 0.29023 0.21744 0.0
C373 C 0.39429 0.2633 0.22253 0.0
C374 C 0.3167 0.27234 0.31104 0.0
C375 C 0.3844 0.31489 0.18122 0.0
H376 H 0.24034 0.32687 0.22532 0.0
H377 H 0.36292 0.4279 0.26755 0.0
H378 H 0.28072 0.25625 0.19503 0.0
H379 H 0.25269 0.24146 0.2388 0.0
H380 H 0.23278 0.26098 0.20157 0.0
H381 H 0.42322 0.41933 0.27571 0.0
H382 H 0.40507 0.36615 0.29488 0.0
H383 H 0.42549 0.37803 0.24817 0.0
H384 H 0.35273 0.22114 0.30792 0.0
H385 H 0.41486 0.26184 0.20088 0.0
H386 H 0.28343 0.26274 0.30127 0.0
H387 H 0.33198 0.30652 0.32076 0.0
H388 H 0.31413 0.25154 0.33517 0.0
H389 H 0.35297 0.30741 0.16828 0.0
H390 H 0.40294 0.30683 0.16084 0.0
H391 H 0.40279 0.35033 0.1867 0.0
C392 C 0.92677 0.14914 0.77112 0.0
C393 C 0.90029 0.14369 0.74 0.0
C394 C 0.97018 0.18284 0.77218 0.0
C395 C 0.98726 0.2112 0.74132 0.0
C396 C 0.963 0.2011 0.70768 0.0
C397 C 0.91964 0.16724 0.70736 0.0
C398 C 0.99561 0.19137 0.80804 0.0
C399 C 0.98074 0.22956 0.67356 0.0
C400 C 0.05018 0.33263 0.75551 0.0
C401 C 0.09146 0.34317 0.74242 0.0
C402 C 0.01677 0.28932 0.75779 0.0
C403 C 0.02485 0.2557 0.74659 0.0
C404 C 0.0675 0.26587 0.73678 0.0
C405 C 0.10044 0.3096 0.73491 0.0
C406 C 0.97193 0.27987 0.76939 0.0
C407 C 0.07782 0.23117 0.72522 0.0
H408 H 0.91244 0.13021 0.79618 0.0
H409 H 0.89979 0.16261 0.68285 0.0
H410 H 0.03054 0.20354 0.80232 0.0
H411 H 0.99318 0.21664 0.82437 0.0
H412 H 0.9827 0.16165 0.82549 0.0
H413 H 0.96124 0.21347 0.64815 0.0
H414 H 0.98014 0.26015 0.67823 0.0
H415 H 0.01497 0.2383 0.66846 0.0
H416 H 0.04319 0.35837 0.7618 0.0
H417 H 0.13234 0.3174 0.72488 0.0
H418 H 0.95869 0.25451 0.79135 0.0
H419 H 0.94958 0.26733 0.74503 0.0
H420 H 0.97198 0.3092 0.78021 0.0
H421 H 0.058 0.20057 0.7409 0.0
H422 H 0.11281 0.24207 0.72949 0.0
H423 H 0.07043 0.224 0.69505 0.0
C424 C 0.65403 0.08603 0.0069 0.0
C425 C 0.68761 0.11973 0.02766 0.0
C426 C 0.65017 0.04501 0.00423 0.0
C427 C 0.68001 0.03673 0.02351 0.0
C428 C 0.71427 0.07043 0.04434 0.0
C429 C 0.71789 0.11173 0.04596 0.0
C430 C 0.6132 0.01012 0.9816 0.0
C431 C 0.74608 0.06241 0.06598 0.0
C432 C 0.63046 0.91879 0.05063 0.0
C433 C 0.64776 0.90264 0.02383 0.0
C434 C 0.64245 0.96268 0.05181 0.0
C435 C 0.67186 0.99145 0.02498 0.0
C436 C 0.68957 0.97569 0.99771 0.0
C437 C 0.67751 0.93142 0.99758 0.0
C438 C 0.62252 0.97795 0.08126 0.0
C439 C 0.72021 0.00536 0.96809 0.0
H440 H 0.6304 0.09155 0.99242 0.0
H441 H 0.74399 0.13746 0.06198 0.0
H442 H 0.62551 0.99431 0.96223 0.0
H443 H 0.58946 0.98462 1.00053 0.0
H444 H 0.59577 0.02311 0.965 0.0
H445 H 0.77356 0.09291 0.07732 0.0
H446 H 0.729 0.04025 0.08966 0.0
H447 H 0.75927 0.04624 0.04802 0.0
H448 H 0.60718 0.89704 0.07097 0.0
H449 H 0.69106 0.91935 0.97678 0.0
H450 H 0.59989 0.98689 0.06786 0.0
H451 H 0.64811 0.00735 0.09562 0.0
H452 H 0.60415 0.95265 0.10261 0.0
H453 H 0.70302 0.01737 0.95002 0.0
H454 H 0.73311 0.9888 0.9502 0.0
H455 H 0.74792 0.03417 0.98126 0.0
C456 C 0.65574 0.75113 0.31035 0.0
C457 C 0.65214 0.77811 0.28386 0.0
C458 C 0.67212 0.72383 0.30027 0.0
C459 C 0.68596 0.72422 0.26301 0.0
C460 C 0.68391 0.75259 0.23655 0.0
C461 C 0.66669 0.77889 0.24723 0.0
C462 C 0.67323 0.69347 0.32918 0.0
C463 C 0.69931 0.75463 0.19686 0.0
C464 C 0.75168 0.66731 0.25202 0.0
C465 C 0.71877 0.62522 0.24272 0.0
C466 C 0.74225 0.7011 0.25619 0.0
C467 C 0.69897 0.69223 0.2512 0.0
C468 C 0.66675 0.65092 0.23824 0.0
C469 C 0.67719 0.61808 0.23377 0.0
C470 C 0.77779 0.74522 0.26882 0.0
C471 C 0.62024 0.64014 0.23232 0.0
H472 H 0.64466 0.75048 0.3387 0.0
H473 H 0.66501 0.80043 0.22688 0.0
H474 H 0.65161 0.65932 0.32031 0.0
H475 H 0.7066 0.69852 0.33161 0.0
H476 H 0.66264 0.69814 0.35718 0.0
H477 H 0.69666 0.77932 0.17995 0.0
H478 H 0.73373 0.76243 0.19683 0.0
H479 H 0.67994 0.7226 0.18303 0.0
H480 H 0.78392 0.67314 0.25889 0.0
H481 H 0.65173 0.58574 0.22605 0.0
H482 H 0.77362 0.74944 0.29898 0.0
H483 H 0.77599 0.77138 0.25348 0.0
H484 H 0.8106 0.74917 0.26471 0.0
H485 H 0.60552 0.64015 0.25969 0.0
H486 H 0.60011 0.60782 0.21905 0.0
H487 H 0.61892 0.665 0.21457 0.0
C488 C 0.16693 0.75953 0.71181 0.0
C489 C 0.18997 0.80454 0.70693 0.0
C490 C 0.12141 0.73661 0.71113 0.0
C491 C 0.09861 0.75951 0.70595 0.0
C492 C 0.12185 0.80515 0.70168 0.0
C493 C 0.16742 0.82713 0.70176 0.0
C494 C 0.09778 0.68785 0.71543 0.0
C495 C 0.09861 0.83067 0.69695 0.0
C496 C 0.98797 0.69007 0.66301 0.0
C497 C 0.96138 0.67478 0.69476 0.0
C498 C 0.03239 0.71979 0.66613 0.0
C499 C 0.05064 0.73493 0.70192 0.0
C500 C 0.0234 0.7226 0.73382 0.0
C501 C 0.97881 0.69246 0.72987 0.0
C502 C 0.06028 0.73224 0.6314 0.0
C503 C 0.04181 0.73891 0.77233 0.0
H504 H 0.1846 0.7423 0.71614 0.0
H505 H 0.18546 0.86217 0.69883 0.0
H506 H 0.07499 0.67798 0.73939 0.0
H507 H 0.07817 0.67227 0.68999 0.0
H508 H 0.12041 0.6752 0.72 0.0
H509 H 0.12145 0.86627 0.69676 0.0
H510 H 0.08007 0.8214 0.67033 0.0
H511 H 0.07483 0.82292 0.71989 0.0
H512 H 0.97444 0.67698 0.6357 0.0
H513 H 0.95833 0.6808 0.75446 0.0
H514 H 0.08175 0.71787 0.63261 0.0
H515 H 0.08151 0.76797 0.62977 0.0
H516 H 0.04051 0.72075 0.60543 0.0
H517 H 0.06017 0.72292 0.78176 0.0
H518 H 0.01588 0.73197 0.79309 0.0
H519 H 0.06492 0.7744 0.77186 0.0
C520 C 0.31615 0.0765 0.97293 0.0
C521 C 0.3513 0.10557 0.99513 0.0
C522 C 0.30332 0.03211 0.97182 0.0
C523 C 0.32657 0.01669 0.99306 0.0
C524 C 0.36354 0.0464 0.01381 0.0
C525 C 0.37538 0.09042 0.01466 0.0
C526 C 0.2636 0.00136 0.94949 0.0
C527 C 0.38929 0.03137 0.03673 0.0
C528 C 0.26738 0.8994 0.02636 0.0
C529 C 0.28123 0.87935 1.00039 0.0
C530 C 0.28137 0.94387 0.02397 0.0
C531 C 0.31082 0.96925 0.99542 0.0
C532 C 0.32564 0.94933 0.96957 0.0
C533 C 0.31064 0.90464 0.97235 0.0
C534 C 0.26447 0.96331 0.0523 0.0
C535 C 0.357 0.97509 0.93875 0.0
H536 H 0.29724 0.08797 0.95801 0.0
H537 H 0.40269 0.11281 0.03178 0.0
H538 H 0.27195 0.98297 0.92929 0.0
H539 H 0.23833 0.97735 0.96849 0.0
H540 H 0.24961 0.01852 0.93387 0.0
H541 H 0.419 0.05894 0.04909 0.0
H542 H 0.36871 0.0102 0.05975 0.0
H543 H 0.39896 0.01181 0.01922 0.0
H544 H 0.24444 0.88007 0.04795 0.0
H545 H 0.32165 0.8894 0.95224 0.0
H546 H 0.25819 0.98802 0.03942 0.0
H547 H 0.28914 0.97916 0.07464 0.0
H548 H 0.23395 0.93816 0.06561 0.0
H549 H 0.34273 0.9902 0.92079 0.0
H550 H 0.36533 0.95468 0.92088 0.0
H551 H 0.38741 0.00179 0.95094 0.0
C552 C 0.89782 0.30093 0.12108 0.0
C553 C 0.89624 0.32956 0.09493 0.0
C554 C 0.93529 0.31319 0.14301 0.0
C555 C 0.97231 0.35506 0.1387 0.0
C556 C 0.97124 0.38365 0.11171 0.0
C557 C 0.93338 0.37065 0.09031 0.0
C558 C 0.93484 0.2817 0.1715 0.0
C559 C 0.00982 0.42851 0.106 0.0
C560 C 0.05053 0.40628 0.22083 0.0
C561 C 0.08545 0.40018 0.21096 0.0
C562 C 0.01363 0.39148 0.19779 0.0
C563 C 0.01122 0.36996 0.16376 0.0
C564 C 0.0463 0.36364 0.15354 0.0
C565 C 0.08291 0.37875 0.17722 0.0
C566 C 0.9772 0.39909 0.20991 0.0
C567 C 0.04524 0.34109 0.11746 0.0
H568 H 0.86944 0.26915 0.12497 0.0
H569 H 0.93279 0.39309 0.07016 0.0
H570 H 0.96304 0.27681 0.16712 0.0
H571 H 0.93797 0.2953 0.20001 0.0
H572 H 0.90452 0.24965 0.17018 0.0
H573 H 0.00488 0.44589 0.08241 0.0
H574 H 0.01583 0.44809 0.1318 0.0
H575 H 0.03951 0.42646 0.10051 0.0
H576 H 0.0519 0.42269 0.24677 0.0
H577 H 0.10956 0.37377 0.16925 0.0
H578 H 0.94626 0.36771 0.21153 0.0
H579 H 0.97257 0.4194 0.18893 0.0
H580 H 0.98357 0.41549 0.23753 0.0
H581 H 0.01621 0.3081 0.11682 0.0
H582 H 0.07475 0.3382 0.11365 0.0
H583 H 0.04247 0.35927 0.09343 0.0
C584 C 0.72672 0.05633 0.5846 0.0
C585 C 0.70167 0.03507 0.61619 0.0
C586 C 0.71466 0.03753 0.54879 0.0
C587 C 0.67642 0.99664 0.54433 0.0
C588 C 0.6508 0.97527 0.57605 0.0
C589 C 0.6638 0.99461 0.61153 0.0
C590 C 0.74301 0.06127 0.51574 0.0
C591 C 0.60959 0.93188 0.57254 0.0
C592 C 0.6229 0.96487 0.4483 0.0
C593 C 0.63642 0.93618 0.43535 0.0
C594 C 0.63576 0.98482 0.48358 0.0
C595 C 0.66307 0.97617 0.50653 0.0
C596 C 0.67702 0.94741 0.49358 0.0
C597 C 0.66343 0.92768 0.45825 0.0
C598 C 0.61988 0.015 0.49638 0.0
C599 C 0.7063 0.93747 0.51709 0.0
H600 H 0.75609 0.0875 0.58788 0.0
H601 H 0.64411 0.97794 0.63568 0.0
H602 H 0.75453 0.04081 0.50206 0.0
H603 H 0.7239 0.06759 0.49467 0.0
H604 H 0.77175 0.09271 0.52385 0.0
H605 H 0.593 0.91973 0.59983 0.0
H606 H 0.58674 0.93451 0.55299 0.0
H607 H 0.6171 0.90751 0.56069 0.0
H608 H 0.602 0.97168 0.43091 0.0
H609 H 0.6742 0.90571 0.44851 0.0
H610 H 0.64797 0.0476 0.50251 0.0
H611 H 0.60108 0.00267 0.52266 0.0
H612 H 0.59895 0.01849 0.47518 0.0
H613 H 0.73671 0.96796 0.52396 0.0
H614 H 0.71493 0.91504 0.50277 0.0
H615 H 0.69007 0.92255 0.54391 0.0
C616 C 0.70979 0.74171 0.89406 0.0
C617 C 0.66591 0.71529 0.90381 0.0
C618 C 0.72945 0.72821 0.86699 0.0
C619 C 0.70453 0.68758 0.84878 0.0
C620 C 0.65994 0.66141 0.85778 0.0
C621 C 0.64133 0.6754 0.88527 0.0
C622 C 0.77716 0.75695 0.85849 0.0
C623 C 0.63191 0.61825 0.83872 0.0
C624 C 0.7446 0.66645 0.75633 0.0
C625 C 0.76173 0.64011 0.76747 0.0
C626 C 0.7261 0.68222 0.78241 0.0
C627 C 0.72507 0.67194 0.82078 0.0
C628 C 0.74258 0.64562 0.83226 0.0
C629 C 0.76041 0.62983 0.8055 0.0
C630 C 0.70727 0.70959 0.76883 0.0
C631 C 0.74249 0.63412 0.87288 0.0
H632 H 0.72912 0.77244 0.90835 0.0
H633 H 0.60735 0.65479 0.89239 0.0
H634 H 0.79499 0.7396 0.86536 0.0
H635 H 0.78181 0.76458 0.82821 0.0
H636 H 0.79186 0.78789 0.87448 0.0
H637 H 0.59739 0.60259 0.84772 0.0
H638 H 0.63329 0.62263 0.80795 0.0
H639 H 0.64443 0.59592 0.845 0.0
H640 H 0.74531 0.67455 0.72704 0.0
H641 H 0.77374 0.60975 0.8145 0.0
H642 H 0.72356 0.74162 0.78305 0.0
H643 H 0.67221 0.69361 0.77599 0.0
H644 H 0.71081 0.71493 0.73813 0.0
H645 H 0.75943 0.66415 0.88996 0.0
H646 H 0.75857 0.61454 0.87747 0.0
H647 H 0.70857 0.61543 0.88323 0.0
C648 C 0.03762 0.64794 0.07753 0.0
C649 C 0.08139 0.67656 0.0866 0.0
C650 C 0.00505 0.63149 0.1051 0.0
C651 C 0.01623 0.64363 0.14298 0.0
C652 C 0.06034 0.6725 0.15243 0.0
C653 C 0.09234 0.6887 0.12418 0.0
C654 C 0.95854 0.60095 0.0936 0.0
C655 C 0.07374 0.68611 0.19245 0.0
C656 C 0.9228 0.62754 0.20653 0.0
C657 C 0.90989 0.58681 0.22253 0.0
C658 C 0.9582 0.64708 0.18161 0.0
C659 C 0.98156 0.62558 0.17245 0.0
C660 C 0.96971 0.58525 0.1896 0.0
C661 C 0.93409 0.56639 0.21428 0.0
C662 C 0.96955 0.69001 0.16396 0.0
C663 C 0.99374 0.56123 0.1809 0.0
H664 H 0.02859 0.63832 0.04868 0.0
H665 H 0.12598 0.71072 0.13158 0.0
H666 H 0.94617 0.56929 0.10794 0.0
H667 H 0.93761 0.61442 0.10223 0.0
H668 H 0.95505 0.59512 0.06294 0.0
H669 H 0.10923 0.7089 0.19528 0.0
H670 H 0.05603 0.70197 0.20379 0.0
H671 H 0.06484 0.65708 0.20992 0.0
H672 H 0.90445 0.6437 0.21262 0.0
H673 H 0.92466 0.53503 0.22651 0.0
H674 H 0.96331 0.68556 0.13343 0.0
H675 H 0.00463 0.71365 0.16782 0.0
H676 H 0.95034 0.70404 0.17588 0.0
H677 H 0.98856 0.55093 0.15116 0.0
H678 H 0.98278 0.53196 0.19864 0.0
H679 H 0.02921 0.58289 0.18498 0.0
C680 C 0.39624 0.12185 0.44033 0.0
C681 C 0.38661 0.09946 0.40613 0.0
C682 C 0.38907 0.09986 0.47456 0.0
C683 C 0.37197 0.05433 0.47473 0.0
C684 C 0.36111 0.03138 0.44037 0.0
C685 C 0.36848 0.05417 0.40655 0.0
C686 C 0.40092 0.12556 0.51053 0.0
C687 C 0.34287 0.98287 0.43926 0.0
C688 C 0.39986 0.00527 0.55735 0.0
C689 C 0.36137 0.98688 0.5784 0.0
C690 C 0.40361 0.0272 0.5237 0.0
C691 C 0.36808 0.03115 0.51063 0.0
C692 C 0.32915 0.01288 0.53178 0.0
C693 C 0.32621 0.99089 0.56536 0.0
C694 C 0.44567 0.04601 0.50204 0.0
C695 C 0.2906 0.01653 0.51889 0.0
H696 H 0.41005 0.15678 0.44041 0.0
H697 H 0.36079 0.03647 0.38036 0.0
H698 H 0.37285 0.11147 0.52997 0.0
H699 H 0.42789 0.12377 0.52452 0.0
H700 H 0.41121 0.16027 0.50583 0.0
H701 H 0.33376 0.96946 0.41051 0.0
H702 H 0.36732 0.97498 0.45033 0.0
H703 H 0.31373 0.96634 0.4574 0.0
H704 H 0.42723 0.00236 0.56703 0.0
H705 H 0.29634 0.97685 0.58138 0.0
H706 H 0.4596 0.08154 0.49865 0.0
H707 H 0.4394 0.03158 0.47361 0.0
H708 H 0.47024 0.04013 0.51596 0.0
H709 H 0.30009 0.0512 0.5158 0.0
H710 H 0.26282 0.00093 0.53862 0.0
H711 H 0.27964 0.00109 0.49102 0.0
C712 C 0.37641 0.30863 0.84386 0.0
C713 C 0.3478 0.28555 0.87315 0.0
C714 C 0.36401 0.32707 0.81496 0.0
C715 C 0.32212 0.32275 0.81546 0.0
C716 C 0.29291 0.29902 0.84468 0.0
C717 C 0.306 0.28056 0.87299 0.0
C718 C 0.39591 0.3516 0.7841 0.0
C719 C 0.24802 0.29378 0.84642 0.0
C720 C 0.29987 0.40379 0.76447 0.0
C721 C 0.27556 0.37941 0.73353 0.0
C722 C 0.31633 0.38624 0.79077 0.0
C723 C 0.30879 0.34344 0.78584 0.0
C724 C 0.28619 0.31954 0.75367 0.0
C725 C 0.26967 0.33768 0.72806 0.0
C726 C 0.34006 0.41278 0.82475 0.0
C727 C 0.27801 0.27411 0.74699 0.0
H728 H 0.40874 0.31261 0.84361 0.0
H729 H 0.28366 0.26296 0.89549 0.0
H730 H 0.38113 0.33777 0.75651 0.0
H731 H 0.40389 0.38601 0.78427 0.0
H732 H 0.42658 0.35064 0.78694 0.0
H733 H 0.22909 0.27415 0.87081 0.0
H734 H 0.2506 0.32615 0.84817 0.0
H735 H 0.22968 0.2779 0.82054 0.0
H736 H 0.30448 0.43597 0.76907 0.0
H737 H 0.25111 0.31862 0.70418 0.0
H738 H 0.37193 0.41439 0.8278 0.0
H739 H 0.32088 0.39693 0.85024 0.0
H740 H 0.3456 0.44639 0.82338 0.0
H741 H 0.30882 0.2734 0.74931 0.0
H742 H 0.26343 0.26138 0.71907 0.0
H743 H 0.2556 0.25198 0.76867 0.0
C744 C 0.16176 0.35476 0.40567 0.0
C745 C 0.16276 0.38689 0.38238 0.0
C746 C 0.15552 0.35551 0.44429 0.0
C747 C 0.15168 0.39006 0.45986 0.0
C748 C 0.14862 0.42022 0.43599 0.0
C749 C 0.15357 0.41783 0.3973 0.0
C750 C 0.15718 0.32173 0.46864 0.0
C751 C 0.1451 0.45788 0.45147 0.0
C752 C 0.12613 0.39336 0.56238 0.0
C753 C 0.16794 0.41815 0.57768 0.0
C754 C 0.12024 0.38261 0.52428 0.0
C755 C 0.15701 0.39821 0.50079 0.0
C756 C 0.19936 0.42286 0.51622 0.0
C757 C 0.20432 0.43197 0.55468 0.0
C758 C 0.07474 0.35501 0.50911 0.0
C759 C 0.23943 0.44068 0.49193 0.0
H760 H 0.1691 0.33095 0.39403 0.0
H761 H 0.15507 0.4431 0.37932 0.0
H762 H 0.18962 0.33592 0.48211 0.0
H763 H 0.13251 0.31104 0.49119 0.0
H764 H 0.15167 0.29287 0.45219 0.0
H765 H 0.11962 0.44678 0.47331 0.0
H766 H 0.17644 0.48142 0.46476 0.0
H767 H 0.13755 0.47503 0.42934 0.0
H768 H 0.09793 0.38223 0.58031 0.0
H769 H 0.23659 0.45129 0.56651 0.0
H770 H 0.07228 0.32695 0.49336 0.0
H771 H 0.06711 0.37424 0.48928 0.0
H772 H 0.04987 0.34265 0.5316 0.0
H773 H 0.24091 0.41371 0.4777 0.0
H774 H 0.26989 0.45985 0.50819 0.0
H775 H 0.23786 0.46179 0.46988 0.0
C776 C 0.75568 0.23473 0.92762 0.0
C777 C 0.72707 0.24613 0.94421 0.0
C778 C 0.7417 0.20397 0.8986 0.0
C779 C 0.69748 0.18273 0.8869 0.0
C780 C 0.66895 0.19538 0.90265 0.0
C781 C 0.6846 0.22803 0.93001 0.0
C782 C 0.77441 0.1934 0.88183 0.0
C783 C 0.62162 0.17437 0.89167 0.0
C784 C 0.67675 0.12659 0.79314 0.0
C785 C 0.67969 0.08988 0.80325 0.0
C786 C 0.67911 0.15619 0.82035 0.0
C787 C 0.68182 0.14734 0.85852 0.0
C788 C 0.67561 0.10619 0.86886 0.0
C789 C 0.67498 0.07797 0.84107 0.0
C790 C 0.68167 0.19797 0.80782 0.0
C791 C 0.67321 0.09349 0.90933 0.0
H792 H 0.78877 0.24895 0.93786 0.0
H793 H 0.66271 0.23811 0.94134 0.0
H794 H 0.76595 0.18078 0.85287 0.0
H795 H 0.80743 0.22255 0.88165 0.0
H796 H 0.77596 0.16841 0.89925 0.0
H797 H 0.60129 0.17138 0.91633 0.0
H798 H 0.61757 0.19543 0.87111 0.0
H799 H 0.60902 0.14167 0.87918 0.0
H800 H 0.67829 0.13526 0.76391 0.0
H801 H 0.67552 0.04886 0.84922 0.0
H802 H 0.64915 0.19486 0.8109 0.0
H803 H 0.69124 0.20513 0.77798 0.0
H804 H 0.70497 0.22604 0.82498 0.0
H805 H 0.70616 0.11057 0.92195 0.0
H806 H 0.65999 0.05801 0.91251 0.0
H807 H 0.65243 0.10312 0.92511 0.0
C808 C 0.68945 0.95162 0.20396 0.0
C809 C 0.69535 0.9393 0.23981 0.0
C810 C 0.69942 0.93519 0.17207 0.0
C811 C 0.71566 0.9063 0.17651 0.0
C812 C 0.73208 0.90364 0.21194 0.0
C813 C 0.7223 0.92099 0.24337 0.0
C814 C 0.68524 0.9425 0.13446 0.0
C815 C 0.75616 0.8791 0.21774 0.0
C816 C 0.64464 0.79783 0.12879 0.0
C817 C 0.67068 0.79845 0.09916 0.0
C818 C 0.65835 0.83338 0.1528 0.0
C819 C 0.70112 0.86942 0.14959 0.0
C820 C 0.72878 0.86938 0.12112 0.0
C821 C 0.7131 0.83411 0.09594 0.0
C822 C 0.62517 0.83272 0.17965 0.0
C823 C 0.77434 0.90704 0.11667 0.0
H824 H 0.67083 0.96804 0.2007 0.0
H825 H 0.73001 0.91408 0.27095 0.0
H826 H 0.70446 0.93934 0.11146 0.0
H827 H 0.65051 0.9179 0.13023 0.0
H828 H 0.68832 0.97512 0.13316 0.0
H829 H 0.74959 0.85479 0.19559 0.0
H830 H 0.79158 0.90272 0.21757 0.0
H831 H 0.7483 0.86265 0.24535 0.0
H832 H 0.61233 0.77013 0.13239 0.0
H833 H 0.73382 0.83488 0.07338 0.0
H834 H 0.64015 0.85297 0.20468 0.0
H835 H 0.60178 0.79911 0.18879 0.0
H836 H 0.6063 0.84555 0.16512 0.0
H837 H 0.77362 0.93778 0.11393 0.0
H838 H 0.79104 0.90326 0.09191 0.0
H839 H 0.79369 0.90999 0.14201 0.0
C840 C 0.72704 0.54825 0.41835 0.0
C841 C 0.76266 0.55377 0.3969 0.0
C842 C 0.72915 0.55088 0.45742 0.0
C843 C 0.76782 0.55919 0.47573 0.0
C844 C 0.80464 0.56689 0.4543 0.0
C845 C 0.80165 0.56414 0.41505 0.0
C846 C 0.68924 0.54264 0.47913 0.0
C847 C 0.84657 0.57612 0.47293 0.0
C848 C 0.78606 0.58806 0.57925 0.0
C849 C 0.77802 0.54849 0.59461 0.0
C850 C 0.7815 0.59193 0.54058 0.0
C851 C 0.76826 0.55525 0.51712 0.0
C852 C 0.75685 0.51453 0.5331 0.0
C853 C 0.76204 0.51172 0.57161 0.0
C854 C 0.79363 0.6358 0.52459 0.0
C855 C 0.74166 0.47438 0.50925 0.0
H856 H 0.69686 0.54085 0.40464 0.0
H857 H 0.82934 0.5687 0.39872 0.0
H858 H 0.66335 0.54125 0.46073 0.0
H859 H 0.67592 0.51131 0.49422 0.0
H860 H 0.69773 0.56837 0.50043 0.0
H861 H 0.87327 0.58518 0.45247 0.0
H862 H 0.85684 0.60281 0.49359 0.0
H863 H 0.84147 0.5469 0.48839 0.0
H864 H 0.79906 0.61668 0.5969 0.0
H865 H 0.75586 0.48111 0.5835 0.0
H866 H 0.76838 0.63309 0.50471 0.0
H867 H 0.8245 0.64857 0.50878 0.0
H868 H 0.79803 0.65961 0.54674 0.0
H869 H 0.73126 0.44471 0.52632 0.0
H870 H 0.7684 0.47857 0.49053 0.0
H871 H 0.71406 0.46939 0.49127 0.0
C872 C 0.15548 0.7526 0.87267 0.0
C873 C 0.15669 0.76386 0.91039 0.0
C874 C 0.1746 0.78483 0.84517 0.0
C875 C 0.19427 0.82917 0.85562 0.0
C876 C 0.18718 0.83982 0.89212 0.0
C877 C 0.16826 0.80689 0.91923 0.0
C878 C 0.17999 0.77143 0.80649 0.0
C879 C 0.20565 0.88642 0.90426 0.0
C880 C 0.30798 0.8942 0.8161 0.0
C881 C 0.30134 0.91231 0.78377 0.0
C882 C 0.27371 0.86881 0.84042 0.0
C883 C 0.23155 0.86217 0.83298 0.0
C884 C 0.22538 0.88373 0.80228 0.0
C885 C 0.26037 0.9084 0.77778 0.0
C886 C 0.28221 0.84646 0.87258 0.0
C887 C 0.18154 0.87922 0.79442 0.0
H888 H 0.1454 0.71924 0.86539 0.0
H889 H 0.16834 0.81606 0.94816 0.0
H890 H 0.17737 0.79252 0.78524 0.0
H891 H 0.21274 0.77485 0.80408 0.0
H892 H 0.15527 0.73714 0.80037 0.0
H893 H 0.18708 0.88902 0.92815 0.0
H894 H 0.2398 0.8995 0.91354 0.0
H895 H 0.20556 0.90693 0.88095 0.0
H896 H 0.33966 0.89753 0.82105 0.0
H897 H 0.25492 0.92245 0.75292 0.0
H898 H 0.26398 0.81079 0.86809 0.0
H899 H 0.27066 0.85317 0.89915 0.0
H900 H 0.31726 0.85702 0.87572 0.0
H901 H 0.16799 0.88506 0.8203 0.0
H902 H 0.15837 0.84573 0.78498 0.0
H903 H 0.18335 0.90215 0.77247 0.0
C904 C 0.27991 0.06178 0.20931 0.0
C905 C 0.31393 0.05569 0.19649 0.0
C906 C 0.25722 0.07364 0.18404 0.0
C907 C 0.27049 0.08106 0.14616 0.0
C908 C 0.29675 0.06443 0.13247 0.0
C909 C 0.31646 0.04963 0.15799 0.0
C910 C 0.22483 0.08553 0.19886 0.0
C911 C 0.31146 0.07067 0.09232 0.0
C912 C 0.25985 0.14932 0.06945 0.0
C913 C 0.29458 0.19058 0.07887 0.0
C914 C 0.24768 0.11348 0.09329 0.0
C915 C 0.27224 0.11879 0.12618 0.0
C916 C 0.30499 0.1612 0.13684 0.0
C917 C 0.31384 0.19658 0.1141 0.0
C918 C 0.21032 0.06999 0.08164 0.0
C919 C 0.33428 0.16959 0.1702 0.0
H920 H 0.27551 0.06393 0.23907 0.0
H921 H 0.34073 0.04205 0.14789 0.0
H922 H 0.24219 0.11952 0.20917 0.0
H923 H 0.20164 0.08277 0.17669 0.0
H924 H 0.20645 0.06428 0.22271 0.0
H925 H 0.33147 0.05544 0.08622 0.0
H926 H 0.28303 0.05676 0.07331 0.0
H927 H 0.33136 0.10584 0.08619 0.0
H928 H 0.24359 0.1444 0.04274 0.0
H929 H 0.33952 0.22867 0.12224 0.0
H930 H 0.18164 0.0734 0.07484 0.0
H931 H 0.20091 0.04478 0.10353 0.0
H932 H 0.21906 0.05895 0.0557 0.0
H933 H 0.31725 0.16982 0.1961 0.0
H934 H 0.36463 0.20124 0.16771 0.0
H935 H 0.34411 0.14468 0.17299 0.0
loop_
_geom_bond_atom_site_label_1
_geom_bond_atom_site_label_2
_geom_bond_distance
_geom_bond_site_symmetry_2
_ccdc_geom_bond_type
Zn0 O3 2.031 . S
Zn0 O5 2.049 . S
Zn0 O10 2.067 . S
Zn1 O2 1.962 . S
Zn1 O4 1.986 . S
Zn1 O6 1.996 . S
Zn1 O9 1.943 . S
O2 Zn1 1.962 . S
O2 C7 1.254 . S
O3 Zn0 2.031 . S
O3 C7 1.269 . S
O4 Zn1 1.986 . S
O4 C11 1.262 . S
O5 Zn0 2.049 . S
O5 C13 1.260 . S
O6 Zn1 1.996 . S
O6 C13 1.257 . S
C7 O2 1.254 . S
C7 O3 1.269 . S
C8 O9 1.249 . S
C8 O10 1.270 . S
O9 Zn1 1.943 . S
O9 C8 1.249 . S
O10 Zn0 2.067 . S
O10 C8 1.270 . S
C11 O4 1.262 . S
C11 O12 1.232 . S
O12 C11 1.232 . S
C13 O5 1.260 . S
C13 O6 1.257 . S
Zn14 O17 2.031 . S
Zn14 O19 2.049 . S
Zn14 O24 2.067 . S
Zn15 O16 1.962 . S
Zn15 O18 1.986 . S
Zn15 O20 1.996 . S
Zn15 O23 1.943 . S
O16 Zn15 1.962 . S
O16 C21 1.254 . S
O17 Zn14 2.031 . S
O17 C21 1.269 . S
O18 Zn15 1.986 . S
O18 C25 1.262 . S
O19 Zn14 2.049 . S
O19 C27 1.260 . S
O20 Zn15 1.996 . S
O20 C27 1.257 . S
C21 O16 1.254 . S
C21 O17 1.269 . S
C22 O23 1.249 . S
C22 O24 1.270 . S
O23 Zn15 1.943 . S
O23 C22 1.249 . S
O24 Zn14 2.067 . S
O24 C22 1.270 . S
C25 O18 1.262 . S
C25 O26 1.232 . S
O26 C25 1.232 . S
C27 O19 1.260 . S
C27 O20 1.257 . S
Zn28 O31 2.031 . S
Zn28 O33 2.049 . S
Zn28 O38 2.067 . S
Zn29 O30 1.962 . S
Zn29 O32 1.986 . S
Zn29 O34 1.996 . S
Zn29 O37 1.943 1_556 S
O30 Zn29 1.962 . S
O30 C35 1.254 . S
O31 Zn28 2.031 . S
O31 C35 1.269 1_554 S
O32 Zn29 1.986 . S
O32 C39 1.262 . S
O33 Zn28 2.049 . S
O33 C41 1.244 1_554 S
O34 Zn29 1.996 . S
O34 C41 1.265 . S
C35 O30 1.254 . S
C35 O31 1.269 1_556 S
C36 O37 1.249 . S
C36 O38 1.270 . S
O37 Zn29 1.943 1_554 S
O37 C36 1.249 . S
O38 Zn28 2.067 . S
O38 C36 1.270 . S
C39 O32 1.262 . S
C39 O40 1.232 . S
O40 C39 1.232 . S
C41 O33 1.244 1_556 S
C41 O34 1.265 . S
Zn42 O45 2.031 . S
Zn42 O47 2.049 . S
Zn42 O52 2.067 . S
Zn43 O44 1.962 . S
Zn43 O46 1.986 . S
Zn43 O48 1.996 . S
Zn43 O51 1.943 . S
O44 Zn43 1.962 . S
O44 C49 1.254 . S
O45 Zn42 2.031 . S
O45 C49 1.269 . S
O46 Zn43 1.986 . S
O46 C53 1.262 . S
O47 Zn42 2.049 . S
O47 C55 1.260 . S
O48 Zn43 1.996 . S
O48 C55 1.257 . S
C49 O44 1.254 . S
C49 O45 1.269 . S
C50 O51 1.249 . S
C50 O52 1.270 . S
O51 Zn43 1.943 . S
O51 C50 1.249 . S
O52 Zn42 2.067 . S
O52 C50 1.270 . S
C53 O46 1.262 . S
C53 O54 1.232 . S
O54 C53 1.232 . S
C55 O47 1.260 . S
C55 O48 1.257 . S
Zn56 O59 2.031 . S
Zn56 O61 2.049 . S
Zn56 O66 2.067 . S
Zn57 O58 1.962 . S
Zn57 O60 1.986 . S
Zn57 O62 1.996 . S
Zn57 O65 1.943 . S
O58 Zn57 1.962 . S
O58 C63 1.254 . S
O59 Zn56 2.031 . S
O59 C63 1.269 . S
O60 Zn57 1.986 . S
O60 C67 1.262 . S
O61 Zn56 2.049 . S
O61 C69 1.260 . S
O62 Zn57 1.996 . S
O62 C69 1.257 . S
C63 O58 1.254 . S
C63 O59 1.269 . S
C64 O65 1.249 . S
C64 O66 1.270 . S
O65 Zn57 1.943 . S
O65 C64 1.249 . S
O66 Zn56 2.067 . S
O66 C64 1.270 . S
C67 O60 1.262 . S
C67 O68 1.232 . S
O68 C67 1.232 . S
C69 O61 1.260 . S
C69 O62 1.257 . S
Zn70 O73 2.031 . S
Zn70 O75 2.049 . S
Zn70 O80 2.067 . S
Zn71 O72 1.962 . S
Zn71 O74 1.986 . S
Zn71 O76 1.996 . S
Zn71 O79 1.943 1_556 S
O72 Zn71 1.962 . S
O72 C77 1.254 . S
O73 Zn70 2.031 . S
O73 C77 1.269 1_554 S
O74 Zn71 1.986 . S
O74 C81 1.262 . S
O75 Zn70 2.049 . S
O75 C83 1.244 1_554 S
O76 Zn71 1.996 . S
O76 C83 1.265 . S
C77 O72 1.254 . S
C77 O73 1.269 1_556 S
C78 O79 1.249 . S
C78 O80 1.270 . S
O79 Zn71 1.943 1_554 S
O79 C78 1.249 . S
O80 Zn70 2.067 . S
O80 C78 1.270 . S
C81 O74 1.262 . S
C81 O82 1.232 . S
O82 C81 1.232 . S
C83 O75 1.244 1_556 S
C83 O76 1.265 . S
Zn84 O87 2.031 . S
Zn84 O89 2.049 . S
Zn84 O94 2.067 . S
Zn85 O86 1.962 . S
Zn85 O88 1.986 . S
Zn85 O90 1.996 . S
Zn85 O93 1.943 . S
O86 Zn85 1.962 . S
O86 C91 1.254 . S
O87 Zn84 2.031 . S
O87 C91 1.269 . S
O88 Zn85 1.986 . S
O88 C95 1.262 . S
O89 Zn84 2.049 . S
O89 C97 1.260 . S
O90 Zn85 1.996 . S
O90 C97 1.257 . S
C91 O86 1.254 . S
C91 O87 1.269 . S
C92 O93 1.249 . S
C92 O94 1.270 . S
O93 Zn85 1.943 . S
O93 C92 1.249 . S
O94 Zn84 2.067 . S
O94 C92 1.270 . S
C95 O88 1.262 . S
C95 O96 1.232 . S
O96 C95 1.232 . S
C97 O89 1.260 . S
C97 O90 1.257 . S
Zn98 O101 2.031 . S
Zn98 O103 2.049 . S
Zn98 O108 2.067 . S
Zn99 O100 1.962 . S
Zn99 O102 1.986 . S
Zn99 O104 1.996 . S
Zn99 O107 1.943 . S
O100 Zn99 1.962 . S
O100 C105 1.254 . S
O101 Zn98 2.031 . S
O101 C105 1.269 . S
O102 Zn99 1.986 . S
O102 C109 1.262 . S
O103 Zn98 2.049 . S
O103 C111 1.260 . S
O104 Zn99 1.996 . S
O104 C111 1.257 . S
C105 O100 1.254 . S
C105 O101 1.269 . S
C106 O107 1.249 . S
C106 O108 1.270 . S
O107 Zn99 1.943 . S
O107 C106 1.249 . S
O108 Zn98 2.067 . S
O108 C106 1.270 . S
C109 O102 1.262 . S
C109 O110 1.232 . S
O110 C109 1.232 . S
C111 O103 1.260 . S
C111 O104 1.257 . S
Zn112 O115 2.031 . S
Zn112 O117 2.049 . S
Zn112 O122 2.067 . S
Zn113 O114 1.962 . S
Zn113 O116 1.986 . S
Zn113 O118 1.996 . S
Zn113 O121 1.943 1_554 S
O114 Zn113 1.962 . S
O114 C119 1.254 . S
O115 Zn112 2.031 . S
O115 C119 1.269 1_556 S
O116 Zn113 1.986 . S
O116 C123 1.262 . S
O117 Zn112 2.049 . S
O117 C125 1.244 1_556 S
O118 Zn113 1.996 . S
O118 C125 1.265 . S
C119 O114 1.254 . S
C119 O115 1.269 1_554 S
C120 O121 1.249 . S
C120 O122 1.270 . S
O121 Zn113 1.943 1_556 S
O121 C120 1.249 . S
O122 Zn112 2.067 . S
O122 C120 1.270 . S
C123 O116 1.262 . S
C123 O124 1.232 . S
O124 C123 1.232 . S
C125 O117 1.244 1_554 S
C125 O118 1.265 . S
Zn126 O129 2.031 . S
Zn126 O131 2.049 . S
Zn126 O136 2.067 . S
Zn127 O128 1.962 . S
Zn127 O130 1.986 . S
Zn127 O132 1.996 . S
Zn127 O135 1.943 . S
O128 Zn127 1.962 . S
O128 C133 1.254 . S
O129 Zn126 2.031 . S
O129 C133 1.269 . S
O130 Zn127 1.986 . S
O130 C137 1.262 . S
O131 Zn126 2.049 . S
O131 C139 1.260 . S
O132 Zn127 1.996 . S
O132 C139 1.257 . S
C133 O128 1.254 . S
C133 O129 1.269 . S
C134 O135 1.249 . S
C134 O136 1.270 . S
O135 Zn127 1.943 . S
O135 C134 1.249 . S
O136 Zn126 2.067 . S
O136 C134 1.270 . S
C137 O130 1.262 . S
C137 O138 1.232 . S
O138 C137 1.232 . S
C139 O131 1.260 . S
C139 O132 1.257 . S
Zn140 O143 2.031 . S
Zn140 O145 2.049 . S
Zn140 O150 2.067 . S
Zn141 O142 1.962 . S
Zn141 O144 1.986 . S
Zn141 O146 1.996 . S
Zn141 O149 1.943 . S
O142 Zn141 1.962 . S
O142 C147 1.254 . S
O143 Zn140 2.031 . S
O143 C147 1.269 . S
O144 Zn141 1.986 . S
O144 C151 1.262 . S
O145 Zn140 2.049 . S
O145 C153 1.260 . S
O146 Zn141 1.996 . S
O146 C153 1.257 . S
C147 O142 1.254 . S
C147 O143 1.269 . S
C148 O149 1.249 . S
C148 O150 1.270 . S
O149 Zn141 1.943 . S
O149 C148 1.249 . S
O150 Zn140 2.067 . S
O150 C148 1.270 . S
C151 O144 1.262 . S
C151 O152 1.232 . S
O152 C151 1.232 . S
C153 O145 1.260 . S
C153 O146 1.257 . S
Zn154 O157 2.031 . S
Zn154 O159 2.049 . S
Zn154 O164 2.067 . S
Zn155 O156 1.962 . S
Zn155 O158 1.986 . S
Zn155 O160 1.996 . S
Zn155 O163 1.943 1_554 S
O156 Zn155 1.962 . S
O156 C161 1.254 . S
O157 Zn154 2.031 . S
O157 C161 1.269 1_556 S
O158 Zn155 1.986 . S
O158 C165 1.262 . S
O159 Zn154 2.049 . S
O159 C167 1.244 1_556 S
O160 Zn155 1.996 . S
O160 C167 1.265 . S
C161 O156 1.254 . S
C161 O157 1.269 1_554 S
C162 O163 1.249 . S
C162 O164 1.270 . S
O163 Zn155 1.943 1_556 S
O163 C162 1.249 . S
O164 Zn154 2.067 . S
O164 C162 1.270 . S
C165 O158 1.262 . S
C165 O166 1.232 . S
O166 C165 1.232 . S
C167 O159 1.244 1_554 S
C167 O160 1.265 . S
C168 C169 1.391 . S
C168 C170 1.394 . S
C168 H184 0.931 . S
C169 C168 1.391 . S
C169 C173 1.376 . S
C170 C168 1.394 . S
C170 C171 1.369 . S
C170 C174 1.531 . S
C171 C170 1.369 . S
C171 C172 1.410 . S
C171 C179 1.503 . S
C172 C171 1.410 . S
C172 C173 1.392 . S
C172 C175 1.511 . S
C173 C169 1.376 . S
C173 C172 1.392 . S
C173 H185 0.929 . S
C174 C170 1.531 . S
C174 H186 0.960 . S
C174 H187 0.962 . S
C174 H188 0.960 . S
C175 C172 1.511 . S
C175 H189 0.961 . S
C175 H190 0.961 . S
C175 H191 0.961 . S
C176 C177 1.370 . S
C176 C178 1.363 . S
C176 H192 0.931 . S
C177 C176 1.370 . S
C177 C181 1.408 . S
C178 C176 1.363 . S
C178 C179 1.370 . S
C178 C182 1.524 . S
C179 C171 1.503 . S
C179 C178 1.370 . S
C179 C180 1.403 . S
C180 C179 1.403 . S
C180 C181 1.404 . S
C180 C183 1.539 . S
C181 C177 1.408 . S
C181 C180 1.404 . S
C181 H193 0.930 . S
C182 C178 1.524 . S
C182 H194 0.956 . S
C182 H195 0.961 . S
C182 H196 0.961 . S
C183 C180 1.539 . S
C183 H197 0.958 . S
C183 H198 0.961 . S
C183 H199 0.960 . S
H184 C168 0.931 . S
H185 C173 0.929 . S
H186 C174 0.960 . S
H187 C174 0.962 . S
H188 C174 0.960 . S
H189 C175 0.961 . S
H190 C175 0.961 . S
H191 C175 0.961 . S
H192 C176 0.931 . S
H193 C181 0.930 . S
H194 C182 0.956 . S
H195 C182 0.961 . S
H196 C182 0.961 . S
H197 C183 0.958 . S
H198 C183 0.961 . S
H199 C183 0.960 . S
C200 C201 1.391 . S
C200 C202 1.394 . S
C200 H216 0.931 . S
C201 C200 1.391 . S
C201 C205 1.376 . S
C202 C200 1.394 . S
C202 C203 1.369 . S
C202 C206 1.531 . S
C203 C202 1.369 . S
C203 C204 1.410 . S
C203 C211 1.503 . S
C204 C203 1.410 . S
C204 C205 1.392 . S
C204 C207 1.511 . S
C205 C201 1.376 . S
C205 C204 1.392 . S
C205 H217 0.929 . S
C206 C202 1.531 . S
C206 H218 0.960 . S
C206 H219 0.962 . S
C206 H220 0.960 . S
C207 C204 1.511 . S
C207 H221 0.961 . S
C207 H222 0.961 . S
C207 H223 0.961 . S
C208 C209 1.370 . S
C208 C210 1.363 . S
C208 H224 0.931 . S
C209 C208 1.370 . S
C209 C213 1.408 . S
C210 C208 1.363 . S
C210 C211 1.370 . S
C210 C214 1.524 . S
C211 C203 1.503 . S
C211 C210 1.370 . S
C211 C212 1.403 . S
C212 C211 1.403 . S
C212 C213 1.404 . S
C212 C215 1.539 . S
C213 C209 1.408 . S
C213 C212 1.404 . S
C213 H225 0.930 . S
C214 C210 1.524 . S
C214 H226 0.956 . S
C214 H227 0.961 . S
C214 H228 0.961 . S
C215 C212 1.539 . S
C215 H229 0.958 . S
C215 H230 0.961 . S
C215 H231 0.960 . S
H216 C200 0.931 . S
H217 C205 0.929 . S
H218 C206 0.960 . S
H219 C206 0.962 . S
H220 C206 0.960 . S
H221 C207 0.961 . S
H222 C207 0.961 . S
H223 C207 0.961 . S
H224 C208 0.931 . S
H225 C213 0.930 . S
H226 C214 0.956 . S
H227 C214 0.961 . S
H228 C214 0.961 . S
H229 C215 0.958 . S
H230 C215 0.961 . S
H231 C215 0.960 . S
C232 C233 1.391 1_554 S
C232 C234 1.394 . S
C232 H248 0.931 . S
C233 C232 1.391 1_556 S
C233 C237 1.376 . S
C234 C232 1.394 . S
C234 C235 1.369 1_554 S
C234 C238 1.531 . S
C235 C234 1.369 1_556 S
C235 C236 1.410 . S
C235 C243 1.503 . S
C236 C235 1.410 . S
C236 C237 1.392 . S
C236 C239 1.511 . S
C237 C233 1.376 . S
C237 C236 1.392 . S
C237 H249 0.929 . S
C238 C234 1.531 . S
C238 H250 0.960 . S
C238 H251 0.962 . S
C238 H252 0.960 . S
C239 C236 1.511 . S
C239 H253 0.961 . S
C239 H254 0.961 . S
C239 H255 0.961 . S
C240 C241 1.370 . S
C240 C242 1.363 . S
C240 H256 0.931 . S
C241 C240 1.370 . S
C241 C245 1.408 1_554 S
C242 C240 1.363 . S
C242 C243 1.370 1_554 S
C242 C246 1.524 . S
C243 C235 1.503 . S
C243 C242 1.370 1_556 S
C243 C244 1.403 . S
C244 C243 1.403 . S
C244 C245 1.404 . S
C244 C247 1.539 . S
C245 C241 1.408 1_556 S
C245 C244 1.404 . S
C245 H257 0.930 . S
C246 C242 1.524 . S
C246 H258 0.956 . S
C246 H259 0.961 . S
C246 H260 0.961 . S
C247 C244 1.539 . S
C247 H261 0.958 . S
C247 H262 0.961 . S
C247 H263 0.960 . S
H248 C232 0.931 . S
H249 C237 0.929 . S
H250 C238 0.960 . S
H251 C238 0.962 . S
H252 C238 0.960 . S
H253 C239 0.961 . S
H254 C239 0.961 . S
H255 C239 0.961 . S
H256 C240 0.931 . S
H257 C245 0.930 . S
H258 C246 0.956 . S
H259 C246 0.961 . S
H260 C246 0.961 . S
H261 C247 0.958 . S
H262 C247 0.961 . S
H263 C247 0.960 . S
C264 C265 1.391 . S
C264 C266 1.394 . S
C264 H280 0.931 . S
C265 C264 1.391 . S
C265 C269 1.376 . S
C266 C264 1.394 . S
C266 C267 1.369 . S
C266 C270 1.531 . S
C267 C266 1.369 . S
C267 C268 1.410 . S
C267 C275 1.503 . S
C268 C267 1.410 . S
C268 C269 1.392 . S
C268 C271 1.511 . S
C269 C265 1.376 . S
C269 C268 1.392 . S
C269 H281 0.929 . S
C270 C266 1.531 . S
C270 H282 0.960 . S
C270 H283 0.962 . S
C270 H284 0.960 . S
C271 C268 1.511 . S
C271 H285 0.961 . S
C271 H286 0.961 . S
C271 H287 0.961 . S
C272 C273 1.370 . S
C272 C274 1.363 . S
C272 H288 0.931 . S
C273 C272 1.370 . S
C273 C277 1.408 . S
C274 C272 1.363 . S
C274 C275 1.370 . S
C274 C278 1.524 . S
C275 C267 1.503 . S
C275 C274 1.370 . S
C275 C276 1.403 . S
C276 C275 1.403 . S
C276 C277 1.404 . S
C276 C279 1.539 . S
C277 C273 1.408 . S
C277 C276 1.404 . S
C277 H289 0.930 . S
C278 C274 1.524 . S
C278 H290 0.956 . S
C278 H291 0.961 . S
C278 H292 0.961 . S
C279 C276 1.539 . S
C279 H293 0.958 . S
C279 H294 0.961 . S
C279 H295 0.960 . S
H280 C264 0.931 . S
H281 C269 0.929 . S
H282 C270 0.960 . S
H283 C270 0.962 . S
H284 C270 0.960 . S
H285 C271 0.961 . S
H286 C271 0.961 . S
H287 C271 0.961 . S
H288 C272 0.931 . S
H289 C277 0.930 . S
H290 C278 0.956 . S
H291 C278 0.961 . S
H292 C278 0.961 . S
H293 C279 0.958 . S
H294 C279 0.961 . S
H295 C279 0.960 . S
C296 C297 1.391 . S
C296 C298 1.394 . S
C296 H312 0.931 . S
C297 C296 1.391 . S
C297 C301 1.376 . S
C298 C296 1.394 . S
C298 C299 1.369 . S
C298 C302 1.531 . S
C299 C298 1.369 . S
C299 C300 1.410 . S
C299 C307 1.503 . S
C300 C299 1.410 . S
C300 C301 1.392 . S
C300 C303 1.511 . S
C301 C297 1.376 . S
C301 C300 1.392 . S
C301 H313 0.929 . S
C302 C298 1.531 . S
C302 H314 0.960 . S
C302 H315 0.962 . S
C302 H316 0.960 . S
C303 C300 1.511 . S
C303 H317 0.961 . S
C303 H318 0.961 . S
C303 H319 0.961 . S
C304 C305 1.370 . S
C304 C306 1.363 . S
C304 H320 0.931 . S
C305 C304 1.370 . S
C305 C309 1.408 . S
C306 C304 1.363 . S
C306 C307 1.370 . S
C306 C310 1.524 . S
C307 C299 1.503 . S
C307 C306 1.370 . S
C307 C308 1.403 . S
C308 C307 1.403 . S
C308 C309 1.404 . S
C308 C311 1.539 . S
C309 C305 1.408 . S
C309 C308 1.404 . S
C309 H321 0.930 . S
C310 C306 1.524 . S
C310 H322 0.956 . S
C310 H323 0.961 . S
C310 H324 0.961 . S
C311 C308 1.539 . S
C311 H325 0.958 . S
C311 H326 0.961 . S
C311 H327 0.960 . S
H312 C296 0.931 . S
H313 C301 0.929 . S
H314 C302 0.960 . S
H315 C302 0.962 . S
H316 C302 0.960 . S
H317 C303 0.961 . S
H318 C303 0.961 . S
H319 C303 0.961 . S
H320 C304 0.931 . S
H321 C309 0.930 . S
H322 C310 0.956 . S
H323 C310 0.961 . S
H324 C310 0.961 . S
H325 C311 0.958 . S
H326 C311 0.961 . S
H327 C311 0.960 . S
C328 C329 1.391 . S
C328 C330 1.394 . S
C328 H344 0.931 . S
C329 C328 1.391 . S
C329 C333 1.376 1_554 S
C330 C328 1.394 . S
C330 C331 1.351 1_554 S
C330 C334 1.531 . S
C331 C330 1.351 1_556 S
C331 C332 1.426 . S
C331 C339 1.505 . S
C332 C331 1.426 . S
C332 C333 1.392 . S
C332 C335 1.511 . S
C333 C329 1.376 1_556 S
C333 C332 1.392 . S
C333 H345 0.929 . S
C334 C330 1.531 . S
C334 H346 0.960 . S
C334 H347 0.962 . S
C334 H348 0.960 . S
C335 C332 1.511 . S
C335 H349 0.961 . S
C335 H350 0.961 . S
C335 H351 0.961 . S
C336 C337 1.370 1_554 S
C336 C338 1.363 . S
C336 H352 0.931 . S
C337 C336 1.370 1_556 S
C337 C341 1.408 . S
C338 C336 1.363 . S
C338 C339 1.370 1_554 S
C338 C342 1.524 . S
C339 C331 1.505 . S
C339 C338 1.370 1_556 S
C339 C340 1.403 . S
C340 C339 1.403 . S
C340 C341 1.404 . S
C340 C343 1.539 . S
C341 C337 1.408 . S
C341 C340 1.404 . S
C341 H353 0.930 . S
C342 C338 1.524 . S
C342 H354 0.956 . S
C342 H355 0.952 1_554 S
C342 H356 0.961 . S
C343 C340 1.539 . S
C343 H357 0.958 . S
C343 H358 0.961 . S
C343 H359 0.960 . S
H344 C328 0.931 . S
H345 C333 0.929 . S
H346 C334 0.960 . S
H347 C334 0.962 . S
H348 C334 0.960 . S
H349 C335 0.961 . S
H350 C335 0.961 . S
H351 C335 0.961 . S
H352 C336 0.931 . S
H353 C341 0.930 . S
H354 C342 0.956 . S
H355 C342 0.952 1_556 S
H356 C342 0.961 . S
H357 C343 0.958 . S
H358 C343 0.961 . S
H359 C343 0.960 . S
C360 C361 1.391 . S
C360 C362 1.394 . S
C360 H376 0.931 . S
C361 C360 1.391 . S
C361 C365 1.376 . S
C362 C360 1.394 . S
C362 C363 1.369 . S
C362 C366 1.531 . S
C363 C362 1.369 . S
C363 C364 1.410 . S
C363 C371 1.503 . S
C364 C363 1.410 . S
C364 C365 1.392 . S
C364 C367 1.511 . S
C365 C361 1.376 . S
C365 C364 1.392 . S
C365 H377 0.929 . S
C366 C362 1.531 . S
C366 H378 0.960 . S
C366 H379 0.962 . S
C366 H380 0.960 . S
C367 C364 1.511 . S
C367 H381 0.961 . S
C367 H382 0.961 . S
C367 H383 0.961 . S
C368 C369 1.370 . S
C368 C370 1.363 . S
C368 H384 0.931 . S
C369 C368 1.370 . S
C369 C373 1.408 . S
C370 C368 1.363 . S
C370 C371 1.370 . S
C370 C374 1.524 . S
C371 C363 1.503 . S
C371 C370 1.370 . S
C371 C372 1.403 . S
C372 C371 1.403 . S
C372 C373 1.404 . S
C372 C375 1.539 . S
C373 C369 1.408 . S
C373 C372 1.404 . S
C373 H385 0.930 . S
C374 C370 1.524 . S
C374 H386 0.956 . S
C374 H387 0.961 . S
C374 H388 0.961 . S
C375 C372 1.539 . S
C375 H389 0.958 . S
C375 H390 0.961 . S
C375 H391 0.960 . S
H376 C360 0.931 . S
H377 C365 0.929 . S
H378 C366 0.960 . S
H379 C366 0.962 . S
H380 C366 0.960 . S
H381 C367 0.961 . S
H382 C367 0.961 . S
H383 C367 0.961 . S
H384 C368 0.931 . S
H385 C373 0.930 . S
H386 C374 0.956 . S
H387 C374 0.961 . S
H388 C374 0.961 . S
H389 C375 0.958 . S
H390 C375 0.961 . S
H391 C375 0.960 . S
C392 C393 1.391 . S
C392 C394 1.394 . S
C392 H408 0.931 . S
C393 C392 1.391 . S
C393 C397 1.376 . S
C394 C392 1.394 . S
C394 C395 1.369 . S
C394 C398 1.531 . S
C395 C394 1.369 . S
C395 C396 1.410 . S
C395 C403 1.503 1_655 S
C396 C395 1.410 . S
C396 C397 1.392 . S
C396 C399 1.511 . S
C397 C393 1.376 . S
C397 C396 1.392 . S
C397 H409 0.929 . S
C398 C394 1.531 . S
C398 H410 0.960 1_655 S
C398 H411 0.962 . S
C398 H412 0.960 . S
C399 C396 1.511 . S
C399 H413 0.961 . S
C399 H414 0.961 1_655 S
C399 H415 0.961 . S
C400 C401 1.370 . S
C400 C402 1.363 . S
C400 H416 0.931 . S
C401 C400 1.370 . S
C401 C405 1.408 . S
C402 C400 1.363 . S
C402 C403 1.370 . S
C402 C406 1.524 . S
C403 C395 1.503 1_455 S
C403 C402 1.370 . S
C403 C404 1.403 . S
C404 C403 1.403 . S
C404 C405 1.404 . S
C404 C407 1.539 . S
C405 C401 1.408 . S
C405 C404 1.404 . S
C405 H417 0.930 . S
C406 C402 1.524 . S
C406 H418 0.956 . S
C406 H419 0.962 . S
C406 H420 0.961 . S
C407 C404 1.539 . S
C407 H421 0.958 . S
C407 H422 0.961 . S
C407 H423 0.960 1_455 S
H408 C392 0.931 . S
H409 C397 0.929 . S
H410 C398 0.960 1_455 S
H411 C398 0.962 . S
H412 C398 0.960 . S
H413 C399 0.961 . S
H414 C399 0.961 1_455 S
H415 C399 0.961 . S
H416 C400 0.931 . S
H417 C405 0.930 . S
H418 C406 0.956 . S
H419 C406 0.962 . S
H420 C406 0.961 . S
H421 C407 0.958 . S
H422 C407 0.961 . S
H423 C407 0.960 1_655 S
C424 C425 1.391 1_556 S
C424 C426 1.394 . S
C424 H440 0.931 . S
C425 C424 1.391 1_554 S
C425 C429 1.376 . S
C426 C424 1.394 . S
C426 C427 1.369 1_556 S
C426 C430 1.531 . S
C427 C426 1.369 1_554 S
C427 C428 1.410 . S
C427 C435 1.503 1_545 S
C428 C427 1.410 . S
C428 C429 1.392 . S
C428 C431 1.511 . S
C429 C425 1.376 . S
C429 C428 1.392 . S
C429 H441 0.929 . S
C430 C426 1.531 . S
C430 H442 0.934 1_545 S
C430 H443 0.962 . S
C430 H444 0.960 . S
C431 C428 1.511 . S
C431 H445 0.961 . S
C431 H446 0.961 1_545 S
C431 H447 0.961 . S
C432 C433 1.370 . S
C432 C434 1.363 . S
C432 H448 0.931 . S
C433 C432 1.370 . S
C433 C437 1.408 1_556 S
C434 C432 1.363 . S
C434 C435 1.370 1_556 S
C434 C438 1.524 . S
C435 C427 1.503 1_565 S
C435 C434 1.370 1_554 S
C435 C436 1.403 . S
C436 C435 1.403 . S
C436 C437 1.404 . S
C436 C439 1.539 . S
C437 C433 1.408 1_554 S
C437 C436 1.404 . S
C437 H449 0.930 . S
C438 C434 1.524 . S
C438 H450 0.956 1_565 S
C438 H451 0.961 1_565 S
C438 H452 0.961 . S
C439 C436 1.539 . S
C439 H453 0.958 . S
C439 H454 0.961 . S
C439 H455 0.960 . S
H440 C424 0.931 . S
H441 C429 0.929 . S
H442 C430 0.934 1_565 S
H443 C430 0.962 . S
H444 C430 0.960 . S
H445 C431 0.961 . S
H446 C431 0.961 1_565 S
H447 C431 0.961 . S
H448 C432 0.931 . S
H449 C437 0.930 . S
H450 C438 0.956 1_545 S
H451 C438 0.961 1_545 S
H452 C438 0.961 . S
H453 C439 0.958 . S
H454 C439 0.961 . S
H455 C439 0.960 . S
C456 C457 1.391 . S
C456 C458 1.394 . S
C456 H472 0.931 . S
C457 C456 1.391 . S
C457 C461 1.376 . S
C458 C456 1.394 . S
C458 C459 1.369 . S
C458 C462 1.531 . S
C459 C458 1.369 . S
C459 C460 1.410 . S
C459 C467 1.503 . S
C460 C459 1.410 . S
C460 C461 1.392 . S
C460 C463 1.511 . S
C461 C457 1.376 . S
C461 C460 1.392 . S
C461 H473 0.929 . S
C462 C458 1.531 . S
C462 H474 0.960 . S
C462 H475 0.962 . S
C462 H476 0.960 . S
C463 C460 1.511 . S
C463 H477 0.961 . S
C463 H478 0.961 . S
C463 H479 0.961 . S
C464 C465 1.370 . S
C464 C466 1.363 . S
C464 H480 0.931 . S
C465 C464 1.370 . S
C465 C469 1.408 . S
C466 C464 1.363 . S
C466 C467 1.370 . S
C466 C470 1.524 . S
C467 C459 1.503 . S
C467 C466 1.370 . S
C467 C468 1.403 . S
C468 C467 1.403 . S
C468 C469 1.404 . S
C468 C471 1.539 . S
C469 C465 1.408 . S
C469 C468 1.404 . S
C469 H481 0.930 . S
C470 C466 1.524 . S
C470 H482 0.956 . S
C470 H483 0.961 . S
C470 H484 0.961 . S
C471 C468 1.539 . S
C471 H485 0.958 . S
C471 H486 0.961 . S
C471 H487 0.960 . S
H472 C456 0.931 . S
H473 C461 0.929 . S
H474 C462 0.960 . S
H475 C462 0.962 . S
H476 C462 0.960 . S
H477 C463 0.961 . S
H478 C463 0.961 . S
H479 C463 0.961 . S
H480 C464 0.931 . S
H481 C469 0.930 . S
H482 C470 0.956 . S
H483 C470 0.961 . S
H484 C470 0.961 . S
H485 C471 0.958 . S
H486 C471 0.961 . S
H487 C471 0.960 . S
C488 C489 1.391 . S
C488 C490 1.394 . S
C488 H504 0.931 . S
C489 C488 1.391 . S
C489 C493 1.376 . S
C490 C488 1.394 . S
C490 C491 1.369 . S
C490 C494 1.531 . S
C491 C490 1.369 . S
C491 C492 1.410 . S
C491 C499 1.503 1_455 S
C492 C491 1.410 . S
C492 C493 1.392 . S
C492 C495 1.511 . S
C493 C489 1.376 . S
C493 C492 1.392 . S
C493 H505 0.929 . S
C494 C490 1.531 . S
C494 H506 0.960 1_455 S
C494 H507 0.962 . S
C494 H508 0.960 . S
C495 C492 1.511 . S
C495 H509 0.961 . S
C495 H510 0.963 . S
C495 H511 0.961 . S
C496 C497 1.370 . S
C496 C498 1.363 . S
C496 H512 0.931 . S
C497 C496 1.370 . S
C497 C501 1.408 . S
C498 C496 1.363 . S
C498 C499 1.370 . S
C498 C502 1.524 . S
C499 C491 1.503 1_655 S
C499 C498 1.370 . S
C499 C500 1.403 . S
C500 C499 1.403 . S
C500 C501 1.404 . S
C500 C503 1.539 . S
C501 C497 1.408 . S
C501 C500 1.404 . S
C501 H513 0.930 . S
C502 C498 1.524 . S
C502 H514 0.956 . S
C502 H515 0.961 1_655 S
C502 H516 0.961 . S
C503 C500 1.539 . S
C503 H517 0.958 . S
C503 H518 0.961 . S
C503 H519 0.960 1_655 S
H504 C488 0.931 . S
H505 C493 0.929 . S
H506 C494 0.960 1_655 S
H507 C494 0.962 . S
H508 C494 0.960 . S
H509 C495 0.961 . S
H510 C495 0.963 . S
H511 C495 0.961 . S
H512 C496 0.931 . S
H513 C501 0.930 . S
H514 C502 0.956 . S
H515 C502 0.961 1_455 S
H516 C502 0.961 . S
H517 C503 0.958 . S
H518 C503 0.961 . S
H519 C503 0.960 1_455 S
C520 C521 1.391 . S
C520 C522 1.394 . S
C520 H536 0.931 . S
C521 C520 1.391 . S
C521 C525 1.375 1_556 S
C522 C520 1.394 . S
C522 C523 1.369 . S
C522 C526 1.531 . S
C523 C522 1.369 . S
C523 C524 1.410 1_556 S
C523 C531 1.503 1_545 S
C524 C523 1.410 1_554 S
C524 C525 1.392 . S
C524 C527 1.511 . S
C525 C521 1.375 1_554 S
C525 C524 1.392 . S
C525 H537 0.930 . S
C526 C522 1.531 . S
C526 H538 0.960 1_545 S
C526 H539 0.962 . S
C526 H540 0.960 . S
C527 C524 1.511 . S
C527 H541 0.961 . S
C527 H542 0.961 1_545 S
C527 H543 0.961 1_554 S
C528 C529 1.370 . S
C528 C530 1.363 . S
C528 H544 0.931 . S
C529 C528 1.370 . S
C529 C533 1.408 1_554 S
C530 C528 1.363 . S
C530 C531 1.370 1_554 S
C530 C534 1.524 . S
C531 C523 1.503 1_565 S
C531 C530 1.370 1_556 S
C531 C532 1.403 . S
C532 C531 1.403 . S
C532 C533 1.404 . S
C532 C535 1.539 . S
C533 C529 1.408 1_556 S
C533 C532 1.404 . S
C533 H545 0.930 . S
C534 C530 1.524 . S
C534 H546 0.956 1_565 S
C534 H547 0.961 1_565 S
C534 H548 0.961 . S
C535 C532 1.539 . S
C535 H549 0.958 . S
C535 H550 0.961 . S
C535 H551 0.960 . S
H536 C520 0.931 . S
H537 C525 0.930 . S
H538 C526 0.960 1_565 S
H539 C526 0.962 . S
H540 C526 0.960 . S
H541 C527 0.961 . S
H542 C527 0.961 1_565 S
H543 C527 0.961 1_556 S
H544 C528 0.931 . S
H545 C533 0.930 . S
H546 C534 0.956 1_545 S
H547 C534 0.961 1_545 S
H548 C534 0.961 . S
H549 C535 0.958 . S
H550 C535 0.961 . S
H551 C535 0.960 . S
C552 C553 1.391 . S
C552 C554 1.394 . S
C552 H568 0.931 . S
C553 C552 1.391 . S
C553 C557 1.376 . S
C554 C552 1.394 . S
C554 C555 1.369 . S
C554 C558 1.531 . S
C555 C554 1.369 . S
C555 C556 1.410 1_655 S
C555 C563 1.503 1_655 S
C556 C555 1.410 1_455 S
C556 C557 1.392 1_455 S
C556 C559 1.511 . S
C557 C553 1.376 . S
C557 C556 1.392 1_655 S
C557 H569 0.929 . S
C558 C554 1.531 . S
C558 H570 0.960 . S
C558 H571 0.962 . S
C558 H572 0.960 . S
C559 C556 1.511 . S
C559 H573 0.961 . S
C559 H574 0.961 . S
C559 H575 0.961 . S
C560 C561 1.370 . S
C560 C562 1.363 . S
C560 H576 0.931 . S
C561 C560 1.370 . S
C561 C565 1.408 . S
C562 C560 1.363 . S
C562 C563 1.370 . S
C562 C566 1.524 . S
C563 C555 1.503 1_455 S
C563 C562 1.370 . S
C563 C564 1.403 . S
C564 C563 1.403 . S
C564 C565 1.404 . S
C564 C567 1.539 . S
C565 C561 1.408 . S
C565 C564 1.404 . S
C565 H577 0.930 . S
C566 C562 1.524 . S
C566 H578 0.956 1_455 S
C566 H579 0.961 . S
C566 H580 0.961 . S
C567 C564 1.539 . S
C567 H581 0.958 . S
C567 H582 0.961 . S
C567 H583 0.960 . S
H568 C552 0.931 . S
H569 C557 0.929 . S
H570 C558 0.960 . S
H571 C558 0.962 . S
H572 C558 0.960 . S
H573 C559 0.961 . S
H574 C559 0.961 . S
H575 C559 0.961 . S
H576 C560 0.931 . S
H577 C565 0.930 . S
H578 C566 0.956 1_655 S
H579 C566 0.961 . S
H580 C566 0.961 . S
H581 C567 0.958 . S
H582 C567 0.961 . S
H583 C567 0.960 . S
C584 C585 1.391 . S
C584 C586 1.394 . S
C584 H600 0.931 . S
C585 C584 1.391 . S
C585 C589 1.376 . S
C586 C584 1.394 . S
C586 C587 1.369 . S
C586 C590 1.531 1_545 S
C587 C586 1.369 . S
C587 C588 1.410 . S
C587 C595 1.503 1_545 S
C588 C587 1.410 . S
C588 C589 1.392 . S
C588 C591 1.511 . S
C589 C585 1.376 . S
C589 C588 1.392 . S
C589 H601 0.929 . S
C590 C586 1.531 1_565 S
C590 H602 0.960 . S
C590 H603 0.962 . S
C590 H604 0.960 . S
C591 C588 1.511 . S
C591 H605 0.961 . S
C591 H606 0.961 . S
C591 H607 0.961 . S
C592 C593 1.370 . S
C592 C594 1.363 . S
C592 H608 0.931 . S
C593 C592 1.370 . S
C593 C597 1.408 . S
C594 C592 1.363 . S
C594 C595 1.370 . S
C594 C598 1.524 1_565 S
C595 C587 1.503 1_565 S
C595 C594 1.370 . S
C595 C596 1.403 . S
C596 C595 1.403 . S
C596 C597 1.404 . S
C596 C599 1.539 . S
C597 C593 1.408 . S
C597 C596 1.404 . S
C597 H609 0.930 . S
C598 C594 1.524 1_545 S
C598 H610 0.956 . S
C598 H611 0.961 . S
C598 H612 0.961 . S
C599 C596 1.539 . S
C599 H613 0.958 . S
C599 H614 0.961 . S
C599 H615 0.960 . S
H600 C584 0.931 . S
H601 C589 0.929 . S
H602 C590 0.960 . S
H603 C590 0.962 . S
H604 C590 0.960 . S
H605 C591 0.961 . S
H606 C591 0.961 . S
H607 C591 0.961 . S
H608 C592 0.931 . S
H609 C597 0.930 . S
H610 C598 0.956 . S
H611 C598 0.961 . S
H612 C598 0.961 . S
H613 C599 0.958 . S
H614 C599 0.961 . S
H615 C599 0.960 . S
C616 C617 1.391 . S
C616 C618 1.394 . S
C616 H632 0.931 . S
C617 C616 1.391 . S
C617 C621 1.376 . S
C618 C616 1.394 . S
C618 C619 1.369 . S
C618 C622 1.531 . S
C619 C618 1.369 . S
C619 C620 1.410 . S
C619 C627 1.503 . S
C620 C619 1.410 . S
C620 C621 1.392 . S
C620 C623 1.511 . S
C621 C617 1.376 . S
C621 C620 1.392 . S
C621 H633 0.929 . S
C622 C618 1.531 . S
C622 H634 0.960 . S
C622 H635 0.962 . S
C622 H636 0.960 . S
C623 C620 1.511 . S
C623 H637 0.961 . S
C623 H638 0.961 . S
C623 H639 0.961 . S
C624 C625 1.370 . S
C624 C626 1.363 . S
C624 H640 0.931 . S
C625 C624 1.370 . S
C625 C629 1.408 . S
C626 C624 1.363 . S
C626 C627 1.370 . S
C626 C630 1.524 . S
C627 C619 1.503 . S
C627 C626 1.370 . S
C627 C628 1.403 . S
C628 C627 1.403 . S
C628 C629 1.404 . S
C628 C631 1.539 . S
C629 C625 1.408 . S
C629 C628 1.404 . S
C629 H641 0.930 . S
C630 C626 1.524 . S
C630 H642 0.956 . S
C630 H643 0.961 . S
C630 H644 0.961 . S
C631 C628 1.539 . S
C631 H645 0.958 . S
C631 H646 0.961 . S
C631 H647 0.960 . S
H632 C616 0.931 . S
H633 C621 0.929 . S
H634 C622 0.960 . S
H635 C622 0.962 . S
H636 C622 0.960 . S
H637 C623 0.961 . S
H638 C623 0.961 . S
H639 C623 0.961 . S
H640 C624 0.931 . S
H641 C629 0.930 . S
H642 C630 0.956 . S
H643 C630 0.961 . S
H644 C630 0.961 . S
H645 C631 0.958 . S
H646 C631 0.961 . S
H647 C631 0.960 . S
C648 C649 1.391 . S
C648 C650 1.394 1_455 S
C648 H664 0.931 . S
C649 C648 1.391 . S
C649 C653 1.376 . S
C650 C648 1.394 1_655 S
C650 C651 1.369 1_655 S
C650 C654 1.531 . S
C651 C650 1.369 1_455 S
C651 C652 1.410 . S
C651 C659 1.503 1_455 S
C652 C651 1.410 . S
C652 C653 1.392 . S
C652 C655 1.511 . S
C653 C649 1.376 . S
C653 C652 1.392 . S
C653 H665 0.929 . S
C654 C650 1.531 . S
C654 H666 0.960 . S
C654 H667 0.962 . S
C654 H668 0.960 . S
C655 C652 1.511 . S
C655 H669 0.961 . S
C655 H670 0.961 . S
C655 H671 0.961 . S
C656 C657 1.370 . S
C656 C658 1.363 . S
C656 H672 0.931 . S
C657 C656 1.370 . S
C657 C661 1.408 . S
C658 C656 1.363 . S
C658 C659 1.370 . S
C658 C662 1.524 1_655 S
C659 C651 1.503 1_655 S
C659 C658 1.370 . S
C659 C660 1.403 . S
C660 C659 1.403 . S
C660 C661 1.404 . S
C660 C663 1.539 . S
C661 C657 1.408 . S
C661 C660 1.404 . S
C661 H673 0.930 . S
C662 C658 1.524 1_455 S
C662 H674 0.956 1_455 S
C662 H675 0.961 . S
C662 H676 0.961 . S
C663 C660 1.539 . S
C663 H677 0.958 . S
C663 H678 0.961 . S
C663 H679 0.960 . S
H664 C648 0.931 . S
H665 C653 0.929 . S
H666 C654 0.960 . S
H667 C654 0.962 . S
H668 C654 0.960 . S
H669 C655 0.961 . S
H670 C655 0.961 . S
H671 C655 0.961 . S
H672 C656 0.931 . S
H673 C661 0.930 . S
H674 C662 0.956 1_655 S
H675 C662 0.961 . S
H676 C662 0.961 . S
H677 C663 0.958 . S
H678 C663 0.961 . S
H679 C663 0.960 . S
C680 C681 1.391 . S
C680 C682 1.394 . S
C680 H696 0.931 . S
C681 C680 1.391 . S
C681 C685 1.376 . S
C682 C680 1.394 . S
C682 C683 1.369 . S
C682 C686 1.531 . S
C683 C682 1.369 . S
C683 C684 1.410 . S
C683 C691 1.503 1_545 S
C684 C683 1.410 . S
C684 C685 1.392 . S
C684 C687 1.511 1_545 S
C685 C681 1.376 . S
C685 C684 1.392 . S
C685 H697 0.929 . S
C686 C682 1.531 . S
C686 H698 0.960 . S
C686 H699 0.962 . S
C686 H700 0.960 . S
C687 C684 1.511 1_565 S
C687 H701 0.961 . S
C687 H702 0.961 . S
C687 H703 0.961 . S
C688 C689 1.370 . S
C688 C690 1.363 . S
C688 H704 0.931 . S
C689 C688 1.370 . S
C689 C693 1.408 . S
C690 C688 1.363 . S
C690 C691 1.370 . S
C690 C694 1.524 . S
C691 C683 1.503 1_565 S
C691 C690 1.370 . S
C691 C692 1.391 1_565 S
C692 C691 1.391 1_545 S
C692 C693 1.390 1_545 S
C692 C695 1.564 . S
C693 C689 1.408 . S
C693 C692 1.390 1_565 S
C693 H705 0.930 . S
C694 C690 1.524 . S
C694 H706 0.956 . S
C694 H707 0.961 . S
C694 H708 0.961 . S
C695 C692 1.564 . S
C695 H709 0.958 . S
C695 H710 0.961 . S
C695 H711 0.960 . S
H696 C680 0.931 . S
H697 C685 0.929 . S
H698 C686 0.960 . S
H699 C686 0.962 . S
H700 C686 0.960 . S
H701 C687 0.961 . S
H702 C687 0.961 . S
H703 C687 0.961 . S
H704 C688 0.931 . S
H705 C693 0.930 . S
H706 C694 0.956 . S
H707 C694 0.961 . S
H708 C694 0.961 . S
H709 C695 0.958 . S
H710 C695 0.961 . S
H711 C695 0.960 . S
C712 C713 1.391 . S
C712 C714 1.394 . S
C712 H728 0.931 . S
C713 C712 1.391 . S
C713 C717 1.376 . S
C714 C712 1.394 . S
C714 C715 1.369 . S
C714 C718 1.531 . S
C715 C714 1.369 . S
C715 C716 1.410 . S
C715 C723 1.503 . S
C716 C715 1.410 . S
C716 C717 1.392 . S
C716 C719 1.511 . S
C717 C713 1.376 . S
C717 C716 1.392 . S
C717 H729 0.929 . S
C718 C714 1.531 . S
C718 H730 0.960 . S
C718 H731 0.962 . S
C718 H732 0.960 . S
C719 C716 1.511 . S
C719 H733 0.961 . S
C719 H734 0.961 . S
C719 H735 0.961 . S
C720 C721 1.370 . S
C720 C722 1.363 . S
C720 H736 0.931 . S
C721 C720 1.370 . S
C721 C725 1.408 . S
C722 C720 1.363 . S
C722 C723 1.370 . S
C722 C726 1.524 . S
C723 C715 1.503 . S
C723 C722 1.370 . S
C723 C724 1.403 . S
C724 C723 1.403 . S
C724 C725 1.404 . S
C724 C727 1.539 . S
C725 C721 1.408 . S
C725 C724 1.404 . S
C725 H737 0.930 . S
C726 C722 1.524 . S
C726 H738 0.956 . S
C726 H739 0.961 . S
C726 H740 0.961 . S
C727 C724 1.539 . S
C727 H741 0.958 . S
C727 H742 0.961 . S
C727 H743 0.960 . S
H728 C712 0.931 . S
H729 C717 0.929 . S
H730 C718 0.960 . S
H731 C718 0.962 . S
H732 C718 0.960 . S
H733 C719 0.961 . S
H734 C719 0.961 . S
H735 C719 0.961 . S
H736 C720 0.931 . S
H737 C725 0.930 . S
H738 C726 0.956 . S
H739 C726 0.961 . S
H740 C726 0.961 . S
H741 C727 0.958 . S
H742 C727 0.961 . S
H743 C727 0.960 . S
C744 C745 1.391 . S
C744 C746 1.394 . S
C744 H760 0.931 . S
C745 C744 1.391 . S
C745 C749 1.376 . S
C746 C744 1.394 . S
C746 C747 1.369 . S
C746 C750 1.531 . S
C747 C746 1.369 . S
C747 C748 1.410 . S
C747 C755 1.503 . S
C748 C747 1.410 . S
C748 C749 1.392 . S
C748 C751 1.511 . S
C749 C745 1.376 . S
C749 C748 1.392 . S
C749 H761 0.929 . S
C750 C746 1.531 . S
C750 H762 0.960 . S
C750 H763 0.962 . S
C750 H764 0.960 . S
C751 C748 1.511 . S
C751 H765 0.961 . S
C751 H766 0.961 . S
C751 H767 0.961 . S
C752 C753 1.370 . S
C752 C754 1.363 . S
C752 H768 0.931 . S
C753 C752 1.370 . S
C753 C757 1.408 . S
C754 C752 1.363 . S
C754 C755 1.370 . S
C754 C758 1.524 . S
C755 C747 1.503 . S
C755 C754 1.370 . S
C755 C756 1.403 . S
C756 C755 1.403 . S
C756 C757 1.404 . S
C756 C759 1.539 . S
C757 C753 1.408 . S
C757 C756 1.404 . S
C757 H769 0.930 . S
C758 C754 1.524 . S
C758 H770 0.956 . S
C758 H771 0.961 . S
C758 H772 0.961 . S
C759 C756 1.539 . S
C759 H773 0.958 . S
C759 H774 0.961 . S
C759 H775 0.960 . S
H760 C744 0.931 . S
H761 C749 0.929 . S
H762 C750 0.960 . S
H763 C750 0.962 . S
H764 C750 0.960 . S
H765 C751 0.961 . S
H766 C751 0.961 . S
H767 C751 0.961 . S
H768 C752 0.931 . S
H769 C757 0.930 . S
H770 C758 0.956 . S
H771 C758 0.961 . S
H772 C758 0.961 . S
H773 C759 0.958 . S
H774 C759 0.961 . S
H775 C759 0.960 . S
C776 C777 1.391 . S
C776 C778 1.394 . S
C776 H792 0.931 . S
C777 C776 1.391 . S
C777 C781 1.376 . S
C778 C776 1.394 . S
C778 C779 1.369 . S
C778 C782 1.531 . S
C779 C778 1.369 . S
C779 C780 1.410 . S
C779 C787 1.503 . S
C780 C779 1.410 . S
C780 C781 1.392 . S
C780 C783 1.511 . S
C781 C777 1.376 . S
C781 C780 1.392 . S
C781 H793 0.929 . S
C782 C778 1.531 . S
C782 H794 0.960 . S
C782 H795 0.962 . S
C782 H796 0.960 . S
C783 C780 1.511 . S
C783 H797 0.961 . S
C783 H798 0.961 . S
C783 H799 0.961 . S
C784 C785 1.370 . S
C784 C786 1.363 . S
C784 H800 0.931 . S
C785 C784 1.370 . S
C785 C789 1.408 . S
C786 C784 1.363 . S
C786 C787 1.370 . S
C786 C790 1.524 . S
C787 C779 1.503 . S
C787 C786 1.370 . S
C787 C788 1.403 . S
C788 C787 1.403 . S
C788 C789 1.404 . S
C788 C791 1.539 . S
C789 C785 1.408 . S
C789 C788 1.404 . S
C789 H801 0.930 . S
C790 C786 1.524 . S
C790 H802 0.956 . S
C790 H803 0.961 . S
C790 H804 0.961 . S
C791 C788 1.539 . S
C791 H805 0.958 . S
C791 H806 0.961 . S
C791 H807 0.960 . S
H792 C776 0.931 . S
H793 C781 0.929 . S
H794 C782 0.960 . S
H795 C782 0.962 . S
H796 C782 0.960 . S
H797 C783 0.961 . S
H798 C783 0.961 . S
H799 C783 0.961 . S
H800 C784 0.931 . S
H801 C789 0.930 . S
H802 C790 0.956 . S
H803 C790 0.961 . S
H804 C790 0.961 . S
H805 C791 0.958 . S
H806 C791 0.961 . S
H807 C791 0.960 . S
C808 C809 1.391 . S
C808 C810 1.394 . S
C808 H824 0.931 . S
C809 C808 1.391 . S
C809 C813 1.376 . S
C810 C808 1.394 . S
C810 C811 1.369 . S
C810 C814 1.531 . S
C811 C810 1.369 . S
C811 C812 1.410 . S
C811 C819 1.503 . S
C812 C811 1.410 . S
C812 C813 1.392 . S
C812 C815 1.511 . S
C813 C809 1.376 . S
C813 C812 1.392 . S
C813 H825 0.929 . S
C814 C810 1.531 . S
C814 H826 0.960 . S
C814 H827 0.962 . S
C814 H828 0.960 . S
C815 C812 1.511 . S
C815 H829 0.961 . S
C815 H830 0.961 . S
C815 H831 0.961 . S
C816 C817 1.370 . S
C816 C818 1.363 . S
C816 H832 0.931 . S
C817 C816 1.370 . S
C817 C821 1.408 . S
C818 C816 1.363 . S
C818 C819 1.370 . S
C818 C822 1.524 . S
C819 C811 1.503 . S
C819 C818 1.370 . S
C819 C820 1.403 . S
C820 C819 1.403 . S
C820 C821 1.404 . S
C820 C823 1.539 . S
C821 C817 1.408 . S
C821 C820 1.404 . S
C821 H833 0.930 . S
C822 C818 1.524 . S
C822 H834 0.956 . S
C822 H835 0.961 . S
C822 H836 0.961 . S
C823 C820 1.539 . S
C823 H837 0.958 . S
C823 H838 0.961 . S
C823 H839 0.960 . S
H824 C808 0.931 . S
H825 C813 0.929 . S
H826 C814 0.960 . S
H827 C814 0.962 . S
H828 C814 0.960 . S
H829 C815 0.961 . S
H830 C815 0.961 . S
H831 C815 0.961 . S
H832 C816 0.931 . S
H833 C821 0.930 . S
H834 C822 0.956 . S
H835 C822 0.961 . S
H836 C822 0.961 . S
H837 C823 0.958 . S
H838 C823 0.961 . S
H839 C823 0.960 . S
C840 C841 1.391 . S
C840 C842 1.394 . S
C840 H856 0.931 . S
C841 C840 1.391 . S
C841 C845 1.376 . S
C842 C840 1.394 . S
C842 C843 1.369 . S
C842 C846 1.531 . S
C843 C842 1.369 . S
C843 C844 1.410 . S
C843 C851 1.503 . S
C844 C843 1.410 . S
C844 C845 1.392 . S
C844 C847 1.511 . S
C845 C841 1.376 . S
C845 C844 1.392 . S
C845 H857 0.929 . S
C846 C842 1.531 . S
C846 H858 0.960 . S
C846 H859 0.962 . S
C846 H860 0.960 . S
C847 C844 1.511 . S
C847 H861 0.961 . S
C847 H862 0.961 . S
C847 H863 0.961 . S
C848 C849 1.370 . S
C848 C850 1.363 . S
C848 H864 0.931 . S
C849 C848 1.370 . S
C849 C853 1.408 . S
C850 C848 1.363 . S
C850 C851 1.370 . S
C850 C854 1.524 . S
C851 C843 1.503 . S
C851 C850 1.370 . S
C851 C852 1.403 . S
C852 C851 1.403 . S
C852 C853 1.404 . S
C852 C855 1.539 . S
C853 C849 1.408 . S
C853 C852 1.404 . S
C853 H865 0.930 . S
C854 C850 1.524 . S
C854 H866 0.956 . S
C854 H867 0.961 . S
C854 H868 0.961 . S
C855 C852 1.539 . S
C855 H869 0.958 . S
C855 H870 0.961 . S
C855 H871 0.960 . S
H856 C840 0.931 . S
H857 C845 0.929 . S
H858 C846 0.960 . S
H859 C846 0.962 . S
H860 C846 0.960 . S
H861 C847 0.961 . S
H862 C847 0.961 . S
H863 C847 0.961 . S
H864 C848 0.931 . S
H865 C853 0.930 . S
H866 C854 0.956 . S
H867 C854 0.961 . S
H868 C854 0.961 . S
H869 C855 0.958 . S
H870 C855 0.961 . S
H871 C855 0.960 . S
C872 C873 1.391 . S
C872 C874 1.394 . S
C872 H888 0.931 . S
C873 C872 1.391 . S
C873 C877 1.376 . S
C874 C872 1.394 . S
C874 C875 1.369 . S
C874 C878 1.531 . S
C875 C874 1.369 . S
C875 C876 1.410 . S
C875 C883 1.503 . S
C876 C875 1.410 . S
C876 C877 1.392 . S
C876 C879 1.511 . S
C877 C873 1.376 . S
C877 C876 1.392 . S
C877 H889 0.929 . S
C878 C874 1.531 . S
C878 H890 0.960 . S
C878 H891 0.962 . S
C878 H892 0.960 . S
C879 C876 1.511 . S
C879 H893 0.961 . S
C879 H894 0.961 . S
C879 H895 0.961 . S
C880 C881 1.370 . S
C880 C882 1.363 . S
C880 H896 0.931 . S
C881 C880 1.370 . S
C881 C885 1.408 . S
C882 C880 1.363 . S
C882 C883 1.370 . S
C882 C886 1.524 . S
C883 C875 1.503 . S
C883 C882 1.370 . S
C883 C884 1.403 . S
C884 C883 1.403 . S
C884 C885 1.404 . S
C884 C887 1.539 . S
C885 C881 1.408 . S
C885 C884 1.404 . S
C885 H897 0.930 . S
C886 C882 1.524 . S
C886 H898 0.956 . S
C886 H899 0.961 . S
C886 H900 0.961 . S
C887 C884 1.539 . S
C887 H901 0.958 . S
C887 H902 0.961 . S
C887 H903 0.960 . S
H888 C872 0.931 . S
H889 C877 0.929 . S
H890 C878 0.960 . S
H891 C878 0.962 . S
H892 C878 0.960 . S
H893 C879 0.961 . S
H894 C879 0.961 . S
H895 C879 0.961 . S
H896 C880 0.931 . S
H897 C885 0.930 . S
H898 C886 0.956 . S
H899 C886 0.961 . S
H900 C886 0.961 . S
H901 C887 0.958 . S
H902 C887 0.961 . S
H903 C887 0.960 . S
C904 C905 1.391 . S
C904 C906 1.394 . S
C904 H920 0.931 . S
C905 C904 1.391 . S
C905 C909 1.376 . S
C906 C904 1.394 . S
C906 C907 1.369 . S
C906 C910 1.531 . S
C907 C906 1.369 . S
C907 C908 1.410 . S
C907 C915 1.503 . S
C908 C907 1.410 . S
C908 C909 1.392 . S
C908 C911 1.511 . S
C909 C905 1.376 . S
C909 C908 1.392 . S
C909 H921 0.929 . S
C910 C906 1.531 . S
C910 H922 0.960 . S
C910 H923 0.962 . S
C910 H924 0.960 . S
C911 C908 1.511 . S
C911 H925 0.961 . S
C911 H926 0.961 . S
C911 H927 0.961 . S
C912 C913 1.370 . S
C912 C914 1.363 . S
C912 H928 0.931 . S
C913 C912 1.370 . S
C913 C917 1.408 . S
C914 C912 1.363 . S
C914 C915 1.370 . S
C914 C918 1.524 . S
C915 C907 1.503 . S
C915 C914 1.370 . S
C915 C916 1.403 . S
C916 C915 1.403 . S
C916 C917 1.404 . S
C916 C919 1.539 . S
C917 C913 1.408 . S
C917 C916 1.404 . S
C917 H929 0.930 . S
C918 C914 1.524 . S
C918 H930 0.956 . S
C918 H931 0.961 . S
C918 H932 0.961 . S
C919 C916 1.539 . S
C919 H933 0.958 . S
C919 H934 0.961 . S
C919 H935 0.960 . S
H920 C904 0.931 . S
H921 C909 0.929 . S
H922 C910 0.960 . S
H923 C910 0.962 . S
H924 C910 0.960 . S
H925 C911 0.961 . S
H926 C911 0.961 . S
H927 C911 0.961 . S
H928 C912 0.931 . S
H929 C917 0.930 . S
H930 C918 0.956 . S
H931 C918 0.961 . S
H932 C918 0.961 . S
H933 C919 0.958 . S
H934 C919 0.961 . S
H935 C919 0.960 . S
C169 C7 1.316 . S
C177 C91 1.340 . S
C201 C21 1.368 . S
C209 C105 1.347 . S
C233 C35 1.313 . S
C241 C119 1.310 . S
C265 C133 1.357 . S
C273 C49 1.338 . S
C297 C63 1.327 . S
C305 C147 1.326 . S
C329 C161 1.343 . S
C337 C77 1.335 . S
C361 C13 0.892 . S
C369 C139 0.843 . S
C393 C27 0.790 . S
C401 C153 0.875 . S
C425 C167 0.958 . S
C433 C41 0.870 . S
C457 C97 0.846 . S
C465 C55 0.841 . S
C489 C69 0.793 . S
C497 C111 0.859 . S
C521 C83 0.899 . S
C529 C125 0.839 . S
C553 C165 1.757 . S
C561 C11 1.753 . S
C585 C25 1.796 . S
C593 C95 1.781 . S
C617 C39 1.752 . S
C625 C109 1.755 . S
C649 C123 1.757 . S
C657 C53 1.754 . S
C681 C137 1.770 . S
C689 C67 1.791 . S
C713 C81 1.758 . S
C721 C151 1.753 . S
C745 C8 0.656 . S
C753 C148 0.724 . S
C777 C162 0.596 . S
C785 C22 0.763 . S
C809 C92 0.717 . S
C817 C36 0.711 . S
C841 C50 0.754 . S
C849 C106 0.699 . S
C873 C120 0.821 . S
C881 C64 0.668 . S
C905 C134 0.612 . S
C913 C78 0.761 . S
