# Generated by pormake.
# Topology smu, (6)-cn, num edge types: 1
# Building blocks:
#     Node 0, Type 0, BuildingBlock: JUFBIX_clean_sbu_0, # of connection points: 6
#     Node 1, Type 0, BuildingBlock: JUFBIX_clean_sbu_0, # of connection points: 6
#     Node 2, Type 0, BuildingBlock: JUFBIX_clean_sbu_0, # of connection points: 6
#     Node 3, Type 0, BuildingBlock: JUFBIX_clean_sbu_0, # of connection points: 6
#     Node 4, Type 0, BuildingBlock: JUFBIX_clean_sbu_0, # of connection points: 6
#     Node 5, Type 0, BuildingBlock: JUFBIX_clean_sbu_0, # of connection points: 6
#     Edge 6, Type (0, 0), BuildingBlock: XIVTED_clean_linker_0, # of connection points: 2
#     Edge 7, Type (0, 0), BuildingBlock: XIVTED_clean_linker_0, # of connection points: 2
#     Edge 8, Type (0, 0), BuildingBlock: XIVTED_clean_linker_0, # of connection points: 2
#     Edge 9, Type (0, 0), BuildingBlock: XIVTED_clean_linker_0, # of connection points: 2
#     Edge 10, Type (0, 0), BuildingBlock: XIVTED_clean_linker_0, # of connection points: 2
#     Edge 11, Type (0, 0), BuildingBlock: XIVTED_clean_linker_0, # of connection points: 2
#     Edge 12, Type (0, 0), BuildingBlock: XIVTED_clean_linker_0, # of connection points: 2
#     Edge 13, Type (0, 0), BuildingBlock: XIVTED_clean_linker_0, # of connection points: 2
#     Edge 14, Type (0, 0), BuildingBlock: XIVTED_clean_linker_0, # of connection points: 2
#     Edge 15, Type (0, 0), BuildingBlock: XIVTED_clean_linker_0, # of connection points: 2
#     Edge 16, Type (0, 0), BuildingBlock: XIVTED_clean_linker_0, # of connection points: 2
#     Edge 17, Type (0, 0), BuildingBlock: XIVTED_clean_linker_0, # of connection points: 2
#     Edge 18, Type (0, 0), BuildingBlock: XIVTED_clean_linker_0, # of connection points: 2
#     Edge 19, Type (0, 0), BuildingBlock: XIVTED_clean_linker_0, # of connection points: 2
#     Edge 20, Type (0, 0), BuildingBlock: XIVTED_clean_linker_0, # of connection points: 2
#     Edge 21, Type (0, 0), BuildingBlock: XIVTED_clean_linker_0, # of connection points: 2
#     Edge 22, Type (0, 0), BuildingBlock: XIVTED_clean_linker_0, # of connection points: 2
#     Edge 23, Type (0, 0), BuildingBlock: XIVTED_clean_linker_0, # of connection points: 2
# Relax obj value: 0.419
# Max RMSD: 0.302
# Mean RMSD: 0.301
data_MOF--net-smu--node1-JUFBIX_clean_sbu_0--edge1-XIVTED_clean_linker_0
_symmetry_space_group_name_H-M    P1
_symmetry_Int_Tables_number       1
_symmetry_cell_setting            triclinic
loop_
_symmetry_equiv_pos_as_xyz
'x, y, z'
_cell_length_a     31.654273
_cell_length_b     31.689923
_cell_length_c     28.338198
_cell_angle_alpha  91.870241
_cell_angle_beta   89.251857
_cell_angle_gamma 120.23269
loop_
_atom_site_label
_atom_site_type_symbol
_atom_site_fract_x
_atom_site_fract_y
_atom_site_fract_z
_atom_type_partial_charge
Co0 Co 0.32446 0.04193 0.27986 0.0
C1 C 0.35848 0.09359 0.19901 0.0
Co2 Co 0.37897 0.11926 0.2948 0.0
C3 C 0.22942 0.95772 0.2792 0.0
C4 C 0.27889 0.94363 0.23906 0.0
N5 N 0.27686 0.97774 0.26704 0.0
N6 N 0.20118 0.91306 0.25898 0.0
C7 C 0.2324 0.90381 0.23399 0.0
H8 H 0.21545 0.97705 0.30021 0.0
H9 H 0.31151 0.94843 0.2215 0.0
C10 C 0.34054 0.06193 0.3748 0.0
N11 N 0.42522 0.18428 0.30831 0.0
C12 C 0.4273 0.2251 0.29241 0.0
C13 C 0.46154 0.20061 0.34046 0.0
N14 N 0.46304 0.26616 0.31393 0.0
C15 C 0.48474 0.25079 0.34405 0.0
C16 C 0.28623 0.10449 0.2908 0.0
O17 O 0.31448 0.03031 0.34363 0.0
O18 O 0.37327 0.10451 0.36228 0.0
O19 O 0.33006 0.13543 0.30116 0.0
O20 O 0.27515 0.06109 0.27892 0.0
O21 O 0.38297 0.13099 0.22644 0.0
H22 H 0.46989 0.17741 0.3608 0.0
H23 H 0.4019 0.22455 0.26684 0.0
O24 O 0.33293 0.05201 0.21642 0.0
O25 O 0.376 0.02523 0.28023 0.0
O26 O 0.42831 0.10405 0.28875 0.0
C27 C 0.42002 0.06073 0.28349 0.0
H28 H 0.22236 0.8715 0.2121 0.0
H29 H 0.51525 0.27416 0.36707 0.0
Co30 Co 0.75367 0.64032 0.25392 0.0
C31 C 0.73552 0.67618 0.17237 0.0
Co32 Co 0.73796 0.70047 0.26653 0.0
C33 C 0.80764 0.58848 0.25742 0.0
C34 C 0.74532 0.55258 0.21161 0.0
N35 N 0.76821 0.59059 0.24264 0.0
N36 N 0.8107 0.55128 0.23612 0.0
C37 C 0.77129 0.52848 0.20749 0.0
H38 H 0.83507 0.61536 0.28135 0.0
H39 H 0.71294 0.54419 0.1917 0.0
C40 C 0.75215 0.66673 0.34887 0.0
N41 N 0.7263 0.75188 0.277 0.0
C42 C 0.75549 0.79839 0.26367 0.0
C43 C 0.69169 0.75326 0.30405 0.0
N44 N 0.74143 0.82918 0.28213 0.0
C45 C 0.70084 0.80064 0.30725 0.0
C46 C 0.65551 0.60693 0.26472 0.0
O47 O 0.75735 0.63592 0.32274 0.0
O48 O 0.74503 0.69822 0.33017 0.0
O49 O 0.66849 0.65193 0.27173 0.0
O50 O 0.68746 0.59496 0.25598 0.0
O51 O 0.73003 0.70329 0.20255 0.0
H52 H 0.66303 0.72235 0.32209 0.0
H53 H 0.78811 0.80992 0.24281 0.0
O54 O 0.74812 0.64608 0.18615 0.0
O55 O 0.82002 0.68524 0.25129 0.0
O56 O 0.80755 0.74667 0.26181 0.0
C57 C 0.83686 0.73072 0.25491 0.0
H58 H 0.76228 0.49708 0.18453 0.0
H59 H 0.6799 0.81306 0.32775 0.0
Co60 Co 0.9884 0.2924 0.26379 0.0
C61 C 0.93249 0.27577 0.18486 0.0
Co62 Co 0.91414 0.27774 0.28194 0.0
C63 C 0.07082 0.28001 0.2699 0.0
C64 C 0.07839 0.32431 0.21141 0.0
N65 N 0.05009 0.30291 0.24922 0.0
N66 N 0.11003 0.285 0.24603 0.0
C67 C 0.11513 0.31291 0.20912 0.0
H68 H 0.05487 0.2564 0.29961 0.0
H69 H 0.07071 0.34378 0.18535 0.0
C70 C 0.97547 0.29714 0.36006 0.0
N71 N 0.85115 0.26405 0.29717 0.0
C72 C 0.80805 0.22596 0.28168 0.0
C73 C 0.83884 0.28691 0.33086 0.0
N74 N 0.76947 0.22372 0.30498 0.0
C75 C 0.78878 0.26219 0.33581 0.0
C76 C 0.92025 0.194 0.27754 0.0
O77 O 1.00494 0.30129 0.32755 0.0
O78 O 0.93204 0.28629 0.34904 0.0
O79 O 0.89251 0.21145 0.28465 0.0
O80 O 0.96489 0.22273 0.26736 0.0
O81 O 0.89912 0.27107 0.21383 0.0
H82 H 0.86473 0.31856 0.35163 0.0
H83 H 0.8052 0.19902 0.25546 0.0
O84 O 0.97313 0.28394 0.20046 0.0
O85 O 1.00976 0.36216 0.25981 0.0
O86 O 0.93496 0.34343 0.27985 0.0
C87 C 0.97821 0.37521 0.26923 0.0
H88 H 0.14196 0.32237 0.18135 0.0
H89 H 0.76821 0.27146 0.36062 0.0
Co90 Co 0.12619 0.37895 0.78329 0.0
C91 C 0.06674 0.33569 0.86218 0.0
Co92 Co 0.04982 0.32236 0.76617 0.0
C93 C 0.23207 0.43003 0.77804 0.0
C94 C 0.20682 0.45991 0.83288 0.0
N95 N 0.19087 0.42579 0.7976 0.0
N96 N 0.27304 0.46498 0.80013 0.0
C97 C 0.25716 0.48391 0.83459 0.0
H98 H 0.23189 0.40661 0.74927 0.0
H99 H 0.1833 0.46616 0.85654 0.0
C100 C 0.10365 0.3637 0.68678 0.0
N101 N 0.98656 0.27336 0.75153 0.0
C102 C 0.96524 0.22761 0.76787 0.0
C103 C 0.95743 0.27069 0.71582 0.0
N104 N 0.92493 0.1962 0.74305 0.0
C105 C 0.9197 0.22303 0.7102 0.0
C106 C 0.0652 0.41698 0.77739 0.0
O107 O 0.13958 0.38789 0.71521 0.0
O108 O 0.06223 0.33355 0.70282 0.0
O109 O 0.03114 0.37265 0.77003 0.0
O110 O 0.10881 0.42675 0.78346 0.0
O111 O 0.0362 0.31059 0.83003 0.0
H112 H 0.96526 0.30045 0.69298 0.0
H113 H 0.98151 0.21653 0.79463 0.0
O114 O 0.10971 0.36909 0.85073 0.0
O115 O 0.1442 0.33129 0.78359 0.0
O116 O 0.0707 0.27426 0.76197 0.0
C117 C 0.11459 0.28712 0.77247 0.0
H118 H 0.28029 0.51302 0.85939 0.0
H119 H 0.89213 0.20872 0.68267 0.0
Co120 Co 0.27699 0.91035 0.787 0.0
C121 C 0.30052 0.97523 0.86541 0.0
Co122 Co 0.3002 0.98679 0.76973 0.0
C123 C 0.22137 0.80363 0.78722 0.0
C124 C 0.28071 0.835 0.8368 0.0
N125 N 0.25952 0.84687 0.80274 0.0
N126 N 0.21761 0.76548 0.81088 0.0
C127 C 0.25505 0.78522 0.84195 0.0
H128 H 0.1957 0.80041 0.76048 0.0
H129 H 0.31212 0.86107 0.85745 0.0
C130 C 0.2806 0.92706 0.69078 0.0
N131 N 0.31488 0.04918 0.75445 0.0
C132 C 0.29187 0.07199 0.77286 0.0
C133 C 0.339 0.07524 0.71653 0.0
N134 N 0.29917 0.11012 0.74723 0.0
C135 C 0.32898 0.11254 0.71175 0.0
C136 C 0.37732 0.96979 0.7747 0.0
O137 O 0.27103 0.89298 0.71935 0.0
O138 O 0.29278 0.96934 0.70663 0.0
O139 O 0.36832 1.00385 0.76618 0.0
O140 O 0.34267 0.92768 0.78468 0.0
O141 O 0.30879 1.00548 0.83354 0.0
H142 H 0.359 0.06527 0.69171 0.0
H143 H 0.26624 0.05793 0.80182 0.0
O144 O 0.28446 0.93038 0.8538 0.0
O145 O 0.21135 0.89272 0.78954 0.0
O146 O 0.23138 0.96741 0.77249 0.0
C147 C 0.19875 0.92386 0.78165 0.0
H148 H 0.26318 0.76508 0.86688 0.0
H149 H 0.34037 0.13765 0.68301 0.0
Co150 Co 0.65247 0.75179 0.75391 0.0
C151 C 0.69168 0.73759 0.83648 0.0
Co152 Co 0.71062 0.73324 0.74264 0.0
C153 C 0.59986 0.80567 0.75371 0.0
C154 C 0.5651 0.74156 0.79516 0.0
N155 N 0.60292 0.76621 0.7656 0.0
N156 N 0.56218 0.80683 0.77548 0.0
C157 C 0.54018 0.76642 0.80137 0.0
H158 H 0.62641 0.83446 0.73189 0.0
H159 H 0.55751 0.70877 0.81292 0.0
C160 C 0.67355 0.7438 0.6596 0.0
N161 N 0.76173 0.72136 0.73235 0.0
C162 C 0.80567 0.7467 0.75401 0.0
C163 C 0.76847 0.69624 0.69654 0.0
N164 N 0.83988 0.7396 0.73258 0.0
C165 C 0.81676 0.70781 0.69634 0.0
C166 C 0.61713 0.65228 0.74577 0.0
O167 O 0.64659 0.75465 0.6853 0.0
O168 O 0.70305 0.73378 0.67874 0.0
O169 O 0.66192 0.66343 0.74248 0.0
O170 O 0.60652 0.68571 0.75016 0.0
O171 O 0.7186 0.73207 0.80665 0.0
H172 H 0.74115 0.67401 0.6702 0.0
H173 H 0.81357 0.77339 0.7824 0.0
O174 O 0.65937 0.74703 0.82193 0.0
O175 O 0.69839 0.81838 0.75795 0.0
O176 O 0.75735 0.80296 0.74283 0.0
C177 C 0.74329 0.83364 0.75136 0.0
H178 H 0.50903 0.75629 0.82421 0.0
H179 H 0.83407 0.69578 0.67029 0.0
H180 H 0.25035 0.93203 0.94632 0.0
H181 H 0.4323 0.12825 0.13253 0.0
H182 H 0.3765 0.06201 0.89627 0.0
H183 H 0.27589 0.05658 0.14882 0.0
H184 H 0.42002 0.10088 0.04853 0.0
H185 H 0.26686 0.96978 0.02635 0.0
C186 C 0.2818 0.96812 0.95235 0.0
C187 C 0.31193 0.99406 0.91481 0.0
C188 C 0.38857 0.09226 0.07046 0.0
C189 C 0.33123 0.03716 1.00566 0.0
C190 C 0.39562 0.10862 0.11799 0.0
C191 C 0.35505 0.09512 0.14733 0.0
C192 C 0.34079 0.06128 0.05316 0.0
C193 C 0.30812 0.06805 0.12717 0.0
C194 C 0.29099 0.98982 0.99773 0.0
C195 C 0.35217 0.041 0.92437 0.0
N196 N 0.30224 0.05117 0.08176 0.0
N197 N 0.3609 0.06099 0.9689 0.0
H198 H 0.60787 0.6657 0.60682 0.0
H199 H 0.8156 0.73319 0.41181 0.0
H200 H 0.7389 0.806 0.59793 0.0
H201 H 0.67517 0.60182 0.40065 0.0
H202 H 0.79023 0.75501 0.48595 0.0
H203 H 0.62977 0.63967 0.53241 0.0
C204 C 0.63979 0.69198 0.58774 0.0
C205 C 0.67097 0.73856 0.6079 0.0
C206 C 0.76518 0.72078 0.46801 0.0
C207 C 0.69816 0.70798 0.52475 0.0
C208 C 0.78027 0.70761 0.42637 0.0
C209 C 0.74783 0.66515 0.40054 0.0
C210 C 0.71701 0.69142 0.48394 0.0
C211 C 0.70167 0.63431 0.42006 0.0
C212 C 0.65304 0.67665 0.54599 0.0
C213 C 0.71319 0.77029 0.58294 0.0
N214 N 0.68728 0.64837 0.46026 0.0
N215 N 0.72595 0.7542 0.54321 0.0
H216 H 0.94857 0.35377 0.13487 0.0
H217 H 1.00949 0.24749 0.90004 0.0
H218 H 0.91832 0.20564 0.11932 0.0
H219 H 0.08046 0.40159 0.93488 0.0
H220 H 0.96631 0.23011 0.97535 0.0
H221 H 0.98324 0.36981 0.05501 0.0
C222 C 0.9469 0.32393 0.11366 0.0
C223 C 0.92942 0.27797 0.1333 0.0
C224 C 0.99166 0.26774 0.96691 0.0
C225 C 0.97099 0.29649 0.04279 0.0
C226 C 1.0167 0.27769 0.92412 0.0
C227 C 0.04927 0.32604 0.91157 0.0
C228 C 0.99825 0.30643 0.99732 0.0
C229 C 0.05651 0.36379 0.94368 0.0
C230 C 0.96779 0.33341 0.06855 0.0
C231 C 0.93007 0.24114 0.10502 0.0
N232 N 0.03084 0.35322 0.98496 0.0
N233 N 0.95085 0.25126 0.06142 0.0
H234 H 0.25353 0.01317 0.41823 0.0
H235 H 0.35867 0.94247 0.63861 0.0
H236 H 0.40743 0.07019 0.441 0.0
H237 H 0.20973 0.90992 0.62792 0.0
H238 H 0.37499 0.97757 0.56008 0.0
H239 H 0.23568 0.96862 0.49127 0.0
C240 C 0.28369 0.01725 0.43944 0.0
C241 C 0.33208 0.04616 0.42414 0.0
C242 C 0.33833 0.96145 0.57425 0.0
C243 C 0.31181 0.99339 0.50699 0.0
C244 C 0.32866 0.94017 0.61851 0.0
C245 C 0.28244 0.92213 0.63925 0.0
C246 C 0.30142 0.96476 0.55063 0.0
C247 C 0.24545 0.92215 0.61263 0.0
C248 C 0.27344 0.99128 0.48082 0.0
C249 C 0.36973 0.04927 0.45225 0.0
N250 N 0.25587 0.94372 0.57001 0.0
N251 N 0.35878 0.02283 0.49224 0.0
H252 H 0.75776 0.71649 0.87254 0.0
H253 H 0.67815 0.70983 0.14014 0.0
H254 H 0.6385 0.73863 0.91476 0.0
H255 H 0.76878 0.65159 0.09112 0.0
H256 H 0.66523 0.72335 0.05892 0.0
H257 H 0.76509 0.69717 0.95291 0.0
C258 C 0.73305 0.71753 0.89876 0.0
C259 C 0.69729 0.72932 0.88664 0.0
C260 C 0.68768 0.70734 0.06575 0.0
C261 C 0.70583 0.70684 0.97952 0.0
C262 C 0.6953 0.6997 0.11216 0.0
C263 C 0.72509 0.67994 0.12247 0.0
C264 C 0.71043 0.69575 0.02905 0.0
C265 C 0.74569 0.66695 0.08475 0.0
C266 C 0.73723 0.70612 0.94476 0.0
C267 C 0.66664 0.72997 0.92246 0.0
N268 N 0.73838 0.67559 0.03962 0.0
N269 N 0.67171 0.71899 0.96742 0.0
H270 H 0.94682 0.33277 0.43684 0.0
H271 H 0.13623 0.32667 0.61619 0.0
H272 H 0.04853 0.28587 0.39463 0.0
H273 H 0.06709 0.41221 0.64303 0.0
H274 H 0.1057 0.31155 0.53455 0.0
H275 H 0.98761 0.35847 0.51448 0.0
C276 C 0.97716 0.32723 0.44414 0.0
C277 C 0.99419 0.30708 0.40929 0.0
C278 C 0.09838 0.33485 0.55788 0.0
C279 C 0.04144 0.3369 0.49743 0.0
C280 C 0.11676 0.34431 0.60414 0.0
C281 C 0.10543 0.37198 0.63586 0.0
C282 C 0.0674 0.35212 0.5438 0.0
C283 C 0.07779 0.39189 0.61917 0.0
C284 C 1.00087 0.34246 0.48814 0.0
C285 C 0.03421 0.30137 0.42042 0.0
N286 N 0.05906 0.38096 0.57462 0.0
N287 N 0.05629 0.31603 0.46338 0.0
H288 H 0.46342 0.04789 0.35865 0.0
H289 H 0.72077 0.17427 0.225 0.0
H290 H 0.47712 0.06775 0.20861 0.0
H291 H 0.7019 0.18817 0.37448 0.0
H292 H 0.63252 0.11597 0.21751 0.0
H293 H 0.55107 0.07674 0.3635 0.0
C294 C 0.48447 0.05579 0.32637 0.0
C295 C 0.46298 0.05454 0.28305 0.0
C296 C 0.64787 0.1314 0.252 0.0
C297 C 0.56366 0.09008 0.28849 0.0
C298 C 0.69816 0.16457 0.25628 0.0
C299 C 0.71852 0.18667 0.3003 0.0
C300 C 0.61792 0.11972 0.29218 0.0
C301 C 0.68757 0.17283 0.33973 0.0
C302 C 0.53469 0.07324 0.32922 0.0
C303 C 0.49225 0.06719 0.24249 0.0
N304 N 0.63894 0.14048 0.33471 0.0
N305 N 0.54129 0.08519 0.24624 0.0
H306 H 0.60341 0.57663 0.34585 0.0
H307 H 0.45622 0.3059 0.23286 0.0
H308 H 0.59726 0.54271 0.19692 0.0
H309 H 0.49829 0.34048 0.37933 0.0
H310 H 0.48603 0.39273 0.22038 0.0
H311 H 0.5413 0.49123 0.35927 0.0
C312 C 0.58702 0.55177 0.31575 0.0
C313 C 0.60508 0.5666 0.27022 0.0
C314 C 0.48808 0.38116 0.25539 0.0
C315 C 0.53567 0.46877 0.28524 0.0
C316 C 0.47101 0.33163 0.26252 0.0
C317 C 0.4756 0.31608 0.307 0.0
C318 C 0.50944 0.41531 0.29313 0.0
C319 C 0.49512 0.35105 0.34423 0.0
C320 C 0.55225 0.50284 0.32344 0.0
C321 C 0.58375 0.53266 0.2325 0.0
N322 N 0.51162 0.39898 0.3364 0.0
N323 N 0.55077 0.48513 0.24087 0.0
H324 H 0.99084 0.42382 0.18824 0.0
H325 H 0.86583 0.56338 0.31372 0.0
H326 H 0.97822 0.4356 0.3388 0.0
H327 H 0.84448 0.5138 0.16791 0.0
H328 H 0.92698 0.53791 0.32128 0.0
H329 H 0.96045 0.48055 0.17834 0.0
C330 C 0.98424 0.44046 0.21929 0.0
C331 C 0.98719 0.42518 0.26437 0.0
C332 C 0.9093 0.53316 0.28749 0.0
C333 C 0.9507 0.48856 0.25349 0.0
C334 C 0.87444 0.54772 0.28317 0.0
C335 C 0.84937 0.53993 0.24035 0.0
C336 C 0.91965 0.51122 0.24853 0.0
C337 C 0.86204 0.51945 0.20187 0.0
C338 C 0.96595 0.47209 0.21366 0.0
C339 C 0.97698 0.44695 0.30344 0.0
N340 N 0.896 0.50561 0.20693 0.0
N341 N 0.9583 0.47679 0.29714 0.0
H342 H 0.0664 0.47103 0.70446 0.0
H343 H 0.1782 0.70066 0.88064 0.0
H344 H 0.05407 0.4614 0.85556 0.0
H345 H 0.17284 0.71364 0.73028 0.0
H346 H 0.12256 0.61275 0.8718 0.0
H347 H 0.09214 0.55801 0.71195 0.0
C348 C 0.06653 0.48667 0.73905 0.0
C349 C 0.05711 0.45882 0.77941 0.0
C350 C 0.13296 0.63467 0.84064 0.0
C351 C 0.08927 0.5589 0.78861 0.0
C352 C 0.16506 0.68491 0.8457 0.0
C353 C 0.18077 0.7144 0.80606 0.0
C354 C 0.11683 0.61321 0.79542 0.0
C355 C 0.16173 0.69216 0.76171 0.0
C356 C 0.08211 0.53659 0.74342 0.0
C357 C 0.05993 0.48137 0.82354 0.0
N358 N 0.1314 0.64278 0.75747 0.0
N359 N 0.07659 0.53019 0.82704 0.0
H360 H 0.4282 0.96902 0.69686 0.0
H361 H 0.53656 0.84291 0.85084 0.0
H362 H 0.43341 0.97714 0.84869 0.0
H363 H 0.56082 0.85811 0.70095 0.0
H364 H 0.50813 0.9015 0.85051 0.0
H365 H 0.48767 0.94088 0.69642 0.0
C366 C 0.44391 0.96738 0.72999 0.0
C367 C 0.42655 0.97604 0.77287 0.0
C368 C 0.52015 0.89269 0.81762 0.0
C369 C 0.49246 0.94159 0.77291 0.0
C370 C 0.53608 0.85893 0.81783 0.0
C371 C 0.55032 0.84519 0.77576 0.0
C372 C 0.51737 0.91234 0.7748 0.0
C373 C 0.54991 0.86771 0.73406 0.0
C374 C 0.47726 0.95055 0.72981 0.0
C375 C 0.44658 0.9716 0.8149 0.0
N376 N 0.53278 0.89955 0.73443 0.0
N377 N 0.47772 0.95384 0.81392 0.0
H378 H 0.31299 0.46341 0.71491 0.0
H379 H 0.58377 0.59702 0.82302 0.0
H380 H 0.34787 0.49747 0.86282 0.0
H381 H 0.55312 0.59864 0.67585 0.0
H382 H 0.49716 0.53806 0.8359 0.0
H383 H 0.39976 0.49294 0.69859 0.0
C384 C 0.33876 0.47648 0.744 0.0
C385 C 0.32322 0.47864 0.79023 0.0
C386 C 0.50957 0.54991 0.80041 0.0
C387 C 0.42245 0.51204 0.77191 0.0
C388 C 0.55926 0.58271 0.79288 0.0
C389 C 0.57575 0.60199 0.74814 0.0
C390 C 0.4761 0.53659 0.76293 0.0
C391 C 0.54199 0.58383 0.71068 0.0
C392 C 0.38827 0.4934 0.73467 0.0
C393 C 0.35831 0.49608 0.82656 0.0
N394 N 0.49363 0.55281 0.719 0.0
N395 N 0.40615 0.51226 0.81663 0.0
H396 H 0.21463 0.0806 0.22486 0.0
H397 H 0.13686 0.26834 0.33007 0.0
H398 H 0.27946 0.1688 0.35112 0.0
H399 H 0.13683 0.23875 0.1806 0.0
H400 H 0.17356 0.21758 0.34408 0.0
H401 H 0.1681 0.12284 0.21437 0.0
C402 C 0.21797 0.10786 0.25098 0.0
C403 C 0.25067 0.12134 0.28893 0.0
C404 C 0.16556 0.2223 0.30822 0.0
C405 C 0.19831 0.16954 0.27714 0.0
C406 C 0.14483 0.25123 0.30028 0.0
C407 C 0.13453 0.25809 0.25415 0.0
C408 C 0.17499 0.19919 0.26981 0.0
C409 C 0.14514 0.23499 0.2166 0.0
C410 C 0.19202 0.13229 0.24469 0.0
C411 C 0.25453 0.15748 0.3214 0.0
N412 N 0.16456 0.20623 0.22524 0.0
N413 N 0.22868 0.18036 0.31479 0.0
H414 H 0.89527 0.82174 0.29674 0.0
H415 H 0.14172 0.84241 0.19487 0.0
H416 H 0.89947 0.71229 0.20538 0.0
H417 H 0.13884 0.92143 0.32095 0.0
H418 H 0.05295 0.80164 0.19097 0.0
H419 H 0.98543 0.8681 0.29715 0.0
C420 C 0.91515 0.80797 0.27625 0.0
C421 C 0.89015 0.76313 0.25125 0.0
C422 C 0.07186 0.82796 0.21949 0.0
C423 C 0.99226 0.81532 0.25159 0.0
C424 C 0.1227 0.85103 0.22201 0.0
C425 C 0.14834 0.88579 0.2582 0.0
C426 C 0.04626 0.83984 0.25314 0.0
C427 C 0.12108 0.89569 0.29186 0.0
C428 C 0.96638 0.83407 0.27681 0.0
C429 C 0.91743 0.74656 0.22547 0.0
N430 N 0.07158 0.87303 0.28839 0.0
N431 N 0.96692 0.77258 0.22635 0.0
H432 H 0.84265 0.13398 0.33041 0.0
H433 H 0.81185 0.88623 0.21899 0.0
H434 H 0.94848 0.13275 0.23371 0.0
H435 H 0.7335 0.894 0.34187 0.0
H436 H 0.85999 0.97538 0.22024 0.0
H437 H 0.8007 0.04547 0.33199 0.0
C438 C 0.85731 0.11497 0.30967 0.0
C439 C 0.89906 0.14076 0.28172 0.0
C440 C 0.83232 0.9574 0.24695 0.0
C441 C 0.85051 0.03871 0.28295 0.0
C442 C 0.80469 0.90636 0.24636 0.0
C443 C 0.76828 0.88196 0.28051 0.0
C444 C 0.82325 0.98444 0.28159 0.0
C445 C 0.76044 0.91061 0.31442 0.0
C446 C 0.83327 0.06431 0.31064 0.0
C447 C 0.91651 0.11419 0.25584 0.0
N448 N 0.78758 0.96012 0.314 0.0
N449 N 0.89177 0.06437 0.25666 0.0
H450 H 0.09747 0.21493 0.70616 0.0
H451 H 0.27687 0.14167 0.82804 0.0
H452 H 0.1752 0.28305 0.83582 0.0
H453 H 0.25794 0.13368 0.67711 0.0
H454 H 0.22564 0.17928 0.83612 0.0
H455 H 0.14119 0.16882 0.69988 0.0
C456 C 0.12282 0.21922 0.73376 0.0
C457 C 0.13287 0.2526 0.77157 0.0
C458 C 0.23281 0.16939 0.80123 0.0
C459 C 0.1826 0.20066 0.76468 0.0
C460 C 0.26202 0.14812 0.79666 0.0
C461 C 0.27204 0.13527 0.75188 0.0
C462 C 0.21258 0.1769 0.76075 0.0
C463 C 0.25175 0.14398 0.71218 0.0
C464 C 0.14807 0.19348 0.72992 0.0
C465 C 0.16657 0.25762 0.8061 0.0
N466 N 0.22266 0.16402 0.71753 0.0
N467 N 0.19017 0.23192 0.80189 0.0
H468 H 0.14991 0.94455 0.71578 0.0
H469 H 0.88446 0.764 0.81763 0.0
H470 H 0.12846 0.86293 0.84135 0.0
H471 H 0.91249 0.78092 0.66829 0.0
H472 H 0.9726 0.81613 0.83296 0.0
H473 H 0.06056 0.90177 0.70443 0.0
C474 C 0.1263 0.91871 0.74162 0.0
C475 C 0.14621 0.9072 0.77961 0.0
C476 C 0.95937 0.80836 0.79686 0.0
C477 C 0.04497 0.85844 0.76688 0.0
C478 C 0.90935 0.77866 0.78817 0.0
C479 C 0.89158 0.76775 0.7417 0.0
C480 C 0.99162 0.82826 0.75881 0.0
C481 C 0.92503 0.78783 0.70457 0.0
C482 C 0.07558 0.89396 0.73484 0.0
C483 C 0.1143 0.87276 0.81166 0.0
N484 N 0.97354 0.81744 0.71391 0.0
N485 N 0.06521 0.84958 0.80462 0.0
H486 H 0.89491 0.14359 0.82183 0.0
H487 H 0.81982 0.88836 0.6922 0.0
H488 H 0.89929 0.13024 0.67035 0.0
H489 H 0.74273 0.89926 0.81425 0.0
H490 H 0.86718 0.97844 0.69046 0.0
H491 H 0.85531 0.05422 0.82614 0.0
C492 C 0.88732 0.12165 0.78957 0.0
C493 C 0.89954 0.14388 0.74568 0.0
C494 C 0.84024 0.96086 0.71786 0.0
C495 C 0.85605 0.04251 0.7503 0.0
C496 C 0.81372 0.90975 0.71914 0.0
C497 C 0.77753 0.88673 0.75343 0.0
C498 C 0.83112 0.98863 0.75182 0.0
C499 C 0.77034 0.91584 0.78721 0.0
C500 C 0.86495 0.07094 0.79199 0.0
C501 C 0.88949 0.11417 0.70474 0.0
N502 N 0.79699 0.96529 0.7857 0.0
N503 N 0.86859 0.0649 0.70801 0.0
loop_
_geom_bond_atom_site_label_1
_geom_bond_atom_site_label_2
_geom_bond_distance
_geom_bond_site_symmetry_2
_ccdc_geom_bond_type
Co0 N5 2.057 1_545 S
Co0 O17 2.021 . S
Co0 O20 2.062 . S
Co0 O24 2.117 . S
Co0 O25 2.020 . S
C1 O21 1.259 . S
C1 O24 1.258 . S
Co2 N11 2.057 . S
Co2 O18 2.117 . S
Co2 O19 2.020 . S
Co2 O21 2.021 . S
Co2 O26 2.062 . S
C3 N5 1.316 . S
C3 N6 1.347 . S
C3 H8 0.931 . S
C4 N5 1.375 . S
C4 C7 1.350 . S
C4 H9 0.930 . S
N5 Co0 2.057 1_565 S
N5 C3 1.316 . S
N5 C4 1.375 . S
N6 C3 1.347 . S
N6 C7 1.373 . S
C7 C4 1.350 . S
C7 N6 1.373 . S
C7 H28 0.931 . S
H8 C3 0.931 . S
H9 C4 0.930 . S
C10 O17 1.259 . S
C10 O18 1.258 . S
N11 Co2 2.057 . S
N11 C12 1.316 . S
N11 C13 1.375 . S
C12 N11 1.316 . S
C12 N14 1.347 . S
C12 H23 0.931 . S
C13 N11 1.375 . S
C13 C15 1.350 . S
C13 H22 0.930 . S
N14 C12 1.347 . S
N14 C15 1.373 . S
C15 C13 1.350 . S
C15 N14 1.373 . S
C15 H29 0.931 . S
C16 O19 1.256 . S
C16 O20 1.255 . S
O17 Co0 2.021 . S
O17 C10 1.259 . S
O18 Co2 2.117 . S
O18 C10 1.258 . S
O19 Co2 2.020 . S
O19 C16 1.256 . S
O20 Co0 2.062 . S
O20 C16 1.255 . S
O21 C1 1.259 . S
O21 Co2 2.021 . S
H22 C13 0.930 . S
H23 C12 0.931 . S
O24 Co0 2.117 . S
O24 C1 1.258 . S
O25 Co0 2.020 . S
O25 C27 1.256 . S
O26 Co2 2.062 . S
O26 C27 1.255 . S
C27 O25 1.256 . S
C27 O26 1.255 . S
H28 C7 0.931 . S
H29 C15 0.931 . S
Co30 N35 2.057 . S
Co30 O47 2.021 . S
Co30 O50 2.062 . S
Co30 O54 2.117 . S
Co30 O55 2.020 . S
C31 O51 1.259 . S
C31 O54 1.258 . S
Co32 N41 2.057 . S
Co32 O48 2.117 . S
Co32 O49 2.020 . S
Co32 O51 2.021 . S
Co32 O56 2.062 . S
C33 N35 1.316 . S
C33 N36 1.347 . S
C33 H38 0.931 . S
C34 N35 1.375 . S
C34 C37 1.350 . S
C34 H39 0.930 . S
N35 Co30 2.057 . S
N35 C33 1.316 . S
N35 C34 1.375 . S
N36 C33 1.347 . S
N36 C37 1.373 . S
C37 C34 1.350 . S
C37 N36 1.373 . S
C37 H58 0.931 . S
H38 C33 0.931 . S
H39 C34 0.930 . S
C40 O47 1.259 . S
C40 O48 1.258 . S
N41 Co32 2.057 . S
N41 C42 1.316 . S
N41 C43 1.375 . S
C42 N41 1.316 . S
C42 N44 1.347 . S
C42 H53 0.931 . S
C43 N41 1.375 . S
C43 C45 1.350 . S
C43 H52 0.930 . S
N44 C42 1.347 . S
N44 C45 1.373 . S
C45 C43 1.350 . S
C45 N44 1.373 . S
C45 H59 0.931 . S
C46 O49 1.256 . S
C46 O50 1.255 . S
O47 Co30 2.021 . S
O47 C40 1.259 . S
O48 Co32 2.117 . S
O48 C40 1.258 . S
O49 Co32 2.020 . S
O49 C46 1.256 . S
O50 Co30 2.062 . S
O50 C46 1.255 . S
O51 C31 1.259 . S
O51 Co32 2.021 . S
H52 C43 0.930 . S
H53 C42 0.931 . S
O54 Co30 2.117 . S
O54 C31 1.258 . S
O55 Co30 2.020 . S
O55 C57 1.256 . S
O56 Co32 2.062 . S
O56 C57 1.255 . S
C57 O55 1.256 . S
C57 O56 1.255 . S
H58 C37 0.931 . S
H59 C45 0.931 . S
Co60 N65 2.057 1_655 S
Co60 O77 2.021 . S
Co60 O80 2.062 . S
Co60 O84 2.117 . S
Co60 O85 2.020 . S
C61 O81 1.259 . S
C61 O84 1.258 . S
Co62 N71 2.057 . S
Co62 O78 2.117 . S
Co62 O79 2.020 . S
Co62 O81 2.021 . S
Co62 O86 2.062 . S
C63 N65 1.316 . S
C63 N66 1.347 . S
C63 H68 0.931 . S
C64 N65 1.375 . S
C64 C67 1.350 . S
C64 H69 0.930 . S
N65 Co60 2.057 1_455 S
N65 C63 1.316 . S
N65 C64 1.375 . S
N66 C63 1.347 . S
N66 C67 1.373 . S
C67 C64 1.350 . S
C67 N66 1.373 . S
C67 H88 0.931 . S
H68 C63 0.931 . S
H69 C64 0.930 . S
C70 O77 1.259 . S
C70 O78 1.258 . S
N71 Co62 2.057 . S
N71 C72 1.316 . S
N71 C73 1.375 . S
C72 N71 1.316 . S
C72 N74 1.347 . S
C72 H83 0.931 . S
C73 N71 1.375 . S
C73 C75 1.350 . S
C73 H82 0.930 . S
N74 C72 1.347 . S
N74 C75 1.373 . S
C75 C73 1.350 . S
C75 N74 1.373 . S
C75 H89 0.931 . S
C76 O79 1.256 . S
C76 O80 1.255 . S
O77 Co60 2.021 . S
O77 C70 1.259 . S
O78 Co62 2.117 . S
O78 C70 1.258 . S
O79 Co62 2.020 . S
O79 C76 1.256 . S
O80 Co60 2.062 . S
O80 C76 1.255 . S
O81 C61 1.259 . S
O81 Co62 2.021 . S
H82 C73 0.930 . S
H83 C72 0.931 . S
O84 Co60 2.117 . S
O84 C61 1.258 . S
O85 Co60 2.020 . S
O85 C87 1.256 . S
O86 Co62 2.062 . S
O86 C87 1.255 . S
C87 O85 1.256 . S
C87 O86 1.255 . S
H88 C67 0.931 . S
H89 C75 0.931 . S
Co90 N95 2.057 . S
Co90 O107 2.021 . S
Co90 O110 2.062 . S
Co90 O114 2.117 . S
Co90 O115 2.020 . S
C91 O111 1.259 . S
C91 O114 1.258 . S
Co92 N101 2.057 1_455 S
Co92 O108 2.117 . S
Co92 O109 2.020 . S
Co92 O111 2.021 . S
Co92 O116 2.062 . S
C93 N95 1.316 . S
C93 N96 1.347 . S
C93 H98 0.931 . S
C94 N95 1.375 . S
C94 C97 1.350 . S
C94 H99 0.930 . S
N95 Co90 2.057 . S
N95 C93 1.316 . S
N95 C94 1.375 . S
N96 C93 1.347 . S
N96 C97 1.373 . S
C97 C94 1.350 . S
C97 N96 1.373 . S
C97 H118 0.931 . S
H98 C93 0.931 . S
H99 C94 0.930 . S
C100 O107 1.259 . S
C100 O108 1.258 . S
N101 Co92 2.057 1_655 S
N101 C102 1.316 . S
N101 C103 1.375 . S
C102 N101 1.316 . S
C102 N104 1.347 . S
C102 H113 0.931 . S
C103 N101 1.375 . S
C103 C105 1.350 . S
C103 H112 0.930 . S
N104 C102 1.347 . S
N104 C105 1.373 . S
C105 C103 1.350 . S
C105 N104 1.373 . S
C105 H119 0.931 . S
C106 O109 1.256 . S
C106 O110 1.255 . S
O107 Co90 2.021 . S
O107 C100 1.259 . S
O108 Co92 2.117 . S
O108 C100 1.258 . S
O109 Co92 2.020 . S
O109 C106 1.256 . S
O110 Co90 2.062 . S
O110 C106 1.255 . S
O111 C91 1.259 . S
O111 Co92 2.021 . S
H112 C103 0.930 . S
H113 C102 0.931 . S
O114 Co90 2.117 . S
O114 C91 1.258 . S
O115 Co90 2.020 . S
O115 C117 1.256 . S
O116 Co92 2.062 . S
O116 C117 1.255 . S
C117 O115 1.256 . S
C117 O116 1.255 . S
H118 C97 0.931 . S
H119 C105 0.931 . S
Co120 N125 2.057 . S
Co120 O137 2.021 . S
Co120 O140 2.062 . S
Co120 O144 2.117 . S
Co120 O145 2.020 . S
C121 O141 1.259 . S
C121 O144 1.258 . S
Co122 N131 2.057 1_565 S
Co122 O138 2.117 . S
Co122 O139 2.020 . S
Co122 O141 2.021 . S
Co122 O146 2.062 . S
C123 N125 1.316 . S
C123 N126 1.347 . S
C123 H128 0.931 . S
C124 N125 1.375 . S
C124 C127 1.350 . S
C124 H129 0.930 . S
N125 Co120 2.057 . S
N125 C123 1.316 . S
N125 C124 1.375 . S
N126 C123 1.347 . S
N126 C127 1.373 . S
C127 C124 1.350 . S
C127 N126 1.373 . S
C127 H148 0.931 . S
H128 C123 0.931 . S
H129 C124 0.930 . S
C130 O137 1.259 . S
C130 O138 1.258 . S
N131 Co122 2.057 1_545 S
N131 C132 1.316 . S
N131 C133 1.375 . S
C132 N131 1.316 . S
C132 N134 1.347 . S
C132 H143 0.931 . S
C133 N131 1.375 . S
C133 C135 1.350 . S
C133 H142 0.930 . S
N134 C132 1.347 . S
N134 C135 1.373 . S
C135 C133 1.350 . S
C135 N134 1.373 . S
C135 H149 0.931 . S
C136 O139 1.256 . S
C136 O140 1.255 . S
O137 Co120 2.021 . S
O137 C130 1.259 . S
O138 Co122 2.117 . S
O138 C130 1.258 . S
O139 Co122 2.020 . S
O139 C136 1.256 . S
O140 Co120 2.062 . S
O140 C136 1.255 . S
O141 C121 1.259 . S
O141 Co122 2.021 . S
H142 C133 0.930 . S
H143 C132 0.931 . S
O144 Co120 2.117 . S
O144 C121 1.258 . S
O145 Co120 2.020 . S
O145 C147 1.256 . S
O146 Co122 2.062 . S
O146 C147 1.255 . S
C147 O145 1.256 . S
C147 O146 1.255 . S
H148 C127 0.931 . S
H149 C135 0.931 . S
Co150 N155 2.057 . S
Co150 O167 2.021 . S
Co150 O170 2.062 . S
Co150 O174 2.117 . S
Co150 O175 2.020 . S
C151 O171 1.259 . S
C151 O174 1.258 . S
Co152 N161 2.057 . S
Co152 O168 2.117 . S
Co152 O169 2.020 . S
Co152 O171 2.021 . S
Co152 O176 2.062 . S
C153 N155 1.316 . S
C153 N156 1.347 . S
C153 H158 0.931 . S
C154 N155 1.375 . S
C154 C157 1.350 . S
C154 H159 0.930 . S
N155 Co150 2.057 . S
N155 C153 1.316 . S
N155 C154 1.375 . S
N156 C153 1.347 . S
N156 C157 1.373 . S
C157 C154 1.350 . S
C157 N156 1.373 . S
C157 H178 0.931 . S
H158 C153 0.931 . S
H159 C154 0.930 . S
C160 O167 1.259 . S
C160 O168 1.258 . S
N161 Co152 2.057 . S
N161 C162 1.316 . S
N161 C163 1.375 . S
C162 N161 1.316 . S
C162 N164 1.347 . S
C162 H173 0.931 . S
C163 N161 1.375 . S
C163 C165 1.350 . S
C163 H172 0.930 . S
N164 C162 1.347 . S
N164 C165 1.373 . S
C165 C163 1.350 . S
C165 N164 1.373 . S
C165 H179 0.931 . S
C166 O169 1.256 . S
C166 O170 1.255 . S
O167 Co150 2.021 . S
O167 C160 1.259 . S
O168 Co152 2.117 . S
O168 C160 1.258 . S
O169 Co152 2.020 . S
O169 C166 1.256 . S
O170 Co150 2.062 . S
O170 C166 1.255 . S
O171 C151 1.259 . S
O171 Co152 2.021 . S
H172 C163 0.930 . S
H173 C162 0.931 . S
O174 Co150 2.117 . S
O174 C151 1.258 . S
O175 Co150 2.020 . S
O175 C177 1.256 . S
O176 Co152 2.062 . S
O176 C177 1.255 . S
C177 O175 1.256 . S
C177 O176 1.255 . S
H178 C157 0.931 . S
H179 C165 0.931 . S
H180 C186 0.930 . S
H181 C190 0.930 . S
H182 C195 0.929 . S
H183 C193 0.929 . S
H184 C188 0.929 1_556 S
H185 C194 0.929 1_554 S
C186 H180 0.930 . S
C186 C187 1.367 . S
C186 C194 1.378 . S
C187 C186 1.367 . S
C187 C195 1.433 . S
C188 H184 0.929 1_554 S
C188 C190 1.378 . S
C188 C192 1.350 . S
C189 C192 1.463 1_566 S
C189 C194 1.350 . S
C189 N197 1.427 1_565 S
C190 H181 0.930 . S
C190 C188 1.378 . S
C190 C191 1.367 . S
C191 C190 1.367 . S
C191 C193 1.433 . S
C192 C188 1.350 . S
C192 C189 1.463 1_544 S
C192 N196 1.427 1_545 S
C193 H183 0.929 . S
C193 C191 1.433 . S
C193 N196 1.384 1_545 S
C194 H185 0.929 1_556 S
C194 C186 1.378 . S
C194 C189 1.350 . S
C195 H182 0.929 . S
C195 C187 1.433 . S
C195 N197 1.384 1_565 S
N196 C192 1.427 1_565 S
N196 C193 1.384 1_565 S
N197 C189 1.427 1_545 S
N197 C195 1.384 1_545 S
H198 C204 0.930 . S
H199 C208 0.930 . S
H200 C213 0.929 . S
H201 C211 0.929 . S
H202 C206 0.929 . S
H203 C212 0.929 . S
C204 H198 0.930 . S
C204 C205 1.367 . S
C204 C212 1.378 . S
C205 C204 1.367 . S
C205 C213 1.433 . S
C206 H202 0.929 . S
C206 C208 1.378 . S
C206 C210 1.350 . S
C207 C210 1.463 . S
C207 C212 1.350 . S
C207 N215 1.427 . S
C208 H199 0.930 . S
C208 C206 1.378 . S
C208 C209 1.367 . S
C209 C208 1.367 . S
C209 C211 1.433 . S
C210 C206 1.350 . S
C210 C207 1.463 . S
C210 N214 1.427 . S
C211 H201 0.929 . S
C211 C209 1.433 . S
C211 N214 1.384 . S
C212 H203 0.929 . S
C212 C204 1.378 . S
C212 C207 1.350 . S
C213 H200 0.929 . S
C213 C205 1.433 . S
C213 N215 1.384 . S
N214 C210 1.427 . S
N214 C211 1.384 . S
N215 C207 1.427 . S
N215 C213 1.384 . S
H216 C222 0.930 . S
H217 C226 0.930 . S
H218 C231 0.929 . S
H219 C229 0.929 . S
H220 C224 0.929 1_655 S
H221 C230 0.929 1_455 S
C222 H216 0.930 . S
C222 C223 1.367 . S
C222 C230 1.378 . S
C223 C222 1.367 . S
C223 C231 1.433 . S
C224 H220 0.929 1_455 S
C224 C226 1.378 . S
C224 C228 1.350 . S
C225 C228 1.463 1_654 S
C225 C230 1.350 . S
C225 N233 1.427 . S
C226 H217 0.930 . S
C226 C224 1.378 . S
C226 C227 1.367 . S
C227 C226 1.367 . S
C227 C229 1.433 . S
C228 C224 1.350 . S
C228 C225 1.463 1_456 S
C228 N232 1.427 . S
C229 H219 0.929 . S
C229 C227 1.433 . S
C229 N232 1.384 . S
C230 H221 0.929 1_655 S
C230 C222 1.378 . S
C230 C225 1.350 . S
C231 H218 0.929 . S
C231 C223 1.433 . S
C231 N233 1.384 . S
N232 C228 1.427 . S
N232 C229 1.384 . S
N233 C225 1.427 . S
N233 C231 1.384 . S
H234 C240 0.930 . S
H235 C244 0.930 . S
H236 C249 0.929 . S
H237 C247 0.929 . S
H238 C242 0.929 1_545 S
H239 C248 0.929 1_565 S
C240 H234 0.930 . S
C240 C241 1.367 . S
C240 C248 1.378 . S
C241 C240 1.367 . S
C241 C249 1.433 . S
C242 H238 0.929 1_565 S
C242 C244 1.378 . S
C242 C246 1.350 . S
C243 C246 1.463 1_545 S
C243 C248 1.350 . S
C243 N251 1.427 . S
C244 H235 0.930 . S
C244 C242 1.378 . S
C244 C245 1.367 . S
C245 C244 1.367 . S
C245 C247 1.433 . S
C246 C242 1.350 . S
C246 C243 1.463 1_565 S
C246 N250 1.427 . S
C247 H237 0.929 . S
C247 C245 1.433 . S
C247 N250 1.384 . S
C248 H239 0.929 1_545 S
C248 C240 1.378 . S
C248 C243 1.350 . S
C249 H236 0.929 . S
C249 C241 1.433 . S
C249 N251 1.384 . S
N250 C246 1.427 . S
N250 C247 1.384 . S
N251 C243 1.427 . S
N251 C249 1.384 . S
H252 C258 0.930 . S
H253 C262 0.930 . S
H254 C267 0.929 . S
H255 C265 0.929 . S
H256 C260 0.929 . S
H257 C266 0.929 . S
C258 H252 0.930 . S
C258 C259 1.367 . S
C258 C266 1.378 . S
C259 C258 1.367 . S
C259 C267 1.433 . S
C260 H256 0.929 . S
C260 C262 1.378 . S
C260 C264 1.350 . S
C261 C264 1.463 1_556 S
C261 C266 1.350 . S
C261 N269 1.427 . S
C262 H253 0.930 . S
C262 C260 1.378 . S
C262 C263 1.367 . S
C263 C262 1.367 . S
C263 C265 1.433 . S
C264 C260 1.350 . S
C264 C261 1.463 1_554 S
C264 N268 1.427 . S
C265 H255 0.929 . S
C265 C263 1.433 . S
C265 N268 1.384 . S
C266 H257 0.929 . S
C266 C258 1.378 . S
C266 C261 1.350 . S
C267 H254 0.929 . S
C267 C259 1.433 . S
C267 N269 1.384 . S
N268 C264 1.427 . S
N268 C265 1.384 . S
N269 C261 1.427 . S
N269 C267 1.384 . S
H270 C276 0.930 . S
H271 C280 0.930 . S
H272 C285 0.929 . S
H273 C283 0.929 . S
H274 C278 0.929 1_655 S
H275 C284 0.929 . S
C276 H270 0.930 . S
C276 C277 1.367 . S
C276 C284 1.378 1_655 S
C277 C276 1.367 . S
C277 C285 1.433 . S
C278 H274 0.929 1_455 S
C278 C280 1.378 . S
C278 C282 1.350 . S
C279 C282 1.463 1_655 S
C279 C284 1.350 1_655 S
C279 N287 1.427 . S
C280 H271 0.930 . S
C280 C278 1.378 . S
C280 C281 1.367 . S
C281 C280 1.367 . S
C281 C283 1.433 . S
C282 C278 1.350 . S
C282 C279 1.463 1_455 S
C282 N286 1.427 . S
C283 H273 0.929 . S
C283 C281 1.433 . S
C283 N286 1.384 . S
C284 H275 0.929 . S
C284 C276 1.378 1_455 S
C284 C279 1.350 1_455 S
C285 H272 0.929 . S
C285 C277 1.433 . S
C285 N287 1.384 . S
N286 C282 1.427 . S
N286 C283 1.384 . S
N287 C279 1.427 . S
N287 C285 1.384 . S
H288 C294 0.930 . S
H289 C298 0.930 . S
H290 C303 0.929 . S
H291 C301 0.929 . S
H292 C296 0.929 . S
H293 C302 0.929 . S
C294 H288 0.930 . S
C294 C295 1.367 . S
C294 C302 1.378 . S
C295 C294 1.367 . S
C295 C303 1.433 . S
C296 H292 0.929 . S
C296 C298 1.378 . S
C296 C300 1.350 . S
C297 C300 1.463 . S
C297 C302 1.350 . S
C297 N305 1.427 . S
C298 H289 0.930 . S
C298 C296 1.378 . S
C298 C299 1.367 . S
C299 C298 1.367 . S
C299 C301 1.433 . S
C300 C296 1.350 . S
C300 C297 1.463 . S
C300 N304 1.427 . S
C301 H291 0.929 . S
C301 C299 1.433 . S
C301 N304 1.384 . S
C302 H293 0.929 . S
C302 C294 1.378 . S
C302 C297 1.350 . S
C303 H290 0.929 . S
C303 C295 1.433 . S
C303 N305 1.384 . S
N304 C300 1.427 . S
N304 C301 1.384 . S
N305 C297 1.427 . S
N305 C303 1.384 . S
H306 C312 0.930 . S
H307 C316 0.930 . S
H308 C321 0.929 . S
H309 C319 0.929 . S
H310 C314 0.929 . S
H311 C320 0.929 . S
C312 H306 0.930 . S
C312 C313 1.367 . S
C312 C320 1.378 . S
C313 C312 1.367 . S
C313 C321 1.433 . S
C314 H310 0.929 . S
C314 C316 1.378 . S
C314 C318 1.350 . S
C315 C318 1.463 . S
C315 C320 1.350 . S
C315 N323 1.427 . S
C316 H307 0.930 . S
C316 C314 1.378 . S
C316 C317 1.367 . S
C317 C316 1.367 . S
C317 C319 1.433 . S
C318 C314 1.350 . S
C318 C315 1.463 . S
C318 N322 1.427 . S
C319 H309 0.929 . S
C319 C317 1.433 . S
C319 N322 1.384 . S
C320 H311 0.929 . S
C320 C312 1.378 . S
C320 C315 1.350 . S
C321 H308 0.929 . S
C321 C313 1.433 . S
C321 N323 1.384 . S
N322 C318 1.427 . S
N322 C319 1.384 . S
N323 C315 1.427 . S
N323 C321 1.384 . S
H324 C330 0.930 . S
H325 C334 0.930 . S
H326 C339 0.929 . S
H327 C337 0.929 . S
H328 C332 0.929 . S
H329 C338 0.929 . S
C330 H324 0.930 . S
C330 C331 1.367 . S
C330 C338 1.378 . S
C331 C330 1.367 . S
C331 C339 1.433 . S
C332 H328 0.929 . S
C332 C334 1.378 . S
C332 C336 1.350 . S
C333 C336 1.463 . S
C333 C338 1.350 . S
C333 N341 1.427 . S
C334 H325 0.930 . S
C334 C332 1.378 . S
C334 C335 1.367 . S
C335 C334 1.367 . S
C335 C337 1.433 . S
C336 C332 1.350 . S
C336 C333 1.463 . S
C336 N340 1.427 . S
C337 H327 0.929 . S
C337 C335 1.433 . S
C337 N340 1.384 . S
C338 H329 0.929 . S
C338 C330 1.378 . S
C338 C333 1.350 . S
C339 H326 0.929 . S
C339 C331 1.433 . S
C339 N341 1.384 . S
N340 C336 1.427 . S
N340 C337 1.384 . S
N341 C333 1.427 . S
N341 C339 1.384 . S
H342 C348 0.930 . S
H343 C352 0.930 . S
H344 C357 0.929 . S
H345 C355 0.929 . S
H346 C350 0.929 . S
H347 C356 0.929 . S
C348 H342 0.930 . S
C348 C349 1.367 . S
C348 C356 1.378 . S
C349 C348 1.367 . S
C349 C357 1.433 . S
C350 H346 0.929 . S
C350 C352 1.378 . S
C350 C354 1.350 . S
C351 C354 1.463 . S
C351 C356 1.350 . S
C351 N359 1.427 . S
C352 H343 0.930 . S
C352 C350 1.378 . S
C352 C353 1.367 . S
C353 C352 1.367 . S
C353 C355 1.433 . S
C354 C350 1.350 . S
C354 C351 1.463 . S
C354 N358 1.427 . S
C355 H345 0.929 . S
C355 C353 1.433 . S
C355 N358 1.384 . S
C356 H347 0.929 . S
C356 C348 1.378 . S
C356 C351 1.350 . S
C357 H344 0.929 . S
C357 C349 1.433 . S
C357 N359 1.384 . S
N358 C354 1.427 . S
N358 C355 1.384 . S
N359 C351 1.427 . S
N359 C357 1.384 . S
H360 C366 0.930 . S
H361 C370 0.930 . S
H362 C375 0.929 . S
H363 C373 0.929 . S
H364 C368 0.929 . S
H365 C374 0.929 . S
C366 H360 0.930 . S
C366 C367 1.367 . S
C366 C374 1.378 . S
C367 C366 1.367 . S
C367 C375 1.433 . S
C368 H364 0.929 . S
C368 C370 1.378 . S
C368 C372 1.350 . S
C369 C372 1.463 . S
C369 C374 1.350 . S
C369 N377 1.427 . S
C370 H361 0.930 . S
C370 C368 1.378 . S
C370 C371 1.367 . S
C371 C370 1.367 . S
C371 C373 1.433 . S
C372 C368 1.350 . S
C372 C369 1.463 . S
C372 N376 1.427 . S
C373 H363 0.929 . S
C373 C371 1.433 . S
C373 N376 1.384 . S
C374 H365 0.929 . S
C374 C366 1.378 . S
C374 C369 1.350 . S
C375 H362 0.929 . S
C375 C367 1.433 . S
C375 N377 1.384 . S
N376 C372 1.427 . S
N376 C373 1.384 . S
N377 C369 1.427 . S
N377 C375 1.384 . S
H378 C384 0.930 . S
H379 C388 0.930 . S
H380 C393 0.929 . S
H381 C391 0.929 . S
H382 C386 0.929 . S
H383 C392 0.929 . S
C384 H378 0.930 . S
C384 C385 1.367 . S
C384 C392 1.378 . S
C385 C384 1.367 . S
C385 C393 1.433 . S
C386 H382 0.929 . S
C386 C388 1.378 . S
C386 C390 1.350 . S
C387 C390 1.463 . S
C387 C392 1.350 . S
C387 N395 1.427 . S
C388 H379 0.930 . S
C388 C386 1.378 . S
C388 C389 1.367 . S
C389 C388 1.367 . S
C389 C391 1.433 . S
C390 C386 1.350 . S
C390 C387 1.463 . S
C390 N394 1.427 . S
C391 H381 0.929 . S
C391 C389 1.433 . S
C391 N394 1.384 . S
C392 H383 0.929 . S
C392 C384 1.378 . S
C392 C387 1.350 . S
C393 H380 0.929 . S
C393 C385 1.433 . S
C393 N395 1.384 . S
N394 C390 1.427 . S
N394 C391 1.384 . S
N395 C387 1.427 . S
N395 C393 1.384 . S
H396 C402 0.930 . S
H397 C406 0.930 . S
H398 C411 0.929 . S
H399 C409 0.929 . S
H400 C404 0.929 . S
H401 C410 0.929 . S
C402 H396 0.930 . S
C402 C403 1.367 . S
C402 C410 1.378 . S
C403 C402 1.367 . S
C403 C411 1.433 . S
C404 H400 0.929 . S
C404 C406 1.378 . S
C404 C408 1.350 . S
C405 C408 1.463 . S
C405 C410 1.350 . S
C405 N413 1.427 . S
C406 H397 0.930 . S
C406 C404 1.378 . S
C406 C407 1.367 . S
C407 C406 1.367 . S
C407 C409 1.433 . S
C408 C404 1.350 . S
C408 C405 1.463 . S
C408 N412 1.427 . S
C409 H399 0.929 . S
C409 C407 1.433 . S
C409 N412 1.384 . S
C410 H401 0.929 . S
C410 C402 1.378 . S
C410 C405 1.350 . S
C411 H398 0.929 . S
C411 C403 1.433 . S
C411 N413 1.384 . S
N412 C408 1.427 . S
N412 C409 1.384 . S
N413 C405 1.427 . S
N413 C411 1.384 . S
H414 C420 0.930 . S
H415 C424 0.930 . S
H416 C429 0.929 . S
H417 C427 0.929 . S
H418 C422 0.929 . S
H419 C428 0.929 . S
C420 H414 0.930 . S
C420 C421 1.367 . S
C420 C428 1.378 . S
C421 C420 1.367 . S
C421 C429 1.433 . S
C422 H418 0.929 . S
C422 C424 1.378 . S
C422 C426 1.350 . S
C423 C426 1.463 1_655 S
C423 C428 1.350 . S
C423 N431 1.427 . S
C424 H415 0.930 . S
C424 C422 1.378 . S
C424 C425 1.367 . S
C425 C424 1.367 . S
C425 C427 1.433 . S
C426 C422 1.350 . S
C426 C423 1.463 1_455 S
C426 N430 1.427 . S
C427 H417 0.929 . S
C427 C425 1.433 . S
C427 N430 1.384 . S
C428 H419 0.929 . S
C428 C420 1.378 . S
C428 C423 1.350 . S
C429 H416 0.929 . S
C429 C421 1.433 . S
C429 N431 1.384 . S
N430 C426 1.427 . S
N430 C427 1.384 . S
N431 C423 1.427 . S
N431 C429 1.384 . S
H432 C438 0.930 . S
H433 C442 0.930 . S
H434 C447 0.929 . S
H435 C445 0.929 . S
H436 C440 0.929 . S
H437 C446 0.929 . S
C438 H432 0.930 . S
C438 C439 1.367 . S
C438 C446 1.378 . S
C439 C438 1.367 . S
C439 C447 1.433 . S
C440 H436 0.929 . S
C440 C442 1.378 . S
C440 C444 1.350 . S
C441 C444 1.463 1_545 S
C441 C446 1.350 . S
C441 N449 1.427 . S
C442 H433 0.930 . S
C442 C440 1.378 . S
C442 C443 1.367 . S
C443 C442 1.367 . S
C443 C445 1.433 . S
C444 C440 1.350 . S
C444 C441 1.463 1_565 S
C444 N448 1.427 . S
C445 H435 0.929 . S
C445 C443 1.433 . S
C445 N448 1.384 . S
C446 H437 0.929 . S
C446 C438 1.378 . S
C446 C441 1.350 . S
C447 H434 0.929 . S
C447 C439 1.433 . S
C447 N449 1.384 . S
N448 C444 1.427 . S
N448 C445 1.384 . S
N449 C441 1.427 . S
N449 C447 1.384 . S
H450 C456 0.930 . S
H451 C460 0.930 . S
H452 C465 0.929 . S
H453 C463 0.929 . S
H454 C458 0.929 . S
H455 C464 0.929 . S
C456 H450 0.930 . S
C456 C457 1.367 . S
C456 C464 1.378 . S
C457 C456 1.367 . S
C457 C465 1.433 . S
C458 H454 0.929 . S
C458 C460 1.378 . S
C458 C462 1.350 . S
C459 C462 1.463 . S
C459 C464 1.350 . S
C459 N467 1.427 . S
C460 H451 0.930 . S
C460 C458 1.378 . S
C460 C461 1.367 . S
C461 C460 1.367 . S
C461 C463 1.433 . S
C462 C458 1.350 . S
C462 C459 1.463 . S
C462 N466 1.427 . S
C463 H453 0.929 . S
C463 C461 1.433 . S
C463 N466 1.384 . S
C464 H455 0.929 . S
C464 C456 1.378 . S
C464 C459 1.350 . S
C465 H452 0.929 . S
C465 C457 1.433 . S
C465 N467 1.384 . S
N466 C462 1.427 . S
N466 C463 1.384 . S
N467 C459 1.427 . S
N467 C465 1.384 . S
H468 C474 0.930 . S
H469 C478 0.930 . S
H470 C483 0.929 . S
H471 C481 0.929 . S
H472 C476 0.929 . S
H473 C482 0.929 . S
C474 H468 0.930 . S
C474 C475 1.367 . S
C474 C482 1.378 . S
C475 C474 1.367 . S
C475 C483 1.433 . S
C476 H472 0.929 . S
C476 C478 1.378 . S
C476 C480 1.350 . S
C477 C480 1.463 1_455 S
C477 C482 1.350 . S
C477 N485 1.427 . S
C478 H469 0.930 . S
C478 C476 1.378 . S
C478 C479 1.367 . S
C479 C478 1.367 . S
C479 C481 1.433 . S
C480 C476 1.350 . S
C480 C477 1.463 1_655 S
C480 N484 1.427 . S
C481 H471 0.929 . S
C481 C479 1.433 . S
C481 N484 1.384 . S
C482 H473 0.929 . S
C482 C474 1.378 . S
C482 C477 1.350 . S
C483 H470 0.929 . S
C483 C475 1.433 . S
C483 N485 1.384 . S
N484 C480 1.427 . S
N484 C481 1.384 . S
N485 C477 1.427 . S
N485 C483 1.384 . S
H486 C492 0.930 . S
H487 C496 0.930 . S
H488 C501 0.929 . S
H489 C499 0.929 . S
H490 C494 0.929 . S
H491 C500 0.929 . S
C492 H486 0.930 . S
C492 C493 1.367 . S
C492 C500 1.378 . S
C493 C492 1.367 . S
C493 C501 1.433 . S
C494 H490 0.929 . S
C494 C496 1.378 . S
C494 C498 1.350 . S
C495 C498 1.463 1_545 S
C495 C500 1.350 . S
C495 N503 1.427 . S
C496 H487 0.930 . S
C496 C494 1.378 . S
C496 C497 1.367 . S
C497 C496 1.367 . S
C497 C499 1.433 . S
C498 C494 1.350 . S
C498 C495 1.463 1_565 S
C498 N502 1.427 . S
C499 H489 0.929 . S
C499 C497 1.433 . S
C499 N502 1.384 . S
C500 H491 0.929 . S
C500 C492 1.378 . S
C500 C495 1.350 . S
C501 H488 0.929 . S
C501 C493 1.433 . S
C501 N503 1.384 . S
N502 C498 1.427 . S
N502 C499 1.384 . S
N503 C495 1.427 . S
N503 C501 1.384 . S
C187 C121 2.003 . S
C191 C1 2.074 . S
C205 C160 2.137 . S
C209 C40 2.138 . S
C223 C61 2.172 . S
C227 C91 2.092 . S
C241 C10 2.129 . S
C245 C130 2.209 . S
C259 C151 2.060 . S
C263 C31 2.060 . S
C277 C70 2.022 . S
C281 C100 2.099 . S
C295 C27 1.237 . S
C299 N74 1.239 . S
C313 C46 1.239 . S
C317 N14 1.243 . S
C331 C87 1.231 . S
C335 N36 1.236 . S
C349 C106 1.246 . S
C353 N126 1.234 . S
C367 C136 1.235 . S
C371 N156 1.228 . S
C385 N96 1.245 . S
C389 C166 1.239 . S
C403 C16 0.893 . S
C407 N66 0.887 . S
C421 C57 0.883 . S
C425 N6 0.859 . S
C439 C76 0.884 . S
C443 N44 0.876 . S
C457 C117 0.880 . S
C461 N134 0.863 . S
C475 C147 0.885 . S
C479 N164 0.876 . S
C493 N104 0.888 . S
C497 C177 0.895 . S
