# Generated by pormake.
# Topology rho, (4)-cn, num edge types: 1
# Building blocks:
#     Node 0, Type 0, BuildingBlock: TATPOV_clean_sbu_0, # of connection points: 4
#     Node 1, Type 0, BuildingBlock: TATPOV_clean_sbu_0, # of connection points: 4
#     Node 2, Type 0, BuildingBlock: TATPOV_clean_sbu_0, # of connection points: 4
#     Node 3, Type 0, BuildingBlock: TATPOV_clean_sbu_0, # of connection points: 4
#     Node 4, Type 0, BuildingBlock: TATPOV_clean_sbu_0, # of connection points: 4
#     Node 5, Type 0, BuildingBlock: TATPOV_clean_sbu_0, # of connection points: 4
#     Node 6, Type 0, BuildingBlock: TATPOV_clean_sbu_0, # of connection points: 4
#     Node 7, Type 0, BuildingBlock: TATPOV_clean_sbu_0, # of connection points: 4
#     Node 8, Type 0, BuildingBlock: TATPOV_clean_sbu_0, # of connection points: 4
#     Node 9, Type 0, BuildingBlock: TATPOV_clean_sbu_0, # of connection points: 4
#     Node 10, Type 0, BuildingBlock: TATPOV_clean_sbu_0, # of connection points: 4
#     Node 11, Type 0, BuildingBlock: TATPOV_clean_sbu_0, # of connection points: 4
#     Node 12, Type 0, BuildingBlock: TATPOV_clean_sbu_0, # of connection points: 4
#     Node 13, Type 0, BuildingBlock: TATPOV_clean_sbu_0, # of connection points: 4
#     Node 14, Type 0, BuildingBlock: TATPOV_clean_sbu_0, # of connection points: 4
#     Node 15, Type 0, BuildingBlock: TATPOV_clean_sbu_0, # of connection points: 4
#     Node 16, Type 0, BuildingBlock: TATPOV_clean_sbu_0, # of connection points: 4
#     Node 17, Type 0, BuildingBlock: TATPOV_clean_sbu_0, # of connection points: 4
#     Node 18, Type 0, BuildingBlock: TATPOV_clean_sbu_0, # of connection points: 4
#     Node 19, Type 0, BuildingBlock: TATPOV_clean_sbu_0, # of connection points: 4
#     Node 20, Type 0, BuildingBlock: TATPOV_clean_sbu_0, # of connection points: 4
#     Node 21, Type 0, BuildingBlock: TATPOV_clean_sbu_0, # of connection points: 4
#     Node 22, Type 0, BuildingBlock: TATPOV_clean_sbu_0, # of connection points: 4
#     Node 23, Type 0, BuildingBlock: TATPOV_clean_sbu_0, # of connection points: 4
#     Node 24, Type 0, BuildingBlock: TATPOV_clean_sbu_0, # of connection points: 4
#     Node 25, Type 0, BuildingBlock: TATPOV_clean_sbu_0, # of connection points: 4
#     Node 26, Type 0, BuildingBlock: TATPOV_clean_sbu_0, # of connection points: 4
#     Node 27, Type 0, BuildingBlock: TATPOV_clean_sbu_0, # of connection points: 4
#     Node 28, Type 0, BuildingBlock: TATPOV_clean_sbu_0, # of connection points: 4
#     Node 29, Type 0, BuildingBlock: TATPOV_clean_sbu_0, # of connection points: 4
#     Node 30, Type 0, BuildingBlock: TATPOV_clean_sbu_0, # of connection points: 4
#     Node 31, Type 0, BuildingBlock: TATPOV_clean_sbu_0, # of connection points: 4
#     Node 32, Type 0, BuildingBlock: TATPOV_clean_sbu_0, # of connection points: 4
#     Node 33, Type 0, BuildingBlock: TATPOV_clean_sbu_0, # of connection points: 4
#     Node 34, Type 0, BuildingBlock: TATPOV_clean_sbu_0, # of connection points: 4
#     Node 35, Type 0, BuildingBlock: TATPOV_clean_sbu_0, # of connection points: 4
#     Node 36, Type 0, BuildingBlock: TATPOV_clean_sbu_0, # of connection points: 4
#     Node 37, Type 0, BuildingBlock: TATPOV_clean_sbu_0, # of connection points: 4
#     Node 38, Type 0, BuildingBlock: TATPOV_clean_sbu_0, # of connection points: 4
#     Node 39, Type 0, BuildingBlock: TATPOV_clean_sbu_0, # of connection points: 4
#     Node 40, Type 0, BuildingBlock: TATPOV_clean_sbu_0, # of connection points: 4
#     Node 41, Type 0, BuildingBlock: TATPOV_clean_sbu_0, # of connection points: 4
#     Node 42, Type 0, BuildingBlock: TATPOV_clean_sbu_0, # of connection points: 4
#     Node 43, Type 0, BuildingBlock: TATPOV_clean_sbu_0, # of connection points: 4
#     Node 44, Type 0, BuildingBlock: TATPOV_clean_sbu_0, # of connection points: 4
#     Node 45, Type 0, BuildingBlock: TATPOV_clean_sbu_0, # of connection points: 4
#     Node 46, Type 0, BuildingBlock: TATPOV_clean_sbu_0, # of connection points: 4
#     Node 47, Type 0, BuildingBlock: TATPOV_clean_sbu_0, # of connection points: 4
#     Edge 48, Type (0, 0), BuildingBlock: KIFKEQ_clean_linker_1, # of connection points: 2
#     Edge 49, Type (0, 0), BuildingBlock: KIFKEQ_clean_linker_1, # of connection points: 2
#     Edge 50, Type (0, 0), BuildingBlock: KIFKEQ_clean_linker_1, # of connection points: 2
#     Edge 51, Type (0, 0), BuildingBlock: KIFKEQ_clean_linker_1, # of connection points: 2
#     Edge 52, Type (0, 0), BuildingBlock: KIFKEQ_clean_linker_1, # of connection points: 2
#     Edge 53, Type (0, 0), BuildingBlock: KIFKEQ_clean_linker_1, # of connection points: 2
#     Edge 54, Type (0, 0), BuildingBlock: KIFKEQ_clean_linker_1, # of connection points: 2
#     Edge 55, Type (0, 0), BuildingBlock: KIFKEQ_clean_linker_1, # of connection points: 2
#     Edge 56, Type (0, 0), BuildingBlock: KIFKEQ_clean_linker_1, # of connection points: 2
#     Edge 57, Type (0, 0), BuildingBlock: KIFKEQ_clean_linker_1, # of connection points: 2
#     Edge 58, Type (0, 0), BuildingBlock: KIFKEQ_clean_linker_1, # of connection points: 2
#     Edge 59, Type (0, 0), BuildingBlock: KIFKEQ_clean_linker_1, # of connection points: 2
#     Edge 60, Type (0, 0), BuildingBlock: KIFKEQ_clean_linker_1, # of connection points: 2
#     Edge 61, Type (0, 0), BuildingBlock: KIFKEQ_clean_linker_1, # of connection points: 2
#     Edge 62, Type (0, 0), BuildingBlock: KIFKEQ_clean_linker_1, # of connection points: 2
#     Edge 63, Type (0, 0), BuildingBlock: KIFKEQ_clean_linker_1, # of connection points: 2
#     Edge 64, Type (0, 0), BuildingBlock: KIFKEQ_clean_linker_1, # of connection points: 2
#     Edge 65, Type (0, 0), BuildingBlock: KIFKEQ_clean_linker_1, # of connection points: 2
#     Edge 66, Type (0, 0), BuildingBlock: KIFKEQ_clean_linker_1, # of connection points: 2
#     Edge 67, Type (0, 0), BuildingBlock: KIFKEQ_clean_linker_1, # of connection points: 2
#     Edge 68, Type (0, 0), BuildingBlock: KIFKEQ_clean_linker_1, # of connection points: 2
#     Edge 69, Type (0, 0), BuildingBlock: KIFKEQ_clean_linker_1, # of connection points: 2
#     Edge 70, Type (0, 0), BuildingBlock: KIFKEQ_clean_linker_1, # of connection points: 2
#     Edge 71, Type (0, 0), BuildingBlock: KIFKEQ_clean_linker_1, # of connection points: 2
#     Edge 72, Type (0, 0), BuildingBlock: KIFKEQ_clean_linker_1, # of connection points: 2
#     Edge 73, Type (0, 0), BuildingBlock: KIFKEQ_clean_linker_1, # of connection points: 2
#     Edge 74, Type (0, 0), BuildingBlock: KIFKEQ_clean_linker_1, # of connection points: 2
#     Edge 75, Type (0, 0), BuildingBlock: KIFKEQ_clean_linker_1, # of connection points: 2
#     Edge 76, Type (0, 0), BuildingBlock: KIFKEQ_clean_linker_1, # of connection points: 2
#     Edge 77, Type (0, 0), BuildingBlock: KIFKEQ_clean_linker_1, # of connection points: 2
#     Edge 78, Type (0, 0), BuildingBlock: KIFKEQ_clean_linker_1, # of connection points: 2
#     Edge 79, Type (0, 0), BuildingBlock: KIFKEQ_clean_linker_1, # of connection points: 2
#     Edge 80, Type (0, 0), BuildingBlock: KIFKEQ_clean_linker_1, # of connection points: 2
#     Edge 81, Type (0, 0), BuildingBlock: KIFKEQ_clean_linker_1, # of connection points: 2
#     Edge 82, Type (0, 0), BuildingBlock: KIFKEQ_clean_linker_1, # of connection points: 2
#     Edge 83, Type (0, 0), BuildingBlock: KIFKEQ_clean_linker_1, # of connection points: 2
#     Edge 84, Type (0, 0), BuildingBlock: KIFKEQ_clean_linker_1, # of connection points: 2
#     Edge 85, Type (0, 0), BuildingBlock: KIFKEQ_clean_linker_1, # of connection points: 2
#     Edge 86, Type (0, 0), BuildingBlock: KIFKEQ_clean_linker_1, # of connection points: 2
#     Edge 87, Type (0, 0), BuildingBlock: KIFKEQ_clean_linker_1, # of connection points: 2
#     Edge 88, Type (0, 0), BuildingBlock: KIFKEQ_clean_linker_1, # of connection points: 2
#     Edge 89, Type (0, 0), BuildingBlock: KIFKEQ_clean_linker_1, # of connection points: 2
#     Edge 90, Type (0, 0), BuildingBlock: KIFKEQ_clean_linker_1, # of connection points: 2
#     Edge 91, Type (0, 0), BuildingBlock: KIFKEQ_clean_linker_1, # of connection points: 2
#     Edge 92, Type (0, 0), BuildingBlock: KIFKEQ_clean_linker_1, # of connection points: 2
#     Edge 93, Type (0, 0), BuildingBlock: KIFKEQ_clean_linker_1, # of connection points: 2
#     Edge 94, Type (0, 0), BuildingBlock: KIFKEQ_clean_linker_1, # of connection points: 2
#     Edge 95, Type (0, 0), BuildingBlock: KIFKEQ_clean_linker_1, # of connection points: 2
#     Edge 96, Type (0, 0), BuildingBlock: KIFKEQ_clean_linker_1, # of connection points: 2
#     Edge 97, Type (0, 0), BuildingBlock: KIFKEQ_clean_linker_1, # of connection points: 2
#     Edge 98, Type (0, 0), BuildingBlock: KIFKEQ_clean_linker_1, # of connection points: 2
#     Edge 99, Type (0, 0), BuildingBlock: KIFKEQ_clean_linker_1, # of connection points: 2
#     Edge 100, Type (0, 0), BuildingBlock: KIFKEQ_clean_linker_1, # of connection points: 2
#     Edge 101, Type (0, 0), BuildingBlock: KIFKEQ_clean_linker_1, # of connection points: 2
#     Edge 102, Type (0, 0), BuildingBlock: KIFKEQ_clean_linker_1, # of connection points: 2
#     Edge 103, Type (0, 0), BuildingBlock: KIFKEQ_clean_linker_1, # of connection points: 2
#     Edge 104, Type (0, 0), BuildingBlock: KIFKEQ_clean_linker_1, # of connection points: 2
#     Edge 105, Type (0, 0), BuildingBlock: KIFKEQ_clean_linker_1, # of connection points: 2
#     Edge 106, Type (0, 0), BuildingBlock: KIFKEQ_clean_linker_1, # of connection points: 2
#     Edge 107, Type (0, 0), BuildingBlock: KIFKEQ_clean_linker_1, # of connection points: 2
#     Edge 108, Type (0, 0), BuildingBlock: KIFKEQ_clean_linker_1, # of connection points: 2
#     Edge 109, Type (0, 0), BuildingBlock: KIFKEQ_clean_linker_1, # of connection points: 2
#     Edge 110, Type (0, 0), BuildingBlock: KIFKEQ_clean_linker_1, # of connection points: 2
#     Edge 111, Type (0, 0), BuildingBlock: KIFKEQ_clean_linker_1, # of connection points: 2
#     Edge 112, Type (0, 0), BuildingBlock: KIFKEQ_clean_linker_1, # of connection points: 2
#     Edge 113, Type (0, 0), BuildingBlock: KIFKEQ_clean_linker_1, # of connection points: 2
#     Edge 114, Type (0, 0), BuildingBlock: KIFKEQ_clean_linker_1, # of connection points: 2
#     Edge 115, Type (0, 0), BuildingBlock: KIFKEQ_clean_linker_1, # of connection points: 2
#     Edge 116, Type (0, 0), BuildingBlock: KIFKEQ_clean_linker_1, # of connection points: 2
#     Edge 117, Type (0, 0), BuildingBlock: KIFKEQ_clean_linker_1, # of connection points: 2
#     Edge 118, Type (0, 0), BuildingBlock: KIFKEQ_clean_linker_1, # of connection points: 2
#     Edge 119, Type (0, 0), BuildingBlock: KIFKEQ_clean_linker_1, # of connection points: 2
#     Edge 120, Type (0, 0), BuildingBlock: KIFKEQ_clean_linker_1, # of connection points: 2
#     Edge 121, Type (0, 0), BuildingBlock: KIFKEQ_clean_linker_1, # of connection points: 2
#     Edge 122, Type (0, 0), BuildingBlock: KIFKEQ_clean_linker_1, # of connection points: 2
#     Edge 123, Type (0, 0), BuildingBlock: KIFKEQ_clean_linker_1, # of connection points: 2
#     Edge 124, Type (0, 0), BuildingBlock: KIFKEQ_clean_linker_1, # of connection points: 2
#     Edge 125, Type (0, 0), BuildingBlock: KIFKEQ_clean_linker_1, # of connection points: 2
#     Edge 126, Type (0, 0), BuildingBlock: KIFKEQ_clean_linker_1, # of connection points: 2
#     Edge 127, Type (0, 0), BuildingBlock: KIFKEQ_clean_linker_1, # of connection points: 2
#     Edge 128, Type (0, 0), BuildingBlock: KIFKEQ_clean_linker_1, # of connection points: 2
#     Edge 129, Type (0, 0), BuildingBlock: KIFKEQ_clean_linker_1, # of connection points: 2
#     Edge 130, Type (0, 0), BuildingBlock: KIFKEQ_clean_linker_1, # of connection points: 2
#     Edge 131, Type (0, 0), BuildingBlock: KIFKEQ_clean_linker_1, # of connection points: 2
#     Edge 132, Type (0, 0), BuildingBlock: KIFKEQ_clean_linker_1, # of connection points: 2
#     Edge 133, Type (0, 0), BuildingBlock: KIFKEQ_clean_linker_1, # of connection points: 2
#     Edge 134, Type (0, 0), BuildingBlock: KIFKEQ_clean_linker_1, # of connection points: 2
#     Edge 135, Type (0, 0), BuildingBlock: KIFKEQ_clean_linker_1, # of connection points: 2
#     Edge 136, Type (0, 0), BuildingBlock: KIFKEQ_clean_linker_1, # of connection points: 2
#     Edge 137, Type (0, 0), BuildingBlock: KIFKEQ_clean_linker_1, # of connection points: 2
#     Edge 138, Type (0, 0), BuildingBlock: KIFKEQ_clean_linker_1, # of connection points: 2
#     Edge 139, Type (0, 0), BuildingBlock: KIFKEQ_clean_linker_1, # of connection points: 2
#     Edge 140, Type (0, 0), BuildingBlock: KIFKEQ_clean_linker_1, # of connection points: 2
#     Edge 141, Type (0, 0), BuildingBlock: KIFKEQ_clean_linker_1, # of connection points: 2
#     Edge 142, Type (0, 0), BuildingBlock: KIFKEQ_clean_linker_1, # of connection points: 2
#     Edge 143, Type (0, 0), BuildingBlock: KIFKEQ_clean_linker_1, # of connection points: 2
# Relax obj value: 0.158
# Max RMSD: 0.203
# Mean RMSD: 0.192
data_MOF--net-rho--node1-TATPOV_clean_sbu_0--edge1-KIFKEQ_clean_linker_1
_symmetry_space_group_name_H-M    P1
_symmetry_Int_Tables_number       1
_symmetry_cell_setting            triclinic
loop_
_symmetry_equiv_pos_as_xyz
'x, y, z'
_cell_length_a     73.681529
_cell_length_b     73.82205
_cell_length_c     73.769899
_cell_angle_alpha  89.783006
_cell_angle_beta   90.289268
_cell_angle_gamma 91.067572
loop_
_atom_site_label
_atom_site_type_symbol
_atom_site_fract_x
_atom_site_fract_y
_atom_site_fract_z
_atom_type_partial_charge
Zn0 Zn 0.09705 0.26385 0.39431 0.0
Zn1 Zn 0.10512 0.23028 0.38545 0.0
O2 O 0.11874 0.2464 0.36652 0.0
O3 O 0.11355 0.27421 0.3756 0.0
O4 O 0.11476 0.20548 0.38003 0.0
O5 O 0.10679 0.26122 0.41932 0.0
O6 O 0.11241 0.23283 0.41263 0.0
C7 C 0.12116 0.26346 0.36488 0.0
C8 C 0.0658 0.24174 0.38299 0.0
O9 O 0.07742 0.22926 0.3812 0.0
O10 O 0.07088 0.25736 0.38828 0.0
C11 C 0.11868 0.2002 0.36416 0.0
O12 O 0.11455 0.21048 0.35021 0.0
C13 C 0.11262 0.24588 0.42391 0.0
Zn14 Zn 0.77559 0.08079 0.39091 0.0
Zn15 Zn 0.74573 0.08906 0.37246 0.0
O16 O 0.7652 0.10763 0.36307 0.0
O17 O 0.79022 0.09865 0.37654 0.0
O18 O 0.72397 0.09428 0.35656 0.0
O19 O 0.77437 0.0548 0.38282 0.0
O20 O 0.74992 0.06187 0.36725 0.0
C21 C 0.7823 0.10918 0.36563 0.0
C22 C 0.74617 0.09306 0.41358 0.0
O23 O 0.73721 0.0933 0.39875 0.0
O24 O 0.76277 0.08884 0.41366 0.0
C25 C 0.71376 0.10785 0.3584 0.0
O26 O 0.71707 0.11938 0.37159 0.0
C27 C 0.76152 0.05021 0.37226 0.0
Zn28 Zn 0.8871 0.69943 0.38597 0.0
Zn29 Zn 0.87552 0.73174 0.37559 0.0
O30 O 0.86582 0.71403 0.35566 0.0
O31 O 0.87383 0.6872 0.36579 0.0
O32 O 0.86328 0.75551 0.3703 0.0
O33 O 0.87511 0.70064 0.41007 0.0
O34 O 0.86682 0.72801 0.40204 0.0
C35 C 0.86597 0.69682 0.35403 0.0
C36 C 0.91608 0.72552 0.37692 0.0
O37 O 0.90313 0.73637 0.37378 0.0
O38 O 0.91262 0.70945 0.38215 0.0
C39 C 0.85683 0.76092 0.35524 0.0
O40 O 0.85921 0.75116 0.34062 0.0
C41 C 0.86726 0.71525 0.41368 0.0
Zn42 Zn 0.21717 0.90158 0.40778 0.0
Zn43 Zn 0.24372 0.88838 0.38866 0.0
O44 O 0.22099 0.87302 0.38075 0.0
O45 O 0.19905 0.88434 0.39705 0.0
O46 O 0.26299 0.8802 0.37096 0.0
O47 O 0.21959 0.92638 0.39766 0.0
O48 O 0.24349 0.91624 0.38345 0.0
C49 C 0.20432 0.87315 0.38535 0.0
C50 C 0.24568 0.88639 0.42981 0.0
O51 O 0.25261 0.88186 0.4147 0.0
O52 O 0.23108 0.89513 0.43026 0.0
C53 C 0.25843 0.88153 0.35434 0.0
O54 O 0.2422 0.88754 0.35038 0.0
C55 C 0.2331 0.92927 0.38752 0.0
Zn56 Zn 0.06513 0.7641 0.57646 0.0
Zn57 Zn 0.07633 0.73635 0.59574 0.0
O58 O 0.09365 0.75729 0.60446 0.0
O59 O 0.08388 0.78014 0.58806 0.0
O60 O 0.08299 0.71492 0.61188 0.0
O61 O 0.04011 0.76346 0.58616 0.0
O62 O 0.04863 0.73936 0.60134 0.0
C63 C 0.09466 0.77398 0.59987 0.0
C64 C 0.07813 0.73546 0.55417 0.0
O65 O 0.08197 0.72806 0.56936 0.0
O66 O 0.07047 0.75063 0.55361 0.0
C67 C 0.07214 0.70134 0.61312 0.0
O68 O 0.0572 0.70119 0.60331 0.0
C69 C 0.03634 0.75056 0.59686 0.0
Zn70 Zn 0.26957 0.08483 0.58296 0.0
Zn71 Zn 0.23818 0.09847 0.59001 0.0
O72 O 0.25577 0.11013 0.60919 0.0
O73 O 0.28255 0.10068 0.60056 0.0
O74 O 0.21463 0.11132 0.59543 0.0
O75 O 0.26904 0.09241 0.55722 0.0
O76 O 0.24313 0.10551 0.56287 0.0
C77 C 0.273 0.11014 0.61091 0.0
C78 C 0.24394 0.05752 0.59431 0.0
O79 O 0.23305 0.07081 0.59438 0.0
O80 O 0.26046 0.06021 0.59035 0.0
C81 C 0.2022 0.11329 0.58358 0.0
O82 O 0.20404 0.10574 0.56762 0.0
C83 C 0.25591 0.10186 0.5519 0.0
Zn84 Zn 0.89757 0.19109 0.57142 0.0
Zn85 Zn 0.88521 0.21993 0.58907 0.0
O86 O 0.86717 0.19942 0.59622 0.0
O87 O 0.87827 0.17532 0.58306 0.0
O88 O 0.87759 0.24032 0.60537 0.0
O89 O 0.92221 0.19294 0.58272 0.0
O90 O 0.91245 0.21737 0.59625 0.0
C91 C 0.8665 0.18248 0.59304 0.0
C92 C 0.88597 0.22096 0.54802 0.0
O93 O 0.88162 0.22878 0.56271 0.0
O94 O 0.8929 0.20537 0.54831 0.0
C95 C 0.86153 0.24627 0.60638 0.0
O96 O 0.84887 0.23961 0.59556 0.0
C97 C 0.92519 0.20636 0.59296 0.0
Zn98 Zn 0.68577 0.87409 0.57762 0.0
Zn99 Zn 0.71842 0.86359 0.58723 0.0
O100 O 0.70071 0.85345 0.60687 0.0
O101 O 0.67338 0.85919 0.59652 0.0
O102 O 0.74248 0.85243 0.59371 0.0
O103 O 0.68826 0.86497 0.55227 0.0
O104 O 0.71561 0.85647 0.56019 0.0
C105 C 0.68348 0.85251 0.60862 0.0
C106 C 0.71032 0.90338 0.58898 0.0
O107 O 0.72207 0.89097 0.59014 0.0
O108 O 0.69411 0.89958 0.58435 0.0
C109 C 0.75581 0.85423 0.58291 0.0
O110 O 0.75393 0.8643 0.56833 0.0
C111 C 0.70322 0.85794 0.5482 0.0
Zn112 Zn 0.38907 0.08136 0.18591 0.0
Zn113 Zn 0.37331 0.08736 0.21749 0.0
O114 O 0.36151 0.10569 0.20012 0.0
O115 O 0.37308 0.0994 0.17351 0.0
O116 O 0.35983 0.09252 0.24039 0.0
O117 O 0.38122 0.0552 0.18708 0.0
O118 O 0.36752 0.06014 0.21297 0.0
C119 C 0.36245 0.10854 0.18312 0.0
C120 C 0.41437 0.09311 0.21371 0.0
O121 O 0.40023 0.09282 0.22362 0.0
O122 O 0.41308 0.08918 0.19703 0.0
C123 C 0.36062 0.10812 0.24763 0.0
O124 O 0.37128 0.12071 0.24057 0.0
C125 C 0.37186 0.04937 0.20029 0.0
Zn126 Zn 0.90128 0.40034 0.20056 0.0
Zn127 Zn 0.88849 0.38451 0.2305 0.0
O128 O 0.86941 0.37703 0.21093 0.0
O129 O 0.88004 0.39025 0.18628 0.0
O130 O 0.88157 0.37035 0.25321 0.0
O131 O 0.92513 0.38784 0.20148 0.0
O132 O 0.9153 0.37673 0.22739 0.0
C133 C 0.86792 0.38069 0.19406 0.0
C134 C 0.89156 0.42555 0.22892 0.0
O135 O 0.88592 0.41143 0.23734 0.0
O136 O 0.89907 0.42427 0.21358 0.0
C137 C 0.8764 0.35384 0.25216 0.0
O138 O 0.87449 0.34642 0.23609 0.0
C139 C 0.92792 0.37866 0.2157 0.0
Zn140 Zn 0.56754 0.88692 0.27802 0.0
Zn141 Zn 0.57882 0.87886 0.24485 0.0
O142 O 0.59642 0.86637 0.26251 0.0
O143 O 0.58499 0.86967 0.28974 0.0
O144 O 0.58568 0.86696 0.2215 0.0
O145 O 0.54172 0.87893 0.27313 0.0
O146 O 0.55127 0.87315 0.2456 0.0
C147 C 0.59693 0.86322 0.27948 0.0
C148 C 0.58197 0.91765 0.25552 0.0
O149 O 0.58391 0.90613 0.24288 0.0
O150 O 0.57593 0.91259 0.27087 0.0
C151 C 0.60189 0.86459 0.21633 0.0
O152 O 0.61541 0.87213 0.2254 0.0
C153 C 0.53845 0.87371 0.25712 0.0
Zn154 Zn 0.08668 0.5814 0.28037 0.0
Zn155 Zn 0.10113 0.59143 0.2489 0.0
O156 O 0.11047 0.61114 0.26725 0.0
O157 O 0.09988 0.60124 0.29344 0.0
O158 O 0.11337 0.59747 0.22497 0.0
O159 O 0.09769 0.55693 0.27941 0.0
O160 O 0.10858 0.56455 0.25265 0.0
C161 C 0.10896 0.6128 0.28442 0.0
C162 C 0.06 0.59133 0.25322 0.0
O163 O 0.07394 0.59402 0.24334 0.0
O164 O 0.06185 0.58591 0.26943 0.0
C165 C 0.12995 0.60249 0.22418 0.0
O166 O 0.13917 0.60464 0.23933 0.0
C167 C 0.10645 0.55293 0.26535 0.0
Zn168 Zn 0.396 0.88862 0.6957 0.0
Zn169 Zn 0.38607 0.87749 0.7281 0.0
O170 O 0.36654 0.86697 0.71017 0.0
O171 O 0.37809 0.87218 0.68316 0.0
O172 O 0.38167 0.86445 0.75205 0.0
O173 O 0.42219 0.88205 0.69841 0.0
O174 O 0.41326 0.87159 0.72486 0.0
C175 C 0.3656 0.86548 0.69294 0.0
C176 C 0.38284 0.91707 0.71988 0.0
O177 O 0.38232 0.90484 0.73214 0.0
O178 O 0.38746 0.91323 0.70383 0.0
C179 C 0.36695 0.85741 0.75795 0.0
O180 O 0.35189 0.85938 0.7486 0.0
C181 C 0.42581 0.87428 0.71326 0.0
Zn182 Zn 0.06506 0.38723 0.77842 0.0
Zn183 Zn 0.07763 0.38018 0.74501 0.0
O184 O 0.09415 0.36697 0.76324 0.0
O185 O 0.08248 0.37018 0.79038 0.0
O186 O 0.08643 0.37068 0.72092 0.0
O187 O 0.03998 0.37828 0.77191 0.0
O188 O 0.05016 0.37353 0.74435 0.0
C189 C 0.09441 0.36364 0.78017 0.0
C190 C 0.07925 0.4189 0.75756 0.0
O191 O 0.08204 0.40769 0.74482 0.0
O192 O 0.07271 0.41337 0.77253 0.0
C193 C 0.10193 0.36359 0.71893 0.0
O194 O 0.1135 0.3637 0.73253 0.0
C195 C 0.03716 0.37335 0.75572 0.0
Zn196 Zn 0.59031 0.08335 0.77857 0.0
Zn197 Zn 0.60484 0.0928 0.7473 0.0
O198 O 0.61299 0.11269 0.76607 0.0
O199 O 0.60374 0.10232 0.79254 0.0
O200 O 0.61935 0.09932 0.72477 0.0
O201 O 0.60004 0.0583 0.77758 0.0
O202 O 0.61168 0.06576 0.7511 0.0
C203 C 0.61194 0.11432 0.78329 0.0
C204 C 0.56408 0.09401 0.75085 0.0
O205 O 0.57788 0.09536 0.74053 0.0
O206 O 0.56596 0.08954 0.76736 0.0
C207 C 0.61507 0.09336 0.70912 0.0
O208 O 0.6002 0.08344 0.70725 0.0
C209 C 0.60891 0.0541 0.76364 0.0
Zn210 Zn 0.88984 0.57828 0.69226 0.0
Zn211 Zn 0.87666 0.58468 0.72542 0.0
O212 O 0.86205 0.60104 0.70838 0.0
O213 O 0.87139 0.59467 0.68087 0.0
O214 O 0.86642 0.59133 0.74975 0.0
O215 O 0.88319 0.55207 0.69583 0.0
O216 O 0.87124 0.55711 0.72261 0.0
C217 C 0.86103 0.60318 0.69132 0.0
C218 C 0.91704 0.59212 0.7169 0.0
O219 O 0.90382 0.59141 0.72798 0.0
O220 O 0.91456 0.58768 0.70049 0.0
C221 C 0.86159 0.60752 0.75273 0.0
O222 O 0.8638 0.61988 0.74004 0.0
C223 C 0.87505 0.54623 0.70982 0.0
Zn224 Zn 0.1821 0.37833 0.0793 0.0
Zn225 Zn 0.21501 0.36694 0.08774 0.0
O226 O 0.19796 0.3556 0.10723 0.0
O227 O 0.17045 0.36201 0.0977 0.0
O228 O 0.23911 0.3551 0.0919 0.0
O229 O 0.18421 0.37048 0.05338 0.0
O230 O 0.21135 0.36096 0.06068 0.0
C231 C 0.18075 0.35444 0.10907 0.0
C232 C 0.20752 0.40677 0.09131 0.0
O233 O 0.21908 0.39413 0.09171 0.0
O234 O 0.19111 0.40337 0.08705 0.0
C235 C 0.24999 0.35628 0.10528 0.0
O236 O 0.24595 0.36657 0.11912 0.0
C237 C 0.19891 0.3632 0.04888 0.0
Zn238 Zn 0.28124 0.57683 0.89026 0.0
Zn239 Zn 0.24949 0.58575 0.87677 0.0
O240 O 0.26765 0.60535 0.86688 0.0
O241 O 0.29439 0.59458 0.87416 0.0
O242 O 0.22556 0.59206 0.86449 0.0
O243 O 0.27852 0.55099 0.88265 0.0
O244 O 0.2532 0.55882 0.86903 0.0
C245 C 0.28493 0.60631 0.86618 0.0
C246 C 0.25579 0.58823 0.9176 0.0
O247 O 0.24465 0.58862 0.90431 0.0
O248 O 0.27226 0.58444 0.91489 0.0
C249 C 0.22502 0.59987 0.84907 0.0
O250 O 0.24031 0.6041 0.84087 0.0
C251 C 0.26494 0.54684 0.87288 0.0
Zn252 Zn 0.3863 0.19534 0.88099 0.0
Zn253 Zn 0.37156 0.22597 0.87202 0.0
O254 O 0.36175 0.20702 0.85314 0.0
O255 O 0.37026 0.18089 0.86453 0.0
O256 O 0.35773 0.24897 0.86634 0.0
O257 O 0.37988 0.19759 0.90706 0.0
O258 O 0.36531 0.22214 0.89928 0.0
C259 C 0.36178 0.18971 0.85258 0.0
C260 C 0.41225 0.22176 0.86756 0.0
O261 O 0.39871 0.23228 0.86791 0.0
O262 O 0.41025 0.20517 0.87168 0.0
C263 C 0.35889 0.26219 0.87735 0.0
O264 O 0.36988 0.26094 0.89137 0.0
C265 C 0.37 0.21071 0.91134 0.0
Zn266 Zn 0.7118 0.40729 0.9003 0.0
Zn267 Zn 0.73794 0.39097 0.88353 0.0
O268 O 0.71502 0.37594 0.87571 0.0
O269 O 0.69371 0.3889 0.8916 0.0
O270 O 0.75806 0.38092 0.8679 0.0
O271 O 0.71428 0.4306 0.88697 0.0
O272 O 0.73901 0.41837 0.87626 0.0
C273 C 0.69847 0.37679 0.88061 0.0
C274 C 0.73876 0.39306 0.92468 0.0
O275 O 0.74505 0.38593 0.91034 0.0
O276 O 0.72538 0.40355 0.92377 0.0
C277 C 0.77305 0.38967 0.86659 0.0
O278 O 0.7756 0.40424 0.87654 0.0
C279 C 0.72868 0.43197 0.87782 0.0
Zn280 Zn 0.59954 0.7678 0.89199 0.0
Zn281 Zn 0.60886 0.73422 0.88539 0.0
O282 O 0.6227 0.75006 0.86628 0.0
O283 O 0.61773 0.77803 0.87492 0.0
O284 O 0.61932 0.70935 0.88149 0.0
O285 O 0.60646 0.76622 0.91801 0.0
O286 O 0.61471 0.73823 0.91273 0.0
C287 C 0.62551 0.76707 0.86456 0.0
C288 C 0.56962 0.74485 0.87949 0.0
O289 O 0.5813 0.7323 0.88025 0.0
O290 O 0.57422 0.76104 0.88324 0.0
C291 C 0.62532 0.70397 0.86632 0.0
O292 O 0.62319 0.7142 0.85189 0.0
C293 C 0.61302 0.7515 0.92357 0.0
Zn294 Zn 0.76356 0.57301 0.09299 0.0
Zn295 Zn 0.73356 0.59037 0.0955 0.0
O296 O 0.75124 0.60368 0.11343 0.0
O297 O 0.77746 0.5913 0.10727 0.0
O298 O 0.71081 0.6053 0.09739 0.0
O299 O 0.76352 0.57518 0.06605 0.0
O300 O 0.74039 0.5934 0.06836 0.0
C301 C 0.76839 0.60299 0.11554 0.0
C302 C 0.73558 0.55021 0.10659 0.0
O303 O 0.72594 0.56384 0.10245 0.0
O304 O 0.75266 0.55117 0.10512 0.0
C305 C 0.70593 0.61209 0.11238 0.0
O306 O 0.71511 0.60821 0.12716 0.0
C307 C 0.75237 0.5858 0.05871 0.0
Zn308 Zn 0.39388 0.68936 0.07465 0.0
Zn309 Zn 0.38263 0.71939 0.09089 0.0
O310 O 0.36554 0.69892 0.10052 0.0
O311 O 0.37641 0.67399 0.08889 0.0
O312 O 0.37549 0.74052 0.1064 0.0
O313 O 0.41954 0.69302 0.08372 0.0
O314 O 0.41006 0.71799 0.0965 0.0
C315 C 0.36502 0.68173 0.09888 0.0
C316 C 0.37964 0.71706 0.05002 0.0
O317 O 0.37793 0.72662 0.06425 0.0
O318 O 0.38555 0.70106 0.05112 0.0
C319 C 0.35945 0.74639 0.10795 0.0
O320 O 0.34631 0.73918 0.09809 0.0
C321 C 0.4228 0.70711 0.09296 0.0
Zn322 Zn 0.57316 0.26512 0.08509 0.0
Zn323 Zn 0.57976 0.23169 0.09593 0.0
O324 O 0.59952 0.24827 0.1083 0.0
O325 O 0.59062 0.27607 0.10281 0.0
O326 O 0.58327 0.20725 0.10825 0.0
O327 O 0.54675 0.26363 0.09132 0.0
O328 O 0.55238 0.236 0.10084 0.0
C329 C 0.60142 0.26534 0.11046 0.0
C330 C 0.58513 0.24075 0.05641 0.0
O331 O 0.58421 0.22842 0.06856 0.0
O332 O 0.58193 0.25709 0.06033 0.0
C333 C 0.59836 0.20201 0.11473 0.0
O334 O 0.61299 0.21214 0.11222 0.0
C335 C 0.54126 0.24883 0.09822 0.0
Zn336 Zn 0.87928 0.69467 0.57812 0.0
Zn337 Zn 0.8655 0.72536 0.58641 0.0
O338 O 0.85156 0.70664 0.6025 0.0
O339 O 0.86119 0.68057 0.59239 0.0
O340 O 0.8522 0.74825 0.59224 0.0
O341 O 0.87498 0.69787 0.55185 0.0
O342 O 0.86153 0.72331 0.55846 0.0
C343 C 0.8509 0.68937 0.60265 0.0
C344 C 0.90546 0.71837 0.5949 0.0
O345 O 0.89242 0.72955 0.59434 0.0
O346 O 0.90299 0.70235 0.58924 0.0
C347 C 0.85589 0.76378 0.58557 0.0
O348 O 0.87003 0.76577 0.57492 0.0
C349 C 0.86635 0.71164 0.54679 0.0
Zn350 Zn 0.19745 0.89336 0.57817 0.0
Zn351 Zn 0.22658 0.88583 0.59731 0.0
O352 O 0.20681 0.86755 0.60649 0.0
O353 O 0.18172 0.87744 0.59386 0.0
O354 O 0.24768 0.88065 0.61409 0.0
O355 O 0.19966 0.91999 0.58343 0.0
O356 O 0.2226 0.91343 0.60131 0.0
C357 C 0.18962 0.86666 0.60451 0.0
C358 C 0.22679 0.87895 0.55674 0.0
O359 O 0.23577 0.88021 0.57153 0.0
O360 O 0.21011 0.88282 0.55634 0.0
C361 C 0.25552 0.86545 0.61459 0.0
O362 O 0.25019 0.8526 0.60337 0.0
C363 C 0.21184 0.92506 0.59454 0.0
Zn364 Zn 0.08007 0.27412 0.58185 0.0
Zn365 Zn 0.09541 0.2451 0.59504 0.0
O366 O 0.10446 0.26586 0.61227 0.0
O367 O 0.09323 0.29012 0.59926 0.0
O368 O 0.10965 0.223 0.60259 0.0
O369 O 0.08992 0.27096 0.55707 0.0
O370 O 0.10296 0.24667 0.56795 0.0
C371 C 0.10258 0.28303 0.61173 0.0
C372 C 0.05412 0.24788 0.59581 0.0
O373 O 0.06819 0.2385 0.59899 0.0
O374 O 0.05578 0.26344 0.58867 0.0
C375 C 0.10619 0.20808 0.59459 0.0
O376 O 0.09247 0.20723 0.58315 0.0
C377 C 0.09985 0.2574 0.55476 0.0
Zn378 Zn 0.75633 0.0617 0.56455 0.0
Zn379 Zn 0.72954 0.07609 0.58216 0.0
O380 O 0.75183 0.0915 0.59113 0.0
O381 O 0.77357 0.0802 0.57452 0.0
O382 O 0.70835 0.08339 0.59799 0.0
O383 O 0.75476 0.03761 0.57647 0.0
O384 O 0.72959 0.04835 0.58778 0.0
C385 C 0.76843 0.09143 0.58624 0.0
C386 C 0.7289 0.07625 0.54094 0.0
O387 O 0.72234 0.08237 0.55563 0.0
O388 O 0.74267 0.06624 0.54131 0.0
C389 C 0.70788 0.09677 0.6088 0.0
O390 O 0.72169 0.10826 0.6094 0.0
C391 C 0.74041 0.03525 0.58551 0.0
Zn392 Zn 0.89795 0.20523 0.39078 0.0
Zn393 Zn 0.89221 0.23756 0.37744 0.0
O394 O 0.87338 0.22019 0.36481 0.0
O395 O 0.88239 0.19288 0.37219 0.0
O396 O 0.88884 0.26127 0.3637 0.0
O397 O 0.92478 0.20693 0.38706 0.0
O398 O 0.91977 0.23301 0.37362 0.0
C399 C 0.87195 0.20303 0.3633 0.0
C400 C 0.8839 0.23057 0.41705 0.0
O401 O 0.88623 0.24226 0.40444 0.0
O402 O 0.88688 0.21398 0.41417 0.0
C403 C 0.8737 0.26565 0.35671 0.0
O404 O 0.85932 0.2553 0.35973 0.0
C405 C 0.93073 0.2207 0.37857 0.0
Zn406 Zn 0.70569 0.89659 0.38517 0.0
Zn407 Zn 0.7337 0.87805 0.37781 0.0
O408 O 0.7134 0.86664 0.3612 0.0
O409 O 0.68919 0.87999 0.37168 0.0
O410 O 0.75617 0.86334 0.37266 0.0
O411 O 0.70843 0.89272 0.41174 0.0
O412 O 0.72964 0.87323 0.40539 0.0
C413 C 0.6962 0.8684 0.36143 0.0
C414 C 0.73226 0.91898 0.36927 0.0
O415 O 0.74155 0.90469 0.37139 0.0
O416 O 0.71556 0.91884 0.37308 0.0
C417 C 0.75806 0.85347 0.35871 0.0
O418 O 0.74511 0.85288 0.34642 0.0
C419 C 0.71936 0.88073 0.41692 0.0
Zn420 Zn 0.07855 0.77543 0.40231 0.0
Zn421 Zn 0.08779 0.74583 0.38508 0.0
O422 O 0.10629 0.76561 0.37653 0.0
O423 O 0.09518 0.79091 0.38713 0.0
O424 O 0.09382 0.72488 0.36876 0.0
O425 O 0.05227 0.77268 0.39529 0.0
O426 O 0.06045 0.74916 0.3793 0.0
C427 C 0.1068 0.78283 0.37773 0.0
C428 C 0.09212 0.7468 0.42588 0.0
O429 O 0.09198 0.73729 0.41147 0.0
O430 O 0.08797 0.76339 0.42522 0.0
C431 C 0.10948 0.71809 0.3673 0.0
O432 O 0.12278 0.72412 0.37769 0.0
C433 C 0.04817 0.75989 0.38458 0.0
Zn434 Zn 0.28733 0.0926 0.39342 0.0
Zn435 Zn 0.25411 0.10076 0.38067 0.0
O436 O 0.27229 0.11148 0.36198 0.0
O437 O 0.29944 0.10623 0.37317 0.0
O438 O 0.22927 0.10915 0.37257 0.0
O439 O 0.28249 0.10505 0.41701 0.0
O440 O 0.25471 0.10979 0.40721 0.0
C441 C 0.28953 0.11272 0.36079 0.0
C442 C 0.26467 0.06131 0.383 0.0
O443 O 0.25298 0.07318 0.3789 0.0
O444 O 0.27995 0.06612 0.38958 0.0
C445 C 0.22692 0.12198 0.36129 0.0
O446 O 0.24112 0.12966 0.35353 0.0
C447 C 0.26671 0.11092 0.41967 0.0
Zn448 Zn 0.58181 0.88911 0.78235 0.0
Zn449 Zn 0.59574 0.88159 0.75016 0.0
O450 O 0.60829 0.86412 0.76784 0.0
O451 O 0.59798 0.87122 0.79474 0.0
O452 O 0.60716 0.87384 0.72686 0.0
O453 O 0.59049 0.91487 0.77929 0.0
O454 O 0.60257 0.90892 0.75279 0.0
C455 C 0.60815 0.86178 0.78493 0.0
C456 C 0.55476 0.87694 0.75667 0.0
O457 O 0.56839 0.8765 0.7461 0.0
O458 O 0.55694 0.88155 0.77307 0.0
C459 C 0.62436 0.87441 0.72568 0.0
O460 O 0.63397 0.88126 0.73915 0.0
C461 C 0.5992 0.92013 0.76541 0.0
Zn462 Zn 0.07478 0.58235 0.779 0.0
Zn463 Zn 0.08574 0.59321 0.74699 0.0
O464 O 0.10505 0.60237 0.76588 0.0
O465 O 0.09308 0.59734 0.79271 0.0
O466 O 0.09224 0.60712 0.72398 0.0
O467 O 0.04899 0.59005 0.7757 0.0
O468 O 0.05854 0.59968 0.74917 0.0
C469 C 0.10601 0.60348 0.78315 0.0
C470 C 0.08734 0.55354 0.7547 0.0
O471 O 0.08873 0.56581 0.74252 0.0
O472 O 0.08239 0.55751 0.77062 0.0
C473 C 0.08359 0.60426 0.70925 0.0
O474 O 0.07166 0.59082 0.70859 0.0
C475 C 0.04575 0.5975 0.7606 0.0
Zn476 Zn 0.40474 0.0808 0.69014 0.0
Zn477 Zn 0.39324 0.09022 0.72288 0.0
O478 O 0.37634 0.10283 0.70456 0.0
O479 O 0.38688 0.09685 0.67749 0.0
O480 O 0.3858 0.10256 0.74589 0.0
O481 O 0.43036 0.08954 0.69495 0.0
O482 O 0.42088 0.09563 0.72245 0.0
C483 C 0.37543 0.10458 0.6874 0.0
C484 C 0.3902 0.0509 0.71325 0.0
O485 O 0.38772 0.06292 0.72532 0.0
O486 O 0.39684 0.05537 0.69799 0.0
C487 C 0.36937 0.10461 0.75054 0.0
O488 O 0.35633 0.09662 0.74115 0.0
C489 C 0.43368 0.09494 0.71089 0.0
Zn490 Zn 0.8792 0.38235 0.69102 0.0
Zn491 Zn 0.86578 0.37325 0.72295 0.0
O492 O 0.85594 0.3536 0.70472 0.0
O493 O 0.86448 0.36372 0.67791 0.0
O494 O 0.8523 0.36781 0.74638 0.0
O495 O 0.87033 0.4077 0.69242 0.0
O496 O 0.85968 0.40044 0.71934 0.0
C497 C 0.85619 0.35202 0.68746 0.0
C498 C 0.90638 0.37115 0.71745 0.0
O499 O 0.89297 0.36999 0.7283 0.0
O500 O 0.90392 0.3757 0.70104 0.0
C501 C 0.85824 0.37355 0.76158 0.0
O502 O 0.87407 0.38202 0.7622 0.0
C503 C 0.86224 0.41209 0.70677 0.0
Zn504 Zn 0.57139 0.07809 0.27843 0.0
Zn505 Zn 0.5817 0.09137 0.24667 0.0
O506 O 0.60063 0.10153 0.26532 0.0
O507 O 0.58914 0.09407 0.29187 0.0
O508 O 0.58626 0.10578 0.2236 0.0
O509 O 0.54515 0.08471 0.27554 0.0
O510 O 0.55444 0.09673 0.24987 0.0
C511 C 0.60143 0.10188 0.28263 0.0
C512 C 0.58544 0.05141 0.25277 0.0
O513 O 0.58612 0.06437 0.24129 0.0
O514 O 0.58033 0.05416 0.26889 0.0
C515 C 0.59947 0.10588 0.21258 0.0
O516 O 0.61316 0.09507 0.21547 0.0
C517 C 0.54173 0.09331 0.26111 0.0
Zn518 Zn 0.89997 0.58018 0.19259 0.0
Zn519 Zn 0.89146 0.59604 0.22383 0.0
O520 O 0.87419 0.60659 0.20474 0.0
O521 O 0.88325 0.59633 0.17844 0.0
O522 O 0.88534 0.61132 0.24532 0.0
O523 O 0.92655 0.58687 0.19615 0.0
O524 O 0.91888 0.60075 0.22122 0.0
C525 C 0.87271 0.60608 0.18755 0.0
C526 C 0.88532 0.55568 0.22057 0.0
O527 O 0.88579 0.56958 0.23078 0.0
O528 O 0.8898 0.55698 0.20403 0.0
C529 C 0.86908 0.61382 0.25026 0.0
O530 O 0.85577 0.60492 0.24214 0.0
C531 C 0.931 0.59605 0.21 0.0
Zn532 Zn 0.38192 0.88442 0.18869 0.0
Zn533 Zn 0.36754 0.87702 0.22089 0.0
O534 O 0.35784 0.85655 0.20348 0.0
O535 O 0.36704 0.86533 0.17641 0.0
O536 O 0.35465 0.87278 0.24496 0.0
O537 O 0.37304 0.90981 0.18882 0.0
O538 O 0.36108 0.90385 0.21552 0.0
C539 C 0.35834 0.85424 0.18632 0.0
C540 C 0.40836 0.87447 0.21615 0.0
O541 O 0.39468 0.87416 0.22668 0.0
O542 O 0.40638 0.878 0.19944 0.0
C543 C 0.3392 0.86485 0.24601 0.0
O544 O 0.33166 0.85832 0.23119 0.0
C545 C 0.36416 0.91485 0.20246 0.0
Zn546 Zn 0.08318 0.38748 0.28356 0.0
Zn547 Zn 0.09724 0.38062 0.25137 0.0
O548 O 0.10965 0.36259 0.26861 0.0
O549 O 0.09947 0.36954 0.29562 0.0
O550 O 0.10997 0.37496 0.22813 0.0
O551 O 0.09123 0.41351 0.28163 0.0
O552 O 0.10333 0.40797 0.25507 0.0
C553 C 0.1095 0.36007 0.28569 0.0
C554 C 0.05645 0.37513 0.25729 0.0
O555 O 0.07005 0.375 0.24664 0.0
O556 O 0.05864 0.37964 0.27372 0.0
C557 C 0.10977 0.35905 0.22159 0.0
O558 O 0.09992 0.34628 0.22946 0.0
C559 C 0.09985 0.41901 0.26781 0.0
Zn560 Zn 0.79093 0.58683 0.89506 0.0
Zn561 Zn 0.75956 0.60101 0.88613 0.0
O562 O 0.77836 0.6129 0.86856 0.0
O563 O 0.80468 0.60374 0.879 0.0
O564 O 0.73642 0.61458 0.88156 0.0
O565 O 0.78822 0.5925 0.92136 0.0
O566 O 0.76223 0.60466 0.91381 0.0
C567 C 0.79568 0.61298 0.86778 0.0
C568 C 0.76504 0.56119 0.87917 0.0
O569 O 0.75421 0.57445 0.87952 0.0
O570 O 0.78131 0.56319 0.88457 0.0
C571 C 0.72568 0.61349 0.86805 0.0
O572 O 0.72931 0.60239 0.85473 0.0
C573 C 0.77395 0.60057 0.92584 0.0
Zn574 Zn 0.69513 0.3881 0.07829 0.0
Zn575 Zn 0.72618 0.38019 0.09484 0.0
O576 O 0.7078 0.36093 0.10502 0.0
O577 O 0.68186 0.36951 0.09312 0.0
O578 O 0.74937 0.37474 0.10849 0.0
O579 O 0.6964 0.41385 0.08714 0.0
O580 O 0.72171 0.40706 0.10139 0.0
C581 C 0.69062 0.35901 0.10338 0.0
C582 C 0.72321 0.37728 0.05354 0.0
O583 O 0.73295 0.37693 0.06788 0.0
O584 O 0.70653 0.38102 0.05446 0.0
C585 C 0.74983 0.37617 0.12567 0.0
O586 O 0.73508 0.38101 0.13419 0.0
C587 C 0.70957 0.41851 0.09727 0.0
Zn588 Zn 0.57892 0.7726 0.08565 0.0
Zn589 Zn 0.59444 0.74219 0.09528 0.0
O590 O 0.60368 0.76136 0.11411 0.0
O591 O 0.59437 0.78717 0.10262 0.0
O592 O 0.60764 0.71911 0.10159 0.0
O593 O 0.58681 0.76989 0.05996 0.0
O594 O 0.60197 0.74592 0.06848 0.0
C595 C 0.60319 0.77864 0.11454 0.0
C596 C 0.55336 0.74553 0.09818 0.0
O597 O 0.56728 0.73551 0.09828 0.0
O598 O 0.55488 0.76218 0.0942 0.0
C599 C 0.62393 0.71959 0.10741 0.0
O600 O 0.63197 0.73538 0.11014 0.0
C601 C 0.59743 0.75718 0.05621 0.0
Zn602 Zn 0.26141 0.56776 0.0771 0.0
Zn603 Zn 0.22962 0.57937 0.08923 0.0
O604 O 0.24957 0.59571 0.10135 0.0
O605 O 0.27556 0.58344 0.09421 0.0
O606 O 0.20695 0.58605 0.10315 0.0
O607 O 0.25636 0.54203 0.08406 0.0
O608 O 0.23 0.55157 0.09372 0.0
C609 C 0.26681 0.59524 0.10269 0.0
C610 C 0.23764 0.58426 0.04954 0.0
O611 O 0.22595 0.58565 0.06214 0.0
O612 O 0.25314 0.57776 0.05276 0.0
C613 C 0.20509 0.60134 0.11078 0.0
O614 O 0.21727 0.61423 0.10786 0.0
C615 C 0.24109 0.53876 0.0912 0.0
Zn616 Zn 0.37766 0.20428 0.07695 0.0
Zn617 Zn 0.36742 0.23772 0.08312 0.0
O618 O 0.35338 0.2218 0.10202 0.0
O619 O 0.35941 0.19388 0.0939 0.0
O620 O 0.3568 0.26245 0.08714 0.0
O621 O 0.37088 0.20573 0.05084 0.0
O622 O 0.36164 0.23348 0.05578 0.0
C623 C 0.35103 0.20475 0.10388 0.0
C624 C 0.40681 0.22789 0.08982 0.0
O625 O 0.39487 0.24015 0.08869 0.0
O626 O 0.40268 0.21158 0.0861 0.0
C627 C 0.35173 0.26787 0.10263 0.0
O628 O 0.35482 0.25772 0.11695 0.0
C629 C 0.3638 0.22014 0.0451 0.0
Zn630 Zn 0.20342 0.39424 0.88463 0.0
Zn631 Zn 0.23095 0.37664 0.87742 0.0
O632 O 0.21048 0.36473 0.86134 0.0
O633 O 0.18624 0.37734 0.87255 0.0
O634 O 0.25236 0.36052 0.87217 0.0
O635 O 0.20622 0.39255 0.91116 0.0
O636 O 0.22755 0.37303 0.90545 0.0
C637 C 0.19324 0.36595 0.86209 0.0
C638 C 0.22873 0.41715 0.86748 0.0
O639 O 0.23862 0.4032 0.86958 0.0
O640 O 0.21217 0.4163 0.87182 0.0
C641 C 0.26857 0.36365 0.87745 0.0
O642 O 0.27234 0.37875 0.88619 0.0
C643 C 0.21747 0.3811 0.91679 0.0
Zn644 Zn 0.56733 0.27725 0.89672 0.0
Zn645 Zn 0.58243 0.24748 0.88312 0.0
O646 O 0.59977 0.26841 0.87527 0.0
O647 O 0.58692 0.29296 0.88565 0.0
O648 O 0.59251 0.22562 0.87024 0.0
O649 O 0.54415 0.27335 0.88306 0.0
O650 O 0.55554 0.24753 0.87408 0.0
C651 C 0.59961 0.28556 0.87707 0.0
C652 C 0.57846 0.25051 0.92388 0.0
O653 O 0.58466 0.24185 0.91041 0.0
O654 O 0.57036 0.26535 0.92148 0.0
C655 C 0.59972 0.22713 0.85463 0.0
O656 O 0.60094 0.2432 0.84698 0.0
C657 C 0.54236 0.25852 0.87468 0.0
Zn658 Zn 0.40615 0.7074 0.89645 0.0
Zn659 Zn 0.39497 0.73714 0.87979 0.0
O660 O 0.37846 0.71647 0.869 0.0
O661 O 0.38809 0.69209 0.88307 0.0
O662 O 0.38856 0.75965 0.86502 0.0
O663 O 0.43131 0.70948 0.88702 0.0
O664 O 0.42301 0.73559 0.87538 0.0
C665 C 0.3775 0.6994 0.87178 0.0
C666 C 0.39168 0.73402 0.92089 0.0
O667 O 0.38828 0.74292 0.90644 0.0
O668 O 0.39956 0.71896 0.92018 0.0
C669 C 0.37451 0.76085 0.85498 0.0
O670 O 0.36271 0.74731 0.85459 0.0
C671 C 0.43523 0.72389 0.87849 0.0
H672 H 0.12171 0.3291 0.2697 0.0
H673 H 0.12065 0.35774 0.32061 0.0
H674 H 0.13373 0.30245 0.2853 0.0
H675 H 0.13236 0.33148 0.33607 0.0
H676 H 0.11289 0.25851 0.32944 0.0
H677 H 0.11811 0.28145 0.30611 0.0
H678 H 0.15553 0.30978 0.34185 0.0
H679 H 0.14943 0.28729 0.36544 0.0
C680 C 0.1245 0.32986 0.28411 0.0
C681 C 0.11997 0.34534 0.29403 0.0
C682 C 0.13134 0.31461 0.29303 0.0
C683 C 0.13397 0.31477 0.31194 0.0
C684 C 0.13079 0.33086 0.32148 0.0
C685 C 0.12383 0.34592 0.31265 0.0
C686 C 0.12294 0.26913 0.33191 0.0
C687 C 0.13057 0.2714 0.34921 0.0
C688 C 0.12596 0.28233 0.31854 0.0
C689 C 0.13677 0.29779 0.32238 0.0
C690 C 0.14672 0.2983 0.3387 0.0
C691 C 0.14338 0.28536 0.35215 0.0
H692 H 0.68627 0.13216 0.36129 0.0
H693 H 0.70582 0.08921 0.32733 0.0
H694 H 0.65969 0.13508 0.34159 0.0
H695 H 0.67929 0.09209 0.30777 0.0
H696 H 0.6047 0.11093 0.31829 0.0
H697 H 0.63267 0.11553 0.33548 0.0
H698 H 0.6636 0.11253 0.28605 0.0
H699 H 0.6355 0.1078 0.26876 0.0
C700 C 0.68498 0.12344 0.34956 0.0
C701 C 0.6981 0.11035 0.34597 0.0
C702 C 0.66975 0.12511 0.3383 0.0
C703 C 0.66739 0.11385 0.32309 0.0
C704 C 0.68081 0.10115 0.31922 0.0
C705 C 0.69594 0.09938 0.33055 0.0
C706 C 0.61742 0.11168 0.311 0.0
C707 C 0.61787 0.10883 0.29217 0.0
C708 C 0.63347 0.11438 0.32087 0.0
C709 C 0.65037 0.11416 0.31216 0.0
C710 C 0.65078 0.11251 0.29317 0.0
C711 C 0.63467 0.10998 0.28325 0.0
H712 H 0.86759 0.70927 0.31919 0.0
H713 H 0.85002 0.66356 0.35173 0.0
H714 H 0.86471 0.69063 0.29185 0.0
H715 H 0.84691 0.64509 0.32453 0.0
H716 H 0.83784 0.61789 0.26969 0.0
H717 H 0.83199 0.64053 0.29308 0.0
H718 H 0.88556 0.66373 0.28496 0.0
H719 H 0.89151 0.64113 0.26189 0.0
C720 C 0.86242 0.69549 0.3204 0.0
C721 C 0.85918 0.68777 0.33752 0.0
C722 C 0.86092 0.6848 0.30481 0.0
C723 C 0.8558 0.66638 0.30615 0.0
C724 C 0.85081 0.65924 0.3231 0.0
C725 C 0.85263 0.6698 0.33866 0.0
C726 C 0.8483 0.6279 0.27286 0.0
C727 C 0.8652 0.62761 0.26412 0.0
C728 C 0.84492 0.64086 0.28617 0.0
C729 C 0.85825 0.65397 0.29067 0.0
C730 C 0.87492 0.65398 0.28154 0.0
C731 C 0.87841 0.64088 0.26851 0.0
H732 H 0.30698 0.84745 0.25302 0.0
H733 H 0.34811 0.88157 0.27817 0.0
H734 H 0.28847 0.84935 0.28016 0.0
H735 H 0.32936 0.88374 0.30529 0.0
H736 H 0.29483 0.87369 0.35653 0.0
H737 H 0.31545 0.86752 0.33138 0.0
H738 H 0.27104 0.87335 0.29349 0.0
H739 H 0.2506 0.87923 0.31837 0.0
C740 C 0.31215 0.85528 0.26438 0.0
C741 C 0.32896 0.86452 0.26331 0.0
C742 C 0.30148 0.85643 0.27993 0.0
C743 C 0.3073 0.8669 0.29483 0.0
C744 C 0.3245 0.87548 0.29411 0.0
C745 C 0.33521 0.8743 0.27852 0.0
C746 C 0.28949 0.87349 0.34283 0.0
C747 C 0.27106 0.87697 0.33948 0.0
C748 C 0.30131 0.87006 0.32842 0.0
C749 C 0.29489 0.86986 0.31041 0.0
C750 C 0.27642 0.87309 0.30718 0.0
C751 C 0.26469 0.87661 0.32149 0.0
H752 H 0.07061 0.60003 0.67474 0.0
H753 H 0.09945 0.63818 0.70908 0.0
H754 H 0.06981 0.62253 0.65056 0.0
H755 H 0.09805 0.66099 0.68515 0.0
H756 H 0.10252 0.6957 0.63412 0.0
H757 H 0.10745 0.67137 0.65606 0.0
H758 H 0.05409 0.64918 0.6439 0.0
H759 H 0.04949 0.67298 0.62168 0.0
C760 C 0.07686 0.61321 0.67711 0.0
C761 C 0.085 0.61731 0.6939 0.0
C762 C 0.07627 0.62621 0.66327 0.0
C763 C 0.08361 0.64376 0.6659 0.0
C764 C 0.09238 0.64762 0.68249 0.0
C765 C 0.09314 0.63453 0.69628 0.0
C766 C 0.09192 0.68553 0.63605 0.0
C767 C 0.07562 0.68631 0.62609 0.0
C768 C 0.0947 0.67162 0.64873 0.0
C769 C 0.0812 0.65819 0.65182 0.0
C770 C 0.06498 0.65898 0.64171 0.0
C771 C 0.06227 0.67277 0.629 0.0
H772 H 0.29724 0.13784 0.60808 0.0
H773 H 0.27096 0.10229 0.64669 0.0
H774 H 0.32126 0.14461 0.63004 0.0
H775 H 0.29537 0.1082 0.66843 0.0
H776 H 0.37184 0.11447 0.65204 0.0
H777 H 0.34446 0.12364 0.63662 0.0
H778 H 0.31619 0.12499 0.6878 0.0
H779 H 0.3438 0.11535 0.70332 0.0
C780 C 0.29623 0.13213 0.6216 0.0
C781 C 0.28236 0.11958 0.6258 0.0
C782 C 0.31009 0.13579 0.63411 0.0
C783 C 0.31057 0.1265 0.65078 0.0
C784 C 0.29547 0.11563 0.65575 0.0
C785 C 0.28141 0.11224 0.64332 0.0
C786 C 0.35992 0.11709 0.6601 0.0
C787 C 0.35992 0.11385 0.67885 0.0
C788 C 0.34419 0.12258 0.65126 0.0
C789 C 0.328 0.12497 0.66094 0.0
C790 C 0.32836 0.12307 0.67992 0.0
C791 C 0.3442 0.11762 0.68881 0.0
H792 H 0.83116 0.26708 0.60813 0.0
H793 H 0.88201 0.25701 0.63546 0.0
H794 H 0.8248 0.29105 0.62994 0.0
H795 H 0.87559 0.28078 0.65719 0.0
H796 H 0.85628 0.31733 0.70052 0.0
H797 H 0.85401 0.2897 0.68227 0.0
H798 H 0.8399 0.32167 0.63532 0.0
H799 H 0.84228 0.34915 0.65345 0.0
C800 C 0.84089 0.26986 0.61887 0.0
C801 C 0.85717 0.26027 0.61995 0.0
C802 C 0.83722 0.28355 0.63135 0.0
C803 C 0.84963 0.2877 0.64534 0.0
C804 C 0.86562 0.2777 0.64674 0.0
C805 C 0.8694 0.26422 0.63415 0.0
C806 C 0.85202 0.31834 0.68648 0.0
C807 C 0.84956 0.33536 0.67836 0.0
C808 C 0.85092 0.30257 0.67599 0.0
C809 C 0.84703 0.30357 0.65732 0.0
C810 C 0.84286 0.32044 0.64967 0.0
C811 C 0.84425 0.33619 0.66005 0.0
H812 H 0.70055 0.8456 0.64105 0.0
H813 H 0.6475 0.84837 0.61607 0.0
H814 H 0.68652 0.84613 0.67093 0.0
H815 H 0.63364 0.84982 0.64561 0.0
H816 H 0.61034 0.85073 0.70071 0.0
H817 H 0.62525 0.83886 0.67398 0.0
H818 H 0.67378 0.86991 0.68754 0.0
H819 H 0.65914 0.88094 0.71469 0.0
C820 C 0.68589 0.84585 0.64191 0.0
C821 C 0.67518 0.84733 0.62618 0.0
C822 C 0.67784 0.84641 0.65905 0.0
C823 C 0.65897 0.84857 0.66075 0.0
C824 C 0.64819 0.84815 0.64497 0.0
C825 C 0.65619 0.84741 0.62792 0.0
C826 C 0.62424 0.8549 0.698 0.0
C827 C 0.6335 0.86695 0.70965 0.0
C828 C 0.63281 0.8481 0.68267 0.0
C829 C 0.65074 0.85346 0.67845 0.0
C830 C 0.66011 0.86516 0.69044 0.0
C831 C 0.65164 0.87171 0.70593 0.0
H832 H 0.33162 0.08841 0.26006 0.0
H833 H 0.36339 0.13706 0.27065 0.0
H834 H 0.31288 0.09455 0.28634 0.0
H835 H 0.34458 0.14312 0.29716 0.0
H836 H 0.32465 0.1239 0.35603 0.0
H837 H 0.34076 0.12646 0.32734 0.0
H838 H 0.2904 0.11741 0.29831 0.0
H839 H 0.27419 0.1149 0.32706 0.0
C840 C 0.33456 0.10046 0.26796 0.0
C841 C 0.34908 0.11217 0.26337 0.0
C842 C 0.32368 0.10408 0.28289 0.0
C843 C 0.3272 0.11939 0.29369 0.0
C844 C 0.34158 0.13125 0.28902 0.0
C845 C 0.35233 0.12775 0.27389 0.0
C846 C 0.31693 0.12297 0.34353 0.0
C847 C 0.2982 0.11894 0.34379 0.0
C848 C 0.32615 0.12451 0.3271 0.0
C849 C 0.31686 0.12185 0.31064 0.0
C850 C 0.2979 0.11928 0.31085 0.0
C851 C 0.28862 0.11798 0.3273 0.0
H852 H 0.90042 0.29044 0.3477 0.0
H853 H 0.84481 0.27513 0.33554 0.0
H854 H 0.89967 0.31319 0.32357 0.0
H855 H 0.8441 0.29787 0.3115 0.0
H856 H 0.86078 0.32013 0.25481 0.0
H857 H 0.85904 0.30051 0.2814 0.0
H858 H 0.88516 0.3422 0.3137 0.0
H859 H 0.88694 0.36193 0.287 0.0
C860 C 0.88797 0.29207 0.34006 0.0
C861 C 0.87272 0.28085 0.3435 0.0
C862 C 0.88752 0.30517 0.32628 0.0
C863 C 0.87186 0.30724 0.31553 0.0
C864 C 0.85644 0.29645 0.31938 0.0
C865 C 0.85683 0.28347 0.33325 0.0
C866 C 0.86601 0.32521 0.2676 0.0
C867 C 0.87403 0.3426 0.26874 0.0
C868 C 0.86492 0.31399 0.28288 0.0
C869 C 0.87198 0.31979 0.29967 0.0
C870 C 0.87973 0.3373 0.30092 0.0
C871 C 0.88064 0.34863 0.28565 0.0
H872 H 0.6613 0.85916 0.3677 0.0
H873 H 0.70333 0.85482 0.3275 0.0
H874 H 0.63873 0.85007 0.34575 0.0
H875 H 0.68052 0.84482 0.30516 0.0
H876 H 0.63227 0.86764 0.26997 0.0
H877 H 0.65844 0.86085 0.28885 0.0
H878 H 0.62349 0.83122 0.32595 0.0
H879 H 0.5972 0.83943 0.30771 0.0
C880 C 0.66577 0.85567 0.3542 0.0
C881 C 0.68398 0.8581 0.34918 0.0
C882 C 0.65278 0.85019 0.34154 0.0
C883 C 0.65764 0.8469 0.32345 0.0
C884 C 0.67621 0.8476 0.31886 0.0
C885 C 0.68932 0.85315 0.33167 0.0
C886 C 0.63031 0.85925 0.28191 0.0
C887 C 0.61275 0.85443 0.28769 0.0
C888 C 0.64535 0.85522 0.29273 0.0
C889 C 0.64309 0.84595 0.30932 0.0
C890 C 0.6257 0.83901 0.31367 0.0
C891 C 0.61062 0.84357 0.30318 0.0
H892 H 0.12202 0.61455 0.31877 0.0
H893 H 0.11013 0.6478 0.27211 0.0
H894 H 0.12562 0.6416 0.33738 0.0
H895 H 0.11353 0.67504 0.29088 0.0
H896 H 0.08787 0.70877 0.33854 0.0
H897 H 0.0925 0.68483 0.31647 0.0
H898 H 0.14294 0.67129 0.34278 0.0
H899 H 0.13842 0.69544 0.3649 0.0
C900 C 0.12071 0.62771 0.31239 0.0
C901 C 0.11574 0.62911 0.29403 0.0
C902 C 0.1228 0.64321 0.32305 0.0
C903 C 0.11965 0.66041 0.31563 0.0
C904 C 0.11589 0.66191 0.29696 0.0
C905 C 0.11412 0.64636 0.28619 0.0
C906 C 0.10002 0.70078 0.33958 0.0
C907 C 0.1127 0.7039 0.35359 0.0
C908 C 0.10277 0.68721 0.32679 0.0
C909 C 0.11814 0.67626 0.32783 0.0
C910 C 0.13098 0.67954 0.34165 0.0
C911 C 0.12837 0.69333 0.35431 0.0
H912 H 0.36201 0.85226 0.65868 0.0
H913 H 0.33104 0.86485 0.70641 0.0
H914 H 0.33402 0.84915 0.64115 0.0
H915 H 0.30293 0.86176 0.68877 0.0
H916 H 0.26594 0.88667 0.64322 0.0
H917 H 0.29128 0.88219 0.66403 0.0
H918 H 0.30435 0.83261 0.63656 0.0
H919 H 0.27892 0.83705 0.61567 0.0
C920 C 0.34918 0.85385 0.66555 0.0
C921 C 0.34874 0.85894 0.68389 0.0
C922 C 0.33313 0.85203 0.6555 0.0
C923 C 0.31629 0.85546 0.66352 0.0
C924 C 0.31575 0.85926 0.68219 0.0
C925 C 0.33183 0.86085 0.69232 0.0
C926 C 0.27413 0.87474 0.64167 0.0
C927 C 0.27049 0.86229 0.62768 0.0
C928 C 0.28854 0.87208 0.65373 0.0
C929 C 0.29977 0.857 0.65199 0.0
C930 C 0.29595 0.84438 0.6382 0.0
C931 C 0.28139 0.84693 0.62625 0.0
H932 H 0.1289 0.33917 0.7138 0.0
H933 H 0.0839 0.36456 0.68657 0.0
H934 H 0.13356 0.31999 0.68731 0.0
H935 H 0.08861 0.34549 0.6602 0.0
H936 H 0.10796 0.31947 0.61036 0.0
H937 H 0.11146 0.34003 0.63587 0.0
H938 H 0.11508 0.29437 0.67236 0.0
H939 H 0.11161 0.27361 0.64668 0.0
C940 C 0.12018 0.34086 0.70207 0.0
C941 C 0.10599 0.35337 0.70228 0.0
C942 C 0.12281 0.3298 0.68698 0.0
C943 C 0.11149 0.33127 0.6717 0.0
C944 C 0.09771 0.3442 0.6717 0.0
C945 C 0.09494 0.35507 0.68684 0.0
C946 C 0.10989 0.31376 0.62377 0.0
C947 C 0.10919 0.2949 0.62656 0.0
C948 C 0.11183 0.32556 0.63837 0.0
C949 C 0.11315 0.3188 0.65611 0.0
C950 C 0.11407 0.29995 0.6588 0.0
C951 C 0.11211 0.28806 0.64411 0.0
H952 H 0.70187 0.12391 0.63321 0.0
H953 H 0.67974 0.07271 0.61438 0.0
H954 H 0.6784 0.12498 0.65637 0.0
H955 H 0.65671 0.07347 0.63782 0.0
H956 H 0.60894 0.08475 0.67354 0.0
H957 H 0.63002 0.08747 0.6483 0.0
H958 H 0.67069 0.11051 0.68428 0.0
H959 H 0.64938 0.10834 0.70935 0.0
C960 C 0.69196 0.11292 0.63395 0.0
C961 C 0.69275 0.09821 0.62194 0.0
C962 C 0.67856 0.11346 0.64734 0.0
C963 C 0.66565 0.09926 0.64911 0.0
C964 C 0.6662 0.08479 0.63677 0.0
C965 C 0.67952 0.0843 0.62334 0.0
C966 C 0.62232 0.09056 0.67603 0.0
C967 C 0.62747 0.09625 0.69351 0.0
C968 C 0.63448 0.09201 0.66156 0.0
C969 C 0.65217 0.09908 0.6642 0.0
C970 C 0.65714 0.10521 0.68161 0.0
C971 C 0.64493 0.10387 0.69606 0.0
H972 H 0.83887 0.65469 0.60019 0.0
H973 H 0.83919 0.70085 0.63592 0.0
H974 H 0.83183 0.6349 0.62519 0.0
H975 H 0.83109 0.68098 0.66131 0.0
H976 H 0.86303 0.63922 0.6969 0.0
H977 H 0.85033 0.66228 0.67731 0.0
H978 H 0.81859 0.62095 0.64936 0.0
H979 H 0.83283 0.59783 0.66809 0.0
C980 C 0.83669 0.66068 0.61338 0.0
C981 C 0.84026 0.67917 0.61627 0.0
C982 C 0.83241 0.6493 0.62784 0.0
C983 C 0.83149 0.65616 0.64559 0.0
C984 C 0.83235 0.67511 0.64796 0.0
C985 C 0.8368 0.68655 0.63339 0.0
C986 C 0.85294 0.63523 0.68687 0.0
C987 C 0.84915 0.61689 0.68358 0.0
C988 C 0.84546 0.64846 0.67567 0.0
C989 C 0.83382 0.64351 0.66121 0.0
C990 C 0.82808 0.62524 0.65982 0.0
C991 C 0.83608 0.61198 0.67059 0.0
H992 H 0.27608 0.35378 0.13195 0.0
H993 H 0.26199 0.33441 0.07839 0.0
H994 H 0.30311 0.335 0.13183 0.0
H995 H 0.28854 0.31553 0.07844 0.0
H996 H 0.34358 0.29241 0.07609 0.0
H997 H 0.32109 0.31615 0.07721 0.0
H998 H 0.31039 0.303 0.13331 0.0
H999 H 0.33324 0.27958 0.13234 0.0
C1000 C 0.27876 0.34559 0.12015 0.0
C1001 C 0.26682 0.34557 0.10521 0.0
C1002 C 0.29421 0.33478 0.1201 0.0
C1003 C 0.29806 0.32378 0.1051 0.0
C1004 C 0.28623 0.32405 0.09009 0.0
C1005 C 0.27087 0.33479 0.09014 0.0
C1006 C 0.33664 0.29477 0.08875 0.0
C1007 C 0.34006 0.28394 0.10406 0.0
C1008 C 0.32366 0.30831 0.08937 0.0
C1009 C 0.3137 0.3113 0.10527 0.0
C1010 C 0.31786 0.30115 0.12087 0.0
C1011 C 0.33092 0.28765 0.12028 0.0
H1012 H 0.34395 0.70903 0.85859 0.0
H1013 H 0.37925 0.66348 0.86554 0.0
H1014 H 0.31906 0.68823 0.84979 0.0
H1015 H 0.35477 0.64295 0.85734 0.0
H1016 H 0.31302 0.60572 0.84275 0.0
H1017 H 0.33415 0.63067 0.83626 0.0
H1018 H 0.30032 0.66688 0.86653 0.0
H1019 H 0.27863 0.64203 0.87189 0.0
C1020 C 0.3465 0.69466 0.8578 0.0
C1021 C 0.36346 0.68784 0.86297 0.0
C1022 C 0.33224 0.68274 0.85291 0.0
C1023 C 0.3348 0.66386 0.85292 0.0
C1024 C 0.35221 0.65734 0.85685 0.0
C1025 C 0.3663 0.66915 0.86178 0.0
C1026 C 0.30979 0.6192 0.84734 0.0
C1027 C 0.29438 0.622 0.85795 0.0
C1028 C 0.32195 0.63348 0.84379 0.0
C1029 C 0.31928 0.65069 0.85139 0.0
C1030 C 0.30286 0.65386 0.86044 0.0
C1031 C 0.29042 0.63961 0.86357 0.0
H1032 H 0.30486 0.36651 0.88547 0.0
H1033 H 0.2643 0.3292 0.86419 0.0
H1034 H 0.32759 0.34304 0.88351 0.0
H1035 H 0.28687 0.30558 0.86276 0.0
H1036 H 0.33437 0.26954 0.85019 0.0
H1037 H 0.31359 0.2949 0.84832 0.0
H1038 H 0.33522 0.31581 0.89879 0.0
H1039 H 0.35623 0.2909 0.90035 0.0
C1040 C 0.30078 0.35332 0.88033 0.0
C1041 C 0.2827 0.34975 0.87508 0.0
C1042 C 0.31382 0.33979 0.87931 0.0
C1043 C 0.3091 0.3223 0.87311 0.0
C1044 C 0.29111 0.31891 0.8674 0.0
C1045 C 0.2781 0.33246 0.86833 0.0
C1046 C 0.3348 0.27966 0.86078 0.0
C1047 C 0.34697 0.27813 0.87543 0.0
C1048 C 0.32279 0.29415 0.85979 0.0
C1049 C 0.32263 0.30745 0.87343 0.0
C1050 C 0.33509 0.30605 0.88787 0.0
C1051 C 0.34711 0.29164 0.88883 0.0
H1052 H 0.63581 0.27834 0.87788 0.0
H1053 H 0.59737 0.3187 0.86154 0.0
H1054 H 0.6607 0.30031 0.87366 0.0
H1055 H 0.62214 0.34031 0.85619 0.0
H1056 H 0.66205 0.37914 0.88411 0.0
H1057 H 0.63914 0.35629 0.87802 0.0
H1058 H 0.67994 0.32104 0.85649 0.0
H1059 H 0.70337 0.34415 0.86327 0.0
C1060 C 0.63279 0.29172 0.87274 0.0
C1061 C 0.61473 0.29702 0.87038 0.0
C1062 C 0.64703 0.3043 0.87024 0.0
C1063 C 0.6434 0.32225 0.86502 0.0
C1064 C 0.6254 0.3268 0.8608 0.0
C1065 C 0.6112 0.31442 0.86374 0.0
C1066 C 0.66623 0.36663 0.87789 0.0
C1067 C 0.6846 0.36342 0.87436 0.0
C1068 C 0.65298 0.35352 0.87416 0.0
C1069 C 0.65761 0.33677 0.86665 0.0
C1070 C 0.67593 0.33375 0.8624 0.0
C1071 C 0.68932 0.34701 0.86617 0.0
H1072 H 0.70018 0.61613 0.84087 0.0
H1073 H 0.71418 0.63687 0.89394 0.0
H1074 H 0.67375 0.63571 0.83996 0.0
H1075 H 0.68815 0.65652 0.89287 0.0
H1076 H 0.63293 0.6801 0.89368 0.0
H1077 H 0.65539 0.6563 0.89365 0.0
H1078 H 0.66725 0.66795 0.83746 0.0
H1079 H 0.64449 0.69149 0.83736 0.0
C1080 C 0.69762 0.62481 0.85234 0.0
C1081 C 0.70934 0.62494 0.86745 0.0
C1082 C 0.68252 0.63608 0.85179 0.0
C1083 C 0.67877 0.64764 0.86637 0.0
C1084 C 0.6904 0.64757 0.88154 0.0
C1085 C 0.70546 0.63638 0.88207 0.0
C1086 C 0.64012 0.67741 0.88123 0.0
C1087 C 0.63703 0.68786 0.86558 0.0
C1088 C 0.6531 0.66384 0.88125 0.0
C1089 C 0.66334 0.66039 0.86563 0.0
C1090 C 0.65956 0.67016 0.8497 0.0
C1091 C 0.64654 0.68373 0.84967 0.0
H1092 H 0.61456 0.68533 0.09599 0.0
H1093 H 0.65672 0.71559 0.12416 0.0
H1094 H 0.6327 0.65798 0.09824 0.0
H1095 H 0.67476 0.68833 0.12637 0.0
H1096 H 0.69606 0.63301 0.14106 0.0
H1097 H 0.67471 0.65786 0.14108 0.0
H1098 H 0.66201 0.64752 0.08482 0.0
H1099 H 0.68336 0.62259 0.08475 0.0
C1100 C 0.6276 0.68612 0.10281 0.0
C1101 C 0.63421 0.70266 0.10986 0.0
C1102 C 0.63802 0.67048 0.104 0.0
C1103 C 0.65516 0.671 0.11247 0.0
C1104 C 0.66153 0.68743 0.11993 0.0
C1105 C 0.65122 0.70309 0.11857 0.0
C1106 C 0.68857 0.63587 0.12873 0.0
C1107 C 0.69153 0.62587 0.11286 0.0
C1108 C 0.67641 0.65018 0.12874 0.0
C1109 C 0.66678 0.65474 0.11292 0.0
C1110 C 0.66915 0.64427 0.09726 0.0
C1111 C 0.68144 0.63003 0.0972 0.0
H1112 H 0.3643 0.6453 0.10353 0.0
H1113 H 0.33261 0.69296 0.11303 0.0
H1114 H 0.33873 0.62621 0.11178 0.0
H1115 H 0.30675 0.67362 0.12193 0.0
H1116 H 0.26251 0.63154 0.09919 0.0
H1117 H 0.28597 0.65453 0.10513 0.0
H1118 H 0.31802 0.61451 0.13302 0.0
H1119 H 0.29503 0.59141 0.12593 0.0
C1120 C 0.35194 0.65173 0.10782 0.0
C1121 C 0.3504 0.67064 0.10732 0.0
C1122 C 0.33725 0.64073 0.11281 0.0
C1123 C 0.32054 0.64832 0.11751 0.0
C1124 C 0.31934 0.66732 0.11819 0.0
C1125 C 0.33417 0.6784 0.1132 0.0
C1126 C 0.27428 0.62789 0.10718 0.0
C1127 C 0.27719 0.60974 0.11187 0.0
C1128 C 0.28776 0.64106 0.11063 0.0
C1129 C 0.30418 0.63626 0.11908 0.0
C1130 C 0.30582 0.61855 0.12594 0.0
C1131 C 0.29261 0.60533 0.12206 0.0
H1132 H 0.65538 0.3589 0.11312 0.0
H1133 H 0.70284 0.3255 0.11395 0.0
H1134 H 0.63672 0.33333 0.1223 0.0
H1135 H 0.68397 0.29946 0.12362 0.0
H1136 H 0.63665 0.25929 0.10242 0.0
H1137 H 0.66159 0.28086 0.10767 0.0
H1138 H 0.62748 0.31119 0.14362 0.0
H1139 H 0.60231 0.29019 0.13733 0.0
C1140 C 0.6619 0.34611 0.11572 0.0
C1141 C 0.68052 0.34414 0.11255 0.0
C1142 C 0.6512 0.3314 0.12123 0.0
C1143 C 0.65877 0.3142 0.12371 0.0
C1144 C 0.67768 0.31247 0.12171 0.0
C1145 C 0.6885 0.32737 0.11628 0.0
C1146 C 0.6348 0.27013 0.11206 0.0
C1147 C 0.6176 0.27328 0.11932 0.0
C1148 C 0.6491 0.28254 0.11509 0.0
C1149 C 0.64638 0.29812 0.12563 0.0
C1150 C 0.62986 0.29967 0.13497 0.0
C1151 C 0.61549 0.28755 0.13156 0.0
H1152 H 0.61871 0.85969 0.82008 0.0
H1153 H 0.62214 0.83153 0.76904 0.0
H1154 H 0.63214 0.83424 0.83548 0.0
H1155 H 0.63585 0.8057 0.7846 0.0
H1156 H 0.61794 0.76064 0.82922 0.0
H1157 H 0.62164 0.78357 0.80563 0.0
H1158 H 0.65746 0.81448 0.84083 0.0
H1159 H 0.65294 0.79191 0.86467 0.0
C1160 C 0.62271 0.84816 0.81209 0.0
C1161 C 0.61909 0.84747 0.79343 0.0
C1162 C 0.63068 0.8336 0.82088 0.0
C1163 C 0.63513 0.81788 0.81127 0.0
C1164 C 0.63254 0.8176 0.79237 0.0
C1165 C 0.62471 0.83237 0.78348 0.0
C1166 C 0.62742 0.77181 0.8315 0.0
C1167 C 0.63491 0.77477 0.84876 0.0
C1168 C 0.62952 0.78502 0.81798 0.0
C1169 C 0.63932 0.80117 0.82164 0.0
C1170 C 0.6494 0.80242 0.83784 0.0
C1171 C 0.64699 0.78943 0.85143 0.0
H1172 H 0.21921 0.61947 0.81811 0.0
H1173 H 0.19098 0.58868 0.85952 0.0
H1174 H 0.19053 0.62447 0.80244 0.0
H1175 H 0.1624 0.59317 0.84359 0.0
H1176 H 0.11115 0.61213 0.81879 0.0
H1177 H 0.13989 0.61435 0.83512 0.0
H1178 H 0.16876 0.60788 0.78478 0.0
H1179 H 0.14 0.60624 0.76839 0.0
C1180 C 0.20688 0.61377 0.82389 0.0
C1181 C 0.20742 0.6036 0.84004 0.0
C1182 C 0.19042 0.61658 0.81484 0.0
C1183 C 0.17408 0.60921 0.82167 0.0
C1184 C 0.17462 0.59933 0.83804 0.0
C1185 C 0.19106 0.59662 0.84714 0.0
C1186 C 0.12365 0.61161 0.81114 0.0
C1187 C 0.12326 0.60885 0.79229 0.0
C1188 C 0.14015 0.61269 0.82055 0.0
C1189 C 0.1567 0.6109 0.81137 0.0
C1190 C 0.15633 0.6094 0.79234 0.0
C1191 C 0.1398 0.60846 0.7829 0.0
H1192 H 0.39105 0.13183 0.76358 0.0
H1193 H 0.3377 0.10733 0.76968 0.0
H1194 H 0.38384 0.15423 0.78647 0.0
H1195 H 0.33063 0.12973 0.79304 0.0
H1196 H 0.34711 0.1557 0.85183 0.0
H1197 H 0.34521 0.13586 0.82544 0.0
H1198 H 0.36085 0.18071 0.79086 0.0
H1199 H 0.36245 0.20069 0.81727 0.0
C1200 C 0.3778 0.13118 0.76986 0.0
C1201 C 0.36498 0.11773 0.76492 0.0
C1202 C 0.37359 0.14417 0.78279 0.0
C1203 C 0.3566 0.14384 0.79132 0.0
C1204 C 0.34378 0.13033 0.78653 0.0
C1205 C 0.34786 0.11751 0.77326 0.0
C1206 C 0.34942 0.16147 0.83849 0.0
C1207 C 0.35502 0.17969 0.83657 0.0
C1208 C 0.34834 0.15012 0.82341 0.0
C1209 C 0.35315 0.15672 0.8062 0.0
C1210 C 0.35721 0.17529 0.80405 0.0
C1211 C 0.35795 0.18675 0.81911 0.0
H1212 H 0.86796 0.38134 0.79654 0.0
H1213 H 0.82221 0.36382 0.76378 0.0
H1214 H 0.84839 0.38273 0.82298 0.0
H1215 H 0.80247 0.36581 0.79008 0.0
H1216 H 0.77238 0.36064 0.84333 0.0
H1217 H 0.79377 0.35422 0.81909 0.0
H1218 H 0.82547 0.40181 0.83384 0.0
H1219 H 0.80452 0.40784 0.85827 0.0
C1220 C 0.85373 0.37771 0.79498 0.0
C1221 C 0.84665 0.37259 0.77799 0.0
C1222 C 0.84245 0.37862 0.81015 0.0
C1223 C 0.82374 0.37461 0.8087 0.0
C1224 C 0.81681 0.36883 0.79182 0.0
C1225 C 0.82813 0.36777 0.77667 0.0
C1226 C 0.78404 0.36959 0.84152 0.0
C1227 C 0.78669 0.38478 0.85275 0.0
C1228 C 0.79626 0.36599 0.82752 0.0
C1229 C 0.81138 0.37751 0.82439 0.0
C1230 C 0.81419 0.39244 0.83595 0.0
C1231 C 0.80206 0.39598 0.84995 0.0
H1232 H 0.57044 0.17876 0.12393 0.0
H1233 H 0.62771 0.18875 0.13306 0.0
H1234 H 0.5709 0.15414 0.14603 0.0
H1235 H 0.62807 0.16441 0.15545 0.0
H1236 H 0.62542 0.11055 0.1862 0.0
H1237 H 0.6253 0.13204 0.16089 0.0
H1238 H 0.57341 0.15165 0.17846 0.0
H1239 H 0.57334 0.13004 0.20336 0.0
C1240 C 0.58316 0.17564 0.13055 0.0
C1241 C 0.59901 0.18585 0.12678 0.0
C1242 C 0.5834 0.16159 0.14333 0.0
C1243 C 0.59948 0.15738 0.15271 0.0
C1244 C 0.61548 0.16714 0.14842 0.0
C1245 C 0.61524 0.18119 0.13561 0.0
C1246 C 0.61395 0.11938 0.18458 0.0
C1247 C 0.59941 0.11855 0.19686 0.0
C1248 C 0.61392 0.13177 0.17012 0.0
C1249 C 0.59933 0.14359 0.16757 0.0
C1250 C 0.58474 0.14258 0.17977 0.0
C1251 C 0.58477 0.13024 0.19418 0.0
H1252 H 0.8426 0.62084 0.20298 0.0
H1253 H 0.86801 0.61127 0.15131 0.0
H1254 H 0.8147 0.62941 0.18736 0.0
H1255 H 0.84031 0.61943 0.13584 0.0
H1256 H 0.79218 0.63 0.10755 0.0
H1257 H 0.8171 0.63996 0.12726 0.0
H1258 H 0.79288 0.60997 0.17171 0.0
H1259 H 0.76767 0.60083 0.15209 0.0
C1260 C 0.8424 0.621 0.18829 0.0
C1261 C 0.85738 0.61502 0.17836 0.0
C1262 C 0.82639 0.62586 0.17936 0.0
C1263 C 0.82515 0.62494 0.16036 0.0
C1264 C 0.84073 0.62052 0.15047 0.0
C1265 C 0.85664 0.61562 0.15936 0.0
C1266 C 0.79174 0.62646 0.12181 0.0
C1267 C 0.77815 0.61469 0.1284 0.0
C1268 C 0.80609 0.63196 0.13306 0.0
C1269 C 0.80729 0.6253 0.1509 0.0
C1270 C 0.79243 0.6154 0.15806 0.0
C1271 C 0.77792 0.61015 0.14685 0.0
H1272 H 0.38088 0.75757 0.13613 0.0
H1273 H 0.32944 0.7677 0.10996 0.0
H1274 H 0.37542 0.78199 0.15742 0.0
H1275 H 0.32408 0.79237 0.1313 0.0
H1276 H 0.3439 0.85084 0.15262 0.0
H1277 H 0.34034 0.82294 0.1353 0.0
H1278 H 0.35434 0.79184 0.18287 0.0
H1279 H 0.35772 0.81991 0.20033 0.0
C1280 C 0.36835 0.76495 0.13498 0.0
C1281 C 0.35567 0.76081 0.12123 0.0
C1282 C 0.36513 0.7788 0.14733 0.0
C1283 C 0.34927 0.78901 0.1461 0.0
C1284 C 0.33641 0.78469 0.13257 0.0
C1285 C 0.3395 0.77061 0.12035 0.0
C1286 C 0.34559 0.838 0.15954 0.0
C1287 C 0.35119 0.83751 0.17777 0.0
C1288 C 0.34352 0.82202 0.14963 0.0
C1289 C 0.3473 0.80524 0.15768 0.0
C1290 C 0.35151 0.80463 0.17631 0.0
C1291 C 0.35327 0.82066 0.18633 0.0
H1292 H 0.19648 0.35254 0.1426 0.0
H1293 H 0.14634 0.34131 0.11384 0.0
H1294 H 0.18039 0.34981 0.17142 0.0
H1295 H 0.13035 0.33849 0.1426 0.0
H1296 H 0.10789 0.32918 0.19967 0.0
H1297 H 0.12698 0.32265 0.17346 0.0
H1298 H 0.15709 0.37258 0.18236 0.0
H1299 H 0.13805 0.3792 0.20829 0.0
C1300 C 0.18219 0.34881 0.14244 0.0
C1301 C 0.1726 0.34737 0.12599 0.0
C1302 C 0.17296 0.34741 0.15892 0.0
C1303 C 0.15409 0.34425 0.15919 0.0
C1304 C 0.14489 0.34092 0.1428 0.0
C1305 C 0.15405 0.34258 0.12633 0.0
C1306 C 0.11866 0.33869 0.19606 0.0
C1307 C 0.12137 0.35478 0.20593 0.0
C1308 C 0.12958 0.33492 0.18112 0.0
C1309 C 0.14361 0.34701 0.17602 0.0
C1310 C 0.14658 0.36286 0.18617 0.0
C1311 C 0.13552 0.36676 0.20089 0.0
H1312 H 0.83189 0.62003 0.86491 0.0
H1313 H 0.78159 0.62257 0.83467 0.0
H1314 H 0.84892 0.62268 0.83682 0.0
H1315 H 0.79882 0.6254 0.80649 0.0
H1316 H 0.84002 0.6364 0.75955 0.0
H1317 H 0.82443 0.64337 0.78791 0.0
H1318 H 0.84815 0.59647 0.81308 0.0
H1319 H 0.86344 0.58931 0.78482 0.0
C1320 C 0.82446 0.62175 0.85233 0.0
C1321 C 0.80539 0.62067 0.85196 0.0
C1322 C 0.83424 0.62321 0.83626 0.0
C1323 C 0.82514 0.62382 0.81954 0.0
C1324 C 0.80612 0.62489 0.81926 0.0
C1325 C 0.79627 0.62332 0.83539 0.0
C1326 C 0.84201 0.62768 0.77121 0.0
C1327 C 0.85291 0.61228 0.77001 0.0
C1328 C 0.83306 0.63167 0.78736 0.0
C1329 C 0.83525 0.62056 0.80265 0.0
C1330 C 0.84646 0.60541 0.80153 0.0
C1331 C 0.8551 0.60123 0.78534 0.0
H1332 H 0.39667 0.84578 0.77672 0.0
H1333 H 0.33812 0.84166 0.77586 0.0
H1334 H 0.39764 0.82382 0.80129 0.0
H1335 H 0.33902 0.82011 0.80099 0.0
H1336 H 0.349 0.76507 0.82835 0.0
H1337 H 0.34663 0.78962 0.80648 0.0
H1338 H 0.39203 0.81739 0.83214 0.0
H1339 H 0.3948 0.7924 0.85365 0.0
C1340 C 0.38395 0.84042 0.78198 0.0
C1341 C 0.36731 0.84543 0.7742 0.0
C1342 C 0.38451 0.82785 0.79621 0.0
C1343 C 0.36842 0.82003 0.80318 0.0
C1344 C 0.35172 0.82555 0.79579 0.0
C1345 C 0.35118 0.83802 0.78144 0.0
C1346 C 0.35841 0.77647 0.82943 0.0
C1347 C 0.37218 0.77667 0.84271 0.0
C1348 C 0.35697 0.79067 0.81692 0.0
C1349 C 0.36917 0.80557 0.81741 0.0
C1350 C 0.38259 0.80602 0.83109 0.0
C1351 C 0.38412 0.79173 0.84352 0.0
H1352 H 0.15838 0.35651 0.86855 0.0
H1353 H 0.20023 0.35244 0.82813 0.0
H1354 H 0.13568 0.34794 0.84654 0.0
H1355 H 0.17732 0.34288 0.80576 0.0
H1356 H 0.12988 0.36727 0.77093 0.0
H1357 H 0.15574 0.35946 0.78974 0.0
H1358 H 0.11987 0.33026 0.82632 0.0
H1359 H 0.0939 0.33953 0.80815 0.0
C1360 C 0.16278 0.35315 0.85499 0.0
C1361 C 0.18099 0.35559 0.84992 0.0
C1362 C 0.14971 0.34797 0.84229 0.0
C1363 C 0.15449 0.34498 0.82412 0.0
C1364 C 0.17306 0.3455 0.81952 0.0
C1365 C 0.18623 0.35079 0.83235 0.0
C1366 C 0.12763 0.35878 0.78275 0.0
C1367 C 0.10994 0.35438 0.78841 0.0
C1368 C 0.14251 0.35415 0.79353 0.0
C1369 C 0.13994 0.34468 0.80997 0.0
C1370 C 0.12234 0.33819 0.81418 0.0
C1371 C 0.10744 0.34335 0.80373 0.0
H1372 H 0.62359 0.11818 0.81806 0.0
H1373 H 0.61175 0.14877 0.76961 0.0
H1374 H 0.6248 0.14604 0.83561 0.0
H1375 H 0.61214 0.17667 0.78724 0.0
H1376 H 0.61855 0.22599 0.82278 0.0
H1377 H 0.62664 0.19931 0.80539 0.0
H1378 H 0.60175 0.16498 0.84624 0.0
H1379 H 0.59428 0.19154 0.86382 0.0
C1380 C 0.62162 0.13095 0.8111 0.0
C1381 C 0.61744 0.1313 0.7925 0.0
C1382 C 0.62209 0.14691 0.82119 0.0
C1383 C 0.61806 0.1636 0.81299 0.0
C1384 C 0.61536 0.16411 0.79406 0.0
C1385 C 0.61516 0.14811 0.7839 0.0
C1386 C 0.61499 0.21271 0.82812 0.0
C1387 C 0.60569 0.2109 0.84466 0.0
C1388 C 0.61957 0.19741 0.8181 0.0
C1389 C 0.61487 0.17992 0.82433 0.0
C1390 C 0.60594 0.17816 0.84111 0.0
C1391 C 0.60149 0.19344 0.85118 0.0
H1392 H 0.8615 0.3855 0.15795 0.0
H1393 H 0.83648 0.36454 0.20675 0.0
H1394 H 0.83303 0.38162 0.14173 0.0
H1395 H 0.80788 0.36014 0.19025 0.0
H1396 H 0.75617 0.38179 0.16177 0.0
H1397 H 0.78479 0.37949 0.17815 0.0
H1398 H 0.81082 0.36132 0.12928 0.0
H1399 H 0.78226 0.36416 0.11276 0.0
C1400 C 0.85 0.37971 0.16517 0.0
C1401 C 0.85127 0.3755 0.18374 0.0
C1402 C 0.83363 0.37737 0.15578 0.0
C1403 C 0.81806 0.37068 0.16467 0.0
C1404 C 0.81953 0.36561 0.18304 0.0
C1405 C 0.83596 0.36799 0.19248 0.0
C1406 C 0.76796 0.37717 0.15453 0.0
C1407 C 0.76695 0.37335 0.13589 0.0
C1408 C 0.78437 0.3757 0.16399 0.0
C1409 C 0.80019 0.37029 0.15506 0.0
C1410 C 0.799 0.36583 0.13654 0.0
C1411 C 0.78259 0.36739 0.12707 0.0
H1412 H 0.57934 0.83751 0.20467 0.0
H1413 H 0.6325 0.86146 0.19558 0.0
H1414 H 0.58507 0.81491 0.18157 0.0
H1415 H 0.63803 0.83885 0.17195 0.0
H1416 H 0.61721 0.8129 0.11423 0.0
H1417 H 0.62092 0.83288 0.14035 0.0
H1418 H 0.60794 0.78817 0.17613 0.0
H1419 H 0.60456 0.76802 0.14996 0.0
C1420 C 0.59224 0.838 0.19768 0.0
C1421 C 0.60542 0.85136 0.20183 0.0
C1422 C 0.59559 0.82489 0.18463 0.0
C1423 C 0.61208 0.82502 0.17519 0.0
C1424 C 0.62528 0.83842 0.17919 0.0
C1425 C 0.62207 0.85136 0.1926 0.0
C1426 C 0.61581 0.8072 0.12772 0.0
C1427 C 0.61046 0.78897 0.13011 0.0
C1428 C 0.61798 0.81863 0.14264 0.0
C1429 C 0.61449 0.81208 0.16017 0.0
C1430 C 0.6106 0.79352 0.16269 0.0
C1431 C 0.60879 0.78198 0.14776 0.0
H1432 H 0.1168 0.59355 0.19044 0.0
H1433 H 0.16412 0.61591 0.21772 0.0
H1434 H 0.13297 0.59497 0.16159 0.0
H1435 H 0.18023 0.61721 0.18899 0.0
H1436 H 0.20047 0.6305 0.13295 0.0
H1437 H 0.18068 0.6325 0.15922 0.0
H1438 H 0.15882 0.57906 0.14778 0.0
H1439 H 0.17851 0.57708 0.12139 0.0
C1440 C 0.13058 0.59891 0.19027 0.0
C1441 C 0.13919 0.60456 0.20642 0.0
C1442 C 0.13987 0.59964 0.17375 0.0
C1443 C 0.1579 0.60619 0.17297 0.0
C1444 C 0.16629 0.6123 0.18905 0.0
C1445 C 0.15708 0.61144 0.20557 0.0
C1446 C 0.19126 0.61927 0.13584 0.0
C1447 C 0.19121 0.60356 0.12511 0.0
C1448 C 0.17999 0.62038 0.15099 0.0
C1449 C 0.16832 0.60587 0.15573 0.0
C1450 C 0.16758 0.59053 0.14446 0.0
C1451 C 0.17893 0.58937 0.12936 0.0
H1452 H 0.35784 0.21023 0.13951 0.0
H1453 H 0.32299 0.18065 0.10254 0.0
H1454 H 0.35249 0.18719 0.1627 0.0
H1455 H 0.31677 0.15802 0.12596 0.0
H1456 H 0.3526 0.111 0.14783 0.0
H1457 H 0.34065 0.13704 0.13218 0.0
H1458 H 0.33682 0.16559 0.18305 0.0
H1459 H 0.34905 0.13915 0.19887 0.0
C1460 C 0.34807 0.19942 0.13679 0.0
C1461 C 0.34102 0.19697 0.11926 0.0
C1462 C 0.345 0.18615 0.15007 0.0
C1463 C 0.3347 0.17043 0.14593 0.0
C1464 C 0.32519 0.16972 0.12936 0.0
C1465 C 0.32858 0.18275 0.116 0.0
C1466 C 0.34884 0.12267 0.15576 0.0
C1467 C 0.35204 0.12317 0.1745 0.0
C1468 C 0.34174 0.13758 0.14682 0.0
C1469 C 0.33776 0.15349 0.15636 0.0
C1470 C 0.33981 0.15357 0.17533 0.0
C1471 C 0.34677 0.13845 0.18437 0.0
H1472 H 0.85973 0.79909 0.57436 0.0
H1473 H 0.82293 0.76247 0.60235 0.0
H1474 H 0.83731 0.82294 0.57604 0.0
H1475 H 0.80036 0.78596 0.60345 0.0
H1476 H 0.76538 0.83389 0.6125 0.0
H1477 H 0.79131 0.81402 0.61553 0.0
H1478 H 0.80926 0.82985 0.56197 0.0
H1479 H 0.78379 0.85014 0.55926 0.0
C1480 C 0.84691 0.79615 0.58096 0.0
C1481 C 0.8431 0.77883 0.58811 0.0
C1482 C 0.83399 0.80979 0.58183 0.0
C1483 C 0.81691 0.80639 0.58975 0.0
C1484 C 0.81341 0.78923 0.59746 0.0
C1485 C 0.82635 0.77567 0.59672 0.0
C1486 C 0.77501 0.83329 0.60148 0.0
C1487 C 0.77243 0.84351 0.58559 0.0
C1488 C 0.78983 0.82181 0.60316 0.0
C1489 C 0.80234 0.82015 0.58893 0.0
C1490 C 0.80009 0.8309 0.57332 0.0
C1491 C 0.78537 0.84249 0.57171 0.0
H1492 H 0.8361 0.20899 0.36805 0.0
H1493 H 0.87355 0.17694 0.33771 0.0
H1494 H 0.81175 0.18714 0.36137 0.0
H1495 H 0.84906 0.15567 0.32988 0.0
H1496 H 0.81824 0.10886 0.35877 0.0
H1497 H 0.83774 0.13411 0.35054 0.0
H1498 H 0.79092 0.16812 0.34433 0.0
H1499 H 0.77118 0.14243 0.35313 0.0
C1500 C 0.83884 0.19778 0.35909 0.0
C1501 C 0.85665 0.19443 0.35357 0.0
C1502 C 0.82489 0.18522 0.35522 0.0
C1503 C 0.82856 0.1693 0.34554 0.0
C1504 C 0.84589 0.16746 0.33787 0.0
C1505 C 0.85989 0.17972 0.34216 0.0
C1506 C 0.81202 0.12161 0.3553 0.0
C1507 C 0.79321 0.12374 0.35688 0.0
C1508 C 0.82323 0.13614 0.35033 0.0
C1509 C 0.81598 0.1533 0.34679 0.0
C1510 C 0.79697 0.15515 0.34713 0.0
C1511 C 0.78566 0.14043 0.35206 0.0
H1512 H 0.78931 0.85428 0.37901 0.0
H1513 H 0.76326 0.82631 0.33431 0.0
H1514 H 0.81501 0.83409 0.37699 0.0
H1515 H 0.78855 0.80569 0.33274 0.0
H1516 H 0.84153 0.77736 0.3256 0.0
H1517 H 0.81942 0.80157 0.32539 0.0
H1518 H 0.82202 0.80383 0.38389 0.0
H1519 H 0.84452 0.78026 0.38403 0.0
C1520 C 0.78906 0.84382 0.36875 0.0
C1521 C 0.77417 0.84186 0.35689 0.0
C1522 C 0.80377 0.83215 0.36765 0.0
C1523 C 0.80388 0.81811 0.35478 0.0
C1524 C 0.78914 0.81647 0.34265 0.0
C1525 C 0.77453 0.82824 0.34364 0.0
C1526 C 0.83755 0.78322 0.33839 0.0
C1527 C 0.84476 0.77679 0.35482 0.0
C1528 C 0.82475 0.79702 0.33829 0.0
C1529 C 0.81875 0.80463 0.35463 0.0
C1530 C 0.82644 0.79855 0.37101 0.0
C1531 C 0.83932 0.78489 0.37109 0.0
H1532 H 0.14282 0.77513 0.37867 0.0
H1533 H 0.10484 0.81508 0.36035 0.0
H1534 H 0.16779 0.79703 0.37473 0.0
H1535 H 0.12975 0.83665 0.35532 0.0
H1536 H 0.16774 0.87527 0.38672 0.0
H1537 H 0.14537 0.85248 0.37854 0.0
H1538 H 0.18767 0.81818 0.35842 0.0
H1539 H 0.21048 0.84125 0.36717 0.0
C1540 C 0.13995 0.78834 0.37301 0.0
C1541 C 0.12196 0.7936 0.3701 0.0
C1542 C 0.15425 0.8009 0.3707 0.0
C1543 C 0.15072 0.81878 0.36518 0.0
C1544 C 0.13288 0.82318 0.36015 0.0
C1545 C 0.11862 0.81082 0.36288 0.0
C1546 C 0.17236 0.86299 0.38034 0.0
C1547 C 0.19093 0.85999 0.37781 0.0
C1548 C 0.15944 0.84994 0.37541 0.0
C1549 C 0.16465 0.83345 0.36772 0.0
C1550 C 0.18321 0.83069 0.36441 0.0
C1551 C 0.19625 0.84392 0.36933 0.0
H1552 H 0.21756 0.15013 0.33924 0.0
H1553 H 0.19499 0.1116 0.3776 0.0
H1554 H 0.18882 0.16572 0.33816 0.0
H1555 H 0.166 0.12703 0.37621 0.0
H1556 H 0.13172 0.17765 0.39046 0.0
H1557 H 0.15575 0.15577 0.38754 0.0
H1558 H 0.15705 0.16514 0.32971 0.0
H1559 H 0.13321 0.18742 0.33268 0.0
C1560 C 0.20636 0.14477 0.34719 0.0
C1561 C 0.20867 0.12976 0.35869 0.0
C1562 C 0.18979 0.15364 0.34646 0.0
C1563 C 0.1751 0.14771 0.3572 0.0
C1564 C 0.17712 0.13211 0.36798 0.0
C1565 C 0.19372 0.12322 0.36871 0.0
C1566 C 0.13688 0.17483 0.37706 0.0
C1567 C 0.13072 0.18451 0.36184 0.0
C1568 C 0.15062 0.16216 0.37537 0.0
C1569 C 0.1585 0.15883 0.35841 0.0
C1570 C 0.1515 0.16763 0.34302 0.0
C1571 C 0.13775 0.18033 0.34471 0.0
H1572 H 0.17488 0.1223 0.56026 0.0
H1573 H 0.19446 0.13182 0.61475 0.0
H1574 H 0.15093 0.14397 0.56487 0.0
H1575 H 0.17011 0.15326 0.61956 0.0
H1576 H 0.13958 0.20731 0.61123 0.0
H1577 H 0.16172 0.18319 0.61005 0.0
H1578 H 0.12329 0.14964 0.58035 0.0
H1579 H 0.10139 0.17392 0.58109 0.0
C1580 C 0.17393 0.12882 0.57333 0.0
C1581 C 0.18667 0.12534 0.5871 0.0
C1582 C 0.16008 0.14121 0.57604 0.0
C1583 C 0.15853 0.15043 0.59261 0.0
C1584 C 0.17102 0.14661 0.60655 0.0
C1585 C 0.18492 0.13422 0.60383 0.0
C1586 C 0.13577 0.1947 0.60465 0.0
C1587 C 0.11876 0.19263 0.59611 0.0
C1588 C 0.14846 0.18081 0.60403 0.0
C1589 C 0.14441 0.16449 0.59492 0.0
C1590 C 0.12705 0.16215 0.58714 0.0
C1591 C 0.11443 0.17605 0.58767 0.0
H1592 H 0.8049 0.08913 0.58423 0.0
H1593 H 0.76276 0.12361 0.60425 0.0
H1594 H 0.82752 0.1119 0.5915 0.0
H1595 H 0.78589 0.14666 0.61226 0.0
H1596 H 0.83037 0.18977 0.5922 0.0
H1597 H 0.80547 0.16773 0.59603 0.0
H1598 H 0.84394 0.12771 0.61368 0.0
H1599 H 0.86873 0.14939 0.60859 0.0
C1600 C 0.80048 0.10151 0.59054 0.0
C1601 C 0.78198 0.10463 0.59344 0.0
C1602 C 0.81356 0.11457 0.59497 0.0
C1603 C 0.80862 0.13118 0.60258 0.0
C1604 C 0.79015 0.13406 0.60629 0.0
C1605 C 0.77692 0.12084 0.60182 0.0
C1606 C 0.83335 0.17637 0.59732 0.0
C1607 C 0.85139 0.17108 0.5998 0.0
C1608 C 0.8191 0.16374 0.59961 0.0
C1609 C 0.82273 0.14576 0.60471 0.0
C1610 C 0.8407 0.14124 0.60914 0.0
C1611 C 0.8549 0.15366 0.60637 0.0
H1612 H 0.19566 0.83044 0.60325 0.0
H1613 H 0.1586 0.86996 0.62354 0.0
H1614 H 0.17283 0.80648 0.60814 0.0
H1615 H 0.13619 0.84604 0.62962 0.0
H1616 H 0.09393 0.81055 0.60005 0.0
H1617 H 0.11812 0.83161 0.60759 0.0
H1618 H 0.15171 0.78723 0.62479 0.0
H1619 H 0.12716 0.76577 0.61659 0.0
C1620 C 0.18293 0.83383 0.60958 0.0
C1621 C 0.17871 0.85198 0.61283 0.0
C1622 C 0.16983 0.82011 0.61242 0.0
C1623 C 0.15244 0.82438 0.61881 0.0
C1624 C 0.1492 0.84233 0.62412 0.0
C1625 C 0.16208 0.85603 0.62083 0.0
C1626 C 0.10635 0.8052 0.60567 0.0
C1627 C 0.10869 0.78645 0.60749 0.0
C1628 C 0.12025 0.81737 0.61025 0.0
C1629 C 0.13697 0.8112 0.61688 0.0
C1630 C 0.13906 0.79244 0.6196 0.0
C1631 C 0.12498 0.78016 0.61502 0.0
H1632 H 0.10378 0.21791 0.44672 0.0
H1633 H 0.13384 0.26852 0.44372 0.0
H1634 H 0.10577 0.21874 0.47988 0.0
H1635 H 0.13661 0.26901 0.47663 0.0
H1636 H 0.10291 0.28152 0.52719 0.0
H1637 H 0.1116 0.27592 0.49622 0.0
H1638 H 0.12226 0.22005 0.50955 0.0
H1639 H 0.11321 0.2257 0.54101 0.0
C1640 C 0.11149 0.22877 0.45316 0.0
C1641 C 0.11839 0.24331 0.44283 0.0
C1642 C 0.11267 0.22925 0.47212 0.0
C1643 C 0.12096 0.24419 0.48086 0.0
C1644 C 0.12972 0.25757 0.47029 0.0
C1645 C 0.12823 0.25726 0.45147 0.0
C1646 C 0.10731 0.26807 0.52365 0.0
C1647 C 0.10723 0.25402 0.53652 0.0
C1648 C 0.11251 0.26489 0.50588 0.0
C1649 C 0.11777 0.24755 0.50041 0.0
C1650 C 0.11825 0.23354 0.51338 0.0
C1651 C 0.11315 0.23679 0.53136 0.0
H1652 H 0.72467 0.1105 0.52799 0.0
H1653 H 0.71896 0.05418 0.51339 0.0
H1654 H 0.723 0.11902 0.49582 0.0
H1655 H 0.71677 0.06261 0.48145 0.0
H1656 H 0.71224 0.08204 0.4243 0.0
H1657 H 0.70088 0.08119 0.45556 0.0
H1658 H 0.749 0.11028 0.47354 0.0
H1659 H 0.76048 0.11067 0.4426 0.0
C1660 C 0.72215 0.10005 0.51797 0.0
C1661 C 0.72191 0.08172 0.52306 0.0
C1662 C 0.7213 0.1049 0.4996 0.0
C1663 C 0.71981 0.09146 0.48616 0.0
C1664 C 0.71771 0.07326 0.49149 0.0
C1665 C 0.71899 0.06842 0.50976 0.0
C1666 C 0.72006 0.08873 0.43488 0.0
C1667 C 0.73728 0.09629 0.43113 0.0
C1668 C 0.7136 0.08822 0.45272 0.0
C1669 C 0.72406 0.09568 0.46695 0.0
C1670 C 0.74054 0.10461 0.46285 0.0
C1671 C 0.74717 0.10473 0.44516 0.0
H1672 H 0.87013 0.74517 0.43519 0.0
H1673 H 0.84844 0.69052 0.43347 0.0
H1674 H 0.86536 0.74588 0.46802 0.0
H1675 H 0.84272 0.69149 0.46593 0.0
H1676 H 0.85212 0.74111 0.52878 0.0
H1677 H 0.84669 0.74397 0.49598 0.0
H1678 H 0.86601 0.68959 0.48848 0.0
H1679 H 0.87098 0.68664 0.5206 0.0
C1680 C 0.86367 0.73361 0.44175 0.0
C1681 C 0.85996 0.71765 0.432 0.0
C1682 C 0.86087 0.73402 0.46052 0.0
C1683 C 0.8541 0.71856 0.46963 0.0
C1684 C 0.84847 0.70342 0.45938 0.0
C1685 C 0.85164 0.70287 0.4408 0.0
C1686 C 0.85496 0.72975 0.52006 0.0
C1687 C 0.86204 0.71368 0.52729 0.0
C1688 C 0.8519 0.7314 0.50132 0.0
C1689 C 0.85569 0.71693 0.48964 0.0
C1690 C 0.86247 0.70086 0.49705 0.0
C1691 C 0.86555 0.69925 0.51556 0.0
H1692 H 0.24646 0.85259 0.44433 0.0
H1693 H 0.26054 0.90844 0.45509 0.0
H1694 H 0.24774 0.84594 0.47689 0.0
H1695 H 0.26205 0.9019 0.48749 0.0
H1696 H 0.21183 0.86068 0.52845 0.0
H1697 H 0.22387 0.85808 0.49795 0.0
H1698 H 0.2737 0.88467 0.51517 0.0
H1699 H 0.26162 0.88701 0.54604 0.0
C1700 C 0.25082 0.86318 0.45359 0.0
C1701 C 0.25355 0.88097 0.44731 0.0
C1702 C 0.25138 0.85944 0.47222 0.0
C1703 C 0.2548 0.87344 0.48476 0.0
C1704 C 0.25955 0.89079 0.47821 0.0
C1705 C 0.25872 0.89455 0.45965 0.0
C1706 C 0.22556 0.86551 0.52586 0.0
C1707 C 0.23573 0.8742 0.53954 0.0
C1708 C 0.23254 0.86388 0.50841 0.0
C1709 C 0.24974 0.87119 0.50413 0.0
C1710 C 0.2604 0.8789 0.5181 0.0
C1711 C 0.25352 0.8802 0.53574 0.0
H1712 H 0.11212 0.73103 0.541 0.0
H1713 H 0.05544 0.72344 0.52786 0.0
H1714 H 0.11982 0.72784 0.50885 0.0
H1715 H 0.06303 0.71987 0.49591 0.0
H1716 H 0.1106 0.76208 0.45386 0.0
H1717 H 0.11076 0.75209 0.48537 0.0
H1718 H 0.08064 0.70365 0.47039 0.0
H1719 H 0.0809 0.71356 0.43854 0.0
C1720 C 0.10144 0.72774 0.53135 0.0
C1721 C 0.08323 0.72732 0.53681 0.0
C1722 C 0.1058 0.72606 0.51297 0.0
C1723 C 0.09201 0.72369 0.49987 0.0
C1724 C 0.07397 0.72147 0.50568 0.0
C1725 C 0.0696 0.7235 0.52396 0.0
C1726 C 0.10455 0.74901 0.4572 0.0
C1727 C 0.09567 0.73863 0.44382 0.0
C1728 C 0.10473 0.74322 0.47524 0.0
C1729 C 0.09568 0.72709 0.48035 0.0
C1730 C 0.08775 0.71612 0.46679 0.0
C1731 C 0.08795 0.72175 0.4486 0.0
H1732 H 0.28807 0.13005 0.44301 0.0
H1733 H 0.2349 0.1051 0.43779 0.0
H1734 H 0.28339 0.13368 0.47544 0.0
H1735 H 0.23052 0.10776 0.47051 0.0
H1736 H 0.28434 0.10241 0.52889 0.0
H1737 H 0.28468 0.10995 0.49712 0.0
H1738 H 0.22804 0.12398 0.49943 0.0
H1739 H 0.2276 0.11588 0.53181 0.0
C1740 C 0.27523 0.12567 0.4488 0.0
C1741 C 0.26197 0.11705 0.43802 0.0
C1742 C 0.27256 0.12763 0.46738 0.0
C1743 C 0.25681 0.1205 0.47567 0.0
C1744 C 0.24281 0.11341 0.46459 0.0
C1745 C 0.24533 0.11182 0.44585 0.0
C1746 C 0.27192 0.10724 0.52278 0.0
C1747 C 0.25588 0.10837 0.53288 0.0
C1748 C 0.27218 0.11182 0.5045 0.0
C1749 C 0.25643 0.11776 0.49567 0.0
C1750 C 0.2404 0.11941 0.50584 0.0
C1751 C 0.24016 0.11485 0.52435 0.0
H1752 H 0.91227 0.23008 0.52428 0.0
H1753 H 0.85429 0.23075 0.53168 0.0
H1754 H 0.90845 0.2387 0.4925 0.0
H1755 H 0.85033 0.2389 0.49954 0.0
H1756 H 0.86047 0.21342 0.43975 0.0
H1757 H 0.85829 0.21736 0.47249 0.0
H1758 H 0.89583 0.26285 0.46956 0.0
H1759 H 0.89761 0.25917 0.43652 0.0
C1760 C 0.89874 0.23262 0.51916 0.0
C1761 C 0.88357 0.22987 0.53032 0.0
C1762 C 0.89654 0.23762 0.50102 0.0
C1763 C 0.8791 0.2395 0.49356 0.0
C1764 C 0.86392 0.23762 0.50499 0.0
C1765 C 0.86617 0.23303 0.52332 0.0
C1766 C 0.86773 0.22468 0.44602 0.0
C1767 C 0.87923 0.23597 0.43567 0.0
C1768 C 0.86643 0.22698 0.46475 0.0
C1769 C 0.87694 0.24037 0.47356 0.0
C1770 C 0.88756 0.25245 0.46306 0.0
C1771 C 0.88851 0.2504 0.4442 0.0
H1772 H 0.74031 0.85513 0.43425 0.0
H1773 H 0.69727 0.89308 0.44323 0.0
H1774 H 0.73749 0.84472 0.46588 0.0
H1775 H 0.69453 0.88273 0.47421 0.0
H1776 H 0.67857 0.85141 0.52141 0.0
H1777 H 0.68391 0.85337 0.48893 0.0
H1778 H 0.74157 0.85867 0.49867 0.0
H1779 H 0.73627 0.85641 0.53138 0.0
C1780 C 0.73035 0.86128 0.44291 0.0
C1781 C 0.71896 0.87487 0.43616 0.0
C1782 C 0.72873 0.8553 0.46095 0.0
C1783 C 0.71553 0.86266 0.47233 0.0
C1784 C 0.70451 0.87648 0.46563 0.0
C1785 C 0.70622 0.88252 0.44785 0.0
C1786 C 0.69243 0.85247 0.51664 0.0
C1787 C 0.70697 0.85413 0.52894 0.0
C1788 C 0.69549 0.85364 0.49805 0.0
C1789 C 0.71311 0.85662 0.49136 0.0
C1790 C 0.72785 0.85642 0.5035 0.0
C1791 C 0.7248 0.85513 0.52221 0.0
H1792 H 0.42333 0.10029 0.24925 0.0
H1793 H 0.44671 0.0947 0.19599 0.0
H1794 H 0.45378 0.10424 0.26218 0.0
H1795 H 0.47686 0.0981 0.20886 0.0
H1796 H 0.52972 0.11423 0.23297 0.0
H1797 H 0.49849 0.11799 0.22282 0.0
H1798 H 0.47956 0.08546 0.26799 0.0
H1799 H 0.5107 0.08223 0.27846 0.0
C1800 C 0.43492 0.10003 0.24029 0.0
C1801 C 0.43256 0.09705 0.2216 0.0
C1802 C 0.45238 0.1022 0.2477 0.0
C1803 C 0.46782 0.10146 0.23658 0.0
C1804 C 0.46534 0.09907 0.21783 0.0
C1805 C 0.44798 0.09694 0.21045 0.0
C1806 C 0.51887 0.10814 0.24091 0.0
C1807 C 0.52273 0.09774 0.2564 0.0
C1808 C 0.50096 0.1102 0.23503 0.0
C1809 C 0.48649 0.10179 0.24442 0.0
C1810 C 0.49031 0.09225 0.26049 0.0
C1811 C 0.50821 0.09031 0.26645 0.0
H1812 H 0.89681 0.54132 0.25267 0.0
H1813 H 0.86524 0.52897 0.20471 0.0
H1814 H 0.89594 0.5091 0.26119 0.0
H1815 H 0.86382 0.49705 0.21353 0.0
H1816 H 0.85934 0.44086 0.23703 0.0
H1817 H 0.8541 0.47345 0.24057 0.0
H1818 H 0.91193 0.48377 0.2398 0.0
H1819 H 0.91707 0.45143 0.23558 0.0
C1820 C 0.8891 0.53183 0.24437 0.0
C1821 C 0.88116 0.53752 0.22801 0.0
C1822 C 0.88864 0.51346 0.24921 0.0
C1823 C 0.87976 0.50068 0.23804 0.0
C1824 C 0.87055 0.50667 0.22249 0.0
C1825 C 0.87144 0.52489 0.2174 0.0
C1826 C 0.87089 0.45007 0.23831 0.0
C1827 C 0.88859 0.44378 0.23612 0.0
C1828 C 0.8679 0.46865 0.24026 0.0
C1829 C 0.88263 0.48104 0.24052 0.0
C1830 C 0.90038 0.47447 0.2399 0.0
C1831 C 0.90332 0.45602 0.23744 0.0
H1832 H 0.52468 0.8745 0.22282 0.0
H1833 H 0.50932 0.86502 0.2785 0.0
H1834 H 0.49306 0.87266 0.21368 0.0
H1835 H 0.47759 0.86205 0.26928 0.0
H1836 H 0.42198 0.88212 0.24986 0.0
H1837 H 0.45336 0.87957 0.26007 0.0
H1838 H 0.46725 0.8554 0.20873 0.0
H1839 H 0.43622 0.85915 0.19827 0.0
C1840 C 0.51455 0.87155 0.23306 0.0
C1841 C 0.51948 0.87 0.25139 0.0
C1842 C 0.49633 0.87038 0.22781 0.0
C1843 C 0.48258 0.86726 0.24072 0.0
C1844 C 0.48767 0.86488 0.25898 0.0
C1845 C 0.50589 0.86641 0.26427 0.0
C1846 C 0.43178 0.87615 0.24087 0.0
C1847 C 0.42676 0.87105 0.22322 0.0
C1848 C 0.44978 0.87456 0.24673 0.0
C1849 C 0.46305 0.86744 0.23518 0.0
C1850 C 0.45765 0.86145 0.21785 0.0
C1851 C 0.4398 0.86346 0.21187 0.0
H1852 H 0.10443 0.53141 0.23531 0.0
H1853 H 0.1216 0.53205 0.29129 0.0
H1854 H 0.1068 0.49837 0.23492 0.0
H1855 H 0.12496 0.49931 0.29073 0.0
H1856 H 0.09541 0.4448 0.29346 0.0
H1857 H 0.1017 0.47689 0.29131 0.0
H1858 H 0.12303 0.46996 0.23736 0.0
H1859 H 0.11617 0.43736 0.23934 0.0
C1860 C 0.10941 0.52453 0.24729 0.0
C1861 C 0.11259 0.53415 0.26341 0.0
C1862 C 0.11078 0.5056 0.24708 0.0
C1863 C 0.11561 0.49612 0.26295 0.0
C1864 C 0.12063 0.5061 0.27845 0.0
C1865 C 0.11888 0.52487 0.27875 0.0
C1866 C 0.10158 0.44997 0.28114 0.0
C1867 C 0.1052 0.43844 0.26654 0.0
C1868 C 0.10539 0.46847 0.27998 0.0
C1869 C 0.11308 0.47608 0.26423 0.0
C1870 C 0.11706 0.46455 0.24967 0.0
C1871 C 0.11319 0.44588 0.25083 0.0
H1872 H 0.43845 0.85621 0.74311 0.0
H1873 H 0.45639 0.88318 0.6941 0.0
H1874 H 0.46994 0.85321 0.75278 0.0
H1875 H 0.48776 0.88072 0.70403 0.0
H1876 H 0.5443 0.86677 0.7223 0.0
H1877 H 0.51338 0.86221 0.71086 0.0
H1878 H 0.49237 0.87403 0.76403 0.0
H1879 H 0.52305 0.87804 0.7755 0.0
C1880 C 0.44911 0.86133 0.73431 0.0
C1881 C 0.44488 0.87011 0.71793 0.0
C1882 C 0.46717 0.85972 0.73991 0.0
C1883 C 0.48141 0.86696 0.72932 0.0
C1884 C 0.4772 0.87485 0.71247 0.0
C1885 C 0.45915 0.87635 0.70682 0.0
C1886 C 0.53307 0.86818 0.73157 0.0
C1887 C 0.53618 0.87288 0.74979 0.0
C1888 C 0.51534 0.86564 0.725 0.0
C1889 C 0.50034 0.86778 0.73649 0.0
C1890 C 0.50354 0.87197 0.75482 0.0
C1891 C 0.5212 0.87444 0.76138 0.0
H1892 H 0.07861 0.44501 0.78338 0.0
H1893 H 0.08872 0.43737 0.72628 0.0
H1894 H 0.08372 0.47728 0.77988 0.0
H1895 H 0.09414 0.47014 0.72281 0.0
H1896 H 0.07604 0.53255 0.72593 0.0
H1897 H 0.07668 0.49928 0.72462 0.0
H1898 H 0.10842 0.49857 0.77401 0.0
H1899 H 0.10716 0.53143 0.77558 0.0
C1900 C 0.08208 0.45019 0.77006 0.0
C1901 C 0.08326 0.43854 0.75512 0.0
C1902 C 0.08517 0.46875 0.76808 0.0
C1903 C 0.08957 0.4763 0.7511 0.0
C1904 C 0.09078 0.46473 0.73606 0.0
C1905 C 0.08776 0.44598 0.73808 0.0
C1906 C 0.08355 0.52522 0.73617 0.0
C1907 C 0.09136 0.53443 0.75098 0.0
C1908 C 0.08392 0.50621 0.73544 0.0
C1909 C 0.09224 0.49628 0.74946 0.0
C1910 C 0.10148 0.50577 0.76328 0.0
C1911 C 0.10088 0.52459 0.76412 0.0
H1912 H 0.46259 0.10398 0.68936 0.0
H1913 H 0.44775 0.09377 0.74506 0.0
H1914 H 0.49439 0.10692 0.69832 0.0
H1915 H 0.47945 0.09553 0.75392 0.0
H1916 H 0.5363 0.10885 0.76913 0.0
H1917 H 0.5052 0.11267 0.75894 0.0
H1918 H 0.5189 0.08963 0.70702 0.0
H1919 H 0.55039 0.08707 0.71699 0.0
C1920 C 0.46615 0.10243 0.70354 0.0
C1921 C 0.45268 0.09866 0.71651 0.0
C1922 C 0.48442 0.10393 0.70868 0.0
C1923 C 0.48969 0.10133 0.72686 0.0
C1924 C 0.47606 0.09801 0.73985 0.0
C1925 C 0.45779 0.09689 0.73477 0.0
C1926 C 0.53266 0.10481 0.75546 0.0
C1927 C 0.54567 0.09753 0.74388 0.0
C1928 C 0.51476 0.10685 0.74963 0.0
C1929 C 0.50928 0.10117 0.73223 0.0
C1930 C 0.52254 0.09439 0.72044 0.0
C1931 C 0.5406 0.09279 0.72615 0.0
H1932 H 0.88234 0.52054 0.68485 0.0
H1933 H 0.85674 0.52748 0.73692 0.0
H1934 H 0.87502 0.48862 0.68568 0.0
H1935 H 0.84896 0.49496 0.73755 0.0
H1936 H 0.86408 0.43203 0.73796 0.0
H1937 H 0.86397 0.46516 0.73996 0.0
H1938 H 0.8495 0.46827 0.68321 0.0
H1939 H 0.85047 0.43542 0.6811 0.0
C1940 C 0.87497 0.5153 0.69647 0.0
C1941 C 0.8701 0.52667 0.71081 0.0
C1942 C 0.87059 0.49691 0.69685 0.0
C1943 C 0.86109 0.48923 0.71153 0.0
C1944 C 0.85625 0.50049 0.72602 0.0
C1945 C 0.86068 0.51909 0.72565 0.0
C1946 C 0.86041 0.43984 0.72607 0.0
C1947 C 0.85758 0.43126 0.7093 0.0
C1948 C 0.86033 0.45881 0.72722 0.0
C1949 C 0.8572 0.46937 0.71163 0.0
C1950 C 0.85252 0.46056 0.69534 0.0
C1951 C 0.85294 0.44174 0.69414 0.0
H1952 H 0.20728 0.52322 0.09011 0.0
H1953 H 0.26337 0.51164 0.10156 0.0
H1954 H 0.19953 0.49113 0.09256 0.0
H1955 H 0.25559 0.47967 0.10532 0.0
H1956 H 0.24058 0.42277 0.08525 0.0
H1957 H 0.2486 0.45476 0.08785 0.0
H1958 H 0.19531 0.46519 0.10948 0.0
H1959 H 0.18704 0.43337 0.10562 0.0
C1960 C 0.21785 0.51382 0.09366 0.0
C1961 C 0.23592 0.51984 0.09547 0.0
C1962 C 0.21344 0.49537 0.09517 0.0
C1963 C 0.22695 0.4826 0.09897 0.0
C1964 C 0.24487 0.48892 0.10185 0.0
C1965 C 0.24933 0.50729 0.09988 0.0
C1966 C 0.23069 0.43192 0.09072 0.0
C1967 C 0.21316 0.42567 0.09506 0.0
C1968 C 0.23529 0.4503 0.09234 0.0
C1969 C 0.22258 0.46277 0.09878 0.0
C1970 C 0.20532 0.4562 0.10401 0.0
C1971 C 0.2006 0.43791 0.10195 0.0
H1972 H 0.28242 0.5173 0.8859 0.0
H1973 H 0.24153 0.53303 0.84706 0.0
H1974 H 0.27585 0.48569 0.87974 0.0
H1975 H 0.23557 0.50118 0.84002 0.0
H1976 H 0.20978 0.44649 0.85688 0.0
H1977 H 0.22057 0.47736 0.85415 0.0
H1978 H 0.27577 0.45974 0.8617 0.0
H1979 H 0.26462 0.4285 0.86545 0.0
C1980 C 0.27227 0.51401 0.8757 0.0
C1981 C 0.26227 0.52772 0.86719 0.0
C1982 C 0.26862 0.49577 0.872 0.0
C1983 C 0.25503 0.49068 0.85947 0.0
C1984 C 0.24583 0.50449 0.85009 0.0
C1985 C 0.24927 0.52278 0.85405 0.0
C1986 C 0.22428 0.44908 0.85772 0.0
C1987 C 0.23631 0.43503 0.86178 0.0
C1988 C 0.23054 0.46691 0.85594 0.0
C1989 C 0.24908 0.47128 0.85794 0.0
C1990 C 0.26134 0.45699 0.86051 0.0
C1991 C 0.255 0.43903 0.86247 0.0
H1992 H 0.42692 0.2552 0.87491 0.0
H1993 H 0.43918 0.20368 0.85091 0.0
H1994 H 0.45875 0.26443 0.87264 0.0
H1995 H 0.47077 0.21319 0.84749 0.0
H1996 H 0.52775 0.2245 0.87118 0.0
H1997 H 0.49605 0.2165 0.86583 0.0
H1998 H 0.48428 0.27297 0.85629 0.0
H1999 H 0.51587 0.28094 0.86276 0.0
C2000 C 0.43637 0.24608 0.86865 0.0
C2001 C 0.43067 0.22868 0.8633 0.0
C2002 C 0.45465 0.25137 0.86724 0.0
C2003 C 0.46755 0.23948 0.86008 0.0
C2004 C 0.46145 0.22253 0.85357 0.0
C2005 C 0.44329 0.21712 0.85538 0.0
C2006 C 0.51844 0.23513 0.86757 0.0
C2007 C 0.52423 0.25334 0.86757 0.0
C2008 C 0.50019 0.23057 0.86442 0.0
C2009 C 0.48737 0.24411 0.86085 0.0
C2010 C 0.49356 0.26221 0.85951 0.0
C2011 C 0.51172 0.26678 0.86303 0.0
H2012 H 0.73131 0.54597 0.88312 0.0
H2013 H 0.78468 0.53555 0.86225 0.0
H2014 H 0.72249 0.51449 0.87806 0.0
H2015 H 0.77563 0.50433 0.85591 0.0
H2016 H 0.76292 0.4462 0.87595 0.0
H2017 H 0.77125 0.47797 0.87208 0.0
H2018 H 0.71524 0.49014 0.85987 0.0
H2019 H 0.7069 0.45847 0.86507 0.0
C2020 C 0.74096 0.53702 0.87694 0.0
C2021 C 0.75872 0.54307 0.87332 0.0
C2022 C 0.73591 0.51894 0.87388 0.0
C2023 C 0.7484 0.50663 0.86672 0.0
C2024 C 0.76579 0.51317 0.86192 0.0
C2025 C 0.77096 0.53111 0.86542 0.0
C2026 C 0.75251 0.45563 0.87202 0.0
C2027 C 0.73427 0.44999 0.87103 0.0
C2028 C 0.75725 0.47392 0.86973 0.0
C2029 C 0.74387 0.48685 0.86598 0.0
C2030 C 0.72584 0.48076 0.86335 0.0
C2031 C 0.72106 0.46258 0.86611 0.0
H2032 H 0.45992 0.6991 0.86843 0.0
H2033 H 0.45376 0.75627 0.87789 0.0
H2034 H 0.49248 0.70366 0.86474 0.0
H2035 H 0.48648 0.76084 0.87542 0.0
H2036 H 0.54541 0.76719 0.86339 0.0
H2037 H 0.513 0.76198 0.85894 0.0
H2038 H 0.51779 0.70856 0.88266 0.0
H2039 H 0.55039 0.7135 0.88596 0.0
C2040 C 0.46559 0.7127 0.86959 0.0
C2041 C 0.45436 0.72733 0.8735 0.0
C2042 C 0.4843 0.71531 0.86769 0.0
C2043 C 0.49234 0.73257 0.87011 0.0
C2044 C 0.4809 0.74736 0.87322 0.0
C2045 C 0.46209 0.74478 0.8747 0.0
C2046 C 0.53952 0.75423 0.86738 0.0
C2047 C 0.55039 0.74076 0.8751 0.0
C2048 C 0.52088 0.75128 0.86498 0.0
C2049 C 0.51254 0.73493 0.87063 0.0
C2050 C 0.52362 0.72124 0.87783 0.0
C2051 C 0.54235 0.72406 0.87985 0.0
H2052 H 0.70563 0.53428 0.09119 0.0
H2053 H 0.74761 0.52569 0.13107 0.0
H2054 H 0.69752 0.50214 0.09222 0.0
H2055 H 0.7389 0.49377 0.13307 0.0
H2056 H 0.7401 0.4366 0.10896 0.0
H2057 H 0.74365 0.46881 0.11486 0.0
H2058 H 0.68614 0.47576 0.10578 0.0
H2059 H 0.68287 0.44362 0.09894 0.0
C2060 C 0.71259 0.52562 0.10074 0.0
C2061 C 0.72731 0.53238 0.11094 0.0
C2062 C 0.70799 0.50713 0.10136 0.0
C2063 C 0.71782 0.49513 0.11246 0.0
C2064 C 0.73142 0.50239 0.12391 0.0
C2065 C 0.73626 0.52075 0.12298 0.0
C2066 C 0.72818 0.44497 0.10845 0.0
C2067 C 0.71126 0.43759 0.10329 0.0
C2068 C 0.73016 0.4635 0.11197 0.0
C2069 C 0.71519 0.47509 0.11074 0.0
C2070 C 0.69807 0.46744 0.10649 0.0
C2071 C 0.69616 0.44895 0.10267 0.0
H2072 H 0.53933 0.71285 0.08744 0.0
H2073 H 0.52632 0.76121 0.11687 0.0
H2074 H 0.50773 0.7027 0.08907 0.0
H2075 H 0.49503 0.75059 0.11989 0.0
H2076 H 0.43761 0.74066 0.09849 0.0
H2077 H 0.46942 0.74865 0.10253 0.0
H2078 H 0.48258 0.69175 0.1041 0.0
H2079 H 0.45073 0.68394 0.09873 0.0
C2080 C 0.52976 0.72102 0.09474 0.0
C2081 C 0.53514 0.73787 0.10185 0.0
C2082 C 0.5116 0.71519 0.09579 0.0
C2083 C 0.49856 0.72591 0.1044 0.0
C2084 C 0.50441 0.7422 0.11261 0.0
C2085 C 0.52241 0.74824 0.11108 0.0
C2086 C 0.44729 0.72988 0.09993 0.0
C2087 C 0.44172 0.7117 0.09816 0.0
C2088 C 0.46562 0.73443 0.10238 0.0
C2089 C 0.47882 0.72088 0.10358 0.0
C2090 C 0.473 0.70262 0.10278 0.0
C2091 C 0.45469 0.6981 0.09988 0.0
H2092 H 0.52214 0.21685 0.09864 0.0
H2093 H 0.516 0.27454 0.10469 0.0
H2094 H 0.48938 0.21266 0.09904 0.0
H2095 H 0.48317 0.27036 0.10625 0.0
H2096 H 0.42614 0.25906 0.08267 0.0
H2097 H 0.45855 0.26444 0.08747 0.0
H2098 H 0.46229 0.2124 0.11432 0.0
H2099 H 0.43022 0.20669 0.10835 0.0
C2100 C 0.51377 0.22859 0.10058 0.0
C2101 C 0.52162 0.24602 0.10151 0.0
C2102 C 0.4949 0.22622 0.1009 0.0
C2103 C 0.48342 0.24119 0.10254 0.0
C2104 C 0.49144 0.25854 0.10449 0.0
C2105 C 0.51029 0.26093 0.10378 0.0
C2106 C 0.43392 0.24891 0.08976 0.0
C2107 C 0.42576 0.23239 0.09495 0.0
C2108 C 0.45253 0.25199 0.09264 0.0
C2109 C 0.46327 0.23877 0.10113 0.0
C2110 C 0.45471 0.2227 0.10725 0.0
C2111 C 0.43625 0.21946 0.10398 0.0
H2112 H 0.61539 0.72873 0.04075 0.0
H2113 H 0.59421 0.78175 0.02902 0.0
H2114 H 0.62426 0.72575 0.00887 0.0
H2115 H 0.60269 0.77867 -0.00239 0.0
H2116 H 0.62769 0.77747 0.94506 0.0
H2117 H 0.62875 0.7776 0.97803 0.0
H2118 H 0.6084 0.72233 0.979 0.0
H2119 H 0.60808 0.72203 0.94576 0.0
C2120 C 0.61279 0.73978 0.03145 0.0
C2121 C 0.60405 0.75545 0.0374 0.0
C2122 C 0.6178 0.73804 0.01322 0.0
C2123 C 0.61433 0.75203 0.00075 0.0
C2124 C 0.60594 0.76778 0.0069 0.0
C2125 C 0.60089 0.76948 0.02494 0.0
C2126 C 0.62392 0.76519 0.95233 0.0
C2127 C 0.61753 0.74984 0.94296 0.0
C2128 C 0.62444 0.76528 0.9712 0.0
C2129 C 0.61819 0.75015 0.98112 0.0
C2130 C 0.61331 0.73421 0.97173 0.0
C2131 C 0.61308 0.73402 0.95273 0.0
H2132 H 0.27722 0.59673 0.94643 0.0
H2133 H 0.22106 0.5873 0.93156 0.0
H2134 H 0.26872 0.59945 0.9779 0.0
H2135 H 0.2124 0.59025 0.96353 0.0
H2136 H 0.21541 0.56778 0.02476 0.0
H2137 H 0.2167 0.57217 -0.00818 0.0
H2138 H 0.25327 0.61798 -0.00052 0.0
H2139 H 0.25241 0.61305 0.0322 0.0
C2140 C 0.26297 0.59546 0.94986 0.0
C2141 C 0.24984 0.59168 0.93645 0.0
C2142 C 0.25805 0.59722 0.96796 0.0
C2143 C 0.23984 0.5952 0.9733 0.0
C2144 C 0.22655 0.59184 0.95987 0.0
C2145 C 0.2315 0.59024 0.94157 0.0
C2146 C 0.22314 0.57917 0.01933 0.0
C2147 C 0.23376 0.59014 0.03088 0.0
C2148 C 0.22392 0.5817 0.00049 0.0
C2149 C 0.23536 0.59523 -0.00702 0.0
C2150 C 0.24462 0.6072 0.00478 0.0
C2151 C 0.244 0.60454 0.02352 0.0
H2152 H 0.34831 0.1935 0.02513 0.0
H2153 H 0.3679 0.24883 0.02168 0.0
H2154 H 0.3451 0.19242 -0.00767 0.0
H2155 H 0.36553 0.24756 -0.01148 0.0
H2156 H 0.35403 0.23993 0.92762 0.0
H2157 H 0.34789 0.24378 0.96005 0.0
H2158 H 0.3688 0.19042 0.97056 0.0
H2159 H 0.37446 0.18646 0.93864 0.0
C2160 C 0.35169 0.20553 0.01729 0.0
C2161 C 0.3586 0.22115 0.02583 0.0
C2162 C 0.34995 0.2049 -0.00149 0.0
C2163 C 0.35553 0.21973 -0.01223 0.0
C2164 C 0.36111 0.2359 -0.0036 0.0
C2165 C 0.36252 0.23664 0.01536 0.0
C2166 C 0.35703 0.22896 0.93689 0.0
C2167 C 0.36476 0.2129 0.93055 0.0
C2168 C 0.35361 0.2312 0.95544 0.0
C2169 C 0.35772 0.21737 0.96789 0.0
C2170 C 0.36507 0.20123 0.96137 0.0
C2171 C 0.36849 0.19901 0.943 0.0
H2172 H 0.7076 0.36054 0.02462 0.0
H2173 H 0.75668 0.38855 0.04164 0.0
H2174 H 0.71816 0.36101 -0.00667 0.0
H2175 H 0.76707 0.38951 0.01004 0.0
H2176 H 0.7481 0.41582 0.9519 0.0
H2177 H 0.75021 0.40812 0.98405 0.0
H2178 H 0.74446 0.35137 0.97093 0.0
H2179 H 0.74294 0.35914 0.93855 0.0
C2180 C 0.72085 0.36642 0.02169 0.0
C2181 C 0.73129 0.37459 0.03549 0.0
C2182 C 0.72696 0.36658 0.00381 0.0
C2183 C 0.74344 0.37528 -0.00072 0.0
C2184 C 0.75435 0.38264 0.01322 0.0
C2185 C 0.74843 0.38207 0.03125 0.0
C2186 C 0.74812 0.40167 0.95586 0.0
C2187 C 0.74543 0.38806 0.94284 0.0
C2188 C 0.74935 0.39725 0.97424 0.0
C2189 C 0.74742 0.37916 0.97996 0.0
C2190 C 0.74604 0.36542 0.96683 0.0
C2191 C 0.74528 0.36984 0.94835 0.0
H2192 H 0.6085 0.23553 0.93946 0.0
H2193 H 0.55325 0.25037 0.95039 0.0
H2194 H 0.6129 0.22839 0.97183 0.0
H2195 H 0.55742 0.24253 0.98237 0.0
H2196 H 0.56941 0.21356 0.03655 0.0
H2197 H 0.56916 0.21125 0.0033 0.0
H2198 H 0.60764 0.25585 -3e-05 0.0
H2199 H 0.60734 0.25866 0.03302 0.0
C2200 C 0.59719 0.23676 0.94868 0.0
C2201 C 0.58057 0.24356 0.94254 0.0
C2202 C 0.59971 0.23269 0.96711 0.0
C2203 C 0.58543 0.23477 0.97943 0.0
C2204 C 0.56854 0.2406 0.97305 0.0
C2205 C 0.5662 0.24518 0.95483 0.0
C2206 C 0.57825 0.22245 0.02871 0.0
C2207 C 0.5884 0.23628 0.03726 0.0
C2208 C 0.57806 0.22116 0.00976 0.0
C2209 C 0.58846 0.23332 -0.0008 0.0
C2210 C 0.5997 0.24619 0.00786 0.0
C2211 C 0.59948 0.24782 0.02672 0.0
H2212 H 0.77447 0.56929 0.03487 0.0
H2213 H 0.73413 0.61095 0.03808 0.0
H2214 H 0.77902 0.57618 0.00314 0.0
H2215 H 0.73897 0.61806 0.00588 0.0
H2216 H 0.7411 0.60548 0.94227 0.0
H2217 H 0.73495 0.60411 0.97485 0.0
H2218 H 0.79249 0.60113 -0.01434 0.0
H2219 H 0.79858 0.60201 0.95331 0.0
C2220 C 0.76657 0.57999 0.02882 0.0
C2221 C 0.75403 0.58967 0.03908 0.0
C2222 C 0.76931 0.58404 0.01061 0.0
C2223 C 0.75963 0.59792 0.0021 0.0
C2224 C 0.74667 0.60733 0.01213 0.0
C2225 C 0.74391 0.60326 0.03052 0.0
C2226 C 0.75243 0.60492 0.95166 0.0
C2227 C 0.7703 0.6035 0.94527 0.0
C2228 C 0.7489 0.60417 0.97029 0.0
C2229 C 0.76322 0.6021 0.98275 0.0
C2230 C 0.78115 0.60223 0.97635 0.0
C2231 C 0.78464 0.60281 0.95782 0.0
H2232 H 0.41267 0.74889 0.94727 0.0
H2233 H 0.35791 0.73131 0.93497 0.0
H2234 H 0.4053 0.74981 0.97955 0.0
H2235 H 0.35048 0.73194 0.96733 0.0
H2236 H 0.36532 0.6991 0.02127 0.0
H2237 H 0.36417 0.70928 -0.01015 0.0
H2238 H 0.38525 0.76182 0.00586 0.0
H2239 H 0.38601 0.75164 0.03763 0.0
C2240 C 0.39883 0.74604 0.95146 0.0
C2241 C 0.38577 0.74027 0.93874 0.0
C2242 C 0.3946 0.74654 0.96991 0.0
C2243 C 0.37734 0.74085 0.97595 0.0
C2244 C 0.36389 0.73639 0.96303 0.0
C2245 C 0.36807 0.73616 0.94455 0.0
C2246 C 0.36924 0.71298 0.01815 0.0
C2247 C 0.37582 0.72456 0.03183 0.0
C2248 C 0.36847 0.71886 0.00018 0.0
C2249 C 0.37462 0.73635 -0.0046 0.0
C2250 C 0.3804 0.74828 0.0092 0.0
C2251 C 0.38077 0.74249 0.02733 0.0
H2252 H 0.23159 0.35709 0.03243 0.0
H2253 H 0.17418 0.36172 0.0214 0.0
H2254 H 0.23775 0.35861 -0.00017 0.0
H2255 H 0.18039 0.36307 -0.01094 0.0
H2256 H 0.20073 0.39937 0.94345 0.0
H2257 H 0.19712 0.39077 0.97488 0.0
H2258 H 0.23066 0.34423 0.96666 0.0
H2259 H 0.23428 0.35281 0.93453 0.0
C2260 C 0.22026 0.35788 0.02307 0.0
C2261 C 0.20241 0.35969 0.02949 0.0
C2262 C 0.22381 0.35871 0.00443 0.0
C2263 C 0.20957 0.36131 -0.00795 0.0
C2264 C 0.19164 0.36138 -0.00159 0.0
C2265 C 0.18809 0.36059 0.01692 0.0
C2266 C 0.20744 0.38731 0.9482 0.0
C2267 C 0.21759 0.37663 0.93637 0.0
C2268 C 0.20527 0.38234 0.96623 0.0
C2269 C 0.21323 0.36661 0.97304 0.0
C2270 C 0.22424 0.35633 0.96161 0.0
C2271 C 0.22634 0.36128 0.94331 0.0
H2272 H 0.01491 0.59019 0.77991 0.0
H2273 H 0.03355 0.61385 0.7295 0.0
H2274 H 0.98372 0.5922 0.76952 0.0
H2275 H 0.00216 0.61651 0.71933 0.0
H2276 H 0.94866 0.59091 0.69783 0.0
H2277 H 0.97937 0.59584 0.70901 0.0
H2278 H 0.95835 0.60999 0.76159 0.0
H2279 H 0.92749 0.60441 0.75051 0.0
C2280 C 0.01234 0.59623 0.76676 0.0
C2281 C 0.02678 0.60165 0.75546 0.0
C2282 C -0.00563 0.59749 0.76083 0.0
C2283 C -0.00965 0.60435 0.74348 0.0
C2284 C 0.00476 0.6108 0.73261 0.0
C2285 C 0.02277 0.6094 0.7385 0.0
C2286 C 0.95053 0.59525 0.71174 0.0
C2287 C 0.93559 0.59707 0.72332 0.0
C2288 C 0.96821 0.59824 0.71813 0.0
C2289 C 0.97142 0.60326 0.73625 0.0
C2290 C 0.95642 0.60583 0.74764 0.0
C2291 C 0.93871 0.60272 0.74127 0.0
H2292 H 0.36057 0.93813 0.70041 0.0
H2293 H 0.39555 0.93875 0.74746 0.0
H2294 H 0.35853 0.97097 0.70161 0.0
H2295 H 0.39416 0.97198 0.7483 0.0
H2296 H 0.38241 0.03376 0.74577 0.0
H2297 H 0.37671 0.00116 0.75067 0.0
H2298 H 0.38262 -0.00794 0.69321 0.0
H2299 H 0.388 0.02406 0.68834 0.0
C2300 C 0.36751 0.94534 0.71127 0.0
C2301 C 0.37834 0.93602 0.72374 0.0
C2302 C 0.36645 0.96414 0.7119 0.0
C2303 C 0.37657 0.97412 0.72475 0.0
C2304 C 0.3862 0.96468 0.73824 0.0
C2305 C 0.38701 0.94569 0.73777 0.0
C2306 C 0.38227 0.02475 0.73421 0.0
C2307 C 0.38568 0.03152 0.71667 0.0
C2308 C 0.37909 0.00611 0.73703 0.0
C2309 C 0.37902 -0.00596 0.72231 0.0
C2310 C 0.38218 0.00097 0.70482 0.0
C2311 C 0.38545 0.01939 0.70205 0.0
H2312 H 0.00899 0.36125 0.77664 0.0
H2313 H 0.02287 0.3759 0.72166 0.0
H2314 H 0.9773 0.35732 0.76774 0.0
H2315 H -0.00888 0.37308 0.71289 0.0
H2316 H 0.93435 0.35833 0.69776 0.0
H2317 H 0.96582 0.35517 0.70712 0.0
H2318 H 0.95224 0.37453 0.76058 0.0
H2319 H 0.92052 0.37652 0.75137 0.0
C2320 C 0.00524 0.36356 0.76261 0.0
C2321 C 0.01839 0.36892 0.74984 0.0
C2322 C -0.01298 0.36149 0.75753 0.0
C2323 C 0.98145 0.36508 0.73962 0.0
C2324 C -0.0052 0.36988 0.72674 0.0
C2325 C 0.01307 0.37159 0.73176 0.0
C2326 C 0.9381 0.36168 0.71158 0.0
C2327 C 0.92504 0.36778 0.72382 0.0
C2328 C 0.95619 0.36001 0.71693 0.0
C2329 C 0.96179 0.36484 0.73456 0.0
C2330 C 0.94852 0.37042 0.74697 0.0
C2331 C 0.93031 0.37168 0.7417 0.0
H2332 H 0.61599 0.93826 0.73699 0.0
H2333 H 0.59496 0.94602 0.79095 0.0
H2334 H 0.62349 0.97077 0.73515 0.0
H2335 H 0.60185 0.97797 0.78894 0.0
H2336 H 0.62312 0.03256 0.78958 0.0
H2337 H 0.62566 -0.00025 0.78875 0.0
H2338 H 0.60805 -0.00027 0.73276 0.0
H2339 H 0.60655 0.03284 0.73342 0.0
C2340 C 0.61308 0.94682 0.74847 0.0
C2341 C 0.60485 0.9395 0.7641 0.0
C2342 C 0.61731 0.96544 0.74738 0.0
C2343 C 0.61347 0.97701 0.76196 0.0
C2344 C 0.60548 0.96951 0.7776 0.0
C2345 C 0.60131 0.95108 0.77868 0.0
C2346 C 0.62034 0.02556 0.77695 0.0
C2347 C 0.61447 0.03514 0.76163 0.0
C2348 C 0.62162 0.00675 0.77649 0.0
C2349 C 0.61651 -0.00299 0.76085 0.0
C2350 C 0.61209 0.00676 0.74503 0.0
C2351 C 0.6112 0.02572 0.74539 0.0
H2352 H 0.93946 0.3586 0.24482 0.0
H2353 H 0.95861 0.38471 0.1958 0.0
H2354 H 0.97076 0.35307 0.25387 0.0
H2355 H -0.01025 0.37984 0.20514 0.0
H2356 H 0.04569 0.36501 0.22293 0.0
H2357 H 0.01463 0.36078 0.21171 0.0
H2358 H -0.0058 0.37231 0.26519 0.0
H2359 H 0.02495 0.37588 0.27642 0.0
C2360 C 0.95032 0.36294 0.23585 0.0
C2361 C 0.94651 0.37234 0.21972 0.0
C2362 C 0.96828 0.35989 0.2411 0.0
C2363 C 0.98285 0.36631 0.23041 0.0
C2364 C 0.97896 0.37458 0.21368 0.0
C2365 C 0.96102 0.37749 0.20837 0.0
C2366 C 0.03455 0.36638 0.23232 0.0
C2367 C 0.03784 0.37096 0.25053 0.0
C2368 C 0.01673 0.36403 0.22588 0.0
C2369 C 0.00184 0.36627 0.23751 0.0
C2370 C 0.00524 0.37016 0.25586 0.0
C2371 C 0.02297 0.37241 0.26229 0.0
H2372 H 0.60978 0.03084 0.27007 0.0
H2373 H 0.57189 0.03013 0.22534 0.0
H2374 H 0.61291 -0.00186 0.26778 0.0
H2375 H 0.57438 -0.00296 0.22343 0.0
H2376 H 0.58745 0.93592 0.22322 0.0
H2377 H 0.5923 0.9687 0.21905 0.0
H2378 H 0.5904 0.97587 0.2771 0.0
H2379 H 0.58585 0.94361 0.28123 0.0
C2380 C 0.60247 0.02365 0.25944 0.0
C2381 C 0.59054 0.03287 0.24794 0.0
C2382 C 0.60413 0.00493 0.25821 0.0
C2383 C 0.59354 -0.00507 0.24574 0.0
C2384 C 0.58274 0.00436 0.23317 0.0
C2385 C 0.5813 0.02327 0.23423 0.0
C2386 C 0.58832 0.94454 0.23505 0.0
C2387 C 0.58622 0.93715 0.25256 0.0
C2388 C 0.591 0.96329 0.23266 0.0
C2389 C 0.59189 0.97489 0.24774 0.0
C2390 C 0.59017 0.96734 0.26518 0.0
C2391 C 0.58738 0.94879 0.26755 0.0
H2392 H 0.028 0.58892 0.27151 0.0
H2393 H 0.05012 0.6009 0.21854 0.0
H2394 H -0.00246 0.59308 0.25977 0.0
H2395 H 0.01939 0.60535 0.20681 0.0
H2396 H 0.96058 0.58518 0.19083 0.0
H2397 H -0.00775 0.58648 0.20044 0.0
H2398 H 0.97721 0.61611 0.24828 0.0
H2399 H 0.94548 0.61453 0.23888 0.0
C2400 C 0.02639 0.59258 0.25737 0.0
C2401 C 0.04153 0.59449 0.24595 0.0
C2402 C 0.00889 0.59514 0.25067 0.0
C2403 C 0.00603 0.59966 0.23238 0.0
C2404 C 0.02116 0.60177 0.22095 0.0
C2405 C 0.03875 0.59927 0.22769 0.0
C2406 C 0.96404 0.59224 0.20325 0.0
C2407 C 0.95044 0.59953 0.21421 0.0
C2408 C 0.98224 0.59305 0.20871 0.0
C2409 C -0.01278 0.60117 0.22525 0.0
C2410 C 0.97376 0.60944 0.23564 0.0
C2411 C 0.95557 0.60862 0.23019 0.0
H2412 H 0.37954 0.02368 0.17537 0.0
H2413 H 0.35285 0.03075 0.22684 0.0
H2414 H 0.37346 -0.0085 0.17687 0.0
H2415 H 0.34618 -0.0019 0.22809 0.0
H2416 H 0.36374 0.93669 0.23234 0.0
H2417 H 0.36201 0.96978 0.23233 0.0
H2418 H 0.35044 0.96898 0.17482 0.0
H2419 H 0.35313 0.93618 0.17477 0.0
C2420 C 0.3721 0.01841 0.18693 0.0
C2421 C 0.36673 0.02986 0.20101 0.0
C2422 C 0.36844 -0.00014 0.18771 0.0
C2423 C 0.35913 -0.00786 0.20252 0.0
C2424 C 0.35344 0.00359 0.21653 0.0
C2425 C 0.35719 0.02229 0.21577 0.0
C2426 C 0.36041 0.94363 0.21983 0.0
C2427 C 0.35885 0.93398 0.2035 0.0
C2428 C 0.35938 0.96258 0.2198 0.0
C2429 C 0.35653 0.9721 0.20348 0.0
C2430 C 0.35324 0.96215 0.18753 0.0
C2431 C 0.35463 0.94335 0.1875 0.0
H2432 H 0.70685 0.01934 0.5865 0.0
H2433 H 0.76332 0.00955 0.59781 0.0
H2434 H 0.69989 -0.01276 0.59035 0.0
H2435 H 0.75634 0.9776 0.60304 0.0
H2436 H 0.74296 0.92025 0.58299 0.0
H2437 H 0.75012 0.95242 0.58576 0.0
H2438 H 0.69647 0.9613 0.60731 0.0
H2439 H 0.68907 0.92932 0.60322 0.0
C2440 C 0.71765 0.01036 0.59045 0.0
C2441 C 0.73562 0.01681 0.59169 0.0
C2442 C 0.7137 -0.0081 0.59274 0.0
C2443 C 0.7276 0.9796 0.59675 0.0
C2444 C 0.74536 -0.01354 0.59938 0.0
C2445 C 0.74936 0.00481 0.59661 0.0
C2446 C 0.73281 0.92911 0.58845 0.0
C2447 C 0.71542 0.9224 0.59267 0.0
C2448 C 0.73691 0.94758 0.59021 0.0
C2449 C 0.72384 0.95967 0.59667 0.0
C2450 C 0.70674 0.95262 0.60182 0.0
C2451 C 0.70252 0.93425 0.5996 0.0
H2452 H 0.73053 0.03249 0.36148 0.0
H2453 H 0.78761 0.02444 0.37132 0.0
H2454 H 0.72605 0.00017 0.35707 0.0
H2455 H 0.78347 -0.0079 0.36583 0.0
H2456 H 0.76299 0.93473 0.38308 0.0
H2457 H 0.7719 0.96659 0.38038 0.0
H2458 H 0.72949 0.97423 0.34041 0.0
H2459 H 0.71993 0.94271 0.34427 0.0
C2460 C 0.74222 0.02384 0.36221 0.0
C2461 C 0.75936 0.03098 0.36693 0.0
C2462 C 0.73972 0.00522 0.35955 0.0
C2463 C 0.75439 -0.0067 0.36115 0.0
C2464 C 0.77175 0.00069 0.36488 0.0
C2465 C 0.77417 0.01927 0.36791 0.0
C2466 C 0.75596 0.94318 0.37339 0.0
C2467 C 0.74075 0.93639 0.36396 0.0
C2468 C 0.76103 0.9615 0.37179 0.0
C2469 C 0.75119 0.97326 0.36044 0.0
C2470 C 0.73702 0.96585 0.34976 0.0
C2471 C 0.73168 0.94771 0.35174 0.0
H2472 H 0.94605 0.70466 0.37977 0.0
H2473 H 0.92974 0.7597 0.3694 0.0
H2474 H 0.97768 0.71415 0.37842 0.0
H2475 H 0.9617 0.76919 0.36772 0.0
H2476 H 0.0189 0.78 0.39389 0.0
H2477 H -0.01305 0.77258 0.3891 0.0
H2478 H 0.00163 0.7252 0.3587 0.0
H2479 H 0.0337 0.73239 0.36383 0.0
C2480 C 0.9492 0.71879 0.37701 0.0
C2481 C 0.93531 0.73145 0.37484 0.0
C2482 C 0.9674 0.7242 0.37606 0.0
C2483 C 0.97226 0.74242 0.37292 0.0
C2484 C 0.9584 0.75506 0.37031 0.0
C2485 C 0.9401 0.74962 0.37121 0.0
C2486 C 0.01536 0.76811 0.38598 0.0
C2487 C 0.02889 0.75665 0.37946 0.0
C2488 C -0.00301 0.76394 0.38312 0.0
C2489 C -0.00829 0.74821 0.37366 0.0
C2490 C 0.00525 0.73726 0.36631 0.0
C2491 C 0.02364 0.74143 0.36918 0.0
H2492 H 0.28572 0.0325 0.39197 0.0
H2493 H 0.23425 0.04597 0.36749 0.0
H2494 H 0.2782 0.00043 0.389 0.0
H2495 H 0.22693 0.0138 0.36411 0.0
H2496 H 0.21093 0.95819 0.38935 0.0
H2497 H 0.21895 -0.01013 0.38502 0.0
H2498 H 0.27283 0.97507 0.36842 0.0
H2499 H 0.26486 0.94307 0.37319 0.0
C2500 C 0.27288 0.02863 0.38576 0.0
C2501 C 0.26048 0.04182 0.38019 0.0
C2502 C 0.26866 0.01021 0.38388 0.0
C2503 C 0.25196 0.00454 0.37634 0.0
C2504 C 0.23982 0.01773 0.37019 0.0
C2505 C 0.24402 0.03617 0.37212 0.0
C2506 C 0.22443 0.96162 0.38453 0.0
C2507 C 0.23734 0.94811 0.38184 0.0
C2508 C 0.22899 0.97983 0.3819 0.0
C2509 C 0.24658 -0.01496 0.37651 0.0
C2510 C 0.25924 0.97149 0.37284 0.0
C2511 C 0.25464 0.95316 0.37543 0.0
H2512 H 0.03823 0.26567 0.38565 0.0
H2513 H 0.04896 0.20999 0.37208 0.0
H2514 H 0.00597 0.25995 0.38165 0.0
H2515 H 0.01644 0.20436 0.3676 0.0
H2516 H 0.94917 0.24906 0.36237 0.0
H2517 H 0.98202 0.25352 0.36027 0.0
H2518 H -0.01012 0.20178 0.38644 0.0
H2519 H 0.95724 0.1971 0.38809 0.0
C2520 C 0.03373 0.25221 0.3816 0.0
C2521 C 0.04623 0.23823 0.37934 0.0
C2522 C 0.01517 0.249 0.37913 0.0
C2523 C 0.00855 0.23171 0.37428 0.0
C2524 C 0.02107 0.2178 0.37155 0.0
C2525 C 0.03972 0.22102 0.37405 0.0
C2526 C 0.95791 0.23854 0.36744 0.0
C2527 C 0.95054 0.22282 0.37555 0.0
C2528 C 0.97675 0.24113 0.36634 0.0
C2529 C -0.01138 0.22807 0.37334 0.0
C2530 C 0.9812 0.21203 0.38074 0.0
C2531 C 0.96242 0.20943 0.3818 0.0
H2532 H 0.26499 0.02803 0.59907 0.0
H2533 H 0.2089 0.04414 0.59827 0.0
H2534 H 0.25559 -0.00333 0.6023 0.0
H2535 H 0.19937 0.01235 0.60204 0.0
H2536 H 0.19269 0.95316 0.58036 0.0
H2537 H 0.19894 -0.0146 0.5836 0.0
H2538 H 0.24235 0.97391 0.62128 0.0
H2539 H 0.23645 0.94149 0.61757 0.0
C2540 C 0.25059 0.02492 0.59983 0.0
C2541 C 0.23769 0.03866 0.5982 0.0
C2542 C 0.24519 0.00684 0.6019 0.0
C2543 C 0.22671 0.00189 0.60245 0.0
C2544 C 0.21374 0.01567 0.60147 0.0
C2545 C 0.21917 0.03389 0.59941 0.0
C2546 C 0.20345 0.95747 0.58951 0.0
C2547 C 0.21425 0.94467 0.5985 0.0
C2548 C 0.20693 0.97603 0.59149 0.0
C2549 C 0.22127 0.98232 0.60257 0.0
C2550 C 0.23142 0.96954 0.61235 0.0
C2551 C 0.22799 0.95094 0.6103 0.0
H2552 H 0.93775 0.23513 0.61323 0.0
H2553 H 0.95536 0.18641 0.58676 0.0
H2554 H 0.96937 0.24395 0.61875 0.0
H2555 H -0.01319 0.19549 0.59174 0.0
H2556 H 0.04354 0.21356 0.6069 0.0
H2557 H 0.01243 0.20215 0.61139 0.0
H2558 H -0.00798 0.25513 0.59823 0.0
H2559 H 0.0227 0.26649 0.59421 0.0
C2560 C 0.94832 0.22616 0.60884 0.0
C2561 C 0.944 0.21023 0.59927 0.0
C2562 C 0.96646 0.23126 0.61191 0.0
C2563 C 0.98066 0.22059 0.6054 0.0
C2564 C 0.97628 0.20401 0.59704 0.0
C2565 C 0.95818 0.19887 0.59405 0.0
C2566 C 0.03238 0.22278 0.60522 0.0
C2567 C 0.03562 0.24088 0.60001 0.0
C2568 C 0.01457 0.21624 0.60775 0.0
C2569 C -0.00031 0.22772 0.60518 0.0
C2570 C 0.00308 0.24595 0.60064 0.0
C2571 C 0.02076 0.25243 0.59811 0.0
H2572 H 0.02169 0.7232 0.61797 0.0
H2573 H 0.00759 0.77179 0.58865 0.0
H2574 H -0.0105 0.71676 0.62325 0.0
H2575 H 0.97572 0.76501 0.59318 0.0
H2576 H 0.91805 0.75231 0.60496 0.0
H2577 H 0.94954 0.76142 0.61128 0.0
H2578 H 0.96598 0.70598 0.60422 0.0
H2579 H 0.93482 0.6969 0.59871 0.0
C2580 C 0.01177 0.73261 0.61285 0.0
C2581 C 0.01723 0.74783 0.60262 0.0
C2582 C -0.0067 0.72888 0.61578 0.0
C2583 C 0.97992 0.7402 0.6084 0.0
C2584 C -0.01448 0.75604 0.59923 0.0
C2585 C 0.00391 0.75983 0.59645 0.0
C2586 C 0.92838 0.74206 0.60512 0.0
C2587 C 0.92393 0.72395 0.60104 0.0
C2588 C 0.94644 0.74727 0.60866 0.0
C2589 C 0.96041 0.73448 0.60809 0.0
C2590 C 0.95569 0.71622 0.60503 0.0
C2591 C 0.93773 0.71103 0.60163 0.0
loop_
_geom_bond_atom_site_label_1
_geom_bond_atom_site_label_2
_geom_bond_distance
_geom_bond_site_symmetry_2
_ccdc_geom_bond_type
Zn0 O3 2.031 . S
Zn0 O5 2.049 . S
Zn0 O10 2.067 . S
Zn1 O2 1.962 . S
Zn1 O4 1.986 . S
Zn1 O6 1.996 . S
Zn1 O9 1.943 . S
O2 Zn1 1.962 . S
O2 C7 1.254 . S
O3 Zn0 2.031 . S
O3 C7 1.269 . S
O4 Zn1 1.986 . S
O4 C11 1.262 . S
O5 Zn0 2.049 . S
O5 C13 1.260 . S
O6 Zn1 1.996 . S
O6 C13 1.257 . S
C7 O2 1.254 . S
C7 O3 1.269 . S
C8 O9 1.249 . S
C8 O10 1.270 . S
O9 Zn1 1.943 . S
O9 C8 1.249 . S
O10 Zn0 2.067 . S
O10 C8 1.270 . S
C11 O4 1.262 . S
C11 O12 1.232 . S
O12 C11 1.232 . S
C13 O5 1.260 . S
C13 O6 1.257 . S
Zn14 O17 2.031 . S
Zn14 O19 2.049 . S
Zn14 O24 2.067 . S
Zn15 O16 1.962 . S
Zn15 O18 1.986 . S
Zn15 O20 1.996 . S
Zn15 O23 1.943 . S
O16 Zn15 1.962 . S
O16 C21 1.254 . S
O17 Zn14 2.031 . S
O17 C21 1.269 . S
O18 Zn15 1.986 . S
O18 C25 1.262 . S
O19 Zn14 2.049 . S
O19 C27 1.260 . S
O20 Zn15 1.996 . S
O20 C27 1.257 . S
C21 O16 1.254 . S
C21 O17 1.269 . S
C22 O23 1.249 . S
C22 O24 1.270 . S
O23 Zn15 1.943 . S
O23 C22 1.249 . S
O24 Zn14 2.067 . S
O24 C22 1.270 . S
C25 O18 1.262 . S
C25 O26 1.232 . S
O26 C25 1.232 . S
C27 O19 1.260 . S
C27 O20 1.257 . S
Zn28 O31 2.031 . S
Zn28 O33 2.049 . S
Zn28 O38 2.067 . S
Zn29 O30 1.962 . S
Zn29 O32 1.986 . S
Zn29 O34 1.996 . S
Zn29 O37 1.943 . S
O30 Zn29 1.962 . S
O30 C35 1.254 . S
O31 Zn28 2.031 . S
O31 C35 1.269 . S
O32 Zn29 1.986 . S
O32 C39 1.262 . S
O33 Zn28 2.049 . S
O33 C41 1.260 . S
O34 Zn29 1.996 . S
O34 C41 1.257 . S
C35 O30 1.254 . S
C35 O31 1.269 . S
C36 O37 1.249 . S
C36 O38 1.270 . S
O37 Zn29 1.943 . S
O37 C36 1.249 . S
O38 Zn28 2.067 . S
O38 C36 1.270 . S
C39 O32 1.262 . S
C39 O40 1.232 . S
O40 C39 1.232 . S
C41 O33 1.260 . S
C41 O34 1.257 . S
Zn42 O45 2.031 . S
Zn42 O47 2.049 . S
Zn42 O52 2.067 . S
Zn43 O44 1.962 . S
Zn43 O46 1.986 . S
Zn43 O48 1.996 . S
Zn43 O51 1.943 . S
O44 Zn43 1.962 . S
O44 C49 1.254 . S
O45 Zn42 2.031 . S
O45 C49 1.269 . S
O46 Zn43 1.986 . S
O46 C53 1.262 . S
O47 Zn42 2.049 . S
O47 C55 1.260 . S
O48 Zn43 1.996 . S
O48 C55 1.257 . S
C49 O44 1.254 . S
C49 O45 1.269 . S
C50 O51 1.249 . S
C50 O52 1.270 . S
O51 Zn43 1.943 . S
O51 C50 1.249 . S
O52 Zn42 2.067 . S
O52 C50 1.270 . S
C53 O46 1.262 . S
C53 O54 1.232 . S
O54 C53 1.232 . S
C55 O47 1.260 . S
C55 O48 1.257 . S
Zn56 O59 2.031 . S
Zn56 O61 2.049 . S
Zn56 O66 2.067 . S
Zn57 O58 1.962 . S
Zn57 O60 1.986 . S
Zn57 O62 1.996 . S
Zn57 O65 1.943 . S
O58 Zn57 1.962 . S
O58 C63 1.254 . S
O59 Zn56 2.031 . S
O59 C63 1.269 . S
O60 Zn57 1.986 . S
O60 C67 1.262 . S
O61 Zn56 2.049 . S
O61 C69 1.260 . S
O62 Zn57 1.996 . S
O62 C69 1.257 . S
C63 O58 1.254 . S
C63 O59 1.269 . S
C64 O65 1.249 . S
C64 O66 1.270 . S
O65 Zn57 1.943 . S
O65 C64 1.249 . S
O66 Zn56 2.067 . S
O66 C64 1.270 . S
C67 O60 1.262 . S
C67 O68 1.232 . S
O68 C67 1.232 . S
C69 O61 1.260 . S
C69 O62 1.257 . S
Zn70 O73 2.031 . S
Zn70 O75 2.049 . S
Zn70 O80 2.067 . S
Zn71 O72 1.962 . S
Zn71 O74 1.986 . S
Zn71 O76 1.996 . S
Zn71 O79 1.943 . S
O72 Zn71 1.962 . S
O72 C77 1.254 . S
O73 Zn70 2.031 . S
O73 C77 1.269 . S
O74 Zn71 1.986 . S
O74 C81 1.262 . S
O75 Zn70 2.049 . S
O75 C83 1.260 . S
O76 Zn71 1.996 . S
O76 C83 1.257 . S
C77 O72 1.254 . S
C77 O73 1.269 . S
C78 O79 1.249 . S
C78 O80 1.270 . S
O79 Zn71 1.943 . S
O79 C78 1.249 . S
O80 Zn70 2.067 . S
O80 C78 1.270 . S
C81 O74 1.262 . S
C81 O82 1.232 . S
O82 C81 1.232 . S
C83 O75 1.260 . S
C83 O76 1.257 . S
Zn84 O87 2.031 . S
Zn84 O89 2.049 . S
Zn84 O94 2.067 . S
Zn85 O86 1.962 . S
Zn85 O88 1.986 . S
Zn85 O90 1.996 . S
Zn85 O93 1.943 . S
O86 Zn85 1.962 . S
O86 C91 1.254 . S
O87 Zn84 2.031 . S
O87 C91 1.269 . S
O88 Zn85 1.986 . S
O88 C95 1.262 . S
O89 Zn84 2.049 . S
O89 C97 1.260 . S
O90 Zn85 1.996 . S
O90 C97 1.257 . S
C91 O86 1.254 . S
C91 O87 1.269 . S
C92 O93 1.249 . S
C92 O94 1.270 . S
O93 Zn85 1.943 . S
O93 C92 1.249 . S
O94 Zn84 2.067 . S
O94 C92 1.270 . S
C95 O88 1.262 . S
C95 O96 1.232 . S
O96 C95 1.232 . S
C97 O89 1.260 . S
C97 O90 1.257 . S
Zn98 O101 2.031 . S
Zn98 O103 2.049 . S
Zn98 O108 2.067 . S
Zn99 O100 1.962 . S
Zn99 O102 1.986 . S
Zn99 O104 1.996 . S
Zn99 O107 1.943 . S
O100 Zn99 1.962 . S
O100 C105 1.254 . S
O101 Zn98 2.031 . S
O101 C105 1.269 . S
O102 Zn99 1.986 . S
O102 C109 1.262 . S
O103 Zn98 2.049 . S
O103 C111 1.260 . S
O104 Zn99 1.996 . S
O104 C111 1.257 . S
C105 O100 1.254 . S
C105 O101 1.269 . S
C106 O107 1.249 . S
C106 O108 1.270 . S
O107 Zn99 1.943 . S
O107 C106 1.249 . S
O108 Zn98 2.067 . S
O108 C106 1.270 . S
C109 O102 1.262 . S
C109 O110 1.232 . S
O110 C109 1.232 . S
C111 O103 1.260 . S
C111 O104 1.257 . S
Zn112 O115 2.031 . S
Zn112 O117 2.049 . S
Zn112 O122 2.067 . S
Zn113 O114 1.962 . S
Zn113 O116 1.986 . S
Zn113 O118 1.996 . S
Zn113 O121 1.943 . S
O114 Zn113 1.962 . S
O114 C119 1.254 . S
O115 Zn112 2.031 . S
O115 C119 1.269 . S
O116 Zn113 1.986 . S
O116 C123 1.262 . S
O117 Zn112 2.049 . S
O117 C125 1.260 . S
O118 Zn113 1.996 . S
O118 C125 1.257 . S
C119 O114 1.254 . S
C119 O115 1.269 . S
C120 O121 1.249 . S
C120 O122 1.270 . S
O121 Zn113 1.943 . S
O121 C120 1.249 . S
O122 Zn112 2.067 . S
O122 C120 1.270 . S
C123 O116 1.262 . S
C123 O124 1.232 . S
O124 C123 1.232 . S
C125 O117 1.260 . S
C125 O118 1.257 . S
Zn126 O129 2.031 . S
Zn126 O131 2.049 . S
Zn126 O136 2.067 . S
Zn127 O128 1.962 . S
Zn127 O130 1.986 . S
Zn127 O132 1.996 . S
Zn127 O135 1.943 . S
O128 Zn127 1.962 . S
O128 C133 1.254 . S
O129 Zn126 2.031 . S
O129 C133 1.269 . S
O130 Zn127 1.986 . S
O130 C137 1.262 . S
O131 Zn126 2.049 . S
O131 C139 1.260 . S
O132 Zn127 1.996 . S
O132 C139 1.257 . S
C133 O128 1.254 . S
C133 O129 1.269 . S
C134 O135 1.249 . S
C134 O136 1.270 . S
O135 Zn127 1.943 . S
O135 C134 1.249 . S
O136 Zn126 2.067 . S
O136 C134 1.270 . S
C137 O130 1.262 . S
C137 O138 1.232 . S
O138 C137 1.232 . S
C139 O131 1.260 . S
C139 O132 1.257 . S
Zn140 O143 2.031 . S
Zn140 O145 2.049 . S
Zn140 O150 2.067 . S
Zn141 O142 1.962 . S
Zn141 O144 1.986 . S
Zn141 O146 1.996 . S
Zn141 O149 1.943 . S
O142 Zn141 1.962 . S
O142 C147 1.254 . S
O143 Zn140 2.031 . S
O143 C147 1.269 . S
O144 Zn141 1.986 . S
O144 C151 1.262 . S
O145 Zn140 2.049 . S
O145 C153 1.260 . S
O146 Zn141 1.996 . S
O146 C153 1.257 . S
C147 O142 1.254 . S
C147 O143 1.269 . S
C148 O149 1.249 . S
C148 O150 1.270 . S
O149 Zn141 1.943 . S
O149 C148 1.249 . S
O150 Zn140 2.067 . S
O150 C148 1.270 . S
C151 O144 1.262 . S
C151 O152 1.232 . S
O152 C151 1.232 . S
C153 O145 1.260 . S
C153 O146 1.257 . S
Zn154 O157 2.031 . S
Zn154 O159 2.049 . S
Zn154 O164 2.067 . S
Zn155 O156 1.962 . S
Zn155 O158 1.986 . S
Zn155 O160 1.996 . S
Zn155 O163 1.943 . S
O156 Zn155 1.962 . S
O156 C161 1.254 . S
O157 Zn154 2.031 . S
O157 C161 1.269 . S
O158 Zn155 1.986 . S
O158 C165 1.262 . S
O159 Zn154 2.049 . S
O159 C167 1.260 . S
O160 Zn155 1.996 . S
O160 C167 1.257 . S
C161 O156 1.254 . S
C161 O157 1.269 . S
C162 O163 1.249 . S
C162 O164 1.270 . S
O163 Zn155 1.943 . S
O163 C162 1.249 . S
O164 Zn154 2.067 . S
O164 C162 1.270 . S
C165 O158 1.262 . S
C165 O166 1.232 . S
O166 C165 1.232 . S
C167 O159 1.260 . S
C167 O160 1.257 . S
Zn168 O171 2.031 . S
Zn168 O173 2.049 . S
Zn168 O178 2.067 . S
Zn169 O170 1.962 . S
Zn169 O172 1.986 . S
Zn169 O174 1.996 . S
Zn169 O177 1.943 . S
O170 Zn169 1.962 . S
O170 C175 1.254 . S
O171 Zn168 2.031 . S
O171 C175 1.269 . S
O172 Zn169 1.986 . S
O172 C179 1.262 . S
O173 Zn168 2.049 . S
O173 C181 1.260 . S
O174 Zn169 1.996 . S
O174 C181 1.257 . S
C175 O170 1.254 . S
C175 O171 1.269 . S
C176 O177 1.249 . S
C176 O178 1.270 . S
O177 Zn169 1.943 . S
O177 C176 1.249 . S
O178 Zn168 2.067 . S
O178 C176 1.270 . S
C179 O172 1.262 . S
C179 O180 1.232 . S
O180 C179 1.232 . S
C181 O173 1.260 . S
C181 O174 1.257 . S
Zn182 O185 2.031 . S
Zn182 O187 2.049 . S
Zn182 O192 2.067 . S
Zn183 O184 1.962 . S
Zn183 O186 1.986 . S
Zn183 O188 1.996 . S
Zn183 O191 1.943 . S
O184 Zn183 1.962 . S
O184 C189 1.254 . S
O185 Zn182 2.031 . S
O185 C189 1.269 . S
O186 Zn183 1.986 . S
O186 C193 1.262 . S
O187 Zn182 2.049 . S
O187 C195 1.260 . S
O188 Zn183 1.996 . S
O188 C195 1.257 . S
C189 O184 1.254 . S
C189 O185 1.269 . S
C190 O191 1.249 . S
C190 O192 1.270 . S
O191 Zn183 1.943 . S
O191 C190 1.249 . S
O192 Zn182 2.067 . S
O192 C190 1.270 . S
C193 O186 1.262 . S
C193 O194 1.232 . S
O194 C193 1.232 . S
C195 O187 1.260 . S
C195 O188 1.257 . S
Zn196 O199 2.031 . S
Zn196 O201 2.049 . S
Zn196 O206 2.067 . S
Zn197 O198 1.962 . S
Zn197 O200 1.986 . S
Zn197 O202 1.996 . S
Zn197 O205 1.943 . S
O198 Zn197 1.962 . S
O198 C203 1.254 . S
O199 Zn196 2.031 . S
O199 C203 1.269 . S
O200 Zn197 1.986 . S
O200 C207 1.262 . S
O201 Zn196 2.049 . S
O201 C209 1.260 . S
O202 Zn197 1.996 . S
O202 C209 1.257 . S
C203 O198 1.254 . S
C203 O199 1.269 . S
C204 O205 1.249 . S
C204 O206 1.270 . S
O205 Zn197 1.943 . S
O205 C204 1.249 . S
O206 Zn196 2.067 . S
O206 C204 1.270 . S
C207 O200 1.262 . S
C207 O208 1.232 . S
O208 C207 1.232 . S
C209 O201 1.260 . S
C209 O202 1.257 . S
Zn210 O213 2.031 . S
Zn210 O215 2.049 . S
Zn210 O220 2.067 . S
Zn211 O212 1.962 . S
Zn211 O214 1.986 . S
Zn211 O216 1.996 . S
Zn211 O219 1.943 . S
O212 Zn211 1.962 . S
O212 C217 1.254 . S
O213 Zn210 2.031 . S
O213 C217 1.269 . S
O214 Zn211 1.986 . S
O214 C221 1.262 . S
O215 Zn210 2.049 . S
O215 C223 1.260 . S
O216 Zn211 1.996 . S
O216 C223 1.257 . S
C217 O212 1.254 . S
C217 O213 1.269 . S
C218 O219 1.249 . S
C218 O220 1.270 . S
O219 Zn211 1.943 . S
O219 C218 1.249 . S
O220 Zn210 2.067 . S
O220 C218 1.270 . S
C221 O214 1.262 . S
C221 O222 1.232 . S
O222 C221 1.232 . S
C223 O215 1.260 . S
C223 O216 1.257 . S
Zn224 O227 2.031 . S
Zn224 O229 2.049 . S
Zn224 O234 2.067 . S
Zn225 O226 1.962 . S
Zn225 O228 1.986 . S
Zn225 O230 1.996 . S
Zn225 O233 1.943 . S
O226 Zn225 1.962 . S
O226 C231 1.254 . S
O227 Zn224 2.031 . S
O227 C231 1.269 . S
O228 Zn225 1.986 . S
O228 C235 1.262 . S
O229 Zn224 2.049 . S
O229 C237 1.260 . S
O230 Zn225 1.996 . S
O230 C237 1.257 . S
C231 O226 1.254 . S
C231 O227 1.269 . S
C232 O233 1.249 . S
C232 O234 1.270 . S
O233 Zn225 1.943 . S
O233 C232 1.249 . S
O234 Zn224 2.067 . S
O234 C232 1.270 . S
C235 O228 1.262 . S
C235 O236 1.232 . S
O236 C235 1.232 . S
C237 O229 1.260 . S
C237 O230 1.257 . S
Zn238 O241 2.031 . S
Zn238 O243 2.049 . S
Zn238 O248 2.067 . S
Zn239 O240 1.962 . S
Zn239 O242 1.986 . S
Zn239 O244 1.996 . S
Zn239 O247 1.943 . S
O240 Zn239 1.962 . S
O240 C245 1.254 . S
O241 Zn238 2.031 . S
O241 C245 1.269 . S
O242 Zn239 1.986 . S
O242 C249 1.262 . S
O243 Zn238 2.049 . S
O243 C251 1.260 . S
O244 Zn239 1.996 . S
O244 C251 1.257 . S
C245 O240 1.254 . S
C245 O241 1.269 . S
C246 O247 1.249 . S
C246 O248 1.270 . S
O247 Zn239 1.943 . S
O247 C246 1.249 . S
O248 Zn238 2.067 . S
O248 C246 1.270 . S
C249 O242 1.262 . S
C249 O250 1.232 . S
O250 C249 1.232 . S
C251 O243 1.260 . S
C251 O244 1.257 . S
Zn252 O255 2.031 . S
Zn252 O257 2.049 . S
Zn252 O262 2.067 . S
Zn253 O254 1.962 . S
Zn253 O256 1.986 . S
Zn253 O258 1.996 . S
Zn253 O261 1.943 . S
O254 Zn253 1.962 . S
O254 C259 1.254 . S
O255 Zn252 2.031 . S
O255 C259 1.269 . S
O256 Zn253 1.986 . S
O256 C263 1.262 . S
O257 Zn252 2.049 . S
O257 C265 1.260 . S
O258 Zn253 1.996 . S
O258 C265 1.257 . S
C259 O254 1.254 . S
C259 O255 1.269 . S
C260 O261 1.249 . S
C260 O262 1.270 . S
O261 Zn253 1.943 . S
O261 C260 1.249 . S
O262 Zn252 2.067 . S
O262 C260 1.270 . S
C263 O256 1.262 . S
C263 O264 1.232 . S
O264 C263 1.232 . S
C265 O257 1.260 . S
C265 O258 1.257 . S
Zn266 O269 2.031 . S
Zn266 O271 2.049 . S
Zn266 O276 2.067 . S
Zn267 O268 1.962 . S
Zn267 O270 1.986 . S
Zn267 O272 1.996 . S
Zn267 O275 1.943 . S
O268 Zn267 1.962 . S
O268 C273 1.254 . S
O269 Zn266 2.031 . S
O269 C273 1.269 . S
O270 Zn267 1.986 . S
O270 C277 1.262 . S
O271 Zn266 2.049 . S
O271 C279 1.260 . S
O272 Zn267 1.996 . S
O272 C279 1.257 . S
C273 O268 1.254 . S
C273 O269 1.269 . S
C274 O275 1.249 . S
C274 O276 1.270 . S
O275 Zn267 1.943 . S
O275 C274 1.249 . S
O276 Zn266 2.067 . S
O276 C274 1.270 . S
C277 O270 1.262 . S
C277 O278 1.232 . S
O278 C277 1.232 . S
C279 O271 1.260 . S
C279 O272 1.257 . S
Zn280 O283 2.031 . S
Zn280 O285 2.049 . S
Zn280 O290 2.067 . S
Zn281 O282 1.962 . S
Zn281 O284 1.986 . S
Zn281 O286 1.996 . S
Zn281 O289 1.943 . S
O282 Zn281 1.962 . S
O282 C287 1.254 . S
O283 Zn280 2.031 . S
O283 C287 1.269 . S
O284 Zn281 1.986 . S
O284 C291 1.262 . S
O285 Zn280 2.049 . S
O285 C293 1.260 . S
O286 Zn281 1.996 . S
O286 C293 1.257 . S
C287 O282 1.254 . S
C287 O283 1.269 . S
C288 O289 1.249 . S
C288 O290 1.270 . S
O289 Zn281 1.943 . S
O289 C288 1.249 . S
O290 Zn280 2.067 . S
O290 C288 1.270 . S
C291 O284 1.262 . S
C291 O292 1.232 . S
O292 C291 1.232 . S
C293 O285 1.260 . S
C293 O286 1.257 . S
Zn294 O297 2.031 . S
Zn294 O299 2.049 . S
Zn294 O304 2.067 . S
Zn295 O296 1.962 . S
Zn295 O298 1.986 . S
Zn295 O300 1.996 . S
Zn295 O303 1.943 . S
O296 Zn295 1.962 . S
O296 C301 1.254 . S
O297 Zn294 2.031 . S
O297 C301 1.269 . S
O298 Zn295 1.986 . S
O298 C305 1.262 . S
O299 Zn294 2.049 . S
O299 C307 1.260 . S
O300 Zn295 1.996 . S
O300 C307 1.257 . S
C301 O296 1.254 . S
C301 O297 1.269 . S
C302 O303 1.249 . S
C302 O304 1.270 . S
O303 Zn295 1.943 . S
O303 C302 1.249 . S
O304 Zn294 2.067 . S
O304 C302 1.270 . S
C305 O298 1.262 . S
C305 O306 1.232 . S
O306 C305 1.232 . S
C307 O299 1.260 . S
C307 O300 1.257 . S
Zn308 O311 2.031 . S
Zn308 O313 2.049 . S
Zn308 O318 2.067 . S
Zn309 O310 1.962 . S
Zn309 O312 1.986 . S
Zn309 O314 1.996 . S
Zn309 O317 1.943 . S
O310 Zn309 1.962 . S
O310 C315 1.254 . S
O311 Zn308 2.031 . S
O311 C315 1.269 . S
O312 Zn309 1.986 . S
O312 C319 1.262 . S
O313 Zn308 2.049 . S
O313 C321 1.260 . S
O314 Zn309 1.996 . S
O314 C321 1.257 . S
C315 O310 1.254 . S
C315 O311 1.269 . S
C316 O317 1.249 . S
C316 O318 1.270 . S
O317 Zn309 1.943 . S
O317 C316 1.249 . S
O318 Zn308 2.067 . S
O318 C316 1.270 . S
C319 O312 1.262 . S
C319 O320 1.232 . S
O320 C319 1.232 . S
C321 O313 1.260 . S
C321 O314 1.257 . S
Zn322 O325 2.031 . S
Zn322 O327 2.049 . S
Zn322 O332 2.067 . S
Zn323 O324 1.962 . S
Zn323 O326 1.986 . S
Zn323 O328 1.996 . S
Zn323 O331 1.943 . S
O324 Zn323 1.962 . S
O324 C329 1.254 . S
O325 Zn322 2.031 . S
O325 C329 1.269 . S
O326 Zn323 1.986 . S
O326 C333 1.262 . S
O327 Zn322 2.049 . S
O327 C335 1.260 . S
O328 Zn323 1.996 . S
O328 C335 1.257 . S
C329 O324 1.254 . S
C329 O325 1.269 . S
C330 O331 1.249 . S
C330 O332 1.270 . S
O331 Zn323 1.943 . S
O331 C330 1.249 . S
O332 Zn322 2.067 . S
O332 C330 1.270 . S
C333 O326 1.262 . S
C333 O334 1.232 . S
O334 C333 1.232 . S
C335 O327 1.260 . S
C335 O328 1.257 . S
Zn336 O339 2.031 . S
Zn336 O341 2.049 . S
Zn336 O346 2.067 . S
Zn337 O338 1.962 . S
Zn337 O340 1.986 . S
Zn337 O342 1.996 . S
Zn337 O345 1.943 . S
O338 Zn337 1.962 . S
O338 C343 1.254 . S
O339 Zn336 2.031 . S
O339 C343 1.269 . S
O340 Zn337 1.986 . S
O340 C347 1.262 . S
O341 Zn336 2.049 . S
O341 C349 1.260 . S
O342 Zn337 1.996 . S
O342 C349 1.257 . S
C343 O338 1.254 . S
C343 O339 1.269 . S
C344 O345 1.249 . S
C344 O346 1.270 . S
O345 Zn337 1.943 . S
O345 C344 1.249 . S
O346 Zn336 2.067 . S
O346 C344 1.270 . S
C347 O340 1.262 . S
C347 O348 1.232 . S
O348 C347 1.232 . S
C349 O341 1.260 . S
C349 O342 1.257 . S
Zn350 O353 2.031 . S
Zn350 O355 2.049 . S
Zn350 O360 2.067 . S
Zn351 O352 1.962 . S
Zn351 O354 1.986 . S
Zn351 O356 1.996 . S
Zn351 O359 1.943 . S
O352 Zn351 1.962 . S
O352 C357 1.254 . S
O353 Zn350 2.031 . S
O353 C357 1.269 . S
O354 Zn351 1.986 . S
O354 C361 1.262 . S
O355 Zn350 2.049 . S
O355 C363 1.260 . S
O356 Zn351 1.996 . S
O356 C363 1.257 . S
C357 O352 1.254 . S
C357 O353 1.269 . S
C358 O359 1.249 . S
C358 O360 1.270 . S
O359 Zn351 1.943 . S
O359 C358 1.249 . S
O360 Zn350 2.067 . S
O360 C358 1.270 . S
C361 O354 1.262 . S
C361 O362 1.232 . S
O362 C361 1.232 . S
C363 O355 1.260 . S
C363 O356 1.257 . S
Zn364 O367 2.031 . S
Zn364 O369 2.049 . S
Zn364 O374 2.067 . S
Zn365 O366 1.962 . S
Zn365 O368 1.986 . S
Zn365 O370 1.996 . S
Zn365 O373 1.943 . S
O366 Zn365 1.962 . S
O366 C371 1.254 . S
O367 Zn364 2.031 . S
O367 C371 1.269 . S
O368 Zn365 1.986 . S
O368 C375 1.262 . S
O369 Zn364 2.049 . S
O369 C377 1.260 . S
O370 Zn365 1.996 . S
O370 C377 1.257 . S
C371 O366 1.254 . S
C371 O367 1.269 . S
C372 O373 1.249 . S
C372 O374 1.270 . S
O373 Zn365 1.943 . S
O373 C372 1.249 . S
O374 Zn364 2.067 . S
O374 C372 1.270 . S
C375 O368 1.262 . S
C375 O376 1.232 . S
O376 C375 1.232 . S
C377 O369 1.260 . S
C377 O370 1.257 . S
Zn378 O381 2.031 . S
Zn378 O383 2.049 . S
Zn378 O388 2.067 . S
Zn379 O380 1.962 . S
Zn379 O382 1.986 . S
Zn379 O384 1.996 . S
Zn379 O387 1.943 . S
O380 Zn379 1.962 . S
O380 C385 1.254 . S
O381 Zn378 2.031 . S
O381 C385 1.269 . S
O382 Zn379 1.986 . S
O382 C389 1.262 . S
O383 Zn378 2.049 . S
O383 C391 1.260 . S
O384 Zn379 1.996 . S
O384 C391 1.257 . S
C385 O380 1.254 . S
C385 O381 1.269 . S
C386 O387 1.249 . S
C386 O388 1.270 . S
O387 Zn379 1.943 . S
O387 C386 1.249 . S
O388 Zn378 2.067 . S
O388 C386 1.270 . S
C389 O382 1.262 . S
C389 O390 1.232 . S
O390 C389 1.232 . S
C391 O383 1.260 . S
C391 O384 1.257 . S
Zn392 O395 2.031 . S
Zn392 O397 2.049 . S
Zn392 O402 2.067 . S
Zn393 O394 1.962 . S
Zn393 O396 1.986 . S
Zn393 O398 1.996 . S
Zn393 O401 1.943 . S
O394 Zn393 1.962 . S
O394 C399 1.254 . S
O395 Zn392 2.031 . S
O395 C399 1.269 . S
O396 Zn393 1.986 . S
O396 C403 1.262 . S
O397 Zn392 2.049 . S
O397 C405 1.260 . S
O398 Zn393 1.996 . S
O398 C405 1.257 . S
C399 O394 1.254 . S
C399 O395 1.269 . S
C400 O401 1.249 . S
C400 O402 1.270 . S
O401 Zn393 1.943 . S
O401 C400 1.249 . S
O402 Zn392 2.067 . S
O402 C400 1.270 . S
C403 O396 1.262 . S
C403 O404 1.232 . S
O404 C403 1.232 . S
C405 O397 1.260 . S
C405 O398 1.257 . S
Zn406 O409 2.031 . S
Zn406 O411 2.049 . S
Zn406 O416 2.067 . S
Zn407 O408 1.962 . S
Zn407 O410 1.986 . S
Zn407 O412 1.996 . S
Zn407 O415 1.943 . S
O408 Zn407 1.962 . S
O408 C413 1.254 . S
O409 Zn406 2.031 . S
O409 C413 1.269 . S
O410 Zn407 1.986 . S
O410 C417 1.262 . S
O411 Zn406 2.049 . S
O411 C419 1.260 . S
O412 Zn407 1.996 . S
O412 C419 1.257 . S
C413 O408 1.254 . S
C413 O409 1.269 . S
C414 O415 1.249 . S
C414 O416 1.270 . S
O415 Zn407 1.943 . S
O415 C414 1.249 . S
O416 Zn406 2.067 . S
O416 C414 1.270 . S
C417 O410 1.262 . S
C417 O418 1.232 . S
O418 C417 1.232 . S
C419 O411 1.260 . S
C419 O412 1.257 . S
Zn420 O423 2.031 . S
Zn420 O425 2.049 . S
Zn420 O430 2.067 . S
Zn421 O422 1.962 . S
Zn421 O424 1.986 . S
Zn421 O426 1.996 . S
Zn421 O429 1.943 . S
O422 Zn421 1.962 . S
O422 C427 1.254 . S
O423 Zn420 2.031 . S
O423 C427 1.269 . S
O424 Zn421 1.986 . S
O424 C431 1.262 . S
O425 Zn420 2.049 . S
O425 C433 1.260 . S
O426 Zn421 1.996 . S
O426 C433 1.257 . S
C427 O422 1.254 . S
C427 O423 1.269 . S
C428 O429 1.249 . S
C428 O430 1.270 . S
O429 Zn421 1.943 . S
O429 C428 1.249 . S
O430 Zn420 2.067 . S
O430 C428 1.270 . S
C431 O424 1.262 . S
C431 O432 1.232 . S
O432 C431 1.232 . S
C433 O425 1.260 . S
C433 O426 1.257 . S
Zn434 O437 2.031 . S
Zn434 O439 2.049 . S
Zn434 O444 2.067 . S
Zn435 O436 1.962 . S
Zn435 O438 1.986 . S
Zn435 O440 1.996 . S
Zn435 O443 1.943 . S
O436 Zn435 1.962 . S
O436 C441 1.254 . S
O437 Zn434 2.031 . S
O437 C441 1.269 . S
O438 Zn435 1.986 . S
O438 C445 1.262 . S
O439 Zn434 2.049 . S
O439 C447 1.260 . S
O440 Zn435 1.996 . S
O440 C447 1.257 . S
C441 O436 1.254 . S
C441 O437 1.269 . S
C442 O443 1.249 . S
C442 O444 1.270 . S
O443 Zn435 1.943 . S
O443 C442 1.249 . S
O444 Zn434 2.067 . S
O444 C442 1.270 . S
C445 O438 1.262 . S
C445 O446 1.232 . S
O446 C445 1.232 . S
C447 O439 1.260 . S
C447 O440 1.257 . S
Zn448 O451 2.031 . S
Zn448 O453 2.049 . S
Zn448 O458 2.067 . S
Zn449 O450 1.962 . S
Zn449 O452 1.986 . S
Zn449 O454 1.996 . S
Zn449 O457 1.943 . S
O450 Zn449 1.962 . S
O450 C455 1.254 . S
O451 Zn448 2.031 . S
O451 C455 1.269 . S
O452 Zn449 1.986 . S
O452 C459 1.262 . S
O453 Zn448 2.049 . S
O453 C461 1.260 . S
O454 Zn449 1.996 . S
O454 C461 1.257 . S
C455 O450 1.254 . S
C455 O451 1.269 . S
C456 O457 1.249 . S
C456 O458 1.270 . S
O457 Zn449 1.943 . S
O457 C456 1.249 . S
O458 Zn448 2.067 . S
O458 C456 1.270 . S
C459 O452 1.262 . S
C459 O460 1.232 . S
O460 C459 1.232 . S
C461 O453 1.260 . S
C461 O454 1.257 . S
Zn462 O465 2.031 . S
Zn462 O467 2.049 . S
Zn462 O472 2.067 . S
Zn463 O464 1.962 . S
Zn463 O466 1.986 . S
Zn463 O468 1.996 . S
Zn463 O471 1.943 . S
O464 Zn463 1.962 . S
O464 C469 1.254 . S
O465 Zn462 2.031 . S
O465 C469 1.269 . S
O466 Zn463 1.986 . S
O466 C473 1.262 . S
O467 Zn462 2.049 . S
O467 C475 1.260 . S
O468 Zn463 1.996 . S
O468 C475 1.257 . S
C469 O464 1.254 . S
C469 O465 1.269 . S
C470 O471 1.249 . S
C470 O472 1.270 . S
O471 Zn463 1.943 . S
O471 C470 1.249 . S
O472 Zn462 2.067 . S
O472 C470 1.270 . S
C473 O466 1.262 . S
C473 O474 1.232 . S
O474 C473 1.232 . S
C475 O467 1.260 . S
C475 O468 1.257 . S
Zn476 O479 2.031 . S
Zn476 O481 2.049 . S
Zn476 O486 2.067 . S
Zn477 O478 1.962 . S
Zn477 O480 1.986 . S
Zn477 O482 1.996 . S
Zn477 O485 1.943 . S
O478 Zn477 1.962 . S
O478 C483 1.254 . S
O479 Zn476 2.031 . S
O479 C483 1.269 . S
O480 Zn477 1.986 . S
O480 C487 1.262 . S
O481 Zn476 2.049 . S
O481 C489 1.260 . S
O482 Zn477 1.996 . S
O482 C489 1.257 . S
C483 O478 1.254 . S
C483 O479 1.269 . S
C484 O485 1.249 . S
C484 O486 1.270 . S
O485 Zn477 1.943 . S
O485 C484 1.249 . S
O486 Zn476 2.067 . S
O486 C484 1.270 . S
C487 O480 1.262 . S
C487 O488 1.232 . S
O488 C487 1.232 . S
C489 O481 1.260 . S
C489 O482 1.257 . S
Zn490 O493 2.031 . S
Zn490 O495 2.049 . S
Zn490 O500 2.067 . S
Zn491 O492 1.962 . S
Zn491 O494 1.986 . S
Zn491 O496 1.996 . S
Zn491 O499 1.943 . S
O492 Zn491 1.962 . S
O492 C497 1.254 . S
O493 Zn490 2.031 . S
O493 C497 1.269 . S
O494 Zn491 1.986 . S
O494 C501 1.262 . S
O495 Zn490 2.049 . S
O495 C503 1.260 . S
O496 Zn491 1.996 . S
O496 C503 1.257 . S
C497 O492 1.254 . S
C497 O493 1.269 . S
C498 O499 1.249 . S
C498 O500 1.270 . S
O499 Zn491 1.943 . S
O499 C498 1.249 . S
O500 Zn490 2.067 . S
O500 C498 1.270 . S
C501 O494 1.262 . S
C501 O502 1.232 . S
O502 C501 1.232 . S
C503 O495 1.260 . S
C503 O496 1.257 . S
Zn504 O507 2.031 . S
Zn504 O509 2.049 . S
Zn504 O514 2.067 . S
Zn505 O506 1.962 . S
Zn505 O508 1.986 . S
Zn505 O510 1.996 . S
Zn505 O513 1.943 . S
O506 Zn505 1.962 . S
O506 C511 1.254 . S
O507 Zn504 2.031 . S
O507 C511 1.269 . S
O508 Zn505 1.986 . S
O508 C515 1.262 . S
O509 Zn504 2.049 . S
O509 C517 1.260 . S
O510 Zn505 1.996 . S
O510 C517 1.257 . S
C511 O506 1.254 . S
C511 O507 1.269 . S
C512 O513 1.249 . S
C512 O514 1.270 . S
O513 Zn505 1.943 . S
O513 C512 1.249 . S
O514 Zn504 2.067 . S
O514 C512 1.270 . S
C515 O508 1.262 . S
C515 O516 1.232 . S
O516 C515 1.232 . S
C517 O509 1.260 . S
C517 O510 1.257 . S
Zn518 O521 2.031 . S
Zn518 O523 2.049 . S
Zn518 O528 2.067 . S
Zn519 O520 1.962 . S
Zn519 O522 1.986 . S
Zn519 O524 1.996 . S
Zn519 O527 1.943 . S
O520 Zn519 1.962 . S
O520 C525 1.254 . S
O521 Zn518 2.031 . S
O521 C525 1.269 . S
O522 Zn519 1.986 . S
O522 C529 1.262 . S
O523 Zn518 2.049 . S
O523 C531 1.260 . S
O524 Zn519 1.996 . S
O524 C531 1.257 . S
C525 O520 1.254 . S
C525 O521 1.269 . S
C526 O527 1.249 . S
C526 O528 1.270 . S
O527 Zn519 1.943 . S
O527 C526 1.249 . S
O528 Zn518 2.067 . S
O528 C526 1.270 . S
C529 O522 1.262 . S
C529 O530 1.232 . S
O530 C529 1.232 . S
C531 O523 1.260 . S
C531 O524 1.257 . S
Zn532 O535 2.031 . S
Zn532 O537 2.049 . S
Zn532 O542 2.067 . S
Zn533 O534 1.962 . S
Zn533 O536 1.986 . S
Zn533 O538 1.996 . S
Zn533 O541 1.943 . S
O534 Zn533 1.962 . S
O534 C539 1.254 . S
O535 Zn532 2.031 . S
O535 C539 1.269 . S
O536 Zn533 1.986 . S
O536 C543 1.262 . S
O537 Zn532 2.049 . S
O537 C545 1.260 . S
O538 Zn533 1.996 . S
O538 C545 1.257 . S
C539 O534 1.254 . S
C539 O535 1.269 . S
C540 O541 1.249 . S
C540 O542 1.270 . S
O541 Zn533 1.943 . S
O541 C540 1.249 . S
O542 Zn532 2.067 . S
O542 C540 1.270 . S
C543 O536 1.262 . S
C543 O544 1.232 . S
O544 C543 1.232 . S
C545 O537 1.260 . S
C545 O538 1.257 . S
Zn546 O549 2.031 . S
Zn546 O551 2.049 . S
Zn546 O556 2.067 . S
Zn547 O548 1.962 . S
Zn547 O550 1.986 . S
Zn547 O552 1.996 . S
Zn547 O555 1.943 . S
O548 Zn547 1.962 . S
O548 C553 1.254 . S
O549 Zn546 2.031 . S
O549 C553 1.269 . S
O550 Zn547 1.986 . S
O550 C557 1.262 . S
O551 Zn546 2.049 . S
O551 C559 1.260 . S
O552 Zn547 1.996 . S
O552 C559 1.257 . S
C553 O548 1.254 . S
C553 O549 1.269 . S
C554 O555 1.249 . S
C554 O556 1.270 . S
O555 Zn547 1.943 . S
O555 C554 1.249 . S
O556 Zn546 2.067 . S
O556 C554 1.270 . S
C557 O550 1.262 . S
C557 O558 1.232 . S
O558 C557 1.232 . S
C559 O551 1.260 . S
C559 O552 1.257 . S
Zn560 O563 2.031 . S
Zn560 O565 2.049 . S
Zn560 O570 2.067 . S
Zn561 O562 1.962 . S
Zn561 O564 1.986 . S
Zn561 O566 1.996 . S
Zn561 O569 1.943 . S
O562 Zn561 1.962 . S
O562 C567 1.254 . S
O563 Zn560 2.031 . S
O563 C567 1.269 . S
O564 Zn561 1.986 . S
O564 C571 1.262 . S
O565 Zn560 2.049 . S
O565 C573 1.260 . S
O566 Zn561 1.996 . S
O566 C573 1.257 . S
C567 O562 1.254 . S
C567 O563 1.269 . S
C568 O569 1.249 . S
C568 O570 1.270 . S
O569 Zn561 1.943 . S
O569 C568 1.249 . S
O570 Zn560 2.067 . S
O570 C568 1.270 . S
C571 O564 1.262 . S
C571 O572 1.232 . S
O572 C571 1.232 . S
C573 O565 1.260 . S
C573 O566 1.257 . S
Zn574 O577 2.031 . S
Zn574 O579 2.049 . S
Zn574 O584 2.067 . S
Zn575 O576 1.962 . S
Zn575 O578 1.986 . S
Zn575 O580 1.996 . S
Zn575 O583 1.943 . S
O576 Zn575 1.962 . S
O576 C581 1.254 . S
O577 Zn574 2.031 . S
O577 C581 1.269 . S
O578 Zn575 1.986 . S
O578 C585 1.262 . S
O579 Zn574 2.049 . S
O579 C587 1.260 . S
O580 Zn575 1.996 . S
O580 C587 1.257 . S
C581 O576 1.254 . S
C581 O577 1.269 . S
C582 O583 1.249 . S
C582 O584 1.270 . S
O583 Zn575 1.943 . S
O583 C582 1.249 . S
O584 Zn574 2.067 . S
O584 C582 1.270 . S
C585 O578 1.262 . S
C585 O586 1.232 . S
O586 C585 1.232 . S
C587 O579 1.260 . S
C587 O580 1.257 . S
Zn588 O591 2.031 . S
Zn588 O593 2.049 . S
Zn588 O598 2.067 . S
Zn589 O590 1.962 . S
Zn589 O592 1.986 . S
Zn589 O594 1.996 . S
Zn589 O597 1.943 . S
O590 Zn589 1.962 . S
O590 C595 1.254 . S
O591 Zn588 2.031 . S
O591 C595 1.269 . S
O592 Zn589 1.986 . S
O592 C599 1.262 . S
O593 Zn588 2.049 . S
O593 C601 1.260 . S
O594 Zn589 1.996 . S
O594 C601 1.257 . S
C595 O590 1.254 . S
C595 O591 1.269 . S
C596 O597 1.249 . S
C596 O598 1.270 . S
O597 Zn589 1.943 . S
O597 C596 1.249 . S
O598 Zn588 2.067 . S
O598 C596 1.270 . S
C599 O592 1.262 . S
C599 O600 1.232 . S
O600 C599 1.232 . S
C601 O593 1.260 . S
C601 O594 1.257 . S
Zn602 O605 2.031 . S
Zn602 O607 2.049 . S
Zn602 O612 2.067 . S
Zn603 O604 1.962 . S
Zn603 O606 1.986 . S
Zn603 O608 1.996 . S
Zn603 O611 1.943 . S
O604 Zn603 1.962 . S
O604 C609 1.254 . S
O605 Zn602 2.031 . S
O605 C609 1.269 . S
O606 Zn603 1.986 . S
O606 C613 1.262 . S
O607 Zn602 2.049 . S
O607 C615 1.260 . S
O608 Zn603 1.996 . S
O608 C615 1.257 . S
C609 O604 1.254 . S
C609 O605 1.269 . S
C610 O611 1.249 . S
C610 O612 1.270 . S
O611 Zn603 1.943 . S
O611 C610 1.249 . S
O612 Zn602 2.067 . S
O612 C610 1.270 . S
C613 O606 1.262 . S
C613 O614 1.232 . S
O614 C613 1.232 . S
C615 O607 1.260 . S
C615 O608 1.257 . S
Zn616 O619 2.031 . S
Zn616 O621 2.049 . S
Zn616 O626 2.067 . S
Zn617 O618 1.962 . S
Zn617 O620 1.986 . S
Zn617 O622 1.996 . S
Zn617 O625 1.943 . S
O618 Zn617 1.962 . S
O618 C623 1.254 . S
O619 Zn616 2.031 . S
O619 C623 1.269 . S
O620 Zn617 1.986 . S
O620 C627 1.262 . S
O621 Zn616 2.049 . S
O621 C629 1.260 . S
O622 Zn617 1.996 . S
O622 C629 1.257 . S
C623 O618 1.254 . S
C623 O619 1.269 . S
C624 O625 1.249 . S
C624 O626 1.270 . S
O625 Zn617 1.943 . S
O625 C624 1.249 . S
O626 Zn616 2.067 . S
O626 C624 1.270 . S
C627 O620 1.262 . S
C627 O628 1.232 . S
O628 C627 1.232 . S
C629 O621 1.260 . S
C629 O622 1.257 . S
Zn630 O633 2.031 . S
Zn630 O635 2.049 . S
Zn630 O640 2.067 . S
Zn631 O632 1.962 . S
Zn631 O634 1.986 . S
Zn631 O636 1.996 . S
Zn631 O639 1.943 . S
O632 Zn631 1.962 . S
O632 C637 1.254 . S
O633 Zn630 2.031 . S
O633 C637 1.269 . S
O634 Zn631 1.986 . S
O634 C641 1.262 . S
O635 Zn630 2.049 . S
O635 C643 1.260 . S
O636 Zn631 1.996 . S
O636 C643 1.257 . S
C637 O632 1.254 . S
C637 O633 1.269 . S
C638 O639 1.249 . S
C638 O640 1.270 . S
O639 Zn631 1.943 . S
O639 C638 1.249 . S
O640 Zn630 2.067 . S
O640 C638 1.270 . S
C641 O634 1.262 . S
C641 O642 1.232 . S
O642 C641 1.232 . S
C643 O635 1.260 . S
C643 O636 1.257 . S
Zn644 O647 2.031 . S
Zn644 O649 2.049 . S
Zn644 O654 2.067 . S
Zn645 O646 1.962 . S
Zn645 O648 1.986 . S
Zn645 O650 1.996 . S
Zn645 O653 1.943 . S
O646 Zn645 1.962 . S
O646 C651 1.254 . S
O647 Zn644 2.031 . S
O647 C651 1.269 . S
O648 Zn645 1.986 . S
O648 C655 1.262 . S
O649 Zn644 2.049 . S
O649 C657 1.260 . S
O650 Zn645 1.996 . S
O650 C657 1.257 . S
C651 O646 1.254 . S
C651 O647 1.269 . S
C652 O653 1.249 . S
C652 O654 1.270 . S
O653 Zn645 1.943 . S
O653 C652 1.249 . S
O654 Zn644 2.067 . S
O654 C652 1.270 . S
C655 O648 1.262 . S
C655 O656 1.232 . S
O656 C655 1.232 . S
C657 O649 1.260 . S
C657 O650 1.257 . S
Zn658 O661 2.031 . S
Zn658 O663 2.049 . S
Zn658 O668 2.067 . S
Zn659 O660 1.962 . S
Zn659 O662 1.986 . S
Zn659 O664 1.996 . S
Zn659 O667 1.943 . S
O660 Zn659 1.962 . S
O660 C665 1.254 . S
O661 Zn658 2.031 . S
O661 C665 1.269 . S
O662 Zn659 1.986 . S
O662 C669 1.262 . S
O663 Zn658 2.049 . S
O663 C671 1.260 . S
O664 Zn659 1.996 . S
O664 C671 1.257 . S
C665 O660 1.254 . S
C665 O661 1.269 . S
C666 O667 1.249 . S
C666 O668 1.270 . S
O667 Zn659 1.943 . S
O667 C666 1.249 . S
O668 Zn658 2.067 . S
O668 C666 1.270 . S
C669 O662 1.262 . S
C669 O670 1.232 . S
O670 C669 1.232 . S
C671 O663 1.260 . S
C671 O664 1.257 . S
H672 C680 0.950 . S
H673 C685 0.950 . S
H674 C682 0.950 . S
H675 C684 0.950 . S
H676 C686 0.950 . S
H677 C688 0.950 . S
H678 C690 0.950 . S
H679 C691 0.950 . S
C680 H672 0.950 . S
C680 C681 1.386 . S
C680 C682 1.391 . S
C681 C680 1.386 . S
C681 C685 1.393 . S
C682 H674 0.950 . S
C682 C680 1.391 . S
C682 C683 1.400 . S
C683 C682 1.400 . S
C683 C684 1.398 . S
C683 C689 1.491 . S
C684 H675 0.950 . S
C684 C683 1.398 . S
C684 C685 1.391 . S
C685 H673 0.950 . S
C685 C681 1.393 . S
C685 C684 1.391 . S
C686 H676 0.950 . S
C686 C687 1.386 . S
C686 C688 1.391 . S
C687 C686 1.386 . S
C687 C691 1.393 . S
C688 H677 0.950 . S
C688 C686 1.391 . S
C688 C689 1.400 . S
C689 C683 1.491 . S
C689 C688 1.400 . S
C689 C690 1.398 . S
C690 H678 0.950 . S
C690 C689 1.398 . S
C690 C691 1.391 . S
C691 H679 0.950 . S
C691 C687 1.393 . S
C691 C690 1.391 . S
H692 C700 0.950 . S
H693 C705 0.950 . S
H694 C702 0.950 . S
H695 C704 0.950 . S
H696 C706 0.950 . S
H697 C708 0.950 . S
H698 C710 0.950 . S
H699 C711 0.950 . S
C700 H692 0.950 . S
C700 C701 1.386 . S
C700 C702 1.391 . S
C701 C700 1.386 . S
C701 C705 1.393 . S
C702 H694 0.950 . S
C702 C700 1.391 . S
C702 C703 1.400 . S
C703 C702 1.400 . S
C703 C704 1.398 . S
C703 C709 1.491 . S
C704 H695 0.950 . S
C704 C703 1.398 . S
C704 C705 1.391 . S
C705 H693 0.950 . S
C705 C701 1.393 . S
C705 C704 1.391 . S
C706 H696 0.950 . S
C706 C707 1.386 . S
C706 C708 1.391 . S
C707 C706 1.386 . S
C707 C711 1.393 . S
C708 H697 0.950 . S
C708 C706 1.391 . S
C708 C709 1.400 . S
C709 C703 1.491 . S
C709 C708 1.400 . S
C709 C710 1.398 . S
C710 H698 0.950 . S
C710 C709 1.398 . S
C710 C711 1.391 . S
C711 H699 0.950 . S
C711 C707 1.393 . S
C711 C710 1.391 . S
H712 C720 0.950 . S
H713 C725 0.950 . S
H714 C722 0.950 . S
H715 C724 0.950 . S
H716 C726 0.950 . S
H717 C728 0.950 . S
H718 C730 0.950 . S
H719 C731 0.950 . S
C720 H712 0.950 . S
C720 C721 1.386 . S
C720 C722 1.391 . S
C721 C720 1.386 . S
C721 C725 1.393 . S
C722 H714 0.950 . S
C722 C720 1.391 . S
C722 C723 1.400 . S
C723 C722 1.400 . S
C723 C724 1.398 . S
C723 C729 1.491 . S
C724 H715 0.950 . S
C724 C723 1.398 . S
C724 C725 1.391 . S
C725 H713 0.950 . S
C725 C721 1.393 . S
C725 C724 1.391 . S
C726 H716 0.950 . S
C726 C727 1.386 . S
C726 C728 1.391 . S
C727 C726 1.386 . S
C727 C731 1.393 . S
C728 H717 0.950 . S
C728 C726 1.391 . S
C728 C729 1.400 . S
C729 C723 1.491 . S
C729 C728 1.400 . S
C729 C730 1.398 . S
C730 H718 0.950 . S
C730 C729 1.398 . S
C730 C731 1.391 . S
C731 H719 0.950 . S
C731 C727 1.393 . S
C731 C730 1.391 . S
H732 C740 0.950 . S
H733 C745 0.950 . S
H734 C742 0.950 . S
H735 C744 0.950 . S
H736 C746 0.950 . S
H737 C748 0.950 . S
H738 C750 0.950 . S
H739 C751 0.950 . S
C740 H732 0.950 . S
C740 C741 1.386 . S
C740 C742 1.391 . S
C741 C740 1.386 . S
C741 C745 1.393 . S
C742 H734 0.950 . S
C742 C740 1.391 . S
C742 C743 1.400 . S
C743 C742 1.400 . S
C743 C744 1.398 . S
C743 C749 1.491 . S
C744 H735 0.950 . S
C744 C743 1.398 . S
C744 C745 1.391 . S
C745 H733 0.950 . S
C745 C741 1.393 . S
C745 C744 1.391 . S
C746 H736 0.950 . S
C746 C747 1.386 . S
C746 C748 1.391 . S
C747 C746 1.386 . S
C747 C751 1.393 . S
C748 H737 0.950 . S
C748 C746 1.391 . S
C748 C749 1.400 . S
C749 C743 1.491 . S
C749 C748 1.400 . S
C749 C750 1.398 . S
C750 H738 0.950 . S
C750 C749 1.398 . S
C750 C751 1.391 . S
C751 H739 0.950 . S
C751 C747 1.393 . S
C751 C750 1.391 . S
H752 C760 0.950 . S
H753 C765 0.950 . S
H754 C762 0.950 . S
H755 C764 0.950 . S
H756 C766 0.950 . S
H757 C768 0.950 . S
H758 C770 0.950 . S
H759 C771 0.950 . S
C760 H752 0.950 . S
C760 C761 1.386 . S
C760 C762 1.391 . S
C761 C760 1.386 . S
C761 C765 1.393 . S
C762 H754 0.950 . S
C762 C760 1.391 . S
C762 C763 1.400 . S
C763 C762 1.400 . S
C763 C764 1.398 . S
C763 C769 1.491 . S
C764 H755 0.950 . S
C764 C763 1.398 . S
C764 C765 1.391 . S
C765 H753 0.950 . S
C765 C761 1.393 . S
C765 C764 1.391 . S
C766 H756 0.950 . S
C766 C767 1.386 . S
C766 C768 1.391 . S
C767 C766 1.386 . S
C767 C771 1.393 . S
C768 H757 0.950 . S
C768 C766 1.391 . S
C768 C769 1.400 . S
C769 C763 1.491 . S
C769 C768 1.400 . S
C769 C770 1.398 . S
C770 H758 0.950 . S
C770 C769 1.398 . S
C770 C771 1.391 . S
C771 H759 0.950 . S
C771 C767 1.393 . S
C771 C770 1.391 . S
H772 C780 0.950 . S
H773 C785 0.950 . S
H774 C782 0.950 . S
H775 C784 0.950 . S
H776 C786 0.950 . S
H777 C788 0.950 . S
H778 C790 0.950 . S
H779 C791 0.950 . S
C780 H772 0.950 . S
C780 C781 1.386 . S
C780 C782 1.391 . S
C781 C780 1.386 . S
C781 C785 1.393 . S
C782 H774 0.950 . S
C782 C780 1.391 . S
C782 C783 1.400 . S
C783 C782 1.400 . S
C783 C784 1.398 . S
C783 C789 1.491 . S
C784 H775 0.950 . S
C784 C783 1.398 . S
C784 C785 1.391 . S
C785 H773 0.950 . S
C785 C781 1.393 . S
C785 C784 1.391 . S
C786 H776 0.950 . S
C786 C787 1.386 . S
C786 C788 1.391 . S
C787 C786 1.386 . S
C787 C791 1.393 . S
C788 H777 0.950 . S
C788 C786 1.391 . S
C788 C789 1.400 . S
C789 C783 1.491 . S
C789 C788 1.400 . S
C789 C790 1.398 . S
C790 H778 0.950 . S
C790 C789 1.398 . S
C790 C791 1.391 . S
C791 H779 0.950 . S
C791 C787 1.393 . S
C791 C790 1.391 . S
H792 C800 0.950 . S
H793 C805 0.950 . S
H794 C802 0.950 . S
H795 C804 0.950 . S
H796 C806 0.950 . S
H797 C808 0.950 . S
H798 C810 0.950 . S
H799 C811 0.950 . S
C800 H792 0.950 . S
C800 C801 1.386 . S
C800 C802 1.391 . S
C801 C800 1.386 . S
C801 C805 1.393 . S
C802 H794 0.950 . S
C802 C800 1.391 . S
C802 C803 1.400 . S
C803 C802 1.400 . S
C803 C804 1.398 . S
C803 C809 1.491 . S
C804 H795 0.950 . S
C804 C803 1.398 . S
C804 C805 1.391 . S
C805 H793 0.950 . S
C805 C801 1.393 . S
C805 C804 1.391 . S
C806 H796 0.950 . S
C806 C807 1.386 . S
C806 C808 1.391 . S
C807 C806 1.386 . S
C807 C811 1.393 . S
C808 H797 0.950 . S
C808 C806 1.391 . S
C808 C809 1.400 . S
C809 C803 1.491 . S
C809 C808 1.400 . S
C809 C810 1.398 . S
C810 H798 0.950 . S
C810 C809 1.398 . S
C810 C811 1.391 . S
C811 H799 0.950 . S
C811 C807 1.393 . S
C811 C810 1.391 . S
H812 C820 0.950 . S
H813 C825 0.950 . S
H814 C822 0.950 . S
H815 C824 0.950 . S
H816 C826 0.950 . S
H817 C828 0.950 . S
H818 C830 0.950 . S
H819 C831 0.950 . S
C820 H812 0.950 . S
C820 C821 1.386 . S
C820 C822 1.391 . S
C821 C820 1.386 . S
C821 C825 1.393 . S
C822 H814 0.950 . S
C822 C820 1.391 . S
C822 C823 1.400 . S
C823 C822 1.400 . S
C823 C824 1.398 . S
C823 C829 1.491 . S
C824 H815 0.950 . S
C824 C823 1.398 . S
C824 C825 1.391 . S
C825 H813 0.950 . S
C825 C821 1.393 . S
C825 C824 1.391 . S
C826 H816 0.950 . S
C826 C827 1.386 . S
C826 C828 1.391 . S
C827 C826 1.386 . S
C827 C831 1.393 . S
C828 H817 0.950 . S
C828 C826 1.391 . S
C828 C829 1.400 . S
C829 C823 1.491 . S
C829 C828 1.400 . S
C829 C830 1.398 . S
C830 H818 0.950 . S
C830 C829 1.398 . S
C830 C831 1.391 . S
C831 H819 0.950 . S
C831 C827 1.393 . S
C831 C830 1.391 . S
H832 C840 0.950 . S
H833 C845 0.950 . S
H834 C842 0.950 . S
H835 C844 0.950 . S
H836 C846 0.950 . S
H837 C848 0.950 . S
H838 C850 0.950 . S
H839 C851 0.950 . S
C840 H832 0.950 . S
C840 C841 1.386 . S
C840 C842 1.391 . S
C841 C840 1.386 . S
C841 C845 1.393 . S
C842 H834 0.950 . S
C842 C840 1.391 . S
C842 C843 1.400 . S
C843 C842 1.400 . S
C843 C844 1.398 . S
C843 C849 1.491 . S
C844 H835 0.950 . S
C844 C843 1.398 . S
C844 C845 1.391 . S
C845 H833 0.950 . S
C845 C841 1.393 . S
C845 C844 1.391 . S
C846 H836 0.950 . S
C846 C847 1.386 . S
C846 C848 1.391 . S
C847 C846 1.386 . S
C847 C851 1.393 . S
C848 H837 0.950 . S
C848 C846 1.391 . S
C848 C849 1.400 . S
C849 C843 1.491 . S
C849 C848 1.400 . S
C849 C850 1.398 . S
C850 H838 0.950 . S
C850 C849 1.398 . S
C850 C851 1.391 . S
C851 H839 0.950 . S
C851 C847 1.393 . S
C851 C850 1.391 . S
H852 C860 0.950 . S
H853 C865 0.950 . S
H854 C862 0.950 . S
H855 C864 0.950 . S
H856 C866 0.950 . S
H857 C868 0.950 . S
H858 C870 0.950 . S
H859 C871 0.950 . S
C860 H852 0.950 . S
C860 C861 1.386 . S
C860 C862 1.391 . S
C861 C860 1.386 . S
C861 C865 1.393 . S
C862 H854 0.950 . S
C862 C860 1.391 . S
C862 C863 1.400 . S
C863 C862 1.400 . S
C863 C864 1.398 . S
C863 C869 1.491 . S
C864 H855 0.950 . S
C864 C863 1.398 . S
C864 C865 1.391 . S
C865 H853 0.950 . S
C865 C861 1.393 . S
C865 C864 1.391 . S
C866 H856 0.950 . S
C866 C867 1.386 . S
C866 C868 1.391 . S
C867 C866 1.386 . S
C867 C871 1.393 . S
C868 H857 0.950 . S
C868 C866 1.391 . S
C868 C869 1.400 . S
C869 C863 1.491 . S
C869 C868 1.400 . S
C869 C870 1.398 . S
C870 H858 0.950 . S
C870 C869 1.398 . S
C870 C871 1.391 . S
C871 H859 0.950 . S
C871 C867 1.393 . S
C871 C870 1.391 . S
H872 C880 0.950 . S
H873 C885 0.950 . S
H874 C882 0.950 . S
H875 C884 0.950 . S
H876 C886 0.950 . S
H877 C888 0.950 . S
H878 C890 0.950 . S
H879 C891 0.950 . S
C880 H872 0.950 . S
C880 C881 1.386 . S
C880 C882 1.391 . S
C881 C880 1.386 . S
C881 C885 1.393 . S
C882 H874 0.950 . S
C882 C880 1.391 . S
C882 C883 1.400 . S
C883 C882 1.400 . S
C883 C884 1.398 . S
C883 C889 1.491 . S
C884 H875 0.950 . S
C884 C883 1.398 . S
C884 C885 1.391 . S
C885 H873 0.950 . S
C885 C881 1.393 . S
C885 C884 1.391 . S
C886 H876 0.950 . S
C886 C887 1.386 . S
C886 C888 1.391 . S
C887 C886 1.386 . S
C887 C891 1.393 . S
C888 H877 0.950 . S
C888 C886 1.391 . S
C888 C889 1.400 . S
C889 C883 1.491 . S
C889 C888 1.400 . S
C889 C890 1.398 . S
C890 H878 0.950 . S
C890 C889 1.398 . S
C890 C891 1.391 . S
C891 H879 0.950 . S
C891 C887 1.393 . S
C891 C890 1.391 . S
H892 C900 0.950 . S
H893 C905 0.950 . S
H894 C902 0.950 . S
H895 C904 0.950 . S
H896 C906 0.950 . S
H897 C908 0.950 . S
H898 C910 0.950 . S
H899 C911 0.950 . S
C900 H892 0.950 . S
C900 C901 1.386 . S
C900 C902 1.391 . S
C901 C900 1.386 . S
C901 C905 1.393 . S
C902 H894 0.950 . S
C902 C900 1.391 . S
C902 C903 1.400 . S
C903 C902 1.400 . S
C903 C904 1.398 . S
C903 C909 1.491 . S
C904 H895 0.950 . S
C904 C903 1.398 . S
C904 C905 1.391 . S
C905 H893 0.950 . S
C905 C901 1.393 . S
C905 C904 1.391 . S
C906 H896 0.950 . S
C906 C907 1.386 . S
C906 C908 1.391 . S
C907 C906 1.386 . S
C907 C911 1.393 . S
C908 H897 0.950 . S
C908 C906 1.391 . S
C908 C909 1.400 . S
C909 C903 1.491 . S
C909 C908 1.400 . S
C909 C910 1.398 . S
C910 H898 0.950 . S
C910 C909 1.398 . S
C910 C911 1.391 . S
C911 H899 0.950 . S
C911 C907 1.393 . S
C911 C910 1.391 . S
H912 C920 0.950 . S
H913 C925 0.950 . S
H914 C922 0.950 . S
H915 C924 0.950 . S
H916 C926 0.950 . S
H917 C928 0.950 . S
H918 C930 0.950 . S
H919 C931 0.950 . S
C920 H912 0.950 . S
C920 C921 1.386 . S
C920 C922 1.391 . S
C921 C920 1.386 . S
C921 C925 1.393 . S
C922 H914 0.950 . S
C922 C920 1.391 . S
C922 C923 1.400 . S
C923 C922 1.400 . S
C923 C924 1.398 . S
C923 C929 1.491 . S
C924 H915 0.950 . S
C924 C923 1.398 . S
C924 C925 1.391 . S
C925 H913 0.950 . S
C925 C921 1.393 . S
C925 C924 1.391 . S
C926 H916 0.950 . S
C926 C927 1.386 . S
C926 C928 1.391 . S
C927 C926 1.386 . S
C927 C931 1.393 . S
C928 H917 0.950 . S
C928 C926 1.391 . S
C928 C929 1.400 . S
C929 C923 1.491 . S
C929 C928 1.400 . S
C929 C930 1.398 . S
C930 H918 0.950 . S
C930 C929 1.398 . S
C930 C931 1.391 . S
C931 H919 0.950 . S
C931 C927 1.393 . S
C931 C930 1.391 . S
H932 C940 0.950 . S
H933 C945 0.950 . S
H934 C942 0.950 . S
H935 C944 0.950 . S
H936 C946 0.950 . S
H937 C948 0.950 . S
H938 C950 0.950 . S
H939 C951 0.950 . S
C940 H932 0.950 . S
C940 C941 1.386 . S
C940 C942 1.391 . S
C941 C940 1.386 . S
C941 C945 1.393 . S
C942 H934 0.950 . S
C942 C940 1.391 . S
C942 C943 1.400 . S
C943 C942 1.400 . S
C943 C944 1.398 . S
C943 C949 1.491 . S
C944 H935 0.950 . S
C944 C943 1.398 . S
C944 C945 1.391 . S
C945 H933 0.950 . S
C945 C941 1.393 . S
C945 C944 1.391 . S
C946 H936 0.950 . S
C946 C947 1.386 . S
C946 C948 1.391 . S
C947 C946 1.386 . S
C947 C951 1.393 . S
C948 H937 0.950 . S
C948 C946 1.391 . S
C948 C949 1.400 . S
C949 C943 1.491 . S
C949 C948 1.400 . S
C949 C950 1.398 . S
C950 H938 0.950 . S
C950 C949 1.398 . S
C950 C951 1.391 . S
C951 H939 0.950 . S
C951 C947 1.393 . S
C951 C950 1.391 . S
H952 C960 0.950 . S
H953 C965 0.950 . S
H954 C962 0.950 . S
H955 C964 0.950 . S
H956 C966 0.950 . S
H957 C968 0.950 . S
H958 C970 0.950 . S
H959 C971 0.950 . S
C960 H952 0.950 . S
C960 C961 1.386 . S
C960 C962 1.391 . S
C961 C960 1.386 . S
C961 C965 1.393 . S
C962 H954 0.950 . S
C962 C960 1.391 . S
C962 C963 1.400 . S
C963 C962 1.400 . S
C963 C964 1.398 . S
C963 C969 1.491 . S
C964 H955 0.950 . S
C964 C963 1.398 . S
C964 C965 1.391 . S
C965 H953 0.950 . S
C965 C961 1.393 . S
C965 C964 1.391 . S
C966 H956 0.950 . S
C966 C967 1.386 . S
C966 C968 1.391 . S
C967 C966 1.386 . S
C967 C971 1.393 . S
C968 H957 0.950 . S
C968 C966 1.391 . S
C968 C969 1.400 . S
C969 C963 1.491 . S
C969 C968 1.400 . S
C969 C970 1.398 . S
C970 H958 0.950 . S
C970 C969 1.398 . S
C970 C971 1.391 . S
C971 H959 0.950 . S
C971 C967 1.393 . S
C971 C970 1.391 . S
H972 C980 0.950 . S
H973 C985 0.950 . S
H974 C982 0.950 . S
H975 C984 0.950 . S
H976 C986 0.950 . S
H977 C988 0.950 . S
H978 C990 0.950 . S
H979 C991 0.950 . S
C980 H972 0.950 . S
C980 C981 1.386 . S
C980 C982 1.391 . S
C981 C980 1.386 . S
C981 C985 1.393 . S
C982 H974 0.950 . S
C982 C980 1.391 . S
C982 C983 1.400 . S
C983 C982 1.400 . S
C983 C984 1.398 . S
C983 C989 1.491 . S
C984 H975 0.950 . S
C984 C983 1.398 . S
C984 C985 1.391 . S
C985 H973 0.950 . S
C985 C981 1.393 . S
C985 C984 1.391 . S
C986 H976 0.950 . S
C986 C987 1.386 . S
C986 C988 1.391 . S
C987 C986 1.386 . S
C987 C991 1.393 . S
C988 H977 0.950 . S
C988 C986 1.391 . S
C988 C989 1.400 . S
C989 C983 1.491 . S
C989 C988 1.400 . S
C989 C990 1.398 . S
C990 H978 0.950 . S
C990 C989 1.398 . S
C990 C991 1.391 . S
C991 H979 0.950 . S
C991 C987 1.393 . S
C991 C990 1.391 . S
H992 C1000 0.950 . S
H993 C1005 0.950 . S
H994 C1002 0.950 . S
H995 C1004 0.950 . S
H996 C1006 0.950 . S
H997 C1008 0.950 . S
H998 C1010 0.950 . S
H999 C1011 0.950 . S
C1000 H992 0.950 . S
C1000 C1001 1.386 . S
C1000 C1002 1.391 . S
C1001 C1000 1.386 . S
C1001 C1005 1.393 . S
C1002 H994 0.950 . S
C1002 C1000 1.391 . S
C1002 C1003 1.400 . S
C1003 C1002 1.400 . S
C1003 C1004 1.398 . S
C1003 C1009 1.491 . S
C1004 H995 0.950 . S
C1004 C1003 1.398 . S
C1004 C1005 1.391 . S
C1005 H993 0.950 . S
C1005 C1001 1.393 . S
C1005 C1004 1.391 . S
C1006 H996 0.950 . S
C1006 C1007 1.386 . S
C1006 C1008 1.391 . S
C1007 C1006 1.386 . S
C1007 C1011 1.393 . S
C1008 H997 0.950 . S
C1008 C1006 1.391 . S
C1008 C1009 1.400 . S
C1009 C1003 1.491 . S
C1009 C1008 1.400 . S
C1009 C1010 1.398 . S
C1010 H998 0.950 . S
C1010 C1009 1.398 . S
C1010 C1011 1.391 . S
C1011 H999 0.950 . S
C1011 C1007 1.393 . S
C1011 C1010 1.391 . S
H1012 C1020 0.950 . S
H1013 C1025 0.950 . S
H1014 C1022 0.950 . S
H1015 C1024 0.950 . S
H1016 C1026 0.950 . S
H1017 C1028 0.950 . S
H1018 C1030 0.950 . S
H1019 C1031 0.950 . S
C1020 H1012 0.950 . S
C1020 C1021 1.386 . S
C1020 C1022 1.391 . S
C1021 C1020 1.386 . S
C1021 C1025 1.393 . S
C1022 H1014 0.950 . S
C1022 C1020 1.391 . S
C1022 C1023 1.400 . S
C1023 C1022 1.400 . S
C1023 C1024 1.398 . S
C1023 C1029 1.491 . S
C1024 H1015 0.950 . S
C1024 C1023 1.398 . S
C1024 C1025 1.391 . S
C1025 H1013 0.950 . S
C1025 C1021 1.393 . S
C1025 C1024 1.391 . S
C1026 H1016 0.950 . S
C1026 C1027 1.386 . S
C1026 C1028 1.391 . S
C1027 C1026 1.386 . S
C1027 C1031 1.393 . S
C1028 H1017 0.950 . S
C1028 C1026 1.391 . S
C1028 C1029 1.400 . S
C1029 C1023 1.491 . S
C1029 C1028 1.400 . S
C1029 C1030 1.398 . S
C1030 H1018 0.950 . S
C1030 C1029 1.398 . S
C1030 C1031 1.391 . S
C1031 H1019 0.950 . S
C1031 C1027 1.393 . S
C1031 C1030 1.391 . S
H1032 C1040 0.950 . S
H1033 C1045 0.950 . S
H1034 C1042 0.950 . S
H1035 C1044 0.950 . S
H1036 C1046 0.950 . S
H1037 C1048 0.950 . S
H1038 C1050 0.950 . S
H1039 C1051 0.950 . S
C1040 H1032 0.950 . S
C1040 C1041 1.386 . S
C1040 C1042 1.391 . S
C1041 C1040 1.386 . S
C1041 C1045 1.393 . S
C1042 H1034 0.950 . S
C1042 C1040 1.391 . S
C1042 C1043 1.400 . S
C1043 C1042 1.400 . S
C1043 C1044 1.398 . S
C1043 C1049 1.491 . S
C1044 H1035 0.950 . S
C1044 C1043 1.398 . S
C1044 C1045 1.391 . S
C1045 H1033 0.950 . S
C1045 C1041 1.393 . S
C1045 C1044 1.391 . S
C1046 H1036 0.950 . S
C1046 C1047 1.386 . S
C1046 C1048 1.391 . S
C1047 C1046 1.386 . S
C1047 C1051 1.393 . S
C1048 H1037 0.950 . S
C1048 C1046 1.391 . S
C1048 C1049 1.400 . S
C1049 C1043 1.491 . S
C1049 C1048 1.400 . S
C1049 C1050 1.398 . S
C1050 H1038 0.950 . S
C1050 C1049 1.398 . S
C1050 C1051 1.391 . S
C1051 H1039 0.950 . S
C1051 C1047 1.393 . S
C1051 C1050 1.391 . S
H1052 C1060 0.950 . S
H1053 C1065 0.950 . S
H1054 C1062 0.950 . S
H1055 C1064 0.950 . S
H1056 C1066 0.950 . S
H1057 C1068 0.950 . S
H1058 C1070 0.950 . S
H1059 C1071 0.950 . S
C1060 H1052 0.950 . S
C1060 C1061 1.386 . S
C1060 C1062 1.391 . S
C1061 C1060 1.386 . S
C1061 C1065 1.393 . S
C1062 H1054 0.950 . S
C1062 C1060 1.391 . S
C1062 C1063 1.400 . S
C1063 C1062 1.400 . S
C1063 C1064 1.398 . S
C1063 C1069 1.491 . S
C1064 H1055 0.950 . S
C1064 C1063 1.398 . S
C1064 C1065 1.391 . S
C1065 H1053 0.950 . S
C1065 C1061 1.393 . S
C1065 C1064 1.391 . S
C1066 H1056 0.950 . S
C1066 C1067 1.386 . S
C1066 C1068 1.391 . S
C1067 C1066 1.386 . S
C1067 C1071 1.393 . S
C1068 H1057 0.950 . S
C1068 C1066 1.391 . S
C1068 C1069 1.400 . S
C1069 C1063 1.491 . S
C1069 C1068 1.400 . S
C1069 C1070 1.398 . S
C1070 H1058 0.950 . S
C1070 C1069 1.398 . S
C1070 C1071 1.391 . S
C1071 H1059 0.950 . S
C1071 C1067 1.393 . S
C1071 C1070 1.391 . S
H1072 C1080 0.950 . S
H1073 C1085 0.950 . S
H1074 C1082 0.950 . S
H1075 C1084 0.950 . S
H1076 C1086 0.950 . S
H1077 C1088 0.950 . S
H1078 C1090 0.950 . S
H1079 C1091 0.950 . S
C1080 H1072 0.950 . S
C1080 C1081 1.386 . S
C1080 C1082 1.391 . S
C1081 C1080 1.386 . S
C1081 C1085 1.393 . S
C1082 H1074 0.950 . S
C1082 C1080 1.391 . S
C1082 C1083 1.400 . S
C1083 C1082 1.400 . S
C1083 C1084 1.398 . S
C1083 C1089 1.491 . S
C1084 H1075 0.950 . S
C1084 C1083 1.398 . S
C1084 C1085 1.391 . S
C1085 H1073 0.950 . S
C1085 C1081 1.393 . S
C1085 C1084 1.391 . S
C1086 H1076 0.950 . S
C1086 C1087 1.386 . S
C1086 C1088 1.391 . S
C1087 C1086 1.386 . S
C1087 C1091 1.393 . S
C1088 H1077 0.950 . S
C1088 C1086 1.391 . S
C1088 C1089 1.400 . S
C1089 C1083 1.491 . S
C1089 C1088 1.400 . S
C1089 C1090 1.398 . S
C1090 H1078 0.950 . S
C1090 C1089 1.398 . S
C1090 C1091 1.391 . S
C1091 H1079 0.950 . S
C1091 C1087 1.393 . S
C1091 C1090 1.391 . S
H1092 C1100 0.950 . S
H1093 C1105 0.950 . S
H1094 C1102 0.950 . S
H1095 C1104 0.950 . S
H1096 C1106 0.950 . S
H1097 C1108 0.950 . S
H1098 C1110 0.950 . S
H1099 C1111 0.950 . S
C1100 H1092 0.950 . S
C1100 C1101 1.386 . S
C1100 C1102 1.391 . S
C1101 C1100 1.386 . S
C1101 C1105 1.393 . S
C1102 H1094 0.950 . S
C1102 C1100 1.391 . S
C1102 C1103 1.400 . S
C1103 C1102 1.400 . S
C1103 C1104 1.398 . S
C1103 C1109 1.491 . S
C1104 H1095 0.950 . S
C1104 C1103 1.398 . S
C1104 C1105 1.391 . S
C1105 H1093 0.950 . S
C1105 C1101 1.393 . S
C1105 C1104 1.391 . S
C1106 H1096 0.950 . S
C1106 C1107 1.386 . S
C1106 C1108 1.391 . S
C1107 C1106 1.386 . S
C1107 C1111 1.393 . S
C1108 H1097 0.950 . S
C1108 C1106 1.391 . S
C1108 C1109 1.400 . S
C1109 C1103 1.491 . S
C1109 C1108 1.400 . S
C1109 C1110 1.398 . S
C1110 H1098 0.950 . S
C1110 C1109 1.398 . S
C1110 C1111 1.391 . S
C1111 H1099 0.950 . S
C1111 C1107 1.393 . S
C1111 C1110 1.391 . S
H1112 C1120 0.950 . S
H1113 C1125 0.950 . S
H1114 C1122 0.950 . S
H1115 C1124 0.950 . S
H1116 C1126 0.950 . S
H1117 C1128 0.950 . S
H1118 C1130 0.950 . S
H1119 C1131 0.950 . S
C1120 H1112 0.950 . S
C1120 C1121 1.386 . S
C1120 C1122 1.391 . S
C1121 C1120 1.386 . S
C1121 C1125 1.393 . S
C1122 H1114 0.950 . S
C1122 C1120 1.391 . S
C1122 C1123 1.400 . S
C1123 C1122 1.400 . S
C1123 C1124 1.398 . S
C1123 C1129 1.491 . S
C1124 H1115 0.950 . S
C1124 C1123 1.398 . S
C1124 C1125 1.391 . S
C1125 H1113 0.950 . S
C1125 C1121 1.393 . S
C1125 C1124 1.391 . S
C1126 H1116 0.950 . S
C1126 C1127 1.386 . S
C1126 C1128 1.391 . S
C1127 C1126 1.386 . S
C1127 C1131 1.393 . S
C1128 H1117 0.950 . S
C1128 C1126 1.391 . S
C1128 C1129 1.400 . S
C1129 C1123 1.491 . S
C1129 C1128 1.400 . S
C1129 C1130 1.398 . S
C1130 H1118 0.950 . S
C1130 C1129 1.398 . S
C1130 C1131 1.391 . S
C1131 H1119 0.950 . S
C1131 C1127 1.393 . S
C1131 C1130 1.391 . S
H1132 C1140 0.950 . S
H1133 C1145 0.950 . S
H1134 C1142 0.950 . S
H1135 C1144 0.950 . S
H1136 C1146 0.950 . S
H1137 C1148 0.950 . S
H1138 C1150 0.950 . S
H1139 C1151 0.950 . S
C1140 H1132 0.950 . S
C1140 C1141 1.386 . S
C1140 C1142 1.391 . S
C1141 C1140 1.386 . S
C1141 C1145 1.393 . S
C1142 H1134 0.950 . S
C1142 C1140 1.391 . S
C1142 C1143 1.400 . S
C1143 C1142 1.400 . S
C1143 C1144 1.398 . S
C1143 C1149 1.491 . S
C1144 H1135 0.950 . S
C1144 C1143 1.398 . S
C1144 C1145 1.391 . S
C1145 H1133 0.950 . S
C1145 C1141 1.393 . S
C1145 C1144 1.391 . S
C1146 H1136 0.950 . S
C1146 C1147 1.386 . S
C1146 C1148 1.391 . S
C1147 C1146 1.386 . S
C1147 C1151 1.393 . S
C1148 H1137 0.950 . S
C1148 C1146 1.391 . S
C1148 C1149 1.400 . S
C1149 C1143 1.491 . S
C1149 C1148 1.400 . S
C1149 C1150 1.398 . S
C1150 H1138 0.950 . S
C1150 C1149 1.398 . S
C1150 C1151 1.391 . S
C1151 H1139 0.950 . S
C1151 C1147 1.393 . S
C1151 C1150 1.391 . S
H1152 C1160 0.950 . S
H1153 C1165 0.950 . S
H1154 C1162 0.950 . S
H1155 C1164 0.950 . S
H1156 C1166 0.950 . S
H1157 C1168 0.950 . S
H1158 C1170 0.950 . S
H1159 C1171 0.950 . S
C1160 H1152 0.950 . S
C1160 C1161 1.386 . S
C1160 C1162 1.391 . S
C1161 C1160 1.386 . S
C1161 C1165 1.393 . S
C1162 H1154 0.950 . S
C1162 C1160 1.391 . S
C1162 C1163 1.400 . S
C1163 C1162 1.400 . S
C1163 C1164 1.398 . S
C1163 C1169 1.491 . S
C1164 H1155 0.950 . S
C1164 C1163 1.398 . S
C1164 C1165 1.391 . S
C1165 H1153 0.950 . S
C1165 C1161 1.393 . S
C1165 C1164 1.391 . S
C1166 H1156 0.950 . S
C1166 C1167 1.386 . S
C1166 C1168 1.391 . S
C1167 C1166 1.386 . S
C1167 C1171 1.393 . S
C1168 H1157 0.950 . S
C1168 C1166 1.391 . S
C1168 C1169 1.400 . S
C1169 C1163 1.491 . S
C1169 C1168 1.400 . S
C1169 C1170 1.398 . S
C1170 H1158 0.950 . S
C1170 C1169 1.398 . S
C1170 C1171 1.391 . S
C1171 H1159 0.950 . S
C1171 C1167 1.393 . S
C1171 C1170 1.391 . S
H1172 C1180 0.950 . S
H1173 C1185 0.950 . S
H1174 C1182 0.950 . S
H1175 C1184 0.950 . S
H1176 C1186 0.950 . S
H1177 C1188 0.950 . S
H1178 C1190 0.950 . S
H1179 C1191 0.950 . S
C1180 H1172 0.950 . S
C1180 C1181 1.386 . S
C1180 C1182 1.391 . S
C1181 C1180 1.386 . S
C1181 C1185 1.393 . S
C1182 H1174 0.950 . S
C1182 C1180 1.391 . S
C1182 C1183 1.400 . S
C1183 C1182 1.400 . S
C1183 C1184 1.398 . S
C1183 C1189 1.491 . S
C1184 H1175 0.950 . S
C1184 C1183 1.398 . S
C1184 C1185 1.391 . S
C1185 H1173 0.950 . S
C1185 C1181 1.393 . S
C1185 C1184 1.391 . S
C1186 H1176 0.950 . S
C1186 C1187 1.386 . S
C1186 C1188 1.391 . S
C1187 C1186 1.386 . S
C1187 C1191 1.393 . S
C1188 H1177 0.950 . S
C1188 C1186 1.391 . S
C1188 C1189 1.400 . S
C1189 C1183 1.491 . S
C1189 C1188 1.400 . S
C1189 C1190 1.398 . S
C1190 H1178 0.950 . S
C1190 C1189 1.398 . S
C1190 C1191 1.391 . S
C1191 H1179 0.950 . S
C1191 C1187 1.393 . S
C1191 C1190 1.391 . S
H1192 C1200 0.950 . S
H1193 C1205 0.950 . S
H1194 C1202 0.950 . S
H1195 C1204 0.950 . S
H1196 C1206 0.950 . S
H1197 C1208 0.950 . S
H1198 C1210 0.950 . S
H1199 C1211 0.950 . S
C1200 H1192 0.950 . S
C1200 C1201 1.386 . S
C1200 C1202 1.391 . S
C1201 C1200 1.386 . S
C1201 C1205 1.393 . S
C1202 H1194 0.950 . S
C1202 C1200 1.391 . S
C1202 C1203 1.400 . S
C1203 C1202 1.400 . S
C1203 C1204 1.398 . S
C1203 C1209 1.491 . S
C1204 H1195 0.950 . S
C1204 C1203 1.398 . S
C1204 C1205 1.391 . S
C1205 H1193 0.950 . S
C1205 C1201 1.393 . S
C1205 C1204 1.391 . S
C1206 H1196 0.950 . S
C1206 C1207 1.386 . S
C1206 C1208 1.391 . S
C1207 C1206 1.386 . S
C1207 C1211 1.393 . S
C1208 H1197 0.950 . S
C1208 C1206 1.391 . S
C1208 C1209 1.400 . S
C1209 C1203 1.491 . S
C1209 C1208 1.400 . S
C1209 C1210 1.398 . S
C1210 H1198 0.950 . S
C1210 C1209 1.398 . S
C1210 C1211 1.391 . S
C1211 H1199 0.950 . S
C1211 C1207 1.393 . S
C1211 C1210 1.391 . S
H1212 C1220 0.950 . S
H1213 C1225 0.950 . S
H1214 C1222 0.950 . S
H1215 C1224 0.950 . S
H1216 C1226 0.950 . S
H1217 C1228 0.950 . S
H1218 C1230 0.950 . S
H1219 C1231 0.950 . S
C1220 H1212 0.950 . S
C1220 C1221 1.386 . S
C1220 C1222 1.391 . S
C1221 C1220 1.386 . S
C1221 C1225 1.393 . S
C1222 H1214 0.950 . S
C1222 C1220 1.391 . S
C1222 C1223 1.400 . S
C1223 C1222 1.400 . S
C1223 C1224 1.398 . S
C1223 C1229 1.491 . S
C1224 H1215 0.950 . S
C1224 C1223 1.398 . S
C1224 C1225 1.391 . S
C1225 H1213 0.950 . S
C1225 C1221 1.393 . S
C1225 C1224 1.391 . S
C1226 H1216 0.950 . S
C1226 C1227 1.386 . S
C1226 C1228 1.391 . S
C1227 C1226 1.386 . S
C1227 C1231 1.393 . S
C1228 H1217 0.950 . S
C1228 C1226 1.391 . S
C1228 C1229 1.400 . S
C1229 C1223 1.491 . S
C1229 C1228 1.400 . S
C1229 C1230 1.398 . S
C1230 H1218 0.950 . S
C1230 C1229 1.398 . S
C1230 C1231 1.391 . S
C1231 H1219 0.950 . S
C1231 C1227 1.393 . S
C1231 C1230 1.391 . S
H1232 C1240 0.950 . S
H1233 C1245 0.950 . S
H1234 C1242 0.950 . S
H1235 C1244 0.950 . S
H1236 C1246 0.950 . S
H1237 C1248 0.950 . S
H1238 C1250 0.950 . S
H1239 C1251 0.950 . S
C1240 H1232 0.950 . S
C1240 C1241 1.386 . S
C1240 C1242 1.391 . S
C1241 C1240 1.386 . S
C1241 C1245 1.393 . S
C1242 H1234 0.950 . S
C1242 C1240 1.391 . S
C1242 C1243 1.400 . S
C1243 C1242 1.400 . S
C1243 C1244 1.398 . S
C1243 C1249 1.491 . S
C1244 H1235 0.950 . S
C1244 C1243 1.398 . S
C1244 C1245 1.391 . S
C1245 H1233 0.950 . S
C1245 C1241 1.393 . S
C1245 C1244 1.391 . S
C1246 H1236 0.950 . S
C1246 C1247 1.386 . S
C1246 C1248 1.391 . S
C1247 C1246 1.386 . S
C1247 C1251 1.393 . S
C1248 H1237 0.950 . S
C1248 C1246 1.391 . S
C1248 C1249 1.400 . S
C1249 C1243 1.491 . S
C1249 C1248 1.400 . S
C1249 C1250 1.398 . S
C1250 H1238 0.950 . S
C1250 C1249 1.398 . S
C1250 C1251 1.391 . S
C1251 H1239 0.950 . S
C1251 C1247 1.393 . S
C1251 C1250 1.391 . S
H1252 C1260 0.950 . S
H1253 C1265 0.950 . S
H1254 C1262 0.950 . S
H1255 C1264 0.950 . S
H1256 C1266 0.950 . S
H1257 C1268 0.950 . S
H1258 C1270 0.950 . S
H1259 C1271 0.950 . S
C1260 H1252 0.950 . S
C1260 C1261 1.386 . S
C1260 C1262 1.391 . S
C1261 C1260 1.386 . S
C1261 C1265 1.393 . S
C1262 H1254 0.950 . S
C1262 C1260 1.391 . S
C1262 C1263 1.400 . S
C1263 C1262 1.400 . S
C1263 C1264 1.398 . S
C1263 C1269 1.491 . S
C1264 H1255 0.950 . S
C1264 C1263 1.398 . S
C1264 C1265 1.391 . S
C1265 H1253 0.950 . S
C1265 C1261 1.393 . S
C1265 C1264 1.391 . S
C1266 H1256 0.950 . S
C1266 C1267 1.386 . S
C1266 C1268 1.391 . S
C1267 C1266 1.386 . S
C1267 C1271 1.393 . S
C1268 H1257 0.950 . S
C1268 C1266 1.391 . S
C1268 C1269 1.400 . S
C1269 C1263 1.491 . S
C1269 C1268 1.400 . S
C1269 C1270 1.398 . S
C1270 H1258 0.950 . S
C1270 C1269 1.398 . S
C1270 C1271 1.391 . S
C1271 H1259 0.950 . S
C1271 C1267 1.393 . S
C1271 C1270 1.391 . S
H1272 C1280 0.950 . S
H1273 C1285 0.950 . S
H1274 C1282 0.950 . S
H1275 C1284 0.950 . S
H1276 C1286 0.950 . S
H1277 C1288 0.950 . S
H1278 C1290 0.950 . S
H1279 C1291 0.950 . S
C1280 H1272 0.950 . S
C1280 C1281 1.386 . S
C1280 C1282 1.391 . S
C1281 C1280 1.386 . S
C1281 C1285 1.393 . S
C1282 H1274 0.950 . S
C1282 C1280 1.391 . S
C1282 C1283 1.400 . S
C1283 C1282 1.400 . S
C1283 C1284 1.398 . S
C1283 C1289 1.491 . S
C1284 H1275 0.950 . S
C1284 C1283 1.398 . S
C1284 C1285 1.391 . S
C1285 H1273 0.950 . S
C1285 C1281 1.393 . S
C1285 C1284 1.391 . S
C1286 H1276 0.950 . S
C1286 C1287 1.386 . S
C1286 C1288 1.391 . S
C1287 C1286 1.386 . S
C1287 C1291 1.393 . S
C1288 H1277 0.950 . S
C1288 C1286 1.391 . S
C1288 C1289 1.400 . S
C1289 C1283 1.491 . S
C1289 C1288 1.400 . S
C1289 C1290 1.398 . S
C1290 H1278 0.950 . S
C1290 C1289 1.398 . S
C1290 C1291 1.391 . S
C1291 H1279 0.950 . S
C1291 C1287 1.393 . S
C1291 C1290 1.391 . S
H1292 C1300 0.950 . S
H1293 C1305 0.950 . S
H1294 C1302 0.950 . S
H1295 C1304 0.950 . S
H1296 C1306 0.950 . S
H1297 C1308 0.950 . S
H1298 C1310 0.950 . S
H1299 C1311 0.950 . S
C1300 H1292 0.950 . S
C1300 C1301 1.386 . S
C1300 C1302 1.391 . S
C1301 C1300 1.386 . S
C1301 C1305 1.393 . S
C1302 H1294 0.950 . S
C1302 C1300 1.391 . S
C1302 C1303 1.400 . S
C1303 C1302 1.400 . S
C1303 C1304 1.398 . S
C1303 C1309 1.491 . S
C1304 H1295 0.950 . S
C1304 C1303 1.398 . S
C1304 C1305 1.391 . S
C1305 H1293 0.950 . S
C1305 C1301 1.393 . S
C1305 C1304 1.391 . S
C1306 H1296 0.950 . S
C1306 C1307 1.386 . S
C1306 C1308 1.391 . S
C1307 C1306 1.386 . S
C1307 C1311 1.393 . S
C1308 H1297 0.950 . S
C1308 C1306 1.391 . S
C1308 C1309 1.400 . S
C1309 C1303 1.491 . S
C1309 C1308 1.400 . S
C1309 C1310 1.398 . S
C1310 H1298 0.950 . S
C1310 C1309 1.398 . S
C1310 C1311 1.391 . S
C1311 H1299 0.950 . S
C1311 C1307 1.393 . S
C1311 C1310 1.391 . S
H1312 C1320 0.950 . S
H1313 C1325 0.950 . S
H1314 C1322 0.950 . S
H1315 C1324 0.950 . S
H1316 C1326 0.950 . S
H1317 C1328 0.950 . S
H1318 C1330 0.950 . S
H1319 C1331 0.950 . S
C1320 H1312 0.950 . S
C1320 C1321 1.386 . S
C1320 C1322 1.391 . S
C1321 C1320 1.386 . S
C1321 C1325 1.393 . S
C1322 H1314 0.950 . S
C1322 C1320 1.391 . S
C1322 C1323 1.400 . S
C1323 C1322 1.400 . S
C1323 C1324 1.398 . S
C1323 C1329 1.491 . S
C1324 H1315 0.950 . S
C1324 C1323 1.398 . S
C1324 C1325 1.391 . S
C1325 H1313 0.950 . S
C1325 C1321 1.393 . S
C1325 C1324 1.391 . S
C1326 H1316 0.950 . S
C1326 C1327 1.386 . S
C1326 C1328 1.391 . S
C1327 C1326 1.386 . S
C1327 C1331 1.393 . S
C1328 H1317 0.950 . S
C1328 C1326 1.391 . S
C1328 C1329 1.400 . S
C1329 C1323 1.491 . S
C1329 C1328 1.400 . S
C1329 C1330 1.398 . S
C1330 H1318 0.950 . S
C1330 C1329 1.398 . S
C1330 C1331 1.391 . S
C1331 H1319 0.950 . S
C1331 C1327 1.393 . S
C1331 C1330 1.391 . S
H1332 C1340 0.950 . S
H1333 C1345 0.950 . S
H1334 C1342 0.950 . S
H1335 C1344 0.950 . S
H1336 C1346 0.950 . S
H1337 C1348 0.950 . S
H1338 C1350 0.950 . S
H1339 C1351 0.950 . S
C1340 H1332 0.950 . S
C1340 C1341 1.386 . S
C1340 C1342 1.391 . S
C1341 C1340 1.386 . S
C1341 C1345 1.393 . S
C1342 H1334 0.950 . S
C1342 C1340 1.391 . S
C1342 C1343 1.400 . S
C1343 C1342 1.400 . S
C1343 C1344 1.398 . S
C1343 C1349 1.491 . S
C1344 H1335 0.950 . S
C1344 C1343 1.398 . S
C1344 C1345 1.391 . S
C1345 H1333 0.950 . S
C1345 C1341 1.393 . S
C1345 C1344 1.391 . S
C1346 H1336 0.950 . S
C1346 C1347 1.386 . S
C1346 C1348 1.391 . S
C1347 C1346 1.386 . S
C1347 C1351 1.393 . S
C1348 H1337 0.950 . S
C1348 C1346 1.391 . S
C1348 C1349 1.400 . S
C1349 C1343 1.491 . S
C1349 C1348 1.400 . S
C1349 C1350 1.398 . S
C1350 H1338 0.950 . S
C1350 C1349 1.398 . S
C1350 C1351 1.391 . S
C1351 H1339 0.950 . S
C1351 C1347 1.393 . S
C1351 C1350 1.391 . S
H1352 C1360 0.950 . S
H1353 C1365 0.950 . S
H1354 C1362 0.950 . S
H1355 C1364 0.950 . S
H1356 C1366 0.950 . S
H1357 C1368 0.950 . S
H1358 C1370 0.950 . S
H1359 C1371 0.950 . S
C1360 H1352 0.950 . S
C1360 C1361 1.386 . S
C1360 C1362 1.391 . S
C1361 C1360 1.386 . S
C1361 C1365 1.393 . S
C1362 H1354 0.950 . S
C1362 C1360 1.391 . S
C1362 C1363 1.400 . S
C1363 C1362 1.400 . S
C1363 C1364 1.398 . S
C1363 C1369 1.491 . S
C1364 H1355 0.950 . S
C1364 C1363 1.398 . S
C1364 C1365 1.391 . S
C1365 H1353 0.950 . S
C1365 C1361 1.393 . S
C1365 C1364 1.391 . S
C1366 H1356 0.950 . S
C1366 C1367 1.386 . S
C1366 C1368 1.391 . S
C1367 C1366 1.386 . S
C1367 C1371 1.393 . S
C1368 H1357 0.950 . S
C1368 C1366 1.391 . S
C1368 C1369 1.400 . S
C1369 C1363 1.491 . S
C1369 C1368 1.400 . S
C1369 C1370 1.398 . S
C1370 H1358 0.950 . S
C1370 C1369 1.398 . S
C1370 C1371 1.391 . S
C1371 H1359 0.950 . S
C1371 C1367 1.393 . S
C1371 C1370 1.391 . S
H1372 C1380 0.950 . S
H1373 C1385 0.950 . S
H1374 C1382 0.950 . S
H1375 C1384 0.950 . S
H1376 C1386 0.950 . S
H1377 C1388 0.950 . S
H1378 C1390 0.950 . S
H1379 C1391 0.950 . S
C1380 H1372 0.950 . S
C1380 C1381 1.386 . S
C1380 C1382 1.391 . S
C1381 C1380 1.386 . S
C1381 C1385 1.393 . S
C1382 H1374 0.950 . S
C1382 C1380 1.391 . S
C1382 C1383 1.400 . S
C1383 C1382 1.400 . S
C1383 C1384 1.398 . S
C1383 C1389 1.491 . S
C1384 H1375 0.950 . S
C1384 C1383 1.398 . S
C1384 C1385 1.391 . S
C1385 H1373 0.950 . S
C1385 C1381 1.393 . S
C1385 C1384 1.391 . S
C1386 H1376 0.950 . S
C1386 C1387 1.386 . S
C1386 C1388 1.391 . S
C1387 C1386 1.386 . S
C1387 C1391 1.393 . S
C1388 H1377 0.950 . S
C1388 C1386 1.391 . S
C1388 C1389 1.400 . S
C1389 C1383 1.491 . S
C1389 C1388 1.400 . S
C1389 C1390 1.398 . S
C1390 H1378 0.950 . S
C1390 C1389 1.398 . S
C1390 C1391 1.391 . S
C1391 H1379 0.950 . S
C1391 C1387 1.393 . S
C1391 C1390 1.391 . S
H1392 C1400 0.950 . S
H1393 C1405 0.950 . S
H1394 C1402 0.950 . S
H1395 C1404 0.950 . S
H1396 C1406 0.950 . S
H1397 C1408 0.950 . S
H1398 C1410 0.950 . S
H1399 C1411 0.950 . S
C1400 H1392 0.950 . S
C1400 C1401 1.386 . S
C1400 C1402 1.391 . S
C1401 C1400 1.386 . S
C1401 C1405 1.393 . S
C1402 H1394 0.950 . S
C1402 C1400 1.391 . S
C1402 C1403 1.400 . S
C1403 C1402 1.400 . S
C1403 C1404 1.398 . S
C1403 C1409 1.491 . S
C1404 H1395 0.950 . S
C1404 C1403 1.398 . S
C1404 C1405 1.391 . S
C1405 H1393 0.950 . S
C1405 C1401 1.393 . S
C1405 C1404 1.391 . S
C1406 H1396 0.950 . S
C1406 C1407 1.386 . S
C1406 C1408 1.391 . S
C1407 C1406 1.386 . S
C1407 C1411 1.393 . S
C1408 H1397 0.950 . S
C1408 C1406 1.391 . S
C1408 C1409 1.400 . S
C1409 C1403 1.491 . S
C1409 C1408 1.400 . S
C1409 C1410 1.398 . S
C1410 H1398 0.950 . S
C1410 C1409 1.398 . S
C1410 C1411 1.391 . S
C1411 H1399 0.950 . S
C1411 C1407 1.393 . S
C1411 C1410 1.391 . S
H1412 C1420 0.950 . S
H1413 C1425 0.950 . S
H1414 C1422 0.950 . S
H1415 C1424 0.950 . S
H1416 C1426 0.950 . S
H1417 C1428 0.950 . S
H1418 C1430 0.950 . S
H1419 C1431 0.950 . S
C1420 H1412 0.950 . S
C1420 C1421 1.386 . S
C1420 C1422 1.391 . S
C1421 C1420 1.386 . S
C1421 C1425 1.393 . S
C1422 H1414 0.950 . S
C1422 C1420 1.391 . S
C1422 C1423 1.400 . S
C1423 C1422 1.400 . S
C1423 C1424 1.398 . S
C1423 C1429 1.491 . S
C1424 H1415 0.950 . S
C1424 C1423 1.398 . S
C1424 C1425 1.391 . S
C1425 H1413 0.950 . S
C1425 C1421 1.393 . S
C1425 C1424 1.391 . S
C1426 H1416 0.950 . S
C1426 C1427 1.386 . S
C1426 C1428 1.391 . S
C1427 C1426 1.386 . S
C1427 C1431 1.393 . S
C1428 H1417 0.950 . S
C1428 C1426 1.391 . S
C1428 C1429 1.400 . S
C1429 C1423 1.491 . S
C1429 C1428 1.400 . S
C1429 C1430 1.398 . S
C1430 H1418 0.950 . S
C1430 C1429 1.398 . S
C1430 C1431 1.391 . S
C1431 H1419 0.950 . S
C1431 C1427 1.393 . S
C1431 C1430 1.391 . S
H1432 C1440 0.950 . S
H1433 C1445 0.950 . S
H1434 C1442 0.950 . S
H1435 C1444 0.950 . S
H1436 C1446 0.950 . S
H1437 C1448 0.950 . S
H1438 C1450 0.950 . S
H1439 C1451 0.950 . S
C1440 H1432 0.950 . S
C1440 C1441 1.386 . S
C1440 C1442 1.391 . S
C1441 C1440 1.386 . S
C1441 C1445 1.393 . S
C1442 H1434 0.950 . S
C1442 C1440 1.391 . S
C1442 C1443 1.400 . S
C1443 C1442 1.400 . S
C1443 C1444 1.398 . S
C1443 C1449 1.491 . S
C1444 H1435 0.950 . S
C1444 C1443 1.398 . S
C1444 C1445 1.391 . S
C1445 H1433 0.950 . S
C1445 C1441 1.393 . S
C1445 C1444 1.391 . S
C1446 H1436 0.950 . S
C1446 C1447 1.386 . S
C1446 C1448 1.391 . S
C1447 C1446 1.386 . S
C1447 C1451 1.393 . S
C1448 H1437 0.950 . S
C1448 C1446 1.391 . S
C1448 C1449 1.400 . S
C1449 C1443 1.491 . S
C1449 C1448 1.400 . S
C1449 C1450 1.398 . S
C1450 H1438 0.950 . S
C1450 C1449 1.398 . S
C1450 C1451 1.391 . S
C1451 H1439 0.950 . S
C1451 C1447 1.393 . S
C1451 C1450 1.391 . S
H1452 C1460 0.950 . S
H1453 C1465 0.950 . S
H1454 C1462 0.950 . S
H1455 C1464 0.950 . S
H1456 C1466 0.950 . S
H1457 C1468 0.950 . S
H1458 C1470 0.950 . S
H1459 C1471 0.950 . S
C1460 H1452 0.950 . S
C1460 C1461 1.386 . S
C1460 C1462 1.391 . S
C1461 C1460 1.386 . S
C1461 C1465 1.393 . S
C1462 H1454 0.950 . S
C1462 C1460 1.391 . S
C1462 C1463 1.400 . S
C1463 C1462 1.400 . S
C1463 C1464 1.398 . S
C1463 C1469 1.491 . S
C1464 H1455 0.950 . S
C1464 C1463 1.398 . S
C1464 C1465 1.391 . S
C1465 H1453 0.950 . S
C1465 C1461 1.393 . S
C1465 C1464 1.391 . S
C1466 H1456 0.950 . S
C1466 C1467 1.386 . S
C1466 C1468 1.391 . S
C1467 C1466 1.386 . S
C1467 C1471 1.393 . S
C1468 H1457 0.950 . S
C1468 C1466 1.391 . S
C1468 C1469 1.400 . S
C1469 C1463 1.491 . S
C1469 C1468 1.400 . S
C1469 C1470 1.398 . S
C1470 H1458 0.950 . S
C1470 C1469 1.398 . S
C1470 C1471 1.391 . S
C1471 H1459 0.950 . S
C1471 C1467 1.393 . S
C1471 C1470 1.391 . S
H1472 C1480 0.950 . S
H1473 C1485 0.950 . S
H1474 C1482 0.950 . S
H1475 C1484 0.950 . S
H1476 C1486 0.950 . S
H1477 C1488 0.950 . S
H1478 C1490 0.950 . S
H1479 C1491 0.950 . S
C1480 H1472 0.950 . S
C1480 C1481 1.386 . S
C1480 C1482 1.391 . S
C1481 C1480 1.386 . S
C1481 C1485 1.393 . S
C1482 H1474 0.950 . S
C1482 C1480 1.391 . S
C1482 C1483 1.400 . S
C1483 C1482 1.400 . S
C1483 C1484 1.398 . S
C1483 C1489 1.491 . S
C1484 H1475 0.950 . S
C1484 C1483 1.398 . S
C1484 C1485 1.391 . S
C1485 H1473 0.950 . S
C1485 C1481 1.393 . S
C1485 C1484 1.391 . S
C1486 H1476 0.950 . S
C1486 C1487 1.386 . S
C1486 C1488 1.391 . S
C1487 C1486 1.386 . S
C1487 C1491 1.393 . S
C1488 H1477 0.950 . S
C1488 C1486 1.391 . S
C1488 C1489 1.400 . S
C1489 C1483 1.491 . S
C1489 C1488 1.400 . S
C1489 C1490 1.398 . S
C1490 H1478 0.950 . S
C1490 C1489 1.398 . S
C1490 C1491 1.391 . S
C1491 H1479 0.950 . S
C1491 C1487 1.393 . S
C1491 C1490 1.391 . S
H1492 C1500 0.950 . S
H1493 C1505 0.950 . S
H1494 C1502 0.950 . S
H1495 C1504 0.950 . S
H1496 C1506 0.950 . S
H1497 C1508 0.950 . S
H1498 C1510 0.950 . S
H1499 C1511 0.950 . S
C1500 H1492 0.950 . S
C1500 C1501 1.386 . S
C1500 C1502 1.391 . S
C1501 C1500 1.386 . S
C1501 C1505 1.393 . S
C1502 H1494 0.950 . S
C1502 C1500 1.391 . S
C1502 C1503 1.400 . S
C1503 C1502 1.400 . S
C1503 C1504 1.398 . S
C1503 C1509 1.491 . S
C1504 H1495 0.950 . S
C1504 C1503 1.398 . S
C1504 C1505 1.391 . S
C1505 H1493 0.950 . S
C1505 C1501 1.393 . S
C1505 C1504 1.391 . S
C1506 H1496 0.950 . S
C1506 C1507 1.386 . S
C1506 C1508 1.391 . S
C1507 C1506 1.386 . S
C1507 C1511 1.393 . S
C1508 H1497 0.950 . S
C1508 C1506 1.391 . S
C1508 C1509 1.400 . S
C1509 C1503 1.491 . S
C1509 C1508 1.400 . S
C1509 C1510 1.398 . S
C1510 H1498 0.950 . S
C1510 C1509 1.398 . S
C1510 C1511 1.391 . S
C1511 H1499 0.950 . S
C1511 C1507 1.393 . S
C1511 C1510 1.391 . S
H1512 C1520 0.950 . S
H1513 C1525 0.950 . S
H1514 C1522 0.950 . S
H1515 C1524 0.950 . S
H1516 C1526 0.950 . S
H1517 C1528 0.950 . S
H1518 C1530 0.950 . S
H1519 C1531 0.950 . S
C1520 H1512 0.950 . S
C1520 C1521 1.386 . S
C1520 C1522 1.391 . S
C1521 C1520 1.386 . S
C1521 C1525 1.393 . S
C1522 H1514 0.950 . S
C1522 C1520 1.391 . S
C1522 C1523 1.400 . S
C1523 C1522 1.400 . S
C1523 C1524 1.398 . S
C1523 C1529 1.491 . S
C1524 H1515 0.950 . S
C1524 C1523 1.398 . S
C1524 C1525 1.391 . S
C1525 H1513 0.950 . S
C1525 C1521 1.393 . S
C1525 C1524 1.391 . S
C1526 H1516 0.950 . S
C1526 C1527 1.386 . S
C1526 C1528 1.391 . S
C1527 C1526 1.386 . S
C1527 C1531 1.393 . S
C1528 H1517 0.950 . S
C1528 C1526 1.391 . S
C1528 C1529 1.400 . S
C1529 C1523 1.491 . S
C1529 C1528 1.400 . S
C1529 C1530 1.398 . S
C1530 H1518 0.950 . S
C1530 C1529 1.398 . S
C1530 C1531 1.391 . S
C1531 H1519 0.950 . S
C1531 C1527 1.393 . S
C1531 C1530 1.391 . S
H1532 C1540 0.950 . S
H1533 C1545 0.950 . S
H1534 C1542 0.950 . S
H1535 C1544 0.950 . S
H1536 C1546 0.950 . S
H1537 C1548 0.950 . S
H1538 C1550 0.950 . S
H1539 C1551 0.950 . S
C1540 H1532 0.950 . S
C1540 C1541 1.386 . S
C1540 C1542 1.391 . S
C1541 C1540 1.386 . S
C1541 C1545 1.393 . S
C1542 H1534 0.950 . S
C1542 C1540 1.391 . S
C1542 C1543 1.400 . S
C1543 C1542 1.400 . S
C1543 C1544 1.398 . S
C1543 C1549 1.491 . S
C1544 H1535 0.950 . S
C1544 C1543 1.398 . S
C1544 C1545 1.391 . S
C1545 H1533 0.950 . S
C1545 C1541 1.393 . S
C1545 C1544 1.391 . S
C1546 H1536 0.950 . S
C1546 C1547 1.386 . S
C1546 C1548 1.391 . S
C1547 C1546 1.386 . S
C1547 C1551 1.393 . S
C1548 H1537 0.950 . S
C1548 C1546 1.391 . S
C1548 C1549 1.400 . S
C1549 C1543 1.491 . S
C1549 C1548 1.400 . S
C1549 C1550 1.398 . S
C1550 H1538 0.950 . S
C1550 C1549 1.398 . S
C1550 C1551 1.391 . S
C1551 H1539 0.950 . S
C1551 C1547 1.393 . S
C1551 C1550 1.391 . S
H1552 C1560 0.950 . S
H1553 C1565 0.950 . S
H1554 C1562 0.950 . S
H1555 C1564 0.950 . S
H1556 C1566 0.950 . S
H1557 C1568 0.950 . S
H1558 C1570 0.950 . S
H1559 C1571 0.950 . S
C1560 H1552 0.950 . S
C1560 C1561 1.386 . S
C1560 C1562 1.391 . S
C1561 C1560 1.386 . S
C1561 C1565 1.393 . S
C1562 H1554 0.950 . S
C1562 C1560 1.391 . S
C1562 C1563 1.400 . S
C1563 C1562 1.400 . S
C1563 C1564 1.398 . S
C1563 C1569 1.491 . S
C1564 H1555 0.950 . S
C1564 C1563 1.398 . S
C1564 C1565 1.391 . S
C1565 H1553 0.950 . S
C1565 C1561 1.393 . S
C1565 C1564 1.391 . S
C1566 H1556 0.950 . S
C1566 C1567 1.386 . S
C1566 C1568 1.391 . S
C1567 C1566 1.386 . S
C1567 C1571 1.393 . S
C1568 H1557 0.950 . S
C1568 C1566 1.391 . S
C1568 C1569 1.400 . S
C1569 C1563 1.491 . S
C1569 C1568 1.400 . S
C1569 C1570 1.398 . S
C1570 H1558 0.950 . S
C1570 C1569 1.398 . S
C1570 C1571 1.391 . S
C1571 H1559 0.950 . S
C1571 C1567 1.393 . S
C1571 C1570 1.391 . S
H1572 C1580 0.950 . S
H1573 C1585 0.950 . S
H1574 C1582 0.950 . S
H1575 C1584 0.950 . S
H1576 C1586 0.950 . S
H1577 C1588 0.950 . S
H1578 C1590 0.950 . S
H1579 C1591 0.950 . S
C1580 H1572 0.950 . S
C1580 C1581 1.386 . S
C1580 C1582 1.391 . S
C1581 C1580 1.386 . S
C1581 C1585 1.393 . S
C1582 H1574 0.950 . S
C1582 C1580 1.391 . S
C1582 C1583 1.400 . S
C1583 C1582 1.400 . S
C1583 C1584 1.398 . S
C1583 C1589 1.491 . S
C1584 H1575 0.950 . S
C1584 C1583 1.398 . S
C1584 C1585 1.391 . S
C1585 H1573 0.950 . S
C1585 C1581 1.393 . S
C1585 C1584 1.391 . S
C1586 H1576 0.950 . S
C1586 C1587 1.386 . S
C1586 C1588 1.391 . S
C1587 C1586 1.386 . S
C1587 C1591 1.393 . S
C1588 H1577 0.950 . S
C1588 C1586 1.391 . S
C1588 C1589 1.400 . S
C1589 C1583 1.491 . S
C1589 C1588 1.400 . S
C1589 C1590 1.398 . S
C1590 H1578 0.950 . S
C1590 C1589 1.398 . S
C1590 C1591 1.391 . S
C1591 H1579 0.950 . S
C1591 C1587 1.393 . S
C1591 C1590 1.391 . S
H1592 C1600 0.950 . S
H1593 C1605 0.950 . S
H1594 C1602 0.950 . S
H1595 C1604 0.950 . S
H1596 C1606 0.950 . S
H1597 C1608 0.950 . S
H1598 C1610 0.950 . S
H1599 C1611 0.950 . S
C1600 H1592 0.950 . S
C1600 C1601 1.386 . S
C1600 C1602 1.391 . S
C1601 C1600 1.386 . S
C1601 C1605 1.393 . S
C1602 H1594 0.950 . S
C1602 C1600 1.391 . S
C1602 C1603 1.400 . S
C1603 C1602 1.400 . S
C1603 C1604 1.398 . S
C1603 C1609 1.491 . S
C1604 H1595 0.950 . S
C1604 C1603 1.398 . S
C1604 C1605 1.391 . S
C1605 H1593 0.950 . S
C1605 C1601 1.393 . S
C1605 C1604 1.391 . S
C1606 H1596 0.950 . S
C1606 C1607 1.386 . S
C1606 C1608 1.391 . S
C1607 C1606 1.386 . S
C1607 C1611 1.393 . S
C1608 H1597 0.950 . S
C1608 C1606 1.391 . S
C1608 C1609 1.400 . S
C1609 C1603 1.491 . S
C1609 C1608 1.400 . S
C1609 C1610 1.398 . S
C1610 H1598 0.950 . S
C1610 C1609 1.398 . S
C1610 C1611 1.391 . S
C1611 H1599 0.950 . S
C1611 C1607 1.393 . S
C1611 C1610 1.391 . S
H1612 C1620 0.950 . S
H1613 C1625 0.950 . S
H1614 C1622 0.950 . S
H1615 C1624 0.950 . S
H1616 C1626 0.950 . S
H1617 C1628 0.950 . S
H1618 C1630 0.950 . S
H1619 C1631 0.950 . S
C1620 H1612 0.950 . S
C1620 C1621 1.386 . S
C1620 C1622 1.391 . S
C1621 C1620 1.386 . S
C1621 C1625 1.393 . S
C1622 H1614 0.950 . S
C1622 C1620 1.391 . S
C1622 C1623 1.400 . S
C1623 C1622 1.400 . S
C1623 C1624 1.398 . S
C1623 C1629 1.491 . S
C1624 H1615 0.950 . S
C1624 C1623 1.398 . S
C1624 C1625 1.391 . S
C1625 H1613 0.950 . S
C1625 C1621 1.393 . S
C1625 C1624 1.391 . S
C1626 H1616 0.950 . S
C1626 C1627 1.386 . S
C1626 C1628 1.391 . S
C1627 C1626 1.386 . S
C1627 C1631 1.393 . S
C1628 H1617 0.950 . S
C1628 C1626 1.391 . S
C1628 C1629 1.400 . S
C1629 C1623 1.491 . S
C1629 C1628 1.400 . S
C1629 C1630 1.398 . S
C1630 H1618 0.950 . S
C1630 C1629 1.398 . S
C1630 C1631 1.391 . S
C1631 H1619 0.950 . S
C1631 C1627 1.393 . S
C1631 C1630 1.391 . S
H1632 C1640 0.950 . S
H1633 C1645 0.950 . S
H1634 C1642 0.950 . S
H1635 C1644 0.950 . S
H1636 C1646 0.950 . S
H1637 C1648 0.950 . S
H1638 C1650 0.950 . S
H1639 C1651 0.950 . S
C1640 H1632 0.950 . S
C1640 C1641 1.386 . S
C1640 C1642 1.391 . S
C1641 C1640 1.386 . S
C1641 C1645 1.393 . S
C1642 H1634 0.950 . S
C1642 C1640 1.391 . S
C1642 C1643 1.400 . S
C1643 C1642 1.400 . S
C1643 C1644 1.398 . S
C1643 C1649 1.491 . S
C1644 H1635 0.950 . S
C1644 C1643 1.398 . S
C1644 C1645 1.391 . S
C1645 H1633 0.950 . S
C1645 C1641 1.393 . S
C1645 C1644 1.391 . S
C1646 H1636 0.950 . S
C1646 C1647 1.386 . S
C1646 C1648 1.391 . S
C1647 C1646 1.386 . S
C1647 C1651 1.393 . S
C1648 H1637 0.950 . S
C1648 C1646 1.391 . S
C1648 C1649 1.400 . S
C1649 C1643 1.491 . S
C1649 C1648 1.400 . S
C1649 C1650 1.398 . S
C1650 H1638 0.950 . S
C1650 C1649 1.398 . S
C1650 C1651 1.391 . S
C1651 H1639 0.950 . S
C1651 C1647 1.393 . S
C1651 C1650 1.391 . S
H1652 C1660 0.950 . S
H1653 C1665 0.950 . S
H1654 C1662 0.950 . S
H1655 C1664 0.950 . S
H1656 C1666 0.950 . S
H1657 C1668 0.950 . S
H1658 C1670 0.950 . S
H1659 C1671 0.950 . S
C1660 H1652 0.950 . S
C1660 C1661 1.386 . S
C1660 C1662 1.391 . S
C1661 C1660 1.386 . S
C1661 C1665 1.393 . S
C1662 H1654 0.950 . S
C1662 C1660 1.391 . S
C1662 C1663 1.400 . S
C1663 C1662 1.400 . S
C1663 C1664 1.398 . S
C1663 C1669 1.491 . S
C1664 H1655 0.950 . S
C1664 C1663 1.398 . S
C1664 C1665 1.391 . S
C1665 H1653 0.950 . S
C1665 C1661 1.393 . S
C1665 C1664 1.391 . S
C1666 H1656 0.950 . S
C1666 C1667 1.386 . S
C1666 C1668 1.391 . S
C1667 C1666 1.386 . S
C1667 C1671 1.393 . S
C1668 H1657 0.950 . S
C1668 C1666 1.391 . S
C1668 C1669 1.400 . S
C1669 C1663 1.491 . S
C1669 C1668 1.400 . S
C1669 C1670 1.398 . S
C1670 H1658 0.950 . S
C1670 C1669 1.398 . S
C1670 C1671 1.391 . S
C1671 H1659 0.950 . S
C1671 C1667 1.393 . S
C1671 C1670 1.391 . S
H1672 C1680 0.950 . S
H1673 C1685 0.950 . S
H1674 C1682 0.950 . S
H1675 C1684 0.950 . S
H1676 C1686 0.950 . S
H1677 C1688 0.950 . S
H1678 C1690 0.950 . S
H1679 C1691 0.950 . S
C1680 H1672 0.950 . S
C1680 C1681 1.386 . S
C1680 C1682 1.391 . S
C1681 C1680 1.386 . S
C1681 C1685 1.393 . S
C1682 H1674 0.950 . S
C1682 C1680 1.391 . S
C1682 C1683 1.400 . S
C1683 C1682 1.400 . S
C1683 C1684 1.398 . S
C1683 C1689 1.491 . S
C1684 H1675 0.950 . S
C1684 C1683 1.398 . S
C1684 C1685 1.391 . S
C1685 H1673 0.950 . S
C1685 C1681 1.393 . S
C1685 C1684 1.391 . S
C1686 H1676 0.950 . S
C1686 C1687 1.386 . S
C1686 C1688 1.391 . S
C1687 C1686 1.386 . S
C1687 C1691 1.393 . S
C1688 H1677 0.950 . S
C1688 C1686 1.391 . S
C1688 C1689 1.400 . S
C1689 C1683 1.491 . S
C1689 C1688 1.400 . S
C1689 C1690 1.398 . S
C1690 H1678 0.950 . S
C1690 C1689 1.398 . S
C1690 C1691 1.391 . S
C1691 H1679 0.950 . S
C1691 C1687 1.393 . S
C1691 C1690 1.391 . S
H1692 C1700 0.950 . S
H1693 C1705 0.950 . S
H1694 C1702 0.950 . S
H1695 C1704 0.950 . S
H1696 C1706 0.950 . S
H1697 C1708 0.950 . S
H1698 C1710 0.950 . S
H1699 C1711 0.950 . S
C1700 H1692 0.950 . S
C1700 C1701 1.386 . S
C1700 C1702 1.391 . S
C1701 C1700 1.386 . S
C1701 C1705 1.393 . S
C1702 H1694 0.950 . S
C1702 C1700 1.391 . S
C1702 C1703 1.400 . S
C1703 C1702 1.400 . S
C1703 C1704 1.398 . S
C1703 C1709 1.491 . S
C1704 H1695 0.950 . S
C1704 C1703 1.398 . S
C1704 C1705 1.391 . S
C1705 H1693 0.950 . S
C1705 C1701 1.393 . S
C1705 C1704 1.391 . S
C1706 H1696 0.950 . S
C1706 C1707 1.386 . S
C1706 C1708 1.391 . S
C1707 C1706 1.386 . S
C1707 C1711 1.393 . S
C1708 H1697 0.950 . S
C1708 C1706 1.391 . S
C1708 C1709 1.400 . S
C1709 C1703 1.491 . S
C1709 C1708 1.400 . S
C1709 C1710 1.398 . S
C1710 H1698 0.950 . S
C1710 C1709 1.398 . S
C1710 C1711 1.391 . S
C1711 H1699 0.950 . S
C1711 C1707 1.393 . S
C1711 C1710 1.391 . S
H1712 C1720 0.950 . S
H1713 C1725 0.950 . S
H1714 C1722 0.950 . S
H1715 C1724 0.950 . S
H1716 C1726 0.950 . S
H1717 C1728 0.950 . S
H1718 C1730 0.950 . S
H1719 C1731 0.950 . S
C1720 H1712 0.950 . S
C1720 C1721 1.386 . S
C1720 C1722 1.391 . S
C1721 C1720 1.386 . S
C1721 C1725 1.393 . S
C1722 H1714 0.950 . S
C1722 C1720 1.391 . S
C1722 C1723 1.400 . S
C1723 C1722 1.400 . S
C1723 C1724 1.398 . S
C1723 C1729 1.491 . S
C1724 H1715 0.950 . S
C1724 C1723 1.398 . S
C1724 C1725 1.391 . S
C1725 H1713 0.950 . S
C1725 C1721 1.393 . S
C1725 C1724 1.391 . S
C1726 H1716 0.950 . S
C1726 C1727 1.386 . S
C1726 C1728 1.391 . S
C1727 C1726 1.386 . S
C1727 C1731 1.393 . S
C1728 H1717 0.950 . S
C1728 C1726 1.391 . S
C1728 C1729 1.400 . S
C1729 C1723 1.491 . S
C1729 C1728 1.400 . S
C1729 C1730 1.398 . S
C1730 H1718 0.950 . S
C1730 C1729 1.398 . S
C1730 C1731 1.391 . S
C1731 H1719 0.950 . S
C1731 C1727 1.393 . S
C1731 C1730 1.391 . S
H1732 C1740 0.950 . S
H1733 C1745 0.950 . S
H1734 C1742 0.950 . S
H1735 C1744 0.950 . S
H1736 C1746 0.950 . S
H1737 C1748 0.950 . S
H1738 C1750 0.950 . S
H1739 C1751 0.950 . S
C1740 H1732 0.950 . S
C1740 C1741 1.386 . S
C1740 C1742 1.391 . S
C1741 C1740 1.386 . S
C1741 C1745 1.393 . S
C1742 H1734 0.950 . S
C1742 C1740 1.391 . S
C1742 C1743 1.400 . S
C1743 C1742 1.400 . S
C1743 C1744 1.398 . S
C1743 C1749 1.491 . S
C1744 H1735 0.950 . S
C1744 C1743 1.398 . S
C1744 C1745 1.391 . S
C1745 H1733 0.950 . S
C1745 C1741 1.393 . S
C1745 C1744 1.391 . S
C1746 H1736 0.950 . S
C1746 C1747 1.386 . S
C1746 C1748 1.391 . S
C1747 C1746 1.386 . S
C1747 C1751 1.393 . S
C1748 H1737 0.950 . S
C1748 C1746 1.391 . S
C1748 C1749 1.400 . S
C1749 C1743 1.491 . S
C1749 C1748 1.400 . S
C1749 C1750 1.398 . S
C1750 H1738 0.950 . S
C1750 C1749 1.398 . S
C1750 C1751 1.391 . S
C1751 H1739 0.950 . S
C1751 C1747 1.393 . S
C1751 C1750 1.391 . S
H1752 C1760 0.950 . S
H1753 C1765 0.950 . S
H1754 C1762 0.950 . S
H1755 C1764 0.950 . S
H1756 C1766 0.950 . S
H1757 C1768 0.950 . S
H1758 C1770 0.950 . S
H1759 C1771 0.950 . S
C1760 H1752 0.950 . S
C1760 C1761 1.386 . S
C1760 C1762 1.391 . S
C1761 C1760 1.386 . S
C1761 C1765 1.393 . S
C1762 H1754 0.950 . S
C1762 C1760 1.391 . S
C1762 C1763 1.400 . S
C1763 C1762 1.400 . S
C1763 C1764 1.398 . S
C1763 C1769 1.491 . S
C1764 H1755 0.950 . S
C1764 C1763 1.398 . S
C1764 C1765 1.391 . S
C1765 H1753 0.950 . S
C1765 C1761 1.393 . S
C1765 C1764 1.391 . S
C1766 H1756 0.950 . S
C1766 C1767 1.386 . S
C1766 C1768 1.391 . S
C1767 C1766 1.386 . S
C1767 C1771 1.393 . S
C1768 H1757 0.950 . S
C1768 C1766 1.391 . S
C1768 C1769 1.400 . S
C1769 C1763 1.491 . S
C1769 C1768 1.400 . S
C1769 C1770 1.398 . S
C1770 H1758 0.950 . S
C1770 C1769 1.398 . S
C1770 C1771 1.391 . S
C1771 H1759 0.950 . S
C1771 C1767 1.393 . S
C1771 C1770 1.391 . S
H1772 C1780 0.950 . S
H1773 C1785 0.950 . S
H1774 C1782 0.950 . S
H1775 C1784 0.950 . S
H1776 C1786 0.950 . S
H1777 C1788 0.950 . S
H1778 C1790 0.950 . S
H1779 C1791 0.950 . S
C1780 H1772 0.950 . S
C1780 C1781 1.386 . S
C1780 C1782 1.391 . S
C1781 C1780 1.386 . S
C1781 C1785 1.393 . S
C1782 H1774 0.950 . S
C1782 C1780 1.391 . S
C1782 C1783 1.400 . S
C1783 C1782 1.400 . S
C1783 C1784 1.398 . S
C1783 C1789 1.491 . S
C1784 H1775 0.950 . S
C1784 C1783 1.398 . S
C1784 C1785 1.391 . S
C1785 H1773 0.950 . S
C1785 C1781 1.393 . S
C1785 C1784 1.391 . S
C1786 H1776 0.950 . S
C1786 C1787 1.386 . S
C1786 C1788 1.391 . S
C1787 C1786 1.386 . S
C1787 C1791 1.393 . S
C1788 H1777 0.950 . S
C1788 C1786 1.391 . S
C1788 C1789 1.400 . S
C1789 C1783 1.491 . S
C1789 C1788 1.400 . S
C1789 C1790 1.398 . S
C1790 H1778 0.950 . S
C1790 C1789 1.398 . S
C1790 C1791 1.391 . S
C1791 H1779 0.950 . S
C1791 C1787 1.393 . S
C1791 C1790 1.391 . S
H1792 C1800 0.950 . S
H1793 C1805 0.950 . S
H1794 C1802 0.950 . S
H1795 C1804 0.950 . S
H1796 C1806 0.950 . S
H1797 C1808 0.950 . S
H1798 C1810 0.950 . S
H1799 C1811 0.950 . S
C1800 H1792 0.950 . S
C1800 C1801 1.386 . S
C1800 C1802 1.391 . S
C1801 C1800 1.386 . S
C1801 C1805 1.393 . S
C1802 H1794 0.950 . S
C1802 C1800 1.391 . S
C1802 C1803 1.400 . S
C1803 C1802 1.400 . S
C1803 C1804 1.398 . S
C1803 C1809 1.491 . S
C1804 H1795 0.950 . S
C1804 C1803 1.398 . S
C1804 C1805 1.391 . S
C1805 H1793 0.950 . S
C1805 C1801 1.393 . S
C1805 C1804 1.391 . S
C1806 H1796 0.950 . S
C1806 C1807 1.386 . S
C1806 C1808 1.391 . S
C1807 C1806 1.386 . S
C1807 C1811 1.393 . S
C1808 H1797 0.950 . S
C1808 C1806 1.391 . S
C1808 C1809 1.400 . S
C1809 C1803 1.491 . S
C1809 C1808 1.400 . S
C1809 C1810 1.398 . S
C1810 H1798 0.950 . S
C1810 C1809 1.398 . S
C1810 C1811 1.391 . S
C1811 H1799 0.950 . S
C1811 C1807 1.393 . S
C1811 C1810 1.391 . S
H1812 C1820 0.950 . S
H1813 C1825 0.950 . S
H1814 C1822 0.950 . S
H1815 C1824 0.950 . S
H1816 C1826 0.950 . S
H1817 C1828 0.950 . S
H1818 C1830 0.950 . S
H1819 C1831 0.950 . S
C1820 H1812 0.950 . S
C1820 C1821 1.386 . S
C1820 C1822 1.391 . S
C1821 C1820 1.386 . S
C1821 C1825 1.393 . S
C1822 H1814 0.950 . S
C1822 C1820 1.391 . S
C1822 C1823 1.400 . S
C1823 C1822 1.400 . S
C1823 C1824 1.398 . S
C1823 C1829 1.491 . S
C1824 H1815 0.950 . S
C1824 C1823 1.398 . S
C1824 C1825 1.391 . S
C1825 H1813 0.950 . S
C1825 C1821 1.393 . S
C1825 C1824 1.391 . S
C1826 H1816 0.950 . S
C1826 C1827 1.386 . S
C1826 C1828 1.391 . S
C1827 C1826 1.386 . S
C1827 C1831 1.393 . S
C1828 H1817 0.950 . S
C1828 C1826 1.391 . S
C1828 C1829 1.400 . S
C1829 C1823 1.491 . S
C1829 C1828 1.400 . S
C1829 C1830 1.398 . S
C1830 H1818 0.950 . S
C1830 C1829 1.398 . S
C1830 C1831 1.391 . S
C1831 H1819 0.950 . S
C1831 C1827 1.393 . S
C1831 C1830 1.391 . S
H1832 C1840 0.950 . S
H1833 C1845 0.950 . S
H1834 C1842 0.950 . S
H1835 C1844 0.950 . S
H1836 C1846 0.950 . S
H1837 C1848 0.950 . S
H1838 C1850 0.950 . S
H1839 C1851 0.950 . S
C1840 H1832 0.950 . S
C1840 C1841 1.386 . S
C1840 C1842 1.391 . S
C1841 C1840 1.386 . S
C1841 C1845 1.393 . S
C1842 H1834 0.950 . S
C1842 C1840 1.391 . S
C1842 C1843 1.400 . S
C1843 C1842 1.400 . S
C1843 C1844 1.398 . S
C1843 C1849 1.491 . S
C1844 H1835 0.950 . S
C1844 C1843 1.398 . S
C1844 C1845 1.391 . S
C1845 H1833 0.950 . S
C1845 C1841 1.393 . S
C1845 C1844 1.391 . S
C1846 H1836 0.950 . S
C1846 C1847 1.386 . S
C1846 C1848 1.391 . S
C1847 C1846 1.386 . S
C1847 C1851 1.393 . S
C1848 H1837 0.950 . S
C1848 C1846 1.391 . S
C1848 C1849 1.400 . S
C1849 C1843 1.491 . S
C1849 C1848 1.400 . S
C1849 C1850 1.398 . S
C1850 H1838 0.950 . S
C1850 C1849 1.398 . S
C1850 C1851 1.391 . S
C1851 H1839 0.950 . S
C1851 C1847 1.393 . S
C1851 C1850 1.391 . S
H1852 C1860 0.950 . S
H1853 C1865 0.950 . S
H1854 C1862 0.950 . S
H1855 C1864 0.950 . S
H1856 C1866 0.950 . S
H1857 C1868 0.950 . S
H1858 C1870 0.950 . S
H1859 C1871 0.950 . S
C1860 H1852 0.950 . S
C1860 C1861 1.386 . S
C1860 C1862 1.391 . S
C1861 C1860 1.386 . S
C1861 C1865 1.393 . S
C1862 H1854 0.950 . S
C1862 C1860 1.391 . S
C1862 C1863 1.400 . S
C1863 C1862 1.400 . S
C1863 C1864 1.398 . S
C1863 C1869 1.491 . S
C1864 H1855 0.950 . S
C1864 C1863 1.398 . S
C1864 C1865 1.391 . S
C1865 H1853 0.950 . S
C1865 C1861 1.393 . S
C1865 C1864 1.391 . S
C1866 H1856 0.950 . S
C1866 C1867 1.386 . S
C1866 C1868 1.391 . S
C1867 C1866 1.386 . S
C1867 C1871 1.393 . S
C1868 H1857 0.950 . S
C1868 C1866 1.391 . S
C1868 C1869 1.400 . S
C1869 C1863 1.491 . S
C1869 C1868 1.400 . S
C1869 C1870 1.398 . S
C1870 H1858 0.950 . S
C1870 C1869 1.398 . S
C1870 C1871 1.391 . S
C1871 H1859 0.950 . S
C1871 C1867 1.393 . S
C1871 C1870 1.391 . S
H1872 C1880 0.950 . S
H1873 C1885 0.950 . S
H1874 C1882 0.950 . S
H1875 C1884 0.950 . S
H1876 C1886 0.950 . S
H1877 C1888 0.950 . S
H1878 C1890 0.950 . S
H1879 C1891 0.950 . S
C1880 H1872 0.950 . S
C1880 C1881 1.386 . S
C1880 C1882 1.391 . S
C1881 C1880 1.386 . S
C1881 C1885 1.393 . S
C1882 H1874 0.950 . S
C1882 C1880 1.391 . S
C1882 C1883 1.400 . S
C1883 C1882 1.400 . S
C1883 C1884 1.398 . S
C1883 C1889 1.491 . S
C1884 H1875 0.950 . S
C1884 C1883 1.398 . S
C1884 C1885 1.391 . S
C1885 H1873 0.950 . S
C1885 C1881 1.393 . S
C1885 C1884 1.391 . S
C1886 H1876 0.950 . S
C1886 C1887 1.386 . S
C1886 C1888 1.391 . S
C1887 C1886 1.386 . S
C1887 C1891 1.393 . S
C1888 H1877 0.950 . S
C1888 C1886 1.391 . S
C1888 C1889 1.400 . S
C1889 C1883 1.491 . S
C1889 C1888 1.400 . S
C1889 C1890 1.398 . S
C1890 H1878 0.950 . S
C1890 C1889 1.398 . S
C1890 C1891 1.391 . S
C1891 H1879 0.950 . S
C1891 C1887 1.393 . S
C1891 C1890 1.391 . S
H1892 C1900 0.950 . S
H1893 C1905 0.950 . S
H1894 C1902 0.950 . S
H1895 C1904 0.950 . S
H1896 C1906 0.950 . S
H1897 C1908 0.950 . S
H1898 C1910 0.950 . S
H1899 C1911 0.950 . S
C1900 H1892 0.950 . S
C1900 C1901 1.386 . S
C1900 C1902 1.391 . S
C1901 C1900 1.386 . S
C1901 C1905 1.393 . S
C1902 H1894 0.950 . S
C1902 C1900 1.391 . S
C1902 C1903 1.400 . S
C1903 C1902 1.400 . S
C1903 C1904 1.398 . S
C1903 C1909 1.491 . S
C1904 H1895 0.950 . S
C1904 C1903 1.398 . S
C1904 C1905 1.391 . S
C1905 H1893 0.950 . S
C1905 C1901 1.393 . S
C1905 C1904 1.391 . S
C1906 H1896 0.950 . S
C1906 C1907 1.386 . S
C1906 C1908 1.391 . S
C1907 C1906 1.386 . S
C1907 C1911 1.393 . S
C1908 H1897 0.950 . S
C1908 C1906 1.391 . S
C1908 C1909 1.400 . S
C1909 C1903 1.491 . S
C1909 C1908 1.400 . S
C1909 C1910 1.398 . S
C1910 H1898 0.950 . S
C1910 C1909 1.398 . S
C1910 C1911 1.391 . S
C1911 H1899 0.950 . S
C1911 C1907 1.393 . S
C1911 C1910 1.391 . S
H1912 C1920 0.950 . S
H1913 C1925 0.950 . S
H1914 C1922 0.950 . S
H1915 C1924 0.950 . S
H1916 C1926 0.950 . S
H1917 C1928 0.950 . S
H1918 C1930 0.950 . S
H1919 C1931 0.950 . S
C1920 H1912 0.950 . S
C1920 C1921 1.386 . S
C1920 C1922 1.391 . S
C1921 C1920 1.386 . S
C1921 C1925 1.393 . S
C1922 H1914 0.950 . S
C1922 C1920 1.391 . S
C1922 C1923 1.400 . S
C1923 C1922 1.400 . S
C1923 C1924 1.398 . S
C1923 C1929 1.491 . S
C1924 H1915 0.950 . S
C1924 C1923 1.398 . S
C1924 C1925 1.391 . S
C1925 H1913 0.950 . S
C1925 C1921 1.393 . S
C1925 C1924 1.391 . S
C1926 H1916 0.950 . S
C1926 C1927 1.386 . S
C1926 C1928 1.391 . S
C1927 C1926 1.386 . S
C1927 C1931 1.393 . S
C1928 H1917 0.950 . S
C1928 C1926 1.391 . S
C1928 C1929 1.400 . S
C1929 C1923 1.491 . S
C1929 C1928 1.400 . S
C1929 C1930 1.398 . S
C1930 H1918 0.950 . S
C1930 C1929 1.398 . S
C1930 C1931 1.391 . S
C1931 H1919 0.950 . S
C1931 C1927 1.393 . S
C1931 C1930 1.391 . S
H1932 C1940 0.950 . S
H1933 C1945 0.950 . S
H1934 C1942 0.950 . S
H1935 C1944 0.950 . S
H1936 C1946 0.950 . S
H1937 C1948 0.950 . S
H1938 C1950 0.950 . S
H1939 C1951 0.950 . S
C1940 H1932 0.950 . S
C1940 C1941 1.386 . S
C1940 C1942 1.391 . S
C1941 C1940 1.386 . S
C1941 C1945 1.393 . S
C1942 H1934 0.950 . S
C1942 C1940 1.391 . S
C1942 C1943 1.400 . S
C1943 C1942 1.400 . S
C1943 C1944 1.398 . S
C1943 C1949 1.491 . S
C1944 H1935 0.950 . S
C1944 C1943 1.398 . S
C1944 C1945 1.391 . S
C1945 H1933 0.950 . S
C1945 C1941 1.393 . S
C1945 C1944 1.391 . S
C1946 H1936 0.950 . S
C1946 C1947 1.386 . S
C1946 C1948 1.391 . S
C1947 C1946 1.386 . S
C1947 C1951 1.393 . S
C1948 H1937 0.950 . S
C1948 C1946 1.391 . S
C1948 C1949 1.400 . S
C1949 C1943 1.491 . S
C1949 C1948 1.400 . S
C1949 C1950 1.398 . S
C1950 H1938 0.950 . S
C1950 C1949 1.398 . S
C1950 C1951 1.391 . S
C1951 H1939 0.950 . S
C1951 C1947 1.393 . S
C1951 C1950 1.391 . S
H1952 C1960 0.950 . S
H1953 C1965 0.950 . S
H1954 C1962 0.950 . S
H1955 C1964 0.950 . S
H1956 C1966 0.950 . S
H1957 C1968 0.950 . S
H1958 C1970 0.950 . S
H1959 C1971 0.950 . S
C1960 H1952 0.950 . S
C1960 C1961 1.386 . S
C1960 C1962 1.391 . S
C1961 C1960 1.386 . S
C1961 C1965 1.393 . S
C1962 H1954 0.950 . S
C1962 C1960 1.391 . S
C1962 C1963 1.400 . S
C1963 C1962 1.400 . S
C1963 C1964 1.398 . S
C1963 C1969 1.491 . S
C1964 H1955 0.950 . S
C1964 C1963 1.398 . S
C1964 C1965 1.391 . S
C1965 H1953 0.950 . S
C1965 C1961 1.393 . S
C1965 C1964 1.391 . S
C1966 H1956 0.950 . S
C1966 C1967 1.386 . S
C1966 C1968 1.391 . S
C1967 C1966 1.386 . S
C1967 C1971 1.393 . S
C1968 H1957 0.950 . S
C1968 C1966 1.391 . S
C1968 C1969 1.400 . S
C1969 C1963 1.491 . S
C1969 C1968 1.400 . S
C1969 C1970 1.398 . S
C1970 H1958 0.950 . S
C1970 C1969 1.398 . S
C1970 C1971 1.391 . S
C1971 H1959 0.950 . S
C1971 C1967 1.393 . S
C1971 C1970 1.391 . S
H1972 C1980 0.950 . S
H1973 C1985 0.950 . S
H1974 C1982 0.950 . S
H1975 C1984 0.950 . S
H1976 C1986 0.950 . S
H1977 C1988 0.950 . S
H1978 C1990 0.950 . S
H1979 C1991 0.950 . S
C1980 H1972 0.950 . S
C1980 C1981 1.386 . S
C1980 C1982 1.391 . S
C1981 C1980 1.386 . S
C1981 C1985 1.393 . S
C1982 H1974 0.950 . S
C1982 C1980 1.391 . S
C1982 C1983 1.400 . S
C1983 C1982 1.400 . S
C1983 C1984 1.398 . S
C1983 C1989 1.491 . S
C1984 H1975 0.950 . S
C1984 C1983 1.398 . S
C1984 C1985 1.391 . S
C1985 H1973 0.950 . S
C1985 C1981 1.393 . S
C1985 C1984 1.391 . S
C1986 H1976 0.950 . S
C1986 C1987 1.386 . S
C1986 C1988 1.391 . S
C1987 C1986 1.386 . S
C1987 C1991 1.393 . S
C1988 H1977 0.950 . S
C1988 C1986 1.391 . S
C1988 C1989 1.400 . S
C1989 C1983 1.491 . S
C1989 C1988 1.400 . S
C1989 C1990 1.398 . S
C1990 H1978 0.950 . S
C1990 C1989 1.398 . S
C1990 C1991 1.391 . S
C1991 H1979 0.950 . S
C1991 C1987 1.393 . S
C1991 C1990 1.391 . S
H1992 C2000 0.950 . S
H1993 C2005 0.950 . S
H1994 C2002 0.950 . S
H1995 C2004 0.950 . S
H1996 C2006 0.950 . S
H1997 C2008 0.950 . S
H1998 C2010 0.950 . S
H1999 C2011 0.950 . S
C2000 H1992 0.950 . S
C2000 C2001 1.386 . S
C2000 C2002 1.391 . S
C2001 C2000 1.386 . S
C2001 C2005 1.393 . S
C2002 H1994 0.950 . S
C2002 C2000 1.391 . S
C2002 C2003 1.400 . S
C2003 C2002 1.400 . S
C2003 C2004 1.398 . S
C2003 C2009 1.491 . S
C2004 H1995 0.950 . S
C2004 C2003 1.398 . S
C2004 C2005 1.391 . S
C2005 H1993 0.950 . S
C2005 C2001 1.393 . S
C2005 C2004 1.391 . S
C2006 H1996 0.950 . S
C2006 C2007 1.386 . S
C2006 C2008 1.391 . S
C2007 C2006 1.386 . S
C2007 C2011 1.393 . S
C2008 H1997 0.950 . S
C2008 C2006 1.391 . S
C2008 C2009 1.400 . S
C2009 C2003 1.491 . S
C2009 C2008 1.400 . S
C2009 C2010 1.398 . S
C2010 H1998 0.950 . S
C2010 C2009 1.398 . S
C2010 C2011 1.391 . S
C2011 H1999 0.950 . S
C2011 C2007 1.393 . S
C2011 C2010 1.391 . S
H2012 C2020 0.950 . S
H2013 C2025 0.950 . S
H2014 C2022 0.950 . S
H2015 C2024 0.950 . S
H2016 C2026 0.950 . S
H2017 C2028 0.950 . S
H2018 C2030 0.950 . S
H2019 C2031 0.950 . S
C2020 H2012 0.950 . S
C2020 C2021 1.386 . S
C2020 C2022 1.391 . S
C2021 C2020 1.386 . S
C2021 C2025 1.393 . S
C2022 H2014 0.950 . S
C2022 C2020 1.391 . S
C2022 C2023 1.400 . S
C2023 C2022 1.400 . S
C2023 C2024 1.398 . S
C2023 C2029 1.491 . S
C2024 H2015 0.950 . S
C2024 C2023 1.398 . S
C2024 C2025 1.391 . S
C2025 H2013 0.950 . S
C2025 C2021 1.393 . S
C2025 C2024 1.391 . S
C2026 H2016 0.950 . S
C2026 C2027 1.386 . S
C2026 C2028 1.391 . S
C2027 C2026 1.386 . S
C2027 C2031 1.393 . S
C2028 H2017 0.950 . S
C2028 C2026 1.391 . S
C2028 C2029 1.400 . S
C2029 C2023 1.491 . S
C2029 C2028 1.400 . S
C2029 C2030 1.398 . S
C2030 H2018 0.950 . S
C2030 C2029 1.398 . S
C2030 C2031 1.391 . S
C2031 H2019 0.950 . S
C2031 C2027 1.393 . S
C2031 C2030 1.391 . S
H2032 C2040 0.950 . S
H2033 C2045 0.950 . S
H2034 C2042 0.950 . S
H2035 C2044 0.950 . S
H2036 C2046 0.950 . S
H2037 C2048 0.950 . S
H2038 C2050 0.950 . S
H2039 C2051 0.950 . S
C2040 H2032 0.950 . S
C2040 C2041 1.386 . S
C2040 C2042 1.391 . S
C2041 C2040 1.386 . S
C2041 C2045 1.393 . S
C2042 H2034 0.950 . S
C2042 C2040 1.391 . S
C2042 C2043 1.400 . S
C2043 C2042 1.400 . S
C2043 C2044 1.398 . S
C2043 C2049 1.491 . S
C2044 H2035 0.950 . S
C2044 C2043 1.398 . S
C2044 C2045 1.391 . S
C2045 H2033 0.950 . S
C2045 C2041 1.393 . S
C2045 C2044 1.391 . S
C2046 H2036 0.950 . S
C2046 C2047 1.386 . S
C2046 C2048 1.391 . S
C2047 C2046 1.386 . S
C2047 C2051 1.393 . S
C2048 H2037 0.950 . S
C2048 C2046 1.391 . S
C2048 C2049 1.400 . S
C2049 C2043 1.491 . S
C2049 C2048 1.400 . S
C2049 C2050 1.398 . S
C2050 H2038 0.950 . S
C2050 C2049 1.398 . S
C2050 C2051 1.391 . S
C2051 H2039 0.950 . S
C2051 C2047 1.393 . S
C2051 C2050 1.391 . S
H2052 C2060 0.950 . S
H2053 C2065 0.950 . S
H2054 C2062 0.950 . S
H2055 C2064 0.950 . S
H2056 C2066 0.950 . S
H2057 C2068 0.950 . S
H2058 C2070 0.950 . S
H2059 C2071 0.950 . S
C2060 H2052 0.950 . S
C2060 C2061 1.386 . S
C2060 C2062 1.391 . S
C2061 C2060 1.386 . S
C2061 C2065 1.393 . S
C2062 H2054 0.950 . S
C2062 C2060 1.391 . S
C2062 C2063 1.400 . S
C2063 C2062 1.400 . S
C2063 C2064 1.398 . S
C2063 C2069 1.491 . S
C2064 H2055 0.950 . S
C2064 C2063 1.398 . S
C2064 C2065 1.391 . S
C2065 H2053 0.950 . S
C2065 C2061 1.393 . S
C2065 C2064 1.391 . S
C2066 H2056 0.950 . S
C2066 C2067 1.386 . S
C2066 C2068 1.391 . S
C2067 C2066 1.386 . S
C2067 C2071 1.393 . S
C2068 H2057 0.950 . S
C2068 C2066 1.391 . S
C2068 C2069 1.400 . S
C2069 C2063 1.491 . S
C2069 C2068 1.400 . S
C2069 C2070 1.398 . S
C2070 H2058 0.950 . S
C2070 C2069 1.398 . S
C2070 C2071 1.391 . S
C2071 H2059 0.950 . S
C2071 C2067 1.393 . S
C2071 C2070 1.391 . S
H2072 C2080 0.950 . S
H2073 C2085 0.950 . S
H2074 C2082 0.950 . S
H2075 C2084 0.950 . S
H2076 C2086 0.950 . S
H2077 C2088 0.950 . S
H2078 C2090 0.950 . S
H2079 C2091 0.950 . S
C2080 H2072 0.950 . S
C2080 C2081 1.386 . S
C2080 C2082 1.391 . S
C2081 C2080 1.386 . S
C2081 C2085 1.393 . S
C2082 H2074 0.950 . S
C2082 C2080 1.391 . S
C2082 C2083 1.400 . S
C2083 C2082 1.400 . S
C2083 C2084 1.398 . S
C2083 C2089 1.491 . S
C2084 H2075 0.950 . S
C2084 C2083 1.398 . S
C2084 C2085 1.391 . S
C2085 H2073 0.950 . S
C2085 C2081 1.393 . S
C2085 C2084 1.391 . S
C2086 H2076 0.950 . S
C2086 C2087 1.386 . S
C2086 C2088 1.391 . S
C2087 C2086 1.386 . S
C2087 C2091 1.393 . S
C2088 H2077 0.950 . S
C2088 C2086 1.391 . S
C2088 C2089 1.400 . S
C2089 C2083 1.491 . S
C2089 C2088 1.400 . S
C2089 C2090 1.398 . S
C2090 H2078 0.950 . S
C2090 C2089 1.398 . S
C2090 C2091 1.391 . S
C2091 H2079 0.950 . S
C2091 C2087 1.393 . S
C2091 C2090 1.391 . S
H2092 C2100 0.950 . S
H2093 C2105 0.950 . S
H2094 C2102 0.950 . S
H2095 C2104 0.950 . S
H2096 C2106 0.950 . S
H2097 C2108 0.950 . S
H2098 C2110 0.950 . S
H2099 C2111 0.950 . S
C2100 H2092 0.950 . S
C2100 C2101 1.386 . S
C2100 C2102 1.391 . S
C2101 C2100 1.386 . S
C2101 C2105 1.393 . S
C2102 H2094 0.950 . S
C2102 C2100 1.391 . S
C2102 C2103 1.400 . S
C2103 C2102 1.400 . S
C2103 C2104 1.398 . S
C2103 C2109 1.491 . S
C2104 H2095 0.950 . S
C2104 C2103 1.398 . S
C2104 C2105 1.391 . S
C2105 H2093 0.950 . S
C2105 C2101 1.393 . S
C2105 C2104 1.391 . S
C2106 H2096 0.950 . S
C2106 C2107 1.386 . S
C2106 C2108 1.391 . S
C2107 C2106 1.386 . S
C2107 C2111 1.393 . S
C2108 H2097 0.950 . S
C2108 C2106 1.391 . S
C2108 C2109 1.400 . S
C2109 C2103 1.491 . S
C2109 C2108 1.400 . S
C2109 C2110 1.398 . S
C2110 H2098 0.950 . S
C2110 C2109 1.398 . S
C2110 C2111 1.391 . S
C2111 H2099 0.950 . S
C2111 C2107 1.393 . S
C2111 C2110 1.391 . S
H2112 C2120 0.950 . S
H2113 C2125 0.950 . S
H2114 C2122 0.950 . S
H2115 C2124 0.950 . S
H2116 C2126 0.950 . S
H2117 C2128 0.950 . S
H2118 C2130 0.950 . S
H2119 C2131 0.950 . S
C2120 H2112 0.950 . S
C2120 C2121 1.386 . S
C2120 C2122 1.391 . S
C2121 C2120 1.386 . S
C2121 C2125 1.393 . S
C2122 H2114 0.950 . S
C2122 C2120 1.391 . S
C2122 C2123 1.400 . S
C2123 C2122 1.400 . S
C2123 C2124 1.398 . S
C2123 C2129 1.491 1_554 S
C2124 H2115 0.950 . S
C2124 C2123 1.398 . S
C2124 C2125 1.391 . S
C2125 H2113 0.950 . S
C2125 C2121 1.393 . S
C2125 C2124 1.391 . S
C2126 H2116 0.950 . S
C2126 C2127 1.386 . S
C2126 C2128 1.391 . S
C2127 C2126 1.386 . S
C2127 C2131 1.393 . S
C2128 H2117 0.950 . S
C2128 C2126 1.391 . S
C2128 C2129 1.400 . S
C2129 C2123 1.491 1_556 S
C2129 C2128 1.400 . S
C2129 C2130 1.398 . S
C2130 H2118 0.950 . S
C2130 C2129 1.398 . S
C2130 C2131 1.391 . S
C2131 H2119 0.950 . S
C2131 C2127 1.393 . S
C2131 C2130 1.391 . S
H2132 C2140 0.950 . S
H2133 C2145 0.950 . S
H2134 C2142 0.950 . S
H2135 C2144 0.950 . S
H2136 C2146 0.950 . S
H2137 C2148 0.950 . S
H2138 C2150 0.950 . S
H2139 C2151 0.950 . S
C2140 H2132 0.950 . S
C2140 C2141 1.386 . S
C2140 C2142 1.391 . S
C2141 C2140 1.386 . S
C2141 C2145 1.393 . S
C2142 H2134 0.950 . S
C2142 C2140 1.391 . S
C2142 C2143 1.400 . S
C2143 C2142 1.400 . S
C2143 C2144 1.398 . S
C2143 C2149 1.491 1_556 S
C2144 H2135 0.950 . S
C2144 C2143 1.398 . S
C2144 C2145 1.391 . S
C2145 H2133 0.950 . S
C2145 C2141 1.393 . S
C2145 C2144 1.391 . S
C2146 H2136 0.950 . S
C2146 C2147 1.386 . S
C2146 C2148 1.391 . S
C2147 C2146 1.386 . S
C2147 C2151 1.393 . S
C2148 H2137 0.950 . S
C2148 C2146 1.391 . S
C2148 C2149 1.400 . S
C2149 C2143 1.491 1_554 S
C2149 C2148 1.400 . S
C2149 C2150 1.398 . S
C2150 H2138 0.950 . S
C2150 C2149 1.398 . S
C2150 C2151 1.391 . S
C2151 H2139 0.950 . S
C2151 C2147 1.393 . S
C2151 C2150 1.391 . S
H2152 C2160 0.950 . S
H2153 C2165 0.950 . S
H2154 C2162 0.950 . S
H2155 C2164 0.950 . S
H2156 C2166 0.950 . S
H2157 C2168 0.950 . S
H2158 C2170 0.950 . S
H2159 C2171 0.950 . S
C2160 H2152 0.950 . S
C2160 C2161 1.386 . S
C2160 C2162 1.391 . S
C2161 C2160 1.386 . S
C2161 C2165 1.393 . S
C2162 H2154 0.950 . S
C2162 C2160 1.391 . S
C2162 C2163 1.400 . S
C2163 C2162 1.400 . S
C2163 C2164 1.398 . S
C2163 C2169 1.491 1_554 S
C2164 H2155 0.950 . S
C2164 C2163 1.398 . S
C2164 C2165 1.391 . S
C2165 H2153 0.950 . S
C2165 C2161 1.393 . S
C2165 C2164 1.391 . S
C2166 H2156 0.950 . S
C2166 C2167 1.386 . S
C2166 C2168 1.391 . S
C2167 C2166 1.386 . S
C2167 C2171 1.393 . S
C2168 H2157 0.950 . S
C2168 C2166 1.391 . S
C2168 C2169 1.400 . S
C2169 C2163 1.491 1_556 S
C2169 C2168 1.400 . S
C2169 C2170 1.398 . S
C2170 H2158 0.950 . S
C2170 C2169 1.398 . S
C2170 C2171 1.391 . S
C2171 H2159 0.950 . S
C2171 C2167 1.393 . S
C2171 C2170 1.391 . S
H2172 C2180 0.950 . S
H2173 C2185 0.950 . S
H2174 C2182 0.950 . S
H2175 C2184 0.950 . S
H2176 C2186 0.950 . S
H2177 C2188 0.950 . S
H2178 C2190 0.950 . S
H2179 C2191 0.950 . S
C2180 H2172 0.950 . S
C2180 C2181 1.386 . S
C2180 C2182 1.391 . S
C2181 C2180 1.386 . S
C2181 C2185 1.393 . S
C2182 H2174 0.950 . S
C2182 C2180 1.391 . S
C2182 C2183 1.400 . S
C2183 C2182 1.400 . S
C2183 C2184 1.398 . S
C2183 C2189 1.491 1_554 S
C2184 H2175 0.950 . S
C2184 C2183 1.398 . S
C2184 C2185 1.391 . S
C2185 H2173 0.950 . S
C2185 C2181 1.393 . S
C2185 C2184 1.391 . S
C2186 H2176 0.950 . S
C2186 C2187 1.386 . S
C2186 C2188 1.391 . S
C2187 C2186 1.386 . S
C2187 C2191 1.393 . S
C2188 H2177 0.950 . S
C2188 C2186 1.391 . S
C2188 C2189 1.400 . S
C2189 C2183 1.491 1_556 S
C2189 C2188 1.400 . S
C2189 C2190 1.398 . S
C2190 H2178 0.950 . S
C2190 C2189 1.398 . S
C2190 C2191 1.391 . S
C2191 H2179 0.950 . S
C2191 C2187 1.393 . S
C2191 C2190 1.391 . S
H2192 C2200 0.950 . S
H2193 C2205 0.950 . S
H2194 C2202 0.950 . S
H2195 C2204 0.950 . S
H2196 C2206 0.950 . S
H2197 C2208 0.950 . S
H2198 C2210 0.950 . S
H2199 C2211 0.950 . S
C2200 H2192 0.950 . S
C2200 C2201 1.386 . S
C2200 C2202 1.391 . S
C2201 C2200 1.386 . S
C2201 C2205 1.393 . S
C2202 H2194 0.950 . S
C2202 C2200 1.391 . S
C2202 C2203 1.400 . S
C2203 C2202 1.400 . S
C2203 C2204 1.398 . S
C2203 C2209 1.491 1_556 S
C2204 H2195 0.950 . S
C2204 C2203 1.398 . S
C2204 C2205 1.391 . S
C2205 H2193 0.950 . S
C2205 C2201 1.393 . S
C2205 C2204 1.391 . S
C2206 H2196 0.950 . S
C2206 C2207 1.386 . S
C2206 C2208 1.391 . S
C2207 C2206 1.386 . S
C2207 C2211 1.393 . S
C2208 H2197 0.950 . S
C2208 C2206 1.391 . S
C2208 C2209 1.400 . S
C2209 C2203 1.491 1_554 S
C2209 C2208 1.400 . S
C2209 C2210 1.398 . S
C2210 H2198 0.950 . S
C2210 C2209 1.398 . S
C2210 C2211 1.391 . S
C2211 H2199 0.950 . S
C2211 C2207 1.393 . S
C2211 C2210 1.391 . S
H2212 C2220 0.950 . S
H2213 C2225 0.950 . S
H2214 C2222 0.950 . S
H2215 C2224 0.950 . S
H2216 C2226 0.950 . S
H2217 C2228 0.950 . S
H2218 C2230 0.950 . S
H2219 C2231 0.950 . S
C2220 H2212 0.950 . S
C2220 C2221 1.386 . S
C2220 C2222 1.391 . S
C2221 C2220 1.386 . S
C2221 C2225 1.393 . S
C2222 H2214 0.950 . S
C2222 C2220 1.391 . S
C2222 C2223 1.400 . S
C2223 C2222 1.400 . S
C2223 C2224 1.398 . S
C2223 C2229 1.491 1_554 S
C2224 H2215 0.950 . S
C2224 C2223 1.398 . S
C2224 C2225 1.391 . S
C2225 H2213 0.950 . S
C2225 C2221 1.393 . S
C2225 C2224 1.391 . S
C2226 H2216 0.950 . S
C2226 C2227 1.386 . S
C2226 C2228 1.391 . S
C2227 C2226 1.386 . S
C2227 C2231 1.393 . S
C2228 H2217 0.950 . S
C2228 C2226 1.391 . S
C2228 C2229 1.400 . S
C2229 C2223 1.491 1_556 S
C2229 C2228 1.400 . S
C2229 C2230 1.398 . S
C2230 H2218 0.950 . S
C2230 C2229 1.398 . S
C2230 C2231 1.391 . S
C2231 H2219 0.950 . S
C2231 C2227 1.393 . S
C2231 C2230 1.391 . S
H2232 C2240 0.950 . S
H2233 C2245 0.950 . S
H2234 C2242 0.950 . S
H2235 C2244 0.950 . S
H2236 C2246 0.950 . S
H2237 C2248 0.950 . S
H2238 C2250 0.950 . S
H2239 C2251 0.950 . S
C2240 H2232 0.950 . S
C2240 C2241 1.386 . S
C2240 C2242 1.391 . S
C2241 C2240 1.386 . S
C2241 C2245 1.393 . S
C2242 H2234 0.950 . S
C2242 C2240 1.391 . S
C2242 C2243 1.400 . S
C2243 C2242 1.400 . S
C2243 C2244 1.398 . S
C2243 C2249 1.491 1_556 S
C2244 H2235 0.950 . S
C2244 C2243 1.398 . S
C2244 C2245 1.391 . S
C2245 H2233 0.950 . S
C2245 C2241 1.393 . S
C2245 C2244 1.391 . S
C2246 H2236 0.950 . S
C2246 C2247 1.386 . S
C2246 C2248 1.391 . S
C2247 C2246 1.386 . S
C2247 C2251 1.393 . S
C2248 H2237 0.950 . S
C2248 C2246 1.391 . S
C2248 C2249 1.400 . S
C2249 C2243 1.491 1_554 S
C2249 C2248 1.400 . S
C2249 C2250 1.398 . S
C2250 H2238 0.950 . S
C2250 C2249 1.398 . S
C2250 C2251 1.391 . S
C2251 H2239 0.950 . S
C2251 C2247 1.393 . S
C2251 C2250 1.391 . S
H2252 C2260 0.950 . S
H2253 C2265 0.950 . S
H2254 C2262 0.950 . S
H2255 C2264 0.950 . S
H2256 C2266 0.950 . S
H2257 C2268 0.950 . S
H2258 C2270 0.950 . S
H2259 C2271 0.950 . S
C2260 H2252 0.950 . S
C2260 C2261 1.386 . S
C2260 C2262 1.391 . S
C2261 C2260 1.386 . S
C2261 C2265 1.393 . S
C2262 H2254 0.950 . S
C2262 C2260 1.391 . S
C2262 C2263 1.400 . S
C2263 C2262 1.400 . S
C2263 C2264 1.398 . S
C2263 C2269 1.491 1_554 S
C2264 H2255 0.950 . S
C2264 C2263 1.398 . S
C2264 C2265 1.391 . S
C2265 H2253 0.950 . S
C2265 C2261 1.393 . S
C2265 C2264 1.391 . S
C2266 H2256 0.950 . S
C2266 C2267 1.386 . S
C2266 C2268 1.391 . S
C2267 C2266 1.386 . S
C2267 C2271 1.393 . S
C2268 H2257 0.950 . S
C2268 C2266 1.391 . S
C2268 C2269 1.400 . S
C2269 C2263 1.491 1_556 S
C2269 C2268 1.400 . S
C2269 C2270 1.398 . S
C2270 H2258 0.950 . S
C2270 C2269 1.398 . S
C2270 C2271 1.391 . S
C2271 H2259 0.950 . S
C2271 C2267 1.393 . S
C2271 C2270 1.391 . S
H2272 C2280 0.950 . S
H2273 C2285 0.950 . S
H2274 C2282 0.950 . S
H2275 C2284 0.950 . S
H2276 C2286 0.950 . S
H2277 C2288 0.950 . S
H2278 C2290 0.950 . S
H2279 C2291 0.950 . S
C2280 H2272 0.950 . S
C2280 C2281 1.386 . S
C2280 C2282 1.391 . S
C2281 C2280 1.386 . S
C2281 C2285 1.393 . S
C2282 H2274 0.950 . S
C2282 C2280 1.391 . S
C2282 C2283 1.400 . S
C2283 C2282 1.400 . S
C2283 C2284 1.398 . S
C2283 C2289 1.491 1_455 S
C2284 H2275 0.950 . S
C2284 C2283 1.398 . S
C2284 C2285 1.391 . S
C2285 H2273 0.950 . S
C2285 C2281 1.393 . S
C2285 C2284 1.391 . S
C2286 H2276 0.950 . S
C2286 C2287 1.386 . S
C2286 C2288 1.391 . S
C2287 C2286 1.386 . S
C2287 C2291 1.393 . S
C2288 H2277 0.950 . S
C2288 C2286 1.391 . S
C2288 C2289 1.400 . S
C2289 C2283 1.491 1_655 S
C2289 C2288 1.400 . S
C2289 C2290 1.398 . S
C2290 H2278 0.950 . S
C2290 C2289 1.398 . S
C2290 C2291 1.391 . S
C2291 H2279 0.950 . S
C2291 C2287 1.393 . S
C2291 C2290 1.391 . S
H2292 C2300 0.950 . S
H2293 C2305 0.950 . S
H2294 C2302 0.950 . S
H2295 C2304 0.950 . S
H2296 C2306 0.950 . S
H2297 C2308 0.950 . S
H2298 C2310 0.950 . S
H2299 C2311 0.950 . S
C2300 H2292 0.950 . S
C2300 C2301 1.386 . S
C2300 C2302 1.391 . S
C2301 C2300 1.386 . S
C2301 C2305 1.393 . S
C2302 H2294 0.950 . S
C2302 C2300 1.391 . S
C2302 C2303 1.400 . S
C2303 C2302 1.400 . S
C2303 C2304 1.398 . S
C2303 C2309 1.491 1_565 S
C2304 H2295 0.950 . S
C2304 C2303 1.398 . S
C2304 C2305 1.391 . S
C2305 H2293 0.950 . S
C2305 C2301 1.393 . S
C2305 C2304 1.391 . S
C2306 H2296 0.950 . S
C2306 C2307 1.386 . S
C2306 C2308 1.391 . S
C2307 C2306 1.386 . S
C2307 C2311 1.393 . S
C2308 H2297 0.950 . S
C2308 C2306 1.391 . S
C2308 C2309 1.400 . S
C2309 C2303 1.491 1_545 S
C2309 C2308 1.400 . S
C2309 C2310 1.398 . S
C2310 H2298 0.950 . S
C2310 C2309 1.398 . S
C2310 C2311 1.391 . S
C2311 H2299 0.950 . S
C2311 C2307 1.393 . S
C2311 C2310 1.391 . S
H2312 C2320 0.950 . S
H2313 C2325 0.950 . S
H2314 C2322 0.950 . S
H2315 C2324 0.950 . S
H2316 C2326 0.950 . S
H2317 C2328 0.950 . S
H2318 C2330 0.950 . S
H2319 C2331 0.950 . S
C2320 H2312 0.950 . S
C2320 C2321 1.386 . S
C2320 C2322 1.391 . S
C2321 C2320 1.386 . S
C2321 C2325 1.393 . S
C2322 H2314 0.950 . S
C2322 C2320 1.391 . S
C2322 C2323 1.400 . S
C2323 C2322 1.400 . S
C2323 C2324 1.398 . S
C2323 C2329 1.491 1_455 S
C2324 H2315 0.950 . S
C2324 C2323 1.398 . S
C2324 C2325 1.391 . S
C2325 H2313 0.950 . S
C2325 C2321 1.393 . S
C2325 C2324 1.391 . S
C2326 H2316 0.950 . S
C2326 C2327 1.386 . S
C2326 C2328 1.391 . S
C2327 C2326 1.386 . S
C2327 C2331 1.393 . S
C2328 H2317 0.950 . S
C2328 C2326 1.391 . S
C2328 C2329 1.400 . S
C2329 C2323 1.491 1_655 S
C2329 C2328 1.400 . S
C2329 C2330 1.398 . S
C2330 H2318 0.950 . S
C2330 C2329 1.398 . S
C2330 C2331 1.391 . S
C2331 H2319 0.950 . S
C2331 C2327 1.393 . S
C2331 C2330 1.391 . S
H2332 C2340 0.950 . S
H2333 C2345 0.950 . S
H2334 C2342 0.950 . S
H2335 C2344 0.950 . S
H2336 C2346 0.950 . S
H2337 C2348 0.950 . S
H2338 C2350 0.950 . S
H2339 C2351 0.950 . S
C2340 H2332 0.950 . S
C2340 C2341 1.386 . S
C2340 C2342 1.391 . S
C2341 C2340 1.386 . S
C2341 C2345 1.393 . S
C2342 H2334 0.950 . S
C2342 C2340 1.391 . S
C2342 C2343 1.400 . S
C2343 C2342 1.400 . S
C2343 C2344 1.398 . S
C2343 C2349 1.491 1_565 S
C2344 H2335 0.950 . S
C2344 C2343 1.398 . S
C2344 C2345 1.391 . S
C2345 H2333 0.950 . S
C2345 C2341 1.393 . S
C2345 C2344 1.391 . S
C2346 H2336 0.950 . S
C2346 C2347 1.386 . S
C2346 C2348 1.391 . S
C2347 C2346 1.386 . S
C2347 C2351 1.393 . S
C2348 H2337 0.950 . S
C2348 C2346 1.391 . S
C2348 C2349 1.400 . S
C2349 C2343 1.491 1_545 S
C2349 C2348 1.400 . S
C2349 C2350 1.398 . S
C2350 H2338 0.950 . S
C2350 C2349 1.398 . S
C2350 C2351 1.391 . S
C2351 H2339 0.950 . S
C2351 C2347 1.393 . S
C2351 C2350 1.391 . S
H2352 C2360 0.950 . S
H2353 C2365 0.950 . S
H2354 C2362 0.950 . S
H2355 C2364 0.950 . S
H2356 C2366 0.950 . S
H2357 C2368 0.950 . S
H2358 C2370 0.950 . S
H2359 C2371 0.950 . S
C2360 H2352 0.950 . S
C2360 C2361 1.386 . S
C2360 C2362 1.391 . S
C2361 C2360 1.386 . S
C2361 C2365 1.393 . S
C2362 H2354 0.950 . S
C2362 C2360 1.391 . S
C2362 C2363 1.400 . S
C2363 C2362 1.400 . S
C2363 C2364 1.398 . S
C2363 C2369 1.491 1_655 S
C2364 H2355 0.950 . S
C2364 C2363 1.398 . S
C2364 C2365 1.391 . S
C2365 H2353 0.950 . S
C2365 C2361 1.393 . S
C2365 C2364 1.391 . S
C2366 H2356 0.950 . S
C2366 C2367 1.386 . S
C2366 C2368 1.391 . S
C2367 C2366 1.386 . S
C2367 C2371 1.393 . S
C2368 H2357 0.950 . S
C2368 C2366 1.391 . S
C2368 C2369 1.400 . S
C2369 C2363 1.491 1_455 S
C2369 C2368 1.400 . S
C2369 C2370 1.398 . S
C2370 H2358 0.950 . S
C2370 C2369 1.398 . S
C2370 C2371 1.391 . S
C2371 H2359 0.950 . S
C2371 C2367 1.393 . S
C2371 C2370 1.391 . S
H2372 C2380 0.950 . S
H2373 C2385 0.950 . S
H2374 C2382 0.950 . S
H2375 C2384 0.950 . S
H2376 C2386 0.950 . S
H2377 C2388 0.950 . S
H2378 C2390 0.950 . S
H2379 C2391 0.950 . S
C2380 H2372 0.950 . S
C2380 C2381 1.386 . S
C2380 C2382 1.391 . S
C2381 C2380 1.386 . S
C2381 C2385 1.393 . S
C2382 H2374 0.950 . S
C2382 C2380 1.391 . S
C2382 C2383 1.400 . S
C2383 C2382 1.400 . S
C2383 C2384 1.398 . S
C2383 C2389 1.491 1_545 S
C2384 H2375 0.950 . S
C2384 C2383 1.398 . S
C2384 C2385 1.391 . S
C2385 H2373 0.950 . S
C2385 C2381 1.393 . S
C2385 C2384 1.391 . S
C2386 H2376 0.950 . S
C2386 C2387 1.386 . S
C2386 C2388 1.391 . S
C2387 C2386 1.386 . S
C2387 C2391 1.393 . S
C2388 H2377 0.950 . S
C2388 C2386 1.391 . S
C2388 C2389 1.400 . S
C2389 C2383 1.491 1_565 S
C2389 C2388 1.400 . S
C2389 C2390 1.398 . S
C2390 H2378 0.950 . S
C2390 C2389 1.398 . S
C2390 C2391 1.391 . S
C2391 H2379 0.950 . S
C2391 C2387 1.393 . S
C2391 C2390 1.391 . S
H2392 C2400 0.950 . S
H2393 C2405 0.950 . S
H2394 C2402 0.950 . S
H2395 C2404 0.950 . S
H2396 C2406 0.950 . S
H2397 C2408 0.950 . S
H2398 C2410 0.950 . S
H2399 C2411 0.950 . S
C2400 H2392 0.950 . S
C2400 C2401 1.386 . S
C2400 C2402 1.391 . S
C2401 C2400 1.386 . S
C2401 C2405 1.393 . S
C2402 H2394 0.950 . S
C2402 C2400 1.391 . S
C2402 C2403 1.400 . S
C2403 C2402 1.400 . S
C2403 C2404 1.398 . S
C2403 C2409 1.491 1_455 S
C2404 H2395 0.950 . S
C2404 C2403 1.398 . S
C2404 C2405 1.391 . S
C2405 H2393 0.950 . S
C2405 C2401 1.393 . S
C2405 C2404 1.391 . S
C2406 H2396 0.950 . S
C2406 C2407 1.386 . S
C2406 C2408 1.391 . S
C2407 C2406 1.386 . S
C2407 C2411 1.393 . S
C2408 H2397 0.950 . S
C2408 C2406 1.391 . S
C2408 C2409 1.400 . S
C2409 C2403 1.491 1_655 S
C2409 C2408 1.400 . S
C2409 C2410 1.398 . S
C2410 H2398 0.950 . S
C2410 C2409 1.398 . S
C2410 C2411 1.391 . S
C2411 H2399 0.950 . S
C2411 C2407 1.393 . S
C2411 C2410 1.391 . S
H2412 C2420 0.950 . S
H2413 C2425 0.950 . S
H2414 C2422 0.950 . S
H2415 C2424 0.950 . S
H2416 C2426 0.950 . S
H2417 C2428 0.950 . S
H2418 C2430 0.950 . S
H2419 C2431 0.950 . S
C2420 H2412 0.950 . S
C2420 C2421 1.386 . S
C2420 C2422 1.391 . S
C2421 C2420 1.386 . S
C2421 C2425 1.393 . S
C2422 H2414 0.950 . S
C2422 C2420 1.391 . S
C2422 C2423 1.400 . S
C2423 C2422 1.400 . S
C2423 C2424 1.398 . S
C2423 C2429 1.491 1_545 S
C2424 H2415 0.950 . S
C2424 C2423 1.398 . S
C2424 C2425 1.391 . S
C2425 H2413 0.950 . S
C2425 C2421 1.393 . S
C2425 C2424 1.391 . S
C2426 H2416 0.950 . S
C2426 C2427 1.386 . S
C2426 C2428 1.391 . S
C2427 C2426 1.386 . S
C2427 C2431 1.393 . S
C2428 H2417 0.950 . S
C2428 C2426 1.391 . S
C2428 C2429 1.400 . S
C2429 C2423 1.491 1_565 S
C2429 C2428 1.400 . S
C2429 C2430 1.398 . S
C2430 H2418 0.950 . S
C2430 C2429 1.398 . S
C2430 C2431 1.391 . S
C2431 H2419 0.950 . S
C2431 C2427 1.393 . S
C2431 C2430 1.391 . S
H2432 C2440 0.950 . S
H2433 C2445 0.950 . S
H2434 C2442 0.950 . S
H2435 C2444 0.950 . S
H2436 C2446 0.950 . S
H2437 C2448 0.950 . S
H2438 C2450 0.950 . S
H2439 C2451 0.950 . S
C2440 H2432 0.950 . S
C2440 C2441 1.386 . S
C2440 C2442 1.391 . S
C2441 C2440 1.386 . S
C2441 C2445 1.393 . S
C2442 H2434 0.950 . S
C2442 C2440 1.391 . S
C2442 C2443 1.400 . S
C2443 C2442 1.400 . S
C2443 C2444 1.398 . S
C2443 C2449 1.491 1_545 S
C2444 H2435 0.950 . S
C2444 C2443 1.398 . S
C2444 C2445 1.391 . S
C2445 H2433 0.950 . S
C2445 C2441 1.393 . S
C2445 C2444 1.391 . S
C2446 H2436 0.950 . S
C2446 C2447 1.386 . S
C2446 C2448 1.391 . S
C2447 C2446 1.386 . S
C2447 C2451 1.393 . S
C2448 H2437 0.950 . S
C2448 C2446 1.391 . S
C2448 C2449 1.400 . S
C2449 C2443 1.491 1_565 S
C2449 C2448 1.400 . S
C2449 C2450 1.398 . S
C2450 H2438 0.950 . S
C2450 C2449 1.398 . S
C2450 C2451 1.391 . S
C2451 H2439 0.950 . S
C2451 C2447 1.393 . S
C2451 C2450 1.391 . S
H2452 C2460 0.950 . S
H2453 C2465 0.950 . S
H2454 C2462 0.950 . S
H2455 C2464 0.950 . S
H2456 C2466 0.950 . S
H2457 C2468 0.950 . S
H2458 C2470 0.950 . S
H2459 C2471 0.950 . S
C2460 H2452 0.950 . S
C2460 C2461 1.386 . S
C2460 C2462 1.391 . S
C2461 C2460 1.386 . S
C2461 C2465 1.393 . S
C2462 H2454 0.950 . S
C2462 C2460 1.391 . S
C2462 C2463 1.400 . S
C2463 C2462 1.400 . S
C2463 C2464 1.398 . S
C2463 C2469 1.491 1_545 S
C2464 H2455 0.950 . S
C2464 C2463 1.398 . S
C2464 C2465 1.391 . S
C2465 H2453 0.950 . S
C2465 C2461 1.393 . S
C2465 C2464 1.391 . S
C2466 H2456 0.950 . S
C2466 C2467 1.386 . S
C2466 C2468 1.391 . S
C2467 C2466 1.386 . S
C2467 C2471 1.393 . S
C2468 H2457 0.950 . S
C2468 C2466 1.391 . S
C2468 C2469 1.400 . S
C2469 C2463 1.491 1_565 S
C2469 C2468 1.400 . S
C2469 C2470 1.398 . S
C2470 H2458 0.950 . S
C2470 C2469 1.398 . S
C2470 C2471 1.391 . S
C2471 H2459 0.950 . S
C2471 C2467 1.393 . S
C2471 C2470 1.391 . S
H2472 C2480 0.950 . S
H2473 C2485 0.950 . S
H2474 C2482 0.950 . S
H2475 C2484 0.950 . S
H2476 C2486 0.950 . S
H2477 C2488 0.950 . S
H2478 C2490 0.950 . S
H2479 C2491 0.950 . S
C2480 H2472 0.950 . S
C2480 C2481 1.386 . S
C2480 C2482 1.391 . S
C2481 C2480 1.386 . S
C2481 C2485 1.393 . S
C2482 H2474 0.950 . S
C2482 C2480 1.391 . S
C2482 C2483 1.400 . S
C2483 C2482 1.400 . S
C2483 C2484 1.398 . S
C2483 C2489 1.491 1_655 S
C2484 H2475 0.950 . S
C2484 C2483 1.398 . S
C2484 C2485 1.391 . S
C2485 H2473 0.950 . S
C2485 C2481 1.393 . S
C2485 C2484 1.391 . S
C2486 H2476 0.950 . S
C2486 C2487 1.386 . S
C2486 C2488 1.391 . S
C2487 C2486 1.386 . S
C2487 C2491 1.393 . S
C2488 H2477 0.950 . S
C2488 C2486 1.391 . S
C2488 C2489 1.400 . S
C2489 C2483 1.491 1_455 S
C2489 C2488 1.400 . S
C2489 C2490 1.398 . S
C2490 H2478 0.950 . S
C2490 C2489 1.398 . S
C2490 C2491 1.391 . S
C2491 H2479 0.950 . S
C2491 C2487 1.393 . S
C2491 C2490 1.391 . S
H2492 C2500 0.950 . S
H2493 C2505 0.950 . S
H2494 C2502 0.950 . S
H2495 C2504 0.950 . S
H2496 C2506 0.950 . S
H2497 C2508 0.950 . S
H2498 C2510 0.950 . S
H2499 C2511 0.950 . S
C2500 H2492 0.950 . S
C2500 C2501 1.386 . S
C2500 C2502 1.391 . S
C2501 C2500 1.386 . S
C2501 C2505 1.393 . S
C2502 H2494 0.950 . S
C2502 C2500 1.391 . S
C2502 C2503 1.400 . S
C2503 C2502 1.400 . S
C2503 C2504 1.398 . S
C2503 C2509 1.491 1_545 S
C2504 H2495 0.950 . S
C2504 C2503 1.398 . S
C2504 C2505 1.391 . S
C2505 H2493 0.950 . S
C2505 C2501 1.393 . S
C2505 C2504 1.391 . S
C2506 H2496 0.950 . S
C2506 C2507 1.386 . S
C2506 C2508 1.391 . S
C2507 C2506 1.386 . S
C2507 C2511 1.393 . S
C2508 H2497 0.950 . S
C2508 C2506 1.391 . S
C2508 C2509 1.400 . S
C2509 C2503 1.491 1_565 S
C2509 C2508 1.400 . S
C2509 C2510 1.398 . S
C2510 H2498 0.950 . S
C2510 C2509 1.398 . S
C2510 C2511 1.391 . S
C2511 H2499 0.950 . S
C2511 C2507 1.393 . S
C2511 C2510 1.391 . S
H2512 C2520 0.950 . S
H2513 C2525 0.950 . S
H2514 C2522 0.950 . S
H2515 C2524 0.950 . S
H2516 C2526 0.950 . S
H2517 C2528 0.950 . S
H2518 C2530 0.950 . S
H2519 C2531 0.950 . S
C2520 H2512 0.950 . S
C2520 C2521 1.386 . S
C2520 C2522 1.391 . S
C2521 C2520 1.386 . S
C2521 C2525 1.393 . S
C2522 H2514 0.950 . S
C2522 C2520 1.391 . S
C2522 C2523 1.400 . S
C2523 C2522 1.400 . S
C2523 C2524 1.398 . S
C2523 C2529 1.491 1_455 S
C2524 H2515 0.950 . S
C2524 C2523 1.398 . S
C2524 C2525 1.391 . S
C2525 H2513 0.950 . S
C2525 C2521 1.393 . S
C2525 C2524 1.391 . S
C2526 H2516 0.950 . S
C2526 C2527 1.386 . S
C2526 C2528 1.391 . S
C2527 C2526 1.386 . S
C2527 C2531 1.393 . S
C2528 H2517 0.950 . S
C2528 C2526 1.391 . S
C2528 C2529 1.400 . S
C2529 C2523 1.491 1_655 S
C2529 C2528 1.400 . S
C2529 C2530 1.398 . S
C2530 H2518 0.950 . S
C2530 C2529 1.398 . S
C2530 C2531 1.391 . S
C2531 H2519 0.950 . S
C2531 C2527 1.393 . S
C2531 C2530 1.391 . S
H2532 C2540 0.950 . S
H2533 C2545 0.950 . S
H2534 C2542 0.950 . S
H2535 C2544 0.950 . S
H2536 C2546 0.950 . S
H2537 C2548 0.950 . S
H2538 C2550 0.950 . S
H2539 C2551 0.950 . S
C2540 H2532 0.950 . S
C2540 C2541 1.386 . S
C2540 C2542 1.391 . S
C2541 C2540 1.386 . S
C2541 C2545 1.393 . S
C2542 H2534 0.950 . S
C2542 C2540 1.391 . S
C2542 C2543 1.400 . S
C2543 C2542 1.400 . S
C2543 C2544 1.398 . S
C2543 C2549 1.491 1_545 S
C2544 H2535 0.950 . S
C2544 C2543 1.398 . S
C2544 C2545 1.391 . S
C2545 H2533 0.950 . S
C2545 C2541 1.393 . S
C2545 C2544 1.391 . S
C2546 H2536 0.950 . S
C2546 C2547 1.386 . S
C2546 C2548 1.391 . S
C2547 C2546 1.386 . S
C2547 C2551 1.393 . S
C2548 H2537 0.950 . S
C2548 C2546 1.391 . S
C2548 C2549 1.400 . S
C2549 C2543 1.491 1_565 S
C2549 C2548 1.400 . S
C2549 C2550 1.398 . S
C2550 H2538 0.950 . S
C2550 C2549 1.398 . S
C2550 C2551 1.391 . S
C2551 H2539 0.950 . S
C2551 C2547 1.393 . S
C2551 C2550 1.391 . S
H2552 C2560 0.950 . S
H2553 C2565 0.950 . S
H2554 C2562 0.950 . S
H2555 C2564 0.950 . S
H2556 C2566 0.950 . S
H2557 C2568 0.950 . S
H2558 C2570 0.950 . S
H2559 C2571 0.950 . S
C2560 H2552 0.950 . S
C2560 C2561 1.386 . S
C2560 C2562 1.391 . S
C2561 C2560 1.386 . S
C2561 C2565 1.393 . S
C2562 H2554 0.950 . S
C2562 C2560 1.391 . S
C2562 C2563 1.400 . S
C2563 C2562 1.400 . S
C2563 C2564 1.398 . S
C2563 C2569 1.491 1_655 S
C2564 H2555 0.950 . S
C2564 C2563 1.398 . S
C2564 C2565 1.391 . S
C2565 H2553 0.950 . S
C2565 C2561 1.393 . S
C2565 C2564 1.391 . S
C2566 H2556 0.950 . S
C2566 C2567 1.386 . S
C2566 C2568 1.391 . S
C2567 C2566 1.386 . S
C2567 C2571 1.393 . S
C2568 H2557 0.950 . S
C2568 C2566 1.391 . S
C2568 C2569 1.400 . S
C2569 C2563 1.491 1_455 S
C2569 C2568 1.400 . S
C2569 C2570 1.398 . S
C2570 H2558 0.950 . S
C2570 C2569 1.398 . S
C2570 C2571 1.391 . S
C2571 H2559 0.950 . S
C2571 C2567 1.393 . S
C2571 C2570 1.391 . S
H2572 C2580 0.950 . S
H2573 C2585 0.950 . S
H2574 C2582 0.950 . S
H2575 C2584 0.950 . S
H2576 C2586 0.950 . S
H2577 C2588 0.950 . S
H2578 C2590 0.950 . S
H2579 C2591 0.950 . S
C2580 H2572 0.950 . S
C2580 C2581 1.386 . S
C2580 C2582 1.391 . S
C2581 C2580 1.386 . S
C2581 C2585 1.393 . S
C2582 H2574 0.950 . S
C2582 C2580 1.391 . S
C2582 C2583 1.400 . S
C2583 C2582 1.400 . S
C2583 C2584 1.398 . S
C2583 C2589 1.491 1_455 S
C2584 H2575 0.950 . S
C2584 C2583 1.398 . S
C2584 C2585 1.391 . S
C2585 H2573 0.950 . S
C2585 C2581 1.393 . S
C2585 C2584 1.391 . S
C2586 H2576 0.950 . S
C2586 C2587 1.386 . S
C2586 C2588 1.391 . S
C2587 C2586 1.386 . S
C2587 C2591 1.393 . S
C2588 H2577 0.950 . S
C2588 C2586 1.391 . S
C2588 C2589 1.400 . S
C2589 C2583 1.491 1_655 S
C2589 C2588 1.400 . S
C2589 C2590 1.398 . S
C2590 H2578 0.950 . S
C2590 C2589 1.398 . S
C2590 C2591 1.391 . S
C2591 H2579 0.950 . S
C2591 C2587 1.393 . S
C2591 C2590 1.391 . S
C681 C553 1.303 . S
C687 C7 1.306 . S
C701 C25 1.152 . S
C707 C511 1.157 . S
C721 C35 1.192 . S
C727 C529 1.200 . S
C741 C543 1.171 . S
C747 C53 1.158 . S
C761 C473 1.121 . S
C767 C67 1.114 . S
C781 C77 1.247 . S
C787 C483 1.258 . S
C801 C95 1.198 . S
C807 C497 1.194 . S
C821 C105 1.256 . S
C827 C459 1.262 . S
C841 C123 1.259 . S
C847 C441 1.262 . S
C861 C403 1.110 . S
C867 C137 1.124 . S
C881 C413 1.243 . S
C887 C147 1.261 . S
C901 C161 1.204 . S
C907 C431 1.211 . S
C921 C175 1.167 . S
C927 C361 1.163 . S
C941 C193 1.203 . S
C947 C371 1.208 . S
C961 C389 1.169 . S
C967 C207 1.158 . S
C981 C343 1.297 . S
C987 C217 1.310 . S
C1001 C235 1.216 . S
C1007 C627 1.212 . S
C1021 C665 1.214 . S
C1027 C245 1.202 . S
C1041 C641 1.209 . S
C1047 C263 1.218 . S
C1061 C651 1.209 . S
C1067 C273 1.206 . S
C1081 C571 1.221 . S
C1087 C291 1.206 . S
C1101 C599 1.210 . S
C1107 C305 1.218 . S
C1121 C315 1.209 . S
C1127 C609 1.203 . S
C1141 C581 1.204 . S
C1147 C329 1.212 . S
C1161 C455 1.304 . S
C1167 C287 1.303 . S
C1181 C249 1.153 . S
C1187 C469 1.161 . S
C1201 C487 1.197 . S
C1207 C259 1.194 . S
C1221 C501 1.159 . S
C1227 C277 1.167 . S
C1241 C333 1.123 . S
C1247 C515 1.113 . S
C1261 C525 1.258 . S
C1267 C301 1.247 . S
C1281 C319 1.205 . S
C1287 C539 1.208 . S
C1301 C231 1.249 . S
C1307 C557 1.250 . S
C1321 C567 1.257 . S
C1327 C221 1.262 . S
C1341 C179 1.122 . S
C1347 C669 1.112 . S
C1361 C637 1.243 . S
C1367 C189 1.261 . S
C1381 C203 1.202 . S
C1387 C655 1.199 . S
C1401 C133 1.155 . S
C1407 C585 1.152 . S
C1421 C151 1.206 . S
C1427 C595 1.208 . S
C1441 C165 1.165 . S
C1447 C613 1.161 . S
C1461 C623 1.309 . S
C1467 C119 1.300 . S
C1481 C347 1.206 . S
C1487 C109 1.220 . S
C1501 C399 1.209 . S
C1507 C21 1.206 . S
C1521 C417 1.206 . S
C1527 C39 1.220 . S
C1541 C427 1.212 . S
C1547 C49 1.202 . S
C1561 C445 1.219 . S
C1567 C11 1.208 . S
C1581 C81 1.210 . S
C1587 C375 1.217 . S
C1601 C385 1.204 . S
C1607 C91 1.210 . S
C1621 C357 1.214 . S
C1627 C63 1.204 . S
C1641 C13 1.122 . S
C1647 C377 1.146 . S
C1661 C386 1.301 . S
C1667 C22 1.314 . S
C1681 C41 1.152 . S
C1687 C349 1.117 . S
C1701 C50 1.298 . S
C1707 C358 1.316 . S
C1721 C64 1.300 . S
C1727 C428 1.316 . S
C1741 C447 1.150 . S
C1747 C83 1.118 . S
C1761 C92 1.307 . S
C1767 C400 1.309 . S
C1781 C419 1.147 . S
C1787 C111 1.120 . S
C1801 C120 1.193 . S
C1807 C517 1.228 . S
C1821 C526 1.368 . S
C1827 C134 1.355 . S
C1841 C153 1.240 . S
C1847 C540 1.202 . S
C1861 C167 1.073 . S
C1867 C559 1.089 . S
C1881 C181 1.218 . S
C1887 C456 1.201 . S
C1901 C190 1.373 . S
C1907 C470 1.350 . S
C1921 C489 1.237 . S
C1927 C204 1.198 . S
C1941 C223 1.088 . S
C1947 C503 1.074 . S
C1961 C615 1.282 . S
C1967 C232 1.284 . S
C1981 C251 1.186 . S
C1987 C638 1.177 . S
C2001 C260 1.201 . S
C2007 C657 1.240 . S
C2021 C568 1.277 . S
C2027 C279 1.273 . S
C2041 C671 1.254 . S
C2047 C288 1.205 . S
C2061 C302 1.144 . S
C2067 C587 1.193 . S
C2081 C596 1.224 . S
C2087 C321 1.211 . S
C2101 C335 1.250 . S
C2107 C624 1.193 . S
C2121 C601 1.130 . S
C2127 C293 1.137 . S
C2141 C246 1.324 . S
C2147 C610 1.291 . S
C2161 C629 1.149 . S
C2167 C265 1.119 . S
C2181 C582 1.301 . S
C2187 C274 1.315 . S
C2201 C652 1.301 . S
C2207 C330 1.316 . S
C2221 C307 1.130 . S
C2227 C573 1.138 . S
C2241 C666 1.313 . S
C2247 C316 1.303 . S
C2261 C237 1.144 . S
C2267 C643 1.124 . S
C2281 C475 1.227 . S
C2287 C218 1.193 . S
C2301 C176 1.377 . S
C2307 C484 1.347 . S
C2321 C195 1.210 . S
C2327 C498 1.224 . S
C2341 C461 1.090 . S
C2347 C209 1.072 . S
C2361 C139 1.217 . S
C2367 C554 1.203 . S
C2381 C512 1.360 . S
C2387 C148 1.363 . S
C2401 C162 1.230 . S
C2407 C531 1.222 . S
C2421 C125 1.085 . S
C2427 C545 1.078 . S
C2441 C391 1.276 . S
C2447 C106 1.281 . S
C2461 C27 1.183 . S
C2467 C414 1.139 . S
C2481 C36 1.231 . S
C2487 C433 1.234 . S
C2501 C442 1.262 . S
C2507 C55 1.302 . S
C2521 C8 1.216 . S
C2527 C405 1.223 . S
C2541 C78 1.173 . S
C2547 C363 1.190 . S
C2561 C97 1.214 . S
C2567 C372 1.206 . S
C2581 C69 1.228 . S
C2587 C344 1.196 . S
