# Generated by pormake.
# Topology mdf, (4)-cn, num edge types: 1
# Building blocks:
#     Node 0, Type 0, BuildingBlock: TATPOV_clean_sbu_0, # of connection points: 4
#     Node 1, Type 0, BuildingBlock: TATPOV_clean_sbu_0, # of connection points: 4
#     Node 2, Type 0, BuildingBlock: TATPOV_clean_sbu_0, # of connection points: 4
#     Node 3, Type 0, BuildingBlock: TATPOV_clean_sbu_0, # of connection points: 4
#     Node 4, Type 0, BuildingBlock: TATPOV_clean_sbu_0, # of connection points: 4
#     Node 5, Type 0, BuildingBlock: TATPOV_clean_sbu_0, # of connection points: 4
#     Node 6, Type 0, BuildingBlock: TATPOV_clean_sbu_0, # of connection points: 4
#     Node 7, Type 0, BuildingBlock: TATPOV_clean_sbu_0, # of connection points: 4
#     Edge 8, Type (0, 0), BuildingBlock: ZUJKAS_clean_linker_0, # of connection points: 2
#     Edge 9, Type (0, 0), BuildingBlock: ZUJKAS_clean_linker_0, # of connection points: 2
#     Edge 10, Type (0, 0), BuildingBlock: ZUJKAS_clean_linker_0, # of connection points: 2
#     Edge 11, Type (0, 0), BuildingBlock: ZUJKAS_clean_linker_0, # of connection points: 2
#     Edge 12, Type (0, 0), BuildingBlock: ZUJKAS_clean_linker_0, # of connection points: 2
#     Edge 13, Type (0, 0), BuildingBlock: ZUJKAS_clean_linker_0, # of connection points: 2
#     Edge 14, Type (0, 0), BuildingBlock: ZUJKAS_clean_linker_0, # of connection points: 2
#     Edge 15, Type (0, 0), BuildingBlock: ZUJKAS_clean_linker_0, # of connection points: 2
#     Edge 16, Type (0, 0), BuildingBlock: ZUJKAS_clean_linker_0, # of connection points: 2
#     Edge 17, Type (0, 0), BuildingBlock: ZUJKAS_clean_linker_0, # of connection points: 2
#     Edge 18, Type (0, 0), BuildingBlock: ZUJKAS_clean_linker_0, # of connection points: 2
#     Edge 19, Type (0, 0), BuildingBlock: ZUJKAS_clean_linker_0, # of connection points: 2
#     Edge 20, Type (0, 0), BuildingBlock: ZUJKAS_clean_linker_0, # of connection points: 2
#     Edge 21, Type (0, 0), BuildingBlock: ZUJKAS_clean_linker_0, # of connection points: 2
#     Edge 22, Type (0, 0), BuildingBlock: ZUJKAS_clean_linker_0, # of connection points: 2
#     Edge 23, Type (0, 0), BuildingBlock: ZUJKAS_clean_linker_0, # of connection points: 2
# Relax obj value: 0.042
# Max RMSD: 0.066
# Mean RMSD: 0.055
data_MOF--net-mdf--node1-TATPOV_clean_sbu_0--edge1-ZUJKAS_clean_linker_0
_symmetry_space_group_name_H-M    P1
_symmetry_Int_Tables_number       1
_symmetry_cell_setting            triclinic
loop_
_symmetry_equiv_pos_as_xyz
'x, y, z'
_cell_length_a     45.437826
_cell_length_b     45.367457
_cell_length_c     19.043198
_cell_angle_alpha  92.17269
_cell_angle_beta   92.191994
_cell_angle_gamma 90.163816
loop_
_atom_site_label
_atom_site_type_symbol
_atom_site_fract_x
_atom_site_fract_y
_atom_site_fract_z
_atom_type_partial_charge
Zn0 Zn 0.25566 0.52933 0.51757 0.0
Zn1 Zn 0.26276 0.55512 0.397 0.0
O2 O 0.24936 0.58882 0.46536 0.0
O3 O 0.24428 0.56727 0.56577 0.0
O4 O 0.27287 0.5775 0.31073 0.0
O5 O 0.29735 0.51586 0.52434 0.0
O6 O 0.30244 0.53371 0.41971 0.0
C7 C 0.24298 0.59021 0.53005 0.0
C8 C 0.21677 0.50648 0.40318 0.0
O9 O 0.22869 0.52623 0.36742 0.0
O10 O 0.22493 0.50329 0.46681 0.0
C11 C 0.29393 0.59599 0.32022 0.0
O12 O 0.30664 0.59913 0.38323 0.0
C13 C 0.31297 0.51983 0.47198 0.0
Zn14 Zn 0.49054 0.74189 0.5062 0.0
Zn15 Zn 0.45863 0.73857 0.61904 0.0
O16 O 0.42817 0.74911 0.53964 0.0
O17 O 0.45514 0.75214 0.44658 0.0
O18 O 0.43281 0.7322 0.70163 0.0
O19 O 0.50269 0.69982 0.51011 0.0
O20 O 0.47985 0.6979 0.60973 0.0
C21 C 0.43033 0.75381 0.47437 0.0
C22 C 0.50817 0.7842 0.61752 0.0
O23 O 0.48632 0.77363 0.64864 0.0
O24 O 0.51491 0.77375 0.55765 0.0
C25 C 0.44344 0.72901 0.76363 0.0
O26 O 0.47203 0.73153 0.77546 0.0
C27 C 0.49568 0.68572 0.563 0.0
Zn28 Zn 0.21853 0.96613 0.75059 0.0
Zn29 Zn 0.2426 0.94376 0.86587 0.0
O30 O 0.23359 0.90742 0.79913 0.0
O31 O 0.20867 0.92586 0.70971 0.0
O32 O 0.25848 0.92448 0.95333 0.0
O33 O 0.25779 0.98478 0.73248 0.0
O34 O 0.27644 0.97011 0.8338 0.0
C35 C 0.21921 0.90388 0.74069 0.0
C36 C 0.18765 0.98367 0.87264 0.0
O37 O 0.20655 0.96697 0.9022 0.0
O38 O 0.18858 0.98776 0.80739 0.0
C39 C 0.27618 0.90294 0.94792 0.0
O40 O 0.28526 0.89481 0.88544 0.0
C41 C 0.27904 0.9841 0.77745 0.0
Zn42 Zn 0.0252 0.78123 0.2301 0.0
Zn43 Zn 0.04487 0.75723 0.11162 0.0
O44 O 0.08249 0.76329 0.17523 0.0
O45 O 0.0666 0.78861 0.26714 0.0
O46 O 0.06191 0.742 0.02115 0.0
O47 O 0.00543 0.74223 0.24697 0.0
O48 O 0.01838 0.7237 0.14409 0.0
C49 C 0.08749 0.77703 0.23403 0.0
C50 C 0.0072 0.81418 0.11229 0.0
O51 O 0.0225 0.79469 0.08051 0.0
O52 O 0.00403 0.81294 0.17784 0.0
C53 C 0.07697 0.75982 0.98684 0.0
O54 O 0.08004 0.78724 0.01079 0.0
C55 C 0.0051 0.72112 0.2014 0.0
Zn56 Zn 0.74859 0.03193 0.99413 0.0
Zn57 Zn 0.75266 0.05967 0.87502 0.0
O58 O 0.73972 0.09236 0.94751 0.0
O59 O 0.737 0.06882 0.04606 0.0
O60 O 0.76156 0.08184 0.78717 0.0
O61 O 0.79059 0.01962 0.99716 0.0
O62 O 0.79296 0.03865 0.89296 0.0
C63 C 0.73451 0.09237 0.01292 0.0
C64 C 0.7084 0.00946 0.88209 0.0
O65 O 0.71886 0.03025 0.84702 0.0
O66 O 0.71794 0.0055 0.94442 0.0
C67 C 0.75329 0.10791 0.77386 0.0
O68 O 0.73579 0.1219 0.81706 0.0
C69 C 0.80491 0.02451 0.9432 0.0
Zn70 Zn 0.98546 0.25376 0.01827 0.0
Zn71 Zn 0.95391 0.24724 0.12858 0.0
O72 O 0.92276 0.25988 0.05192 0.0
O73 O 0.95069 0.26824 0.96294 0.0
O74 O 0.92966 0.23719 0.21194 0.0
O75 O 0.99645 0.21136 0.0098 0.0
O76 O 0.97523 0.20703 0.1108 0.0
C77 C 0.92552 0.2681 0.98907 0.0
C78 C 0.00498 0.29143 0.13553 0.0
O79 O 0.98222 0.2813 0.16392 0.0
O80 O 0.01176 0.28212 0.0748 0.0
C81 C 0.90686 0.25058 0.23293 0.0
O82 O 0.89779 0.27422 0.20087 0.0
C83 C 0.99018 0.19592 0.06104 0.0
Zn84 Zn 0.73386 0.48024 0.25749 0.0
Zn85 Zn 0.75555 0.45 0.36402 0.0
O86 O 0.74804 0.41807 0.28398 0.0
O87 O 0.72915 0.44349 0.19721 0.0
O88 O 0.77037 0.42566 0.44517 0.0
O89 O 0.77182 0.50275 0.25588 0.0
O90 O 0.79006 0.47858 0.34572 0.0
C91 C 0.7375 0.41911 0.22104 0.0
C92 C 0.69893 0.48756 0.37746 0.0
O93 O 0.71854 0.47065 0.40345 0.0
O94 O 0.70036 0.49514 0.31441 0.0
C95 C 0.75264 0.41386 0.48619 0.0
O96 O 0.72419 0.41784 0.47615 0.0
C97 C 0.79285 0.49795 0.29944 0.0
Zn98 Zn 0.5146 0.26335 0.75678 0.0
Zn99 Zn 0.54301 0.24519 0.64317 0.0
O100 O 0.57616 0.24959 0.72112 0.0
O101 O 0.55239 0.26497 0.814 0.0
O102 O 0.56589 0.23268 0.55773 0.0
O103 O 0.49142 0.22558 0.75186 0.0
O104 O 0.5141 0.21048 0.65686 0.0
C105 C 0.57623 0.25759 0.78609 0.0
C106 C 0.50728 0.30334 0.64565 0.0
O107 O 0.52336 0.2844 0.61434 0.0
O108 O 0.50009 0.29947 0.70821 0.0
C109 C 0.55958 0.24077 0.49567 0.0
O110 O 0.53632 0.25731 0.48447 0.0
C111 C 0.49537 0.20613 0.70375 0.0
H112 H 0.45838 0.72338 0.90307 0.0
H113 H 0.42766 0.70466 0.99453 0.0
H114 H 0.35442 0.69523 0.84469 0.0
H115 H 0.3849 0.71399 0.75273 0.0
H116 H 0.36853 0.72567 0.04121 0.0
H117 H 0.36936 0.61096 0.92613 0.0
H118 H 0.39628 0.63826 0.90482 0.0
H119 H 0.35941 0.64001 0.86809 0.0
C120 C 0.43567 0.71756 0.88957 0.0
C121 C 0.42418 0.72001 0.82038 0.0
C122 C 0.41815 0.70692 0.94198 0.0
C123 C 0.3889 0.69829 0.92613 0.0
C124 C 0.37705 0.70152 0.85775 0.0
H125 H 0.27162 0.59764 0.18405 0.0
H126 H 0.2913 0.62506 0.08753 0.0
C127 C 0.39449 0.71233 0.80536 0.0
C128 C 0.37128 0.68484 0.98061 0.0
H129 H 0.34355 0.61901 0.02954 0.0
C130 C 0.36289 0.70239 0.03864 0.0
C131 C 0.3638 0.65454 0.97669 0.0
C132 C 0.37275 0.63466 0.91593 0.0
C133 C 0.34735 0.69036 0.09331 0.0
C134 C 0.34076 0.65976 0.09069 0.0
C135 C 0.34856 0.64243 0.03164 0.0
C136 C 0.32744 0.64485 0.1502 0.0
C137 C 0.33795 0.71068 0.15285 0.0
C138 C 0.34126 0.64665 0.21741 0.0
C139 C 0.33001 0.63117 0.27254 0.0
C140 C 0.30487 0.61314 0.26161 0.0
C141 C 0.29099 0.61133 0.19428 0.0
C142 C 0.3022 0.62702 0.1391 0.0
H143 H 0.33544 0.73369 0.13562 0.0
H144 H 0.31681 0.7034 0.17404 0.0
H145 H 0.35511 0.71086 0.19592 0.0
H146 H 0.36124 0.65949 0.22698 0.0
H147 H 0.34142 0.63295 0.32351 0.0
H148 H 0.42392 0.7497 0.33208 0.0
H149 H 0.38573 0.77179 0.25804 0.0
H150 H 0.34034 0.80133 0.44247 0.0
H151 H 0.37882 0.77911 0.51766 0.0
H152 H 0.32214 0.76648 0.24662 0.0
H153 H 0.36186 0.878 0.34143 0.0
H154 H 0.38317 0.84522 0.35686 0.0
H155 H 0.35081 0.8525 0.40565 0.0
C156 C 0.40563 0.76052 0.35708 0.0
C157 C 0.4046 0.76306 0.43075 0.0
C158 C 0.38374 0.77302 0.31462 0.0
C159 C 0.36051 0.78857 0.34483 0.0
C160 C 0.35834 0.78969 0.41828 0.0
H161 H 0.25963 0.91199 0.08415 0.0
H162 H 0.27411 0.88326 0.1862 0.0
C163 C 0.38022 0.77689 0.46106 0.0
C164 C 0.34055 0.80564 0.29862 0.0
H165 H 0.32947 0.87554 0.24306 0.0
C166 C 0.32327 0.79036 0.24647 0.0
C167 C 0.34195 0.8368 0.29897 0.0
C168 C 0.3605 0.85427 0.35336 0.0
C169 C 0.30854 0.80534 0.19248 0.0
C170 C 0.31166 0.83633 0.19001 0.0
C171 C 0.32729 0.85176 0.24482 0.0
C172 C 0.30145 0.85282 0.12791 0.0
C173 C 0.29034 0.78775 0.13772 0.0
C174 C 0.31244 0.84558 0.06159 0.0
C175 C 0.30432 0.86196 0.00337 0.0
C176 C 0.28521 0.88611 0.01032 0.0
C177 C 0.2744 0.89352 0.07698 0.0
C178 C 0.28255 0.87707 0.1353 0.0
H179 H 0.28209 0.76696 0.15913 0.0
H180 H 0.27127 0.80066 0.11777 0.0
H181 H 0.30427 0.7817 0.09281 0.0
H182 H 0.32775 0.82752 0.05501 0.0
H183 H 0.31316 0.8557 0.95296 0.0
H184 H 0.11615 0.82549 0.28656 0.0
H185 H 0.15922 0.82688 0.367 0.0
H186 H 0.16728 0.73233 0.34315 0.0
H187 H 0.12433 0.73106 0.26009 0.0
H188 H 0.15741 0.75469 0.48214 0.0
H189 H 0.24947 0.81445 0.37162 0.0
H190 H 0.21505 0.83131 0.34761 0.0
H191 H 0.22232 0.79403 0.31717 0.0
C192 C 0.12789 0.80519 0.29617 0.0
C193 C 0.11719 0.77823 0.26724 0.0
C194 C 0.1526 0.80597 0.34177 0.0
C195 C 0.1667 0.77973 0.36038 0.0
C196 C 0.15702 0.75283 0.32846 0.0
H197 H 0.26097 0.86123 0.72262 0.0
H198 H 0.25665 0.81766 0.64138 0.0
C199 C 0.13258 0.75215 0.28116 0.0
C200 C 0.18687 0.78073 0.42325 0.0
H201 H 0.23939 0.82726 0.49625 0.0
C202 C 0.17626 0.76947 0.48518 0.0
C203 C 0.21186 0.79938 0.42731 0.0
C204 C 0.22553 0.8102 0.36211 0.0
C205 C 0.18687 0.78037 0.55128 0.0
C206 C 0.20845 0.80289 0.55488 0.0
C207 C 0.22242 0.81035 0.49344 0.0
C208 C 0.21045 0.82432 0.61532 0.0
C209 C 0.17274 0.7701 0.61638 0.0
C210 C 0.18585 0.8421 0.62804 0.0
C211 C 0.18843 0.86707 0.6726 0.0
C212 C 0.21555 0.8745 0.7062 0.0
C213 C 0.23975 0.85564 0.69768 0.0
C214 C 0.23733 0.83086 0.65145 0.0
H215 H 0.16445 0.74715 0.60832 0.0
H216 H 0.18853 0.77133 0.66241 0.0
H217 H 0.15365 0.7844 0.62824 0.0
H218 H 0.16507 0.83787 0.59954 0.0
H219 H 0.16953 0.88137 0.67825 0.0
H220 H 0.11103 0.79231 0.90269 0.0
H221 H 0.1395 0.77445 0.80328 0.0
H222 H 0.10723 0.68623 0.82979 0.0
H223 H 0.07839 0.7039 0.92822 0.0
H224 H 0.1837 0.73491 0.80813 0.0
H225 H 0.0968 0.69356 0.61907 0.0
H226 H 0.08905 0.71804 0.69304 0.0
H227 H 0.0921 0.67887 0.70405 0.0
C228 C 0.10965 0.76917 0.88672 0.0
C229 C 0.09244 0.7495 0.92347 0.0
C230 C 0.12593 0.75904 0.82986 0.0
C231 C 0.12514 0.72911 0.80841 0.0
C232 C 0.10759 0.70955 0.84423 0.0
H233 H 0.24225 0.60443 0.66963 0.0
H234 H 0.21694 0.64547 0.7265 0.0
C235 C 0.09128 0.71965 0.90094 0.0
C236 C 0.14465 0.71759 0.75315 0.0
H237 H 0.14495 0.6709 0.60853 0.0
C238 C 0.1752 0.72143 0.76361 0.0
C239 C 0.13362 0.70068 0.69393 0.0
C240 C 0.10107 0.69783 0.6764 0.0
C241 C 0.195 0.70676 0.71978 0.0
C242 C 0.18394 0.68733 0.6652 0.0
C243 C 0.15344 0.68547 0.65109 0.0
C244 C 0.20309 0.66559 0.62948 0.0
C245 C 0.2276 0.71148 0.73364 0.0
C246 C 0.20393 0.66333 0.55581 0.0
C247 C 0.21852 0.63971 0.52288 0.0
C248 C 0.23193 0.61779 0.56331 0.0
C249 C 0.23204 0.62089 0.63701 0.0
C250 C 0.21779 0.64452 0.66968 0.0
H251 H 0.23221 0.73377 0.75782 0.0
H252 H 0.23595 0.69499 0.77103 0.0
H253 H 0.23987 0.7089 0.68447 0.0
H254 H 0.19249 0.67927 0.52389 0.0
H255 H 0.21796 0.63781 0.46597 0.0
H256 H 0.74022 0.16336 0.72947 0.0
H257 H 0.76246 0.1895 0.63442 0.0
H258 H 0.81684 0.11393 0.58905 0.0
H259 H 0.79437 0.08748 0.68266 0.0
H260 H 0.8195 0.20525 0.62072 0.0
H261 H 0.78422 0.13132 0.39532 0.0
H262 H 0.76851 0.12922 0.4806 0.0
H263 H 0.80313 0.11167 0.46329 0.0
C264 C 0.75664 0.15215 0.69867 0.0
C265 C 0.76536 0.12322 0.71354 0.0
C266 C 0.76939 0.16717 0.64444 0.0
C267 C 0.79101 0.15355 0.60374 0.0
C268 C 0.79969 0.12467 0.61842 0.0
H269 H 0.91644 0.19905 0.30014 0.0
H270 H 0.88709 0.17779 0.39061 0.0
C271 C 0.78689 0.1096 0.67235 0.0
C272 C 0.80556 0.1699 0.54816 0.0
H273 H 0.82371 0.16483 0.3756 0.0
C274 C 0.8201 0.19661 0.56692 0.0
C275 C 0.80621 0.15875 0.47775 0.0
C276 C 0.78941 0.13133 0.45282 0.0
C277 C 0.83631 0.21173 0.51798 0.0
C278 C 0.83787 0.19991 0.44845 0.0
C279 C 0.82269 0.17369 0.42917 0.0
C280 C 0.85603 0.21376 0.39542 0.0
C281 C 0.85255 0.23965 0.54146 0.0
C282 C 0.84828 0.24109 0.36801 0.0
C283 C 0.86498 0.25332 0.3159 0.0
C284 C 0.88977 0.23844 0.29035 0.0
C285 C 0.89758 0.21119 0.31862 0.0
C286 C 0.88079 0.19895 0.3703 0.0
H287 H 0.85277 0.24347 0.59946 0.0
H288 H 0.87563 0.23881 0.52429 0.0
H289 H 0.84172 0.25874 0.51669 0.0
H290 H 0.82904 0.25272 0.38609 0.0
H291 H 0.85829 0.27428 0.2952 0.0
H292 H 0.92591 0.28503 0.85397 0.0
H293 H 0.88551 0.30356 0.78191 0.0
H294 H 0.82619 0.29215 0.95036 0.0
H295 H 0.86723 0.2738 0.02467 0.0
H296 H 0.83212 0.27653 0.7378 0.0
H297 H 0.81448 0.37917 0.90156 0.0
H298 H 0.8479 0.35801 0.91099 0.0
H299 H 0.81414 0.34417 0.94292 0.0
C300 C 0.90436 0.28635 0.87624 0.0
C301 C 0.89993 0.27808 0.94553 0.0
C302 C 0.88119 0.2969 0.83461 0.0
C303 C 0.8529 0.2995 0.86084 0.0
C304 C 0.84799 0.29072 0.92946 0.0
H305 H 0.72226 0.39368 0.59632 0.0
H306 H 0.74089 0.36289 0.69134 0.0
C307 C 0.8714 0.28012 0.97167 0.0
C308 C 0.82938 0.31221 0.81522 0.0
H309 H 0.79283 0.37672 0.78786 0.0
C310 C 0.82296 0.29815 0.74939 0.0
C311 C 0.81731 0.34035 0.83052 0.0
C312 C 0.82374 0.35653 0.90011 0.0
C313 C 0.80661 0.31235 0.69677 0.0
C314 C 0.79661 0.34139 0.7102 0.0
C315 C 0.80084 0.35452 0.77776 0.0
C316 C 0.78491 0.3596 0.65269 0.0
C317 C 0.80128 0.2967 0.62611 0.0
C318 C 0.80367 0.36823 0.60026 0.0
C319 C 0.79327 0.38604 0.5465 0.0
C320 C 0.76381 0.3954 0.54389 0.0
C321 C 0.74505 0.38673 0.59666 0.0
C322 C 0.7556 0.36916 0.65097 0.0
H323 H 0.80276 0.27237 0.63008 0.0
H324 H 0.7793 0.3023 0.60286 0.0
H325 H 0.81825 0.30379 0.58982 0.0
H326 H 0.8265 0.36136 0.6013 0.0
H327 H 0.80828 0.39228 0.50674 0.0
H328 H 0.75765 0.36282 0.24511 0.0
H329 H 0.75112 0.3188 0.16653 0.0
H330 H 0.70349 0.37106 0.01566 0.0
H331 H 0.7106 0.41454 0.09152 0.0
H332 H 0.704 0.29103 0.12598 0.0
H333 H 0.75162 0.32468 0.88368 0.0
H334 H 0.75916 0.34513 0.96566 0.0
H335 H 0.72818 0.35457 0.9085 0.0
C336 C 0.74619 0.36488 0.19463 0.0
C337 C 0.73469 0.39222 0.1746 0.0
C338 C 0.74262 0.33976 0.14965 0.0
C339 C 0.72762 0.3417 0.08398 0.0
C340 C 0.71628 0.36906 0.0644 0.0
H341 H 0.58244 0.27562 0.92335 0.0
H342 H 0.62732 0.28373 0.9932 0.0
C343 C 0.71999 0.39397 0.10865 0.0
C344 C 0.71978 0.3151 0.03916 0.0
H345 H 0.70151 0.29917 0.86687 0.0
C346 C 0.7044 0.29217 0.06923 0.0
C347 C 0.72154 0.31512 0.96506 0.0
C348 C 0.74142 0.33608 0.92929 0.0
C349 C 0.68673 0.27259 0.02718 0.0
C350 C 0.68346 0.27702 0.95408 0.0
C351 C 0.70281 0.29648 0.92325 0.0
C352 C 0.65641 0.26738 0.913 0.0
C353 C 0.67033 0.24865 0.06232 0.0
C354 C 0.65743 0.25611 0.84328 0.0
C355 C 0.63139 0.25207 0.80192 0.0
C356 C 0.60396 0.25935 0.82967 0.0
C357 C 0.60308 0.26969 0.90004 0.0
C358 C 0.6289 0.27391 0.94077 0.0
H359 H 0.68516 0.23817 0.10162 0.0
H360 H 0.65175 0.25845 0.09123 0.0
H361 H 0.6617 0.23137 0.02405 0.0
H362 H 0.67839 0.25125 0.82025 0.0
H363 H 0.6328 0.24399 0.74791 0.0
H364 H 0.70333 0.13862 0.95845 0.0
H365 H 0.67676 0.17672 0.0257 0.0
H366 H 0.7131 0.143 0.2191 0.0
H367 H 0.73945 0.1053 0.15288 0.0
H368 H 0.63457 0.16189 0.11877 0.0
H369 H 0.71945 0.23139 0.25827 0.0
H370 H 0.72722 0.20833 0.18183 0.0
H371 H 0.72744 0.19303 0.26782 0.0
C372 C 0.70631 0.14 0.01519 0.0
C373 C 0.7233 0.1189 0.0505 0.0
C374 C 0.69108 0.16169 0.05351 0.0
C375 C 0.69319 0.16291 0.12743 0.0
C376 C 0.71158 0.14294 0.16218 0.0
H377 H 0.60821 0.20541 0.49979 0.0
H378 H 0.63971 0.19139 0.40302 0.0
C379 C 0.72646 0.12119 0.1242 0.0
C380 C 0.67327 0.18179 0.16941 0.0
H381 H 0.67289 0.22715 0.3165 0.0
C382 C 0.64282 0.17679 0.16094 0.0
C383 C 0.6841 0.20122 0.22429 0.0
C384 C 0.71634 0.20904 0.23311 0.0
C385 C 0.62314 0.18872 0.20941 0.0
C386 C 0.63424 0.20654 0.2671 0.0
C387 C 0.66446 0.21317 0.27276 0.0
C388 C 0.61536 0.2162 0.32542 0.0
C389 C 0.59094 0.18054 0.20111 0.0
C390 C 0.59133 0.23501 0.31404 0.0
C391 C 0.5731 0.2429 0.36925 0.0
C392 C 0.57874 0.23231 0.43698 0.0
C393 C 0.60315 0.21387 0.44832 0.0
C394 C 0.62126 0.20593 0.3931 0.0
H395 H 0.5869 0.1623 0.16127 0.0
H396 H 0.58239 0.17378 0.25196 0.0
H397 H 0.5782 0.2 0.18401 0.0
H398 H 0.58666 0.24357 0.26249 0.0
H399 H 0.55465 0.25737 0.35884 0.0
H400 H 0.34592 0.50555 0.35728 0.0
H401 H 0.39058 0.47501 0.35637 0.0
H402 H 0.39048 0.47212 0.58245 0.0
H403 H 0.3464 0.50245 0.58388 0.0
H404 H 0.44807 0.47843 0.52525 0.0
H405 H 0.3816 0.38604 0.39798 0.0
H406 H 0.38264 0.42074 0.35535 0.0
H407 H 0.36428 0.41817 0.43663 0.0
C408 C 0.35585 0.49891 0.40679 0.0
C409 C 0.34244 0.50606 0.4706 0.0
C410 C 0.38123 0.48136 0.40614 0.0
C411 C 0.39354 0.47099 0.46929 0.0
C412 C 0.38129 0.47983 0.53312 0.0
H413 H 0.48247 0.35218 0.70538 0.0
H414 H 0.46162 0.39453 0.64704 0.0
C415 C 0.35599 0.49708 0.53379 0.0
C416 C 0.41729 0.44868 0.47044 0.0
H417 H 0.42691 0.37423 0.45155 0.0
C418 C 0.44383 0.45576 0.50745 0.0
C419 C 0.41181 0.41915 0.44677 0.0
C420 C 0.38355 0.41031 0.40714 0.0
C421 C 0.464 0.43375 0.52599 0.0
C422 C 0.45718 0.40391 0.50804 0.0
C423 C 0.43198 0.39713 0.46555 0.0
C424 C 0.47289 0.3794 0.54236 0.0
C425 C 0.49177 0.44247 0.56762 0.0
C426 C 0.48586 0.3565 0.50278 0.0
C427 C 0.49788 0.33202 0.53622 0.0
C428 C 0.49655 0.32986 0.60959 0.0
C429 C 0.48384 0.35306 0.64883 0.0
C430 C 0.47216 0.37749 0.6156 0.0
H431 H 0.49885 0.46514 0.55571 0.0
H432 H 0.48751 0.44226 0.62459 0.0
H433 H 0.51001 0.42694 0.55651 0.0
H434 H 0.48628 0.35738 0.44606 0.0
H435 H 0.50744 0.31448 0.5045 0.0
H436 H 0.66659 0.02017 0.77786 0.0
H437 H 0.62645 0.98702 0.73443 0.0
H438 H 0.65919 0.91989 0.87138 0.0
H439 H 0.69806 0.95313 0.91693 0.0
H440 H 0.62474 0.93661 0.66664 0.0
H441 H 0.57554 0.91885 0.9213 0.0
H442 H 0.60318 0.94681 0.91108 0.0
H443 H 0.61371 0.90924 0.92694 0.0
C444 C 0.66506 0.99836 0.7987 0.0
C445 C 0.68521 0.98937 0.8514 0.0
C446 C 0.6421 0.97947 0.77408 0.0
C447 C 0.63915 0.95123 0.80129 0.0
C448 C 0.6601 0.94194 0.8517 0.0
H449 H 0.56557 0.79641 0.59711 0.0
H450 H 0.59427 0.83896 0.64185 0.0
C451 C 0.68257 0.96091 0.87719 0.0
C452 C 0.61518 0.93073 0.77519 0.0
H453 H 0.5658 0.88054 0.83074 0.0
C454 C 0.61152 0.92473 0.70254 0.0
C455 C 0.59713 0.91575 0.82153 0.0
C456 C 0.59737 0.9233 0.89942 0.0
C457 C 0.59174 0.90295 0.67541 0.0
C458 C 0.57607 0.88578 0.72237 0.0
C459 C 0.5783 0.89309 0.79466 0.0
C460 C 0.55855 0.85932 0.69788 0.0
C461 C 0.58792 0.89868 0.5966 0.0
C462 C 0.52937 0.85542 0.71816 0.0
C463 C 0.51311 0.83044 0.69433 0.0
C464 C 0.5257 0.80915 0.64924 0.0
C465 C 0.55512 0.81269 0.63088 0.0
C466 C 0.57147 0.83723 0.65578 0.0
H467 H 0.59187 0.91965 0.57003 0.0
H468 H 0.60431 0.88246 0.57758 0.0
H469 H 0.56549 0.89053 0.58068 0.0
H470 H 0.51901 0.87195 0.75141 0.0
H471 H 0.49046 0.82826 0.70925 0.0
H472 H 0.00172 0.15912 0.95046 0.0
H473 H 0.02916 0.1131 0.95211 0.0
H474 H 0.03479 0.11885 0.17881 0.0
H475 H 0.00672 0.1652 0.1775 0.0
H476 H 0.09003 0.11359 0.11067 0.0
H477 H 0.01141 0.02809 0.00892 0.0
H478 H 0.00931 0.06033 0.95725 0.0
H479 H 0.9996 0.06277 0.04814 0.0
C480 C 0.00815 0.15026 1.00079 0.0
C481 C 0.00215 0.16573 0.06385 0.0
C482 C 0.02368 0.12384 0.00168 0.0
C483 C 0.03375 0.1124 0.06559 0.0
C484 C 0.02691 0.12719 0.129 0.0
H485 H 0.18028 0.98471 0.01592 0.0
H486 H 0.14216 0.0112 0.08121 0.0
C487 C 0.01084 0.15354 0.12818 0.0
C488 C 0.05446 0.08726 0.06391 0.0
H489 H 0.06273 0.02 0.98113 0.0
C490 C 0.08403 0.09264 0.0846 0.0
C491 C 0.0465 0.05998 0.03016 0.0
C492 C 0.01487 0.05234 0.01049 0.0
C493 C 0.10625 0.0727 0.06572 0.0
C494 C 0.0985 0.04667 0.02598 0.0
C495 C 0.06865 0.04008 0.01118 0.0
C496 C 0.12084 0.02903 0.98864 0.0
C497 C 0.13802 0.08079 0.08287 0.0
C498 C 0.12111 0.02992 0.91521 0.0
C499 C 0.14266 0.01497 0.87807 0.0
C500 C 0.16447 0.99861 0.91345 0.0
C501 C 0.16387 0.9972 0.98714 0.0
C502 C 0.14218 0.01235 0.02451 0.0
H503 H 0.14039 0.10294 0.10943 0.0
H504 H 0.14799 0.06429 0.11804 0.0
H505 H 0.15065 0.08048 0.03406 0.0
H506 H 0.10488 0.04272 0.88654 0.0
H507 H 0.14227 0.01649 0.82141 0.0
H508 H 0.98972 0.70228 0.32888 0.0
H509 H 0.961 0.65871 0.35389 0.0
H510 H 0.95434 0.63492 0.13229 0.0
H511 H 0.98418 0.67805 0.10713 0.0
H512 H 0.90632 0.64818 0.31529 0.0
H513 H 0.97314 0.55617 0.20967 0.0
H514 H 0.98748 0.59323 0.222 0.0
H515 H 0.96518 0.58289 0.14468 0.0
C516 C 0.98247 0.68759 0.28544 0.0
C517 C 0.98913 0.69366 0.21593 0.0
C518 C 0.96609 0.66262 0.29989 0.0
C519 C 0.95577 0.64325 0.24519 0.0
C520 C 0.96271 0.64904 0.17567 0.0
H521 H 0.81077 0.52775 0.1877 0.0
H522 H 0.85356 0.55993 0.18167 0.0
C523 C 0.97955 0.67385 0.16123 0.0
C524 C 0.93555 0.6187 0.26061 0.0
H525 H 0.92225 0.54502 0.22986 0.0
C526 C 0.91016 0.62555 0.29773 0.0
C527 C 0.94053 0.58908 0.23797 0.0
C528 C 0.96823 0.57984 0.20203 0.0
C529 C 0.8891 0.60392 0.31022 0.0
C530 C 0.89344 0.57472 0.28473 0.0
C531 C 0.91912 0.56752 0.24942 0.0
C532 C 0.86981 0.55243 0.28756 0.0
C533 C 0.86165 0.61253 0.34805 0.0
C534 C 0.86515 0.53719 0.34901 0.0
C535 C 0.84063 0.51852 0.35269 0.0
C536 C 0.82034 0.51528 0.29521 0.0
C537 C 0.82577 0.52998 0.23321 0.0
C538 C 0.8503 0.54826 0.22939 0.0
H539 H 0.86159 0.63627 0.3647 0.0
H540 H 0.84192 0.60779 0.31321 0.0
H541 H 0.85978 0.59916 0.39532 0.0
H542 H 0.88002 0.54033 0.39451 0.0
H543 H 0.83701 0.50749 0.40109 0.0
H544 H 0.32023 0.00673 0.87406 0.0
H545 H 0.36163 0.03946 0.85139 0.0
H546 H 0.34123 0.03042 0.6285 0.0
H547 H 0.29931 0.99883 0.65092 0.0
H548 H 0.4113 0.03525 0.77672 0.0
H549 H 0.33652 0.11822 0.65953 0.0
H550 H 0.32301 0.087 0.7046 0.0
H551 H 0.33404 0.08272 0.615 0.0
C552 C 0.32476 0.01156 0.82026 0.0
C553 C 0.30625 1.00066 0.76438 0.0
C554 C 0.3484 0.03024 0.80733 0.0
C555 C 0.35403 0.03804 0.73833 0.0
C556 C 0.33674 0.02552 0.68228 0.0
H557 H 0.4828 0.16633 0.59379 0.0
H558 H 0.45117 0.12219 0.59581 0.0
C559 C 0.31287 0.00733 0.69519 0.0
C560 C 0.37707 0.06025 0.72526 0.0
H561 H 0.38751 0.12781 0.65627 0.0
C562 C 0.40611 0.0554 0.75009 0.0
C563 C 0.37028 0.08667 0.69067 0.0
C564 C 0.33924 0.09416 0.66652 0.0
C565 C 0.4284 0.07639 0.74186 0.0
C566 C 0.42147 0.10272 0.70775 0.0
C567 C 0.39272 0.1073 0.68142 0.0
C568 C 0.44271 0.12741 0.7066 0.0
C569 C 0.45913 0.07066 0.77068 0.0
C570 C 0.44821 0.14476 0.76806 0.0
C571 C 0.46569 0.17 0.76683 0.0
C572 C 0.47827 0.17833 0.70413 0.0
C573 C 0.47345 0.16042 0.64283 0.0
C574 C 0.45547 0.13526 0.64391 0.0
H575 H 0.46225 0.04723 0.78407 0.0
H576 H 0.47564 0.07663 0.73205 0.0
H577 H 0.46337 0.08468 0.81907 0.0
H578 H 0.43828 0.13918 0.8167 0.0
H579 H 0.46914 0.18317 0.81511 0.0
H580 H 0.84366 0.01318 0.05019 0.0
H581 H 0.8879 0.98314 0.04505 0.0
H582 H 0.87683 0.97458 0.81922 0.0
H583 H 0.83223 0.00514 0.82406 0.0
H584 H 0.88034 0.92056 0.88761 0.0
H585 H 0.97201 0.99353 0.97951 0.0
H586 H 0.9416 0.99776 0.03629 0.0
H587 H 0.93737 0.0077 0.94569 0.0
C588 C 0.85105 0.00559 0.9992 0.0
C589 C 0.83449 0.01143 0.93754 0.0
C590 C 0.87647 0.98857 0.99627 0.0
C591 C 0.88584 0.97686 0.9317 0.0
C592 C 0.87011 0.98368 0.8695 0.0
H593 H 0.00487 0.82258 0.96952 0.0
H594 H 0.97976 0.86254 0.90759 0.0
C595 C 0.84475 1.00119 0.87231 0.0
C596 C 0.90949 0.95444 0.93192 0.0
H597 H 0.97695 0.94172 0.00932 0.0
C598 C 0.90191 0.92521 0.91195 0.0
C599 C 0.93761 0.9606 0.96338 0.0
C600 C 0.9477 0.99171 0.98175 0.0
C601 C 0.92053 0.90169 0.92929 0.0
C602 C 0.94746 0.90773 0.96684 0.0
C603 C 0.95617 0.93713 0.98102 0.0
C604 C 0.96418 0.88419 0.00223 0.0
C605 C 0.91023 0.87046 0.91284 0.0
C606 C 0.96405 0.88345 0.0757 0.0
C607 C 0.97819 0.86083 0.11097 0.0
C608 C 0.99295 0.8384 0.07358 0.0
C609 C 0.99359 0.83944 0.99983 0.0
C610 C 0.97924 0.86219 0.96437 0.0
H611 H 0.88774 0.86953 0.88779 0.0
H612 H 0.92561 0.85934 0.87662 0.0
H613 H 0.91025 0.85788 0.96176 0.0
H614 H 0.95249 0.9002 0.10585 0.0
H615 H 0.97733 0.86088 0.16774 0.0
H616 H 0.06398 0.29645 0.12847 0.0
H617 H 0.09575 0.33608 0.1771 0.0
H618 H 0.02064 0.37886 0.26786 0.0
H619 H 0.98884 0.33805 0.22191 0.0
H620 H 0.0955 0.39123 0.14632 0.0
H621 H 0.07748 0.38493 0.43204 0.0
H622 H 0.06446 0.35672 0.36912 0.0
H623 H 0.04441 0.39064 0.37993 0.0
C624 C 0.0543 0.31406 0.15983 0.0
C625 C 0.024 0.31416 0.17173 0.0
C626 C 0.07247 0.3368 0.18735 0.0
C627 C 0.06073 0.36051 0.22649 0.0
C628 C 0.03041 0.36054 0.23924 0.0
H629 H 0.17678 0.51724 0.29515 0.0
H630 H 0.13615 0.48498 0.25079 0.0
C631 C 0.01223 0.33728 0.21287 0.0
C632 C 0.08046 0.38542 0.25085 0.0
H633 H 0.10736 0.42393 0.39702 0.0
C634 C 0.09807 0.39841 0.20121 0.0
C635 C 0.08385 0.39481 0.32242 0.0
C636 C 0.06677 0.3809 0.3791 0.0
C637 C 0.11975 0.41952 0.22128 0.0
C638 C 0.12316 0.42892 0.29286 0.0
C639 C 0.10473 0.4168 0.34211 0.0
C640 C 0.14731 0.4492 0.3191 0.0
C641 C 0.13972 0.43028 0.16601 0.0
C642 C 0.16666 0.44027 0.37336 0.0
C643 C 0.18927 0.45886 0.39971 0.0
C644 C 0.19341 0.48675 0.37184 0.0
C645 C 0.17433 0.4957 0.31692 0.0
C646 C 0.15119 0.47722 0.29142 0.0
H647 H 0.1393 0.41525 0.11852 0.0
H648 H 0.13222 0.45229 0.14941 0.0
H649 H 0.16283 0.43234 0.18678 0.0
H650 H 0.16429 0.41876 0.39546 0.0
H651 H 0.20366 0.45128 0.44192 0.0
H652 H 0.50569 0.64583 0.45798 0.0
H653 H 0.53336 0.60016 0.46523 0.0
H654 H 0.54135 0.6122 0.69096 0.0
H655 H 0.51306 0.65833 0.68388 0.0
H656 H 0.59523 0.60624 0.62418 0.0
H657 H 0.52011 0.5165 0.52967 0.0
H658 H 0.51629 0.5477 0.4751 0.0
H659 H 0.50697 0.5512 0.56618 0.0
C660 C 0.51262 0.63837 0.50939 0.0
C661 C 0.50734 0.65562 0.57034 0.0
C662 C 0.52823 0.6121 0.51356 0.0
C663 C 0.5391 0.60252 0.57871 0.0
C664 C 0.5328 0.61901 0.64027 0.0
H665 H 0.69203 0.48379 0.52016 0.0
H666 H 0.65248 0.50573 0.58958 0.0
C667 C 0.51664 0.64526 0.63619 0.0
C668 C 0.56067 0.57807 0.57932 0.0
H669 H 0.57172 0.51106 0.49752 0.0
C670 C 0.59006 0.5849 0.59905 0.0
C671 C 0.55384 0.5502 0.54697 0.0
C672 C 0.5225 0.54086 0.52899 0.0
C673 C 0.6131 0.56607 0.5796 0.0
C674 C 0.60639 0.53971 0.54016 0.0
C675 C 0.57683 0.53144 0.52722 0.0
C676 C 0.62921 0.52395 0.50005 0.0
C677 C 0.64453 0.57581 0.59518 0.0
C678 C 0.62884 0.52649 0.42694 0.0
C679 C 0.65124 0.51422 0.3875 0.0
C680 C 0.67453 0.49893 0.42022 0.0
C681 C 0.67445 0.49554 0.49344 0.0
C682 C 0.65194 0.50807 0.53316 0.0
H683 H 0.64596 0.59761 0.62378 0.0
H684 H 0.65605 0.55931 0.62771 0.0
H685 H 0.65633 0.5772 0.5454 0.0
H686 H 0.61154 0.53873 0.40042 0.0
H687 H 0.65042 0.51711 0.33126 0.0
loop_
_geom_bond_atom_site_label_1
_geom_bond_atom_site_label_2
_geom_bond_distance
_geom_bond_site_symmetry_2
_ccdc_geom_bond_type
Zn0 O3 2.031 . S
Zn0 O5 2.049 . S
Zn0 O10 2.067 . S
Zn1 O2 1.962 . S
Zn1 O4 1.986 . S
Zn1 O6 1.996 . S
Zn1 O9 1.943 . S
O2 Zn1 1.962 . S
O2 C7 1.254 . S
O3 Zn0 2.031 . S
O3 C7 1.269 . S
O4 Zn1 1.986 . S
O4 C11 1.262 . S
O5 Zn0 2.049 . S
O5 C13 1.260 . S
O6 Zn1 1.996 . S
O6 C13 1.257 . S
C7 O2 1.254 . S
C7 O3 1.269 . S
C8 O9 1.249 . S
C8 O10 1.270 . S
O9 Zn1 1.943 . S
O9 C8 1.249 . S
O10 Zn0 2.067 . S
O10 C8 1.270 . S
C11 O4 1.262 . S
C11 O12 1.232 . S
O12 C11 1.232 . S
C13 O5 1.260 . S
C13 O6 1.257 . S
Zn14 O17 2.031 . S
Zn14 O19 2.049 . S
Zn14 O24 2.067 . S
Zn15 O16 1.962 . S
Zn15 O18 1.986 . S
Zn15 O20 1.996 . S
Zn15 O23 1.943 . S
O16 Zn15 1.962 . S
O16 C21 1.254 . S
O17 Zn14 2.031 . S
O17 C21 1.269 . S
O18 Zn15 1.986 . S
O18 C25 1.262 . S
O19 Zn14 2.049 . S
O19 C27 1.260 . S
O20 Zn15 1.996 . S
O20 C27 1.257 . S
C21 O16 1.254 . S
C21 O17 1.269 . S
C22 O23 1.249 . S
C22 O24 1.270 . S
O23 Zn15 1.943 . S
O23 C22 1.249 . S
O24 Zn14 2.067 . S
O24 C22 1.270 . S
C25 O18 1.262 . S
C25 O26 1.232 . S
O26 C25 1.232 . S
C27 O19 1.260 . S
C27 O20 1.257 . S
Zn28 O31 2.031 . S
Zn28 O33 2.049 1_565 S
Zn28 O38 2.067 1_565 S
Zn29 O30 1.962 . S
Zn29 O32 1.986 . S
Zn29 O34 1.996 . S
Zn29 O37 1.943 . S
O30 Zn29 1.962 . S
O30 C35 1.254 . S
O31 Zn28 2.031 . S
O31 C35 1.269 . S
O32 Zn29 1.986 . S
O32 C39 1.262 . S
O33 Zn28 2.049 1_545 S
O33 C41 1.260 . S
O34 Zn29 1.996 . S
O34 C41 1.257 1_565 S
C35 O30 1.254 . S
C35 O31 1.269 . S
C36 O37 1.249 . S
C36 O38 1.270 1_565 S
O37 Zn29 1.943 . S
O37 C36 1.249 . S
O38 Zn28 2.067 1_545 S
O38 C36 1.270 1_545 S
C39 O32 1.262 . S
C39 O40 1.232 . S
O40 C39 1.232 . S
C41 O33 1.260 . S
C41 O34 1.257 1_545 S
Zn42 O45 2.031 . S
Zn42 O47 2.049 1_455 S
Zn42 O52 2.067 1_455 S
Zn43 O44 1.962 . S
Zn43 O46 1.986 . S
Zn43 O48 1.996 . S
Zn43 O51 1.943 . S
O44 Zn43 1.962 . S
O44 C49 1.254 . S
O45 Zn42 2.031 . S
O45 C49 1.269 . S
O46 Zn43 1.986 . S
O46 C53 1.262 . S
O47 Zn42 2.049 1_655 S
O47 C55 1.260 . S
O48 Zn43 1.996 . S
O48 C55 1.257 1_455 S
C49 O44 1.254 . S
C49 O45 1.269 . S
C50 O51 1.249 . S
C50 O52 1.270 1_455 S
O51 Zn43 1.943 . S
O51 C50 1.249 . S
O52 Zn42 2.067 1_655 S
O52 C50 1.270 1_655 S
C53 O46 1.262 . S
C53 O54 1.232 . S
O54 C53 1.232 . S
C55 O47 1.260 . S
C55 O48 1.257 1_655 S
Zn56 O59 2.031 . S
Zn56 O61 2.049 1_545 S
Zn56 O66 2.067 1_545 S
Zn57 O58 1.962 . S
Zn57 O60 1.986 . S
Zn57 O62 1.996 . S
Zn57 O65 1.943 . S
O58 Zn57 1.962 . S
O58 C63 1.254 . S
O59 Zn56 2.031 . S
O59 C63 1.269 . S
O60 Zn57 1.986 . S
O60 C67 1.262 . S
O61 Zn56 2.049 1_565 S
O61 C69 1.260 . S
O62 Zn57 1.996 . S
O62 C69 1.257 1_545 S
C63 O58 1.254 . S
C63 O59 1.269 . S
C64 O65 1.249 . S
C64 O66 1.270 1_545 S
O65 Zn57 1.943 . S
O65 C64 1.249 . S
O66 Zn56 2.067 1_565 S
O66 C64 1.270 1_565 S
C67 O60 1.262 . S
C67 O68 1.232 . S
O68 C67 1.232 . S
C69 O61 1.260 . S
C69 O62 1.257 1_565 S
Zn70 O73 2.031 . S
Zn70 O75 2.049 1_655 S
Zn70 O80 2.067 1_655 S
Zn71 O72 1.962 . S
Zn71 O74 1.986 . S
Zn71 O76 1.996 . S
Zn71 O79 1.943 . S
O72 Zn71 1.962 . S
O72 C77 1.254 . S
O73 Zn70 2.031 . S
O73 C77 1.269 . S
O74 Zn71 1.986 . S
O74 C81 1.262 . S
O75 Zn70 2.049 1_455 S
O75 C83 1.260 . S
O76 Zn71 1.996 . S
O76 C83 1.257 1_655 S
C77 O72 1.254 . S
C77 O73 1.269 . S
C78 O79 1.249 . S
C78 O80 1.270 1_655 S
O79 Zn71 1.943 . S
O79 C78 1.249 . S
O80 Zn70 2.067 1_455 S
O80 C78 1.270 1_455 S
C81 O74 1.262 . S
C81 O82 1.232 . S
O82 C81 1.232 . S
C83 O75 1.260 . S
C83 O76 1.257 1_455 S
Zn84 O87 2.031 . S
Zn84 O89 2.049 . S
Zn84 O94 2.067 . S
Zn85 O86 1.962 . S
Zn85 O88 1.986 . S
Zn85 O90 1.996 . S
Zn85 O93 1.943 . S
O86 Zn85 1.962 . S
O86 C91 1.254 . S
O87 Zn84 2.031 . S
O87 C91 1.269 . S
O88 Zn85 1.986 . S
O88 C95 1.262 . S
O89 Zn84 2.049 . S
O89 C97 1.260 . S
O90 Zn85 1.996 . S
O90 C97 1.257 . S
C91 O86 1.254 . S
C91 O87 1.269 . S
C92 O93 1.249 . S
C92 O94 1.270 . S
O93 Zn85 1.943 . S
O93 C92 1.249 . S
O94 Zn84 2.067 . S
O94 C92 1.270 . S
C95 O88 1.262 . S
C95 O96 1.232 . S
O96 C95 1.232 . S
C97 O89 1.260 . S
C97 O90 1.257 . S
Zn98 O101 2.031 . S
Zn98 O103 2.049 . S
Zn98 O108 2.067 . S
Zn99 O100 1.962 . S
Zn99 O102 1.986 . S
Zn99 O104 1.996 . S
Zn99 O107 1.943 . S
O100 Zn99 1.962 . S
O100 C105 1.254 . S
O101 Zn98 2.031 . S
O101 C105 1.269 . S
O102 Zn99 1.986 . S
O102 C109 1.262 . S
O103 Zn98 2.049 . S
O103 C111 1.260 . S
O104 Zn99 1.996 . S
O104 C111 1.257 . S
C105 O100 1.254 . S
C105 O101 1.269 . S
C106 O107 1.249 . S
C106 O108 1.270 . S
O107 Zn99 1.943 . S
O107 C106 1.249 . S
O108 Zn98 2.067 . S
O108 C106 1.270 . S
C109 O102 1.262 . S
C109 O110 1.232 . S
O110 C109 1.232 . S
C111 O103 1.260 . S
C111 O104 1.257 . S
H112 C120 0.929 . S
H113 C122 0.930 . S
H114 C124 0.930 . S
H115 C127 0.929 . S
H116 C130 0.930 . S
H117 C132 0.960 . S
H118 C132 0.960 . S
H119 C132 0.960 . S
C120 H112 0.929 . S
C120 C121 1.377 . S
C120 C122 1.384 . S
C121 C120 1.377 . S
C121 C127 1.390 . S
C122 H113 0.930 . S
C122 C120 1.384 . S
C122 C123 1.372 . S
C123 C122 1.372 . S
C123 C124 1.400 . S
C123 C128 1.490 . S
C124 H114 0.930 . S
C124 C123 1.400 . S
C124 C127 1.386 . S
H125 C141 0.930 . S
H126 C142 0.931 . S
C127 H115 0.929 . S
C127 C121 1.390 . S
C127 C124 1.386 . S
C128 C123 1.490 . S
C128 C130 1.395 . S
C128 C131 1.403 . S
H129 C135 0.930 . S
C130 H116 0.930 . S
C130 C128 1.395 . S
C130 C133 1.403 1_556 S
C131 C128 1.403 . S
C131 C132 1.524 . S
C131 C135 1.400 1_556 S
C132 H117 0.960 . S
C132 H118 0.960 . S
C132 H119 0.960 . S
C132 C131 1.524 . S
C133 C130 1.403 1_554 S
C133 C134 1.392 . S
C133 C137 1.495 . S
C134 C133 1.392 . S
C134 C135 1.385 . S
C134 C136 1.478 . S
C135 H129 0.930 . S
C135 C131 1.400 1_554 S
C135 C134 1.385 . S
C136 C134 1.478 . S
C136 C138 1.381 . S
C136 C142 1.383 . S
C137 C133 1.495 . S
C137 H143 0.959 . S
C137 H144 0.961 . S
C137 H145 0.960 . S
C138 C136 1.381 . S
C138 C139 1.394 . S
C138 H146 0.930 . S
C139 C138 1.394 . S
C139 C140 1.383 . S
C139 H147 0.929 . S
C140 C139 1.383 . S
C140 C141 1.377 . S
C141 H125 0.930 . S
C141 C140 1.377 . S
C141 C142 1.379 . S
C142 H126 0.931 . S
C142 C136 1.383 . S
C142 C141 1.379 . S
H143 C137 0.959 . S
H144 C137 0.961 . S
H145 C137 0.960 . S
H146 C138 0.930 . S
H147 C139 0.929 . S
H148 C156 0.929 . S
H149 C158 0.930 . S
H150 C160 0.930 . S
H151 C163 0.929 . S
H152 C166 0.930 . S
H153 C168 0.960 . S
H154 C168 0.960 . S
H155 C168 0.960 . S
C156 H148 0.929 . S
C156 C157 1.377 . S
C156 C158 1.384 . S
C157 C156 1.377 . S
C157 C163 1.390 . S
C158 H149 0.930 . S
C158 C156 1.384 . S
C158 C159 1.372 . S
C159 C158 1.372 . S
C159 C160 1.400 . S
C159 C164 1.490 . S
C160 H150 0.930 . S
C160 C159 1.400 . S
C160 C163 1.386 . S
H161 C177 0.930 . S
H162 C178 0.931 . S
C163 H151 0.929 . S
C163 C157 1.390 . S
C163 C160 1.386 . S
C164 C159 1.490 . S
C164 C166 1.395 . S
C164 C167 1.403 . S
H165 C171 0.930 . S
C166 H152 0.930 . S
C166 C164 1.395 . S
C166 C169 1.403 . S
C167 C164 1.403 . S
C167 C168 1.524 . S
C167 C171 1.400 . S
C168 H153 0.960 . S
C168 H154 0.960 . S
C168 H155 0.960 . S
C168 C167 1.524 . S
C169 C166 1.403 . S
C169 C170 1.392 . S
C169 C173 1.495 . S
C170 C169 1.392 . S
C170 C171 1.385 . S
C170 C172 1.478 . S
C171 H165 0.930 . S
C171 C167 1.400 . S
C171 C170 1.385 . S
C172 C170 1.478 . S
C172 C174 1.381 . S
C172 C178 1.383 . S
C173 C169 1.495 . S
C173 H179 0.959 . S
C173 H180 0.961 . S
C173 H181 0.960 . S
C174 C172 1.381 . S
C174 C175 1.394 . S
C174 H182 0.930 . S
C175 C174 1.394 . S
C175 C176 1.383 . S
C175 H183 0.929 1_554 S
C176 C175 1.383 . S
C176 C177 1.377 . S
C177 H161 0.930 . S
C177 C176 1.377 . S
C177 C178 1.379 . S
C178 H162 0.931 . S
C178 C172 1.383 . S
C178 C177 1.379 . S
H179 C173 0.959 . S
H180 C173 0.961 . S
H181 C173 0.960 . S
H182 C174 0.930 . S
H183 C175 0.929 1_556 S
H184 C192 0.929 . S
H185 C194 0.930 . S
H186 C196 0.930 . S
H187 C199 0.929 . S
H188 C202 0.930 . S
H189 C204 0.960 . S
H190 C204 0.960 . S
H191 C204 0.960 . S
C192 H184 0.929 . S
C192 C193 1.377 . S
C192 C194 1.384 . S
C193 C192 1.377 . S
C193 C199 1.390 . S
C194 H185 0.930 . S
C194 C192 1.384 . S
C194 C195 1.372 . S
C195 C194 1.372 . S
C195 C196 1.400 . S
C195 C200 1.490 . S
C196 H186 0.930 . S
C196 C195 1.400 . S
C196 C199 1.386 . S
H197 C213 0.930 . S
H198 C214 0.931 . S
C199 H187 0.929 . S
C199 C193 1.390 . S
C199 C196 1.386 . S
C200 C195 1.490 . S
C200 C202 1.395 . S
C200 C203 1.403 . S
H201 C207 0.930 . S
C202 H188 0.930 . S
C202 C200 1.395 . S
C202 C205 1.403 . S
C203 C200 1.403 . S
C203 C204 1.524 . S
C203 C207 1.400 . S
C204 H189 0.960 . S
C204 H190 0.960 . S
C204 H191 0.960 . S
C204 C203 1.524 . S
C205 C202 1.403 . S
C205 C206 1.392 . S
C205 C209 1.495 . S
C206 C205 1.392 . S
C206 C207 1.385 . S
C206 C208 1.478 . S
C207 H201 0.930 . S
C207 C203 1.400 . S
C207 C206 1.385 . S
C208 C206 1.478 . S
C208 C210 1.381 . S
C208 C214 1.383 . S
C209 C205 1.495 . S
C209 H215 0.959 . S
C209 H216 0.961 . S
C209 H217 0.960 . S
C210 C208 1.381 . S
C210 C211 1.394 . S
C210 H218 0.930 . S
C211 C210 1.394 . S
C211 C212 1.383 . S
C211 H219 0.929 . S
C212 C211 1.383 . S
C212 C213 1.377 . S
C213 H197 0.930 . S
C213 C212 1.377 . S
C213 C214 1.379 . S
C214 H198 0.931 . S
C214 C208 1.383 . S
C214 C213 1.379 . S
H215 C209 0.959 . S
H216 C209 0.961 . S
H217 C209 0.960 . S
H218 C210 0.930 . S
H219 C211 0.929 . S
H220 C228 0.929 . S
H221 C230 0.930 . S
H222 C232 0.930 . S
H223 C235 0.929 . S
H224 C238 0.930 . S
H225 C240 0.960 . S
H226 C240 0.960 . S
H227 C240 0.960 . S
C228 H220 0.929 . S
C228 C229 1.377 . S
C228 C230 1.384 . S
C229 C228 1.377 . S
C229 C235 1.390 . S
C230 H221 0.930 . S
C230 C228 1.384 . S
C230 C231 1.372 . S
C231 C230 1.372 . S
C231 C232 1.400 . S
C231 C236 1.490 . S
C232 H222 0.930 . S
C232 C231 1.400 . S
C232 C235 1.386 . S
H233 C249 0.930 . S
H234 C250 0.931 . S
C235 H223 0.929 . S
C235 C229 1.390 . S
C235 C232 1.386 . S
C236 C231 1.490 . S
C236 C238 1.395 . S
C236 C239 1.403 . S
H237 C243 0.930 . S
C238 H224 0.930 . S
C238 C236 1.395 . S
C238 C241 1.403 . S
C239 C236 1.403 . S
C239 C240 1.524 . S
C239 C243 1.400 . S
C240 H225 0.960 . S
C240 H226 0.960 . S
C240 H227 0.960 . S
C240 C239 1.524 . S
C241 C238 1.403 . S
C241 C242 1.392 . S
C241 C245 1.495 . S
C242 C241 1.392 . S
C242 C243 1.385 . S
C242 C244 1.478 . S
C243 H237 0.930 . S
C243 C239 1.400 . S
C243 C242 1.385 . S
C244 C242 1.478 . S
C244 C246 1.381 . S
C244 C250 1.383 . S
C245 C241 1.495 . S
C245 H251 0.959 . S
C245 H252 0.961 . S
C245 H253 0.960 . S
C246 C244 1.381 . S
C246 C247 1.394 . S
C246 H254 0.930 . S
C247 C246 1.394 . S
C247 C248 1.383 . S
C247 H255 0.929 . S
C248 C247 1.383 . S
C248 C249 1.377 . S
C249 H233 0.930 . S
C249 C248 1.377 . S
C249 C250 1.379 . S
C250 H234 0.931 . S
C250 C244 1.383 . S
C250 C249 1.379 . S
H251 C245 0.959 . S
H252 C245 0.961 . S
H253 C245 0.960 . S
H254 C246 0.930 . S
H255 C247 0.929 . S
H256 C264 0.929 . S
H257 C266 0.930 . S
H258 C268 0.930 . S
H259 C271 0.929 . S
H260 C274 0.930 . S
H261 C276 0.960 . S
H262 C276 0.960 . S
H263 C276 0.960 . S
C264 H256 0.929 . S
C264 C265 1.377 . S
C264 C266 1.384 . S
C265 C264 1.377 . S
C265 C271 1.390 . S
C266 H257 0.930 . S
C266 C264 1.384 . S
C266 C267 1.372 . S
C267 C266 1.372 . S
C267 C268 1.400 . S
C267 C272 1.490 . S
C268 H258 0.930 . S
C268 C267 1.400 . S
C268 C271 1.386 . S
H269 C285 0.930 . S
H270 C286 0.931 . S
C271 H259 0.929 . S
C271 C265 1.390 . S
C271 C268 1.386 . S
C272 C267 1.490 . S
C272 C274 1.395 . S
C272 C275 1.403 . S
H273 C279 0.930 . S
C274 H260 0.930 . S
C274 C272 1.395 . S
C274 C277 1.403 . S
C275 C272 1.403 . S
C275 C276 1.524 . S
C275 C279 1.400 . S
C276 H261 0.960 . S
C276 H262 0.960 . S
C276 H263 0.960 . S
C276 C275 1.524 . S
C277 C274 1.403 . S
C277 C278 1.392 . S
C277 C281 1.495 . S
C278 C277 1.392 . S
C278 C279 1.385 . S
C278 C280 1.478 . S
C279 H273 0.930 . S
C279 C275 1.400 . S
C279 C278 1.385 . S
C280 C278 1.478 . S
C280 C282 1.381 . S
C280 C286 1.383 . S
C281 C277 1.495 . S
C281 H287 0.959 . S
C281 H288 0.961 . S
C281 H289 0.960 . S
C282 C280 1.381 . S
C282 C283 1.394 . S
C282 H290 0.930 . S
C283 C282 1.394 . S
C283 C284 1.383 . S
C283 H291 0.929 . S
C284 C283 1.383 . S
C284 C285 1.377 . S
C285 H269 0.930 . S
C285 C284 1.377 . S
C285 C286 1.379 . S
C286 H270 0.931 . S
C286 C280 1.383 . S
C286 C285 1.379 . S
H287 C281 0.959 . S
H288 C281 0.961 . S
H289 C281 0.960 . S
H290 C282 0.930 . S
H291 C283 0.929 . S
H292 C300 0.929 . S
H293 C302 0.930 . S
H294 C304 0.930 . S
H295 C307 0.929 . S
H296 C310 0.930 . S
H297 C312 0.960 . S
H298 C312 0.960 . S
H299 C312 0.960 . S
C300 H292 0.929 . S
C300 C301 1.377 . S
C300 C302 1.384 . S
C301 C300 1.377 . S
C301 C307 1.390 . S
C302 H293 0.930 . S
C302 C300 1.384 . S
C302 C303 1.372 . S
C303 C302 1.372 . S
C303 C304 1.400 . S
C303 C308 1.490 . S
C304 H294 0.930 . S
C304 C303 1.400 . S
C304 C307 1.386 . S
H305 C321 0.930 . S
H306 C322 0.931 . S
C307 H295 0.929 . S
C307 C301 1.390 . S
C307 C304 1.386 . S
C308 C303 1.490 . S
C308 C310 1.395 . S
C308 C311 1.403 . S
H309 C315 0.930 . S
C310 H296 0.930 . S
C310 C308 1.395 . S
C310 C313 1.403 . S
C311 C308 1.403 . S
C311 C312 1.524 . S
C311 C315 1.400 . S
C312 H297 0.960 . S
C312 H298 0.960 . S
C312 H299 0.960 . S
C312 C311 1.524 . S
C313 C310 1.403 . S
C313 C314 1.392 . S
C313 C317 1.495 . S
C314 C313 1.392 . S
C314 C315 1.385 . S
C314 C316 1.478 . S
C315 H309 0.930 . S
C315 C311 1.400 . S
C315 C314 1.385 . S
C316 C314 1.478 . S
C316 C318 1.381 . S
C316 C322 1.383 . S
C317 C313 1.495 . S
C317 H323 0.959 . S
C317 H324 0.961 . S
C317 H325 0.960 . S
C318 C316 1.381 . S
C318 C319 1.394 . S
C318 H326 0.930 . S
C319 C318 1.394 . S
C319 C320 1.383 . S
C319 H327 0.929 . S
C320 C319 1.383 . S
C320 C321 1.377 . S
C321 H305 0.930 . S
C321 C320 1.377 . S
C321 C322 1.379 . S
C322 H306 0.931 . S
C322 C316 1.383 . S
C322 C321 1.379 . S
H323 C317 0.959 . S
H324 C317 0.961 . S
H325 C317 0.960 . S
H326 C318 0.930 . S
H327 C319 0.929 . S
H328 C336 0.929 . S
H329 C338 0.930 . S
H330 C340 0.930 . S
H331 C343 0.929 . S
H332 C346 0.930 . S
H333 C348 0.960 . S
H334 C348 0.960 . S
H335 C348 0.960 1_554 S
C336 H328 0.929 . S
C336 C337 1.377 . S
C336 C338 1.384 . S
C337 C336 1.377 . S
C337 C343 1.390 . S
C338 H329 0.930 . S
C338 C336 1.384 . S
C338 C339 1.372 . S
C339 C338 1.372 . S
C339 C340 1.400 . S
C339 C344 1.490 . S
C340 H330 0.930 . S
C340 C339 1.400 . S
C340 C343 1.386 . S
H341 C357 0.930 . S
H342 C358 0.931 . S
C343 H331 0.929 . S
C343 C337 1.390 . S
C343 C340 1.386 . S
C344 C339 1.490 . S
C344 C346 1.395 . S
C344 C347 1.403 1_554 S
H345 C351 0.930 . S
C346 H332 0.930 . S
C346 C344 1.395 . S
C346 C349 1.403 . S
C347 C344 1.403 1_556 S
C347 C348 1.524 . S
C347 C351 1.400 . S
C348 H333 0.960 . S
C348 H334 0.960 . S
C348 H335 0.960 1_556 S
C348 C347 1.524 . S
C349 C346 1.403 . S
C349 C350 1.392 1_554 S
C349 C353 1.495 . S
C350 C349 1.392 1_556 S
C350 C351 1.385 . S
C350 C352 1.478 . S
C351 H345 0.930 . S
C351 C347 1.400 . S
C351 C350 1.385 . S
C352 C350 1.478 . S
C352 C354 1.381 . S
C352 C358 1.383 . S
C353 C349 1.495 . S
C353 H359 0.959 . S
C353 H360 0.961 . S
C353 H361 0.960 1_554 S
C354 C352 1.381 . S
C354 C355 1.394 . S
C354 H362 0.930 . S
C355 C354 1.394 . S
C355 C356 1.383 . S
C355 H363 0.929 . S
C356 C355 1.383 . S
C356 C357 1.377 . S
C357 H341 0.930 . S
C357 C356 1.377 . S
C357 C358 1.379 . S
C358 H342 0.931 . S
C358 C352 1.383 . S
C358 C357 1.379 . S
H359 C353 0.959 . S
H360 C353 0.961 . S
H361 C353 0.960 1_556 S
H362 C354 0.930 . S
H363 C355 0.929 . S
H364 C372 0.929 1_556 S
H365 C374 0.930 . S
H366 C376 0.930 . S
H367 C379 0.929 . S
H368 C382 0.930 . S
H369 C384 0.960 . S
H370 C384 0.960 . S
H371 C384 0.960 . S
C372 H364 0.929 1_554 S
C372 C373 1.377 . S
C372 C374 1.384 . S
C373 C372 1.377 . S
C373 C379 1.390 . S
C374 H365 0.930 . S
C374 C372 1.384 . S
C374 C375 1.372 . S
C375 C374 1.372 . S
C375 C376 1.400 . S
C375 C380 1.490 . S
C376 H366 0.930 . S
C376 C375 1.400 . S
C376 C379 1.386 . S
H377 C393 0.930 . S
H378 C394 0.931 . S
C379 H367 0.929 . S
C379 C373 1.390 . S
C379 C376 1.386 . S
C380 C375 1.490 . S
C380 C382 1.395 . S
C380 C383 1.403 . S
H381 C387 0.930 . S
C382 H368 0.930 . S
C382 C380 1.395 . S
C382 C385 1.403 . S
C383 C380 1.403 . S
C383 C384 1.524 . S
C383 C387 1.400 . S
C384 H369 0.960 . S
C384 H370 0.960 . S
C384 H371 0.960 . S
C384 C383 1.524 . S
C385 C382 1.403 . S
C385 C386 1.392 . S
C385 C389 1.495 . S
C386 C385 1.392 . S
C386 C387 1.385 . S
C386 C388 1.478 . S
C387 H381 0.930 . S
C387 C383 1.400 . S
C387 C386 1.385 . S
C388 C386 1.478 . S
C388 C390 1.381 . S
C388 C394 1.383 . S
C389 C385 1.495 . S
C389 H395 0.959 . S
C389 H396 0.961 . S
C389 H397 0.960 . S
C390 C388 1.381 . S
C390 C391 1.394 . S
C390 H398 0.930 . S
C391 C390 1.394 . S
C391 C392 1.383 . S
C391 H399 0.929 . S
C392 C391 1.383 . S
C392 C393 1.377 . S
C393 H377 0.930 . S
C393 C392 1.377 . S
C393 C394 1.379 . S
C394 H378 0.931 . S
C394 C388 1.383 . S
C394 C393 1.379 . S
H395 C389 0.959 . S
H396 C389 0.961 . S
H397 C389 0.960 . S
H398 C390 0.930 . S
H399 C391 0.929 . S
H400 C408 0.929 . S
H401 C410 0.930 . S
H402 C412 0.930 . S
H403 C415 0.929 . S
H404 C418 0.930 . S
H405 C420 0.960 . S
H406 C420 0.960 . S
H407 C420 0.960 . S
C408 H400 0.929 . S
C408 C409 1.377 . S
C408 C410 1.384 . S
C409 C408 1.377 . S
C409 C415 1.390 . S
C410 H401 0.930 . S
C410 C408 1.384 . S
C410 C411 1.372 . S
C411 C410 1.372 . S
C411 C412 1.400 . S
C411 C416 1.490 . S
C412 H402 0.930 . S
C412 C411 1.400 . S
C412 C415 1.386 . S
H413 C429 0.930 . S
H414 C430 0.931 . S
C415 H403 0.929 . S
C415 C409 1.390 . S
C415 C412 1.386 . S
C416 C411 1.490 . S
C416 C418 1.395 . S
C416 C419 1.403 . S
H417 C423 0.930 . S
C418 H404 0.930 . S
C418 C416 1.395 . S
C418 C421 1.403 . S
C419 C416 1.403 . S
C419 C420 1.524 . S
C419 C423 1.400 . S
C420 H405 0.960 . S
C420 H406 0.960 . S
C420 H407 0.960 . S
C420 C419 1.524 . S
C421 C418 1.403 . S
C421 C422 1.392 . S
C421 C425 1.495 . S
C422 C421 1.392 . S
C422 C423 1.385 . S
C422 C424 1.478 . S
C423 H417 0.930 . S
C423 C419 1.400 . S
C423 C422 1.385 . S
C424 C422 1.478 . S
C424 C426 1.381 . S
C424 C430 1.383 . S
C425 C421 1.495 . S
C425 H431 0.959 . S
C425 H432 0.961 . S
C425 H433 0.960 . S
C426 C424 1.381 . S
C426 C427 1.394 . S
C426 H434 0.930 . S
C427 C426 1.394 . S
C427 C428 1.383 . S
C427 H435 0.929 . S
C428 C427 1.383 . S
C428 C429 1.377 . S
C429 H413 0.930 . S
C429 C428 1.377 . S
C429 C430 1.379 . S
C430 H414 0.931 . S
C430 C424 1.383 . S
C430 C429 1.379 . S
H431 C425 0.959 . S
H432 C425 0.961 . S
H433 C425 0.960 . S
H434 C426 0.930 . S
H435 C427 0.929 . S
H436 C444 0.929 1_545 S
H437 C446 0.930 . S
H438 C448 0.930 . S
H439 C451 0.929 . S
H440 C454 0.930 . S
H441 C456 0.960 . S
H442 C456 0.960 . S
H443 C456 0.960 . S
C444 H436 0.929 1_565 S
C444 C445 1.377 . S
C444 C446 1.384 . S
C445 C444 1.377 . S
C445 C451 1.390 . S
C446 H437 0.930 . S
C446 C444 1.384 . S
C446 C447 1.372 . S
C447 C446 1.372 . S
C447 C448 1.400 . S
C447 C452 1.490 . S
C448 H438 0.930 . S
C448 C447 1.400 . S
C448 C451 1.386 . S
H449 C465 0.930 . S
H450 C466 0.931 . S
C451 H439 0.929 . S
C451 C445 1.390 . S
C451 C448 1.386 . S
C452 C447 1.490 . S
C452 C454 1.395 . S
C452 C455 1.403 . S
H453 C459 0.930 . S
C454 H440 0.930 . S
C454 C452 1.395 . S
C454 C457 1.403 . S
C455 C452 1.403 . S
C455 C456 1.524 . S
C455 C459 1.400 . S
C456 H441 0.960 . S
C456 H442 0.960 . S
C456 H443 0.960 . S
C456 C455 1.524 . S
C457 C454 1.403 . S
C457 C458 1.392 . S
C457 C461 1.495 . S
C458 C457 1.392 . S
C458 C459 1.385 . S
C458 C460 1.478 . S
C459 H453 0.930 . S
C459 C455 1.400 . S
C459 C458 1.385 . S
C460 C458 1.478 . S
C460 C462 1.381 . S
C460 C466 1.383 . S
C461 C457 1.495 . S
C461 H467 0.959 . S
C461 H468 0.961 . S
C461 H469 0.960 . S
C462 C460 1.381 . S
C462 C463 1.394 . S
C462 H470 0.930 . S
C463 C462 1.394 . S
C463 C464 1.383 . S
C463 H471 0.929 . S
C464 C463 1.383 . S
C464 C465 1.377 . S
C465 H449 0.930 . S
C465 C464 1.377 . S
C465 C466 1.379 . S
C466 H450 0.931 . S
C466 C460 1.383 . S
C466 C465 1.379 . S
H467 C461 0.959 . S
H468 C461 0.961 . S
H469 C461 0.960 . S
H470 C462 0.930 . S
H471 C463 0.929 . S
H472 C480 0.929 . S
H473 C482 0.930 . S
H474 C484 0.930 . S
H475 C487 0.929 . S
H476 C490 0.930 . S
H477 C492 0.960 . S
H478 C492 0.960 . S
H479 C492 0.960 . S
C480 H472 0.929 . S
C480 C481 1.377 1_556 S
C480 C482 1.384 . S
C481 C480 1.377 1_554 S
C481 C487 1.390 . S
C482 H473 0.930 . S
C482 C480 1.384 . S
C482 C483 1.372 1_556 S
C483 C482 1.372 1_554 S
C483 C484 1.400 . S
C483 C488 1.490 . S
C484 H474 0.930 . S
C484 C483 1.400 . S
C484 C487 1.386 . S
H485 C501 0.930 1_554 S
H486 C502 0.931 . S
C487 H475 0.929 . S
C487 C481 1.390 . S
C487 C484 1.386 . S
C488 C483 1.490 . S
C488 C490 1.395 1_554 S
C488 C491 1.403 . S
H489 C495 0.930 . S
C490 H476 0.930 . S
C490 C488 1.395 1_556 S
C490 C493 1.403 . S
C491 C488 1.403 . S
C491 C492 1.524 . S
C491 C495 1.400 . S
C492 H477 0.960 . S
C492 H478 0.960 . S
C492 H479 0.960 . S
C492 C491 1.524 . S
C493 C490 1.403 . S
C493 C494 1.392 . S
C493 C497 1.495 . S
C494 C493 1.392 . S
C494 C495 1.385 1_556 S
C494 C496 1.478 . S
C495 H489 0.930 . S
C495 C491 1.400 . S
C495 C494 1.385 1_554 S
C496 C494 1.478 . S
C496 C498 1.381 . S
C496 C502 1.383 1_556 S
C497 C493 1.495 . S
C497 H503 0.959 . S
C497 H504 0.961 . S
C497 H505 0.960 . S
C498 C496 1.381 . S
C498 C499 1.394 . S
C498 H506 0.930 . S
C499 C498 1.394 . S
C499 C500 1.383 . S
C499 H507 0.929 . S
C500 C499 1.383 . S
C500 C501 1.377 . S
C501 H485 0.930 1_556 S
C501 C500 1.377 . S
C501 C502 1.379 1_556 S
C502 H486 0.931 . S
C502 C496 1.383 1_554 S
C502 C501 1.379 1_554 S
H503 C497 0.959 . S
H504 C497 0.961 . S
H505 C497 0.960 . S
H506 C498 0.930 . S
H507 C499 0.929 . S
H508 C516 0.929 . S
H509 C518 0.930 . S
H510 C520 0.930 . S
H511 C523 0.929 . S
H512 C526 0.930 . S
H513 C528 0.960 . S
H514 C528 0.960 . S
H515 C528 0.960 . S
C516 H508 0.929 . S
C516 C517 1.377 . S
C516 C518 1.384 . S
C517 C516 1.377 . S
C517 C523 1.390 . S
C518 H509 0.930 . S
C518 C516 1.384 . S
C518 C519 1.372 . S
C519 C518 1.372 . S
C519 C520 1.400 . S
C519 C524 1.490 . S
C520 H510 0.930 . S
C520 C519 1.400 . S
C520 C523 1.386 . S
H521 C537 0.930 . S
H522 C538 0.931 . S
C523 H511 0.929 . S
C523 C517 1.390 . S
C523 C520 1.386 . S
C524 C519 1.490 . S
C524 C526 1.395 . S
C524 C527 1.403 . S
H525 C531 0.930 . S
C526 H512 0.930 . S
C526 C524 1.395 . S
C526 C529 1.403 . S
C527 C524 1.403 . S
C527 C528 1.524 . S
C527 C531 1.400 . S
C528 H513 0.960 . S
C528 H514 0.960 . S
C528 H515 0.960 . S
C528 C527 1.524 . S
C529 C526 1.403 . S
C529 C530 1.392 . S
C529 C533 1.495 . S
C530 C529 1.392 . S
C530 C531 1.385 . S
C530 C532 1.478 . S
C531 H525 0.930 . S
C531 C527 1.400 . S
C531 C530 1.385 . S
C532 C530 1.478 . S
C532 C534 1.381 . S
C532 C538 1.383 . S
C533 C529 1.495 . S
C533 H539 0.959 . S
C533 H540 0.961 . S
C533 H541 0.960 . S
C534 C532 1.381 . S
C534 C535 1.394 . S
C534 H542 0.930 . S
C535 C534 1.394 . S
C535 C536 1.383 . S
C535 H543 0.929 . S
C536 C535 1.383 . S
C536 C537 1.377 . S
C537 H521 0.930 . S
C537 C536 1.377 . S
C537 C538 1.379 . S
C538 H522 0.931 . S
C538 C532 1.383 . S
C538 C537 1.379 . S
H539 C533 0.959 . S
H540 C533 0.961 . S
H541 C533 0.960 . S
H542 C534 0.930 . S
H543 C535 0.929 . S
H544 C552 0.929 . S
H545 C554 0.930 . S
H546 C556 0.930 . S
H547 C559 0.929 1_565 S
H548 C562 0.930 . S
H549 C564 0.960 . S
H550 C564 0.960 . S
H551 C564 0.960 . S
C552 H544 0.929 . S
C552 C553 1.377 . S
C552 C554 1.384 . S
C553 C552 1.377 . S
C553 C559 1.390 . S
C554 H545 0.930 . S
C554 C552 1.384 . S
C554 C555 1.372 . S
C555 C554 1.372 . S
C555 C556 1.400 . S
C555 C560 1.490 . S
C556 H546 0.930 . S
C556 C555 1.400 . S
C556 C559 1.386 . S
H557 C573 0.930 . S
H558 C574 0.931 . S
C559 H547 0.929 1_545 S
C559 C553 1.390 . S
C559 C556 1.386 . S
C560 C555 1.490 . S
C560 C562 1.395 . S
C560 C563 1.403 . S
H561 C567 0.930 . S
C562 H548 0.930 . S
C562 C560 1.395 . S
C562 C565 1.403 . S
C563 C560 1.403 . S
C563 C564 1.524 . S
C563 C567 1.400 . S
C564 H549 0.960 . S
C564 H550 0.960 . S
C564 H551 0.960 . S
C564 C563 1.524 . S
C565 C562 1.403 . S
C565 C566 1.392 . S
C565 C569 1.495 . S
C566 C565 1.392 . S
C566 C567 1.385 . S
C566 C568 1.478 . S
C567 H561 0.930 . S
C567 C563 1.400 . S
C567 C566 1.385 . S
C568 C566 1.478 . S
C568 C570 1.381 . S
C568 C574 1.383 . S
C569 C565 1.495 . S
C569 H575 0.959 . S
C569 H576 0.961 . S
C569 H577 0.960 . S
C570 C568 1.381 . S
C570 C571 1.394 . S
C570 H578 0.930 . S
C571 C570 1.394 . S
C571 C572 1.383 . S
C571 H579 0.929 . S
C572 C571 1.383 . S
C572 C573 1.377 . S
C573 H557 0.930 . S
C573 C572 1.377 . S
C573 C574 1.379 . S
C574 H558 0.931 . S
C574 C568 1.383 . S
C574 C573 1.379 . S
H575 C569 0.959 . S
H576 C569 0.961 . S
H577 C569 0.960 . S
H578 C570 0.930 . S
H579 C571 0.929 . S
H580 C588 0.929 . S
H581 C590 0.930 . S
H582 C592 0.930 . S
H583 C595 0.929 . S
H584 C598 0.930 1_556 S
H585 C600 0.960 . S
H586 C600 0.960 1_554 S
H587 C600 0.960 . S
C588 H580 0.929 . S
C588 C589 1.377 1_554 S
C588 C590 1.384 . S
C589 C588 1.377 1_556 S
C589 C595 1.390 . S
C590 H581 0.930 . S
C590 C588 1.384 . S
C590 C591 1.372 1_554 S
C591 C590 1.372 1_556 S
C591 C592 1.400 . S
C591 C596 1.490 . S
C592 H582 0.930 . S
C592 C591 1.400 . S
C592 C595 1.386 . S
H593 C609 0.939 1_556 S
H594 C610 0.931 . S
C595 H583 0.929 . S
C595 C589 1.390 . S
C595 C592 1.386 . S
C596 C591 1.490 . S
C596 C598 1.395 1_556 S
C596 C599 1.403 . S
H597 C603 0.930 . S
C598 H584 0.930 1_554 S
C598 C596 1.395 1_554 S
C598 C601 1.403 . S
C599 C596 1.403 . S
C599 C600 1.524 . S
C599 C603 1.400 1_556 S
C600 H585 0.960 . S
C600 H586 0.960 1_556 S
C600 H587 0.960 . S
C600 C599 1.524 . S
C601 C598 1.403 . S
C601 C602 1.392 . S
C601 C605 1.495 . S
C602 C601 1.392 . S
C602 C603 1.385 . S
C602 C604 1.478 . S
C603 H597 0.930 . S
C603 C599 1.400 1_554 S
C603 C602 1.385 . S
C604 C602 1.478 . S
C604 C606 1.381 . S
C604 C610 1.383 1_554 S
C605 C601 1.495 . S
C605 H611 0.959 . S
C605 H612 0.961 1_554 S
C605 H613 0.960 . S
C606 C604 1.381 . S
C606 C607 1.394 . S
C606 H614 0.930 . S
C607 C606 1.394 . S
C607 C608 1.383 . S
C607 H615 0.929 . S
C608 C607 1.383 . S
C608 C609 1.377 . S
C609 H593 0.939 1_554 S
C609 C608 1.377 . S
C609 C610 1.379 1_554 S
C610 H594 0.931 . S
C610 C604 1.383 1_556 S
C610 C609 1.379 1_556 S
H611 C605 0.959 . S
H612 C605 0.961 1_556 S
H613 C605 0.960 . S
H614 C606 0.930 . S
H615 C607 0.929 . S
H616 C624 0.929 . S
H617 C626 0.930 . S
H618 C628 0.930 . S
H619 C631 0.929 1_655 S
H620 C634 0.930 . S
H621 C636 0.960 . S
H622 C636 0.960 . S
H623 C636 0.960 . S
C624 H616 0.929 . S
C624 C625 1.377 . S
C624 C626 1.384 . S
C625 C624 1.377 . S
C625 C631 1.390 . S
C626 H617 0.930 . S
C626 C624 1.384 . S
C626 C627 1.372 . S
C627 C626 1.372 . S
C627 C628 1.400 . S
C627 C632 1.490 . S
C628 H618 0.930 . S
C628 C627 1.400 . S
C628 C631 1.386 . S
H629 C645 0.930 . S
H630 C646 0.931 . S
C631 H619 0.929 1_455 S
C631 C625 1.390 . S
C631 C628 1.386 . S
C632 C627 1.490 . S
C632 C634 1.395 . S
C632 C635 1.403 . S
H633 C639 0.930 . S
C634 H620 0.930 . S
C634 C632 1.395 . S
C634 C637 1.403 . S
C635 C632 1.403 . S
C635 C636 1.524 . S
C635 C639 1.400 . S
C636 H621 0.960 . S
C636 H622 0.960 . S
C636 H623 0.960 . S
C636 C635 1.524 . S
C637 C634 1.403 . S
C637 C638 1.392 . S
C637 C641 1.495 . S
C638 C637 1.392 . S
C638 C639 1.385 . S
C638 C640 1.478 . S
C639 H633 0.930 . S
C639 C635 1.400 . S
C639 C638 1.385 . S
C640 C638 1.478 . S
C640 C642 1.381 . S
C640 C646 1.383 . S
C641 C637 1.495 . S
C641 H647 0.959 . S
C641 H648 0.961 . S
C641 H649 0.960 . S
C642 C640 1.381 . S
C642 C643 1.394 . S
C642 H650 0.930 . S
C643 C642 1.394 . S
C643 C644 1.383 . S
C643 H651 0.929 . S
C644 C643 1.383 . S
C644 C645 1.377 . S
C645 H629 0.930 . S
C645 C644 1.377 . S
C645 C646 1.379 . S
C646 H630 0.931 . S
C646 C640 1.383 . S
C646 C645 1.379 . S
H647 C641 0.959 . S
H648 C641 0.961 . S
H649 C641 0.960 . S
H650 C642 0.930 . S
H651 C643 0.929 . S
H652 C660 0.929 . S
H653 C662 0.930 . S
H654 C664 0.930 . S
H655 C667 0.929 . S
H656 C670 0.930 . S
H657 C672 0.960 . S
H658 C672 0.960 . S
H659 C672 0.960 . S
C660 H652 0.929 . S
C660 C661 1.377 . S
C660 C662 1.384 . S
C661 C660 1.377 . S
C661 C667 1.390 . S
C662 H653 0.930 . S
C662 C660 1.384 . S
C662 C663 1.372 . S
C663 C662 1.372 . S
C663 C664 1.400 . S
C663 C668 1.490 . S
C664 H654 0.930 . S
C664 C663 1.400 . S
C664 C667 1.386 . S
H665 C681 0.930 . S
H666 C682 0.931 . S
C667 H655 0.929 . S
C667 C661 1.390 . S
C667 C664 1.386 . S
C668 C663 1.490 . S
C668 C670 1.395 . S
C668 C671 1.403 . S
H669 C675 0.930 . S
C670 H656 0.930 . S
C670 C668 1.395 . S
C670 C673 1.403 . S
C671 C668 1.403 . S
C671 C672 1.524 . S
C671 C675 1.400 . S
C672 H657 0.960 . S
C672 H658 0.960 . S
C672 H659 0.960 . S
C672 C671 1.524 . S
C673 C670 1.403 . S
C673 C674 1.392 . S
C673 C677 1.495 . S
C674 C673 1.392 . S
C674 C675 1.385 . S
C674 C676 1.478 . S
C675 H669 0.930 . S
C675 C671 1.400 . S
C675 C674 1.385 . S
C676 C674 1.478 . S
C676 C678 1.381 . S
C676 C682 1.383 . S
C677 C673 1.495 . S
C677 H683 0.959 . S
C677 H684 0.961 . S
C677 H685 0.960 . S
C678 C676 1.381 . S
C678 C679 1.394 . S
C678 H686 0.930 . S
C679 C678 1.394 . S
C679 C680 1.383 . S
C679 H687 0.929 . S
C680 C679 1.383 . S
C680 C681 1.377 . S
C681 H665 0.930 . S
C681 C680 1.377 . S
C681 C682 1.379 . S
C682 H666 0.931 . S
C682 C676 1.383 . S
C682 C681 1.379 . S
H683 C677 0.959 . S
H684 C677 0.961 . S
H685 C677 0.960 . S
H686 C678 0.930 . S
H687 C679 0.929 . S
C121 C25 1.432 . S
C140 C11 1.427 . S
C157 C21 1.369 . S
C176 C39 1.382 1_554 S
C193 C49 1.341 . S
C212 C35 1.348 . S
C229 C53 1.387 1_556 S
C248 C7 1.369 . S
C265 C67 1.431 . S
C284 C81 1.432 . S
C301 C77 1.374 1_556 S
C320 C95 1.382 . S
C337 C91 1.337 . S
C356 C105 1.332 . S
C373 C63 1.376 1_554 S
C392 C109 1.388 . S
C409 C13 1.373 . S
C428 C106 1.421 . S
C445 C64 1.549 1_565 S
C464 C22 1.524 . S
C481 C83 1.371 . S
C500 C36 1.369 1_545 S
C517 C55 1.221 . S
C536 C97 1.198 . S
C553 C41 1.216 . S
C572 C111 1.209 . S
C589 C69 1.369 . S
C608 C50 1.374 1_655 S
C625 C78 1.549 1_455 S
C644 C8 1.536 . S
C661 C27 1.369 . S
C680 C92 1.373 . S
