# Generated by pormake.
# Topology ure, (4)-cn, num edge types: 1
# Building blocks:
#     Node 0, Type 0, BuildingBlock: AZAVOO_clean_sbu_0, # of connection points: 4
#     Node 1, Type 0, BuildingBlock: AZAVOO_clean_sbu_0, # of connection points: 4
#     Node 2, Type 0, BuildingBlock: AZAVOO_clean_sbu_0, # of connection points: 4
#     Node 3, Type 0, BuildingBlock: AZAVOO_clean_sbu_0, # of connection points: 4
#     Node 4, Type 0, BuildingBlock: AZAVOO_clean_sbu_0, # of connection points: 4
#     Node 5, Type 0, BuildingBlock: AZAVOO_clean_sbu_0, # of connection points: 4
#     Node 6, Type 0, BuildingBlock: AZAVOO_clean_sbu_0, # of connection points: 4
#     Node 7, Type 0, BuildingBlock: AZAVOO_clean_sbu_0, # of connection points: 4
#     Node 8, Type 0, BuildingBlock: AZAVOO_clean_sbu_0, # of connection points: 4
#     Node 9, Type 0, BuildingBlock: AZAVOO_clean_sbu_0, # of connection points: 4
#     Node 10, Type 0, BuildingBlock: AZAVOO_clean_sbu_0, # of connection points: 4
#     Node 11, Type 0, BuildingBlock: AZAVOO_clean_sbu_0, # of connection points: 4
#     Node 12, Type 0, BuildingBlock: AZAVOO_clean_sbu_0, # of connection points: 4
#     Node 13, Type 0, BuildingBlock: AZAVOO_clean_sbu_0, # of connection points: 4
#     Node 14, Type 0, BuildingBlock: AZAVOO_clean_sbu_0, # of connection points: 4
#     Node 15, Type 0, BuildingBlock: AZAVOO_clean_sbu_0, # of connection points: 4
#     Edge 16, Type (0, 0), BuildingBlock: EYOCIG_clean_linker_4, # of connection points: 2
#     Edge 17, Type (0, 0), BuildingBlock: EYOCIG_clean_linker_4, # of connection points: 2
#     Edge 18, Type (0, 0), BuildingBlock: EYOCIG_clean_linker_4, # of connection points: 2
#     Edge 19, Type (0, 0), BuildingBlock: EYOCIG_clean_linker_4, # of connection points: 2
#     Edge 20, Type (0, 0), BuildingBlock: EYOCIG_clean_linker_4, # of connection points: 2
#     Edge 21, Type (0, 0), BuildingBlock: EYOCIG_clean_linker_4, # of connection points: 2
#     Edge 22, Type (0, 0), BuildingBlock: EYOCIG_clean_linker_4, # of connection points: 2
#     Edge 23, Type (0, 0), BuildingBlock: EYOCIG_clean_linker_4, # of connection points: 2
#     Edge 24, Type (0, 0), BuildingBlock: EYOCIG_clean_linker_4, # of connection points: 2
#     Edge 25, Type (0, 0), BuildingBlock: EYOCIG_clean_linker_4, # of connection points: 2
#     Edge 26, Type (0, 0), BuildingBlock: EYOCIG_clean_linker_4, # of connection points: 2
#     Edge 27, Type (0, 0), BuildingBlock: EYOCIG_clean_linker_4, # of connection points: 2
#     Edge 28, Type (0, 0), BuildingBlock: EYOCIG_clean_linker_4, # of connection points: 2
#     Edge 29, Type (0, 0), BuildingBlock: EYOCIG_clean_linker_4, # of connection points: 2
#     Edge 30, Type (0, 0), BuildingBlock: EYOCIG_clean_linker_4, # of connection points: 2
#     Edge 31, Type (0, 0), BuildingBlock: EYOCIG_clean_linker_4, # of connection points: 2
#     Edge 32, Type (0, 0), BuildingBlock: EYOCIG_clean_linker_4, # of connection points: 2
#     Edge 33, Type (0, 0), BuildingBlock: EYOCIG_clean_linker_4, # of connection points: 2
#     Edge 34, Type (0, 0), BuildingBlock: EYOCIG_clean_linker_4, # of connection points: 2
#     Edge 35, Type (0, 0), BuildingBlock: EYOCIG_clean_linker_4, # of connection points: 2
#     Edge 36, Type (0, 0), BuildingBlock: EYOCIG_clean_linker_4, # of connection points: 2
#     Edge 37, Type (0, 0), BuildingBlock: EYOCIG_clean_linker_4, # of connection points: 2
#     Edge 38, Type (0, 0), BuildingBlock: EYOCIG_clean_linker_4, # of connection points: 2
#     Edge 39, Type (0, 0), BuildingBlock: EYOCIG_clean_linker_4, # of connection points: 2
#     Edge 40, Type (0, 0), BuildingBlock: EYOCIG_clean_linker_4, # of connection points: 2
#     Edge 41, Type (0, 0), BuildingBlock: EYOCIG_clean_linker_4, # of connection points: 2
#     Edge 42, Type (0, 0), BuildingBlock: EYOCIG_clean_linker_4, # of connection points: 2
#     Edge 43, Type (0, 0), BuildingBlock: EYOCIG_clean_linker_4, # of connection points: 2
#     Edge 44, Type (0, 0), BuildingBlock: EYOCIG_clean_linker_4, # of connection points: 2
#     Edge 45, Type (0, 0), BuildingBlock: EYOCIG_clean_linker_4, # of connection points: 2
#     Edge 46, Type (0, 0), BuildingBlock: EYOCIG_clean_linker_4, # of connection points: 2
#     Edge 47, Type (0, 0), BuildingBlock: EYOCIG_clean_linker_4, # of connection points: 2
# Relax obj value: 0.099
# Max RMSD: 0.075
# Mean RMSD: 0.072
data_MOF--net-ure--node1-AZAVOO_clean_sbu_0--edge1-EYOCIG_clean_linker_4
_symmetry_space_group_name_H-M    P1
_symmetry_Int_Tables_number       1
_symmetry_cell_setting            triclinic
loop_
_symmetry_equiv_pos_as_xyz
'x, y, z'
_cell_length_a     25.579953
_cell_length_b     25.59325
_cell_length_c     26.040835
_cell_angle_alpha  90.236995
_cell_angle_beta   90.25584
_cell_angle_gamma 90.879389
loop_
_atom_site_label
_atom_site_type_symbol
_atom_site_fract_x
_atom_site_fract_y
_atom_site_fract_z
_atom_type_partial_charge
Mg0 Mg 0.25559 0.22002 0.2849 0.0
O1 O 0.24374 0.30973 0.27731 0.0
O2 O 0.29328 0.34715 0.33907 0.0
Mg3 Mg 0.33421 0.28501 0.38647 0.0
C4 C 0.26179 0.35005 0.30112 0.0
C5 C 0.1848 0.16042 0.20968 0.0
O6 O 0.18101 0.13412 0.25268 0.0
O7 O 0.33742 0.22945 0.24841 0.0
O8 O 0.3816 0.26442 0.31528 0.0
O9 O 0.1913 0.21338 0.34385 0.0
O10 O 0.27446 0.22889 0.36207 0.0
C11 C 0.37969 0.24652 0.26951 0.0
C12 C 0.22731 0.22343 0.37761 0.0
O13 O 0.21391 0.20124 0.2082 0.0
Mg14 Mg 0.91568 0.95637 0.48289 0.0
O15 O 0.91985 0.04537 0.46683 0.0
O16 O 0.85319 0.08158 0.50937 0.0
Mg17 Mg 0.80646 0.01816 0.55087 0.0
C18 C 0.89333 0.08501 0.48065 0.0
C19 C -0.0005 0.89947 0.42184 0.0
O20 O 0.95759 0.86973 0.41637 0.0
O21 O 0.9484 0.97357 0.56352 0.0
O22 O 0.87842 0.00759 0.60248 0.0
O23 O 0.86055 0.94303 0.41669 0.0
O24 O 0.83587 0.96128 0.49594 0.0
C25 C 0.92584 -0.00719 0.60287 0.0
C26 C 0.82356 0.95306 0.44876 0.0
O27 O -0.00315 0.94141 0.44816 0.0
Mg28 Mg 0.24403 0.77934 0.81162 0.0
O29 O 0.25085 0.68949 0.80923 0.0
O30 O 0.19917 0.65692 0.87124 0.0
Mg31 Mg 0.15863 0.72415 0.91184 0.0
C32 C 0.23142 0.65119 0.83451 0.0
C33 C 0.30718 0.83254 0.72416 0.0
O34 O 0.3069 0.86947 0.75925 0.0
O35 O 0.16375 0.77176 0.77221 0.0
O36 O 0.11454 0.74051 0.83651 0.0
O37 O 0.30796 0.7838 0.87132 0.0
O38 O 0.224 0.77509 0.88935 0.0
C39 C 0.11993 0.75621 0.79035 0.0
C40 C 0.27166 0.77643 0.90506 0.0
O41 O 0.2851 0.78871 0.73345 0.0
Mg42 Mg 0.50152 0.92619 0.94402 0.0
O43 O 0.49135 0.92975 0.03258 0.0
O44 O 0.53738 0.86368 0.06532 0.0
Mg45 Mg 0.5752 0.8178 -3e-05 0.0
C46 C 0.50787 0.90305 0.07063 0.0
C47 C 0.43352 0.00976 0.89444 0.0
O48 O 0.42371 0.96776 0.86678 0.0
O49 O 0.58572 0.959 0.95125 0.0
O50 O 0.62786 0.88861 0.98015 0.0
O51 O 0.43284 0.87098 0.93679 0.0
O52 O 0.51437 0.8459 0.94796 0.0
C53 C 0.62762 0.9358 0.96443 0.0
C54 C 0.46567 0.83371 0.94359 0.0
O55 O 0.46544 0.00725 0.93201 0.0
Mg56 Mg 0.2993 0.72378 0.27746 0.0
O57 O 0.29578 0.73398 0.1889 0.0
O58 O 0.36189 0.68795 0.15623 0.0
Mg59 Mg 0.40773 0.65009 0.22161 0.0
C60 C 0.32252 0.71746 0.15088 0.0
C61 C 0.21575 0.79181 0.32699 0.0
O62 O 0.25779 0.80156 0.35466 0.0
O63 O 0.26642 0.63965 0.27021 0.0
O64 O 0.33683 0.59751 0.24137 0.0
O65 O 0.35455 0.7924 0.28471 0.0
O66 O 0.37962 0.71091 0.27358 0.0
C67 C 0.28961 0.59777 0.25704 0.0
C68 C 0.39183 0.75959 0.27793 0.0
O69 O 0.21821 0.75991 0.28943 0.0
Mg70 Mg 0.44614 0.98185 0.40981 0.0
O71 O 0.53602 0.97502 0.41219 0.0
O72 O 0.56861 0.02663 0.35013 0.0
Mg73 Mg 0.50133 0.06714 0.30951 0.0
C74 C 0.57434 -0.00558 0.38689 0.0
C75 C 0.39306 0.91852 0.49723 0.0
O76 O 0.35618 0.91853 0.46204 0.0
O77 O 0.45376 0.06211 0.44915 0.0
O78 O 0.48502 0.11125 0.38481 0.0
O79 O 0.44163 0.91793 0.35017 0.0
O80 O 0.45036 0.00183 0.33205 0.0
C81 C 0.46934 0.10589 0.43098 0.0
C82 C 0.449 0.95419 0.31639 0.0
O83 O 0.4368 0.94083 0.488 0.0
Mg84 Mg 0.26926 0.31002 0.73858 0.0
O85 O 0.18023 0.3059 0.75468 0.0
O86 O 0.14399 0.37255 0.71217 0.0
Mg87 Mg 0.20744 0.41924 0.67064 0.0
C88 C 0.14057 0.33242 0.74088 0.0
C89 C 0.32614 0.22614 0.79964 0.0
O90 O 0.35594 0.26799 0.80513 0.0
O91 O 0.25195 0.27736 0.65797 0.0
O92 O 0.21791 0.34733 0.61902 0.0
O93 O 0.28269 0.36509 0.80478 0.0
O94 O 0.26439 0.3898 0.72554 0.0
C95 C 0.23267 0.29993 0.61863 0.0
C96 C 0.27266 0.40208 0.77272 0.0
O97 O 0.28418 0.22886 0.7733 0.0
Mg98 Mg 0.00555 0.96957 0.93666 0.0
O99 O 0.9158 0.98146 0.94415 0.0
O100 O 0.87836 0.932 0.88235 0.0
Mg101 Mg 0.94055 0.89108 0.83501 0.0
C102 C 0.87546 0.96346 0.9203 0.0
C103 C 0.06503 0.04041 0.01192 0.0
O104 O 0.09134 0.04429 0.96893 0.0
O105 O -0.00398 0.88776 0.97313 0.0
O106 O 0.96106 0.84367 0.90621 0.0
O107 O 0.01229 0.03383 0.87772 0.0
O108 O -0.00326 0.95074 0.85948 0.0
C109 C 0.97893 0.84554 0.952 0.0
C110 C 0.00224 -0.00214 0.84395 0.0
O111 O 0.02427 0.01121 0.01338 0.0
Mg112 Mg 0.79932 0.22394 0.7775 0.0
O113 O 0.79579 0.23411 0.68893 0.0
O114 O 0.8619 0.1881 0.65626 0.0
Mg115 Mg 0.90778 0.15029 0.72164 0.0
C116 C 0.82252 0.21759 0.65091 0.0
C117 C 0.71575 0.29196 0.82701 0.0
O118 O 0.7578 0.30175 0.85466 0.0
O119 O 0.76649 0.13979 0.77027 0.0
O120 O 0.83691 0.09768 0.74142 0.0
O121 O 0.85455 0.29259 0.78473 0.0
O122 O 0.87965 0.2111 0.7736 0.0
C123 C 0.78969 0.09792 0.7571 0.0
C124 C 0.89184 0.25979 0.77796 0.0
O125 O 0.71823 0.26004 0.78946 0.0
Mg126 Mg 0.94602 0.48158 0.9098 0.0
O127 O 0.03591 0.47478 0.91217 0.0
O128 O 0.06847 0.52644 0.85013 0.0
Mg129 Mg 0.00117 0.56695 0.80953 0.0
C130 C 0.07422 0.49421 0.88687 0.0
C131 C 0.89291 0.41833 -0.00276 0.0
O132 O 0.85598 0.41848 0.9621 0.0
O133 O 0.95362 0.56182 0.94918 0.0
O134 O 0.98486 0.61101 0.88486 0.0
O135 O 0.94155 0.41769 0.85012 0.0
O136 O 0.95023 0.5016 0.83205 0.0
C137 C 0.96918 0.60562 0.93103 0.0
C138 C 0.9489 0.45397 0.81636 0.0
O139 O 0.9367 0.44053 -0.01203 0.0
Mg140 Mg 0.76925 0.80993 0.23855 0.0
O141 O 0.68021 0.80576 0.25462 0.0
O142 O 0.64395 0.8724 0.21212 0.0
Mg143 Mg 0.70738 0.91913 0.17062 0.0
C144 C 0.64054 0.83226 0.24083 0.0
C145 C 0.82613 0.72607 0.29961 0.0
O146 O 0.8559 0.76793 0.30515 0.0
O147 O 0.75198 0.77728 0.15791 0.0
O148 O 0.71792 0.84725 0.11898 0.0
O149 O 0.78263 0.86499 0.30476 0.0
O150 O 0.76433 0.88971 0.22552 0.0
C151 C 0.73271 0.79986 0.11857 0.0
C152 C 0.77259 0.90199 0.27271 0.0
O153 O 0.7842 0.72877 0.27325 0.0
Mg154 Mg 0.00161 0.42617 0.444 0.0
O155 O -0.00859 0.42971 0.53256 0.0
O156 O 0.03748 0.36367 0.5653 0.0
Mg157 Mg 0.07536 0.31783 0.49996 0.0
C158 C 0.00794 0.40301 0.57061 0.0
C159 C 0.93357 0.50971 0.39441 0.0
O160 O 0.9238 0.46771 0.36674 0.0
O161 O 0.08578 0.45904 0.45126 0.0
O162 O 0.12796 0.38869 0.48015 0.0
O163 O 0.93297 0.37091 0.43676 0.0
O164 O 0.01452 0.34589 0.44794 0.0
C165 C 0.12769 0.43588 0.46444 0.0
C166 C 0.96582 0.33367 0.44357 0.0
O167 O 0.96547 0.50721 0.432 0.0
Mg168 Mg 0.41559 0.45642 0.98284 0.0
O169 O 0.4197 0.54542 0.96676 0.0
O170 O 0.35301 0.5816 0.00928 0.0
Mg171 Mg 0.30632 0.51815 0.05079 0.0
C172 C 0.39315 0.58504 0.98056 0.0
C173 C 0.49945 0.39955 0.92183 0.0
O174 O 0.45757 0.36977 0.91639 0.0
O175 O 0.44829 0.47368 0.06346 0.0
O176 O 0.37828 0.50767 0.10241 0.0
O177 O 0.36048 0.44302 0.91664 0.0
O178 O 0.33578 0.46128 -0.00412 0.0
C179 C 0.42572 0.49293 0.1028 0.0
C180 C 0.32347 0.45303 0.94869 0.0
O181 O 0.49677 0.4415 0.94812 0.0
Mg182 Mg 0.75579 0.72015 0.7848 0.0
O183 O 0.74392 0.80986 0.77727 0.0
O184 O 0.79345 0.84726 0.83906 0.0
Mg185 Mg 0.8344 0.78509 0.88642 0.0
C186 C 0.76196 0.85017 0.80111 0.0
C187 C 0.68498 0.66062 0.70956 0.0
O188 O 0.68118 0.63429 0.75254 0.0
O189 O 0.83762 0.72962 0.74832 0.0
O190 O 0.88179 0.76456 0.81521 0.0
O191 O 0.6915 0.71346 0.84375 0.0
O192 O 0.77466 0.72897 0.86198 0.0
C193 C 0.87988 0.74669 0.76943 0.0
C194 C 0.72751 0.72349 0.87751 0.0
O195 O 0.7141 0.70142 0.70809 0.0
Mg196 Mg 0.74385 0.27921 0.31163 0.0
O197 O 0.75069 0.18937 0.30926 0.0
O198 O 0.69903 0.15679 0.37129 0.0
Mg199 Mg 0.6585 0.22403 0.4119 0.0
C200 C 0.73126 0.15107 0.33455 0.0
C201 C 0.80702 0.33237 0.22417 0.0
O202 O 0.80681 0.36928 0.25928 0.0
O203 O 0.66355 0.2716 0.27225 0.0
O204 O 0.61437 0.24036 0.33658 0.0
O205 O 0.80779 0.28371 0.37131 0.0
O206 O 0.72384 0.27498 0.38937 0.0
C207 C 0.61974 0.25604 0.29041 0.0
C208 C 0.7715 0.27635 0.40507 0.0
O209 O 0.78489 0.28857 0.23345 0.0
Mg210 Mg 0.50559 0.46987 0.43655 0.0
O211 O 0.41584 0.48173 0.4441 0.0
O212 O 0.37839 0.43226 0.38231 0.0
Mg213 Mg 0.44057 0.39136 0.33493 0.0
C214 C 0.3755 0.46371 0.42027 0.0
C215 C 0.56511 0.54071 0.51179 0.0
O216 O 0.5914 0.5446 0.46879 0.0
O217 O 0.49612 0.38807 0.47302 0.0
O218 O 0.46113 0.34396 0.40612 0.0
O219 O 0.51227 0.53415 0.37761 0.0
O220 O 0.49674 0.45104 0.35938 0.0
C221 C 0.47903 0.34584 0.4519 0.0
C222 C 0.50221 0.49817 0.34385 0.0
O223 O 0.52435 0.51151 0.51327 0.0
C224 C 0.13244 0.12058 0.13037 0.0
C225 C 0.15734 0.1411 0.16478 0.0
C226 C 0.10475 0.09282 0.09124 0.0
C227 C 0.08429 0.06789 0.05682 0.0
C228 C 0.08596 0.86401 0.3793 0.0
C229 C 0.04802 0.88256 0.39966 0.0
C230 C 0.12941 0.83866 0.35708 0.0
C231 C 0.16732 0.81603 0.34122 0.0
C232 C 0.36862 0.87695 0.58722 0.0
C233 C 0.38196 0.89643 0.54698 0.0
C234 C 0.34875 0.85704 0.63418 0.0
C235 C 0.32928 0.84366 0.67441 0.0
C236 C 0.38677 0.09614 0.86434 0.0
C237 C 0.40935 0.0582 0.8802 0.0
C238 C 0.36149 0.13963 0.84213 0.0
C239 C 0.34299 0.17761 0.8218 0.0
C240 C 0.6294 0.33879 0.85709 0.0
C241 C 0.66732 0.31617 0.84124 0.0
C242 C 0.58594 0.36413 0.8793 0.0
C243 C 0.54798 0.38267 0.89965 0.0
C244 C 0.86846 0.37675 0.08722 0.0
C245 C 0.88181 0.39622 0.04698 0.0
C246 C 0.84859 0.35685 0.13418 0.0
C247 C 0.82912 0.34348 0.17442 0.0
C248 C 0.88679 0.59607 0.36431 0.0
C249 C 0.90938 0.55814 0.38017 0.0
C250 C 0.8615 0.63956 0.3421 0.0
C251 C 0.84299 0.67753 0.32177 0.0
C252 C 0.60488 0.5931 0.59111 0.0
C253 C 0.5844 0.56817 0.55669 0.0
C254 C 0.6326 0.62083 0.63023 0.0
C255 C 0.65751 0.64132 0.66465 0.0
C256 C 0.21477 0.24024 0.47633 0.0
C257 C 0.21584 0.23175 0.43081 0.0
C258 C 0.2202 0.25441 0.52852 0.0
C259 C 0.22729 0.27186 0.57108 0.0
C260 C 0.98552 0.01048 0.74521 0.0
C261 C -0.00603 0.00936 0.79074 0.0
C262 C 0.97137 0.00512 0.693 0.0
C263 C 0.95393 -0.00189 0.65042 0.0
C264 C 0.29188 0.75643 0.0028 0.0
C265 C 0.28395 0.76568 0.95798 0.0
C266 C 0.30035 0.74452 0.05527 0.0
C267 C 0.30888 0.73329 0.09955 0.0
C268 C 0.46897 0.93387 0.21867 0.0
C269 C 0.45973 0.94186 0.26348 0.0
C270 C 0.48086 0.92533 0.16621 0.0
C271 C 0.49208 0.91674 0.12194 0.0
C272 C 0.47506 0.24748 0.23491 0.0
C273 C 0.42876 0.24412 0.24314 0.0
C274 C 0.52979 0.25258 0.24144 0.0
C275 C 0.57357 0.25618 0.25872 0.0
C276 C 0.93599 0.23478 0.45156 0.0
C277 C 0.94854 0.28021 0.44777 0.0
C278 C 0.92262 0.18142 0.45781 0.0
C279 C 0.91119 0.13652 0.4669 0.0
C280 C 0.97526 0.74769 0.73483 0.0
C281 C 0.92896 0.74431 0.74306 0.0
C282 C 0.02999 0.75278 0.74136 0.0
C283 C 0.07376 0.75637 0.75865 0.0
C284 C 0.42242 0.68147 0.95775 0.0
C285 C 0.411 0.63656 0.96683 0.0
C286 C 0.43579 0.73483 0.95153 0.0
C287 C 0.44836 0.78026 0.94776 0.0
C288 C 0.54411 0.80291 0.26367 0.0
C289 C 0.58902 0.81437 0.25457 0.0
C290 C 0.49075 0.78948 0.26993 0.0
C291 C 0.4453 0.77689 0.27372 0.0
C292 C 0.47286 0.19579 0.47994 0.0
C293 C 0.46923 0.15204 0.46266 0.0
C294 C 0.478 0.25049 0.48648 0.0
C295 C 0.4814 0.29677 0.47826 0.0
C296 C 0.04412 0.30311 0.76373 0.0
C297 C 0.08904 0.31455 0.75463 0.0
C298 C -0.00924 0.28969 0.76998 0.0
C299 C 0.94531 0.2771 0.77376 0.0
C300 C 0.97784 0.75019 -0.01342 0.0
C301 C 0.98126 0.79647 0.97836 0.0
C302 C 0.97269 0.6955 0.98002 0.0
C303 C 0.96906 0.65175 0.96273 0.0
C304 C 0.24548 0.44768 0.27423 0.0
C305 C 0.24977 0.4016 0.28301 0.0
C306 C 0.25071 0.5024 0.26735 0.0
C307 C 0.26411 0.54775 0.26401 0.0
C308 C 0.75083 0.00254 0.76741 0.0
C309 C 0.76421 0.04789 0.76407 0.0
C310 C 0.74562 0.94781 0.77427 0.0
C311 C 0.74993 0.90173 0.78303 0.0
C312 C 0.22482 0.46298 0.92127 0.0
C313 C 0.27031 0.45805 0.93207 0.0
C314 C 0.17152 0.47099 0.91021 0.0
C315 C 0.12651 0.48051 0.90083 0.0
C316 C 0.75453 0.05383 0.31121 0.0
C317 C 0.74499 0.09881 0.3206 0.0
C318 C 0.76257 0.00057 0.30014 0.0
C319 C 0.76753 0.95511 0.28933 0.0
C320 C 0.77779 0.97981 0.94716 0.0
C321 C 0.82389 0.97549 0.93839 0.0
C322 C 0.72305 0.97462 0.95406 0.0
C323 C 0.67767 0.96125 0.95743 0.0
C324 C 0.25467 0.55395 0.81118 0.0
C325 C 0.24514 0.59893 0.82056 0.0
C326 C 0.26269 0.50068 0.80013 0.0
C327 C 0.26763 0.45522 0.78933 0.0
C328 C 0.22309 0.47477 0.45408 0.0
C329 C 0.17772 0.46137 0.45744 0.0
C330 C 0.27783 0.48001 0.44717 0.0
C331 C 0.32393 0.47571 0.43838 0.0
C332 C 0.71493 0.74024 0.97624 0.0
C333 C 0.71603 0.73178 0.93072 0.0
C334 C 0.72033 0.75438 0.02844 0.0
C335 C 0.72737 0.77181 0.07102 0.0
C336 C 0.48543 0.51076 0.24511 0.0
C337 C 0.49391 0.50967 0.29064 0.0
C338 C 0.47126 0.50535 0.19291 0.0
C339 C 0.45381 0.49829 0.15035 0.0
C340 C 0.79178 0.25643 0.50282 0.0
C341 C 0.78381 0.26565 0.45799 0.0
C342 C 0.80028 0.24457 0.55529 0.0
C343 C 0.80884 0.23337 0.59957 0.0
C344 C 0.98085 0.42522 0.66619 0.0
C345 C -0.0079 0.41667 0.62192 0.0
C346 C 0.96893 0.43372 0.71864 0.0
C347 C 0.95966 0.44168 0.76346 0.0
C348 C 0.72491 0.9631 0.42133 0.0
C349 C 0.7704 0.95813 0.43214 0.0
C350 C 0.67163 0.97116 0.41026 0.0
C351 C 0.62663 0.9807 0.40086 0.0
loop_
_geom_bond_atom_site_label_1
_geom_bond_atom_site_label_2
_geom_bond_distance
_geom_bond_site_symmetry_2
_ccdc_geom_bond_type
Mg0 O1 2.028 . S
Mg0 O7 1.986 . S
Mg0 O9 2.114 . S
Mg0 O10 2.251 . S
Mg0 O13 2.010 . S
O1 Mg0 2.028 . S
O1 C4 1.250 . S
O2 Mg3 2.028 . S
O2 C4 1.248 . S
Mg3 O2 2.028 . S
Mg3 O8 2.032 . S
Mg3 O10 2.079 . S
C4 O1 1.250 . S
C4 O2 1.248 . S
C5 O6 1.264 . S
C5 O13 1.249 . S
O6 C5 1.264 . S
O7 Mg0 1.986 . S
O7 C11 1.246 . S
O8 Mg3 2.032 . S
O8 C11 1.259 . S
O9 Mg0 2.114 . S
O9 C12 1.252 . S
O10 Mg0 2.251 . S
O10 Mg3 2.079 . S
O10 C12 1.273 . S
C11 O7 1.246 . S
C11 O8 1.259 . S
C12 O9 1.252 . S
C12 O10 1.273 . S
O13 Mg0 2.010 . S
O13 C5 1.249 . S
Mg14 O15 2.028 1_565 S
Mg14 O21 1.986 . S
Mg14 O23 2.114 . S
Mg14 O24 2.251 1_565 S
Mg14 O27 2.010 1_655 S
O15 Mg14 2.028 1_545 S
O15 C18 1.250 . S
O16 Mg17 2.028 . S
O16 C18 1.248 . S
Mg17 O16 2.028 . S
Mg17 O22 2.032 . S
Mg17 O24 2.079 . S
C18 O15 1.250 . S
C18 O16 1.248 . S
C19 O20 1.264 . S
C19 O27 1.249 . S
O20 C19 1.264 . S
O21 Mg14 1.986 . S
O21 C25 1.246 1_565 S
O22 Mg17 2.032 . S
O22 C25 1.259 . S
O23 Mg14 2.114 . S
O23 C26 1.252 1_565 S
O24 Mg14 2.251 1_545 S
O24 Mg17 2.079 . S
O24 C26 1.273 . S
C25 O21 1.246 1_545 S
C25 O22 1.259 . S
C26 O23 1.252 1_545 S
C26 O24 1.273 . S
O27 Mg14 2.010 1_455 S
O27 C19 1.249 . S
Mg28 O29 2.028 . S
Mg28 O35 1.986 . S
Mg28 O37 2.114 . S
Mg28 O38 2.251 . S
Mg28 O41 2.010 . S
O29 Mg28 2.028 . S
O29 C32 1.250 . S
O30 Mg31 2.028 . S
O30 C32 1.248 . S
Mg31 O30 2.028 . S
Mg31 O36 2.032 . S
Mg31 O38 2.079 . S
C32 O29 1.250 . S
C32 O30 1.248 . S
C33 O34 1.264 . S
C33 O41 1.249 . S
O34 C33 1.264 . S
O35 Mg28 1.986 . S
O35 C39 1.246 . S
O36 Mg31 2.032 . S
O36 C39 1.259 . S
O37 Mg28 2.114 . S
O37 C40 1.252 . S
O38 Mg28 2.251 . S
O38 Mg31 2.079 . S
O38 C40 1.273 . S
C39 O35 1.246 . S
C39 O36 1.259 . S
C40 O37 1.252 . S
C40 O38 1.273 . S
O41 Mg28 2.010 . S
O41 C33 1.249 . S
Mg42 O43 2.028 1_556 S
Mg42 O49 1.986 . S
Mg42 O51 2.114 . S
Mg42 O52 2.251 1_556 S
Mg42 O55 2.010 1_565 S
O43 Mg42 2.028 1_554 S
O43 C46 1.250 . S
O44 Mg45 2.028 . S
O44 C46 1.248 . S
Mg45 O44 2.028 . S
Mg45 O50 2.032 . S
Mg45 O52 2.079 . S
C46 O43 1.250 . S
C46 O44 1.248 . S
C47 O48 1.264 . S
C47 O55 1.249 . S
O48 C47 1.264 . S
O49 Mg42 1.986 . S
O49 C53 1.246 1_556 S
O50 Mg45 2.032 . S
O50 C53 1.259 . S
O51 Mg42 2.114 . S
O51 C54 1.252 1_556 S
O52 Mg42 2.251 1_554 S
O52 Mg45 2.079 . S
O52 C54 1.273 . S
C53 O49 1.246 1_554 S
C53 O50 1.259 . S
C54 O51 1.252 1_554 S
C54 O52 1.273 . S
O55 Mg42 2.010 1_545 S
O55 C47 1.249 . S
Mg56 O57 2.028 . S
Mg56 O63 1.986 . S
Mg56 O65 2.114 . S
Mg56 O66 2.251 . S
Mg56 O69 2.010 . S
O57 Mg56 2.028 . S
O57 C60 1.250 . S
O58 Mg59 2.028 . S
O58 C60 1.248 . S
Mg59 O58 2.028 . S
Mg59 O64 2.032 . S
Mg59 O66 2.079 . S
C60 O57 1.250 . S
C60 O58 1.248 . S
C61 O62 1.264 . S
C61 O69 1.249 . S
O62 C61 1.264 . S
O63 Mg56 1.986 . S
O63 C67 1.246 . S
O64 Mg59 2.032 . S
O64 C67 1.259 . S
O65 Mg56 2.114 . S
O65 C68 1.252 . S
O66 Mg56 2.251 . S
O66 Mg59 2.079 . S
O66 C68 1.273 . S
C67 O63 1.246 . S
C67 O64 1.259 . S
C68 O65 1.252 . S
C68 O66 1.273 . S
O69 Mg56 2.010 . S
O69 C61 1.249 . S
Mg70 O71 2.028 1_545 S
Mg70 O77 1.986 . S
Mg70 O79 2.114 1_545 S
Mg70 O80 2.251 . S
Mg70 O83 2.010 1_545 S
O71 Mg70 2.028 1_565 S
O71 C74 1.250 1_565 S
O72 Mg73 2.028 . S
O72 C74 1.248 . S
Mg73 O72 2.028 . S
Mg73 O78 2.032 . S
Mg73 O80 2.079 . S
C74 O71 1.250 1_545 S
C74 O72 1.248 . S
C75 O76 1.264 . S
C75 O83 1.249 . S
O76 C75 1.264 . S
O77 Mg70 1.986 . S
O77 C81 1.246 . S
O78 Mg73 2.032 . S
O78 C81 1.259 . S
O79 Mg70 2.114 1_565 S
O79 C82 1.252 . S
O80 Mg70 2.251 . S
O80 Mg73 2.079 . S
O80 C82 1.273 1_545 S
C81 O77 1.246 . S
C81 O78 1.259 . S
C82 O79 1.252 . S
C82 O80 1.273 1_565 S
O83 Mg70 2.010 1_565 S
O83 C75 1.249 . S
Mg84 O85 2.028 . S
Mg84 O91 1.986 . S
Mg84 O93 2.114 . S
Mg84 O94 2.251 . S
Mg84 O97 2.010 . S
O85 Mg84 2.028 . S
O85 C88 1.250 . S
O86 Mg87 2.028 . S
O86 C88 1.248 . S
Mg87 O86 2.028 . S
Mg87 O92 2.032 . S
Mg87 O94 2.079 . S
C88 O85 1.250 . S
C88 O86 1.248 . S
C89 O90 1.264 . S
C89 O97 1.249 . S
O90 C89 1.264 . S
O91 Mg84 1.986 . S
O91 C95 1.246 . S
O92 Mg87 2.032 . S
O92 C95 1.259 . S
O93 Mg84 2.114 . S
O93 C96 1.252 . S
O94 Mg84 2.251 . S
O94 Mg87 2.079 . S
O94 C96 1.273 . S
C95 O91 1.246 . S
C95 O92 1.259 . S
C96 O93 1.252 . S
C96 O94 1.273 . S
O97 Mg84 2.010 . S
O97 C89 1.249 . S
Mg98 O99 2.045 . S
Mg98 O105 1.984 1_655 S
Mg98 O107 2.115 1_565 S
Mg98 O108 2.258 . S
Mg98 O111 2.000 1_666 S
O99 Mg98 2.045 . S
O99 C102 1.250 . S
O100 Mg101 2.028 . S
O100 C102 1.248 . S
Mg101 O100 2.028 . S
Mg101 O106 2.032 . S
Mg101 O108 2.079 . S
C102 O99 1.250 . S
C102 O100 1.248 . S
C103 O104 1.264 . S
C103 O111 1.249 . S
O104 C103 1.264 . S
O105 Mg98 1.984 1_455 S
O105 C109 1.246 1_455 S
O106 Mg101 2.032 . S
O106 C109 1.259 . S
O107 Mg98 2.115 1_545 S
O107 C110 1.252 . S
O108 Mg98 2.258 . S
O108 Mg101 2.079 . S
O108 C110 1.273 1_565 S
C109 O105 1.246 1_655 S
C109 O106 1.259 . S
C110 O107 1.252 . S
C110 O108 1.273 1_545 S
O111 Mg98 2.000 1_444 S
O111 C103 1.249 . S
Mg112 O113 2.028 . S
Mg112 O119 1.986 . S
Mg112 O121 2.114 . S
Mg112 O122 2.251 . S
Mg112 O125 2.010 . S
O113 Mg112 2.028 . S
O113 C116 1.250 . S
O114 Mg115 2.028 . S
O114 C116 1.248 . S
Mg115 O114 2.028 . S
Mg115 O120 2.032 . S
Mg115 O122 2.079 . S
C116 O113 1.250 . S
C116 O114 1.248 . S
C117 O118 1.264 . S
C117 O125 1.249 . S
O118 C117 1.264 . S
O119 Mg112 1.986 . S
O119 C123 1.246 . S
O120 Mg115 2.032 . S
O120 C123 1.259 . S
O121 Mg112 2.114 . S
O121 C124 1.252 . S
O122 Mg112 2.251 . S
O122 Mg115 2.079 . S
O122 C124 1.273 . S
C123 O119 1.246 . S
C123 O120 1.259 . S
C124 O121 1.252 . S
C124 O122 1.273 . S
O125 Mg112 2.010 . S
O125 C117 1.249 . S
Mg126 O127 2.028 1_655 S
Mg126 O133 1.986 . S
Mg126 O135 2.114 . S
Mg126 O136 2.251 1_655 S
Mg126 O139 2.010 1_556 S
O127 Mg126 2.028 1_455 S
O127 C130 1.250 . S
O128 Mg129 2.028 . S
O128 C130 1.248 . S
Mg129 O128 2.028 . S
Mg129 O134 2.032 . S
Mg129 O136 2.079 . S
C130 O127 1.250 . S
C130 O128 1.248 . S
C131 O132 1.264 . S
C131 O139 1.249 . S
O132 C131 1.264 . S
O133 Mg126 1.986 . S
O133 C137 1.246 1_655 S
O134 Mg129 2.032 . S
O134 C137 1.259 . S
O135 Mg126 2.114 . S
O135 C138 1.252 1_655 S
O136 Mg126 2.251 1_455 S
O136 Mg129 2.079 . S
O136 C138 1.273 . S
C137 O133 1.246 1_455 S
C137 O134 1.259 . S
C138 O135 1.252 1_455 S
C138 O136 1.273 . S
O139 Mg126 2.010 1_554 S
O139 C131 1.249 . S
Mg140 O141 2.028 . S
Mg140 O147 1.986 . S
Mg140 O149 2.114 . S
Mg140 O150 2.251 . S
Mg140 O153 2.010 . S
O141 Mg140 2.028 . S
O141 C144 1.250 . S
O142 Mg143 2.028 . S
O142 C144 1.248 . S
Mg143 O142 2.028 . S
Mg143 O148 2.032 . S
Mg143 O150 2.079 . S
C144 O141 1.250 . S
C144 O142 1.248 . S
C145 O146 1.264 . S
C145 O153 1.249 . S
O146 C145 1.264 . S
O147 Mg140 1.986 . S
O147 C151 1.246 . S
O148 Mg143 2.032 . S
O148 C151 1.259 . S
O149 Mg140 2.114 . S
O149 C152 1.252 . S
O150 Mg140 2.251 . S
O150 Mg143 2.079 . S
O150 C152 1.273 . S
C151 O147 1.246 . S
C151 O148 1.259 . S
C152 O149 1.252 . S
C152 O150 1.273 . S
O153 Mg140 2.010 . S
O153 C145 1.249 . S
Mg154 O155 2.028 . S
Mg154 O161 1.986 . S
Mg154 O163 2.114 1_455 S
Mg154 O164 2.251 . S
Mg154 O167 2.010 1_455 S
O155 Mg154 2.028 . S
O155 C158 1.250 . S
O156 Mg157 2.028 . S
O156 C158 1.248 . S
Mg157 O156 2.028 . S
Mg157 O162 2.032 . S
Mg157 O164 2.079 . S
C158 O155 1.250 . S
C158 O156 1.248 . S
C159 O160 1.264 . S
C159 O167 1.249 . S
O160 C159 1.264 . S
O161 Mg154 1.986 . S
O161 C165 1.246 . S
O162 Mg157 2.032 . S
O162 C165 1.259 . S
O163 Mg154 2.114 1_655 S
O163 C166 1.252 . S
O164 Mg154 2.251 . S
O164 Mg157 2.079 . S
O164 C166 1.273 1_455 S
C165 O161 1.246 . S
C165 O162 1.259 . S
C166 O163 1.252 . S
C166 O164 1.273 1_655 S
O167 Mg154 2.010 1_655 S
O167 C159 1.249 . S
Mg168 O169 2.028 1_554 S
Mg168 O175 1.986 . S
Mg168 O177 2.114 1_554 S
Mg168 O178 2.251 . S
Mg168 O181 2.010 1_554 S
O169 Mg168 2.028 1_556 S
O169 C172 1.250 1_556 S
O170 Mg171 2.028 . S
O170 C172 1.248 . S
Mg171 O170 2.028 . S
Mg171 O176 2.032 . S
Mg171 O178 2.079 . S
C172 O169 1.250 1_554 S
C172 O170 1.248 . S
C173 O174 1.264 . S
C173 O181 1.249 . S
O174 C173 1.264 . S
O175 Mg168 1.986 . S
O175 C179 1.246 . S
O176 Mg171 2.032 . S
O176 C179 1.259 . S
O177 Mg168 2.114 1_556 S
O177 C180 1.252 . S
O178 Mg168 2.251 . S
O178 Mg171 2.079 . S
O178 C180 1.273 1_554 S
C179 O175 1.246 . S
C179 O176 1.259 . S
C180 O177 1.252 . S
C180 O178 1.273 1_556 S
O181 Mg168 2.010 1_556 S
O181 C173 1.249 . S
Mg182 O183 2.028 . S
Mg182 O189 1.986 . S
Mg182 O191 2.114 . S
Mg182 O192 2.251 . S
Mg182 O195 2.010 . S
O183 Mg182 2.028 . S
O183 C186 1.250 . S
O184 Mg185 2.028 . S
O184 C186 1.248 . S
Mg185 O184 2.028 . S
Mg185 O190 2.032 . S
Mg185 O192 2.079 . S
C186 O183 1.250 . S
C186 O184 1.248 . S
C187 O188 1.264 . S
C187 O195 1.249 . S
O188 C187 1.264 . S
O189 Mg182 1.986 . S
O189 C193 1.246 . S
O190 Mg185 2.032 . S
O190 C193 1.259 . S
O191 Mg182 2.114 . S
O191 C194 1.252 . S
O192 Mg182 2.251 . S
O192 Mg185 2.079 . S
O192 C194 1.273 . S
C193 O189 1.246 . S
C193 O190 1.259 . S
C194 O191 1.252 . S
C194 O192 1.273 . S
O195 Mg182 2.010 . S
O195 C187 1.249 . S
Mg196 O197 2.028 . S
Mg196 O203 1.986 . S
Mg196 O205 2.114 . S
Mg196 O206 2.251 . S
Mg196 O209 2.010 . S
O197 Mg196 2.028 . S
O197 C200 1.250 . S
O198 Mg199 2.028 . S
O198 C200 1.248 . S
Mg199 O198 2.028 . S
Mg199 O204 2.032 . S
Mg199 O206 2.079 . S
C200 O197 1.250 . S
C200 O198 1.248 . S
C201 O202 1.264 . S
C201 O209 1.249 . S
O202 C201 1.264 . S
O203 Mg196 1.986 . S
O203 C207 1.246 . S
O204 Mg199 2.032 . S
O204 C207 1.259 . S
O205 Mg196 2.114 . S
O205 C208 1.252 . S
O206 Mg196 2.251 . S
O206 Mg199 2.079 . S
O206 C208 1.273 . S
C207 O203 1.246 . S
C207 O204 1.259 . S
C208 O205 1.252 . S
C208 O206 1.273 . S
O209 Mg196 2.010 . S
O209 C201 1.249 . S
Mg210 O211 2.028 . S
Mg210 O217 1.986 . S
Mg210 O219 2.114 . S
Mg210 O220 2.251 . S
Mg210 O223 2.010 . S
O211 Mg210 2.028 . S
O211 C214 1.250 . S
O212 Mg213 2.028 . S
O212 C214 1.248 . S
Mg213 O212 2.028 . S
Mg213 O218 2.032 . S
Mg213 O220 2.079 . S
C214 O211 1.250 . S
C214 O212 1.248 . S
C215 O216 1.264 . S
C215 O223 1.249 . S
O216 C215 1.264 . S
O217 Mg210 1.986 . S
O217 C221 1.246 . S
O218 Mg213 2.032 . S
O218 C221 1.259 . S
O219 Mg210 2.114 . S
O219 C222 1.252 . S
O220 Mg210 2.251 . S
O220 Mg213 2.079 . S
O220 C222 1.273 . S
C221 O217 1.246 . S
C221 O218 1.259 . S
C222 O219 1.252 . S
C222 O220 1.273 . S
O223 Mg210 2.010 . S
O223 C215 1.249 . S
C224 C225 1.170 . S
C224 C226 1.380 . S
C225 C224 1.170 . S
C226 C224 1.380 . S
C226 C227 1.170 . S
C227 C226 1.170 . S
C228 C229 1.170 . S
C228 C230 1.380 . S
C229 C228 1.170 . S
C230 C228 1.380 . S
C230 C231 1.170 . S
C231 C230 1.170 . S
C232 C233 1.170 . S
C232 C234 1.380 . S
C233 C232 1.170 . S
C234 C232 1.380 . S
C234 C235 1.170 . S
C235 C234 1.170 . S
C236 C237 1.170 . S
C236 C238 1.380 . S
C237 C236 1.170 . S
C238 C236 1.380 . S
C238 C239 1.170 . S
C239 C238 1.170 . S
C240 C241 1.170 . S
C240 C242 1.380 . S
C241 C240 1.170 . S
C242 C240 1.380 . S
C242 C243 1.170 . S
C243 C242 1.170 . S
C244 C245 1.170 . S
C244 C246 1.380 . S
C245 C244 1.170 . S
C246 C244 1.380 . S
C246 C247 1.170 . S
C247 C246 1.170 . S
C248 C249 1.170 . S
C248 C250 1.380 . S
C249 C248 1.170 . S
C250 C248 1.380 . S
C250 C251 1.170 . S
C251 C250 1.170 . S
C252 C253 1.170 . S
C252 C254 1.380 . S
C253 C252 1.170 . S
C254 C252 1.380 . S
C254 C255 1.170 . S
C255 C254 1.170 . S
C256 C257 1.170 . S
C256 C258 1.380 . S
C257 C256 1.170 . S
C258 C256 1.380 . S
C258 C259 1.170 . S
C259 C258 1.170 . S
C260 C261 1.172 . S
C260 C262 1.379 1_545 S
C261 C260 1.172 . S
C262 C260 1.379 1_565 S
C262 C263 1.170 . S
C263 C262 1.170 . S
C264 C265 1.170 . S
C264 C266 1.380 1_556 S
C265 C264 1.170 . S
C266 C264 1.380 1_554 S
C266 C267 1.170 . S
C267 C266 1.170 . S
C268 C269 1.170 . S
C268 C270 1.380 . S
C269 C268 1.170 . S
C270 C268 1.380 . S
C270 C271 1.170 . S
C271 C270 1.170 . S
C272 C273 1.170 . S
C272 C274 1.380 . S
C273 C272 1.170 . S
C274 C272 1.380 . S
C274 C275 1.170 . S
C275 C274 1.170 . S
C276 C277 1.170 . S
C276 C278 1.380 . S
C277 C276 1.170 . S
C278 C276 1.380 . S
C278 C279 1.170 . S
C279 C278 1.170 . S
C280 C281 1.170 . S
C280 C282 1.380 1_655 S
C281 C280 1.170 . S
C282 C280 1.380 1_455 S
C282 C283 1.170 . S
C283 C282 1.170 . S
C284 C285 1.170 . S
C284 C286 1.380 . S
C285 C284 1.170 . S
C286 C284 1.380 . S
C286 C287 1.170 1_556 S
C287 C286 1.170 1_554 S
C288 C289 1.170 . S
C288 C290 1.380 . S
C289 C288 1.170 . S
C290 C288 1.380 . S
C290 C291 1.170 . S
C291 C290 1.170 . S
C292 C293 1.170 . S
C292 C294 1.380 . S
C293 C292 1.170 . S
C294 C292 1.380 . S
C294 C295 1.170 . S
C295 C294 1.170 . S
C296 C297 1.170 . S
C296 C298 1.380 1_455 S
C297 C296 1.170 . S
C298 C296 1.380 1_655 S
C298 C299 1.170 . S
C299 C298 1.170 . S
C300 C301 1.170 . S
C300 C302 1.381 1_455 S
C301 C300 1.170 . S
C302 C300 1.381 1_655 S
C302 C303 1.171 . S
C303 C302 1.171 . S
C304 C305 1.170 . S
C304 C306 1.380 . S
C305 C304 1.170 . S
C306 C304 1.380 . S
C306 C307 1.170 . S
C307 C306 1.170 . S
C308 C309 1.170 . S
C308 C310 1.380 1_545 S
C309 C308 1.170 . S
C310 C308 1.380 1_565 S
C310 C311 1.170 . S
C311 C310 1.170 . S
C312 C313 1.170 . S
C312 C314 1.380 . S
C313 C312 1.170 . S
C314 C312 1.380 . S
C314 C315 1.170 . S
C315 C314 1.170 . S
C316 C317 1.170 . S
C316 C318 1.380 1_545 S
C317 C316 1.170 . S
C318 C316 1.380 1_565 S
C318 C319 1.170 . S
C319 C318 1.170 . S
C320 C321 1.170 . S
C320 C322 1.380 . S
C321 C320 1.170 . S
C322 C320 1.380 . S
C322 C323 1.170 . S
C323 C322 1.170 . S
C324 C325 1.170 . S
C324 C326 1.380 . S
C325 C324 1.170 . S
C326 C324 1.380 . S
C326 C327 1.170 . S
C327 C326 1.170 . S
C328 C329 1.170 . S
C328 C330 1.380 . S
C329 C328 1.170 . S
C330 C328 1.380 . S
C330 C331 1.170 . S
C331 C330 1.170 . S
C332 C333 1.170 . S
C332 C334 1.380 1_556 S
C333 C332 1.170 . S
C334 C332 1.380 1_554 S
C334 C335 1.170 . S
C335 C334 1.170 . S
C336 C337 1.170 . S
C336 C338 1.380 . S
C337 C336 1.170 . S
C338 C336 1.380 . S
C338 C339 1.170 . S
C339 C338 1.170 . S
C340 C341 1.170 . S
C340 C342 1.380 . S
C341 C340 1.170 . S
C342 C340 1.380 . S
C342 C343 1.170 . S
C343 C342 1.170 . S
C344 C345 1.170 . S
C344 C346 1.380 . S
C345 C344 1.170 . S
C346 C344 1.380 . S
C346 C347 1.170 . S
C347 C346 1.170 . S
C348 C349 1.170 . S
C348 C350 1.380 . S
C349 C348 1.170 . S
C350 C348 1.380 . S
C350 C351 1.170 . S
C351 C350 1.170 . S
C225 C5 1.254 . S
C227 C103 1.266 . S
C229 C19 1.462 . S
C231 C61 1.476 . S
C233 C75 1.433 . S
C235 C33 1.411 . S
C237 C47 1.475 . S
C239 C89 1.462 . S
C241 C117 1.462 . S
C243 C173 1.420 . S
C245 C131 1.383 . S
C247 C201 1.380 . S
C249 C159 1.429 . S
C251 C145 1.432 . S
C253 C215 1.254 . S
C255 C187 1.267 . S
C257 C12 1.230 . S
C259 C95 1.206 . S
C261 C110 1.224 . S
C263 C25 1.219 1_565 S
C265 C40 1.365 . S
C267 C60 1.275 . S
C269 C82 1.346 . S
C271 C46 1.309 . S
C273 C11 1.170 . S
C275 C207 1.190 . S
C277 C166 1.329 . S
C279 C18 1.272 . S
C281 C193 1.194 . S
C283 C39 1.171 . S
C285 C172 1.279 1_556 S
C287 C54 1.329 . S
C289 C144 1.281 . S
C291 C68 1.328 . S
C293 C81 1.218 . S
C295 C221 1.161 . S
C297 C88 1.272 . S
C299 C124 1.332 . S
C301 C109 1.198 1_455 S
C303 C137 1.169 1_655 S
C305 C4 1.217 . S
C307 C67 1.282 . S
C309 C123 1.276 . S
C311 C186 1.194 . S
C313 C180 1.299 . S
C315 C130 1.236 . S
C317 C200 1.191 . S
C319 C152 1.316 . S
C321 C102 1.222 . S
C323 C53 1.250 1_556 S
C325 C32 1.224 . S
C327 C96 1.300 . S
C329 C165 1.288 . S
C331 C214 1.195 . S
C333 C194 1.240 . S
C335 C151 1.188 . S
C337 C222 1.251 . S
C339 C179 1.168 . S
C341 C208 1.349 . S
C343 C116 1.300 . S
C345 C158 1.280 . S
C347 C138 1.363 . S
C349 C26 1.301 . S
C351 C74 1.223 . S
