# Generated by pormake.
# Topology snk, (6)-cn, num edge types: 1
# Building blocks:
#     Node 0, Type 0, BuildingBlock: KUMJIN_clean_sbu_1, # of connection points: 6
#     Node 1, Type 0, BuildingBlock: KUMJIN_clean_sbu_1, # of connection points: 6
#     Node 2, Type 0, BuildingBlock: KUMJIN_clean_sbu_1, # of connection points: 6
#     Node 3, Type 0, BuildingBlock: KUMJIN_clean_sbu_1, # of connection points: 6
#     Node 4, Type 0, BuildingBlock: KUMJIN_clean_sbu_1, # of connection points: 6
#     Node 5, Type 0, BuildingBlock: KUMJIN_clean_sbu_1, # of connection points: 6
#     Node 6, Type 0, BuildingBlock: KUMJIN_clean_sbu_1, # of connection points: 6
#     Node 7, Type 0, BuildingBlock: KUMJIN_clean_sbu_1, # of connection points: 6
#     Edge 8, Type (0, 0), BuildingBlock: AJUNOK_clean_linker_0, # of connection points: 2
#     Edge 9, Type (0, 0), BuildingBlock: AJUNOK_clean_linker_0, # of connection points: 2
#     Edge 10, Type (0, 0), BuildingBlock: AJUNOK_clean_linker_0, # of connection points: 2
#     Edge 11, Type (0, 0), BuildingBlock: AJUNOK_clean_linker_0, # of connection points: 2
#     Edge 12, Type (0, 0), BuildingBlock: AJUNOK_clean_linker_0, # of connection points: 2
#     Edge 13, Type (0, 0), BuildingBlock: AJUNOK_clean_linker_0, # of connection points: 2
#     Edge 14, Type (0, 0), BuildingBlock: AJUNOK_clean_linker_0, # of connection points: 2
#     Edge 15, Type (0, 0), BuildingBlock: AJUNOK_clean_linker_0, # of connection points: 2
#     Edge 16, Type (0, 0), BuildingBlock: AJUNOK_clean_linker_0, # of connection points: 2
#     Edge 17, Type (0, 0), BuildingBlock: AJUNOK_clean_linker_0, # of connection points: 2
#     Edge 18, Type (0, 0), BuildingBlock: AJUNOK_clean_linker_0, # of connection points: 2
#     Edge 19, Type (0, 0), BuildingBlock: AJUNOK_clean_linker_0, # of connection points: 2
#     Edge 20, Type (0, 0), BuildingBlock: AJUNOK_clean_linker_0, # of connection points: 2
#     Edge 21, Type (0, 0), BuildingBlock: AJUNOK_clean_linker_0, # of connection points: 2
#     Edge 22, Type (0, 0), BuildingBlock: AJUNOK_clean_linker_0, # of connection points: 2
#     Edge 23, Type (0, 0), BuildingBlock: AJUNOK_clean_linker_0, # of connection points: 2
#     Edge 24, Type (0, 0), BuildingBlock: AJUNOK_clean_linker_0, # of connection points: 2
#     Edge 25, Type (0, 0), BuildingBlock: AJUNOK_clean_linker_0, # of connection points: 2
#     Edge 26, Type (0, 0), BuildingBlock: AJUNOK_clean_linker_0, # of connection points: 2
#     Edge 27, Type (0, 0), BuildingBlock: AJUNOK_clean_linker_0, # of connection points: 2
#     Edge 28, Type (0, 0), BuildingBlock: AJUNOK_clean_linker_0, # of connection points: 2
#     Edge 29, Type (0, 0), BuildingBlock: AJUNOK_clean_linker_0, # of connection points: 2
#     Edge 30, Type (0, 0), BuildingBlock: AJUNOK_clean_linker_0, # of connection points: 2
#     Edge 31, Type (0, 0), BuildingBlock: AJUNOK_clean_linker_0, # of connection points: 2
# Relax obj value: 0.013
# Max RMSD: 0.089
# Mean RMSD: 0.087
data_MOF--net-snk--node1-KUMJIN_clean_sbu_1--edge1-AJUNOK_clean_linker_0
_symmetry_space_group_name_H-M    P1
_symmetry_Int_Tables_number       1
_symmetry_cell_setting            triclinic
loop_
_symmetry_equiv_pos_as_xyz
'x, y, z'
_cell_length_a     27.398096
_cell_length_b     27.581639
_cell_length_c     20.42893
_cell_angle_alpha  89.530861
_cell_angle_beta   89.782667
_cell_angle_gamma 90.497789
loop_
_atom_site_label
_atom_site_type_symbol
_atom_site_fract_x
_atom_site_fract_y
_atom_site_fract_z
_atom_type_partial_charge
Eu0 Eu 0.0038 0.03501 0.59736 0.0
C1 C 0.95528 0.84908 0.43122 0.0
N2 N 0.99906 0.87122 0.44205 0.0
C3 C 0.03964 0.79519 0.4363 0.0
C4 C 0.9519 0.79822 0.42624 0.0
C5 C 0.04086 0.84498 0.44649 0.0
C6 C 0.99495 0.77143 0.42747 0.0
C7 C 0.86857 0.8552 0.40887 0.0
C8 C 0.91415 0.87749 0.42179 0.0
C9 C 0.86464 0.80442 0.40825 0.0
C10 C 0.90625 0.776 0.41648 0.0
Eu11 Eu 1.00019 0.95636 0.43714 0.0
N12 N 0.91941 0.92667 0.42024 0.0
C13 C 0.82886 0.8845 0.39311 0.0
C14 C 0.88212 0.95451 0.39733 0.0
C15 C 0.83602 0.93432 0.38575 0.0
H16 H 0.07572 0.86302 0.45221 0.0
H17 H 0.80654 0.957 0.36869 0.0
H18 H 0.92237 0.12161 0.63362 0.0
H19 H 0.20378 0.04971 0.57489 0.0
H20 H 0.88808 0.99164 0.38366 0.0
H21 H 0.79337 0.86877 0.38263 0.0
H22 H 0.12442 0.00908 0.56874 0.0
H23 H 0.07347 0.77565 0.43354 0.0
H24 H 0.83 0.78682 0.39831 0.0
H25 H 0.90297 0.7369 0.4133 0.0
H26 H 0.9231 0.1997 0.69104 0.0
H27 H 0.9942 0.73267 0.41948 0.0
H28 H 0.20936 0.13427 0.6131 0.0
N29 N 0.99989 0.11732 0.62738 0.0
C30 C 0.04328 0.1398 0.63864 0.0
C31 C 0.95711 0.18368 0.67557 0.0
C32 C 0.04501 0.18632 0.66688 0.0
C33 C 0.95694 0.13937 0.64296 0.0
C34 C 1.00136 0.20721 0.68788 0.0
N35 N 0.08386 0.06921 0.60235 0.0
C36 C 0.12562 0.04539 0.58615 0.0
C37 C 0.13153 0.14039 0.62927 0.0
C38 C 0.08624 0.11595 0.62331 0.0
C39 C 0.17405 0.11641 0.61068 0.0
C40 C 0.17105 0.06869 0.58917 0.0
H41 H 1.0013 0.24214 0.71182 0.0
H42 H 0.09197 0.24626 0.69473 0.0
H43 H 0.1675 0.20705 0.6586 0.0
O44 O 0.0223 0.02937 0.7037 0.0
O45 O 0.03519 0.07208 0.50554 0.0
O46 O 0.06522 0.00783 0.44784 0.0
O47 O 0.94747 0.03991 0.66855 0.0
O48 O 0.04052 0.96114 0.60268 0.0
O49 O 0.06904 0.94735 0.49828 0.0
O50 O 0.98953 0.97931 0.33538 0.0
O51 O 0.96874 0.91874 0.52831 0.0
O52 O 0.93836 0.98524 0.57699 0.0
O53 O 0.03683 0.91924 0.35783 0.0
O54 O 0.95474 0.02625 0.43416 0.0
O55 O 0.94625 0.06731 0.53287 0.0
C56 C 0.06363 0.05468 0.45913 0.0
C57 C 0.95534 0.0398 0.78417 0.0
C58 C 0.95786 0.02342 0.9009 0.0
C59 C 0.90733 0.03191 0.90439 0.0
C60 C 0.90647 0.05426 0.7907 0.0
C61 C 0.88232 0.04884 0.85018 0.0
C62 C 0.98161 0.02598 0.83984 0.0
C63 C 0.06889 0.93781 0.5616 0.0
C64 C 0.97643 0.03659 0.71841 0.0
C65 C 0.09007 0.21021 0.67415 0.0
C66 C 0.13309 0.18778 0.65385 0.0
C67 C 0.94029 0.93782 0.57269 0.0
C68 C 0.05096 0.96041 0.25824 0.0
C69 C 0.05819 0.9802 0.14282 0.0
C70 C 0.10923 0.97953 0.14808 0.0
C71 C 0.10203 0.96098 0.26389 0.0
C72 C 0.02941 0.96989 0.19788 0.0
C73 C 0.131 0.97052 0.2087 0.0
C74 C 0.93536 0.06037 0.47114 0.0
C75 C 0.01874 0.94653 0.31238 0.0
H76 H 0.88713 0.02645 0.94954 0.0
H77 H 0.88592 0.06724 0.74898 0.0
H78 H 0.84388 0.05666 0.85415 0.0
H79 H 0.02006 0.01756 0.83565 0.0
H80 H 0.1321 0.98727 0.10584 0.0
H81 H 0.11941 0.95342 0.31035 0.0
H82 H 0.98993 0.96864 0.19357 0.0
H83 H 0.17035 0.97106 0.21289 0.0
Eu84 Eu 0.20763 0.75231 0.84888 0.0
C85 C 0.40908 0.71129 0.7057 0.0
N86 N 0.38604 0.75414 0.71517 0.0
C87 C 0.45976 0.78919 0.75708 0.0
C88 C 0.45793 0.70502 0.72548 0.0
C89 C 0.41126 0.79354 0.73707 0.0
C90 C 0.48281 0.74437 0.75283 0.0
C91 C 0.40558 0.62731 0.67091 0.0
C92 C 0.38263 0.67242 0.68077 0.0
C93 C 0.45431 0.62112 0.69012 0.0
C94 C 0.47999 0.65952 0.71886 0.0
Eu95 Eu 0.30114 0.75497 0.69458 0.0
N96 N 0.33398 0.6777 0.67024 0.0
C97 C 0.37826 0.58918 0.64459 0.0
C98 C 0.30794 0.64128 0.64173 0.0
C99 C 0.32938 0.5965 0.62892 0.0
H100 H 0.39416 0.82839 0.73892 0.0
H101 H 0.30813 0.56768 0.60697 0.0
H102 H 0.11264 0.67908 0.82196 0.0
H103 H 0.20946 0.94911 0.88967 0.0
H104 H 0.27106 0.64676 0.62712 0.0
H105 H 0.39455 0.55413 0.63597 0.0
H106 H 0.24291 0.86685 0.8919 0.0
H107 H 0.47934 0.82044 0.77553 0.0
H108 H 0.47215 0.58649 0.68422 0.0
H109 H 0.51723 0.65391 0.73477 0.0
H110 H 0.02602 0.68438 0.79035 0.0
H111 H 0.52033 0.74092 0.76865 0.0
H112 H 0.12362 0.96207 0.85718 0.0
N113 N 0.12253 0.7544 0.83136 0.0
C114 C 0.10109 0.79857 0.83198 0.0
C115 C 0.04669 0.71688 0.80156 0.0
C116 C 0.05132 0.80364 0.8156 0.0
C117 C 0.09587 0.71376 0.81863 0.0
C118 C 0.02442 0.76215 0.79923 0.0
N119 N 0.1785 0.83323 0.8558 0.0
C120 C 0.20629 0.8718 0.87496 0.0
C121 C 0.10903 0.88573 0.84218 0.0
C122 C 0.12993 0.83916 0.84397 0.0
C123 C 0.13838 0.92574 0.85745 0.0
C124 C 0.18694 0.91859 0.87529 0.0
H125 H 0.98642 0.76462 0.78511 0.0
H126 H 0.99303 0.85469 0.7983 0.0
H127 H 0.04368 0.92648 0.82012 0.0
O128 O 0.22151 0.765 0.95408 0.0
O129 O 0.17957 0.78006 0.74996 0.0
O130 O 0.24763 0.8166 0.70762 0.0
O131 O 0.16848 0.71022 0.92328 0.0
O132 O 0.28225 0.78879 0.8588 0.0
O133 O 0.30593 0.82183 0.75957 0.0
O134 O 0.28057 0.74889 0.5908 0.0
O135 O 0.32727 0.7154 0.78741 0.0
O136 O 0.25862 0.68808 0.84274 0.0
O137 O 0.3415 0.79582 0.62006 0.0
O138 O 0.23014 0.71178 0.68502 0.0
O139 O 0.20516 0.68398 0.78722 0.0
C140 C 0.20014 0.81015 0.70755 0.0
C141 C 0.1799 0.71751 0.04089 0.0
C142 C 0.19896 0.71906 0.15824 0.0
C143 C 0.16292 0.68341 0.16924 0.0
C144 C 0.14371 0.68225 0.05387 0.0
C145 C 0.13535 0.66546 0.11749 0.0
C146 C 0.20734 0.73626 0.09364 0.0
C147 C 0.30753 0.82086 0.82412 0.0
C148 C 0.1908 0.73094 0.97182 0.0
C149 C 0.03089 0.85002 0.81201 0.0
C150 C 0.05974 0.89093 0.82481 0.0
C151 C 0.30607 0.68825 0.83311 0.0
C152 C 0.32392 0.79302 0.50339 0.0
C153 C 0.30444 0.78973 0.38659 0.0
C154 C 0.3419 0.82372 0.37436 0.0
C155 C 0.36087 0.82708 0.48934 0.0
C156 C 0.2958 0.77392 0.45155 0.0
C157 C 0.36998 0.84204 0.42525 0.0
C158 C 0.20647 0.6804 0.72281 0.0
C159 C 0.31513 0.77879 0.57235 0.0
H160 H 0.15565 0.66982 0.21828 0.0
H161 H 0.12217 0.66697 1.01462 0.0
H162 H 0.10752 0.63811 0.12666 0.0
H163 H 0.2358 0.76304 0.08446 0.0
H164 H 0.34961 0.83625 0.32531 0.0
H165 H 0.38254 0.84252 0.52818 0.0
H166 H 0.26692 0.74779 0.46165 0.0
H167 H 0.3987 0.86825 0.415 0.0
Eu168 Eu 0.50977 0.97214 0.09908 0.0
C169 C 0.54694 0.15446 0.89848 0.0
N170 N 0.50395 0.13351 0.91734 0.0
C171 C 0.46188 0.20766 0.89768 0.0
C172 C 0.54905 0.20375 0.87983 0.0
C173 C 0.46202 0.15975 0.92011 0.0
C174 C 0.50559 0.23002 0.87815 0.0
C175 C 0.63516 0.14959 0.88927 0.0
C176 C 0.58947 0.12721 0.90131 0.0
C177 C 0.63725 0.19838 0.86922 0.0
C178 C 0.59427 0.22526 0.8639 0.0
Eu179 Eu 0.50597 0.04878 0.92957 0.0
N180 N 0.5865 0.08027 0.92208 0.0
C181 C 0.67752 0.12295 0.9008 0.0
C182 C 0.62774 0.05465 0.93478 0.0
C183 C 0.67381 0.07544 0.92432 0.0
H184 H 0.42801 0.14236 0.9343 0.0
H185 H 0.70639 0.05508 0.93543 0.0
H186 H 0.57323 0.86948 0.09584 0.0
H187 H 0.33132 0.00614 0.21169 0.0
H188 H 0.62527 0.01937 0.95669 0.0
H189 H 0.71317 0.13939 0.89435 0.0
H190 H 0.41218 0.02758 0.16988 0.0
H191 H 0.42795 0.2271 0.89483 0.0
H192 H 0.67201 0.216 0.85921 0.0
H193 H 0.59655 0.26307 0.84927 0.0
H194 H 0.56392 0.78608 0.1361 0.0
H195 H 0.50543 0.26766 0.86251 0.0
H196 H 0.3077 0.92003 0.22321 0.0
N197 N 0.49978 0.88851 0.11723 0.0
C198 C 0.45619 0.87378 0.14251 0.0
C199 C 0.53258 0.8095 0.13493 0.0
C200 C 0.44814 0.82481 0.16041 0.0
C201 C 0.5378 0.85712 0.11267 0.0
C202 C 0.4871 0.79259 0.15638 0.0
N203 N 0.43098 0.95577 0.143 0.0
C204 C 0.40068 0.99053 0.16694 0.0
C205 C 0.37565 0.8938 0.18324 0.0
C206 C 0.42063 0.90818 0.15484 0.0
C207 C 0.34228 0.9295 0.20072 0.0
C208 C 0.35534 0.97815 0.1939 0.0
H209 H 0.48297 0.75516 0.17213 0.0
H210 H 0.39528 0.77249 0.19769 0.0
H211 H 0.33105 0.83269 0.21431 0.0
O212 O 0.50993 0.995 0.20159 0.0
O213 O 0.46446 0.93613 1.018 0.0
O214 O 0.44063 0.99938 0.95012 0.0
O215 O 0.56704 0.9471 0.16526 0.0
O216 O 0.47735 0.0479 0.09686 0.0
O217 O 0.44044 0.0581 0.99636 0.0
O218 O 0.51917 0.02247 0.82966 0.0
O219 O 0.54245 0.08602 1.01605 0.0
O220 O 0.57282 0.0189 0.0648 0.0
O221 O 0.46866 0.08074 0.8467 0.0
O222 O 0.54672 0.97787 0.9223 0.0
O223 O 0.56166 0.94077 0.02372 0.0
C224 C 0.43901 0.95335 0.96803 0.0
C225 C 0.57017 0.96749 0.28058 0.0
C226 C 0.56231 0.97669 0.39832 0.0
C227 C 0.60816 0.95537 0.40683 0.0
C228 C 0.61625 0.94654 0.28965 0.0
C229 C 0.63518 0.94075 0.35255 0.0
C230 C 0.54355 0.98315 0.33521 0.0
C231 C 0.44391 0.06747 0.05925 0.0
C232 C 0.54824 0.96923 0.2151 0.0
C233 C 0.40251 0.81014 0.18519 0.0
C234 C 0.36611 0.8445 0.19547 0.0
C235 C 0.57005 0.06614 0.06122 0.0
C236 C 0.45858 0.03796 0.74846 0.0
C237 C 0.45353 0.01918 0.63279 0.0
C238 C 0.40246 0.01864 0.637 0.0
C239 C 0.40732 0.03761 0.75238 0.0
C240 C 0.48143 0.02875 0.68852 0.0
C241 C 0.37948 0.02791 0.69673 0.0
C242 C 0.56647 0.94421 0.95951 0.0
C243 C 0.48903 0.05337 0.80351 0.0
H244 H 0.62264 0.94944 0.4555 0.0
H245 H 0.6373 0.93389 0.24827 0.0
H246 H 0.67041 0.92402 0.35931 0.0
H247 H 0.50742 0.99828 0.3291 0.0
H248 H 0.38055 0.01129 0.59413 0.0
H249 H 0.38886 0.04545 0.79802 0.0
H250 H 0.52096 0.02962 0.68495 0.0
H251 H 0.34003 0.02797 0.69979 0.0
Eu252 Eu 0.21183 0.26099 0.19148 0.0
C253 C 0.39808 0.2645 0.41484 0.0
N254 N 0.37559 0.2266 0.38527 0.0
C255 C 0.44375 0.17556 0.40878 0.0
C256 C 0.44422 0.25904 0.44417 0.0
C257 C 0.39807 0.18283 0.38013 0.0
C258 C 0.46661 0.21362 0.44183 0.0
C259 C 0.39912 0.35014 0.44099 0.0
C260 C 0.3755 0.3093 0.41401 0.0
C261 C 0.44462 0.34471 0.47151 0.0
C262 C 0.46691 0.29916 0.47363 0.0
Eu263 Eu 0.29385 0.23918 0.35473 0.0
N264 N 0.33161 0.31342 0.38386 0.0
C265 C 0.37676 0.39541 0.43519 0.0
C266 C 0.31091 0.35779 0.37529 0.0
C267 C 0.3328 0.39935 0.40132 0.0
H268 H 0.37978 0.15283 0.35657 0.0
H269 H 0.31617 0.43445 0.39427 0.0
H270 H 0.13327 0.35433 0.19284 0.0
H271 H 0.17421 0.06744 0.16085 0.0
H272 H 0.27853 0.36166 0.34641 0.0
H273 H 0.39394 0.4277 0.45458 0.0
H274 H 0.22019 0.13821 0.20117 0.0
H275 H 0.46112 0.14054 0.40585 0.0
H276 H 0.46329 0.37567 0.4925 0.0
H277 H 0.50243 0.2957 0.49625 0.0
H278 H 0.05004 0.37095 0.15302 0.0
H279 H 0.50208 0.20795 0.46373 0.0
H280 H 0.09418 0.07923 0.10714 0.0
N281 N 0.12986 0.2793 0.16967 0.0
C282 C 0.10285 0.24235 0.14505 0.0
C283 C 0.06461 0.33468 0.15015 0.0
C284 C 0.05595 0.25056 0.11968 0.0
C285 C 0.11133 0.32496 0.17376 0.0
C286 C 0.03726 0.29743 0.1218 0.0
N287 N 0.16709 0.18919 0.1711 0.0
C288 C 0.18551 0.14366 0.17781 0.0
C289 C 0.09474 0.15679 0.12107 0.0
C290 C 0.12201 0.196 0.14573 0.0
C291 C 0.11408 0.11015 0.12574 0.0
C292 C 0.15923 0.10342 0.15567 0.0
H293 H 1.00107 0.30453 0.10352 0.0
H294 H 0.99367 0.21773 0.07149 0.0
H295 H 0.02993 0.1364 0.06844 0.0
O296 O 0.23687 0.24848 0.0907 0.0
O297 O 0.17359 0.22001 0.27488 0.0
O298 O 0.24198 0.18357 0.31136 0.0
O299 O 0.20536 0.31742 0.11712 0.0
O300 O 0.27661 0.21065 0.17879 0.0
O301 O 0.32021 0.19017 0.27339 0.0
O302 O 0.2656 0.24468 0.45481 0.0
O303 O 0.335 0.28163 0.27473 0.0
O304 O 0.26721 0.31442 0.23097 0.0
O305 O 0.29977 0.17838 0.42305 0.0
O306 O 0.22587 0.28618 0.36678 0.0
O307 O 0.19483 0.31714 0.26868 0.0
C308 C 0.19458 0.18851 0.31406 0.0
C309 C 0.19984 0.2951 1.00465 0.0
C310 C 0.20731 0.28491 0.88624 0.0
C311 C 0.1687 0.31724 0.87695 0.0
C312 C 0.1604 0.32648 0.99419 0.0
C313 C 0.14476 0.33701 0.93077 0.0
C314 C 0.22224 0.27321 0.95029 0.0
C315 C 0.31143 0.18719 0.20991 0.0
C316 C 0.22246 0.29085 0.07006 0.0
C317 C 0.02943 0.21195 0.09253 0.0
C318 C 0.04936 0.16542 0.0921 0.0
C319 C 0.31466 0.30893 0.22948 0.0
C320 C 0.30527 0.1973 0.53664 0.0
C321 C 0.30289 0.20942 0.65491 0.0
C322 C 0.34491 0.1812 0.66166 0.0
C323 C 0.34742 0.16908 0.54452 0.0
C324 C 0.28335 0.21774 0.59233 0.0
C325 C 0.36722 0.16145 0.60659 0.0
C326 C 0.19659 0.31487 0.33325 0.0
C327 C 0.28124 0.20194 0.47213 0.0
H328 H 0.15689 0.32687 0.82802 0.0
H329 H 0.14243 0.34406 0.03475 0.0
H330 H 0.11446 0.36126 0.92338 0.0
H331 H 0.25294 0.24922 0.95751 0.0
H332 H 0.36017 0.17418 0.70963 0.0
H333 H 0.36455 0.15185 0.50315 0.0
H334 H 0.25022 0.23867 0.58736 0.0
H335 H 0.39945 0.13938 0.61212 0.0
Eu336 Eu 0.70622 0.24775 0.34729 0.0
C337 C 0.901 0.19823 0.22234 0.0
N338 N 0.88406 0.24371 0.21156 0.0
C339 C 0.96255 0.27711 0.2347 0.0
C340 C 0.94913 0.19061 0.24382 0.0
C341 C 0.91417 0.28288 0.21601 0.0
C342 C 0.98019 0.23088 0.24958 0.0
C343 C 0.88415 0.11205 0.22974 0.0
C344 C 0.86903 0.15957 0.21492 0.0
C345 C 0.93122 0.10444 0.25499 0.0
C346 C 0.96396 0.14355 0.26086 0.0
Eu347 Eu 0.7996 0.25216 0.19537 0.0
N348 N 0.82273 0.16874 0.19455 0.0
C349 C 0.85206 0.07363 0.21668 0.0
C350 C 0.79359 0.13128 0.17491 0.0
C351 C 0.80733 0.08323 0.1868 0.0
H352 H 0.90071 0.31863 0.20502 0.0
H353 H 0.78344 0.05366 0.1728 0.0
H354 H 0.62201 0.16164 0.31416 0.0
H355 H 0.68402 0.44423 0.37558 0.0
H356 H 0.76021 0.13793 0.14901 0.0
H357 H 0.86244 0.03646 0.22648 0.0
H358 H 0.72978 0.36965 0.36071 0.0
H359 H 0.98591 0.30866 0.23726 0.0
H360 H 0.94324 0.06825 0.2677 0.0
H361 H 1.00052 0.13706 0.27881 0.0
H362 H 0.53414 0.15708 0.28878 0.0
H363 H 0.01767 0.22666 0.26524 0.0
H364 H 0.59384 0.44215 0.37253 0.0
N365 N 0.62182 0.23771 0.33037 0.0
C366 C 0.59449 0.27826 0.33693 0.0
C367 C 0.55071 0.19139 0.30195 0.0
C368 C 0.54381 0.27675 0.3256 0.0
C369 C 0.6006 0.19426 0.3154 0.0
C370 C 0.52231 0.233 0.30613 0.0
N371 N 0.66724 0.324 0.35314 0.0
C372 C 0.69093 0.36728 0.36125 0.0
C373 C 0.58994 0.36472 0.35732 0.0
C374 C 0.61762 0.32221 0.35075 0.0
C375 C 0.61407 0.40881 0.36767 0.0
C376 C 0.66485 0.41013 0.36908 0.0
H377 H 0.48367 0.23083 0.2953 0.0
H378 H 0.4772 0.31791 0.3263 0.0
H379 H 0.51782 0.39443 0.35967 0.0
O380 O 0.72548 0.25873 0.45145 0.0
O381 O 0.67945 0.28523 0.25467 0.0
O382 O 0.74855 0.31657 0.2058 0.0
O383 O 0.66673 0.2089 0.42393 0.0
O384 O 0.77557 0.29376 0.36015 0.0
O385 O 0.80975 0.31839 0.26022 0.0
O386 O 0.78577 0.23863 0.09021 0.0
O387 O 0.82476 0.2263 0.2965 0.0
O388 O 0.75773 0.18537 0.33317 0.0
O389 O 0.83755 0.29463 0.12036 0.0
O390 O 0.7251 0.21833 0.18296 0.0
O391 O 0.70656 0.18195 0.28132 0.0
C392 C 0.70079 0.31495 0.21263 0.0
C393 C 0.68106 0.21614 0.54042 0.0
C394 C 0.69933 0.22045 0.65736 0.0
C395 C 0.66007 0.18875 0.67034 0.0
C396 C 0.6419 0.1845 0.55501 0.0
C397 C 0.6315 0.17108 0.61947 0.0
C398 C 0.70958 0.23463 0.59216 0.0
C399 C 0.80519 0.32183 0.32465 0.0
C400 C 0.69147 0.22854 0.47108 0.0
C401 C 0.5163 0.31891 0.33329 0.0
C402 C 0.53919 0.36236 0.35133 0.0
C403 C 0.80487 0.1925 0.33383 0.0
C404 C 0.82602 0.28672 1.00283 0.0
C405 C 0.80744 0.28538 0.88545 0.0
C406 C 0.8434 0.32115 0.87471 0.0
C407 C 0.86152 0.3225 0.99013 0.0
C408 C 0.79899 0.26776 0.94987 0.0
C409 C 0.87039 0.33935 0.92672 0.0
C410 C 0.70017 0.18657 0.21791 0.0
C411 C 0.81555 0.2733 0.07206 0.0
H412 H 0.65151 0.17765 0.72012 0.0
H413 H 0.61918 0.16986 0.5165 0.0
H414 H 0.6013 0.14664 0.63001 0.0
H415 H 0.74003 0.25892 0.58187 0.0
H416 H 0.8507 0.33497 0.82579 0.0
H417 H 0.88178 0.3381 0.02988 0.0
H418 H 0.77067 0.24079 0.95876 0.0
H419 H 0.8979 0.36709 0.918 0.0
Eu420 Eu 0.71411 0.75741 0.68826 0.0
C421 C 0.89712 0.76509 0.90079 0.0
N422 N 0.87253 0.72552 0.87884 0.0
C423 C 0.94244 0.67585 0.89859 0.0
C424 C 0.94553 0.76133 0.92345 0.0
C425 C 0.89449 0.68136 0.87674 0.0
C426 C 0.96781 0.71586 0.92301 0.0
C427 C 0.89832 0.85126 0.92386 0.0
C428 C 0.87356 0.8094 0.90168 0.0
C429 C 0.94675 0.84777 0.94549 0.0
C430 C 0.97015 0.80285 0.94581 0.0
Eu431 Eu 0.7891 0.73634 0.85482 0.0
N432 N 0.82633 0.8115 0.88169 0.0
C433 C 0.87334 0.89525 0.92494 0.0
C434 C 0.80165 0.85401 0.88447 0.0
C435 C 0.82466 0.89655 0.90546 0.0
H436 H 0.87407 0.64975 0.8616 0.0
H437 H 0.80467 0.93021 0.90705 0.0
H438 H 0.6295 0.84466 0.69956 0.0
H439 H 0.68656 0.56212 0.65065 0.0
H440 H 0.76427 0.85521 0.87107 0.0
H441 H 0.89104 0.92811 0.94175 0.0
H442 H 0.73158 0.63475 0.68554 0.0
H443 H 0.95943 0.64058 0.89789 0.0
H444 H 0.96627 0.87952 0.96266 0.0
H445 H 0.00744 0.80067 0.96299 0.0
H446 H 0.54444 0.8573 0.66374 0.0
H447 H 0.00479 0.71141 0.94057 0.0
H448 H 0.60241 0.56974 0.6088 0.0
N449 N 0.63067 0.7709 0.67025 0.0
C450 C 0.60563 0.7332 0.64385 0.0
C451 C 0.56137 0.82233 0.65747 0.0
C452 C 0.55768 0.73924 0.62076 0.0
C453 C 0.60916 0.81483 0.67876 0.0
C454 C 0.53588 0.78461 0.6272 0.0
N455 N 0.67394 0.68335 0.6639 0.0
C456 C 0.69534 0.63887 0.66669 0.0
C457 C 0.60105 0.64751 0.6188 0.0
C458 C 0.62754 0.68803 0.64152 0.0
C459 C 0.62245 0.60181 0.62303 0.0
C460 C 0.66976 0.59742 0.64712 0.0
H461 H 0.49869 0.79015 0.61131 0.0
H462 H 0.49589 0.70381 0.57481 0.0
H463 H 0.53349 0.62312 0.5745 0.0
O464 O 0.7422 0.75009 0.58821 0.0
O465 O 0.67312 0.71429 0.76883 0.0
O466 O 0.73978 0.6781 0.81241 0.0
O467 O 0.70128 0.81362 0.6154 0.0
O468 O 0.78288 0.71246 0.67811 0.0
O469 O 0.80987 0.68093 0.77793 0.0
O470 O 0.7632 0.745 0.95555 0.0
O471 O 0.8331 0.77635 0.77477 0.0
O472 O 0.76743 0.81224 0.73008 0.0
O473 O 0.79807 0.67837 0.92672 0.0
O474 O 0.71532 0.77646 0.86073 0.0
O475 O 0.70458 0.81647 0.7624 0.0
C476 C 0.69231 0.68229 0.80934 0.0
C477 C 0.6968 0.78972 0.50434 0.0
C478 C 0.70115 0.77702 0.38655 0.0
C479 C 0.6557 0.79949 0.3793 0.0
C480 C 0.65084 0.81135 0.49632 0.0
C481 C 0.63048 0.81605 0.43409 0.0
C482 C 0.72139 0.77195 0.44926 0.0
C483 C 0.81035 0.68311 0.71316 0.0
C484 C 0.72192 0.7901 0.56804 0.0
C485 C 0.53264 0.6997 0.59336 0.0
C486 C 0.55401 0.65375 0.59326 0.0
C487 C 0.81467 0.8057 0.73052 0.0
C488 C 0.80733 0.70235 0.03757 0.0
C489 C 0.80645 0.71534 0.15541 0.0
C490 C 0.85159 0.69196 0.16062 0.0
C491 C 0.85229 0.6785 0.04385 0.0
C492 C 0.7852 0.72164 0.09353 0.0
C493 C 0.87456 0.67407 0.1049 0.0
C494 C 0.69238 0.8085 0.82365 0.0
C495 C 0.78064 0.70346 0.97494 0.0
H496 H 0.63969 0.80406 0.33125 0.0
H497 H 0.63109 0.82575 0.53769 0.0
H498 H 0.59543 0.83333 0.42821 0.0
H499 H 0.75707 0.75575 0.4549 0.0
H500 H 0.86876 0.6871 0.20789 0.0
H501 H 0.86979 0.66217 1.00222 0.0
H502 H 0.7503 0.73963 0.08932 0.0
H503 H 0.9091 0.65557 0.10927 0.0
Eu504 Eu 0.4994 0.53893 0.10229 0.0
C505 C 0.44188 0.35788 0.95204 0.0
N506 N 0.48783 0.37424 0.96513 0.0
C507 C 0.50599 0.3003 1.02142 0.0
C508 C 0.42604 0.31197 0.97472 0.0
C509 C 0.52078 0.34521 0.99587 0.0
C510 C 0.45837 0.28378 1.01144 0.0
C511 C 0.36123 0.37353 0.90858 0.0
C512 C 0.4091 0.38941 0.9225 0.0
C513 C 0.34618 0.3268 0.92796 0.0
C514 C 0.37801 0.29658 0.96246 0.0
Eu515 Eu 0.5036 0.45685 0.94179 0.0
N516 N 0.42326 0.43599 0.90978 0.0
C517 C 0.32922 0.40587 0.87827 0.0
C518 C 0.39337 0.46641 0.87584 0.0
C519 C 0.34568 0.45218 0.86066 0.0
H520 H 0.55769 0.35768 1.00358 0.0
H521 H 0.32166 0.47697 0.83542 0.0
H522 H 0.44066 0.63828 0.05227 0.0
H523 H 0.68385 0.5203 0.2018 0.0
H524 H 0.40616 0.50147 0.85936 0.0
H525 H 0.29182 0.3955 0.8682 0.0
H526 H 0.59985 0.49411 0.17814 0.0
H527 H 0.53075 0.279 0.05032 0.0
H528 H 0.30953 0.31439 0.91824 0.0
H529 H 0.36513 0.26139 0.97948 0.0
H530 H 0.46161 0.72215 1.01831 0.0
H531 H 0.44706 0.24904 0.03183 0.0
H532 H 0.71079 0.60375 0.17348 0.0
N533 N 0.51271 0.62198 0.0829 0.0
C534 C 0.55853 0.63899 0.09504 0.0
C535 C 0.48907 0.69909 0.03993 0.0
C536 C 0.57159 0.68701 0.07865 0.0
C537 C 0.47742 0.65162 0.05869 0.0
C538 C 0.53667 0.71633 0.04847 0.0
N539 N 0.58073 0.55979 0.12954 0.0
C540 C 0.61176 0.52953 0.16191 0.0
C541 C 0.64082 0.62405 0.1332 0.0
C542 C 0.59335 0.60709 0.11917 0.0
C543 C 0.67404 0.59203 0.16174 0.0
C544 C 0.65912 0.54479 0.17724 0.0
H545 H 0.54615 0.75243 0.03178 0.0
H546 H 0.63023 0.7403 0.07775 0.0
H547 H 0.68975 0.68589 0.12954 0.0
O548 O 0.50326 0.52073 0.20701 0.0
O549 O 0.53545 0.57071 1.00846 0.0
O550 O 0.56925 0.50439 0.96197 0.0
O551 O 0.45739 0.58045 0.17385 0.0
O552 O 0.53399 0.46381 0.10788 0.0
O553 O 0.57005 0.44969 1.00766 0.0
O554 O 0.50605 0.47781 0.83777 0.0
O555 O 0.46557 0.4271 0.03423 0.0
O556 O 0.43218 0.49197 0.08637 0.0
O557 O 0.54486 0.41337 0.87177 0.0
O558 O 0.46611 0.53067 0.93647 0.0
O559 O 0.43262 0.54721 0.03776 0.0
C560 C 0.56671 0.55145 0.96712 0.0
C561 C 0.45767 0.56354 0.29159 0.0
C562 C 0.46426 0.54722 0.40952 0.0
C563 C 0.4268 0.58072 0.42065 0.0
C564 C 0.42046 0.59687 0.3044 0.0
C565 C 0.4051 0.6052 0.36846 0.0
C566 C 0.47925 0.53843 0.34444 0.0
C567 C 0.56878 0.44472 0.07185 0.0
C568 C 0.47281 0.5546 0.22309 0.0
C569 C 0.61939 0.7035 0.09028 0.0
C570 C 0.65353 0.67239 0.11886 0.0
C571 C 0.43171 0.44582 0.07172 0.0
C572 C 0.55172 0.43297 0.75512 0.0
C573 C 0.55012 0.45019 0.637 0.0
C574 C 0.5872 0.41588 0.6282 0.0
C575 C 0.58926 0.39957 0.74469 0.0
C576 C 0.53242 0.45852 0.70101 0.0
C577 C 0.60682 0.3912 0.68169 0.0
C578 C 0.43313 0.55204 0.97358 0.0
C579 C 0.53417 0.44174 0.82264 0.0
H580 H 0.41466 0.58851 0.46997 0.0
H581 H 0.40295 0.61638 0.26483 0.0
H582 H 0.37634 0.63094 0.37774 0.0
H583 H 0.50727 0.51186 0.33496 0.0
H584 H 0.60063 0.40747 0.57972 0.0
H585 H 0.60524 0.37993 0.78533 0.0
H586 H 0.50393 0.48493 0.70865 0.0
H587 H 0.63557 0.36515 0.67417 0.0
Eu588 Eu 1.00336 0.45614 0.60793 0.0
C589 C 0.07445 0.64011 0.46246 0.0
N590 N 0.02923 0.62343 0.48017 0.0
C591 C 0.01624 0.69378 0.54566 0.0
C592 C 0.0923 0.68453 0.48674 0.0
C593 C 0.99892 0.65112 0.51727 0.0
C594 C 0.06354 0.70997 0.53151 0.0
C595 C 0.15236 0.62638 0.40844 0.0
C596 C 0.10545 0.60974 0.42734 0.0
C597 C 0.16835 0.67266 0.42755 0.0
C598 C 0.13902 0.70101 0.46815 0.0
Eu599 Eu 0.0107 0.54356 0.44693 0.0
N600 N 0.09166 0.56284 0.41695 0.0
C601 C 0.18292 0.59496 0.37422 0.0
C602 C 0.12128 0.53207 0.38356 0.0
C603 C 0.16721 0.54767 0.36155 0.0
H604 H 0.96187 0.64003 0.52656 0.0
H605 H 0.19046 0.5232 0.33478 0.0
H606 H 0.07664 0.36259 0.57557 0.0
H607 H 0.81745 0.45535 0.70202 0.0
H608 H 0.10884 0.49604 0.37155 0.0
H609 H 0.21897 0.60659 0.35835 0.0
H610 H 0.89562 0.4926 0.66668 0.0
H611 H 0.99289 0.71452 0.57762 0.0
H612 H 0.20442 0.68575 0.41417 0.0
H613 H 0.15309 0.73536 0.4857 0.0
H614 H 0.06912 0.27556 0.56025 0.0
H615 H 0.07688 0.7431 0.55362 0.0
H616 H 0.80294 0.36756 0.68598 0.0
N617 N 1.00039 0.37278 0.58854 0.0
C618 C 0.9562 0.351 0.5986 0.0
C619 C 0.03646 0.29648 0.56628 0.0
C620 C 0.9498 0.30112 0.58734 0.0
C621 C 0.04078 0.34611 0.57583 0.0
C622 C 0.99042 0.27431 0.56785 0.0
N623 N 0.9239 0.42721 0.62875 0.0
C624 C 0.88892 0.45474 0.6575 0.0
C625 C 0.87329 0.35578 0.64033 0.0
C626 C 0.91762 0.37849 0.62218 0.0
C627 C 0.83722 0.38376 0.67032 0.0
C628 C 0.84507 0.43347 0.67881 0.0
H629 H 0.98727 0.23583 0.55871 0.0
H630 H 0.89794 0.2413 0.58894 0.0
H631 H 0.8319 0.28844 0.63913 0.0
O632 O 0.99016 0.47769 0.70946 0.0
O633 O 0.95525 0.43438 0.52057 0.0
O634 O 0.94249 0.49745 0.44629 0.0
O635 O 0.03261 0.41371 0.68915 0.0
O636 O 0.97569 0.53316 0.60787 0.0
O637 O 0.94243 0.55335 0.50874 0.0
O638 O 0.02228 0.53333 0.34239 0.0
O639 O 0.05401 0.56455 0.53899 0.0
O640 O 0.0745 0.49762 0.60175 0.0
O641 O 0.97479 0.59061 0.37471 0.0
O642 O 0.03636 0.46547 0.44391 0.0
O643 O 0.07062 0.44686 0.54354 0.0
C644 C 0.93316 0.45384 0.46948 0.0
C645 C 0.04438 0.45108 0.79296 0.0
C646 C 0.0487 0.47699 0.90698 0.0
C647 C 0.09887 0.4673 0.90714 0.0
C648 C 0.09459 0.44105 0.79424 0.0
C649 C 0.12161 0.44937 0.85102 0.0
C650 C 0.02152 0.46857 0.84987 0.0
C651 C 0.9402 0.55188 0.57323 0.0
C652 C 0.01465 0.44165 0.73421 0.0
C653 C 0.904 0.27935 0.59911 0.0
C654 C 0.8663 0.30624 0.62744 0.0
C655 C 0.08008 0.54336 0.58502 0.0
C656 C 0.96266 0.5583 0.2666 0.0
C657 C 0.95746 0.53653 0.15079 0.0
C658 C 0.90648 0.54017 0.15434 0.0
C659 C 0.91158 0.56189 0.26906 0.0
C660 C 0.98539 0.54575 0.20702 0.0
C661 C 0.88378 0.55301 0.21305 0.0
C662 C 0.07043 0.44475 0.4792 0.0
C663 C 0.99341 0.5681 0.32452 0.0
H664 H 0.12026 0.47303 0.95092 0.0
H665 H 0.11305 0.42728 0.75135 0.0
H666 H 0.16031 0.44184 0.85159 0.0
H667 H 0.98257 0.47531 0.84991 0.0
H668 H 0.8843 0.53314 0.1116 0.0
H669 H 0.89317 0.57154 0.31405 0.0
H670 H 0.0248 0.54266 0.20455 0.0
H671 H 0.84443 0.556 0.21519 0.0
C672 C 0.13527 0.07108 0.38123 0.0
C673 C 0.09844 0.08862 0.4235 0.0
C674 C 0.16742 0.10297 0.3469 0.0
C675 C 0.16333 0.15371 0.35238 0.0
H676 H 0.1394 0.03245 0.37453 0.0
H677 H 0.19478 0.08784 0.31478 0.0
S678 S 0.07636 0.21835 0.45688 0.0
N679 N 0.06284 0.16086 0.47023 0.0
N680 N 0.12163 0.21953 0.40399 0.0
C681 C 0.12748 0.17139 0.39436 0.0
C682 C 0.0956 0.13933 0.4303 0.0
C683 C 0.08554 0.86915 0.63802 0.0
C684 C 0.10324 0.90189 0.59045 0.0
C685 C 0.11692 0.83781 0.67169 0.0
C686 C 0.16796 0.84 0.66356 0.0
H687 H 0.04684 0.86749 0.64917 0.0
H688 H 0.10072 0.81168 0.70455 0.0
S689 S 0.23217 0.91335 0.53583 0.0
N690 N 0.17434 0.92898 0.52833 0.0
N691 N 0.23394 0.87329 0.59636 0.0
C692 C 0.186 0.87076 0.61324 0.0
C693 C 0.15354 0.90105 0.57601 0.0
C694 C 0.3648 0.89461 0.8297 0.0
C695 C 0.34017 0.85557 0.86097 0.0
C696 C 0.39624 0.92603 0.86464 0.0
C697 C 0.40417 0.92034 0.93254 0.0
H698 H 0.35996 0.90102 0.77779 0.0
H699 H 0.41517 0.95458 0.83796 0.0
S700 S 0.34326 0.82866 0.0394 0.0
N701 N 0.3233 0.81615 0.96566 0.0
N702 N 0.38071 0.87534 0.02997 0.0
C703 C 0.37839 0.88276 0.96449 0.0
C704 C 0.34676 0.85065 0.92923 0.0
C705 C 0.42731 0.13414 0.1381 0.0
C706 C 0.40978 0.10147 0.0908 0.0
C707 C 0.39519 0.16128 0.17677 0.0
C708 C 0.34433 0.15688 0.16948 0.0
H709 H 0.46623 0.13808 0.14608 0.0
H710 H 0.4103 0.18608 0.21242 0.0
S711 S 0.28027 0.07273 0.05674 0.0
N712 N 0.33874 0.0637 0.042 0.0
N713 N 0.27835 0.11567 0.11248 0.0
C714 C 0.32653 0.12446 0.12194 0.0
C715 C 0.35925 0.09655 0.08308 0.0
C716 C 0.90794 0.85405 0.60493 0.0
C717 C 0.90773 0.90492 0.61415 0.0
C718 C 0.87858 0.82215 0.64319 0.0
C719 C 0.84739 0.8395 0.69247 0.0
H720 H 0.93104 0.83841 0.56775 0.0
H721 H 0.87973 0.78363 0.63336 0.0
S722 S 0.83211 0.96787 0.73844 0.0
N723 N 0.87265 0.97002 0.67842 0.0
N724 N 0.81797 0.91014 0.74889 0.0
C725 C 0.84659 0.88974 0.70246 0.0
C726 C 0.87656 0.92232 0.66391 0.0
C727 C 0.85373 0.08064 0.4219 0.0
C728 C 0.90114 0.09518 0.44003 0.0
C729 C 0.82228 0.11241 0.38857 0.0
C730 C 0.83678 0.16027 0.37327 0.0
H731 H 0.84041 0.04471 0.43414 0.0
H732 H 0.78673 0.09909 0.37375 0.0
S733 S 0.95295 0.21902 0.42154 0.0
N734 N 0.95825 0.16248 0.44769 0.0
N735 N 0.89898 0.22244 0.38662 0.0
C736 C 0.88271 0.17615 0.39509 0.0
C737 C 0.91478 0.14369 0.42845 0.0
C738 C 0.6551 0.10762 0.19864 0.0
C739 C 0.66398 0.15655 0.18235 0.0
C740 C 0.62478 0.07841 0.15928 0.0
C741 C 0.60153 0.09743 0.10317 0.0
H742 H 0.67298 0.09142 0.24057 0.0
H743 H 0.61987 0.04066 0.17271 0.0
S744 S 0.61334 0.22392 0.04082 0.0
N745 N 0.64738 0.22269 0.10691 0.0
N746 N 0.58928 0.16917 0.03543 0.0
C747 C 0.6093 0.14678 0.08809 0.0
C748 C 0.64077 0.17594 0.12701 0.0
C749 C 0.67202 0.89171 0.86241 0.0
C750 C 0.65857 0.8428 0.8557 0.0
C751 C 0.64265 0.92397 0.89721 0.0
C752 C 0.59814 0.90891 0.92583 0.0
H753 H 0.70552 0.90547 0.84071 0.0
H754 H 0.65537 0.96083 0.90092 0.0
S755 S 0.53876 0.78943 0.90258 0.0
N756 N 0.59255 0.78421 0.86665 0.0
N757 N 0.53763 0.84449 0.9337 0.0
C758 C 0.5824 0.86116 0.91498 0.0
C759 C 0.6124 0.82827 0.87925 0.0
C760 C 0.59396 0.63419 0.92653 0.0
C761 C 0.5988 0.58347 0.92469 0.0
C762 C 0.62447 0.6654 0.88966 0.0
C763 C 0.6602 0.6477 0.84692 0.0
H764 H 0.56601 0.65015 0.95632 0.0
H765 H 0.62085 0.70378 0.89611 0.0
S766 S 0.685 0.51781 0.81638 0.0
N767 N 0.64101 0.51679 0.8719 0.0
N768 N 0.69729 0.57566 0.8019 0.0
C769 C 0.66486 0.59704 0.84269 0.0
C770 C 0.63416 0.56499 0.88105 0.0
C771 C 0.6175 0.34478 0.18141 0.0
C772 C 0.6687 0.34829 0.17398 0.0
C773 C 0.5858 0.37613 0.14843 0.0
C774 C 0.60356 0.41122 0.10412 0.0
H775 H 0.60127 0.31745 0.21289 0.0
H776 H 0.54688 0.37232 0.15698 0.0
S777 S 0.73351 0.43484 0.06289 0.0
N778 N 0.73527 0.39012 0.11712 0.0
N779 N 0.67516 0.44733 0.05249 0.0
C780 C 0.65426 0.41438 0.09392 0.0
C781 C 0.68691 0.38333 0.12926 0.0
C782 C 0.90773 0.41209 0.36643 0.0
C783 C 0.89817 0.42334 0.43226 0.0
C784 C 0.87683 0.38072 0.3312 0.0
C785 C 0.83577 0.35827 0.3608 0.0
H786 H 0.93977 0.42714 0.34221 0.0
H787 H 0.88574 0.37379 0.28075 0.0
S788 S 0.78835 0.38614 0.52674 0.0
N789 N 0.83948 0.41807 0.5208 0.0
N790 N 0.78419 0.35559 0.45812 0.0
C791 C 0.82487 0.37133 0.42594 0.0
C792 C 0.85537 0.4046 0.46076 0.0
C793 C 0.88424 0.63018 0.70583 0.0
C794 C 0.84205 0.64888 0.6765 0.0
C795 C 0.91512 0.59858 0.67237 0.0
C796 C 0.90533 0.58415 0.60766 0.0
H797 H 0.89443 0.64082 0.75452 0.0
H798 H 0.94746 0.58605 0.6975 0.0
S799 S 0.79867 0.62122 0.50841 0.0
N800 N 0.79168 0.64982 0.57839 0.0
N801 N 0.8495 0.59001 0.51589 0.0
C802 C 0.86309 0.60217 0.57757 0.0
C803 C 0.83163 0.63464 0.61171 0.0
C804 C 0.33462 0.35261 0.12349 0.0
C805 C 0.34523 0.34394 0.18998 0.0
C806 C 0.36183 0.38624 0.08553 0.0
C807 C 0.40097 0.41247 0.1123 0.0
H808 H 0.30535 0.33305 0.10029 0.0
H809 H 0.35136 0.39259 0.0355 0.0
S810 S 0.4376 0.4116 0.28553 0.0
N811 N 0.3949 0.36921 0.28173 0.0
N812 N 0.44475 0.43268 0.21054 0.0
C813 C 0.41062 0.40594 0.17887 0.0
C814 C 0.3834 0.37142 0.21748 0.0
C815 C 0.41114 0.60468 0.8786 0.0
C816 C 0.39933 0.58717 0.94139 0.0
C817 C 0.38105 0.63727 0.8457 0.0
C818 C 0.33703 0.65387 0.87202 0.0
H819 H 0.44435 0.59352 0.85423 0.0
H820 H 0.39271 0.64912 0.79885 0.0
S821 S 0.29062 0.62327 0.03839 0.0
N822 N 0.34146 0.59179 0.03193 0.0
N823 N 0.2845 0.6527 0.96817 0.0
C824 C 0.32485 0.6376 0.93567 0.0
C825 C 0.35607 0.60455 0.97053 0.0
C826 C 0.17496 0.64033 0.62093 0.0
C827 C 0.17682 0.64182 0.68982 0.0
C828 C 0.14691 0.60552 0.58836 0.0
C829 C 0.11526 0.57394 0.62199 0.0
H830 H 0.19554 0.66601 0.59121 0.0
H831 H 0.15029 0.60328 0.53635 0.0
S832 S 0.10447 0.56324 0.80205 0.0
N833 N 0.14811 0.60384 0.79069 0.0
N834 N 0.08642 0.54677 0.72843 0.0
C835 C 0.11617 0.5749 0.69063 0.0
C836 C 0.14856 0.60716 0.72447 0.0
C837 C 0.18391 0.38239 0.41444 0.0
C838 C 0.16436 0.34753 0.37138 0.0
C839 C 0.15354 0.41324 0.45074 0.0
C840 C 0.10255 0.40957 0.44625 0.0
H841 H 0.22277 0.3866 0.42001 0.0
H842 H 0.17002 0.44074 0.48133 0.0
S843 S 0.03329 0.31798 0.35362 0.0
N844 N 0.09063 0.30787 0.33316 0.0
N845 N 0.03392 0.36431 0.40387 0.0
C846 C 0.08263 0.37333 0.40661 0.0
C847 C 0.11338 0.34268 0.36863 0.0
C848 C 0.02148 0.97814 0.96453 0.0
C849 C 0.98536 0.01399 0.96169 0.0
C850 C 0.0459 0.96792 0.02305 0.0
C851 C 0.03425 0.99279 0.08065 0.0
H852 H 0.03008 0.95704 0.92194 0.0
H853 H 0.07295 0.9395 0.02369 0.0
S854 S 0.94402 0.09129 0.09778 0.0
N855 N 0.94217 0.07692 1.01999 0.0
N856 N 0.98499 0.05528 0.13117 0.0
C857 C 0.99858 0.029 0.07826 0.0
C858 C 0.975 0.04029 1.01847 0.0
C859 C 0.27428 0.72215 0.31488 0.0
C860 C 0.27496 0.77167 0.33066 0.0
C861 C 0.25045 0.70552 0.25833 0.0
C862 C 0.22689 0.73788 0.21521 0.0
H863 H 0.29297 0.69623 0.34582 0.0
H864 H 0.25066 0.66706 0.24801 0.0
S865 S 0.21411 0.87017 0.23825 0.0
N866 N 0.24695 0.85224 0.30147 0.0
N867 N 0.20324 0.82115 0.19465 0.0
C868 C 0.22669 0.78726 0.23115 0.0
C869 C 0.2503 0.80406 0.28908 0.0
C870 C 0.49988 0.04619 0.53348 0.0
C871 C 0.47827 0.00858 0.5707 0.0
C872 C 0.52622 0.03595 0.47625 0.0
C873 C 0.53217 0.98785 0.45581 0.0
H874 H 0.49676 0.08349 0.5491 0.0
H875 H 0.54287 0.06553 0.4487 0.0
S876 S 0.48197 0.87746 0.53551 0.0
N877 N 0.46362 0.92213 0.58273 0.0
N878 N 0.5136 0.9029 0.47535 0.0
C879 C 0.5102 0.95029 0.49214 0.0
C880 C 0.48311 0.96067 0.54975 0.0
C881 C 0.26039 0.29534 0.78701 0.0
C882 C 0.23266 0.26475 0.82857 0.0
C883 C 0.28309 0.2773 0.73059 0.0
C884 C 0.27833 0.22821 0.71384 0.0
H885 H 0.26439 0.33343 0.7981 0.0
H886 H 0.30451 0.30176 0.69998 0.0
S887 S 0.20668 0.13431 0.80333 0.0
N888 N 0.19991 0.18381 0.84737 0.0
N889 N 0.24253 0.14986 0.74128 0.0
C890 C 0.25037 0.19746 0.75451 0.0
C891 C 0.22748 0.21577 0.81194 0.0
C892 C 0.75487 0.30129 0.78751 0.0
C893 C 0.77895 0.26782 0.82848 0.0
C894 C 0.73057 0.28621 0.73064 0.0
C895 C 0.72955 0.23714 0.71292 0.0
H896 H 0.75478 0.33946 0.79966 0.0
H897 H 0.71173 0.31288 0.70111 0.0
S898 S 0.79131 0.1363 0.79859 0.0
N899 N 0.80318 0.18411 0.84423 0.0
N900 N 0.75719 0.15582 0.73762 0.0
C901 C 0.75432 0.20362 0.75247 0.0
C902 C 0.779 0.21889 0.81026 0.0
C903 C 0.73914 0.79356 0.27729 0.0
C904 C 0.72828 0.76058 0.32829 0.0
C905 C 0.76456 0.77877 0.22134 0.0
C906 C 0.78009 0.73061 0.21488 0.0
H907 H 0.72819 0.8311 0.28098 0.0
H908 H 0.77247 0.8052 0.18315 0.0
S909 S 0.75706 0.62954 0.33192 0.0
N910 N 0.73271 0.67729 0.36734 0.0
N911 N 0.78035 0.64944 0.26194 0.0
C912 C 0.76888 0.69721 0.2651 0.0
C913 C 0.74308 0.71224 0.32199 0.0
C914 C 0.47835 0.48025 0.57234 0.0
C915 C 0.52923 0.47592 0.57901 0.0
C916 C 0.45781 0.50268 0.51714 0.0
C917 C 0.48722 0.52195 0.46633 0.0
H918 H 0.45406 0.46543 0.60953 0.0
H919 H 0.41841 0.50466 0.5141 0.0
S920 S 0.62266 0.52487 0.46324 0.0
N921 N 0.6087 0.49527 0.53142 0.0
N922 N 0.57004 0.53851 0.42887 0.0
C923 C 0.53817 0.51874 0.47293 0.0
C924 C 0.55913 0.4955 0.52885 0.0
C925 C 0.02818 0.54082 0.98966 0.0
C926 C 0.02438 0.49263 0.96802 0.0
C927 C 0.00678 0.55501 0.04928 0.0
C928 C 0.98107 0.52136 0.08883 0.0
H929 H 0.0478 0.56756 0.96039 0.0
H930 H 0.01006 0.59245 0.06436 0.0
S931 S 0.96361 0.39108 0.05516 0.0
N932 N 0.99473 0.41142 0.99124 0.0
N933 N 0.95463 0.43794 0.1032 0.0
C934 C 0.97751 0.47323 0.0677 0.0
C935 C 0.99914 0.4589 1.00728 0.0
loop_
_geom_bond_atom_site_label_1
_geom_bond_atom_site_label_2
_geom_bond_distance
_geom_bond_site_symmetry_2
_ccdc_geom_bond_type
Eu0 N29 2.600 . S
Eu0 N35 2.562 1_655 S
Eu0 O44 2.462 1_655 S
Eu0 O45 2.373 1_655 S
Eu0 O47 2.432 . S
Eu0 O48 2.291 1_645 S
Eu0 O52 2.335 1_545 S
Eu0 O55 2.372 . S
Eu0 C64 2.787 . S
C1 N2 1.365 1_655 S
C1 C4 1.405 . S
C1 C8 1.448 . S
N2 C1 1.365 1_455 S
N2 C5 1.319 . S
N2 Eu11 2.600 . S
C3 C5 1.397 . S
C3 C6 1.367 . S
C3 H23 0.931 . S
C4 C1 1.405 . S
C4 C6 1.403 1_655 S
C4 C10 1.439 . S
C5 N2 1.319 . S
C5 C3 1.397 . S
C5 H16 0.930 . S
C6 C3 1.367 . S
C6 C4 1.403 1_455 S
C6 H27 0.929 . S
C7 C8 1.430 . S
C7 C9 1.387 . S
C7 C13 1.404 . S
C8 C1 1.448 . S
C8 C7 1.430 . S
C8 N12 1.351 . S
C9 C7 1.387 . S
C9 C10 1.374 . S
C9 H24 0.931 . S
C10 C4 1.439 . S
C10 C9 1.374 . S
C10 H25 0.931 . S
Eu11 N2 2.600 . S
Eu11 N12 2.562 1_455 S
Eu11 O46 2.335 1_565 S
Eu11 O49 2.372 . S
Eu11 O50 2.462 1_455 S
Eu11 O51 2.373 1_455 S
Eu11 O53 2.432 . S
Eu11 O54 2.291 1_465 S
Eu11 C75 2.787 . S
N12 C8 1.351 . S
N12 Eu11 2.562 1_655 S
N12 C14 1.325 . S
C13 C7 1.404 . S
C13 C15 1.366 . S
C13 H21 0.930 . S
C14 N12 1.325 . S
C14 C15 1.416 . S
C14 H20 0.929 . S
C15 C13 1.366 . S
C15 C14 1.416 . S
C15 H17 0.930 . S
H16 C5 0.930 . S
H17 C15 0.930 . S
H18 C33 0.930 . S
H19 C40 0.930 . S
H20 C14 0.929 . S
H21 C13 0.930 . S
H22 C36 0.929 . S
H23 C3 0.931 . S
H24 C9 0.931 . S
H25 C10 0.931 . S
H26 C31 0.931 . S
H27 C6 0.929 . S
H28 C39 0.930 . S
N29 Eu0 2.600 . S
N29 C30 1.365 1_655 S
N29 C33 1.319 . S
C30 N29 1.365 1_455 S
C30 C32 1.405 . S
C30 C38 1.448 . S
C31 H26 0.931 . S
C31 C33 1.397 . S
C31 C34 1.367 . S
C32 C30 1.405 . S
C32 C34 1.403 1_455 S
C32 C65 1.439 . S
C33 H18 0.930 . S
C33 N29 1.319 . S
C33 C31 1.397 . S
C34 C31 1.367 . S
C34 C32 1.403 1_655 S
C34 H41 0.929 . S
N35 Eu0 2.562 1_455 S
N35 C36 1.325 . S
N35 C38 1.351 . S
C36 H22 0.929 . S
C36 N35 1.325 . S
C36 C40 1.416 . S
C37 C38 1.430 . S
C37 C39 1.404 . S
C37 C66 1.387 . S
C38 C30 1.448 . S
C38 N35 1.351 . S
C38 C37 1.430 . S
C39 H28 0.930 . S
C39 C37 1.404 . S
C39 C40 1.366 . S
C40 H19 0.930 . S
C40 C36 1.416 . S
C40 C39 1.366 . S
H41 C34 0.929 . S
H42 C65 0.931 . S
H43 C66 0.931 . S
O44 Eu0 2.462 1_455 S
O44 C64 1.252 1_455 S
O45 Eu0 2.373 1_455 S
O45 C56 1.249 . S
O46 Eu11 2.335 1_545 S
O46 C56 1.264 . S
O47 Eu0 2.432 . S
O47 C64 1.268 . S
O48 Eu0 2.291 1_465 S
O48 C63 1.255 . S
O49 Eu11 2.372 . S
O49 C63 1.257 . S
O50 Eu11 2.462 1_655 S
O50 C75 1.252 1_655 S
O51 Eu11 2.373 1_655 S
O51 C67 1.249 . S
O52 Eu0 2.335 1_565 S
O52 C67 1.264 . S
O53 Eu11 2.432 . S
O53 C75 1.268 . S
O54 Eu11 2.291 1_645 S
O54 C74 1.255 . S
O55 Eu0 2.372 . S
O55 C74 1.257 . S
C56 O45 1.249 . S
C56 O46 1.264 . S
C57 C60 1.382 . S
C57 C62 1.390 . S
C57 C64 1.506 . S
C58 C59 1.398 . S
C58 C62 1.392 . S
C59 C58 1.398 . S
C59 C61 1.372 . S
C59 H76 0.931 . S
C60 C57 1.382 . S
C60 C61 1.390 . S
C60 H77 0.931 . S
C61 C59 1.372 . S
C61 C60 1.390 . S
C61 H78 0.929 . S
C62 C57 1.390 . S
C62 C58 1.392 . S
C62 H79 0.930 1_645 S
C63 O48 1.255 . S
C63 O49 1.257 . S
C64 Eu0 2.787 . S
C64 O44 1.252 1_655 S
C64 O47 1.268 . S
C64 C57 1.506 . S
C65 C32 1.439 . S
C65 H42 0.931 . S
C65 C66 1.374 . S
C66 C37 1.387 . S
C66 H43 0.931 . S
C66 C65 1.374 . S
C67 O51 1.249 . S
C67 O52 1.264 . S
C68 C71 1.382 . S
C68 C72 1.390 . S
C68 C75 1.506 . S
C69 C70 1.398 . S
C69 C72 1.392 . S
C70 C69 1.398 . S
C70 C73 1.372 . S
C70 H80 0.931 . S
C71 C68 1.382 . S
C71 C73 1.390 . S
C71 H81 0.931 . S
C72 C68 1.390 . S
C72 C69 1.392 . S
C72 H82 0.930 1_465 S
C73 C70 1.372 . S
C73 C71 1.390 . S
C73 H83 0.929 . S
C74 O54 1.255 . S
C74 O55 1.257 . S
C75 Eu11 2.787 . S
C75 O50 1.252 1_455 S
C75 O53 1.268 . S
C75 C68 1.506 . S
H76 C59 0.931 . S
H77 C60 0.931 . S
H78 C61 0.929 . S
H79 C62 0.930 1_465 S
H80 C70 0.931 . S
H81 C71 0.931 . S
H82 C72 0.930 1_645 S
H83 C73 0.929 . S
Eu84 N113 2.600 . S
Eu84 N119 2.562 . S
Eu84 O128 2.462 . S
Eu84 O129 2.373 . S
Eu84 O131 2.432 . S
Eu84 O132 2.291 . S
Eu84 O136 2.335 . S
Eu84 O139 2.372 . S
Eu84 C148 2.787 . S
C85 N86 1.365 . S
C85 C88 1.405 . S
C85 C92 1.448 . S
N86 C85 1.365 . S
N86 C89 1.319 . S
N86 Eu95 2.600 . S
C87 C89 1.397 . S
C87 C90 1.367 . S
C87 H107 0.931 . S
C88 C85 1.405 . S
C88 C90 1.403 . S
C88 C94 1.439 . S
C89 N86 1.319 . S
C89 C87 1.397 . S
C89 H100 0.930 . S
C90 C87 1.367 . S
C90 C88 1.403 . S
C90 H111 0.929 . S
C91 C92 1.430 . S
C91 C93 1.387 . S
C91 C97 1.404 . S
C92 C85 1.448 . S
C92 C91 1.430 . S
C92 N96 1.351 . S
C93 C91 1.387 . S
C93 C94 1.374 . S
C93 H108 0.931 . S
C94 C88 1.439 . S
C94 C93 1.374 . S
C94 H109 0.931 . S
Eu95 N86 2.600 . S
Eu95 N96 2.562 . S
Eu95 O130 2.335 . S
Eu95 O133 2.372 . S
Eu95 O134 2.462 . S
Eu95 O135 2.373 . S
Eu95 O137 2.432 . S
Eu95 O138 2.291 . S
Eu95 C159 2.787 . S
N96 C92 1.351 . S
N96 Eu95 2.562 . S
N96 C98 1.325 . S
C97 C91 1.404 . S
C97 C99 1.366 . S
C97 H105 0.930 . S
C98 N96 1.325 . S
C98 C99 1.416 . S
C98 H104 0.929 . S
C99 C97 1.366 . S
C99 C98 1.416 . S
C99 H101 0.930 . S
H100 C89 0.930 . S
H101 C99 0.930 . S
H102 C117 0.930 . S
H103 C124 0.930 . S
H104 C98 0.929 . S
H105 C97 0.930 . S
H106 C120 0.929 . S
H107 C87 0.931 . S
H108 C93 0.931 . S
H109 C94 0.931 . S
H110 C115 0.931 . S
H111 C90 0.929 . S
H112 C123 0.930 . S
N113 Eu84 2.600 . S
N113 C114 1.365 . S
N113 C117 1.319 . S
C114 N113 1.365 . S
C114 C116 1.405 . S
C114 C122 1.448 . S
C115 H110 0.931 . S
C115 C117 1.397 . S
C115 C118 1.367 . S
C116 C114 1.405 . S
C116 C118 1.403 . S
C116 C149 1.439 . S
C117 H102 0.930 . S
C117 N113 1.319 . S
C117 C115 1.397 . S
C118 C115 1.367 . S
C118 C116 1.403 . S
C118 H125 0.929 1_455 S
N119 Eu84 2.562 . S
N119 C120 1.325 . S
N119 C122 1.351 . S
C120 H106 0.929 . S
C120 N119 1.325 . S
C120 C124 1.416 . S
C121 C122 1.430 . S
C121 C123 1.404 . S
C121 C150 1.387 . S
C122 C114 1.448 . S
C122 N119 1.351 . S
C122 C121 1.430 . S
C123 H112 0.930 . S
C123 C121 1.404 . S
C123 C124 1.366 . S
C124 H103 0.930 . S
C124 C120 1.416 . S
C124 C123 1.366 . S
H125 C118 0.929 1_655 S
H126 C149 0.931 1_655 S
H127 C150 0.931 . S
O128 Eu84 2.462 . S
O128 C148 1.252 . S
O129 Eu84 2.373 . S
O129 C140 1.249 . S
O130 Eu95 2.335 . S
O130 C140 1.264 . S
O131 Eu84 2.432 . S
O131 C148 1.268 . S
O132 Eu84 2.291 . S
O132 C147 1.255 . S
O133 Eu95 2.372 . S
O133 C147 1.257 . S
O134 Eu95 2.462 . S
O134 C159 1.252 . S
O135 Eu95 2.373 . S
O135 C151 1.249 . S
O136 Eu84 2.335 . S
O136 C151 1.264 . S
O137 Eu95 2.432 . S
O137 C159 1.268 . S
O138 Eu95 2.291 . S
O138 C158 1.255 . S
O139 Eu84 2.372 . S
O139 C158 1.257 . S
C140 O129 1.249 . S
C140 O130 1.264 . S
C141 C144 1.382 . S
C141 C146 1.390 . S
C141 C148 1.506 1_554 S
C142 C143 1.398 . S
C142 C146 1.392 . S
C143 C142 1.398 . S
C143 C145 1.372 . S
C143 H160 0.931 . S
C144 C141 1.382 . S
C144 C145 1.390 . S
C144 H161 0.931 . S
C145 C143 1.372 . S
C145 C144 1.390 . S
C145 H162 0.929 . S
C146 C141 1.390 . S
C146 C142 1.392 . S
C146 H163 0.930 . S
C147 O132 1.255 . S
C147 O133 1.257 . S
C148 Eu84 2.787 . S
C148 O128 1.252 . S
C148 O131 1.268 . S
C148 C141 1.506 1_556 S
C149 C116 1.439 . S
C149 H126 0.931 1_455 S
C149 C150 1.374 . S
C150 C121 1.387 . S
C150 H127 0.931 . S
C150 C149 1.374 . S
C151 O135 1.249 . S
C151 O136 1.264 . S
C152 C155 1.382 . S
C152 C156 1.390 . S
C152 C159 1.506 . S
C153 C154 1.398 . S
C153 C156 1.392 . S
C154 C153 1.398 . S
C154 C157 1.372 . S
C154 H164 0.931 . S
C155 C152 1.382 . S
C155 C157 1.390 . S
C155 H165 0.931 . S
C156 C152 1.390 . S
C156 C153 1.392 . S
C156 H166 0.930 . S
C157 C154 1.372 . S
C157 C155 1.390 . S
C157 H167 0.929 . S
C158 O138 1.255 . S
C158 O139 1.257 . S
C159 Eu95 2.787 . S
C159 O134 1.252 . S
C159 O137 1.268 . S
C159 C152 1.506 . S
H160 C143 0.931 . S
H161 C144 0.931 . S
H162 C145 0.929 . S
H163 C146 0.930 . S
H164 C154 0.931 . S
H165 C155 0.931 . S
H166 C156 0.930 . S
H167 C157 0.929 . S
Eu168 N197 2.600 . S
Eu168 N203 2.562 . S
Eu168 O212 2.462 . S
Eu168 O213 2.373 1_554 S
Eu168 O215 2.432 . S
Eu168 O216 2.291 1_565 S
Eu168 O220 2.335 1_565 S
Eu168 O223 2.372 . S
Eu168 C232 2.787 . S
C169 N170 1.365 . S
C169 C172 1.405 . S
C169 C176 1.448 . S
N170 C169 1.365 . S
N170 C173 1.319 . S
N170 Eu179 2.600 . S
C171 C173 1.397 . S
C171 C174 1.367 . S
C171 H191 0.931 . S
C172 C169 1.405 . S
C172 C174 1.403 . S
C172 C178 1.439 . S
C173 N170 1.319 . S
C173 C171 1.397 . S
C173 H184 0.930 . S
C174 C171 1.367 . S
C174 C172 1.403 . S
C174 H195 0.929 . S
C175 C176 1.430 . S
C175 C177 1.387 . S
C175 C181 1.404 . S
C176 C169 1.448 . S
C176 C175 1.430 . S
C176 N180 1.351 . S
C177 C175 1.387 . S
C177 C178 1.374 . S
C177 H192 0.931 . S
C178 C172 1.439 . S
C178 C177 1.374 . S
C178 H193 0.931 . S
Eu179 N170 2.600 . S
Eu179 N180 2.562 . S
Eu179 O214 2.335 1_545 S
Eu179 O217 2.372 . S
Eu179 O218 2.462 . S
Eu179 O219 2.373 1_556 S
Eu179 O221 2.432 . S
Eu179 O222 2.291 1_545 S
Eu179 C243 2.787 . S
N180 C176 1.351 . S
N180 Eu179 2.562 . S
N180 C182 1.325 . S
C181 C175 1.404 . S
C181 C183 1.366 . S
C181 H189 0.930 . S
C182 N180 1.325 . S
C182 C183 1.416 . S
C182 H188 0.929 . S
C183 C181 1.366 . S
C183 C182 1.416 . S
C183 H185 0.930 . S
H184 C173 0.930 . S
H185 C183 0.930 . S
H186 C201 0.930 . S
H187 C208 0.930 . S
H188 C182 0.929 . S
H189 C181 0.930 . S
H190 C204 0.929 . S
H191 C171 0.931 . S
H192 C177 0.931 . S
H193 C178 0.931 . S
H194 C199 0.931 . S
H195 C174 0.929 . S
H196 C207 0.930 . S
N197 Eu168 2.600 . S
N197 C198 1.365 . S
N197 C201 1.319 . S
C198 N197 1.365 . S
C198 C200 1.405 . S
C198 C206 1.448 . S
C199 H194 0.931 . S
C199 C201 1.397 . S
C199 C202 1.367 . S
C200 C198 1.405 . S
C200 C202 1.403 . S
C200 C233 1.439 . S
C201 H186 0.930 . S
C201 N197 1.319 . S
C201 C199 1.397 . S
C202 C199 1.367 . S
C202 C200 1.403 . S
C202 H209 0.929 . S
N203 Eu168 2.562 . S
N203 C204 1.325 . S
N203 C206 1.351 . S
C204 H190 0.929 . S
C204 N203 1.325 . S
C204 C208 1.416 . S
C205 C206 1.430 . S
C205 C207 1.404 . S
C205 C234 1.387 . S
C206 C198 1.448 . S
C206 N203 1.351 . S
C206 C205 1.430 . S
C207 H196 0.930 . S
C207 C205 1.404 . S
C207 C208 1.366 . S
C208 H187 0.930 . S
C208 C204 1.416 . S
C208 C207 1.366 . S
H209 C202 0.929 . S
H210 C233 0.931 . S
H211 C234 0.931 . S
O212 Eu168 2.462 . S
O212 C232 1.252 . S
O213 Eu168 2.373 1_556 S
O213 C224 1.249 . S
O214 Eu179 2.335 1_565 S
O214 C224 1.264 . S
O215 Eu168 2.432 . S
O215 C232 1.268 . S
O216 Eu168 2.291 1_545 S
O216 C231 1.255 . S
O217 Eu179 2.372 . S
O217 C231 1.257 1_556 S
O218 Eu179 2.462 . S
O218 C243 1.252 . S
O219 Eu179 2.373 1_554 S
O219 C235 1.249 . S
O220 Eu168 2.335 1_545 S
O220 C235 1.264 . S
O221 Eu179 2.432 . S
O221 C243 1.268 . S
O222 Eu179 2.291 1_565 S
O222 C242 1.255 . S
O223 Eu168 2.372 . S
O223 C242 1.257 1_554 S
C224 O213 1.249 . S
C224 O214 1.264 . S
C225 C228 1.382 . S
C225 C230 1.390 . S
C225 C232 1.506 . S
C226 C227 1.398 . S
C226 C230 1.392 . S
C227 C226 1.398 . S
C227 C229 1.372 . S
C227 H244 0.931 . S
C228 C225 1.382 . S
C228 C229 1.390 . S
C228 H245 0.931 . S
C229 C227 1.372 . S
C229 C228 1.390 . S
C229 H246 0.929 . S
C230 C225 1.390 . S
C230 C226 1.392 . S
C230 H247 0.930 1_565 S
C231 O216 1.255 . S
C231 O217 1.257 1_554 S
C232 Eu168 2.787 . S
C232 O212 1.252 . S
C232 O215 1.268 . S
C232 C225 1.506 . S
C233 C200 1.439 . S
C233 H210 0.931 . S
C233 C234 1.374 . S
C234 C205 1.387 . S
C234 H211 0.931 . S
C234 C233 1.374 . S
C235 O219 1.249 . S
C235 O220 1.264 . S
C236 C239 1.382 . S
C236 C240 1.390 . S
C236 C243 1.506 . S
C237 C238 1.398 . S
C237 C240 1.392 . S
C238 C237 1.398 . S
C238 C241 1.372 . S
C238 H248 0.931 . S
C239 C236 1.382 . S
C239 C241 1.390 . S
C239 H249 0.931 . S
C240 C236 1.390 . S
C240 C237 1.392 . S
C240 H250 0.930 1_545 S
C241 C238 1.372 . S
C241 C239 1.390 . S
C241 H251 0.929 . S
C242 O222 1.255 . S
C242 O223 1.257 1_556 S
C243 Eu179 2.787 . S
C243 O218 1.252 . S
C243 O221 1.268 . S
C243 C236 1.506 . S
H244 C227 0.931 . S
H245 C228 0.931 . S
H246 C229 0.929 . S
H247 C230 0.930 1_545 S
H248 C238 0.931 . S
H249 C239 0.931 . S
H250 C240 0.930 1_565 S
H251 C241 0.929 . S
Eu252 N281 2.600 . S
Eu252 N287 2.562 . S
Eu252 O296 2.462 . S
Eu252 O297 2.373 . S
Eu252 O299 2.432 . S
Eu252 O300 2.291 . S
Eu252 O304 2.335 . S
Eu252 O307 2.372 . S
Eu252 C316 2.787 . S
C253 N254 1.365 . S
C253 C256 1.405 . S
C253 C260 1.448 . S
N254 C253 1.365 . S
N254 C257 1.319 . S
N254 Eu263 2.600 . S
C255 C257 1.397 . S
C255 C258 1.367 . S
C255 H275 0.931 . S
C256 C253 1.405 . S
C256 C258 1.403 . S
C256 C262 1.439 . S
C257 N254 1.319 . S
C257 C255 1.397 . S
C257 H268 0.930 . S
C258 C255 1.367 . S
C258 C256 1.403 . S
C258 H279 0.929 . S
C259 C260 1.430 . S
C259 C261 1.387 . S
C259 C265 1.404 . S
C260 C253 1.448 . S
C260 C259 1.430 . S
C260 N264 1.351 . S
C261 C259 1.387 . S
C261 C262 1.374 . S
C261 H276 0.931 . S
C262 C256 1.439 . S
C262 C261 1.374 . S
C262 H277 0.931 . S
Eu263 N254 2.600 . S
Eu263 N264 2.562 . S
Eu263 O298 2.335 . S
Eu263 O301 2.372 . S
Eu263 O302 2.462 . S
Eu263 O303 2.373 . S
Eu263 O305 2.432 . S
Eu263 O306 2.291 . S
Eu263 C327 2.787 . S
N264 C260 1.351 . S
N264 Eu263 2.562 . S
N264 C266 1.325 . S
C265 C259 1.404 . S
C265 C267 1.366 . S
C265 H273 0.930 . S
C266 N264 1.325 . S
C266 C267 1.416 . S
C266 H272 0.929 . S
C267 C265 1.366 . S
C267 C266 1.416 . S
C267 H269 0.930 . S
H268 C257 0.930 . S
H269 C267 0.930 . S
H270 C285 0.930 . S
H271 C292 0.930 . S
H272 C266 0.929 . S
H273 C265 0.930 . S
H274 C288 0.929 . S
H275 C255 0.931 . S
H276 C261 0.931 . S
H277 C262 0.931 . S
H278 C283 0.931 . S
H279 C258 0.929 . S
H280 C291 0.930 . S
N281 Eu252 2.600 . S
N281 C282 1.365 . S
N281 C285 1.319 . S
C282 N281 1.365 . S
C282 C284 1.405 . S
C282 C290 1.448 . S
C283 H278 0.931 . S
C283 C285 1.397 . S
C283 C286 1.367 . S
C284 C282 1.405 . S
C284 C286 1.403 . S
C284 C317 1.439 . S
C285 H270 0.930 . S
C285 N281 1.319 . S
C285 C283 1.397 . S
C286 C283 1.367 . S
C286 C284 1.403 . S
C286 H293 0.929 1_455 S
N287 Eu252 2.562 . S
N287 C288 1.325 . S
N287 C290 1.351 . S
C288 H274 0.929 . S
C288 N287 1.325 . S
C288 C292 1.416 . S
C289 C290 1.430 . S
C289 C291 1.404 . S
C289 C318 1.387 . S
C290 C282 1.448 . S
C290 N287 1.351 . S
C290 C289 1.430 . S
C291 H280 0.930 . S
C291 C289 1.404 . S
C291 C292 1.366 . S
C292 H271 0.930 . S
C292 C288 1.416 . S
C292 C291 1.366 . S
H293 C286 0.929 1_655 S
H294 C317 0.931 1_655 S
H295 C318 0.931 . S
O296 Eu252 2.462 . S
O296 C316 1.252 . S
O297 Eu252 2.373 . S
O297 C308 1.249 . S
O298 Eu263 2.335 . S
O298 C308 1.264 . S
O299 Eu252 2.432 . S
O299 C316 1.268 . S
O300 Eu252 2.291 . S
O300 C315 1.255 . S
O301 Eu263 2.372 . S
O301 C315 1.257 . S
O302 Eu263 2.462 . S
O302 C327 1.252 . S
O303 Eu263 2.373 . S
O303 C319 1.249 . S
O304 Eu252 2.335 . S
O304 C319 1.264 . S
O305 Eu263 2.432 . S
O305 C327 1.268 . S
O306 Eu263 2.291 . S
O306 C326 1.255 . S
O307 Eu252 2.372 . S
O307 C326 1.257 . S
C308 O297 1.249 . S
C308 O298 1.264 . S
C309 C312 1.382 . S
C309 C314 1.390 . S
C309 C316 1.506 1_556 S
C310 C311 1.398 . S
C310 C314 1.392 . S
C311 C310 1.398 . S
C311 C313 1.372 . S
C311 H328 0.931 . S
C312 C309 1.382 . S
C312 C313 1.390 . S
C312 H329 0.931 . S
C313 C311 1.372 . S
C313 C312 1.390 . S
C313 H330 0.929 . S
C314 C309 1.390 . S
C314 C310 1.392 . S
C314 H331 0.930 . S
C315 O300 1.255 . S
C315 O301 1.257 . S
C316 Eu252 2.787 . S
C316 O296 1.252 . S
C316 O299 1.268 . S
C316 C309 1.506 1_554 S
C317 C284 1.439 . S
C317 H294 0.931 1_455 S
C317 C318 1.374 . S
C318 C289 1.387 . S
C318 H295 0.931 . S
C318 C317 1.374 . S
C319 O303 1.249 . S
C319 O304 1.264 . S
C320 C323 1.382 . S
C320 C324 1.390 . S
C320 C327 1.506 . S
C321 C322 1.398 . S
C321 C324 1.392 . S
C322 C321 1.398 . S
C322 C325 1.372 . S
C322 H332 0.931 . S
C323 C320 1.382 . S
C323 C325 1.390 . S
C323 H333 0.931 . S
C324 C320 1.390 . S
C324 C321 1.392 . S
C324 H334 0.930 . S
C325 C322 1.372 . S
C325 C323 1.390 . S
C325 H335 0.929 . S
C326 O306 1.255 . S
C326 O307 1.257 . S
C327 Eu263 2.787 . S
C327 O302 1.252 . S
C327 O305 1.268 . S
C327 C320 1.506 . S
H328 C311 0.931 . S
H329 C312 0.931 . S
H330 C313 0.929 . S
H331 C314 0.930 . S
H332 C322 0.931 . S
H333 C323 0.931 . S
H334 C324 0.930 . S
H335 C325 0.929 . S
Eu336 N365 2.600 . S
Eu336 N371 2.562 . S
Eu336 O380 2.462 . S
Eu336 O381 2.373 . S
Eu336 O383 2.432 . S
Eu336 O384 2.291 . S
Eu336 O388 2.335 . S
Eu336 O391 2.372 . S
Eu336 C400 2.787 . S
C337 N338 1.365 . S
C337 C340 1.405 . S
C337 C344 1.448 . S
N338 C337 1.365 . S
N338 C341 1.319 . S
N338 Eu347 2.600 . S
C339 C341 1.397 . S
C339 C342 1.367 . S
C339 H359 0.931 . S
C340 C337 1.405 . S
C340 C342 1.403 . S
C340 C346 1.439 . S
C341 N338 1.319 . S
C341 C339 1.397 . S
C341 H352 0.930 . S
C342 C339 1.367 . S
C342 C340 1.403 . S
C342 H363 0.929 1_655 S
C343 C344 1.430 . S
C343 C345 1.387 . S
C343 C349 1.404 . S
C344 C337 1.448 . S
C344 C343 1.430 . S
C344 N348 1.351 . S
C345 C343 1.387 . S
C345 C346 1.374 . S
C345 H360 0.931 . S
C346 C340 1.439 . S
C346 C345 1.374 . S
C346 H361 0.931 1_655 S
Eu347 N338 2.600 . S
Eu347 N348 2.562 . S
Eu347 O382 2.335 . S
Eu347 O385 2.372 . S
Eu347 O386 2.462 . S
Eu347 O387 2.373 . S
Eu347 O389 2.432 . S
Eu347 O390 2.291 . S
Eu347 C411 2.787 . S
N348 C344 1.351 . S
N348 Eu347 2.562 . S
N348 C350 1.325 . S
C349 C343 1.404 . S
C349 C351 1.366 . S
C349 H357 0.930 . S
C350 N348 1.325 . S
C350 C351 1.416 . S
C350 H356 0.929 . S
C351 C349 1.366 . S
C351 C350 1.416 . S
C351 H353 0.930 . S
H352 C341 0.930 . S
H353 C351 0.930 . S
H354 C369 0.930 . S
H355 C376 0.930 . S
H356 C350 0.929 . S
H357 C349 0.930 . S
H358 C372 0.929 . S
H359 C339 0.931 . S
H360 C345 0.931 . S
H361 C346 0.931 1_455 S
H362 C367 0.931 . S
H363 C342 0.929 1_455 S
H364 C375 0.930 . S
N365 Eu336 2.600 . S
N365 C366 1.365 . S
N365 C369 1.319 . S
C366 N365 1.365 . S
C366 C368 1.405 . S
C366 C374 1.448 . S
C367 H362 0.931 . S
C367 C369 1.397 . S
C367 C370 1.367 . S
C368 C366 1.405 . S
C368 C370 1.403 . S
C368 C401 1.439 . S
C369 H354 0.930 . S
C369 N365 1.319 . S
C369 C367 1.397 . S
C370 C367 1.367 . S
C370 C368 1.403 . S
C370 H377 0.929 . S
N371 Eu336 2.562 . S
N371 C372 1.325 . S
N371 C374 1.351 . S
C372 H358 0.929 . S
C372 N371 1.325 . S
C372 C376 1.416 . S
C373 C374 1.430 . S
C373 C375 1.404 . S
C373 C402 1.387 . S
C374 C366 1.448 . S
C374 N371 1.351 . S
C374 C373 1.430 . S
C375 H364 0.930 . S
C375 C373 1.404 . S
C375 C376 1.366 . S
C376 H355 0.930 . S
C376 C372 1.416 . S
C376 C375 1.366 . S
H377 C370 0.929 . S
H378 C401 0.931 . S
H379 C402 0.931 . S
O380 Eu336 2.462 . S
O380 C400 1.252 . S
O381 Eu336 2.373 . S
O381 C392 1.249 . S
O382 Eu347 2.335 . S
O382 C392 1.264 . S
O383 Eu336 2.432 . S
O383 C400 1.268 . S
O384 Eu336 2.291 . S
O384 C399 1.255 . S
O385 Eu347 2.372 . S
O385 C399 1.257 . S
O386 Eu347 2.462 . S
O386 C411 1.252 . S
O387 Eu347 2.373 . S
O387 C403 1.249 . S
O388 Eu336 2.335 . S
O388 C403 1.264 . S
O389 Eu347 2.432 . S
O389 C411 1.268 . S
O390 Eu347 2.291 . S
O390 C410 1.255 . S
O391 Eu336 2.372 . S
O391 C410 1.257 . S
C392 O381 1.249 . S
C392 O382 1.264 . S
C393 C396 1.382 . S
C393 C398 1.390 . S
C393 C400 1.506 . S
C394 C395 1.398 . S
C394 C398 1.392 . S
C395 C394 1.398 . S
C395 C397 1.372 . S
C395 H412 0.931 . S
C396 C393 1.382 . S
C396 C397 1.390 . S
C396 H413 0.931 . S
C397 C395 1.372 . S
C397 C396 1.390 . S
C397 H414 0.929 . S
C398 C393 1.390 . S
C398 C394 1.392 . S
C398 H415 0.930 . S
C399 O384 1.255 . S
C399 O385 1.257 . S
C400 Eu336 2.787 . S
C400 O380 1.252 . S
C400 O383 1.268 . S
C400 C393 1.506 . S
C401 C368 1.439 . S
C401 H378 0.931 . S
C401 C402 1.374 . S
C402 C373 1.387 . S
C402 H379 0.931 . S
C402 C401 1.374 . S
C403 O387 1.249 . S
C403 O388 1.264 . S
C404 C407 1.382 . S
C404 C408 1.390 . S
C404 C411 1.506 1_556 S
C405 C406 1.398 . S
C405 C408 1.392 . S
C406 C405 1.398 . S
C406 C409 1.372 . S
C406 H416 0.931 . S
C407 C404 1.382 . S
C407 C409 1.390 . S
C407 H417 0.931 . S
C408 C404 1.390 . S
C408 C405 1.392 . S
C408 H418 0.930 . S
C409 C406 1.372 . S
C409 C407 1.390 . S
C409 H419 0.929 . S
C410 O390 1.255 . S
C410 O391 1.257 . S
C411 Eu347 2.787 . S
C411 O386 1.252 . S
C411 O389 1.268 . S
C411 C404 1.506 1_554 S
H412 C395 0.931 . S
H413 C396 0.931 . S
H414 C397 0.929 . S
H415 C398 0.930 . S
H416 C406 0.931 . S
H417 C407 0.931 . S
H418 C408 0.930 . S
H419 C409 0.929 . S
Eu420 N449 2.600 . S
Eu420 N455 2.562 . S
Eu420 O464 2.462 . S
Eu420 O465 2.373 . S
Eu420 O467 2.432 . S
Eu420 O468 2.291 . S
Eu420 O472 2.335 . S
Eu420 O475 2.372 . S
Eu420 C484 2.787 . S
C421 N422 1.365 . S
C421 C424 1.405 . S
C421 C428 1.448 . S
N422 C421 1.365 . S
N422 C425 1.319 . S
N422 Eu431 2.600 . S
C423 C425 1.397 . S
C423 C426 1.367 . S
C423 H443 0.931 . S
C424 C421 1.405 . S
C424 C426 1.403 . S
C424 C430 1.439 . S
C425 N422 1.319 . S
C425 C423 1.397 . S
C425 H436 0.930 . S
C426 C423 1.367 . S
C426 C424 1.403 . S
C426 H447 0.929 1_655 S
C427 C428 1.430 . S
C427 C429 1.387 . S
C427 C433 1.404 . S
C428 C421 1.448 . S
C428 C427 1.430 . S
C428 N432 1.351 . S
C429 C427 1.387 . S
C429 C430 1.374 . S
C429 H444 0.931 . S
C430 C424 1.439 . S
C430 C429 1.374 . S
C430 H445 0.931 1_655 S
Eu431 N422 2.600 . S
Eu431 N432 2.562 . S
Eu431 O466 2.335 . S
Eu431 O469 2.372 . S
Eu431 O470 2.462 . S
Eu431 O471 2.373 . S
Eu431 O473 2.432 . S
Eu431 O474 2.291 . S
Eu431 C495 2.787 . S
N432 C428 1.351 . S
N432 Eu431 2.562 . S
N432 C434 1.325 . S
C433 C427 1.404 . S
C433 C435 1.366 . S
C433 H441 0.930 . S
C434 N432 1.325 . S
C434 C435 1.416 . S
C434 H440 0.929 . S
C435 C433 1.366 . S
C435 C434 1.416 . S
C435 H437 0.930 . S
H436 C425 0.930 . S
H437 C435 0.930 . S
H438 C453 0.930 . S
H439 C460 0.930 . S
H440 C434 0.929 . S
H441 C433 0.930 . S
H442 C456 0.929 . S
H443 C423 0.931 . S
H444 C429 0.931 . S
H445 C430 0.931 1_455 S
H446 C451 0.931 . S
H447 C426 0.929 1_455 S
H448 C459 0.930 . S
N449 Eu420 2.600 . S
N449 C450 1.365 . S
N449 C453 1.319 . S
C450 N449 1.365 . S
C450 C452 1.405 . S
C450 C458 1.448 . S
C451 H446 0.931 . S
C451 C453 1.397 . S
C451 C454 1.367 . S
C452 C450 1.405 . S
C452 C454 1.403 . S
C452 C485 1.439 . S
C453 H438 0.930 . S
C453 N449 1.319 . S
C453 C451 1.397 . S
C454 C451 1.367 . S
C454 C452 1.403 . S
C454 H461 0.929 . S
N455 Eu420 2.562 . S
N455 C456 1.325 . S
N455 C458 1.351 . S
C456 H442 0.929 . S
C456 N455 1.325 . S
C456 C460 1.416 . S
C457 C458 1.430 . S
C457 C459 1.404 . S
C457 C486 1.387 . S
C458 C450 1.448 . S
C458 N455 1.351 . S
C458 C457 1.430 . S
C459 H448 0.930 . S
C459 C457 1.404 . S
C459 C460 1.366 . S
C460 H439 0.930 . S
C460 C456 1.416 . S
C460 C459 1.366 . S
H461 C454 0.929 . S
H462 C485 0.931 . S
H463 C486 0.931 . S
O464 Eu420 2.462 . S
O464 C484 1.252 . S
O465 Eu420 2.373 . S
O465 C476 1.249 . S
O466 Eu431 2.335 . S
O466 C476 1.264 . S
O467 Eu420 2.432 . S
O467 C484 1.268 . S
O468 Eu420 2.291 . S
O468 C483 1.255 . S
O469 Eu431 2.372 . S
O469 C483 1.257 . S
O470 Eu431 2.462 . S
O470 C495 1.252 . S
O471 Eu431 2.373 . S
O471 C487 1.249 . S
O472 Eu420 2.335 . S
O472 C487 1.264 . S
O473 Eu431 2.432 . S
O473 C495 1.268 . S
O474 Eu431 2.291 . S
O474 C494 1.255 . S
O475 Eu420 2.372 . S
O475 C494 1.257 . S
C476 O465 1.249 . S
C476 O466 1.264 . S
C477 C480 1.382 . S
C477 C482 1.390 . S
C477 C484 1.506 . S
C478 C479 1.398 . S
C478 C482 1.392 . S
C479 C478 1.398 . S
C479 C481 1.372 . S
C479 H496 0.931 . S
C480 C477 1.382 . S
C480 C481 1.390 . S
C480 H497 0.931 . S
C481 C479 1.372 . S
C481 C480 1.390 . S
C481 H498 0.929 . S
C482 C477 1.390 . S
C482 C478 1.392 . S
C482 H499 0.930 . S
C483 O468 1.255 . S
C483 O469 1.257 . S
C484 Eu420 2.787 . S
C484 O464 1.252 . S
C484 O467 1.268 . S
C484 C477 1.506 . S
C485 C452 1.439 . S
C485 H462 0.931 . S
C485 C486 1.374 . S
C486 C457 1.387 . S
C486 H463 0.931 . S
C486 C485 1.374 . S
C487 O471 1.249 . S
C487 O472 1.264 . S
C488 C491 1.382 . S
C488 C492 1.390 . S
C488 C495 1.506 1_554 S
C489 C490 1.398 . S
C489 C492 1.392 . S
C490 C489 1.398 . S
C490 C493 1.372 . S
C490 H500 0.931 . S
C491 C488 1.382 . S
C491 C493 1.390 . S
C491 H501 0.931 . S
C492 C488 1.390 . S
C492 C489 1.392 . S
C492 H502 0.930 . S
C493 C490 1.372 . S
C493 C491 1.390 . S
C493 H503 0.929 . S
C494 O474 1.255 . S
C494 O475 1.257 . S
C495 Eu431 2.787 . S
C495 O470 1.252 . S
C495 O473 1.268 . S
C495 C488 1.506 1_556 S
H496 C479 0.931 . S
H497 C480 0.931 . S
H498 C481 0.929 . S
H499 C482 0.930 . S
H500 C490 0.931 . S
H501 C491 0.931 . S
H502 C492 0.930 . S
H503 C493 0.929 . S
Eu504 N533 2.600 . S
Eu504 N539 2.562 . S
Eu504 O548 2.462 . S
Eu504 O549 2.373 1_554 S
Eu504 O551 2.432 . S
Eu504 O552 2.291 . S
Eu504 O556 2.335 . S
Eu504 O559 2.372 . S
Eu504 C568 2.787 . S
C505 N506 1.365 . S
C505 C508 1.405 . S
C505 C512 1.448 . S
N506 C505 1.365 . S
N506 C509 1.319 . S
N506 Eu515 2.600 . S
C507 C509 1.397 . S
C507 C510 1.367 . S
C507 H527 0.931 . S
C508 C505 1.405 . S
C508 C510 1.403 . S
C508 C514 1.439 . S
C509 N506 1.319 . S
C509 C507 1.397 . S
C509 H520 0.930 . S
C510 C507 1.367 . S
C510 C508 1.403 . S
C510 H531 0.929 . S
C511 C512 1.430 . S
C511 C513 1.387 . S
C511 C517 1.404 . S
C512 C505 1.448 . S
C512 C511 1.430 . S
C512 N516 1.351 . S
C513 C511 1.387 . S
C513 C514 1.374 . S
C513 H528 0.931 . S
C514 C508 1.439 . S
C514 C513 1.374 . S
C514 H529 0.931 . S
Eu515 N506 2.600 . S
Eu515 N516 2.562 . S
Eu515 O550 2.335 . S
Eu515 O553 2.372 . S
Eu515 O554 2.462 . S
Eu515 O555 2.373 1_556 S
Eu515 O557 2.432 . S
Eu515 O558 2.291 . S
Eu515 C579 2.787 . S
N516 C512 1.351 . S
N516 Eu515 2.562 . S
N516 C518 1.325 . S
C517 C511 1.404 . S
C517 C519 1.366 . S
C517 H525 0.930 . S
C518 N516 1.325 . S
C518 C519 1.416 . S
C518 H524 0.929 . S
C519 C517 1.366 . S
C519 C518 1.416 . S
C519 H521 0.930 . S
H520 C509 0.930 . S
H521 C519 0.930 . S
H522 C537 0.930 . S
H523 C544 0.930 . S
H524 C518 0.929 . S
H525 C517 0.930 . S
H526 C540 0.929 . S
H527 C507 0.931 . S
H528 C513 0.931 . S
H529 C514 0.931 . S
H530 C535 0.931 . S
H531 C510 0.929 . S
H532 C543 0.930 . S
N533 Eu504 2.600 . S
N533 C534 1.365 . S
N533 C537 1.319 . S
C534 N533 1.365 . S
C534 C536 1.405 . S
C534 C542 1.448 . S
C535 H530 0.931 . S
C535 C537 1.397 . S
C535 C538 1.367 . S
C536 C534 1.405 . S
C536 C538 1.403 . S
C536 C569 1.439 . S
C537 H522 0.930 . S
C537 N533 1.319 . S
C537 C535 1.397 . S
C538 C535 1.367 . S
C538 C536 1.403 . S
C538 H545 0.929 . S
N539 Eu504 2.562 . S
N539 C540 1.325 . S
N539 C542 1.351 . S
C540 H526 0.929 . S
C540 N539 1.325 . S
C540 C544 1.416 . S
C541 C542 1.430 . S
C541 C543 1.404 . S
C541 C570 1.387 . S
C542 C534 1.448 . S
C542 N539 1.351 . S
C542 C541 1.430 . S
C543 H532 0.930 . S
C543 C541 1.404 . S
C543 C544 1.366 . S
C544 H523 0.930 . S
C544 C540 1.416 . S
C544 C543 1.366 . S
H545 C538 0.929 . S
H546 C569 0.931 . S
H547 C570 0.931 . S
O548 Eu504 2.462 . S
O548 C568 1.252 . S
O549 Eu504 2.373 1_556 S
O549 C560 1.249 . S
O550 Eu515 2.335 . S
O550 C560 1.264 . S
O551 Eu504 2.432 . S
O551 C568 1.268 . S
O552 Eu504 2.291 . S
O552 C567 1.255 . S
O553 Eu515 2.372 . S
O553 C567 1.257 1_556 S
O554 Eu515 2.462 . S
O554 C579 1.252 . S
O555 Eu515 2.373 1_554 S
O555 C571 1.249 . S
O556 Eu504 2.335 . S
O556 C571 1.264 . S
O557 Eu515 2.432 . S
O557 C579 1.268 . S
O558 Eu515 2.291 . S
O558 C578 1.255 . S
O559 Eu504 2.372 . S
O559 C578 1.257 1_554 S
C560 O549 1.249 . S
C560 O550 1.264 . S
C561 C564 1.382 . S
C561 C566 1.390 . S
C561 C568 1.506 . S
C562 C563 1.398 . S
C562 C566 1.392 . S
C563 C562 1.398 . S
C563 C565 1.372 . S
C563 H580 0.931 . S
C564 C561 1.382 . S
C564 C565 1.390 . S
C564 H581 0.931 . S
C565 C563 1.372 . S
C565 C564 1.390 . S
C565 H582 0.929 . S
C566 C561 1.390 . S
C566 C562 1.392 . S
C566 H583 0.930 . S
C567 O552 1.255 . S
C567 O553 1.257 1_554 S
C568 Eu504 2.787 . S
C568 O548 1.252 . S
C568 O551 1.268 . S
C568 C561 1.506 . S
C569 C536 1.439 . S
C569 H546 0.931 . S
C569 C570 1.374 . S
C570 C541 1.387 . S
C570 H547 0.931 . S
C570 C569 1.374 . S
C571 O555 1.249 . S
C571 O556 1.264 . S
C572 C575 1.382 . S
C572 C576 1.390 . S
C572 C579 1.506 . S
C573 C574 1.398 . S
C573 C576 1.392 . S
C574 C573 1.398 . S
C574 C577 1.372 . S
C574 H584 0.931 . S
C575 C572 1.382 . S
C575 C577 1.390 . S
C575 H585 0.931 . S
C576 C572 1.390 . S
C576 C573 1.392 . S
C576 H586 0.930 . S
C577 C574 1.372 . S
C577 C575 1.390 . S
C577 H587 0.929 . S
C578 O558 1.255 . S
C578 O559 1.257 1_556 S
C579 Eu515 2.787 . S
C579 O554 1.252 . S
C579 O557 1.268 . S
C579 C572 1.506 . S
H580 C563 0.931 . S
H581 C564 0.931 . S
H582 C565 0.929 . S
H583 C566 0.930 . S
H584 C574 0.931 . S
H585 C575 0.931 . S
H586 C576 0.930 . S
H587 C577 0.929 . S
Eu588 N617 2.600 . S
Eu588 N623 2.562 1_455 S
Eu588 O632 2.462 1_455 S
Eu588 O633 2.373 1_455 S
Eu588 O635 2.432 . S
Eu588 O636 2.291 1_455 S
Eu588 O640 2.335 . S
Eu588 O643 2.372 . S
Eu588 C652 2.787 . S
C589 N590 1.365 1_455 S
C589 C592 1.405 . S
C589 C596 1.448 . S
N590 C589 1.365 1_655 S
N590 C593 1.319 . S
N590 Eu599 2.600 . S
C591 C593 1.397 . S
C591 C594 1.367 . S
C591 H611 0.931 . S
C592 C589 1.405 . S
C592 C594 1.403 1_455 S
C592 C598 1.439 . S
C593 N590 1.319 . S
C593 C591 1.397 . S
C593 H604 0.930 . S
C594 C591 1.367 . S
C594 C592 1.403 1_655 S
C594 H615 0.929 . S
C595 C596 1.430 . S
C595 C597 1.387 . S
C595 C601 1.404 . S
C596 C589 1.448 . S
C596 C595 1.430 . S
C596 N600 1.351 . S
C597 C595 1.387 . S
C597 C598 1.374 . S
C597 H612 0.931 . S
C598 C592 1.439 . S
C598 C597 1.374 . S
C598 H613 0.931 . S
Eu599 N590 2.600 . S
Eu599 N600 2.562 1_655 S
Eu599 O634 2.335 . S
Eu599 O637 2.372 . S
Eu599 O638 2.462 1_655 S
Eu599 O639 2.373 1_655 S
Eu599 O641 2.432 . S
Eu599 O642 2.291 1_655 S
Eu599 C663 2.787 . S
N600 C596 1.351 . S
N600 Eu599 2.562 1_455 S
N600 C602 1.325 . S
C601 C595 1.404 . S
C601 C603 1.366 . S
C601 H609 0.930 . S
C602 N600 1.325 . S
C602 C603 1.416 . S
C602 H608 0.929 . S
C603 C601 1.366 . S
C603 C602 1.416 . S
C603 H605 0.930 . S
H604 C593 0.930 . S
H605 C603 0.930 . S
H606 C621 0.930 . S
H607 C628 0.930 . S
H608 C602 0.929 . S
H609 C601 0.930 . S
H610 C624 0.929 . S
H611 C591 0.931 . S
H612 C597 0.931 . S
H613 C598 0.931 . S
H614 C619 0.931 . S
H615 C594 0.929 . S
H616 C627 0.930 . S
N617 Eu588 2.600 . S
N617 C618 1.365 1_455 S
N617 C621 1.319 . S
C618 N617 1.365 1_655 S
C618 C620 1.405 . S
C618 C626 1.448 . S
C619 H614 0.931 . S
C619 C621 1.397 . S
C619 C622 1.367 . S
C620 C618 1.405 . S
C620 C622 1.403 1_655 S
C620 C653 1.439 . S
C621 H606 0.930 . S
C621 N617 1.319 . S
C621 C619 1.397 . S
C622 C619 1.367 . S
C622 C620 1.403 1_455 S
C622 H629 0.929 . S
N623 Eu588 2.562 1_655 S
N623 C624 1.325 . S
N623 C626 1.351 . S
C624 H610 0.929 . S
C624 N623 1.325 . S
C624 C628 1.416 . S
C625 C626 1.430 . S
C625 C627 1.404 . S
C625 C654 1.387 . S
C626 C618 1.448 . S
C626 N623 1.351 . S
C626 C625 1.430 . S
C627 H616 0.930 . S
C627 C625 1.404 . S
C627 C628 1.366 . S
C628 H607 0.930 . S
C628 C624 1.416 . S
C628 C627 1.366 . S
H629 C622 0.929 . S
H630 C653 0.931 . S
H631 C654 0.931 . S
O632 Eu588 2.462 1_655 S
O632 C652 1.252 1_655 S
O633 Eu588 2.373 1_655 S
O633 C644 1.249 . S
O634 Eu599 2.335 . S
O634 C644 1.264 . S
O635 Eu588 2.432 . S
O635 C652 1.268 . S
O636 Eu588 2.291 1_655 S
O636 C651 1.255 . S
O637 Eu599 2.372 . S
O637 C651 1.257 . S
O638 Eu599 2.462 1_455 S
O638 C663 1.252 1_455 S
O639 Eu599 2.373 1_455 S
O639 C655 1.249 . S
O640 Eu588 2.335 . S
O640 C655 1.264 . S
O641 Eu599 2.432 . S
O641 C663 1.268 . S
O642 Eu599 2.291 1_455 S
O642 C662 1.255 . S
O643 Eu588 2.372 . S
O643 C662 1.257 . S
C644 O633 1.249 . S
C644 O634 1.264 . S
C645 C648 1.382 . S
C645 C650 1.390 . S
C645 C652 1.506 . S
C646 C647 1.398 . S
C646 C650 1.392 . S
C647 C646 1.398 . S
C647 C649 1.372 . S
C647 H664 0.931 . S
C648 C645 1.382 . S
C648 C649 1.390 . S
C648 H665 0.931 . S
C649 C647 1.372 . S
C649 C648 1.390 . S
C649 H666 0.929 . S
C650 C645 1.390 . S
C650 C646 1.392 . S
C650 H667 0.930 1_455 S
C651 O636 1.255 . S
C651 O637 1.257 . S
C652 Eu588 2.787 . S
C652 O632 1.252 1_455 S
C652 O635 1.268 . S
C652 C645 1.506 . S
C653 C620 1.439 . S
C653 H630 0.931 . S
C653 C654 1.374 . S
C654 C625 1.387 . S
C654 H631 0.931 . S
C654 C653 1.374 . S
C655 O639 1.249 . S
C655 O640 1.264 . S
C656 C659 1.382 . S
C656 C660 1.390 . S
C656 C663 1.506 . S
C657 C658 1.398 . S
C657 C660 1.392 . S
C658 C657 1.398 . S
C658 C661 1.372 . S
C658 H668 0.931 . S
C659 C656 1.382 . S
C659 C661 1.390 . S
C659 H669 0.931 . S
C660 C656 1.390 . S
C660 C657 1.392 . S
C660 H670 0.930 1_655 S
C661 C658 1.372 . S
C661 C659 1.390 . S
C661 H671 0.929 . S
C662 O642 1.255 . S
C662 O643 1.257 . S
C663 Eu599 2.787 . S
C663 O638 1.252 1_655 S
C663 O641 1.268 . S
C663 C656 1.506 . S
H664 C647 0.931 . S
H665 C648 0.931 . S
H666 C649 0.929 . S
H667 C650 0.930 1_655 S
H668 C658 0.931 . S
H669 C659 0.931 . S
H670 C660 0.930 1_455 S
H671 C661 0.929 . S
C672 C673 1.369 . S
C672 C674 1.419 . S
C672 H676 0.930 . S
C673 C672 1.369 . S
C673 C682 1.429 . S
C674 C672 1.419 . S
C674 C675 1.363 . S
C674 H677 0.929 . S
C675 C674 1.363 . S
C675 C681 1.428 . S
H676 C672 0.930 . S
H677 C674 0.929 . S
S678 N679 1.613 . S
S678 N680 1.610 . S
N679 S678 1.613 . S
N679 C682 1.350 . S
N680 S678 1.610 . S
N680 C681 1.351 . S
C681 C675 1.428 . S
C681 N680 1.351 . S
C681 C682 1.434 . S
C682 C673 1.429 . S
C682 N679 1.350 . S
C682 C681 1.434 . S
C683 C684 1.369 . S
C683 C685 1.419 . S
C683 H687 0.930 . S
C684 C683 1.369 . S
C684 C693 1.429 . S
C685 C683 1.419 . S
C685 C686 1.363 . S
C685 H688 0.929 . S
C686 C685 1.363 . S
C686 C692 1.428 . S
H687 C683 0.930 . S
H688 C685 0.929 . S
S689 N690 1.613 . S
S689 N691 1.610 . S
N690 S689 1.613 . S
N690 C693 1.350 . S
N691 S689 1.610 . S
N691 C692 1.351 . S
C692 C686 1.428 . S
C692 N691 1.351 . S
C692 C693 1.434 . S
C693 C684 1.429 . S
C693 N690 1.350 . S
C693 C692 1.434 . S
C694 C695 1.369 . S
C694 C696 1.419 . S
C694 H698 0.930 . S
C695 C694 1.369 . S
C695 C704 1.429 . S
C696 C694 1.419 . S
C696 C697 1.363 . S
C696 H699 0.929 . S
C697 C696 1.363 . S
C697 C703 1.428 . S
H698 C694 0.930 . S
H699 C696 0.929 . S
S700 N701 1.613 1_554 S
S700 N702 1.610 . S
N701 S700 1.613 1_556 S
N701 C704 1.350 . S
N702 S700 1.610 . S
N702 C703 1.351 1_554 S
C703 C697 1.428 . S
C703 N702 1.351 1_556 S
C703 C704 1.434 . S
C704 C695 1.429 . S
C704 N701 1.350 . S
C704 C703 1.434 . S
C705 C706 1.369 . S
C705 C707 1.419 . S
C705 H709 0.930 . S
C706 C705 1.369 . S
C706 C715 1.429 . S
C707 C705 1.419 . S
C707 C708 1.363 . S
C707 H710 0.929 . S
C708 C707 1.363 . S
C708 C714 1.428 . S
H709 C705 0.930 . S
H710 C707 0.929 . S
S711 N712 1.613 . S
S711 N713 1.610 . S
N712 S711 1.613 . S
N712 C715 1.350 . S
N713 S711 1.610 . S
N713 C714 1.351 . S
C714 C708 1.428 . S
C714 N713 1.351 . S
C714 C715 1.434 . S
C715 C706 1.429 . S
C715 N712 1.350 . S
C715 C714 1.434 . S
C716 C717 1.369 . S
C716 C718 1.419 . S
C716 H720 0.930 . S
C717 C716 1.369 . S
C717 C726 1.429 . S
C718 C716 1.419 . S
C718 C719 1.363 . S
C718 H721 0.929 . S
C719 C718 1.363 . S
C719 C725 1.428 . S
H720 C716 0.930 . S
H721 C718 0.929 . S
S722 N723 1.613 . S
S722 N724 1.610 . S
N723 S722 1.613 . S
N723 C726 1.350 . S
N724 S722 1.610 . S
N724 C725 1.351 . S
C725 C719 1.428 . S
C725 N724 1.351 . S
C725 C726 1.434 . S
C726 C717 1.429 . S
C726 N723 1.350 . S
C726 C725 1.434 . S
C727 C728 1.369 . S
C727 C729 1.419 . S
C727 H731 0.930 . S
C728 C727 1.369 . S
C728 C737 1.429 . S
C729 C727 1.419 . S
C729 C730 1.363 . S
C729 H732 0.929 . S
C730 C729 1.363 . S
C730 C736 1.428 . S
H731 C727 0.930 . S
H732 C729 0.929 . S
S733 N734 1.613 . S
S733 N735 1.610 . S
N734 S733 1.613 . S
N734 C737 1.350 . S
N735 S733 1.610 . S
N735 C736 1.351 . S
C736 C730 1.428 . S
C736 N735 1.351 . S
C736 C737 1.434 . S
C737 C728 1.429 . S
C737 N734 1.350 . S
C737 C736 1.434 . S
C738 C739 1.369 . S
C738 C740 1.419 . S
C738 H742 0.930 . S
C739 C738 1.369 . S
C739 C748 1.429 . S
C740 C738 1.419 . S
C740 C741 1.363 . S
C740 H743 0.929 . S
C741 C740 1.363 . S
C741 C747 1.428 . S
H742 C738 0.930 . S
H743 C740 0.929 . S
S744 N745 1.613 . S
S744 N746 1.610 . S
N745 S744 1.613 . S
N745 C748 1.350 . S
N746 S744 1.610 . S
N746 C747 1.351 . S
C747 C741 1.428 . S
C747 N746 1.351 . S
C747 C748 1.434 . S
C748 C739 1.429 . S
C748 N745 1.350 . S
C748 C747 1.434 . S
C749 C750 1.369 . S
C749 C751 1.419 . S
C749 H753 0.930 . S
C750 C749 1.369 . S
C750 C759 1.429 . S
C751 C749 1.419 . S
C751 C752 1.363 . S
C751 H754 0.929 . S
C752 C751 1.363 . S
C752 C758 1.428 . S
H753 C749 0.930 . S
H754 C751 0.929 . S
S755 N756 1.613 . S
S755 N757 1.610 . S
N756 S755 1.613 . S
N756 C759 1.350 . S
N757 S755 1.610 . S
N757 C758 1.351 . S
C758 C752 1.428 . S
C758 N757 1.351 . S
C758 C759 1.434 . S
C759 C750 1.429 . S
C759 N756 1.350 . S
C759 C758 1.434 . S
C760 C761 1.369 . S
C760 C762 1.419 . S
C760 H764 0.930 . S
C761 C760 1.369 . S
C761 C770 1.429 . S
C762 C760 1.419 . S
C762 C763 1.363 . S
C762 H765 0.929 . S
C763 C762 1.363 . S
C763 C769 1.428 . S
H764 C760 0.930 . S
H765 C762 0.929 . S
S766 N767 1.613 . S
S766 N768 1.610 . S
N767 S766 1.613 . S
N767 C770 1.350 . S
N768 S766 1.610 . S
N768 C769 1.351 . S
C769 C763 1.428 . S
C769 N768 1.351 . S
C769 C770 1.434 . S
C770 C761 1.429 . S
C770 N767 1.350 . S
C770 C769 1.434 . S
C771 C772 1.369 . S
C771 C773 1.419 . S
C771 H775 0.930 . S
C772 C771 1.369 . S
C772 C781 1.429 . S
C773 C771 1.419 . S
C773 C774 1.363 . S
C773 H776 0.929 . S
C774 C773 1.363 . S
C774 C780 1.428 . S
H775 C771 0.930 . S
H776 C773 0.929 . S
S777 N778 1.613 . S
S777 N779 1.610 . S
N778 S777 1.613 . S
N778 C781 1.350 . S
N779 S777 1.610 . S
N779 C780 1.351 . S
C780 C774 1.428 . S
C780 N779 1.351 . S
C780 C781 1.434 . S
C781 C772 1.429 . S
C781 N778 1.350 . S
C781 C780 1.434 . S
C782 C783 1.369 . S
C782 C784 1.419 . S
C782 H786 0.930 . S
C783 C782 1.369 . S
C783 C792 1.429 . S
C784 C782 1.419 . S
C784 C785 1.363 . S
C784 H787 0.929 . S
C785 C784 1.363 . S
C785 C791 1.428 . S
H786 C782 0.930 . S
H787 C784 0.929 . S
S788 N789 1.613 . S
S788 N790 1.610 . S
N789 S788 1.613 . S
N789 C792 1.350 . S
N790 S788 1.610 . S
N790 C791 1.351 . S
C791 C785 1.428 . S
C791 N790 1.351 . S
C791 C792 1.434 . S
C792 C783 1.429 . S
C792 N789 1.350 . S
C792 C791 1.434 . S
C793 C794 1.369 . S
C793 C795 1.419 . S
C793 H797 0.930 . S
C794 C793 1.369 . S
C794 C803 1.429 . S
C795 C793 1.419 . S
C795 C796 1.363 . S
C795 H798 0.929 . S
C796 C795 1.363 . S
C796 C802 1.428 . S
H797 C793 0.930 . S
H798 C795 0.929 . S
S799 N800 1.613 . S
S799 N801 1.610 . S
N800 S799 1.613 . S
N800 C803 1.350 . S
N801 S799 1.610 . S
N801 C802 1.351 . S
C802 C796 1.428 . S
C802 N801 1.351 . S
C802 C803 1.434 . S
C803 C794 1.429 . S
C803 N800 1.350 . S
C803 C802 1.434 . S
C804 C805 1.369 . S
C804 C806 1.419 . S
C804 H808 0.930 . S
C805 C804 1.369 . S
C805 C814 1.429 . S
C806 C804 1.419 . S
C806 C807 1.363 . S
C806 H809 0.929 . S
C807 C806 1.363 . S
C807 C813 1.428 . S
H808 C804 0.930 . S
H809 C806 0.929 . S
S810 N811 1.613 . S
S810 N812 1.610 . S
N811 S810 1.613 . S
N811 C814 1.350 . S
N812 S810 1.610 . S
N812 C813 1.351 . S
C813 C807 1.428 . S
C813 N812 1.351 . S
C813 C814 1.434 . S
C814 C805 1.429 . S
C814 N811 1.350 . S
C814 C813 1.434 . S
C815 C816 1.369 . S
C815 C817 1.419 . S
C815 H819 0.930 . S
C816 C815 1.369 . S
C816 C825 1.429 . S
C817 C815 1.419 . S
C817 C818 1.363 . S
C817 H820 0.929 . S
C818 C817 1.363 . S
C818 C824 1.428 . S
H819 C815 0.930 . S
H820 C817 0.929 . S
S821 N822 1.613 1_554 S
S821 N823 1.610 1_554 S
N822 S821 1.613 1_556 S
N822 C825 1.350 . S
N823 S821 1.610 1_556 S
N823 C824 1.351 . S
C824 C818 1.428 . S
C824 N823 1.351 . S
C824 C825 1.434 . S
C825 C816 1.429 . S
C825 N822 1.350 . S
C825 C824 1.434 . S
C826 C827 1.369 . S
C826 C828 1.419 . S
C826 H830 0.930 . S
C827 C826 1.369 . S
C827 C836 1.429 . S
C828 C826 1.419 . S
C828 C829 1.363 . S
C828 H831 0.929 . S
C829 C828 1.363 . S
C829 C835 1.428 . S
H830 C826 0.930 . S
H831 C828 0.929 . S
S832 N833 1.613 . S
S832 N834 1.610 . S
N833 S832 1.613 . S
N833 C836 1.350 . S
N834 S832 1.610 . S
N834 C835 1.351 . S
C835 C829 1.428 . S
C835 N834 1.351 . S
C835 C836 1.434 . S
C836 C827 1.429 . S
C836 N833 1.350 . S
C836 C835 1.434 . S
C837 C838 1.369 . S
C837 C839 1.419 . S
C837 H841 0.930 . S
C838 C837 1.369 . S
C838 C847 1.429 . S
C839 C837 1.419 . S
C839 C840 1.363 . S
C839 H842 0.929 . S
C840 C839 1.363 . S
C840 C846 1.428 . S
H841 C837 0.930 . S
H842 C839 0.929 . S
S843 N844 1.613 . S
S843 N845 1.610 . S
N844 S843 1.613 . S
N844 C847 1.350 . S
N845 S843 1.610 . S
N845 C846 1.351 . S
C846 C840 1.428 . S
C846 N845 1.351 . S
C846 C847 1.434 . S
C847 C838 1.429 . S
C847 N844 1.350 . S
C847 C846 1.434 . S
C848 C849 1.369 1_465 S
C848 C850 1.419 1_556 S
C848 H852 0.930 . S
C849 C848 1.369 1_645 S
C849 C858 1.429 . S
C850 C848 1.419 1_554 S
C850 C851 1.363 . S
C850 H853 0.929 . S
C851 C850 1.363 . S
C851 C857 1.428 1_465 S
H852 C848 0.930 . S
H853 C850 0.929 . S
S854 N855 1.613 1_554 S
S854 N856 1.610 . S
N855 S854 1.613 1_556 S
N855 C858 1.350 . S
N856 S854 1.610 . S
N856 C857 1.351 . S
C857 C851 1.428 1_645 S
C857 N856 1.351 . S
C857 C858 1.434 1_554 S
C858 C849 1.429 . S
C858 N855 1.350 . S
C858 C857 1.434 1_556 S
C859 C860 1.369 . S
C859 C861 1.419 . S
C859 H863 0.930 . S
C860 C859 1.369 . S
C860 C869 1.429 . S
C861 C859 1.419 . S
C861 C862 1.363 . S
C861 H864 0.929 . S
C862 C861 1.363 . S
C862 C868 1.428 . S
H863 C859 0.930 . S
H864 C861 0.929 . S
S865 N866 1.613 . S
S865 N867 1.610 . S
N866 S865 1.613 . S
N866 C869 1.350 . S
N867 S865 1.610 . S
N867 C868 1.351 . S
C868 C862 1.428 . S
C868 N867 1.351 . S
C868 C869 1.434 . S
C869 C860 1.429 . S
C869 N866 1.350 . S
C869 C868 1.434 . S
C870 C871 1.358 1_545 S
C870 C872 1.419 . S
C870 H874 0.930 . S
C871 C870 1.358 1_565 S
C871 C880 1.440 . S
C872 C870 1.419 . S
C872 C873 1.359 1_545 S
C872 H875 0.929 . S
C873 C872 1.359 1_565 S
C873 C879 1.433 . S
H874 C870 0.930 . S
H875 C872 0.929 . S
S876 N877 1.613 . S
S876 N878 1.610 . S
N877 S876 1.613 . S
N877 C880 1.350 . S
N878 S876 1.610 . S
N878 C879 1.351 . S
C879 C873 1.433 . S
C879 N878 1.351 . S
C879 C880 1.434 . S
C880 C871 1.440 . S
C880 N877 1.350 . S
C880 C879 1.434 . S
C881 C882 1.369 . S
C881 C883 1.419 . S
C881 H885 0.930 . S
C882 C881 1.369 . S
C882 C891 1.429 . S
C883 C881 1.419 . S
C883 C884 1.363 . S
C883 H886 0.929 . S
C884 C883 1.363 . S
C884 C890 1.428 . S
H885 C881 0.930 . S
H886 C883 0.929 . S
S887 N888 1.613 . S
S887 N889 1.610 . S
N888 S887 1.613 . S
N888 C891 1.350 . S
N889 S887 1.610 . S
N889 C890 1.351 . S
C890 C884 1.428 . S
C890 N889 1.351 . S
C890 C891 1.434 . S
C891 C882 1.429 . S
C891 N888 1.350 . S
C891 C890 1.434 . S
C892 C893 1.369 . S
C892 C894 1.419 . S
C892 H896 0.930 . S
C893 C892 1.369 . S
C893 C902 1.429 . S
C894 C892 1.419 . S
C894 C895 1.363 . S
C894 H897 0.929 . S
C895 C894 1.363 . S
C895 C901 1.428 . S
H896 C892 0.930 . S
H897 C894 0.929 . S
S898 N899 1.613 . S
S898 N900 1.610 . S
N899 S898 1.613 . S
N899 C902 1.350 . S
N900 S898 1.610 . S
N900 C901 1.351 . S
C901 C895 1.428 . S
C901 N900 1.351 . S
C901 C902 1.434 . S
C902 C893 1.429 . S
C902 N899 1.350 . S
C902 C901 1.434 . S
C903 C904 1.369 . S
C903 C905 1.419 . S
C903 H907 0.930 . S
C904 C903 1.369 . S
C904 C913 1.429 . S
C905 C903 1.419 . S
C905 C906 1.363 . S
C905 H908 0.929 . S
C906 C905 1.363 . S
C906 C912 1.428 . S
H907 C903 0.930 . S
H908 C905 0.929 . S
S909 N910 1.613 . S
S909 N911 1.610 . S
N910 S909 1.613 . S
N910 C913 1.350 . S
N911 S909 1.610 . S
N911 C912 1.351 . S
C912 C906 1.428 . S
C912 N911 1.351 . S
C912 C913 1.434 . S
C913 C904 1.429 . S
C913 N910 1.350 . S
C913 C912 1.434 . S
C914 C915 1.369 . S
C914 C916 1.419 . S
C914 H918 0.930 . S
C915 C914 1.369 . S
C915 C924 1.429 . S
C916 C914 1.419 . S
C916 C917 1.363 . S
C916 H919 0.929 . S
C917 C916 1.363 . S
C917 C923 1.428 . S
H918 C914 0.930 . S
H919 C916 0.929 . S
S920 N921 1.613 . S
S920 N922 1.610 . S
N921 S920 1.613 . S
N921 C924 1.350 . S
N922 S920 1.610 . S
N922 C923 1.351 . S
C923 C917 1.428 . S
C923 N922 1.351 . S
C923 C924 1.434 . S
C924 C915 1.429 . S
C924 N921 1.350 . S
C924 C923 1.434 . S
C925 C926 1.369 1_655 S
C925 C927 1.419 1_556 S
C925 H929 0.930 . S
C926 C925 1.369 1_455 S
C926 C935 1.429 . S
C927 C925 1.419 1_554 S
C927 C928 1.363 . S
C927 H930 0.929 . S
C928 C927 1.363 . S
C928 C934 1.428 1_655 S
H929 C925 0.930 . S
H930 C927 0.929 . S
S931 N932 1.613 . S
S931 N933 1.610 1_556 S
N932 S931 1.613 . S
N932 C935 1.350 . S
N933 S931 1.610 1_554 S
N933 C934 1.351 . S
C934 C928 1.428 1_455 S
C934 N933 1.351 . S
C934 C935 1.434 1_554 S
C935 C926 1.429 . S
C935 N932 1.350 . S
C935 C934 1.434 1_556 S
C673 C56 1.498 . S
C675 C308 1.495 . S
C684 C63 1.514 . S
C686 C140 1.501 . S
C695 C147 1.524 . S
C697 C224 1.515 . S
C706 C231 1.524 . S
C708 C315 1.524 . S
C717 C67 1.498 . S
C719 C487 1.505 . S
C728 C74 1.514 . S
C730 C403 1.499 . S
C739 C410 1.523 . S
C741 C235 1.509 . S
C750 C494 1.527 . S
C752 C242 1.528 . S
C761 C560 1.501 . S
C763 C476 1.503 . S
C772 C392 1.504 . S
C774 C567 1.515 . S
C783 C644 1.513 . S
C785 C399 1.525 . S
C794 C483 1.526 . S
C796 C651 1.526 . S
C805 C319 1.501 . S
C807 C571 1.497 . S
C816 C578 1.514 . S
C818 C151 1.501 . S
C827 C158 1.521 . S
C829 C655 1.509 . S
C838 C326 1.526 . S
C840 C662 1.525 . S
C849 C58 1.280 . S
C851 C69 1.292 . S
C860 C153 1.267 . S
C862 C142 1.276 . S
C871 C237 1.280 1_565 S
C873 C226 1.274 . S
C882 C310 1.275 . S
C884 C321 1.277 . S
C893 C405 1.275 . S
C895 C394 1.268 . S
C904 C478 1.280 . S
C906 C489 1.273 . S
C915 C573 1.291 . S
C917 C562 1.284 . S
C926 C646 1.273 . S
C928 C657 1.281 . S
