# Generated by pormake.
# Topology whv, (6)-cn, num edge types: 1
# Building blocks:
#     Node 0, Type 0, BuildingBlock: OJICUG_clean_sbu_0, # of connection points: 6
#     Node 1, Type 0, BuildingBlock: OJICUG_clean_sbu_0, # of connection points: 6
#     Node 2, Type 0, BuildingBlock: OJICUG_clean_sbu_0, # of connection points: 6
#     Node 3, Type 0, BuildingBlock: OJICUG_clean_sbu_0, # of connection points: 6
#     Node 4, Type 0, BuildingBlock: OJICUG_clean_sbu_0, # of connection points: 6
#     Node 5, Type 0, BuildingBlock: OJICUG_clean_sbu_0, # of connection points: 6
#     Node 6, Type 0, BuildingBlock: OJICUG_clean_sbu_0, # of connection points: 6
#     Node 7, Type 0, BuildingBlock: OJICUG_clean_sbu_0, # of connection points: 6
#     Node 8, Type 0, BuildingBlock: OJICUG_clean_sbu_0, # of connection points: 6
#     Node 9, Type 0, BuildingBlock: OJICUG_clean_sbu_0, # of connection points: 6
#     Node 10, Type 0, BuildingBlock: OJICUG_clean_sbu_0, # of connection points: 6
#     Node 11, Type 0, BuildingBlock: OJICUG_clean_sbu_0, # of connection points: 6
#     Node 12, Type 0, BuildingBlock: OJICUG_clean_sbu_0, # of connection points: 6
#     Node 13, Type 0, BuildingBlock: OJICUG_clean_sbu_0, # of connection points: 6
#     Node 14, Type 0, BuildingBlock: OJICUG_clean_sbu_0, # of connection points: 6
#     Node 15, Type 0, BuildingBlock: OJICUG_clean_sbu_0, # of connection points: 6
#     Edge 16, Type (0, 0), BuildingBlock: EZIPEK_clean_linker_0, # of connection points: 2
#     Edge 17, Type (0, 0), BuildingBlock: EZIPEK_clean_linker_0, # of connection points: 2
#     Edge 18, Type (0, 0), BuildingBlock: EZIPEK_clean_linker_0, # of connection points: 2
#     Edge 19, Type (0, 0), BuildingBlock: EZIPEK_clean_linker_0, # of connection points: 2
#     Edge 20, Type (0, 0), BuildingBlock: EZIPEK_clean_linker_0, # of connection points: 2
#     Edge 21, Type (0, 0), BuildingBlock: EZIPEK_clean_linker_0, # of connection points: 2
#     Edge 22, Type (0, 0), BuildingBlock: EZIPEK_clean_linker_0, # of connection points: 2
#     Edge 23, Type (0, 0), BuildingBlock: EZIPEK_clean_linker_0, # of connection points: 2
#     Edge 24, Type (0, 0), BuildingBlock: EZIPEK_clean_linker_0, # of connection points: 2
#     Edge 25, Type (0, 0), BuildingBlock: EZIPEK_clean_linker_0, # of connection points: 2
#     Edge 26, Type (0, 0), BuildingBlock: EZIPEK_clean_linker_0, # of connection points: 2
#     Edge 27, Type (0, 0), BuildingBlock: EZIPEK_clean_linker_0, # of connection points: 2
#     Edge 28, Type (0, 0), BuildingBlock: EZIPEK_clean_linker_0, # of connection points: 2
#     Edge 29, Type (0, 0), BuildingBlock: EZIPEK_clean_linker_0, # of connection points: 2
#     Edge 30, Type (0, 0), BuildingBlock: EZIPEK_clean_linker_0, # of connection points: 2
#     Edge 31, Type (0, 0), BuildingBlock: EZIPEK_clean_linker_0, # of connection points: 2
#     Edge 32, Type (0, 0), BuildingBlock: EZIPEK_clean_linker_0, # of connection points: 2
#     Edge 33, Type (0, 0), BuildingBlock: EZIPEK_clean_linker_0, # of connection points: 2
#     Edge 34, Type (0, 0), BuildingBlock: EZIPEK_clean_linker_0, # of connection points: 2
#     Edge 35, Type (0, 0), BuildingBlock: EZIPEK_clean_linker_0, # of connection points: 2
#     Edge 36, Type (0, 0), BuildingBlock: EZIPEK_clean_linker_0, # of connection points: 2
#     Edge 37, Type (0, 0), BuildingBlock: EZIPEK_clean_linker_0, # of connection points: 2
#     Edge 38, Type (0, 0), BuildingBlock: EZIPEK_clean_linker_0, # of connection points: 2
#     Edge 39, Type (0, 0), BuildingBlock: EZIPEK_clean_linker_0, # of connection points: 2
#     Edge 40, Type (0, 0), BuildingBlock: EZIPEK_clean_linker_0, # of connection points: 2
#     Edge 41, Type (0, 0), BuildingBlock: EZIPEK_clean_linker_0, # of connection points: 2
#     Edge 42, Type (0, 0), BuildingBlock: EZIPEK_clean_linker_0, # of connection points: 2
#     Edge 43, Type (0, 0), BuildingBlock: EZIPEK_clean_linker_0, # of connection points: 2
#     Edge 44, Type (0, 0), BuildingBlock: EZIPEK_clean_linker_0, # of connection points: 2
#     Edge 45, Type (0, 0), BuildingBlock: EZIPEK_clean_linker_0, # of connection points: 2
#     Edge 46, Type (0, 0), BuildingBlock: EZIPEK_clean_linker_0, # of connection points: 2
#     Edge 47, Type (0, 0), BuildingBlock: EZIPEK_clean_linker_0, # of connection points: 2
#     Edge 48, Type (0, 0), BuildingBlock: EZIPEK_clean_linker_0, # of connection points: 2
#     Edge 49, Type (0, 0), BuildingBlock: EZIPEK_clean_linker_0, # of connection points: 2
#     Edge 50, Type (0, 0), BuildingBlock: EZIPEK_clean_linker_0, # of connection points: 2
#     Edge 51, Type (0, 0), BuildingBlock: EZIPEK_clean_linker_0, # of connection points: 2
#     Edge 52, Type (0, 0), BuildingBlock: EZIPEK_clean_linker_0, # of connection points: 2
#     Edge 53, Type (0, 0), BuildingBlock: EZIPEK_clean_linker_0, # of connection points: 2
#     Edge 54, Type (0, 0), BuildingBlock: EZIPEK_clean_linker_0, # of connection points: 2
#     Edge 55, Type (0, 0), BuildingBlock: EZIPEK_clean_linker_0, # of connection points: 2
#     Edge 56, Type (0, 0), BuildingBlock: EZIPEK_clean_linker_0, # of connection points: 2
#     Edge 57, Type (0, 0), BuildingBlock: EZIPEK_clean_linker_0, # of connection points: 2
#     Edge 58, Type (0, 0), BuildingBlock: EZIPEK_clean_linker_0, # of connection points: 2
#     Edge 59, Type (0, 0), BuildingBlock: EZIPEK_clean_linker_0, # of connection points: 2
#     Edge 60, Type (0, 0), BuildingBlock: EZIPEK_clean_linker_0, # of connection points: 2
#     Edge 61, Type (0, 0), BuildingBlock: EZIPEK_clean_linker_0, # of connection points: 2
#     Edge 62, Type (0, 0), BuildingBlock: EZIPEK_clean_linker_0, # of connection points: 2
#     Edge 63, Type (0, 0), BuildingBlock: EZIPEK_clean_linker_0, # of connection points: 2
# Relax obj value: 0.290
# Max RMSD: 0.262
# Mean RMSD: 0.262
data_MOF--net-whv--node1-OJICUG_clean_sbu_0--edge1-EZIPEK_clean_linker_0
_symmetry_space_group_name_H-M    P1
_symmetry_Int_Tables_number       1
_symmetry_cell_setting            triclinic
loop_
_symmetry_equiv_pos_as_xyz
'x, y, z'
_cell_length_a     38.830336
_cell_length_b     38.702405
_cell_length_c     20.35201
_cell_angle_alpha  90.182745
_cell_angle_beta   90.05242
_cell_angle_gamma 90.033907
loop_
_atom_site_label
_atom_site_type_symbol
_atom_site_fract_x
_atom_site_fract_y
_atom_site_fract_z
_atom_type_partial_charge
Sc0 Sc 0.28351 0.23458 0.99262 0.0
Sc1 Sc 0.28971 0.14675 0.97296 0.0
Sc2 Sc 0.35158 0.19093 0.06388 0.0
O3 O 0.30881 0.19059 0.01051 0.0
C4 C 0.36116 0.26013 0.98764 0.0
C5 C 0.27708 0.20405 0.85952 0.0
C6 C 0.36736 0.14181 0.93699 0.0
C7 C 0.22249 0.17818 0.00562 0.0
C8 C 0.29565 0.23767 0.14342 0.0
C9 C 0.32202 0.11986 0.11051 0.0
O10 O 0.32923 0.26754 0.98906 0.0
O11 O 0.26945 0.17446 0.88417 0.0
O12 O 0.37687 0.15854 0.98877 0.0
O13 O 0.23342 0.20739 0.98494 0.0
O14 O 0.32548 0.22316 0.1395 0.0
O15 O 0.30704 0.11424 0.05547 0.0
O16 O 0.27592 0.24238 0.0945 0.0
O17 O 0.24388 0.15619 0.02608 0.0
O18 O 0.33707 0.14813 0.12183 0.0
O19 O 0.2928 0.22652 0.89284 0.0
O20 O 0.373 0.23249 0.01072 0.0
O21 O 0.33606 0.1363 0.92224 0.0
Sc22 Sc 0.54488 0.60612 0.31393 0.0
Sc23 Sc 0.60313 0.55664 0.22579 0.0
Sc24 Sc 0.52388 0.52382 0.26934 0.0
O25 O 0.55785 0.5624 0.27015 0.0
C26 C 0.51818 0.54551 0.41046 0.0
C27 C 0.62063 0.60022 0.35827 0.0
C28 C 0.59642 0.48319 0.26996 0.0
C29 C 0.5878 0.63212 0.18585 0.0
C30 C 0.47658 0.58808 0.24654 0.0
C31 C 0.54568 0.524 0.12818 0.0
O32 O 0.51803 0.57754 0.39361 0.0
O33 O 0.63015 0.58584 0.30422 0.0
O34 O 0.564 0.4841 0.25926 0.0
O35 O 0.57112 0.6377 0.23908 0.0
O36 O 0.47859 0.55799 0.2717 0.0
O37 O 0.57773 0.52825 0.14287 0.0
O38 O 0.5009 0.60952 0.25264 0.0
O39 O 0.59783 0.60215 0.17009 0.0
O40 O 0.52158 0.52765 0.16878 0.0
O41 O 0.58937 0.60472 0.37379 0.0
O42 O 0.52628 0.52126 0.37171 0.0
O43 O 0.61273 0.51088 0.27972 0.0
Sc44 Sc 0.14701 0.80995 0.56708 0.0
Sc45 Sc 0.20459 0.85374 0.47054 0.0
Sc46 Sc 0.21652 0.76785 0.49703 0.0
O47 O 0.18897 0.81029 0.51209 0.0
C48 C 0.20252 0.76336 0.64594 0.0
C49 C 0.17566 0.88052 0.60949 0.0
C50 C 0.27304 0.82911 0.51295 0.0
C51 C 0.12812 0.85727 0.44035 0.0
C52 C 0.13876 0.7413 0.48783 0.0
C53 C 0.2241 0.79583 0.36318 0.0
O54 O 0.17182 0.77547 0.64011 0.0
O55 O 0.18344 0.88674 0.54951 0.0
O56 O 0.26528 0.7985 0.49296 0.0
O57 O 0.12104 0.8461 0.49838 0.0
O58 O 0.17085 0.73415 0.49263 0.0
O59 O 0.22925 0.82634 0.38589 0.0
O60 O 0.12589 0.76909 0.50956 0.0
O61 O 0.15824 0.85616 0.41644 0.0
O62 O 0.20865 0.77337 0.39637 0.0
O63 O 0.16536 0.85095 0.62645 0.0
O64 O 0.22363 0.76135 0.59877 0.0
O65 O 0.24942 0.84998 0.52793 0.0
Sc66 Sc 0.96384 0.47725 0.75314 0.0
Sc67 Sc 0.8843 0.43926 0.7195 0.0
Sc68 Sc 0.94699 0.39458 0.81073 0.0
O69 O 0.93143 0.43696 0.76168 0.0
C70 C 0.01426 0.41281 0.7338 0.0
C71 C 0.93414 0.47698 0.61464 0.0
C72 C 0.90592 0.36288 0.68526 0.0
C73 C 0.88947 0.51512 0.76426 0.0
C74 C 0.97576 0.45838 0.89887 0.0
C75 C 0.8698 0.39875 0.85595 0.0
O76 O 0.00964 0.44526 0.73994 0.0
O77 O 0.90395 0.46736 0.63228 0.0
O78 O 0.92456 0.35972 0.73678 0.0
O79 O 0.92213 0.51491 0.75662 0.0
O80 O 0.97182 0.42587 0.8888 0.0
O81 O 0.8595 0.41233 0.80213 0.0
O82 O 0.97001 0.48108 0.85578 0.0
O83 O 0.87234 0.48727 0.76584 0.0
O84 O 0.90131 0.39363 0.86918 0.0
O85 O 0.96006 0.47591 0.65161 0.0
O86 O 0.99296 0.39069 0.75438 0.0
O87 O 0.89192 0.3913 0.66926 0.0
Sc88 Sc 0.72891 0.774 0.03449 0.0
Sc89 Sc 0.69255 0.84961 0.08417 0.0
Sc90 Sc 0.65365 0.80245 0.9621 0.0
O91 O 0.6916 0.80867 0.02616 0.0
C92 C 0.72188 0.77719 0.88508 0.0
C93 C 0.76666 0.84768 0.06198 0.0
C94 C 0.66134 0.87958 0.94819 0.0
C95 C 0.71975 0.78705 0.1769 0.0
C96 C 0.66049 0.72999 0.02261 0.0
C97 C 0.61672 0.83255 0.09372 0.0
O98 O 0.74172 0.78057 0.93417 0.0
O99 O 0.74033 0.86369 0.04276 0.0
O100 O 0.66427 0.85091 0.91887 0.0
O101 O 0.71588 0.76526 0.13189 0.0
O102 O 0.64139 0.75471 0.00517 0.0
O103 O 0.64498 0.8358 0.12387 0.0
O104 O 0.69332 0.73072 0.01598 0.0
O105 O 0.71759 0.81966 0.16621 0.0
O106 O 0.61596 0.82573 0.03176 0.0
O107 O 0.76698 0.81449 0.06489 0.0
O108 O 0.68891 0.77902 0.88913 0.0
O109 O 0.66654 0.88284 0.0102 0.0
Sc110 Sc 0.47594 0.47883 0.78309 0.0
Sc111 Sc 0.4096 0.42808 0.83709 0.0
Sc112 Sc 0.4639 0.39829 0.71621 0.0
O113 O 0.44889 0.43545 0.77722 0.0
C114 C 0.47693 0.46961 0.63703 0.0
C115 C 0.39784 0.50385 0.81407 0.0
C116 C 0.38627 0.39419 0.69732 0.0
C117 C 0.46727 0.46456 0.92734 0.0
C118 C 0.5325 0.42124 0.77697 0.0
C119 C 0.43983 0.35533 0.84312 0.0
O120 O 0.46592 0.48863 0.6831 0.0
O121 O 0.38547 0.47407 0.80394 0.0
O122 O 0.41517 0.39862 0.66957 0.0
O123 O 0.48768 0.46842 0.88028 0.0
O124 O 0.51161 0.39677 0.76619 0.0
O125 O 0.43238 0.38268 0.87396 0.0
O126 O 0.52488 0.45244 0.76257 0.0
O127 O 0.43573 0.45552 0.91961 0.0
O128 O 0.44671 0.35599 0.78162 0.0
O129 O 0.43034 0.50966 0.81246 0.0
O130 O 0.48246 0.43708 0.64413 0.0
O131 O 0.38121 0.39951 0.75905 0.0
Sc132 Sc 0.84323 0.18633 0.45083 0.0
Sc133 Sc 0.80302 0.15082 0.58455 0.0
Sc134 Sc 0.77745 0.22889 0.52823 0.0
O135 O 0.807 0.18798 0.51914 0.0
C136 C 0.85063 0.25968 0.50797 0.0
C137 C 0.87881 0.14978 0.5761 0.0
C138 C 0.78854 0.21983 0.66887 0.0
C139 C 0.82401 0.11213 0.44694 0.0
C140 C 0.77712 0.22057 0.38099 0.0
C141 C 0.72824 0.16424 0.56972 0.0
O142 O 0.86588 0.23186 0.49243 0.0
O143 O 0.85462 0.15953 0.61328 0.0
O144 O 0.79812 0.23764 0.62119 0.0
O145 O 0.82159 0.13988 0.4142 0.0
O146 O 0.75896 0.22096 0.43249 0.0
O147 O 0.75137 0.14225 0.55656 0.0
O148 O 0.80983 0.2152 0.38136 0.0
O149 O 0.82062 0.11249 0.50983 0.0
O150 O 0.7341 0.19687 0.56636 0.0
O151 O 0.8777 0.15484 0.51382 0.0
O152 O 0.81848 0.26383 0.4968 0.0
O153 O 0.78515 0.18689 0.66378 0.0
Sc154 Sc 0.03755 0.60175 0.21347 0.0
Sc155 Sc 0.07983 0.57083 0.34831 0.0
Sc156 Sc 0.01997 0.51976 0.26849 0.0
O157 O 0.04695 0.56312 0.27581 0.0
C158 C 0.96656 0.5817 0.2653 0.0
C159 C 0.05595 0.64451 0.34371 0.0
C160 C 0.01678 0.53086 0.41793 0.0
C161 C 0.11478 0.60075 0.21317 0.0
C162 C 0.02318 0.53426 0.12478 0.0
C163 C 0.09504 0.49358 0.318 0.0
O164 O 0.98868 0.6053 0.25622 0.0
O165 O 0.05433 0.61687 0.37573 0.0
O166 O 0.00337 0.52247 0.36423 0.0
O167 O 0.08802 0.59689 0.17801 0.0
O168 O 0.03433 0.5144 0.1689 0.0
O169 O 0.10608 0.52389 0.32884 0.0
O170 O 0.0183 0.5665 0.13558 0.0
O171 O 0.11503 0.59695 0.27634 0.0
O172 O 0.0643 0.48719 0.29798 0.0
O173 O 0.05566 0.64314 0.28101 0.0
O174 O 0.97265 0.55012 0.24923 0.0
O175 O 0.04612 0.54594 0.42263 0.0
Sc176 Sc 0.77689 0.72889 0.50504 0.0
Sc177 Sc 0.79816 0.64459 0.47503 0.0
Sc178 Sc 0.85224 0.69672 0.56693 0.0
O179 O 0.8093 0.68976 0.51633 0.0
C180 C 0.84873 0.76484 0.48917 0.0
C181 C 0.77633 0.70188 0.36792 0.0
C182 C 0.87525 0.64662 0.44613 0.0
C183 C 0.72611 0.66302 0.51218 0.0
C184 C 0.79293 0.73588 0.65031 0.0
C185 C 0.83392 0.62409 0.61354 0.0
O186 O 0.81732 0.76805 0.5065 0.0
O187 O 0.7738 0.67057 0.38854 0.0
O188 O 0.88209 0.66192 0.50077 0.0
O189 O 0.73202 0.69433 0.49554 0.0
O190 O 0.8251 0.73046 0.63894 0.0
O191 O 0.82226 0.61541 0.55673 0.0
O192 O 0.76965 0.73173 0.60739 0.0
O193 O 0.75085 0.64331 0.52671 0.0
O194 O 0.83934 0.65521 0.62964 0.0
O195 O 0.78593 0.72628 0.40455 0.0
O196 O 0.86622 0.73828 0.50348 0.0
O197 O 0.84509 0.64398 0.42315 0.0
Sc198 Sc 0.04706 0.10483 0.80169 0.0
Sc199 Sc 0.11254 0.06505 0.71413 0.0
Sc200 Sc 0.03728 0.02128 0.74605 0.0
O201 O 0.06599 0.06388 0.75506 0.0
C202 C 0.02414 0.03891 0.88914 0.0
C203 C 0.1222 0.10968 0.84849 0.0
C204 C 0.11503 0.99141 0.75044 0.0
C205 C 0.08585 0.13783 0.67563 0.0
C206 C 0.9834 0.08051 0.72377 0.0
C207 C 0.06451 0.02326 0.61032 0.0
O208 O 0.02257 0.07136 0.87624 0.0
O209 O 0.13383 0.09776 0.79392 0.0
O210 O 0.08285 0.98747 0.7394 0.0
O211 O 0.06941 0.14081 0.72985 0.0
O212 O 0.98837 0.04923 0.7409 0.0
O213 O 0.0947 0.03247 0.6295 0.0
O214 O 0.00388 0.10447 0.73914 0.0
O215 O 0.10026 0.10974 0.65884 0.0
O216 O 0.03811 0.02675 0.64525 0.0
O217 O 0.09066 0.10867 0.86411 0.0
O218 O 0.03505 0.01643 0.84888 0.0
O219 O 0.127 0.0203 0.76824 0.0
Sc220 Sc 0.64591 0.3077 0.07225 0.0
Sc221 Sc 0.70626 0.35544 0.98612 0.0
Sc222 Sc 0.71926 0.26954 0.01474 0.0
O223 O 0.69017 0.31099 0.02516 0.0
C224 C 0.69969 0.26357 0.15912 0.0
C225 C 0.6652 0.37952 0.11699 0.0
C226 C 0.77455 0.33287 0.03026 0.0
C227 C 0.63085 0.35632 0.94467 0.0
C228 C 0.64395 0.2384 -0.00323 0.0
C229 C 0.73206 0.29665 0.88448 0.0
O230 O 0.66859 0.27331 0.14785 0.0
O231 O 0.67866 0.3871 0.06121 0.0
O232 O 0.76638 0.30183 0.01476 0.0
O233 O 0.62143 0.3429 -0.00044 0.0
O234 O 0.67594 0.23338 0.0078 0.0
O235 O 0.73533 0.32762 0.90672 0.0
O236 O 0.62883 0.26624 0.01168 0.0
O237 O 0.66193 0.35736 0.92566 0.0
O238 O 0.71366 0.2749 0.91342 0.0
O239 O 0.66091 0.34867 0.13479 0.0
O240 O 0.72334 0.26418 0.11655 0.0
O241 O 0.751 0.3539 0.04625 0.0
Sc242 Sc 0.46394 0.97327 0.24511 0.0
Sc243 Sc 0.38604 0.93513 0.21831 0.0
Sc244 Sc 0.44703 0.89398 0.31244 0.0
O245 O 0.43194 0.93428 0.26031 0.0
C246 C 0.51106 0.90775 0.22892 0.0
C247 C 0.43709 0.96775 0.11004 0.0
C248 C 0.40453 0.86003 0.19167 0.0
C249 C 0.38812 0.00929 0.24708 0.0
C250 C 0.47635 0.96114 0.38999 0.0
C251 C 0.37366 0.89662 0.35889 0.0
O252 O 0.5099 0.93992 0.24374 0.0
O253 O 0.40606 0.96415 0.13069 0.0
O254 O 0.41839 0.85711 0.24865 0.0
O255 O 0.42049 0.01047 0.23428 0.0
O256 O 0.47629 0.9282 0.3807 0.0
O257 O 0.36299 0.9057 0.30155 0.0
O258 O 0.46661 0.98255 0.34689 0.0
O259 O 0.37446 0.98192 0.26841 0.0
O260 O 0.40476 0.89934 0.37641 0.0
O261 O 0.46266 0.9624 0.14603 0.0
O262 O 0.48844 0.88663 0.24759 0.0
O263 O 0.39686 0.88893 0.16691 0.0
Sc264 Sc 0.2242 0.27145 0.52636 0.0
Sc265 Sc 0.20577 0.35486 0.56977 0.0
Sc266 Sc 0.1558 0.31314 0.45208 0.0
O267 O 0.19507 0.31348 0.515 0.0
C268 C 0.21953 0.27587 0.3757 0.0
C269 C 0.27897 0.33354 0.54326 0.0
C270 C 0.17934 0.38864 0.4326 0.0
C271 C 0.21786 0.29037 0.66786 0.0
C272 C 0.15018 0.23999 0.51384 0.0
C273 C 0.12643 0.35384 0.58143 0.0
O274 O 0.23847 0.273 0.42617 0.0
O275 O 0.25631 0.35603 0.53072 0.0
O276 O 0.17156 0.35994 0.40641 0.0
O277 O 0.20851 0.26906 0.62461 0.0
O278 O 0.1358 0.26764 0.49585 0.0
O279 O 0.15558 0.35671 0.60897 0.0
O280 O 0.18246 0.23516 0.50828 0.0
O281 O 0.22276 0.3224 0.65425 0.0
O282 O 0.1226 0.34136 0.52309 0.0
O283 O 0.27024 0.30204 0.55231 0.0
O284 O 0.18772 0.28533 0.37796 0.0
O285 O 0.18913 0.39055 0.49256 0.0
Sc286 Sc 0.98391 0.9791 0.2654 0.0
Sc287 Sc 0.91354 0.94334 0.33499 0.0
Sc288 Sc 0.95266 0.90314 0.20444 0.0
O289 O 0.94913 0.9425 0.26682 0.0
C290 C 0.97766 0.96926 0.12172 0.0
C291 C 0.91385 0.01934 0.30955 0.0
C292 C 0.87658 0.91844 0.19835 0.0
C293 C 0.98233 0.9704 0.40932 0.0
C294 C 0.02501 0.91047 0.25923 0.0
C295 C 0.92087 0.86777 0.33412 0.0
O296 O 0.96997 0.99007 0.16749 0.0
O297 O 0.8962 0.99215 0.30438 0.0
O298 O 0.9045 0.91738 0.16596 0.0
O299 O -0.00053 0.96501 0.35857 0.0
O300 O 0.00043 0.88958 0.2483 0.0
O301 O 0.92931 0.894 0.3673 0.0
O302 O 0.02358 0.94161 0.23813 0.0
O303 O 0.94923 0.9675 0.40999 0.0
O304 O 0.92493 0.8673 0.27157 0.0
O305 O 0.94667 0.01912 0.30165 0.0
O306 O 0.97854 0.93637 0.13049 0.0
O307 O 0.87671 0.92113 0.26163 0.0
Sc308 Sc 0.34154 0.6902 0.95755 0.0
Sc309 Sc 0.2951 0.64444 0.07318 0.0
Sc310 Sc 0.26864 0.72439 0.02517 0.0
O311 O 0.30151 0.68547 0.01713 0.0
C312 C 0.33814 0.76246 0.0199 0.0
C313 C 0.37365 0.6504 0.08243 0.0
C314 C 0.27901 0.70911 0.16797 0.0
C315 C 0.32175 0.61405 0.93247 0.0
C316 C 0.27559 0.72089 0.87822 0.0
C317 C 0.22002 0.65838 0.05032 0.0
O318 O 0.35632 0.73574 0.01066 0.0
O319 O 0.34524 0.64881 0.11243 0.0
O320 O 0.28431 0.73053 0.1227 0.0
O321 O 0.32874 0.64346 0.90838 0.0
O322 O 0.25485 0.71781 0.92588 0.0
O323 O 0.24432 0.63787 0.0367 0.0
O324 O 0.30853 0.71796 0.88468 0.0
O325 O 0.31357 0.61045 0.9933 0.0
O326 O 0.22604 0.69071 0.05622 0.0
O327 O 0.37652 0.66134 0.0233 0.0
O328 O 0.3072 0.76314 -0.00045 0.0
O329 O 0.2766 0.67645 0.15711 0.0
Sc330 Sc 0.54395 0.09788 0.71322 0.0
Sc331 Sc 0.58737 0.05595 0.84028 0.0
Sc332 Sc 0.51726 0.01705 0.76519 0.0
O333 O 0.5499 0.05686 0.7728 0.0
C334 C 0.47003 0.08419 0.76191 0.0
C335 C 0.57239 0.13356 0.84679 0.0
C336 C 0.5222 0.02125 0.91577 0.0
C337 C 0.62272 0.09082 0.71045 0.0
C338 C 0.52321 0.03381 0.61974 0.0
C339 C 0.58966 0.97908 0.79673 0.0
O340 O 0.4941 0.10557 0.75207 0.0
O341 O 0.574 0.10539 0.87826 0.0
O342 O 0.50434 0.01943 0.86428 0.0
O343 O 0.59501 0.09247 0.67712 0.0
O344 O 0.52772 0.01159 0.66408 0.0
O345 O 0.60544 0.00709 0.8079 0.0
O346 O 0.52407 0.06634 0.63101 0.0
O347 O 0.62332 0.08031 0.77023 0.0
O348 O 0.55725 0.97842 0.78551 0.0
O349 O 0.56309 0.13461 0.78667 0.0
O350 O 0.47321 0.05176 0.75089 0.0
O351 O 0.55386 0.03104 0.91597 0.0
C352 C 0.18114 0.12863 0.99309 0.0
C353 C 0.18795 0.16437 0.98413 0.0
C354 C 0.14388 0.16534 0.89758 0.0
C355 C 0.14516 0.12853 0.89463 0.0
N356 N 0.16354 0.07472 0.94253 0.0
N357 N 0.16712 0.21871 0.94332 0.0
C358 C 0.16324 0.11001 0.94352 0.0
C359 C 0.16631 0.18346 0.94144 0.0
N360 N 0.1904 0.11307 0.05054 0.0
N361 N 0.12095 0.1828 0.85902 0.0
H362 H 0.17822 0.23215 0.9825 0.0
H363 H 0.15624 0.23456 0.90772 0.0
H364 H 0.10538 0.17053 0.82445 0.0
H365 H 0.11604 0.20913 0.86295 0.0
H366 H 0.18398 0.08766 0.06209 0.0
H367 H 0.20054 0.1272 0.08988 0.0
H368 H 0.1792 0.06003 0.97328 0.0
H369 H 0.15001 0.06018 0.90778 0.0
C370 C 0.61352 0.40124 0.17854 0.0
C371 C 0.64873 0.40602 0.16012 0.0
C372 C 0.65293 0.45365 0.23988 0.0
C373 C 0.61671 0.45167 0.25038 0.0
N374 N 0.56898 0.41272 0.25901 0.0
N375 N 0.7024 0.43645 0.17419 0.0
C376 C 0.59893 0.42204 0.22869 0.0
C377 C 0.66864 0.43213 0.1912 0.0
N378 N 0.59322 0.3781 0.14561 0.0
N379 N 0.67255 0.47359 0.28086 0.0
H380 H 0.71514 0.42009 0.14147 0.0
H381 H 0.71727 0.45741 0.18927 0.0
H382 H 0.6623 0.48522 0.32282 0.0
H383 H 0.6993 0.47472 0.27918 0.0
H384 H 0.56667 0.37635 0.15222 0.0
H385 H 0.60195 0.36323 0.10652 0.0
H386 H 0.55615 0.38958 0.24962 0.0
H387 H 0.55974 0.42595 0.30015 0.0
C388 C 0.32786 0.89855 0.4453 0.0
C389 C 0.35063 0.87881 0.40615 0.0
C390 C 0.33352 0.82605 0.4661 0.0
C391 C 0.30719 0.84532 0.49671 0.0
N392 N 0.29585 0.90053 0.54718 0.0
N393 N 0.38215 0.82534 0.39096 0.0
C394 C 0.30955 0.88194 0.49644 0.0
C395 C 0.35597 0.84301 0.42078 0.0
N396 N 0.32361 0.93305 0.43383 0.0
N397 N 0.33675 0.79179 0.48076 0.0
H398 H 0.39837 0.83643 0.3564 0.0
H399 H 0.38869 0.79988 0.40104 0.0
H400 H 0.32325 0.78069 0.51969 0.0
H401 H 0.35305 0.77465 0.45667 0.0
H402 H 0.30467 0.94777 0.45691 0.0
H403 H 0.33739 0.94638 0.39795 0.0
H404 H 0.29882 0.92717 0.55212 0.0
H405 H 0.28559 0.88844 0.5886 0.0
C406 C 0.87935 0.60106 0.68951 0.0
C407 C 0.84571 0.59768 0.66169 0.0
C408 C 0.83512 0.54772 0.73327 0.0
C409 C 0.87039 0.54826 0.75189 0.0
N410 N 0.91762 0.58544 0.77891 0.0
N411 N 0.78996 0.57011 0.66209 0.0
C412 C 0.88967 0.57844 0.7404 0.0
C413 C 0.82294 0.57178 0.68541 0.0
N414 N 0.90261 0.62388 0.66382 0.0
N415 N 0.81308 0.52607 0.76534 0.0
H416 H 0.7795 0.58875 0.63108 0.0
H417 H 0.7732 0.54973 0.67144 0.0
H418 H 0.82091 0.51191 0.80628 0.0
H419 H 0.78664 0.52517 0.75732 0.0
H420 H 0.92815 0.62535 0.67924 0.0
H421 H 0.89794 0.63847 0.62186 0.0
H422 H 0.93132 0.60856 0.77673 0.0
H423 H 0.9241 0.56973 0.8187 0.0
C424 C 0.82466 0.87631 0.06423 0.0
C425 C 0.79338 0.86874 0.09627 0.0
C426 C 0.81234 0.90307 0.19231 0.0
C427 C 0.84432 0.90914 0.16079 0.0
N428 N 0.86867 0.91977 0.05345 0.0
N429 N 0.75255 0.88798 0.17937 0.0
C430 C 0.84703 0.90118 0.09254 0.0
C431 C 0.78566 0.88582 0.1571 0.0
N432 N 0.83271 0.86077 0.00594 0.0
N433 N 0.80648 0.91511 0.2544 0.0
H434 H 0.73148 0.87911 0.15313 0.0
H435 H 0.74521 0.90264 0.21999 0.0
H436 H 0.82031 0.93552 0.27496 0.0
H437 H 0.78694 0.90553 0.28437 0.0
H438 H 0.85676 0.86361 0.98378 0.0
H439 H 0.81639 0.84316 0.98258 0.0
H440 H 0.87 0.91639 0.00267 0.0
H441 H 0.88083 0.94211 0.07056 0.0
C442 C 0.35419 0.52457 0.89714 0.0
C443 C 0.37362 0.5308 0.83868 0.0
C444 C 0.34474 0.58685 0.8273 0.0
C445 C 0.33048 0.58286 0.89124 0.0
N446 N 0.30521 0.54119 0.96372 0.0
N447 N 0.38644 0.56743 0.74631 0.0
C448 C 0.33022 0.54964 0.91943 0.0
C449 C 0.36845 0.56177 0.80295 0.0
N450 N 0.35984 0.49564 0.93388 0.0
N451 N 0.33302 0.61277 0.78778 0.0
H452 H 0.40238 0.54883 0.72499 0.0
H453 H 0.38704 0.59115 0.72236 0.0
H454 H 0.31213 0.62823 0.80108 0.0
H455 H 0.34036 0.61585 0.73898 0.0
H456 H 0.35004 0.49247 0.98112 0.0
H457 H 0.37634 0.47587 0.91995 0.0
H458 H 0.30175 0.51633 0.98203 0.0
H459 H 0.28474 0.55777 0.97424 0.0
C460 C 0.65877 0.09939 0.60967 0.0
C461 C 0.65418 0.10549 0.67808 0.0
C462 C 0.69244 0.15594 0.67128 0.0
C463 C 0.69706 0.14997 0.60289 0.0
N464 N 0.68102 0.11952 0.50467 0.0
N465 N 0.67729 0.132 0.77684 0.0
C466 C 0.67919 0.12251 0.57155 0.0
C467 C 0.67418 0.13142 0.70991 0.0
N468 N 0.6451 0.07007 0.58246 0.0
N469 N 0.70447 0.18568 0.69939 0.0
H470 H 0.66649 0.11375 0.80785 0.0
H471 H 0.69442 0.14807 0.80179 0.0
H472 H 0.71532 0.20554 0.67237 0.0
H473 H 0.69973 0.19289 0.74786 0.0
H474 H 0.64902 0.06222 0.53415 0.0
H475 H 0.63234 0.05157 0.61065 0.0
H476 H 0.66675 0.10199 0.47701 0.0
H477 H 0.69495 0.13692 0.47592 0.0
C478 C 0.1558 0.44877 0.43378 0.0
C479 C 0.16805 0.42058 0.39657 0.0
C480 C 0.13566 0.44294 0.3008 0.0
C481 C 0.11763 0.46557 0.34354 0.0
N482 N 0.10688 0.4849 0.4548 0.0
N483 N 0.17635 0.39537 0.28938 0.0
C484 C 0.12668 0.46694 0.41121 0.0
C485 C 0.16003 0.41911 0.32807 0.0
N486 N 0.17275 0.45939 0.48903 0.0
N487 N 0.13014 0.44493 0.23462 0.0
H488 H 0.19757 0.38142 0.30627 0.0
H489 H 0.16928 0.38969 0.24122 0.0
H490 H 0.11197 0.4616 0.21416 0.0
H491 H 0.14439 0.43141 0.19976 0.0
H492 H 0.16555 0.48131 0.51559 0.0
H493 H 0.19695 0.44981 0.50171 0.0
H494 H 0.11088 0.48403 0.50546 0.0
H495 H 0.08419 0.49705 0.44095 0.0
C496 C 0.64391 0.65193 0.41812 0.0
C497 C 0.64612 0.61583 0.40395 0.0
C498 C 0.68992 0.60981 0.48982 0.0
C499 C 0.69244 0.64639 0.49389 0.0
N500 N 0.66052 0.69929 0.49039 0.0
N501 N 0.67003 0.55981 0.42832 0.0
C502 C 0.66579 0.66664 0.46682 0.0
C503 C 0.66871 0.59452 0.4406 0.0
N504 N 0.62227 0.6725 0.3824 0.0
N505 N 0.70543 0.58997 0.53667 0.0
H506 H 0.65364 0.54743 0.39513 0.0
H507 H 0.68876 0.54362 0.44803 0.0
H508 H 0.71693 0.6009 0.57819 0.0
H509 H 0.70274 0.56326 0.53956 0.0
H510 H 0.62168 0.69931 0.38611 0.0
H511 H 0.60701 0.6632 0.34418 0.0
H512 H 0.63999 0.71495 0.47665 0.0
H513 H 0.67445 0.70896 0.53033 0.0
C514 C 0.18019 0.9437 0.64187 0.0
C515 C 0.17181 0.90941 0.65877 0.0
C516 C 0.13716 0.93038 0.75157 0.0
C517 C 0.13936 0.96437 0.72621 0.0
N518 N 0.16575 0.0041 0.64831 0.0
N519 N 0.16219 0.87314 0.75327 0.0
C520 C 0.16233 0.97144 0.67273 0.0
C521 C 0.15617 0.90341 0.72091 0.0
N522 N 0.20721 0.94971 0.60048 0.0
N523 N 0.11639 0.92371 0.8042 0.0
H524 H 0.18035 0.85526 0.73684 0.0
H525 H 0.1535 0.86819 0.8007 0.0
H526 H 0.10404 0.94319 0.83079 0.0
H527 H 0.11021 0.8988 0.81943 0.0
H528 H 0.21693 0.97421 0.59048 0.0
H529 H 0.22311 0.92983 0.58371 0.0
H530 H 0.1771 0.00937 0.60308 0.0
H531 H 0.15629 0.02612 0.67108 0.0
C532 C 0.8355 0.40112 0.96148 0.0
C533 C 0.84465 0.38346 0.90267 0.0
C534 C 0.82359 0.32959 0.95005 0.0
C535 C 0.80702 0.34796 0.00121 0.0
N536 N 0.80413 0.40028 0.06526 0.0
N537 N 0.84153 0.33166 0.83696 0.0
C538 C 0.81525 0.38361 0.01002 0.0
C539 C 0.83684 0.34794 0.89577 0.0
N540 N 0.84645 0.43434 0.9708 0.0
N541 N 0.82866 0.29485 0.95506 0.0
H542 H 0.84982 0.34476 0.79516 0.0
H543 H 0.83341 0.30633 0.82852 0.0
H544 H 0.82321 0.28147 -0.00172 0.0
H545 H 0.84264 0.28072 0.92045 0.0
H546 H 0.84364 0.44797 0.01459 0.0
H547 H 0.85959 0.44807 0.93458 0.0
H548 H 0.80535 0.4269 0.0721 0.0
H549 H 0.79386 0.38686 0.10511 0.0
C550 C 0.36817 0.07141 0.24552 0.0
C551 C 0.36471 0.03707 0.22195 0.0
C552 C 0.31938 0.05676 0.14505 0.0
C553 C 0.32814 0.0913 0.1596 0.0
N554 N 0.34344 0.12887 0.24962 0.0
N555 N 0.33524 0.99671 0.14873 0.0
C556 C 0.34744 0.09801 0.21778 0.0
C557 C 0.33931 0.0295 0.17256 0.0
N558 N 0.39158 0.07878 0.29372 0.0
N559 N 0.29018 0.04996 0.1098 0.0
H560 H 0.34654 0.97499 0.16904 0.0
H561 H 0.32169 0.99112 0.10579 0.0
H562 H 0.27285 0.06935 0.09683 0.0
H563 H 0.2804 0.0252 0.10228 0.0
H564 H 0.39841 0.10388 0.30698 0.0
H565 H 0.40555 0.05973 0.31824 0.0
H566 H 0.35466 0.13455 0.29487 0.0
H567 H 0.32486 0.14682 0.23529 0.0
C568 C 0.34132 0.3989 0.60984 0.0
C569 C 0.35922 0.37816 0.65577 0.0
C570 C 0.33585 0.32576 0.6032 0.0
C571 C 0.31354 0.34677 0.56551 0.0
N572 N 0.30946 0.4006 0.50735 0.0
N573 N 0.37527 0.3219 0.69555 0.0
C574 C 0.32061 0.3827 0.56104 0.0
C575 C 0.35721 0.34152 0.65183 0.0
N576 N 0.34339 0.4341 0.61404 0.0
N577 N 0.33824 0.29131 0.5892 0.0
H578 H 0.39003 0.33274 0.73299 0.0
H579 H 0.37371 0.29516 0.6983 0.0
H580 H 0.32649 0.2805 0.54788 0.0
H581 H 0.3552 0.27444 0.61222 0.0
H582 H 0.32816 0.45073 0.58632 0.0
H583 H 0.35845 0.44676 0.64918 0.0
H584 H 0.31586 0.42625 0.49812 0.0
H585 H 0.2975 0.38823 0.46775 0.0
C586 C 0.86896 0.06517 0.44507 0.0
C587 C 0.84191 0.0827 0.41244 0.0
C588 C 0.86521 0.06162 0.30655 0.0
C589 C 0.8949 0.04896 0.33956 0.0
N590 N 0.92802 0.04638 0.43976 0.0
N591 N 0.81113 0.09336 0.31184 0.0
C592 C 0.89782 0.05358 0.40853 0.0
C593 C 0.83917 0.07961 0.34278 0.0
N594 N 0.86609 0.05699 0.50999 0.0
N595 N 0.86177 0.05553 0.24067 0.0
H596 H 0.7897 0.10215 0.3379 0.0
H597 H 0.80892 0.09608 0.26118 0.0
H598 H 0.88152 0.04457 0.21274 0.0
H599 H 0.83952 0.06049 0.21385 0.0
H600 H 0.88447 0.04253 0.53516 0.0
H601 H 0.84289 0.05919 0.53525 0.0
H602 H 0.93233 0.05212 0.4892 0.0
H603 H 0.9499 0.03873 0.41442 0.0
C604 C 0.14381 0.65144 0.1636 0.0
C605 C 0.1445 0.61553 0.17746 0.0
C606 C 0.18481 0.60665 0.08643 0.0
C607 C 0.18761 0.64308 0.07858 0.0
N608 N 0.15691 0.69687 0.08552 0.0
N609 N 0.16672 0.5588 0.15534 0.0
C610 C 0.16317 0.66465 0.10996 0.0
C611 C 0.16535 0.59307 0.13968 0.0
N612 N 0.12514 0.67297 0.20305 0.0
N613 N 0.19795 0.58521 0.03928 0.0
H614 H 0.15271 0.54838 0.19432 0.0
H615 H 0.1839 0.54147 0.13389 0.0
H616 H 0.20775 0.59465 0.9951 0.0
H617 H 0.19477 0.5585 0.03934 0.0
H618 H 0.12459 0.69972 0.19821 0.0
H619 H 0.11334 0.66414 0.24568 0.0
H620 H 0.13791 0.71334 0.10342 0.0
H621 H 0.16758 0.70517 0.04127 0.0
C622 C 0.608 0.90656 0.90535 0.0
C623 C 0.64446 0.90718 0.9093 0.0
C624 C 0.6456 0.94737 0.81604 0.0
C625 C 0.60891 0.94683 0.81432 0.0
N626 N 0.55991 0.90984 0.83059 0.0
N627 N 0.69858 0.92258 0.85969 0.0
C628 C 0.59147 0.92127 0.85036 0.0
C629 C 0.66356 0.92582 0.86162 0.0
N630 N 0.58895 0.89266 0.95481 0.0
N631 N 0.66292 0.96854 0.77391 0.0
H632 H 0.71227 0.90837 0.89453 0.0
H633 H 0.71391 0.93267 0.82249 0.0
H634 H 0.65031 0.98138 0.73576 0.0
H635 H 0.6892 0.97356 0.7769 0.0
H636 H 0.5621 0.89347 0.95539 0.0
H637 H 0.6002 0.8849 -0.00127 0.0
H638 H 0.54733 0.88932 0.85345 0.0
H639 H 0.54879 0.91781 0.78648 0.0
C640 C 0.3888 0.12857 0.82199 0.0
C641 C 0.39357 0.12698 0.89158 0.0
C642 C 0.4493 0.09966 0.87391 0.0
C643 C 0.44226 0.09646 0.80572 0.0
N644 N 0.40327 0.10427 0.71525 0.0
N645 N 0.42477 0.10197 0.98236 0.0
C646 C 0.41116 0.10953 0.7799 0.0
C647 C 0.42278 0.10998 0.91721 0.0
N648 N 0.36447 0.14997 0.79583 0.0
N649 N 0.4817 0.0943 0.89763 0.0
H650 H 0.40471 0.10587 0.01552 0.0
H651 H 0.44494 0.08758 0.00153 0.0
H652 H 0.50243 0.08684 0.86846 0.0
H653 H 0.48855 0.10123 0.94528 0.0
H654 H 0.36201 0.15445 0.74561 0.0
H655 H 0.34939 0.16632 0.82452 0.0
H656 H 0.37939 0.11042 0.69506 0.0
H657 H 0.41967 0.09102 0.68332 0.0
C658 C 0.60841 0.65243 0.07536 0.0
C659 C 0.59995 0.66088 0.14181 0.0
C660 C 0.63031 0.71603 0.12766 0.0
C661 C 0.64364 0.7044 0.06619 0.0
N662 N 0.64747 0.66018 0.98355 0.0
N663 N 0.60081 0.70374 0.22903 0.0
C664 C 0.63348 0.67205 0.04088 0.0
C665 C 0.61008 0.6936 0.16721 0.0
N666 N 0.5907 0.6268 0.04386 0.0
N667 N 0.63532 0.74946 0.14705 0.0
H668 H 0.57942 0.69428 0.25366 0.0
H669 H 0.61363 0.72306 0.25503 0.0
H670 H 0.65157 0.76655 0.12283 0.0
H671 H 0.62118 0.76097 0.1845 0.0
H672 H 0.59349 0.62117 0.99407 0.0
H673 H 0.56999 0.61434 0.0659 0.0
H674 H 0.64351 0.6352 0.96587 0.0
H675 H 0.66549 0.67436 0.95678 0.0
C676 C 0.08651 0.91056 0.30451 0.0
C677 C 0.05174 0.89966 0.3082 0.0
C678 C 0.06724 0.85959 0.39643 0.0
C679 C 0.101 0.87321 0.39833 0.0
N680 N 0.13812 0.92104 0.36785 0.0
N681 N 0.00846 0.87608 0.38102 0.0
C682 C 0.10936 0.90158 0.35645 0.0
C683 C 0.04184 0.87771 0.36102 0.0
N684 N 0.09828 0.92834 0.25127 0.0
N685 N 0.05916 0.82897 0.4258 0.0
H686 H 0.99034 0.89348 0.36354 0.0
H687 H 0.0006 0.86189 0.42187 0.0
H688 H 0.07738 0.81299 0.44773 0.0
H689 H 0.0349 0.81764 0.42087 0.0
H690 H 0.12427 0.93417 0.24469 0.0
H691 H 0.08293 0.93393 0.21066 0.0
H692 H 0.14365 0.94338 0.34137 0.0
H693 H 0.15379 0.91758 0.40895 0.0
C694 C 0.8806 0.31667 0.52854 0.0
C695 C 0.86915 0.28435 0.55209 0.0
C696 C 0.8883 0.30012 0.66386 0.0
C697 C 0.89944 0.33279 0.6402 0.0
N698 N 0.91923 0.36486 0.54649 0.0
N699 N 0.87241 0.24136 0.63798 0.0
C700 C 0.89948 0.33886 0.57131 0.0
C701 C 0.87641 0.2748 0.61831 0.0
N702 N 0.87347 0.32634 0.4655 0.0
N703 N 0.88737 0.29335 0.72967 0.0
H704 H 0.86241 0.22226 0.60765 0.0
H705 H 0.88149 0.23195 0.68267 0.0
H706 H 0.8979 0.30935 0.76543 0.0
H707 H 0.87431 0.27229 0.74946 0.0
H708 H 0.8781 0.35118 0.44796 0.0
H709 H 0.86081 0.31018 0.43217 0.0
H710 H 0.92312 0.36827 0.49629 0.0
H711 H 0.93509 0.38003 0.57637 0.0
C712 C 0.55424 0.85301 0.09862 0.0
C713 C 0.58562 0.84516 0.13085 0.0
C714 C 0.56953 0.8826 0.2235 0.0
C715 C 0.53938 0.8924 0.19008 0.0
N716 N 0.50267 0.88841 0.0947 0.0
N717 N 0.61142 0.83772 0.23816 0.0
C718 C 0.53163 0.87794 0.12717 0.0
C719 C 0.58992 0.85566 0.1976 0.0
N720 N 0.5445 0.83405 0.04498 0.0
N721 N 0.5788 0.89903 0.28025 0.0
H722 H 0.62341 0.81502 0.22327 0.0
H723 H 0.61332 0.84232 0.28851 0.0
H724 H 0.56455 0.91936 0.29977 0.0
H725 H 0.6024 0.89505 0.30347 0.0
H726 H 0.52113 0.83691 0.02063 0.0
H727 H 0.55783 0.81204 0.03004 0.0
H728 H 0.49719 0.88226 0.04601 0.0
H729 H 0.48493 0.90531 0.11548 0.0
C730 C 0.40481 0.30761 0.98396 0.0
C731 C 0.38578 0.28182 0.95056 0.0
C732 C 0.41905 0.29296 0.84943 0.0
C733 C 0.43295 0.32261 0.88029 0.0
N734 N 0.4553 0.3445 0.98179 0.0
N735 N 0.38081 0.24317 0.85754 0.0
C736 C 0.43108 0.32537 0.94958 0.0
C737 C 0.39491 0.27223 0.88495 0.0
N738 N 0.39736 0.31562 0.04782 0.0
N739 N 0.43021 0.28406 0.7881 0.0
H740 H 0.36318 0.22755 0.88216 0.0
H741 H 0.38672 0.23381 0.81104 0.0
H742 H 0.45131 0.29612 0.76638 0.0
H743 H 0.4206 0.26365 0.76034 0.0
H744 H 0.40826 0.33656 0.07251 0.0
H745 H 0.37848 0.30271 0.07474 0.0
H746 H 0.45721 0.34598 0.03277 0.0
H747 H 0.47592 0.35546 0.95628 0.0
C748 C 0.9406 0.13023 0.58923 0.0
C749 C 0.90535 0.12687 0.60577 0.0
C750 C 0.92055 0.08718 0.69549 0.0
C751 C 0.95552 0.0901 0.67775 0.0
N752 N 0.99695 0.10405 0.59367 0.0
N753 N 0.86171 0.09164 0.65903 0.0
C754 C 0.96482 0.10808 0.61967 0.0
C755 C 0.89524 0.10202 0.654 0.0
N756 N 0.95158 0.156 0.54855 0.0
N757 N 0.91144 0.0718 0.75321 0.0
H758 H 0.84241 0.10004 0.6274 0.0
H759 H 0.85388 0.07144 0.6893 0.0
H760 H 0.92927 0.06029 0.78451 0.0
H761 H 0.88653 0.07278 0.77214 0.0
H762 H 0.97757 0.16139 0.54076 0.0
H763 H 0.93519 0.17429 0.52796 0.0
H764 H 0.00363 0.11354 0.54753 0.0
H765 H 0.01541 0.08801 0.61487 0.0
C766 C 0.0814 0.70553 0.35027 0.0
C767 C 0.06753 0.67607 0.38171 0.0
C768 C 0.09675 0.6921 0.48458 0.0
C769 C 0.11505 0.71815 0.45078 0.0
N770 N 0.12209 0.75342 0.35414 0.0
N771 N 0.04591 0.65592 0.48556 0.0
C772 C 0.10631 0.7262 0.38439 0.0
C773 C 0.07032 0.67372 0.45123 0.0
N774 N 0.06861 0.7151 0.29051 0.0
N775 N 0.1049 0.68453 0.54825 0.0
H776 H 0.024 0.64592 0.46258 0.0
H777 H 0.04485 0.6553 0.53668 0.0
H778 H 0.12375 0.69791 0.57461 0.0
H779 H 0.09483 0.6633 0.57307 0.0
H780 H 0.07622 0.73695 0.26478 0.0
H781 H 0.04722 0.70298 0.2697 0.0
H782 H 0.11877 0.75969 0.30496 0.0
H783 H 0.13969 0.7695 0.378 0.0
C784 C 0.91515 0.64709 0.35207 0.0
C785 C 0.9022 0.6291 0.40666 0.0
C786 C 0.92294 0.57433 0.35823 0.0
C787 C 0.93517 0.59299 0.30262 0.0
N788 N 0.92936 0.64417 0.23676 0.0
N789 N 0.89033 0.57525 0.46065 0.0
C790 C 0.92647 0.62842 0.29641 0.0
C791 C 0.90516 0.5925 0.40945 0.0
N792 N 0.91777 0.68216 0.35447 0.0
N793 N 0.9281 0.53953 0.36219 0.0
H794 H 0.87976 0.58814 0.50096 0.0
H795 H 0.88771 0.54853 0.4629 0.0
H796 H 0.93547 0.52458 0.32207 0.0
H797 H 0.92425 0.52515 0.40464 0.0
H798 H 0.92982 0.69657 0.31789 0.0
H799 H 0.91179 0.69595 0.3971 0.0
H800 H 0.92112 0.6694 0.22826 0.0
H801 H 0.93652 0.63044 0.19465 0.0
C802 C 0.12066 0.18271 0.52687 0.0
C803 C 0.12923 0.21543 0.55275 0.0
C804 C 0.09762 0.20204 0.65476 0.0
C805 C 0.09173 0.16805 0.63069 0.0
N806 N 0.08243 0.13372 0.53371 0.0
N807 N 0.11881 0.25974 0.63428 0.0
C808 C 0.09862 0.16079 0.56345 0.0
C809 C 0.11544 0.22618 0.61442 0.0
N810 N 0.13368 0.17235 0.46764 0.0
N811 N 0.08709 0.21137 0.71629 0.0
H812 H 0.13511 0.27743 0.61162 0.0
H813 H 0.10395 0.27054 0.67155 0.0
H814 H 0.06764 0.19865 0.74155 0.0
H815 H 0.09666 0.23275 0.74155 0.0
H816 H 0.13139 0.14714 0.45001 0.0
H817 H 0.14871 0.18835 0.43808 0.0
H818 H 0.08332 0.12945 0.48321 0.0
H819 H 0.0647 0.11843 0.55875 0.0
C820 C 0.59717 0.40939 0.91483 0.0
C821 C 0.60568 0.37429 0.90192 0.0
C822 C 0.57965 0.37904 0.79277 0.0
C823 C 0.5654 0.41149 0.81023 0.0
N824 N 0.56469 0.46039 0.88435 0.0
N825 N 0.60358 0.32479 0.83017 0.0
C826 C 0.57575 0.42777 0.86987 0.0
C827 C 0.59673 0.35896 0.84101 0.0
N828 N 0.61059 0.42547 0.96901 0.0
N829 N 0.57695 0.36782 0.72927 0.0
H830 H 0.61534 0.30926 0.86538 0.0
H831 H 0.59483 0.31118 0.7892 0.0
H832 H 0.56545 0.38292 0.69289 0.0
H833 H 0.58913 0.34574 0.71146 0.0
H834 H 0.60972 0.45203 0.97686 0.0
H835 H 0.62431 0.41235 0.00513 0.0
H836 H 0.5669 0.47177 0.93051 0.0
H837 H 0.55367 0.47669 0.84975 0.0
C838 C 0.33529 0.80568 0.11448 0.0
C839 C 0.35344 0.79143 0.05966 0.0
C840 C 0.40766 0.81644 0.10179 0.0
C841 C 0.38973 0.82988 0.15651 0.0
N842 N 0.33792 0.83643 0.219 0.0
N843 N 0.40448 0.79124 0.99257 0.0
C844 C 0.35397 0.82376 0.16422 0.0
C845 C 0.38908 0.79897 0.05119 0.0
N846 N 0.30032 0.80228 0.11906 0.0
N847 N 0.44262 0.82027 0.09898 0.0
H848 H 0.39081 0.78092 0.95291 0.0
H849 H 0.42956 0.7982 0.98048 0.0
H850 H 0.45649 0.83264 0.13623 0.0
H851 H 0.45817 0.80881 0.06348 0.0
H852 H 0.28587 0.80787 0.16064 0.0
H853 H 0.28456 0.79547 0.07994 0.0
H854 H 0.31148 0.83753 0.22617 0.0
H855 H 0.35179 0.84552 0.2593 0.0
C856 C 0.07216 0.39007 0.58901 0.0
C857 C 0.09651 0.36782 0.6194 0.0
C858 C 0.07031 0.38106 0.72706 0.0
C859 C 0.04385 0.39963 0.69523 0.0
N860 N 0.01466 0.41349 0.59401 0.0
N861 N 0.11456 0.33758 0.71803 0.0
C862 C 0.04332 0.40175 0.62568 0.0
C863 C 0.09443 0.36206 0.68873 0.0
N864 N 0.07737 0.40206 0.52671 0.0
N865 N 0.07273 0.38198 0.79406 0.0
H866 H 0.13238 0.3226 0.69272 0.0
H867 H 0.11126 0.32965 0.76647 0.0
H868 H 0.0552 0.39535 0.82349 0.0
H869 H 0.09371 0.3722 0.81994 0.0
H870 H 0.06184 0.42098 0.50557 0.0
H871 H 0.09923 0.39646 0.49903 0.0
H872 H 0.01159 0.41128 0.54336 0.0
H873 H 0.99259 0.42154 0.61869 0.0
C874 C 0.86358 0.82692 0.46391 0.0
C875 C 0.86503 0.79154 0.44695 0.0
C876 C 0.90361 0.80531 0.35507 0.0
C877 C 0.8999 0.84102 0.36872 0.0
N878 N 0.86413 0.88472 0.42094 0.0
N879 N 0.87574 0.74975 0.361 0.0
C880 C 0.87625 0.85161 0.41868 0.0
C881 C 0.88188 0.78145 0.38793 0.0
N882 N 0.85108 0.83716 0.52355 0.0
N883 N 0.92857 0.79371 0.31329 0.0
H884 H 0.85873 0.73199 0.38171 0.0
H885 H 0.88459 0.74294 0.31438 0.0
H886 H 0.94623 0.81001 0.2905 0.0
H887 H 0.93382 0.76749 0.30683 0.0
H888 H 0.85254 0.86267 0.53998 0.0
H889 H 0.84262 0.81978 0.55909 0.0
H890 H 0.84493 0.89258 0.45348 0.0
H891 H 0.86953 0.9029 0.3848 0.0
C892 C 0.4108 0.59955 0.10858 0.0
C893 C 0.40316 0.63514 0.11805 0.0
C894 C 0.43428 0.63467 0.22266 0.0
C895 C 0.44554 0.60038 0.21 0.0
N896 N 0.44262 0.54875 0.14302 0.0
N897 N 0.41049 0.68785 0.17917 0.0
C898 C 0.43301 0.58224 0.1538 0.0
C899 C 0.41584 0.65304 0.17371 0.0
N900 N 0.39586 0.58217 0.05725 0.0
N901 N 0.44013 0.64905 0.2831 0.0
H902 H 0.39724 0.70198 0.14358 0.0
H903 H 0.42178 0.70318 0.21539 0.0
H904 H 0.45195 0.63539 0.32109 0.0
H905 H 0.43006 0.67275 0.29792 0.0
H906 H 0.39635 0.55549 0.05124 0.0
H907 H 0.3816 0.59456 0.02089 0.0
H908 H 0.43738 0.53504 0.10023 0.0
H909 H 0.45596 0.53402 0.17711 0.0
C910 C 0.57932 0.16878 0.94967 0.0
C911 C 0.58571 0.16517 0.8811 0.0
C912 C 0.62538 0.21457 0.88797 0.0
C913 C 0.62418 0.21293 0.95753 0.0
N914 N 0.60106 0.18747 0.05576 0.0
N915 N 0.61834 0.18425 0.78545 0.0
C916 C 0.60138 0.18977 0.98878 0.0
C917 C 0.60934 0.18821 0.84998 0.0
N918 N 0.55125 0.15313 0.97683 0.0
N919 N 0.64132 0.24177 0.85795 0.0
H920 H 0.60888 0.1653 0.75421 0.0
H921 H 0.63798 0.19833 0.76335 0.0
H922 H 0.65316 0.26165 0.88407 0.0
H923 H 0.63952 0.24668 0.80776 0.0
H924 H 0.54354 0.15693 0.02533 0.0
H925 H 0.53337 0.13972 0.94834 0.0
H926 H 0.58752 0.16846 0.08106 0.0
H927 H 0.61656 0.2029 0.08581 0.0
C928 C 0.28138 0.28055 0.23161 0.0
C929 C 0.28012 0.24606 0.20815 0.0
C930 C 0.23675 0.2316 0.29187 0.0
C931 C 0.23631 0.26666 0.31248 0.0
N932 N 0.25562 0.32535 0.29993 0.0
N933 N 0.25469 0.18923 0.2106 0.0
C934 C 0.25796 0.2914 0.28166 0.0
C935 C 0.25737 0.22166 0.23709 0.0
N936 N 0.30541 0.30266 0.20634 0.0
N937 N 0.21815 0.20762 0.32604 0.0
H938 H 0.2707 0.18036 0.17301 0.0
H939 H 0.23561 0.1716 0.2234 0.0
H940 H 0.20138 0.21423 0.3641 0.0
H941 H 0.22054 0.18107 0.3192 0.0
H942 H 0.30996 0.32745 0.22422 0.0
H943 H 0.32285 0.29512 0.17002 0.0
H944 H 0.26829 0.34544 0.27622 0.0
H945 H 0.23887 0.33391 0.33659 0.0
C946 C 0.46237 0.50444 0.53788 0.0
C947 C 0.48788 0.48805 0.57695 0.0
C948 C 0.53349 0.51787 0.51577 0.0
C949 C 0.50798 0.53411 0.47674 0.0
N950 N 0.44871 0.54811 0.45606 0.0
N951 N 0.54738 0.48202 0.60947 0.0
C952 C 0.47252 0.52919 0.48995 0.0
C953 C 0.52339 0.49555 0.56762 0.0
N954 N 0.42857 0.49524 0.54536 0.0
N955 N 0.56751 0.52299 0.50116 0.0
H956 H 0.54146 0.46351 0.64463 0.0
H957 H 0.57298 0.48991 0.61127 0.0
H958 H 0.57563 0.54126 0.46683 0.0
H959 H 0.58761 0.50865 0.52104 0.0
H960 H 0.40871 0.50383 0.51526 0.0
H961 H 0.42054 0.47669 0.57917 0.0
H962 H 0.42246 0.54801 0.46613 0.0
H963 H 0.45567 0.5663 0.42077 0.0
C964 C 0.21451 0.71956 0.73292 0.0
C965 C 0.21697 0.75414 0.71095 0.0
C966 C 0.2602 0.76664 0.79629 0.0
C967 C 0.25966 0.73136 0.81506 0.0
N968 N 0.23961 0.67319 0.79761 0.0
N969 N 0.24427 0.81008 0.71616 0.0
C970 C 0.23763 0.70753 0.78232 0.0
C971 C 0.24034 0.77757 0.74133 0.0
N972 N 0.18986 0.6984 0.70659 0.0
N973 N 0.27866 0.78999 0.83261 0.0
H974 H 0.22876 0.81977 0.67859 0.0
H975 H 0.26393 0.82688 0.73003 0.0
H976 H 0.29469 0.78283 0.87135 0.0
H977 H 0.27665 0.81663 0.82695 0.0
H978 H 0.18444 0.67372 0.72384 0.0
H979 H 0.17275 0.70674 0.67038 0.0
H980 H 0.22666 0.65381 0.77209 0.0
H981 H 0.25658 0.66366 0.83297 0.0
C982 C 0.03585 0.49988 0.02301 0.0
C983 C 0.01136 0.5172 0.06321 0.0
C984 C 0.96438 0.48681 0.00605 0.0
C985 C 0.98858 0.47198 0.96239 0.0
N986 N 0.04695 0.46616 0.92435 0.0
N987 N 0.952 0.5306 0.08807 0.0
C988 C 0.02428 0.47881 0.96982 0.0
C989 C 0.97549 0.51171 0.05318 0.0
N990 N 0.07022 0.50345 0.03612 0.0
N991 N 0.93072 0.47652 0.00269 0.0
H992 H 0.95892 0.54902 0.12298 0.0
H993 H 0.92566 0.53032 0.07859 0.0
H994 H 0.9222 0.45803 0.96895 0.0
H995 H 0.912 0.48363 0.03671 0.0
H996 H 0.08926 0.48834 0.01437 0.0
H997 H 0.07973 0.52072 0.07122 0.0
H998 H 0.07269 0.47352 0.92172 0.0
H999 H 0.03948 0.44928 0.88688 0.0
C1000 C 0.74729 0.7318 0.81286 0.0
C1001 C 0.73872 0.76707 0.82277 0.0
C1002 C 0.77098 0.78293 0.72367 0.0
C1003 C 0.78072 0.74782 0.71541 0.0
N1004 N 0.78346 0.68982 0.75706 0.0
N1005 N 0.74585 0.82699 0.79419 0.0
C1006 C 0.77057 0.72258 0.76182 0.0
C1007 C 0.75161 0.79291 0.78004 0.0
N1008 N 0.7324 0.70706 0.85142 0.0
N1009 N 0.77946 0.80646 0.67641 0.0
H1010 H 0.73044 0.83507 0.83331 0.0
H1011 H 0.75771 0.84729 0.76953 0.0
H1012 H 0.79527 0.80032 0.63663 0.0
H1013 H 0.76975 0.83151 0.67491 0.0
H1014 H 0.73476 0.68064 0.84297 0.0
H1015 H 0.71513 0.71295 0.88906 0.0
H1016 H 0.77979 0.67082 0.79242 0.0
H1017 H 0.80059 0.6825 0.72019 0.0
C1018 C 0.72685 0.27692 0.26542 0.0
C1019 C 0.71102 0.25193 0.22445 0.0
C1020 C 0.73992 0.20551 0.285 0.0
C1021 C 0.75877 0.2308 0.32071 0.0
N1022 N 0.77313 0.29038 0.3415 0.0
N1023 N 0.70265 0.19277 0.19201 0.0
C1024 C 0.75301 0.26651 0.30996 0.0
C1025 C 0.71736 0.21622 0.23383 0.0
N1026 N 0.71672 0.31065 0.26122 0.0
N1027 N 0.74317 0.17138 0.30099 0.0
H1028 H 0.68443 0.1999 0.1568 0.0
H1029 H 0.70929 0.16672 0.19049 0.0
H1030 H 0.76078 0.16262 0.33593 0.0
H1031 H 0.72742 0.15197 0.28213 0.0
H1032 H 0.72504 0.33002 0.29306 0.0
H1033 H 0.69724 0.31856 0.22934 0.0
H1034 H 0.77248 0.31673 0.33165 0.0
H1035 H 0.7928 0.28346 0.37385 0.0
C1036 C 0.03173 0.02521 0.00794 0.0
C1037 C 0.01054 0.0252 0.9514 0.0
C1038 C 0.97155 0.9831 0.00224 0.0
C1039 C 0.99119 0.98502 0.06075 0.0
N1040 N 0.03901 0.00913 0.12192 0.0
N1041 N 0.95788 0.00891 0.89698 0.0
C1042 C 0.02098 0.00654 0.06436 0.0
C1043 C 0.9797 0.00551 0.94932 0.0
N1044 N 0.06284 0.04181 0.00652 0.0
N1045 N 0.94549 0.95951 -0.00307 0.0
H1046 H 0.96312 0.02536 0.85779 0.0
H1047 H 0.93338 0.99804 0.89492 0.0
H1048 H 0.93911 0.94259 0.03471 0.0
H1049 H 0.93224 0.95446 0.95348 0.0
H1050 H 0.08162 0.03927 0.04271 0.0
H1051 H 0.07083 0.05689 0.96694 0.0
H1052 H 0.05787 0.02771 0.13071 0.0
H1053 H 0.03425 0.99345 0.16238 0.0
C1054 C 0.47685 0.01847 0.54018 0.0
C1055 C 0.51253 0.01976 0.55518 0.0
C1056 C 0.52473 0.98 0.46379 0.0
C1057 C 0.48884 0.9766 0.45225 0.0
N1058 N 0.43037 0.98818 0.48447 0.0
N1059 N 0.57045 0.0 0.53595 0.0
C1060 C 0.4648 0.99469 0.49191 0.0
C1061 C 0.53649 1e-05 0.51816 0.0
N1062 N 0.4545 0.04 0.57217 0.0
N1063 N 0.54756 0.96515 0.42123 0.0
H1064 H 0.58024 0.01621 0.57256 0.0
H1065 H 0.58862 0.98301 0.51666 0.0
H1066 H 0.5397 0.94931 0.38261 0.0
H1067 H 0.57394 0.96994 0.42184 0.0
H1068 H 0.42873 0.04286 0.55923 0.0
H1069 H 0.46232 0.05739 0.60841 0.0
H1070 H 0.41145 0.99782 0.5157 0.0
H1071 H 0.42085 0.97044 0.45024 0.0
C1072 C 0.26708 0.27292 0.73794 0.0
C1073 C 0.23112 0.27349 0.72822 0.0
C1074 C 0.2262 0.21804 0.78738 0.0
C1075 C 0.2622 0.21808 0.79747 0.0
N1076 N 0.31709 0.23767 0.75935 0.0
N1077 N 0.17549 0.25047 0.75447 0.0
C1078 C 0.28258 0.24311 0.76503 0.0
C1079 C 0.21043 0.24699 0.7562 0.0
N1080 N 0.28644 0.30141 0.72446 0.0
N1081 N 0.20758 0.18933 0.80265 0.0
H1082 H 0.16387 0.27239 0.73463 0.0
H1083 H 0.15856 0.23382 0.77815 0.0
H1084 H 0.21888 0.16708 0.82159 0.0
H1085 H 0.18215 0.18583 0.78796 0.0
H1086 H 0.31208 0.30349 0.73891 0.0
H1087 H 0.27593 0.32452 0.70786 0.0
H1088 H 0.33318 0.25321 0.73116 0.0
H1089 H 0.3284 0.21506 0.77666 0.0
C1090 C 0.48143 0.51489 0.9952 0.0
C1091 C 0.48118 0.47845 0.9891 0.0
C1092 C 0.53359 0.47451 0.05611 0.0
C1093 C 0.53307 0.5108 0.06474 0.0
N1094 N 0.50653 0.56599 0.04519 0.0
N1095 N 0.50324 0.42299 0.01869 0.0
C1096 C 0.50732 0.53117 0.03363 0.0
C1097 C 0.5062 0.45811 0.02148 0.0
N1098 N 0.45697 0.53376 0.9629 0.0
N1099 N 0.56025 0.45592 0.08176 0.0
H1100 H 0.48243 0.41125 0.99512 0.0
H1101 H 0.51923 0.40577 0.04327 0.0
H1102 H 0.58095 0.46765 0.10571 0.0
H1103 H 0.56353 0.42956 0.0746 0.0
H1104 H 0.45752 0.56048 0.95773 0.0
H1105 H 0.43571 0.52215 0.94058 0.0
H1106 H 0.48675 0.58237 0.03063 0.0
H1107 H 0.52552 0.57841 0.07262 0.0
C1108 C 0.21851 0.76055 0.26432 0.0
C1109 C 0.24023 0.78184 0.30259 0.0
C1110 C 0.29017 0.74952 0.26034 0.0
C1111 C 0.26748 0.7257 0.22945 0.0
N1112 N 0.21 0.70362 0.21907 0.0
N1113 N 0.29748 0.79735 0.33637 0.0
C1114 C 0.23163 0.72969 0.23687 0.0
C1115 C 0.2764 0.77669 0.30009 0.0
N1116 N 0.18498 0.76985 0.25525 0.0
N1117 N 0.32481 0.74645 0.24989 0.0
H1118 H 0.28863 0.81966 0.35948 0.0
H1119 H 0.32353 0.79237 0.34288 0.0
H1120 H 0.33532 0.7255 0.22439 0.0
H1121 H 0.34291 0.76483 0.26423 0.0
H1122 H 0.16845 0.75671 0.22339 0.0
H1123 H 0.17519 0.79288 0.2746 0.0
H1124 H 0.18394 0.70411 0.23069 0.0
H1125 H 0.21894 0.67997 0.20141 0.0
C1126 C 0.97667 0.54191 0.51167 0.0
C1127 C 0.99668 0.51831 0.47445 0.0
C1128 C 0.95711 0.47153 0.50483 0.0
C1129 C 0.94159 0.4933 0.55119 0.0
N1130 N 0.93421 0.54964 0.59782 0.0
N1131 N 0.00762 0.45965 0.4391 0.0
C1132 C 0.95027 0.52887 0.55325 0.0
C1133 C 0.98742 0.48266 0.47257 0.0
N1134 N 0.98188 0.57663 0.50518 0.0
N1135 N 0.94273 0.44003 0.49296 0.0
H1136 H 0.0308 0.46683 0.41715 0.0
H1137 H 0.00289 0.43321 0.43711 0.0
H1138 H 0.91974 0.43292 0.51586 0.0
H1139 H 0.95115 0.4232 0.45635 0.0
H1140 H 0.96543 0.59522 0.52488 0.0
H1141 H 0.00177 0.58682 0.47683 0.0
H1142 H 0.94246 0.57456 0.60891 0.0
H1143 H 0.91322 0.54084 0.62506 0.0
C1144 C 0.77042 0.76561 0.23685 0.0
C1145 C 0.73447 0.77177 0.23706 0.0
C1146 C 0.72574 0.71991 0.30402 0.0
C1147 C 0.76165 0.71435 0.3055 0.0
N1148 N 0.81731 0.72584 0.26071 0.0
N1149 N 0.67889 0.75968 0.28166 0.0
C1150 C 0.78366 0.73538 0.26737 0.0
C1151 C 0.71243 0.75018 0.27384 0.0
N1152 N 0.79175 0.78945 0.20904 0.0
N1153 N 0.70439 0.69551 0.32962 0.0
H1154 H 0.66948 0.78251 0.26132 0.0
H1155 H 0.66196 0.74734 0.31355 0.0
H1156 H 0.71375 0.6727 0.35011 0.0
H1157 H 0.67786 0.69603 0.32295 0.0
H1158 H 0.8185 0.78808 0.21028 0.0
H1159 H 0.78226 0.81264 0.19057 0.0
H1160 H 0.83477 0.73821 0.22997 0.0
H1161 H 0.82673 0.70328 0.28234 0.0
C1162 C 0.78793 0.23319 0.78947 0.0
C1163 C 0.7757 0.23998 0.72572 0.0
C1164 C 0.74717 0.29275 0.76626 0.0
C1165 C 0.7537 0.28225 0.83117 0.0
N1166 N 0.77771 0.23915 0.90513 0.0
N1167 N 0.73796 0.27368 0.6551 0.0
C1168 C 0.77358 0.25166 0.84301 0.0
C1169 C 0.75402 0.2693 0.71432 0.0
N1170 N 0.81393 0.20995 0.79906 0.0
N1171 N 0.73334 0.32455 0.75412 0.0
H1172 H 0.74006 0.2563 0.6163 0.0
H1173 H 0.71924 0.29245 0.64687 0.0
H1174 H 0.72737 0.3421 0.79133 0.0
H1175 H 0.7312 0.33482 0.70702 0.0
H1176 H 0.82647 0.20703 0.84401 0.0
H1177 H 0.82528 0.19602 0.76083 0.0
H1178 H 0.78778 0.21475 0.91495 0.0
H1179 H 0.76929 0.25204 0.94678 0.0
C1180 C 0.02388 0.0152 0.44923 0.0
C1181 C 0.00361 0.98497 0.46317 0.0
C1182 C 0.04251 0.97205 0.55451 0.0
C1183 C 0.05758 0.00518 0.54816 0.0
N1184 N 0.06677 0.05652 0.48677 0.0
N1185 N 0.99467 0.93389 0.52822 0.0
C1186 C 0.04989 0.02586 0.49381 0.0
C1187 C 0.01328 0.96312 0.51574 0.0
N1188 N 0.01929 0.03303 0.39199 0.0
N1189 N 0.05643 0.94962 0.59874 0.0
H1190 H 0.97331 0.92668 0.50023 0.0
H1191 H -0.00118 0.91809 0.56873 0.0
H1192 H 0.07851 0.95613 0.62539 0.0
H1193 H 0.04855 0.92409 0.60421 0.0
H1194 H 0.03613 0.05188 0.37491 0.0
H1195 H -0.00023 0.0277 0.35874 0.0
H1196 H 0.05944 0.07563 0.45378 0.0
H1197 H 0.08796 0.06285 0.51606 0.0
C1198 C 0.49047 0.02881 0.02179 0.0
C1199 C 0.50426 0.00648 0.97362 0.0
C1200 C 0.46051 0.96255 0.00016 0.0
C1201 C 0.44685 0.98475 0.04835 0.0
N1202 N 0.44342 0.04069 0.0979 0.0
N1203 N 0.50778 0.94978 0.92619 0.0
C1204 C 0.46007 0.01872 0.05609 0.0
C1205 C 0.49066 0.97257 0.9656 0.0
N1206 N 0.50722 0.05896 0.0358 0.0
N1207 N 0.44466 0.93156 0.98911 0.0
H1208 H 0.53097 0.9565 0.90388 0.0
H1209 H 0.50105 0.92394 0.92031 0.0
H1210 H 0.42245 0.9245 0.01475 0.0
H1211 H 0.45165 0.91426 0.95225 0.0
H1212 H 0.49996 0.07601 0.07286 0.0
H1213 H 0.53008 0.06581 0.01226 0.0
H1214 H 0.45128 0.06578 0.10857 0.0
H1215 H 0.41966 0.03403 0.11813 0.0
loop_
_geom_bond_atom_site_label_1
_geom_bond_atom_site_label_2
_geom_bond_distance
_geom_bond_site_symmetry_2
_ccdc_geom_bond_type
Sc0 O3 2.025 . S
Sc0 O10 2.105 . S
Sc0 O13 2.105 . S
Sc0 O16 2.105 . S
Sc0 O19 2.105 1_554 S
Sc1 O3 2.025 1_556 S
Sc1 O11 2.105 . S
Sc1 O15 2.105 1_556 S
Sc1 O17 2.105 . S
Sc1 O21 2.105 . S
Sc2 O3 2.025 . S
Sc2 O12 2.105 . S
Sc2 O14 2.105 . S
Sc2 O18 2.105 . S
Sc2 O20 2.105 . S
O3 Sc0 2.025 . S
O3 Sc1 2.025 1_554 S
O3 Sc2 2.025 . S
C4 O10 1.268 . S
C4 O20 1.268 . S
C5 O11 1.268 . S
C5 O19 1.268 . S
C6 O12 1.268 1_556 S
C6 O21 1.268 . S
C7 O13 1.268 . S
C7 O17 1.268 1_554 S
C8 O14 1.268 . S
C8 O16 1.268 . S
C9 O15 1.268 . S
C9 O18 1.268 . S
O10 Sc0 2.105 . S
O10 C4 1.268 . S
O11 Sc1 2.105 . S
O11 C5 1.268 . S
O12 Sc2 2.105 . S
O12 C6 1.268 1_554 S
O13 Sc0 2.105 . S
O13 C7 1.268 . S
O14 Sc2 2.105 . S
O14 C8 1.268 . S
O15 Sc1 2.105 1_554 S
O15 C9 1.268 . S
O16 Sc0 2.105 . S
O16 C8 1.268 . S
O17 Sc1 2.105 . S
O17 C7 1.268 1_556 S
O18 Sc2 2.105 . S
O18 C9 1.268 . S
O19 Sc0 2.105 1_556 S
O19 C5 1.268 . S
O20 Sc2 2.105 . S
O20 C4 1.268 . S
O21 Sc1 2.105 . S
O21 C6 1.268 . S
Sc22 O25 2.025 . S
Sc22 O32 2.105 . S
Sc22 O35 2.105 . S
Sc22 O38 2.105 . S
Sc22 O41 2.105 . S
Sc23 O25 2.025 . S
Sc23 O33 2.105 . S
Sc23 O37 2.105 . S
Sc23 O39 2.105 . S
Sc23 O43 2.105 . S
Sc24 O25 2.025 . S
Sc24 O34 2.105 . S
Sc24 O36 2.105 . S
Sc24 O40 2.105 . S
Sc24 O42 2.105 . S
O25 Sc22 2.025 . S
O25 Sc23 2.025 . S
O25 Sc24 2.025 . S
C26 O32 1.268 . S
C26 O42 1.268 . S
C27 O33 1.268 . S
C27 O41 1.268 . S
C28 O34 1.268 . S
C28 O43 1.268 . S
C29 O35 1.268 . S
C29 O39 1.268 . S
C30 O36 1.268 . S
C30 O38 1.268 . S
C31 O37 1.268 . S
C31 O40 1.268 . S
O32 Sc22 2.105 . S
O32 C26 1.268 . S
O33 Sc23 2.105 . S
O33 C27 1.268 . S
O34 Sc24 2.105 . S
O34 C28 1.268 . S
O35 Sc22 2.105 . S
O35 C29 1.268 . S
O36 Sc24 2.105 . S
O36 C30 1.268 . S
O37 Sc23 2.105 . S
O37 C31 1.268 . S
O38 Sc22 2.105 . S
O38 C30 1.268 . S
O39 Sc23 2.105 . S
O39 C29 1.268 . S
O40 Sc24 2.105 . S
O40 C31 1.268 . S
O41 Sc22 2.105 . S
O41 C27 1.268 . S
O42 Sc24 2.105 . S
O42 C26 1.268 . S
O43 Sc23 2.105 . S
O43 C28 1.268 . S
Sc44 O47 2.025 . S
Sc44 O54 2.105 . S
Sc44 O57 2.105 . S
Sc44 O60 2.105 . S
Sc44 O63 2.105 . S
Sc45 O47 2.025 . S
Sc45 O55 2.105 . S
Sc45 O59 2.105 . S
Sc45 O61 2.105 . S
Sc45 O65 2.105 . S
Sc46 O47 2.025 . S
Sc46 O56 2.105 . S
Sc46 O58 2.105 . S
Sc46 O62 2.105 . S
Sc46 O64 2.105 . S
O47 Sc44 2.025 . S
O47 Sc45 2.025 . S
O47 Sc46 2.025 . S
C48 O54 1.268 . S
C48 O64 1.268 . S
C49 O55 1.268 . S
C49 O63 1.268 . S
C50 O56 1.268 . S
C50 O65 1.268 . S
C51 O57 1.268 . S
C51 O61 1.268 . S
C52 O58 1.268 . S
C52 O60 1.268 . S
C53 O59 1.268 . S
C53 O62 1.268 . S
O54 Sc44 2.105 . S
O54 C48 1.268 . S
O55 Sc45 2.105 . S
O55 C49 1.268 . S
O56 Sc46 2.105 . S
O56 C50 1.268 . S
O57 Sc44 2.105 . S
O57 C51 1.268 . S
O58 Sc46 2.105 . S
O58 C52 1.268 . S
O59 Sc45 2.105 . S
O59 C53 1.268 . S
O60 Sc44 2.105 . S
O60 C52 1.268 . S
O61 Sc45 2.105 . S
O61 C51 1.268 . S
O62 Sc46 2.105 . S
O62 C53 1.268 . S
O63 Sc44 2.105 . S
O63 C49 1.268 . S
O64 Sc46 2.105 . S
O64 C48 1.268 . S
O65 Sc45 2.105 . S
O65 C50 1.268 . S
Sc66 O69 2.025 . S
Sc66 O76 2.105 1_655 S
Sc66 O79 2.105 . S
Sc66 O82 2.105 . S
Sc66 O85 2.105 . S
Sc67 O69 2.025 . S
Sc67 O77 2.105 . S
Sc67 O81 2.105 . S
Sc67 O83 2.105 . S
Sc67 O87 2.105 . S
Sc68 O69 2.025 . S
Sc68 O78 2.105 . S
Sc68 O80 2.105 . S
Sc68 O84 2.105 . S
Sc68 O86 2.086 1_655 S
O69 Sc66 2.025 . S
O69 Sc67 2.025 . S
O69 Sc68 2.025 . S
C70 O76 1.268 . S
C70 O86 1.281 . S
C71 O77 1.268 . S
C71 O85 1.268 . S
C72 O78 1.268 . S
C72 O87 1.268 . S
C73 O79 1.268 . S
C73 O83 1.268 . S
C74 O80 1.268 . S
C74 O82 1.268 . S
C75 O81 1.268 . S
C75 O84 1.268 . S
O76 Sc66 2.105 1_455 S
O76 C70 1.268 . S
O77 Sc67 2.105 . S
O77 C71 1.268 . S
O78 Sc68 2.105 . S
O78 C72 1.268 . S
O79 Sc66 2.105 . S
O79 C73 1.268 . S
O80 Sc68 2.105 . S
O80 C74 1.268 . S
O81 Sc67 2.105 . S
O81 C75 1.268 . S
O82 Sc66 2.105 . S
O82 C74 1.268 . S
O83 Sc67 2.105 . S
O83 C73 1.268 . S
O84 Sc68 2.105 . S
O84 C75 1.268 . S
O85 Sc66 2.105 . S
O85 C71 1.268 . S
O86 Sc68 2.086 1_455 S
O86 C70 1.281 . S
O87 Sc67 2.105 . S
O87 C72 1.268 . S
Sc88 O91 2.025 . S
Sc88 O98 2.105 1_554 S
Sc88 O101 2.105 . S
Sc88 O104 2.105 . S
Sc88 O107 2.105 . S
Sc89 O91 2.025 . S
Sc89 O99 2.105 . S
Sc89 O103 2.105 . S
Sc89 O105 2.105 . S
Sc89 O109 2.105 . S
Sc90 O91 2.025 1_556 S
Sc90 O100 2.105 . S
Sc90 O102 2.107 . S
Sc90 O106 2.105 1_556 S
Sc90 O108 2.105 . S
O91 Sc88 2.025 . S
O91 Sc89 2.025 . S
O91 Sc90 2.025 1_554 S
C92 O98 1.268 . S
C92 O108 1.268 . S
C93 O99 1.268 . S
C93 O107 1.268 . S
C94 O100 1.268 . S
C94 O109 1.268 1_556 S
C95 O101 1.268 . S
C95 O105 1.268 . S
C96 O102 1.264 1_554 S
C96 O104 1.268 . S
C97 O103 1.268 . S
C97 O106 1.268 . S
O98 Sc88 2.105 1_556 S
O98 C92 1.268 . S
O99 Sc89 2.105 . S
O99 C93 1.268 . S
O100 Sc90 2.105 . S
O100 C94 1.268 . S
O101 Sc88 2.105 . S
O101 C95 1.268 . S
O102 Sc90 2.107 . S
O102 C96 1.264 1_556 S
O103 Sc89 2.105 . S
O103 C97 1.268 . S
O104 Sc88 2.105 . S
O104 C96 1.268 . S
O105 Sc89 2.105 . S
O105 C95 1.268 . S
O106 Sc90 2.105 1_554 S
O106 C97 1.268 . S
O107 Sc88 2.105 . S
O107 C93 1.268 . S
O108 Sc90 2.105 . S
O108 C92 1.268 . S
O109 Sc89 2.105 . S
O109 C94 1.268 1_554 S
Sc110 O113 2.025 . S
Sc110 O120 2.105 . S
Sc110 O123 2.105 . S
Sc110 O126 2.105 . S
Sc110 O129 2.105 . S
Sc111 O113 2.025 . S
Sc111 O121 2.105 . S
Sc111 O125 2.105 . S
Sc111 O127 2.105 . S
Sc111 O131 2.105 . S
Sc112 O113 2.025 . S
Sc112 O122 2.105 . S
Sc112 O124 2.105 . S
Sc112 O128 2.105 . S
Sc112 O130 2.105 . S
O113 Sc110 2.025 . S
O113 Sc111 2.025 . S
O113 Sc112 2.025 . S
C114 O120 1.268 . S
C114 O130 1.268 . S
C115 O121 1.268 . S
C115 O129 1.268 . S
C116 O122 1.268 . S
C116 O131 1.268 . S
C117 O123 1.268 . S
C117 O127 1.268 . S
C118 O124 1.268 . S
C118 O126 1.268 . S
C119 O125 1.268 . S
C119 O128 1.268 . S
O120 Sc110 2.105 . S
O120 C114 1.268 . S
O121 Sc111 2.105 . S
O121 C115 1.268 . S
O122 Sc112 2.105 . S
O122 C116 1.268 . S
O123 Sc110 2.105 . S
O123 C117 1.268 . S
O124 Sc112 2.105 . S
O124 C118 1.268 . S
O125 Sc111 2.105 . S
O125 C119 1.268 . S
O126 Sc110 2.105 . S
O126 C118 1.268 . S
O127 Sc111 2.105 . S
O127 C117 1.268 . S
O128 Sc112 2.105 . S
O128 C119 1.268 . S
O129 Sc110 2.105 . S
O129 C115 1.268 . S
O130 Sc112 2.105 . S
O130 C114 1.268 . S
O131 Sc111 2.105 . S
O131 C116 1.268 . S
Sc132 O135 2.025 . S
Sc132 O142 2.105 . S
Sc132 O145 2.105 . S
Sc132 O148 2.105 . S
Sc132 O151 2.105 . S
Sc133 O135 2.025 . S
Sc133 O143 2.105 . S
Sc133 O147 2.105 . S
Sc133 O149 2.105 . S
Sc133 O153 2.105 . S
Sc134 O135 2.025 . S
Sc134 O144 2.105 . S
Sc134 O146 2.105 . S
Sc134 O150 2.105 . S
Sc134 O152 2.105 . S
O135 Sc132 2.025 . S
O135 Sc133 2.025 . S
O135 Sc134 2.025 . S
C136 O142 1.268 . S
C136 O152 1.268 . S
C137 O143 1.268 . S
C137 O151 1.268 . S
C138 O144 1.268 . S
C138 O153 1.268 . S
C139 O145 1.268 . S
C139 O149 1.268 . S
C140 O146 1.268 . S
C140 O148 1.268 . S
C141 O147 1.268 . S
C141 O150 1.268 . S
O142 Sc132 2.105 . S
O142 C136 1.268 . S
O143 Sc133 2.105 . S
O143 C137 1.268 . S
O144 Sc134 2.105 . S
O144 C138 1.268 . S
O145 Sc132 2.105 . S
O145 C139 1.268 . S
O146 Sc134 2.105 . S
O146 C140 1.268 . S
O147 Sc133 2.105 . S
O147 C141 1.268 . S
O148 Sc132 2.105 . S
O148 C140 1.268 . S
O149 Sc133 2.105 . S
O149 C139 1.268 . S
O150 Sc134 2.105 . S
O150 C141 1.268 . S
O151 Sc132 2.105 . S
O151 C137 1.268 . S
O152 Sc134 2.105 . S
O152 C136 1.268 . S
O153 Sc133 2.105 . S
O153 C138 1.268 . S
Sc154 O157 2.025 . S
Sc154 O164 2.087 1_455 S
Sc154 O167 2.105 . S
Sc154 O170 2.105 . S
Sc154 O173 2.105 . S
Sc155 O157 2.025 . S
Sc155 O165 2.105 . S
Sc155 O169 2.105 . S
Sc155 O171 2.105 . S
Sc155 O175 2.105 . S
Sc156 O157 2.025 . S
Sc156 O166 2.105 . S
Sc156 O168 2.105 . S
Sc156 O172 2.105 . S
Sc156 O174 2.105 1_455 S
O157 Sc154 2.025 . S
O157 Sc155 2.025 . S
O157 Sc156 2.025 . S
C158 O164 1.281 . S
C158 O174 1.268 . S
C159 O165 1.268 . S
C159 O173 1.268 . S
C160 O166 1.268 . S
C160 O175 1.268 . S
C161 O167 1.268 . S
C161 O171 1.268 . S
C162 O168 1.268 . S
C162 O170 1.268 . S
C163 O169 1.268 . S
C163 O172 1.268 . S
O164 Sc154 2.087 1_655 S
O164 C158 1.281 . S
O165 Sc155 2.105 . S
O165 C159 1.268 . S
O166 Sc156 2.105 . S
O166 C160 1.268 . S
O167 Sc154 2.105 . S
O167 C161 1.268 . S
O168 Sc156 2.105 . S
O168 C162 1.268 . S
O169 Sc155 2.105 . S
O169 C163 1.268 . S
O170 Sc154 2.105 . S
O170 C162 1.268 . S
O171 Sc155 2.105 . S
O171 C161 1.268 . S
O172 Sc156 2.105 . S
O172 C163 1.268 . S
O173 Sc154 2.105 . S
O173 C159 1.268 . S
O174 Sc156 2.105 1_655 S
O174 C158 1.268 . S
O175 Sc155 2.105 . S
O175 C160 1.268 . S
Sc176 O179 2.025 . S
Sc176 O186 2.105 . S
Sc176 O189 2.105 . S
Sc176 O192 2.105 . S
Sc176 O195 2.105 . S
Sc177 O179 2.025 . S
Sc177 O187 2.105 . S
Sc177 O191 2.105 . S
Sc177 O193 2.105 . S
Sc177 O197 2.105 . S
Sc178 O179 2.025 . S
Sc178 O188 2.105 . S
Sc178 O190 2.105 . S
Sc178 O194 2.105 . S
Sc178 O196 2.105 . S
O179 Sc176 2.025 . S
O179 Sc177 2.025 . S
O179 Sc178 2.025 . S
C180 O186 1.268 . S
C180 O196 1.268 . S
C181 O187 1.268 . S
C181 O195 1.268 . S
C182 O188 1.268 . S
C182 O197 1.268 . S
C183 O189 1.268 . S
C183 O193 1.268 . S
C184 O190 1.268 . S
C184 O192 1.268 . S
C185 O191 1.268 . S
C185 O194 1.268 . S
O186 Sc176 2.105 . S
O186 C180 1.268 . S
O187 Sc177 2.105 . S
O187 C181 1.268 . S
O188 Sc178 2.105 . S
O188 C182 1.268 . S
O189 Sc176 2.105 . S
O189 C183 1.268 . S
O190 Sc178 2.105 . S
O190 C184 1.268 . S
O191 Sc177 2.105 . S
O191 C185 1.268 . S
O192 Sc176 2.105 . S
O192 C184 1.268 . S
O193 Sc177 2.105 . S
O193 C183 1.268 . S
O194 Sc178 2.105 . S
O194 C185 1.268 . S
O195 Sc176 2.105 . S
O195 C181 1.268 . S
O196 Sc178 2.105 . S
O196 C180 1.268 . S
O197 Sc177 2.105 . S
O197 C182 1.268 . S
Sc198 O201 2.025 . S
Sc198 O208 2.105 . S
Sc198 O211 2.105 . S
Sc198 O214 2.086 1_455 S
Sc198 O217 2.105 . S
Sc199 O201 2.025 . S
Sc199 O209 2.105 . S
Sc199 O213 2.105 . S
Sc199 O215 2.105 . S
Sc199 O219 2.107 1_545 S
Sc200 O201 2.025 . S
Sc200 O210 2.105 1_545 S
Sc200 O212 2.105 1_455 S
Sc200 O216 2.105 . S
Sc200 O218 2.105 . S
O201 Sc198 2.025 . S
O201 Sc199 2.025 . S
O201 Sc200 2.025 . S
C202 O208 1.268 . S
C202 O218 1.268 . S
C203 O209 1.268 . S
C203 O217 1.268 . S
C204 O210 1.268 . S
C204 O219 1.266 . S
C205 O211 1.268 . S
C205 O215 1.268 . S
C206 O212 1.268 . S
C206 O214 1.281 . S
C207 O213 1.268 . S
C207 O216 1.268 . S
O208 Sc198 2.105 . S
O208 C202 1.268 . S
O209 Sc199 2.105 . S
O209 C203 1.268 . S
O210 Sc200 2.105 1_565 S
O210 C204 1.268 . S
O211 Sc198 2.105 . S
O211 C205 1.268 . S
O212 Sc200 2.105 1_655 S
O212 C206 1.268 . S
O213 Sc199 2.105 . S
O213 C207 1.268 . S
O214 Sc198 2.086 1_655 S
O214 C206 1.281 . S
O215 Sc199 2.105 . S
O215 C205 1.268 . S
O216 Sc200 2.105 . S
O216 C207 1.268 . S
O217 Sc198 2.105 . S
O217 C203 1.268 . S
O218 Sc200 2.105 . S
O218 C202 1.268 . S
O219 Sc199 2.107 1_565 S
O219 C204 1.266 . S
Sc220 O223 2.025 . S
Sc220 O230 2.105 . S
Sc220 O233 2.105 . S
Sc220 O236 2.105 . S
Sc220 O239 2.105 . S
Sc221 O223 2.025 1_556 S
Sc221 O231 2.105 1_556 S
Sc221 O235 2.105 . S
Sc221 O237 2.105 . S
Sc221 O241 2.105 . S
Sc222 O223 2.025 . S
Sc222 O232 2.105 . S
Sc222 O234 2.105 . S
Sc222 O238 2.105 1_554 S
Sc222 O240 2.105 . S
O223 Sc220 2.025 . S
O223 Sc221 2.025 1_554 S
O223 Sc222 2.025 . S
C224 O230 1.268 . S
C224 O240 1.268 . S
C225 O231 1.268 . S
C225 O239 1.268 . S
C226 O232 1.268 . S
C226 O241 1.268 1_554 S
C227 O233 1.268 1_556 S
C227 O237 1.268 . S
C228 O234 1.268 . S
C228 O236 1.268 . S
C229 O235 1.268 . S
C229 O238 1.268 . S
O230 Sc220 2.105 . S
O230 C224 1.268 . S
O231 Sc221 2.105 1_554 S
O231 C225 1.268 . S
O232 Sc222 2.105 . S
O232 C226 1.268 . S
O233 Sc220 2.105 . S
O233 C227 1.268 1_554 S
O234 Sc222 2.105 . S
O234 C228 1.268 . S
O235 Sc221 2.105 . S
O235 C229 1.268 . S
O236 Sc220 2.105 . S
O236 C228 1.268 . S
O237 Sc221 2.105 . S
O237 C227 1.268 . S
O238 Sc222 2.105 1_556 S
O238 C229 1.268 . S
O239 Sc220 2.105 . S
O239 C225 1.268 . S
O240 Sc222 2.105 . S
O240 C224 1.268 . S
O241 Sc221 2.105 . S
O241 C226 1.268 1_556 S
Sc242 O245 2.025 . S
Sc242 O252 2.105 . S
Sc242 O255 2.105 1_565 S
Sc242 O258 2.105 . S
Sc242 O261 2.105 . S
Sc243 O245 2.025 . S
Sc243 O253 2.105 . S
Sc243 O257 2.105 . S
Sc243 O259 2.107 1_565 S
Sc243 O263 2.105 . S
Sc244 O245 2.025 . S
Sc244 O254 2.105 . S
Sc244 O256 2.105 . S
Sc244 O260 2.105 . S
Sc244 O262 2.105 . S
O245 Sc242 2.025 . S
O245 Sc243 2.025 . S
O245 Sc244 2.025 . S
C246 O252 1.268 . S
C246 O262 1.268 . S
C247 O253 1.268 . S
C247 O261 1.268 . S
C248 O254 1.268 . S
C248 O263 1.268 . S
C249 O255 1.268 . S
C249 O259 1.266 . S
C250 O256 1.268 . S
C250 O258 1.268 . S
C251 O257 1.268 . S
C251 O260 1.268 . S
O252 Sc242 2.105 . S
O252 C246 1.268 . S
O253 Sc243 2.105 . S
O253 C247 1.268 . S
O254 Sc244 2.105 . S
O254 C248 1.268 . S
O255 Sc242 2.105 1_545 S
O255 C249 1.268 . S
O256 Sc244 2.105 . S
O256 C250 1.268 . S
O257 Sc243 2.105 . S
O257 C251 1.268 . S
O258 Sc242 2.105 . S
O258 C250 1.268 . S
O259 Sc243 2.107 1_545 S
O259 C249 1.266 . S
O260 Sc244 2.105 . S
O260 C251 1.268 . S
O261 Sc242 2.105 . S
O261 C247 1.268 . S
O262 Sc244 2.105 . S
O262 C246 1.268 . S
O263 Sc243 2.105 . S
O263 C248 1.268 . S
Sc264 O267 2.025 . S
Sc264 O274 2.105 . S
Sc264 O277 2.105 . S
Sc264 O280 2.105 . S
Sc264 O283 2.105 . S
Sc265 O267 2.025 . S
Sc265 O275 2.105 . S
Sc265 O279 2.105 . S
Sc265 O281 2.105 . S
Sc265 O285 2.105 . S
Sc266 O267 2.025 . S
Sc266 O276 2.105 . S
Sc266 O278 2.105 . S
Sc266 O282 2.105 . S
Sc266 O284 2.105 . S
O267 Sc264 2.025 . S
O267 Sc265 2.025 . S
O267 Sc266 2.025 . S
C268 O274 1.268 . S
C268 O284 1.268 . S
C269 O275 1.268 . S
C269 O283 1.268 . S
C270 O276 1.268 . S
C270 O285 1.268 . S
C271 O277 1.268 . S
C271 O281 1.268 . S
C272 O278 1.268 . S
C272 O280 1.268 . S
C273 O279 1.268 . S
C273 O282 1.268 . S
O274 Sc264 2.105 . S
O274 C268 1.268 . S
O275 Sc265 2.105 . S
O275 C269 1.268 . S
O276 Sc266 2.105 . S
O276 C270 1.268 . S
O277 Sc264 2.105 . S
O277 C271 1.268 . S
O278 Sc266 2.105 . S
O278 C272 1.268 . S
O279 Sc265 2.105 . S
O279 C273 1.268 . S
O280 Sc264 2.105 . S
O280 C272 1.268 . S
O281 Sc265 2.105 . S
O281 C271 1.268 . S
O282 Sc266 2.105 . S
O282 C273 1.268 . S
O283 Sc264 2.105 . S
O283 C269 1.268 . S
O284 Sc266 2.105 . S
O284 C268 1.268 . S
O285 Sc265 2.105 . S
O285 C270 1.268 . S
Sc286 O289 2.025 . S
Sc286 O296 2.105 . S
Sc286 O299 2.105 . S
Sc286 O302 2.105 1_655 S
Sc286 O305 2.105 1_565 S
Sc287 O289 2.025 . S
Sc287 O297 2.107 1_565 S
Sc287 O301 2.105 . S
Sc287 O303 2.105 . S
Sc287 O307 2.105 . S
Sc288 O289 2.025 . S
Sc288 O298 2.105 . S
Sc288 O300 2.087 1_655 S
Sc288 O304 2.105 . S
Sc288 O306 2.105 . S
O289 Sc286 2.025 . S
O289 Sc287 2.025 . S
O289 Sc288 2.025 . S
C290 O296 1.268 . S
C290 O306 1.268 . S
C291 O297 1.266 . S
C291 O305 1.268 . S
C292 O298 1.268 . S
C292 O307 1.268 . S
C293 O299 1.268 . S
C293 O303 1.268 . S
C294 O300 1.281 . S
C294 O302 1.268 . S
C295 O301 1.268 . S
C295 O304 1.268 . S
O296 Sc286 2.105 . S
O296 C290 1.268 . S
O297 Sc287 2.107 1_545 S
O297 C291 1.266 . S
O298 Sc288 2.105 . S
O298 C292 1.268 . S
O299 Sc286 2.105 . S
O299 C293 1.268 . S
O300 Sc288 2.087 1_455 S
O300 C294 1.281 . S
O301 Sc287 2.105 . S
O301 C295 1.268 . S
O302 Sc286 2.105 1_455 S
O302 C294 1.268 . S
O303 Sc287 2.105 . S
O303 C293 1.268 . S
O304 Sc288 2.105 . S
O304 C295 1.268 . S
O305 Sc286 2.105 1_545 S
O305 C291 1.268 . S
O306 Sc288 2.105 . S
O306 C290 1.268 . S
O307 Sc287 2.105 . S
O307 C292 1.268 . S
Sc308 O311 2.025 1_556 S
Sc308 O318 2.107 . S
Sc308 O321 2.105 . S
Sc308 O324 2.105 . S
Sc308 O327 2.105 1_556 S
Sc309 O311 2.025 . S
Sc309 O319 2.105 . S
Sc309 O323 2.105 . S
Sc309 O325 2.105 . S
Sc309 O329 2.105 . S
Sc310 O311 2.025 . S
Sc310 O320 2.105 . S
Sc310 O322 2.105 1_554 S
Sc310 O326 2.105 . S
Sc310 O328 2.105 . S
O311 Sc308 2.025 1_554 S
O311 Sc309 2.025 . S
O311 Sc310 2.025 . S
C312 O318 1.264 1_554 S
C312 O328 1.268 . S
C313 O319 1.268 . S
C313 O327 1.268 . S
C314 O320 1.268 . S
C314 O329 1.268 . S
C315 O321 1.268 . S
C315 O325 1.268 1_556 S
C316 O322 1.268 . S
C316 O324 1.268 . S
C317 O323 1.268 . S
C317 O326 1.268 . S
O318 Sc308 2.107 . S
O318 C312 1.264 1_556 S
O319 Sc309 2.105 . S
O319 C313 1.268 . S
O320 Sc310 2.105 . S
O320 C314 1.268 . S
O321 Sc308 2.105 . S
O321 C315 1.268 . S
O322 Sc310 2.105 1_556 S
O322 C316 1.268 . S
O323 Sc309 2.105 . S
O323 C317 1.268 . S
O324 Sc308 2.105 . S
O324 C316 1.268 . S
O325 Sc309 2.105 . S
O325 C315 1.268 1_554 S
O326 Sc310 2.105 . S
O326 C317 1.268 . S
O327 Sc308 2.105 1_554 S
O327 C313 1.268 . S
O328 Sc310 2.105 . S
O328 C312 1.268 . S
O329 Sc309 2.105 . S
O329 C314 1.268 . S
Sc330 O333 2.025 . S
Sc330 O340 2.105 . S
Sc330 O343 2.105 . S
Sc330 O346 2.105 . S
Sc330 O349 2.105 . S
Sc331 O333 2.025 . S
Sc331 O341 2.105 . S
Sc331 O345 2.107 1_545 S
Sc331 O347 2.105 . S
Sc331 O351 2.105 . S
Sc332 O333 2.025 . S
Sc332 O342 2.105 . S
Sc332 O344 2.105 . S
Sc332 O348 2.105 1_545 S
Sc332 O350 2.105 . S
O333 Sc330 2.025 . S
O333 Sc331 2.025 . S
O333 Sc332 2.025 . S
C334 O340 1.268 . S
C334 O350 1.268 . S
C335 O341 1.268 . S
C335 O349 1.268 . S
C336 O342 1.268 . S
C336 O351 1.268 . S
C337 O343 1.268 . S
C337 O347 1.268 . S
C338 O344 1.268 . S
C338 O346 1.268 . S
C339 O345 1.266 . S
C339 O348 1.268 . S
O340 Sc330 2.105 . S
O340 C334 1.268 . S
O341 Sc331 2.105 . S
O341 C335 1.268 . S
O342 Sc332 2.105 . S
O342 C336 1.268 . S
O343 Sc330 2.105 . S
O343 C337 1.268 . S
O344 Sc332 2.105 . S
O344 C338 1.268 . S
O345 Sc331 2.107 1_565 S
O345 C339 1.266 . S
O346 Sc330 2.105 . S
O346 C338 1.268 . S
O347 Sc331 2.105 . S
O347 C337 1.268 . S
O348 Sc332 2.105 1_565 S
O348 C339 1.268 . S
O349 Sc330 2.105 . S
O349 C335 1.268 . S
O350 Sc332 2.105 . S
O350 C334 1.268 . S
O351 Sc331 2.105 . S
O351 C336 1.268 . S
C352 C353 1.363 . S
C352 C358 1.379 . S
C352 N360 1.356 . S
C353 C352 1.363 . S
C353 C359 1.363 . S
C354 C355 1.363 . S
C354 C359 1.379 . S
C354 N361 1.356 . S
C355 C354 1.363 . S
C355 C358 1.363 . S
N356 C358 1.356 . S
N356 H368 0.984 . S
N356 H369 0.985 . S
N357 C359 1.356 . S
N357 H362 0.984 1_556 S
N357 H363 0.985 . S
C358 C352 1.379 . S
C358 C355 1.363 . S
C358 N356 1.356 . S
C359 C353 1.363 . S
C359 C354 1.379 . S
C359 N357 1.356 . S
N360 C352 1.356 . S
N360 H366 0.984 . S
N360 H367 0.984 1_556 S
N361 C354 1.356 . S
N361 H364 0.984 . S
N361 H365 0.985 . S
H362 N357 0.984 1_554 S
H363 N357 0.985 . S
H364 N361 0.984 . S
H365 N361 0.985 . S
H366 N360 0.984 . S
H367 N360 0.984 1_554 S
H368 N356 0.984 . S
H369 N356 0.985 . S
C370 C371 1.363 . S
C370 C376 1.379 . S
C370 N378 1.356 . S
C371 C370 1.363 . S
C371 C377 1.363 . S
C372 C373 1.363 . S
C372 C377 1.379 . S
C372 N379 1.356 . S
C373 C372 1.363 . S
C373 C376 1.363 . S
N374 C376 1.356 . S
N374 H386 0.984 . S
N374 H387 0.985 . S
N375 C377 1.356 . S
N375 H380 0.984 . S
N375 H381 0.985 . S
C376 C370 1.379 . S
C376 C373 1.363 . S
C376 N374 1.356 . S
C377 C371 1.363 . S
C377 C372 1.379 . S
C377 N375 1.356 . S
N378 C370 1.356 . S
N378 H384 0.984 . S
N378 H385 0.984 . S
N379 C372 1.356 . S
N379 H382 0.984 . S
N379 H383 0.985 . S
H380 N375 0.984 . S
H381 N375 0.985 . S
H382 N379 0.984 . S
H383 N379 0.985 . S
H384 N378 0.984 . S
H385 N378 0.984 . S
H386 N374 0.984 . S
H387 N374 0.985 . S
C388 C389 1.363 . S
C388 C394 1.379 . S
C388 N396 1.356 . S
C389 C388 1.363 . S
C389 C395 1.363 . S
C390 C391 1.363 . S
C390 C395 1.379 . S
C390 N397 1.356 . S
C391 C390 1.363 . S
C391 C394 1.363 . S
N392 C394 1.356 . S
N392 H404 0.984 . S
N392 H405 0.985 . S
N393 C395 1.356 . S
N393 H398 0.984 . S
N393 H399 0.985 . S
C394 C388 1.379 . S
C394 C391 1.363 . S
C394 N392 1.356 . S
C395 C389 1.363 . S
C395 C390 1.379 . S
C395 N393 1.356 . S
N396 C388 1.356 . S
N396 H402 0.984 . S
N396 H403 0.984 . S
N397 C390 1.356 . S
N397 H400 0.984 . S
N397 H401 0.985 . S
H398 N393 0.984 . S
H399 N393 0.985 . S
H400 N397 0.984 . S
H401 N397 0.985 . S
H402 N396 0.984 . S
H403 N396 0.984 . S
H404 N392 0.984 . S
H405 N392 0.985 . S
C406 C407 1.363 . S
C406 C412 1.379 . S
C406 N414 1.356 . S
C407 C406 1.363 . S
C407 C413 1.363 . S
C408 C409 1.363 . S
C408 C413 1.379 . S
C408 N415 1.356 . S
C409 C408 1.363 . S
C409 C412 1.363 . S
N410 C412 1.356 . S
N410 H422 0.984 . S
N410 H423 0.985 . S
N411 C413 1.356 . S
N411 H416 0.984 . S
N411 H417 0.985 . S
C412 C406 1.379 . S
C412 C409 1.363 . S
C412 N410 1.356 . S
C413 C407 1.363 . S
C413 C408 1.379 . S
C413 N411 1.356 . S
N414 C406 1.356 . S
N414 H420 0.984 . S
N414 H421 0.984 . S
N415 C408 1.356 . S
N415 H418 0.984 . S
N415 H419 0.985 . S
H416 N411 0.984 . S
H417 N411 0.985 . S
H418 N415 0.984 . S
H419 N415 0.985 . S
H420 N414 0.984 . S
H421 N414 0.984 . S
H422 N410 0.984 . S
H423 N410 0.985 . S
C424 C425 1.363 . S
C424 C430 1.379 . S
C424 N432 1.356 1_554 S
C425 C424 1.363 . S
C425 C431 1.363 . S
C426 C427 1.363 . S
C426 C431 1.379 . S
C426 N433 1.356 . S
C427 C426 1.363 . S
C427 C430 1.363 . S
N428 C430 1.356 . S
N428 H440 0.984 . S
N428 H441 0.985 . S
N429 C431 1.356 . S
N429 H434 0.984 . S
N429 H435 0.985 . S
C430 C424 1.379 . S
C430 C427 1.363 . S
C430 N428 1.356 . S
C431 C425 1.363 . S
C431 C426 1.379 . S
C431 N429 1.356 . S
N432 C424 1.356 1_556 S
N432 H438 0.984 . S
N432 H439 0.984 . S
N433 C426 1.356 . S
N433 H436 0.984 . S
N433 H437 0.985 . S
H434 N429 0.984 . S
H435 N429 0.985 . S
H436 N433 0.984 . S
H437 N433 0.985 . S
H438 N432 0.984 . S
H439 N432 0.984 . S
H440 N428 0.984 . S
H441 N428 0.985 . S
C442 C443 1.363 . S
C442 C448 1.379 . S
C442 N450 1.356 . S
C443 C442 1.363 . S
C443 C449 1.363 . S
C444 C445 1.363 . S
C444 C449 1.379 . S
C444 N451 1.356 . S
C445 C444 1.363 . S
C445 C448 1.363 . S
N446 C448 1.356 . S
N446 H458 0.984 . S
N446 H459 0.985 . S
N447 C449 1.356 . S
N447 H452 0.984 . S
N447 H453 0.985 . S
C448 C442 1.379 . S
C448 C445 1.363 . S
C448 N446 1.356 . S
C449 C443 1.363 . S
C449 C444 1.379 . S
C449 N447 1.356 . S
N450 C442 1.356 . S
N450 H456 0.984 . S
N450 H457 0.984 . S
N451 C444 1.356 . S
N451 H454 0.984 . S
N451 H455 0.985 . S
H452 N447 0.984 . S
H453 N447 0.985 . S
H454 N451 0.984 . S
H455 N451 0.985 . S
H456 N450 0.984 . S
H457 N450 0.984 . S
H458 N446 0.984 . S
H459 N446 0.985 . S
C460 C461 1.363 . S
C460 C466 1.379 . S
C460 N468 1.356 . S
C461 C460 1.363 . S
C461 C467 1.363 . S
C462 C463 1.363 . S
C462 C467 1.379 . S
C462 N469 1.356 . S
C463 C462 1.363 . S
C463 C466 1.363 . S
N464 C466 1.356 . S
N464 H476 0.984 . S
N464 H477 0.985 . S
N465 C467 1.356 . S
N465 H470 0.984 . S
N465 H471 0.985 . S
C466 C460 1.379 . S
C466 C463 1.363 . S
C466 N464 1.356 . S
C467 C461 1.363 . S
C467 C462 1.379 . S
C467 N465 1.356 . S
N468 C460 1.356 . S
N468 H474 0.984 . S
N468 H475 0.984 . S
N469 C462 1.356 . S
N469 H472 0.984 . S
N469 H473 0.985 . S
H470 N465 0.984 . S
H471 N465 0.985 . S
H472 N469 0.984 . S
H473 N469 0.985 . S
H474 N468 0.984 . S
H475 N468 0.984 . S
H476 N464 0.984 . S
H477 N464 0.985 . S
C478 C479 1.363 . S
C478 C484 1.379 . S
C478 N486 1.356 . S
C479 C478 1.363 . S
C479 C485 1.363 . S
C480 C481 1.363 . S
C480 C485 1.379 . S
C480 N487 1.356 . S
C481 C480 1.363 . S
C481 C484 1.363 . S
N482 C484 1.356 . S
N482 H494 0.984 . S
N482 H495 0.985 . S
N483 C485 1.356 . S
N483 H488 0.984 . S
N483 H489 0.985 . S
C484 C478 1.379 . S
C484 C481 1.363 . S
C484 N482 1.356 . S
C485 C479 1.363 . S
C485 C480 1.379 . S
C485 N483 1.356 . S
N486 C478 1.356 . S
N486 H492 0.984 . S
N486 H493 0.984 . S
N487 C480 1.356 . S
N487 H490 0.984 . S
N487 H491 0.985 . S
H488 N483 0.984 . S
H489 N483 0.985 . S
H490 N487 0.984 . S
H491 N487 0.985 . S
H492 N486 0.984 . S
H493 N486 0.984 . S
H494 N482 0.984 . S
H495 N482 0.985 . S
C496 C497 1.363 . S
C496 C502 1.379 . S
C496 N504 1.356 . S
C497 C496 1.363 . S
C497 C503 1.363 . S
C498 C499 1.363 . S
C498 C503 1.379 . S
C498 N505 1.356 . S
C499 C498 1.363 . S
C499 C502 1.363 . S
N500 C502 1.356 . S
N500 H512 0.984 . S
N500 H513 0.985 . S
N501 C503 1.356 . S
N501 H506 0.984 . S
N501 H507 0.985 . S
C502 C496 1.379 . S
C502 C499 1.363 . S
C502 N500 1.356 . S
C503 C497 1.363 . S
C503 C498 1.379 . S
C503 N501 1.356 . S
N504 C496 1.356 . S
N504 H510 0.984 . S
N504 H511 0.984 . S
N505 C498 1.356 . S
N505 H508 0.984 . S
N505 H509 0.985 . S
H506 N501 0.984 . S
H507 N501 0.985 . S
H508 N505 0.984 . S
H509 N505 0.985 . S
H510 N504 0.984 . S
H511 N504 0.984 . S
H512 N500 0.984 . S
H513 N500 0.985 . S
C514 C515 1.363 . S
C514 C520 1.379 . S
C514 N522 1.356 . S
C515 C514 1.363 . S
C515 C521 1.363 . S
C516 C517 1.363 . S
C516 C521 1.379 . S
C516 N523 1.356 . S
C517 C516 1.363 . S
C517 C520 1.363 . S
N518 C520 1.356 . S
N518 H530 0.984 1_565 S
N518 H531 0.985 . S
N519 C521 1.356 . S
N519 H524 0.984 . S
N519 H525 0.985 . S
C520 C514 1.379 . S
C520 C517 1.363 . S
C520 N518 1.356 . S
C521 C515 1.363 . S
C521 C516 1.379 . S
C521 N519 1.356 . S
N522 C514 1.356 . S
N522 H528 0.984 . S
N522 H529 0.984 . S
N523 C516 1.356 . S
N523 H526 0.984 . S
N523 H527 0.985 . S
H524 N519 0.984 . S
H525 N519 0.985 . S
H526 N523 0.984 . S
H527 N523 0.985 . S
H528 N522 0.984 . S
H529 N522 0.984 . S
H530 N518 0.984 1_545 S
H531 N518 0.985 . S
C532 C533 1.363 . S
C532 C538 1.379 1_556 S
C532 N540 1.356 . S
C533 C532 1.363 . S
C533 C539 1.363 . S
C534 C535 1.363 . S
C534 C539 1.379 . S
C534 N541 1.356 . S
C535 C534 1.363 . S
C535 C538 1.363 1_556 S
N536 C538 1.356 . S
N536 H548 0.984 . S
N536 H549 0.985 . S
N537 C539 1.356 . S
N537 H542 0.984 . S
N537 H543 0.985 . S
C538 C532 1.379 1_554 S
C538 C535 1.363 1_554 S
C538 N536 1.356 . S
C539 C533 1.363 . S
C539 C534 1.379 . S
C539 N537 1.356 . S
N540 C532 1.356 . S
N540 H546 0.984 1_556 S
N540 H547 0.984 . S
N541 C534 1.356 . S
N541 H544 0.984 . S
N541 H545 0.985 . S
H542 N537 0.984 . S
H543 N537 0.985 . S
H544 N541 0.984 . S
H545 N541 0.985 . S
H546 N540 0.984 1_554 S
H547 N540 0.984 . S
H548 N536 0.984 . S
H549 N536 0.985 . S
C550 C551 1.363 . S
C550 C556 1.379 . S
C550 N558 1.356 . S
C551 C550 1.363 . S
C551 C557 1.363 . S
C552 C553 1.363 . S
C552 C557 1.379 . S
C552 N559 1.356 . S
C553 C552 1.363 . S
C553 C556 1.363 . S
N554 C556 1.356 . S
N554 H566 0.984 . S
N554 H567 0.985 . S
N555 C557 1.356 . S
N555 H560 0.980 1_545 S
N555 H561 0.985 1_545 S
C556 C550 1.379 . S
C556 C553 1.363 . S
C556 N554 1.356 . S
C557 C551 1.363 . S
C557 C552 1.379 . S
C557 N555 1.356 . S
N558 C550 1.356 . S
N558 H564 0.984 . S
N558 H565 0.984 . S
N559 C552 1.356 . S
N559 H562 0.984 . S
N559 H563 0.985 . S
H560 N555 0.980 1_565 S
H561 N555 0.985 1_565 S
H562 N559 0.984 . S
H563 N559 0.985 . S
H564 N558 0.984 . S
H565 N558 0.984 . S
H566 N554 0.984 . S
H567 N554 0.985 . S
C568 C569 1.363 . S
C568 C574 1.379 . S
C568 N576 1.356 . S
C569 C568 1.363 . S
C569 C575 1.363 . S
C570 C571 1.363 . S
C570 C575 1.379 . S
C570 N577 1.356 . S
C571 C570 1.363 . S
C571 C574 1.363 . S
N572 C574 1.356 . S
N572 H584 0.984 . S
N572 H585 0.985 . S
N573 C575 1.356 . S
N573 H578 0.984 . S
N573 H579 0.985 . S
C574 C568 1.379 . S
C574 C571 1.363 . S
C574 N572 1.356 . S
C575 C569 1.363 . S
C575 C570 1.379 . S
C575 N573 1.356 . S
N576 C568 1.356 . S
N576 H582 0.984 . S
N576 H583 0.984 . S
N577 C570 1.356 . S
N577 H580 0.984 . S
N577 H581 0.985 . S
H578 N573 0.984 . S
H579 N573 0.985 . S
H580 N577 0.984 . S
H581 N577 0.985 . S
H582 N576 0.984 . S
H583 N576 0.984 . S
H584 N572 0.984 . S
H585 N572 0.985 . S
C586 C587 1.363 . S
C586 C592 1.379 . S
C586 N594 1.356 . S
C587 C586 1.363 . S
C587 C593 1.363 . S
C588 C589 1.363 . S
C588 C593 1.379 . S
C588 N595 1.356 . S
C589 C588 1.363 . S
C589 C592 1.363 . S
N590 C592 1.356 . S
N590 H602 0.984 . S
N590 H603 0.985 . S
N591 C593 1.356 . S
N591 H596 0.984 . S
N591 H597 0.985 . S
C592 C586 1.379 . S
C592 C589 1.363 . S
C592 N590 1.356 . S
C593 C587 1.363 . S
C593 C588 1.379 . S
C593 N591 1.356 . S
N594 C586 1.356 . S
N594 H600 0.984 . S
N594 H601 0.984 . S
N595 C588 1.356 . S
N595 H598 0.984 . S
N595 H599 0.985 . S
H596 N591 0.984 . S
H597 N591 0.985 . S
H598 N595 0.984 . S
H599 N595 0.985 . S
H600 N594 0.984 . S
H601 N594 0.984 . S
H602 N590 0.984 . S
H603 N590 0.985 . S
C604 C605 1.363 . S
C604 C610 1.379 . S
C604 N612 1.356 . S
C605 C604 1.363 . S
C605 C611 1.363 . S
C606 C607 1.363 . S
C606 C611 1.379 . S
C606 N613 1.356 . S
C607 C606 1.363 . S
C607 C610 1.363 . S
N608 C610 1.356 . S
N608 H620 0.984 . S
N608 H621 0.985 . S
N609 C611 1.356 . S
N609 H614 0.984 . S
N609 H615 0.985 . S
C610 C604 1.379 . S
C610 C607 1.363 . S
C610 N608 1.356 . S
C611 C605 1.363 . S
C611 C606 1.379 . S
C611 N609 1.356 . S
N612 C604 1.356 . S
N612 H618 0.984 . S
N612 H619 0.984 . S
N613 C606 1.356 . S
N613 H616 0.984 1_554 S
N613 H617 0.985 1_554 S
H614 N609 0.984 . S
H615 N609 0.985 . S
H616 N613 0.984 1_556 S
H617 N613 0.985 1_556 S
H618 N612 0.984 . S
H619 N612 0.984 . S
H620 N608 0.984 . S
H621 N608 0.985 . S
C622 C623 1.363 . S
C622 C628 1.379 . S
C622 N630 1.356 . S
C623 C622 1.363 . S
C623 C629 1.363 . S
C624 C625 1.363 . S
C624 C629 1.379 . S
C624 N631 1.356 . S
C625 C624 1.363 . S
C625 C628 1.363 . S
N626 C628 1.356 . S
N626 H638 0.984 . S
N626 H639 0.985 . S
N627 C629 1.356 . S
N627 H632 0.984 . S
N627 H633 0.985 . S
C628 C622 1.379 . S
C628 C625 1.363 . S
C628 N626 1.356 . S
C629 C623 1.363 . S
C629 C624 1.379 . S
C629 N627 1.356 . S
N630 C622 1.356 . S
N630 H636 0.984 1_556 S
N630 H637 0.984 1_556 S
N631 C624 1.356 . S
N631 H634 0.984 . S
N631 H635 0.985 . S
H632 N627 0.984 . S
H633 N627 0.985 . S
H634 N631 0.984 . S
H635 N631 0.985 . S
H636 N630 0.984 1_554 S
H637 N630 0.984 1_554 S
H638 N626 0.984 . S
H639 N626 0.985 . S
C640 C641 1.363 . S
C640 C646 1.379 . S
C640 N648 1.356 . S
C641 C640 1.363 . S
C641 C647 1.363 . S
C642 C643 1.363 . S
C642 C647 1.379 . S
C642 N649 1.356 . S
C643 C642 1.363 . S
C643 C646 1.363 . S
N644 C646 1.356 . S
N644 H656 0.984 . S
N644 H657 0.985 . S
N645 C647 1.356 . S
N645 H650 0.984 . S
N645 H651 0.985 1_556 S
C646 C640 1.379 . S
C646 C643 1.363 . S
C646 N644 1.356 . S
C647 C641 1.363 . S
C647 C642 1.379 . S
C647 N645 1.356 . S
N648 C640 1.356 . S
N648 H654 0.984 . S
N648 H655 0.984 . S
N649 C642 1.356 . S
N649 H652 0.984 . S
N649 H653 0.985 . S
H650 N645 0.984 . S
H651 N645 0.985 1_554 S
H652 N649 0.984 . S
H653 N649 0.985 . S
H654 N648 0.984 . S
H655 N648 0.984 . S
H656 N644 0.984 . S
H657 N644 0.985 . S
C658 C659 1.363 . S
C658 C664 1.379 . S
C658 N666 1.356 . S
C659 C658 1.363 . S
C659 C665 1.363 . S
C660 C661 1.363 . S
C660 C665 1.379 . S
C660 N667 1.356 . S
C661 C660 1.363 . S
C661 C664 1.363 . S
N662 C664 1.356 1_556 S
N662 H674 0.984 . S
N662 H675 0.985 . S
N663 C665 1.356 . S
N663 H668 0.984 . S
N663 H669 0.985 . S
C664 C658 1.379 . S
C664 C661 1.363 . S
C664 N662 1.356 1_554 S
C665 C659 1.363 . S
C665 C660 1.379 . S
C665 N663 1.356 . S
N666 C658 1.356 . S
N666 H672 0.984 . S
N666 H673 0.984 . S
N667 C660 1.356 . S
N667 H670 0.984 . S
N667 H671 0.985 . S
H668 N663 0.984 . S
H669 N663 0.985 . S
H670 N667 0.984 . S
H671 N667 0.985 . S
H672 N666 0.984 . S
H673 N666 0.984 . S
H674 N662 0.984 . S
H675 N662 0.985 . S
C676 C677 1.363 . S
C676 C682 1.379 . S
C676 N684 1.356 . S
C677 C676 1.363 . S
C677 C683 1.363 . S
C678 C679 1.363 . S
C678 C683 1.379 . S
C678 N685 1.356 . S
C679 C678 1.363 . S
C679 C682 1.363 . S
N680 C682 1.356 . S
N680 H692 0.984 . S
N680 H693 0.985 . S
N681 C683 1.356 . S
N681 H686 0.984 1_455 S
N681 H687 0.985 1_455 S
C682 C676 1.379 . S
C682 C679 1.363 . S
C682 N680 1.356 . S
C683 C677 1.363 . S
C683 C678 1.379 . S
C683 N681 1.356 . S
N684 C676 1.356 . S
N684 H690 0.984 . S
N684 H691 0.984 . S
N685 C678 1.356 . S
N685 H688 0.984 . S
N685 H689 0.985 . S
H686 N681 0.984 1_655 S
H687 N681 0.985 1_655 S
H688 N685 0.984 . S
H689 N685 0.985 . S
H690 N684 0.984 . S
H691 N684 0.984 . S
H692 N680 0.984 . S
H693 N680 0.985 . S
C694 C695 1.363 . S
C694 C700 1.379 . S
C694 N702 1.356 . S
C695 C694 1.363 . S
C695 C701 1.363 . S
C696 C697 1.363 . S
C696 C701 1.379 . S
C696 N703 1.356 . S
C697 C696 1.363 . S
C697 C700 1.363 . S
N698 C700 1.356 . S
N698 H710 0.984 . S
N698 H711 0.985 . S
N699 C701 1.356 . S
N699 H704 0.984 . S
N699 H705 0.985 . S
C700 C694 1.379 . S
C700 C697 1.363 . S
C700 N698 1.356 . S
C701 C695 1.363 . S
C701 C696 1.379 . S
C701 N699 1.356 . S
N702 C694 1.356 . S
N702 H708 0.984 . S
N702 H709 0.984 . S
N703 C696 1.356 . S
N703 H706 0.984 . S
N703 H707 0.985 . S
H704 N699 0.984 . S
H705 N699 0.985 . S
H706 N703 0.984 . S
H707 N703 0.985 . S
H708 N702 0.984 . S
H709 N702 0.984 . S
H710 N698 0.984 . S
H711 N698 0.985 . S
C712 C713 1.363 . S
C712 C718 1.379 . S
C712 N720 1.356 . S
C713 C712 1.363 . S
C713 C719 1.363 . S
C714 C715 1.363 . S
C714 C719 1.379 . S
C714 N721 1.356 . S
C715 C714 1.363 . S
C715 C718 1.363 . S
N716 C718 1.356 . S
N716 H728 0.984 . S
N716 H729 0.985 . S
N717 C719 1.356 . S
N717 H722 0.984 . S
N717 H723 0.985 . S
C718 C712 1.379 . S
C718 C715 1.363 . S
C718 N716 1.356 . S
C719 C713 1.363 . S
C719 C714 1.379 . S
C719 N717 1.356 . S
N720 C712 1.356 . S
N720 H726 0.984 . S
N720 H727 0.984 . S
N721 C714 1.356 . S
N721 H724 0.984 . S
N721 H725 0.985 . S
H722 N717 0.984 . S
H723 N717 0.985 . S
H724 N721 0.984 . S
H725 N721 0.985 . S
H726 N720 0.984 . S
H727 N720 0.984 . S
H728 N716 0.984 . S
H729 N716 0.985 . S
C730 C731 1.363 . S
C730 C736 1.379 . S
C730 N738 1.356 1_556 S
C731 C730 1.363 . S
C731 C737 1.363 . S
C732 C733 1.363 . S
C732 C737 1.379 . S
C732 N739 1.356 . S
C733 C732 1.363 . S
C733 C736 1.363 . S
N734 C736 1.356 . S
N734 H746 0.984 . S
N734 H747 0.985 . S
N735 C737 1.356 . S
N735 H740 0.984 . S
N735 H741 0.985 . S
C736 C730 1.379 . S
C736 C733 1.363 . S
C736 N734 1.356 . S
C737 C731 1.363 . S
C737 C732 1.379 . S
C737 N735 1.356 . S
N738 C730 1.356 1_554 S
N738 H744 0.984 . S
N738 H745 0.984 . S
N739 C732 1.356 . S
N739 H742 0.984 . S
N739 H743 0.985 . S
H740 N735 0.984 . S
H741 N735 0.985 . S
H742 N739 0.984 . S
H743 N739 0.985 . S
H744 N738 0.984 . S
H745 N738 0.984 . S
H746 N734 0.984 . S
H747 N734 0.985 . S
C748 C749 1.363 . S
C748 C754 1.379 . S
C748 N756 1.356 . S
C749 C748 1.363 . S
C749 C755 1.363 . S
C750 C751 1.363 . S
C750 C755 1.379 . S
C750 N757 1.356 . S
C751 C750 1.363 . S
C751 C754 1.363 . S
N752 C754 1.356 . S
N752 H764 0.984 1_655 S
N752 H765 0.975 1_655 S
N753 C755 1.356 . S
N753 H758 0.984 . S
N753 H759 0.985 . S
C754 C748 1.379 . S
C754 C751 1.363 . S
C754 N752 1.356 . S
C755 C749 1.363 . S
C755 C750 1.379 . S
C755 N753 1.356 . S
N756 C748 1.356 . S
N756 H762 0.984 . S
N756 H763 0.984 . S
N757 C750 1.356 . S
N757 H760 0.984 . S
N757 H761 0.985 . S
H758 N753 0.984 . S
H759 N753 0.985 . S
H760 N757 0.984 . S
H761 N757 0.985 . S
H762 N756 0.984 . S
H763 N756 0.984 . S
H764 N752 0.984 1_455 S
H765 N752 0.975 1_455 S
C766 C767 1.363 . S
C766 C772 1.379 . S
C766 N774 1.356 . S
C767 C766 1.363 . S
C767 C773 1.363 . S
C768 C769 1.363 . S
C768 C773 1.379 . S
C768 N775 1.356 . S
C769 C768 1.363 . S
C769 C772 1.363 . S
N770 C772 1.356 . S
N770 H782 0.984 . S
N770 H783 0.985 . S
N771 C773 1.356 . S
N771 H776 0.984 . S
N771 H777 0.985 . S
C772 C766 1.379 . S
C772 C769 1.363 . S
C772 N770 1.356 . S
C773 C767 1.363 . S
C773 C768 1.379 . S
C773 N771 1.356 . S
N774 C766 1.356 . S
N774 H780 0.984 . S
N774 H781 0.984 . S
N775 C768 1.356 . S
N775 H778 0.984 . S
N775 H779 0.985 . S
H776 N771 0.984 . S
H777 N771 0.985 . S
H778 N775 0.984 . S
H779 N775 0.985 . S
H780 N774 0.984 . S
H781 N774 0.984 . S
H782 N770 0.984 . S
H783 N770 0.985 . S
C784 C785 1.363 . S
C784 C790 1.379 . S
C784 N792 1.356 . S
C785 C784 1.363 . S
C785 C791 1.363 . S
C786 C787 1.363 . S
C786 C791 1.379 . S
C786 N793 1.356 . S
C787 C786 1.363 . S
C787 C790 1.363 . S
N788 C790 1.356 . S
N788 H800 0.984 1_655 S
N788 H801 0.985 . S
N789 C791 1.356 . S
N789 H794 0.984 . S
N789 H795 0.985 . S
C790 C784 1.379 . S
C790 C787 1.363 . S
C790 N788 1.356 . S
C791 C785 1.363 . S
C791 C786 1.379 . S
C791 N789 1.356 . S
N792 C784 1.356 . S
N792 H798 0.984 . S
N792 H799 0.984 . S
N793 C786 1.356 . S
N793 H796 0.984 . S
N793 H797 0.985 . S
H794 N789 0.984 . S
H795 N789 0.985 . S
H796 N793 0.984 . S
H797 N793 0.985 . S
H798 N792 0.984 . S
H799 N792 0.984 . S
H800 N788 0.984 1_455 S
H801 N788 0.985 . S
C802 C803 1.363 . S
C802 C808 1.379 . S
C802 N810 1.356 . S
C803 C802 1.363 . S
C803 C809 1.363 . S
C804 C805 1.363 . S
C804 C809 1.379 . S
C804 N811 1.356 . S
C805 C804 1.363 . S
C805 C808 1.363 . S
N806 C808 1.356 . S
N806 H818 0.984 . S
N806 H819 0.985 . S
N807 C809 1.356 . S
N807 H812 0.984 . S
N807 H813 0.985 . S
C808 C802 1.379 . S
C808 C805 1.363 . S
C808 N806 1.356 . S
C809 C803 1.363 . S
C809 C804 1.379 . S
C809 N807 1.356 . S
N810 C802 1.356 . S
N810 H816 0.984 . S
N810 H817 0.984 . S
N811 C804 1.356 . S
N811 H814 0.984 . S
N811 H815 0.985 . S
H812 N807 0.984 . S
H813 N807 0.985 . S
H814 N811 0.984 . S
H815 N811 0.985 . S
H816 N810 0.984 . S
H817 N810 0.984 . S
H818 N806 0.984 . S
H819 N806 0.985 . S
C820 C821 1.363 . S
C820 C826 1.379 . S
C820 N828 1.356 . S
C821 C820 1.363 . S
C821 C827 1.363 . S
C822 C823 1.363 . S
C822 C827 1.379 . S
C822 N829 1.356 . S
C823 C822 1.363 . S
C823 C826 1.363 . S
N824 C826 1.356 . S
N824 H836 0.984 . S
N824 H837 0.985 . S
N825 C827 1.356 . S
N825 H830 0.984 . S
N825 H831 0.985 . S
C826 C820 1.379 . S
C826 C823 1.363 . S
C826 N824 1.356 . S
C827 C821 1.363 . S
C827 C822 1.379 . S
C827 N825 1.356 . S
N828 C820 1.356 . S
N828 H834 0.984 . S
N828 H835 0.984 . S
N829 C822 1.356 . S
N829 H832 0.984 . S
N829 H833 0.985 . S
H830 N825 0.984 . S
H831 N825 0.985 . S
H832 N829 0.984 . S
H833 N829 0.985 . S
H834 N828 0.984 . S
H835 N828 0.984 . S
H836 N824 0.984 . S
H837 N824 0.985 . S
C838 C839 1.363 . S
C838 C844 1.379 . S
C838 N846 1.356 . S
C839 C838 1.363 . S
C839 C845 1.363 . S
C840 C841 1.363 . S
C840 C845 1.379 . S
C840 N847 1.356 . S
C841 C840 1.363 . S
C841 C844 1.363 . S
N842 C844 1.356 . S
N842 H854 0.984 . S
N842 H855 0.985 . S
N843 C845 1.356 1_556 S
N843 H848 0.984 . S
N843 H849 0.985 . S
C844 C838 1.379 . S
C844 C841 1.363 . S
C844 N842 1.356 . S
C845 C839 1.363 . S
C845 C840 1.379 . S
C845 N843 1.356 1_554 S
N846 C838 1.356 . S
N846 H852 0.984 . S
N846 H853 0.984 . S
N847 C840 1.356 . S
N847 H850 0.984 . S
N847 H851 0.985 . S
H848 N843 0.984 . S
H849 N843 0.985 . S
H850 N847 0.984 . S
H851 N847 0.985 . S
H852 N846 0.984 . S
H853 N846 0.984 . S
H854 N842 0.984 . S
H855 N842 0.985 . S
C856 C857 1.363 . S
C856 C862 1.379 . S
C856 N864 1.356 . S
C857 C856 1.363 . S
C857 C863 1.363 . S
C858 C859 1.363 . S
C858 C863 1.379 . S
C858 N865 1.356 . S
C859 C858 1.363 . S
C859 C862 1.363 . S
N860 C862 1.356 . S
N860 H872 0.984 1_455 S
N860 H873 0.985 1_455 S
N861 C863 1.356 . S
N861 H866 0.984 . S
N861 H867 0.985 . S
C862 C856 1.379 . S
C862 C859 1.363 . S
C862 N860 1.356 . S
C863 C857 1.363 . S
C863 C858 1.379 . S
C863 N861 1.356 . S
N864 C856 1.356 . S
N864 H870 0.984 . S
N864 H871 0.984 . S
N865 C858 1.356 . S
N865 H868 0.984 . S
N865 H869 0.985 . S
H866 N861 0.984 . S
H867 N861 0.985 . S
H868 N865 0.984 . S
H869 N865 0.985 . S
H870 N864 0.984 . S
H871 N864 0.984 . S
H872 N860 0.984 1_655 S
H873 N860 0.985 1_655 S
C874 C875 1.363 . S
C874 C880 1.379 . S
C874 N882 1.356 . S
C875 C874 1.363 . S
C875 C881 1.363 . S
C876 C877 1.363 . S
C876 C881 1.379 . S
C876 N883 1.356 . S
C877 C876 1.363 . S
C877 C880 1.363 . S
N878 C880 1.356 . S
N878 H890 0.984 . S
N878 H891 0.985 . S
N879 C881 1.356 . S
N879 H884 0.984 . S
N879 H885 0.985 . S
C880 C874 1.379 . S
C880 C877 1.363 . S
C880 N878 1.356 . S
C881 C875 1.363 . S
C881 C876 1.379 . S
C881 N879 1.356 . S
N882 C874 1.356 . S
N882 H888 0.984 . S
N882 H889 0.984 . S
N883 C876 1.356 . S
N883 H886 0.984 . S
N883 H887 0.985 . S
H884 N879 0.984 . S
H885 N879 0.985 . S
H886 N883 0.984 . S
H887 N883 0.985 . S
H888 N882 0.984 . S
H889 N882 0.984 . S
H890 N878 0.984 . S
H891 N878 0.985 . S
C892 C893 1.363 . S
C892 C898 1.379 . S
C892 N900 1.356 . S
C893 C892 1.363 . S
C893 C899 1.363 . S
C894 C895 1.363 . S
C894 C899 1.379 . S
C894 N901 1.356 . S
C895 C894 1.363 . S
C895 C898 1.363 . S
N896 C898 1.356 . S
N896 H908 0.984 . S
N896 H909 0.985 . S
N897 C899 1.356 . S
N897 H902 0.984 . S
N897 H903 0.985 . S
C898 C892 1.379 . S
C898 C895 1.363 . S
C898 N896 1.356 . S
C899 C893 1.363 . S
C899 C894 1.379 . S
C899 N897 1.356 . S
N900 C892 1.356 . S
N900 H906 0.984 . S
N900 H907 0.984 . S
N901 C894 1.356 . S
N901 H904 0.984 . S
N901 H905 0.985 . S
H902 N897 0.984 . S
H903 N897 0.985 . S
H904 N901 0.984 . S
H905 N901 0.985 . S
H906 N900 0.984 . S
H907 N900 0.984 . S
H908 N896 0.984 . S
H909 N896 0.985 . S
C910 C911 1.363 . S
C910 C916 1.379 . S
C910 N918 1.356 . S
C911 C910 1.363 . S
C911 C917 1.363 . S
C912 C913 1.363 . S
C912 C917 1.379 . S
C912 N919 1.356 . S
C913 C912 1.363 . S
C913 C916 1.363 . S
N914 C916 1.356 1_554 S
N914 H926 0.984 . S
N914 H927 0.985 . S
N915 C917 1.356 . S
N915 H920 0.984 . S
N915 H921 0.985 . S
C916 C910 1.379 . S
C916 C913 1.363 . S
C916 N914 1.356 1_556 S
C917 C911 1.363 . S
C917 C912 1.379 . S
C917 N915 1.356 . S
N918 C910 1.356 . S
N918 H924 0.984 1_556 S
N918 H925 0.984 . S
N919 C912 1.356 . S
N919 H922 0.984 . S
N919 H923 0.985 . S
H920 N915 0.984 . S
H921 N915 0.985 . S
H922 N919 0.984 . S
H923 N919 0.985 . S
H924 N918 0.984 1_554 S
H925 N918 0.984 . S
H926 N914 0.984 . S
H927 N914 0.985 . S
C928 C929 1.363 . S
C928 C934 1.379 . S
C928 N936 1.356 . S
C929 C928 1.363 . S
C929 C935 1.363 . S
C930 C931 1.363 . S
C930 C935 1.379 . S
C930 N937 1.356 . S
C931 C930 1.363 . S
C931 C934 1.363 . S
N932 C934 1.356 . S
N932 H944 0.984 . S
N932 H945 0.985 . S
N933 C935 1.356 . S
N933 H938 0.984 . S
N933 H939 0.985 . S
C934 C928 1.379 . S
C934 C931 1.363 . S
C934 N932 1.356 . S
C935 C929 1.363 . S
C935 C930 1.379 . S
C935 N933 1.356 . S
N936 C928 1.356 . S
N936 H942 0.984 . S
N936 H943 0.984 . S
N937 C930 1.356 . S
N937 H940 0.984 . S
N937 H941 0.985 . S
H938 N933 0.984 . S
H939 N933 0.985 . S
H940 N937 0.984 . S
H941 N937 0.985 . S
H942 N936 0.984 . S
H943 N936 0.984 . S
H944 N932 0.984 . S
H945 N932 0.985 . S
C946 C947 1.363 . S
C946 C952 1.379 . S
C946 N954 1.356 . S
C947 C946 1.363 . S
C947 C953 1.363 . S
C948 C949 1.363 . S
C948 C953 1.379 . S
C948 N955 1.356 . S
C949 C948 1.363 . S
C949 C952 1.363 . S
N950 C952 1.356 . S
N950 H962 0.984 . S
N950 H963 0.985 . S
N951 C953 1.356 . S
N951 H956 0.984 . S
N951 H957 0.985 . S
C952 C946 1.379 . S
C952 C949 1.363 . S
C952 N950 1.356 . S
C953 C947 1.363 . S
C953 C948 1.379 . S
C953 N951 1.356 . S
N954 C946 1.356 . S
N954 H960 0.984 . S
N954 H961 0.984 . S
N955 C948 1.356 . S
N955 H958 0.984 . S
N955 H959 0.985 . S
H956 N951 0.984 . S
H957 N951 0.985 . S
H958 N955 0.984 . S
H959 N955 0.985 . S
H960 N954 0.984 . S
H961 N954 0.984 . S
H962 N950 0.984 . S
H963 N950 0.985 . S
C964 C965 1.363 . S
C964 C970 1.379 . S
C964 N972 1.356 . S
C965 C964 1.363 . S
C965 C971 1.363 . S
C966 C967 1.363 . S
C966 C971 1.379 . S
C966 N973 1.356 . S
C967 C966 1.363 . S
C967 C970 1.363 . S
N968 C970 1.356 . S
N968 H980 0.984 . S
N968 H981 0.985 . S
N969 C971 1.356 . S
N969 H974 0.984 . S
N969 H975 0.985 . S
C970 C964 1.379 . S
C970 C967 1.363 . S
C970 N968 1.356 . S
C971 C965 1.363 . S
C971 C966 1.379 . S
C971 N969 1.356 . S
N972 C964 1.356 . S
N972 H978 0.984 . S
N972 H979 0.984 . S
N973 C966 1.356 . S
N973 H976 0.984 . S
N973 H977 0.985 . S
H974 N969 0.984 . S
H975 N969 0.985 . S
H976 N973 0.984 . S
H977 N973 0.985 . S
H978 N972 0.984 . S
H979 N972 0.984 . S
H980 N968 0.984 . S
H981 N968 0.985 . S
C982 C983 1.363 . S
C982 C988 1.379 . S
C982 N990 1.356 . S
C983 C982 1.363 . S
C983 C989 1.363 1_455 S
C984 C985 1.363 . S
C984 C989 1.379 1_556 S
C984 N991 1.356 . S
C985 C984 1.363 . S
C985 C988 1.363 1_656 S
N986 C988 1.356 1_656 S
N986 H998 0.984 1_656 S
N986 H999 0.985 . S
N987 C989 1.356 1_455 S
N987 H992 0.984 . S
N987 H993 0.985 1_455 S
C988 C982 1.379 . S
C988 C985 1.363 1_454 S
C988 N986 1.356 1_454 S
C989 C983 1.363 1_655 S
C989 C984 1.379 1_554 S
C989 N987 1.356 1_655 S
N990 C982 1.356 . S
N990 H996 0.984 . S
N990 H997 0.984 . S
N991 C984 1.356 . S
N991 H994 0.984 . S
N991 H995 0.985 . S
H992 N987 0.984 . S
H993 N987 0.985 1_655 S
H994 N991 0.984 . S
H995 N991 0.985 . S
H996 N990 0.984 . S
H997 N990 0.984 . S
H998 N986 0.984 1_454 S
H999 N986 0.985 . S
C1000 C1001 1.363 . S
C1000 C1006 1.379 . S
C1000 N1008 1.356 . S
C1001 C1000 1.363 . S
C1001 C1007 1.363 . S
C1002 C1003 1.363 . S
C1002 C1007 1.379 . S
C1002 N1009 1.356 . S
C1003 C1002 1.363 . S
C1003 C1006 1.363 . S
N1004 C1006 1.356 . S
N1004 H1016 0.984 . S
N1004 H1017 0.985 . S
N1005 C1007 1.356 . S
N1005 H1010 0.984 . S
N1005 H1011 0.985 . S
C1006 C1000 1.379 . S
C1006 C1003 1.363 . S
C1006 N1004 1.356 . S
C1007 C1001 1.363 . S
C1007 C1002 1.379 . S
C1007 N1005 1.356 . S
N1008 C1000 1.356 . S
N1008 H1014 0.984 . S
N1008 H1015 0.984 . S
N1009 C1002 1.356 . S
N1009 H1012 0.984 . S
N1009 H1013 0.985 . S
H1010 N1005 0.984 . S
H1011 N1005 0.985 . S
H1012 N1009 0.984 . S
H1013 N1009 0.985 . S
H1014 N1008 0.984 . S
H1015 N1008 0.984 . S
H1016 N1004 0.984 . S
H1017 N1004 0.985 . S
C1018 C1019 1.363 . S
C1018 C1024 1.379 . S
C1018 N1026 1.356 . S
C1019 C1018 1.363 . S
C1019 C1025 1.363 . S
C1020 C1021 1.363 . S
C1020 C1025 1.379 . S
C1020 N1027 1.356 . S
C1021 C1020 1.363 . S
C1021 C1024 1.363 . S
N1022 C1024 1.356 . S
N1022 H1034 0.984 . S
N1022 H1035 0.985 . S
N1023 C1025 1.356 . S
N1023 H1028 0.984 . S
N1023 H1029 0.985 . S
C1024 C1018 1.379 . S
C1024 C1021 1.363 . S
C1024 N1022 1.356 . S
C1025 C1019 1.363 . S
C1025 C1020 1.379 . S
C1025 N1023 1.356 . S
N1026 C1018 1.356 . S
N1026 H1032 0.984 . S
N1026 H1033 0.984 . S
N1027 C1020 1.356 . S
N1027 H1030 0.984 . S
N1027 H1031 0.985 . S
H1028 N1023 0.984 . S
H1029 N1023 0.985 . S
H1030 N1027 0.984 . S
H1031 N1027 0.985 . S
H1032 N1026 0.984 . S
H1033 N1026 0.984 . S
H1034 N1022 0.984 . S
H1035 N1022 0.985 . S
C1036 C1037 1.363 1_554 S
C1036 C1042 1.379 . S
C1036 N1044 1.356 . S
C1037 C1036 1.363 1_556 S
C1037 C1043 1.363 1_445 S
C1038 C1039 1.363 . S
C1038 C1043 1.379 1_554 S
C1038 N1045 1.356 . S
C1039 C1038 1.363 . S
C1039 C1042 1.363 1_665 S
N1040 C1042 1.356 . S
N1040 H1052 0.984 . S
N1040 H1053 0.984 1_445 S
N1041 C1043 1.356 . S
N1041 H1046 0.984 1_665 S
N1041 H1047 0.985 . S
C1042 C1036 1.379 . S
C1042 C1039 1.363 1_445 S
C1042 N1040 1.356 . S
C1043 C1037 1.363 1_665 S
C1043 C1038 1.379 1_556 S
C1043 N1041 1.356 . S
N1044 C1036 1.356 . S
N1044 H1050 0.984 . S
N1044 H1051 0.984 1_554 S
N1045 C1038 1.356 . S
N1045 H1048 0.984 . S
N1045 H1049 0.985 1_554 S
H1046 N1041 0.984 1_445 S
H1047 N1041 0.985 . S
H1048 N1045 0.984 . S
H1049 N1045 0.985 1_556 S
H1050 N1044 0.984 . S
H1051 N1044 0.984 1_556 S
H1052 N1040 0.984 . S
H1053 N1040 0.984 1_665 S
C1054 C1055 1.363 . S
C1054 C1060 1.379 . S
C1054 N1062 1.356 . S
C1055 C1054 1.363 . S
C1055 C1061 1.363 1_545 S
C1056 C1057 1.363 . S
C1056 C1061 1.379 . S
C1056 N1063 1.356 . S
C1057 C1056 1.363 . S
C1057 C1060 1.363 1_565 S
N1058 C1060 1.356 . S
N1058 H1070 0.984 . S
N1058 H1071 0.985 . S
N1059 C1061 1.356 . S
N1059 H1064 0.984 . S
N1059 H1065 0.985 . S
C1060 C1054 1.379 . S
C1060 C1057 1.363 1_545 S
C1060 N1058 1.356 . S
C1061 C1055 1.363 1_565 S
C1061 C1056 1.379 . S
C1061 N1059 1.356 . S
N1062 C1054 1.356 . S
N1062 H1068 0.984 . S
N1062 H1069 0.984 . S
N1063 C1056 1.356 . S
N1063 H1066 0.984 . S
N1063 H1067 0.985 . S
H1064 N1059 0.984 . S
H1065 N1059 0.985 . S
H1066 N1063 0.984 . S
H1067 N1063 0.985 . S
H1068 N1062 0.984 . S
H1069 N1062 0.984 . S
H1070 N1058 0.984 . S
H1071 N1058 0.985 . S
C1072 C1073 1.363 . S
C1072 C1078 1.379 . S
C1072 N1080 1.356 . S
C1073 C1072 1.363 . S
C1073 C1079 1.363 . S
C1074 C1075 1.363 . S
C1074 C1079 1.379 . S
C1074 N1081 1.356 . S
C1075 C1074 1.363 . S
C1075 C1078 1.363 . S
N1076 C1078 1.356 . S
N1076 H1088 0.984 . S
N1076 H1089 0.985 . S
N1077 C1079 1.356 . S
N1077 H1082 0.984 . S
N1077 H1083 0.985 . S
C1078 C1072 1.379 . S
C1078 C1075 1.363 . S
C1078 N1076 1.356 . S
C1079 C1073 1.363 . S
C1079 C1074 1.379 . S
C1079 N1077 1.356 . S
N1080 C1072 1.356 . S
N1080 H1086 0.984 . S
N1080 H1087 0.984 . S
N1081 C1074 1.356 . S
N1081 H1084 0.984 . S
N1081 H1085 0.985 . S
H1082 N1077 0.984 . S
H1083 N1077 0.985 . S
H1084 N1081 0.984 . S
H1085 N1081 0.985 . S
H1086 N1080 0.984 . S
H1087 N1080 0.984 . S
H1088 N1076 0.984 . S
H1089 N1076 0.985 . S
C1090 C1091 1.363 1_554 S
C1090 C1096 1.379 . S
C1090 N1098 1.356 . S
C1091 C1090 1.363 1_556 S
C1091 C1097 1.363 . S
C1092 C1093 1.363 1_556 S
C1092 C1097 1.379 . S
C1092 N1099 1.356 . S
C1093 C1092 1.363 1_554 S
C1093 C1096 1.363 . S
N1094 C1096 1.356 . S
N1094 H1106 0.984 . S
N1094 H1107 0.985 . S
N1095 C1097 1.356 . S
N1095 H1100 0.984 . S
N1095 H1101 0.985 . S
C1096 C1090 1.379 . S
C1096 C1093 1.363 . S
C1096 N1094 1.356 . S
C1097 C1091 1.363 . S
C1097 C1092 1.379 . S
C1097 N1095 1.356 . S
N1098 C1090 1.356 . S
N1098 H1104 0.984 . S
N1098 H1105 0.984 . S
N1099 C1092 1.356 . S
N1099 H1102 0.984 1_556 S
N1099 H1103 0.985 . S
H1100 N1095 0.984 . S
H1101 N1095 0.985 . S
H1102 N1099 0.984 1_554 S
H1103 N1099 0.985 . S
H1104 N1098 0.984 . S
H1105 N1098 0.984 . S
H1106 N1094 0.984 . S
H1107 N1094 0.985 . S
C1108 C1109 1.363 . S
C1108 C1114 1.379 . S
C1108 N1116 1.356 . S
C1109 C1108 1.363 . S
C1109 C1115 1.363 . S
C1110 C1111 1.363 . S
C1110 C1115 1.379 . S
C1110 N1117 1.356 . S
C1111 C1110 1.363 . S
C1111 C1114 1.363 . S
N1112 C1114 1.356 . S
N1112 H1124 0.984 . S
N1112 H1125 0.985 . S
N1113 C1115 1.356 . S
N1113 H1118 0.984 . S
N1113 H1119 0.985 . S
C1114 C1108 1.379 . S
C1114 C1111 1.363 . S
C1114 N1112 1.356 . S
C1115 C1109 1.363 . S
C1115 C1110 1.379 . S
C1115 N1113 1.356 . S
N1116 C1108 1.356 . S
N1116 H1122 0.984 . S
N1116 H1123 0.984 . S
N1117 C1110 1.356 . S
N1117 H1120 0.984 . S
N1117 H1121 0.985 . S
H1118 N1113 0.984 . S
H1119 N1113 0.985 . S
H1120 N1117 0.984 . S
H1121 N1117 0.985 . S
H1122 N1116 0.984 . S
H1123 N1116 0.984 . S
H1124 N1112 0.984 . S
H1125 N1112 0.985 . S
C1126 C1127 1.363 . S
C1126 C1132 1.379 1_455 S
C1126 N1134 1.356 . S
C1127 C1126 1.363 . S
C1127 C1133 1.363 . S
C1128 C1129 1.363 . S
C1128 C1133 1.379 1_655 S
C1128 N1135 1.356 . S
C1129 C1128 1.363 . S
C1129 C1132 1.363 . S
N1130 C1132 1.356 . S
N1130 H1142 0.984 . S
N1130 H1143 0.985 . S
N1131 C1133 1.356 . S
N1131 H1136 0.984 . S
N1131 H1137 0.985 . S
C1132 C1126 1.379 1_655 S
C1132 C1129 1.363 . S
C1132 N1130 1.356 . S
C1133 C1127 1.363 . S
C1133 C1128 1.379 1_455 S
C1133 N1131 1.356 . S
N1134 C1126 1.356 . S
N1134 H1140 0.984 . S
N1134 H1141 0.984 . S
N1135 C1128 1.356 . S
N1135 H1138 0.984 . S
N1135 H1139 0.985 . S
H1136 N1131 0.984 . S
H1137 N1131 0.985 . S
H1138 N1135 0.984 . S
H1139 N1135 0.985 . S
H1140 N1134 0.984 . S
H1141 N1134 0.984 . S
H1142 N1130 0.984 . S
H1143 N1130 0.985 . S
C1144 C1145 1.363 . S
C1144 C1150 1.379 . S
C1144 N1152 1.356 . S
C1145 C1144 1.363 . S
C1145 C1151 1.363 . S
C1146 C1147 1.363 . S
C1146 C1151 1.379 . S
C1146 N1153 1.356 . S
C1147 C1146 1.363 . S
C1147 C1150 1.363 . S
N1148 C1150 1.356 . S
N1148 H1160 0.984 . S
N1148 H1161 0.985 . S
N1149 C1151 1.356 . S
N1149 H1154 0.984 . S
N1149 H1155 0.985 . S
C1150 C1144 1.379 . S
C1150 C1147 1.363 . S
C1150 N1148 1.356 . S
C1151 C1145 1.363 . S
C1151 C1146 1.379 . S
C1151 N1149 1.356 . S
N1152 C1144 1.356 . S
N1152 H1158 0.984 . S
N1152 H1159 0.984 . S
N1153 C1146 1.356 . S
N1153 H1156 0.984 . S
N1153 H1157 0.985 . S
H1154 N1149 0.984 . S
H1155 N1149 0.985 . S
H1156 N1153 0.984 . S
H1157 N1153 0.985 . S
H1158 N1152 0.984 . S
H1159 N1152 0.984 . S
H1160 N1148 0.984 . S
H1161 N1148 0.985 . S
C1162 C1163 1.363 . S
C1162 C1168 1.379 . S
C1162 N1170 1.356 . S
C1163 C1162 1.363 . S
C1163 C1169 1.363 . S
C1164 C1165 1.363 . S
C1164 C1169 1.379 . S
C1164 N1171 1.356 . S
C1165 C1164 1.363 . S
C1165 C1168 1.363 . S
N1166 C1168 1.356 . S
N1166 H1178 0.984 . S
N1166 H1179 0.985 . S
N1167 C1169 1.356 . S
N1167 H1172 0.984 . S
N1167 H1173 0.985 . S
C1168 C1162 1.379 . S
C1168 C1165 1.363 . S
C1168 N1166 1.356 . S
C1169 C1163 1.363 . S
C1169 C1164 1.379 . S
C1169 N1167 1.356 . S
N1170 C1162 1.356 . S
N1170 H1176 0.984 . S
N1170 H1177 0.984 . S
N1171 C1164 1.356 . S
N1171 H1174 0.984 . S
N1171 H1175 0.985 . S
H1172 N1167 0.984 . S
H1173 N1167 0.985 . S
H1174 N1171 0.984 . S
H1175 N1171 0.985 . S
H1176 N1170 0.984 . S
H1177 N1170 0.984 . S
H1178 N1166 0.984 . S
H1179 N1166 0.985 . S
C1180 C1181 1.363 1_545 S
C1180 C1186 1.379 1_655 S
C1180 N1188 1.356 . S
C1181 C1180 1.363 1_565 S
C1181 C1187 1.363 . S
C1182 C1183 1.363 1_565 S
C1182 C1187 1.379 1_455 S
C1182 N1189 1.356 . S
C1183 C1182 1.363 1_545 S
C1183 C1186 1.363 . S
N1184 C1186 1.356 . S
N1184 H1196 0.984 . S
N1184 H1197 0.985 . S
N1185 C1187 1.356 . S
N1185 H1190 0.984 . S
N1185 H1191 0.985 . S
C1186 C1180 1.379 1_455 S
C1186 C1183 1.363 . S
C1186 N1184 1.356 . S
C1187 C1181 1.363 . S
C1187 C1182 1.379 1_655 S
C1187 N1185 1.356 . S
N1188 C1180 1.356 . S
N1188 H1194 0.984 . S
N1188 H1195 0.984 1_545 S
N1189 C1182 1.356 . S
N1189 H1192 0.984 1_565 S
N1189 H1193 0.985 . S
H1190 N1185 0.984 . S
H1191 N1185 0.985 . S
H1192 N1189 0.984 1_545 S
H1193 N1189 0.985 . S
H1194 N1188 0.984 . S
H1195 N1188 0.984 1_565 S
H1196 N1184 0.984 . S
H1197 N1184 0.985 . S
C1198 C1199 1.363 . S
C1198 C1204 1.379 1_545 S
C1198 N1206 1.356 . S
C1199 C1198 1.363 . S
C1199 C1205 1.363 1_556 S
C1200 C1201 1.363 . S
C1200 C1205 1.379 1_565 S
C1200 N1207 1.356 . S
C1201 C1200 1.363 . S
C1201 C1204 1.363 1_554 S
N1202 C1204 1.356 . S
N1202 H1214 0.984 . S
N1202 H1215 0.985 1_556 S
N1203 C1205 1.356 . S
N1203 H1208 0.984 . S
N1203 H1209 0.985 . S
C1204 C1198 1.379 1_565 S
C1204 C1201 1.363 1_556 S
C1204 N1202 1.356 . S
C1205 C1199 1.363 1_554 S
C1205 C1200 1.379 1_545 S
C1205 N1203 1.356 . S
N1206 C1198 1.356 . S
N1206 H1212 0.984 . S
N1206 H1213 0.984 . S
N1207 C1200 1.356 . S
N1207 H1210 0.984 . S
N1207 H1211 0.985 . S
H1208 N1203 0.984 . S
H1209 N1203 0.985 . S
H1210 N1207 0.984 . S
H1211 N1207 0.985 . S
H1212 N1206 0.984 . S
H1213 N1206 0.984 . S
H1214 N1202 0.984 . S
H1215 N1202 0.985 1_554 S
C353 C7 1.590 1_556 S
C355 C203 1.685 . S
C371 C225 1.685 . S
C373 C28 1.590 . S
C389 C251 1.685 . S
C391 C50 1.590 . S
C407 C185 1.685 . S
C409 C73 1.590 . S
C425 C93 1.590 . S
C427 C292 1.685 . S
C443 C115 1.590 . S
C445 C315 1.685 . S
C461 C337 1.685 . S
C463 C141 1.590 . S
C479 C270 1.685 . S
C481 C163 1.590 . S
C497 C27 1.685 . S
C499 C183 1.590 . S
C515 C49 1.685 . S
C517 C204 1.590 . S
C533 C75 1.685 . S
C535 C226 1.590 1_556 S
C551 C249 1.590 . S
C553 C9 1.685 . S
C569 C116 1.685 . S
C571 C269 1.590 . S
C587 C139 1.685 . S
C589 C291 1.590 . S
C605 C161 1.685 . S
C607 C317 1.590 . S
C623 C94 1.685 . S
C625 C339 1.590 . S
C641 C6 1.554 . S
C643 C334 1.628 . S
C659 C29 1.554 . S
C661 C96 1.628 . S
C677 C294 1.628 . S
C679 C51 1.554 . S
C695 C136 1.628 . S
C697 C72 1.554 . S
C713 C97 1.554 . S
C715 C246 1.628 . S
C731 C4 1.628 1_556 S
C733 C119 1.554 . S
C749 C137 1.554 . S
C751 C206 1.628 . S
C767 C159 1.554 . S
C769 C52 1.628 . S
C785 C182 1.554 . S
C787 C158 1.628 . S
C803 C272 1.628 . S
C805 C205 1.554 . S
C821 C227 1.554 . S
C823 C118 1.628 . S
C839 C312 1.628 . S
C841 C248 1.554 . S
C857 C273 1.554 . S
C859 C70 1.628 . S
C875 C180 1.628 . S
C877 C295 1.554 . S
C893 C313 1.554 . S
C895 C30 1.628 . S
C911 C335 1.554 . S
C913 C228 1.628 1_556 S
C929 C8 1.407 . S
C931 C268 1.407 . S
C947 C114 1.407 . S
C949 C26 1.407 . S
C965 C48 1.407 . S
C967 C316 1.407 . S
C983 C162 1.407 . S
C985 C74 1.407 . S
C1001 C92 1.407 . S
C1003 C184 1.407 . S
C1019 C224 1.407 . S
C1021 C140 1.407 . S
C1037 C202 1.407 . S
C1039 C290 1.407 . S
C1055 C338 1.407 . S
C1057 C250 1.407 . S
C1073 C271 1.326 . S
C1075 C5 1.326 . S
C1091 C117 1.326 . S
C1093 C31 1.326 . S
C1109 C53 1.326 . S
C1111 C314 1.326 . S
C1127 C160 1.326 . S
C1129 C71 1.326 . S
C1145 C95 1.326 . S
C1147 C181 1.326 . S
C1163 C138 1.326 . S
C1165 C229 1.326 . S
C1181 C293 1.326 . S
C1183 C207 1.326 . S
C1199 C336 1.326 . S
C1201 C247 1.326 . S
