# Generated by pormake.
# Topology vbm, (6)-cn, num edge types: 1
# Building blocks:
#     Node 0, Type 0, BuildingBlock: NUHQIS_clean_sbu_0, # of connection points: 6
#     Node 1, Type 0, BuildingBlock: NUHQIS_clean_sbu_0, # of connection points: 6
#     Node 2, Type 0, BuildingBlock: NUHQIS_clean_sbu_0, # of connection points: 6
#     Node 3, Type 0, BuildingBlock: NUHQIS_clean_sbu_0, # of connection points: 6
#     Node 4, Type 0, BuildingBlock: NUHQIS_clean_sbu_0, # of connection points: 6
#     Node 5, Type 0, BuildingBlock: NUHQIS_clean_sbu_0, # of connection points: 6
#     Node 6, Type 0, BuildingBlock: NUHQIS_clean_sbu_0, # of connection points: 6
#     Node 7, Type 0, BuildingBlock: NUHQIS_clean_sbu_0, # of connection points: 6
#     Node 8, Type 0, BuildingBlock: NUHQIS_clean_sbu_0, # of connection points: 6
#     Node 9, Type 0, BuildingBlock: NUHQIS_clean_sbu_0, # of connection points: 6
#     Node 10, Type 0, BuildingBlock: NUHQIS_clean_sbu_0, # of connection points: 6
#     Node 11, Type 0, BuildingBlock: NUHQIS_clean_sbu_0, # of connection points: 6
#     Node 12, Type 0, BuildingBlock: NUHQIS_clean_sbu_0, # of connection points: 6
#     Node 13, Type 0, BuildingBlock: NUHQIS_clean_sbu_0, # of connection points: 6
#     Node 14, Type 0, BuildingBlock: NUHQIS_clean_sbu_0, # of connection points: 6
#     Node 15, Type 0, BuildingBlock: NUHQIS_clean_sbu_0, # of connection points: 6
#     Edge 16, Type (0, 0), BuildingBlock: XUDNAN_clean_linker_2, # of connection points: 2
#     Edge 17, Type (0, 0), BuildingBlock: XUDNAN_clean_linker_2, # of connection points: 2
#     Edge 18, Type (0, 0), BuildingBlock: XUDNAN_clean_linker_2, # of connection points: 2
#     Edge 19, Type (0, 0), BuildingBlock: XUDNAN_clean_linker_2, # of connection points: 2
#     Edge 20, Type (0, 0), BuildingBlock: XUDNAN_clean_linker_2, # of connection points: 2
#     Edge 21, Type (0, 0), BuildingBlock: XUDNAN_clean_linker_2, # of connection points: 2
#     Edge 22, Type (0, 0), BuildingBlock: XUDNAN_clean_linker_2, # of connection points: 2
#     Edge 23, Type (0, 0), BuildingBlock: XUDNAN_clean_linker_2, # of connection points: 2
#     Edge 24, Type (0, 0), BuildingBlock: XUDNAN_clean_linker_2, # of connection points: 2
#     Edge 25, Type (0, 0), BuildingBlock: XUDNAN_clean_linker_2, # of connection points: 2
#     Edge 26, Type (0, 0), BuildingBlock: XUDNAN_clean_linker_2, # of connection points: 2
#     Edge 27, Type (0, 0), BuildingBlock: XUDNAN_clean_linker_2, # of connection points: 2
#     Edge 28, Type (0, 0), BuildingBlock: XUDNAN_clean_linker_2, # of connection points: 2
#     Edge 29, Type (0, 0), BuildingBlock: XUDNAN_clean_linker_2, # of connection points: 2
#     Edge 30, Type (0, 0), BuildingBlock: XUDNAN_clean_linker_2, # of connection points: 2
#     Edge 31, Type (0, 0), BuildingBlock: XUDNAN_clean_linker_2, # of connection points: 2
#     Edge 32, Type (0, 0), BuildingBlock: XUDNAN_clean_linker_2, # of connection points: 2
#     Edge 33, Type (0, 0), BuildingBlock: XUDNAN_clean_linker_2, # of connection points: 2
#     Edge 34, Type (0, 0), BuildingBlock: XUDNAN_clean_linker_2, # of connection points: 2
#     Edge 35, Type (0, 0), BuildingBlock: XUDNAN_clean_linker_2, # of connection points: 2
#     Edge 36, Type (0, 0), BuildingBlock: XUDNAN_clean_linker_2, # of connection points: 2
#     Edge 37, Type (0, 0), BuildingBlock: XUDNAN_clean_linker_2, # of connection points: 2
#     Edge 38, Type (0, 0), BuildingBlock: XUDNAN_clean_linker_2, # of connection points: 2
#     Edge 39, Type (0, 0), BuildingBlock: XUDNAN_clean_linker_2, # of connection points: 2
#     Edge 40, Type (0, 0), BuildingBlock: XUDNAN_clean_linker_2, # of connection points: 2
#     Edge 41, Type (0, 0), BuildingBlock: XUDNAN_clean_linker_2, # of connection points: 2
#     Edge 42, Type (0, 0), BuildingBlock: XUDNAN_clean_linker_2, # of connection points: 2
#     Edge 43, Type (0, 0), BuildingBlock: XUDNAN_clean_linker_2, # of connection points: 2
#     Edge 44, Type (0, 0), BuildingBlock: XUDNAN_clean_linker_2, # of connection points: 2
#     Edge 45, Type (0, 0), BuildingBlock: XUDNAN_clean_linker_2, # of connection points: 2
#     Edge 46, Type (0, 0), BuildingBlock: XUDNAN_clean_linker_2, # of connection points: 2
#     Edge 47, Type (0, 0), BuildingBlock: XUDNAN_clean_linker_2, # of connection points: 2
#     Edge 48, Type (0, 0), BuildingBlock: XUDNAN_clean_linker_2, # of connection points: 2
#     Edge 49, Type (0, 0), BuildingBlock: XUDNAN_clean_linker_2, # of connection points: 2
#     Edge 50, Type (0, 0), BuildingBlock: XUDNAN_clean_linker_2, # of connection points: 2
#     Edge 51, Type (0, 0), BuildingBlock: XUDNAN_clean_linker_2, # of connection points: 2
#     Edge 52, Type (0, 0), BuildingBlock: XUDNAN_clean_linker_2, # of connection points: 2
#     Edge 53, Type (0, 0), BuildingBlock: XUDNAN_clean_linker_2, # of connection points: 2
#     Edge 54, Type (0, 0), BuildingBlock: XUDNAN_clean_linker_2, # of connection points: 2
#     Edge 55, Type (0, 0), BuildingBlock: XUDNAN_clean_linker_2, # of connection points: 2
#     Edge 56, Type (0, 0), BuildingBlock: XUDNAN_clean_linker_2, # of connection points: 2
#     Edge 57, Type (0, 0), BuildingBlock: XUDNAN_clean_linker_2, # of connection points: 2
#     Edge 58, Type (0, 0), BuildingBlock: XUDNAN_clean_linker_2, # of connection points: 2
#     Edge 59, Type (0, 0), BuildingBlock: XUDNAN_clean_linker_2, # of connection points: 2
#     Edge 60, Type (0, 0), BuildingBlock: XUDNAN_clean_linker_2, # of connection points: 2
#     Edge 61, Type (0, 0), BuildingBlock: XUDNAN_clean_linker_2, # of connection points: 2
#     Edge 62, Type (0, 0), BuildingBlock: XUDNAN_clean_linker_2, # of connection points: 2
#     Edge 63, Type (0, 0), BuildingBlock: XUDNAN_clean_linker_2, # of connection points: 2
# Relax obj value: 0.062
# Max RMSD: 0.140
# Mean RMSD: 0.140
data_MOF--net-vbm--node1-NUHQIS_clean_sbu_0--edge1-XUDNAN_clean_linker_2
_symmetry_space_group_name_H-M    P1
_symmetry_Int_Tables_number       1
_symmetry_cell_setting            triclinic
loop_
_symmetry_equiv_pos_as_xyz
'x, y, z'
_cell_length_a     54.755004
_cell_length_b     25.968578
_cell_length_c     58.641372
_cell_angle_alpha  90.024063
_cell_angle_beta   90.00137
_cell_angle_gamma 90.029808
loop_
_atom_site_label
_atom_site_type_symbol
_atom_site_fract_x
_atom_site_fract_y
_atom_site_fract_z
_atom_type_partial_charge
Tb0 Tb 0.14281 0.06461 0.1275 0.0
Eu1 Eu 0.11871 0.18107 0.14039 0.0
C2 C 0.12479 0.13985 0.08859 0.0
C3 C 0.17636 0.16465 0.12737 0.0
C4 C 0.15128 0.91897 0.11979 0.0
C5 C 0.15711 0.83619 0.10078 0.0
C6 C 0.16196 0.88911 0.1025 0.0
C7 C 0.13528 0.89458 0.13521 0.0
C8 C 0.13047 0.84146 0.13355 0.0
C9 C 0.14146 0.81134 0.11638 0.0
C10 C 0.15924 0.97353 0.12282 0.0
O11 O 0.15359 0.0913 0.16113 0.0
O12 O 0.11855 0.13044 0.17198 0.0
O13 O 0.08623 0.12977 0.13332 0.0
O14 O 0.10505 0.05057 0.13699 0.0
C15 C 0.13753 0.10179 0.17701 0.0
O16 O 0.11896 0.24883 0.16271 0.0
O17 O 0.09417 0.2459 0.13402 0.0
O18 O 0.12589 0.17952 0.10255 0.0
O19 O 0.12639 0.09186 0.09579 0.0
O20 O 0.17249 0.11765 0.11957 0.0
O21 O 0.15961 0.19126 0.13836 0.0
C22 C 0.08535 0.07922 0.13489 0.0
O23 O 0.15633 1.0056 0.10592 0.0
O24 O 0.15452 0.99537 0.14231 0.0
C25 C 0.10896 0.32856 0.14493 0.0
C26 C 0.11802 0.4335 0.13365 0.0
C27 C 0.10304 0.42032 0.1523 0.0
C28 C 0.09855 0.36852 0.15781 0.0
C29 C 0.12439 0.34133 0.12665 0.0
C30 C 0.12885 0.39312 0.12107 0.0
C31 C 0.10307 0.27413 0.15048 0.0
H32 H 0.16623 0.81447 0.08752 0.0
H33 H 0.17465 0.90652 0.0906 0.0
H34 H 0.12679 0.91629 0.14885 0.0
H35 H 0.1181 0.82403 0.14571 0.0
H36 H 0.09418 0.45002 0.16227 0.0
H37 H 0.08659 0.35966 0.172 0.0
H38 H 0.1328 0.31122 0.11655 0.0
H39 H 0.14081 0.40152 0.10684 0.0
Tb40 Tb 0.86077 0.97565 0.12278 0.0
Eu41 Eu 0.87702 0.85675 0.13552 0.0
C42 C 0.86713 0.89178 0.08382 0.0
C43 C 0.8221 0.88647 0.12907 0.0
C44 C 0.85133 0.11965 0.12129 0.0
C45 C 0.86169 0.20836 0.11209 0.0
C46 C 0.85839 0.15717 0.1054 0.0
C47 C 0.84772 0.1342 0.14413 0.0
C48 C 0.85086 0.18558 0.15082 0.0
C49 C 0.8578 0.22342 0.13486 0.0
C50 C 0.84725 0.06631 0.11333 0.0
O51 O 0.86009 0.97232 0.16014 0.0
O52 O 0.88746 0.90669 0.16543 0.0
O53 O 0.91058 0.89748 0.12326 0.0
O54 O 0.8999 0.98149 0.1304 0.0
C55 C 0.87538 0.94673 0.17324 0.0
O56 O 0.87847 0.79441 0.16042 0.0
O57 O 0.895 0.784 0.12716 0.0
O58 O 0.86431 0.85437 0.09876 0.0
O59 O 0.87072 0.9397 0.09038 0.0
O60 O 0.82947 0.92468 0.11603 0.0
O61 O 0.83717 0.86444 0.1433 0.0
C62 C 0.91653 0.94594 0.1264 0.0
O63 O 0.86585 0.04351 0.10384 0.0
O64 O 0.83512 0.03519 0.12664 0.0
C65 C 0.88159 0.70794 0.14675 0.0
C66 C 0.87335 0.60046 0.14981 0.0
C67 C 0.86826 0.63296 0.16839 0.0
C68 C 0.87241 0.68598 0.1669 0.0
C69 C 0.88583 0.67575 0.12785 0.0
C70 C 0.88165 0.62263 0.12934 0.0
C71 C 0.88951 0.76259 0.14663 0.0
H72 H 0.86752 0.23603 0.0994 0.0
H73 H 0.86132 0.14685 0.0877 0.0
H74 H 0.84227 0.10608 0.15679 0.0
H75 H 0.84744 0.19572 0.16845 0.0
H76 H 0.86152 0.61726 0.1843 0.0
H77 H 0.86917 0.70954 0.18185 0.0
H78 H 0.89322 0.69125 0.11215 0.0
H79 H 0.88598 0.59867 0.11477 0.0
Tb80 Tb 0.14375 0.97708 0.38207 0.0
Eu81 Eu 0.12438 0.85915 0.36742 0.0
C82 C 0.13464 0.89067 0.41962 0.0
C83 C 0.18074 0.88362 0.37682 0.0
C84 C 0.15315 0.12215 0.38563 0.0
C85 C 0.15191 0.21298 0.39614 0.0
C86 C 0.15409 0.16102 0.40224 0.0
C87 C 0.14947 0.13608 0.36274 0.0
C88 C 0.14735 0.18816 0.3566 0.0
C89 C 0.14879 0.22742 0.3732 0.0
C90 C 0.15682 0.06791 0.39269 0.0
O91 O 0.15002 0.96878 0.34575 0.0
O92 O 0.11947 0.91193 0.33669 0.0
O93 O 0.09239 0.90365 0.3806 0.0
O94 O 0.10556 0.98496 0.37151 0.0
C95 C 0.13519 0.94794 0.33082 0.0
O96 O 0.12234 0.79726 0.3421 0.0
O97 O 0.10392 0.78857 0.37454 0.0
O98 O 0.13634 0.85351 0.40439 0.0
O99 O 0.13286 0.93935 0.41362 0.0
O100 O 0.17483 0.92554 0.38836 0.0
O101 O 0.16498 0.85923 0.36391 0.0
C102 C 0.08809 0.95276 0.37737 0.0
O103 O 0.13807 0.04434 0.40148 0.0
O104 O 0.16898 0.03787 0.37897 0.0
C105 C 0.11755 0.71144 0.35589 0.0
C106 C 0.12941 0.60486 0.35552 0.0
C107 C 0.1236 0.63101 0.3352 0.0
C108 C 0.11773 0.68345 0.33541 0.0
C109 C 0.1234 0.68567 0.37629 0.0
C110 C 0.12921 0.63292 0.3761 0.0
C111 C 0.11003 0.76644 0.35539 0.0
H112 H 0.15339 0.24191 0.40937 0.0
H113 H 0.15694 0.15119 0.42 0.0
H114 H 0.14848 0.1068 0.34961 0.0
H115 H 0.1446 0.19767 0.3388 0.0
H116 H 0.12314 0.6107 0.31908 0.0
H117 H 0.11304 0.70213 0.31948 0.0
H118 H 0.12338 0.70612 0.39239 0.0
H119 H 0.1338 0.61425 0.39204 0.0
Tb120 Tb 0.86387 0.06776 0.37961 0.0
Eu121 Eu 0.88556 0.18404 0.36488 0.0
C122 C 0.87173 0.15269 0.41738 0.0
C123 C 0.82908 0.16295 0.3699 0.0
C124 C 0.85624 0.92333 0.38304 0.0
C125 C 0.86071 0.83446 0.39612 0.0
C126 C 0.85413 0.88592 0.40024 0.0
C127 C 0.8651 0.90816 0.36157 0.0
C128 C 0.87156 0.85672 0.3574 0.0
C129 C 0.86955 0.81897 0.37462 0.0
C130 C 0.84843 0.97724 0.38763 0.0
O131 O 0.88294 0.05829 0.34752 0.0
O132 O 0.87681 0.13841 0.33252 0.0
O133 O 0.91836 0.13138 0.36558 0.0
O134 O 0.90228 0.06872 0.38907 0.0
C135 C 0.88112 0.08889 0.32985 0.0
O136 O 0.88351 0.24938 0.34137 0.0
O137 O 0.90964 0.25078 0.36914 0.0
O138 O 0.88571 0.17999 0.40356 0.0
O139 O 0.8581 0.1142 0.41007 0.0
O140 O 0.8335 0.11377 0.36615 0.0
O141 O 0.8466 0.19507 0.3751 0.0
C142 C 0.921 0.09134 0.37912 0.0
O143 O 0.86165 1.00392 0.40184 0.0
O144 O 0.84183 1.00498 0.37015 0.0
C145 C 0.89609 0.33244 0.35437 0.0
C146 C 0.89274 0.44156 0.35712 0.0
C147 C 0.89584 0.41661 0.336 0.0
C148 C 0.89748 0.36293 0.33468 0.0
C149 C 0.89218 0.35682 0.37551 0.0
C150 C 0.8904 0.41091 0.37685 0.0
C151 C 0.90014 0.27606 0.35206 0.0
H152 H 0.85919 0.807 0.40994 0.0
H153 H 0.84733 0.89654 0.41694 0.0
H154 H 0.8669 0.93596 0.3479 0.0
H155 H 0.87785 0.84651 0.34049 0.0
H156 H 0.89728 0.43873 0.32041 0.0
H157 H 0.90039 0.34518 0.31817 0.0
H158 H 0.89098 0.33426 0.391 0.0
H159 H 0.88807 0.4288 0.39339 0.0
Tb160 Tb 0.88007 0.85846 0.86564 0.0
Eu161 Eu 0.85463 0.97401 0.87494 0.0
C162 C 0.87623 0.94066 0.82678 0.0
C163 C 0.91301 0.95543 0.87763 0.0
C164 C 0.88641 0.71361 0.86194 0.0
C165 C 0.8848 0.62415 0.84908 0.0
C166 C 0.89219 0.67543 0.84585 0.0
C167 C 0.87294 0.69951 0.88135 0.0
C168 C 0.86565 0.64819 0.88467 0.0
C169 C 0.87144 0.60957 0.86858 0.0
C170 C 0.89511 0.76727 0.85836 0.0
O171 O 0.86409 0.85618 0.89998 0.0
O172 O 0.86663 0.94205 0.90882 0.0
O173 O 0.82457 0.91357 0.8786 0.0
O174 O 0.84289 0.85936 0.85348 0.0
C175 C 0.86517 0.89364 0.91516 0.0
O176 O 0.84381 0.03787 0.89731 0.0
O177 O 0.8358 0.04171 0.86128 0.0
O178 O 0.85673 0.95829 0.83718 0.0
O179 O 0.89108 0.90816 0.8371 0.0
O180 O 0.90952 0.90535 0.87902 0.0
O181 O 0.89546 0.9881 0.87229 0.0
C182 C 0.82413 0.87135 0.86617 0.0
O183 O 0.88338 0.79486 0.8434 0.0
O184 O 0.90038 0.79421 0.87647 0.0
C185 C 0.84083 0.1223 0.88103 0.0
C186 C 0.84529 0.23163 0.88119 0.0
C187 C 0.83682 0.2049 0.90054 0.0
C188 C 0.83459 0.15115 0.90042 0.0
C189 C 0.85016 0.14856 0.86188 0.0
C190 C 0.85246 0.20259 0.86201 0.0
C191 C 0.83533 0.06604 0.88073 0.0
H192 H 0.88931 0.5961 0.83609 0.0
H193 H 0.9025 0.6853 0.8307 0.0
H194 H 0.8682 0.72807 0.89407 0.0
H195 H 0.85575 0.63878 0.90009 0.0
H196 H 0.83153 0.22566 0.91577 0.0
H197 H 0.82733 0.13214 0.91541 0.0
H198 H 0.85508 0.12758 0.8466 0.0
H199 H 0.85894 0.22175 0.84677 0.0
Tb200 Tb 0.11177 0.19208 0.86999 0.0
Eu201 Eu 0.13994 0.07744 0.87948 0.0
C202 C 0.12471 0.11397 0.83041 0.0
C203 C 0.08047 0.09238 0.87801 0.0
C204 C 0.10271 0.33696 0.86139 0.0
C205 C 0.1056 0.41824 0.84052 0.0
C206 C 0.09942 0.36583 0.84138 0.0
C207 C 0.11226 0.36226 0.88073 0.0
C208 C 0.11842 0.41505 0.8799 0.0
C209 C 0.1153 0.44386 0.85971 0.0
C210 C 0.0948 0.28173 0.86168 0.0
O211 O 0.1081 0.17529 0.90656 0.0
O212 O 0.14 0.11877 0.91306 0.0
O213 O 0.17015 0.13754 0.87365 0.0
O214 O 0.14779 0.21043 0.88188 0.0
C215 C 0.12316 0.15077 0.92045 0.0
O216 O 0.14516 1.00797 0.90024 0.0
O217 O 0.16357 1.01473 0.86773 0.0
O218 O 0.1232 0.07561 0.84471 0.0
O219 O 0.12703 0.16158 0.83795 0.0
O220 O 0.08204 0.13671 0.86718 0.0
O221 O 0.09968 0.06864 0.88657 0.0
C222 C 0.16873 0.18715 0.87876 0.0
O223 O 0.10416 0.25134 0.84635 0.0
O224 O 0.09288 0.25835 0.88121 0.0
C225 C 0.15248 0.92933 0.88002 0.0
C226 C 0.1444 0.82243 0.87094 0.0
C227 C 0.15171 0.8394 0.89272 0.0
C228 C 0.15574 0.89201 0.89715 0.0
C229 C 0.14454 0.91278 0.85841 0.0
C230 C 0.14057 0.86017 0.85395 0.0
C231 C 0.15837 0.98453 0.8849 0.0
H232 H 0.10244 0.43891 0.82476 0.0
H233 H 0.09179 0.34784 0.82629 0.0
H234 H 0.11496 0.34136 0.8965 0.0
H235 H 0.12597 0.43308 0.89499 0.0
H236 H 0.15509 0.81188 0.90622 0.0
H237 H 0.16188 0.9035 0.91396 0.0
H238 H 0.14163 0.9404 0.84484 0.0
H239 H 0.13454 0.84908 0.83706 0.0
Tb240 Tb 0.88773 0.18902 0.63631 0.0
Eu241 Eu 0.8601 0.07431 0.62661 0.0
C242 C 0.87888 0.1083 0.67583 0.0
C243 C 0.91949 0.08813 0.62969 0.0
C244 C 0.89491 0.334 0.64332 0.0
C245 C 0.8702 0.40478 0.65832 0.0
C246 C 0.87604 0.35217 0.65752 0.0
C247 C 0.90708 0.36979 0.62931 0.0
C248 C 0.90109 0.4225 0.62998 0.0
C249 C 0.88295 0.44095 0.64492 0.0
C250 C 0.90351 0.27934 0.6445 0.0
O251 O 0.87593 0.19114 0.60058 0.0
O252 O 0.87105 0.10496 0.59225 0.0
O253 O 0.83135 0.13584 0.62033 0.0
O254 O 0.84902 0.19582 0.64386 0.0
C255 C 0.87362 0.1531 0.58581 0.0
O256 O 0.85735 1.00366 0.60657 0.0
O257 O 0.83477 1.01236 0.6365 0.0
O258 O 0.86013 0.09018 0.66441 0.0
O259 O 0.89456 0.14032 0.6663 0.0
O260 O 0.91826 0.13861 0.62727 0.0
O261 O 0.90002 0.05936 0.63326 0.0
C262 C 0.83078 0.18043 0.63104 0.0
O263 O 0.89333 0.24939 0.6596 0.0
O264 O 0.90728 0.25492 0.62538 0.0
C265 C 0.84752 0.92603 0.62668 0.0
C266 C 0.85507 0.81937 0.63654 0.0
C267 C 0.86759 0.84363 0.61851 0.0
C268 C 0.86385 0.89605 0.61364 0.0
C269 C 0.83492 0.9018 0.64461 0.0
C270 C 0.83867 0.84941 0.6495 0.0
C271 C 0.8423 0.98098 0.62055 0.0
H272 H 0.85586 0.41728 0.66977 0.0
H273 H 0.86614 0.32598 0.66853 0.0
H274 H 0.92179 0.35722 0.61828 0.0
H275 H 0.91141 0.44908 0.61951 0.0
H276 H 0.88053 0.82226 0.60825 0.0
H277 H 0.87369 0.91297 0.59948 0.0
H278 H 0.82188 0.9232 0.65476 0.0
H279 H 0.82831 0.83225 0.66326 0.0
Tb280 Tb 0.13043 0.87577 0.64076 0.0
Eu281 Eu 0.14592 0.99324 0.6225 0.0
C282 C 0.13777 0.96923 0.67487 0.0
C283 C 0.08998 0.96158 0.6326 0.0
C284 C 0.1296 0.73128 0.65173 0.0
C285 C 0.14489 0.65283 0.66959 0.0
C286 C 0.13825 0.70482 0.67098 0.0
C287 C 0.12792 0.70442 0.6309 0.0
C288 C 0.13449 0.65222 0.62953 0.0
C289 C 0.14294 0.62558 0.6489 0.0
C290 C 0.12068 0.78516 0.65428 0.0
O291 O 0.13819 0.8672 0.60399 0.0
O292 O 0.13187 0.95058 0.59209 0.0
O293 O 0.17691 0.93812 0.61373 0.0
O294 O 0.16988 0.88134 0.64272 0.0
C295 C 0.13412 0.90127 0.58766 0.0
O296 O 0.13841 0.06401 0.60335 0.0
O297 O 0.17248 0.05604 0.62174 0.0
O298 O 0.1529 0.98892 0.65996 0.0
O299 O 0.12419 0.92881 0.66971 0.0
O300 O 0.09637 0.91282 0.63139 0.0
O301 O 0.10627 0.9989 0.63364 0.0
C302 C 0.18394 0.89894 0.62643 0.0
O303 O 0.13455 0.81731 0.66543 0.0
O304 O 0.11059 0.80703 0.63664 0.0
C305 C 0.15677 0.14138 0.61703 0.0
C306 C 0.15664 0.24753 0.62886 0.0
C307 C 0.15101 0.23151 0.60653 0.0
C308 C 0.15113 0.17912 0.60071 0.0
C309 C 0.16178 0.15701 0.6395 0.0
C310 C 0.1617 0.20944 0.64534 0.0
C311 C 0.15851 0.08664 0.60984 0.0
H312 H 0.15095 0.63362 0.68497 0.0
H313 H 0.13943 0.72417 0.68732 0.0
H314 H 0.12123 0.72346 0.61571 0.0
H315 H 0.133 0.63277 0.61325 0.0
H316 H 0.14727 0.25953 0.59332 0.0
H317 H 0.14729 0.16811 0.58325 0.0
H318 H 0.16611 0.12883 0.65248 0.0
H319 H 0.16573 0.22013 0.66278 0.0
Tb320 Tb 0.63988 0.57284 0.12111 0.0
Eu321 Eu 0.62154 0.6906 0.13604 0.0
C322 C 0.63046 0.65958 0.08367 0.0
C323 C 0.67697 0.664 0.12801 0.0
C324 C 0.64876 0.42826 0.11236 0.0
C325 C 0.64362 0.34525 0.09372 0.0
C326 C 0.64922 0.39765 0.09267 0.0
C327 C 0.64291 0.40517 0.13337 0.0
C328 C 0.63739 0.35227 0.13446 0.0
C329 C 0.63742 0.32183 0.11455 0.0
C330 C 0.65468 0.48366 0.10996 0.0
O331 O 0.64145 0.57722 0.15838 0.0
O332 O 0.6114 0.63683 0.16487 0.0
O333 O 0.58887 0.64823 0.12269 0.0
O334 O 0.60072 0.56381 0.12755 0.0
C335 C 0.62468 0.59757 0.17167 0.0
O336 O 0.62557 0.75773 0.15855 0.0
O337 O 0.59773 0.75729 0.13237 0.0
O338 O 0.63238 0.69678 0.09885 0.0
O339 O 0.62873 0.61086 0.08967 0.0
O340 O 0.6703 0.62583 0.11464 0.0
O341 O 0.66174 0.68335 0.14288 0.0
C342 C 0.58376 0.59883 0.1238 0.0
O343 O 0.63939 0.51095 0.09808 0.0
O344 O 0.66267 0.50895 0.12768 0.0
C345 C 0.61411 0.83878 0.14269 0.0
C346 C 0.61907 0.94491 0.13237 0.0
C347 C 0.61536 0.92848 0.15496 0.0
C348 C 0.61283 0.87597 0.16003 0.0
C349 C 0.61888 0.85483 0.12025 0.0
C350 C 0.62128 0.9073 0.11515 0.0
C351 C 0.60873 0.78423 0.14809 0.0
H352 H 0.64428 0.32294 0.07812 0.0
H353 H 0.65388 0.41442 0.07632 0.0
H354 H 0.64245 0.42792 0.14885 0.0
H355 H 0.63259 0.33545 0.15075 0.0
H356 H 0.61341 0.9563 0.16861 0.0
H357 H 0.60913 0.86449 0.17746 0.0
H358 H 0.62015 0.82692 0.10656 0.0
H359 H 0.62453 0.91851 0.09762 0.0
Tb360 Tb 0.35898 0.46989 0.12155 0.0
Eu361 Eu 0.38519 0.35394 0.13261 0.0
C362 C 0.37104 0.39019 0.08133 0.0
C363 C 0.32765 0.36905 0.1273 0.0
C364 C 0.34644 0.61444 0.12062 0.0
C365 C 0.35125 0.7039 0.10828 0.0
C366 C 0.34812 0.65146 0.10319 0.0
C367 C 0.34841 0.63106 0.14337 0.0
C368 C 0.35147 0.68363 0.14849 0.0
C369 C 0.35268 0.72101 0.13102 0.0
C370 C 0.34182 0.55954 0.11439 0.0
O371 O 0.35971 0.45963 0.1586 0.0
O372 O 0.39321 0.40717 0.16231 0.0
O373 O 0.41627 0.40538 0.12165 0.0
O374 O 0.39766 0.48457 0.12712 0.0
C375 C 0.37824 0.44214 0.17061 0.0
O376 O 0.39073 0.29134 0.15709 0.0
O377 O 0.40487 0.28378 0.12281 0.0
O378 O 0.37344 0.35149 0.09566 0.0
O379 O 0.36859 0.43823 0.08823 0.0
O380 O 0.3303 0.41231 0.11585 0.0
O381 O 0.34511 0.35049 0.14017 0.0
C382 C 0.41706 0.45603 0.12291 0.0
O383 O 0.35821 0.53738 0.10168 0.0
O384 O 0.3336 0.52813 0.12999 0.0
C385 C 0.39303 0.20561 0.14216 0.0
C386 C 0.37995 0.09913 0.14332 0.0
C387 C 0.3844 0.12692 0.16355 0.0
C388 C 0.39086 0.17915 0.16297 0.0
C389 C 0.38877 0.17803 0.12183 0.0
C390 C 0.38235 0.12546 0.12241 0.0
C391 C 0.40102 0.26073 0.14228 0.0
H392 H 0.3518 0.7312 0.09434 0.0
H393 H 0.3466 0.63986 0.08549 0.0
H394 H 0.34736 0.6036 0.15723 0.0
H395 H 0.35287 0.69496 0.16621 0.0
H396 H 0.38323 0.10808 0.17999 0.0
H397 H 0.3944 0.19887 0.17891 0.0
H398 H 0.39043 0.19694 0.10545 0.0
H399 H 0.37894 0.10565 0.10647 0.0
Tb400 Tb 0.64535 0.45895 0.36735 0.0
Eu401 Eu 0.61695 0.34369 0.36187 0.0
C402 C 0.63537 0.38919 0.41011 0.0
C403 C 0.67491 0.35702 0.35782 0.0
C404 C 0.65694 0.60294 0.37184 0.0
C405 C 0.66726 0.69458 0.37136 0.0
C406 C 0.67416 0.64265 0.36931 0.0
C407 C 0.63259 0.61621 0.37655 0.0
C408 C 0.62566 0.66816 0.37869 0.0
C409 C 0.64287 0.70829 0.37605 0.0
C410 C 0.66443 0.54861 0.36779 0.0
O411 O 0.64351 0.43581 0.33157 0.0
O412 O 0.60714 0.39302 0.33134 0.0
O413 O 0.5867 0.3976 0.37181 0.0
O414 O 0.60642 0.47657 0.36829 0.0
C415 C 0.62321 0.4228 0.32114 0.0
O416 O 0.61129 0.27347 0.34164 0.0
O417 O 0.59548 0.27947 0.37536 0.0
O418 O 0.63466 0.34848 0.39671 0.0
O419 O 0.63452 0.4362 0.40174 0.0
O420 O 0.67463 0.40091 0.36922 0.0
O421 O 0.65505 0.33815 0.34858 0.0
C422 C 0.58672 0.4483 0.37181 0.0
O423 O 0.66472 0.51712 0.38511 0.0
O424 O 0.655 0.52663 0.34992 0.0
C425 C 0.60631 0.19431 0.36246 0.0
C426 C 0.61371 0.08681 0.37041 0.0
C427 C 0.61322 0.10683 0.34808 0.0
C428 C 0.60946 0.15972 0.34419 0.0
C429 C 0.60758 0.17461 0.3848 0.0
C430 C 0.61125 0.12177 0.38869 0.0
C431 C 0.59972 0.24938 0.35794 0.0
H432 H 0.68114 0.72399 0.36949 0.0
H433 H 0.69303 0.63349 0.36548 0.0
H434 H 0.61888 0.58641 0.37823 0.0
H435 H 0.60665 0.67685 0.38199 0.0
H436 H 0.61481 0.08135 0.33354 0.0
H437 H 0.60837 0.1734 0.32677 0.0
H438 H 0.60525 0.19981 0.39935 0.0
H439 H 0.61192 0.10824 0.40614 0.0
Tb440 Tb 0.36579 0.58583 0.36664 0.0
Eu441 Eu 0.38982 0.70292 0.35848 0.0
C442 C 0.37714 0.65854 0.40843 0.0
C443 C 0.33267 0.6856 0.36354 0.0
C444 C 0.35489 0.44051 0.37194 0.0
C445 C 0.35346 0.36279 0.39531 0.0
C446 C 0.35051 0.41618 0.39295 0.0
C447 C 0.36298 0.41017 0.35351 0.0
C448 C 0.36591 0.35679 0.35585 0.0
C449 C 0.36066 0.33213 0.37665 0.0
C450 C 0.34797 0.49548 0.36849 0.0
O451 O 0.36294 0.60981 0.33103 0.0
O452 O 0.39894 0.65213 0.32833 0.0
O453 O 0.42052 0.65439 0.37107 0.0
O454 O 0.40542 0.57217 0.3652 0.0
C455 C 0.38237 0.62211 0.31917 0.0
O456 O 0.39297 0.77112 0.33662 0.0
O457 O 0.41181 0.76878 0.36908 0.0
O458 O 0.37648 0.69907 0.3949 0.0
O459 O 0.37781 0.61116 0.40034 0.0
O460 O 0.33579 0.64014 0.3731 0.0
O461 O 0.34981 0.7076 0.35145 0.0
C462 C 0.42342 0.60423 0.37017 0.0
O463 O 0.34887 0.52683 0.38584 0.0
O464 O 0.35546 0.5178 0.3499 0.0
C465 C 0.39777 0.85067 0.3563 0.0
C466 C 0.38426 0.95451 0.36499 0.0
C467 C 0.3944 0.94001 0.34386 0.0
C468 C 0.40111 0.88877 0.33962 0.0
C469 C 0.38744 0.86472 0.37734 0.0
C470 C 0.38087 0.91599 0.38166 0.0
C471 C 0.40563 0.79704 0.3516 0.0
H472 H 0.34962 0.34541 0.4117 0.0
H473 H 0.34403 0.43817 0.40744 0.0
H474 H 0.3662 0.4273 0.33694 0.0
H475 H 0.37121 0.33459 0.34102 0.0
H476 H 0.39693 0.96811 0.33044 0.0
H477 H 0.40897 0.87888 0.32324 0.0
H478 H 0.3846 0.83617 0.39054 0.0
H479 H 0.37347 0.92546 0.39825 0.0
Tb480 Tb 0.37442 0.37542 0.85955 0.0
Eu481 Eu 0.35665 0.4925 0.8781 0.0
C482 C 0.36437 0.46896 0.82519 0.0
C483 C 0.41242 0.46424 0.86688 0.0
C484 C 0.38439 0.23111 0.85377 0.0
C485 C 0.37443 0.14235 0.84342 0.0
C486 C 0.37532 0.19498 0.83803 0.0
C487 C 0.392 0.21349 0.87531 0.0
C488 C 0.39123 0.16081 0.88066 0.0
C489 C 0.38278 0.12433 0.86467 0.0
C490 C 0.38713 0.28595 0.84675 0.0
O491 O 0.37995 0.37679 0.897 0.0
O492 O 0.35342 0.44096 0.90825 0.0
O493 O 0.3223 0.44592 0.87066 0.0
O494 O 0.33781 0.36346 0.87197 0.0
C495 C 0.36761 0.40178 0.91301 0.0
O496 O 0.3587 0.55709 0.90192 0.0
O497 O 0.33443 0.56166 0.87283 0.0
O498 O 0.36824 0.50123 0.84194 0.0
O499 O 0.36248 0.41877 0.82882 0.0
O500 O 0.4048 0.42722 0.85337 0.0
O501 O 0.3978 0.48725 0.88147 0.0
C502 C 0.31936 0.39548 0.87167 0.0
O503 O 0.36758 0.30949 0.83953 0.0
O504 O 0.40055 0.31604 0.85947 0.0
C505 C 0.35092 0.6406 0.88663 0.0
C506 C 0.36403 0.74604 0.88201 0.0
C507 C 0.33983 0.73162 0.88706 0.0
C508 C 0.3334 0.67957 0.88937 0.0
C509 C 0.37497 0.65455 0.88106 0.0
C510 C 0.38146 0.70666 0.87881 0.0
C511 C 0.34377 0.58608 0.89022 0.0
H512 H 0.36802 0.11557 0.83058 0.0
H513 H 0.36943 0.20737 0.82127 0.0
H514 H 0.39897 0.24022 0.88791 0.0
H515 H 0.39744 0.1486 0.89733 0.0
H516 H 0.32595 0.76062 0.88989 0.0
H517 H 0.31472 0.66976 0.89368 0.0
H518 H 0.3888 0.62521 0.87867 0.0
H519 H 0.40018 0.71607 0.87455 0.0
Tb520 Tb 0.61976 0.6815 0.86292 0.0
Eu521 Eu 0.63779 0.56393 0.87889 0.0
C522 C 0.62524 0.5894 0.82707 0.0
C523 C 0.58128 0.59267 0.86967 0.0
C524 C 0.61439 0.82557 0.85692 0.0
C525 C 0.60421 0.91681 0.85535 0.0
C526 C 0.59787 0.86515 0.85174 0.0
C527 C 0.63711 0.83834 0.86651 0.0
C528 C 0.64353 0.88999 0.87003 0.0
C529 C 0.62732 0.92998 0.86412 0.0
C530 C 0.60831 0.77189 0.85067 0.0
O531 O 0.61483 0.67847 0.90027 0.0
O532 O 0.64128 0.61299 0.91 0.0
O533 O 0.67102 0.61038 0.86795 0.0
O534 O 0.65645 0.69096 0.87567 0.0
C535 C 0.62746 0.65226 0.9156 0.0
O536 O 0.63554 0.49555 0.90081 0.0
O537 O 0.66281 0.49969 0.87408 0.0
O538 O 0.62354 0.5555 0.8435 0.0
O539 O 0.6293 0.6387 0.83134 0.0
O540 O 0.5881 0.63289 0.85769 0.0
O541 O 0.59653 0.56652 0.88259 0.0
C542 C 0.67469 0.65973 0.87185 0.0
O543 O 0.62591 0.74494 0.84162 0.0
O544 O 0.5958 0.74495 0.86537 0.0
C545 C 0.64861 0.41561 0.88422 0.0
C546 C 0.64676 0.30768 0.87665 0.0
C547 C 0.6373 0.32917 0.89683 0.0
C548 C 0.63836 0.3825 0.90062 0.0
C549 C 0.65717 0.39425 0.86366 0.0
C550 C 0.65625 0.34103 0.85995 0.0
C551 C 0.65259 0.47097 0.88966 0.0
H552 H 0.59137 0.94649 0.85042 0.0
H553 H 0.58028 0.85617 0.84427 0.0
H554 H 0.65012 0.80846 0.87075 0.0
H555 H 0.66132 0.89864 0.87713 0.0
H556 H 0.63004 0.30458 0.91011 0.0
H557 H 0.63185 0.39766 0.91672 0.0
H558 H 0.66523 0.41841 0.85063 0.0
H559 H 0.66338 0.32585 0.84408 0.0
Tb560 Tb 0.3842 0.68124 0.62828 0.0
Eu561 Eu 0.35857 0.56568 0.61658 0.0
C562 C 0.37036 0.6002 0.66663 0.0
C563 C 0.41757 0.58387 0.62037 0.0
C564 C 0.39213 0.82585 0.63795 0.0
C565 C 0.38351 0.90615 0.65809 0.0
C566 C 0.38993 0.85394 0.65831 0.0
C567 C 0.38804 0.85176 0.61717 0.0
C568 C 0.38166 0.9044 0.61694 0.0
C569 C 0.3791 0.93229 0.63745 0.0
C570 C 0.39961 0.77058 0.63921 0.0
O571 O 0.38749 0.67133 0.59125 0.0
O572 O 0.35889 0.60808 0.58316 0.0
O573 O 0.32743 0.62336 0.62216 0.0
O574 O 0.34846 0.69859 0.61485 0.0
C575 C 0.374 0.64474 0.5767 0.0
O576 O 0.35555 0.49617 0.59547 0.0
O577 O 0.33417 0.50268 0.62638 0.0
O578 O 0.37332 0.56242 0.65221 0.0
O579 O 0.3678 0.6478 0.6592 0.0
O580 O 0.41478 0.6276 0.63151 0.0
O581 O 0.39911 0.55948 0.61082 0.0
C582 C 0.32797 0.67301 0.61718 0.0
O583 O 0.38673 0.74099 0.65248 0.0
O584 O 0.4057 0.74664 0.62054 0.0
C585 C 0.34636 0.41744 0.61492 0.0
C586 C 0.35253 0.31031 0.62415 0.0
C587 C 0.35082 0.32853 0.60159 0.0
C588 C 0.34768 0.3813 0.59707 0.0
C589 C 0.34885 0.39958 0.63745 0.0
C590 C 0.35188 0.34682 0.64198 0.0
C591 C 0.34101 0.47261 0.60967 0.0
H592 H 0.38223 0.92622 0.67424 0.0
H593 H 0.3933 0.83541 0.67457 0.0
H594 H 0.3897 0.83143 0.60112 0.0
H595 H 0.37831 0.92301 0.60072 0.0
H596 H 0.35102 0.30182 0.58741 0.0
H597 H 0.34573 0.39378 0.57954 0.0
H598 H 0.34808 0.42623 0.65165 0.0
H599 H 0.35354 0.33459 0.65957 0.0
Tb600 Tb 0.62674 0.37539 0.62919 0.0
Eu601 Eu 0.64599 0.49404 0.61833 0.0
C602 C 0.63024 0.45999 0.66845 0.0
C603 C 0.58914 0.46489 0.61939 0.0
C604 C 0.62143 0.23098 0.63704 0.0
C605 C 0.64921 0.1631 0.64927 0.0
C606 C 0.64282 0.21528 0.64838 0.0
C607 C 0.60719 0.19373 0.62588 0.0
C608 C 0.61368 0.14163 0.62661 0.0
C609 C 0.63447 0.12556 0.63874 0.0
C610 C 0.61251 0.28479 0.63819 0.0
O611 O 0.64071 0.37234 0.59419 0.0
O612 O 0.63712 0.45764 0.58441 0.0
O613 O 0.67864 0.44083 0.61394 0.0
O614 O 0.66563 0.37278 0.63583 0.0
C615 C 0.63926 0.40895 0.57866 0.0
O616 O 0.64247 0.56612 0.59948 0.0
O617 O 0.67212 0.55668 0.62355 0.0
O618 O 0.64617 0.48635 0.65653 0.0
O619 O 0.61749 0.42235 0.65913 0.0
O620 O 0.5955 0.41682 0.61571 0.0
O621 O 0.60528 0.5 0.6253 0.0
C622 C 0.68289 0.39716 0.6247 0.0
O623 O 0.62292 0.31543 0.65288 0.0
O624 O 0.60814 0.30807 0.61895 0.0
C625 C 0.65718 0.64238 0.61777 0.0
C626 C 0.6533 0.74797 0.62977 0.0
C627 C 0.63715 0.72584 0.61387 0.0
C628 C 0.63911 0.67378 0.6079 0.0
C629 C 0.67319 0.66435 0.6338 0.0
C630 C 0.67123 0.71639 0.63977 0.0
C631 C 0.66064 0.58838 0.60999 0.0
H632 H 0.66553 0.15202 0.65848 0.0
H633 H 0.6543 0.24307 0.65704 0.0
H634 H 0.59057 0.20478 0.61712 0.0
H635 H 0.60184 0.11371 0.61847 0.0
H636 H 0.62293 0.74873 0.60602 0.0
H637 H 0.62664 0.65837 0.59529 0.0
H638 H 0.68759 0.64158 0.64145 0.0
H639 H 0.68424 0.73218 0.6518 0.0
H640 H 0.19003 0.26562 0.13499 0.0
H641 H 0.21816 0.11795 0.1121 0.0
H642 H 0.25898 0.15656 0.10744 0.0
H643 H 0.22685 0.34487 0.09651 0.0
H644 H 0.23147 0.39508 0.1173 0.0
H645 H 0.20407 0.35663 0.11808 0.0
H646 H 0.21308 0.33191 0.16 0.0
H647 H 0.24046 0.3703 0.15939 0.0
H648 H 0.24207 0.30322 0.16715 0.0
H649 H 0.29712 0.20847 0.10791 0.0
H650 H 0.33042 0.27166 0.11239 0.0
H651 H 0.27815 0.38785 0.13323 0.0
C652 C 0.20473 0.24138 0.12889 0.0
C653 C 0.20079 0.18852 0.12397 0.0
C654 C 0.22059 0.15842 0.11596 0.0
C655 C 0.24389 0.18004 0.11323 0.0
C656 C 0.24713 0.23202 0.11834 0.0
C657 C 0.22812 0.26248 0.12587 0.0
C658 C 0.23677 0.31712 0.13059 0.0
C659 C 0.22403 0.3557 0.11467 0.0
C660 C 0.23286 0.33146 0.15578 0.0
C661 C 0.26375 0.31231 0.12494 0.0
C662 C 0.26922 0.26274 0.11791 0.0
C663 C 0.29302 0.24754 0.11306 0.0
C664 C 0.31179 0.28365 0.11567 0.0
C665 C 0.30674 0.33459 0.12284 0.0
C666 C 0.28236 0.34941 0.12725 0.0
H667 H 0.79113 0.84216 0.16 0.0
H668 H 0.80116 0.86853 0.08762 0.0
H669 H 0.7661 0.81118 0.07931 0.0
H670 H 0.77436 0.7113 0.15747 0.0
H671 H 0.75124 0.71498 0.17929 0.0
H672 H 0.77664 0.75906 0.17969 0.0
H673 H 0.74697 0.83678 0.17963 0.0
H674 H 0.72147 0.79293 0.17973 0.0
H675 H 0.72389 0.84127 0.15779 0.0
H676 H 0.73242 0.74367 0.07901 0.0
H677 H 0.69775 0.6849 0.08677 0.0
H678 H 0.7073 0.70904 0.15937 0.0
C679 C 0.7856 0.83657 0.14243 0.0
C680 C 0.79871 0.85992 0.12443 0.0
C681 C 0.7911 0.85162 0.10166 0.0
C682 C 0.77139 0.81867 0.09678 0.0
C683 C 0.75919 0.79517 0.11491 0.0
C684 C 0.76558 0.80492 0.13731 0.0
C685 C 0.74904 0.77618 0.15369 0.0
C686 C 0.7637 0.73813 0.1684 0.0
C687 C 0.73447 0.81405 0.16858 0.0
C688 C 0.73258 0.74808 0.13704 0.0
C689 C 0.73901 0.75878 0.11474 0.0
C690 C 0.72706 0.73555 0.0964 0.0
C691 C 0.70757 0.70179 0.10096 0.0
C692 C 0.69994 0.69238 0.12365 0.0
C693 C 0.71278 0.71559 0.14187 0.0
H694 H 0.28306 0.66693 0.35897 0.0
H695 H 0.33592 0.77987 0.38199 0.0
H696 H 0.3027 0.84112 0.39039 0.0
H697 H 0.24552 0.75628 0.33001 0.0
H698 H 0.217 0.72551 0.33709 0.0
H699 H 0.24455 0.68794 0.33537 0.0
H700 H 0.23765 0.65519 0.37661 0.0
H701 H 0.20998 0.69253 0.37837 0.0
H702 H 0.23366 0.70107 0.39939 0.0
H703 H 0.26406 0.89196 0.39467 0.0
H704 H 0.2226 0.9298 0.39288 0.0
H705 H 0.19493 0.78592 0.3653 0.0
C706 C 0.28745 0.70413 0.36625 0.0
C707 C 0.31193 0.71866 0.3701 0.0
C708 C 0.31719 0.76812 0.37905 0.0
C709 C 0.29847 0.80311 0.38393 0.0
C710 C 0.2745 0.7883 0.37957 0.0
C711 C 0.26888 0.74011 0.37087 0.0
C712 C 0.24174 0.73566 0.36611 0.0
C713 C 0.23693 0.72578 0.34063 0.0
C714 C 0.23007 0.69362 0.38101 0.0
C715 C 0.23319 0.78891 0.37321 0.0
C716 C 0.2523 0.81845 0.38122 0.0
C717 C 0.24889 0.86916 0.38849 0.0
C718 C 0.2253 0.89037 0.38742 0.0
C719 C 0.20554 0.86111 0.37884 0.0
C720 C 0.20966 0.8096 0.37181 0.0
H721 H 0.81033 0.25454 0.38574 0.0
H722 H 0.79177 0.11934 0.34569 0.0
H723 H 0.75142 0.15703 0.33724 0.0
H724 H 0.75 0.27163 0.41037 0.0
H725 H 0.75151 0.34096 0.40979 0.0
H726 H 0.77911 0.30374 0.41255 0.0
H727 H 0.79705 0.34971 0.37712 0.0
H728 H 0.76941 0.38671 0.37411 0.0
H729 H 0.78039 0.34841 0.35061 0.0
H730 H 0.71435 0.20972 0.33174 0.0
H731 H 0.67996 0.26952 0.3328 0.0
H732 H 0.72067 0.3708 0.37807 0.0
C733 C 0.79773 0.23281 0.37524 0.0
C734 C 0.80424 0.18398 0.36627 0.0
C735 C 0.78718 0.15659 0.3528 0.0
C736 C 0.76428 0.17786 0.3478 0.0
C737 C 0.7586 0.22628 0.3566 0.0
C738 C 0.77461 0.25317 0.37033 0.0
C739 C 0.76347 0.30384 0.37816 0.0
C740 C 0.76087 0.30509 0.40427 0.0
C741 C 0.77848 0.34988 0.36948 0.0
C742 C 0.7387 0.30127 0.36656 0.0
C743 C 0.73656 0.25632 0.35405 0.0
C744 C 0.71571 0.24483 0.34161 0.0
C745 C 0.69622 0.27942 0.34235 0.0
C746 C 0.69738 0.32512 0.35567 0.0
C747 C 0.71915 0.33644 0.3677 0.0
H748 H 0.68819 0.7598 0.88054 0.0
H749 H 0.71791 0.61014 0.8625 0.0
H750 H 0.75918 0.64843 0.86059 0.0
H751 H 0.72581 0.83404 0.84362 0.0
H752 H 0.72921 0.88707 0.8632 0.0
H753 H 0.70222 0.84751 0.86421 0.0
H754 H 0.71015 0.82877 0.90691 0.0
H755 H 0.73724 0.86816 0.90605 0.0
H756 H 0.73913 0.8023 0.91559 0.0
H757 H 0.7965 0.70289 0.85895 0.0
H758 H 0.82826 0.76936 0.85807 0.0
H759 H 0.77501 0.88527 0.87758 0.0
C760 C 0.70335 0.73485 0.87629 0.0
C761 C 0.69973 0.68175 0.87163 0.0
C762 C 0.72015 0.65073 0.86617 0.0
C763 C 0.74367 0.67219 0.86505 0.0
C764 C 0.74647 0.72467 0.86951 0.0
C765 C 0.72692 0.75562 0.87511 0.0
C766 C 0.73489 0.81117 0.87861 0.0
C767 C 0.72228 0.84706 0.86138 0.0
C768 C 0.73007 0.82861 0.90326 0.0
C769 C 0.76206 0.80678 0.87386 0.0
C770 C 0.76821 0.75639 0.86867 0.0
C771 C 0.79191 0.74238 0.86302 0.0
C772 C 0.80981 0.78071 0.86246 0.0
C773 C 0.80414 0.83282 0.86758 0.0
C774 C 0.77992 0.84588 0.87366 0.0
H775 H 0.30437 0.29922 0.85834 0.0
H776 H 0.27861 0.43994 0.89026 0.0
H777 H 0.23851 0.39882 0.89709 0.0
H778 H 0.24716 0.26904 0.82969 0.0
H779 H 0.2504 0.20047 0.83338 0.0
H780 H 0.27715 0.24061 0.83125 0.0
H781 H 0.29268 0.2047 0.86977 0.0
H782 H 0.26583 0.16489 0.87219 0.0
H783 H 0.27351 0.20936 0.89469 0.0
H784 H 0.2027 0.3421 0.90238 0.0
H785 H 0.17005 0.27827 0.90114 0.0
H786 H 0.21699 0.17352 0.86334 0.0
C787 C 0.29023 0.32145 0.8667 0.0
C788 C 0.29462 0.37284 0.87391 0.0
C789 C 0.27562 0.40078 0.88453 0.0
C790 C 0.25288 0.37756 0.88862 0.0
C791 C 0.24934 0.32664 0.88168 0.0
C792 C 0.26726 0.29914 0.87055 0.0
C793 C 0.25822 0.24559 0.86409 0.0
C794 C 0.25823 0.23853 0.83805 0.0
C795 C 0.27347 0.20366 0.87589 0.0
C796 C 0.23236 0.24716 0.87349 0.0
C797 C 0.22796 0.29422 0.88381 0.0
C798 C 0.20581 0.30544 0.89409 0.0
C799 C 0.18732 0.26852 0.89322 0.0
C800 C 0.19064 0.22067 0.8818 0.0
C801 C 0.21378 0.20946 0.8722 0.0
H802 H 0.69461 0.29553 0.6319 0.0
H803 H 0.72677 0.44347 0.61493 0.0
H804 H 0.7676 0.40278 0.61359 0.0
H805 H 0.74277 0.24924 0.66761 0.0
H806 H 0.74078 0.18364 0.65772 0.0
H807 H 0.71411 0.22417 0.65727 0.0
H808 H 0.70869 0.20643 0.61421 0.0
H809 H 0.73539 0.16587 0.6144 0.0
H810 H 0.73359 0.2194 0.59491 0.0
H811 H 0.80498 0.34749 0.61641 0.0
H812 H 0.83652 0.28052 0.62082 0.0
H813 H 0.78038 0.16607 0.63329 0.0
C814 C 0.71025 0.31949 0.62796 0.0
C815 C 0.7075 0.37298 0.62371 0.0
C816 C 0.7284 0.40261 0.61828 0.0
C817 C 0.75166 0.37978 0.61749 0.0
C818 C 0.7537 0.32707 0.62182 0.0
C819 C 0.73355 0.29714 0.62672 0.0
C820 C 0.74077 0.24119 0.63042 0.0
C821 C 0.73422 0.22354 0.6547 0.0
C822 C 0.7289 0.20616 0.6124 0.0
C823 C 0.76826 0.24439 0.62713 0.0
C824 C 0.77525 0.29449 0.62233 0.0
C825 C 0.79968 0.30809 0.61984 0.0
C826 C 0.81746 0.26976 0.62241 0.0
C827 C 0.81086 0.21807 0.62711 0.0
C828 C 0.78588 0.20507 0.62925 0.0
H829 H 0.20271 0.81465 0.64895 0.0
H830 H 0.21685 0.91695 0.59187 0.0
H831 H 0.25312 0.86507 0.58177 0.0
H832 H 0.26529 0.79454 0.66485 0.0
H833 H 0.26089 0.72789 0.67239 0.0
H834 H 0.23592 0.77263 0.67481 0.0
H835 H 0.20957 0.71405 0.64885 0.0
H836 H 0.23459 0.66942 0.6461 0.0
H837 H 0.22072 0.69661 0.62097 0.0
H838 H 0.28802 0.80337 0.57818 0.0
H839 H 0.32114 0.7401 0.58279 0.0
H840 H 0.28467 0.67609 0.642 0.0
C841 C 0.21346 0.82646 0.63437 0.0
C842 C 0.20687 0.87028 0.62124 0.0
C843 C 0.2215 0.88394 0.60228 0.0
C844 C 0.24207 0.85443 0.59632 0.0
C845 C 0.24777 0.81119 0.60943 0.0
C846 C 0.23402 0.7974 0.62816 0.0
C847 C 0.2445 0.74983 0.63972 0.0
C848 C 0.25211 0.76197 0.6644 0.0
C849 C 0.22625 0.70482 0.63885 0.0
C850 C 0.26659 0.73936 0.62474 0.0
C851 C 0.2679 0.7751 0.60726 0.0
C852 C 0.28707 0.77509 0.5917 0.0
C853 C 0.30578 0.73884 0.59444 0.0
C854 C 0.30535 0.70276 0.61258 0.0
C855 C 0.28518 0.70231 0.62765 0.0
H856 H 0.10095 0.98608 0.30029 0.0
H857 H 0.17749 0.9468 0.30766 0.0
H858 H 0.18594 0.98183 0.26938 0.0
H859 H 0.09618 0.96083 0.2384 0.0
H860 H 0.07652 1.01525 0.23325 0.0
H861 H 0.07587 0.98316 0.26049 0.0
H862 H 0.08473 0.06993 0.2806 0.0
H863 H 0.08573 0.10219 0.25341 0.0
H864 H 0.11138 0.10651 0.27259 0.0
H865 H 0.18684 1.02302 0.23147 0.0
H866 H 0.18014 0.06705 0.19491 0.0
H867 H 0.10324 0.0848 0.21126 0.0
C868 C 0.11931 0.98379 0.29349 0.0
C869 C 0.13856 0.96288 0.30668 0.0
C870 C 0.16251 0.96208 0.29766 0.0
C871 C 0.16749 0.98203 0.27598 0.0
C872 C 0.14835 1.00341 0.26355 0.0
C873 C 0.12471 1.00447 0.27182 0.0
C874 C 0.10792 0.03218 0.25513 0.0
C875 C 0.08794 0.99567 0.24629 0.0
C876 C 0.09679 0.08057 0.26609 0.0
C877 C 0.12587 0.04634 0.2363 0.0
C878 C 0.14904 0.02906 0.24163 0.0
C879 C 0.16878 0.03672 0.22708 0.0
C880 C 0.16477 0.06192 0.20632 0.0
C881 C 0.1412 0.07972 0.20018 0.0
C882 C 0.12152 0.07226 0.21556 0.0
H883 H 0.86166 0.11842 0.2878 0.0
H884 H 0.90888 1.00565 0.32006 0.0
H885 H 0.91328 0.96017 0.28355 0.0
H886 H 0.82993 0.02858 0.25253 0.0
H887 H 0.82752 0.0702 0.22805 0.0
H888 H 0.82937 0.0975 0.25624 0.0
H889 H 0.8669 0.15155 0.24406 0.0
H890 H 0.86506 0.12461 0.21577 0.0
H891 H 0.89304 0.11971 0.23181 0.0
H892 H 0.91151 0.92398 0.24468 0.0
H893 H 0.90376 0.89871 0.20499 0.0
H894 H 0.85684 0.03223 0.19632 0.0
C895 C 0.87329 0.08475 0.287 0.0
C896 C 0.88505 0.06584 0.30686 0.0
C897 C 0.89967 1.02097 0.30518 0.0
C898 C 0.90234 0.9948 0.28446 0.0
C899 C 0.8902 1.01359 0.26536 0.0
C900 C 0.87598 0.05752 0.26628 0.0
C901 C 0.86405 0.06744 0.2432 0.0
C902 C 0.83605 0.06582 0.24513 0.0
C903 C 0.87279 0.11888 0.23311 0.0
C904 C 0.87365 1.02199 0.2294 0.0
C905 C 0.88882 0.99181 0.24262 0.0
C906 C 0.89975 0.94741 0.23409 0.0
C907 C 0.89516 0.93333 0.21143 0.0
C908 C 0.87965 0.96326 0.19732 0.0
C909 C 0.86876 1.00836 0.20656 0.0
H910 H 0.84543 0.07129 0.70662 0.0
H911 H 0.92308 0.09644 0.69725 0.0
H912 H 0.93124 0.05318 0.73412 0.0
H913 H 0.84533 0.09556 0.76774 0.0
H914 H 0.82224 0.0477 0.77334 0.0
H915 H 0.82288 0.08036 0.74627 0.0
H916 H 0.82483 0.99222 0.7256 0.0
H917 H 0.82453 0.95932 0.75263 0.0
H918 H 0.84889 0.94759 0.73262 0.0
H919 H 0.93081 1.00157 0.77143 0.0
H920 H 0.92146 0.95768 0.80798 0.0
H921 H 0.84404 0.97203 0.79389 0.0
C922 C 0.86415 0.06806 0.71241 0.0
C923 C 0.88363 0.08728 0.69902 0.0
C924 C 0.90785 0.08246 0.70728 0.0
C925 C 0.91267 0.05755 0.72814 0.0
C926 C 0.89305 0.03831 0.74075 0.0
C927 C 0.86924 0.04426 0.73337 0.0
C928 C 0.85133 1.02176 0.7504 0.0
C929 C 0.83445 0.06386 0.76001 0.0
C930 C 0.83653 0.97761 0.73967 0.0
C931 C 0.86873 1.00184 0.76847 0.0
C932 C 0.89276 1.01099 0.76249 0.0
C933 C 0.91203 0.99463 0.77632 0.0
C934 C 0.90658 0.96935 0.79697 0.0
C935 C 0.88206 0.96143 0.80379 0.0
C936 C 0.86299 0.97769 0.78919 0.0
H937 H 0.11917 1.01964 0.8093 0.0
H938 H 0.13236 0.18141 0.79504 0.0
H939 H 0.13542 0.16133 0.75397 0.0
H940 H 0.16055 0.96877 0.76822 0.0
H941 H 0.14143 0.91515 0.76029 0.0
H942 H 0.13927 0.94216 0.78851 0.0
H943 H 0.09294 0.95692 0.7828 0.0
H944 H 0.09491 0.92989 0.75455 0.0
H945 H 0.08245 0.99349 0.75858 0.0
H946 H 0.13915 0.12378 0.715 0.0
H947 H 0.14235 0.07203 0.68008 0.0
H948 H 0.12569 0.93353 0.71849 0.0
C949 C 0.12254 0.05101 0.79756 0.0
C950 C 0.12554 0.10232 0.80552 0.0
C951 C 0.12996 0.14196 0.78948 0.0
C952 C 0.13172 0.13088 0.76608 0.0
C953 C 0.12887 0.07998 0.75889 0.0
C954 C 0.12423 0.04066 0.77409 0.0
C955 C 0.12229 0.98912 0.76181 0.0
C956 C 0.14206 0.95159 0.77021 0.0
C957 C 0.09662 0.966 0.7646 0.0
C958 C 0.1269 1.00552 0.73729 0.0
C959 C 0.13065 0.05818 0.73615 0.0
C960 C 0.13612 0.08263 0.7157 0.0
C961 C 0.13802 0.05268 0.69593 0.0
C962 C 0.13437 0.99858 0.69647 0.0
C963 C 0.12838 0.97478 0.71747 0.0
H964 H 0.65643 0.44967 0.28808 0.0
H965 H 0.57878 0.44641 0.30252 0.0
H966 H 0.57069 0.49163 0.26611 0.0
H967 H 0.65909 0.5727 0.26212 0.0
H968 H 0.68079 0.55465 0.24043 0.0
H969 H 0.68049 0.52132 0.26736 0.0
H970 H 0.67502 0.43415 0.24647 0.0
H971 H 0.67558 0.46715 0.21946 0.0
H972 H 0.65013 0.4262 0.22665 0.0
H973 H 0.57159 0.54436 0.22954 0.0
H974 H 0.5807 0.58906 0.19324 0.0
H975 H 0.65738 0.55122 0.20088 0.0
C976 C 0.6377 0.45799 0.28345 0.0
C977 C 0.6182 0.44451 0.29815 0.0
C978 C 0.59396 0.45592 0.29144 0.0
C979 C 0.58922 0.48193 0.27086 0.0
C980 C 0.60888 0.49542 0.25692 0.0
C981 C 0.63261 0.48281 0.2627 0.0
C982 C 0.65042 0.50049 0.24446 0.0
C983 C 0.66878 0.53961 0.25418 0.0
C984 C 0.66356 0.45424 0.23362 0.0
C985 C 0.63309 0.52581 0.22766 0.0
C986 C 0.60924 0.5231 0.23532 0.0
C987 C 0.59016 0.54606 0.22327 0.0
C988 C 0.59553 0.5717 0.20275 0.0
C989 C 0.6197 0.57348 0.19419 0.0
C990 C 0.63868 0.5501 0.20689 0.0
H991 H 0.34803 0.58953 0.28789 0.0
H992 H 0.42614 0.59892 0.29941 0.0
H993 H 0.43347 0.55194 0.26336 0.0
H994 H 0.34635 0.46439 0.26272 0.0
H995 H 0.3236 0.48027 0.24165 0.0
H996 H 0.32433 0.51438 0.2684 0.0
H997 H 0.32761 0.60126 0.24691 0.0
H998 H 0.32664 0.56744 0.2201 0.0
H999 H 0.35164 0.61039 0.22628 0.0
H1000 H 0.43216 0.49859 0.22721 0.0
H1001 H 0.42268 0.45352 0.19113 0.0
H1002 H 0.34563 0.485 0.2011 0.0
C1003 C 0.36667 0.58197 0.28272 0.0
C1004 C 0.38654 0.59788 0.2965 0.0
C1005 C 0.41066 0.58751 0.28908 0.0
C1006 C 0.41499 0.56051 0.26869 0.0
C1007 C 0.39503 0.54489 0.25561 0.0
C1008 C 0.37135 0.55616 0.26208 0.0
C1009 C 0.3532 0.53666 0.24446 0.0
C1010 C 0.33585 0.49654 0.25494 0.0
C1011 C 0.33893 0.58162 0.23381 0.0
C1012 C 0.37033 0.51207 0.22724 0.0
C1013 C 0.39436 0.51663 0.23417 0.0
C1014 C 0.41342 0.49528 0.22153 0.0
C1015 C 0.40784 0.4694 0.20111 0.0
C1016 C 0.38344 0.46572 0.19324 0.0
C1017 C 0.36448 0.48739 0.20659 0.0
H1018 H 0.37384 0.42782 0.78159 0.0
H1019 H 0.34835 0.56516 0.8166 0.0
H1020 H 0.34681 0.61164 0.78035 0.0
H1021 H 0.41227 0.49321 0.74168 0.0
H1022 H 0.40529 0.45236 0.71769 0.0
H1023 H 0.40328 0.42722 0.74626 0.0
H1024 H 0.35841 0.40029 0.73909 0.0
H1025 H 0.36035 0.42505 0.71043 0.0
H1026 H 0.33675 0.44771 0.72936 0.0
H1027 H 0.35023 0.64648 0.74137 0.0
H1028 H 0.35602 0.66574 0.7006 0.0
H1029 H 0.37845 0.50745 0.68891 0.0
C1030 C 0.36755 0.46733 0.7815 0.0
C1031 C 0.36137 0.49268 0.80215 0.0
C1032 C 0.35347 0.54474 0.80121 0.0
C1033 C 0.35245 0.57171 0.78062 0.0
C1034 C 0.35925 0.54644 0.76075 0.0
C1035 C 0.36642 0.49534 0.76081 0.0
C1036 C 0.3732 0.47848 0.73672 0.0
C1037 C 0.40011 0.46184 0.73553 0.0
C1038 C 0.35616 0.43532 0.72841 0.0
C1039 C 0.36892 0.52819 0.72345 0.0
C1040 C 0.36091 0.56676 0.73778 0.0
C1041 C 0.35631 0.61648 0.72989 0.0
C1042 C 0.35974 0.62714 0.70665 0.0
C1043 C 0.36762 0.58829 0.69139 0.0
C1044 C 0.37229 0.53808 0.70004 0.0
H1045 H 0.64736 0.61863 0.78604 0.0
H1046 H 0.59369 0.51451 0.81503 0.0
H1047 H 0.58822 0.47322 0.77767 0.0
H1048 H 0.61817 0.63095 0.72912 0.0
H1049 H 0.64687 0.63091 0.71407 0.0
H1050 H 0.64522 0.65607 0.74268 0.0
H1051 H 0.67945 0.59336 0.75516 0.0
H1052 H 0.68106 0.56779 0.72665 0.0
H1053 H 0.67567 0.52523 0.7504 0.0
H1054 H 0.5899 0.43907 0.7382 0.0
H1055 H 0.59824 0.41508 0.69832 0.0
H1056 H 0.65144 0.53884 0.69365 0.0
C1057 C 0.63411 0.58792 0.78432 0.0
C1058 C 0.62084 0.57006 0.80351 0.0
C1059 C 0.60407 0.52892 0.80065 0.0
C1060 C 0.60078 0.50515 0.77945 0.0
C1061 C 0.61448 0.52253 0.76103 0.0
C1062 C 0.63077 0.56304 0.7631 0.0
C1063 C 0.64401 0.57191 0.74059 0.0
C1064 C 0.63822 0.62566 0.73105 0.0
C1065 C 0.67169 0.5641 0.74337 0.0
C1066 C 0.63279 0.52978 0.72583 0.0
C1067 C 0.6157 0.50206 0.73802 0.0
C1068 C 0.60315 0.46068 0.7284 0.0
C1069 C 0.60807 0.44723 0.70568 0.0
C1070 C 0.6255 0.47487 0.69266 0.0
C1071 C 0.63798 0.51681 0.70302 0.0
H1072 H 0.13814 0.08584 0.95467 0.0
H1073 H 0.10241 0.23255 0.94282 0.0
H1074 H 0.09874 0.24549 0.98448 0.0
H1075 H 0.10078 0.04863 0.00271 0.0
H1076 H 0.12553 1.01775 0.01766 0.0
H1077 H 0.12572 1.02053 0.98696 0.0
H1078 H 0.1682 0.06444 0.98787 0.0
H1079 H 0.16816 0.06177 0.01856 0.0
H1080 H 0.17233 0.12257 0.00425 0.0
H1081 H 0.10054 0.24388 0.02757 0.0
H1082 H 0.10525 0.22561 0.06867 0.0
H1083 H 0.13766 0.07757 0.05248 0.0
C1084 C 0.12961 0.12081 0.96082 0.0
C1085 C 0.12069 0.1584 0.94545 0.0
C1086 C 0.10935 0.20323 0.95424 0.0
C1087 C 0.10724 0.21095 0.97788 0.0
C1088 C 0.11625 0.17316 0.99255 0.0
C1089 C 0.127 0.12874 0.98435 0.0
C1090 C 0.13469 0.09357 0.00372 0.0
C1091 C 0.12085 0.04208 0.0027 0.0
C1092 C 0.1625 0.08511 0.00359 0.0
C1093 C 0.12681 0.12534 0.02413 0.0
C1094 C 0.11638 0.17129 0.01731 0.0
C1095 C 0.10848 0.20782 0.03308 0.0
C1096 C 0.1113 0.19714 0.05641 0.0
C1097 C 0.12165 0.15001 0.06383 0.0
C1098 C 0.12937 0.11363 0.04738 0.0
H1099 H 0.86946 0.96139 0.95096 0.0
H1100 H 0.85956 0.79901 0.93599 0.0
H1101 H 0.85881 0.78023 0.97739 0.0
H1102 H 0.9093 0.94484 0.99891 0.0
H1103 H 0.89663 0.99828 0.01456 0.0
H1104 H 0.89606 0.99852 0.98385 0.0
H1105 H 0.84913 1.01137 0.98453 0.0
H1106 H 0.84956 1.0112 0.01523 0.0
H1107 H 0.83029 0.96652 6e-05 0.0
H1108 H 0.85913 0.77984 0.02121 0.0
H1109 H 0.86086 0.79773 0.06265 0.0
H1110 H 0.87092 0.96031 0.04823 0.0
C1111 C 0.86707 0.92179 0.95628 0.0
C1112 C 0.8645 0.8817 0.94006 0.0
C1113 C 0.86153 0.83047 0.94797 0.0
C1114 C 0.86108 0.81943 0.9715 0.0
C1115 C 0.86368 0.85996 0.98699 0.0
C1116 C 0.86664 0.91011 0.97962 0.0
C1117 C 0.86925 0.94684 0.99958 0.0
C1118 C 0.8943 0.97369 0.99919 0.0
C1119 C 0.84831 0.9863 0.99986 0.0
C1120 C 0.86728 0.90966 0.01941 0.0
C1121 C 0.86404 0.85969 0.01187 0.0
C1122 C 0.86169 0.81887 0.02722 0.0
C1123 C 0.8627 0.82943 0.05078 0.0
C1124 C 0.86608 0.88042 0.05887 0.0
C1125 C 0.86837 0.92083 0.04279 0.0
H1126 H 0.12729 0.95797 0.45475 0.0
H1127 H 0.14176 0.7966 0.4411 0.0
H1128 H 0.14222 0.77949 0.48277 0.0
H1129 H 0.16572 0.97019 0.5031 0.0
H1130 H 0.14538 1.01362 0.51773 0.0
H1131 H 0.1457 1.01168 0.48705 0.0
H1132 H 0.09915 0.99325 0.48676 0.0
H1133 H 0.09869 0.99508 0.51745 0.0
H1134 H 0.08736 0.93918 0.5026 0.0
H1135 H 0.14209 0.78216 0.52735 0.0
H1136 H 0.14119 0.80434 0.56858 0.0
H1137 H 0.12627 0.96354 0.55091 0.0
C1138 C 0.13052 0.91883 0.46035 0.0
C1139 C 0.13453 0.87865 0.4445 0.0
C1140 C 0.13861 0.82811 0.45284 0.0
C1141 C 0.13891 0.81805 0.47651 0.0
C1142 C 0.13498 0.85887 0.49163 0.0
C1143 C 0.1308 0.90821 0.4837 0.0
C1144 C 0.12731 0.94592 0.50306 0.0
C1145 C 0.14721 0.9878 0.50271 0.0
C1146 C 0.1016 0.96974 0.50242 0.0
C1147 C 0.13031 0.91042 0.52328 0.0
C1148 C 0.13471 0.86028 0.51656 0.0
C1149 C 0.13853 0.82135 0.53267 0.0
C1150 C 0.13796 0.83426 0.55609 0.0
C1151 C 0.13362 0.88567 0.56317 0.0
C1152 C 0.12959 0.92376 0.54633 0.0
H1153 H 0.86044 0.08894 0.55047 0.0
H1154 H 0.88681 0.24339 0.56453 0.0
H1155 H 0.88809 0.26126 0.52312 0.0
H1156 H 0.89646 0.06574 0.50096 0.0
H1157 H 0.87285 0.03096 0.48606 0.0
H1158 H 0.87354 0.03091 0.51676 0.0
H1159 H 0.82916 0.06538 0.51775 0.0
H1160 H 0.82833 0.06554 0.48703 0.0
H1161 H 0.82171 0.12372 0.50262 0.0
H1162 H 0.88856 0.26042 0.47966 0.0
H1163 H 0.88643 0.24224 0.43829 0.0
H1164 H 0.85814 0.08964 0.45286 0.0
C1165 C 0.86643 0.12664 0.54491 0.0
C1166 C 0.8736 0.16471 0.56089 0.0
C1167 C 0.88117 0.21357 0.55274 0.0
C1168 C 0.88199 0.22408 0.5292 0.0
C1169 C 0.87495 0.18555 0.51395 0.0
C1170 C 0.86712 0.13794 0.52152 0.0
C1171 C 0.86054 0.1031 0.50167 0.0
C1172 C 0.87682 0.05483 0.50135 0.0
C1173 C 0.83332 0.08859 0.50231 0.0
C1174 C 0.86615 0.13825 0.4817 0.0
C1175 C 0.87453 0.18561 0.48911 0.0
C1176 C 0.8818 0.22362 0.47372 0.0
C1177 C 0.88056 0.21291 0.45022 0.0
C1178 C 0.8719 0.1647 0.44222 0.0
C1179 C 0.86447 0.12719 0.45831 0.0
H1180 H 0.63993 0.59408 0.04837 0.0
H1181 H 0.61929 0.75205 0.06268 0.0
H1182 H 0.61583 0.76871 0.0211 0.0
H1183 H 0.67667 0.62177 0.9988 0.0
H1184 H 0.66757 0.56363 0.9843 0.0
H1185 H 0.6684 0.56538 0.01499 0.0
H1186 H 0.62311 0.53646 0.01638 0.0
H1187 H 0.62208 0.53491 0.98571 0.0
H1188 H 0.60037 0.57337 0.00132 0.0
H1189 H 0.61266 0.76538 0.97686 0.0
H1190 H 0.61353 0.74449 0.9355 0.0
H1191 H 0.63788 0.58986 0.95168 0.0
C1192 C 0.63471 0.63232 0.04286 0.0
C1193 C 0.62972 0.67169 0.05886 0.0
C1194 C 0.62324 0.72127 0.05077 0.0
C1195 C 0.62113 0.73099 0.02717 0.0
C1196 C 0.62587 0.69091 0.01187 0.0
C1197 C 0.63282 0.64275 0.01952 0.0
C1198 C 0.6373 0.60611 0.9999 0.0
C1199 C 0.66407 0.58819 0.99948 0.0
C1200 C 0.61966 0.56001 0.00089 0.0
C1201 C 0.63161 0.64082 0.97989 0.0
C1202 C 0.62486 0.68954 0.98697 0.0
C1203 C 0.61813 0.72742 0.97122 0.0
C1204 C 0.61858 0.7152 0.94776 0.0
C1205 C 0.62597 0.66571 0.94026 0.0
C1206 C 0.63245 0.62831 0.95671 0.0
H1207 H 0.35604 0.46148 0.94976 0.0
H1208 H 0.38546 0.31157 0.9321 0.0
H1209 H 0.38885 0.29061 0.97334 0.0
H1210 H 0.39475 0.48393 0.99785 0.0
H1211 H 0.37138 0.51676 0.01388 0.0
H1212 H 0.37091 0.5185 0.98319 0.0
H1213 H 0.32683 0.48208 0.98331 0.0
H1214 H 0.32718 0.48009 0.014 0.0
H1215 H 0.32054 0.42252 0.99797 0.0
H1216 H 0.38797 0.28658 0.01748 0.0
H1217 H 0.38549 0.30156 0.05913 0.0
H1218 H 0.35792 0.45562 0.04663 0.0
C1219 C 0.36309 0.42398 0.95442 0.0
C1220 C 0.37028 0.38795 0.93757 0.0
C1221 C 0.37979 0.33978 0.94463 0.0
C1222 C 0.38171 0.32755 0.96803 0.0
C1223 C 0.37428 0.36409 0.98415 0.0
C1224 C 0.36536 0.4115 0.97752 0.0
C1225 C 0.35919 0.44492 0.9979 0.0
C1226 C 0.375 0.49391 0.99822 0.0
C1227 C 0.33181 0.45816 0.99831 0.0
C1228 C 0.3659 0.40901 0.01721 0.0
C1229 C 0.37442 0.36237 0.00906 0.0
C1230 C 0.38141 0.32308 0.02394 0.0
C1231 C 0.37986 0.33191 0.04762 0.0
C1232 C 0.37159 0.37986 0.05629 0.0
C1233 C 0.36446 0.41861 0.0407 0.0
H1234 H 0.63437 0.46323 0.444 0.0
H1235 H 0.64005 0.29812 0.43354 0.0
H1236 H 0.64235 0.28523 0.47518 0.0
H1237 H 0.67585 0.47093 0.49189 0.0
H1238 H 0.65822 0.51929 0.50656 0.0
H1239 H 0.65741 0.51564 0.47589 0.0
H1240 H 0.61027 0.50746 0.47707 0.0
H1241 H 0.61094 0.5111 0.50773 0.0
H1242 H 0.59647 0.45714 0.49388 0.0
H1243 H 0.64363 0.29015 0.51842 0.0
H1244 H 0.64337 0.31263 0.55938 0.0
H1245 H 0.63666 0.47436 0.54167 0.0
C1246 C 0.63619 0.42432 0.45041 0.0
C1247 C 0.63707 0.38172 0.43531 0.0
C1248 C 0.63934 0.3315 0.4446 0.0
C1249 C 0.64068 0.32373 0.4683 0.0
C1250 C 0.63971 0.3665 0.48265 0.0
C1251 C 0.6375 0.41583 0.47405 0.0
C1252 C 0.63652 0.45518 0.49318 0.0
C1253 C 0.6583 0.49245 0.49179 0.0
C1254 C 0.6121 0.48443 0.49295 0.0
C1255 C 0.63847 0.42032 0.51388 0.0
C1256 C 0.64035 0.36929 0.50745 0.0
C1257 C 0.6422 0.33003 0.52361 0.0
C1258 C 0.64205 0.34321 0.54689 0.0
C1259 C 0.64003 0.39528 0.55393 0.0
C1260 C 0.63829 0.43416 0.53703 0.0
H1261 H 0.36341 0.58156 0.5403 0.0
H1262 H 0.38898 0.73515 0.55714 0.0
H1263 H 0.39183 0.75581 0.51608 0.0
H1264 H 0.40316 0.56372 0.49196 0.0
H1265 H 0.38094 0.52821 0.4756 0.0
H1266 H 0.38013 0.5261 0.50629 0.0
H1267 H 0.33515 0.557 0.50575 0.0
H1268 H 0.33584 0.55926 0.47505 0.0
H1269 H 0.32743 0.61578 0.49108 0.0
H1270 H 0.39089 0.76045 0.47303 0.0
H1271 H 0.38907 0.74691 0.43138 0.0
H1272 H 0.36626 0.58873 0.44239 0.0
C1273 C 0.3695 0.61964 0.53535 0.0
C1274 C 0.37585 0.65687 0.55199 0.0
C1275 C 0.38406 0.70597 0.54476 0.0
C1276 C 0.38566 0.71812 0.52145 0.0
C1277 C 0.37927 0.68057 0.50551 0.0
C1278 C 0.37158 0.63215 0.51215 0.0
C1279 C 0.36661 0.59822 0.49157 0.0
C1280 C 0.38373 0.55129 0.49135 0.0
C1281 C 0.33966 0.5816 0.49083 0.0
C1282 C 0.37259 0.63517 0.47233 0.0
C1283 C 0.37963 0.68263 0.48075 0.0
C1284 C 0.38553 0.72334 0.46627 0.0
C1285 C 0.38437 0.7153 0.4426 0.0
C1286 C 0.37765 0.66669 0.43354 0.0
C1287 C 0.37168 0.62621 0.44872 0.0
H1288 H 0.93901 0.04209 0.12995 0.0
H1289 H 0.9543 0.87826 0.12402 0.0
H1290 H 0.99811 0.89585 0.12607 0.0
H1291 H 0.99066 0.08408 0.0954 0.0
H1292 H 0.9971 0.13999 0.11261 0.0
H1293 H 0.96636 0.11551 0.11079 0.0
H1294 H 0.96466 0.10808 0.15478 0.0
H1295 H 0.99542 0.13234 0.15675 0.0
H1296 H 0.98771 0.07132 0.1695 0.0
H1297 H 0.03972 0.92841 0.12962 0.0
H1298 H 0.07825 0.97568 0.13243 0.0
H1299 H 0.03829 0.12033 0.13513 0.0
C1300 C 0.9516 1.01003 0.12902 0.0
C1301 C 0.943 0.95873 0.12683 0.0
C1302 C 0.96018 0.91791 0.12564 0.0
C1303 C 0.98523 0.92741 0.12685 0.0
C1304 C 0.99308 0.978 0.12912 0.0
C1305 C 0.97697 1.01884 0.13003 0.0
C1306 C 0.99078 0.0695 0.13223 0.0
C1307 C 0.98593 0.10432 0.11152 0.0
C1308 C 0.98425 0.09692 0.15465 0.0
C1309 C 0.01705 0.05035 0.13248 0.0
C1310 C 0.01772 0.99734 0.13079 0.0
C1311 C 0.03951 0.96999 0.13088 0.0
C1312 C 0.06137 0.99742 0.13256 0.0
C1313 C 0.06148 0.05196 0.13402 0.0
C1314 C 0.03889 0.07874 0.13401 0.0
H1315 H 0.965 0.11538 0.358 0.0
H1316 H 0.93269 1.01645 0.40966 0.0
H1317 H 0.97228 0.97474 0.41566 0.0
H1318 H 0.00366 1.02042 0.33362 0.0
H1319 H 0.02918 0.06283 0.32867 0.0
H1320 H 0.99859 0.08824 0.32907 0.0
H1321 H 0.01102 0.15326 0.3605 0.0
H1322 H 0.04171 0.12814 0.36015 0.0
H1323 H 0.02474 0.12999 0.38648 0.0
H1324 H 0.01357 0.93899 0.41455 0.0
H1325 H 0.05592 0.91247 0.40731 0.0
H1326 H 0.06363 0.03464 0.35727 0.0
C1327 C 0.96636 0.08543 0.37077 0.0
C1328 C 0.94559 0.0693 0.38332 0.0
C1329 C 0.94816 0.02959 0.39974 0.0
C1330 C 0.97065 1.0056 0.40336 0.0
C1331 C 0.99058 1.02177 0.39055 0.0
C1332 C 0.98886 0.0609 0.37469 0.0
C1333 C 0.01324 0.06923 0.36282 0.0
C1334 C 0.01102 0.05959 0.33702 0.0
C1335 C 0.02327 0.12338 0.36779 0.0
C1336 C 0.02867 0.02801 0.37427 0.0
C1337 C 0.01506 1.00131 0.39021 0.0
C1338 C 0.02454 0.95986 0.4023 0.0
C1339 C 0.04859 0.94494 0.39796 0.0
C1340 C 0.06305 0.97152 0.38177 0.0
C1341 C 0.05305 1.01407 0.36994 0.0
H1342 H 0.0358 0.11908 0.85894 0.0
H1343 H 0.07016 1.01031 0.90527 0.0
H1344 H 0.0306 0.9685 0.91166 0.0
H1345 H 0.97812 0.13049 0.89011 0.0
H1346 H 0.95966 0.13318 0.86469 0.0
H1347 H 0.99057 0.1571 0.8642 0.0
H1348 H 1.00066 0.09643 0.83043 0.0
H1349 H 0.96978 0.07247 0.83076 0.0
H1350 H 0.99503 0.0283 0.83322 0.0
H1351 H 0.98864 0.93575 0.91226 0.0
H1352 H 0.94572 0.91171 0.90616 0.0
H1353 H 0.93685 0.0405 0.85968 0.0
C1354 C 0.03495 0.08671 0.87054 0.0
C1355 C 0.05622 0.06813 0.88158 0.0
C1356 C 0.05429 0.02535 0.8965 0.0
C1357 C 0.03182 1.00135 0.90036 0.0
C1358 C 0.01132 1.0204 0.88923 0.0
C1359 C 0.01253 0.06194 0.87458 0.0
C1360 C 0.98762 0.07299 0.8642 0.0
C1361 C 0.97845 0.12663 0.87123 0.0
C1362 C 0.98832 0.06719 0.83811 0.0
C1363 C 0.97242 0.03073 0.87517 0.0
C1364 C 0.98659 1.0012 0.88963 0.0
C1365 C 0.97727 0.95869 0.9011 0.0
C1366 C 0.95288 0.94529 0.89746 0.0
C1367 C 0.93795 0.97428 0.88249 0.0
C1368 C 0.94775 1.01814 0.87147 0.0
H1369 H 0.96622 0.13111 0.62918 0.0
H1370 H 0.92761 0.98472 0.62994 0.0
H1371 H 0.96666 0.93886 0.63098 0.0
H1372 H 0.01657 0.08842 0.59321 0.0
H1373 H 0.03945 0.12475 0.60837 0.0
H1374 H 0.00837 0.14747 0.60746 0.0
H1375 H 0.00728 0.15013 0.65158 0.0
H1376 H 0.03833 0.12725 0.65263 0.0
H1377 H 0.0146 0.09283 0.66752 0.0
H1378 H 0.00881 0.90774 0.63241 0.0
H1379 H 0.05283 0.89202 0.6334 0.0
H1380 H 0.06637 0.05705 0.63166 0.0
C1381 C 0.96601 0.08943 0.62945 0.0
C1382 C 0.94364 0.06174 0.62952 0.0
C1383 C 0.9443 1.00714 0.62997 0.0
C1384 C 0.96646 0.98052 0.63055 0.0
C1385 C 0.98804 1.00875 0.63066 0.0
C1386 C 0.98817 0.06189 0.63006 0.0
C1387 C 0.01429 0.08217 0.63043 0.0
C1388 C 0.02 0.1125 0.60856 0.0
C1389 C 0.01889 0.11505 0.65182 0.0
C1390 C 0.02864 0.03199 0.63133 0.0
C1391 C 0.01293 0.99037 0.63146 0.0
C1392 C 0.02135 0.93996 0.63227 0.0
C1393 C 0.04654 0.93153 0.63283 0.0
C1394 C 0.06332 0.97321 0.63256 0.0
C1395 C 0.05413 0.02429 0.6319 0.0
H1396 H 0.46404 0.4189 0.12984 0.0
H1397 H 0.42331 0.55529 0.11002 0.0
H1398 H 0.46161 0.60389 0.10666 0.0
H1399 H 0.5078 0.48544 0.1643 0.0
H1400 H 0.53337 0.4456 0.15634 0.0
H1401 H 0.5029 0.41943 0.15591 0.0
H1402 H 0.50842 0.39352 0.11357 0.0
H1403 H 0.53894 0.41955 0.11389 0.0
H1404 H 0.51719 0.44172 0.09302 0.0
H1405 H 0.50306 0.63902 0.10648 0.0
H1406 H 0.54641 0.66052 0.1102 0.0
H1407 H 0.56209 0.50314 0.13086 0.0
C1408 C 0.46328 0.45879 0.12453 0.0
C1409 C 0.44064 0.48326 0.12016 0.0
C1410 C 0.44037 0.53574 0.11357 0.0
C1411 C 0.46205 0.5637 0.11151 0.0
C1412 C 0.48397 0.53884 0.11617 0.0
C1413 C 0.48491 0.4877 0.12258 0.0
C1414 C 0.51108 0.47155 0.12754 0.0
C1415 C 0.51395 0.45451 0.15251 0.0
C1416 C 0.51939 0.42906 0.11101 0.0
C1417 C 0.52452 0.52177 0.12303 0.0
C1418 C 0.50838 0.55975 0.11636 0.0
C1419 C 0.51595 0.60966 0.11162 0.0
C1420 C 0.54071 0.62146 0.11387 0.0
C1421 C 0.55781 0.58362 0.12089 0.0
C1422 C 0.54955 0.53289 0.12537 0.0
H1423 H 0.44375 0.50946 0.35883 0.0
H1424 H 0.45968 0.65515 0.39219 0.0
H1425 H 0.50209 0.6282 0.39798 0.0
H1426 H 0.48436 0.43006 0.39513 0.0
H1427 H 0.49397 0.3897 0.37179 0.0
H1428 H 0.46398 0.41829 0.37155 0.0
H1429 H 0.47317 0.45953 0.33226 0.0
H1430 H 0.50319 0.43126 0.33242 0.0
H1431 H 0.49976 0.49986 0.32903 0.0
H1432 H 0.54317 0.59058 0.39751 0.0
H1433 H 0.58113 0.54128 0.39217 0.0
H1434 H 0.54004 0.41792 0.36011 0.0
C1435 C 0.45609 0.53521 0.36768 0.0
C1436 C 0.44831 0.58455 0.37494 0.0
C1437 C 0.46513 0.61737 0.38625 0.0
C1438 C 0.48932 0.60238 0.38974 0.0
C1439 C 0.49656 0.55422 0.38198 0.0
C1440 C 0.48054 0.5208 0.37134 0.0
C1441 C 0.49368 0.47207 0.36389 0.0
C1442 C 0.48338 0.42473 0.37634 0.0
C1443 C 0.49237 0.46531 0.33786 0.0
C1444 C 0.51956 0.48406 0.37166 0.0
C1445 C 0.52065 0.53171 0.38209 0.0
C1446 C 0.54256 0.55291 0.38963 0.0
C1447 C 0.56405 0.52477 0.38639 0.0
C1448 C 0.56351 0.47581 0.37581 0.0
C1449 C 0.5409 0.45495 0.36857 0.0
H1450 H 0.4463 0.4918 0.89948 0.0
H1451 H 0.43475 0.4803 0.82648 0.0
H1452 H 0.47659 0.5121 0.81963 0.0
H1453 H 0.4843 0.60587 0.89923 0.0
H1454 H 0.50461 0.58312 0.92122 0.0
H1455 H 0.47333 0.56162 0.92059 0.0
H1456 H 0.48792 0.46677 0.91981 0.0
H1457 H 0.51926 0.48798 0.92038 0.0
H1458 H 0.50881 0.44611 0.89787 0.0
H1459 H 0.51842 0.54815 0.82041 0.0
H1460 H 0.55989 0.58016 0.82872 0.0
H1461 H 0.54692 0.56081 0.90118 0.0
C1462 C 0.45264 0.49641 0.88211 0.0
C1463 C 0.43737 0.48406 0.86346 0.0
C1464 C 0.44627 0.48957 0.84094 0.0
C1465 C 0.46994 0.50769 0.8369 0.0
C1466 C 0.48466 0.51919 0.85557 0.0
C1467 C 0.47658 0.51324 0.87775 0.0
C1468 C 0.49671 0.52626 0.89463 0.0
C1469 C 0.48929 0.57194 0.90981 0.0
C1470 C 0.50358 0.47896 0.90902 0.0
C1471 C 0.51721 0.54094 0.87843 0.0
C1472 C 0.50963 0.5371 0.856 0.0
C1473 C 0.52469 0.55078 0.83788 0.0
C1474 C 0.54816 0.56896 0.84275 0.0
C1475 C 0.55655 0.57234 0.86552 0.0
C1476 C 0.54098 0.55775 0.88361 0.0
H1477 H 0.46246 0.61923 0.63675 0.0
H1478 H 0.42881 0.49459 0.59838 0.0
H1479 H 0.46882 0.45421 0.5934 0.0
H1480 H 0.51826 0.62574 0.60307 0.0
H1481 H 0.53791 0.63776 0.62716 0.0
H1482 H 0.50653 0.65863 0.62783 0.0
H1483 H 0.49964 0.60766 0.66522 0.0
H1484 H 0.53101 0.58678 0.6647 0.0
H1485 H 0.50676 0.53991 0.66606 0.0
H1486 H 0.51137 0.42568 0.59255 0.0
H1487 H 0.5552 0.40898 0.59655 0.0
H1488 H 0.56353 0.5506 0.63532 0.0
C1489 C 0.46353 0.58349 0.6273 0.0
C1490 C 0.44226 0.56035 0.61796 0.0
C1491 C 0.4446 0.51344 0.60574 0.0
C1492 C 0.46734 0.49003 0.60274 0.0
C1493 C 0.48782 0.51372 0.61202 0.0
C1494 C 0.48631 0.55927 0.6241 0.0
C1495 C 0.51149 0.57561 0.63247 0.0
C1496 C 0.51899 0.62753 0.622 0.0
C1497 C 0.51226 0.57759 0.65867 0.0
C1498 C 0.52719 0.53189 0.62327 0.0
C1499 C 0.51296 0.49689 0.61151 0.0
C1500 C 0.52276 0.45278 0.6017 0.0
C1501 C 0.54776 0.44363 0.60414 0.0
C1502 C 0.56295 0.47836 0.61629 0.0
C1503 C 0.55249 0.52349 0.6258 0.0
H1504 H 0.13713 0.73931 0.15128 0.0
H1505 H 0.1353 0.75357 0.07754 0.0
H1506 H 0.12954 0.65974 0.07413 0.0
H1507 H 0.16974 0.61936 0.15322 0.0
H1508 H 0.15281 0.59397 0.17706 0.0
H1509 H 0.15656 0.66253 0.17392 0.0
H1510 H 0.10965 0.67455 0.17516 0.0
H1511 H 0.10575 0.60604 0.17839 0.0
H1512 H 0.0907 0.6394 0.1554 0.0
H1513 H 0.12448 0.56377 0.07849 0.0
H1514 H 0.11943 0.4733 0.0903 0.0
H1515 H 0.12418 0.51974 0.1613 0.0
C1516 C 0.13524 0.72286 0.13441 0.0
C1517 C 0.13685 0.75436 0.11466 0.0
C1518 C 0.13458 0.73067 0.09294 0.0
C1519 C 0.13115 0.67723 0.09082 0.0
C1520 C 0.12993 0.64742 0.11055 0.0
C1521 C 0.13181 0.66933 0.13195 0.0
C1522 C 0.13003 0.62827 0.15039 0.0
C1523 C 0.1537 0.62591 0.16448 0.0
C1524 C 0.1077 0.63763 0.16574 0.0
C1525 C 0.12681 0.57995 0.13601 0.0
C1526 C 0.12689 0.59197 0.11307 0.0
C1527 C 0.12444 0.55396 0.09642 0.0
C1528 C 0.12176 0.50244 0.10333 0.0
C1529 C 0.12151 0.48879 0.12676 0.0
C1530 C 0.12407 0.52853 0.14326 0.0
H1531 H 0.84596 0.31088 0.11054 0.0
H1532 H 0.87723 0.26067 0.17488 0.0
H1533 H 0.88299 0.35136 0.18619 0.0
H1534 H 0.88734 0.41589 0.10169 0.0
H1535 H 0.86462 0.45733 0.08913 0.0
H1536 H 0.86178 0.38848 0.08655 0.0
H1537 H 0.81859 0.39276 0.10451 0.0
H1538 H 0.82131 0.46164 0.10718 0.0
H1539 H 0.81461 0.42303 0.13194 0.0
H1540 H 0.88634 0.44751 0.19016 0.0
H1541 H 0.88784 0.542 0.1862 0.0
H1542 H 0.85529 0.52981 0.1189 0.0
C1543 C 0.85417 0.31876 0.12697 0.0
C1544 C 0.86104 0.27829 0.14183 0.0
C1545 C 0.8714 0.29073 0.16331 0.0
C1546 C 0.87489 0.3422 0.16985 0.0
C1547 C 0.86802 0.38097 0.15473 0.0
C1548 C 0.85793 0.36989 0.13371 0.0
C1549 C 0.85267 0.4187 0.1204 0.0
C1550 C 0.86749 0.42017 0.09813 0.0
C1551 C 0.82516 0.42435 0.11574 0.0
C1552 C 0.86155 0.45899 0.13716 0.0
C1553 C 0.87018 0.43639 0.15691 0.0
C1554 C 0.8795 0.46563 0.17482 0.0
C1555 C 0.88012 0.51936 0.17246 0.0
C1556 C 0.87154 0.54349 0.1523 0.0
C1557 C 0.8621 0.51262 0.13447 0.0
H1558 H 0.126 0.30845 0.39546 0.0
H1559 H 0.17029 0.27313 0.33608 0.0
H1560 H 0.17037 0.36504 0.3255 0.0
H1561 H 0.08921 0.40709 0.36888 0.0
H1562 H 0.08806 0.44711 0.39398 0.0
H1563 H 0.09122 0.37837 0.3968 0.0
H1564 H 0.13042 0.39143 0.42085 0.0
H1565 H 0.12743 0.46022 0.41802 0.0
H1566 H 0.15527 0.42882 0.40933 0.0
H1567 H 0.16638 0.46116 0.32162 0.0
H1568 H 0.15747 0.55406 0.32399 0.0
H1569 H 0.11559 0.5281 0.38579 0.0
C1570 C 0.13581 0.32 0.38028 0.0
C1571 C 0.14808 0.28312 0.36658 0.0
C1572 C 0.16043 0.30016 0.3467 0.0
C1573 C 0.16074 0.35248 0.34062 0.0
C1574 C 0.1486 0.38767 0.35455 0.0
C1575 C 0.13628 0.37219 0.37391 0.0
C1576 C 0.12456 0.41795 0.38581 0.0
C1577 C 0.09661 0.41228 0.38639 0.0
C1578 C 0.13505 0.42501 0.40993 0.0
C1579 C 0.13232 0.46159 0.37016 0.0
C1580 C 0.1462 0.44318 0.35225 0.0
C1581 C 0.15542 0.47593 0.33551 0.0
C1582 C 0.15014 0.52873 0.33696 0.0
C1583 C 0.13567 0.54872 0.35498 0.0
C1584 C 0.12687 0.51439 0.37189 0.0
H1585 H 0.86272 0.50825 0.38164 0.0
H1586 H 0.92448 0.50577 0.33526 0.0
H1587 H 0.9255 0.60058 0.33534 0.0
H1588 H 0.83302 0.61814 0.3569 0.0
H1589 H 0.82282 0.64457 0.38368 0.0
H1590 H 0.82725 0.57616 0.38078 0.0
H1591 H 0.85685 0.57706 0.41521 0.0
H1592 H 0.85248 0.64551 0.41823 0.0
H1593 H 0.88283 0.61973 0.41492 0.0
H1594 H 0.91993 0.69554 0.33992 0.0
H1595 H 0.90782 0.78474 0.34834 0.0
H1596 H 0.84874 0.72818 0.39101 0.0
C1597 C 0.87659 0.52771 0.37169 0.0
C1598 C 0.89344 0.49922 0.35831 0.0
C1599 C 0.91115 0.52642 0.34538 0.0
C1600 C 0.91198 0.58041 0.34541 0.0
C1601 C 0.89498 0.60725 0.35848 0.0
C1602 C 0.8776 0.582 0.37141 0.0
C1603 C 0.86116 0.62062 0.38348 0.0
C1604 C 0.83448 0.6145 0.37574 0.0
C1605 C 0.86347 0.61541 0.40951 0.0
C1606 C 0.87196 0.6713 0.37519 0.0
C1607 C 0.89154 0.6625 0.36088 0.0
C1608 C 0.90454 0.7029 0.35102 0.0
C1609 C 0.89733 0.75366 0.35578 0.0
C1610 C 0.8771 0.76418 0.37019 0.0
C1611 C 0.86439 0.72198 0.38008 0.0
H1612 H 0.88013 0.29901 0.86354 0.0
H1613 H 0.80982 0.29572 0.89772 0.0
H1614 H 0.80894 0.39053 0.89796 0.0
H1615 H 0.90411 0.40921 0.89358 0.0
H1616 H 0.91964 0.43558 0.86912 0.0
H1617 H 0.91479 0.36714 0.87124 0.0
H1618 H 0.89295 0.36758 0.83208 0.0
H1619 H 0.89772 0.43606 0.82986 0.0
H1620 H 0.86731 0.40994 0.82762 0.0
H1621 H 0.8152 0.48592 0.89436 0.0
H1622 H 0.82856 0.57519 0.88783 0.0
H1623 H 0.89551 0.51871 0.85691 0.0
C1624 C 0.86448 0.31823 0.87095 0.0
C1625 C 0.84512 0.28945 0.88079 0.0
C1626 C 0.8251 0.31648 0.89043 0.0
C1627 C 0.82433 0.37051 0.89052 0.0
C1628 C 0.84372 0.3976 0.88089 0.0
C1629 C 0.86346 0.37251 0.8713 0.0
C1630 C 0.88203 0.41123 0.86239 0.0
C1631 C 0.9066 0.40543 0.87483 0.0
C1632 C 0.88518 0.40587 0.83645 0.0
C1633 C 0.86963 0.46183 0.86852 0.0
C1634 C 0.8475 0.45292 0.87909 0.0
C1635 C 0.83259 0.49333 0.88623 0.0
C1636 C 0.84049 0.54415 0.8826 0.0
C1637 C 0.86328 0.55475 0.87203 0.0
C1638 C 0.87792 0.51252 0.86486 0.0
H1639 H 0.10946 0.52257 0.89187 0.0
H1640 H 0.13768 0.49285 0.82395 0.0
H1641 H 0.14784 0.58469 0.81975 0.0
H1642 H 0.08266 0.64581 0.87938 0.0
H1643 H 0.09077 0.67471 0.90629 0.0
H1644 H 0.08597 0.6062 0.90443 0.0
H1645 H 0.12908 0.59017 0.92108 0.0
H1646 H 0.13398 0.65866 0.92305 0.0
H1647 H 0.15526 0.61903 0.9075 0.0
H1648 H 0.15438 0.68031 0.82223 0.0
H1649 H 0.15783 0.77244 0.83163 0.0
H1650 H 0.12577 0.74299 0.89809 0.0
C1651 C 0.11801 0.53524 0.87621 0.0
C1652 C 0.12248 0.49987 0.85814 0.0
C1653 C 0.13355 0.51873 0.8379 0.0
C1654 C 0.13956 0.57104 0.83538 0.0
C1655 C 0.13458 0.6048 0.85327 0.0
C1656 C 0.12417 0.58775 0.87336 0.0
C1657 C 0.1206 0.63265 0.8898 0.0
C1658 C 0.09338 0.64028 0.89529 0.0
C1659 C 0.13563 0.62464 0.91165 0.0
C1660 C 0.13057 0.67741 0.87578 0.0
C1661 C 0.13849 0.66028 0.85474 0.0
C1662 C 0.14818 0.69412 0.83865 0.0
C1663 C 0.14988 0.74673 0.84412 0.0
C1664 C 0.14194 0.7658 0.86556 0.0
C1665 C 0.13221 0.73012 0.8816 0.0
H1666 H 0.86284 0.73705 0.60682 0.0
H1667 H 0.85707 0.774 0.67886 0.0
H1668 H 0.86305 0.68251 0.68839 0.0
H1669 H 0.83173 0.61469 0.60949 0.0
H1670 H 0.85133 0.58367 0.58898 0.0
H1671 H 0.8464 0.65219 0.58755 0.0
H1672 H 0.89306 0.66767 0.58954 0.0
H1673 H 0.89814 0.5992 0.59094 0.0
H1674 H 0.91034 0.64065 0.61282 0.0
H1675 H 0.86933 0.58667 0.69041 0.0
H1676 H 0.87649 0.49382 0.68483 0.0
H1677 H 0.87938 0.51718 0.6116 0.0
C1678 C 0.86303 0.72611 0.62463 0.0
C1679 C 0.85923 0.76338 0.64205 0.0
C1680 C 0.8594 0.74665 0.66509 0.0
C1681 C 0.86297 0.69458 0.67073 0.0
C1682 C 0.86647 0.65906 0.65319 0.0
C1683 C 0.86663 0.67404 0.6306 0.0
C1684 C 0.87083 0.62779 0.61509 0.0
C1685 C 0.84876 0.61908 0.59934 0.0
C1686 C 0.89451 0.63423 0.60128 0.0
C1687 C 0.87316 0.58461 0.63252 0.0
C1688 C 0.87042 0.60363 0.65438 0.0
C1689 C 0.87146 0.5714 0.67335 0.0
C1690 C 0.87539 0.51848 0.66998 0.0
C1691 C 0.87838 0.49767 0.64777 0.0
C1692 C 0.87733 0.53163 0.62881 0.0
H1693 H 0.12674 0.32746 0.61454 0.0
H1694 H 0.19053 0.29529 0.65612 0.0
H1695 H 0.19411 0.38766 0.66529 0.0
H1696 H 0.14854 0.44772 0.59119 0.0
H1697 H 0.11902 0.47836 0.59181 0.0
H1698 H 0.12118 0.4095 0.58861 0.0
H1699 H 0.09334 0.39691 0.62388 0.0
H1700 H 0.09102 0.46571 0.62713 0.0
H1701 H 0.10159 0.42674 0.65056 0.0
H1702 H 0.19125 0.484 0.66962 0.0
H1703 H 0.1814 0.57667 0.66973 0.0
H1704 H 0.1193 0.54722 0.62555 0.0
C1705 C 0.14155 0.3398 0.62548 0.0
C1706 C 0.15828 0.30364 0.63467 0.0
C1707 C 0.17721 0.32174 0.64914 0.0
C1708 C 0.17952 0.37434 0.65432 0.0
C1709 C 0.1628 0.40878 0.64495 0.0
C1710 C 0.14411 0.39229 0.63089 0.0
C1711 C 0.12846 0.43739 0.62322 0.0
C1712 C 0.12936 0.4436 0.59716 0.0
C1713 C 0.10204 0.43131 0.63171 0.0
C1714 C 0.14128 0.48178 0.63514 0.0
C1715 C 0.16107 0.46437 0.64754 0.0
C1716 C 0.17572 0.49799 0.66005 0.0
C1717 C 0.16987 0.55065 0.6601 0.0
C1718 C 0.14947 0.5696 0.64777 0.0
C1719 C 0.13516 0.53436 0.63499 0.0
H1720 H 0.64157 0.02575 0.15512 0.0
H1721 H 0.59606 0.99106 0.09646 0.0
H1722 H 0.59491 0.08325 0.08659 0.0
H1723 H 0.61219 0.14625 0.17022 0.0
H1724 H 0.64022 0.17789 0.17823 0.0
H1725 H 0.63744 0.10904 0.18106 0.0
H1726 H 0.67594 0.09653 0.15601 0.0
H1727 H 0.6789 0.16532 0.1532 0.0
H1728 H 0.67709 0.12545 0.12809 0.0
H1729 H 0.59837 0.17856 0.08289 0.0
H1730 H 0.60776 0.27125 0.08458 0.0
H1731 H 0.65146 0.24624 0.14533 0.0
C1732 C 0.63127 0.03762 0.14027 0.0
C1733 C 0.619 1.00089 0.12649 0.0
C1734 C 0.60593 1.01813 0.10708 0.0
C1735 C 0.60499 0.07054 0.10142 0.0
C1736 C 0.61724 0.10561 0.1153 0.0
C1737 C 0.63024 0.09001 0.13426 0.0
C1738 C 0.64223 0.13584 0.14592 0.0
C1739 C 0.63243 0.14264 0.17031 0.0
C1740 C 0.6702 0.13045 0.14579 0.0
C1741 C 0.63392 0.17952 0.13052 0.0
C1742 C 0.61944 0.16102 0.11304 0.0
C1743 C 0.60976 0.19347 0.09646 0.0
C1744 C 0.6153 0.24611 0.09751 0.0
C1745 C 0.63051 0.26617 0.11496 0.0
C1746 C 0.63964 0.23228 0.13188 0.0
H1747 H 0.3789 0.79785 0.10859 0.0
H1748 H 0.32977 0.77328 0.16569 0.0
H1749 H 0.3313 0.86599 0.17456 0.0
H1750 H 0.41622 0.89537 0.13567 0.0
H1751 H 0.42011 0.93285 0.11006 0.0
H1752 H 0.41542 0.86431 0.10818 0.0
H1753 H 0.37836 0.87915 0.08157 0.0
H1754 H 0.38289 0.94775 0.08343 0.0
H1755 H 0.35375 0.92018 0.09089 0.0
H1756 H 0.33747 0.9619 0.17709 0.0
H1757 H 0.34871 0.05344 0.17379 0.0
H1758 H 0.3941 1.0178 0.11517 0.0
C1759 C 0.36836 0.8119 0.12291 0.0
C1760 C 0.35429 0.77757 0.13649 0.0
C1761 C 0.34104 0.79806 0.15521 0.0
C1762 C 0.34163 0.85096 0.1603 0.0
C1763 C 0.35558 0.88351 0.14659 0.0
C1764 C 0.36879 0.86483 0.12831 0.0
C1765 C 0.38245 0.90833 0.11643 0.0
C1766 C 0.4102 0.89969 0.11767 0.0
C1767 C 0.37384 0.91419 0.09161 0.0
C1768 C 0.37476 0.95435 0.13082 0.0
C1769 C 0.35924 0.939 0.14811 0.0
C1770 C 0.34972 0.97423 0.16369 0.0
C1771 C 0.35637 0.02632 0.16173 0.0
C1772 C 0.37251 0.04336 0.14435 0.0
C1773 C 0.3816 1.00651 0.12857 0.0
H1774 H 0.64207 1.01321 0.348 0.0
H1775 H 0.58883 0.03011 0.40235 0.0
H1776 H 0.59076 0.93678 0.40966 0.0
H1777 H 0.61968 0.89118 0.32676 0.0
H1778 H 0.64962 0.86584 0.32063 0.0
H1779 H 0.64437 0.93429 0.31969 0.0
H1780 H 0.67935 0.94848 0.34873 0.0
H1781 H 0.68468 0.88006 0.34978 0.0
H1782 H 0.67859 0.91514 0.37568 0.0
H1783 H 0.59787 0.84079 0.41094 0.0
H1784 H 0.61031 0.75007 0.4066 0.0
H1785 H 0.65874 0.79346 0.35121 0.0
C1786 C 0.63074 0.99733 0.36139 0.0
C1787 C 0.6154 0.02971 0.37469 0.0
C1788 C 0.60108 1.00685 0.39215 0.0
C1789 C 0.60191 0.95358 0.39635 0.0
C1790 C 0.6172 0.92297 0.38303 0.0
C1791 C 0.63143 0.94396 0.36592 0.0
C1792 C 0.64639 0.90221 0.35419 0.0
C1793 C 0.6396 0.89815 0.32881 0.0
C1794 C 0.67388 0.91207 0.35729 0.0
C1795 C 0.63826 0.85457 0.3673 0.0
C1796 C 0.62137 0.86752 0.38382 0.0
C1797 C 0.61106 0.83027 0.39801 0.0
C1798 C 0.61815 0.77856 0.39529 0.0
C1799 C 0.63549 0.76392 0.37851 0.0
C1800 C 0.64564 0.80296 0.36438 0.0
H1801 H 0.40713 0.04429 0.35066 0.0
H1802 H 0.34477 0.9896 0.38956 0.0
H1803 H 0.33304 0.0793 0.39769 0.0
H1804 H 0.42147 0.15368 0.38583 0.0
H1805 H 0.42928 0.19489 0.3622 0.0
H1806 H 0.43331 0.12625 0.35984 0.0
H1807 H 0.40623 0.12513 0.32362 0.0
H1808 H 0.40218 0.19378 0.32583 0.0
H1809 H 0.37591 0.152 0.32482 0.0
H1810 H 0.32764 0.17517 0.40138 0.0
H1811 H 0.32827 0.26993 0.39937 0.0
H1812 H 0.39364 0.26335 0.35754 0.0
C1813 C 0.39088 0.05097 0.36074 0.0
C1814 C 0.37704 1.00927 0.36959 0.0
C1815 C 0.35606 1.02037 0.38293 0.0
C1816 C 0.34911 0.07138 0.38754 0.0
C1817 C 0.36319 0.11131 0.37863 0.0
C1818 C 0.38357 0.10176 0.36542 0.0
C1819 C 0.39525 0.15179 0.35757 0.0
C1820 C 0.42138 0.15694 0.36693 0.0
C1821 C 0.39486 0.1559 0.33141 0.0
C1822 C 0.37825 0.19093 0.36843 0.0
C1823 C 0.35993 0.16668 0.38056 0.0
C1824 C 0.34197 0.19455 0.392 0.0
C1825 C 0.34261 0.24855 0.3909 0.0
C1826 C 0.3611 0.27458 0.37844 0.0
C1827 C 0.37916 0.24495 0.36711 0.0
H1828 H 0.33837 0.82837 0.86357 0.0
H1829 H 0.40595 0.7906 0.89848 0.0
H1830 H 0.41782 0.88219 0.89779 0.0
H1831 H 0.3635 0.92698 0.82696 0.0
H1832 H 0.33697 0.96788 0.82867 0.0
H1833 H 0.33374 0.89917 0.83168 0.0
H1834 H 0.31239 0.91216 0.87066 0.0
H1835 H 0.31557 0.98091 0.86778 0.0
H1836 H 0.32754 0.94881 0.89262 0.0
H1837 H 0.42219 0.97842 0.89407 0.0
H1838 H 0.41941 0.07156 0.88635 0.0
H1839 H 0.34889 0.04829 0.85409 0.0
C1840 C 0.35563 0.83931 0.87116 0.0
C1841 C 0.37125 0.80176 0.881 0.0
C1842 C 0.39379 0.81809 0.8905 0.0
C1843 C 0.40064 0.87025 0.89035 0.0
C1844 C 0.38483 0.90608 0.8806 0.0
C1845 C 0.36283 0.89136 0.87109 0.0
C1846 C 0.34927 0.93774 0.86159 0.0
C1847 C 0.34567 0.93262 0.83569 0.0
C1848 C 0.32474 0.94534 0.8739 0.0
C1849 C 0.36707 0.98081 0.86729 0.0
C1850 C 0.38741 0.96163 0.87834 0.0
C1851 C 0.40631 0.99383 0.88547 0.0
C1852 C 0.40446 0.04689 0.88114 0.0
C1853 C 0.38388 0.06774 0.8697 0.0
C1854 C 0.36497 0.03383 0.86272 0.0
H1855 H 0.61149 0.23404 0.88583 0.0
H1856 H 0.68554 0.25222 0.86069 0.0
H1857 H 0.68877 0.15819 0.85564 0.0
H1858 H 0.62179 0.11527 0.91687 0.0
H1859 H 0.59257 0.08793 0.90951 0.0
H1860 H 0.59604 0.15678 0.91152 0.0
H1861 H 0.57977 0.16674 0.87028 0.0
H1862 H 0.57623 0.09794 0.86816 0.0
H1863 H 0.59439 0.13199 0.84742 0.0
H1864 H 0.68428 0.06228 0.85346 0.0
H1865 H 0.67166 0.97115 0.85257 0.0
H1866 H 0.60036 1.01386 0.87887 0.0
C1867 C 0.62842 0.21817 0.87937 0.0
C1868 C 0.64824 0.2507 0.87356 0.0
C1869 C 0.66999 0.22832 0.86496 0.0
C1870 C 0.67207 0.17485 0.86217 0.0
C1871 C 0.65222 0.14396 0.86799 0.0
C1872 C 0.63075 0.1647 0.87631 0.0
C1873 C 0.61201 0.12273 0.88075 0.0
C1874 C 0.60521 0.12056 0.90617 0.0
C1875 C 0.58926 0.13032 0.86575 0.0
C1876 C 0.6263 0.07529 0.87359 0.0
C1877 C 0.64952 0.08847 0.86646 0.0
C1878 C 0.66616 0.05148 0.85907 0.0
C1879 C 0.65886 0.99968 0.85878 0.0
C1880 C 0.63504 0.98505 0.86574 0.0
C1881 C 0.61863 1.02366 0.8733 0.0
H1882 H 0.3934 1.01271 0.60878 0.0
H1883 H 0.34699 0.97837 0.66685 0.0
H1884 H 0.33552 0.06981 0.66948 0.0
H1885 H 0.41509 0.13501 0.629 0.0
H1886 H 0.41481 0.16568 0.60144 0.0
H1887 H 0.4192 0.0971 0.60352 0.0
H1888 H 0.38245 0.082 0.57657 0.0
H1889 H 0.37801 0.15057 0.57432 0.0
H1890 H 0.35323 0.10984 0.58351 0.0
H1891 H 0.32963 0.16529 0.66678 0.0
H1892 H 0.3287 0.25805 0.65811 0.0
H1893 H 0.37843 0.23313 0.6015 0.0
C1894 C 0.38061 0.02431 0.62189 0.0
C1895 C 0.37134 0.98787 0.63777 0.0
C1896 C 0.35479 1.00521 0.65474 0.0
C1897 C 0.34801 0.05723 0.65631 0.0
C1898 C 0.35776 0.09211 0.64073 0.0
C1899 C 0.3736 0.07649 0.62374 0.0
C1900 C 0.38154 0.1224 0.60935 0.0
C1901 C 0.40931 0.13051 0.61093 0.0
C1902 C 0.37331 0.1158 0.58446 0.0
C1903 C 0.36775 0.16608 0.62098 0.0
C1904 C 0.3542 0.14755 0.63906 0.0
C1905 C 0.3402 0.18022 0.65266 0.0
C1906 C 0.33995 0.23313 0.64768 0.0
C1907 C 0.3536 0.25354 0.6292 0.0
C1908 C 0.36763 0.21908 0.61565 0.0
H1909 H 0.64375 0.82969 0.60103 0.0
H1910 H 0.65924 0.7931 0.67181 0.0
H1911 H 0.65757 0.88556 0.68143 0.0
H1912 H 0.67839 0.94746 0.59861 0.0
H1913 H 0.65669 0.98015 0.58061 0.0
H1914 H 0.65964 0.91114 0.5791 0.0
H1915 H 0.61339 0.901 0.58731 0.0
H1916 H 0.61028 0.96995 0.58873 0.0
H1917 H 0.60048 0.93066 0.61236 0.0
H1918 H 0.65418 0.98223 0.68341 0.0
H1919 H 0.64747 0.07545 0.67792 0.0
H1920 H 0.63312 0.04914 0.60608 0.0
C1921 C 0.64658 0.84095 0.61861 0.0
C1922 C 0.65174 0.80384 0.63564 0.0
C1923 C 0.65566 0.82063 0.65836 0.0
C1924 C 0.65463 0.87312 0.66403 0.0
C1925 C 0.64963 0.90856 0.64681 0.0
C1926 C 0.64556 0.89319 0.62458 0.0
C1927 C 0.64022 0.93903 0.60935 0.0
C1928 C 0.65991 0.94477 0.59082 0.0
C1929 C 0.61456 0.9349 0.59883 0.0
C1930 C 0.64164 0.98254 0.62655 0.0
C1931 C 0.64733 0.96417 0.64802 0.0
C1932 C 0.64977 0.99704 0.66667 0.0
C1933 C 0.64608 0.05 0.66335 0.0
C1934 C 0.63984 0.06969 0.64157 0.0
C1935 C 0.63772 0.03528 0.62296 0.0
loop_
_geom_bond_atom_site_label_1
_geom_bond_atom_site_label_2
_geom_bond_distance
_geom_bond_site_symmetry_2
_ccdc_geom_bond_type
Tb0 C10 2.825 1_545 S
Tb0 O11 2.347 . S
Tb0 O14 2.366 . S
Tb0 O19 2.418 . S
Tb0 O20 2.384 . S
Tb0 O23 2.479 1_545 S
Tb0 O24 2.471 1_545 S
Eu1 O12 2.418 . S
Eu1 O13 2.384 . S
Eu1 O16 2.479 . S
Eu1 O17 2.471 . S
Eu1 O18 2.347 . S
Eu1 O21 2.366 . S
Eu1 C31 2.825 . S
C2 O18 1.259 . S
C2 O19 1.265 . S
C3 O20 1.255 . S
C3 O21 1.265 . S
C4 C6 1.380 . S
C4 C7 1.374 . S
C4 C10 1.507 . S
C5 C6 1.384 . S
C5 C9 1.387 . S
C5 H32 0.930 . S
C6 C4 1.380 . S
C6 C5 1.384 . S
C6 H33 0.931 . S
C7 C4 1.374 . S
C7 C8 1.390 . S
C7 H34 0.930 . S
C8 C7 1.390 . S
C8 C9 1.391 . S
C8 H35 0.930 . S
C9 C5 1.387 . S
C9 C8 1.391 . S
C10 Tb0 2.825 1_565 S
C10 C4 1.507 . S
C10 O23 1.238 . S
C10 O24 1.247 . S
O11 Tb0 2.347 . S
O11 C15 1.259 . S
O12 Eu1 2.418 . S
O12 C15 1.265 . S
O13 Eu1 2.384 . S
O13 C22 1.255 . S
O14 Tb0 2.366 . S
O14 C22 1.265 . S
C15 O11 1.259 . S
C15 O12 1.265 . S
O16 Eu1 2.479 . S
O16 C31 1.238 . S
O17 Eu1 2.471 . S
O17 C31 1.247 . S
O18 Eu1 2.347 . S
O18 C2 1.259 . S
O19 Tb0 2.418 . S
O19 C2 1.265 . S
O20 Tb0 2.384 . S
O20 C3 1.255 . S
O21 Eu1 2.366 . S
O21 C3 1.265 . S
C22 O13 1.255 . S
C22 O14 1.265 . S
O23 Tb0 2.479 1_565 S
O23 C10 1.238 . S
O24 Tb0 2.471 1_565 S
O24 C10 1.247 . S
C25 C28 1.380 . S
C25 C29 1.374 . S
C25 C31 1.507 . S
C26 C27 1.387 . S
C26 C30 1.391 . S
C27 C26 1.387 . S
C27 C28 1.384 . S
C27 H36 0.930 . S
C28 C25 1.380 . S
C28 C27 1.384 . S
C28 H37 0.931 . S
C29 C25 1.374 . S
C29 C30 1.390 . S
C29 H38 0.930 . S
C30 C26 1.391 . S
C30 C29 1.390 . S
C30 H39 0.930 . S
C31 Eu1 2.825 . S
C31 O16 1.238 . S
C31 O17 1.247 . S
C31 C25 1.507 . S
H32 C5 0.930 . S
H33 C6 0.931 . S
H34 C7 0.930 . S
H35 C8 0.930 . S
H36 C27 0.930 . S
H37 C28 0.931 . S
H38 C29 0.930 . S
H39 C30 0.930 . S
Tb40 C50 2.825 1_565 S
Tb40 O51 2.347 . S
Tb40 O54 2.366 . S
Tb40 O59 2.418 . S
Tb40 O60 2.384 . S
Tb40 O63 2.479 1_565 S
Tb40 O64 2.471 1_565 S
Eu41 O52 2.418 . S
Eu41 O53 2.384 . S
Eu41 O56 2.479 . S
Eu41 O57 2.471 . S
Eu41 O58 2.347 . S
Eu41 O61 2.366 . S
Eu41 C71 2.825 . S
C42 O58 1.259 . S
C42 O59 1.265 . S
C43 O60 1.255 . S
C43 O61 1.265 . S
C44 C46 1.380 . S
C44 C47 1.374 . S
C44 C50 1.507 . S
C45 C46 1.384 . S
C45 C49 1.387 . S
C45 H72 0.930 . S
C46 C44 1.380 . S
C46 C45 1.384 . S
C46 H73 0.931 . S
C47 C44 1.374 . S
C47 C48 1.390 . S
C47 H74 0.930 . S
C48 C47 1.390 . S
C48 C49 1.391 . S
C48 H75 0.930 . S
C49 C45 1.387 . S
C49 C48 1.391 . S
C50 Tb40 2.825 1_545 S
C50 C44 1.507 . S
C50 O63 1.238 . S
C50 O64 1.247 . S
O51 Tb40 2.347 . S
O51 C55 1.259 . S
O52 Eu41 2.418 . S
O52 C55 1.265 . S
O53 Eu41 2.384 . S
O53 C62 1.255 . S
O54 Tb40 2.366 . S
O54 C62 1.265 . S
C55 O51 1.259 . S
C55 O52 1.265 . S
O56 Eu41 2.479 . S
O56 C71 1.238 . S
O57 Eu41 2.471 . S
O57 C71 1.247 . S
O58 Eu41 2.347 . S
O58 C42 1.259 . S
O59 Tb40 2.418 . S
O59 C42 1.265 . S
O60 Tb40 2.384 . S
O60 C43 1.255 . S
O61 Eu41 2.366 . S
O61 C43 1.265 . S
C62 O53 1.255 . S
C62 O54 1.265 . S
O63 Tb40 2.479 1_545 S
O63 C50 1.238 . S
O64 Tb40 2.471 1_545 S
O64 C50 1.247 . S
C65 C68 1.380 . S
C65 C69 1.374 . S
C65 C71 1.507 . S
C66 C67 1.387 . S
C66 C70 1.391 . S
C67 C66 1.387 . S
C67 C68 1.384 . S
C67 H76 0.930 . S
C68 C65 1.380 . S
C68 C67 1.384 . S
C68 H77 0.931 . S
C69 C65 1.374 . S
C69 C70 1.390 . S
C69 H78 0.930 . S
C70 C66 1.391 . S
C70 C69 1.390 . S
C70 H79 0.930 . S
C71 Eu41 2.825 . S
C71 O56 1.238 . S
C71 O57 1.247 . S
C71 C65 1.507 . S
H72 C45 0.930 . S
H73 C46 0.931 . S
H74 C47 0.930 . S
H75 C48 0.930 . S
H76 C67 0.930 . S
H77 C68 0.931 . S
H78 C69 0.930 . S
H79 C70 0.930 . S
Tb80 C90 2.825 1_565 S
Tb80 O91 2.347 . S
Tb80 O94 2.366 . S
Tb80 O99 2.418 . S
Tb80 O100 2.384 . S
Tb80 O103 2.479 1_565 S
Tb80 O104 2.471 1_565 S
Eu81 O92 2.418 . S
Eu81 O93 2.384 . S
Eu81 O96 2.479 . S
Eu81 O97 2.471 . S
Eu81 O98 2.347 . S
Eu81 O101 2.366 . S
Eu81 C111 2.825 . S
C82 O98 1.259 . S
C82 O99 1.265 . S
C83 O100 1.255 . S
C83 O101 1.265 . S
C84 C86 1.380 . S
C84 C87 1.374 . S
C84 C90 1.507 . S
C85 C86 1.384 . S
C85 C89 1.387 . S
C85 H112 0.930 . S
C86 C84 1.380 . S
C86 C85 1.384 . S
C86 H113 0.931 . S
C87 C84 1.374 . S
C87 C88 1.390 . S
C87 H114 0.930 . S
C88 C87 1.390 . S
C88 C89 1.391 . S
C88 H115 0.930 . S
C89 C85 1.387 . S
C89 C88 1.391 . S
C90 Tb80 2.825 1_545 S
C90 C84 1.507 . S
C90 O103 1.238 . S
C90 O104 1.247 . S
O91 Tb80 2.347 . S
O91 C95 1.259 . S
O92 Eu81 2.418 . S
O92 C95 1.265 . S
O93 Eu81 2.384 . S
O93 C102 1.255 . S
O94 Tb80 2.366 . S
O94 C102 1.265 . S
C95 O91 1.259 . S
C95 O92 1.265 . S
O96 Eu81 2.479 . S
O96 C111 1.238 . S
O97 Eu81 2.471 . S
O97 C111 1.247 . S
O98 Eu81 2.347 . S
O98 C82 1.259 . S
O99 Tb80 2.418 . S
O99 C82 1.265 . S
O100 Tb80 2.384 . S
O100 C83 1.255 . S
O101 Eu81 2.366 . S
O101 C83 1.265 . S
C102 O93 1.255 . S
C102 O94 1.265 . S
O103 Tb80 2.479 1_545 S
O103 C90 1.238 . S
O104 Tb80 2.471 1_545 S
O104 C90 1.247 . S
C105 C108 1.380 . S
C105 C109 1.374 . S
C105 C111 1.507 . S
C106 C107 1.387 . S
C106 C110 1.391 . S
C107 C106 1.387 . S
C107 C108 1.384 . S
C107 H116 0.930 . S
C108 C105 1.380 . S
C108 C107 1.384 . S
C108 H117 0.931 . S
C109 C105 1.374 . S
C109 C110 1.390 . S
C109 H118 0.930 . S
C110 C106 1.391 . S
C110 C109 1.390 . S
C110 H119 0.930 . S
C111 Eu81 2.825 . S
C111 O96 1.238 . S
C111 O97 1.247 . S
C111 C105 1.507 . S
H112 C85 0.930 . S
H113 C86 0.931 . S
H114 C87 0.930 . S
H115 C88 0.930 . S
H116 C107 0.930 . S
H117 C108 0.931 . S
H118 C109 0.930 . S
H119 C110 0.930 . S
Tb120 C130 2.825 1_545 S
Tb120 O131 2.347 . S
Tb120 O134 2.366 . S
Tb120 O139 2.418 . S
Tb120 O140 2.384 . S
Tb120 O143 2.479 1_545 S
Tb120 O144 2.471 1_545 S
Eu121 O132 2.418 . S
Eu121 O133 2.384 . S
Eu121 O136 2.479 . S
Eu121 O137 2.471 . S
Eu121 O138 2.347 . S
Eu121 O141 2.366 . S
Eu121 C151 2.825 . S
C122 O138 1.259 . S
C122 O139 1.265 . S
C123 O140 1.255 . S
C123 O141 1.265 . S
C124 C126 1.380 . S
C124 C127 1.374 . S
C124 C130 1.507 . S
C125 C126 1.384 . S
C125 C129 1.387 . S
C125 H152 0.930 . S
C126 C124 1.380 . S
C126 C125 1.384 . S
C126 H153 0.931 . S
C127 C124 1.374 . S
C127 C128 1.390 . S
C127 H154 0.930 . S
C128 C127 1.390 . S
C128 C129 1.391 . S
C128 H155 0.930 . S
C129 C125 1.387 . S
C129 C128 1.391 . S
C130 Tb120 2.825 1_565 S
C130 C124 1.507 . S
C130 O143 1.238 . S
C130 O144 1.247 . S
O131 Tb120 2.347 . S
O131 C135 1.259 . S
O132 Eu121 2.418 . S
O132 C135 1.265 . S
O133 Eu121 2.384 . S
O133 C142 1.255 . S
O134 Tb120 2.366 . S
O134 C142 1.265 . S
C135 O131 1.259 . S
C135 O132 1.265 . S
O136 Eu121 2.479 . S
O136 C151 1.238 . S
O137 Eu121 2.471 . S
O137 C151 1.247 . S
O138 Eu121 2.347 . S
O138 C122 1.259 . S
O139 Tb120 2.418 . S
O139 C122 1.265 . S
O140 Tb120 2.384 . S
O140 C123 1.255 . S
O141 Eu121 2.366 . S
O141 C123 1.265 . S
C142 O133 1.255 . S
C142 O134 1.265 . S
O143 Tb120 2.479 1_565 S
O143 C130 1.238 . S
O144 Tb120 2.471 1_565 S
O144 C130 1.247 . S
C145 C148 1.380 . S
C145 C149 1.374 . S
C145 C151 1.507 . S
C146 C147 1.387 . S
C146 C150 1.391 . S
C147 C146 1.387 . S
C147 C148 1.384 . S
C147 H156 0.930 . S
C148 C145 1.380 . S
C148 C147 1.384 . S
C148 H157 0.931 . S
C149 C145 1.374 . S
C149 C150 1.390 . S
C149 H158 0.930 . S
C150 C146 1.391 . S
C150 C149 1.390 . S
C150 H159 0.930 . S
C151 Eu121 2.825 . S
C151 O136 1.238 . S
C151 O137 1.247 . S
C151 C145 1.507 . S
H152 C125 0.930 . S
H153 C126 0.931 . S
H154 C127 0.930 . S
H155 C128 0.930 . S
H156 C147 0.930 . S
H157 C148 0.931 . S
H158 C149 0.930 . S
H159 C150 0.930 . S
Tb160 C170 2.825 . S
Tb160 O171 2.347 . S
Tb160 O174 2.366 . S
Tb160 O179 2.418 . S
Tb160 O180 2.384 . S
Tb160 O183 2.479 . S
Tb160 O184 2.471 . S
Eu161 O172 2.418 . S
Eu161 O173 2.384 . S
Eu161 O176 2.479 1_565 S
Eu161 O177 2.471 1_565 S
Eu161 O178 2.347 . S
Eu161 O181 2.366 . S
Eu161 C191 2.825 1_565 S
C162 O178 1.259 . S
C162 O179 1.265 . S
C163 O180 1.255 . S
C163 O181 1.265 . S
C164 C166 1.380 . S
C164 C167 1.374 . S
C164 C170 1.507 . S
C165 C166 1.384 . S
C165 C169 1.387 . S
C165 H192 0.930 . S
C166 C164 1.380 . S
C166 C165 1.384 . S
C166 H193 0.931 . S
C167 C164 1.374 . S
C167 C168 1.390 . S
C167 H194 0.930 . S
C168 C167 1.390 . S
C168 C169 1.391 . S
C168 H195 0.930 . S
C169 C165 1.387 . S
C169 C168 1.391 . S
C170 Tb160 2.825 . S
C170 C164 1.507 . S
C170 O183 1.238 . S
C170 O184 1.247 . S
O171 Tb160 2.347 . S
O171 C175 1.259 . S
O172 Eu161 2.418 . S
O172 C175 1.265 . S
O173 Eu161 2.384 . S
O173 C182 1.255 . S
O174 Tb160 2.366 . S
O174 C182 1.265 . S
C175 O171 1.259 . S
C175 O172 1.265 . S
O176 Eu161 2.479 1_545 S
O176 C191 1.238 . S
O177 Eu161 2.471 1_545 S
O177 C191 1.247 . S
O178 Eu161 2.347 . S
O178 C162 1.259 . S
O179 Tb160 2.418 . S
O179 C162 1.265 . S
O180 Tb160 2.384 . S
O180 C163 1.255 . S
O181 Eu161 2.366 . S
O181 C163 1.265 . S
C182 O173 1.255 . S
C182 O174 1.265 . S
O183 Tb160 2.479 . S
O183 C170 1.238 . S
O184 Tb160 2.471 . S
O184 C170 1.247 . S
C185 C188 1.380 . S
C185 C189 1.374 . S
C185 C191 1.507 . S
C186 C187 1.387 . S
C186 C190 1.391 . S
C187 C186 1.387 . S
C187 C188 1.384 . S
C187 H196 0.930 . S
C188 C185 1.380 . S
C188 C187 1.384 . S
C188 H197 0.931 . S
C189 C185 1.374 . S
C189 C190 1.390 . S
C189 H198 0.930 . S
C190 C186 1.391 . S
C190 C189 1.390 . S
C190 H199 0.930 . S
C191 Eu161 2.825 1_545 S
C191 O176 1.238 . S
C191 O177 1.247 . S
C191 C185 1.507 . S
H192 C165 0.930 . S
H193 C166 0.931 . S
H194 C167 0.930 . S
H195 C168 0.930 . S
H196 C187 0.930 . S
H197 C188 0.931 . S
H198 C189 0.930 . S
H199 C190 0.930 . S
Tb200 C210 2.825 . S
Tb200 O211 2.347 . S
Tb200 O214 2.366 . S
Tb200 O219 2.418 . S
Tb200 O220 2.384 . S
Tb200 O223 2.479 . S
Tb200 O224 2.471 . S
Eu201 O212 2.418 . S
Eu201 O213 2.384 . S
Eu201 O216 2.479 1_545 S
Eu201 O217 2.471 1_545 S
Eu201 O218 2.347 . S
Eu201 O221 2.366 . S
Eu201 C231 2.825 1_545 S
C202 O218 1.259 . S
C202 O219 1.265 . S
C203 O220 1.255 . S
C203 O221 1.265 . S
C204 C206 1.380 . S
C204 C207 1.374 . S
C204 C210 1.507 . S
C205 C206 1.384 . S
C205 C209 1.387 . S
C205 H232 0.930 . S
C206 C204 1.380 . S
C206 C205 1.384 . S
C206 H233 0.931 . S
C207 C204 1.374 . S
C207 C208 1.390 . S
C207 H234 0.930 . S
C208 C207 1.390 . S
C208 C209 1.391 . S
C208 H235 0.930 . S
C209 C205 1.387 . S
C209 C208 1.391 . S
C210 Tb200 2.825 . S
C210 C204 1.507 . S
C210 O223 1.238 . S
C210 O224 1.247 . S
O211 Tb200 2.347 . S
O211 C215 1.259 . S
O212 Eu201 2.418 . S
O212 C215 1.265 . S
O213 Eu201 2.384 . S
O213 C222 1.255 . S
O214 Tb200 2.366 . S
O214 C222 1.265 . S
C215 O211 1.259 . S
C215 O212 1.265 . S
O216 Eu201 2.479 1_565 S
O216 C231 1.238 . S
O217 Eu201 2.471 1_565 S
O217 C231 1.247 . S
O218 Eu201 2.347 . S
O218 C202 1.259 . S
O219 Tb200 2.418 . S
O219 C202 1.265 . S
O220 Tb200 2.384 . S
O220 C203 1.255 . S
O221 Eu201 2.366 . S
O221 C203 1.265 . S
C222 O213 1.255 . S
C222 O214 1.265 . S
O223 Tb200 2.479 . S
O223 C210 1.238 . S
O224 Tb200 2.471 . S
O224 C210 1.247 . S
C225 C228 1.380 . S
C225 C229 1.374 . S
C225 C231 1.507 . S
C226 C227 1.387 . S
C226 C230 1.391 . S
C227 C226 1.387 . S
C227 C228 1.384 . S
C227 H236 0.930 . S
C228 C225 1.380 . S
C228 C227 1.384 . S
C228 H237 0.931 . S
C229 C225 1.374 . S
C229 C230 1.390 . S
C229 H238 0.930 . S
C230 C226 1.391 . S
C230 C229 1.390 . S
C230 H239 0.930 . S
C231 Eu201 2.825 1_565 S
C231 O216 1.238 . S
C231 O217 1.247 . S
C231 C225 1.507 . S
H232 C205 0.930 . S
H233 C206 0.931 . S
H234 C207 0.930 . S
H235 C208 0.930 . S
H236 C227 0.930 . S
H237 C228 0.931 . S
H238 C229 0.930 . S
H239 C230 0.930 . S
Tb240 C250 2.825 . S
Tb240 O251 2.347 . S
Tb240 O254 2.366 . S
Tb240 O259 2.418 . S
Tb240 O260 2.384 . S
Tb240 O263 2.479 . S
Tb240 O264 2.471 . S
Eu241 O252 2.418 . S
Eu241 O253 2.384 . S
Eu241 O256 2.479 1_545 S
Eu241 O257 2.471 1_545 S
Eu241 O258 2.347 . S
Eu241 O261 2.366 . S
Eu241 C271 2.825 1_545 S
C242 O258 1.259 . S
C242 O259 1.265 . S
C243 O260 1.255 . S
C243 O261 1.265 . S
C244 C246 1.380 . S
C244 C247 1.374 . S
C244 C250 1.507 . S
C245 C246 1.384 . S
C245 C249 1.387 . S
C245 H272 0.930 . S
C246 C244 1.380 . S
C246 C245 1.384 . S
C246 H273 0.931 . S
C247 C244 1.374 . S
C247 C248 1.390 . S
C247 H274 0.930 . S
C248 C247 1.390 . S
C248 C249 1.391 . S
C248 H275 0.930 . S
C249 C245 1.387 . S
C249 C248 1.391 . S
C250 Tb240 2.825 . S
C250 C244 1.507 . S
C250 O263 1.238 . S
C250 O264 1.247 . S
O251 Tb240 2.347 . S
O251 C255 1.259 . S
O252 Eu241 2.418 . S
O252 C255 1.265 . S
O253 Eu241 2.384 . S
O253 C262 1.255 . S
O254 Tb240 2.366 . S
O254 C262 1.265 . S
C255 O251 1.259 . S
C255 O252 1.265 . S
O256 Eu241 2.479 1_565 S
O256 C271 1.238 . S
O257 Eu241 2.471 1_565 S
O257 C271 1.247 . S
O258 Eu241 2.347 . S
O258 C242 1.259 . S
O259 Tb240 2.418 . S
O259 C242 1.265 . S
O260 Tb240 2.384 . S
O260 C243 1.255 . S
O261 Eu241 2.366 . S
O261 C243 1.265 . S
C262 O253 1.255 . S
C262 O254 1.265 . S
O263 Tb240 2.479 . S
O263 C250 1.238 . S
O264 Tb240 2.471 . S
O264 C250 1.247 . S
C265 C268 1.380 . S
C265 C269 1.374 . S
C265 C271 1.507 . S
C266 C267 1.387 . S
C266 C270 1.391 . S
C267 C266 1.387 . S
C267 C268 1.384 . S
C267 H276 0.930 . S
C268 C265 1.380 . S
C268 C267 1.384 . S
C268 H277 0.931 . S
C269 C265 1.374 . S
C269 C270 1.390 . S
C269 H278 0.930 . S
C270 C266 1.391 . S
C270 C269 1.390 . S
C270 H279 0.930 . S
C271 Eu241 2.825 1_565 S
C271 O256 1.238 . S
C271 O257 1.247 . S
C271 C265 1.507 . S
H272 C245 0.930 . S
H273 C246 0.931 . S
H274 C247 0.930 . S
H275 C248 0.930 . S
H276 C267 0.930 . S
H277 C268 0.931 . S
H278 C269 0.930 . S
H279 C270 0.930 . S
Tb280 C290 2.825 . S
Tb280 O291 2.347 . S
Tb280 O294 2.366 . S
Tb280 O299 2.418 . S
Tb280 O300 2.384 . S
Tb280 O303 2.479 . S
Tb280 O304 2.471 . S
Eu281 O292 2.418 . S
Eu281 O293 2.384 . S
Eu281 O296 2.479 1_565 S
Eu281 O297 2.471 1_565 S
Eu281 O298 2.347 . S
Eu281 O301 2.366 . S
Eu281 C311 2.825 1_565 S
C282 O298 1.259 . S
C282 O299 1.265 . S
C283 O300 1.255 . S
C283 O301 1.265 . S
C284 C286 1.380 . S
C284 C287 1.374 . S
C284 C290 1.507 . S
C285 C286 1.384 . S
C285 C289 1.387 . S
C285 H312 0.930 . S
C286 C284 1.380 . S
C286 C285 1.384 . S
C286 H313 0.931 . S
C287 C284 1.374 . S
C287 C288 1.390 . S
C287 H314 0.930 . S
C288 C287 1.390 . S
C288 C289 1.391 . S
C288 H315 0.930 . S
C289 C285 1.387 . S
C289 C288 1.391 . S
C290 Tb280 2.825 . S
C290 C284 1.507 . S
C290 O303 1.238 . S
C290 O304 1.247 . S
O291 Tb280 2.347 . S
O291 C295 1.259 . S
O292 Eu281 2.418 . S
O292 C295 1.265 . S
O293 Eu281 2.384 . S
O293 C302 1.255 . S
O294 Tb280 2.366 . S
O294 C302 1.265 . S
C295 O291 1.259 . S
C295 O292 1.265 . S
O296 Eu281 2.479 1_545 S
O296 C311 1.238 . S
O297 Eu281 2.471 1_545 S
O297 C311 1.247 . S
O298 Eu281 2.347 . S
O298 C282 1.259 . S
O299 Tb280 2.418 . S
O299 C282 1.265 . S
O300 Tb280 2.384 . S
O300 C283 1.255 . S
O301 Eu281 2.366 . S
O301 C283 1.265 . S
C302 O293 1.255 . S
C302 O294 1.265 . S
O303 Tb280 2.479 . S
O303 C290 1.238 . S
O304 Tb280 2.471 . S
O304 C290 1.247 . S
C305 C308 1.380 . S
C305 C309 1.374 . S
C305 C311 1.507 . S
C306 C307 1.387 . S
C306 C310 1.391 . S
C307 C306 1.387 . S
C307 C308 1.384 . S
C307 H316 0.930 . S
C308 C305 1.380 . S
C308 C307 1.384 . S
C308 H317 0.931 . S
C309 C305 1.374 . S
C309 C310 1.390 . S
C309 H318 0.930 . S
C310 C306 1.391 . S
C310 C309 1.390 . S
C310 H319 0.930 . S
C311 Eu281 2.825 1_545 S
C311 O296 1.238 . S
C311 O297 1.247 . S
C311 C305 1.507 . S
H312 C285 0.930 . S
H313 C286 0.931 . S
H314 C287 0.930 . S
H315 C288 0.930 . S
H316 C307 0.930 . S
H317 C308 0.931 . S
H318 C309 0.930 . S
H319 C310 0.930 . S
Tb320 C330 2.825 . S
Tb320 O331 2.347 . S
Tb320 O334 2.366 . S
Tb320 O339 2.418 . S
Tb320 O340 2.384 . S
Tb320 O343 2.479 . S
Tb320 O344 2.471 . S
Eu321 O332 2.418 . S
Eu321 O333 2.384 . S
Eu321 O336 2.479 . S
Eu321 O337 2.471 . S
Eu321 O338 2.347 . S
Eu321 O341 2.366 . S
Eu321 C351 2.825 . S
C322 O338 1.259 . S
C322 O339 1.265 . S
C323 O340 1.255 . S
C323 O341 1.265 . S
C324 C326 1.380 . S
C324 C327 1.374 . S
C324 C330 1.507 . S
C325 C326 1.384 . S
C325 C329 1.387 . S
C325 H352 0.930 . S
C326 C324 1.380 . S
C326 C325 1.384 . S
C326 H353 0.931 . S
C327 C324 1.374 . S
C327 C328 1.390 . S
C327 H354 0.930 . S
C328 C327 1.390 . S
C328 C329 1.391 . S
C328 H355 0.930 . S
C329 C325 1.387 . S
C329 C328 1.391 . S
C330 Tb320 2.825 . S
C330 C324 1.507 . S
C330 O343 1.238 . S
C330 O344 1.247 . S
O331 Tb320 2.347 . S
O331 C335 1.259 . S
O332 Eu321 2.418 . S
O332 C335 1.265 . S
O333 Eu321 2.384 . S
O333 C342 1.255 . S
O334 Tb320 2.366 . S
O334 C342 1.265 . S
C335 O331 1.259 . S
C335 O332 1.265 . S
O336 Eu321 2.479 . S
O336 C351 1.238 . S
O337 Eu321 2.471 . S
O337 C351 1.247 . S
O338 Eu321 2.347 . S
O338 C322 1.259 . S
O339 Tb320 2.418 . S
O339 C322 1.265 . S
O340 Tb320 2.384 . S
O340 C323 1.255 . S
O341 Eu321 2.366 . S
O341 C323 1.265 . S
C342 O333 1.255 . S
C342 O334 1.265 . S
O343 Tb320 2.479 . S
O343 C330 1.238 . S
O344 Tb320 2.471 . S
O344 C330 1.247 . S
C345 C348 1.380 . S
C345 C349 1.374 . S
C345 C351 1.507 . S
C346 C347 1.387 . S
C346 C350 1.391 . S
C347 C346 1.387 . S
C347 C348 1.384 . S
C347 H356 0.930 . S
C348 C345 1.380 . S
C348 C347 1.384 . S
C348 H357 0.931 . S
C349 C345 1.374 . S
C349 C350 1.390 . S
C349 H358 0.930 . S
C350 C346 1.391 . S
C350 C349 1.390 . S
C350 H359 0.930 . S
C351 Eu321 2.825 . S
C351 O336 1.238 . S
C351 O337 1.247 . S
C351 C345 1.507 . S
H352 C325 0.930 . S
H353 C326 0.931 . S
H354 C327 0.930 . S
H355 C328 0.930 . S
H356 C347 0.930 . S
H357 C348 0.931 . S
H358 C349 0.930 . S
H359 C350 0.930 . S
Tb360 C370 2.825 . S
Tb360 O371 2.347 . S
Tb360 O374 2.366 . S
Tb360 O379 2.418 . S
Tb360 O380 2.384 . S
Tb360 O383 2.479 . S
Tb360 O384 2.471 . S
Eu361 O372 2.418 . S
Eu361 O373 2.384 . S
Eu361 O376 2.479 . S
Eu361 O377 2.471 . S
Eu361 O378 2.347 . S
Eu361 O381 2.366 . S
Eu361 C391 2.825 . S
C362 O378 1.259 . S
C362 O379 1.265 . S
C363 O380 1.255 . S
C363 O381 1.265 . S
C364 C366 1.380 . S
C364 C367 1.374 . S
C364 C370 1.507 . S
C365 C366 1.384 . S
C365 C369 1.387 . S
C365 H392 0.930 . S
C366 C364 1.380 . S
C366 C365 1.384 . S
C366 H393 0.931 . S
C367 C364 1.374 . S
C367 C368 1.390 . S
C367 H394 0.930 . S
C368 C367 1.390 . S
C368 C369 1.391 . S
C368 H395 0.930 . S
C369 C365 1.387 . S
C369 C368 1.391 . S
C370 Tb360 2.825 . S
C370 C364 1.507 . S
C370 O383 1.238 . S
C370 O384 1.247 . S
O371 Tb360 2.347 . S
O371 C375 1.259 . S
O372 Eu361 2.418 . S
O372 C375 1.265 . S
O373 Eu361 2.384 . S
O373 C382 1.255 . S
O374 Tb360 2.366 . S
O374 C382 1.265 . S
C375 O371 1.259 . S
C375 O372 1.265 . S
O376 Eu361 2.479 . S
O376 C391 1.238 . S
O377 Eu361 2.471 . S
O377 C391 1.247 . S
O378 Eu361 2.347 . S
O378 C362 1.259 . S
O379 Tb360 2.418 . S
O379 C362 1.265 . S
O380 Tb360 2.384 . S
O380 C363 1.255 . S
O381 Eu361 2.366 . S
O381 C363 1.265 . S
C382 O373 1.255 . S
C382 O374 1.265 . S
O383 Tb360 2.479 . S
O383 C370 1.238 . S
O384 Tb360 2.471 . S
O384 C370 1.247 . S
C385 C388 1.380 . S
C385 C389 1.374 . S
C385 C391 1.507 . S
C386 C387 1.387 . S
C386 C390 1.391 . S
C387 C386 1.387 . S
C387 C388 1.384 . S
C387 H396 0.930 . S
C388 C385 1.380 . S
C388 C387 1.384 . S
C388 H397 0.931 . S
C389 C385 1.374 . S
C389 C390 1.390 . S
C389 H398 0.930 . S
C390 C386 1.391 . S
C390 C389 1.390 . S
C390 H399 0.930 . S
C391 Eu361 2.825 . S
C391 O376 1.238 . S
C391 O377 1.247 . S
C391 C385 1.507 . S
H392 C365 0.930 . S
H393 C366 0.931 . S
H394 C367 0.930 . S
H395 C368 0.930 . S
H396 C387 0.930 . S
H397 C388 0.931 . S
H398 C389 0.930 . S
H399 C390 0.930 . S
Tb400 C410 2.825 . S
Tb400 O411 2.347 . S
Tb400 O414 2.366 . S
Tb400 O419 2.418 . S
Tb400 O420 2.384 . S
Tb400 O423 2.479 . S
Tb400 O424 2.471 . S
Eu401 O412 2.418 . S
Eu401 O413 2.384 . S
Eu401 O416 2.479 . S
Eu401 O417 2.471 . S
Eu401 O418 2.347 . S
Eu401 O421 2.366 . S
Eu401 C431 2.825 . S
C402 O418 1.259 . S
C402 O419 1.265 . S
C403 O420 1.255 . S
C403 O421 1.265 . S
C404 C406 1.380 . S
C404 C407 1.374 . S
C404 C410 1.507 . S
C405 C406 1.384 . S
C405 C409 1.387 . S
C405 H432 0.930 . S
C406 C404 1.380 . S
C406 C405 1.384 . S
C406 H433 0.931 . S
C407 C404 1.374 . S
C407 C408 1.390 . S
C407 H434 0.930 . S
C408 C407 1.390 . S
C408 C409 1.391 . S
C408 H435 0.930 . S
C409 C405 1.387 . S
C409 C408 1.391 . S
C410 Tb400 2.825 . S
C410 C404 1.507 . S
C410 O423 1.238 . S
C410 O424 1.247 . S
O411 Tb400 2.347 . S
O411 C415 1.259 . S
O412 Eu401 2.418 . S
O412 C415 1.265 . S
O413 Eu401 2.384 . S
O413 C422 1.255 . S
O414 Tb400 2.366 . S
O414 C422 1.265 . S
C415 O411 1.259 . S
C415 O412 1.265 . S
O416 Eu401 2.479 . S
O416 C431 1.238 . S
O417 Eu401 2.471 . S
O417 C431 1.247 . S
O418 Eu401 2.347 . S
O418 C402 1.259 . S
O419 Tb400 2.418 . S
O419 C402 1.265 . S
O420 Tb400 2.384 . S
O420 C403 1.255 . S
O421 Eu401 2.366 . S
O421 C403 1.265 . S
C422 O413 1.255 . S
C422 O414 1.265 . S
O423 Tb400 2.479 . S
O423 C410 1.238 . S
O424 Tb400 2.471 . S
O424 C410 1.247 . S
C425 C428 1.380 . S
C425 C429 1.374 . S
C425 C431 1.507 . S
C426 C427 1.387 . S
C426 C430 1.391 . S
C427 C426 1.387 . S
C427 C428 1.384 . S
C427 H436 0.930 . S
C428 C425 1.380 . S
C428 C427 1.384 . S
C428 H437 0.931 . S
C429 C425 1.374 . S
C429 C430 1.390 . S
C429 H438 0.930 . S
C430 C426 1.391 . S
C430 C429 1.390 . S
C430 H439 0.930 . S
C431 Eu401 2.825 . S
C431 O416 1.238 . S
C431 O417 1.247 . S
C431 C425 1.507 . S
H432 C405 0.930 . S
H433 C406 0.931 . S
H434 C407 0.930 . S
H435 C408 0.930 . S
H436 C427 0.930 . S
H437 C428 0.931 . S
H438 C429 0.930 . S
H439 C430 0.930 . S
Tb440 C450 2.825 . S
Tb440 O451 2.347 . S
Tb440 O454 2.366 . S
Tb440 O459 2.418 . S
Tb440 O460 2.384 . S
Tb440 O463 2.479 . S
Tb440 O464 2.471 . S
Eu441 O452 2.418 . S
Eu441 O453 2.384 . S
Eu441 O456 2.479 . S
Eu441 O457 2.471 . S
Eu441 O458 2.347 . S
Eu441 O461 2.366 . S
Eu441 C471 2.825 . S
C442 O458 1.259 . S
C442 O459 1.265 . S
C443 O460 1.255 . S
C443 O461 1.265 . S
C444 C446 1.380 . S
C444 C447 1.374 . S
C444 C450 1.507 . S
C445 C446 1.384 . S
C445 C449 1.387 . S
C445 H472 0.930 . S
C446 C444 1.380 . S
C446 C445 1.384 . S
C446 H473 0.931 . S
C447 C444 1.374 . S
C447 C448 1.390 . S
C447 H474 0.930 . S
C448 C447 1.390 . S
C448 C449 1.391 . S
C448 H475 0.930 . S
C449 C445 1.387 . S
C449 C448 1.391 . S
C450 Tb440 2.825 . S
C450 C444 1.507 . S
C450 O463 1.238 . S
C450 O464 1.247 . S
O451 Tb440 2.347 . S
O451 C455 1.259 . S
O452 Eu441 2.418 . S
O452 C455 1.265 . S
O453 Eu441 2.384 . S
O453 C462 1.255 . S
O454 Tb440 2.366 . S
O454 C462 1.265 . S
C455 O451 1.259 . S
C455 O452 1.265 . S
O456 Eu441 2.479 . S
O456 C471 1.238 . S
O457 Eu441 2.471 . S
O457 C471 1.247 . S
O458 Eu441 2.347 . S
O458 C442 1.259 . S
O459 Tb440 2.418 . S
O459 C442 1.265 . S
O460 Tb440 2.384 . S
O460 C443 1.255 . S
O461 Eu441 2.366 . S
O461 C443 1.265 . S
C462 O453 1.255 . S
C462 O454 1.265 . S
O463 Tb440 2.479 . S
O463 C450 1.238 . S
O464 Tb440 2.471 . S
O464 C450 1.247 . S
C465 C468 1.380 . S
C465 C469 1.374 . S
C465 C471 1.507 . S
C466 C467 1.387 . S
C466 C470 1.391 . S
C467 C466 1.387 . S
C467 C468 1.384 . S
C467 H476 0.930 . S
C468 C465 1.380 . S
C468 C467 1.384 . S
C468 H477 0.931 . S
C469 C465 1.374 . S
C469 C470 1.390 . S
C469 H478 0.930 . S
C470 C466 1.391 . S
C470 C469 1.390 . S
C470 H479 0.930 . S
C471 Eu441 2.825 . S
C471 O456 1.238 . S
C471 O457 1.247 . S
C471 C465 1.507 . S
H472 C445 0.930 . S
H473 C446 0.931 . S
H474 C447 0.930 . S
H475 C448 0.930 . S
H476 C467 0.930 . S
H477 C468 0.931 . S
H478 C469 0.930 . S
H479 C470 0.930 . S
Tb480 C490 2.825 . S
Tb480 O491 2.347 . S
Tb480 O494 2.366 . S
Tb480 O499 2.418 . S
Tb480 O500 2.384 . S
Tb480 O503 2.479 . S
Tb480 O504 2.471 . S
Eu481 O492 2.418 . S
Eu481 O493 2.384 . S
Eu481 O496 2.479 . S
Eu481 O497 2.471 . S
Eu481 O498 2.347 . S
Eu481 O501 2.366 . S
Eu481 C511 2.825 . S
C482 O498 1.259 . S
C482 O499 1.265 . S
C483 O500 1.255 . S
C483 O501 1.265 . S
C484 C486 1.380 . S
C484 C487 1.374 . S
C484 C490 1.507 . S
C485 C486 1.384 . S
C485 C489 1.387 . S
C485 H512 0.930 . S
C486 C484 1.380 . S
C486 C485 1.384 . S
C486 H513 0.931 . S
C487 C484 1.374 . S
C487 C488 1.390 . S
C487 H514 0.930 . S
C488 C487 1.390 . S
C488 C489 1.391 . S
C488 H515 0.930 . S
C489 C485 1.387 . S
C489 C488 1.391 . S
C490 Tb480 2.825 . S
C490 C484 1.507 . S
C490 O503 1.238 . S
C490 O504 1.247 . S
O491 Tb480 2.347 . S
O491 C495 1.259 . S
O492 Eu481 2.418 . S
O492 C495 1.265 . S
O493 Eu481 2.384 . S
O493 C502 1.255 . S
O494 Tb480 2.366 . S
O494 C502 1.265 . S
C495 O491 1.259 . S
C495 O492 1.265 . S
O496 Eu481 2.479 . S
O496 C511 1.238 . S
O497 Eu481 2.471 . S
O497 C511 1.247 . S
O498 Eu481 2.347 . S
O498 C482 1.259 . S
O499 Tb480 2.418 . S
O499 C482 1.265 . S
O500 Tb480 2.384 . S
O500 C483 1.255 . S
O501 Eu481 2.366 . S
O501 C483 1.265 . S
C502 O493 1.255 . S
C502 O494 1.265 . S
O503 Tb480 2.479 . S
O503 C490 1.238 . S
O504 Tb480 2.471 . S
O504 C490 1.247 . S
C505 C508 1.380 . S
C505 C509 1.374 . S
C505 C511 1.507 . S
C506 C507 1.387 . S
C506 C510 1.391 . S
C507 C506 1.387 . S
C507 C508 1.384 . S
C507 H516 0.930 . S
C508 C505 1.380 . S
C508 C507 1.384 . S
C508 H517 0.931 . S
C509 C505 1.374 . S
C509 C510 1.390 . S
C509 H518 0.930 . S
C510 C506 1.391 . S
C510 C509 1.390 . S
C510 H519 0.930 . S
C511 Eu481 2.825 . S
C511 O496 1.238 . S
C511 O497 1.247 . S
C511 C505 1.507 . S
H512 C485 0.930 . S
H513 C486 0.931 . S
H514 C487 0.930 . S
H515 C488 0.930 . S
H516 C507 0.930 . S
H517 C508 0.931 . S
H518 C509 0.930 . S
H519 C510 0.930 . S
Tb520 C530 2.825 . S
Tb520 O531 2.347 . S
Tb520 O534 2.366 . S
Tb520 O539 2.418 . S
Tb520 O540 2.384 . S
Tb520 O543 2.479 . S
Tb520 O544 2.471 . S
Eu521 O532 2.418 . S
Eu521 O533 2.384 . S
Eu521 O536 2.479 . S
Eu521 O537 2.471 . S
Eu521 O538 2.347 . S
Eu521 O541 2.366 . S
Eu521 C551 2.825 . S
C522 O538 1.259 . S
C522 O539 1.265 . S
C523 O540 1.255 . S
C523 O541 1.265 . S
C524 C526 1.380 . S
C524 C527 1.374 . S
C524 C530 1.507 . S
C525 C526 1.384 . S
C525 C529 1.387 . S
C525 H552 0.930 . S
C526 C524 1.380 . S
C526 C525 1.384 . S
C526 H553 0.931 . S
C527 C524 1.374 . S
C527 C528 1.390 . S
C527 H554 0.930 . S
C528 C527 1.390 . S
C528 C529 1.391 . S
C528 H555 0.930 . S
C529 C525 1.387 . S
C529 C528 1.391 . S
C530 Tb520 2.825 . S
C530 C524 1.507 . S
C530 O543 1.238 . S
C530 O544 1.247 . S
O531 Tb520 2.347 . S
O531 C535 1.259 . S
O532 Eu521 2.418 . S
O532 C535 1.265 . S
O533 Eu521 2.384 . S
O533 C542 1.255 . S
O534 Tb520 2.366 . S
O534 C542 1.265 . S
C535 O531 1.259 . S
C535 O532 1.265 . S
O536 Eu521 2.479 . S
O536 C551 1.238 . S
O537 Eu521 2.471 . S
O537 C551 1.247 . S
O538 Eu521 2.347 . S
O538 C522 1.259 . S
O539 Tb520 2.418 . S
O539 C522 1.265 . S
O540 Tb520 2.384 . S
O540 C523 1.255 . S
O541 Eu521 2.366 . S
O541 C523 1.265 . S
C542 O533 1.255 . S
C542 O534 1.265 . S
O543 Tb520 2.479 . S
O543 C530 1.238 . S
O544 Tb520 2.471 . S
O544 C530 1.247 . S
C545 C548 1.380 . S
C545 C549 1.374 . S
C545 C551 1.507 . S
C546 C547 1.387 . S
C546 C550 1.391 . S
C547 C546 1.387 . S
C547 C548 1.384 . S
C547 H556 0.930 . S
C548 C545 1.380 . S
C548 C547 1.384 . S
C548 H557 0.931 . S
C549 C545 1.374 . S
C549 C550 1.390 . S
C549 H558 0.930 . S
C550 C546 1.391 . S
C550 C549 1.390 . S
C550 H559 0.930 . S
C551 Eu521 2.825 . S
C551 O536 1.238 . S
C551 O537 1.247 . S
C551 C545 1.507 . S
H552 C525 0.930 . S
H553 C526 0.931 . S
H554 C527 0.930 . S
H555 C528 0.930 . S
H556 C547 0.930 . S
H557 C548 0.931 . S
H558 C549 0.930 . S
H559 C550 0.930 . S
Tb560 C570 2.825 . S
Tb560 O571 2.347 . S
Tb560 O574 2.366 . S
Tb560 O579 2.418 . S
Tb560 O580 2.384 . S
Tb560 O583 2.479 . S
Tb560 O584 2.471 . S
Eu561 O572 2.418 . S
Eu561 O573 2.384 . S
Eu561 O576 2.479 . S
Eu561 O577 2.471 . S
Eu561 O578 2.347 . S
Eu561 O581 2.366 . S
Eu561 C591 2.825 . S
C562 O578 1.259 . S
C562 O579 1.265 . S
C563 O580 1.255 . S
C563 O581 1.265 . S
C564 C566 1.380 . S
C564 C567 1.374 . S
C564 C570 1.507 . S
C565 C566 1.384 . S
C565 C569 1.387 . S
C565 H592 0.930 . S
C566 C564 1.380 . S
C566 C565 1.384 . S
C566 H593 0.931 . S
C567 C564 1.374 . S
C567 C568 1.390 . S
C567 H594 0.930 . S
C568 C567 1.390 . S
C568 C569 1.391 . S
C568 H595 0.930 . S
C569 C565 1.387 . S
C569 C568 1.391 . S
C570 Tb560 2.825 . S
C570 C564 1.507 . S
C570 O583 1.238 . S
C570 O584 1.247 . S
O571 Tb560 2.347 . S
O571 C575 1.259 . S
O572 Eu561 2.418 . S
O572 C575 1.265 . S
O573 Eu561 2.384 . S
O573 C582 1.255 . S
O574 Tb560 2.366 . S
O574 C582 1.265 . S
C575 O571 1.259 . S
C575 O572 1.265 . S
O576 Eu561 2.479 . S
O576 C591 1.238 . S
O577 Eu561 2.471 . S
O577 C591 1.247 . S
O578 Eu561 2.347 . S
O578 C562 1.259 . S
O579 Tb560 2.418 . S
O579 C562 1.265 . S
O580 Tb560 2.384 . S
O580 C563 1.255 . S
O581 Eu561 2.366 . S
O581 C563 1.265 . S
C582 O573 1.255 . S
C582 O574 1.265 . S
O583 Tb560 2.479 . S
O583 C570 1.238 . S
O584 Tb560 2.471 . S
O584 C570 1.247 . S
C585 C588 1.380 . S
C585 C589 1.374 . S
C585 C591 1.507 . S
C586 C587 1.387 . S
C586 C590 1.391 . S
C587 C586 1.387 . S
C587 C588 1.384 . S
C587 H596 0.930 . S
C588 C585 1.380 . S
C588 C587 1.384 . S
C588 H597 0.931 . S
C589 C585 1.374 . S
C589 C590 1.390 . S
C589 H598 0.930 . S
C590 C586 1.391 . S
C590 C589 1.390 . S
C590 H599 0.930 . S
C591 Eu561 2.825 . S
C591 O576 1.238 . S
C591 O577 1.247 . S
C591 C585 1.507 . S
H592 C565 0.930 . S
H593 C566 0.931 . S
H594 C567 0.930 . S
H595 C568 0.930 . S
H596 C587 0.930 . S
H597 C588 0.931 . S
H598 C589 0.930 . S
H599 C590 0.930 . S
Tb600 C610 2.825 . S
Tb600 O611 2.347 . S
Tb600 O614 2.366 . S
Tb600 O619 2.418 . S
Tb600 O620 2.384 . S
Tb600 O623 2.479 . S
Tb600 O624 2.471 . S
Eu601 O612 2.418 . S
Eu601 O613 2.384 . S
Eu601 O616 2.479 . S
Eu601 O617 2.471 . S
Eu601 O618 2.347 . S
Eu601 O621 2.366 . S
Eu601 C631 2.825 . S
C602 O618 1.259 . S
C602 O619 1.265 . S
C603 O620 1.255 . S
C603 O621 1.265 . S
C604 C606 1.380 . S
C604 C607 1.374 . S
C604 C610 1.507 . S
C605 C606 1.384 . S
C605 C609 1.387 . S
C605 H632 0.930 . S
C606 C604 1.380 . S
C606 C605 1.384 . S
C606 H633 0.931 . S
C607 C604 1.374 . S
C607 C608 1.390 . S
C607 H634 0.930 . S
C608 C607 1.390 . S
C608 C609 1.391 . S
C608 H635 0.930 . S
C609 C605 1.387 . S
C609 C608 1.391 . S
C610 Tb600 2.825 . S
C610 C604 1.507 . S
C610 O623 1.238 . S
C610 O624 1.247 . S
O611 Tb600 2.347 . S
O611 C615 1.259 . S
O612 Eu601 2.418 . S
O612 C615 1.265 . S
O613 Eu601 2.384 . S
O613 C622 1.255 . S
O614 Tb600 2.366 . S
O614 C622 1.265 . S
C615 O611 1.259 . S
C615 O612 1.265 . S
O616 Eu601 2.479 . S
O616 C631 1.238 . S
O617 Eu601 2.471 . S
O617 C631 1.247 . S
O618 Eu601 2.347 . S
O618 C602 1.259 . S
O619 Tb600 2.418 . S
O619 C602 1.265 . S
O620 Tb600 2.384 . S
O620 C603 1.255 . S
O621 Eu601 2.366 . S
O621 C603 1.265 . S
C622 O613 1.255 . S
C622 O614 1.265 . S
O623 Tb600 2.479 . S
O623 C610 1.238 . S
O624 Tb600 2.471 . S
O624 C610 1.247 . S
C625 C628 1.380 . S
C625 C629 1.374 . S
C625 C631 1.507 . S
C626 C627 1.387 . S
C626 C630 1.391 . S
C627 C626 1.387 . S
C627 C628 1.384 . S
C627 H636 0.930 . S
C628 C625 1.380 . S
C628 C627 1.384 . S
C628 H637 0.931 . S
C629 C625 1.374 . S
C629 C630 1.390 . S
C629 H638 0.930 . S
C630 C626 1.391 . S
C630 C629 1.390 . S
C630 H639 0.930 . S
C631 Eu601 2.825 . S
C631 O616 1.238 . S
C631 O617 1.247 . S
C631 C625 1.507 . S
H632 C605 0.930 . S
H633 C606 0.931 . S
H634 C607 0.930 . S
H635 C608 0.930 . S
H636 C627 0.930 . S
H637 C628 0.931 . S
H638 C629 0.930 . S
H639 C630 0.930 . S
H640 C652 0.930 . S
H641 C654 0.930 . S
H642 C655 0.930 . S
H643 C659 0.959 . S
H644 C659 0.959 . S
H645 C659 0.961 . S
H646 C660 0.960 . S
H647 C660 0.961 . S
H648 C660 0.959 . S
H649 C663 0.929 . S
H650 C664 0.931 . S
H651 C666 0.930 . S
C652 H640 0.930 . S
C652 C653 1.399 . S
C652 C657 1.399 . S
C653 C652 1.399 . S
C653 C654 1.376 . S
C654 H641 0.930 . S
C654 C653 1.376 . S
C654 C655 1.388 . S
C655 H642 0.930 . S
C655 C654 1.388 . S
C655 C656 1.390 . S
C656 C655 1.390 . S
C656 C657 1.394 . S
C656 C662 1.465 . S
C657 C652 1.399 . S
C657 C656 1.394 . S
C657 C658 1.516 . S
C658 C657 1.516 . S
C658 C659 1.502 . S
C658 C660 1.561 . S
C658 C661 1.526 . S
C659 H643 0.959 . S
C659 H644 0.959 . S
C659 H645 0.961 . S
C659 C658 1.502 . S
C660 H646 0.960 . S
C660 H647 0.961 . S
C660 H648 0.959 . S
C660 C658 1.561 . S
C661 C658 1.526 . S
C661 C662 1.396 . S
C661 C666 1.390 . S
C662 C656 1.465 . S
C662 C661 1.396 . S
C662 C663 1.399 . S
C663 H649 0.929 . S
C663 C662 1.399 . S
C663 C664 1.385 . S
C664 H650 0.931 . S
C664 C663 1.385 . S
C664 C665 1.389 . S
C665 C664 1.389 . S
C665 C666 1.387 . S
C666 H651 0.930 . S
C666 C661 1.390 . S
C666 C665 1.387 . S
H667 C679 0.930 . S
H668 C681 0.930 . S
H669 C682 0.930 . S
H670 C686 0.959 . S
H671 C686 0.959 . S
H672 C686 0.961 . S
H673 C687 0.960 . S
H674 C687 0.961 . S
H675 C687 0.959 . S
H676 C690 0.929 . S
H677 C691 0.931 . S
H678 C693 0.930 . S
C679 H667 0.930 . S
C679 C680 1.399 . S
C679 C684 1.399 . S
C680 C679 1.399 . S
C680 C681 1.376 . S
C681 H668 0.930 . S
C681 C680 1.376 . S
C681 C682 1.388 . S
C682 H669 0.930 . S
C682 C681 1.388 . S
C682 C683 1.390 . S
C683 C682 1.390 . S
C683 C684 1.394 . S
C683 C689 1.465 . S
C684 C679 1.399 . S
C684 C683 1.394 . S
C684 C685 1.516 . S
C685 C684 1.516 . S
C685 C686 1.502 . S
C685 C687 1.561 . S
C685 C688 1.526 . S
C686 H670 0.959 . S
C686 H671 0.959 . S
C686 H672 0.961 . S
C686 C685 1.502 . S
C687 H673 0.960 . S
C687 H674 0.961 . S
C687 H675 0.959 . S
C687 C685 1.561 . S
C688 C685 1.526 . S
C688 C689 1.396 . S
C688 C693 1.390 . S
C689 C683 1.465 . S
C689 C688 1.396 . S
C689 C690 1.399 . S
C690 H676 0.929 . S
C690 C689 1.399 . S
C690 C691 1.385 . S
C691 H677 0.931 . S
C691 C690 1.385 . S
C691 C692 1.389 . S
C692 C691 1.389 . S
C692 C693 1.387 . S
C693 H678 0.930 . S
C693 C688 1.390 . S
C693 C692 1.387 . S
H694 C706 0.930 . S
H695 C708 0.930 . S
H696 C709 0.930 . S
H697 C713 0.959 . S
H698 C713 0.959 . S
H699 C713 0.961 . S
H700 C714 0.960 . S
H701 C714 0.961 . S
H702 C714 0.959 . S
H703 C717 0.929 . S
H704 C718 0.931 . S
H705 C720 0.930 . S
C706 H694 0.930 . S
C706 C707 1.399 . S
C706 C711 1.399 . S
C707 C706 1.399 . S
C707 C708 1.376 . S
C708 H695 0.930 . S
C708 C707 1.376 . S
C708 C709 1.388 . S
C709 H696 0.930 . S
C709 C708 1.388 . S
C709 C710 1.390 . S
C710 C709 1.390 . S
C710 C711 1.394 . S
C710 C716 1.465 . S
C711 C706 1.399 . S
C711 C710 1.394 . S
C711 C712 1.516 . S
C712 C711 1.516 . S
C712 C713 1.502 . S
C712 C714 1.561 . S
C712 C715 1.526 . S
C713 H697 0.959 . S
C713 H698 0.959 . S
C713 H699 0.961 . S
C713 C712 1.502 . S
C714 H700 0.960 . S
C714 H701 0.961 . S
C714 H702 0.959 . S
C714 C712 1.561 . S
C715 C712 1.526 . S
C715 C716 1.396 . S
C715 C720 1.390 . S
C716 C710 1.465 . S
C716 C715 1.396 . S
C716 C717 1.399 . S
C717 H703 0.929 . S
C717 C716 1.399 . S
C717 C718 1.385 . S
C718 H704 0.931 . S
C718 C717 1.385 . S
C718 C719 1.389 . S
C719 C718 1.389 . S
C719 C720 1.387 . S
C720 H705 0.930 . S
C720 C715 1.390 . S
C720 C719 1.387 . S
H721 C733 0.930 . S
H722 C735 0.930 . S
H723 C736 0.930 . S
H724 C740 0.959 . S
H725 C740 0.959 . S
H726 C740 0.961 . S
H727 C741 0.960 . S
H728 C741 0.961 . S
H729 C741 0.959 . S
H730 C744 0.929 . S
H731 C745 0.931 . S
H732 C747 0.930 . S
C733 H721 0.930 . S
C733 C734 1.399 . S
C733 C738 1.399 . S
C734 C733 1.399 . S
C734 C735 1.376 . S
C735 H722 0.930 . S
C735 C734 1.376 . S
C735 C736 1.388 . S
C736 H723 0.930 . S
C736 C735 1.388 . S
C736 C737 1.390 . S
C737 C736 1.390 . S
C737 C738 1.394 . S
C737 C743 1.465 . S
C738 C733 1.399 . S
C738 C737 1.394 . S
C738 C739 1.516 . S
C739 C738 1.516 . S
C739 C740 1.502 . S
C739 C741 1.561 . S
C739 C742 1.526 . S
C740 H724 0.959 . S
C740 H725 0.959 . S
C740 H726 0.961 . S
C740 C739 1.502 . S
C741 H727 0.960 . S
C741 H728 0.961 . S
C741 H729 0.959 . S
C741 C739 1.561 . S
C742 C739 1.526 . S
C742 C743 1.396 . S
C742 C747 1.390 . S
C743 C737 1.465 . S
C743 C742 1.396 . S
C743 C744 1.399 . S
C744 H730 0.929 . S
C744 C743 1.399 . S
C744 C745 1.385 . S
C745 H731 0.931 . S
C745 C744 1.385 . S
C745 C746 1.389 . S
C746 C745 1.389 . S
C746 C747 1.387 . S
C747 H732 0.930 . S
C747 C742 1.390 . S
C747 C746 1.387 . S
H748 C760 0.930 . S
H749 C762 0.930 . S
H750 C763 0.930 . S
H751 C767 0.959 . S
H752 C767 0.959 . S
H753 C767 0.961 . S
H754 C768 0.960 . S
H755 C768 0.961 . S
H756 C768 0.959 . S
H757 C771 0.929 . S
H758 C772 0.931 . S
H759 C774 0.930 . S
C760 H748 0.930 . S
C760 C761 1.399 . S
C760 C765 1.399 . S
C761 C760 1.399 . S
C761 C762 1.376 . S
C762 H749 0.930 . S
C762 C761 1.376 . S
C762 C763 1.388 . S
C763 H750 0.930 . S
C763 C762 1.388 . S
C763 C764 1.390 . S
C764 C763 1.390 . S
C764 C765 1.394 . S
C764 C770 1.465 . S
C765 C760 1.399 . S
C765 C764 1.394 . S
C765 C766 1.516 . S
C766 C765 1.516 . S
C766 C767 1.502 . S
C766 C768 1.561 . S
C766 C769 1.526 . S
C767 H751 0.959 . S
C767 H752 0.959 . S
C767 H753 0.961 . S
C767 C766 1.502 . S
C768 H754 0.960 . S
C768 H755 0.961 . S
C768 H756 0.959 . S
C768 C766 1.561 . S
C769 C766 1.526 . S
C769 C770 1.396 . S
C769 C774 1.390 . S
C770 C764 1.465 . S
C770 C769 1.396 . S
C770 C771 1.399 . S
C771 H757 0.929 . S
C771 C770 1.399 . S
C771 C772 1.385 . S
C772 H758 0.931 . S
C772 C771 1.385 . S
C772 C773 1.389 . S
C773 C772 1.389 . S
C773 C774 1.387 . S
C774 H759 0.930 . S
C774 C769 1.390 . S
C774 C773 1.387 . S
H775 C787 0.930 . S
H776 C789 0.930 . S
H777 C790 0.930 . S
H778 C794 0.959 . S
H779 C794 0.959 . S
H780 C794 0.961 . S
H781 C795 0.960 . S
H782 C795 0.961 . S
H783 C795 0.959 . S
H784 C798 0.929 . S
H785 C799 0.931 . S
H786 C801 0.930 . S
C787 H775 0.930 . S
C787 C788 1.399 . S
C787 C792 1.399 . S
C788 C787 1.399 . S
C788 C789 1.376 . S
C789 H776 0.930 . S
C789 C788 1.376 . S
C789 C790 1.388 . S
C790 H777 0.930 . S
C790 C789 1.388 . S
C790 C791 1.390 . S
C791 C790 1.390 . S
C791 C792 1.394 . S
C791 C797 1.465 . S
C792 C787 1.399 . S
C792 C791 1.394 . S
C792 C793 1.516 . S
C793 C792 1.516 . S
C793 C794 1.502 . S
C793 C795 1.561 . S
C793 C796 1.526 . S
C794 H778 0.959 . S
C794 H779 0.959 . S
C794 H780 0.961 . S
C794 C793 1.502 . S
C795 H781 0.960 . S
C795 H782 0.961 . S
C795 H783 0.959 . S
C795 C793 1.561 . S
C796 C793 1.526 . S
C796 C797 1.396 . S
C796 C801 1.390 . S
C797 C791 1.465 . S
C797 C796 1.396 . S
C797 C798 1.399 . S
C798 H784 0.929 . S
C798 C797 1.399 . S
C798 C799 1.385 . S
C799 H785 0.931 . S
C799 C798 1.385 . S
C799 C800 1.389 . S
C800 C799 1.389 . S
C800 C801 1.387 . S
C801 H786 0.930 . S
C801 C796 1.390 . S
C801 C800 1.387 . S
H802 C814 0.930 . S
H803 C816 0.930 . S
H804 C817 0.930 . S
H805 C821 0.959 . S
H806 C821 0.959 . S
H807 C821 0.961 . S
H808 C822 0.960 . S
H809 C822 0.961 . S
H810 C822 0.959 . S
H811 C825 0.929 . S
H812 C826 0.931 . S
H813 C828 0.930 . S
C814 H802 0.930 . S
C814 C815 1.399 . S
C814 C819 1.399 . S
C815 C814 1.399 . S
C815 C816 1.376 . S
C816 H803 0.930 . S
C816 C815 1.376 . S
C816 C817 1.388 . S
C817 H804 0.930 . S
C817 C816 1.388 . S
C817 C818 1.390 . S
C818 C817 1.390 . S
C818 C819 1.394 . S
C818 C824 1.465 . S
C819 C814 1.399 . S
C819 C818 1.394 . S
C819 C820 1.516 . S
C820 C819 1.516 . S
C820 C821 1.502 . S
C820 C822 1.561 . S
C820 C823 1.526 . S
C821 H805 0.959 . S
C821 H806 0.959 . S
C821 H807 0.961 . S
C821 C820 1.502 . S
C822 H808 0.960 . S
C822 H809 0.961 . S
C822 H810 0.959 . S
C822 C820 1.561 . S
C823 C820 1.526 . S
C823 C824 1.396 . S
C823 C828 1.390 . S
C824 C818 1.465 . S
C824 C823 1.396 . S
C824 C825 1.399 . S
C825 H811 0.929 . S
C825 C824 1.399 . S
C825 C826 1.385 . S
C826 H812 0.931 . S
C826 C825 1.385 . S
C826 C827 1.389 . S
C827 C826 1.389 . S
C827 C828 1.387 . S
C828 H813 0.930 . S
C828 C823 1.390 . S
C828 C827 1.387 . S
H829 C841 0.930 . S
H830 C843 0.930 . S
H831 C844 0.930 . S
H832 C848 0.959 . S
H833 C848 0.959 . S
H834 C848 0.961 . S
H835 C849 0.960 . S
H836 C849 0.961 . S
H837 C849 0.959 . S
H838 C852 0.929 . S
H839 C853 0.931 . S
H840 C855 0.930 . S
C841 H829 0.930 . S
C841 C842 1.399 . S
C841 C846 1.399 . S
C842 C841 1.399 . S
C842 C843 1.376 . S
C843 H830 0.930 . S
C843 C842 1.376 . S
C843 C844 1.388 . S
C844 H831 0.930 . S
C844 C843 1.388 . S
C844 C845 1.390 . S
C845 C844 1.390 . S
C845 C846 1.394 . S
C845 C851 1.465 . S
C846 C841 1.399 . S
C846 C845 1.394 . S
C846 C847 1.516 . S
C847 C846 1.516 . S
C847 C848 1.502 . S
C847 C849 1.561 . S
C847 C850 1.526 . S
C848 H832 0.959 . S
C848 H833 0.959 . S
C848 H834 0.961 . S
C848 C847 1.502 . S
C849 H835 0.960 . S
C849 H836 0.961 . S
C849 H837 0.959 . S
C849 C847 1.561 . S
C850 C847 1.526 . S
C850 C851 1.396 . S
C850 C855 1.390 . S
C851 C845 1.465 . S
C851 C850 1.396 . S
C851 C852 1.399 . S
C852 H838 0.929 . S
C852 C851 1.399 . S
C852 C853 1.385 . S
C853 H839 0.931 . S
C853 C852 1.385 . S
C853 C854 1.389 . S
C854 C853 1.389 . S
C854 C855 1.387 . S
C855 H840 0.930 . S
C855 C850 1.390 . S
C855 C854 1.387 . S
H856 C868 0.930 . S
H857 C870 0.930 . S
H858 C871 0.930 . S
H859 C875 0.959 . S
H860 C875 0.959 . S
H861 C875 0.961 . S
H862 C876 0.960 . S
H863 C876 0.961 . S
H864 C876 0.959 . S
H865 C879 0.929 . S
H866 C880 0.931 . S
H867 C882 0.930 . S
C868 H856 0.930 . S
C868 C869 1.399 . S
C868 C873 1.399 . S
C869 C868 1.399 . S
C869 C870 1.376 . S
C870 H857 0.930 . S
C870 C869 1.376 . S
C870 C871 1.388 . S
C871 H858 0.930 . S
C871 C870 1.388 . S
C871 C872 1.390 . S
C872 C871 1.390 . S
C872 C873 1.394 . S
C872 C878 1.465 1_565 S
C873 C868 1.399 . S
C873 C872 1.394 . S
C873 C874 1.516 1_565 S
C874 C873 1.516 1_545 S
C874 C875 1.502 1_545 S
C874 C876 1.561 . S
C874 C877 1.526 . S
C875 H859 0.959 . S
C875 H860 0.959 . S
C875 H861 0.961 . S
C875 C874 1.502 1_565 S
C876 H862 0.960 . S
C876 H863 0.961 . S
C876 H864 0.959 . S
C876 C874 1.561 . S
C877 C874 1.526 . S
C877 C878 1.396 . S
C877 C882 1.390 . S
C878 C872 1.465 1_545 S
C878 C877 1.396 . S
C878 C879 1.399 . S
C879 H865 0.929 . S
C879 C878 1.399 . S
C879 C880 1.385 . S
C880 H866 0.931 . S
C880 C879 1.385 . S
C880 C881 1.389 . S
C881 C880 1.389 . S
C881 C882 1.387 . S
C882 H867 0.930 . S
C882 C877 1.390 . S
C882 C881 1.387 . S
H883 C895 0.930 . S
H884 C897 0.930 1_565 S
H885 C898 0.930 . S
H886 C902 0.959 . S
H887 C902 0.959 . S
H888 C902 0.961 . S
H889 C903 0.960 . S
H890 C903 0.961 . S
H891 C903 0.959 . S
H892 C906 0.929 . S
H893 C907 0.931 . S
H894 C909 0.930 1_545 S
C895 H883 0.930 . S
C895 C896 1.399 . S
C895 C900 1.399 . S
C896 C895 1.399 . S
C896 C897 1.376 . S
C897 H884 0.930 1_545 S
C897 C896 1.376 . S
C897 C898 1.388 1_545 S
C898 H885 0.930 . S
C898 C897 1.388 1_565 S
C898 C899 1.390 . S
C899 C898 1.390 . S
C899 C900 1.394 1_565 S
C899 C905 1.465 . S
C900 C895 1.399 . S
C900 C899 1.394 1_545 S
C900 C901 1.516 . S
C901 C900 1.516 . S
C901 C902 1.502 . S
C901 C903 1.561 . S
C901 C904 1.526 . S
C902 H886 0.959 . S
C902 H887 0.959 . S
C902 H888 0.961 . S
C902 C901 1.502 . S
C903 H889 0.960 . S
C903 H890 0.961 . S
C903 H891 0.959 . S
C903 C901 1.561 . S
C904 C901 1.526 . S
C904 C905 1.396 1_545 S
C904 C909 1.389 1_545 S
C905 C899 1.465 . S
C905 C904 1.396 1_565 S
C905 C906 1.399 . S
C906 H892 0.929 . S
C906 C905 1.399 . S
C906 C907 1.385 . S
C907 H893 0.931 . S
C907 C906 1.385 . S
C907 C908 1.389 . S
C908 C907 1.389 . S
C908 C909 1.387 . S
C909 H894 0.930 1_565 S
C909 C904 1.389 1_565 S
C909 C908 1.387 . S
H910 C922 0.930 1_565 S
H911 C924 0.930 . S
H912 C925 0.930 . S
H913 C929 0.959 . S
H914 C929 0.959 . S
H915 C929 0.961 . S
H916 C930 0.960 . S
H917 C930 0.961 . S
H918 C930 0.959 . S
H919 C933 0.929 . S
H920 C934 0.931 . S
H921 C936 0.930 . S
C922 H910 0.930 1_545 S
C922 C923 1.399 . S
C922 C927 1.402 . S
C923 C922 1.399 . S
C923 C924 1.376 . S
C924 H911 0.930 . S
C924 C923 1.376 . S
C924 C925 1.388 . S
C925 H912 0.930 . S
C925 C924 1.388 . S
C925 C926 1.390 . S
C926 C925 1.390 . S
C926 C927 1.399 . S
C926 C932 1.465 . S
C927 C922 1.402 . S
C927 C926 1.399 . S
C927 C928 1.508 1_545 S
C928 C927 1.508 1_565 S
C928 C929 1.502 . S
C928 C930 1.561 . S
C928 C931 1.526 . S
C929 H913 0.959 . S
C929 H914 0.959 . S
C929 H915 0.961 . S
C929 C928 1.502 . S
C930 H916 0.960 . S
C930 H917 0.961 . S
C930 H918 0.959 . S
C930 C928 1.561 . S
C931 C928 1.526 . S
C931 C932 1.396 1_565 S
C931 C936 1.390 . S
C932 C926 1.465 . S
C932 C931 1.396 1_545 S
C932 C933 1.399 . S
C933 H919 0.929 . S
C933 C932 1.399 . S
C933 C934 1.385 1_545 S
C934 H920 0.931 . S
C934 C933 1.385 1_565 S
C934 C935 1.389 . S
C935 C934 1.389 . S
C935 C936 1.387 . S
C936 H921 0.930 . S
C936 C931 1.390 . S
C936 C935 1.387 . S
H937 C949 0.930 . S
H938 C951 0.930 . S
H939 C952 0.930 . S
H940 C956 0.959 . S
H941 C956 0.959 . S
H942 C956 0.961 . S
H943 C957 0.960 . S
H944 C957 0.961 1_565 S
H945 C957 0.959 . S
H946 C960 0.929 1_545 S
H947 C961 0.931 . S
H948 C963 0.930 . S
C949 H937 0.930 . S
C949 C950 1.399 . S
C949 C954 1.399 . S
C950 C949 1.399 . S
C950 C951 1.376 . S
C951 H938 0.930 . S
C951 C950 1.376 . S
C951 C952 1.388 . S
C952 H939 0.930 . S
C952 C951 1.388 . S
C952 C953 1.390 . S
C953 C952 1.390 . S
C953 C954 1.394 . S
C953 C959 1.468 . S
C954 C949 1.399 . S
C954 C953 1.394 . S
C954 C955 1.516 1_545 S
C955 C954 1.516 1_565 S
C955 C956 1.502 . S
C955 C957 1.561 1_565 S
C955 C958 1.526 . S
C956 H940 0.959 . S
C956 H941 0.959 . S
C956 H942 0.961 . S
C956 C955 1.502 . S
C957 H943 0.960 . S
C957 H944 0.961 1_545 S
C957 H945 0.959 . S
C957 C955 1.561 1_545 S
C958 C955 1.526 . S
C958 C959 1.393 1_565 S
C958 C963 1.390 . S
C959 C953 1.468 . S
C959 C958 1.393 1_545 S
C959 C960 1.399 1_545 S
C960 H946 0.929 1_565 S
C960 C959 1.399 1_565 S
C960 C961 1.385 . S
C961 H947 0.931 . S
C961 C960 1.385 . S
C961 C962 1.389 . S
C962 C961 1.389 . S
C962 C963 1.387 . S
C963 H948 0.930 . S
C963 C958 1.390 . S
C963 C962 1.387 . S
H964 C976 0.930 . S
H965 C978 0.930 . S
H966 C979 0.930 . S
H967 C983 0.959 . S
H968 C983 0.959 . S
H969 C983 0.961 . S
H970 C984 0.960 . S
H971 C984 0.961 . S
H972 C984 0.959 . S
H973 C987 0.929 . S
H974 C988 0.931 . S
H975 C990 0.930 . S
C976 H964 0.930 . S
C976 C977 1.399 . S
C976 C981 1.399 . S
C977 C976 1.399 . S
C977 C978 1.376 . S
C978 H965 0.930 . S
C978 C977 1.376 . S
C978 C979 1.388 . S
C979 H966 0.930 . S
C979 C978 1.388 . S
C979 C980 1.390 . S
C980 C979 1.390 . S
C980 C981 1.394 . S
C980 C986 1.465 . S
C981 C976 1.399 . S
C981 C980 1.394 . S
C981 C982 1.516 . S
C982 C981 1.516 . S
C982 C983 1.502 . S
C982 C984 1.561 . S
C982 C985 1.526 . S
C983 H967 0.959 . S
C983 H968 0.959 . S
C983 H969 0.961 . S
C983 C982 1.502 . S
C984 H970 0.960 . S
C984 H971 0.961 . S
C984 H972 0.959 . S
C984 C982 1.561 . S
C985 C982 1.526 . S
C985 C986 1.396 . S
C985 C990 1.390 . S
C986 C980 1.465 . S
C986 C985 1.396 . S
C986 C987 1.399 . S
C987 H973 0.929 . S
C987 C986 1.399 . S
C987 C988 1.385 . S
C988 H974 0.931 . S
C988 C987 1.385 . S
C988 C989 1.389 . S
C989 C988 1.389 . S
C989 C990 1.387 . S
C990 H975 0.930 . S
C990 C985 1.390 . S
C990 C989 1.387 . S
H991 C1003 0.930 . S
H992 C1005 0.930 . S
H993 C1006 0.930 . S
H994 C1010 0.959 . S
H995 C1010 0.959 . S
H996 C1010 0.961 . S
H997 C1011 0.960 . S
H998 C1011 0.961 . S
H999 C1011 0.959 . S
H1000 C1014 0.929 . S
H1001 C1015 0.931 . S
H1002 C1017 0.930 . S
C1003 H991 0.930 . S
C1003 C1004 1.399 . S
C1003 C1008 1.399 . S
C1004 C1003 1.399 . S
C1004 C1005 1.376 . S
C1005 H992 0.930 . S
C1005 C1004 1.376 . S
C1005 C1006 1.388 . S
C1006 H993 0.930 . S
C1006 C1005 1.388 . S
C1006 C1007 1.390 . S
C1007 C1006 1.390 . S
C1007 C1008 1.394 . S
C1007 C1013 1.465 . S
C1008 C1003 1.399 . S
C1008 C1007 1.394 . S
C1008 C1009 1.516 . S
C1009 C1008 1.516 . S
C1009 C1010 1.502 . S
C1009 C1011 1.561 . S
C1009 C1012 1.526 . S
C1010 H994 0.959 . S
C1010 H995 0.959 . S
C1010 H996 0.961 . S
C1010 C1009 1.502 . S
C1011 H997 0.960 . S
C1011 H998 0.961 . S
C1011 H999 0.959 . S
C1011 C1009 1.561 . S
C1012 C1009 1.526 . S
C1012 C1013 1.396 . S
C1012 C1017 1.390 . S
C1013 C1007 1.465 . S
C1013 C1012 1.396 . S
C1013 C1014 1.399 . S
C1014 H1000 0.929 . S
C1014 C1013 1.399 . S
C1014 C1015 1.385 . S
C1015 H1001 0.931 . S
C1015 C1014 1.385 . S
C1015 C1016 1.389 . S
C1016 C1015 1.389 . S
C1016 C1017 1.387 . S
C1017 H1002 0.930 . S
C1017 C1012 1.390 . S
C1017 C1016 1.387 . S
H1018 C1030 0.930 . S
H1019 C1032 0.930 . S
H1020 C1033 0.930 . S
H1021 C1037 0.959 . S
H1022 C1037 0.959 . S
H1023 C1037 0.961 . S
H1024 C1038 0.960 . S
H1025 C1038 0.961 . S
H1026 C1038 0.959 . S
H1027 C1041 0.929 . S
H1028 C1042 0.931 . S
H1029 C1044 0.930 . S
C1030 H1018 0.930 . S
C1030 C1031 1.399 . S
C1030 C1035 1.399 . S
C1031 C1030 1.399 . S
C1031 C1032 1.376 . S
C1032 H1019 0.930 . S
C1032 C1031 1.376 . S
C1032 C1033 1.388 . S
C1033 H1020 0.930 . S
C1033 C1032 1.388 . S
C1033 C1034 1.390 . S
C1034 C1033 1.390 . S
C1034 C1035 1.394 . S
C1034 C1040 1.465 . S
C1035 C1030 1.399 . S
C1035 C1034 1.394 . S
C1035 C1036 1.516 . S
C1036 C1035 1.516 . S
C1036 C1037 1.502 . S
C1036 C1038 1.561 . S
C1036 C1039 1.526 . S
C1037 H1021 0.959 . S
C1037 H1022 0.959 . S
C1037 H1023 0.961 . S
C1037 C1036 1.502 . S
C1038 H1024 0.960 . S
C1038 H1025 0.961 . S
C1038 H1026 0.959 . S
C1038 C1036 1.561 . S
C1039 C1036 1.526 . S
C1039 C1040 1.396 . S
C1039 C1044 1.390 . S
C1040 C1034 1.465 . S
C1040 C1039 1.396 . S
C1040 C1041 1.399 . S
C1041 H1027 0.929 . S
C1041 C1040 1.399 . S
C1041 C1042 1.385 . S
C1042 H1028 0.931 . S
C1042 C1041 1.385 . S
C1042 C1043 1.389 . S
C1043 C1042 1.389 . S
C1043 C1044 1.387 . S
C1044 H1029 0.930 . S
C1044 C1039 1.390 . S
C1044 C1043 1.387 . S
H1045 C1057 0.930 . S
H1046 C1059 0.930 . S
H1047 C1060 0.930 . S
H1048 C1064 0.959 . S
H1049 C1064 0.959 . S
H1050 C1064 0.961 . S
H1051 C1065 0.960 . S
H1052 C1065 0.961 . S
H1053 C1065 0.959 . S
H1054 C1068 0.929 . S
H1055 C1069 0.931 . S
H1056 C1071 0.930 . S
C1057 H1045 0.930 . S
C1057 C1058 1.399 . S
C1057 C1062 1.399 . S
C1058 C1057 1.399 . S
C1058 C1059 1.376 . S
C1059 H1046 0.930 . S
C1059 C1058 1.376 . S
C1059 C1060 1.388 . S
C1060 H1047 0.930 . S
C1060 C1059 1.388 . S
C1060 C1061 1.390 . S
C1061 C1060 1.390 . S
C1061 C1062 1.394 . S
C1061 C1067 1.465 . S
C1062 C1057 1.399 . S
C1062 C1061 1.394 . S
C1062 C1063 1.516 . S
C1063 C1062 1.516 . S
C1063 C1064 1.502 . S
C1063 C1065 1.561 . S
C1063 C1066 1.526 . S
C1064 H1048 0.959 . S
C1064 H1049 0.959 . S
C1064 H1050 0.961 . S
C1064 C1063 1.502 . S
C1065 H1051 0.960 . S
C1065 H1052 0.961 . S
C1065 H1053 0.959 . S
C1065 C1063 1.561 . S
C1066 C1063 1.526 . S
C1066 C1067 1.396 . S
C1066 C1071 1.390 . S
C1067 C1061 1.465 . S
C1067 C1066 1.396 . S
C1067 C1068 1.399 . S
C1068 H1054 0.929 . S
C1068 C1067 1.399 . S
C1068 C1069 1.385 . S
C1069 H1055 0.931 . S
C1069 C1068 1.385 . S
C1069 C1070 1.389 . S
C1070 C1069 1.389 . S
C1070 C1071 1.387 . S
C1071 H1056 0.930 . S
C1071 C1066 1.390 . S
C1071 C1070 1.387 . S
H1072 C1084 0.930 . S
H1073 C1086 0.930 . S
H1074 C1087 0.930 . S
H1075 C1091 0.962 . S
H1076 C1091 0.979 . S
H1077 C1091 0.940 1_556 S
H1078 C1092 0.958 1_556 S
H1079 C1092 0.963 . S
H1080 C1092 0.959 . S
H1081 C1095 0.929 . S
H1082 C1096 0.931 . S
H1083 C1098 0.930 . S
C1084 H1072 0.930 . S
C1084 C1085 1.399 . S
C1084 C1089 1.399 . S
C1085 C1084 1.399 . S
C1085 C1086 1.376 . S
C1086 H1073 0.930 . S
C1086 C1085 1.376 . S
C1086 C1087 1.388 . S
C1087 H1074 0.930 . S
C1087 C1086 1.388 . S
C1087 C1088 1.390 . S
C1088 C1087 1.390 . S
C1088 C1089 1.394 . S
C1088 C1094 1.465 1_556 S
C1089 C1084 1.399 . S
C1089 C1088 1.394 . S
C1089 C1090 1.517 1_556 S
C1090 C1089 1.517 1_554 S
C1090 C1091 1.502 . S
C1090 C1092 1.561 . S
C1090 C1093 1.525 . S
C1091 H1075 0.962 . S
C1091 H1076 0.979 . S
C1091 H1077 0.940 1_554 S
C1091 C1090 1.502 . S
C1092 H1078 0.958 1_554 S
C1092 H1079 0.963 . S
C1092 H1080 0.959 . S
C1092 C1090 1.561 . S
C1093 C1090 1.525 . S
C1093 C1094 1.396 . S
C1093 C1098 1.390 . S
C1094 C1088 1.465 1_554 S
C1094 C1093 1.396 . S
C1094 C1095 1.399 . S
C1095 H1081 0.929 . S
C1095 C1094 1.399 . S
C1095 C1096 1.385 . S
C1096 H1082 0.931 . S
C1096 C1095 1.385 . S
C1096 C1097 1.389 . S
C1097 C1096 1.389 . S
C1097 C1098 1.387 . S
C1098 H1083 0.930 . S
C1098 C1093 1.390 . S
C1098 C1097 1.387 . S
H1099 C1111 0.930 . S
H1100 C1113 0.930 . S
H1101 C1114 0.930 . S
H1102 C1118 0.962 . S
H1103 C1118 0.979 . S
H1104 C1118 0.940 1_556 S
H1105 C1119 0.958 1_546 S
H1106 C1119 0.963 1_545 S
H1107 C1119 0.959 . S
H1108 C1122 0.929 . S
H1109 C1123 0.931 . S
H1110 C1125 0.930 . S
C1111 H1099 0.930 . S
C1111 C1112 1.399 . S
C1111 C1116 1.399 . S
C1112 C1111 1.399 . S
C1112 C1113 1.376 . S
C1113 H1100 0.930 . S
C1113 C1112 1.376 . S
C1113 C1114 1.388 . S
C1114 H1101 0.930 . S
C1114 C1113 1.388 . S
C1114 C1115 1.390 . S
C1115 C1114 1.390 . S
C1115 C1116 1.394 . S
C1115 C1121 1.465 1_556 S
C1116 C1111 1.399 . S
C1116 C1115 1.394 . S
C1116 C1117 1.517 1_556 S
C1117 C1116 1.517 1_554 S
C1117 C1118 1.502 . S
C1117 C1119 1.561 . S
C1117 C1120 1.525 . S
C1118 H1102 0.962 . S
C1118 H1103 0.979 . S
C1118 H1104 0.940 1_554 S
C1118 C1117 1.502 . S
C1119 H1105 0.958 1_564 S
C1119 H1106 0.963 1_565 S
C1119 H1107 0.959 . S
C1119 C1117 1.561 . S
C1120 C1117 1.525 . S
C1120 C1121 1.396 . S
C1120 C1125 1.390 . S
C1121 C1115 1.465 1_554 S
C1121 C1120 1.396 . S
C1121 C1122 1.399 . S
C1122 H1108 0.929 . S
C1122 C1121 1.399 . S
C1122 C1123 1.385 . S
C1123 H1109 0.931 . S
C1123 C1122 1.385 . S
C1123 C1124 1.389 . S
C1124 C1123 1.389 . S
C1124 C1125 1.387 . S
C1125 H1110 0.930 . S
C1125 C1120 1.390 . S
C1125 C1124 1.387 . S
H1126 C1138 0.930 . S
H1127 C1140 0.930 . S
H1128 C1141 0.930 . S
H1129 C1145 0.959 . S
H1130 C1145 0.966 . S
H1131 C1145 0.961 . S
H1132 C1146 0.960 1_545 S
H1133 C1146 0.961 1_545 S
H1134 C1146 0.959 . S
H1135 C1149 0.929 . S
H1136 C1150 0.931 . S
H1137 C1152 0.930 . S
C1138 H1126 0.930 . S
C1138 C1139 1.399 . S
C1138 C1143 1.399 . S
C1139 C1138 1.399 . S
C1139 C1140 1.376 . S
C1140 H1127 0.930 . S
C1140 C1139 1.376 . S
C1140 C1141 1.388 . S
C1141 H1128 0.930 . S
C1141 C1140 1.388 . S
C1141 C1142 1.390 . S
C1142 C1141 1.390 . S
C1142 C1143 1.394 . S
C1142 C1148 1.465 . S
C1143 C1138 1.399 . S
C1143 C1142 1.394 . S
C1143 C1144 1.516 . S
C1144 C1143 1.516 . S
C1144 C1145 1.502 . S
C1144 C1146 1.561 . S
C1144 C1147 1.526 . S
C1145 H1129 0.959 . S
C1145 H1130 0.966 . S
C1145 H1131 0.961 . S
C1145 C1144 1.502 . S
C1146 H1132 0.960 1_565 S
C1146 H1133 0.961 1_565 S
C1146 H1134 0.959 . S
C1146 C1144 1.561 . S
C1147 C1144 1.526 . S
C1147 C1148 1.396 . S
C1147 C1152 1.390 . S
C1148 C1142 1.465 . S
C1148 C1147 1.396 . S
C1148 C1149 1.399 . S
C1149 H1135 0.929 . S
C1149 C1148 1.399 . S
C1149 C1150 1.385 . S
C1150 H1136 0.931 . S
C1150 C1149 1.385 . S
C1150 C1151 1.389 . S
C1151 C1150 1.389 . S
C1151 C1152 1.387 . S
C1152 H1137 0.930 . S
C1152 C1147 1.390 . S
C1152 C1151 1.387 . S
H1153 C1165 0.930 . S
H1154 C1167 0.930 . S
H1155 C1168 0.930 . S
H1156 C1172 0.959 . S
H1157 C1172 0.959 . S
H1158 C1172 0.961 . S
H1159 C1173 0.960 . S
H1160 C1173 0.961 . S
H1161 C1173 0.959 . S
H1162 C1176 0.929 . S
H1163 C1177 0.931 . S
H1164 C1179 0.930 . S
C1165 H1153 0.930 . S
C1165 C1166 1.399 . S
C1165 C1170 1.399 . S
C1166 C1165 1.399 . S
C1166 C1167 1.376 . S
C1167 H1154 0.930 . S
C1167 C1166 1.376 . S
C1167 C1168 1.388 . S
C1168 H1155 0.930 . S
C1168 C1167 1.388 . S
C1168 C1169 1.390 . S
C1169 C1168 1.390 . S
C1169 C1170 1.394 . S
C1169 C1175 1.465 . S
C1170 C1165 1.399 . S
C1170 C1169 1.394 . S
C1170 C1171 1.516 . S
C1171 C1170 1.516 . S
C1171 C1172 1.502 . S
C1171 C1173 1.561 . S
C1171 C1174 1.526 . S
C1172 H1156 0.959 . S
C1172 H1157 0.959 . S
C1172 H1158 0.961 . S
C1172 C1171 1.502 . S
C1173 H1159 0.960 . S
C1173 H1160 0.961 . S
C1173 H1161 0.959 . S
C1173 C1171 1.561 . S
C1174 C1171 1.526 . S
C1174 C1175 1.396 . S
C1174 C1179 1.390 . S
C1175 C1169 1.465 . S
C1175 C1174 1.396 . S
C1175 C1176 1.399 . S
C1176 H1162 0.929 . S
C1176 C1175 1.399 . S
C1176 C1177 1.385 . S
C1177 H1163 0.931 . S
C1177 C1176 1.385 . S
C1177 C1178 1.389 . S
C1178 C1177 1.389 . S
C1178 C1179 1.387 . S
C1179 H1164 0.930 . S
C1179 C1174 1.390 . S
C1179 C1178 1.387 . S
H1180 C1192 0.930 . S
H1181 C1194 0.930 . S
H1182 C1195 0.930 . S
H1183 C1199 0.962 . S
H1184 C1199 0.979 . S
H1185 C1199 0.940 1_554 S
H1186 C1200 0.958 1_554 S
H1187 C1200 0.963 . S
H1188 C1200 0.959 . S
H1189 C1203 0.929 . S
H1190 C1204 0.931 . S
H1191 C1206 0.930 . S
C1192 H1180 0.930 . S
C1192 C1193 1.399 . S
C1192 C1197 1.399 . S
C1193 C1192 1.399 . S
C1193 C1194 1.376 . S
C1194 H1181 0.930 . S
C1194 C1193 1.376 . S
C1194 C1195 1.388 . S
C1195 H1182 0.930 . S
C1195 C1194 1.388 . S
C1195 C1196 1.390 . S
C1196 C1195 1.390 . S
C1196 C1197 1.394 . S
C1196 C1202 1.465 1_554 S
C1197 C1192 1.399 . S
C1197 C1196 1.394 . S
C1197 C1198 1.517 1_554 S
C1198 C1197 1.517 1_556 S
C1198 C1199 1.502 . S
C1198 C1200 1.561 . S
C1198 C1201 1.525 . S
C1199 H1183 0.962 . S
C1199 H1184 0.979 . S
C1199 H1185 0.940 1_556 S
C1199 C1198 1.502 . S
C1200 H1186 0.958 1_556 S
C1200 H1187 0.963 . S
C1200 H1188 0.959 . S
C1200 C1198 1.561 . S
C1201 C1198 1.525 . S
C1201 C1202 1.396 . S
C1201 C1206 1.390 . S
C1202 C1196 1.465 1_556 S
C1202 C1201 1.396 . S
C1202 C1203 1.399 . S
C1203 H1189 0.929 . S
C1203 C1202 1.399 . S
C1203 C1204 1.385 . S
C1204 H1190 0.931 . S
C1204 C1203 1.385 . S
C1204 C1205 1.389 . S
C1205 C1204 1.389 . S
C1205 C1206 1.387 . S
C1206 H1191 0.930 . S
C1206 C1201 1.390 . S
C1206 C1205 1.387 . S
H1207 C1219 0.930 . S
H1208 C1221 0.930 . S
H1209 C1222 0.930 . S
H1210 C1226 0.962 . S
H1211 C1226 0.979 . S
H1212 C1226 0.940 1_556 S
H1213 C1227 0.958 1_556 S
H1214 C1227 0.963 . S
H1215 C1227 0.959 . S
H1216 C1230 0.929 . S
H1217 C1231 0.931 . S
H1218 C1233 0.930 . S
C1219 H1207 0.930 . S
C1219 C1220 1.399 . S
C1219 C1224 1.399 . S
C1220 C1219 1.399 . S
C1220 C1221 1.376 . S
C1221 H1208 0.930 . S
C1221 C1220 1.376 . S
C1221 C1222 1.388 . S
C1222 H1209 0.930 . S
C1222 C1221 1.388 . S
C1222 C1223 1.390 . S
C1223 C1222 1.390 . S
C1223 C1224 1.394 . S
C1223 C1229 1.465 1_556 S
C1224 C1219 1.399 . S
C1224 C1223 1.394 . S
C1224 C1225 1.517 1_556 S
C1225 C1224 1.517 1_554 S
C1225 C1226 1.502 . S
C1225 C1227 1.561 . S
C1225 C1228 1.525 . S
C1226 H1210 0.962 . S
C1226 H1211 0.979 . S
C1226 H1212 0.940 1_554 S
C1226 C1225 1.502 . S
C1227 H1213 0.958 1_554 S
C1227 H1214 0.963 . S
C1227 H1215 0.959 . S
C1227 C1225 1.561 . S
C1228 C1225 1.525 . S
C1228 C1229 1.396 . S
C1228 C1233 1.390 . S
C1229 C1223 1.465 1_554 S
C1229 C1228 1.396 . S
C1229 C1230 1.399 . S
C1230 H1216 0.929 . S
C1230 C1229 1.399 . S
C1230 C1231 1.385 . S
C1231 H1217 0.931 . S
C1231 C1230 1.385 . S
C1231 C1232 1.389 . S
C1232 C1231 1.389 . S
C1232 C1233 1.387 . S
C1233 H1218 0.930 . S
C1233 C1228 1.390 . S
C1233 C1232 1.387 . S
H1234 C1246 0.930 . S
H1235 C1248 0.930 . S
H1236 C1249 0.930 . S
H1237 C1253 0.959 . S
H1238 C1253 0.959 . S
H1239 C1253 0.961 . S
H1240 C1254 0.960 . S
H1241 C1254 0.961 . S
H1242 C1254 0.959 . S
H1243 C1257 0.929 . S
H1244 C1258 0.931 . S
H1245 C1260 0.930 . S
C1246 H1234 0.930 . S
C1246 C1247 1.399 . S
C1246 C1251 1.399 . S
C1247 C1246 1.399 . S
C1247 C1248 1.376 . S
C1248 H1235 0.930 . S
C1248 C1247 1.376 . S
C1248 C1249 1.388 . S
C1249 H1236 0.930 . S
C1249 C1248 1.388 . S
C1249 C1250 1.390 . S
C1250 C1249 1.390 . S
C1250 C1251 1.394 . S
C1250 C1256 1.465 . S
C1251 C1246 1.399 . S
C1251 C1250 1.394 . S
C1251 C1252 1.516 . S
C1252 C1251 1.516 . S
C1252 C1253 1.502 . S
C1252 C1254 1.561 . S
C1252 C1255 1.526 . S
C1253 H1237 0.959 . S
C1253 H1238 0.959 . S
C1253 H1239 0.961 . S
C1253 C1252 1.502 . S
C1254 H1240 0.960 . S
C1254 H1241 0.961 . S
C1254 H1242 0.959 . S
C1254 C1252 1.561 . S
C1255 C1252 1.526 . S
C1255 C1256 1.396 . S
C1255 C1260 1.390 . S
C1256 C1250 1.465 . S
C1256 C1255 1.396 . S
C1256 C1257 1.399 . S
C1257 H1243 0.929 . S
C1257 C1256 1.399 . S
C1257 C1258 1.385 . S
C1258 H1244 0.931 . S
C1258 C1257 1.385 . S
C1258 C1259 1.389 . S
C1259 C1258 1.389 . S
C1259 C1260 1.387 . S
C1260 H1245 0.930 . S
C1260 C1255 1.390 . S
C1260 C1259 1.387 . S
H1261 C1273 0.930 . S
H1262 C1275 0.930 . S
H1263 C1276 0.930 . S
H1264 C1280 0.959 . S
H1265 C1280 0.959 . S
H1266 C1280 0.961 . S
H1267 C1281 0.960 . S
H1268 C1281 0.961 . S
H1269 C1281 0.959 . S
H1270 C1284 0.929 . S
H1271 C1285 0.931 . S
H1272 C1287 0.930 . S
C1273 H1261 0.930 . S
C1273 C1274 1.399 . S
C1273 C1278 1.399 . S
C1274 C1273 1.399 . S
C1274 C1275 1.376 . S
C1275 H1262 0.930 . S
C1275 C1274 1.376 . S
C1275 C1276 1.388 . S
C1276 H1263 0.930 . S
C1276 C1275 1.388 . S
C1276 C1277 1.390 . S
C1277 C1276 1.390 . S
C1277 C1278 1.394 . S
C1277 C1283 1.465 . S
C1278 C1273 1.399 . S
C1278 C1277 1.394 . S
C1278 C1279 1.516 . S
C1279 C1278 1.516 . S
C1279 C1280 1.502 . S
C1279 C1281 1.561 . S
C1279 C1282 1.526 . S
C1280 H1264 0.959 . S
C1280 H1265 0.959 . S
C1280 H1266 0.961 . S
C1280 C1279 1.502 . S
C1281 H1267 0.960 . S
C1281 H1268 0.961 . S
C1281 H1269 0.959 . S
C1281 C1279 1.561 . S
C1282 C1279 1.526 . S
C1282 C1283 1.396 . S
C1282 C1287 1.390 . S
C1283 C1277 1.465 . S
C1283 C1282 1.396 . S
C1283 C1284 1.399 . S
C1284 H1270 0.929 . S
C1284 C1283 1.399 . S
C1284 C1285 1.385 . S
C1285 H1271 0.931 . S
C1285 C1284 1.385 . S
C1285 C1286 1.389 . S
C1286 C1285 1.389 . S
C1286 C1287 1.387 . S
C1287 H1272 0.930 . S
C1287 C1282 1.390 . S
C1287 C1286 1.387 . S
H1288 C1300 0.930 . S
H1289 C1302 0.930 . S
H1290 C1303 0.930 . S
H1291 C1307 0.959 . S
H1292 C1307 0.959 1_455 S
H1293 C1307 0.961 . S
H1294 C1308 0.960 1_655 S
H1295 C1308 0.961 . S
H1296 C1308 0.959 . S
H1297 C1311 0.929 . S
H1298 C1312 0.931 . S
H1299 C1314 0.930 . S
C1300 H1288 0.930 . S
C1300 C1301 1.399 . S
C1300 C1305 1.399 . S
C1301 C1300 1.399 . S
C1301 C1302 1.376 . S
C1302 H1289 0.930 . S
C1302 C1301 1.376 . S
C1302 C1303 1.388 . S
C1303 H1290 0.930 . S
C1303 C1302 1.388 . S
C1303 C1304 1.390 . S
C1304 C1303 1.390 . S
C1304 C1305 1.394 . S
C1304 C1310 1.465 1_655 S
C1305 C1300 1.399 . S
C1305 C1304 1.394 . S
C1305 C1306 1.541 1_565 S
C1306 C1305 1.541 1_545 S
C1306 C1307 1.507 . S
C1306 C1308 1.557 1_645 S
C1306 C1309 1.499 1_655 S
C1307 H1291 0.959 . S
C1307 H1292 0.959 1_655 S
C1307 H1293 0.961 . S
C1307 C1306 1.507 . S
C1308 H1294 0.960 1_455 S
C1308 H1295 0.961 . S
C1308 H1296 0.959 . S
C1308 C1306 1.557 1_465 S
C1309 C1306 1.499 1_455 S
C1309 C1310 1.396 1_545 S
C1309 C1314 1.390 . S
C1310 C1304 1.465 1_455 S
C1310 C1309 1.396 1_565 S
C1310 C1311 1.399 . S
C1311 H1297 0.929 . S
C1311 C1310 1.399 . S
C1311 C1312 1.385 1_565 S
C1312 H1298 0.931 . S
C1312 C1311 1.385 1_545 S
C1312 C1313 1.389 . S
C1313 C1312 1.389 . S
C1313 C1314 1.387 . S
C1314 H1299 0.930 . S
C1314 C1309 1.390 . S
C1314 C1313 1.387 . S
H1315 C1327 0.930 . S
H1316 C1329 0.930 . S
H1317 C1330 0.930 . S
H1318 C1334 0.959 . S
H1319 C1334 0.959 . S
H1320 C1334 0.961 1_655 S
H1321 C1335 0.960 1_655 S
H1322 C1335 0.961 . S
H1323 C1335 0.959 . S
H1324 C1338 0.929 . S
H1325 C1339 0.931 . S
H1326 C1341 0.930 . S
C1327 H1315 0.930 . S
C1327 C1328 1.399 . S
C1327 C1332 1.399 . S
C1328 C1327 1.399 . S
C1328 C1329 1.376 1_545 S
C1329 H1316 0.930 . S
C1329 C1328 1.376 1_565 S
C1329 C1330 1.388 . S
C1330 H1317 0.930 . S
C1330 C1329 1.388 . S
C1330 C1331 1.390 . S
C1331 C1330 1.390 . S
C1331 C1332 1.394 1_565 S
C1331 C1337 1.465 1_655 S
C1332 C1327 1.399 . S
C1332 C1331 1.394 1_545 S
C1332 C1333 1.516 1_655 S
C1333 C1332 1.516 1_455 S
C1333 C1334 1.502 . S
C1333 C1335 1.561 . S
C1333 C1336 1.526 . S
C1334 H1318 0.959 . S
C1334 H1319 0.959 . S
C1334 H1320 0.961 1_455 S
C1334 C1333 1.502 . S
C1335 H1321 0.960 1_455 S
C1335 H1322 0.961 . S
C1335 H1323 0.959 . S
C1335 C1333 1.561 . S
C1336 C1333 1.526 . S
C1336 C1337 1.396 1_545 S
C1336 C1341 1.390 . S
C1337 C1331 1.465 1_455 S
C1337 C1336 1.396 1_565 S
C1337 C1338 1.399 . S
C1338 H1324 0.929 . S
C1338 C1337 1.399 . S
C1338 C1339 1.385 . S
C1339 H1325 0.931 . S
C1339 C1338 1.385 . S
C1339 C1340 1.389 . S
C1340 C1339 1.389 . S
C1340 C1341 1.387 1_565 S
C1341 H1326 0.930 . S
C1341 C1336 1.390 . S
C1341 C1340 1.387 1_545 S
H1342 C1354 0.930 . S
H1343 C1356 0.930 . S
H1344 C1357 0.930 . S
H1345 C1361 0.959 . S
H1346 C1361 0.959 . S
H1347 C1361 0.961 1_455 S
H1348 C1362 0.960 . S
H1349 C1362 0.961 1_655 S
H1350 C1362 0.959 . S
H1351 C1365 0.929 . S
H1352 C1366 0.931 . S
H1353 C1368 0.928 1_545 S
C1354 H1342 0.930 . S
C1354 C1355 1.399 . S
C1354 C1359 1.399 . S
C1355 C1354 1.399 . S
C1355 C1356 1.376 1_545 S
C1356 H1343 0.930 . S
C1356 C1355 1.376 1_565 S
C1356 C1357 1.388 . S
C1357 H1344 0.930 . S
C1357 C1356 1.388 . S
C1357 C1358 1.390 . S
C1358 C1357 1.390 . S
C1358 C1359 1.394 1_565 S
C1358 C1364 1.465 1_455 S
C1359 C1354 1.399 . S
C1359 C1358 1.394 1_545 S
C1359 C1360 1.516 1_455 S
C1360 C1359 1.516 1_655 S
C1360 C1361 1.502 . S
C1360 C1362 1.561 1_645 S
C1360 C1363 1.526 1_545 S
C1361 H1345 0.959 . S
C1361 H1346 0.959 . S
C1361 H1347 0.961 1_655 S
C1361 C1360 1.502 . S
C1362 H1348 0.960 . S
C1362 H1349 0.961 1_455 S
C1362 H1350 0.959 . S
C1362 C1360 1.561 1_465 S
C1363 C1360 1.526 1_565 S
C1363 C1364 1.396 . S
C1363 C1368 1.390 . S
C1364 C1358 1.465 1_655 S
C1364 C1363 1.396 . S
C1364 C1365 1.399 . S
C1365 H1351 0.929 . S
C1365 C1364 1.399 . S
C1365 C1366 1.385 . S
C1366 H1352 0.931 . S
C1366 C1365 1.385 . S
C1366 C1367 1.389 . S
C1367 C1366 1.389 . S
C1367 C1368 1.387 . S
C1368 H1353 0.928 1_565 S
C1368 C1363 1.390 . S
C1368 C1367 1.387 . S
H1369 C1381 0.930 . S
H1370 C1383 0.930 . S
H1371 C1384 0.930 . S
H1372 C1388 0.959 . S
H1373 C1388 0.959 . S
H1374 C1388 0.961 1_655 S
H1375 C1389 0.952 1_655 S
H1376 C1389 0.970 . S
H1377 C1389 0.958 1_665 S
H1378 C1392 0.929 . S
H1379 C1393 0.931 . S
H1380 C1395 0.929 . S
C1381 H1369 0.930 . S
C1381 C1382 1.399 . S
C1381 C1386 1.399 . S
C1382 C1381 1.399 . S
C1382 C1383 1.376 1_545 S
C1383 H1370 0.930 . S
C1383 C1382 1.376 1_565 S
C1383 C1384 1.388 . S
C1384 H1371 0.930 . S
C1384 C1383 1.388 . S
C1384 C1385 1.390 . S
C1385 C1384 1.390 . S
C1385 C1386 1.394 1_565 S
C1385 C1391 1.465 1_655 S
C1386 C1381 1.399 . S
C1386 C1385 1.394 1_545 S
C1386 C1387 1.516 1_655 S
C1387 C1386 1.516 1_455 S
C1387 C1388 1.502 . S
C1387 C1389 1.562 . S
C1387 C1390 1.526 . S
C1388 H1372 0.959 . S
C1388 H1373 0.959 . S
C1388 H1374 0.961 1_455 S
C1388 C1387 1.502 . S
C1389 H1375 0.952 1_455 S
C1389 H1376 0.970 . S
C1389 H1377 0.958 1_445 S
C1389 C1387 1.562 . S
C1390 C1387 1.526 . S
C1390 C1391 1.396 1_545 S
C1390 C1395 1.389 . S
C1391 C1385 1.465 1_455 S
C1391 C1390 1.396 1_565 S
C1391 C1392 1.399 . S
C1392 H1378 0.929 . S
C1392 C1391 1.399 . S
C1392 C1393 1.385 . S
C1393 H1379 0.931 . S
C1393 C1392 1.385 . S
C1393 C1394 1.389 . S
C1394 C1393 1.389 . S
C1394 C1395 1.388 1_565 S
C1395 H1380 0.929 . S
C1395 C1390 1.389 . S
C1395 C1394 1.388 1_545 S
H1396 C1408 0.930 . S
H1397 C1410 0.930 . S
H1398 C1411 0.930 . S
H1399 C1415 0.959 . S
H1400 C1415 0.959 . S
H1401 C1415 0.961 . S
H1402 C1416 0.960 . S
H1403 C1416 0.961 . S
H1404 C1416 0.959 . S
H1405 C1419 0.929 . S
H1406 C1420 0.931 . S
H1407 C1422 0.930 . S
C1408 H1396 0.930 . S
C1408 C1409 1.399 . S
C1408 C1413 1.399 . S
C1409 C1408 1.399 . S
C1409 C1410 1.376 . S
C1410 H1397 0.930 . S
C1410 C1409 1.376 . S
C1410 C1411 1.388 . S
C1411 H1398 0.930 . S
C1411 C1410 1.388 . S
C1411 C1412 1.390 . S
C1412 C1411 1.390 . S
C1412 C1413 1.394 . S
C1412 C1418 1.465 . S
C1413 C1408 1.399 . S
C1413 C1412 1.394 . S
C1413 C1414 1.516 . S
C1414 C1413 1.516 . S
C1414 C1415 1.502 . S
C1414 C1416 1.561 . S
C1414 C1417 1.526 . S
C1415 H1399 0.959 . S
C1415 H1400 0.959 . S
C1415 H1401 0.961 . S
C1415 C1414 1.502 . S
C1416 H1402 0.960 . S
C1416 H1403 0.961 . S
C1416 H1404 0.959 . S
C1416 C1414 1.561 . S
C1417 C1414 1.526 . S
C1417 C1418 1.396 . S
C1417 C1422 1.390 . S
C1418 C1412 1.465 . S
C1418 C1417 1.396 . S
C1418 C1419 1.399 . S
C1419 H1405 0.929 . S
C1419 C1418 1.399 . S
C1419 C1420 1.385 . S
C1420 H1406 0.931 . S
C1420 C1419 1.385 . S
C1420 C1421 1.389 . S
C1421 C1420 1.389 . S
C1421 C1422 1.387 . S
C1422 H1407 0.930 . S
C1422 C1417 1.390 . S
C1422 C1421 1.387 . S
H1423 C1435 0.930 . S
H1424 C1437 0.930 . S
H1425 C1438 0.930 . S
H1426 C1442 0.959 . S
H1427 C1442 0.959 . S
H1428 C1442 0.961 . S
H1429 C1443 0.960 . S
H1430 C1443 0.961 . S
H1431 C1443 0.959 . S
H1432 C1446 0.929 . S
H1433 C1447 0.931 . S
H1434 C1449 0.930 . S
C1435 H1423 0.930 . S
C1435 C1436 1.399 . S
C1435 C1440 1.399 . S
C1436 C1435 1.399 . S
C1436 C1437 1.376 . S
C1437 H1424 0.930 . S
C1437 C1436 1.376 . S
C1437 C1438 1.388 . S
C1438 H1425 0.930 . S
C1438 C1437 1.388 . S
C1438 C1439 1.390 . S
C1439 C1438 1.390 . S
C1439 C1440 1.394 . S
C1439 C1445 1.465 . S
C1440 C1435 1.399 . S
C1440 C1439 1.394 . S
C1440 C1441 1.516 . S
C1441 C1440 1.516 . S
C1441 C1442 1.502 . S
C1441 C1443 1.561 . S
C1441 C1444 1.526 . S
C1442 H1426 0.959 . S
C1442 H1427 0.959 . S
C1442 H1428 0.961 . S
C1442 C1441 1.502 . S
C1443 H1429 0.960 . S
C1443 H1430 0.961 . S
C1443 H1431 0.959 . S
C1443 C1441 1.561 . S
C1444 C1441 1.526 . S
C1444 C1445 1.396 . S
C1444 C1449 1.390 . S
C1445 C1439 1.465 . S
C1445 C1444 1.396 . S
C1445 C1446 1.399 . S
C1446 H1432 0.929 . S
C1446 C1445 1.399 . S
C1446 C1447 1.385 . S
C1447 H1433 0.931 . S
C1447 C1446 1.385 . S
C1447 C1448 1.389 . S
C1448 C1447 1.389 . S
C1448 C1449 1.387 . S
C1449 H1434 0.930 . S
C1449 C1444 1.390 . S
C1449 C1448 1.387 . S
H1450 C1462 0.930 . S
H1451 C1464 0.930 . S
H1452 C1465 0.930 . S
H1453 C1469 0.959 . S
H1454 C1469 0.959 . S
H1455 C1469 0.961 . S
H1456 C1470 0.960 . S
H1457 C1470 0.961 . S
H1458 C1470 0.959 . S
H1459 C1473 0.929 . S
H1460 C1474 0.931 . S
H1461 C1476 0.930 . S
C1462 H1450 0.930 . S
C1462 C1463 1.399 . S
C1462 C1467 1.399 . S
C1463 C1462 1.399 . S
C1463 C1464 1.376 . S
C1464 H1451 0.930 . S
C1464 C1463 1.376 . S
C1464 C1465 1.388 . S
C1465 H1452 0.930 . S
C1465 C1464 1.388 . S
C1465 C1466 1.390 . S
C1466 C1465 1.390 . S
C1466 C1467 1.394 . S
C1466 C1472 1.465 . S
C1467 C1462 1.399 . S
C1467 C1466 1.394 . S
C1467 C1468 1.516 . S
C1468 C1467 1.516 . S
C1468 C1469 1.502 . S
C1468 C1470 1.561 . S
C1468 C1471 1.526 . S
C1469 H1453 0.959 . S
C1469 H1454 0.959 . S
C1469 H1455 0.961 . S
C1469 C1468 1.502 . S
C1470 H1456 0.960 . S
C1470 H1457 0.961 . S
C1470 H1458 0.959 . S
C1470 C1468 1.561 . S
C1471 C1468 1.526 . S
C1471 C1472 1.396 . S
C1471 C1476 1.390 . S
C1472 C1466 1.465 . S
C1472 C1471 1.396 . S
C1472 C1473 1.399 . S
C1473 H1459 0.929 . S
C1473 C1472 1.399 . S
C1473 C1474 1.385 . S
C1474 H1460 0.931 . S
C1474 C1473 1.385 . S
C1474 C1475 1.389 . S
C1475 C1474 1.389 . S
C1475 C1476 1.387 . S
C1476 H1461 0.930 . S
C1476 C1471 1.390 . S
C1476 C1475 1.387 . S
H1477 C1489 0.930 . S
H1478 C1491 0.930 . S
H1479 C1492 0.930 . S
H1480 C1496 0.959 . S
H1481 C1496 0.959 . S
H1482 C1496 0.961 . S
H1483 C1497 0.960 . S
H1484 C1497 0.961 . S
H1485 C1497 0.959 . S
H1486 C1500 0.929 . S
H1487 C1501 0.931 . S
H1488 C1503 0.930 . S
C1489 H1477 0.930 . S
C1489 C1490 1.399 . S
C1489 C1494 1.399 . S
C1490 C1489 1.399 . S
C1490 C1491 1.376 . S
C1491 H1478 0.930 . S
C1491 C1490 1.376 . S
C1491 C1492 1.388 . S
C1492 H1479 0.930 . S
C1492 C1491 1.388 . S
C1492 C1493 1.390 . S
C1493 C1492 1.390 . S
C1493 C1494 1.394 . S
C1493 C1499 1.465 . S
C1494 C1489 1.399 . S
C1494 C1493 1.394 . S
C1494 C1495 1.516 . S
C1495 C1494 1.516 . S
C1495 C1496 1.502 . S
C1495 C1497 1.561 . S
C1495 C1498 1.526 . S
C1496 H1480 0.959 . S
C1496 H1481 0.959 . S
C1496 H1482 0.961 . S
C1496 C1495 1.502 . S
C1497 H1483 0.960 . S
C1497 H1484 0.961 . S
C1497 H1485 0.959 . S
C1497 C1495 1.561 . S
C1498 C1495 1.526 . S
C1498 C1499 1.396 . S
C1498 C1503 1.390 . S
C1499 C1493 1.465 . S
C1499 C1498 1.396 . S
C1499 C1500 1.399 . S
C1500 H1486 0.929 . S
C1500 C1499 1.399 . S
C1500 C1501 1.385 . S
C1501 H1487 0.931 . S
C1501 C1500 1.385 . S
C1501 C1502 1.389 . S
C1502 C1501 1.389 . S
C1502 C1503 1.387 . S
C1503 H1488 0.930 . S
C1503 C1498 1.390 . S
C1503 C1502 1.387 . S
H1504 C1516 0.930 . S
H1505 C1518 0.930 . S
H1506 C1519 0.930 . S
H1507 C1523 0.959 . S
H1508 C1523 0.959 . S
H1509 C1523 0.961 . S
H1510 C1524 0.960 . S
H1511 C1524 0.961 . S
H1512 C1524 0.959 . S
H1513 C1527 0.929 . S
H1514 C1528 0.931 . S
H1515 C1530 0.930 . S
C1516 H1504 0.930 . S
C1516 C1517 1.399 . S
C1516 C1521 1.399 . S
C1517 C1516 1.399 . S
C1517 C1518 1.376 . S
C1518 H1505 0.930 . S
C1518 C1517 1.376 . S
C1518 C1519 1.388 . S
C1519 H1506 0.930 . S
C1519 C1518 1.388 . S
C1519 C1520 1.390 . S
C1520 C1519 1.390 . S
C1520 C1521 1.394 . S
C1520 C1526 1.465 . S
C1521 C1516 1.399 . S
C1521 C1520 1.394 . S
C1521 C1522 1.516 . S
C1522 C1521 1.516 . S
C1522 C1523 1.502 . S
C1522 C1524 1.561 . S
C1522 C1525 1.526 . S
C1523 H1507 0.959 . S
C1523 H1508 0.959 . S
C1523 H1509 0.961 . S
C1523 C1522 1.502 . S
C1524 H1510 0.960 . S
C1524 H1511 0.961 . S
C1524 H1512 0.959 . S
C1524 C1522 1.561 . S
C1525 C1522 1.526 . S
C1525 C1526 1.396 . S
C1525 C1530 1.390 . S
C1526 C1520 1.465 . S
C1526 C1525 1.396 . S
C1526 C1527 1.399 . S
C1527 H1513 0.929 . S
C1527 C1526 1.399 . S
C1527 C1528 1.385 . S
C1528 H1514 0.931 . S
C1528 C1527 1.385 . S
C1528 C1529 1.389 . S
C1529 C1528 1.389 . S
C1529 C1530 1.387 . S
C1530 H1515 0.930 . S
C1530 C1525 1.390 . S
C1530 C1529 1.387 . S
H1531 C1543 0.930 . S
H1532 C1545 0.930 . S
H1533 C1546 0.930 . S
H1534 C1550 0.959 . S
H1535 C1550 0.959 . S
H1536 C1550 0.961 . S
H1537 C1551 0.960 . S
H1538 C1551 0.961 . S
H1539 C1551 0.959 . S
H1540 C1554 0.929 . S
H1541 C1555 0.931 . S
H1542 C1557 0.930 . S
C1543 H1531 0.930 . S
C1543 C1544 1.399 . S
C1543 C1548 1.399 . S
C1544 C1543 1.399 . S
C1544 C1545 1.376 . S
C1545 H1532 0.930 . S
C1545 C1544 1.376 . S
C1545 C1546 1.388 . S
C1546 H1533 0.930 . S
C1546 C1545 1.388 . S
C1546 C1547 1.390 . S
C1547 C1546 1.390 . S
C1547 C1548 1.394 . S
C1547 C1553 1.465 . S
C1548 C1543 1.399 . S
C1548 C1547 1.394 . S
C1548 C1549 1.516 . S
C1549 C1548 1.516 . S
C1549 C1550 1.502 . S
C1549 C1551 1.561 . S
C1549 C1552 1.526 . S
C1550 H1534 0.959 . S
C1550 H1535 0.959 . S
C1550 H1536 0.961 . S
C1550 C1549 1.502 . S
C1551 H1537 0.960 . S
C1551 H1538 0.961 . S
C1551 H1539 0.959 . S
C1551 C1549 1.561 . S
C1552 C1549 1.526 . S
C1552 C1553 1.396 . S
C1552 C1557 1.390 . S
C1553 C1547 1.465 . S
C1553 C1552 1.396 . S
C1553 C1554 1.399 . S
C1554 H1540 0.929 . S
C1554 C1553 1.399 . S
C1554 C1555 1.385 . S
C1555 H1541 0.931 . S
C1555 C1554 1.385 . S
C1555 C1556 1.389 . S
C1556 C1555 1.389 . S
C1556 C1557 1.387 . S
C1557 H1542 0.930 . S
C1557 C1552 1.390 . S
C1557 C1556 1.387 . S
H1558 C1570 0.930 . S
H1559 C1572 0.930 . S
H1560 C1573 0.930 . S
H1561 C1577 0.959 . S
H1562 C1577 0.959 . S
H1563 C1577 0.961 . S
H1564 C1578 0.960 . S
H1565 C1578 0.961 . S
H1566 C1578 0.959 . S
H1567 C1581 0.929 . S
H1568 C1582 0.931 . S
H1569 C1584 0.930 . S
C1570 H1558 0.930 . S
C1570 C1571 1.399 . S
C1570 C1575 1.399 . S
C1571 C1570 1.399 . S
C1571 C1572 1.376 . S
C1572 H1559 0.930 . S
C1572 C1571 1.376 . S
C1572 C1573 1.388 . S
C1573 H1560 0.930 . S
C1573 C1572 1.388 . S
C1573 C1574 1.390 . S
C1574 C1573 1.390 . S
C1574 C1575 1.394 . S
C1574 C1580 1.465 . S
C1575 C1570 1.399 . S
C1575 C1574 1.394 . S
C1575 C1576 1.516 . S
C1576 C1575 1.516 . S
C1576 C1577 1.502 . S
C1576 C1578 1.561 . S
C1576 C1579 1.526 . S
C1577 H1561 0.959 . S
C1577 H1562 0.959 . S
C1577 H1563 0.961 . S
C1577 C1576 1.502 . S
C1578 H1564 0.960 . S
C1578 H1565 0.961 . S
C1578 H1566 0.959 . S
C1578 C1576 1.561 . S
C1579 C1576 1.526 . S
C1579 C1580 1.396 . S
C1579 C1584 1.390 . S
C1580 C1574 1.465 . S
C1580 C1579 1.396 . S
C1580 C1581 1.399 . S
C1581 H1567 0.929 . S
C1581 C1580 1.399 . S
C1581 C1582 1.385 . S
C1582 H1568 0.931 . S
C1582 C1581 1.385 . S
C1582 C1583 1.389 . S
C1583 C1582 1.389 . S
C1583 C1584 1.387 . S
C1584 H1569 0.930 . S
C1584 C1579 1.390 . S
C1584 C1583 1.387 . S
H1585 C1597 0.930 . S
H1586 C1599 0.930 . S
H1587 C1600 0.930 . S
H1588 C1604 0.959 . S
H1589 C1604 0.959 . S
H1590 C1604 0.961 . S
H1591 C1605 0.960 . S
H1592 C1605 0.961 . S
H1593 C1605 0.959 . S
H1594 C1608 0.929 . S
H1595 C1609 0.931 . S
H1596 C1611 0.930 . S
C1597 H1585 0.930 . S
C1597 C1598 1.399 . S
C1597 C1602 1.399 . S
C1598 C1597 1.399 . S
C1598 C1599 1.376 . S
C1599 H1586 0.930 . S
C1599 C1598 1.376 . S
C1599 C1600 1.388 . S
C1600 H1587 0.930 . S
C1600 C1599 1.388 . S
C1600 C1601 1.390 . S
C1601 C1600 1.390 . S
C1601 C1602 1.394 . S
C1601 C1607 1.465 . S
C1602 C1597 1.399 . S
C1602 C1601 1.394 . S
C1602 C1603 1.516 . S
C1603 C1602 1.516 . S
C1603 C1604 1.502 . S
C1603 C1605 1.561 . S
C1603 C1606 1.526 . S
C1604 H1588 0.959 . S
C1604 H1589 0.959 . S
C1604 H1590 0.961 . S
C1604 C1603 1.502 . S
C1605 H1591 0.960 . S
C1605 H1592 0.961 . S
C1605 H1593 0.959 . S
C1605 C1603 1.561 . S
C1606 C1603 1.526 . S
C1606 C1607 1.396 . S
C1606 C1611 1.390 . S
C1607 C1601 1.465 . S
C1607 C1606 1.396 . S
C1607 C1608 1.399 . S
C1608 H1594 0.929 . S
C1608 C1607 1.399 . S
C1608 C1609 1.385 . S
C1609 H1595 0.931 . S
C1609 C1608 1.385 . S
C1609 C1610 1.389 . S
C1610 C1609 1.389 . S
C1610 C1611 1.387 . S
C1611 H1596 0.930 . S
C1611 C1606 1.390 . S
C1611 C1610 1.387 . S
H1612 C1624 0.930 . S
H1613 C1626 0.930 . S
H1614 C1627 0.930 . S
H1615 C1631 0.959 . S
H1616 C1631 0.959 . S
H1617 C1631 0.961 . S
H1618 C1632 0.960 . S
H1619 C1632 0.961 . S
H1620 C1632 0.959 . S
H1621 C1635 0.929 . S
H1622 C1636 0.931 . S
H1623 C1638 0.930 . S
C1624 H1612 0.930 . S
C1624 C1625 1.399 . S
C1624 C1629 1.399 . S
C1625 C1624 1.399 . S
C1625 C1626 1.376 . S
C1626 H1613 0.930 . S
C1626 C1625 1.376 . S
C1626 C1627 1.388 . S
C1627 H1614 0.930 . S
C1627 C1626 1.388 . S
C1627 C1628 1.390 . S
C1628 C1627 1.390 . S
C1628 C1629 1.394 . S
C1628 C1634 1.465 . S
C1629 C1624 1.399 . S
C1629 C1628 1.394 . S
C1629 C1630 1.516 . S
C1630 C1629 1.516 . S
C1630 C1631 1.502 . S
C1630 C1632 1.561 . S
C1630 C1633 1.526 . S
C1631 H1615 0.959 . S
C1631 H1616 0.959 . S
C1631 H1617 0.961 . S
C1631 C1630 1.502 . S
C1632 H1618 0.960 . S
C1632 H1619 0.961 . S
C1632 H1620 0.959 . S
C1632 C1630 1.561 . S
C1633 C1630 1.526 . S
C1633 C1634 1.396 . S
C1633 C1638 1.390 . S
C1634 C1628 1.465 . S
C1634 C1633 1.396 . S
C1634 C1635 1.399 . S
C1635 H1621 0.929 . S
C1635 C1634 1.399 . S
C1635 C1636 1.385 . S
C1636 H1622 0.931 . S
C1636 C1635 1.385 . S
C1636 C1637 1.389 . S
C1637 C1636 1.389 . S
C1637 C1638 1.387 . S
C1638 H1623 0.930 . S
C1638 C1633 1.390 . S
C1638 C1637 1.387 . S
H1639 C1651 0.930 . S
H1640 C1653 0.930 . S
H1641 C1654 0.930 . S
H1642 C1658 0.959 . S
H1643 C1658 0.959 . S
H1644 C1658 0.961 . S
H1645 C1659 0.960 . S
H1646 C1659 0.961 . S
H1647 C1659 0.959 . S
H1648 C1662 0.929 . S
H1649 C1663 0.931 . S
H1650 C1665 0.930 . S
C1651 H1639 0.930 . S
C1651 C1652 1.399 . S
C1651 C1656 1.399 . S
C1652 C1651 1.399 . S
C1652 C1653 1.376 . S
C1653 H1640 0.930 . S
C1653 C1652 1.376 . S
C1653 C1654 1.388 . S
C1654 H1641 0.930 . S
C1654 C1653 1.388 . S
C1654 C1655 1.390 . S
C1655 C1654 1.390 . S
C1655 C1656 1.394 . S
C1655 C1661 1.465 . S
C1656 C1651 1.399 . S
C1656 C1655 1.394 . S
C1656 C1657 1.516 . S
C1657 C1656 1.516 . S
C1657 C1658 1.502 . S
C1657 C1659 1.561 . S
C1657 C1660 1.526 . S
C1658 H1642 0.959 . S
C1658 H1643 0.959 . S
C1658 H1644 0.961 . S
C1658 C1657 1.502 . S
C1659 H1645 0.960 . S
C1659 H1646 0.961 . S
C1659 H1647 0.959 . S
C1659 C1657 1.561 . S
C1660 C1657 1.526 . S
C1660 C1661 1.396 . S
C1660 C1665 1.390 . S
C1661 C1655 1.465 . S
C1661 C1660 1.396 . S
C1661 C1662 1.399 . S
C1662 H1648 0.929 . S
C1662 C1661 1.399 . S
C1662 C1663 1.385 . S
C1663 H1649 0.931 . S
C1663 C1662 1.385 . S
C1663 C1664 1.389 . S
C1664 C1663 1.389 . S
C1664 C1665 1.387 . S
C1665 H1650 0.930 . S
C1665 C1660 1.390 . S
C1665 C1664 1.387 . S
H1666 C1678 0.930 . S
H1667 C1680 0.930 . S
H1668 C1681 0.930 . S
H1669 C1685 0.959 . S
H1670 C1685 0.959 . S
H1671 C1685 0.961 . S
H1672 C1686 0.960 . S
H1673 C1686 0.961 . S
H1674 C1686 0.959 . S
H1675 C1689 0.929 . S
H1676 C1690 0.931 . S
H1677 C1692 0.930 . S
C1678 H1666 0.930 . S
C1678 C1679 1.399 . S
C1678 C1683 1.399 . S
C1679 C1678 1.399 . S
C1679 C1680 1.376 . S
C1680 H1667 0.930 . S
C1680 C1679 1.376 . S
C1680 C1681 1.388 . S
C1681 H1668 0.930 . S
C1681 C1680 1.388 . S
C1681 C1682 1.390 . S
C1682 C1681 1.390 . S
C1682 C1683 1.394 . S
C1682 C1688 1.465 . S
C1683 C1678 1.399 . S
C1683 C1682 1.394 . S
C1683 C1684 1.516 . S
C1684 C1683 1.516 . S
C1684 C1685 1.502 . S
C1684 C1686 1.561 . S
C1684 C1687 1.526 . S
C1685 H1669 0.959 . S
C1685 H1670 0.959 . S
C1685 H1671 0.961 . S
C1685 C1684 1.502 . S
C1686 H1672 0.960 . S
C1686 H1673 0.961 . S
C1686 H1674 0.959 . S
C1686 C1684 1.561 . S
C1687 C1684 1.526 . S
C1687 C1688 1.396 . S
C1687 C1692 1.390 . S
C1688 C1682 1.465 . S
C1688 C1687 1.396 . S
C1688 C1689 1.399 . S
C1689 H1675 0.929 . S
C1689 C1688 1.399 . S
C1689 C1690 1.385 . S
C1690 H1676 0.931 . S
C1690 C1689 1.385 . S
C1690 C1691 1.389 . S
C1691 C1690 1.389 . S
C1691 C1692 1.387 . S
C1692 H1677 0.930 . S
C1692 C1687 1.390 . S
C1692 C1691 1.387 . S
H1693 C1705 0.930 . S
H1694 C1707 0.930 . S
H1695 C1708 0.930 . S
H1696 C1712 0.959 . S
H1697 C1712 0.959 . S
H1698 C1712 0.961 . S
H1699 C1713 0.960 . S
H1700 C1713 0.961 . S
H1701 C1713 0.959 . S
H1702 C1716 0.929 . S
H1703 C1717 0.931 . S
H1704 C1719 0.930 . S
C1705 H1693 0.930 . S
C1705 C1706 1.399 . S
C1705 C1710 1.399 . S
C1706 C1705 1.399 . S
C1706 C1707 1.376 . S
C1707 H1694 0.930 . S
C1707 C1706 1.376 . S
C1707 C1708 1.388 . S
C1708 H1695 0.930 . S
C1708 C1707 1.388 . S
C1708 C1709 1.390 . S
C1709 C1708 1.390 . S
C1709 C1710 1.394 . S
C1709 C1715 1.465 . S
C1710 C1705 1.399 . S
C1710 C1709 1.394 . S
C1710 C1711 1.516 . S
C1711 C1710 1.516 . S
C1711 C1712 1.502 . S
C1711 C1713 1.561 . S
C1711 C1714 1.526 . S
C1712 H1696 0.959 . S
C1712 H1697 0.959 . S
C1712 H1698 0.961 . S
C1712 C1711 1.502 . S
C1713 H1699 0.960 . S
C1713 H1700 0.961 . S
C1713 H1701 0.959 . S
C1713 C1711 1.561 . S
C1714 C1711 1.526 . S
C1714 C1715 1.396 . S
C1714 C1719 1.390 . S
C1715 C1709 1.465 . S
C1715 C1714 1.396 . S
C1715 C1716 1.399 . S
C1716 H1702 0.929 . S
C1716 C1715 1.399 . S
C1716 C1717 1.385 . S
C1717 H1703 0.931 . S
C1717 C1716 1.385 . S
C1717 C1718 1.389 . S
C1718 C1717 1.389 . S
C1718 C1719 1.387 . S
C1719 H1704 0.930 . S
C1719 C1714 1.390 . S
C1719 C1718 1.387 . S
H1720 C1732 0.930 . S
H1721 C1734 0.930 . S
H1722 C1735 0.930 . S
H1723 C1739 0.959 . S
H1724 C1739 0.959 . S
H1725 C1739 0.961 . S
H1726 C1740 0.960 . S
H1727 C1740 0.961 . S
H1728 C1740 0.959 . S
H1729 C1743 0.929 . S
H1730 C1744 0.931 . S
H1731 C1746 0.930 . S
C1732 H1720 0.930 . S
C1732 C1733 1.399 1_545 S
C1732 C1737 1.399 . S
C1733 C1732 1.399 1_565 S
C1733 C1734 1.376 . S
C1734 H1721 0.930 . S
C1734 C1733 1.376 . S
C1734 C1735 1.388 1_565 S
C1735 H1722 0.930 . S
C1735 C1734 1.388 1_545 S
C1735 C1736 1.390 . S
C1736 C1735 1.390 . S
C1736 C1737 1.394 . S
C1736 C1742 1.465 . S
C1737 C1732 1.399 . S
C1737 C1736 1.394 . S
C1737 C1738 1.516 . S
C1738 C1737 1.516 . S
C1738 C1739 1.502 . S
C1738 C1740 1.561 . S
C1738 C1741 1.526 . S
C1739 H1723 0.959 . S
C1739 H1724 0.959 . S
C1739 H1725 0.961 . S
C1739 C1738 1.502 . S
C1740 H1726 0.960 . S
C1740 H1727 0.961 . S
C1740 H1728 0.959 . S
C1740 C1738 1.561 . S
C1741 C1738 1.526 . S
C1741 C1742 1.396 . S
C1741 C1746 1.390 . S
C1742 C1736 1.465 . S
C1742 C1741 1.396 . S
C1742 C1743 1.399 . S
C1743 H1729 0.929 . S
C1743 C1742 1.399 . S
C1743 C1744 1.385 . S
C1744 H1730 0.931 . S
C1744 C1743 1.385 . S
C1744 C1745 1.389 . S
C1745 C1744 1.389 . S
C1745 C1746 1.387 . S
C1746 H1731 0.930 . S
C1746 C1741 1.390 . S
C1746 C1745 1.387 . S
H1747 C1759 0.930 . S
H1748 C1761 0.930 . S
H1749 C1762 0.930 . S
H1750 C1766 0.959 . S
H1751 C1766 0.959 . S
H1752 C1766 0.961 . S
H1753 C1767 0.960 . S
H1754 C1767 0.961 . S
H1755 C1767 0.959 . S
H1756 C1770 0.929 . S
H1757 C1771 0.931 . S
H1758 C1773 0.931 . S
C1759 H1747 0.930 . S
C1759 C1760 1.399 . S
C1759 C1764 1.399 . S
C1760 C1759 1.399 . S
C1760 C1761 1.376 . S
C1761 H1748 0.930 . S
C1761 C1760 1.376 . S
C1761 C1762 1.388 . S
C1762 H1749 0.930 . S
C1762 C1761 1.388 . S
C1762 C1763 1.390 . S
C1763 C1762 1.390 . S
C1763 C1764 1.394 . S
C1763 C1769 1.465 . S
C1764 C1759 1.399 . S
C1764 C1763 1.394 . S
C1764 C1765 1.516 . S
C1765 C1764 1.516 . S
C1765 C1766 1.502 . S
C1765 C1767 1.561 . S
C1765 C1768 1.526 . S
C1766 H1750 0.959 . S
C1766 H1751 0.959 . S
C1766 H1752 0.961 . S
C1766 C1765 1.502 . S
C1767 H1753 0.960 . S
C1767 H1754 0.961 . S
C1767 H1755 0.959 . S
C1767 C1765 1.561 . S
C1768 C1765 1.526 . S
C1768 C1769 1.396 . S
C1768 C1773 1.386 1_565 S
C1769 C1763 1.465 . S
C1769 C1768 1.396 . S
C1769 C1770 1.399 . S
C1770 H1756 0.929 . S
C1770 C1769 1.399 . S
C1770 C1771 1.385 1_565 S
C1771 H1757 0.931 . S
C1771 C1770 1.385 1_545 S
C1771 C1772 1.389 . S
C1772 C1771 1.389 . S
C1772 C1773 1.389 . S
C1773 H1758 0.931 . S
C1773 C1768 1.386 1_545 S
C1773 C1772 1.389 . S
H1774 C1786 0.930 . S
H1775 C1788 0.930 . S
H1776 C1789 0.930 . S
H1777 C1793 0.959 . S
H1778 C1793 0.959 . S
H1779 C1793 0.961 . S
H1780 C1794 0.960 . S
H1781 C1794 0.961 . S
H1782 C1794 0.959 . S
H1783 C1797 0.929 . S
H1784 C1798 0.931 . S
H1785 C1800 0.930 . S
C1786 H1774 0.930 . S
C1786 C1787 1.399 1_565 S
C1786 C1791 1.399 . S
C1787 C1786 1.399 1_545 S
C1787 C1788 1.376 . S
C1788 H1775 0.930 . S
C1788 C1787 1.376 . S
C1788 C1789 1.388 1_545 S
C1789 H1776 0.930 . S
C1789 C1788 1.388 1_565 S
C1789 C1790 1.390 . S
C1790 C1789 1.390 . S
C1790 C1791 1.394 . S
C1790 C1796 1.465 . S
C1791 C1786 1.399 . S
C1791 C1790 1.394 . S
C1791 C1792 1.516 . S
C1792 C1791 1.516 . S
C1792 C1793 1.502 . S
C1792 C1794 1.561 . S
C1792 C1795 1.526 . S
C1793 H1777 0.959 . S
C1793 H1778 0.959 . S
C1793 H1779 0.961 . S
C1793 C1792 1.502 . S
C1794 H1780 0.960 . S
C1794 H1781 0.961 . S
C1794 H1782 0.959 . S
C1794 C1792 1.561 . S
C1795 C1792 1.526 . S
C1795 C1796 1.396 . S
C1795 C1800 1.390 . S
C1796 C1790 1.465 . S
C1796 C1795 1.396 . S
C1796 C1797 1.399 . S
C1797 H1783 0.929 . S
C1797 C1796 1.399 . S
C1797 C1798 1.385 . S
C1798 H1784 0.931 . S
C1798 C1797 1.385 . S
C1798 C1799 1.389 . S
C1799 C1798 1.389 . S
C1799 C1800 1.387 . S
C1800 H1785 0.930 . S
C1800 C1795 1.390 . S
C1800 C1799 1.387 . S
H1801 C1813 0.930 1_565 S
H1802 C1815 0.930 . S
H1803 C1816 0.930 . S
H1804 C1820 0.959 . S
H1805 C1820 0.959 . S
H1806 C1820 0.961 . S
H1807 C1821 0.960 . S
H1808 C1821 0.961 . S
H1809 C1821 0.959 . S
H1810 C1824 0.929 . S
H1811 C1825 0.931 . S
H1812 C1827 0.930 . S
C1813 H1801 0.930 1_545 S
C1813 C1814 1.399 1_545 S
C1813 C1818 1.399 . S
C1814 C1813 1.399 1_565 S
C1814 C1815 1.376 . S
C1815 H1802 0.930 . S
C1815 C1814 1.376 . S
C1815 C1816 1.388 1_565 S
C1816 H1803 0.930 . S
C1816 C1815 1.388 1_545 S
C1816 C1817 1.390 . S
C1817 C1816 1.390 . S
C1817 C1818 1.394 . S
C1817 C1823 1.465 . S
C1818 C1813 1.399 . S
C1818 C1817 1.394 . S
C1818 C1819 1.516 . S
C1819 C1818 1.516 . S
C1819 C1820 1.502 . S
C1819 C1821 1.561 . S
C1819 C1822 1.526 . S
C1820 H1804 0.959 . S
C1820 H1805 0.959 . S
C1820 H1806 0.961 . S
C1820 C1819 1.502 . S
C1821 H1807 0.960 . S
C1821 H1808 0.961 . S
C1821 H1809 0.959 . S
C1821 C1819 1.561 . S
C1822 C1819 1.526 . S
C1822 C1823 1.396 . S
C1822 C1827 1.390 . S
C1823 C1817 1.465 . S
C1823 C1822 1.396 . S
C1823 C1824 1.399 . S
C1824 H1810 0.929 . S
C1824 C1823 1.399 . S
C1824 C1825 1.385 . S
C1825 H1811 0.931 . S
C1825 C1824 1.385 . S
C1825 C1826 1.389 . S
C1826 C1825 1.389 . S
C1826 C1827 1.387 . S
C1827 H1812 0.930 . S
C1827 C1822 1.390 . S
C1827 C1826 1.387 . S
H1828 C1840 0.930 . S
H1829 C1842 0.930 . S
H1830 C1843 0.930 . S
H1831 C1847 0.959 . S
H1832 C1847 0.959 . S
H1833 C1847 0.961 . S
H1834 C1848 0.960 . S
H1835 C1848 0.961 . S
H1836 C1848 0.959 . S
H1837 C1851 0.929 . S
H1838 C1852 0.931 . S
H1839 C1854 0.930 . S
C1840 H1828 0.930 . S
C1840 C1841 1.399 . S
C1840 C1845 1.399 . S
C1841 C1840 1.399 . S
C1841 C1842 1.376 . S
C1842 H1829 0.930 . S
C1842 C1841 1.376 . S
C1842 C1843 1.388 . S
C1843 H1830 0.930 . S
C1843 C1842 1.388 . S
C1843 C1844 1.390 . S
C1844 C1843 1.390 . S
C1844 C1845 1.394 . S
C1844 C1850 1.465 . S
C1845 C1840 1.399 . S
C1845 C1844 1.394 . S
C1845 C1846 1.516 . S
C1846 C1845 1.516 . S
C1846 C1847 1.502 . S
C1846 C1848 1.561 . S
C1846 C1849 1.526 . S
C1847 H1831 0.959 . S
C1847 H1832 0.959 . S
C1847 H1833 0.961 . S
C1847 C1846 1.502 . S
C1848 H1834 0.960 . S
C1848 H1835 0.961 . S
C1848 H1836 0.959 . S
C1848 C1846 1.561 . S
C1849 C1846 1.526 . S
C1849 C1850 1.396 . S
C1849 C1854 1.390 . S
C1850 C1844 1.465 . S
C1850 C1849 1.396 . S
C1850 C1851 1.399 . S
C1851 H1837 0.929 . S
C1851 C1850 1.399 . S
C1851 C1852 1.385 1_565 S
C1852 H1838 0.931 . S
C1852 C1851 1.385 1_545 S
C1852 C1853 1.389 . S
C1853 C1852 1.389 . S
C1853 C1854 1.387 1_545 S
C1854 H1839 0.930 . S
C1854 C1849 1.390 . S
C1854 C1853 1.387 1_565 S
H1855 C1867 0.930 . S
H1856 C1869 0.930 . S
H1857 C1870 0.930 . S
H1858 C1874 0.959 . S
H1859 C1874 0.959 . S
H1860 C1874 0.961 . S
H1861 C1875 0.960 . S
H1862 C1875 0.961 . S
H1863 C1875 0.959 . S
H1864 C1878 0.929 . S
H1865 C1879 0.931 . S
H1866 C1881 0.930 . S
C1867 H1855 0.930 . S
C1867 C1868 1.399 . S
C1867 C1872 1.399 . S
C1868 C1867 1.399 . S
C1868 C1869 1.376 . S
C1869 H1856 0.930 . S
C1869 C1868 1.376 . S
C1869 C1870 1.388 . S
C1870 H1857 0.930 . S
C1870 C1869 1.388 . S
C1870 C1871 1.390 . S
C1871 C1870 1.390 . S
C1871 C1872 1.394 . S
C1871 C1877 1.465 . S
C1872 C1867 1.399 . S
C1872 C1871 1.394 . S
C1872 C1873 1.516 . S
C1873 C1872 1.516 . S
C1873 C1874 1.502 . S
C1873 C1875 1.561 . S
C1873 C1876 1.526 . S
C1874 H1858 0.959 . S
C1874 H1859 0.959 . S
C1874 H1860 0.961 . S
C1874 C1873 1.502 . S
C1875 H1861 0.960 . S
C1875 H1862 0.961 . S
C1875 H1863 0.959 . S
C1875 C1873 1.561 . S
C1876 C1873 1.526 . S
C1876 C1877 1.396 . S
C1876 C1881 1.390 1_545 S
C1877 C1871 1.465 . S
C1877 C1876 1.396 . S
C1877 C1878 1.399 . S
C1878 H1864 0.929 . S
C1878 C1877 1.399 . S
C1878 C1879 1.385 1_545 S
C1879 H1865 0.931 . S
C1879 C1878 1.385 1_565 S
C1879 C1880 1.389 . S
C1880 C1879 1.389 . S
C1880 C1881 1.387 . S
C1881 H1866 0.930 . S
C1881 C1876 1.390 1_565 S
C1881 C1880 1.387 . S
H1882 C1894 0.930 . S
H1883 C1896 0.930 . S
H1884 C1897 0.930 . S
H1885 C1901 0.959 . S
H1886 C1901 0.959 . S
H1887 C1901 0.961 . S
H1888 C1902 0.960 . S
H1889 C1902 0.961 . S
H1890 C1902 0.959 . S
H1891 C1905 0.929 . S
H1892 C1906 0.931 . S
H1893 C1908 0.930 . S
C1894 H1882 0.930 . S
C1894 C1895 1.400 . S
C1894 C1899 1.397 1_565 S
C1895 C1894 1.400 . S
C1895 C1896 1.376 . S
C1896 H1883 0.930 . S
C1896 C1895 1.376 . S
C1896 C1897 1.388 1_565 S
C1897 H1884 0.930 . S
C1897 C1896 1.388 1_545 S
C1897 C1898 1.390 . S
C1898 C1897 1.390 . S
C1898 C1899 1.394 . S
C1898 C1904 1.465 . S
C1899 C1894 1.397 1_545 S
C1899 C1898 1.394 . S
C1899 C1900 1.516 . S
C1900 C1899 1.516 . S
C1900 C1901 1.502 . S
C1900 C1902 1.561 . S
C1900 C1903 1.526 . S
C1901 H1885 0.959 . S
C1901 H1886 0.959 . S
C1901 H1887 0.961 . S
C1901 C1900 1.502 . S
C1902 H1888 0.960 . S
C1902 H1889 0.961 . S
C1902 H1890 0.959 . S
C1902 C1900 1.561 . S
C1903 C1900 1.526 . S
C1903 C1904 1.396 . S
C1903 C1908 1.390 . S
C1904 C1898 1.465 . S
C1904 C1903 1.396 . S
C1904 C1905 1.399 . S
C1905 H1891 0.929 . S
C1905 C1904 1.399 . S
C1905 C1906 1.385 . S
C1906 H1892 0.931 . S
C1906 C1905 1.385 . S
C1906 C1907 1.389 . S
C1907 C1906 1.389 . S
C1907 C1908 1.387 . S
C1908 H1893 0.930 . S
C1908 C1903 1.390 . S
C1908 C1907 1.387 . S
H1909 C1921 0.930 . S
H1910 C1923 0.930 . S
H1911 C1924 0.930 . S
H1912 C1928 0.959 . S
H1913 C1928 0.959 . S
H1914 C1928 0.961 . S
H1915 C1929 0.960 . S
H1916 C1929 0.961 . S
H1917 C1929 0.959 . S
H1918 C1932 0.929 . S
H1919 C1933 0.931 . S
H1920 C1935 0.930 1_545 S
C1921 H1909 0.930 . S
C1921 C1922 1.399 . S
C1921 C1926 1.399 . S
C1922 C1921 1.399 . S
C1922 C1923 1.376 . S
C1923 H1910 0.930 . S
C1923 C1922 1.376 . S
C1923 C1924 1.388 . S
C1924 H1911 0.930 . S
C1924 C1923 1.388 . S
C1924 C1925 1.390 . S
C1925 C1924 1.390 . S
C1925 C1926 1.394 . S
C1925 C1931 1.465 . S
C1926 C1921 1.399 . S
C1926 C1925 1.394 . S
C1926 C1927 1.516 . S
C1927 C1926 1.516 . S
C1927 C1928 1.502 . S
C1927 C1929 1.561 . S
C1927 C1930 1.526 . S
C1928 H1912 0.959 . S
C1928 H1913 0.959 . S
C1928 H1914 0.961 . S
C1928 C1927 1.502 . S
C1929 H1915 0.960 . S
C1929 H1916 0.961 . S
C1929 H1917 0.959 . S
C1929 C1927 1.561 . S
C1930 C1927 1.526 . S
C1930 C1931 1.396 . S
C1930 C1935 1.390 . S
C1931 C1925 1.465 . S
C1931 C1930 1.396 . S
C1931 C1932 1.399 . S
C1932 H1918 0.929 . S
C1932 C1931 1.399 . S
C1932 C1933 1.385 1_565 S
C1933 H1919 0.931 . S
C1933 C1932 1.385 1_545 S
C1933 C1934 1.389 . S
C1934 C1933 1.389 . S
C1934 C1935 1.387 1_545 S
C1935 H1920 0.930 1_565 S
C1935 C1930 1.390 . S
C1935 C1934 1.387 1_565 S
C653 C3 1.551 . S
C665 C363 1.545 . S
C680 C43 1.545 . S
C692 C323 1.541 . S
C707 C443 1.547 . S
C719 C83 1.550 . S
C734 C123 1.546 . S
C746 C403 1.551 . S
C761 C542 1.546 . S
C773 C182 1.541 . S
C788 C502 1.546 . S
C800 C222 1.541 . S
C815 C622 1.546 . S
C827 C262 1.541 . S
C842 C302 1.541 . S
C854 C582 1.545 . S
C869 C95 1.692 . S
C881 C15 1.692 . S
C896 C135 1.673 . S
C908 C55 1.675 . S
C923 C242 1.666 . S
C935 C162 1.672 . S
C950 C202 1.687 . S
C962 C282 1.691 . S
C977 C415 1.665 . S
C989 C335 1.665 . S
C1004 C455 1.666 . S
C1016 C375 1.667 . S
C1031 C482 1.693 . S
C1043 C562 1.690 . S
C1058 C522 1.692 . S
C1070 C602 1.688 . S
C1085 C215 1.526 . S
C1097 C2 1.517 . S
C1112 C175 1.553 . S
C1124 C42 1.563 . S
C1139 C82 1.577 . S
C1151 C295 1.578 . S
C1166 C255 1.532 . S
C1178 C122 1.521 . S
C1193 C322 1.503 . S
C1205 C535 1.504 . S
C1220 C495 1.550 . S
C1232 C362 1.561 . S
C1247 C402 1.576 . S
C1259 C615 1.578 . S
C1274 C575 1.577 . S
C1286 C442 1.572 . S
C1301 C62 1.603 . S
C1313 C22 1.631 . S
C1328 C142 1.638 . S
C1340 C102 1.596 . S
C1355 C203 1.638 . S
C1367 C163 1.610 . S
C1382 C243 1.641 . S
C1394 C283 1.603 . S
C1409 C382 1.638 . S
C1421 C342 1.597 . S
C1436 C462 1.605 . S
C1448 C422 1.629 . S
C1463 C483 1.598 . S
C1475 C523 1.624 . S
C1490 C563 1.641 . S
C1502 C603 1.603 . S
C1517 C9 1.613 . S
C1529 C26 1.569 . S
C1544 C49 1.612 . S
C1556 C66 1.560 . S
C1571 C89 1.574 . S
C1583 C106 1.593 . S
C1598 C146 1.563 . S
C1610 C129 1.606 . S
C1625 C186 1.563 . S
C1637 C169 1.606 . S
C1652 C209 1.602 . S
C1664 C226 1.583 . S
C1679 C266 1.613 . S
C1691 C249 1.568 . S
C1706 C306 1.608 . S
C1718 C289 1.575 . S
C1733 C346 1.570 . S
C1745 C329 1.611 . S
C1760 C369 1.567 . S
C1772 C386 1.601 . S
C1787 C426 1.570 . S
C1799 C409 1.612 . S
C1814 C466 1.613 . S
C1826 C449 1.568 . S
C1841 C506 1.609 . S
C1853 C489 1.562 . S
C1868 C546 1.570 . S
C1880 C529 1.611 . S
C1895 C569 1.608 . S
C1907 C586 1.575 . S
C1922 C626 1.616 . S
C1934 C609 1.563 . S
