# Generated by pormake.
# Topology uou, (4)-cn, num edge types: 1
# Building blocks:
#     Node 0, Type 0, BuildingBlock: QUQFOY_clean_sbu_3, # of connection points: 4
#     Node 1, Type 0, BuildingBlock: QUQFOY_clean_sbu_3, # of connection points: 4
#     Node 2, Type 0, BuildingBlock: QUQFOY_clean_sbu_3, # of connection points: 4
#     Node 3, Type 0, BuildingBlock: QUQFOY_clean_sbu_3, # of connection points: 4
#     Node 4, Type 0, BuildingBlock: QUQFOY_clean_sbu_3, # of connection points: 4
#     Node 5, Type 0, BuildingBlock: QUQFOY_clean_sbu_3, # of connection points: 4
#     Node 6, Type 0, BuildingBlock: QUQFOY_clean_sbu_3, # of connection points: 4
#     Node 7, Type 0, BuildingBlock: QUQFOY_clean_sbu_3, # of connection points: 4
#     Node 8, Type 0, BuildingBlock: QUQFOY_clean_sbu_3, # of connection points: 4
#     Node 9, Type 0, BuildingBlock: QUQFOY_clean_sbu_3, # of connection points: 4
#     Node 10, Type 0, BuildingBlock: QUQFOY_clean_sbu_3, # of connection points: 4
#     Node 11, Type 0, BuildingBlock: QUQFOY_clean_sbu_3, # of connection points: 4
#     Node 12, Type 0, BuildingBlock: QUQFOY_clean_sbu_3, # of connection points: 4
#     Node 13, Type 0, BuildingBlock: QUQFOY_clean_sbu_3, # of connection points: 4
#     Node 14, Type 0, BuildingBlock: QUQFOY_clean_sbu_3, # of connection points: 4
#     Node 15, Type 0, BuildingBlock: QUQFOY_clean_sbu_3, # of connection points: 4
#     Edge 16, Type (0, 0), BuildingBlock: XIVTED_clean_linker_0, # of connection points: 2
#     Edge 17, Type (0, 0), BuildingBlock: XIVTED_clean_linker_0, # of connection points: 2
#     Edge 18, Type (0, 0), BuildingBlock: XIVTED_clean_linker_0, # of connection points: 2
#     Edge 19, Type (0, 0), BuildingBlock: XIVTED_clean_linker_0, # of connection points: 2
#     Edge 20, Type (0, 0), BuildingBlock: XIVTED_clean_linker_0, # of connection points: 2
#     Edge 21, Type (0, 0), BuildingBlock: XIVTED_clean_linker_0, # of connection points: 2
#     Edge 22, Type (0, 0), BuildingBlock: XIVTED_clean_linker_0, # of connection points: 2
#     Edge 23, Type (0, 0), BuildingBlock: XIVTED_clean_linker_0, # of connection points: 2
#     Edge 24, Type (0, 0), BuildingBlock: XIVTED_clean_linker_0, # of connection points: 2
#     Edge 25, Type (0, 0), BuildingBlock: XIVTED_clean_linker_0, # of connection points: 2
#     Edge 26, Type (0, 0), BuildingBlock: XIVTED_clean_linker_0, # of connection points: 2
#     Edge 27, Type (0, 0), BuildingBlock: XIVTED_clean_linker_0, # of connection points: 2
#     Edge 28, Type (0, 0), BuildingBlock: XIVTED_clean_linker_0, # of connection points: 2
#     Edge 29, Type (0, 0), BuildingBlock: XIVTED_clean_linker_0, # of connection points: 2
#     Edge 30, Type (0, 0), BuildingBlock: XIVTED_clean_linker_0, # of connection points: 2
#     Edge 31, Type (0, 0), BuildingBlock: XIVTED_clean_linker_0, # of connection points: 2
#     Edge 32, Type (0, 0), BuildingBlock: XIVTED_clean_linker_0, # of connection points: 2
#     Edge 33, Type (0, 0), BuildingBlock: XIVTED_clean_linker_0, # of connection points: 2
#     Edge 34, Type (0, 0), BuildingBlock: XIVTED_clean_linker_0, # of connection points: 2
#     Edge 35, Type (0, 0), BuildingBlock: XIVTED_clean_linker_0, # of connection points: 2
#     Edge 36, Type (0, 0), BuildingBlock: XIVTED_clean_linker_0, # of connection points: 2
#     Edge 37, Type (0, 0), BuildingBlock: XIVTED_clean_linker_0, # of connection points: 2
#     Edge 38, Type (0, 0), BuildingBlock: XIVTED_clean_linker_0, # of connection points: 2
#     Edge 39, Type (0, 0), BuildingBlock: XIVTED_clean_linker_0, # of connection points: 2
#     Edge 40, Type (0, 0), BuildingBlock: XIVTED_clean_linker_0, # of connection points: 2
#     Edge 41, Type (0, 0), BuildingBlock: XIVTED_clean_linker_0, # of connection points: 2
#     Edge 42, Type (0, 0), BuildingBlock: XIVTED_clean_linker_0, # of connection points: 2
#     Edge 43, Type (0, 0), BuildingBlock: XIVTED_clean_linker_0, # of connection points: 2
#     Edge 44, Type (0, 0), BuildingBlock: XIVTED_clean_linker_0, # of connection points: 2
#     Edge 45, Type (0, 0), BuildingBlock: XIVTED_clean_linker_0, # of connection points: 2
#     Edge 46, Type (0, 0), BuildingBlock: XIVTED_clean_linker_0, # of connection points: 2
#     Edge 47, Type (0, 0), BuildingBlock: XIVTED_clean_linker_0, # of connection points: 2
# Relax obj value: 0.038
# Max RMSD: 0.066
# Mean RMSD: 0.066
data_MOF--net-uou--node1-QUQFOY_clean_sbu_3--edge1-XIVTED_clean_linker_0
_symmetry_space_group_name_H-M    P1
_symmetry_Int_Tables_number       1
_symmetry_cell_setting            triclinic
loop_
_symmetry_equiv_pos_as_xyz
'x, y, z'
_cell_length_a     40.954117
_cell_length_b     40.848246
_cell_length_c     57.085427
_cell_angle_alpha  90.007276
_cell_angle_beta   89.94284
_cell_angle_gamma 90.053121
loop_
_atom_site_label
_atom_site_type_symbol
_atom_site_fract_x
_atom_site_fract_y
_atom_site_fract_z
_atom_type_partial_charge
C0 C -0.00399 0.0202 0.13782 0.0
O1 O 0.97121 0.01923 0.1245 0.0
Cd2 Cd 0.97201 0.03704 0.08468 0.0
O3 O 0.02368 0.02966 0.13011 0.0
Cd4 Cd 0.05158 0.0476 0.09396 0.0
C5 C 0.00315 0.11535 0.09348 0.0
O6 O 0.02 0.01326 0.06891 0.0
O7 O 0.05026 0.04821 0.05079 0.0
O8 O 0.09422 0.00903 0.10396 0.0
C9 C 0.02986 0.02487 0.04963 0.0
O10 O 0.97978 0.09614 0.08807 0.0
C11 C 0.11781 0.02905 0.10233 0.0
O12 O 0.03178 0.10432 0.09748 0.0
O13 O 0.11069 0.0585 0.09717 0.0
C14 C 0.47193 0.95352 0.13832 0.0
O15 O 0.49613 0.9531 0.12439 0.0
Cd16 Cd 0.49204 0.93771 0.08396 0.0
O17 O 0.44346 0.94584 0.13124 0.0
Cd18 Cd 0.41441 0.92891 0.09557 0.0
C19 C 0.46047 0.86012 0.09156 0.0
O20 O 0.44449 0.964 0.0696 0.0
O21 O 0.41445 0.92792 0.05248 0.0
O22 O 0.3719 0.96736 0.10639 0.0
C23 C 0.43368 0.95214 0.05066 0.0
O24 O 0.48319 0.87864 0.08398 0.0
C25 C 0.34829 0.9474 0.10455 0.0
O26 O 0.43349 0.87184 0.09897 0.0
O27 O 0.3554 0.91804 0.09914 0.0
C28 C 0.49898 0.95309 0.31059 0.0
O29 O 0.47411 0.95413 0.32388 0.0
Cd30 Cd 0.47478 0.93628 0.36368 0.0
O31 O 0.52656 0.94369 0.31839 0.0
Cd32 Cd 0.55365 0.92623 0.35494 0.0
C33 C 0.50592 0.85812 0.35518 0.0
O34 O 0.52209 0.96095 0.37999 0.0
O35 O 0.55169 0.92545 0.39806 0.0
O36 O 0.59626 0.96489 0.34504 0.0
C37 C 0.53188 0.94924 0.39925 0.0
O38 O 0.48243 0.87717 0.36051 0.0
C39 C 0.6199 0.94507 0.34708 0.0
O40 O 0.53451 0.86936 0.35127 0.0
O41 O 0.61283 0.91565 0.35239 0.0
C42 C 0.97171 0.0226 0.31004 0.0
O43 O -0.00349 0.02305 0.32337 0.0
Cd44 Cd -0.00544 0.04165 0.36296 0.0
O45 O 0.9437 0.03109 0.31765 0.0
Cd46 Cd 0.91578 0.04886 0.35382 0.0
C47 C 0.96122 0.11853 0.35364 0.0
O48 O 0.94796 0.01533 0.37921 0.0
O49 O 0.91726 0.05029 0.39694 0.0
O50 O 0.87359 0.00933 0.34443 0.0
C51 C 0.93751 0.0269 0.39835 0.0
O52 O -0.01469 0.10046 0.35928 0.0
C53 C 0.84977 0.02899 0.34616 0.0
O54 O 0.93312 0.10618 0.3497 0.0
O55 O 0.85657 0.05863 0.351 0.0
C56 C 0.96537 0.9508 0.81215 0.0
O57 O -0.01104 0.95379 0.82641 0.0
Cd58 Cd -0.01489 0.94047 0.8669 0.0
O59 O 0.93721 0.94179 0.81921 0.0
Cd60 Cd 0.90764 0.92794 0.85576 0.0
C61 C 0.95593 0.86102 0.86116 0.0
O62 O 0.93668 0.96738 0.87934 0.0
O63 O 0.90685 0.93333 0.89852 0.0
O64 O 0.86358 0.95915 0.83761 0.0
C65 C 0.92569 0.95792 0.89891 0.0
O66 O 0.97868 0.88092 0.8666 0.0
C67 C 0.84071 0.94172 0.84597 0.0
O68 O 0.92764 0.87139 0.8555 0.0
O69 O 0.84892 0.91699 0.85809 0.0
C70 C 0.49032 0.02606 0.80945 0.0
O71 O 0.4661 0.02618 0.82334 0.0
Cd72 Cd 0.4711 0.03877 0.86419 0.0
O73 O 0.51891 0.0327 0.8168 0.0
Cd74 Cd 0.54782 0.04724 0.85301 0.0
C75 C 0.50319 0.11628 0.85874 0.0
O76 O 0.51759 0.00918 0.87745 0.0
O77 O 0.54767 0.04401 0.89575 0.0
O78 O 0.5911 0.01424 0.83544 0.0
C79 C 0.52885 0.01943 0.89674 0.0
O80 O 0.48039 0.09779 0.86622 0.0
C81 C 0.61441 0.03098 0.84384 0.0
O82 O 0.52975 0.10446 0.85072 0.0
O83 O 0.60687 0.05612 0.85577 0.0
C84 C 0.46372 0.02928 0.63662 0.0
O85 O 0.4885 0.02753 0.6233 0.0
Cd86 Cd 0.48663 0.04287 0.58305 0.0
O87 O 0.43608 0.0382 0.62862 0.0
Cd88 Cd 0.40885 0.0538 0.59168 0.0
C89 C 0.45617 0.12169 0.58935 0.0
O90 O 0.43969 0.01548 0.56813 0.0
O91 O 0.41042 0.04998 0.54892 0.0
O92 O 0.36553 0.02108 0.60926 0.0
C93 C 0.42943 0.02555 0.54852 0.0
O94 O 0.47943 0.10222 0.58431 0.0
C95 C 0.34219 0.03707 0.60025 0.0
O96 O 0.42763 0.11081 0.59387 0.0
O97 O 0.34964 0.0618 0.58785 0.0
C98 C -0.00231 0.94564 0.63959 0.0
O99 O 0.97256 0.94733 0.62664 0.0
Cd100 Cd 0.97387 0.93306 0.58611 0.0
O101 O 0.02526 0.93744 0.63107 0.0
Cd102 Cd 0.05177 0.92321 0.59361 0.0
C103 C 0.00553 0.85464 0.59109 0.0
O104 O 0.0199 0.96145 0.57048 0.0
O105 O 0.04928 0.92693 0.55117 0.0
O106 O 0.09538 0.95671 0.61004 0.0
C107 C 0.03027 0.95136 0.55086 0.0
O108 O -0.01815 0.87378 0.58645 0.0
C109 C 0.11854 0.94043 0.601 0.0
O110 O 0.03391 0.86594 0.59551 0.0
O111 O 0.11083 0.91522 0.5892 0.0
C112 C 0.49407 0.52682 0.1368 0.0
O113 O 0.46964 0.52788 0.12314 0.0
Cd114 Cd 0.47352 0.54327 0.08269 0.0
O115 O 0.52257 0.53396 0.12946 0.0
Cd116 Cd 0.55151 0.5505 0.09368 0.0
C117 C 0.50687 0.62019 0.08986 0.0
O118 O 0.52037 0.5159 0.06816 0.0
O119 O 0.55115 0.55094 0.05057 0.0
O120 O 0.59268 0.5109 0.10468 0.0
C121 C 0.53129 0.52719 0.04907 0.0
O122 O 0.48371 0.60211 0.08247 0.0
C123 C 0.61696 0.52995 0.10258 0.0
O124 O 0.53367 0.608 0.09717 0.0
O125 O 0.61089 0.55945 0.0969 0.0
C126 C 0.96757 0.45343 0.13591 0.0
O127 O -0.00753 0.45402 0.12263 0.0
Cd128 Cd -0.00848 0.43517 0.08305 0.0
O129 O 0.93994 0.44385 0.12825 0.0
Cd130 Cd 0.912 0.42531 0.09233 0.0
C131 C 0.95979 0.35722 0.09258 0.0
O132 O 0.94378 0.45917 0.06709 0.0
O133 O 0.91323 0.42431 0.04914 0.0
O134 O 0.87056 0.46489 0.10255 0.0
C135 C 0.93372 0.44756 0.04788 0.0
O136 O -0.01673 0.37624 0.08706 0.0
C137 C 0.84637 0.44565 0.10085 0.0
O138 O 0.93117 0.36843 0.09642 0.0
O139 O 0.85255 0.41602 0.09557 0.0
C140 C -0.00951 0.45712 0.30798 0.0
O141 O 0.96574 0.45692 0.32139 0.0
Cd142 Cd 0.96807 0.43818 0.361 0.0
O143 O 0.01842 0.44838 0.3155 0.0
Cd144 Cd 0.0463 0.43037 0.35146 0.0
C145 C 0.00049 0.361 0.35167 0.0
O146 O 0.01483 0.46386 0.37766 0.0
O147 O 0.04539 0.42779 0.39434 0.0
O148 O 0.08879 0.46967 0.3423 0.0
C149 C 0.02554 0.45141 0.39644 0.0
O150 O 0.9766 0.37925 0.35749 0.0
C151 C 0.1124 0.44968 0.34356 0.0
O152 O 0.02859 0.37317 0.34741 0.0
O153 O 0.10531 0.42 0.34803 0.0
C154 C 0.4638 0.52252 0.30881 0.0
O155 O 0.48869 0.52126 0.32203 0.0
Cd156 Cd 0.48771 0.53879 0.36198 0.0
O157 O 0.4363 0.53197 0.31672 0.0
Cd158 Cd 0.40933 0.54934 0.35323 0.0
C159 C 0.45737 0.6172 0.35386 0.0
O160 O 0.44033 0.51434 0.37861 0.0
O161 O 0.41076 0.55047 0.39617 0.0
O162 O 0.36648 0.51103 0.34327 0.0
C163 C 0.43027 0.52647 0.3977 0.0
O164 O 0.48072 0.59801 0.3592 0.0
C165 C 0.34302 0.53112 0.34511 0.0
O166 O 0.42879 0.60611 0.34977 0.0
O167 O 0.35033 0.5605 0.35037 0.0
C168 C 0.46909 0.4478 0.81089 0.0
O169 O 0.49357 0.44731 0.82452 0.0
Cd170 Cd 0.48921 0.43381 0.86524 0.0
O171 O 0.44067 0.4408 0.81844 0.0
Cd172 Cd 0.41256 0.42514 0.85478 0.0
C173 C 0.45734 0.35622 0.86001 0.0
O174 O 0.44292 0.46329 0.87895 0.0
O175 O 0.41321 0.42841 0.89756 0.0
O176 O 0.36934 0.45838 0.83762 0.0
C177 C 0.43191 0.45311 0.89834 0.0
O178 O 0.48014 0.37479 0.86731 0.0
C179 C 0.346 0.44185 0.8462 0.0
O180 O 0.43066 0.36792 0.85214 0.0
O181 O 0.35348 0.41659 0.85801 0.0
C182 C 0.00037 0.5291 0.81127 0.0
O183 O 0.97572 0.52736 0.82473 0.0
Cd184 Cd 0.97812 0.54163 0.86518 0.0
O185 O 0.02814 0.53789 0.81912 0.0
Cd186 Cd 0.05584 0.55348 0.85587 0.0
C187 C 0.00801 0.62083 0.85996 0.0
O188 O 0.02562 0.51428 0.8791 0.0
O189 O 0.05551 0.54805 0.89853 0.0
O190 O 0.09929 0.52193 0.83746 0.0
C191 C 0.03639 0.52367 0.89874 0.0
O192 O -0.01504 0.60102 0.86492 0.0
C193 C 0.12253 0.53801 0.84656 0.0
O194 O 0.03649 0.61034 0.85488 0.0
O195 O 0.11492 0.5623 0.85934 0.0
C196 C 0.96948 0.52081 0.63889 0.0
O197 O -0.00612 0.5195 0.62519 0.0
Cd198 Cd -0.00929 0.5348 0.58481 0.0
O199 O 0.94147 0.5292 0.63133 0.0
Cd200 Cd 0.9131 0.54454 0.59501 0.0
C201 C 0.95992 0.61306 0.59166 0.0
O202 O 0.94328 0.50876 0.56938 0.0
O203 O 0.91293 0.54462 0.55224 0.0
O204 O 0.87029 0.50647 0.60584 0.0
C205 C 0.93216 0.52044 0.55046 0.0
O206 O -0.01669 0.59401 0.58613 0.0
C207 C 0.84693 0.5267 0.60415 0.0
O208 O 0.93176 0.60169 0.59678 0.0
O209 O 0.85435 0.55599 0.59872 0.0
C210 C 0.49412 0.45609 0.63817 0.0
O211 O 0.46945 0.45818 0.62479 0.0
Cd212 Cd 0.47113 0.4424 0.58445 0.0
O213 O 0.52167 0.44684 0.63022 0.0
Cd214 Cd 0.54916 0.43101 0.5936 0.0
C215 C 0.50079 0.36349 0.59107 0.0
O216 O 0.51887 0.46722 0.56854 0.0
O217 O 0.54853 0.43138 0.55073 0.0
O218 O 0.59219 0.46864 0.60448 0.0
C219 C 0.52928 0.45561 0.54938 0.0
O220 O 0.47764 0.38305 0.58596 0.0
C221 C 0.61547 0.44835 0.60258 0.0
O222 O 0.52937 0.37423 0.59564 0.0
O223 O 0.60795 0.41919 0.59688 0.0
H224 H 0.29226 0.9105 0.10381 0.0
H225 H 0.17387 0.06601 0.10232 0.0
H226 H 0.32656 0.00993 0.11113 0.0
H227 H 0.1394 0.96655 0.10902 0.0
H228 H 0.2301 0.04606 0.10523 0.0
H229 H 0.23598 0.93052 0.10548 0.0
C230 C 0.28796 0.9365 0.10594 0.0
C231 C 0.31414 0.95857 0.10726 0.0
C232 C 0.2102 0.02864 0.10621 0.0
C233 C 0.24986 0.9817 0.10897 0.0
C234 C 0.17812 0.04003 0.10453 0.0
C235 C 0.15191 0.01792 0.10535 0.0
C236 C 0.21611 -0.00511 0.10852 0.0
C237 C 0.15885 0.98449 0.10826 0.0
C238 C 0.25584 0.94792 0.10689 0.0
C239 C 0.30713 -0.00799 0.11002 0.0
N240 N 0.19025 0.97399 0.10958 0.0
N241 N 0.27569 0.00257 0.1106 0.0
H242 H 0.67619 0.90861 0.34828 0.0
H243 H 0.79341 0.06526 0.34628 0.0
H244 H 0.64123 0.0076 0.34001 0.0
H245 H 0.82869 0.96601 0.3407 0.0
H246 H 0.73735 0.04461 0.34445 0.0
H247 H 0.73236 0.92903 0.34599 0.0
C248 C 0.68032 0.93459 0.34585 0.0
C249 C 0.654 0.95643 0.3444 0.0
C250 C 0.75738 0.02737 0.34348 0.0
C251 C 0.71809 0.97999 0.34194 0.0
C252 C 0.78937 0.03916 0.34454 0.0
C253 C 0.81575 0.01733 0.3437 0.0
C254 C 0.75173 -0.00651 0.34179 0.0
C255 C 0.80909 0.98374 0.34142 0.0
C256 C 0.71237 0.94624 0.34453 0.0
C257 C 0.66077 -0.01014 0.34124 0.0
N258 N 0.77776 0.97284 0.34071 0.0
N259 N 0.69212 0.00063 0.34027 0.0
H260 H 0.79184 0.93281 0.87758 0.0
H261 H 0.64292 -0.00146 0.80722 0.0
H262 H 0.81193 0.97443 0.80961 0.0
H263 H 0.66267 0.03695 0.87616 0.0
H264 H 0.69862 0.9757 0.80608 0.0
H265 H 0.73651 0.95579 0.87587 0.0
C266 C 0.78437 0.94623 0.86212 0.0
C267 C 0.80633 0.95181 0.8437 0.0
C268 C 0.69063 -0.01064 0.82131 0.0
C269 C 0.74342 0.97755 0.8416 0.0
C270 C 0.65907 0.00234 0.82199 0.0
C271 C 0.64846 0.0198 0.84175 0.0
C272 C 0.71097 -0.00711 0.84088 0.0
C273 C 0.67013 0.02394 0.86052 0.0
C274 C 0.75304 0.9595 0.86128 0.0
C275 C 0.79562 0.96971 0.82417 0.0
N276 N 0.70024 0.01007 0.8598 0.0
N277 N 0.7647 0.98183 0.82352 0.0
H278 H 0.1661 0.93446 0.56798 0.0
H279 H 0.31371 0.00653 0.63761 0.0
H280 H 0.14756 0.97398 0.6368 0.0
H281 H 0.29431 0.03999 0.56734 0.0
H282 H 0.25863 0.98233 0.63904 0.0
H283 H 0.22053 0.9598 0.5686 0.0
C284 C 0.17374 0.94797 0.58336 0.0
C285 C 0.15249 0.95219 0.60238 0.0
C286 C 0.26652 -0.00479 0.62344 0.0
C287 C 0.21435 0.98067 0.60324 0.0
C288 C 0.29773 0.00898 0.6226 0.0
C289 C 0.30828 0.02542 0.60238 0.0
C290 C 0.24643 -0.00307 0.60361 0.0
C291 C 0.28686 0.02781 0.58332 0.0
C292 C 0.20453 0.9626 0.58359 0.0
C293 C 0.16333 0.97027 0.62179 0.0
N294 N 0.25706 0.0132 0.58424 0.0
N295 N 0.19374 0.98369 0.62184 0.0
H296 H 0.82702 0.50873 0.10814 0.0
H297 H 0.63631 0.46686 0.10999 0.0
H298 H 0.78895 0.41074 0.10042 0.0
H299 H 0.67437 0.5647 0.1013 0.0
H300 H 0.69209 0.44598 0.11181 0.0
H301 H 0.77132 0.52948 0.11091 0.0
C302 C 0.80694 0.49151 0.10717 0.0
C303 C 0.81266 0.45792 0.10393 0.0
C304 C 0.68825 0.47202 0.1096 0.0
C305 C 0.74874 0.48163 0.1071 0.0
C306 C 0.65641 0.48402 0.10864 0.0
C307 C 0.65067 0.5176 0.10538 0.0
C308 C 0.71462 0.49376 0.10743 0.0
C309 C 0.67767 0.53863 0.10374 0.0
C310 C 0.77513 0.50343 0.10869 0.0
C311 C 0.78566 0.43681 0.10282 0.0
N312 N 0.70849 0.52635 0.10474 0.0
N313 N 0.75484 0.44904 0.10437 0.0
H314 H 0.28714 0.56818 0.34607 0.0
H315 H 0.16833 0.41278 0.3431 0.0
H316 H 0.32113 0.46885 0.33779 0.0
H317 H 0.13413 0.5125 0.33849 0.0
H318 H 0.22461 0.43284 0.3413 0.0
H319 H 0.2308 0.54839 0.34348 0.0
C320 C 0.28276 0.54226 0.34358 0.0
C321 C 0.30885 0.52013 0.34223 0.0
C322 C 0.20477 0.45031 0.34053 0.0
C323 C 0.24455 0.49729 0.33941 0.0
C324 C 0.17266 0.43886 0.34157 0.0
C325 C 0.14652 0.461 0.34102 0.0
C326 C 0.21078 0.48415 0.33914 0.0
C327 C 0.15354 0.49454 0.339 0.0
C328 C 0.25061 0.53097 0.34208 0.0
C329 C 0.30177 0.48679 0.33896 0.0
N330 N 0.18498 0.50511 0.33829 0.0
N331 N 0.27032 0.47637 0.33782 0.0
H332 H 0.15111 0.50818 0.80893 0.0
H333 H 0.29762 0.43481 0.87846 0.0
H334 H 0.17046 0.54102 0.87938 0.0
H335 H 0.31781 0.4762 0.81044 0.0
H336 H 0.2433 0.46019 0.87757 0.0
H337 H 0.20623 0.48414 0.8074 0.0
C338 C 0.1671 0.51056 0.82395 0.0
C339 C 0.15651 0.52674 0.84426 0.0
C340 C 0.25963 0.46337 0.8628 0.0
C341 C 0.21836 0.49842 0.84291 0.0
C342 C 0.29036 0.44872 0.86318 0.0
C343 C 0.31206 0.45348 0.84448 0.0
C344 C 0.25031 0.48202 0.84332 0.0
C345 C 0.30169 0.47207 0.82519 0.0
C346 C 0.19832 0.49688 0.82305 0.0
C347 C 0.17793 0.52904 0.86333 0.0
N348 N 0.27132 0.48552 0.82499 0.0
N349 N 0.20772 0.5145 0.86236 0.0
H350 H 0.67089 0.4106 0.60208 0.0
H351 H 0.79151 0.56436 0.60407 0.0
H352 H 0.63799 0.51033 0.61021 0.0
H353 H 0.82443 0.46443 0.61067 0.0
H354 H 0.73497 0.5451 0.60616 0.0
H355 H 0.72743 0.42971 0.60502 0.0
C356 C 0.67555 0.43647 0.60462 0.0
C357 C 0.64971 0.45891 0.60581 0.0
C358 C 0.75459 0.52742 0.60733 0.0
C359 C 0.71423 0.48098 0.60901 0.0
C360 C 0.78685 0.53841 0.60612 0.0
C361 C 0.8127 0.51597 0.6071 0.0
C362 C 0.74815 0.49371 0.60931 0.0
C363 C 0.80525 0.48261 0.6098 0.0
C364 C 0.7078 0.44737 0.60633 0.0
C365 C 0.65715 0.49216 0.60916 0.0
N366 N 0.77368 0.47247 0.61062 0.0
N367 N 0.68871 0.5022 0.61046 0.0
H368 H 0.02841 0.00975 0.28628 0.0
H369 H 0.93982 0.00587 0.1618 0.0
H370 H 0.9239 0.0157 0.27696 0.0
H371 H 0.04403 0.01615 0.17098 0.0
H372 H 0.9339 -0.00127 0.20404 0.0
H373 H 0.03461 0.0014 0.24418 0.0
C374 C 0.00673 0.00897 0.27543 0.0
C375 C 0.97562 0.01395 0.2851 0.0
C376 C 0.95808 0.00225 0.19676 0.0
C377 C -0.01741 0.00447 0.23696 0.0
C378 C 0.9615 0.00628 0.17265 0.0
C379 C -0.00758 0.01213 0.16288 0.0
C380 C -0.01423 0.00406 0.21118 0.0
C381 C 0.01966 0.01215 0.17778 0.0
C382 C 0.01031 0.00425 0.2514 0.0
C383 C 0.9484 0.01242 0.27022 0.0
N384 N 0.01566 0.00849 0.20123 0.0
N385 N 0.95255 0.0081 0.24684 0.0
H386 H 0.52985 0.96219 0.16159 0.0
H387 H 0.4433 0.96975 0.28692 0.0
H388 H 0.42535 0.96253 0.172 0.0
H389 H 0.54681 0.95468 0.27706 0.0
H390 H 0.4373 0.97715 0.24475 0.0
H391 H 0.53727 0.96934 0.20375 0.0
C392 C 0.50847 0.96411 0.17269 0.0
C393 C 0.47693 0.96127 0.1633 0.0
C394 C 0.46137 0.97249 0.25184 0.0
C395 C 0.48527 0.9694 0.21147 0.0
C396 C 0.46483 0.9683 0.27593 0.0
C397 C 0.49553 0.96109 0.2855 0.0
C398 C 0.48879 0.96944 0.23723 0.0
C399 C 0.5226 0.95979 0.27042 0.0
C400 C 0.51273 0.96813 0.19675 0.0
C401 C 0.45013 0.96414 0.1785 0.0
N402 N 0.51854 0.96362 0.24698 0.0
N403 N 0.45492 0.96779 0.20186 0.0
H404 H 0.04652 0.94638 0.6722 0.0
H405 H 0.02148 0.9718 0.79077 0.0
H406 H 0.94232 0.95898 0.66482 0.0
H407 H 0.9222 0.9426 0.77602 0.0
H408 H 0.03159 0.97666 0.74891 0.0
H409 H 0.04087 0.95242 0.71431 0.0
C410 C 0.02247 0.95095 0.67941 0.0
C411 C -0.00517 0.95206 0.66494 0.0
C412 C 0.00773 0.96874 0.75475 0.0
C413 C -0.0118 0.95984 0.7133 0.0
C414 C 0.00182 0.96629 0.77872 0.0
C415 C 0.97109 0.95623 0.78692 0.0
C416 C -0.0172 0.96073 0.73886 0.0
C417 C 0.94638 0.95005 0.77049 0.0
C418 C 0.01929 0.95478 0.70355 0.0
C419 C 0.9643 0.95791 0.67531 0.0
N420 N 0.95285 0.95221 0.74723 0.0
N421 N 0.96177 0.96125 0.6989 0.0
H422 H 0.51941 0.0134 0.66053 0.0
H423 H 0.4324 0.01972 0.78581 0.0
H424 H 0.41593 0.02898 0.6702 0.0
H425 H 0.53693 0.01806 0.77567 0.0
H426 H 0.4251 0.01441 0.7435 0.0
H427 H 0.52528 0.00634 0.70273 0.0
C428 C 0.49787 0.0151 0.67149 0.0
C429 C 0.46719 0.02221 0.66184 0.0
C430 C 0.44962 0.01496 0.75059 0.0
C431 C 0.47379 0.01422 0.71016 0.0
C432 C 0.4538 0.01793 0.77473 0.0
C433 C 0.48532 0.01976 0.78426 0.0
C434 C 0.47714 0.01373 0.73592 0.0
C435 C 0.51217 0.01715 0.76908 0.0
C436 C 0.50126 0.01109 0.6956 0.0
C437 C 0.44012 0.02388 0.6769 0.0
N438 N 0.50745 0.01449 0.74565 0.0
N439 N 0.4441 0.02016 0.70035 0.0
H440 H 0.54117 0.51554 0.16967 0.0
H441 H 0.41541 0.51922 0.27588 0.0
H442 H 0.43651 0.51928 0.16077 0.0
H443 H 0.51969 0.50881 0.28434 0.0
H444 H 0.42212 0.51317 0.23367 0.0
H445 H 0.53333 0.50711 0.21153 0.0
C446 C 0.51651 0.51437 0.17649 0.0
C447 C 0.48945 0.51859 0.16174 0.0
C448 C 0.4435 0.51187 0.24477 0.0
C449 C 0.48032 0.50906 0.20971 0.0
C450 C 0.4397 0.51535 0.26889 0.0
C451 C 0.46711 0.51501 0.28364 0.0
C452 C 0.47494 0.50826 0.23532 0.0
C453 C 0.49792 0.50955 0.27362 0.0
C454 C 0.51205 0.50946 0.20041 0.0
C455 C 0.45808 0.51642 0.17152 0.0
N456 N 0.50104 0.50677 0.25004 0.0
N457 N 0.45438 0.51217 0.19496 0.0
H458 H 0.93378 0.46895 0.28399 0.0
H459 H 0.02344 0.46911 0.15977 0.0
H460 H 0.03843 0.46432 0.27502 0.0
H461 H 0.91923 0.45833 0.16882 0.0
H462 H 0.02887 0.4782 0.20184 0.0
H463 H 0.92781 0.47601 0.24174 0.0
C464 C 0.95553 0.4698 0.27319 0.0
C465 C -0.01337 0.46548 0.283 0.0
C466 C 0.00479 0.47414 0.19457 0.0
C467 C 0.97993 0.47345 0.23471 0.0
C468 C 0.00166 0.46897 0.17055 0.0
C469 C 0.97089 0.46241 0.16082 0.0
C470 C 0.97698 0.47275 0.20893 0.0
C471 C 0.9435 0.46282 0.17562 0.0
C472 C 0.95208 0.47377 0.24907 0.0
C473 C 0.01394 0.46706 0.26817 0.0
N474 N 0.94723 0.46758 0.19898 0.0
N475 N 0.00993 0.47061 0.24473 0.0
H476 H 0.43804 0.46927 0.66263 0.0
H477 H 0.52645 0.45756 0.78708 0.0
H478 H 0.54211 0.45728 0.67142 0.0
H479 H 0.4218 0.45586 0.77765 0.0
H480 H 0.53302 0.46634 0.74501 0.0
H481 H 0.43222 0.47359 0.70508 0.0
C482 C 0.45971 0.46788 0.67345 0.0
C483 C 0.49056 0.46244 0.66348 0.0
C484 C 0.50863 0.46427 0.7522 0.0
C485 C 0.48403 0.46723 0.71202 0.0
C486 C 0.50485 0.45927 0.77621 0.0
C487 C 0.47354 0.45555 0.78585 0.0
C488 C 0.4809 0.46559 0.73778 0.0
C489 C 0.44643 0.45819 0.77095 0.0
C490 C 0.45635 0.47028 0.69768 0.0
C491 C 0.5178 0.46106 0.67836 0.0
N492 N 0.45075 0.46284 0.74762 0.0
N493 N 0.51385 0.46316 0.70191 0.0
H494 H 0.04831 0.52564 0.77793 0.0
H495 H 0.9221 0.51467 0.67234 0.0
H496 H 0.94407 0.5158 0.78726 0.0
H497 H 0.02678 0.51331 0.66303 0.0
H498 H 0.92987 0.51087 0.71456 0.0
H499 H 0.04122 0.5173 0.73594 0.0
C500 C 0.02394 0.52155 0.77118 0.0
C501 C -0.00331 0.52179 0.78611 0.0
C502 C 0.95115 0.51107 0.70329 0.0
C503 C -0.01158 0.51229 0.73806 0.0
C504 C 0.94674 0.51328 0.67916 0.0
C505 C 0.97386 0.51471 0.66415 0.0
C506 C -0.01709 0.51059 0.7125 0.0
C507 C 0.00518 0.51249 0.67396 0.0
C508 C 0.01993 0.5167 0.7472 0.0
C509 C 0.96575 0.51605 0.7764 0.0
N510 N 0.00886 0.51092 0.69756 0.0
N511 N 0.96243 0.51183 0.75294 0.0
H512 H 0.94387 0.14608 0.09197 0.0
H513 H 0.01901 0.32639 0.09177 0.0
H514 H 0.04709 0.16588 0.09833 0.0
H515 H 0.91566 0.3068 0.09744 0.0
H516 H 0.02967 0.26778 0.09342 0.0
H517 H 0.9331 0.20472 0.09321 0.0
C518 C 0.96433 0.16273 0.09366 0.0
C519 C -0.00349 0.15095 0.09496 0.0
C520 C 0.00467 0.27626 0.0944 0.0
C521 C -0.01579 0.21835 0.09633 0.0
C522 C -0.0015 0.30979 0.09339 0.0
C523 C 0.96631 0.32163 0.09437 0.0
C524 C 0.9785 0.25423 0.09621 0.0
C525 C 0.94083 0.29883 0.09661 0.0
C526 C 0.9581 0.19627 0.09443 0.0
C527 C 0.02192 0.1738 0.09726 0.0
N528 N 0.94747 0.26622 0.09732 0.0
N529 N 0.01523 0.20641 0.09774 0.0
H530 H 0.44476 0.81582 0.12577 0.0
H531 H 0.48359 0.6572 0.05426 0.0
H532 H 0.48937 0.82392 0.05755 0.0
H533 H 0.51804 0.66362 0.12545 0.0
H534 H 0.47221 0.71623 0.05483 0.0
H535 H 0.45785 0.75686 0.12596 0.0
C536 C 0.45696 0.80508 0.11079 0.0
C537 C 0.46603 0.82451 0.09161 0.0
C538 C 0.48235 0.70464 0.07026 0.0
C539 C 0.48042 0.7578 0.09159 0.0
C540 C 0.48882 0.67115 0.06996 0.0
C541 C 0.502 0.65585 0.08977 0.0
C542 C 0.48801 0.72258 0.09078 0.0
C543 C 0.50823 0.67479 0.10977 0.0
C544 C 0.46462 0.77171 0.111 0.0
C545 C 0.48209 0.80966 0.07268 0.0
N546 N 0.50074 0.70727 0.10991 0.0
N547 N 0.48844 0.77705 0.073 0.0
H548 H 0.41333 0.66748 0.3489 0.0
H549 H 0.55014 0.80798 0.35008 0.0
H550 H 0.51654 0.6482 0.35578 0.0
H551 H 0.4468 0.827 0.35651 0.0
H552 H 0.53833 0.74926 0.3484 0.0
H553 H 0.42522 0.72619 0.3479 0.0
C554 C 0.43847 0.67554 0.35012 0.0
C555 C 0.46393 0.65283 0.35254 0.0
C556 C 0.51827 0.76634 0.35016 0.0
C557 C 0.47772 0.71997 0.35135 0.0
C558 C 0.525 0.79986 0.35107 0.0
C559 C 0.49947 0.8225 0.35355 0.0
C560 C 0.48578 0.75538 0.35158 0.0
C561 C 0.46732 0.8105 0.35474 0.0
C562 C 0.44524 0.70907 0.3496 0.0
C563 C 0.49607 0.66476 0.35404 0.0
N564 N 0.46142 0.77781 0.35373 0.0
N565 N 0.50203 0.69746 0.35342 0.0
H566 H 0.04635 0.31251 0.34617 0.0
H567 H 0.91514 0.16682 0.34811 0.0
H568 H 0.94253 0.32778 0.35365 0.0
H569 H 0.01912 0.15191 0.35471 0.0
H570 H 0.92467 0.22591 0.34603 0.0
H571 H 0.03673 0.2534 0.34513 0.0
C572 C 0.02154 0.30349 0.34749 0.0
C573 C -0.00476 0.32518 0.35013 0.0
C574 C 0.94537 0.20966 0.3479 0.0
C575 C -0.01594 0.25758 0.34891 0.0
C576 C 0.93995 0.17592 0.34904 0.0
C577 C 0.96633 0.15433 0.35171 0.0
C578 C 0.97741 0.22189 0.34927 0.0
C579 C -0.00202 0.16758 0.3528 0.0
C580 C 0.01607 0.26973 0.34696 0.0
C581 C 0.9636 0.31202 0.35175 0.0
N582 N 0.00262 0.20046 0.35158 0.0
N583 N 0.95891 0.27912 0.35113 0.0
H584 H 0.05151 0.67194 0.85655 0.0
H585 H 0.9128 0.80994 0.85621 0.0
H586 H 0.94856 0.65088 0.86321 0.0
H587 H 0.01531 0.83102 0.86559 0.0
H588 H 0.92558 0.75145 0.85569 0.0
H589 H 0.03885 0.73051 0.85673 0.0
C590 C 0.02627 0.67959 0.85802 0.0
C591 C 0.00109 0.65642 0.85991 0.0
C592 C 0.94525 0.76891 0.8579 0.0
C593 C -0.01356 0.72334 0.86004 0.0
C594 C 0.93797 0.80231 0.85816 0.0
C595 C 0.96299 0.82547 0.86099 0.0
C596 C 0.9778 0.75859 0.86028 0.0
C597 C -0.00481 0.81409 0.86345 0.0
C598 C 0.01907 0.71302 0.85818 0.0
C599 C 0.96881 0.6678 0.8618 0.0
N600 N 0.00167 0.78149 0.86296 0.0
N601 N 0.96243 0.70041 0.86175 0.0
H602 H 0.48285 0.32015 0.89545 0.0
H603 H 0.51842 0.16049 0.82452 0.0
H604 H 0.44458 0.31191 0.82535 0.0
H605 H 0.4756 0.15262 0.89335 0.0
H606 H 0.50576 0.21949 0.82453 0.0
H607 H 0.49424 0.26106 0.8953 0.0
C608 C 0.47682 0.30581 0.88008 0.0
C609 C 0.46257 0.32061 0.86044 0.0
C610 C 0.49932 0.20469 0.83959 0.0
C611 C 0.47651 0.25388 0.8599 0.0
C612 C 0.50673 0.1713 0.83969 0.0
C613 C 0.498 0.15192 0.85898 0.0
C614 C 0.48413 0.2187 0.8592 0.0
C615 C 0.4826 0.16686 0.87815 0.0
C616 C 0.48328 0.27231 0.88003 0.0
C617 C 0.45527 0.30117 0.84089 0.0
N618 N 0.47646 0.19953 0.87792 0.0
N619 N 0.46277 0.26872 0.84095 0.0
H620 H 0.51547 0.15233 0.58673 0.0
H621 H 0.44142 0.33301 0.58838 0.0
H622 H 0.41242 0.17234 0.59394 0.0
H623 H 0.54446 0.31269 0.59503 0.0
H624 H 0.43037 0.27436 0.5886 0.0
H625 H 0.52647 0.21096 0.58789 0.0
C626 C 0.4951 0.16903 0.58854 0.0
C627 C 0.46291 0.15731 0.59019 0.0
C628 C 0.45539 0.28271 0.59008 0.0
C629 C 0.47546 0.22467 0.5915 0.0
C630 C 0.46178 0.31624 0.5899 0.0
C631 C 0.49398 0.32788 0.59164 0.0
C632 C 0.48138 0.2605 0.59184 0.0
C633 C 0.51927 0.30488 0.59366 0.0
C634 C 0.50146 0.20255 0.58927 0.0
C635 C 0.4376 0.18022 0.59262 0.0
N636 N 0.51244 0.27229 0.5936 0.0
N637 N 0.44441 0.21281 0.5931 0.0
H638 H 0.05034 0.80484 0.59475 0.0
H639 H 0.91532 0.66284 0.59667 0.0
H640 H 0.94679 0.82289 0.58873 0.0
H641 H 0.01851 0.6448 0.58794 0.0
H642 H 0.92646 0.72171 0.59702 0.0
H643 H 0.03921 0.74598 0.59545 0.0
C644 C 0.02529 0.79647 0.5936 0.0
C645 C -0.00051 0.81889 0.59162 0.0
C646 C 0.94664 0.70482 0.59502 0.0
C647 C -0.01342 0.75159 0.59252 0.0
C648 C 0.9403 0.67121 0.59488 0.0
C649 C 0.96598 0.6488 0.59221 0.0
C650 C 0.97891 0.7161 0.59267 0.0
C651 C -0.00211 0.66112 0.58993 0.0
C652 C 0.01895 0.76286 0.59396 0.0
C653 C 0.96749 0.80657 0.59018 0.0
N654 N 0.00344 0.69389 0.59026 0.0
N655 N 0.96196 0.77379 0.59071 0.0
H656 H 0.97154 0.00587 0.90476 0.0
H657 H -0.01784 0.9793 0.04324 0.0
H658 H 0.91059 0.93847 0.94336 0.0
H659 H 0.04228 0.04848 0.00558 0.0
H660 H 0.95525 0.9647 0.00669 0.0
H661 H -0.0033 0.02319 0.94152 0.0
C662 C 0.96329 -0.0051 0.92099 0.0
C663 C 0.93908 0.97058 0.92104 0.0
C664 C 0.97432 0.98308 0.00637 0.0
C665 C 0.96788 -0.00993 0.96305 0.0
C666 C -0.01022 -0.00864 0.02723 0.0
C667 C 0.01451 0.01512 0.02741 0.0
C668 C -0.01633 -0.00137 -0.01451 0.0
C669 C 0.02334 0.03 0.00619 0.0
C670 C 0.97772 0.00473 0.94195 0.0
C671 C 0.92927 0.95721 0.94254 0.0
N672 N 0.00791 0.02149 -0.01396 0.0
N673 N 0.94383 0.96703 0.96268 0.0
H674 H 0.48371 0.97114 0.90406 0.0
H675 H 0.47872 -9e-05 0.04255 0.0
H676 H 0.54481 0.04055 0.9406 0.0
H677 H 0.41951 0.9278 0.00712 0.0
H678 H 0.50286 0.01522 0.00512 0.0
H679 H 0.46019 0.95432 0.94154 0.0
C680 C 0.49231 0.98269 0.91999 0.0
C681 C 0.51614 0.00736 0.91926 0.0
C682 C 0.48458 -0.00394 0.00549 0.0
C683 C 0.48923 -0.01157 0.96208 0.0
C684 C 0.4707 0.98737 0.02686 0.0
C685 C 0.4471 0.96253 0.02792 0.0
C686 C 0.47477 0.97981 -0.015 0.0
C687 C 0.43764 0.9471 0.00705 0.0
C688 C 0.47882 0.97314 0.94136 0.0
C689 C 0.52642 0.02149 0.94038 0.0
N690 N 0.45156 0.95598 -0.0136 0.0
N691 N 0.51281 0.0119 0.96093 0.0
H692 H 0.41437 0.04492 0.50409 0.0
H693 H 0.54491 0.92635 0.44337 0.0
H694 H 0.47506 0.97745 0.54264 0.0
H695 H 0.48581 -0.00364 0.40586 0.0
H696 H 0.51897 0.9437 0.47996 0.0
H697 H 0.43917 0.02584 0.46772 0.0
C698 C 0.43282 0.02597 0.50488 0.0
C699 C 0.44278 0.01282 0.52638 0.0
C700 C 0.51173 0.95526 0.46371 0.0
C701 C 0.47139 -0.00903 0.48488 0.0
C702 C 0.52655 0.94542 0.44286 0.0
C703 C 0.51748 0.95996 0.42159 0.0
C704 C 0.48768 0.97976 0.46321 0.0
C705 C 0.49356 0.98451 0.42187 0.0
C706 C 0.44703 0.01512 0.48412 0.0
C707 C 0.46672 -0.01173 0.52641 0.0
N708 N 0.47947 -0.0064 0.44236 0.0
N709 N 0.48032 0.97819 0.50595 0.0
H710 H -0.01499 -0.00015 0.54475 0.0
H711 H -0.01612 0.9803 0.40541 0.0
H712 H 0.04663 0.93273 0.50653 0.0
H713 H 0.92251 0.04897 0.44241 0.0
H714 H 0.0074 0.96317 0.44255 0.0
H715 H 0.96242 0.01922 0.50761 0.0
C716 C -0.00611 -0.01069 0.52854 0.0
C717 C 0.01761 0.96457 0.52868 0.0
C718 C -0.0112 0.98199 0.44261 0.0
C719 C -0.00813 0.98645 0.48627 0.0
C720 C 0.9753 -0.00825 0.42139 0.0
C721 C 0.95119 0.01608 0.42087 0.0
C722 C 0.9781 -0.00338 0.46349 0.0
C723 C 0.94104 0.0301 0.44208 0.0
C724 C 0.98095 0.00033 0.50737 0.0
C725 C 0.02828 0.95177 0.50722 0.0
N726 N 0.95457 0.02014 0.46259 0.0
N727 N 0.01525 0.9628 0.48688 0.0
H728 H 0.5457 0.55029 0.00521 0.0
H729 H 0.41579 0.43307 0.94247 0.0
H730 H 0.48533 0.48013 0.04171 0.0
H731 H 0.47725 0.50129 0.90504 0.0
H732 H 0.43996 0.4515 -0.02079 0.0
H733 H 0.52045 0.53351 0.96827 0.0
C734 C 0.52723 0.53129 0.00543 0.0
C735 C 0.51756 0.51657 0.02651 0.0
C736 C 0.44811 0.46253 0.96297 0.0
C737 C 0.48853 0.49744 -0.0155 0.0
C738 C 0.43426 0.45206 0.94201 0.0
C739 C 0.44465 0.46559 0.92071 0.0
C740 C 0.47255 0.48667 0.96262 0.0
C741 C 0.4686 0.49017 0.9211 0.0
C742 C 0.51278 0.52179 -0.01562 0.0
C743 C 0.49352 0.49212 0.02585 0.0
N744 N 0.48186 0.49986 0.94175 0.0
N745 N 0.4798 0.48336 0.00518 0.0
H746 H 0.92003 0.42499 0.00373 0.0
H747 H 0.05302 0.54122 0.94325 0.0
H748 H 0.98122 0.49323 0.04131 0.0
H749 H -0.01003 0.47618 0.90439 0.0
H750 H 0.0285 0.52169 -0.02041 0.0
H751 H 0.94637 0.4418 0.96713 0.0
C752 C 0.93894 0.44354 0.00426 0.0
C753 C 0.94845 0.45779 0.02553 0.0
C754 C 0.02007 0.51159 0.96313 0.0
C755 C 0.9787 0.47695 -0.01606 0.0
C756 C 0.03412 0.52269 0.94239 0.0
C757 C 0.02337 0.51041 0.92081 0.0
C758 C -0.00494 0.48807 0.96227 0.0
C759 C -0.0011 0.48635 0.92068 0.0
C760 C 0.95399 0.45307 -0.01659 0.0
C761 C 0.9731 0.48164 0.02528 0.0
N762 N -0.01457 0.47604 0.94114 0.0
N763 N -0.01263 0.49045 0.00481 0.0
H764 H 0.91523 0.54313 0.50715 0.0
H765 H 0.04119 0.42692 0.43958 0.0
H766 H 0.97706 0.47259 0.54177 0.0
H767 H 0.97992 0.49834 0.40536 0.0
H768 H 0.01764 0.44284 0.47724 0.0
H769 H 0.9379 0.5261 0.46952 0.0
C770 C 0.93349 0.52396 0.50681 0.0
C771 C 0.94438 0.5093 0.52757 0.0
C772 C 0.00938 0.45503 0.46149 0.0
C773 C 0.9705 0.4898 0.48467 0.0
C774 C 0.02285 0.446 0.44001 0.0
C775 C 0.01246 0.46134 0.41937 0.0
C776 C -0.01462 0.47956 0.46226 0.0
C777 C -0.01137 0.48589 0.42088 0.0
C778 C 0.94646 0.51429 0.48534 0.0
C779 C 0.96803 0.48456 0.52616 0.0
N780 N 0.97587 0.49422 0.44198 0.0
N781 N 0.98039 0.47564 0.50504 0.0
H782 H 0.54411 0.43279 0.50564 0.0
H783 H 0.41629 0.55039 0.44132 0.0
H784 H 0.48435 0.50372 0.54179 0.0
H785 H 0.47558 0.47882 0.40541 0.0
H786 H 0.44108 0.53381 0.47838 0.0
H787 H 0.51985 0.45 0.46858 0.0
C788 C 0.52598 0.45208 0.50575 0.0
C789 C 0.51614 0.46681 0.52678 0.0
C790 C 0.44863 0.52171 0.46239 0.0
C791 C 0.48821 0.48651 0.48454 0.0
C792 C 0.43444 0.53112 0.44126 0.0
C793 C 0.44393 0.51595 0.4203 0.0
C794 C 0.47245 0.49699 0.46251 0.0
C795 C 0.46756 0.49115 0.42118 0.0
C796 C 0.51209 0.46185 0.48462 0.0
C797 C 0.49259 0.49169 0.52595 0.0
N798 N 0.48105 0.48247 0.44196 0.0
N799 N 0.47935 0.50072 0.50516 0.0
loop_
_geom_bond_atom_site_label_1
_geom_bond_atom_site_label_2
_geom_bond_distance
_geom_bond_site_symmetry_2
_ccdc_geom_bond_type
C0 O1 1.306 . S
C0 O3 1.160 . S
O1 C0 1.306 . S
O1 Cd2 2.228 1_455 S
Cd2 O1 2.228 1_655 S
Cd2 O6 2.273 1_655 S
Cd2 O10 2.277 1_655 S
O3 C0 1.160 . S
O3 Cd4 2.203 . S
Cd4 O3 2.203 . S
Cd4 O6 2.411 . S
Cd4 O7 2.333 . S
Cd4 O8 2.352 . S
Cd4 O12 2.277 . S
Cd4 O13 2.356 . S
C5 O10 1.209 . S
C5 O12 1.226 . S
O6 Cd2 2.273 1_455 S
O6 Cd4 2.411 . S
O6 C9 1.320 . S
O7 Cd4 2.333 . S
O7 C9 1.214 . S
O8 Cd4 2.352 . S
O8 C11 1.258 . S
C9 O6 1.320 . S
C9 O7 1.214 . S
O10 Cd2 2.277 1_455 S
O10 C5 1.209 . S
C11 O8 1.258 . S
C11 O13 1.282 . S
O12 Cd4 2.277 . S
O12 C5 1.226 . S
O13 Cd4 2.356 . S
O13 C11 1.282 . S
C14 O15 1.306 . S
C14 O17 1.160 . S
O15 C14 1.306 . S
O15 Cd16 2.228 . S
Cd16 O15 2.228 . S
Cd16 O20 2.273 . S
Cd16 O24 2.277 . S
O17 C14 1.160 . S
O17 Cd18 2.203 . S
Cd18 O17 2.203 . S
Cd18 O20 2.411 . S
Cd18 O21 2.333 . S
Cd18 O22 2.352 . S
Cd18 O26 2.277 . S
Cd18 O27 2.356 . S
C19 O24 1.209 . S
C19 O26 1.226 . S
O20 Cd16 2.273 . S
O20 Cd18 2.411 . S
O20 C23 1.320 . S
O21 Cd18 2.333 . S
O21 C23 1.214 . S
O22 Cd18 2.352 . S
O22 C25 1.258 . S
C23 O20 1.320 . S
C23 O21 1.214 . S
O24 Cd16 2.277 . S
O24 C19 1.209 . S
C25 O22 1.258 . S
C25 O27 1.282 . S
O26 Cd18 2.277 . S
O26 C19 1.226 . S
O27 Cd18 2.356 . S
O27 C25 1.282 . S
C28 O29 1.306 . S
C28 O31 1.160 . S
O29 C28 1.306 . S
O29 Cd30 2.228 . S
Cd30 O29 2.228 . S
Cd30 O34 2.273 . S
Cd30 O38 2.277 . S
O31 C28 1.160 . S
O31 Cd32 2.203 . S
Cd32 O31 2.203 . S
Cd32 O34 2.411 . S
Cd32 O35 2.333 . S
Cd32 O36 2.352 . S
Cd32 O40 2.277 . S
Cd32 O41 2.356 . S
C33 O38 1.209 . S
C33 O40 1.226 . S
O34 Cd30 2.273 . S
O34 Cd32 2.411 . S
O34 C37 1.320 . S
O35 Cd32 2.333 . S
O35 C37 1.214 . S
O36 Cd32 2.352 . S
O36 C39 1.258 . S
C37 O34 1.320 . S
C37 O35 1.214 . S
O38 Cd30 2.277 . S
O38 C33 1.209 . S
C39 O36 1.258 . S
C39 O41 1.282 . S
O40 Cd32 2.277 . S
O40 C33 1.226 . S
O41 Cd32 2.356 . S
O41 C39 1.282 . S
C42 O43 1.306 . S
C42 O45 1.160 . S
O43 C42 1.306 . S
O43 Cd44 2.228 1_655 S
Cd44 O43 2.228 1_455 S
Cd44 O48 2.273 1_455 S
Cd44 O52 2.277 1_455 S
O45 C42 1.160 . S
O45 Cd46 2.203 . S
Cd46 O45 2.203 . S
Cd46 O48 2.411 . S
Cd46 O49 2.333 . S
Cd46 O50 2.352 . S
Cd46 O54 2.277 . S
Cd46 O55 2.356 . S
C47 O52 1.209 . S
C47 O54 1.226 . S
O48 Cd44 2.273 1_655 S
O48 Cd46 2.411 . S
O48 C51 1.320 . S
O49 Cd46 2.333 . S
O49 C51 1.214 . S
O50 Cd46 2.352 . S
O50 C53 1.258 . S
C51 O48 1.320 . S
C51 O49 1.214 . S
O52 Cd44 2.277 1_655 S
O52 C47 1.209 . S
C53 O50 1.258 . S
C53 O55 1.282 . S
O54 Cd46 2.277 . S
O54 C47 1.226 . S
O55 Cd46 2.356 . S
O55 C53 1.282 . S
C56 O57 1.306 . S
C56 O59 1.160 . S
O57 C56 1.306 . S
O57 Cd58 2.228 1_655 S
Cd58 O57 2.228 1_455 S
Cd58 O62 2.273 1_455 S
Cd58 O66 2.277 1_455 S
O59 C56 1.160 . S
O59 Cd60 2.203 . S
Cd60 O59 2.203 . S
Cd60 O62 2.411 . S
Cd60 O63 2.333 . S
Cd60 O64 2.352 . S
Cd60 O68 2.277 . S
Cd60 O69 2.356 . S
C61 O66 1.209 . S
C61 O68 1.226 . S
O62 Cd58 2.273 1_655 S
O62 Cd60 2.411 . S
O62 C65 1.320 . S
O63 Cd60 2.333 . S
O63 C65 1.214 . S
O64 Cd60 2.352 . S
O64 C67 1.258 . S
C65 O62 1.320 . S
C65 O63 1.214 . S
O66 Cd58 2.277 1_655 S
O66 C61 1.209 . S
C67 O64 1.258 . S
C67 O69 1.282 . S
O68 Cd60 2.277 . S
O68 C61 1.226 . S
O69 Cd60 2.356 . S
O69 C67 1.282 . S
C70 O71 1.306 . S
C70 O73 1.160 . S
O71 C70 1.306 . S
O71 Cd72 2.228 . S
Cd72 O71 2.228 . S
Cd72 O76 2.273 . S
Cd72 O80 2.277 . S
O73 C70 1.160 . S
O73 Cd74 2.203 . S
Cd74 O73 2.203 . S
Cd74 O76 2.411 . S
Cd74 O77 2.333 . S
Cd74 O78 2.352 . S
Cd74 O82 2.277 . S
Cd74 O83 2.356 . S
C75 O80 1.209 . S
C75 O82 1.226 . S
O76 Cd72 2.273 . S
O76 Cd74 2.411 . S
O76 C79 1.320 . S
O77 Cd74 2.333 . S
O77 C79 1.214 . S
O78 Cd74 2.352 . S
O78 C81 1.258 . S
C79 O76 1.320 . S
C79 O77 1.214 . S
O80 Cd72 2.277 . S
O80 C75 1.209 . S
C81 O78 1.258 . S
C81 O83 1.282 . S
O82 Cd74 2.277 . S
O82 C75 1.226 . S
O83 Cd74 2.356 . S
O83 C81 1.282 . S
C84 O85 1.306 . S
C84 O87 1.160 . S
O85 C84 1.306 . S
O85 Cd86 2.228 . S
Cd86 O85 2.228 . S
Cd86 O90 2.273 . S
Cd86 O94 2.277 . S
O87 C84 1.160 . S
O87 Cd88 2.203 . S
Cd88 O87 2.203 . S
Cd88 O90 2.411 . S
Cd88 O91 2.333 . S
Cd88 O92 2.352 . S
Cd88 O96 2.277 . S
Cd88 O97 2.356 . S
C89 O94 1.209 . S
C89 O96 1.226 . S
O90 Cd86 2.273 . S
O90 Cd88 2.411 . S
O90 C93 1.320 . S
O91 Cd88 2.333 . S
O91 C93 1.214 . S
O92 Cd88 2.352 . S
O92 C95 1.258 . S
C93 O90 1.320 . S
C93 O91 1.214 . S
O94 Cd86 2.277 . S
O94 C89 1.209 . S
C95 O92 1.258 . S
C95 O97 1.282 . S
O96 Cd88 2.277 . S
O96 C89 1.226 . S
O97 Cd88 2.356 . S
O97 C95 1.282 . S
C98 O99 1.306 . S
C98 O101 1.160 . S
O99 C98 1.306 . S
O99 Cd100 2.228 1_455 S
Cd100 O99 2.228 1_655 S
Cd100 O104 2.273 1_655 S
Cd100 O108 2.277 1_655 S
O101 C98 1.160 . S
O101 Cd102 2.203 . S
Cd102 O101 2.203 . S
Cd102 O104 2.411 . S
Cd102 O105 2.333 . S
Cd102 O106 2.352 . S
Cd102 O110 2.277 . S
Cd102 O111 2.356 . S
C103 O108 1.209 . S
C103 O110 1.226 . S
O104 Cd100 2.273 1_455 S
O104 Cd102 2.411 . S
O104 C107 1.320 . S
O105 Cd102 2.333 . S
O105 C107 1.214 . S
O106 Cd102 2.352 . S
O106 C109 1.258 . S
C107 O104 1.320 . S
C107 O105 1.214 . S
O108 Cd100 2.277 1_455 S
O108 C103 1.209 . S
C109 O106 1.258 . S
C109 O111 1.282 . S
O110 Cd102 2.277 . S
O110 C103 1.226 . S
O111 Cd102 2.356 . S
O111 C109 1.282 . S
C112 O113 1.306 . S
C112 O115 1.160 . S
O113 C112 1.306 . S
O113 Cd114 2.228 . S
Cd114 O113 2.228 . S
Cd114 O118 2.273 . S
Cd114 O122 2.277 . S
O115 C112 1.160 . S
O115 Cd116 2.203 . S
Cd116 O115 2.203 . S
Cd116 O118 2.411 . S
Cd116 O119 2.333 . S
Cd116 O120 2.352 . S
Cd116 O124 2.277 . S
Cd116 O125 2.356 . S
C117 O122 1.209 . S
C117 O124 1.226 . S
O118 Cd114 2.273 . S
O118 Cd116 2.411 . S
O118 C121 1.320 . S
O119 Cd116 2.333 . S
O119 C121 1.214 . S
O120 Cd116 2.352 . S
O120 C123 1.258 . S
C121 O118 1.320 . S
C121 O119 1.214 . S
O122 Cd114 2.277 . S
O122 C117 1.209 . S
C123 O120 1.258 . S
C123 O125 1.282 . S
O124 Cd116 2.277 . S
O124 C117 1.226 . S
O125 Cd116 2.356 . S
O125 C123 1.282 . S
C126 O127 1.306 . S
C126 O129 1.160 . S
O127 C126 1.306 . S
O127 Cd128 2.228 1_655 S
Cd128 O127 2.228 1_455 S
Cd128 O132 2.273 1_455 S
Cd128 O136 2.277 1_455 S
O129 C126 1.160 . S
O129 Cd130 2.203 . S
Cd130 O129 2.203 . S
Cd130 O132 2.411 . S
Cd130 O133 2.333 . S
Cd130 O134 2.352 . S
Cd130 O138 2.277 . S
Cd130 O139 2.356 . S
C131 O136 1.209 . S
C131 O138 1.226 . S
O132 Cd128 2.273 1_655 S
O132 Cd130 2.411 . S
O132 C135 1.320 . S
O133 Cd130 2.333 . S
O133 C135 1.214 . S
O134 Cd130 2.352 . S
O134 C137 1.258 . S
C135 O132 1.320 . S
C135 O133 1.214 . S
O136 Cd128 2.277 1_655 S
O136 C131 1.209 . S
C137 O134 1.258 . S
C137 O139 1.282 . S
O138 Cd130 2.277 . S
O138 C131 1.226 . S
O139 Cd130 2.356 . S
O139 C137 1.282 . S
C140 O141 1.306 . S
C140 O143 1.160 . S
O141 C140 1.306 . S
O141 Cd142 2.228 1_455 S
Cd142 O141 2.228 1_655 S
Cd142 O146 2.273 1_655 S
Cd142 O150 2.277 1_655 S
O143 C140 1.160 . S
O143 Cd144 2.203 . S
Cd144 O143 2.203 . S
Cd144 O146 2.411 . S
Cd144 O147 2.333 . S
Cd144 O148 2.352 . S
Cd144 O152 2.277 . S
Cd144 O153 2.356 . S
C145 O150 1.209 . S
C145 O152 1.226 . S
O146 Cd142 2.273 1_455 S
O146 Cd144 2.411 . S
O146 C149 1.320 . S
O147 Cd144 2.333 . S
O147 C149 1.214 . S
O148 Cd144 2.352 . S
O148 C151 1.258 . S
C149 O146 1.320 . S
C149 O147 1.214 . S
O150 Cd142 2.277 1_455 S
O150 C145 1.209 . S
C151 O148 1.258 . S
C151 O153 1.282 . S
O152 Cd144 2.277 . S
O152 C145 1.226 . S
O153 Cd144 2.356 . S
O153 C151 1.282 . S
C154 O155 1.306 . S
C154 O157 1.160 . S
O155 C154 1.306 . S
O155 Cd156 2.228 . S
Cd156 O155 2.228 . S
Cd156 O160 2.273 . S
Cd156 O164 2.277 . S
O157 C154 1.160 . S
O157 Cd158 2.203 . S
Cd158 O157 2.203 . S
Cd158 O160 2.411 . S
Cd158 O161 2.333 . S
Cd158 O162 2.352 . S
Cd158 O166 2.277 . S
Cd158 O167 2.356 . S
C159 O164 1.209 . S
C159 O166 1.226 . S
O160 Cd156 2.273 . S
O160 Cd158 2.411 . S
O160 C163 1.320 . S
O161 Cd158 2.333 . S
O161 C163 1.214 . S
O162 Cd158 2.352 . S
O162 C165 1.258 . S
C163 O160 1.320 . S
C163 O161 1.214 . S
O164 Cd156 2.277 . S
O164 C159 1.209 . S
C165 O162 1.258 . S
C165 O167 1.282 . S
O166 Cd158 2.277 . S
O166 C159 1.226 . S
O167 Cd158 2.356 . S
O167 C165 1.282 . S
C168 O169 1.306 . S
C168 O171 1.160 . S
O169 C168 1.306 . S
O169 Cd170 2.228 . S
Cd170 O169 2.228 . S
Cd170 O174 2.273 . S
Cd170 O178 2.277 . S
O171 C168 1.160 . S
O171 Cd172 2.203 . S
Cd172 O171 2.203 . S
Cd172 O174 2.411 . S
Cd172 O175 2.333 . S
Cd172 O176 2.352 . S
Cd172 O180 2.277 . S
Cd172 O181 2.356 . S
C173 O178 1.209 . S
C173 O180 1.226 . S
O174 Cd170 2.273 . S
O174 Cd172 2.411 . S
O174 C177 1.320 . S
O175 Cd172 2.333 . S
O175 C177 1.214 . S
O176 Cd172 2.352 . S
O176 C179 1.258 . S
C177 O174 1.320 . S
C177 O175 1.214 . S
O178 Cd170 2.277 . S
O178 C173 1.209 . S
C179 O176 1.258 . S
C179 O181 1.282 . S
O180 Cd172 2.277 . S
O180 C173 1.226 . S
O181 Cd172 2.356 . S
O181 C179 1.282 . S
C182 O183 1.306 . S
C182 O185 1.160 . S
O183 C182 1.306 . S
O183 Cd184 2.228 1_455 S
Cd184 O183 2.228 1_655 S
Cd184 O188 2.273 1_655 S
Cd184 O192 2.277 1_655 S
O185 C182 1.160 . S
O185 Cd186 2.203 . S
Cd186 O185 2.203 . S
Cd186 O188 2.411 . S
Cd186 O189 2.333 . S
Cd186 O190 2.352 . S
Cd186 O194 2.277 . S
Cd186 O195 2.356 . S
C187 O192 1.209 . S
C187 O194 1.226 . S
O188 Cd184 2.273 1_455 S
O188 Cd186 2.411 . S
O188 C191 1.320 . S
O189 Cd186 2.333 . S
O189 C191 1.214 . S
O190 Cd186 2.352 . S
O190 C193 1.258 . S
C191 O188 1.320 . S
C191 O189 1.214 . S
O192 Cd184 2.277 1_455 S
O192 C187 1.209 . S
C193 O190 1.258 . S
C193 O195 1.282 . S
O194 Cd186 2.277 . S
O194 C187 1.226 . S
O195 Cd186 2.356 . S
O195 C193 1.282 . S
C196 O197 1.306 . S
C196 O199 1.160 . S
O197 C196 1.306 . S
O197 Cd198 2.228 1_655 S
Cd198 O197 2.228 1_455 S
Cd198 O202 2.273 1_455 S
Cd198 O206 2.277 1_455 S
O199 C196 1.160 . S
O199 Cd200 2.203 . S
Cd200 O199 2.203 . S
Cd200 O202 2.411 . S
Cd200 O203 2.333 . S
Cd200 O204 2.352 . S
Cd200 O208 2.277 . S
Cd200 O209 2.356 . S
C201 O206 1.209 . S
C201 O208 1.226 . S
O202 Cd198 2.273 1_655 S
O202 Cd200 2.411 . S
O202 C205 1.320 . S
O203 Cd200 2.333 . S
O203 C205 1.214 . S
O204 Cd200 2.352 . S
O204 C207 1.258 . S
C205 O202 1.320 . S
C205 O203 1.214 . S
O206 Cd198 2.277 1_655 S
O206 C201 1.209 . S
C207 O204 1.258 . S
C207 O209 1.282 . S
O208 Cd200 2.277 . S
O208 C201 1.226 . S
O209 Cd200 2.356 . S
O209 C207 1.282 . S
C210 O211 1.306 . S
C210 O213 1.160 . S
O211 C210 1.306 . S
O211 Cd212 2.228 . S
Cd212 O211 2.228 . S
Cd212 O216 2.273 . S
Cd212 O220 2.277 . S
O213 C210 1.160 . S
O213 Cd214 2.203 . S
Cd214 O213 2.203 . S
Cd214 O216 2.411 . S
Cd214 O217 2.333 . S
Cd214 O218 2.352 . S
Cd214 O222 2.277 . S
Cd214 O223 2.356 . S
C215 O220 1.209 . S
C215 O222 1.226 . S
O216 Cd212 2.273 . S
O216 Cd214 2.411 . S
O216 C219 1.320 . S
O217 Cd214 2.333 . S
O217 C219 1.214 . S
O218 Cd214 2.352 . S
O218 C221 1.258 . S
C219 O216 1.320 . S
C219 O217 1.214 . S
O220 Cd212 2.277 . S
O220 C215 1.209 . S
C221 O218 1.258 . S
C221 O223 1.282 . S
O222 Cd214 2.277 . S
O222 C215 1.226 . S
O223 Cd214 2.356 . S
O223 C221 1.282 . S
H224 C230 0.930 . S
H225 C234 0.930 . S
H226 C239 0.929 1_545 S
H227 C237 0.929 1_565 S
H228 C232 0.929 . S
H229 C238 0.929 . S
C230 H224 0.930 . S
C230 C231 1.367 . S
C230 C238 1.378 . S
C231 C230 1.367 . S
C231 C239 1.433 . S
C232 H228 0.929 . S
C232 C234 1.378 . S
C232 C236 1.350 . S
C233 C236 1.463 1_565 S
C233 C238 1.350 . S
C233 N241 1.427 1_565 S
C234 H225 0.930 . S
C234 C232 1.378 . S
C234 C235 1.367 . S
C235 C234 1.367 . S
C235 C237 1.433 . S
C236 C232 1.350 . S
C236 C233 1.463 1_545 S
C236 N240 1.427 1_545 S
C237 H227 0.929 1_545 S
C237 C235 1.433 . S
C237 N240 1.384 1_545 S
C238 H229 0.929 . S
C238 C230 1.378 . S
C238 C233 1.350 . S
C239 H226 0.929 1_565 S
C239 C231 1.433 . S
C239 N241 1.384 1_565 S
N240 C236 1.427 1_565 S
N240 C237 1.384 1_565 S
N241 C233 1.427 1_545 S
N241 C239 1.384 1_545 S
H242 C248 0.930 . S
H243 C252 0.930 . S
H244 C257 0.929 . S
H245 C255 0.929 . S
H246 C250 0.929 . S
H247 C256 0.929 . S
C248 H242 0.930 . S
C248 C249 1.367 . S
C248 C256 1.378 . S
C249 C248 1.367 . S
C249 C257 1.433 . S
C250 H246 0.929 . S
C250 C252 1.378 . S
C250 C254 1.350 . S
C251 C254 1.463 1_565 S
C251 C256 1.350 . S
C251 N259 1.427 1_565 S
C252 H243 0.930 . S
C252 C250 1.378 . S
C252 C253 1.367 . S
C253 C252 1.367 . S
C253 C255 1.433 . S
C254 C250 1.350 . S
C254 C251 1.463 1_545 S
C254 N258 1.427 1_545 S
C255 H245 0.929 . S
C255 C253 1.433 . S
C255 N258 1.384 1_545 S
C256 H247 0.929 . S
C256 C248 1.378 . S
C256 C251 1.350 . S
C257 H244 0.929 . S
C257 C249 1.433 . S
C257 N259 1.384 1_565 S
N258 C254 1.427 1_565 S
N258 C255 1.384 1_565 S
N259 C251 1.427 1_545 S
N259 C257 1.384 1_545 S
H260 C266 0.930 . S
H261 C270 0.930 . S
H262 C275 0.929 . S
H263 C273 0.929 . S
H264 C268 0.929 1_565 S
H265 C274 0.929 1_545 S
C266 H260 0.930 . S
C266 C267 1.367 . S
C266 C274 1.378 . S
C267 C266 1.367 . S
C267 C275 1.433 . S
C268 H264 0.929 1_545 S
C268 C270 1.378 . S
C268 C272 1.350 . S
C269 C272 1.463 1_565 S
C269 C274 1.350 . S
C269 N277 1.427 . S
C270 H261 0.930 . S
C270 C268 1.378 . S
C270 C271 1.367 . S
C271 C270 1.367 . S
C271 C273 1.433 . S
C272 C268 1.350 . S
C272 C269 1.463 1_545 S
C272 N276 1.427 . S
C273 H263 0.929 . S
C273 C271 1.433 . S
C273 N276 1.384 . S
C274 H265 0.929 1_565 S
C274 C266 1.378 . S
C274 C269 1.350 . S
C275 H262 0.929 . S
C275 C267 1.433 . S
C275 N277 1.384 . S
N276 C272 1.427 . S
N276 C273 1.384 . S
N277 C269 1.427 . S
N277 C275 1.384 . S
H278 C284 0.930 . S
H279 C288 0.930 . S
H280 C293 0.929 . S
H281 C291 0.929 . S
H282 C286 0.929 . S
H283 C292 0.929 . S
C284 H278 0.930 . S
C284 C285 1.367 . S
C284 C292 1.378 . S
C285 C284 1.367 . S
C285 C293 1.433 . S
C286 H282 0.929 . S
C286 C288 1.378 . S
C286 C290 1.350 . S
C287 C290 1.463 1_565 S
C287 C292 1.350 . S
C287 N295 1.427 . S
C288 H279 0.930 . S
C288 C286 1.378 . S
C288 C289 1.367 . S
C289 C288 1.367 . S
C289 C291 1.433 . S
C290 C286 1.350 . S
C290 C287 1.463 1_545 S
C290 N294 1.427 . S
C291 H281 0.929 . S
C291 C289 1.433 . S
C291 N294 1.384 . S
C292 H283 0.929 . S
C292 C284 1.378 . S
C292 C287 1.350 . S
C293 H280 0.929 . S
C293 C285 1.433 . S
C293 N295 1.384 . S
N294 C290 1.427 . S
N294 C291 1.384 . S
N295 C287 1.427 . S
N295 C293 1.384 . S
H296 C302 0.930 . S
H297 C306 0.930 . S
H298 C311 0.929 . S
H299 C309 0.929 . S
H300 C304 0.929 . S
H301 C310 0.929 . S
C302 H296 0.930 . S
C302 C303 1.367 . S
C302 C310 1.378 . S
C303 C302 1.367 . S
C303 C311 1.433 . S
C304 H300 0.929 . S
C304 C306 1.378 . S
C304 C308 1.350 . S
C305 C308 1.463 . S
C305 C310 1.350 . S
C305 N313 1.427 . S
C306 H297 0.930 . S
C306 C304 1.378 . S
C306 C307 1.367 . S
C307 C306 1.367 . S
C307 C309 1.433 . S
C308 C304 1.350 . S
C308 C305 1.463 . S
C308 N312 1.427 . S
C309 H299 0.929 . S
C309 C307 1.433 . S
C309 N312 1.384 . S
C310 H301 0.929 . S
C310 C302 1.378 . S
C310 C305 1.350 . S
C311 H298 0.929 . S
C311 C303 1.433 . S
C311 N313 1.384 . S
N312 C308 1.427 . S
N312 C309 1.384 . S
N313 C305 1.427 . S
N313 C311 1.384 . S
H314 C320 0.930 . S
H315 C324 0.930 . S
H316 C329 0.929 . S
H317 C327 0.929 . S
H318 C322 0.929 . S
H319 C328 0.929 . S
C320 H314 0.930 . S
C320 C321 1.367 . S
C320 C328 1.378 . S
C321 C320 1.367 . S
C321 C329 1.433 . S
C322 H318 0.929 . S
C322 C324 1.378 . S
C322 C326 1.350 . S
C323 C326 1.463 . S
C323 C328 1.350 . S
C323 N331 1.427 . S
C324 H315 0.930 . S
C324 C322 1.378 . S
C324 C325 1.367 . S
C325 C324 1.367 . S
C325 C327 1.433 . S
C326 C322 1.350 . S
C326 C323 1.463 . S
C326 N330 1.427 . S
C327 H317 0.929 . S
C327 C325 1.433 . S
C327 N330 1.384 . S
C328 H319 0.929 . S
C328 C320 1.378 . S
C328 C323 1.350 . S
C329 H316 0.929 . S
C329 C321 1.433 . S
C329 N331 1.384 . S
N330 C326 1.427 . S
N330 C327 1.384 . S
N331 C323 1.427 . S
N331 C329 1.384 . S
H332 C338 0.930 . S
H333 C342 0.930 . S
H334 C347 0.929 . S
H335 C345 0.929 . S
H336 C340 0.929 . S
H337 C346 0.929 . S
C338 H332 0.930 . S
C338 C339 1.367 . S
C338 C346 1.378 . S
C339 C338 1.367 . S
C339 C347 1.433 . S
C340 H336 0.929 . S
C340 C342 1.378 . S
C340 C344 1.350 . S
C341 C344 1.463 . S
C341 C346 1.350 . S
C341 N349 1.427 . S
C342 H333 0.930 . S
C342 C340 1.378 . S
C342 C343 1.367 . S
C343 C342 1.367 . S
C343 C345 1.433 . S
C344 C340 1.350 . S
C344 C341 1.463 . S
C344 N348 1.427 . S
C345 H335 0.929 . S
C345 C343 1.433 . S
C345 N348 1.384 . S
C346 H337 0.929 . S
C346 C338 1.378 . S
C346 C341 1.350 . S
C347 H334 0.929 . S
C347 C339 1.433 . S
C347 N349 1.384 . S
N348 C344 1.427 . S
N348 C345 1.384 . S
N349 C341 1.427 . S
N349 C347 1.384 . S
H350 C356 0.930 . S
H351 C360 0.930 . S
H352 C365 0.929 . S
H353 C363 0.929 . S
H354 C358 0.929 . S
H355 C364 0.929 . S
C356 H350 0.930 . S
C356 C357 1.367 . S
C356 C364 1.378 . S
C357 C356 1.367 . S
C357 C365 1.433 . S
C358 H354 0.929 . S
C358 C360 1.378 . S
C358 C362 1.350 . S
C359 C362 1.463 . S
C359 C364 1.350 . S
C359 N367 1.427 . S
C360 H351 0.930 . S
C360 C358 1.378 . S
C360 C361 1.367 . S
C361 C360 1.367 . S
C361 C363 1.433 . S
C362 C358 1.350 . S
C362 C359 1.463 . S
C362 N366 1.427 . S
C363 H353 0.929 . S
C363 C361 1.433 . S
C363 N366 1.384 . S
C364 H355 0.929 . S
C364 C356 1.378 . S
C364 C359 1.350 . S
C365 H352 0.929 . S
C365 C357 1.433 . S
C365 N367 1.384 . S
N366 C362 1.427 . S
N366 C363 1.384 . S
N367 C359 1.427 . S
N367 C365 1.384 . S
H368 C374 0.930 . S
H369 C378 0.930 . S
H370 C383 0.929 . S
H371 C381 0.929 . S
H372 C376 0.929 . S
H373 C382 0.929 . S
C374 H368 0.930 . S
C374 C375 1.367 1_455 S
C374 C382 1.378 . S
C375 C374 1.367 1_655 S
C375 C383 1.433 . S
C376 H372 0.929 . S
C376 C378 1.378 . S
C376 C380 1.350 1_655 S
C377 C380 1.463 1_655 S
C377 C382 1.350 1_655 S
C377 N385 1.427 . S
C378 H369 0.930 . S
C378 C376 1.378 . S
C378 C379 1.367 1_655 S
C379 C378 1.367 1_455 S
C379 C381 1.433 . S
C380 C376 1.350 1_455 S
C380 C377 1.463 1_455 S
C380 N384 1.427 . S
C381 H371 0.929 . S
C381 C379 1.433 . S
C381 N384 1.384 . S
C382 H373 0.929 . S
C382 C374 1.378 . S
C382 C377 1.350 1_455 S
C383 H370 0.929 . S
C383 C375 1.433 . S
C383 N385 1.384 . S
N384 C380 1.427 . S
N384 C381 1.384 . S
N385 C377 1.427 . S
N385 C383 1.384 . S
H386 C392 0.930 . S
H387 C396 0.930 . S
H388 C401 0.929 . S
H389 C399 0.929 . S
H390 C394 0.929 . S
H391 C400 0.929 . S
C392 H386 0.930 . S
C392 C393 1.367 . S
C392 C400 1.378 . S
C393 C392 1.367 . S
C393 C401 1.433 . S
C394 H390 0.929 . S
C394 C396 1.378 . S
C394 C398 1.350 . S
C395 C398 1.463 . S
C395 C400 1.350 . S
C395 N403 1.427 . S
C396 H387 0.930 . S
C396 C394 1.378 . S
C396 C397 1.367 . S
C397 C396 1.367 . S
C397 C399 1.433 . S
C398 C394 1.350 . S
C398 C395 1.463 . S
C398 N402 1.427 . S
C399 H389 0.929 . S
C399 C397 1.433 . S
C399 N402 1.384 . S
C400 H391 0.929 . S
C400 C392 1.378 . S
C400 C395 1.350 . S
C401 H388 0.929 . S
C401 C393 1.433 . S
C401 N403 1.384 . S
N402 C398 1.427 . S
N402 C399 1.384 . S
N403 C395 1.427 . S
N403 C401 1.384 . S
H404 C410 0.930 . S
H405 C414 0.930 . S
H406 C419 0.929 . S
H407 C417 0.929 . S
H408 C412 0.929 1_455 S
H409 C418 0.929 1_655 S
C410 H404 0.930 . S
C410 C411 1.367 . S
C410 C418 1.378 . S
C411 C410 1.367 . S
C411 C419 1.433 . S
C412 H408 0.929 1_655 S
C412 C414 1.378 . S
C412 C416 1.350 . S
C413 C416 1.463 1_455 S
C413 C418 1.350 . S
C413 N421 1.427 . S
C414 H405 0.930 . S
C414 C412 1.378 . S
C414 C415 1.367 . S
C415 C414 1.367 . S
C415 C417 1.433 . S
C416 C412 1.350 . S
C416 C413 1.463 1_655 S
C416 N420 1.427 . S
C417 H407 0.929 . S
C417 C415 1.433 . S
C417 N420 1.384 . S
C418 H409 0.929 1_455 S
C418 C410 1.378 . S
C418 C413 1.350 . S
C419 H406 0.929 . S
C419 C411 1.433 . S
C419 N421 1.384 . S
N420 C416 1.427 . S
N420 C417 1.384 . S
N421 C413 1.427 . S
N421 C419 1.384 . S
H422 C428 0.930 . S
H423 C432 0.930 . S
H424 C437 0.929 . S
H425 C435 0.929 . S
H426 C430 0.929 . S
H427 C436 0.929 . S
C428 H422 0.930 . S
C428 C429 1.367 . S
C428 C436 1.378 . S
C429 C428 1.367 . S
C429 C437 1.433 . S
C430 H426 0.929 . S
C430 C432 1.378 . S
C430 C434 1.350 . S
C431 C434 1.463 . S
C431 C436 1.350 . S
C431 N439 1.427 . S
C432 H423 0.930 . S
C432 C430 1.378 . S
C432 C433 1.367 . S
C433 C432 1.367 . S
C433 C435 1.433 . S
C434 C430 1.350 . S
C434 C431 1.463 . S
C434 N438 1.427 . S
C435 H425 0.929 . S
C435 C433 1.433 . S
C435 N438 1.384 . S
C436 H427 0.929 . S
C436 C428 1.378 . S
C436 C431 1.350 . S
C437 H424 0.929 . S
C437 C429 1.433 . S
C437 N439 1.384 . S
N438 C434 1.427 . S
N438 C435 1.384 . S
N439 C431 1.427 . S
N439 C437 1.384 . S
H440 C446 0.930 . S
H441 C450 0.930 . S
H442 C455 0.929 . S
H443 C453 0.929 . S
H444 C448 0.929 . S
H445 C454 0.929 . S
C446 H440 0.930 . S
C446 C447 1.367 . S
C446 C454 1.378 . S
C447 C446 1.367 . S
C447 C455 1.433 . S
C448 H444 0.929 . S
C448 C450 1.378 . S
C448 C452 1.350 . S
C449 C452 1.463 . S
C449 C454 1.350 . S
C449 N457 1.427 . S
C450 H441 0.930 . S
C450 C448 1.378 . S
C450 C451 1.367 . S
C451 C450 1.367 . S
C451 C453 1.433 . S
C452 C448 1.350 . S
C452 C449 1.463 . S
C452 N456 1.427 . S
C453 H443 0.929 . S
C453 C451 1.433 . S
C453 N456 1.384 . S
C454 H445 0.929 . S
C454 C446 1.378 . S
C454 C449 1.350 . S
C455 H442 0.929 . S
C455 C447 1.433 . S
C455 N457 1.384 . S
N456 C452 1.427 . S
N456 C453 1.384 . S
N457 C449 1.427 . S
N457 C455 1.384 . S
H458 C464 0.930 1_655 S
H459 C468 0.930 1_455 S
H460 C473 0.929 . S
H461 C471 0.929 . S
H462 C466 0.929 . S
H463 C472 0.929 . S
C464 H458 0.930 1_455 S
C464 C465 1.367 . S
C464 C472 1.378 1_455 S
C465 C464 1.367 . S
C465 C473 1.433 . S
C466 H462 0.929 . S
C466 C468 1.378 1_455 S
C466 C470 1.350 1_455 S
C467 C470 1.463 1_455 S
C467 C472 1.350 1_455 S
C467 N475 1.427 . S
C468 H459 0.930 1_655 S
C468 C466 1.378 1_655 S
C468 C469 1.367 . S
C469 C468 1.367 . S
C469 C471 1.433 . S
C470 C466 1.350 1_655 S
C470 C467 1.463 1_655 S
C470 N474 1.427 . S
C471 H461 0.929 . S
C471 C469 1.433 . S
C471 N474 1.384 . S
C472 H463 0.929 . S
C472 C464 1.378 1_655 S
C472 C467 1.350 1_655 S
C473 H460 0.929 . S
C473 C465 1.433 . S
C473 N475 1.384 . S
N474 C470 1.427 . S
N474 C471 1.384 . S
N475 C467 1.427 . S
N475 C473 1.384 . S
H476 C482 0.930 . S
H477 C486 0.930 . S
H478 C491 0.929 . S
H479 C489 0.929 . S
H480 C484 0.929 . S
H481 C490 0.929 . S
C482 H476 0.930 . S
C482 C483 1.367 . S
C482 C490 1.378 . S
C483 C482 1.367 . S
C483 C491 1.433 . S
C484 H480 0.929 . S
C484 C486 1.378 . S
C484 C488 1.350 . S
C485 C488 1.463 . S
C485 C490 1.350 . S
C485 N493 1.427 . S
C486 H477 0.930 . S
C486 C484 1.378 . S
C486 C487 1.367 . S
C487 C486 1.367 . S
C487 C489 1.433 . S
C488 C484 1.350 . S
C488 C485 1.463 . S
C488 N492 1.427 . S
C489 H479 0.929 . S
C489 C487 1.433 . S
C489 N492 1.384 . S
C490 H481 0.929 . S
C490 C482 1.378 . S
C490 C485 1.350 . S
C491 H478 0.929 . S
C491 C483 1.433 . S
C491 N493 1.384 . S
N492 C488 1.427 . S
N492 C489 1.384 . S
N493 C485 1.427 . S
N493 C491 1.384 . S
H494 C500 0.930 . S
H495 C504 0.930 . S
H496 C509 0.929 . S
H497 C507 0.929 . S
H498 C502 0.929 . S
H499 C508 0.929 . S
C500 H494 0.930 . S
C500 C501 1.367 . S
C500 C508 1.378 . S
C501 C500 1.367 . S
C501 C509 1.433 . S
C502 H498 0.929 . S
C502 C504 1.378 . S
C502 C506 1.350 . S
C503 C506 1.463 1_455 S
C503 C508 1.350 . S
C503 N511 1.427 . S
C504 H495 0.930 . S
C504 C502 1.378 . S
C504 C505 1.367 . S
C505 C504 1.367 . S
C505 C507 1.433 . S
C506 C502 1.350 . S
C506 C503 1.463 1_655 S
C506 N510 1.427 . S
C507 H497 0.929 . S
C507 C505 1.433 . S
C507 N510 1.384 . S
C508 H499 0.929 . S
C508 C500 1.378 . S
C508 C503 1.350 . S
C509 H496 0.929 . S
C509 C501 1.433 . S
C509 N511 1.384 . S
N510 C506 1.427 . S
N510 C507 1.384 . S
N511 C503 1.427 . S
N511 C509 1.384 . S
H512 C518 0.930 1_655 S
H513 C522 0.930 1_455 S
H514 C527 0.929 . S
H515 C525 0.929 . S
H516 C520 0.929 . S
H517 C526 0.929 . S
C518 H512 0.930 1_455 S
C518 C519 1.367 . S
C518 C526 1.378 1_455 S
C519 C518 1.367 . S
C519 C527 1.433 . S
C520 H516 0.929 . S
C520 C522 1.378 1_455 S
C520 C524 1.350 1_455 S
C521 C524 1.463 1_455 S
C521 C526 1.350 1_455 S
C521 N529 1.427 . S
C522 H513 0.930 1_655 S
C522 C520 1.378 1_655 S
C522 C523 1.367 . S
C523 C522 1.367 . S
C523 C525 1.433 . S
C524 C520 1.350 1_655 S
C524 C521 1.463 1_655 S
C524 N528 1.427 . S
C525 H515 0.929 . S
C525 C523 1.433 . S
C525 N528 1.384 . S
C526 H517 0.929 . S
C526 C518 1.378 1_655 S
C526 C521 1.350 1_655 S
C527 H514 0.929 . S
C527 C519 1.433 . S
C527 N529 1.384 . S
N528 C524 1.427 . S
N528 C525 1.384 . S
N529 C521 1.427 . S
N529 C527 1.384 . S
H530 C536 0.930 . S
H531 C540 0.930 . S
H532 C545 0.929 . S
H533 C543 0.929 . S
H534 C538 0.929 . S
H535 C544 0.929 . S
C536 H530 0.930 . S
C536 C537 1.367 . S
C536 C544 1.378 . S
C537 C536 1.367 . S
C537 C545 1.433 . S
C538 H534 0.929 . S
C538 C540 1.378 . S
C538 C542 1.350 . S
C539 C542 1.463 . S
C539 C544 1.350 . S
C539 N547 1.427 . S
C540 H531 0.930 . S
C540 C538 1.378 . S
C540 C541 1.367 . S
C541 C540 1.367 . S
C541 C543 1.433 . S
C542 C538 1.350 . S
C542 C539 1.463 . S
C542 N546 1.427 . S
C543 H533 0.929 . S
C543 C541 1.433 . S
C543 N546 1.384 . S
C544 H535 0.929 . S
C544 C536 1.378 . S
C544 C539 1.350 . S
C545 H532 0.929 . S
C545 C537 1.433 . S
C545 N547 1.384 . S
N546 C542 1.427 . S
N546 C543 1.384 . S
N547 C539 1.427 . S
N547 C545 1.384 . S
H548 C554 0.930 . S
H549 C558 0.930 . S
H550 C563 0.929 . S
H551 C561 0.929 . S
H552 C556 0.929 . S
H553 C562 0.929 . S
C554 H548 0.930 . S
C554 C555 1.367 . S
C554 C562 1.378 . S
C555 C554 1.367 . S
C555 C563 1.433 . S
C556 H552 0.929 . S
C556 C558 1.378 . S
C556 C560 1.350 . S
C557 C560 1.463 . S
C557 C562 1.350 . S
C557 N565 1.427 . S
C558 H549 0.930 . S
C558 C556 1.378 . S
C558 C559 1.367 . S
C559 C558 1.367 . S
C559 C561 1.433 . S
C560 C556 1.350 . S
C560 C557 1.463 . S
C560 N564 1.427 . S
C561 H551 0.929 . S
C561 C559 1.433 . S
C561 N564 1.384 . S
C562 H553 0.929 . S
C562 C554 1.378 . S
C562 C557 1.350 . S
C563 H550 0.929 . S
C563 C555 1.433 . S
C563 N565 1.384 . S
N564 C560 1.427 . S
N564 C561 1.384 . S
N565 C557 1.427 . S
N565 C563 1.384 . S
H566 C572 0.930 . S
H567 C576 0.930 . S
H568 C581 0.929 1_655 S
H569 C579 0.929 1_455 S
H570 C574 0.929 . S
H571 C580 0.929 . S
C572 H566 0.930 . S
C572 C573 1.367 . S
C572 C580 1.378 . S
C573 C572 1.367 . S
C573 C581 1.433 . S
C574 H570 0.929 . S
C574 C576 1.378 . S
C574 C578 1.350 . S
C575 C578 1.463 1_455 S
C575 C580 1.350 . S
C575 N583 1.427 1_455 S
C576 H567 0.930 . S
C576 C574 1.378 . S
C576 C577 1.367 . S
C577 C576 1.367 . S
C577 C579 1.433 . S
C578 C574 1.350 . S
C578 C575 1.463 1_655 S
C578 N582 1.427 1_655 S
C579 H569 0.929 1_655 S
C579 C577 1.433 . S
C579 N582 1.384 1_655 S
C580 H571 0.929 . S
C580 C572 1.378 . S
C580 C575 1.350 . S
C581 H568 0.929 1_455 S
C581 C573 1.433 . S
C581 N583 1.384 1_455 S
N582 C578 1.427 1_455 S
N582 C579 1.384 1_455 S
N583 C575 1.427 1_655 S
N583 C581 1.384 1_655 S
H584 C590 0.930 . S
H585 C594 0.930 . S
H586 C599 0.929 1_655 S
H587 C597 0.929 1_455 S
H588 C592 0.929 . S
H589 C598 0.929 . S
C590 H584 0.930 . S
C590 C591 1.367 . S
C590 C598 1.378 . S
C591 C590 1.367 . S
C591 C599 1.433 . S
C592 H588 0.929 . S
C592 C594 1.378 . S
C592 C596 1.350 . S
C593 C596 1.463 1_455 S
C593 C598 1.350 . S
C593 N601 1.427 1_455 S
C594 H585 0.930 . S
C594 C592 1.378 . S
C594 C595 1.367 . S
C595 C594 1.367 . S
C595 C597 1.433 . S
C596 C592 1.350 . S
C596 C593 1.463 1_655 S
C596 N600 1.427 1_655 S
C597 H587 0.929 1_655 S
C597 C595 1.433 . S
C597 N600 1.384 1_655 S
C598 H589 0.929 . S
C598 C590 1.378 . S
C598 C593 1.350 . S
C599 H586 0.929 1_455 S
C599 C591 1.433 . S
C599 N601 1.384 1_455 S
N600 C596 1.427 1_455 S
N600 C597 1.384 1_455 S
N601 C593 1.427 1_655 S
N601 C599 1.384 1_655 S
H602 C608 0.930 . S
H603 C612 0.930 . S
H604 C617 0.929 . S
H605 C615 0.929 . S
H606 C610 0.929 . S
H607 C616 0.929 . S
C608 H602 0.930 . S
C608 C609 1.367 . S
C608 C616 1.378 . S
C609 C608 1.367 . S
C609 C617 1.433 . S
C610 H606 0.929 . S
C610 C612 1.378 . S
C610 C614 1.350 . S
C611 C614 1.463 . S
C611 C616 1.350 . S
C611 N619 1.427 . S
C612 H603 0.930 . S
C612 C610 1.378 . S
C612 C613 1.367 . S
C613 C612 1.367 . S
C613 C615 1.433 . S
C614 C610 1.350 . S
C614 C611 1.463 . S
C614 N618 1.427 . S
C615 H605 0.929 . S
C615 C613 1.433 . S
C615 N618 1.384 . S
C616 H607 0.929 . S
C616 C608 1.378 . S
C616 C611 1.350 . S
C617 H604 0.929 . S
C617 C609 1.433 . S
C617 N619 1.384 . S
N618 C614 1.427 . S
N618 C615 1.384 . S
N619 C611 1.427 . S
N619 C617 1.384 . S
H620 C626 0.930 . S
H621 C630 0.930 . S
H622 C635 0.929 . S
H623 C633 0.929 . S
H624 C628 0.929 . S
H625 C634 0.929 . S
C626 H620 0.930 . S
C626 C627 1.367 . S
C626 C634 1.378 . S
C627 C626 1.367 . S
C627 C635 1.433 . S
C628 H624 0.929 . S
C628 C630 1.378 . S
C628 C632 1.350 . S
C629 C632 1.463 . S
C629 C634 1.350 . S
C629 N637 1.427 . S
C630 H621 0.930 . S
C630 C628 1.378 . S
C630 C631 1.367 . S
C631 C630 1.367 . S
C631 C633 1.433 . S
C632 C628 1.350 . S
C632 C629 1.463 . S
C632 N636 1.427 . S
C633 H623 0.929 . S
C633 C631 1.433 . S
C633 N636 1.384 . S
C634 H625 0.929 . S
C634 C626 1.378 . S
C634 C629 1.350 . S
C635 H622 0.929 . S
C635 C627 1.433 . S
C635 N637 1.384 . S
N636 C632 1.427 . S
N636 C633 1.384 . S
N637 C629 1.427 . S
N637 C635 1.384 . S
H638 C644 0.930 . S
H639 C648 0.930 . S
H640 C653 0.929 . S
H641 C651 0.929 . S
H642 C646 0.929 . S
H643 C652 0.929 . S
C644 H638 0.930 . S
C644 C645 1.367 . S
C644 C652 1.378 . S
C645 C644 1.367 . S
C645 C653 1.433 . S
C646 H642 0.929 . S
C646 C648 1.378 . S
C646 C650 1.350 . S
C647 C650 1.463 1_455 S
C647 C652 1.350 . S
C647 N655 1.428 1_455 S
C648 H639 0.930 . S
C648 C646 1.378 . S
C648 C649 1.367 . S
C649 C648 1.367 . S
C649 C651 1.433 . S
C650 C646 1.350 . S
C650 C647 1.463 1_655 S
C650 N654 1.428 1_655 S
C651 H641 0.929 . S
C651 C649 1.433 . S
C651 N654 1.384 1_655 S
C652 H643 0.929 . S
C652 C644 1.378 . S
C652 C647 1.350 . S
C653 H640 0.929 . S
C653 C645 1.433 . S
C653 N655 1.384 1_455 S
N654 C650 1.428 1_455 S
N654 C651 1.384 1_455 S
N655 C647 1.428 1_655 S
N655 C653 1.384 1_655 S
H656 C662 0.930 1_545 S
H657 C666 0.930 1_565 S
H658 C671 0.929 . S
H659 C669 0.929 . S
H660 C664 0.929 . S
H661 C670 0.929 . S
C662 H656 0.930 1_565 S
C662 C663 1.367 . S
C662 C670 1.378 1_565 S
C663 C662 1.367 . S
C663 C671 1.433 1_655 S
C664 H660 0.929 . S
C664 C666 1.378 1_565 S
C664 C668 1.350 1_565 S
C665 C668 1.463 1_666 S
C665 C670 1.350 1_565 S
C665 N673 1.427 1_655 S
C666 H657 0.930 1_545 S
C666 C664 1.378 1_545 S
C666 C667 1.367 . S
C667 C666 1.367 . S
C667 C669 1.433 1_455 S
C668 C664 1.350 1_545 S
C668 C665 1.463 1_444 S
C668 N672 1.427 1_455 S
C669 H659 0.929 . S
C669 C667 1.433 1_655 S
C669 N672 1.384 . S
C670 H661 0.929 . S
C670 C662 1.378 1_545 S
C670 C665 1.350 1_545 S
C671 H658 0.929 . S
C671 C663 1.433 1_455 S
C671 N673 1.384 . S
N672 C668 1.427 1_655 S
N672 C669 1.384 . S
N673 C665 1.427 1_455 S
N673 C671 1.384 . S
H674 C680 0.930 . S
H675 C684 0.930 . S
H676 C689 0.929 . S
H677 C687 0.929 . S
H678 C682 0.929 . S
H679 C688 0.929 . S
C680 H674 0.930 . S
C680 C681 1.367 1_565 S
C680 C688 1.378 . S
C681 C680 1.367 1_545 S
C681 C689 1.433 . S
C682 H678 0.929 . S
C682 C684 1.378 . S
C682 C686 1.350 1_545 S
C683 C686 1.463 1_546 S
C683 C688 1.350 1_545 S
C683 N691 1.427 . S
C684 H675 0.930 . S
C684 C682 1.378 . S
C684 C685 1.367 1_545 S
C685 C684 1.367 1_565 S
C685 C687 1.433 . S
C686 C682 1.350 1_565 S
C686 C683 1.463 1_564 S
C686 N690 1.427 . S
C687 H677 0.929 . S
C687 C685 1.433 . S
C687 N690 1.384 . S
C688 H679 0.929 . S
C688 C680 1.378 . S
C688 C683 1.350 1_565 S
C689 H676 0.929 . S
C689 C681 1.433 . S
C689 N691 1.384 . S
N690 C686 1.427 . S
N690 C687 1.384 . S
N691 C683 1.427 . S
N691 C689 1.384 . S
H692 C698 0.930 . S
H693 C702 0.930 . S
H694 C707 0.929 . S
H695 C705 0.929 . S
H696 C700 0.929 . S
H697 C706 0.929 . S
C698 H692 0.930 . S
C698 C699 1.367 . S
C698 C706 1.378 . S
C699 C698 1.367 . S
C699 C707 1.433 1_545 S
C700 H696 0.929 . S
C700 C702 1.378 . S
C700 C704 1.350 . S
C701 C704 1.463 1_545 S
C701 C706 1.350 . S
C701 N709 1.427 1_545 S
C702 H693 0.930 . S
C702 C700 1.378 . S
C702 C703 1.367 . S
C703 C702 1.367 . S
C703 C705 1.433 1_565 S
C704 C700 1.350 . S
C704 C701 1.463 1_565 S
C704 N708 1.427 1_565 S
C705 H695 0.929 . S
C705 C703 1.433 1_545 S
C705 N708 1.384 . S
C706 H697 0.929 . S
C706 C698 1.378 . S
C706 C701 1.350 . S
C707 H694 0.929 . S
C707 C699 1.433 1_565 S
C707 N709 1.384 . S
N708 C704 1.427 1_545 S
N708 C705 1.384 . S
N709 C701 1.427 1_565 S
N709 C707 1.384 . S
H710 C716 0.947 . S
H711 C720 0.947 . S
H712 C725 0.929 1_655 S
H713 C723 0.929 1_455 S
H714 C718 0.929 . S
H715 C724 0.929 . S
C716 H710 0.947 . S
C716 C717 1.339 1_545 S
C716 C724 1.389 . S
C717 C716 1.339 1_565 S
C717 C725 1.433 . S
C718 H714 0.929 . S
C718 C720 1.389 . S
C718 C722 1.350 1_565 S
C719 C722 1.463 1_465 S
C719 C724 1.350 1_565 S
C719 N727 1.427 1_455 S
C720 H711 0.947 . S
C720 C718 1.389 . S
C720 C721 1.339 1_565 S
C721 C720 1.339 1_545 S
C721 C723 1.433 . S
C722 C718 1.350 1_545 S
C722 C719 1.463 1_645 S
C722 N726 1.427 1_655 S
C723 H713 0.929 1_655 S
C723 C721 1.433 . S
C723 N726 1.384 1_655 S
C724 H715 0.929 . S
C724 C716 1.389 . S
C724 C719 1.350 1_545 S
C725 H712 0.929 1_455 S
C725 C717 1.433 . S
C725 N727 1.384 1_455 S
N726 C722 1.427 1_455 S
N726 C723 1.384 1_455 S
N727 C719 1.427 1_655 S
N727 C725 1.384 1_655 S
H728 C734 0.930 . S
H729 C738 0.930 . S
H730 C743 0.929 . S
H731 C741 0.929 . S
H732 C736 0.929 1_554 S
H733 C742 0.929 1_556 S
C734 H728 0.930 . S
C734 C735 1.367 . S
C734 C742 1.378 . S
C735 C734 1.367 . S
C735 C743 1.433 . S
C736 H732 0.929 1_556 S
C736 C738 1.378 . S
C736 C740 1.350 . S
C737 C740 1.463 1_554 S
C737 C742 1.350 . S
C737 N745 1.427 . S
C738 H729 0.930 . S
C738 C736 1.378 . S
C738 C739 1.367 . S
C739 C738 1.367 . S
C739 C741 1.433 . S
C740 C736 1.350 . S
C740 C737 1.463 1_556 S
C740 N744 1.427 . S
C741 H731 0.929 . S
C741 C739 1.433 . S
C741 N744 1.384 . S
C742 H733 0.929 1_554 S
C742 C734 1.378 . S
C742 C737 1.350 . S
C743 H730 0.929 . S
C743 C735 1.433 . S
C743 N745 1.384 . S
N744 C740 1.427 . S
N744 C741 1.384 . S
N745 C737 1.427 . S
N745 C743 1.384 . S
H746 C752 0.930 . S
H747 C756 0.930 . S
H748 C761 0.929 . S
H749 C759 0.929 . S
H750 C754 0.910 1_554 S
H751 C760 0.910 1_556 S
C752 H746 0.930 . S
C752 C753 1.367 . S
C752 C760 1.378 . S
C753 C752 1.367 . S
C753 C761 1.433 1_655 S
C754 H750 0.910 1_556 S
C754 C756 1.378 . S
C754 C758 1.350 . S
C755 C758 1.463 1_654 S
C755 C760 1.350 . S
C755 N763 1.427 1_655 S
C756 H747 0.930 . S
C756 C754 1.378 . S
C756 C757 1.367 . S
C757 C756 1.367 . S
C757 C759 1.433 1_455 S
C758 C754 1.350 . S
C758 C755 1.463 1_456 S
C758 N762 1.427 1_455 S
C759 H749 0.929 . S
C759 C757 1.433 1_655 S
C759 N762 1.384 . S
C760 H751 0.910 1_554 S
C760 C752 1.378 . S
C760 C755 1.350 . S
C761 H748 0.929 . S
C761 C753 1.433 1_455 S
C761 N763 1.384 . S
N762 C758 1.427 1_655 S
N762 C759 1.384 . S
N763 C755 1.427 1_455 S
N763 C761 1.384 . S
H764 C770 0.930 . S
H765 C774 0.930 . S
H766 C779 0.929 . S
H767 C777 0.929 . S
H768 C772 0.929 . S
H769 C778 0.929 . S
C770 H764 0.930 . S
C770 C771 1.367 . S
C770 C778 1.378 . S
C771 C770 1.367 . S
C771 C779 1.433 . S
C772 H768 0.929 . S
C772 C774 1.378 . S
C772 C776 1.350 . S
C773 C776 1.463 1_655 S
C773 C778 1.350 . S
C773 N781 1.427 . S
C774 H765 0.930 . S
C774 C772 1.378 . S
C774 C775 1.367 . S
C775 C774 1.367 . S
C775 C777 1.433 . S
C776 C772 1.350 . S
C776 C773 1.463 1_455 S
C776 N780 1.427 . S
C777 H767 0.929 . S
C777 C775 1.433 . S
C777 N780 1.384 . S
C778 H769 0.929 . S
C778 C770 1.378 . S
C778 C773 1.350 . S
C779 H766 0.929 . S
C779 C771 1.433 . S
C779 N781 1.384 . S
N780 C776 1.427 . S
N780 C777 1.384 . S
N781 C773 1.427 . S
N781 C779 1.384 . S
H782 C788 0.930 . S
H783 C792 0.930 . S
H784 C797 0.929 . S
H785 C795 0.929 . S
H786 C790 0.929 . S
H787 C796 0.929 . S
C788 H782 0.930 . S
C788 C789 1.367 . S
C788 C796 1.378 . S
C789 C788 1.367 . S
C789 C797 1.433 . S
C790 H786 0.929 . S
C790 C792 1.378 . S
C790 C794 1.350 . S
C791 C794 1.463 . S
C791 C796 1.350 . S
C791 N799 1.427 . S
C792 H783 0.930 . S
C792 C790 1.378 . S
C792 C793 1.367 . S
C793 C792 1.367 . S
C793 C795 1.433 . S
C794 C790 1.350 . S
C794 C791 1.463 . S
C794 N798 1.427 . S
C795 H785 0.929 . S
C795 C793 1.433 . S
C795 N798 1.384 . S
C796 H787 0.929 . S
C796 C788 1.378 . S
C796 C791 1.350 . S
C797 H784 0.929 . S
C797 C789 1.433 . S
C797 N799 1.384 . S
N798 C794 1.427 . S
N798 C795 1.384 . S
N799 C791 1.427 . S
N799 C797 1.384 . S
C231 C25 1.501 . S
C235 C11 1.499 . S
C249 C39 1.499 . S
C253 C53 1.501 . S
C267 C67 1.501 . S
C271 C81 1.503 . S
C285 C109 1.500 . S
C289 C95 1.503 . S
C303 C137 1.504 . S
C307 C123 1.502 . S
C321 C165 1.500 . S
C325 C151 1.499 . S
C339 C193 1.503 . S
C343 C179 1.501 . S
C357 C221 1.499 . S
C361 C207 1.499 . S
C375 C42 1.391 . S
C379 C0 1.395 . S
C393 C14 1.391 . S
C397 C28 1.396 . S
C411 C98 1.392 . S
C415 C56 1.398 . S
C429 C84 1.396 . S
C433 C70 1.391 . S
C447 C112 1.399 . S
C451 C154 1.395 . S
C465 C140 1.391 . S
C469 C126 1.396 . S
C483 C210 1.392 . S
C487 C168 1.393 . S
C501 C182 1.393 . S
C505 C196 1.399 . S
C519 C5 1.500 . S
C523 C131 1.502 . S
C537 C19 1.500 . S
C541 C117 1.503 . S
C555 C159 1.500 . S
C559 C33 1.503 . S
C573 C145 1.500 . S
C577 C47 1.502 . S
C591 C187 1.502 . S
C595 C61 1.500 . S
C609 C173 1.503 . S
C613 C75 1.500 . S
C627 C89 1.500 . S
C631 C215 1.502 . S
C645 C103 1.503 . S
C649 C201 1.500 . S
C663 C65 1.337 . S
C667 C9 1.337 . S
C681 C79 1.341 . S
C685 C23 1.341 . S
C699 C93 1.339 . S
C703 C37 1.339 . S
C717 C107 1.338 . S
C721 C51 1.338 . S
C735 C121 1.336 . S
C739 C177 1.336 . S
C753 C135 1.335 . S
C757 C191 1.335 . S
C771 C205 1.338 . S
C775 C149 1.338 . S
C789 C219 1.336 . S
C793 C163 1.336 . S
