# Generated by pormake.
# Topology ecf, (8)-cn, num edge types: 1
# Building blocks:
#     Node 0, Type 0, BuildingBlock: AJUNOK_clean_sbu_0, # of connection points: 8
#     Node 1, Type 0, BuildingBlock: AJUNOK_clean_sbu_0, # of connection points: 8
#     Node 2, Type 0, BuildingBlock: AJUNOK_clean_sbu_0, # of connection points: 8
#     Node 3, Type 0, BuildingBlock: AJUNOK_clean_sbu_0, # of connection points: 8
#     Node 4, Type 0, BuildingBlock: AJUNOK_clean_sbu_0, # of connection points: 8
#     Node 5, Type 0, BuildingBlock: AJUNOK_clean_sbu_0, # of connection points: 8
#     Edge 6, Type (0, 0), BuildingBlock: EZIPEK_clean_linker_0, # of connection points: 2
#     Edge 7, Type (0, 0), BuildingBlock: EZIPEK_clean_linker_0, # of connection points: 2
#     Edge 8, Type (0, 0), BuildingBlock: EZIPEK_clean_linker_0, # of connection points: 2
#     Edge 9, Type (0, 0), BuildingBlock: EZIPEK_clean_linker_0, # of connection points: 2
#     Edge 10, Type (0, 0), BuildingBlock: EZIPEK_clean_linker_0, # of connection points: 2
#     Edge 11, Type (0, 0), BuildingBlock: EZIPEK_clean_linker_0, # of connection points: 2
#     Edge 12, Type (0, 0), BuildingBlock: EZIPEK_clean_linker_0, # of connection points: 2
#     Edge 13, Type (0, 0), BuildingBlock: EZIPEK_clean_linker_0, # of connection points: 2
#     Edge 14, Type (0, 0), BuildingBlock: EZIPEK_clean_linker_0, # of connection points: 2
#     Edge 15, Type (0, 0), BuildingBlock: EZIPEK_clean_linker_0, # of connection points: 2
#     Edge 16, Type (0, 0), BuildingBlock: EZIPEK_clean_linker_0, # of connection points: 2
#     Edge 17, Type (0, 0), BuildingBlock: EZIPEK_clean_linker_0, # of connection points: 2
#     Edge 18, Type (0, 0), BuildingBlock: EZIPEK_clean_linker_0, # of connection points: 2
#     Edge 19, Type (0, 0), BuildingBlock: EZIPEK_clean_linker_0, # of connection points: 2
#     Edge 20, Type (0, 0), BuildingBlock: EZIPEK_clean_linker_0, # of connection points: 2
#     Edge 21, Type (0, 0), BuildingBlock: EZIPEK_clean_linker_0, # of connection points: 2
#     Edge 22, Type (0, 0), BuildingBlock: EZIPEK_clean_linker_0, # of connection points: 2
#     Edge 23, Type (0, 0), BuildingBlock: EZIPEK_clean_linker_0, # of connection points: 2
#     Edge 24, Type (0, 0), BuildingBlock: EZIPEK_clean_linker_0, # of connection points: 2
#     Edge 25, Type (0, 0), BuildingBlock: EZIPEK_clean_linker_0, # of connection points: 2
#     Edge 26, Type (0, 0), BuildingBlock: EZIPEK_clean_linker_0, # of connection points: 2
#     Edge 27, Type (0, 0), BuildingBlock: EZIPEK_clean_linker_0, # of connection points: 2
#     Edge 28, Type (0, 0), BuildingBlock: EZIPEK_clean_linker_0, # of connection points: 2
#     Edge 29, Type (0, 0), BuildingBlock: EZIPEK_clean_linker_0, # of connection points: 2
# Relax obj value: 0.435
# Max RMSD: 0.281
# Mean RMSD: 0.281
data_MOF--net-ecf--node1-AJUNOK_clean_sbu_0--edge1-EZIPEK_clean_linker_0
_symmetry_space_group_name_H-M    P1
_symmetry_Int_Tables_number       1
_symmetry_cell_setting            triclinic
loop_
_symmetry_equiv_pos_as_xyz
'x, y, z'
_cell_length_a     31.907471
_cell_length_b     31.61836
_cell_length_c     16.899139
_cell_angle_alpha  89.742193
_cell_angle_beta   89.843924
_cell_angle_gamma 120.24007
loop_
_atom_site_label
_atom_site_type_symbol
_atom_site_fract_x
_atom_site_fract_y
_atom_site_fract_z
_atom_type_partial_charge
Cd0 Cd 0.13194 0.34323 0.2632 0.0
Cd1 Cd 0.21466 0.33279 0.40182 0.0
C2 C 0.04743 0.23614 0.22665 0.0
N3 N 0.0916 0.25948 0.26155 0.0
C4 C 0.08048 0.18445 0.3142 0.0
C5 C 0.03243 0.1608 0.28829 0.0
C6 C 0.01666 0.18637 0.2402 0.0
C7 C 0.10902 0.23481 0.30293 0.0
H8 H 0.03468 0.25689 0.19391 0.0
H9 H 0.14342 0.25482 0.3319 0.0
C10 C 0.2116 0.30411 0.19029 0.0
C11 C 0.27123 0.42603 0.28563 0.0
C12 C 0.30733 0.47425 0.26993 0.0
C13 C 0.32179 0.50929 0.32997 0.0
C14 C 0.29613 0.4962 0.4019 0.0
C15 C 0.25915 0.4478 0.41427 0.0
N16 N 0.24848 0.41352 0.35729 0.0
H17 H 0.26364 0.39834 0.24229 0.0
H18 H 0.2422 0.43656 0.47198 0.0
C19 C 0.2686 0.27498 0.36445 0.0
N20 N 0.22772 0.26731 0.40264 0.0
C21 C 0.19124 0.18125 0.38831 0.0
C22 C 0.22891 0.1892 0.33615 0.0
C23 C 0.26924 0.23616 0.32786 0.0
C24 C 0.19114 0.22159 0.42088 0.0
H25 H 0.29735 0.31176 0.35132 0.0
H26 H 0.15951 0.21682 0.45247 0.0
C27 C 0.09094 0.29699 0.46134 0.0
C28 C 0.07187 0.37011 0.18298 0.0
N29 N 0.17179 0.42406 0.30577 0.0
C30 C 0.15337 0.43409 0.37105 0.0
C31 C 0.16004 0.48083 0.382 0.0
C32 C 0.18665 0.51797 0.32605 0.0
C33 C 0.20762 0.5072 0.26165 0.0
C34 C 0.19799 0.45938 0.25091 0.0
C35 C 0.29719 0.37973 0.50002 0.0
O36 O 0.1854 0.32266 0.17057 0.0
O37 O 0.22107 0.30361 0.26329 0.0
O38 O 0.13136 0.29905 0.47627 0.0
O39 O 0.08596 0.31244 0.39412 0.0
O40 O 0.10846 0.37293 0.14791 0.0
O41 O 0.06076 0.34853 0.24922 0.0
O42 O 0.25481 0.35567 0.53021 0.0
O43 O 0.29998 0.38121 0.4256 0.0
H44 H 0.13005 0.40496 0.41124 0.0
H45 H 0.20903 0.44973 0.19654 0.0
H46 H 0.09364 0.16514 0.34998 0.0
H47 H 0.97986 0.16884 0.21812 0.0
H48 H 0.32669 0.48316 0.21399 0.0
H49 H 0.30682 0.52225 0.44975 0.0
H50 H 0.16003 0.14498 0.39662 0.0
H51 H 0.29892 0.24323 0.28835 0.0
H52 H 0.14246 0.48723 0.43168 0.0
H53 H 0.22826 0.53472 0.21703 0.0
Cd54 Cd 0.89889 0.20371 0.90877 0.0
Cd55 Cd 0.80308 0.13557 0.76087 0.0
C56 C 1.00208 0.21363 0.89854 0.0
N57 N 0.95727 0.18142 0.9274 0.0
C58 C 0.97104 0.11468 0.9104 0.0
C59 C 0.01286 0.14564 0.86672 0.0
C60 C 0.03115 0.19634 0.86835 0.0
C61 C 0.94348 0.13373 0.94139 0.0
H62 H 0.01232 0.25138 0.88817 0.0
H63 H 0.90811 0.10895 0.96606 0.0
C64 C 0.79865 0.08752 0.96267 0.0
C65 C 0.72984 0.155 0.85015 0.0
C66 C 0.69396 0.16721 0.85996 0.0
C67 C 0.69554 0.20528 0.8147 0.0
C68 C 0.73445 0.23124 0.76182 0.0
C69 C 0.76862 0.2163 0.75124 0.0
N70 N 0.76605 0.1793 0.79632 0.0
H71 H 0.72688 0.12378 0.88153 0.0
H72 H 0.79585 0.23273 0.70515 0.0
C73 C 0.86194 0.08561 0.79102 0.0
N74 N 0.83765 0.09022 0.72948 0.0
C75 C 0.83792 0.0246 0.66101 0.0
C76 C 0.85793 0.01574 0.72851 0.0
C77 C 0.87148 0.04757 0.79263 0.0
C78 C 0.82673 0.062 0.66367 0.0
H79 H 0.86931 0.10866 0.84177 0.0
H80 H 0.80653 0.0663 0.6161 0.0
C81 C 0.92691 0.21442 0.69963 0.0
C82 C 0.94163 0.28945 0.99852 0.0
N83 N 0.85979 0.24595 0.86806 0.0
C84 C 0.88457 0.28214 0.81383 0.0
C85 C 0.87655 0.32149 0.80723 0.0
C86 C 0.84075 0.32285 0.85388 0.0
C87 C 0.81473 0.28427 0.90818 0.0
C88 C 0.82649 0.24734 0.91693 0.0
C89 C 0.71579 0.07937 0.67871 0.0
O90 O 0.83866 0.12549 0.98077 0.0
O91 O 0.78157 0.08572 0.89352 0.0
O92 O 0.88198 0.1961 0.6815 0.0
O93 O 0.93765 0.21444 0.77231 0.0
O94 O 0.90872 0.24963 1.02917 0.0
O95 O 0.95871 0.2863 0.93268 0.0
O96 O 0.74986 0.11794 0.64684 0.0
O97 O 0.72589 0.06539 0.74231 0.0
H98 H 0.91366 0.28293 0.7804 0.0
H99 H 0.80997 0.22048 0.96392 0.0
H100 H 0.95698 0.07559 0.91228 0.0
H101 H 0.06397 0.22131 0.83623 0.0
H102 H 0.66407 0.14573 0.90022 0.0
H103 H 0.7362 0.2603 0.72534 0.0
H104 H 0.82694 1.00016 0.61087 0.0
H105 H 0.88527 0.04024 0.84607 0.0
H106 H 0.89891 0.35119 0.76686 0.0
H107 H 0.78747 0.28416 0.9464 0.0
Cd108 Cd 0.68292 0.79952 0.25971 0.0
Cd109 Cd 0.67676 0.88498 0.40628 0.0
C110 C 0.77686 0.79029 0.25434 0.0
N111 N 0.76113 0.82009 0.22568 0.0
C112 C 0.84195 0.88498 0.20568 0.0
C113 C 0.85835 0.85828 0.24854 0.0
C114 C 0.8263 0.80861 0.26486 0.0
C115 C 0.79253 0.86492 0.19459 0.0
H116 H 0.7511 0.7545 0.27763 0.0
H117 H 0.77988 0.88764 0.16928 0.0
C118 C 0.71169 0.92219 0.20119 0.0
C119 C 0.58745 0.86507 0.2999 0.0
C120 C 0.54014 0.85508 0.28816 0.0
C121 C 0.50294 0.82228 0.33895 0.0
C122 C 0.5145 0.79955 0.39997 0.0
C123 C 0.56279 0.81279 0.4123 0.0
N124 N 0.59792 0.84406 0.36132 0.0
H125 H 0.61614 0.89264 0.26372 0.0
H126 H 0.5726 0.79964 0.46424 0.0
C127 C 0.77909 0.98074 0.43737 0.0
N128 N 0.75878 0.93397 0.41091 0.0
C129 C 0.83511 0.94723 0.3668 0.0
C130 C 0.85624 0.99647 0.38633 0.0
C131 C 0.82842 0.01317 0.42506 0.0
C132 C 0.78566 0.91642 0.37793 0.0
H133 H 0.75661 0.99357 0.46358 0.0
H134 H 0.76818 0.87928 0.35682 0.0
C135 C 0.71123 0.79705 0.46887 0.0
C136 C 0.64165 0.70846 0.18351 0.0
N137 N 0.60141 0.76543 0.29131 0.0
C138 C 0.58612 0.73632 0.35688 0.0
C139 C 0.53769 0.69952 0.3647 0.0
C140 C 0.50523 0.69138 0.30297 0.0
C141 C 0.52147 0.72269 0.23685 0.0
C142 C 0.57014 0.75984 0.23217 0.0
C143 C 0.64467 0.93831 0.49611 0.0
O144 O 0.70285 0.87917 0.18314 0.0
O145 O 0.70523 0.93003 0.27304 0.0
O146 O 0.69608 0.82629 0.48832 0.0
O147 O 0.71134 0.78705 0.39574 0.0
O148 O 0.65038 0.74684 0.14521 0.0
O149 O 0.65621 0.71432 0.2542 0.0
O150 O 0.6472 0.90316 0.52776 0.0
O151 O 0.66264 0.95106 0.42759 0.0
H152 H 0.61206 0.73988 0.40093 0.0
H153 H 0.58389 0.7813 0.17843 0.0
H154 H 0.86629 0.92293 0.18993 0.0
H155 H 0.83842 0.7868 0.29629 0.0
H156 H 0.53299 0.87424 0.24162 0.0
H157 H 0.48687 0.77421 0.4407 0.0
H158 H 0.85641 0.93434 0.33779 0.0
H159 H 0.84414 0.05117 0.44198 0.0
H160 H 0.52645 0.67533 0.41574 0.0
H161 H 0.49761 0.71634 0.18729 0.0
Cd162 Cd 0.79842 0.67917 0.90826 0.0
Cd163 Cd 0.87782 0.67294 0.76058 0.0
C164 C 0.87567 0.78535 0.8575 0.0
N165 N 0.8392 0.76217 0.91087 0.0
C166 C 0.83332 0.83342 0.92901 0.0
C167 C 0.86507 0.85516 0.86452 0.0
C168 C 0.88971 0.83274 0.83363 0.0
C169 C 0.82007 0.78575 0.95071 0.0
H170 H 0.8897 0.76505 0.8274 0.0
H171 H 0.79095 0.7659 0.99289 0.0
C172 C 0.91894 0.71433 0.96661 0.0
C173 C 0.86125 0.58349 0.86875 0.0
C174 C 0.85501 0.537 0.88086 0.0
C175 C 0.82426 0.49838 0.831 0.0
C176 C 0.79818 0.50724 0.77267 0.0
C177 C 0.80765 0.55507 0.75977 0.0
N178 N 0.83903 0.59213 0.80751 0.0
H179 H 0.88681 0.61351 0.90417 0.0
H180 H 0.79211 0.5631 0.70914 0.0
C181 C 0.98863 0.75483 0.76007 0.0
N182 N 0.94592 0.74531 0.72741 0.0
C183 C 0.97835 0.82873 0.69069 0.0
C184 C 0.01991 0.8401 0.73412 0.0
C185 C 0.02663 0.80274 0.7644 0.0
C186 C 0.94133 0.78011 0.68744 0.0
H187 H 0.9916 0.72602 0.78952 0.0
H188 H 0.90758 0.77078 0.65913 0.0
C189 C 0.79209 0.71325 0.70435 0.0
C190 C 0.71377 0.64687 0.99924 0.0
N191 N 0.75946 0.59854 0.86476 0.0
C192 C 0.72739 0.58988 0.80573 0.0
C193 C 0.68842 0.54296 0.79311 0.0
C194 C 0.6823 0.504 0.8413 0.0
C195 C 0.7172 0.51332 0.89977 0.0
C196 C 0.75435 0.56157 0.91307 0.0
C197 C 0.91308 0.62699 0.65929 0.0
O198 O 0.87586 0.70143 0.98997 0.0
O199 O 0.92527 0.70909 0.89324 0.0
O200 O 0.82212 0.69925 0.68534 0.0
O201 O 0.7803 0.71117 0.7773 0.0
O202 O 0.75006 0.64639 1.02879 0.0
O203 O 0.721 0.66978 0.93457 0.0
O204 O 0.88204 0.63785 0.63448 0.0
O205 O 0.92815 0.6397 0.7291 0.0
H206 H 0.72911 0.62009 0.77367 0.0
H207 H 0.77778 0.56983 0.96377 0.0
H208 H 0.81438 0.85046 0.95481 0.0
H209 H 0.91525 0.84938 0.78523 0.0
H210 H 0.87602 0.5319 0.92621 0.0
H211 H 0.77398 0.47833 0.73325 0.0
H212 H 0.97305 0.85728 0.66554 0.0
H213 H 0.059 0.81099 0.79719 0.0
H214 H 0.66173 0.53769 0.74886 0.0
H215 H 0.71349 0.48426 0.9386 0.0
Cd216 Cd 0.206 0.88158 0.26699 0.0
Cd217 Cd 0.11117 0.80896 0.41053 0.0
C218 C 0.15815 0.94204 0.2691 0.0
N219 N 0.17512 0.92511 0.21167 0.0
C220 C 0.19258 0.99242 0.12739 0.0
C221 C 0.18199 0.01392 0.19069 0.0
C222 C 0.16177 0.98719 0.26029 0.0
C223 C 0.18963 0.94734 0.13973 0.0
H224 H 0.14965 0.92422 0.32574 0.0
H225 H 0.20482 0.93364 0.09644 0.0
C226 C 0.08392 0.80298 0.2002 0.0
C227 C 0.12807 0.73414 0.31976 0.0
C228 C 0.13693 0.69549 0.31212 0.0
C229 C 0.17467 0.69554 0.3548 0.0
C230 C 0.20199 0.73501 0.40611 0.0
C231 C 0.18943 0.77129 0.41645 0.0
N232 N 0.15408 0.7711 0.37127 0.0
H233 H 0.09733 0.73216 0.28975 0.0
H234 H 0.20695 0.79874 0.46171 0.0
C235 C 0.02409 0.82603 0.39994 0.0
N236 N 0.07085 0.85266 0.42367 0.0
C237 C 0.0654 0.92535 0.43017 0.0
C238 C 0.01879 0.89916 0.39901 0.0
C239 C 0.99727 0.84865 0.38703 0.0
C240 C 0.091 0.90093 0.44279 0.0
H241 H 0.00854 0.78777 0.38592 0.0
H242 H 0.12798 0.92187 0.46196 0.0
C243 C 0.20928 0.9202 0.47678 0.0
C244 C 0.29726 0.94936 0.20334 0.0
N245 N 0.24614 0.83881 0.28851 0.0
C246 C 0.28295 0.86514 0.33955 0.0
C247 C 0.32055 0.85549 0.348 0.0
C248 C 0.31978 0.81709 0.30568 0.0
C249 C 0.28019 0.78882 0.25568 0.0
C250 C 0.24435 0.80169 0.24539 0.0
C251 C 0.0486 0.71643 0.47917 0.0
O252 O 0.12915 0.82598 0.18178 0.0
O253 O 0.07221 0.79743 0.27337 0.0
O254 O 0.17239 0.8796 0.49819 0.0
O255 O 0.22227 0.92506 0.404 0.0
O256 O 0.27028 0.90921 0.16795 0.0
O257 O 0.27863 0.95881 0.26192 0.0
O258 O 0.08314 0.7491 0.51976 0.0
O259 O 0.03968 0.73049 0.41481 0.0
H260 H 0.28461 0.89584 0.37022 0.0
H261 H 0.21611 0.78315 0.20198 0.0
H262 H 0.20923 0.01318 0.07429 0.0
H263 H 0.15469 1.00369 0.31086 0.0
H264 H 0.11363 0.66515 0.2742 0.0
H265 H 0.23091 0.73625 0.44101 0.0
H266 H 0.08249 0.96433 0.44064 0.0
H267 H 0.96088 0.82745 0.36356 0.0
H268 H 0.35069 0.87871 0.38606 0.0
H269 H 0.27865 0.75908 0.2219 0.0
Cd270 Cd 0.34074 0.13942 0.90737 0.0
Cd271 Cd 0.31508 0.20793 0.75656 0.0
C272 C 0.24151 0.0432 0.92648 0.0
N273 N 0.25964 0.08964 0.89945 0.0
C274 C 0.18548 0.06928 0.83658 0.0
C275 C 0.1683 0.02005 0.85496 0.0
C276 C 0.19529 1.00724 0.9044 0.0
C277 C 0.23247 0.1036 0.85753 0.0
H278 H 0.26439 0.03333 0.95925 0.0
H279 H 0.24856 0.14013 0.83447 0.0
C280 C 0.29139 0.21627 0.96355 0.0
C281 C 0.4078 0.28645 0.84314 0.0
C282 C 0.45489 0.3257 0.85167 0.0
C283 C 0.4929 0.32795 0.80624 0.0
C284 C 0.48141 0.29067 0.75049 0.0
C285 C 0.43296 0.25384 0.73975 0.0
N286 N 0.39756 0.25133 0.78812 0.0
H287 H 0.37869 0.28612 0.87633 0.0
H288 H 0.42352 0.22776 0.69233 0.0
C289 C 0.21605 0.20296 0.73929 0.0
N290 N 0.23879 0.18152 0.70405 0.0
C291 C 0.16559 0.12373 0.6394 0.0
C292 C 0.14086 0.14272 0.68103 0.0
C293 C 0.16695 0.18432 0.72805 0.0
C294 C 0.21545 0.14438 0.65124 0.0
H295 H 0.23534 0.23256 0.78042 0.0
H296 H 0.23442 0.12872 0.6217 0.0
C297 C 0.29921 0.08698 0.71142 0.0
C298 C 0.37211 0.09294 1.01635 0.0
N299 N 0.41979 0.1822 0.8614 0.0
C300 C 0.43102 0.1582 0.8063 0.0
C301 C 0.47887 0.16995 0.79472 0.0
C302 C 0.51585 0.20717 0.83955 0.0
C303 C 0.50367 0.23303 0.8934 0.0
C304 C 0.45483 0.21855 0.90576 0.0
C305 C 0.35152 0.29955 0.68353 0.0
O306 O 0.31475 0.19479 0.98439 0.0
O307 O 0.28506 0.22039 0.89014 0.0
O308 O 0.29836 0.12593 0.69349 0.0
O309 O 0.31403 0.08468 0.78073 0.0
O310 O 0.36489 0.12695 1.03893 0.0
O311 O 0.35952 0.07814 0.94653 0.0
O312 O 0.35399 0.26551 0.6476 0.0
O313 O 0.32656 0.28769 0.74653 0.0
H314 H 0.40266 0.12737 0.77544 0.0
H315 H 0.44465 0.23457 0.95308 0.0
H316 H 0.16537 0.08037 0.79922 0.0
H317 H 0.18229 0.96941 0.92063 0.0
H318 H 0.46145 0.35443 0.89306 0.0
H319 H 0.50932 0.29138 0.71317 0.0
H320 H 0.14628 0.09176 0.60239 0.0
H321 H 0.14868 0.19962 0.76137 0.0
H322 H 0.48665 0.14849 0.75376 0.0
H323 H 0.53137 0.26142 0.92963 0.0
C324 C 0.1759 0.58569 0.26617 0.0
C325 C 0.18872 0.56629 0.33174 0.0
C326 C 0.18901 0.62957 0.41511 0.0
C327 C 0.18337 0.65315 0.34724 0.0
N328 N 0.18808 0.6597 0.20401 0.0
N329 N 0.22267 0.58092 0.46325 0.0
C330 C 0.18242 0.63333 0.27137 0.0
C331 C 0.20043 0.59195 0.40448 0.0
N332 N 0.15422 0.5579 0.20094 0.0
N333 N 0.17977 0.63973 0.48941 0.0
H334 H 0.23378 0.55526 0.4561 0.0
H335 H 0.23482 0.60132 0.51506 0.0
H336 H 0.16551 0.66242 0.50022 0.0
H337 H 0.18018 0.62039 0.53929 0.0
H338 H 0.1411 0.57002 0.1549 0.0
H339 H 0.14359 0.52095 0.19728 0.0
H340 H 0.19121 0.64755 0.14821 0.0
H341 H 0.19503 0.69559 0.20473 0.0
C342 C 0.59021 0.21219 0.90262 0.0
C343 C 0.56608 0.21528 0.83411 0.0
C344 C 0.62741 0.21234 0.75101 0.0
C345 C 0.65422 0.21464 0.81957 0.0
N346 N 0.66752 0.23273 0.95906 0.0
N347 N 0.57123 0.23385 0.6943 0.0
C348 C 0.63788 0.22026 0.89483 0.0
C349 C 0.58805 0.22087 0.7587 0.0
N350 N 0.56676 0.19752 0.97393 0.0
N351 N 0.63642 0.19812 0.67977 0.0
H352 H 0.54296 0.24126 0.69805 0.0
H353 H 0.5888 0.24217 0.6395 0.0
H354 H 0.66172 0.18688 0.67196 0.0
H355 H 0.61454 0.19186 0.63044 0.0
H356 H 0.58219 0.19081 1.02324 0.0
H357 H 0.53021 0.18617 0.98176 0.0
H358 H 0.6583 0.24099 1.01377 0.0
H359 H 0.70309 0.23984 0.95514 0.0
C360 C 0.3685 0.60181 0.32012 0.0
C361 C 0.36818 0.55673 0.32167 0.0
C362 C 0.45577 0.60027 0.29575 0.0
C363 C 0.4571 0.64554 0.30284 0.0
N364 N 0.41563 0.69032 0.32523 0.0
N365 N 0.4133 0.51422 0.32857 0.0
C366 C 0.4136 0.64656 0.31555 0.0
C367 C 0.41233 0.55628 0.3141 0.0
N368 N 0.32569 0.6018 0.32134 0.0
N369 N 0.49582 0.59921 0.26941 0.0
H370 H 0.38259 0.48146 0.34496 0.0
H371 H 0.44527 0.51303 0.33245 0.0
H372 H 0.52816 0.6307 0.25362 0.0
H373 H 0.4954 0.56695 0.25537 0.0
H374 H 0.32281 0.6327 0.31094 0.0
H375 H 0.29234 0.56997 0.3284 0.0
H376 H 0.38667 0.69402 0.34475 0.0
H377 H 0.44754 0.72335 0.31688 0.0
C378 C 0.82979 0.38443 0.77247 0.0
C379 C 0.83259 0.36568 0.84786 0.0
C380 C 0.81696 0.42661 0.90946 0.0
C381 C 0.8236 0.4507 0.83553 0.0
N382 N 0.85113 0.45825 0.69952 0.0
N383 N 0.84341 0.38111 0.98903 0.0
C384 C 0.83398 0.43121 0.76752 0.0
C385 C 0.82996 0.38991 0.91696 0.0
N386 N 0.8225 0.35778 0.70535 0.0
N387 N 0.79807 0.43836 0.97251 0.0
H388 H 0.85868 0.35898 0.99653 0.0
H389 H 0.84537 0.40097 1.03938 0.0
H390 H 0.7862 0.4636 0.96829 0.0
H391 H 0.78936 0.419 1.02589 0.0
H392 H 0.81615 0.36875 0.65054 0.0
H393 H 0.81757 0.32266 0.70568 0.0
H394 H 0.86295 0.44656 0.65118 0.0
H395 H 0.8594 0.49452 0.69472 0.0
C396 C 0.37978 0.80809 0.38917 0.0
C397 C 0.36208 0.80928 0.31272 0.0
C398 C 0.4301 0.80439 0.2557 0.0
C399 C 0.45292 0.81456 0.3309 0.0
N400 N 0.45238 0.83913 0.46658 0.0
N401 N 0.37842 0.81976 0.1714 0.0
C402 C 0.42849 0.81961 0.39737 0.0
C403 C 0.38907 0.81001 0.24508 0.0
N404 N 0.35047 0.79668 0.45414 0.0
N405 N 0.44709 0.78903 0.19457 0.0
H406 H 0.3515 0.82844 0.16069 0.0
H407 H 0.40026 0.82485 0.12213 0.0
H408 H 0.476 0.78274 0.2007 0.0
H409 H 0.42893 0.77742 0.14081 0.0
H410 H 0.36108 0.7919 0.51023 0.0
H411 H 0.31413 0.78696 0.45011 0.0
H412 H 0.43635 0.84688 0.51392 0.0
H413 H 0.48956 0.85344 0.47326 0.0
C414 C 0.56343 0.38667 0.8924 0.0
C415 C 0.54376 0.37028 0.81557 0.0
C416 C 0.62149 0.43327 0.75915 0.0
C417 C 0.63678 0.45532 0.83447 0.0
N418 N 0.61375 0.45806 0.97045 0.0
N419 N 0.55191 0.38964 0.67518 0.0
C420 C 0.60561 0.43337 0.90081 0.0
C421 C 0.57226 0.3965 0.74841 0.0
N422 N 0.54252 0.35793 0.95764 0.0
N423 N 0.65372 0.44741 0.69769 0.0
H424 H 0.51483 0.36753 0.66537 0.0
H425 H 0.57094 0.411 0.62625 0.0
H426 H 0.69046 0.47314 0.70416 0.0
H427 H 0.64476 0.42961 0.64328 0.0
H428 H 0.55849 0.36707 1.01341 0.0
H429 H 0.51235 0.32292 0.95481 0.0
H430 H 0.58918 0.44468 1.01758 0.0
H431 H 0.64148 0.49411 0.97806 0.0
C432 C 0.18383 0.13065 0.22725 0.0
C433 C 0.2229 0.15012 0.28196 0.0
C434 C 0.24797 0.09384 0.23331 0.0
C435 C 0.20258 0.06709 0.19525 0.0
N436 N 0.12839 0.06026 0.14927 0.0
N437 N 0.2924 0.15013 0.33859 0.0
C438 C 0.17119 0.08615 0.18878 0.0
C439 C 0.25585 0.1325 0.28423 0.0
N440 N 0.15941 0.15495 0.21181 0.0
N441 N 0.28227 0.08053 0.22357 0.0
H442 H 0.29784 0.17667 0.38013 0.0
H443 H 0.31508 0.13575 0.34702 0.0
H444 H 0.2771 0.05196 0.18673 0.0
H445 H 0.31742 0.10077 0.24519 0.0
H446 H 0.13272 0.14407 0.16874 0.0
H447 H 0.16917 0.18878 0.2367 0.0
H448 H 0.10091 0.06889 0.15047 0.0
H449 H 0.11992 0.02866 0.1176 0.0
C450 C 0.0494 0.09503 0.81976 0.0
C451 C 0.03011 0.12578 0.80358 0.0
C452 C 0.06346 0.14072 0.66984 0.0
C453 C 0.08781 0.11567 0.69058 0.0
N454 N 0.07788 0.04495 0.75862 0.0
N455 N 0.99771 0.15475 0.70145 0.0
C456 C 0.07128 0.08405 0.75644 0.0
C457 C 0.02978 0.1407 0.7242 0.0
N458 N 0.04992 0.07908 0.89464 0.0
N459 N 0.07691 0.16894 0.60315 0.0
H460 H 0.97103 0.15271 0.73971 0.0
H461 H 0.99431 0.16239 0.6427 0.0
H462 H 0.10136 0.16827 0.56263 0.0
H463 H 0.06554 0.19397 0.59103 0.0
H464 H 0.06759 0.05984 0.90853 0.0
H465 H 0.03596 0.08819 0.94326 0.0
H466 H 0.06357 0.01898 0.80382 0.0
H467 H 0.09326 0.03683 0.71067 0.0
C468 C 0.9679 0.07585 0.2604 0.0
C469 C 0.99635 0.11132 0.31722 0.0
C470 C 0.94083 0.05873 0.42105 0.0
C471 C 0.90672 0.03114 0.36225 0.0
N472 N 0.88647 0.01644 0.22282 0.0
N473 N 1.00758 0.13771 0.45437 0.0
C474 C 0.92003 0.03964 0.28083 0.0
C475 C 0.98301 0.10274 0.39873 0.0
N476 N 0.98626 0.07796 0.18648 0.0
N477 N 0.93262 0.04323 0.4981 0.0
H478 H 0.03846 0.17125 0.44281 0.0
H479 H 0.99432 0.1349 0.51164 0.0
H480 H 0.90199 0.0106 0.5159 0.0
H481 H 0.95861 0.05996 0.54215 0.0
H482 H 0.96829 0.05067 0.14445 0.0
H483 H 0.02169 0.10442 0.17082 0.0
H484 H 0.89378 0.02575 0.1631 0.0
H485 H 0.85023 0.99094 0.23409 0.0
C486 C 0.90467 0.97415 0.75313 0.0
C487 C 0.85916 0.97022 0.73999 0.0
C488 C 0.81897 0.88595 0.78755 0.0
C489 C 0.86394 0.89436 0.81831 0.0
N490 N 0.94988 0.94906 0.83593 0.0
N491 N 0.77157 0.92299 0.75217 0.0
C492 C 0.90716 0.9389 0.80159 0.0
C493 C 0.81574 0.9261 0.7583 0.0
N494 N 0.9454 0.01198 0.72004 0.0
N495 N 0.77979 0.83963 0.78396 0.0
H496 H 0.76695 0.95133 0.73096 0.0
H497 H 0.73968 0.89325 0.77401 0.0
H498 H 0.7813 0.80859 0.80033 0.0
H499 H 0.74771 0.83157 0.7554 0.0
H500 H 0.97848 0.01295 0.7197 0.0
H501 H 0.94431 0.03879 0.68528 0.0
H502 H 0.98096 0.98343 0.8321 0.0
H503 H 0.95295 0.92499 0.87463 0.0
C504 C 0.94911 0.91015 0.24842 0.0
C505 C 0.9048 0.88486 0.29119 0.0
C506 C 0.94962 0.90929 0.41606 0.0
C507 C 0.99188 0.92286 0.37262 0.0
N508 N 0.03565 0.95549 0.25085 0.0
N509 N 0.86224 0.86493 0.41794 0.0
C510 C 0.99286 0.93104 0.29053 0.0
C511 C 0.90473 0.88662 0.37593 0.0
N512 N 0.95007 0.91181 0.16761 0.0
N513 N 0.95312 0.91586 0.49601 0.0
H514 H 0.8283 0.8517 0.39232 0.0
H515 H 0.86057 0.85898 0.47869 0.0
H516 H 0.98678 0.93141 0.52407 0.0
H517 H 0.92436 0.91014 0.5325 0.0
H518 H 0.98248 0.92997 0.13545 0.0
H519 H 0.91902 0.89393 0.13294 0.0
H520 H 0.06892 0.97219 0.27986 0.0
H521 H 0.06892 0.97219 0.27986 0.0
C522 C 0.08356 0.95114 0.86483 0.0
C523 C 0.12481 0.98057 0.8172 0.0
C524 C 0.09243 0.92168 0.7093 0.0
C525 C 0.05295 0.8906 0.7588 0.0
N526 N 0.0092 0.87339 0.88272 0.0
N527 N 0.16285 1.00138 0.68769 0.0
C528 C 0.04746 0.90506 0.83594 0.0
C529 C 0.12743 0.96832 0.73726 0.0
N530 N 0.07888 0.9683 0.93659 0.0
N531 N 0.09849 0.90499 0.63814 0.0
H532 H 0.19063 0.03537 0.7058 0.0
H533 H 0.16266 0.99688 0.62667 0.0
H534 H 0.07274 0.87148 0.61432 0.0
H535 H 0.13058 0.9226 0.60551 0.0
H536 H 0.04833 0.95086 0.97276 0.0
H537 H 0.10468 1.00265 0.95777 0.0
H538 H 1.00505 0.87929 0.94194 0.0
H539 H 0.98177 0.83945 0.86315 0.0
C540 C 0.20127 0.24432 0.07721 0.0
C541 C 0.23236 0.28301 0.12934 0.0
C542 C 0.30248 0.27794 1.07284 0.0
C543 C 0.27106 0.23759 1.02432 0.0
N544 N 0.18919 0.17764 0.99019 0.0
N545 N 0.31342 0.33379 0.17982 0.0
C546 C 0.22013 0.21988 1.02894 0.0
C547 C 0.28309 0.2986 0.12812 0.0
N548 N 0.15315 0.23014 0.0742 0.0
N549 N 0.35151 0.29859 1.06308 0.0
H550 H 0.30297 0.35424 0.21398 0.0
H551 H 0.34852 0.34139 0.19167 0.0
H552 H 0.36708 0.28445 1.02496 0.0
H553 H 0.37693 0.33171 0.08806 0.0
H554 H 0.12968 0.2073 1.03082 0.0
H555 H 0.13674 0.24305 0.11286 0.0
H556 H 0.15167 0.15892 0.99735 0.0
H557 H 0.20126 0.15856 0.95579 0.0
C558 C 0.96274 0.21563 0.56019 0.0
C559 C 0.96815 0.23692 0.63666 0.0
C560 C 0.05539 0.29445 0.60098 0.0
C561 C 0.0486 0.27613 0.52212 0.0
N562 N 0.99041 0.22382 0.4244 0.0
N563 N 0.01933 0.30617 0.71946 0.0
C564 C 1.00055 0.23865 0.50111 0.0
C565 C 0.01455 0.27871 0.65425 0.0
N566 N 0.92324 0.17079 0.54519 0.0
N567 N 0.10091 0.32818 0.62551 0.0
H568 H 0.99069 0.29904 0.75713 0.0
H569 H 0.05024 0.33967 0.73119 0.0
H570 H 0.13078 0.34521 0.58767 0.0
H571 H 0.10956 0.33728 0.68477 0.0
H572 H 0.91984 0.15078 0.49437 0.0
H573 H 0.89664 0.15053 0.5872 0.0
H574 H 0.95519 0.20212 0.40349 0.0
H575 H 0.01679 0.23493 0.38066 0.0
C576 C 0.76346 0.01449 0.16142 0.0
C577 C 0.73219 0.96446 0.13912 0.0
C578 C 0.74824 0.99427 0.99895 0.0
C579 C 0.77325 0.04458 1.02249 0.0
N580 N 0.78944 0.09931 0.13235 0.0
N581 N 0.68484 0.91158 1.03184 0.0
C582 C 0.77613 0.05359 0.10552 0.0
C583 C 0.72168 0.9558 1.05646 0.0
N584 N 0.78413 0.02554 0.23453 0.0
N585 N 0.7514 0.98217 0.92262 0.0
H586 H 0.6617 0.88399 1.07087 0.0
H587 H 0.67331 0.90492 0.97321 0.0
H588 H 0.77258 1.00776 0.87956 0.0
H589 H 0.73764 0.94605 0.90475 0.0
H590 H 0.81015 0.06101 0.25066 0.0
H591 H 0.78118 0.99908 0.27431 0.0
H592 H 0.78827 0.10667 0.19216 0.0
H593 H 0.79526 0.12804 0.09479 0.0
C594 C 0.72911 0.70318 0.59757 0.0
C595 C 0.77189 0.73419 0.64143 0.0
C596 C 0.77241 0.80616 0.57756 0.0
C597 C 0.73074 0.77521 0.53111 0.0
N598 N 0.67297 0.69285 0.49155 0.0
N599 N 0.84025 0.81507 0.65613 0.0
C600 C 0.71032 0.72334 0.53968 0.0
C601 C 0.79495 0.78565 0.62663 0.0
N602 N 0.70581 0.65395 0.61178 0.0
N603 N 0.79128 0.8557 0.57435 0.0
H604 H 0.85791 0.80098 0.68901 0.0
H605 H 0.86211 0.85197 0.64188 0.0
H606 H 0.77856 0.87267 0.53633 0.0
H607 H 0.81831 0.8802 0.61192 0.0
H608 H 0.67122 0.62933 0.59133 0.0
H609 H 0.72054 0.63777 0.64732 0.0
H610 H 0.66038 0.65558 0.48617 0.0
H611 H 0.65582 0.70519 0.45335 0.0
C612 C 0.99682 0.72131 1.03086 0.0
C613 C 0.96269 0.73809 1.02455 0.0
C614 C 0.00875 0.7979 0.13233 0.0
C615 C 0.0436 0.78216 0.1367 0.0
N616 N 0.07341 0.73232 0.08124 0.0
N617 N 0.94483 0.80126 1.05888 0.0
C618 C 0.03842 0.74516 0.08284 0.0
C619 C 0.97098 0.77859 1.07305 0.0
N620 N 0.98828 0.68055 0.99017 0.0
N621 N 0.01185 0.83212 0.1848 0.0
H622 H 0.91872 0.79016 1.0148 0.0
H623 H 0.95236 0.83413 0.08472 0.0
H624 H 0.04126 0.85119 0.22251 0.0
H625 H 0.98413 0.83988 0.19381 0.0
H626 H 1.00718 0.66208 0.99924 0.0
H627 H 0.95969 0.66264 0.95109 0.0
H628 H 0.07622 0.71106 1.03703 0.0
H629 H 0.10184 0.74547 0.12155 0.0
C630 C 0.28108 0.05235 0.56816 0.0
C631 C 0.28048 0.04355 0.65149 0.0
C632 C 0.24317 0.95458 0.61645 0.0
C633 C 0.23547 0.96309 0.5362 0.0
N634 N 0.23924 0.02342 0.44338 0.0
N635 N 0.25064 0.9797 0.75285 0.0
C636 C 0.25233 0.01293 0.51432 0.0
C637 C 0.25891 0.99286 0.67494 0.0
N638 N 0.31125 0.09816 0.53848 0.0
N639 N 0.23753 0.91022 0.63732 0.0
H640 H 0.26061 1.00427 0.79885 0.0
H641 H 0.22926 0.94345 0.77151 0.0
H642 H 0.22889 0.88232 0.5967 0.0
H643 H 0.24735 0.90338 0.69264 0.0
H644 H 0.31613 0.1055 0.47795 0.0
H645 H 0.33654 0.12686 0.57305 0.0
H646 H 0.24649 0.05849 0.42826 0.0
H647 H 0.21619 0.9966 0.40412 0.0
C648 C 0.66338 0.61383 0.12237 0.0
C649 C 0.66729 0.62824 1.04222 0.0
C650 C 0.61151 0.65776 1.06329 0.0
C651 C 0.62403 0.66113 0.14376 0.0
N652 N 0.63095 0.61584 0.2523 0.0
N653 N 0.62107 0.63152 0.9326 0.0
C654 C 0.63888 0.62917 0.17449 0.0
C655 C 0.63235 0.63863 1.01096 0.0
N656 N 0.68408 0.58755 0.1474 0.0
N657 N 0.58332 0.67616 1.03802 0.0
H658 H 0.63523 0.61517 0.89594 0.0
H659 H 0.5952 0.63774 0.90622 0.0
H660 H 0.56727 0.68871 0.07848 0.0
H661 H 0.57598 0.67874 0.97879 0.0
H662 H 0.68585 0.57913 0.20644 0.0
H663 H 0.69818 0.57291 0.10711 0.0
H664 H 0.64067 0.59227 0.27882 0.0
H665 H 0.61091 0.62603 0.2884 0.0
C666 C 0.97035 0.63677 0.47302 0.0
C667 C 0.01624 0.66598 0.50882 0.0
C668 C 0.98461 0.61972 0.63027 0.0
C669 C 0.93879 0.61106 0.60533 0.0
N670 N 0.88331 0.58751 0.49725 0.0
N671 N 0.07169 0.6671 0.60616 0.0
C672 C 0.92988 0.61026 0.52371 0.0
C673 C 0.02525 0.65079 0.58245 0.0
N674 N 0.96619 0.6348 0.39267 0.0
N675 N 0.98845 0.60073 0.70057 0.0
H676 H 0.10102 0.68639 0.5676 0.0
H677 H 0.08081 0.66051 0.66211 0.0
H678 H 0.95752 0.57755 0.73389 0.0
H679 H 0.02084 0.60504 0.72238 0.0
H680 H 0.93364 0.61321 0.36327 0.0
H681 H 0.99676 0.65099 0.35591 0.0
H682 H 0.87381 0.58937 0.439 0.0
H683 H 0.85428 0.56676 0.53576 0.0
C684 C 0.383 0.02184 1.04542 0.0
C685 C 0.38614 0.0658 1.07147 0.0
C686 C 0.36823 0.03426 0.20544 0.0
C687 C 0.34503 0.98697 0.17159 0.0
N688 N 0.35255 0.93565 0.07497 0.0
N689 N 0.40912 0.12211 0.17942 0.0
C690 C 0.36052 0.9806 0.09653 0.0
C691 C 0.38858 0.0751 0.15337 0.0
N692 N 0.40082 0.02028 0.97272 0.0
N693 N 0.3696 0.0391 0.2857 0.0
H694 H 0.42746 0.15174 0.14058 0.0
H695 H 0.40986 0.13175 0.23837 0.0
H696 H 0.35778 1.00874 0.32307 0.0
H697 H 0.38506 0.07249 0.31483 0.0
H698 H 0.39977 0.98938 0.94942 0.0
H699 H 0.42014 0.05196 0.93833 0.0
H700 H 0.35967 0.92737 1.0188 0.0
H701 H 0.34026 0.90693 0.11591 0.0
C702 C 0.35507 0.37975 0.6825 0.0
C703 C 0.37058 0.34896 0.64921 0.0
C704 C 0.3765 0.38549 0.52086 0.0
C705 C 0.34087 0.39611 0.54857 0.0
N706 N 0.31174 0.42328 0.65644 0.0
N707 N 0.41979 0.34189 0.54853 0.0
C708 C 0.33672 0.4015 0.6304 0.0
C709 C 0.39022 0.35905 0.57207 0.0
N710 N 0.35667 0.38627 0.76232 0.0
N711 N 0.39493 0.39891 0.44626 0.0
H712 H 0.43251 0.32593 0.58899 0.0
H713 H 0.4324 0.34439 0.49089 0.0
H714 H 0.3864 0.42052 0.41087 0.0
H715 H 0.42124 0.39242 0.42235 0.0
H716 H 0.34699 0.40951 0.78998 0.0
H717 H 0.37238 0.37162 0.79939 0.0
H718 H 0.30315 0.42424 0.71563 0.0
H719 H 0.29925 0.43985 0.61671 0.0
C720 C 0.99118 0.36297 0.17435 0.0
C721 C 0.03872 0.38314 0.14355 0.0
C722 C 1.00804 0.37543 1.01107 0.0
C723 C 0.96415 0.3363 1.04126 0.0
N724 N 0.90514 0.31106 0.14583 0.0
N725 N 0.09318 0.43216 1.03966 0.0
C726 C 0.9523 0.33689 0.12149 0.0
C727 C 0.04746 0.39852 1.06383 0.0
N728 N 0.98437 0.36737 0.25284 0.0
N729 N 0.01159 0.38813 0.93314 0.0
H730 H 0.12107 0.45027 0.08061 0.0
H731 H 0.10298 0.44244 0.98089 0.0
H732 H 0.98127 0.37174 0.89635 0.0
H733 H 0.04268 0.41666 0.90718 0.0
H734 H 0.95046 0.35352 0.27941 0.0
H735 H 0.01381 0.3885 0.28973 0.0
H736 H 0.89417 0.30692 0.20477 0.0
H737 H 0.87694 0.29482 0.10493 0.0
C738 C 0.66322 0.05573 0.55866 0.0
C739 C 0.66924 0.04737 0.63878 0.0
C740 C 0.61889 0.95975 0.62214 0.0
C741 C 0.62965 0.96863 0.54068 0.0
N742 N 0.63045 0.01786 0.43126 0.0
N743 N 0.62763 0.99681 0.75161 0.0
C744 C 0.64075 0.01452 0.50848 0.0
C745 C 0.63774 1.00083 0.67258 0.0
N746 N 0.68026 0.10229 0.53167 0.0
N747 N 0.59286 0.91289 0.64989 0.0
H748 H 0.64008 0.02791 0.78683 0.0
H749 H 0.6044 0.96393 0.7803 0.0
H750 H 0.576 0.88332 0.61121 0.0
H751 H 0.58714 0.90357 0.70967 0.0
H752 H 0.68082 0.11143 0.47229 0.0
H753 H 0.69271 0.13168 0.57068 0.0
H754 H 0.63701 0.05022 0.40399 0.0
H755 H 0.61127 0.98653 0.39677 0.0
loop_
_geom_bond_atom_site_label_1
_geom_bond_atom_site_label_2
_geom_bond_distance
_geom_bond_site_symmetry_2
_ccdc_geom_bond_type
Cd0 N3 2.334 . S
Cd0 N29 2.304 . S
Cd0 O36 2.268 . S
Cd0 O39 2.273 . S
Cd0 O40 2.417 . S
Cd0 O41 2.330 . S
Cd1 N16 2.304 . S
Cd1 N20 2.334 . S
Cd1 O37 2.273 . S
Cd1 O38 2.268 . S
Cd1 O42 2.417 . S
Cd1 O43 2.330 . S
C2 N3 1.332 . S
C2 C6 1.381 . S
C2 H8 0.931 . S
N3 Cd0 2.334 . S
N3 C2 1.332 . S
N3 C7 1.328 . S
C4 C5 1.396 . S
C4 C7 1.378 . S
C4 H46 0.931 . S
C5 C4 1.396 . S
C5 C6 1.382 . S
C6 C2 1.381 . S
C6 C5 1.382 . S
C6 H47 0.930 1_455 S
C7 N3 1.328 . S
C7 C4 1.378 . S
C7 H9 0.930 . S
H8 C2 0.931 . S
H9 C7 0.930 . S
C10 O36 1.238 . S
C10 O37 1.253 . S
C11 C12 1.379 . S
C11 N16 1.337 . S
C11 H17 0.929 . S
C12 C11 1.379 . S
C12 C13 1.380 . S
C12 H48 0.929 . S
C13 C12 1.380 . S
C13 C14 1.399 . S
C14 C13 1.399 . S
C14 C15 1.376 . S
C14 H49 0.931 . S
C15 C14 1.376 . S
C15 N16 1.338 . S
C15 H18 0.930 . S
N16 Cd1 2.304 . S
N16 C11 1.337 . S
N16 C15 1.338 . S
H17 C11 0.929 . S
H18 C15 0.930 . S
C19 N20 1.332 . S
C19 C23 1.381 . S
C19 H25 0.931 . S
N20 Cd1 2.334 . S
N20 C19 1.332 . S
N20 C24 1.328 . S
C21 C22 1.396 . S
C21 C24 1.378 . S
C21 H50 0.931 . S
C22 C21 1.396 . S
C22 C23 1.382 . S
C23 C19 1.381 . S
C23 C22 1.382 . S
C23 H51 0.930 . S
C24 N20 1.328 . S
C24 C21 1.378 . S
C24 H26 0.930 . S
H25 C19 0.931 . S
H26 C24 0.930 . S
C27 O38 1.238 . S
C27 O39 1.253 . S
C28 O40 1.239 . S
C28 O41 1.230 . S
N29 Cd0 2.304 . S
N29 C30 1.337 . S
N29 C34 1.338 . S
C30 N29 1.337 . S
C30 C31 1.379 . S
C30 H44 0.929 . S
C31 C30 1.379 . S
C31 C32 1.380 . S
C31 H52 0.929 . S
C32 C31 1.380 . S
C32 C33 1.399 . S
C33 C32 1.399 . S
C33 C34 1.376 . S
C33 H53 0.931 . S
C34 N29 1.338 . S
C34 C33 1.376 . S
C34 H45 0.930 . S
C35 O42 1.239 . S
C35 O43 1.230 . S
O36 Cd0 2.268 . S
O36 C10 1.238 . S
O37 Cd1 2.273 . S
O37 C10 1.253 . S
O38 Cd1 2.268 . S
O38 C27 1.238 . S
O39 Cd0 2.273 . S
O39 C27 1.253 . S
O40 Cd0 2.417 . S
O40 C28 1.239 . S
O41 Cd0 2.330 . S
O41 C28 1.230 . S
O42 Cd1 2.417 . S
O42 C35 1.239 . S
O43 Cd1 2.330 . S
O43 C35 1.230 . S
H44 C30 0.929 . S
H45 C34 0.930 . S
H46 C4 0.931 . S
H47 C6 0.930 1_655 S
H48 C12 0.929 . S
H49 C14 0.931 . S
H50 C21 0.931 . S
H51 C23 0.930 . S
H52 C31 0.929 . S
H53 C33 0.931 . S
Cd54 N57 2.334 . S
Cd54 N83 2.304 . S
Cd54 O90 2.268 . S
Cd54 O93 2.273 . S
Cd54 O94 2.417 . S
Cd54 O95 2.330 . S
Cd55 N70 2.304 . S
Cd55 N74 2.334 . S
Cd55 O91 2.273 . S
Cd55 O92 2.268 . S
Cd55 O96 2.417 . S
Cd55 O97 2.330 . S
C56 N57 1.332 . S
C56 C60 1.381 . S
C56 H62 0.931 . S
N57 Cd54 2.334 . S
N57 C56 1.332 . S
N57 C61 1.328 . S
C58 C59 1.396 . S
C58 C61 1.378 . S
C58 H100 0.931 . S
C59 C58 1.396 . S
C59 C60 1.382 . S
C60 C56 1.381 . S
C60 C59 1.382 . S
C60 H101 0.930 1_655 S
C61 N57 1.328 . S
C61 C58 1.378 . S
C61 H63 0.930 . S
H62 C56 0.931 . S
H63 C61 0.930 . S
C64 O90 1.238 . S
C64 O91 1.253 . S
C65 C66 1.379 . S
C65 N70 1.337 . S
C65 H71 0.929 . S
C66 C65 1.379 . S
C66 C67 1.380 . S
C66 H102 0.929 . S
C67 C66 1.380 . S
C67 C68 1.399 . S
C68 C67 1.399 . S
C68 C69 1.376 . S
C68 H103 0.931 . S
C69 C68 1.376 . S
C69 N70 1.338 . S
C69 H72 0.930 . S
N70 Cd55 2.304 . S
N70 C65 1.337 . S
N70 C69 1.338 . S
H71 C65 0.929 . S
H72 C69 0.930 . S
C73 N74 1.332 . S
C73 C77 1.381 . S
C73 H79 0.931 . S
N74 Cd55 2.334 . S
N74 C73 1.332 . S
N74 C78 1.328 . S
C75 C76 1.396 . S
C75 C78 1.378 . S
C75 H104 0.931 . S
C76 C75 1.396 . S
C76 C77 1.382 . S
C77 C73 1.381 . S
C77 C76 1.382 . S
C77 H105 0.930 1_545 S
C78 N74 1.328 . S
C78 C75 1.378 . S
C78 H80 0.930 . S
H79 C73 0.931 . S
H80 C78 0.930 . S
C81 O92 1.238 . S
C81 O93 1.253 . S
C82 O94 1.239 . S
C82 O95 1.230 . S
N83 Cd54 2.304 . S
N83 C84 1.337 . S
N83 C88 1.338 . S
C84 N83 1.337 . S
C84 C85 1.379 . S
C84 H98 0.929 . S
C85 C84 1.379 . S
C85 C86 1.380 . S
C85 H106 0.929 . S
C86 C85 1.380 . S
C86 C87 1.399 . S
C87 C86 1.399 . S
C87 C88 1.376 . S
C87 H107 0.931 . S
C88 N83 1.338 . S
C88 C87 1.376 . S
C88 H99 0.930 . S
C89 O96 1.239 . S
C89 O97 1.230 . S
O90 Cd54 2.268 . S
O90 C64 1.238 . S
O91 Cd55 2.273 . S
O91 C64 1.253 . S
O92 Cd55 2.268 . S
O92 C81 1.238 . S
O93 Cd54 2.273 . S
O93 C81 1.253 . S
O94 Cd54 2.417 . S
O94 C82 1.239 . S
O95 Cd54 2.330 . S
O95 C82 1.230 . S
O96 Cd55 2.417 . S
O96 C89 1.239 . S
O97 Cd55 2.330 . S
O97 C89 1.230 . S
H98 C84 0.929 . S
H99 C88 0.930 . S
H100 C58 0.931 . S
H101 C60 0.930 1_455 S
H102 C66 0.929 . S
H103 C68 0.931 . S
H104 C75 0.931 . S
H105 C77 0.930 1_565 S
H106 C85 0.929 . S
H107 C87 0.931 . S
Cd108 N111 2.334 . S
Cd108 N137 2.304 . S
Cd108 O144 2.268 . S
Cd108 O147 2.273 . S
Cd108 O148 2.417 . S
Cd108 O149 2.330 . S
Cd109 N124 2.304 . S
Cd109 N128 2.334 . S
Cd109 O145 2.273 . S
Cd109 O146 2.268 . S
Cd109 O150 2.417 . S
Cd109 O151 2.330 . S
C110 N111 1.332 . S
C110 C114 1.381 . S
C110 H116 0.931 . S
N111 Cd108 2.334 . S
N111 C110 1.332 . S
N111 C115 1.328 . S
C112 C113 1.396 . S
C112 C115 1.378 . S
C112 H154 0.931 . S
C113 C112 1.396 . S
C113 C114 1.382 . S
C114 C110 1.381 . S
C114 C113 1.382 . S
C114 H155 0.930 . S
C115 N111 1.328 . S
C115 C112 1.378 . S
C115 H117 0.930 . S
H116 C110 0.931 . S
H117 C115 0.930 . S
C118 O144 1.238 . S
C118 O145 1.253 . S
C119 C120 1.379 . S
C119 N124 1.337 . S
C119 H125 0.929 . S
C120 C119 1.379 . S
C120 C121 1.380 . S
C120 H156 0.929 . S
C121 C120 1.380 . S
C121 C122 1.399 . S
C122 C121 1.399 . S
C122 C123 1.376 . S
C122 H157 0.931 . S
C123 C122 1.376 . S
C123 N124 1.338 . S
C123 H126 0.930 . S
N124 Cd109 2.304 . S
N124 C119 1.337 . S
N124 C123 1.338 . S
H125 C119 0.929 . S
H126 C123 0.930 . S
C127 N128 1.332 . S
C127 C131 1.381 . S
C127 H133 0.931 . S
N128 Cd109 2.334 . S
N128 C127 1.332 . S
N128 C132 1.328 . S
C129 C130 1.396 . S
C129 C132 1.378 . S
C129 H158 0.931 . S
C130 C129 1.396 . S
C130 C131 1.382 . S
C131 C127 1.381 . S
C131 C130 1.382 . S
C131 H159 0.930 1_565 S
C132 N128 1.328 . S
C132 C129 1.378 . S
C132 H134 0.930 . S
H133 C127 0.931 . S
H134 C132 0.930 . S
C135 O146 1.238 . S
C135 O147 1.253 . S
C136 O148 1.239 . S
C136 O149 1.230 . S
N137 Cd108 2.304 . S
N137 C138 1.337 . S
N137 C142 1.338 . S
C138 N137 1.337 . S
C138 C139 1.379 . S
C138 H152 0.929 . S
C139 C138 1.379 . S
C139 C140 1.380 . S
C139 H160 0.929 . S
C140 C139 1.380 . S
C140 C141 1.399 . S
C141 C140 1.399 . S
C141 C142 1.376 . S
C141 H161 0.931 . S
C142 N137 1.338 . S
C142 C141 1.376 . S
C142 H153 0.930 . S
C143 O150 1.239 . S
C143 O151 1.230 . S
O144 Cd108 2.268 . S
O144 C118 1.238 . S
O145 Cd109 2.273 . S
O145 C118 1.253 . S
O146 Cd109 2.268 . S
O146 C135 1.238 . S
O147 Cd108 2.273 . S
O147 C135 1.253 . S
O148 Cd108 2.417 . S
O148 C136 1.239 . S
O149 Cd108 2.330 . S
O149 C136 1.230 . S
O150 Cd109 2.417 . S
O150 C143 1.239 . S
O151 Cd109 2.330 . S
O151 C143 1.230 . S
H152 C138 0.929 . S
H153 C142 0.930 . S
H154 C112 0.931 . S
H155 C114 0.930 . S
H156 C120 0.929 . S
H157 C122 0.931 . S
H158 C129 0.931 . S
H159 C131 0.930 1_545 S
H160 C139 0.929 . S
H161 C141 0.931 . S
Cd162 N165 2.334 . S
Cd162 N191 2.304 . S
Cd162 O198 2.268 . S
Cd162 O201 2.273 . S
Cd162 O202 2.417 . S
Cd162 O203 2.330 . S
Cd163 N178 2.304 . S
Cd163 N182 2.334 . S
Cd163 O199 2.273 . S
Cd163 O200 2.268 . S
Cd163 O204 2.417 . S
Cd163 O205 2.330 . S
C164 N165 1.332 . S
C164 C168 1.381 . S
C164 H170 0.931 . S
N165 Cd162 2.334 . S
N165 C164 1.332 . S
N165 C169 1.328 . S
C166 C167 1.396 . S
C166 C169 1.378 . S
C166 H208 0.931 . S
C167 C166 1.396 . S
C167 C168 1.382 . S
C168 C164 1.381 . S
C168 C167 1.382 . S
C168 H209 0.930 . S
C169 N165 1.328 . S
C169 C166 1.378 . S
C169 H171 0.930 . S
H170 C164 0.931 . S
H171 C169 0.930 . S
C172 O198 1.238 . S
C172 O199 1.253 . S
C173 C174 1.379 . S
C173 N178 1.337 . S
C173 H179 0.929 . S
C174 C173 1.379 . S
C174 C175 1.380 . S
C174 H210 0.929 . S
C175 C174 1.380 . S
C175 C176 1.399 . S
C176 C175 1.399 . S
C176 C177 1.376 . S
C176 H211 0.931 . S
C177 C176 1.376 . S
C177 N178 1.338 . S
C177 H180 0.930 . S
N178 Cd163 2.304 . S
N178 C173 1.337 . S
N178 C177 1.338 . S
H179 C173 0.929 . S
H180 C177 0.930 . S
C181 N182 1.332 . S
C181 C185 1.381 . S
C181 H187 0.931 . S
N182 Cd163 2.334 . S
N182 C181 1.332 . S
N182 C186 1.328 . S
C183 C184 1.396 . S
C183 C186 1.378 . S
C183 H212 0.931 . S
C184 C183 1.396 . S
C184 C185 1.382 . S
C185 C181 1.381 . S
C185 C184 1.382 . S
C185 H213 0.930 1_655 S
C186 N182 1.328 . S
C186 C183 1.378 . S
C186 H188 0.930 . S
H187 C181 0.931 . S
H188 C186 0.930 . S
C189 O200 1.238 . S
C189 O201 1.253 . S
C190 O202 1.239 . S
C190 O203 1.230 . S
N191 Cd162 2.304 . S
N191 C192 1.337 . S
N191 C196 1.338 . S
C192 N191 1.337 . S
C192 C193 1.379 . S
C192 H206 0.929 . S
C193 C192 1.379 . S
C193 C194 1.380 . S
C193 H214 0.929 . S
C194 C193 1.380 . S
C194 C195 1.399 . S
C195 C194 1.399 . S
C195 C196 1.376 . S
C195 H215 0.931 . S
C196 N191 1.338 . S
C196 C195 1.376 . S
C196 H207 0.930 . S
C197 O204 1.239 . S
C197 O205 1.230 . S
O198 Cd162 2.268 . S
O198 C172 1.238 . S
O199 Cd163 2.273 . S
O199 C172 1.253 . S
O200 Cd163 2.268 . S
O200 C189 1.238 . S
O201 Cd162 2.273 . S
O201 C189 1.253 . S
O202 Cd162 2.417 . S
O202 C190 1.239 . S
O203 Cd162 2.330 . S
O203 C190 1.230 . S
O204 Cd163 2.417 . S
O204 C197 1.239 . S
O205 Cd163 2.330 . S
O205 C197 1.230 . S
H206 C192 0.929 . S
H207 C196 0.930 . S
H208 C166 0.931 . S
H209 C168 0.930 . S
H210 C174 0.929 . S
H211 C176 0.931 . S
H212 C183 0.931 . S
H213 C185 0.930 1_455 S
H214 C193 0.929 . S
H215 C195 0.931 . S
Cd216 N219 2.334 . S
Cd216 N245 2.304 . S
Cd216 O252 2.268 . S
Cd216 O255 2.273 . S
Cd216 O256 2.417 . S
Cd216 O257 2.330 . S
Cd217 N232 2.304 . S
Cd217 N236 2.334 . S
Cd217 O253 2.273 . S
Cd217 O254 2.268 . S
Cd217 O258 2.417 . S
Cd217 O259 2.330 . S
C218 N219 1.332 . S
C218 C222 1.381 . S
C218 H224 0.931 . S
N219 Cd216 2.334 . S
N219 C218 1.332 . S
N219 C223 1.328 . S
C220 C221 1.396 . S
C220 C223 1.378 . S
C220 H262 0.931 . S
C221 C220 1.396 . S
C221 C222 1.382 . S
C222 C218 1.381 . S
C222 C221 1.382 . S
C222 H263 0.930 1_565 S
C223 N219 1.328 . S
C223 C220 1.378 . S
C223 H225 0.930 . S
H224 C218 0.931 . S
H225 C223 0.930 . S
C226 O252 1.238 . S
C226 O253 1.253 . S
C227 C228 1.379 . S
C227 N232 1.337 . S
C227 H233 0.929 . S
C228 C227 1.379 . S
C228 C229 1.380 . S
C228 H264 0.929 . S
C229 C228 1.380 . S
C229 C230 1.399 . S
C230 C229 1.399 . S
C230 C231 1.376 . S
C230 H265 0.931 . S
C231 C230 1.376 . S
C231 N232 1.338 . S
C231 H234 0.930 . S
N232 Cd217 2.304 . S
N232 C227 1.337 . S
N232 C231 1.338 . S
H233 C227 0.929 . S
H234 C231 0.930 . S
C235 N236 1.332 . S
C235 C239 1.381 . S
C235 H241 0.931 . S
N236 Cd217 2.334 . S
N236 C235 1.332 . S
N236 C240 1.328 . S
C237 C238 1.396 . S
C237 C240 1.378 . S
C237 H266 0.931 . S
C238 C237 1.396 . S
C238 C239 1.382 . S
C239 C235 1.381 . S
C239 C238 1.382 . S
C239 H267 0.930 1_455 S
C240 N236 1.328 . S
C240 C237 1.378 . S
C240 H242 0.930 . S
H241 C235 0.931 . S
H242 C240 0.930 . S
C243 O254 1.238 . S
C243 O255 1.253 . S
C244 O256 1.239 . S
C244 O257 1.230 . S
N245 Cd216 2.304 . S
N245 C246 1.337 . S
N245 C250 1.338 . S
C246 N245 1.337 . S
C246 C247 1.379 . S
C246 H260 0.929 . S
C247 C246 1.379 . S
C247 C248 1.380 . S
C247 H268 0.929 . S
C248 C247 1.380 . S
C248 C249 1.399 . S
C249 C248 1.399 . S
C249 C250 1.376 . S
C249 H269 0.931 . S
C250 N245 1.338 . S
C250 C249 1.376 . S
C250 H261 0.930 . S
C251 O258 1.239 . S
C251 O259 1.230 . S
O252 Cd216 2.268 . S
O252 C226 1.238 . S
O253 Cd217 2.273 . S
O253 C226 1.253 . S
O254 Cd217 2.268 . S
O254 C243 1.238 . S
O255 Cd216 2.273 . S
O255 C243 1.253 . S
O256 Cd216 2.417 . S
O256 C244 1.239 . S
O257 Cd216 2.330 . S
O257 C244 1.230 . S
O258 Cd217 2.417 . S
O258 C251 1.239 . S
O259 Cd217 2.330 . S
O259 C251 1.230 . S
H260 C246 0.929 . S
H261 C250 0.930 . S
H262 C220 0.931 . S
H263 C222 0.930 1_545 S
H264 C228 0.929 . S
H265 C230 0.931 . S
H266 C237 0.931 . S
H267 C239 0.930 1_655 S
H268 C247 0.929 . S
H269 C249 0.931 . S
Cd270 N273 2.334 . S
Cd270 N299 2.304 . S
Cd270 O306 2.268 . S
Cd270 O309 2.273 . S
Cd270 O310 2.417 . S
Cd270 O311 2.330 . S
Cd271 N286 2.304 . S
Cd271 N290 2.334 . S
Cd271 O307 2.273 . S
Cd271 O308 2.268 . S
Cd271 O312 2.417 . S
Cd271 O313 2.330 . S
C272 N273 1.332 . S
C272 C276 1.381 . S
C272 H278 0.931 . S
N273 Cd270 2.334 . S
N273 C272 1.332 . S
N273 C277 1.328 . S
C274 C275 1.396 . S
C274 C277 1.378 . S
C274 H316 0.931 . S
C275 C274 1.396 . S
C275 C276 1.382 . S
C276 C272 1.381 . S
C276 C275 1.382 . S
C276 H317 0.930 1_545 S
C277 N273 1.328 . S
C277 C274 1.378 . S
C277 H279 0.930 . S
H278 C272 0.931 . S
H279 C277 0.930 . S
C280 O306 1.238 . S
C280 O307 1.253 . S
C281 C282 1.379 . S
C281 N286 1.337 . S
C281 H287 0.929 . S
C282 C281 1.379 . S
C282 C283 1.380 . S
C282 H318 0.929 . S
C283 C282 1.380 . S
C283 C284 1.399 . S
C284 C283 1.399 . S
C284 C285 1.376 . S
C284 H319 0.931 . S
C285 C284 1.376 . S
C285 N286 1.338 . S
C285 H288 0.930 . S
N286 Cd271 2.304 . S
N286 C281 1.337 . S
N286 C285 1.338 . S
H287 C281 0.929 . S
H288 C285 0.930 . S
C289 N290 1.332 . S
C289 C293 1.381 . S
C289 H295 0.931 . S
N290 Cd271 2.334 . S
N290 C289 1.332 . S
N290 C294 1.328 . S
C291 C292 1.396 . S
C291 C294 1.378 . S
C291 H320 0.931 . S
C292 C291 1.396 . S
C292 C293 1.382 . S
C293 C289 1.381 . S
C293 C292 1.382 . S
C293 H321 0.930 . S
C294 N290 1.328 . S
C294 C291 1.378 . S
C294 H296 0.930 . S
H295 C289 0.931 . S
H296 C294 0.930 . S
C297 O308 1.238 . S
C297 O309 1.253 . S
C298 O310 1.239 . S
C298 O311 1.230 . S
N299 Cd270 2.304 . S
N299 C300 1.337 . S
N299 C304 1.338 . S
C300 N299 1.337 . S
C300 C301 1.379 . S
C300 H314 0.929 . S
C301 C300 1.379 . S
C301 C302 1.380 . S
C301 H322 0.929 . S
C302 C301 1.380 . S
C302 C303 1.399 . S
C303 C302 1.399 . S
C303 C304 1.376 . S
C303 H323 0.931 . S
C304 N299 1.338 . S
C304 C303 1.376 . S
C304 H315 0.930 . S
C305 O312 1.239 . S
C305 O313 1.230 . S
O306 Cd270 2.268 . S
O306 C280 1.238 . S
O307 Cd271 2.273 . S
O307 C280 1.253 . S
O308 Cd271 2.268 . S
O308 C297 1.238 . S
O309 Cd270 2.273 . S
O309 C297 1.253 . S
O310 Cd270 2.417 . S
O310 C298 1.239 . S
O311 Cd270 2.330 . S
O311 C298 1.230 . S
O312 Cd271 2.417 . S
O312 C305 1.239 . S
O313 Cd271 2.330 . S
O313 C305 1.230 . S
H314 C300 0.929 . S
H315 C304 0.930 . S
H316 C274 0.931 . S
H317 C276 0.930 1_565 S
H318 C282 0.929 . S
H319 C284 0.931 . S
H320 C291 0.931 . S
H321 C293 0.930 . S
H322 C301 0.929 . S
H323 C303 0.931 . S
C324 C325 1.363 . S
C324 C330 1.379 . S
C324 N332 1.356 . S
C325 C324 1.363 . S
C325 C331 1.363 . S
C326 C327 1.363 . S
C326 C331 1.379 . S
C326 N333 1.356 . S
C327 C326 1.363 . S
C327 C330 1.363 . S
N328 C330 1.356 . S
N328 H340 0.984 . S
N328 H341 0.985 . S
N329 C331 1.356 . S
N329 H334 0.984 . S
N329 H335 0.985 . S
C330 C324 1.379 . S
C330 C327 1.363 . S
C330 N328 1.356 . S
C331 C325 1.363 . S
C331 C326 1.379 . S
C331 N329 1.356 . S
N332 C324 1.356 . S
N332 H338 0.984 . S
N332 H339 0.984 . S
N333 C326 1.356 . S
N333 H336 0.984 . S
N333 H337 0.985 . S
H334 N329 0.984 . S
H335 N329 0.985 . S
H336 N333 0.984 . S
H337 N333 0.985 . S
H338 N332 0.984 . S
H339 N332 0.984 . S
H340 N328 0.984 . S
H341 N328 0.985 . S
C342 C343 1.363 . S
C342 C348 1.379 . S
C342 N350 1.356 . S
C343 C342 1.363 . S
C343 C349 1.363 . S
C344 C345 1.363 . S
C344 C349 1.379 . S
C344 N351 1.356 . S
C345 C344 1.363 . S
C345 C348 1.363 . S
N346 C348 1.356 . S
N346 H358 0.984 . S
N346 H359 0.985 . S
N347 C349 1.356 . S
N347 H352 0.984 . S
N347 H353 0.985 . S
C348 C342 1.379 . S
C348 C345 1.363 . S
C348 N346 1.356 . S
C349 C343 1.363 . S
C349 C344 1.379 . S
C349 N347 1.356 . S
N350 C342 1.356 . S
N350 H356 0.984 . S
N350 H357 0.984 . S
N351 C344 1.356 . S
N351 H354 0.984 . S
N351 H355 0.985 . S
H352 N347 0.984 . S
H353 N347 0.985 . S
H354 N351 0.984 . S
H355 N351 0.985 . S
H356 N350 0.984 . S
H357 N350 0.984 . S
H358 N346 0.984 . S
H359 N346 0.985 . S
C360 C361 1.363 . S
C360 C366 1.379 . S
C360 N368 1.356 . S
C361 C360 1.363 . S
C361 C367 1.363 . S
C362 C363 1.363 . S
C362 C367 1.379 . S
C362 N369 1.356 . S
C363 C362 1.363 . S
C363 C366 1.363 . S
N364 C366 1.356 . S
N364 H376 0.984 . S
N364 H377 0.985 . S
N365 C367 1.356 . S
N365 H370 0.984 . S
N365 H371 0.985 . S
C366 C360 1.379 . S
C366 C363 1.363 . S
C366 N364 1.356 . S
C367 C361 1.363 . S
C367 C362 1.379 . S
C367 N365 1.356 . S
N368 C360 1.356 . S
N368 H374 0.984 . S
N368 H375 0.984 . S
N369 C362 1.356 . S
N369 H372 0.984 . S
N369 H373 0.985 . S
H370 N365 0.984 . S
H371 N365 0.985 . S
H372 N369 0.984 . S
H373 N369 0.985 . S
H374 N368 0.984 . S
H375 N368 0.984 . S
H376 N364 0.984 . S
H377 N364 0.985 . S
C378 C379 1.363 . S
C378 C384 1.379 . S
C378 N386 1.356 . S
C379 C378 1.363 . S
C379 C385 1.363 . S
C380 C381 1.363 . S
C380 C385 1.379 . S
C380 N387 1.356 . S
C381 C380 1.363 . S
C381 C384 1.363 . S
N382 C384 1.356 . S
N382 H394 0.984 . S
N382 H395 0.985 . S
N383 C385 1.356 . S
N383 H388 0.984 . S
N383 H389 0.985 . S
C384 C378 1.379 . S
C384 C381 1.363 . S
C384 N382 1.356 . S
C385 C379 1.363 . S
C385 C380 1.379 . S
C385 N383 1.356 . S
N386 C378 1.356 . S
N386 H392 0.984 . S
N386 H393 0.984 . S
N387 C380 1.356 . S
N387 H390 0.984 . S
N387 H391 0.985 . S
H388 N383 0.984 . S
H389 N383 0.985 . S
H390 N387 0.984 . S
H391 N387 0.985 . S
H392 N386 0.984 . S
H393 N386 0.984 . S
H394 N382 0.984 . S
H395 N382 0.985 . S
C396 C397 1.363 . S
C396 C402 1.379 . S
C396 N404 1.356 . S
C397 C396 1.363 . S
C397 C403 1.363 . S
C398 C399 1.363 . S
C398 C403 1.379 . S
C398 N405 1.356 . S
C399 C398 1.363 . S
C399 C402 1.363 . S
N400 C402 1.356 . S
N400 H412 0.984 . S
N400 H413 0.985 . S
N401 C403 1.356 . S
N401 H406 0.984 . S
N401 H407 0.985 . S
C402 C396 1.379 . S
C402 C399 1.363 . S
C402 N400 1.356 . S
C403 C397 1.363 . S
C403 C398 1.379 . S
C403 N401 1.356 . S
N404 C396 1.356 . S
N404 H410 0.984 . S
N404 H411 0.984 . S
N405 C398 1.356 . S
N405 H408 0.984 . S
N405 H409 0.985 . S
H406 N401 0.984 . S
H407 N401 0.985 . S
H408 N405 0.984 . S
H409 N405 0.985 . S
H410 N404 0.984 . S
H411 N404 0.984 . S
H412 N400 0.984 . S
H413 N400 0.985 . S
C414 C415 1.363 . S
C414 C420 1.379 . S
C414 N422 1.356 . S
C415 C414 1.363 . S
C415 C421 1.363 . S
C416 C417 1.363 . S
C416 C421 1.379 . S
C416 N423 1.356 . S
C417 C416 1.363 . S
C417 C420 1.363 . S
N418 C420 1.356 . S
N418 H430 0.984 . S
N418 H431 0.985 . S
N419 C421 1.356 . S
N419 H424 0.984 . S
N419 H425 0.985 . S
C420 C414 1.379 . S
C420 C417 1.363 . S
C420 N418 1.356 . S
C421 C415 1.363 . S
C421 C416 1.379 . S
C421 N419 1.356 . S
N422 C414 1.356 . S
N422 H428 0.984 . S
N422 H429 0.984 . S
N423 C416 1.356 . S
N423 H426 0.984 . S
N423 H427 0.985 . S
H424 N419 0.984 . S
H425 N419 0.985 . S
H426 N423 0.984 . S
H427 N423 0.985 . S
H428 N422 0.984 . S
H429 N422 0.984 . S
H430 N418 0.984 . S
H431 N418 0.985 . S
C432 C433 1.363 . S
C432 C438 1.379 . S
C432 N440 1.356 . S
C433 C432 1.363 . S
C433 C439 1.363 . S
C434 C435 1.363 . S
C434 C439 1.379 . S
C434 N441 1.356 . S
C435 C434 1.363 . S
C435 C438 1.363 . S
N436 C438 1.356 1_565 S
N436 H448 0.984 1_455 S
N436 H449 0.985 . S
N437 C439 1.356 . S
N437 H442 0.984 . S
N437 H443 0.985 . S
C438 C432 1.379 . S
C438 C435 1.363 . S
C438 N436 1.356 1_545 S
C439 C433 1.363 . S
C439 C434 1.379 . S
C439 N437 1.356 . S
N440 C432 1.356 . S
N440 H446 0.984 1_455 S
N440 H447 0.984 . S
N441 C434 1.356 . S
N441 H444 0.984 . S
N441 H445 0.985 . S
H442 N437 0.984 . S
H443 N437 0.985 . S
H444 N441 0.984 . S
H445 N441 0.985 . S
H446 N440 0.984 1_655 S
H447 N440 0.984 . S
H448 N436 0.984 1_655 S
H449 N436 0.985 . S
C450 C451 1.363 . S
C450 C456 1.379 . S
C450 N458 1.356 1_455 S
C451 C450 1.363 . S
C451 C457 1.363 . S
C452 C453 1.363 . S
C452 C457 1.379 . S
C452 N459 1.356 . S
C453 C452 1.363 . S
C453 C456 1.363 . S
N454 C456 1.356 . S
N454 H466 0.984 . S
N454 H467 0.985 . S
N455 C457 1.356 . S
N455 H460 0.984 1_455 S
N455 H461 0.985 . S
C456 C450 1.379 . S
C456 C453 1.363 . S
C456 N454 1.356 . S
C457 C451 1.363 . S
C457 C452 1.379 . S
C457 N455 1.356 . S
N458 C450 1.356 1_655 S
N458 H464 0.984 . S
N458 H465 0.984 . S
N459 C452 1.356 . S
N459 H462 0.984 . S
N459 H463 0.985 . S
H460 N455 0.984 1_655 S
H461 N455 0.985 . S
H462 N459 0.984 . S
H463 N459 0.985 . S
H464 N458 0.984 . S
H465 N458 0.984 . S
H466 N454 0.984 . S
H467 N454 0.985 . S
C468 C469 1.363 . S
C468 C474 1.379 . S
C468 N476 1.356 . S
C469 C468 1.363 . S
C469 C475 1.363 . S
C470 C471 1.363 . S
C470 C475 1.379 . S
C470 N477 1.356 . S
C471 C470 1.363 . S
C471 C474 1.363 . S
N472 C474 1.356 1_565 S
N472 H484 0.984 . S
N472 H485 0.985 . S
N473 C475 1.356 1_455 S
N473 H478 0.984 . S
N473 H479 0.985 . S
C474 C468 1.379 . S
C474 C471 1.363 . S
C474 N472 1.356 1_545 S
C475 C469 1.363 . S
C475 C470 1.379 . S
C475 N473 1.356 1_655 S
N476 C468 1.356 . S
N476 H482 0.984 . S
N476 H483 0.984 . S
N477 C470 1.356 . S
N477 H480 0.984 1_545 S
N477 H481 0.985 . S
H478 N473 0.984 . S
H479 N473 0.985 . S
H480 N477 0.984 1_565 S
H481 N477 0.985 . S
H482 N476 0.984 . S
H483 N476 0.984 . S
H484 N472 0.984 . S
H485 N472 0.985 . S
C486 C487 1.363 . S
C486 C492 1.379 . S
C486 N494 1.356 1_565 S
C487 C486 1.363 . S
C487 C493 1.363 . S
C488 C489 1.363 . S
C488 C493 1.379 . S
C488 N495 1.356 . S
C489 C488 1.363 . S
C489 C492 1.363 . S
N490 C492 1.356 . S
N490 H502 0.984 . S
N490 H503 0.985 . S
N491 C493 1.356 . S
N491 H496 0.984 . S
N491 H497 0.985 . S
C492 C486 1.379 . S
C492 C489 1.363 . S
C492 N490 1.356 . S
C493 C487 1.363 . S
C493 C488 1.379 . S
C493 N491 1.356 . S
N494 C486 1.356 1_545 S
N494 H500 0.984 . S
N494 H501 0.984 . S
N495 C488 1.356 . S
N495 H498 0.984 . S
N495 H499 0.985 . S
H496 N491 0.984 . S
H497 N491 0.985 . S
H498 N495 0.984 . S
H499 N495 0.985 . S
H500 N494 0.984 . S
H501 N494 0.984 . S
H502 N490 0.984 . S
H503 N490 0.985 . S
C504 C505 1.363 . S
C504 C510 1.379 . S
C504 N512 1.356 . S
C505 C504 1.363 . S
C505 C511 1.363 . S
C506 C507 1.363 . S
C506 C511 1.379 . S
C506 N513 1.356 . S
C507 C506 1.363 . S
C507 C510 1.363 . S
N508 C510 1.356 1_455 S
N508 H520 0.984 . S
N508 H521 0.985 . S
N509 C511 1.356 . S
N509 H514 0.984 . S
N509 H515 0.985 . S
C510 C504 1.379 . S
C510 C507 1.363 . S
C510 N508 1.356 1_655 S
C511 C505 1.363 . S
C511 C506 1.379 . S
C511 N509 1.356 . S
N512 C504 1.356 . S
N512 H518 0.984 . S
N512 H519 0.984 . S
N513 C506 1.356 . S
N513 H516 0.984 . S
N513 H517 0.985 . S
H514 N509 0.984 . S
H515 N509 0.985 . S
H516 N513 0.984 . S
H517 N513 0.985 . S
H518 N512 0.984 . S
H519 N512 0.984 . S
H520 N508 0.984 . S
H521 N508 0.985 . S
C522 C523 1.363 . S
C522 C528 1.379 . S
C522 N530 1.356 . S
C523 C522 1.363 . S
C523 C529 1.363 . S
C524 C525 1.363 . S
C524 C529 1.379 . S
C524 N531 1.356 1_455 S
C525 C524 1.363 . S
C525 C528 1.363 . S
N526 C528 1.356 . S
N526 H538 0.984 . S
N526 H539 0.985 1_455 S
N527 C529 1.356 1_545 S
N527 H532 0.984 . S
N527 H533 0.985 . S
C528 C522 1.379 . S
C528 C525 1.363 . S
C528 N526 1.356 . S
C529 C523 1.363 . S
C529 C524 1.379 . S
C529 N527 1.356 1_565 S
N530 C522 1.356 . S
N530 H536 0.984 . S
N530 H537 0.984 . S
N531 C524 1.356 1_655 S
N531 H534 0.984 . S
N531 H535 0.985 1_655 S
H532 N527 0.984 . S
H533 N527 0.985 . S
H534 N531 0.984 . S
H535 N531 0.985 1_455 S
H536 N530 0.984 . S
H537 N530 0.984 . S
H538 N526 0.984 . S
H539 N526 0.985 1_655 S
C540 C541 1.363 1_556 S
C540 C546 1.379 . S
C540 N548 1.356 . S
C541 C540 1.363 1_554 S
C541 C547 1.363 . S
C542 C543 1.363 1_554 S
C542 C547 1.379 . S
C542 N549 1.356 . S
C543 C542 1.363 1_556 S
C543 C546 1.363 . S
N544 C546 1.356 . S
N544 H556 0.984 . S
N544 H557 0.985 . S
N545 C547 1.356 . S
N545 H550 0.984 . S
N545 H551 0.985 . S
C546 C540 1.379 . S
C546 C543 1.363 . S
C546 N544 1.356 . S
C547 C541 1.363 . S
C547 C542 1.379 . S
C547 N545 1.356 . S
N548 C540 1.356 . S
N548 H554 0.984 . S
N548 H555 0.984 1_556 S
N549 C542 1.356 . S
N549 H552 0.984 1_554 S
N549 H553 0.985 . S
H550 N545 0.984 . S
H551 N545 0.985 . S
H552 N549 0.984 1_556 S
H553 N549 0.985 . S
H554 N548 0.984 . S
H555 N548 0.984 1_554 S
H556 N544 0.984 . S
H557 N544 0.985 . S
C558 C559 1.363 . S
C558 C564 1.379 1_655 S
C558 N566 1.356 . S
C559 C558 1.363 . S
C559 C565 1.363 . S
C560 C561 1.363 . S
C560 C565 1.379 1_455 S
C560 N567 1.356 . S
C561 C560 1.363 . S
C561 C564 1.363 . S
N562 C564 1.356 . S
N562 H574 0.984 . S
N562 H575 0.985 . S
N563 C565 1.356 . S
N563 H568 0.984 . S
N563 H569 0.985 . S
C564 C558 1.379 1_455 S
C564 C561 1.363 . S
C564 N562 1.356 . S
C565 C559 1.363 . S
C565 C560 1.379 1_655 S
C565 N563 1.356 . S
N566 C558 1.356 . S
N566 H572 0.984 . S
N566 H573 0.984 . S
N567 C560 1.356 . S
N567 H570 0.984 . S
N567 H571 0.985 . S
H568 N563 0.984 . S
H569 N563 0.985 . S
H570 N567 0.984 . S
H571 N567 0.985 . S
H572 N566 0.984 . S
H573 N566 0.984 . S
H574 N562 0.984 . S
H575 N562 0.985 . S
C576 C577 1.363 1_545 S
C576 C582 1.379 . S
C576 N584 1.356 . S
C577 C576 1.363 1_565 S
C577 C583 1.363 1_554 S
C578 C579 1.363 1_565 S
C578 C583 1.379 . S
C578 N585 1.356 . S
C579 C578 1.363 1_545 S
C579 C582 1.363 1_556 S
N580 C582 1.356 . S
N580 H592 0.984 . S
N580 H593 0.985 1_554 S
N581 C583 1.356 . S
N581 H586 0.984 1_556 S
N581 H587 0.985 . S
C582 C576 1.379 . S
C582 C579 1.363 1_554 S
C582 N580 1.356 . S
C583 C577 1.363 1_556 S
C583 C578 1.379 . S
C583 N581 1.356 . S
N584 C576 1.356 . S
N584 H590 0.984 . S
N584 H591 0.984 1_545 S
N585 C578 1.356 . S
N585 H588 0.984 1_565 S
N585 H589 0.985 . S
H586 N581 0.984 1_554 S
H587 N581 0.985 . S
H588 N585 0.984 1_545 S
H589 N585 0.985 . S
H590 N584 0.984 . S
H591 N584 0.984 1_565 S
H592 N580 0.984 . S
H593 N580 0.985 1_556 S
C594 C595 1.363 . S
C594 C600 1.379 . S
C594 N602 1.356 . S
C595 C594 1.363 . S
C595 C601 1.363 . S
C596 C597 1.363 . S
C596 C601 1.379 . S
C596 N603 1.356 . S
C597 C596 1.363 . S
C597 C600 1.363 . S
N598 C600 1.356 . S
N598 H610 0.984 . S
N598 H611 0.985 . S
N599 C601 1.356 . S
N599 H604 0.984 . S
N599 H605 0.985 . S
C600 C594 1.379 . S
C600 C597 1.363 . S
C600 N598 1.356 . S
C601 C595 1.363 . S
C601 C596 1.379 . S
C601 N599 1.356 . S
N602 C594 1.356 . S
N602 H608 0.984 . S
N602 H609 0.984 . S
N603 C596 1.356 . S
N603 H606 0.984 . S
N603 H607 0.985 . S
H604 N599 0.984 . S
H605 N599 0.985 . S
H606 N603 0.984 . S
H607 N603 0.985 . S
H608 N602 0.984 . S
H609 N602 0.984 . S
H610 N598 0.984 . S
H611 N598 0.985 . S
C612 C613 1.363 1_455 S
C612 C618 1.379 . S
C612 N620 1.356 1_455 S
C613 C612 1.363 1_655 S
C613 C619 1.363 1_556 S
C614 C615 1.363 1_655 S
C614 C619 1.379 . S
C614 N621 1.356 1_655 S
C615 C614 1.363 1_455 S
C615 C618 1.363 1_554 S
N616 C618 1.356 . S
N616 H628 0.984 . S
N616 H629 0.985 1_556 S
N617 C619 1.356 . S
N617 H622 0.984 1_554 S
N617 H623 0.985 . S
C618 C612 1.379 . S
C618 C615 1.363 1_556 S
C618 N616 1.356 . S
C619 C613 1.363 1_554 S
C619 C614 1.379 . S
C619 N617 1.356 . S
N620 C612 1.356 1_655 S
N620 H626 0.984 1_655 S
N620 H627 0.984 . S
N621 C614 1.356 1_455 S
N621 H624 0.984 . S
N621 H625 0.985 1_455 S
H622 N617 0.984 1_556 S
H623 N617 0.985 . S
H624 N621 0.984 . S
H625 N621 0.985 1_655 S
H626 N620 0.984 1_455 S
H627 N620 0.984 . S
H628 N616 0.984 . S
H629 N616 0.985 1_554 S
C630 C631 1.363 . S
C630 C636 1.379 . S
C630 N638 1.356 . S
C631 C630 1.363 . S
C631 C637 1.363 1_545 S
C632 C633 1.363 . S
C632 C637 1.379 . S
C632 N639 1.356 . S
C633 C632 1.363 . S
C633 C636 1.363 1_565 S
N634 C636 1.356 1_565 S
N634 H646 0.984 1_565 S
N634 H647 0.985 . S
N635 C637 1.356 1_545 S
N635 H640 0.984 . S
N635 H641 0.985 1_545 S
C636 C630 1.379 . S
C636 C633 1.363 1_545 S
C636 N634 1.356 1_545 S
C637 C631 1.363 1_565 S
C637 C632 1.379 . S
C637 N635 1.356 1_565 S
N638 C630 1.356 . S
N638 H644 0.984 . S
N638 H645 0.984 . S
N639 C632 1.356 . S
N639 H642 0.984 . S
N639 H643 0.985 . S
H640 N635 0.984 . S
H641 N635 0.985 1_565 S
H642 N639 0.984 . S
H643 N639 0.985 . S
H644 N638 0.984 . S
H645 N638 0.984 . S
H646 N634 0.984 1_545 S
H647 N634 0.985 . S
C648 C649 1.363 . S
C648 C654 1.379 1_556 S
C648 N656 1.356 . S
C649 C648 1.363 . S
C649 C655 1.363 . S
C650 C651 1.363 . S
C650 C655 1.379 1_554 S
C650 N657 1.356 . S
C651 C650 1.363 . S
C651 C654 1.363 . S
N652 C654 1.356 . S
N652 H664 0.984 . S
N652 H665 0.985 . S
N653 C655 1.356 . S
N653 H658 0.984 . S
N653 H659 0.985 . S
C654 C648 1.379 1_554 S
C654 C651 1.363 . S
C654 N652 1.356 . S
C655 C649 1.363 . S
C655 C650 1.379 1_556 S
C655 N653 1.356 . S
N656 C648 1.356 . S
N656 H662 0.984 1_556 S
N656 H663 0.984 . S
N657 C650 1.356 . S
N657 H660 0.984 . S
N657 H661 0.985 1_554 S
H658 N653 0.984 . S
H659 N653 0.985 . S
H660 N657 0.984 . S
H661 N657 0.985 1_556 S
H662 N656 0.984 1_554 S
H663 N656 0.984 . S
H664 N652 0.984 . S
H665 N652 0.985 . S
C666 C667 1.363 1_655 S
C666 C672 1.379 . S
C666 N674 1.356 . S
C667 C666 1.363 1_455 S
C667 C673 1.363 . S
C668 C669 1.363 1_455 S
C668 C673 1.379 . S
C668 N675 1.356 . S
C669 C668 1.363 1_655 S
C669 C672 1.363 . S
N670 C672 1.356 . S
N670 H682 0.984 . S
N670 H683 0.985 . S
N671 C673 1.356 . S
N671 H676 0.984 . S
N671 H677 0.985 . S
C672 C666 1.379 . S
C672 C669 1.363 . S
C672 N670 1.356 . S
C673 C667 1.363 . S
C673 C668 1.379 . S
C673 N671 1.356 . S
N674 C666 1.356 . S
N674 H680 0.984 . S
N674 H681 0.984 1_655 S
N675 C668 1.356 . S
N675 H678 0.984 1_455 S
N675 H679 0.985 . S
H676 N671 0.984 . S
H677 N671 0.985 . S
H678 N675 0.984 1_655 S
H679 N675 0.985 . S
H680 N674 0.984 . S
H681 N674 0.984 1_455 S
H682 N670 0.984 . S
H683 N670 0.985 . S
C684 C685 1.363 1_565 S
C684 C690 1.379 . S
C684 N692 1.356 . S
C685 C684 1.363 1_545 S
C685 C691 1.363 1_556 S
C686 C687 1.363 1_545 S
C686 C691 1.379 . S
C686 N693 1.356 . S
C687 C686 1.363 1_565 S
C687 C690 1.363 1_554 S
N688 C690 1.356 1_554 S
N688 H700 0.984 1_554 S
N688 H701 0.985 . S
N689 C691 1.356 1_556 S
N689 H694 0.984 . S
N689 H695 0.985 1_556 S
C690 C684 1.379 . S
C690 C687 1.363 1_556 S
C690 N688 1.356 1_556 S
C691 C685 1.363 1_554 S
C691 C686 1.379 . S
C691 N689 1.356 1_554 S
N692 C684 1.356 . S
N692 H698 0.984 . S
N692 H699 0.984 1_565 S
N693 C686 1.356 . S
N693 H696 0.984 1_545 S
N693 H697 0.985 . S
H694 N689 0.984 . S
H695 N689 0.985 1_554 S
H696 N693 0.984 1_565 S
H697 N693 0.985 . S
H698 N692 0.984 . S
H699 N692 0.984 1_545 S
H700 N688 0.984 1_556 S
H701 N688 0.985 . S
C702 C703 1.363 . S
C702 C708 1.379 . S
C702 N710 1.356 . S
C703 C702 1.363 . S
C703 C709 1.363 . S
C704 C705 1.363 . S
C704 C709 1.379 . S
C704 N711 1.356 . S
C705 C704 1.363 . S
C705 C708 1.363 . S
N706 C708 1.356 . S
N706 H718 0.984 . S
N706 H719 0.985 . S
N707 C709 1.356 . S
N707 H712 0.984 . S
N707 H713 0.985 . S
C708 C702 1.379 . S
C708 C705 1.363 . S
C708 N706 1.356 . S
C709 C703 1.363 . S
C709 C704 1.379 . S
C709 N707 1.356 . S
N710 C702 1.356 . S
N710 H716 0.984 . S
N710 H717 0.984 . S
N711 C704 1.356 . S
N711 H714 0.984 . S
N711 H715 0.985 . S
H712 N707 0.984 . S
H713 N707 0.985 . S
H714 N711 0.984 . S
H715 N711 0.985 . S
H716 N710 0.984 . S
H717 N710 0.984 . S
H718 N706 0.984 . S
H719 N706 0.985 . S
C720 C721 1.363 . S
C720 C726 1.379 1_454 S
C720 N728 1.356 . S
C721 C720 1.363 . S
C721 C727 1.363 . S
C722 C723 1.363 . S
C722 C727 1.379 1_656 S
C722 N729 1.356 . S
C723 C722 1.363 . S
C723 C726 1.363 . S
N724 C726 1.356 . S
N724 H736 0.984 . S
N724 H737 0.985 . S
N725 C727 1.356 . S
N725 H730 0.984 . S
N725 H731 0.985 . S
C726 C720 1.379 1_656 S
C726 C723 1.363 . S
C726 N724 1.356 . S
C727 C721 1.363 . S
C727 C722 1.379 1_454 S
C727 N725 1.356 . S
N728 C720 1.356 . S
N728 H734 0.984 . S
N728 H735 0.984 . S
N729 C722 1.356 . S
N729 H732 0.984 . S
N729 H733 0.985 . S
H730 N725 0.984 . S
H731 N725 0.985 . S
H732 N729 0.984 . S
H733 N729 0.985 . S
H734 N728 0.984 . S
H735 N728 0.984 . S
H736 N724 0.984 . S
H737 N724 0.985 . S
C738 C739 1.363 . S
C738 C744 1.379 . S
C738 N746 1.356 . S
C739 C738 1.363 . S
C739 C745 1.363 1_545 S
C740 C741 1.363 . S
C740 C745 1.379 . S
C740 N747 1.356 . S
C741 C740 1.363 . S
C741 C744 1.363 1_565 S
N742 C744 1.356 . S
N742 H754 0.984 . S
N742 H755 0.985 1_545 S
N743 C745 1.356 . S
N743 H748 0.984 1_565 S
N743 H749 0.985 . S
C744 C738 1.379 . S
C744 C741 1.363 1_545 S
C744 N742 1.356 . S
C745 C739 1.363 1_565 S
C745 C740 1.379 . S
C745 N743 1.356 . S
N746 C738 1.356 . S
N746 H752 0.984 . S
N746 H753 0.984 . S
N747 C740 1.356 . S
N747 H750 0.984 . S
N747 H751 0.985 . S
H748 N743 0.984 1_545 S
H749 N743 0.985 . S
H750 N747 0.984 . S
H751 N747 0.985 . S
H752 N746 0.984 . S
H753 N746 0.984 . S
H754 N742 0.984 . S
H755 N742 0.985 1_565 S
C325 C32 2.052 . S
C327 C229 2.052 . S
C343 C302 2.052 . S
C345 C67 2.052 . S
C361 C13 2.052 . S
C363 C140 2.052 . S
C379 C86 2.052 . S
C381 C175 2.052 . S
C397 C248 2.052 . S
C399 C121 2.052 . S
C415 C283 2.052 . S
C417 C194 2.052 . S
C433 C22 1.262 . S
C435 C221 1.262 1_545 S
C451 C59 1.262 1_455 S
C453 C292 1.262 . S
C469 C5 1.262 1_655 S
C471 C130 1.262 1_545 S
C487 C76 1.262 1_565 S
C489 C167 1.262 . S
C505 C113 1.262 . S
C507 C238 1.262 1_655 S
C523 C275 1.262 1_565 S
C525 C184 1.262 1_455 S
C541 C10 2.743 . S
C543 C280 2.743 . S
C559 C81 2.743 . S
C561 C27 2.743 . S
C577 C118 2.743 . S
C579 C64 2.743 . S
C595 C189 2.743 . S
C597 C135 2.743 . S
C613 C172 2.743 . S
C615 C226 2.743 . S
C631 C297 2.743 . S
C633 C243 2.743 . S
C649 C190 0.822 . S
C651 C136 0.822 . S
C667 C251 0.822 . S
C669 C197 0.822 . S
C685 C298 0.822 . S
C687 C244 0.822 . S
C703 C305 0.822 . S
C705 C35 0.822 . S
C721 C28 0.822 . S
C723 C82 0.822 . S
C739 C89 0.822 . S
C741 C143 0.822 . S
