# Generated by pormake.
# Topology soi, (5)-cn, num edge types: 1
# Building blocks:
#     Node 0, Type 0, BuildingBlock: BEQFEK_clean_sbu_0, # of connection points: 5
#     Node 1, Type 0, BuildingBlock: BEQFEK_clean_sbu_0, # of connection points: 5
#     Node 2, Type 0, BuildingBlock: BEQFEK_clean_sbu_0, # of connection points: 5
#     Node 3, Type 0, BuildingBlock: BEQFEK_clean_sbu_0, # of connection points: 5
#     Node 4, Type 0, BuildingBlock: BEQFEK_clean_sbu_0, # of connection points: 5
#     Node 5, Type 0, BuildingBlock: BEQFEK_clean_sbu_0, # of connection points: 5
#     Node 6, Type 0, BuildingBlock: BEQFEK_clean_sbu_0, # of connection points: 5
#     Node 7, Type 0, BuildingBlock: BEQFEK_clean_sbu_0, # of connection points: 5
#     Node 8, Type 0, BuildingBlock: BEQFEK_clean_sbu_0, # of connection points: 5
#     Node 9, Type 0, BuildingBlock: BEQFEK_clean_sbu_0, # of connection points: 5
#     Node 10, Type 0, BuildingBlock: BEQFEK_clean_sbu_0, # of connection points: 5
#     Node 11, Type 0, BuildingBlock: BEQFEK_clean_sbu_0, # of connection points: 5
#     Node 12, Type 0, BuildingBlock: BEQFEK_clean_sbu_0, # of connection points: 5
#     Node 13, Type 0, BuildingBlock: BEQFEK_clean_sbu_0, # of connection points: 5
#     Node 14, Type 0, BuildingBlock: BEQFEK_clean_sbu_0, # of connection points: 5
#     Node 15, Type 0, BuildingBlock: BEQFEK_clean_sbu_0, # of connection points: 5
#     Edge 16, Type (0, 0), BuildingBlock: ZUJKAS_clean_linker_0, # of connection points: 2
#     Edge 17, Type (0, 0), BuildingBlock: ZUJKAS_clean_linker_0, # of connection points: 2
#     Edge 18, Type (0, 0), BuildingBlock: ZUJKAS_clean_linker_0, # of connection points: 2
#     Edge 19, Type (0, 0), BuildingBlock: ZUJKAS_clean_linker_0, # of connection points: 2
#     Edge 20, Type (0, 0), BuildingBlock: ZUJKAS_clean_linker_0, # of connection points: 2
#     Edge 21, Type (0, 0), BuildingBlock: ZUJKAS_clean_linker_0, # of connection points: 2
#     Edge 22, Type (0, 0), BuildingBlock: ZUJKAS_clean_linker_0, # of connection points: 2
#     Edge 23, Type (0, 0), BuildingBlock: ZUJKAS_clean_linker_0, # of connection points: 2
#     Edge 24, Type (0, 0), BuildingBlock: ZUJKAS_clean_linker_0, # of connection points: 2
#     Edge 25, Type (0, 0), BuildingBlock: ZUJKAS_clean_linker_0, # of connection points: 2
#     Edge 26, Type (0, 0), BuildingBlock: ZUJKAS_clean_linker_0, # of connection points: 2
#     Edge 27, Type (0, 0), BuildingBlock: ZUJKAS_clean_linker_0, # of connection points: 2
#     Edge 28, Type (0, 0), BuildingBlock: ZUJKAS_clean_linker_0, # of connection points: 2
#     Edge 29, Type (0, 0), BuildingBlock: ZUJKAS_clean_linker_0, # of connection points: 2
#     Edge 30, Type (0, 0), BuildingBlock: ZUJKAS_clean_linker_0, # of connection points: 2
#     Edge 31, Type (0, 0), BuildingBlock: ZUJKAS_clean_linker_0, # of connection points: 2
#     Edge 32, Type (0, 0), BuildingBlock: ZUJKAS_clean_linker_0, # of connection points: 2
#     Edge 33, Type (0, 0), BuildingBlock: ZUJKAS_clean_linker_0, # of connection points: 2
#     Edge 34, Type (0, 0), BuildingBlock: ZUJKAS_clean_linker_0, # of connection points: 2
#     Edge 35, Type (0, 0), BuildingBlock: ZUJKAS_clean_linker_0, # of connection points: 2
#     Edge 36, Type (0, 0), BuildingBlock: ZUJKAS_clean_linker_0, # of connection points: 2
#     Edge 37, Type (0, 0), BuildingBlock: ZUJKAS_clean_linker_0, # of connection points: 2
#     Edge 38, Type (0, 0), BuildingBlock: ZUJKAS_clean_linker_0, # of connection points: 2
#     Edge 39, Type (0, 0), BuildingBlock: ZUJKAS_clean_linker_0, # of connection points: 2
#     Edge 40, Type (0, 0), BuildingBlock: ZUJKAS_clean_linker_0, # of connection points: 2
#     Edge 41, Type (0, 0), BuildingBlock: ZUJKAS_clean_linker_0, # of connection points: 2
#     Edge 42, Type (0, 0), BuildingBlock: ZUJKAS_clean_linker_0, # of connection points: 2
#     Edge 43, Type (0, 0), BuildingBlock: ZUJKAS_clean_linker_0, # of connection points: 2
#     Edge 44, Type (0, 0), BuildingBlock: ZUJKAS_clean_linker_0, # of connection points: 2
#     Edge 45, Type (0, 0), BuildingBlock: ZUJKAS_clean_linker_0, # of connection points: 2
#     Edge 46, Type (0, 0), BuildingBlock: ZUJKAS_clean_linker_0, # of connection points: 2
#     Edge 47, Type (0, 0), BuildingBlock: ZUJKAS_clean_linker_0, # of connection points: 2
#     Edge 48, Type (0, 0), BuildingBlock: ZUJKAS_clean_linker_0, # of connection points: 2
#     Edge 49, Type (0, 0), BuildingBlock: ZUJKAS_clean_linker_0, # of connection points: 2
#     Edge 50, Type (0, 0), BuildingBlock: ZUJKAS_clean_linker_0, # of connection points: 2
#     Edge 51, Type (0, 0), BuildingBlock: ZUJKAS_clean_linker_0, # of connection points: 2
#     Edge 52, Type (0, 0), BuildingBlock: ZUJKAS_clean_linker_0, # of connection points: 2
#     Edge 53, Type (0, 0), BuildingBlock: ZUJKAS_clean_linker_0, # of connection points: 2
#     Edge 54, Type (0, 0), BuildingBlock: ZUJKAS_clean_linker_0, # of connection points: 2
#     Edge 55, Type (0, 0), BuildingBlock: ZUJKAS_clean_linker_0, # of connection points: 2
# Relax obj value: 0.127
# Max RMSD: 0.199
# Mean RMSD: 0.182
data_MOF--net-soi--node1-BEQFEK_clean_sbu_0--edge1-ZUJKAS_clean_linker_0
_symmetry_space_group_name_H-M    P1
_symmetry_Int_Tables_number       1
_symmetry_cell_setting            triclinic
loop_
_symmetry_equiv_pos_as_xyz
'x, y, z'
_cell_length_a     45.881992
_cell_length_b     35.219021
_cell_length_c     91.646105
_cell_angle_alpha  90.006264
_cell_angle_beta   89.977952
_cell_angle_gamma 91.129697
loop_
_atom_site_label
_atom_site_type_symbol
_atom_site_fract_x
_atom_site_fract_y
_atom_site_fract_z
_atom_type_partial_charge
Co0 Co 0.34936 0.06039 0.14282 0.0
Co1 Co 0.33552 0.05924 0.10899 0.0
C2 C 0.29841 0.10143 0.13029 0.0
O3 O 0.31359 0.09137 0.14122 0.0
O4 O 0.30471 0.0908 0.11742 0.0
C5 C 0.34945 0.07231 0.17404 0.0
O6 O 0.33616 0.10393 0.17082 0.0
C7 C 0.30318 0.0478 0.081 0.0
C8 C 0.33994 0.04535 0.06549 0.0
C9 C 0.30977 0.04401 0.06624 0.0
N10 N 0.32837 0.05102 0.08855 0.0
N11 N 0.35017 0.04934 0.07917 0.0
C12 C 0.2735 0.04983 0.08772 0.0
H13 H 0.26383 0.0208 0.0885 0.0
H14 H 0.25903 0.06734 0.08087 0.0
H15 H 0.27453 0.0616 0.09886 0.0
C16 C 0.34639 0.97754 0.1381 0.0
N17 N 0.34483 0.01333 0.13307 0.0
N18 N 0.33835 0.01248 0.11909 0.0
C19 C 0.3351 0.97601 0.11482 0.0
C20 C 0.34016 0.95262 0.12675 0.0
C21 C 0.35478 0.96765 0.1534 0.0
H22 H 0.37466 0.98412 0.15652 0.0
H23 H 0.33697 0.97559 0.16094 0.0
H24 H 0.35919 0.93696 0.15461 0.0
O25 O 0.38242 0.08975 0.13443 0.0
O26 O 0.37267 0.08903 0.11066 0.0
H27 H 0.34201 0.97189 0.09181 0.0
H28 H 0.31984 0.93346 0.09925 0.0
C29 C 0.32495 0.96428 0.09994 0.0
H30 H 0.30504 0.97996 0.09714 0.0
H31 H 0.37214 0.05146 0.0821 0.0
O32 O 0.35728 0.05048 0.16379 0.0
C33 C 0.38874 0.09923 0.12137 0.0
Co34 Co 0.64844 0.42334 0.14633 0.0
Co35 Co 0.66291 0.43168 0.1126 0.0
C36 C 0.70186 0.38926 0.13251 0.0
O37 O 0.68518 0.39463 0.14343 0.0
O38 O 0.69611 0.40287 0.12 0.0
C39 C 0.66239 0.43171 0.17657 0.0
O40 O 0.6891 0.43092 0.17142 0.0
C41 C 0.68937 0.43161 0.08304 0.0
C42 C 0.66155 0.4717 0.0712 0.0
C43 C 0.68573 0.44911 0.06956 0.0
N44 N 0.66886 0.4442 0.09229 0.0
N45 N 0.6521 0.46776 0.08505 0.0
C46 C 0.70997 0.40061 0.08669 0.0
H47 H 0.6994 0.37995 0.09422 0.0
H48 H 0.72948 0.41322 0.09211 0.0
H49 H 0.71689 0.38521 0.07675 0.0
C50 C 0.64948 0.5069 0.14407 0.0
N51 N 0.65117 0.47237 0.13787 0.0
N52 N 0.65912 0.47627 0.12414 0.0
C53 C 0.66431 0.51344 0.12142 0.0
C54 C 0.65803 0.53413 0.13392 0.0
C55 C 0.63943 0.51366 0.15938 0.0
H56 H 0.62138 0.49355 0.16216 0.0
H57 H 0.65778 0.50899 0.16701 0.0
H58 H 0.63177 0.54313 0.16078 0.0
O59 O 0.61628 0.39419 0.13736 0.0
O60 O 0.62708 0.39848 0.11375 0.0
H61 H 0.66252 0.53689 0.09994 0.0
H62 H 0.69318 0.55346 0.11051 0.0
C63 C 0.6792 0.52825 0.10797 0.0
H64 H 0.69295 0.5061 0.10306 0.0
H65 H 0.63412 0.48124 0.08958 0.0
O66 O 0.64113 0.42807 0.16773 0.0
C67 C 0.61087 0.38604 0.12409 0.0
Co68 Co 0.3365 0.92474 0.40108 0.0
Co69 Co 0.33938 0.93066 0.36682 0.0
C70 C 0.38342 0.88668 0.38306 0.0
O71 O 0.37098 0.89439 0.39518 0.0
O72 O 0.37404 0.89954 0.37092 0.0
C73 C 0.34829 0.93286 0.43334 0.0
O74 O 0.3763 0.93887 0.43118 0.0
C75 C 0.3526 0.94861 0.33536 0.0
C76 C 0.30836 0.96521 0.32862 0.0
C77 C 0.33668 0.96241 0.32363 0.0
N78 N 0.33434 0.94402 0.34678 0.0
N79 N 0.30795 0.95353 0.34255 0.0
C80 C 0.38477 0.94302 0.33612 0.0
H81 H 0.3924 0.94455 0.3476 0.0
H82 H 0.3965 0.96467 0.32941 0.0
H83 H 0.3898 0.91453 0.33173 0.0
C84 C 0.33761 0.0085 0.39837 0.0
N85 N 0.33823 0.97338 0.39258 0.0
N86 N 0.34051 0.97596 0.3783 0.0
C87 C 0.34232 0.01298 0.37459 0.0
C88 C 0.34036 0.03485 0.38715 0.0
C89 C 0.3319 0.01635 0.41416 0.0
H90 H 0.31532 0.99587 0.41841 0.0
H91 H 0.35235 0.01271 0.42041 0.0
H92 H 0.32401 0.04556 0.41589 0.0
O93 O 0.30086 0.8979 0.39501 0.0
O94 O 0.30423 0.89838 0.37093 0.0
H95 H 0.3267 0.02457 0.35311 0.0
H96 H 0.35483 0.05729 0.35931 0.0
C97 C 0.3473 0.02716 0.35938 0.0
H98 H 0.36401 0.0098 0.35396 0.0
H99 H 0.28971 0.95312 0.34936 0.0
O100 O 0.33142 0.92731 0.42253 0.0
C101 C 0.29103 0.88859 0.38257 0.0
Co102 Co 0.64838 0.56204 0.40401 0.0
Co103 Co 0.65509 0.56775 0.36976 0.0
C104 C 0.60515 0.60362 0.38585 0.0
O105 O 0.61414 0.59228 0.39827 0.0
O106 O 0.61855 0.59547 0.37405 0.0
C107 C 0.64334 0.57324 0.4352 0.0
O108 O 0.6323 0.6061 0.43163 0.0
C109 C 0.6454 0.54983 0.33821 0.0
C110 C 0.68877 0.56611 0.32949 0.0
C111 C 0.66211 0.5502 0.32548 0.0
N112 N 0.66181 0.56432 0.34915 0.0
N113 N 0.68751 0.57444 0.34376 0.0
C114 C 0.6154 0.5334 0.34031 0.0
H115 H 0.61115 0.52788 0.35206 0.0
H116 H 0.61263 0.50675 0.33395 0.0
H117 H 0.59924 0.55401 0.33634 0.0
C118 C 0.65043 0.48054 0.39717 0.0
N119 N 0.65019 0.51703 0.39287 0.0
N120 N 0.6545 0.51886 0.37868 0.0
C121 C 0.65849 0.48338 0.37358 0.0
C122 C 0.65573 0.45794 0.38511 0.0
C123 C 0.64585 0.46784 0.4126 0.0
H124 H 0.62775 0.48383 0.41755 0.0
H125 H 0.64065 0.43698 0.4132 0.0
H126 H 0.66593 0.47407 0.41898 0.0
O127 O 0.68395 0.59358 0.40127 0.0
O128 O 0.68808 0.59889 0.3773 0.0
H129 H 0.68053 0.44735 0.35814 0.0
H130 H 0.64925 0.47133 0.35119 0.0
C131 C 0.66849 0.47435 0.35843 0.0
H132 H 0.68295 0.4974 0.35425 0.0
H133 H 0.70463 0.58594 0.34993 0.0
O134 O 0.64949 0.54975 0.42518 0.0
C135 C 0.69715 0.60648 0.39009 0.0
Co136 Co 0.66962 0.91716 0.91466 0.0
Co137 Co 0.65934 0.91704 0.88035 0.0
C138 C 0.61766 0.87771 0.90142 0.0
O139 O 0.63249 0.88723 0.9127 0.0
O140 O 0.62559 0.88775 0.8886 0.0
C141 C 0.66937 0.93207 0.94725 0.0
O142 O 0.64132 0.93884 0.94709 0.0
C143 C 0.63483 0.93708 0.85091 0.0
C144 C 0.66912 0.91338 0.83684 0.0
C145 C 0.643 0.93222 0.83641 0.0
N146 N 0.65542 0.92181 0.8595 0.0
N147 N 0.67571 0.90768 0.85093 0.0
C148 C 0.6071 0.95335 0.85646 0.0
H149 H 0.60663 0.95304 0.86858 0.0
H150 H 0.60481 0.98284 0.85247 0.0
H151 H 0.58834 0.93643 0.85215 0.0
C152 C 0.67077 0.00037 0.90913 0.0
N153 N 0.66748 0.96429 0.90443 0.0
N154 N 0.6641 0.9644 0.89013 0.0
C155 C 0.66578 0.00053 0.88531 0.0
C156 C 0.66964 0.02449 0.89719 0.0
C157 C 0.67463 0.01132 0.92479 0.0
H158 H 0.65636 -0.00102 0.93124 0.0
H159 H 0.67497 0.04255 0.92631 0.0
H160 H 0.69522 -0.00056 0.92898 0.0
O161 O 0.70159 0.88663 0.90673 0.0
O162 O 0.6949 0.88738 0.88285 0.0
H163 H 0.67963 0.03888 0.86813 0.0
H164 H 0.64483 0.0158 0.86542 0.0
C165 C 0.66723 0.01176 0.86956 0.0
H166 H 0.67787 0.98946 0.86306 0.0
H167 H 0.69426 0.89407 0.85469 0.0
O168 O 0.68242 0.92395 0.93543 0.0
C169 C 0.70935 0.87732 0.89394 0.0
Co170 Co 0.32653 0.57026 0.91709 0.0
Co171 Co 0.33796 0.5641 0.88308 0.0
C172 C 0.37896 0.60787 0.90249 0.0
O173 O 0.36344 0.6005 0.9138 0.0
O174 O 0.372 0.59507 0.88987 0.0
C175 C 0.32902 0.56418 0.94986 0.0
O176 O 0.35763 0.56377 0.94951 0.0
C177 C 0.36034 0.54528 0.85305 0.0
C178 C 0.31794 0.53503 0.84214 0.0
C179 C 0.34772 0.53421 0.83984 0.0
N180 N 0.33879 0.55184 0.86269 0.0
N181 N 0.31361 0.54613 0.85596 0.0
C182 C 0.39205 0.54675 0.85679 0.0
H183 H 0.39511 0.54443 0.86877 0.0
H184 H 0.40368 0.52367 0.85112 0.0
H185 H 0.40154 0.57434 0.8531 0.0
C186 C 0.32695 0.48647 0.9142 0.0
N187 N 0.32931 0.52162 0.90848 0.0
N188 N 0.33457 0.51897 0.89439 0.0
C189 C 0.33619 0.48197 0.89077 0.0
C190 C 0.33148 0.46026 0.90319 0.0
C191 C 0.32075 0.47833 0.92993 0.0
H192 H 0.30004 0.49179 0.93311 0.0
H193 H 0.33845 0.49102 0.93669 0.0
H194 H 0.31927 0.44738 0.93214 0.0
O195 O 0.29395 0.59799 0.90856 0.0
O196 O 0.30278 0.59541 0.88487 0.0
H197 H 0.32238 0.47734 0.86857 0.0
H198 H 0.34103 0.43624 0.87509 0.0
C199 C 0.34048 0.46766 0.87555 0.0
H200 H 0.36121 0.47954 0.87113 0.0
H201 H 0.29332 0.54875 0.86098 0.0
O202 O 0.31477 0.56627 0.93801 0.0
C203 C 0.28734 0.60632 0.89552 0.0
Co204 Co 0.66207 0.06546 0.61283 0.0
Co205 Co 0.65838 0.07072 0.64731 0.0
C206 C 0.61514 0.10939 0.62759 0.0
O207 O 0.62721 0.09758 0.61591 0.0
O208 O 0.62485 0.10053 0.64017 0.0
C209 C 0.67594 0.08237 0.58353 0.0
O210 O 0.67462 0.11687 0.58893 0.0
C211 C 0.63756 0.0549 0.67776 0.0
C212 C 0.67441 0.0798 0.69027 0.0
C213 C 0.64763 0.06161 0.69186 0.0
N214 N 0.65767 0.0685 0.66827 0.0
N215 N 0.67957 0.08331 0.67589 0.0
C216 C 0.60854 0.03855 0.67342 0.0
H217 H 0.60683 0.03642 0.66136 0.0
H218 H 0.60527 0.01008 0.67838 0.0
H219 H 0.59108 0.05697 0.67764 0.0
C220 C 0.66118 0.98373 0.61979 0.0
N221 N 0.65949 0.0202 0.62401 0.0
N222 N 0.65882 0.02182 0.63838 0.0
C223 C 0.66048 0.98622 0.64373 0.0
C224 C 0.66178 0.96098 0.63212 0.0
C225 C 0.66326 0.97126 0.60423 0.0
H226 H 0.64696 0.98637 0.59758 0.0
H227 H 0.65954 0.94015 0.60313 0.0
H228 H 0.68525 0.97889 0.59996 0.0
O229 O 0.69733 0.09468 0.61844 0.0
O230 O 0.6947 0.09922 0.64248 0.0
H231 H 0.67732 -0.00053 0.66505 0.0
H232 H 0.67571 0.94937 0.66086 0.0
C233 C 0.66446 0.97675 0.65952 0.0
H234 H 0.64278 0.97411 0.66479 0.0
H235 H 0.6981 0.09606 0.67128 0.0
O236 O 0.66908 0.0544 0.59172 0.0
C237 C 0.70772 0.10625 0.63052 0.0
Co238 Co 0.33853 0.42519 0.61443 0.0
Co239 Co 0.34575 0.42395 0.64883 0.0
C240 C 0.38878 0.38609 0.62915 0.0
O241 O 0.37502 0.39587 0.61764 0.0
O242 O 0.38009 0.39556 0.64187 0.0
C243 C 0.34286 0.44019 0.58189 0.0
O244 O 0.37097 0.44771 0.58268 0.0
C245 C 0.36579 0.43574 0.67995 0.0
C246 C 0.32259 0.43635 0.6906 0.0
C247 C 0.35214 0.43929 0.69347 0.0
N248 N 0.34502 0.43114 0.66963 0.0
N249 N 0.31935 0.43155 0.67616 0.0
C250 C 0.39782 0.43536 0.67694 0.0
H251 H 0.40226 0.42054 0.66653 0.0
H252 H 0.4062 0.46502 0.67601 0.0
H253 H 0.40949 0.4214 0.68603 0.0
C254 C 0.3367 0.50806 0.62026 0.0
N255 N 0.33984 0.47191 0.62471 0.0
N256 N 0.34327 0.47141 0.63898 0.0
C257 C 0.34291 0.50734 0.64402 0.0
C258 C 0.33863 0.53177 0.63236 0.0
C259 C 0.32931 0.51899 0.60493 0.0
H260 H 0.31212 0.49946 0.60064 0.0
H261 H 0.34896 0.51616 0.59799 0.0
H262 H 0.32153 0.54854 0.60424 0.0
O263 O 0.30516 0.39433 0.62117 0.0
O264 O 0.31059 0.39171 0.64512 0.0
H265 H 0.32795 0.50872 0.6661 0.0
H266 H 0.35071 0.54914 0.66103 0.0
C267 C 0.34728 0.51808 0.65967 0.0
H268 H 0.36661 0.5035 0.664 0.0
H269 H 0.29946 0.42858 0.67072 0.0
O270 O 0.32869 0.43174 0.5934 0.0
C271 C 0.29665 0.38283 0.6336 0.0
Co272 Co 0.84191 0.56458 0.6468 0.0
Co273 Co 0.82677 0.56733 0.61301 0.0
C274 C 0.79006 0.60597 0.63531 0.0
O275 O 0.80644 0.59606 0.6458 0.0
O276 O 0.79525 0.59627 0.6222 0.0
C277 C 0.86089 0.57322 0.67715 0.0
O278 O 0.87078 0.60696 0.67322 0.0
C279 C 0.79468 0.5592 0.58468 0.0
C280 C 0.83161 0.55933 0.56923 0.0
C281 C 0.80142 0.55756 0.56985 0.0
N282 N 0.81976 0.56167 0.59236 0.0
N283 N 0.84167 0.56151 0.583 0.0
C284 C 0.76495 0.55985 0.5914 0.0
H285 H 0.76587 0.5699 0.60278 0.0
H286 H 0.7555 0.53062 0.59151 0.0
H287 H 0.7504 0.57827 0.58497 0.0
C288 C 0.84038 0.48244 0.64033 0.0
N289 N 0.83744 0.51877 0.63612 0.0
N290 N 0.83069 0.51958 0.62216 0.0
C291 C 0.8287 0.4837 0.6171 0.0
C292 C 0.8349 0.45898 0.62844 0.0
C293 C 0.84966 0.47073 0.6553 0.0
H294 H 0.86862 0.48847 0.65881 0.0
H295 H 0.83152 0.47546 0.66305 0.0
H296 H 0.85578 0.44043 0.65566 0.0
O297 O 0.87509 0.59464 0.63888 0.0
O298 O 0.86368 0.59754 0.6153 0.0
H299 H 0.83632 0.48274 0.5941 0.0
H300 H 0.81483 0.44265 0.60068 0.0
C301 C 0.81918 0.47354 0.60195 0.0
H302 H 0.799 0.48883 0.5993 0.0
H303 H 0.8636 0.56348 0.58602 0.0
O304 O 0.84848 0.55193 0.66771 0.0
C305 C 0.88052 0.60605 0.62594 0.0
Co306 Co 0.15231 0.91975 0.6448 0.0
Co307 Co 0.1659 0.92219 0.61101 0.0
C308 C 0.20521 0.88308 0.63193 0.0
O309 O 0.18889 0.89066 0.64276 0.0
O310 O 0.19907 0.89416 0.61909 0.0
C311 C 0.16495 0.93139 0.67509 0.0
O312 O 0.19205 0.92927 0.67058 0.0
C313 C 0.19551 0.92536 0.58227 0.0
C314 C 0.16167 0.95084 0.56844 0.0
C315 C 0.18991 0.93764 0.56815 0.0
N316 N 0.17187 0.93176 0.59056 0.0
N317 N 0.1517 0.94677 0.58218 0.0
C318 C 0.2217 0.90481 0.58757 0.0
H319 H 0.2145 0.87858 0.59333 0.0
H320 H 0.23385 0.92313 0.59543 0.0
H321 H 0.23631 0.89658 0.57853 0.0
C322 C 0.15301 0.00289 0.64044 0.0
N323 N 0.15512 0.96729 0.63526 0.0
N324 N 0.16194 0.96868 0.62131 0.0
C325 C 0.16545 0.00534 0.61732 0.0
C326 C 0.15965 0.02826 0.62929 0.0
C327 C 0.14404 0.01235 0.6557 0.0
H328 H 0.126 0.99303 0.65922 0.0
H329 H 0.16281 0.00842 0.66314 0.0
H330 H 0.13671 0.0421 0.65655 0.0
O331 O 0.11998 0.88944 0.63656 0.0
O332 O 0.12983 0.8897 0.61282 0.0
H333 H 0.15924 0.01892 0.59483 0.0
H334 H 0.18774 0.04658 0.60354 0.0
C335 C 0.17732 0.01796 0.60285 0.0
H336 H 0.1937 -0.00235 0.59891 0.0
H337 H 0.13107 0.95439 0.58587 0.0
O338 O 0.14439 0.92752 0.66588 0.0
C339 C 0.11394 0.87925 0.62357 0.0
Co340 Co 0.84565 0.42555 0.90359 0.0
Co341 Co 0.84298 0.42426 0.86911 0.0
C342 C 0.89023 0.3849 0.8861 0.0
O343 O 0.88008 0.39528 0.89842 0.0
O344 O 0.87824 0.39449 0.8741 0.0
C345 C 0.83856 0.40716 0.93355 0.0
O346 O 0.83981 0.37253 0.92828 0.0
C347 C 0.85788 0.44265 0.83803 0.0
C348 C 0.81615 0.42634 0.8275 0.0
C349 C 0.84377 0.4409 0.82457 0.0
N350 N 0.83921 0.42987 0.84837 0.0
N351 N 0.81439 0.42017 0.84193 0.0
C352 C 0.88892 0.45402 0.84092 0.0
H353 H 0.89586 0.44384 0.85181 0.0
H354 H 0.89124 0.48539 0.84068 0.0
H355 H 0.90324 0.44244 0.8323 0.0
C356 C 0.84686 0.50795 0.89803 0.0
N357 N 0.84616 0.47192 0.89318 0.0
N358 N 0.84368 0.47189 0.87887 0.0
C359 C 0.84177 0.50807 0.87421 0.0
C360 C 0.84407 0.53213 0.88619 0.0
C361 C 0.85049 0.51871 0.91374 0.0
H362 H 0.86706 0.50053 0.91889 0.0
H363 H 0.85731 0.54895 0.91494 0.0
H364 H 0.82949 0.51383 0.91952 0.0
O365 O 0.81016 0.39509 0.89916 0.0
O366 O 0.80826 0.39419 0.87504 0.0
H367 H 0.82001 0.49731 0.8538 0.0
H368 H 0.82308 0.54678 0.85863 0.0
C369 C 0.83435 0.5192 0.8589 0.0
H370 H 0.85468 0.52207 0.85244 0.0
H371 H 0.79607 0.40941 0.84741 0.0
O372 O 0.8426 0.43511 0.92495 0.0
C373 C 0.79779 0.3847 0.88737 0.0
Co374 Co 0.16073 0.06472 0.90066 0.0
Co375 Co 0.16093 0.06779 0.86628 0.0
C376 C 0.11475 0.10603 0.88387 0.0
O377 O 0.12591 0.09536 0.89593 0.0
O378 O 0.12583 0.09688 0.8716 0.0
C379 C 0.14862 0.04926 0.93257 0.0
O380 O 0.12045 0.04495 0.93038 0.0
C381 C 0.14578 0.05561 0.83476 0.0
C382 C 0.19015 0.05868 0.82536 0.0
C383 C 0.16113 0.05321 0.8217 0.0
N384 N 0.16507 0.06188 0.84563 0.0
N385 N 0.19146 0.0638 0.83986 0.0
C386 C 0.11342 0.05354 0.83678 0.0
H387 H 0.10708 0.06738 0.84713 0.0
H388 H 0.10607 0.02338 0.8372 0.0
H389 H 0.10234 0.06719 0.82744 0.0
C390 C 0.16114 0.98224 0.89464 0.0
N391 N 0.16037 0.01859 0.89015 0.0
N392 N 0.16054 0.01959 0.87579 0.0
C393 C 0.16124 0.98372 0.87068 0.0
C394 C 0.16152 0.95887 0.88244 0.0
C395 C 0.16423 0.97065 0.91027 0.0
H396 H 0.18141 0.98843 0.91556 0.0
H397 H 0.14337 0.97549 0.91604 0.0
H398 H 0.17007 0.9404 0.91139 0.0
O399 O 0.19613 0.09431 0.896 0.0
O400 O 0.1957 0.09879 0.87193 0.0
H401 H 0.18114 0.98524 0.84957 0.0
H402 H 0.15986 0.94234 0.8531 0.0
C403 C 0.16114 0.97348 0.85483 0.0
H404 H 0.14206 0.98631 0.84953 0.0
H405 H 0.21053 0.06834 0.84587 0.0
O406 O 0.1655 0.05644 0.92189 0.0
C407 C 0.20737 0.10628 0.88419 0.0
Co408 Co 0.17104 0.42448 0.41695 0.0
Co409 Co 0.16457 0.42383 0.38256 0.0
C410 C 0.12139 0.38276 0.40187 0.0
O411 O 0.13491 0.39294 0.41348 0.0
O412 O 0.13026 0.39316 0.38923 0.0
C413 C 0.18647 0.40605 0.44603 0.0
O414 O 0.18606 0.37173 0.4404 0.0
C415 C 0.14365 0.44058 0.3523 0.0
C416 C 0.18581 0.43992 0.34065 0.0
C417 C 0.15645 0.44666 0.33867 0.0
N418 N 0.16473 0.43125 0.36182 0.0
N419 N 0.18973 0.43041 0.35468 0.0
C420 C 0.11261 0.44655 0.35654 0.0
H421 H 0.11076 0.4504 0.36853 0.0
H422 H 0.10386 0.4716 0.35078 0.0
H423 H 0.09938 0.42119 0.35335 0.0
C424 C 0.17054 0.50724 0.41165 0.0
N425 N 0.16899 0.47117 0.40682 0.0
N426 N 0.16634 0.47123 0.3925 0.0
C427 C 0.1661 0.50752 0.3878 0.0
C428 C 0.16854 0.53142 0.39978 0.0
C429 C 0.174 0.51812 0.42734 0.0
H430 H 0.19581 0.50945 0.4312 0.0
H431 H 0.15738 0.50269 0.43398 0.0
H432 H 0.17172 0.54914 0.42897 0.0
O433 O 0.20515 0.39582 0.4104 0.0
O434 O 0.19996 0.39424 0.38641 0.0
H435 H 0.18245 0.50299 0.366 0.0
H436 H 0.1709 0.54996 0.37076 0.0
C437 C 0.16598 0.5192 0.3721 0.0
H438 H 0.14422 0.51281 0.36737 0.0
H439 H 0.20974 0.42454 0.35952 0.0
O440 O 0.17867 0.43372 0.43811 0.0
C441 C 0.21384 0.38549 0.39789 0.0
Co442 Co 0.83202 0.07184 0.41544 0.0
Co443 Co 0.84383 0.06612 0.38139 0.0
C444 C 0.88521 0.10841 0.40112 0.0
O445 O 0.86988 0.10054 0.41245 0.0
O446 O 0.87776 0.09661 0.38844 0.0
C447 C 0.83392 0.05982 0.44799 0.0
O448 O 0.86164 0.05139 0.44724 0.0
C449 C 0.86583 0.05178 0.35075 0.0
C450 C 0.82313 0.04389 0.33989 0.0
C451 C 0.85281 0.04483 0.33724 0.0
N452 N 0.84458 0.05474 0.36087 0.0
N453 N 0.81924 0.0498 0.35422 0.0
C454 C 0.89763 0.0571 0.35386 0.0
H455 H 0.90101 0.07358 0.36404 0.0
H456 H 0.90752 0.02885 0.35528 0.0
H457 H 0.90872 0.07167 0.3446 0.0
C458 C 0.82854 0.98776 0.41174 0.0
N459 N 0.83322 0.02314 0.4065 0.0
N460 N 0.83956 0.021 0.39251 0.0
C461 C 0.84005 0.98425 0.38852 0.0
C462 C 0.83283 0.96187 0.40051 0.0
C463 C 0.81757 0.97939 0.4268 0.0
H464 H 0.80157 0.00095 0.43009 0.0
H465 H 0.83614 0.98072 0.43455 0.0
H466 H 0.80699 0.95086 0.42748 0.0
O467 O 0.80055 0.10176 0.40692 0.0
O468 O 0.80878 0.09756 0.38322 0.0
H469 H 0.83 0.97504 0.366 0.0
H470 H 0.8543 0.94051 0.37366 0.0
C471 C 0.84846 0.97092 0.37362 0.0
H472 H 0.86743 0.9879 0.36964 0.0
H473 H 0.7991 0.05082 0.35949 0.0
O474 O 0.82023 0.06825 0.43641 0.0
C475 C 0.79382 0.10964 0.39385 0.0
Co476 Co 0.15546 0.56043 0.11381 0.0
Co477 Co 0.15008 0.56408 0.1482 0.0
C478 C 0.10702 0.60272 0.1291 0.0
O479 O 0.1204 0.5921 0.11759 0.0
O480 O 0.11549 0.59297 0.14182 0.0
C481 C 0.1675 0.57896 0.08445 0.0
O482 O 0.16549 0.61329 0.08993 0.0
C483 C 0.13241 0.5508 0.17943 0.0
C484 C 0.17628 0.54941 0.18934 0.0
C485 C 0.14695 0.54468 0.19256 0.0
N486 N 0.15247 0.55813 0.16898 0.0
N487 N 0.17853 0.55784 0.17511 0.0
C488 C 0.10047 0.54625 0.17652 0.0
H489 H 0.09643 0.54203 0.16468 0.0
H490 H 0.09124 0.52192 0.18281 0.0
H491 H 0.08932 0.57236 0.18007 0.0
C492 C 0.15801 0.47841 0.12029 0.0
N493 N 0.1539 0.51454 0.12452 0.0
N494 N 0.15139 0.51577 0.13882 0.0
C495 C 0.15343 0.48021 0.14412 0.0
C496 C 0.15787 0.45536 0.1326 0.0
C497 C 0.16574 0.46746 0.105 0.0
H498 H 0.18474 0.48494 0.10131 0.0
H499 H 0.1472 0.47374 0.09768 0.0
H500 H 0.17113 0.43703 0.10407 0.0
O501 O 0.19042 0.5898 0.11942 0.0
O502 O 0.1854 0.59513 0.14335 0.0
H503 H 0.17124 0.48221 0.16567 0.0
H504 H 0.15087 0.43899 0.16167 0.0
C505 C 0.15186 0.47017 0.15997 0.0
H506 H 0.13208 0.48253 0.16479 0.0
H507 H 0.19804 0.56205 0.16942 0.0
O508 O 0.16162 0.5506 0.09261 0.0
C509 C 0.19935 0.60228 0.13165 0.0
Co510 Co 0.83785 0.92765 0.11221 0.0
Co511 Co 0.84967 0.93357 0.14625 0.0
C512 C 0.89012 0.89138 0.12719 0.0
O513 O 0.87459 0.89865 0.11595 0.0
O514 O 0.88359 0.904 0.13982 0.0
C515 C 0.8391 0.94626 0.08004 0.0
O516 O 0.86251 0.96778 0.08186 0.0
C517 C 0.87028 0.95044 0.17692 0.0
C518 C 0.82757 0.96337 0.18671 0.0
C519 C 0.85703 0.96205 0.18983 0.0
N520 N 0.84941 0.94566 0.16668 0.0
N521 N 0.824 0.953 0.17273 0.0
C522 C 0.90217 0.94686 0.17402 0.0
H523 H 0.90673 0.9497 0.16217 0.0
H524 H 0.91481 0.96866 0.18023 0.0
H525 H 0.90919 0.91841 0.17765 0.0
C526 C 0.83361 0.01197 0.11625 0.0
N527 N 0.83939 0.97669 0.1211 0.0
N528 N 0.84637 0.97873 0.13503 0.0
C529 C 0.84655 0.01535 0.13926 0.0
C530 C 0.83818 0.03759 0.12758 0.0
C531 C 0.82021 0.0205 0.10176 0.0
H532 H 0.80731 0.99568 0.09778 0.0
H533 H 0.83773 0.02746 0.09381 0.0
H534 H 0.80579 0.04537 0.10253 0.0
O535 O 0.80521 0.89807 0.12045 0.0
O536 O 0.81436 0.9007 0.14411 0.0
H537 H 0.83667 0.02451 0.16177 0.0
H538 H 0.8612 0.05967 0.15402 0.0
C539 C 0.85517 0.029 0.15414 0.0
H540 H 0.87406 0.01283 0.15809 0.0
H541 H 0.80416 0.95187 0.16716 0.0
O542 O 0.82779 0.92902 0.09091 0.0
C543 C 0.79874 0.88919 0.13349 0.0
H544 H 0.30789 0.91307 0.14655 0.0
H545 H 0.29821 0.84462 0.14725 0.0
H546 H 0.35254 0.82997 0.10932 0.0
H547 H 0.36312 0.89871 0.10888 0.0
H548 H 0.29257 0.8014 0.10762 0.0
H549 H 0.34949 0.75072 0.15703 0.0
H550 H 0.32974 0.79376 0.15967 0.0
H551 H 0.36035 0.79358 0.14743 0.0
C552 C 0.3184 0.89513 0.13861 0.0
C553 C 0.33621 0.91098 0.12766 0.0
C554 C 0.31293 0.85608 0.13904 0.0
C555 C 0.32504 0.8323 0.12847 0.0
C556 C 0.34331 0.84792 0.11766 0.0
H557 H 0.24242 0.60992 0.11121 0.0
H558 H 0.28018 0.65985 0.10999 0.0
C559 C 0.3491 0.88705 0.11734 0.0
C560 C 0.31532 0.79217 0.12777 0.0
H561 H 0.30955 0.71174 0.14835 0.0
C562 C 0.29677 0.78132 0.11631 0.0
C563 C 0.32085 0.76641 0.13919 0.0
C564 C 0.34142 0.77651 0.15148 0.0
C565 C 0.28171 0.74632 0.11652 0.0
C566 C 0.28617 0.72107 0.12832 0.0
C567 C 0.30617 0.73109 0.13933 0.0
C568 C 0.26767 0.68652 0.13027 0.0
C569 C 0.25959 0.73811 0.10467 0.0
C570 C 0.24959 0.68338 0.14259 0.0
C571 C 0.22847 0.65441 0.14348 0.0
C572 C 0.22488 0.62841 0.13197 0.0
C573 C 0.24437 0.63001 0.12013 0.0
C574 C 0.26585 0.65859 0.11938 0.0
H575 H 0.25445 0.7639 0.09825 0.0
H576 H 0.26841 0.71678 0.09702 0.0
H577 H 0.23897 0.72644 0.10936 0.0
H578 H 0.25075 0.70453 0.15117 0.0
H579 H 0.21387 0.6538 0.15277 0.0
H580 H 0.68595 0.56621 0.15719 0.0
H581 H 0.69953 0.63285 0.16066 0.0
H582 H 0.65989 0.66037 0.1194 0.0
H583 H 0.64454 0.59383 0.11635 0.0
H584 H 0.73662 0.66827 0.14326 0.0
H585 H 0.6341 0.7486 0.14386 0.0
H586 H 0.63474 0.69771 0.14622 0.0
H587 H 0.63684 0.71817 0.12824 0.0
C588 C 0.67913 0.58666 0.14913 0.0
C589 C 0.66399 0.57496 0.13655 0.0
C590 C 0.6871 0.6247 0.15107 0.0
C591 C 0.6804 0.65172 0.1404 0.0
C592 C 0.66464 0.64025 0.12797 0.0
H593 H 0.76032 0.85935 0.11355 0.0
H594 H 0.72699 0.80522 0.1171 0.0
C595 C 0.65629 0.60218 0.12612 0.0
C596 C 0.69335 0.69045 0.14137 0.0
H597 H 0.67825 0.78493 0.1393 0.0
C598 C 0.72377 0.69375 0.14266 0.0
C599 C 0.67656 0.72366 0.14047 0.0
C600 C 0.64372 0.72192 0.13976 0.0
C601 C 0.73797 0.72922 0.14264 0.0
C602 C 0.72129 0.76234 0.14139 0.0
C603 C 0.69085 0.75933 0.14031 0.0
C604 C 0.73579 0.79989 0.14017 0.0
C605 C 0.77085 0.73103 0.14342 0.0
C606 C 0.75074 0.81559 0.15214 0.0
C607 C 0.76993 0.84643 0.15017 0.0
C608 C 0.77448 0.86182 0.13617 0.0
C609 C 0.7576 0.84787 0.12445 0.0
C610 C 0.73839 0.81711 0.12645 0.0
H611 H 0.78065 0.70259 0.14224 0.0
H612 H 0.77984 0.74996 0.13476 0.0
H613 H 0.77764 0.74299 0.15413 0.0
H614 H 0.74884 0.80259 0.16282 0.0
H615 H 0.78237 0.85672 0.15945 0.0
H616 H 0.36919 0.08312 0.4058 0.0
H617 H 0.36136 0.15156 0.40889 0.0
H618 H 0.29879 0.14846 0.3738 0.0
H619 H 0.3059 0.08022 0.37094 0.0
H620 H 0.34506 0.21548 0.37552 0.0
H621 H 0.27714 0.18548 0.42489 0.0
H622 H 0.31233 0.16411 0.42311 0.0
H623 H 0.28313 0.14933 0.4113 0.0
C624 C 0.35393 0.09723 0.39871 0.0
C625 C 0.33804 0.07654 0.38817 0.0
C626 C 0.34965 0.13619 0.40042 0.0
C627 C 0.32957 0.15482 0.39154 0.0
C628 C 0.31457 0.13449 0.38064 0.0
H629 H 0.23111 0.345 0.37412 0.0
H630 H 0.26672 0.29479 0.37349 0.0
C631 C 0.31868 0.09561 0.37901 0.0
C632 C 0.32176 0.19455 0.39436 0.0
H633 H 0.27564 0.24659 0.41506 0.0
C634 C 0.33035 0.22266 0.38433 0.0
C635 C 0.30287 0.20368 0.40594 0.0
C636 C 0.29314 0.17422 0.41697 0.0
C637 C 0.31935 0.25951 0.3852 0.0
C638 C 0.29857 0.26785 0.39612 0.0
C639 C 0.2915 0.24025 0.40668 0.0
C640 C 0.2811 0.30282 0.39582 0.0
C641 C 0.32969 0.2888 0.37427 0.0
C642 C 0.27717 0.32417 0.40859 0.0
C643 C 0.25624 0.35244 0.40908 0.0
C644 C 0.23893 0.35993 0.39679 0.0
C645 C 0.24413 0.34006 0.38377 0.0
C646 C 0.26478 0.31152 0.38335 0.0
H647 H 0.35259 0.28371 0.37097 0.0
H648 H 0.31603 0.28659 0.36431 0.0
H649 H 0.32827 0.31807 0.37869 0.0
H650 H 0.28942 0.31784 0.41836 0.0
H651 H 0.2529 0.3674 0.41925 0.0
H652 H 0.77033 0.12913 0.36747 0.0
H653 H 0.73615 0.18015 0.36273 0.0
H654 H 0.72945 0.20138 0.40894 0.0
H655 H 0.76294 0.15002 0.41383 0.0
H656 H 0.67652 0.21078 0.39392 0.0
H657 H 0.76961 0.28801 0.3674 0.0
H658 H 0.7595 0.24285 0.35961 0.0
H659 H 0.77445 0.24502 0.37772 0.0
C660 C 0.76119 0.14422 0.37664 0.0
C661 C 0.76981 0.13605 0.39102 0.0
C662 C 0.74169 0.17335 0.3739 0.0
C663 C 0.73082 0.19498 0.38547 0.0
C664 C 0.73771 0.18506 0.39986 0.0
H665 H 0.69298 0.42062 0.40273 0.0
H666 H 0.7062 0.35376 0.40149 0.0
C667 C 0.75698 0.15579 0.40263 0.0
C668 C 0.71521 0.23058 0.38272 0.0
H669 H 0.72661 0.32143 0.37076 0.0
C670 C 0.68718 0.23481 0.3886 0.0
C671 C 0.72942 0.26194 0.37591 0.0
C672 C 0.75997 0.25955 0.36988 0.0
C673 C 0.67342 0.27006 0.3883 0.0
C674 C 0.68813 0.3015 0.38197 0.0
C675 C 0.7155 0.29695 0.37552 0.0
C676 C 0.67734 0.34039 0.38348 0.0
C677 C 0.644 0.27421 0.39537 0.0
C678 C 0.65659 0.35462 0.37379 0.0
C679 C 0.64891 0.39282 0.37453 0.0
C680 C 0.66196 0.41701 0.38494 0.0
C681 C 0.68227 0.40237 0.39478 0.0
C682 C 0.68991 0.36434 0.39404 0.0
H683 H 0.63509 0.24674 0.39956 0.0
H684 H 0.64578 0.29464 0.40458 0.0
H685 H 0.6284 0.28596 0.38738 0.0
H686 H 0.64692 0.33645 0.36549 0.0
H687 H 0.63318 0.40364 0.36685 0.0
H688 H 0.63596 0.07772 0.88436 0.0
H689 H 0.64732 0.14595 0.88166 0.0
H690 H 0.72662 0.13191 0.90615 0.0
H691 H 0.71554 0.06389 0.90873 0.0
H692 H 0.66484 0.20565 0.90579 0.0
H693 H 0.74697 0.17426 0.86306 0.0
H694 H 0.7174 0.14173 0.86762 0.0
H695 H 0.74874 0.14566 0.87929 0.0
C696 C 0.65561 0.08947 0.88929 0.0
C697 C 0.67487 0.0659 0.8968 0.0
C698 C 0.66197 0.12826 0.8878 0.0
C699 C 0.68777 0.14367 0.8937 0.0
C700 C 0.70658 0.12035 0.90156 0.0
H701 H 0.77469 0.34955 0.91146 0.0
H702 H 0.74054 0.29575 0.9118 0.0
C703 C 0.7002 0.08168 0.90308 0.0
C704 C 0.69643 0.18346 0.89083 0.0
H705 H 0.74842 0.23624 0.87319 0.0
C706 C 0.68281 0.21261 0.89851 0.0
C707 C 0.71945 0.19226 0.88111 0.0
C708 C 0.73391 0.16194 0.87218 0.0
C709 C 0.69287 0.25042 0.89733 0.0
C710 C 0.71731 0.25882 0.88839 0.0
C711 C 0.72973 0.22981 0.88008 0.0
C712 C 0.73251 0.29626 0.88852 0.0
C713 C 0.67759 0.28083 0.90581 0.0
C714 C 0.73905 0.31486 0.87534 0.0
C715 C 0.75896 0.34535 0.87507 0.0
C716 C 0.77274 0.35767 0.88798 0.0
C717 C 0.76452 0.34075 0.9013 0.0
C718 C 0.74474 0.31014 0.90155 0.0
H719 H 0.65432 0.27294 0.9077 0.0
H720 H 0.68817 0.28421 0.91663 0.0
H721 H 0.67876 0.30857 0.90006 0.0
H722 H 0.72992 0.30448 0.86516 0.0
H723 H 0.76461 0.35795 0.86464 0.0
H724 H 0.28243 0.42055 0.90991 0.0
H725 H 0.27453 0.35183 0.90848 0.0
H726 H 0.36481 0.33794 0.89665 0.0
H727 H 0.37235 0.40723 0.89761 0.0
H728 H 0.33144 0.29869 0.87895 0.0
H729 H 0.29461 0.26641 0.93474 0.0
H730 H 0.27296 0.30381 0.92759 0.0
H731 H 0.31167 0.3114 0.93007 0.0
C732 C 0.30064 0.40264 0.9073 0.0
C733 C 0.32797 0.41872 0.90395 0.0
C734 C 0.29623 0.36342 0.90658 0.0
C735 C 0.31925 0.33958 0.90278 0.0
C736 C 0.34682 0.35573 0.89973 0.0
H737 H 0.25022 0.10779 0.90474 0.0
H738 H 0.28703 0.15797 0.90855 0.0
C739 C 0.35114 0.39511 0.9003 0.0
C740 C 0.31346 0.29839 0.90071 0.0
H741 H 0.27511 0.22445 0.91567 0.0
C742 C 0.31974 0.28208 0.88711 0.0
C743 C 0.29911 0.27616 0.91147 0.0
C744 C 0.29456 0.29032 0.92683 0.0
C745 C 0.30972 0.24533 0.88355 0.0
C746 C 0.29206 0.22505 0.89367 0.0
C747 C 0.2881 0.24011 0.90772 0.0
C748 C 0.27476 0.19061 0.88956 0.0
C749 C 0.31774 0.22911 0.86889 0.0
C750 C 0.25632 0.19139 0.87732 0.0
C751 C 0.23582 0.16224 0.87492 0.0
C752 C 0.23276 0.13244 0.885 0.0
C753 C 0.25207 0.13063 0.89685 0.0
C754 C 0.27308 0.15929 0.89904 0.0
H755 H 0.33991 0.23903 0.86558 0.0
H756 H 0.31714 0.19758 0.86896 0.0
H757 H 0.30226 0.23933 0.86053 0.0
H758 H 0.2564 0.21568 0.87009 0.0
H759 H 0.22099 0.1645 0.86578 0.0
H760 H 0.70806 0.92488 0.62078 0.0
H761 H 0.71893 0.8574 0.62242 0.0
H762 H 0.63925 0.83741 0.64655 0.0
H763 H 0.62905 0.90567 0.64542 0.0
H764 H 0.68118 0.79984 0.65858 0.0
H765 H 0.68563 0.77116 0.59963 0.0
H766 H 0.7104 0.80951 0.60384 0.0
H767 H 0.67181 0.81501 0.60678 0.0
C768 C 0.69278 0.90592 0.62629 0.0
C769 C 0.66757 0.92003 0.6328 0.0
C770 C 0.69885 0.86737 0.62714 0.0
C771 C 0.67946 0.84205 0.63422 0.0
C772 C 0.65434 0.8563 0.64088 0.0
H773 H 0.73827 0.61082 0.62091 0.0
H774 H 0.70336 0.66223 0.62254 0.0
C775 C 0.6485 0.89512 0.64023 0.0
C776 C 0.68649 0.80119 0.6352 0.0
H777 H 0.71362 0.72892 0.61496 0.0
C778 C 0.68771 0.784 0.64901 0.0
C779 C 0.69401 0.77988 0.62272 0.0
C780 C 0.69003 0.79478 0.60742 0.0
C781 C 0.69841 0.74718 0.65075 0.0
C782 C 0.70926 0.72773 0.63842 0.0
C783 C 0.7059 0.74387 0.62452 0.0
C784 C 0.72659 0.69262 0.63965 0.0
C785 C 0.69812 0.72986 0.6658 0.0
C786 C 0.75075 0.69167 0.64908 0.0
C787 C 0.77021 0.66172 0.64844 0.0
C788 C 0.76645 0.63285 0.63802 0.0
C789 C 0.74171 0.63287 0.629 0.0
C790 C 0.72179 0.66227 0.62993 0.0
H791 H 0.67898 0.73953 0.67213 0.0
H792 H 0.69748 0.69835 0.66538 0.0
H793 H 0.71796 0.73939 0.6718 0.0
H794 H 0.75565 0.71518 0.65633 0.0
H795 H 0.78933 0.66266 0.65538 0.0
H796 H 0.21421 0.83374 0.65438 0.0
H797 H 0.24925 0.78264 0.65508 0.0
H798 H 0.28742 0.82298 0.61479 0.0
H799 H 0.25193 0.87371 0.61385 0.0
H800 H 0.27107 0.75115 0.61266 0.0
H801 H 0.33379 0.7678 0.66368 0.0
H802 H 0.29544 0.76949 0.66726 0.0
H803 H 0.3126 0.80577 0.65614 0.0
C804 C 0.23057 0.83241 0.64587 0.0
C805 C 0.23 0.8574 0.63393 0.0
C806 C 0.25077 0.80328 0.64635 0.0
C807 C 0.27115 0.79909 0.63505 0.0
C808 C 0.2719 0.82566 0.62363 0.0
H809 H 0.36467 0.5878 0.61607 0.0
H810 H 0.35373 0.65591 0.61633 0.0
C811 C 0.25152 0.85455 0.62308 0.0
C812 C 0.28831 0.76395 0.63401 0.0
H813 H 0.32971 0.70349 0.65399 0.0
C814 C 0.28451 0.74117 0.62155 0.0
C815 C 0.30583 0.7509 0.64561 0.0
C816 C 0.31239 0.77503 0.65884 0.0
C817 C 0.29615 0.70475 0.62075 0.0
C818 C 0.31219 0.69088 0.63271 0.0
C819 C 0.31726 0.71425 0.64488 0.0
C820 C 0.32112 0.65085 0.63332 0.0
C821 C 0.28978 0.68047 0.60751 0.0
C822 C 0.30674 0.62585 0.64294 0.0
C823 C 0.31278 0.5872 0.64273 0.0
C824 C 0.33347 0.573 0.63297 0.0
C825 C 0.34846 0.59818 0.6236 0.0
C826 C 0.34232 0.63693 0.62378 0.0
H827 H 0.27383 0.6937 0.60005 0.0
H828 H 0.31028 0.6761 0.60136 0.0
H829 H 0.28111 0.65213 0.61086 0.0
H830 H 0.29017 0.63609 0.65031 0.0
H831 H 0.30072 0.56825 0.64994 0.0
H832 H 0.86148 0.41074 0.60953 0.0
H833 H 0.85529 0.34123 0.60836 0.0
H834 H 0.79895 0.34418 0.64601 0.0
H835 H 0.80466 0.41334 0.64706 0.0
H836 H 0.84369 0.28186 0.6447 0.0
H837 H 0.77276 0.29666 0.59563 0.0
H838 H 0.80832 0.31922 0.59568 0.0
H839 H 0.78045 0.3364 0.60755 0.0
C840 C 0.84793 0.39634 0.61757 0.0
C841 C 0.83333 0.41712 0.62831 0.0
C842 C 0.84458 0.35683 0.61695 0.0
C843 C 0.82666 0.33782 0.6271 0.0
C844 C 0.81304 0.35845 0.63816 0.0
H845 H 0.72794 0.15182 0.65252 0.0
H846 H 0.76539 0.20146 0.65078 0.0
C847 C 0.81627 0.39783 0.63874 0.0
C848 C 0.81945 0.29706 0.62553 0.0
H849 H 0.7725 0.23794 0.60734 0.0
C850 C 0.82863 0.27185 0.63636 0.0
C851 C 0.80011 0.28419 0.61453 0.0
C852 C 0.78964 0.31037 0.60267 0.0
C853 C 0.8176 0.23444 0.63695 0.0
C854 C 0.79624 0.22257 0.62669 0.0
C855 C 0.78879 0.24703 0.61524 0.0
C856 C 0.77824 0.18756 0.62868 0.0
C857 C 0.82838 0.20845 0.64876 0.0
C858 C 0.77295 0.16299 0.61687 0.0
C859 C 0.75096 0.1351 0.61772 0.0
C860 C 0.73399 0.13118 0.63044 0.0
C861 C 0.74067 0.15404 0.64259 0.0
C862 C 0.76237 0.18224 0.64166 0.0
H863 H 0.85156 0.21504 0.65141 0.0
H864 H 0.81547 0.21291 0.65884 0.0
H865 H 0.82631 0.17812 0.64554 0.0
H866 H 0.78482 0.16668 0.60674 0.0
H867 H 0.74648 0.11768 0.60821 0.0
H868 H 0.28395 0.33188 0.65524 0.0
H869 H 0.24829 0.27948 0.65421 0.0
H870 H 0.21666 0.32104 0.61298 0.0
H871 H 0.25306 0.37269 0.61366 0.0
H872 H 0.1889 0.26957 0.65145 0.0
H873 H 0.24627 0.21772 0.60197 0.0
H874 H 0.26062 0.25617 0.61295 0.0
H875 H 0.23133 0.26422 0.60035 0.0
C876 C 0.26908 0.33024 0.64608 0.0
C877 C 0.27168 0.35585 0.63438 0.0
C878 C 0.24867 0.30033 0.64551 0.0
C879 C 0.23039 0.29585 0.63333 0.0
C880 C 0.23116 0.3234 0.62228 0.0
H881 H 0.13939 0.08219 0.61068 0.0
H882 H 0.14987 0.15087 0.61146 0.0
C883 C 0.25188 0.35293 0.62271 0.0
C884 C 0.2129 0.26039 0.63159 0.0
H885 H 0.20815 0.17962 0.61107 0.0
C886 C 0.19281 0.25009 0.64253 0.0
C887 C 0.21809 0.23499 0.61993 0.0
C888 C 0.2404 0.24355 0.60819 0.0
C889 C 0.17848 0.21451 0.64235 0.0
C890 C 0.18458 0.1887 0.63101 0.0
C891 C 0.20348 0.1997 0.6197 0.0
C892 C 0.17466 0.14859 0.63151 0.0
C893 C 0.15747 0.20442 0.65447 0.0
C894 C 0.18524 0.12481 0.64248 0.0
C895 C 0.17972 0.08577 0.64192 0.0
C896 C 0.16344 0.0699 0.6304 0.0
C897 C 0.15214 0.09384 0.61962 0.0
C898 C 0.15789 0.13294 0.62012 0.0
H899 H 0.1487 0.23023 0.65972 0.0
H900 H 0.139 0.18662 0.65034 0.0
H901 H 0.16904 0.18798 0.66294 0.0
H902 H 0.19891 0.13622 0.65113 0.0
H903 H 0.18918 0.06786 0.6502 0.0
H904 H 0.80823 0.57206 0.90377 0.0
H905 H 0.79876 0.6401 0.90286 0.0
H906 H 0.86065 0.65358 0.86775 0.0
H907 H 0.87086 0.58528 0.86886 0.0
H908 H 0.85075 0.7123 0.89953 0.0
H909 H 0.76602 0.6825 0.85721 0.0
H910 H 0.77235 0.64743 0.87115 0.0
H911 H 0.79985 0.65716 0.8577 0.0
C912 C 0.82041 0.58967 0.89613 0.0
C913 C 0.84033 0.57363 0.88641 0.0
C914 C 0.81494 0.62841 0.8956 0.0
C915 C 0.82916 0.65157 0.8853 0.0
C916 C 0.8497 0.63597 0.87583 0.0
H917 H 0.73824 0.86151 0.86862 0.0
H918 H 0.77542 0.8137 0.86495 0.0
C919 C 0.85531 0.59712 0.87641 0.0
C920 C 0.81996 0.69108 0.88364 0.0
H921 H 0.76479 0.74172 0.86902 0.0
C922 C 0.83238 0.7192 0.89263 0.0
C923 C 0.79633 0.6998 0.87449 0.0
C924 C 0.78276 0.67032 0.86451 0.0
C925 C 0.82051 0.75559 0.89331 0.0
C926 C 0.79518 0.76333 0.8851 0.0
C927 C 0.78414 0.73583 0.87536 0.0
C928 C 0.77748 0.79738 0.88769 0.0
C929 C 0.83482 0.78498 0.90306 0.0
C930 C 0.76673 0.80467 0.90174 0.0
C931 C 0.74567 0.83214 0.90389 0.0
C932 C 0.7345 0.85229 0.89197 0.0
C933 C 0.74621 0.84618 0.87801 0.0
C934 C 0.76755 0.819 0.87589 0.0
H935 H 0.85872 0.78072 0.90369 0.0
H936 H 0.83086 0.81427 0.89914 0.0
H937 H 0.82592 0.782 0.91427 0.0
H938 H 0.77335 0.78764 0.91095 0.0
H939 H 0.73704 0.83608 0.91478 0.0
H940 H 0.12825 0.90549 0.89652 0.0
H941 H 0.13736 0.83701 0.89823 0.0
H942 H 0.21133 0.85079 0.86955 0.0
H943 H 0.20275 0.91914 0.86809 0.0
H944 H 0.16305 0.7795 0.86662 0.0
H945 H 0.22148 0.80691 0.9191 0.0
H946 H 0.18752 0.82984 0.91526 0.0
H947 H 0.21966 0.84334 0.90529 0.0
C948 C 0.1462 0.89366 0.89046 0.0
C949 C 0.16484 0.91731 0.88219 0.0
C950 C 0.15124 0.85472 0.89137 0.0
C951 C 0.17487 0.83913 0.88394 0.0
C952 C 0.19279 0.86245 0.87521 0.0
H953 H 0.27598 0.64643 0.87075 0.0
H954 H 0.24151 0.69764 0.86803 0.0
C955 C 0.18788 0.90134 0.87438 0.0
C956 C 0.18311 0.79949 0.88648 0.0
H957 H 0.22546 0.74651 0.90877 0.0
C958 C 0.17629 0.7719 0.87593 0.0
C959 C 0.20007 0.7899 0.89872 0.0
C960 C 0.20776 0.81887 0.9103 0.0
C961 C 0.18702 0.73495 0.87708 0.0
C962 C 0.20565 0.72601 0.88886 0.0
C963 C 0.21117 0.75328 0.89975 0.0
C964 C 0.22222 0.69035 0.88946 0.0
C965 C 0.17855 0.70609 0.86561 0.0
C966 C 0.22285 0.66898 0.90238 0.0
C967 C 0.24306 0.6402 0.90409 0.0
C968 C 0.26291 0.63215 0.89287 0.0
C969 C 0.26093 0.65185 0.87958 0.0
C970 C 0.24098 0.68097 0.87796 0.0
H971 H 0.15664 0.71195 0.86107 0.0
H972 H 0.19439 0.70786 0.85647 0.0
H973 H 0.17844 0.67675 0.87004 0.0
H974 H 0.20864 0.6758 0.91141 0.0
H975 H 0.24388 0.62529 0.91442 0.0
H976 H 0.21539 0.57286 0.40874 0.0
H977 H 0.22347 0.64133 0.40618 0.0
H978 H 0.1373 0.65196 0.38787 0.0
H979 H 0.12983 0.58284 0.38986 0.0
H980 H 0.174 0.69033 0.37213 0.0
H981 H 0.19635 0.72891 0.4292 0.0
H982 H 0.22033 0.69178 0.42403 0.0
H983 H 0.18143 0.68292 0.42425 0.0
C984 C 0.19807 0.59003 0.40442 0.0
C985 C 0.17196 0.57304 0.3996 0.0
C986 C 0.20255 0.62914 0.40305 0.0
C987 C 0.18071 0.65203 0.39717 0.0
C988 C 0.15435 0.63496 0.39256 0.0
H989 H 0.24374 0.88637 0.40047 0.0
H990 H 0.2075 0.83478 0.40255 0.0
C991 C 0.15006 0.59567 0.39372 0.0
C992 C 0.18661 0.69313 0.39479 0.0
H993 H 0.21939 0.76987 0.41087 0.0
C994 C 0.18331 0.70806 0.38068 0.0
C995 C 0.19779 0.71685 0.406 0.0
C996 C 0.19881 0.70432 0.42174 0.0
C997 C 0.19314 0.74498 0.37724 0.0
C998 C 0.20771 0.7669 0.38805 0.0
C999 C 0.20878 0.75304 0.40242 0.0
C1000 C 0.22471 0.80212 0.38457 0.0
C1001 C 0.18807 0.75971 0.36202 0.0
C1002 C 0.24567 0.80193 0.37336 0.0
C1003 C 0.26575 0.83199 0.37188 0.0
C1004 C 0.26588 0.86209 0.3819 0.0
C1005 C 0.24407 0.86334 0.39263 0.0
C1006 C 0.22344 0.83384 0.39384 0.0
H1007 H 0.16706 0.74845 0.35761 0.0
H1008 H 0.18778 0.79121 0.3617 0.0
H1009 H 0.20561 0.74967 0.35472 0.0
H1010 H 0.24789 0.77743 0.36635 0.0
H1011 H 0.28262 0.83013 0.36365 0.0
H1012 H 0.85127 0.91025 0.42067 0.0
H1013 H 0.83965 0.84171 0.42133 0.0
H1014 H 0.79115 0.85194 0.38129 0.0
H1015 H 0.80153 0.92021 0.3809 0.0
H1016 H 0.77508 0.81287 0.41909 0.0
H1017 H 0.85048 0.75826 0.37691 0.0
H1018 H 0.85837 0.80063 0.38748 0.0
H1019 H 0.83276 0.80208 0.3727 0.0
C1020 C 0.83815 0.89773 0.41204 0.0
C1021 C 0.82738 0.92037 0.4007 0.0
C1022 C 0.83177 0.85871 0.41237 0.0
C1023 C 0.81501 0.84193 0.40122 0.0
C1024 C 0.80463 0.86439 0.38981 0.0
H1025 H 0.71959 0.6562 0.37002 0.0
H1026 H 0.75389 0.70866 0.37448 0.0
C1027 C 0.81062 0.90331 0.38959 0.0
C1028 C 0.80576 0.80167 0.40198 0.0
H1029 H 0.80973 0.71839 0.3832 0.0
C1030 C 0.78303 0.79175 0.41152 0.0
C1031 C 0.81619 0.77467 0.39199 0.0
C1032 C 0.84096 0.78418 0.38172 0.0
C1033 C 0.76887 0.75619 0.41061 0.0
C1034 C 0.77847 0.72951 0.40015 0.0
C1035 C 0.80245 0.73879 0.39121 0.0
C1036 C 0.7616 0.6941 0.39709 0.0
C1037 C 0.74242 0.74876 0.42009 0.0
C1038 C 0.75552 0.66751 0.40814 0.0
C1039 C 0.73543 0.63784 0.4057 0.0
C1040 C 0.72166 0.63383 0.39206 0.0
C1041 C 0.7297 0.65862 0.38067 0.0
C1042 C 0.74937 0.6886 0.3832 0.0
H1043 H 0.73443 0.77516 0.42523 0.0
H1044 H 0.72434 0.73575 0.41364 0.0
H1045 H 0.74816 0.72882 0.42896 0.0
H1046 H 0.76539 0.67057 0.41881 0.0
H1047 H 0.73003 0.61878 0.41461 0.0
H1048 H 0.26031 0.1268 0.10971 0.0
H1049 H 0.22895 0.18179 0.11154 0.0
H1050 H 0.25254 0.19554 0.15676 0.0
H1051 H 0.28411 0.14043 0.15513 0.0
H1052 H 0.18425 0.2085 0.1429 0.0
H1053 H 0.28175 0.2883 0.12181 0.0
H1054 H 0.27261 0.24219 0.11436 0.0
H1055 H 0.28539 0.24608 0.13278 0.0
C1056 C 0.25836 0.14085 0.12017 0.0
C1057 C 0.2751 0.12951 0.13223 0.0
C1058 C 0.2403 0.17217 0.12118 0.0
C1059 C 0.23861 0.19258 0.13425 0.0
C1060 C 0.25355 0.17986 0.1466 0.0
H1061 H 0.20203 0.42776 0.14878 0.0
H1062 H 0.21877 0.36234 0.14993 0.0
C1063 C 0.27163 0.14845 0.14562 0.0
C1064 C 0.22497 0.23013 0.13435 0.0
H1065 H 0.23949 0.32293 0.12605 0.0
C1066 C 0.19618 0.23362 0.13923 0.0
C1067 C 0.2408 0.26259 0.12958 0.0
C1068 C 0.2719 0.25999 0.12434 0.0
C1069 C 0.18278 0.2692 0.13949 0.0
C1070 C 0.19863 0.30169 0.13463 0.0
C1071 C 0.22741 0.29795 0.12976 0.0
C1072 C 0.18636 0.34023 0.13485 0.0
C1073 C 0.15209 0.27195 0.14523 0.0
C1074 C 0.16253 0.34944 0.126 0.0
C1075 C 0.15284 0.38686 0.1254 0.0
C1076 C 0.16695 0.41544 0.13359 0.0
C1077 C 0.19058 0.40607 0.14252 0.0
C1078 C 0.20019 0.3688 0.14314 0.0
H1079 H 0.14535 0.2462 0.15148 0.0
H1080 H 0.14994 0.29722 0.15237 0.0
H1081 H 0.13687 0.27504 0.13592 0.0
H1082 H 0.15194 0.32795 0.11929 0.0
H1083 H 0.13459 0.39358 0.11843 0.0
H1084 H 0.71193 0.33795 0.15426 0.0
H1085 H 0.74636 0.28603 0.15363 0.0
H1086 H 0.78185 0.32887 0.11313 0.0
H1087 H 0.74729 0.38064 0.11359 0.0
H1088 H 0.76221 0.25625 0.11094 0.0
H1089 H 0.83281 0.2702 0.15959 0.0
H1090 H 0.7949 0.27359 0.16411 0.0
H1091 H 0.81187 0.30916 0.15263 0.0
C1092 C 0.72761 0.33699 0.14543 0.0
C1093 C 0.72654 0.36306 0.13384 0.0
C1094 C 0.74743 0.30737 0.14513 0.0
C1095 C 0.76677 0.30366 0.13336 0.0
C1096 C 0.76711 0.33121 0.12231 0.0
H1097 H 0.85538 0.09295 0.10837 0.0
H1098 H 0.84271 0.16048 0.10898 0.0
C1099 C 0.74724 0.3607 0.12257 0.0
C1100 C 0.78324 0.26824 0.13149 0.0
H1101 H 0.8282 0.20737 0.14912 0.0
C1102 C 0.77714 0.24588 0.11913 0.0
C1103 C 0.80263 0.2548 0.1422 0.0
C1104 C 0.81118 0.2784 0.1553 0.0
C1105 C 0.78854 0.20947 0.1176 0.0
C1106 C 0.8069 0.19532 0.12864 0.0
C1107 C 0.81405 0.21832 0.14069 0.0
C1108 C 0.81647 0.15547 0.12856 0.0
C1109 C 0.77949 0.18561 0.10462 0.0
C1110 C 0.80635 0.13065 0.13948 0.0
C1111 C 0.81355 0.0924 0.13914 0.0
C1112 C 0.83116 0.07834 0.12792 0.0
C1113 C 0.84161 0.10321 0.11707 0.0
C1114 C 0.83443 0.14164 0.11742 0.0
H1115 H 0.76108 0.19815 0.09854 0.0
H1116 H 0.79821 0.18332 0.09702 0.0
H1117 H 0.77298 0.15647 0.10812 0.0
H1118 H 0.7923 0.14073 0.1481 0.0
H1119 H 0.80484 0.07365 0.1475 0.0
H1120 H 0.25543 0.00874 0.06403 0.0
H1121 H 0.22359 0.00613 0.04266 0.0
H1122 H 0.28824 0.06825 0.01768 0.0
H1123 H 0.31981 0.07233 0.03913 0.0
H1124 H 0.20448 0.07455 0.02394 0.0
H1125 H 0.26808 0.96447 0.99522 0.0
H1126 H 0.26956 0.97101 0.01477 0.0
H1127 H 0.28881 0.00345 1.00294 0.0
C1128 C 0.26262 0.02283 0.05417 0.0
C1129 C 0.28994 0.04165 0.05345 0.0
C1130 C 0.24449 0.02086 0.0419 0.0
C1131 C 0.25362 0.037 0.02865 0.0
C1132 C 0.28089 0.0555 0.02783 0.0
H1133 H 0.20487 0.064 0.9404 0.0
H1134 H 0.2269 0.05882 0.96439 0.0
C1135 C 0.2989 0.05773 0.04009 0.0
C1136 C 0.23493 0.03438 0.01553 0.0
H1137 H 0.2321 0.99581 0.98142 0.0
C1138 C 0.21017 0.05701 0.01467 0.0
C1139 C 0.24256 0.01142 1.00354 0.0
C1140 C 0.26858 0.98593 1.00411 0.0
C1141 C 0.19359 0.05871 1.0018 0.0
C1142 C 0.20172 0.03652 0.98963 0.0
C1143 C 0.22588 0.01281 0.99074 0.0
C1144 C 0.18729 0.03991 0.97521 0.0
C1145 C 0.16846 0.08565 1.00108 0.0
C1146 C 0.15756 0.03093 0.97325 0.0
C1147 C 0.14468 0.03412 0.95943 0.0
C1148 C 0.16145 0.04599 0.94735 0.0
C1149 C 0.19123 0.05471 0.94941 0.0
C1150 C 0.20394 0.05173 0.96316 0.0
H1151 H 0.16886 0.10627 0.01026 0.0
H1152 H 0.1688 0.10168 0.99064 0.0
H1153 H 0.14764 0.06916 1.00164 0.0
H1154 H 0.1444 0.02107 0.98236 0.0
H1155 H 0.12175 0.02698 0.95819 0.0
H1156 H 0.82001 0.47333 0.94589 0.0
H1157 H 0.79705 0.4812 0.96974 0.0
H1158 H 0.81079 0.363 0.97936 0.0
H1159 H 0.83294 0.35464 0.95535 0.0
H1160 H 0.75628 0.38121 0.98494 0.0
H1161 H 0.8292 0.48944 0.01031 0.0
H1162 H 0.81524 0.50462 0.99304 0.0
H1163 H 0.83889 0.46448 0.99387 0.0
C1164 C 0.81863 0.44915 0.95318 0.0
C1165 C 0.82833 0.41333 0.9487 0.0
C1166 C 0.80559 0.45375 0.96687 0.0
C1167 C 0.80246 0.42282 0.97646 0.0
C1168 C 0.81297 0.38732 0.97217 0.0
H1169 H 0.74485 0.43903 0.06687 0.0
H1170 H 0.77282 0.43112 0.04443 0.0
C1171 C 0.82572 0.3826 0.95844 0.0
C1172 C 0.78639 0.42665 0.99049 0.0
H1173 H 0.78324 0.47825 0.02201 0.0
C1174 C 0.76233 0.40227 0.99308 0.0
C1175 C 0.79441 0.45383 1.00122 0.0
C1176 C 0.82102 0.47931 0.99956 0.0
C1177 C 0.74586 0.40465 1.00596 0.0
C1178 C 0.75309 0.43292 0.0164 0.0
C1179 C 0.77745 0.45689 0.01393 0.0
C1180 C 0.7359 0.43772 0.03002 0.0
C1181 C 0.72122 0.37628 1.00834 0.0
C1182 C 0.70589 0.44474 0.02944 0.0
C1183 C 0.6897 0.44837 0.04229 0.0
C1184 C 0.7032 0.44523 0.056 0.0
C1185 C 0.73347 0.43977 0.05654 0.0
C1186 C 0.74961 0.43584 0.04369 0.0
H1187 H 0.72405 0.35027 1.00167 0.0
H1188 H 0.71954 0.36789 0.01999 0.0
H1189 H 0.70038 0.38923 1.00505 0.0
H1190 H 0.69496 0.44751 0.01904 0.0
H1191 H 0.66653 0.4533 0.04149 0.0
H1192 H 0.37574 0.94758 0.45956 0.0
H1193 H 0.35349 0.94725 0.48399 0.0
H1194 H 0.27 0.91838 0.46502 0.0
H1195 H 0.29173 0.91841 0.44082 0.0
H1196 H 0.30511 0.99168 0.49413 0.0
H1197 H 0.28066 0.8371 0.49686 0.0
H1198 H 0.30652 0.85751 0.48407 0.0
H1199 H 0.26806 0.85899 0.4804 0.0
C1200 C 0.35268 0.94099 0.46062 0.0
C1201 C 0.3356 0.9328 0.44823 0.0
C1202 C 0.34002 0.94086 0.47456 0.0
C1203 C 0.31021 0.93216 0.4763 0.0
C1204 C 0.29315 0.9244 0.46395 0.0
H1205 H 0.17467 0.92011 0.54029 0.0
H1206 H 0.20605 0.91966 0.51865 0.0
C1207 C 0.30566 0.92464 0.45009 0.0
C1208 C 0.29633 0.93203 0.4909 0.0
H1209 H 0.25556 0.87618 0.51388 0.0
C1210 C 0.29465 0.96636 0.4986 0.0
C1211 C 0.28265 0.89894 0.49665 0.0
C1212 C 0.28475 0.86095 0.48914 0.0
C1213 C 0.27843 0.96886 0.51157 0.0
C1214 C 0.264 0.93596 0.51708 0.0
C1215 C 0.2665 0.9014 0.5096 0.0
C1216 C 0.24521 0.93697 0.53024 0.0
C1217 C 0.2758 0.00699 0.51892 0.0
C1218 C 0.25682 0.94682 0.54393 0.0
C1219 C 0.23889 0.94722 0.55627 0.0
C1220 C 0.20916 0.93715 0.55519 0.0
C1221 C 0.19755 0.92768 0.54146 0.0
C1222 C 0.21546 0.92732 0.52912 0.0
H1223 H 0.28248 0.03071 0.51157 0.0
H1224 H 0.25307 0.01157 0.5226 0.0
H1225 H 0.29015 0.00797 0.52866 0.0
H1226 H 0.27976 0.95402 0.54507 0.0
H1227 H 0.24824 0.95581 0.56664 0.0
H1228 H 0.81281 0.58744 0.54306 0.0
H1229 H 0.7815 0.58751 0.52158 0.0
H1230 H 0.71432 0.52719 0.54558 0.0
H1231 H 0.74626 0.52465 0.56679 0.0
H1232 H 0.71879 0.49886 0.51913 0.0
H1233 H 0.71406 0.65492 0.51411 0.0
H1234 H 0.75098 0.63925 0.5138 0.0
H1235 H 0.72911 0.63209 0.52995 0.0
C1236 C 0.79136 0.57418 0.54382 0.0
C1237 C 0.78178 0.55723 0.55691 0.0
C1238 C 0.77332 0.57464 0.53154 0.0
C1239 C 0.74511 0.55854 0.53207 0.0
C1240 C 0.73576 0.54054 0.54497 0.0
H1241 H 0.62651 0.60952 0.46016 0.0
H1242 H 0.64718 0.60286 0.48463 0.0
C1243 C 0.75396 0.53969 0.55723 0.0
C1244 C 0.72582 0.55952 0.51903 0.0
H1245 H 0.69922 0.61905 0.49306 0.0
C1246 C 0.71422 0.5252 0.51352 0.0
C1247 C 0.71922 0.59392 0.51186 0.0
C1248 C 0.72873 0.63213 0.51784 0.0
C1249 C 0.6972 0.52418 0.50077 0.0
C1250 C 0.6924 0.55831 0.49301 0.0
C1251 C 0.7031 0.59276 0.49884 0.0
C1252 C 0.6774 0.55906 0.47859 0.0
C1253 C 0.68436 0.48652 0.49588 0.0
C1254 C 0.68709 0.53633 0.46703 0.0
C1255 C 0.67484 0.53951 0.45313 0.0
C1256 C 0.65318 0.56627 0.45035 0.0
C1257 C 0.64314 0.58861 0.46195 0.0
C1258 C 0.65502 0.58489 0.47594 0.0
H1259 H 0.6807 0.46714 0.50531 0.0
H1260 H 0.66332 0.49004 0.49011 0.0
H1261 H 0.69987 0.47261 0.48839 0.0
H1262 H 0.70493 0.51708 0.46858 0.0
H1263 H 0.68338 0.52221 0.4444 0.0
H1264 H 0.65665 0.97194 0.97211 0.0
H1265 H 0.68624 0.97784 0.9943 0.0
H1266 H 0.74908 0.90183 0.97591 0.0
H1267 H 0.72048 0.89755 0.95352 0.0
H1268 H 0.70172 0.93111 0.01418 0.0
H1269 H 0.80333 0.98384 0.98833 0.0
H1270 H 0.7695 0.97983 0.97841 0.0
H1271 H 0.79229 0.93908 0.98064 0.0
C1272 C 0.67686 0.95667 0.9728 0.0
C1273 C 0.68636 0.9346 0.961 0.0
C1274 C 0.6938 0.96006 0.98549 0.0
C1275 C 0.72042 0.9411 0.98672 0.0
C1276 C 0.72932 0.91799 0.9751 0.0
H1277 H 0.80294 0.89014 0.0697 0.0
H1278 H 0.77485 0.88959 0.04707 0.0
C1279 C 0.71275 0.91525 0.96233 0.0
C1280 C 0.73838 0.94441 1.00028 0.0
H1281 H 0.80795 0.95959 0.01266 0.0
C1282 C 0.72489 0.93772 0.01383 0.0
C1283 C 0.76858 0.95384 0.99998 0.0
C1284 C 0.78416 0.96498 0.98607 0.0
C1285 C 0.74075 0.93918 0.02695 0.0
C1286 C 0.77133 0.94596 0.02655 0.0
C1287 C 0.78467 0.95369 0.01304 0.0
C1288 C 0.78981 0.94532 0.03997 0.0
C1289 C 0.72428 0.9343 0.04111 0.0
C1290 C 0.80911 0.97573 0.04319 0.0
C1291 C 0.82598 0.97551 0.05595 0.0
C1292 C 0.82365 0.94506 0.06582 0.0
C1293 C 0.80495 0.91424 0.0624 0.0
C1294 C 0.7886 0.9141 0.04951 0.0
H1295 H 0.70118 0.94265 0.03993 0.0
H1296 H 0.72431 0.90395 0.04435 0.0
H1297 H 0.73434 0.95149 0.05001 0.0
H1298 H 0.81071 5e-05 0.03598 0.0
H1299 H 0.8401 -0.00026 0.05831 0.0
H1300 H 0.18836 0.51341 0.07246 0.0
H1301 H 0.21639 0.5072 0.04985 0.0
H1302 H 0.20476 0.62609 0.04079 0.0
H1303 H 0.17746 0.63276 0.0635 0.0
H1304 H 0.20493 0.51883 0.02132 0.0
H1305 H 0.29233 0.61903 0.03909 0.0
H1306 H 0.26463 0.60108 0.05139 0.0
H1307 H 0.25709 0.64016 0.03939 0.0
C1308 C 0.19153 0.53817 0.06559 0.0
C1309 C 0.1809 0.57369 0.06987 0.0
C1310 C 0.20765 0.53459 0.05268 0.0
C1311 C 0.21339 0.5664 0.04381 0.0
C1312 C 0.20143 0.60139 0.04767 0.0
H1313 H 0.27059 0.57221 0.95417 0.0
H1314 H 0.24377 0.57014 0.97711 0.0
C1315 C 0.18557 0.60508 0.06061 0.0
C1316 C 0.23206 0.5632 0.03059 0.0
H1317 H 0.29228 0.60186 0.01388 0.0
C1318 C 0.22415 0.5368 0.01974 0.0
C1319 C 0.25756 0.586 0.02864 0.0
C1320 C 0.26861 0.61286 0.04031 0.0
C1321 C 0.2404 0.53354 1.0068 0.0
C1322 C 0.26487 0.55799 1.00447 0.0
C1323 C 0.27335 0.58344 0.01555 0.0
C1324 C 0.28142 0.55851 0.99049 0.0
C1325 C 0.23131 0.50363 0.99583 0.0
C1326 C 0.3118 0.55394 0.99034 0.0
C1327 C 0.3274 0.55571 0.97718 0.0
C1328 C 0.31289 0.56213 0.96392 0.0
C1329 C 0.2825 0.56687 0.96414 0.0
C1330 C 0.26702 0.56537 0.97727 0.0
H1331 H 0.21906 0.47984 1.00113 0.0
H1332 H 0.21672 0.51645 0.98762 0.0
H1333 H 0.25045 0.49193 0.99008 0.0
H1334 H 0.32345 0.54893 1.00041 0.0
H1335 H 0.35077 0.55199 0.97741 0.0
H1336 H 0.69301 0.01534 0.57106 0.0
H1337 H 0.72032 0.00742 0.54829 0.0
H1338 H 0.7161 0.1278 0.54023 0.0
H1339 H 0.68938 0.13607 0.56301 0.0
H1340 H 0.70846 0.0234 0.51953 0.0
H1341 H 0.80319 0.11009 0.53833 0.0
H1342 H 0.77469 0.09392 0.55054 0.0
H1343 H 0.76959 0.13517 0.53931 0.0
C1344 C 0.69767 0.04008 0.56437 0.0
C1345 C 0.68922 0.07641 0.56894 0.0
C1346 C 0.71336 0.03552 0.55137 0.0
C1347 C 0.72092 0.06715 0.54272 0.0
C1348 C 0.71127 0.10311 0.54692 0.0
H1349 H 0.7771 0.07765 0.45301 0.0
H1350 H 0.7507 0.0765 0.47609 0.0
C1351 C 0.69575 0.10774 0.55991 0.0
C1352 C 0.73906 0.0628 0.52937 0.0
H1353 H 0.80161 0.09531 0.51292 0.0
C1354 C 0.72893 0.0389 0.51812 0.0
C1355 C 0.7661 0.08242 0.52763 0.0
C1356 C 0.77922 0.10653 0.53965 0.0
C1357 C 0.74454 0.03519 0.505 0.0
C1358 C 0.77074 0.0565 0.50294 0.0
C1359 C 0.78139 0.07931 0.5144 0.0
C1360 C 0.78696 0.05649 0.48886 0.0
C1361 C 0.73287 0.00825 0.49351 0.0
C1362 C 0.81651 0.04674 0.48835 0.0
C1363 C 0.83189 0.04775 0.47512 0.0
C1364 C 0.81802 0.05875 0.46214 0.0
C1365 C 0.78849 0.06879 0.46275 0.0
C1366 C 0.77322 0.06786 0.47595 0.0
H1367 H 0.71848 0.98586 0.49836 0.0
H1368 H 0.71974 0.02433 0.48554 0.0
H1369 H 0.75083 0.99438 0.48753 0.0
H1370 H 0.82767 0.03818 0.4982 0.0
H1371 H 0.85459 0.0399 0.47507 0.0
H1372 H 0.2861 0.41986 0.57673 0.0
H1373 H 0.26035 0.418 0.55351 0.0
H1374 H 0.33758 0.46018 0.53157 0.0
H1375 H 0.36394 0.46126 0.55486 0.0
H1376 H 0.24738 0.47303 0.53424 0.0
H1377 H 0.31756 0.36628 0.50783 0.0
H1378 H 0.31955 0.3767 0.52708 0.0
H1379 H 0.33685 0.40805 0.51408 0.0
C1380 C 0.29776 0.42873 0.567 0.0
C1381 C 0.32725 0.44044 0.56768 0.0
C1382 C 0.2829 0.42772 0.5537 0.0
C1383 C 0.29708 0.43841 0.54073 0.0
C1384 C 0.32634 0.45098 0.54137 0.0
H1385 H 0.20232 0.47405 0.45868 0.0
H1386 H 0.2288 0.48385 0.4816 0.0
C1387 C 0.34135 0.45179 0.55471 0.0
C1388 C 0.28098 0.43604 0.52664 0.0
H1389 H 0.28063 0.39271 0.49329 0.0
C1390 C 0.25469 0.45555 0.52526 0.0
C1391 C 0.29029 0.4128 0.515 0.0
C1392 C 0.31745 0.38946 0.51606 0.0
C1393 C 0.2374 0.45231 0.51264 0.0
C1394 C 0.24697 0.42958 0.5009 0.0
C1395 C 0.27336 0.41029 0.50224 0.0
C1396 C 0.22957 0.42422 0.48731 0.0
C1397 C 0.20861 0.47225 0.51221 0.0
C1398 C 0.22138 0.38746 0.48277 0.0
C1399 C 0.20652 0.38174 0.46961 0.0
C1400 C 0.19948 0.41269 0.46067 0.0
C1401 C 0.20712 0.44961 0.46537 0.0
C1402 C 0.22221 0.45528 0.47851 0.0
H1403 H 0.20089 0.47958 0.52334 0.0
H1404 H 0.21123 0.49907 0.50595 0.0
H1405 H 0.19159 0.4544 0.50678 0.0
H1406 H 0.22678 0.36304 0.48935 0.0
H1407 H 0.20101 0.35294 0.46632 0.0
H1408 H 0.37737 0.00979 0.18449 0.0
H1409 H 0.38106 0.98895 0.20992 0.0
H1410 H 0.33452 0.0877 0.22385 0.0
H1411 H 0.33071 0.10887 0.19852 0.0
H1412 H 0.40426 0.03145 0.23631 0.0
H1413 H 0.28662 0.99122 0.23862 0.0
H1414 H 0.30619 -0.00305 0.22163 0.0
H1415 H 0.29468 0.03793 0.2316 0.0
C1416 C 0.3681 0.02726 0.19296 0.0
C1417 C 0.35356 0.0609 0.18946 0.0
C1418 C 0.37032 0.01532 0.20748 0.0
C1419 C 0.35785 0.03665 0.2187 0.0
C1420 C 0.34408 0.07073 0.2153 0.0
H1421 H 0.31885 0.02417 0.30901 0.0
H1422 H 0.32803 0.04071 0.28358 0.0
C1423 C 0.34196 0.08279 0.20082 0.0
C1424 C 0.35796 0.02264 0.23392 0.0
H1425 H 0.31231 0.99212 0.26102 0.0
C1426 C 0.38427 0.0225 0.24174 0.0
C1427 C 0.33185 0.0107 0.24084 0.0
C1428 C 0.30321 0.00881 0.23275 0.0
C1429 C 0.38486 0.0124 0.25659 0.0
C1430 C 0.35852 0.00172 0.26364 0.0
C1431 C 0.33245 0.00058 0.25562 0.0
C1432 C 0.35677 0.9939 0.27952 0.0
C1433 C 0.41335 0.01468 0.26478 0.0
C1434 C 0.37049 0.96254 0.28582 0.0
C1435 C 0.36542 0.95314 0.3005 0.0
C1436 C 0.34633 0.97479 0.30896 0.0
C1437 C 0.33357 0.00688 0.30273 0.0
C1438 C 0.3388 0.01638 0.2882 0.0
H1439 H 0.43053 0.03021 0.2585 0.0
H1440 H 0.41046 0.02899 0.27546 0.0
H1441 H 0.42101 0.98552 0.26692 0.0
H1442 H 0.38403 0.9444 0.27924 0.0
H1443 H 0.3751 0.92787 0.30496 0.0
H1444 H 0.70311 0.43946 0.19809 0.0
H1445 H 0.69548 0.45792 0.22345 0.0
H1446 H 0.60292 0.46321 0.21586 0.0
H1447 H 0.6103 0.44434 0.19039 0.0
H1448 H 0.67013 0.52628 0.23248 0.0
H1449 H 0.60862 0.4002 0.25381 0.0
H1450 H 0.62933 0.39879 0.23706 0.0
H1451 H 0.59476 0.42173 0.23749 0.0
C1452 C 0.68106 0.44413 0.20181 0.0
C1453 C 0.65731 0.44036 0.19219 0.0
C1454 C 0.67675 0.45472 0.21633 0.0
C1455 C 0.64862 0.46164 0.22159 0.0
C1456 C 0.62475 0.45739 0.2121 0.0
H1457 H 0.60986 0.54768 0.31023 0.0
H1458 H 0.60236 0.52608 0.28497 0.0
C1459 C 0.62904 0.44674 0.19753 0.0
C1460 C 0.64487 0.47533 0.23678 0.0
H1461 H 0.6184 0.45016 0.27038 0.0
C1462 C 0.65859 0.50977 0.24073 0.0
C1463 C 0.62958 0.45392 0.2475 0.0
C1464 C 0.61484 0.41646 0.24386 0.0
C1465 C 0.6582 0.52284 0.25518 0.0
C1466 C 0.64404 0.50068 0.26601 0.0
C1467 C 0.62922 0.46703 0.26201 0.0
C1468 C 0.64721 0.51034 0.28168 0.0
C1469 C 0.67355 0.55992 0.25883 0.0
C1470 C 0.67464 0.50765 0.28824 0.0
C1471 C 0.67892 0.51961 0.30258 0.0
C1472 C 0.65581 0.53435 0.31077 0.0
C1473 C 0.62799 0.53582 0.30436 0.0
C1474 C 0.62371 0.52375 0.28989 0.0
H1475 H 0.67686 0.57793 0.24899 0.0
H1476 H 0.66103 0.5761 0.26704 0.0
H1477 H 0.69528 0.55397 0.26352 0.0
H1478 H 0.69298 0.497 0.28212 0.0
H1479 H 0.70057 0.51775 0.30721 0.0
H1480 H 0.62609 0.00436 0.82996 0.0
H1481 H 0.61513 0.02938 0.80562 0.0
H1482 H 0.62156 0.91684 0.78755 0.0
H1483 H 0.63251 0.89181 0.81181 0.0
H1484 H 0.6582 0.0187 0.78279 0.0
H1485 H 0.54913 0.96216 0.76655 0.0
H1486 H 0.56011 0.9673 0.78541 0.0
H1487 H 0.57313 0.92843 0.77471 0.0
C1488 C 0.62382 0.98475 0.82092 0.0
C1489 C 0.62959 0.94604 0.82279 0.0
C1490 C 0.61784 -0.00089 0.807 0.0
C1491 C 0.61716 0.97489 0.7948 0.0
C1492 C 0.62137 0.93591 0.79683 0.0
H1493 H 0.62953 0.99111 0.701 0.0
H1494 H 0.6186 0.97191 0.7262 0.0
C1495 C 0.62769 0.92166 0.81068 0.0
C1496 C 0.61655 0.99073 0.7798 0.0
H1497 H 0.57896 0.98825 0.74761 0.0
C1498 C 0.64068 0.01258 0.77514 0.0
C1499 C 0.59395 0.98198 0.7698 0.0
C1500 C 0.56746 0.95891 0.77434 0.0
C1501 C 0.64329 0.02502 0.76065 0.0
C1502 C 0.62059 0.01654 0.75059 0.0
C1503 C 0.59624 0.995 0.75531 0.0
C1504 C 0.62247 0.02879 0.73507 0.0
C1505 C 0.67105 0.04559 0.75612 0.0
C1506 C 0.6269 0.06728 0.73154 0.0
C1507 C 0.63343 0.07813 0.71723 0.0
C1508 C 0.63471 0.05089 0.70607 0.0
C1509 C 0.62808 0.01274 0.70935 0.0
C1510 C 0.62204 0.00176 0.72376 0.0
H1511 H 0.68919 0.04019 0.76384 0.0
H1512 H 0.678 0.03686 0.74503 0.0
H1513 H 0.66734 0.07662 0.75603 0.0
H1514 H 0.62656 0.08878 0.73998 0.0
H1515 H 0.63851 0.10772 0.71495 0.0
H1516 H 0.33159 0.40986 0.71875 0.0
H1517 H 0.34628 0.42623 0.74356 0.0
H1518 H 0.4147 0.49966 0.72674 0.0
H1519 H 0.39957 0.48397 0.70171 0.0
H1520 H 0.39973 0.42073 0.75888 0.0
H1521 H 0.36506 0.57057 0.75211 0.0
H1522 H 0.35499 0.53397 0.73918 0.0
H1523 H 0.39158 0.5529 0.73948 0.0
C1524 C 0.35002 0.42914 0.7203 0.0
C1525 C 0.3645 0.44544 0.70825 0.0
C1526 C 0.35846 0.43838 0.7345 0.0
C1527 C 0.3814 0.46444 0.73702 0.0
C1528 C 0.39676 0.47973 0.72504 0.0
H1529 H 0.39542 0.56465 0.82536 0.0
H1530 H 0.41226 0.54763 0.80073 0.0
C1531 C 0.38834 0.47033 0.71074 0.0
C1532 C 0.38747 0.47684 0.75223 0.0
H1533 H 0.37606 0.55036 0.77575 0.0
C1534 C 0.39518 0.44931 0.76254 0.0
C1535 C 0.38163 0.51417 0.75699 0.0
C1536 C 0.37269 0.54471 0.74644 0.0
C1537 C 0.3956 0.45752 0.77753 0.0
C1538 C 0.38775 0.49407 0.78236 0.0
C1539 C 0.3821 0.52237 0.77201 0.0
C1540 C 0.38072 0.50171 0.79789 0.0
C1541 C 0.40336 0.42654 0.78812 0.0
C1542 C 0.35757 0.4815 0.80446 0.0
C1543 C 0.34794 0.49124 0.81836 0.0
C1544 C 0.36127 0.52132 0.82609 0.0
C1545 C 0.38512 0.54086 0.81977 0.0
C1546 C 0.39461 0.53132 0.80569 0.0
H1547 H 0.41813 0.40574 0.783 0.0
H1548 H 0.41401 0.43839 0.79805 0.0
H1549 H 0.38318 0.41099 0.79146 0.0
H1550 H 0.34607 0.45916 0.79856 0.0
H1551 H 0.32943 0.47578 0.82293 0.0
H1552 H 0.83211 0.40541 0.79903 0.0
H1553 H 0.84089 0.42926 0.77438 0.0
H1554 H 0.88484 0.52836 0.79207 0.0
H1555 H 0.87622 0.50442 0.81684 0.0
H1556 H 0.81822 0.49655 0.76469 0.0
H1557 H 0.93876 0.49851 0.75837 0.0
H1558 H 0.92029 0.47133 0.77244 0.0
H1559 H 0.9252 0.52179 0.77439 0.0
C1560 C 0.84425 0.43188 0.79767 0.0
C1561 C 0.85379 0.45279 0.80988 0.0
C1562 C 0.84922 0.44549 0.78357 0.0
C1563 C 0.8637 0.48045 0.78135 0.0
C1564 C 0.87419 0.5009 0.7935 0.0
H1565 H 0.884 0.61205 0.70056 0.0
H1566 H 0.88561 0.59114 0.72608 0.0
C1567 C 0.86936 0.4871 0.80767 0.0
C1568 C 0.86503 0.4968 0.76642 0.0
H1569 H 0.9114 0.52538 0.73917 0.0
C1570 C 0.83862 0.50281 0.75912 0.0
C1571 C 0.89164 0.50537 0.75922 0.0
C1572 C 0.92064 0.4987 0.76642 0.0
C1573 C 0.83803 0.51674 0.74479 0.0
C1574 C 0.86461 0.52437 0.73744 0.0
C1575 C 0.89107 0.51933 0.74483 0.0
C1576 C 0.86512 0.53638 0.72192 0.0
C1577 C 0.80891 0.52338 0.73768 0.0
C1578 C 0.85362 0.51221 0.7111 0.0
C1579 C 0.85259 0.52404 0.69657 0.0
C1580 C 0.86322 0.56028 0.69251 0.0
C1581 C 0.87551 0.58406 0.70332 0.0
C1582 C 0.87651 0.57214 0.71789 0.0
H1583 H 0.79124 0.52605 0.74589 0.0
H1584 H 0.80962 0.54946 0.73086 0.0
H1585 H 0.80328 0.49892 0.73051 0.0
H1586 H 0.84518 0.48423 0.71394 0.0
H1587 H 0.8432 0.50485 0.68854 0.0
H1588 H 0.18107 0.0839 0.7965 0.0
H1589 H 0.17092 0.06222 0.77169 0.0
H1590 H 0.10902 0.97922 0.7883 0.0
H1591 H 0.1195 0.00047 0.81327 0.0
H1592 H 0.15147 0.94877 0.77035 0.0
H1593 H 0.10235 0.073 0.74366 0.0
H1594 H 0.13513 0.08537 0.75337 0.0
H1595 H 0.1038 0.06769 0.76325 0.0
C1596 C 0.16475 0.06166 0.79484 0.0
C1597 C 0.15077 0.04427 0.8068 0.0
C1598 C 0.15884 0.04946 0.78065 0.0
C1599 C 0.13887 0.01952 0.77813 0.0
C1600 C 0.1242 0.00275 0.79002 0.0
H1601 H 0.11194 0.94663 0.68729 0.0
H1602 H 0.10188 0.96457 0.7126 0.0
C1603 C 0.12998 0.01517 0.80426 0.0
C1604 C 0.13618 0.00321 0.76327 0.0
H1605 H 0.12503 0.02772 0.72771 0.0
C1606 C 0.14514 0.96578 0.76105 0.0
C1607 C 0.1277 0.02529 0.75117 0.0
C1608 C 0.11642 0.06495 0.75298 0.0
C1609 C 0.14746 0.95059 0.74695 0.0
C1610 C 0.14097 0.97362 0.73478 0.0
C1611 C 0.13035 0.01026 0.73705 0.0
C1612 C 0.14673 0.96108 0.71964 0.0
C1613 C 0.15735 0.91025 0.74518 0.0
C1614 C 0.17531 0.95347 0.71522 0.0
C1615 C 0.18115 0.9433 0.7008 0.0
C1616 C 0.15851 0.94066 0.6905 0.0
C1617 C 0.12985 0.94818 0.69498 0.0
C1618 C 0.12405 0.9585 0.70941 0.0
H1619 H 0.15311 0.89325 0.7552 0.0
H1620 H 0.14624 0.89611 0.73583 0.0
H1621 H 0.18118 0.91042 0.7431 0.0
H1622 H 0.19322 0.95607 0.72288 0.0
H1623 H 0.20347 0.93789 0.6977 0.0
H1624 H 0.1822 0.49457 0.31937 0.0
H1625 H 0.16509 0.51282 0.2953 0.0
H1626 H 0.08537 0.44836 0.30215 0.0
H1627 H 0.1028 0.42918 0.32637 0.0
H1628 H 0.11181 0.4316 0.27611 0.0
H1629 H 0.10496 0.58713 0.28131 0.0
H1630 H 0.13939 0.57109 0.28788 0.0
H1631 H 0.1063 0.55615 0.29701 0.0
C1632 C 0.1608 0.48468 0.31588 0.0
C1633 C 0.14375 0.4607 0.32485 0.0
C1634 C 0.1509 0.4955 0.30215 0.0
C1635 C 0.12366 0.48267 0.29701 0.0
C1636 C 0.10627 0.4591 0.306 0.0
H1637 H 0.09708 0.56613 0.20709 0.0
H1638 H 0.08266 0.54854 0.23209 0.0
C1639 C 0.11616 0.44837 0.31987 0.0
C1640 C 0.1153 0.49095 0.28169 0.0
H1641 H 0.1153 0.56328 0.25687 0.0
C1642 C 0.11177 0.46043 0.27195 0.0
C1643 C 0.11469 0.52853 0.27623 0.0
C1644 C 0.11622 0.56256 0.28621 0.0
C1645 C 0.11032 0.46644 0.25682 0.0
C1646 C 0.11291 0.50387 0.25128 0.0
C1647 C 0.11372 0.53452 0.26108 0.0
C1648 C 0.11908 0.51148 0.23562 0.0
C1649 C 0.10723 0.43248 0.24687 0.0
C1650 C 0.14425 0.49658 0.22933 0.0
C1651 C 0.15245 0.50654 0.21517 0.0
C1652 C 0.1357 0.53169 0.20692 0.0
C1653 C 0.11008 0.54608 0.21305 0.0
C1654 C 0.10195 0.53624 0.22736 0.0
H1655 H 0.09508 0.40887 0.25233 0.0
H1656 H 0.0958 0.43979 0.2366 0.0
H1657 H 0.12922 0.4221 0.24408 0.0
H1658 H 0.15826 0.47825 0.23557 0.0
H1659 H 0.17234 0.49503 0.21078 0.0
H1660 H 0.83231 0.07227 0.31182 0.0
H1661 H 0.84874 0.05819 0.28713 0.0
H1662 H 0.91852 0.99158 0.30451 0.0
H1663 H 0.90188 0.00539 0.32945 0.0
H1664 H 0.90559 0.06934 0.273 0.0
H1665 H 0.86945 0.91766 0.27771 0.0
H1666 H 0.85706 0.95329 0.29031 0.0
H1667 H 0.89379 0.93706 0.29133 0.0
C1668 C 0.85141 0.05503 0.31042 0.0
C1669 C 0.86589 0.0401 0.32258 0.0
C1670 C 0.86082 0.0471 0.2963 0.0
C1671 C 0.88471 0.02365 0.29398 0.0
C1672 C 0.89994 0.00962 0.30608 0.0
H1673 H 0.90192 0.9292 0.20508 0.0
H1674 H 0.91749 0.94433 0.23015 0.0
C1675 C 0.89062 0.01786 0.32032 0.0
C1676 C 0.89195 0.01249 0.27881 0.0
H1677 H 0.88084 0.94045 0.25437 0.0
C1678 C 0.90085 0.04093 0.26896 0.0
C1679 C 0.88589 0.97538 0.27357 0.0
C1680 C 0.8759 0.94395 0.2837 0.0
C1681 C 0.90225 0.03378 0.2539 0.0
C1682 C 0.89398 -0.00254 0.24854 0.0
C1683 C 0.88715 0.96829 0.25848 0.0
C1684 C 0.88781 0.99085 0.23281 0.0
C1685 C 0.91154 0.06563 0.24382 0.0
C1686 C 0.86609 0.01196 0.22599 0.0
C1687 C 0.85724 0.00339 0.2118 0.0
C1688 C 0.86986 0.97348 0.20404 0.0
C1689 C 0.89224 0.95291 0.21067 0.0
C1690 C 0.90099 0.96136 0.22501 0.0
H1691 H 0.9268 0.0858 0.24939 0.0
H1692 H 0.92222 0.05467 0.23384 0.0
H1693 H 0.89206 0.08171 0.24051 0.0
H1694 H 0.85506 0.03417 0.23186 0.0
H1695 H 0.83986 0.01965 0.20702 0.0
H1696 H 0.56685 0.36342 0.14233 0.0
H1697 H 0.52942 0.31457 0.13789 0.0
H1698 H 0.56197 0.29889 0.09422 0.0
H1699 H 0.59966 0.34798 0.09851 0.0
H1700 H 0.48563 0.30913 0.11344 0.0
H1701 H 0.56555 0.19209 0.11619 0.0
H1702 H 0.57325 0.23843 0.12388 0.0
H1703 H 0.5737 0.23201 0.10448 0.0
C1704 C 0.56595 0.34991 0.13172 0.0
C1705 C 0.58638 0.35944 0.1208 0.0
C1706 C 0.5445 0.32206 0.1292 0.0
C1707 C 0.54321 0.30301 0.11579 0.0
C1708 C 0.56286 0.3132 0.10468 0.0
H1709 H 0.40323 0.13694 0.09614 0.0
H1710 H 0.44176 0.18531 0.09285 0.0
C1711 C 0.58425 0.34133 0.10714 0.0
C1712 C 0.52194 0.27143 0.11383 0.0
H1713 H 0.51602 0.17464 0.11399 0.0
C1714 C 0.4922 0.27971 0.11332 0.0
C1715 C 0.53077 0.2332 0.11384 0.0
C1716 C 0.56252 0.22307 0.1147 0.0
C1717 C 0.47091 0.25058 0.11314 0.0
C1718 C 0.47972 0.21235 0.11345 0.0
C1719 C 0.50947 0.20405 0.11365 0.0
C1720 C 0.45822 0.18081 0.11487 0.0
C1721 C 0.43911 0.26075 0.11325 0.0
C1722 C 0.45539 0.16169 0.12821 0.0
C1723 C 0.43341 0.1342 0.13017 0.0
C1724 C 0.41401 0.12514 0.11876 0.0
C1725 C 0.41778 0.14324 0.10517 0.0
C1726 C 0.43968 0.17096 0.10326 0.0
H1727 H 0.43597 0.29171 0.11474 0.0
H1728 H 0.42896 0.25206 0.10274 0.0
H1729 H 0.42745 0.24525 0.12212 0.0
H1730 H 0.46961 0.16894 0.13727 0.0
H1731 H 0.43123 0.1207 0.14075 0.0
H1732 H 0.41399 0.86025 0.35952 0.0
H1733 H 0.45181 0.81225 0.3595 0.0
H1734 H 0.44622 0.80417 0.40636 0.0
H1735 H 0.40867 0.85237 0.40657 0.0
H1736 H 0.50364 0.80688 0.39563 0.0
H1737 H 0.43578 0.69845 0.36662 0.0
H1738 H 0.43929 0.74343 0.35748 0.0
H1739 H 0.42056 0.74043 0.37467 0.0
C1740 C 0.4209 0.84847 0.36985 0.0
C1741 C 0.40808 0.86002 0.38304 0.0
C1742 C 0.44238 0.82084 0.36979 0.0
C1743 C 0.45137 0.80413 0.3829 0.0
C1744 C 0.43941 0.81652 0.39611 0.0
H1745 H 0.57299 0.63074 0.40866 0.0
H1746 H 0.53521 0.6786 0.40779 0.0
C1747 C 0.41794 0.84411 0.3962 0.0
C1748 C 0.47314 0.77357 0.3829 0.0
H1749 H 0.48494 0.68308 0.37116 0.0
C1750 C 0.49956 0.77978 0.39031 0.0
C1751 C 0.46771 0.73825 0.37595 0.0
C1752 C 0.43922 0.72945 0.36833 0.0
C1753 C 0.52089 0.75178 0.3908 0.0
C1754 C 0.51539 0.71638 0.38392 0.0
C1755 C 0.48905 0.71023 0.37644 0.0
C1756 C 0.53683 0.68545 0.38434 0.0
C1757 C 0.54935 0.76058 0.39845 0.0
C1758 C 0.54935 0.67224 0.37138 0.0
C1759 C 0.57084 0.64464 0.37181 0.0
C1760 C 0.5801 0.6296 0.38522 0.0
C1761 C 0.56656 0.64181 0.39814 0.0
C1762 C 0.54509 0.66939 0.39769 0.0
H1763 H 0.55303 0.79164 0.39989 0.0
H1764 H 0.54898 0.7473 0.40943 0.0
H1765 H 0.56801 0.74894 0.39228 0.0
H1766 H 0.54308 0.68406 0.36096 0.0
H1767 H 0.58068 0.63585 0.36164 0.0
H1768 H 0.59997 0.8377 0.92566 0.0
H1769 H 0.55921 0.79194 0.92753 0.0
H1770 H 0.53568 0.81459 0.88289 0.0
H1771 H 0.57635 0.86021 0.88084 0.0
H1772 H 0.4875 0.81221 0.90538 0.0
H1773 H 0.55917 0.68635 0.90462 0.0
H1774 H 0.56847 0.72428 0.91706 0.0
H1775 H 0.57106 0.7322 0.89777 0.0
C1776 C 0.58598 0.83325 0.91627 0.0
C1777 C 0.59156 0.85251 0.90307 0.0
C1778 C 0.5628 0.80697 0.91735 0.0
C1779 C 0.54469 0.79969 0.9053 0.0
C1780 C 0.54953 0.81976 0.89229 0.0
H1781 H 0.42106 0.6231 0.882 0.0
H1782 H 0.46153 0.6692 0.88364 0.0
C1783 C 0.57281 0.84578 0.89115 0.0
C1784 C 0.52109 0.77048 0.90608 0.0
H1785 H 0.50857 0.67454 0.90664 0.0
C1786 C 0.49204 0.78211 0.90577 0.0
C1787 C 0.52721 0.7313 0.90643 0.0
C1788 C 0.55813 0.7175 0.9064 0.0
C1789 C 0.46885 0.75546 0.9058 0.0
C1790 C 0.47497 0.71627 0.90616 0.0
C1791 C 0.50403 0.70464 0.90647 0.0
C1792 C 0.45141 0.68698 0.90562 0.0
C1793 C 0.43796 0.76923 0.90511 0.0
C1794 C 0.43273 0.68124 0.91756 0.0
C1795 C 0.40967 0.65473 0.91672 0.0
C1796 C 0.40479 0.63366 0.90386 0.0
C1797 C 0.42406 0.63893 0.89204 0.0
C1798 C 0.44723 0.66522 0.89295 0.0
H1799 H 0.43704 0.80011 0.90273 0.0
H1800 H 0.42547 0.75345 0.8966 0.0
H1801 H 0.42706 0.76382 0.91574 0.0
H1802 H 0.43581 0.69758 0.92748 0.0
H1803 H 0.39529 0.65143 0.92603 0.0
H1804 H 0.42231 0.35783 0.65118 0.0
H1805 H 0.46158 0.31247 0.64927 0.0
H1806 H 0.45266 0.31161 0.60244 0.0
H1807 H 0.41285 0.35668 0.60422 0.0
H1808 H 0.45454 0.23958 0.61418 0.0
H1809 H 0.54531 0.32849 0.63608 0.0
H1810 H 0.51433 0.32654 0.64802 0.0
H1811 H 0.51117 0.34824 0.63033 0.0
C1812 C 0.42884 0.34843 0.64043 0.0
C1813 C 0.41437 0.36107 0.62784 0.0
C1814 C 0.45147 0.32258 0.63937 0.0
C1815 C 0.46037 0.30903 0.6257 0.0
C1816 C 0.44625 0.32185 0.6131 0.0
H1817 H 0.58939 0.13796 0.60294 0.0
H1818 H 0.5514 0.18572 0.60162 0.0
C1819 C 0.42354 0.34772 0.61414 0.0
C1820 C 0.48337 0.28002 0.62471 0.0
H1821 H 0.55338 0.2617 0.63478 0.0
C1822 C 0.47627 0.24453 0.61852 0.0
C1823 C 0.51172 0.28653 0.63038 0.0
C1824 C 0.52122 0.32464 0.63644 0.0
C1825 C 0.4964 0.21495 0.61833 0.0
C1826 C 0.52446 0.2212 0.62435 0.0
C1827 C 0.53177 0.25691 0.63026 0.0
C1828 C 0.5464 0.19084 0.62501 0.0
C1829 C 0.48721 0.17686 0.61215 0.0
C1830 C 0.55626 0.17798 0.63858 0.0
C1831 C 0.57793 0.15074 0.63939 0.0
C1832 C 0.59044 0.13596 0.62662 0.0
C1833 C 0.58019 0.14854 0.613 0.0
C1834 C 0.5584 0.17578 0.61221 0.0
H1835 H 0.46321 0.17435 0.61072 0.0
H1836 H 0.49759 0.17309 0.60132 0.0
H1837 H 0.49445 0.1535 0.61935 0.0
H1838 H 0.5473 0.18929 0.64859 0.0
H1839 H 0.58525 0.14183 0.65007 0.0
H1840 H 0.92364 0.62607 0.64525 0.0
H1841 H 0.96367 0.67185 0.64149 0.0
H1842 H 0.93544 0.68965 0.59721 0.0
H1843 H 0.89528 0.64382 0.60078 0.0
H1844 H 0.0095 0.67302 0.61814 0.0
H1845 H 0.93584 0.79699 0.61827 0.0
H1846 H 0.92504 0.75154 0.62588 0.0
H1847 H 0.92652 0.75772 0.60647 0.0
C1848 C 0.92601 0.63945 0.63466 0.0
C1849 C 0.90611 0.63144 0.62334 0.0
C1850 C 0.94893 0.66553 0.63254 0.0
C1851 C 0.95224 0.68426 0.61913 0.0
C1852 C 0.93301 0.67564 0.60767 0.0
H1853 H 0.10044 0.83791 0.599 0.0
H1854 H 0.06076 0.79077 0.59609 0.0
C1855 C 0.91015 0.64937 0.60974 0.0
C1856 C 0.97525 0.71382 0.6174 0.0
H1857 H 0.98613 0.80991 0.61597 0.0
C1858 C 0.00448 0.70293 0.61748 0.0
C1859 C 0.96843 0.75274 0.61666 0.0
C1860 C 0.9373 0.76574 0.61689 0.0
C1861 C 0.02721 0.73017 0.61707 0.0
C1862 C 0.02039 0.7691 0.61656 0.0
C1863 C 0.99116 0.77995 0.61623 0.0
C1864 C 0.04328 0.79899 0.61776 0.0
C1865 C 0.05836 0.71734 0.61778 0.0
C1866 C 0.04602 0.81961 0.63077 0.0
C1867 C 0.06858 0.84633 0.63249 0.0
C1868 C 0.08872 0.85317 0.62116 0.0
C1869 C 0.0853 0.83333 0.60792 0.0
C1870 C 0.06276 0.80631 0.60626 0.0
H1871 H 0.05985 0.68632 0.61976 0.0
H1872 H 0.06947 0.72412 0.60731 0.0
H1873 H 0.07028 0.73275 0.62658 0.0
H1874 H 0.03108 0.81435 0.63973 0.0
H1875 H 0.07046 0.86123 0.6428 0.0
H1876 H 0.08711 0.13557 0.90771 0.0
H1877 H 0.04828 0.18213 0.90794 0.0
H1878 H 0.04706 0.18232 0.8609 0.0
H1879 H 0.08559 0.13549 0.86051 0.0
H1880 H 0.05157 0.25488 0.89558 0.0
H1881 H 0.96069 0.16952 0.87146 0.0
H1882 H 0.99315 0.14825 0.87868 0.0
H1883 H 0.99367 0.16978 0.86089 0.0
C1884 C 0.07834 0.14507 0.8974 0.0
C1885 C 0.08951 0.13171 0.88409 0.0
C1886 C 0.0562 0.17177 0.89756 0.0
C1887 C 0.04462 0.1854 0.88444 0.0
C1888 C 0.05533 0.17167 0.87115 0.0
H1889 H 0.9174 0.35518 0.86214 0.0
H1890 H 0.95612 0.30844 0.86178 0.0
C1891 C 0.07747 0.145 0.87096 0.0
C1892 C 0.02249 0.21547 0.88465 0.0
H1893 H 0.95319 0.2357 0.87406 0.0
C1894 C 0.02999 0.25066 0.89095 0.0
C1895 C 0.99444 0.20989 0.87853 0.0
C1896 C 0.98483 0.17223 0.87212 0.0
C1897 C 0.01032 0.28069 0.89109 0.0
C1898 C 0.98226 0.27512 0.88498 0.0
C1899 C 0.97477 0.23992 0.87868 0.0
C1900 C 0.96009 0.30515 0.88526 0.0
C1901 C 0.01996 0.31835 0.89751 0.0
C1902 C 0.94959 0.31887 0.89859 0.0
C1903 C 0.92752 0.34565 0.89885 0.0
C1904 C 0.91535 0.35903 0.88578 0.0
C1905 C 0.92627 0.34559 0.87242 0.0
C1906 C 0.94836 0.3188 0.87218 0.0
H1907 H 0.04409 0.32112 0.89809 0.0
H1908 H 0.01151 0.34235 0.891 0.0
H1909 H 0.01127 0.3207 0.90876 0.0
H1910 H 0.95796 0.30819 0.90881 0.0
H1911 H 0.91956 0.35515 0.90934 0.0
H1912 H 0.08973 0.35083 0.37955 0.0
H1913 H 0.04998 0.30389 0.38128 0.0
H1914 H 0.05539 0.30725 0.42821 0.0
H1915 H 0.09526 0.35433 0.42666 0.0
H1916 H 0.05424 0.23072 0.39589 0.0
H1917 H 0.96699 0.32072 0.41884 0.0
H1918 H 0.99862 0.34064 0.40966 0.0
H1919 H 0.00177 0.32267 0.4279 0.0
C1920 C 0.08235 0.34196 0.39027 0.0
C1921 C 0.09577 0.35644 0.40297 0.0
C1922 C 0.05964 0.31504 0.39122 0.0
C1923 C 0.04965 0.30229 0.40486 0.0
C1924 C 0.06256 0.31708 0.41758 0.0
H1925 H 0.90858 0.14018 0.42602 0.0
H1926 H 0.94992 0.18502 0.42783 0.0
C1927 C 0.08541 0.34392 0.41665 0.0
C1928 C 0.02657 0.2723 0.40568 0.0
H1929 H 0.95567 0.25569 0.41551 0.0
C1930 C 0.03269 0.23611 0.4002 0.0
C1931 C 0.99863 0.27936 0.41145 0.0
C1932 C 0.99086 0.31797 0.41723 0.0
C1933 C 0.01152 0.20677 0.40026 0.0
C1934 C 0.98324 0.2141 0.40562 0.0
C1935 C 0.97734 0.2501 0.4114 0.0
C1936 C 0.95912 0.18544 0.40467 0.0
C1937 C 0.01979 0.1681 0.39472 0.0
C1938 C 0.9505 0.17084 0.39106 0.0
C1939 C 0.92704 0.14509 0.38999 0.0
C1940 C 0.91139 0.13366 0.40251 0.0
C1941 C 0.92016 0.14821 0.41616 0.0
C1942 C 0.94375 0.17393 0.41722 0.0
H1943 H 0.04368 0.16387 0.39549 0.0
H1944 H 0.00842 0.1451 0.40091 0.0
H1945 H 0.01355 0.16553 0.38306 0.0
H1946 H 0.96154 0.17997 0.38118 0.0
H1947 H 0.92083 0.13481 0.37927 0.0
H1948 H 0.93263 0.87689 0.14732 0.0
H1949 H 0.97003 0.82838 0.14607 0.0
H1950 H 0.94047 0.79643 0.10308 0.0
H1951 H 0.90309 0.84505 0.10413 0.0
H1952 H 0.94538 0.73472 0.1257 0.0
H1953 H 0.04527 0.82521 0.11894 0.0
H1954 H 0.01974 0.83948 0.13273 0.0
H1955 H 0.00945 0.84111 0.11386 0.0
C1956 C 0.93429 0.85994 0.1375 0.0
C1957 C 0.91482 0.86494 0.12581 0.0
C1958 C 0.95572 0.83227 0.13681 0.0
C1959 C 0.95802 0.80894 0.12447 0.0
C1960 C 0.93906 0.81426 0.11268 0.0
H1961 H 0.09057 0.6426 0.1049 0.0
H1962 H 0.05338 0.69131 0.10329 0.0
C1963 C 0.9178 0.84219 0.11329 0.0
C1964 C 0.97924 0.77773 0.12422 0.0
H1965 H 0.05209 0.75965 0.12326 0.0
C1966 C 0.9687 0.7401 0.1251 0.0
C1967 C 0.0096 0.78492 0.12338 0.0
C1968 C 0.02187 0.82481 0.12207 0.0
C1969 C 0.98785 0.70945 0.12548 0.0
C1970 C 0.01824 0.71668 0.12493 0.0
C1971 C 0.02875 0.75426 0.12374 0.0
C1972 C 0.03951 0.68561 0.12574 0.0
C1973 C 0.97557 0.66949 0.12641 0.0
C1974 C 0.04386 0.66612 0.13889 0.0
C1975 C 0.06522 0.63839 0.13989 0.0
C1976 C 0.08254 0.62949 0.12772 0.0
C1977 C 0.07755 0.6485 0.11446 0.0
C1978 C 0.05639 0.67648 0.11352 0.0
H1979 H 0.95174 0.66828 0.12426 0.0
H1980 H 0.98668 0.65078 0.11849 0.0
H1981 H 0.97948 0.65809 0.13751 0.0
H1982 H 0.03117 0.67299 0.14847 0.0
H1983 H 0.06846 0.62439 0.15027 0.0
loop_
_geom_bond_atom_site_label_1
_geom_bond_atom_site_label_2
_geom_bond_distance
_geom_bond_site_symmetry_2
_ccdc_geom_bond_type
Co0 O3 1.970 . S
Co0 N17 1.989 . S
Co0 O25 1.967 . S
Co0 O32 1.920 . S
Co1 O4 1.966 . S
Co1 N10 2.022 . S
Co1 N18 1.993 . S
Co1 O26 1.941 . S
C2 O3 1.258 . S
C2 O4 1.263 . S
O3 Co0 1.970 . S
O3 C2 1.258 . S
O4 Co1 1.966 . S
O4 C2 1.263 . S
C5 O6 1.235 . S
C5 O32 1.289 . S
O6 C5 1.235 . S
C7 C9 1.400 . S
C7 N10 1.351 . S
C7 C12 1.501 . S
C8 C9 1.387 . S
C8 N11 1.341 . S
C9 C7 1.400 . S
C9 C8 1.387 . S
N10 Co1 2.022 . S
N10 C7 1.351 . S
N10 N11 1.365 . S
N11 C8 1.341 . S
N11 N10 1.365 . S
N11 H31 0.862 . S
C12 C7 1.501 . S
C12 H13 0.961 . S
C12 H14 0.961 . S
C12 H15 0.960 . S
H13 C12 0.961 . S
H14 C12 0.961 . S
H15 C12 0.960 . S
C16 N17 1.342 . S
C16 C20 1.401 1_545 S
C16 C21 1.499 . S
N17 Co0 1.989 . S
N17 C16 1.342 . S
N17 N18 1.388 . S
N18 Co1 1.993 . S
N18 N17 1.388 . S
N18 C19 1.346 . S
C19 N18 1.346 . S
C19 C20 1.396 1_545 S
C19 C29 1.510 . S
C20 C16 1.401 1_565 S
C20 C19 1.396 1_565 S
C21 C16 1.499 . S
C21 H22 0.959 . S
C21 H23 0.960 1_545 S
C21 H24 0.961 1_545 S
H22 C21 0.959 . S
H23 C21 0.960 1_565 S
H24 C21 0.961 1_565 S
O25 Co0 1.967 . S
O25 C33 1.258 . S
O26 Co1 1.941 . S
O26 C33 1.266 . S
H27 C29 0.959 1_565 S
H28 C29 0.961 . S
C29 C19 1.510 . S
C29 H27 0.959 1_545 S
C29 H28 0.961 . S
C29 H30 0.960 . S
H30 C29 0.960 . S
H31 N11 0.862 . S
O32 Co0 1.920 . S
O32 C5 1.289 . S
C33 O25 1.258 . S
C33 O26 1.266 . S
Co34 O37 1.970 . S
Co34 N51 1.989 . S
Co34 O59 1.967 . S
Co34 O66 1.920 . S
Co35 O38 1.966 . S
Co35 N44 2.022 . S
Co35 N52 1.993 . S
Co35 O60 1.941 . S
C36 O37 1.258 . S
C36 O38 1.263 . S
O37 Co34 1.970 . S
O37 C36 1.258 . S
O38 Co35 1.966 . S
O38 C36 1.263 . S
C39 O40 1.235 . S
C39 O66 1.289 . S
O40 C39 1.235 . S
C41 C43 1.400 . S
C41 N44 1.351 . S
C41 C46 1.501 . S
C42 C43 1.387 . S
C42 N45 1.341 . S
C43 C41 1.400 . S
C43 C42 1.387 . S
N44 Co35 2.022 . S
N44 C41 1.351 . S
N44 N45 1.365 . S
N45 C42 1.341 . S
N45 N44 1.365 . S
N45 H65 0.862 . S
C46 C41 1.501 . S
C46 H47 0.961 . S
C46 H48 0.961 . S
C46 H49 0.960 . S
H47 C46 0.961 . S
H48 C46 0.961 . S
H49 C46 0.960 . S
C50 N51 1.342 . S
C50 C54 1.401 . S
C50 C55 1.499 . S
N51 Co34 1.989 . S
N51 C50 1.342 . S
N51 N52 1.388 . S
N52 Co35 1.993 . S
N52 N51 1.388 . S
N52 C53 1.346 . S
C53 N52 1.346 . S
C53 C54 1.396 . S
C53 C63 1.510 . S
C54 C50 1.401 . S
C54 C53 1.396 . S
C55 C50 1.499 . S
C55 H56 0.959 . S
C55 H57 0.960 . S
C55 H58 0.961 . S
H56 C55 0.959 . S
H57 C55 0.960 . S
H58 C55 0.961 . S
O59 Co34 1.967 . S
O59 C67 1.258 . S
O60 Co35 1.941 . S
O60 C67 1.266 . S
H61 C63 0.959 . S
H62 C63 0.961 . S
C63 C53 1.510 . S
C63 H61 0.959 . S
C63 H62 0.961 . S
C63 H64 0.960 . S
H64 C63 0.960 . S
H65 N45 0.862 . S
O66 Co34 1.920 . S
O66 C39 1.289 . S
C67 O59 1.258 . S
C67 O60 1.266 . S
Co68 O71 1.970 . S
Co68 N85 1.989 . S
Co68 O93 1.967 . S
Co68 O100 1.920 . S
Co69 O72 1.966 . S
Co69 N78 2.022 . S
Co69 N86 1.993 . S
Co69 O94 1.941 . S
C70 O71 1.258 . S
C70 O72 1.263 . S
O71 Co68 1.970 . S
O71 C70 1.258 . S
O72 Co69 1.966 . S
O72 C70 1.263 . S
C73 O74 1.235 . S
C73 O100 1.289 . S
O74 C73 1.235 . S
C75 C77 1.400 . S
C75 N78 1.351 . S
C75 C80 1.501 . S
C76 C77 1.387 . S
C76 N79 1.341 . S
C77 C75 1.400 . S
C77 C76 1.387 . S
N78 Co69 2.022 . S
N78 C75 1.351 . S
N78 N79 1.365 . S
N79 C76 1.341 . S
N79 N78 1.365 . S
N79 H99 0.862 . S
C80 C75 1.501 . S
C80 H81 0.961 . S
C80 H82 0.961 . S
C80 H83 0.960 . S
H81 C80 0.961 . S
H82 C80 0.961 . S
H83 C80 0.960 . S
C84 N85 1.342 1_545 S
C84 C88 1.401 . S
C84 C89 1.499 . S
N85 Co68 1.989 . S
N85 C84 1.342 1_565 S
N85 N86 1.388 . S
N86 Co69 1.993 . S
N86 N85 1.388 . S
N86 C87 1.346 1_565 S
C87 N86 1.346 1_545 S
C87 C88 1.396 . S
C87 C97 1.510 . S
C88 C84 1.401 . S
C88 C87 1.396 . S
C89 C84 1.499 . S
C89 H90 0.959 1_545 S
C89 H91 0.960 . S
C89 H92 0.961 . S
H90 C89 0.959 1_565 S
H91 C89 0.960 . S
H92 C89 0.961 . S
O93 Co68 1.967 . S
O93 C101 1.258 . S
O94 Co69 1.941 . S
O94 C101 1.266 . S
H95 C97 0.959 . S
H96 C97 0.961 . S
C97 C87 1.510 . S
C97 H95 0.959 . S
C97 H96 0.961 . S
C97 H98 0.960 . S
H98 C97 0.960 . S
H99 N79 0.862 . S
O100 Co68 1.920 . S
O100 C73 1.289 . S
C101 O93 1.258 . S
C101 O94 1.266 . S
Co102 O105 1.970 . S
Co102 N119 1.989 . S
Co102 O127 1.967 . S
Co102 O134 1.920 . S
Co103 O106 1.966 . S
Co103 N112 2.022 . S
Co103 N120 1.993 . S
Co103 O128 1.941 . S
C104 O105 1.258 . S
C104 O106 1.263 . S
O105 Co102 1.970 . S
O105 C104 1.258 . S
O106 Co103 1.966 . S
O106 C104 1.263 . S
C107 O108 1.235 . S
C107 O134 1.289 . S
O108 C107 1.235 . S
C109 C111 1.400 . S
C109 N112 1.351 . S
C109 C114 1.501 . S
C110 C111 1.387 . S
C110 N113 1.341 . S
C111 C109 1.400 . S
C111 C110 1.387 . S
N112 Co103 2.022 . S
N112 C109 1.351 . S
N112 N113 1.365 . S
N113 C110 1.341 . S
N113 N112 1.365 . S
N113 H133 0.862 . S
C114 C109 1.501 . S
C114 H115 0.961 . S
C114 H116 0.961 . S
C114 H117 0.960 . S
H115 C114 0.961 . S
H116 C114 0.961 . S
H117 C114 0.960 . S
C118 N119 1.342 . S
C118 C122 1.401 . S
C118 C123 1.499 . S
N119 Co102 1.989 . S
N119 C118 1.342 . S
N119 N120 1.388 . S
N120 Co103 1.993 . S
N120 N119 1.388 . S
N120 C121 1.346 . S
C121 N120 1.346 . S
C121 C122 1.396 . S
C121 C131 1.510 . S
C122 C118 1.401 . S
C122 C121 1.396 . S
C123 C118 1.499 . S
C123 H124 0.959 . S
C123 H125 0.960 . S
C123 H126 0.961 . S
H124 C123 0.959 . S
H125 C123 0.960 . S
H126 C123 0.961 . S
O127 Co102 1.967 . S
O127 C135 1.258 . S
O128 Co103 1.941 . S
O128 C135 1.266 . S
H129 C131 0.959 . S
H130 C131 0.961 . S
C131 C121 1.510 . S
C131 H129 0.959 . S
C131 H130 0.961 . S
C131 H132 0.960 . S
H132 C131 0.960 . S
H133 N113 0.862 . S
O134 Co102 1.920 . S
O134 C107 1.289 . S
C135 O127 1.258 . S
C135 O128 1.266 . S
Co136 O139 1.970 . S
Co136 N153 1.989 . S
Co136 O161 1.967 . S
Co136 O168 1.920 . S
Co137 O140 1.966 . S
Co137 N146 2.022 . S
Co137 N154 1.993 . S
Co137 O162 1.941 . S
C138 O139 1.258 . S
C138 O140 1.263 . S
O139 Co136 1.970 . S
O139 C138 1.258 . S
O140 Co137 1.966 . S
O140 C138 1.263 . S
C141 O142 1.235 . S
C141 O168 1.289 . S
O142 C141 1.235 . S
C143 C145 1.400 . S
C143 N146 1.351 . S
C143 C148 1.501 . S
C144 C145 1.387 . S
C144 N147 1.341 . S
C145 C143 1.400 . S
C145 C144 1.387 . S
N146 Co137 2.022 . S
N146 C143 1.351 . S
N146 N147 1.365 . S
N147 C144 1.341 . S
N147 N146 1.365 . S
N147 H167 0.862 . S
C148 C143 1.501 . S
C148 H149 0.961 . S
C148 H150 0.961 . S
C148 H151 0.960 . S
H149 C148 0.961 . S
H150 C148 0.961 . S
H151 C148 0.960 . S
C152 N153 1.342 . S
C152 C156 1.401 1_565 S
C152 C157 1.499 . S
N153 Co136 1.989 . S
N153 C152 1.342 . S
N153 N154 1.388 . S
N154 Co137 1.993 . S
N154 N153 1.388 . S
N154 C155 1.346 . S
C155 N154 1.346 . S
C155 C156 1.396 1_565 S
C155 C165 1.510 1_565 S
C156 C152 1.401 1_545 S
C156 C155 1.396 1_545 S
C157 C152 1.499 . S
C157 H158 0.959 . S
C157 H159 0.960 1_565 S
C157 H160 0.961 . S
H158 C157 0.959 . S
H159 C157 0.960 1_545 S
H160 C157 0.961 . S
O161 Co136 1.967 . S
O161 C169 1.258 . S
O162 Co137 1.941 . S
O162 C169 1.266 . S
H163 C165 0.959 . S
H164 C165 0.961 . S
C165 C155 1.510 1_545 S
C165 H163 0.959 . S
C165 H164 0.961 . S
C165 H166 0.960 1_545 S
H166 C165 0.960 1_565 S
H167 N147 0.862 . S
O168 Co136 1.920 . S
O168 C141 1.289 . S
C169 O161 1.258 . S
C169 O162 1.266 . S
Co170 O173 1.970 . S
Co170 N187 1.989 . S
Co170 O195 1.967 . S
Co170 O202 1.920 . S
Co171 O174 1.966 . S
Co171 N180 2.022 . S
Co171 N188 1.993 . S
Co171 O196 1.941 . S
C172 O173 1.258 . S
C172 O174 1.263 . S
O173 Co170 1.970 . S
O173 C172 1.258 . S
O174 Co171 1.966 . S
O174 C172 1.263 . S
C175 O176 1.235 . S
C175 O202 1.289 . S
O176 C175 1.235 . S
C177 C179 1.400 . S
C177 N180 1.351 . S
C177 C182 1.501 . S
C178 C179 1.387 . S
C178 N181 1.341 . S
C179 C177 1.400 . S
C179 C178 1.387 . S
N180 Co171 2.022 . S
N180 C177 1.351 . S
N180 N181 1.365 . S
N181 C178 1.341 . S
N181 N180 1.365 . S
N181 H201 0.862 . S
C182 C177 1.501 . S
C182 H183 0.961 . S
C182 H184 0.961 . S
C182 H185 0.960 . S
H183 C182 0.961 . S
H184 C182 0.961 . S
H185 C182 0.960 . S
C186 N187 1.342 . S
C186 C190 1.401 . S
C186 C191 1.499 . S
N187 Co170 1.989 . S
N187 C186 1.342 . S
N187 N188 1.388 . S
N188 Co171 1.993 . S
N188 N187 1.388 . S
N188 C189 1.346 . S
C189 N188 1.346 . S
C189 C190 1.396 . S
C189 C199 1.510 . S
C190 C186 1.401 . S
C190 C189 1.396 . S
C191 C186 1.499 . S
C191 H192 0.959 . S
C191 H193 0.960 . S
C191 H194 0.961 . S
H192 C191 0.959 . S
H193 C191 0.960 . S
H194 C191 0.961 . S
O195 Co170 1.967 . S
O195 C203 1.258 . S
O196 Co171 1.941 . S
O196 C203 1.266 . S
H197 C199 0.959 . S
H198 C199 0.961 . S
C199 C189 1.510 . S
C199 H197 0.959 . S
C199 H198 0.961 . S
C199 H200 0.960 . S
H200 C199 0.960 . S
H201 N181 0.862 . S
O202 Co170 1.920 . S
O202 C175 1.289 . S
C203 O195 1.258 . S
C203 O196 1.266 . S
Co204 O207 1.970 . S
Co204 N221 1.989 . S
Co204 O229 1.967 . S
Co204 O236 1.920 . S
Co205 O208 1.966 . S
Co205 N214 2.022 . S
Co205 N222 1.993 . S
Co205 O230 1.941 . S
C206 O207 1.258 . S
C206 O208 1.263 . S
O207 Co204 1.970 . S
O207 C206 1.258 . S
O208 Co205 1.966 . S
O208 C206 1.263 . S
C209 O210 1.235 . S
C209 O236 1.289 . S
O210 C209 1.235 . S
C211 C213 1.400 . S
C211 N214 1.351 . S
C211 C216 1.501 . S
C212 C213 1.387 . S
C212 N215 1.341 . S
C213 C211 1.400 . S
C213 C212 1.387 . S
N214 Co205 2.022 . S
N214 C211 1.351 . S
N214 N215 1.365 . S
N215 C212 1.341 . S
N215 N214 1.365 . S
N215 H235 0.862 . S
C216 C211 1.501 . S
C216 H217 0.961 . S
C216 H218 0.961 . S
C216 H219 0.960 . S
H217 C216 0.961 . S
H218 C216 0.961 . S
H219 C216 0.960 . S
C220 N221 1.342 . S
C220 C224 1.401 . S
C220 C225 1.499 . S
N221 Co204 1.989 . S
N221 C220 1.342 . S
N221 N222 1.388 . S
N222 Co205 1.993 . S
N222 N221 1.388 . S
N222 C223 1.346 . S
C223 N222 1.346 . S
C223 C224 1.396 . S
C223 C233 1.510 . S
C224 C220 1.401 . S
C224 C223 1.396 . S
C225 C220 1.499 . S
C225 H226 0.959 . S
C225 H227 0.947 1_545 S
C225 H228 0.961 . S
H226 C225 0.959 . S
H227 C225 0.947 1_565 S
H228 C225 0.961 . S
O229 Co204 1.967 . S
O229 C237 1.258 . S
O230 Co205 1.941 . S
O230 C237 1.266 . S
H231 C233 0.959 . S
H232 C233 0.961 1_565 S
C233 C223 1.510 . S
C233 H231 0.959 . S
C233 H232 0.961 1_545 S
C233 H234 0.960 . S
H234 C233 0.960 . S
H235 N215 0.862 . S
O236 Co204 1.920 . S
O236 C209 1.289 . S
C237 O229 1.258 . S
C237 O230 1.266 . S
Co238 O241 1.970 . S
Co238 N255 1.989 . S
Co238 O263 1.967 . S
Co238 O270 1.920 . S
Co239 O242 1.966 . S
Co239 N248 2.022 . S
Co239 N256 1.993 . S
Co239 O264 1.941 . S
C240 O241 1.258 . S
C240 O242 1.263 . S
O241 Co238 1.970 . S
O241 C240 1.258 . S
O242 Co239 1.966 . S
O242 C240 1.263 . S
C243 O244 1.235 . S
C243 O270 1.289 . S
O244 C243 1.235 . S
C245 C247 1.400 . S
C245 N248 1.351 . S
C245 C250 1.501 . S
C246 C247 1.387 . S
C246 N249 1.341 . S
C247 C245 1.400 . S
C247 C246 1.387 . S
N248 Co239 2.022 . S
N248 C245 1.351 . S
N248 N249 1.365 . S
N249 C246 1.341 . S
N249 N248 1.365 . S
N249 H269 0.862 . S
C250 C245 1.501 . S
C250 H251 0.961 . S
C250 H252 0.961 . S
C250 H253 0.960 . S
H251 C250 0.961 . S
H252 C250 0.961 . S
H253 C250 0.960 . S
C254 N255 1.342 . S
C254 C258 1.401 . S
C254 C259 1.499 . S
N255 Co238 1.989 . S
N255 C254 1.342 . S
N255 N256 1.388 . S
N256 Co239 1.993 . S
N256 N255 1.388 . S
N256 C257 1.346 . S
C257 N256 1.346 . S
C257 C258 1.396 . S
C257 C267 1.510 . S
C258 C254 1.401 . S
C258 C257 1.396 . S
C259 C254 1.499 . S
C259 H260 0.959 . S
C259 H261 0.960 . S
C259 H262 0.961 . S
H260 C259 0.959 . S
H261 C259 0.960 . S
H262 C259 0.961 . S
O263 Co238 1.967 . S
O263 C271 1.258 . S
O264 Co239 1.941 . S
O264 C271 1.266 . S
H265 C267 0.959 . S
H266 C267 0.961 . S
C267 C257 1.510 . S
C267 H265 0.959 . S
C267 H266 0.961 . S
C267 H268 0.960 . S
H268 C267 0.960 . S
H269 N249 0.862 . S
O270 Co238 1.920 . S
O270 C243 1.289 . S
C271 O263 1.258 . S
C271 O264 1.266 . S
Co272 O275 1.970 . S
Co272 N289 1.989 . S
Co272 O297 1.967 . S
Co272 O304 1.920 . S
Co273 O276 1.966 . S
Co273 N282 2.022 . S
Co273 N290 1.993 . S
Co273 O298 1.941 . S
C274 O275 1.258 . S
C274 O276 1.263 . S
O275 Co272 1.970 . S
O275 C274 1.258 . S
O276 Co273 1.966 . S
O276 C274 1.263 . S
C277 O278 1.235 . S
C277 O304 1.289 . S
O278 C277 1.235 . S
C279 C281 1.400 . S
C279 N282 1.351 . S
C279 C284 1.501 . S
C280 C281 1.387 . S
C280 N283 1.341 . S
C281 C279 1.400 . S
C281 C280 1.387 . S
N282 Co273 2.022 . S
N282 C279 1.351 . S
N282 N283 1.365 . S
N283 C280 1.341 . S
N283 N282 1.365 . S
N283 H303 0.862 . S
C284 C279 1.501 . S
C284 H285 0.961 . S
C284 H286 0.961 . S
C284 H287 0.960 . S
H285 C284 0.961 . S
H286 C284 0.961 . S
H287 C284 0.960 . S
C288 N289 1.342 . S
C288 C292 1.401 . S
C288 C293 1.499 . S
N289 Co272 1.989 . S
N289 C288 1.342 . S
N289 N290 1.388 . S
N290 Co273 1.993 . S
N290 N289 1.388 . S
N290 C291 1.346 . S
C291 N290 1.346 . S
C291 C292 1.396 . S
C291 C301 1.510 . S
C292 C288 1.401 . S
C292 C291 1.396 . S
C293 C288 1.499 . S
C293 H294 0.959 . S
C293 H295 0.960 . S
C293 H296 0.961 . S
H294 C293 0.959 . S
H295 C293 0.960 . S
H296 C293 0.961 . S
O297 Co272 1.967 . S
O297 C305 1.258 . S
O298 Co273 1.941 . S
O298 C305 1.266 . S
H299 C301 0.959 . S
H300 C301 0.961 . S
C301 C291 1.510 . S
C301 H299 0.959 . S
C301 H300 0.961 . S
C301 H302 0.960 . S
H302 C301 0.960 . S
H303 N283 0.862 . S
O304 Co272 1.920 . S
O304 C277 1.289 . S
C305 O297 1.258 . S
C305 O298 1.266 . S
Co306 O309 1.970 . S
Co306 N323 1.989 . S
Co306 O331 1.967 . S
Co306 O338 1.920 . S
Co307 O310 1.966 . S
Co307 N316 2.022 . S
Co307 N324 1.993 . S
Co307 O332 1.941 . S
C308 O309 1.258 . S
C308 O310 1.263 . S
O309 Co306 1.970 . S
O309 C308 1.258 . S
O310 Co307 1.966 . S
O310 C308 1.263 . S
C311 O312 1.235 . S
C311 O338 1.289 . S
O312 C311 1.235 . S
C313 C315 1.400 . S
C313 N316 1.351 . S
C313 C318 1.501 . S
C314 C315 1.387 . S
C314 N317 1.341 . S
C315 C313 1.400 . S
C315 C314 1.387 . S
N316 Co307 2.022 . S
N316 C313 1.351 . S
N316 N317 1.365 . S
N317 C314 1.341 . S
N317 N316 1.365 . S
N317 H337 0.862 . S
C318 C313 1.501 . S
C318 H319 0.961 . S
C318 H320 0.961 . S
C318 H321 0.960 . S
H319 C318 0.961 . S
H320 C318 0.961 . S
H321 C318 0.960 . S
C322 N323 1.342 . S
C322 C326 1.401 1_565 S
C322 C327 1.499 . S
N323 Co306 1.989 . S
N323 C322 1.342 . S
N323 N324 1.388 . S
N324 Co307 1.993 . S
N324 N323 1.388 . S
N324 C325 1.346 . S
C325 N324 1.346 . S
C325 C326 1.396 1_565 S
C325 C335 1.510 . S
C326 C322 1.401 1_545 S
C326 C325 1.396 1_545 S
C327 C322 1.499 . S
C327 H328 0.959 . S
C327 H329 0.960 1_565 S
C327 H330 0.961 1_565 S
H328 C327 0.959 . S
H329 C327 0.960 1_545 S
H330 C327 0.961 1_545 S
O331 Co306 1.967 . S
O331 C339 1.258 . S
O332 Co307 1.941 . S
O332 C339 1.266 . S
H333 C335 0.959 1_545 S
H334 C335 0.961 . S
C335 C325 1.510 . S
C335 H333 0.959 1_565 S
C335 H334 0.961 . S
C335 H336 0.960 . S
H336 C335 0.960 . S
H337 N317 0.862 . S
O338 Co306 1.920 . S
O338 C311 1.289 . S
C339 O331 1.258 . S
C339 O332 1.266 . S
Co340 O343 1.970 . S
Co340 N357 1.989 . S
Co340 O365 1.967 . S
Co340 O372 1.920 . S
Co341 O344 1.966 . S
Co341 N350 2.022 . S
Co341 N358 1.993 . S
Co341 O366 1.941 . S
C342 O343 1.258 . S
C342 O344 1.263 . S
O343 Co340 1.970 . S
O343 C342 1.258 . S
O344 Co341 1.966 . S
O344 C342 1.263 . S
C345 O346 1.235 . S
C345 O372 1.289 . S
O346 C345 1.235 . S
C347 C349 1.400 . S
C347 N350 1.351 . S
C347 C352 1.501 . S
C348 C349 1.387 . S
C348 N351 1.341 . S
C349 C347 1.400 . S
C349 C348 1.387 . S
N350 Co341 2.022 . S
N350 C347 1.351 . S
N350 N351 1.365 . S
N351 C348 1.341 . S
N351 N350 1.365 . S
N351 H371 0.862 . S
C352 C347 1.501 . S
C352 H353 0.961 . S
C352 H354 0.961 . S
C352 H355 0.960 . S
H353 C352 0.961 . S
H354 C352 0.961 . S
H355 C352 0.960 . S
C356 N357 1.342 . S
C356 C360 1.401 . S
C356 C361 1.499 . S
N357 Co340 1.989 . S
N357 C356 1.342 . S
N357 N358 1.388 . S
N358 Co341 1.993 . S
N358 N357 1.388 . S
N358 C359 1.346 . S
C359 N358 1.346 . S
C359 C360 1.396 . S
C359 C369 1.510 . S
C360 C356 1.401 . S
C360 C359 1.396 . S
C361 C356 1.499 . S
C361 H362 0.959 . S
C361 H363 0.960 . S
C361 H364 0.961 . S
H362 C361 0.959 . S
H363 C361 0.960 . S
H364 C361 0.961 . S
O365 Co340 1.967 . S
O365 C373 1.258 . S
O366 Co341 1.941 . S
O366 C373 1.266 . S
H367 C369 0.959 . S
H368 C369 0.961 . S
C369 C359 1.510 . S
C369 H367 0.959 . S
C369 H368 0.961 . S
C369 H370 0.960 . S
H370 C369 0.960 . S
H371 N351 0.862 . S
O372 Co340 1.920 . S
O372 C345 1.289 . S
C373 O365 1.258 . S
C373 O366 1.266 . S
Co374 O377 1.970 . S
Co374 N391 1.989 . S
Co374 O399 1.967 . S
Co374 O406 1.920 . S
Co375 O378 1.966 . S
Co375 N384 2.022 . S
Co375 N392 1.993 . S
Co375 O400 1.941 . S
C376 O377 1.258 . S
C376 O378 1.263 . S
O377 Co374 1.970 . S
O377 C376 1.258 . S
O378 Co375 1.966 . S
O378 C376 1.263 . S
C379 O380 1.235 . S
C379 O406 1.289 . S
O380 C379 1.235 . S
C381 C383 1.400 . S
C381 N384 1.351 . S
C381 C386 1.501 . S
C382 C383 1.387 . S
C382 N385 1.341 . S
C383 C381 1.400 . S
C383 C382 1.387 . S
N384 Co375 2.022 . S
N384 C381 1.351 . S
N384 N385 1.365 . S
N385 C382 1.341 . S
N385 N384 1.365 . S
N385 H405 0.862 . S
C386 C381 1.501 . S
C386 H387 0.961 . S
C386 H388 0.961 . S
C386 H389 0.960 . S
H387 C386 0.961 . S
H388 C386 0.961 . S
H389 C386 0.960 . S
C390 N391 1.342 1_565 S
C390 C394 1.401 . S
C390 C395 1.499 . S
N391 Co374 1.989 . S
N391 C390 1.342 1_545 S
N391 N392 1.388 . S
N392 Co375 1.993 . S
N392 N391 1.388 . S
N392 C393 1.346 1_545 S
C393 N392 1.346 1_565 S
C393 C394 1.396 . S
C393 C403 1.510 . S
C394 C390 1.401 . S
C394 C393 1.396 . S
C395 C390 1.499 . S
C395 H396 0.959 1_565 S
C395 H397 0.960 . S
C395 H398 0.961 . S
H396 C395 0.959 1_545 S
H397 C395 0.960 . S
H398 C395 0.961 . S
O399 Co374 1.967 . S
O399 C407 1.258 . S
O400 Co375 1.941 . S
O400 C407 1.266 . S
H401 C403 0.959 . S
H402 C403 0.961 . S
C403 C393 1.510 . S
C403 H401 0.959 . S
C403 H402 0.961 . S
C403 H404 0.960 . S
H404 C403 0.960 . S
H405 N385 0.862 . S
O406 Co374 1.920 . S
O406 C379 1.289 . S
C407 O399 1.258 . S
C407 O400 1.266 . S
Co408 O411 1.970 . S
Co408 N425 1.989 . S
Co408 O433 1.967 . S
Co408 O440 1.920 . S
Co409 O412 1.966 . S
Co409 N418 2.022 . S
Co409 N426 1.993 . S
Co409 O434 1.941 . S
C410 O411 1.258 . S
C410 O412 1.263 . S
O411 Co408 1.970 . S
O411 C410 1.258 . S
O412 Co409 1.966 . S
O412 C410 1.263 . S
C413 O414 1.235 . S
C413 O440 1.289 . S
O414 C413 1.235 . S
C415 C417 1.400 . S
C415 N418 1.351 . S
C415 C420 1.501 . S
C416 C417 1.387 . S
C416 N419 1.341 . S
C417 C415 1.400 . S
C417 C416 1.387 . S
N418 Co409 2.022 . S
N418 C415 1.351 . S
N418 N419 1.365 . S
N419 C416 1.341 . S
N419 N418 1.365 . S
N419 H439 0.862 . S
C420 C415 1.501 . S
C420 H421 0.961 . S
C420 H422 0.961 . S
C420 H423 0.960 . S
H421 C420 0.961 . S
H422 C420 0.961 . S
H423 C420 0.960 . S
C424 N425 1.342 . S
C424 C428 1.401 . S
C424 C429 1.499 . S
N425 Co408 1.989 . S
N425 C424 1.342 . S
N425 N426 1.388 . S
N426 Co409 1.993 . S
N426 N425 1.388 . S
N426 C427 1.346 . S
C427 N426 1.346 . S
C427 C428 1.396 . S
C427 C437 1.510 . S
C428 C424 1.401 . S
C428 C427 1.396 . S
C429 C424 1.499 . S
C429 H430 0.959 . S
C429 H431 0.960 . S
C429 H432 0.961 . S
H430 C429 0.959 . S
H431 C429 0.960 . S
H432 C429 0.961 . S
O433 Co408 1.967 . S
O433 C441 1.258 . S
O434 Co409 1.941 . S
O434 C441 1.266 . S
H435 C437 0.959 . S
H436 C437 0.961 . S
C437 C427 1.510 . S
C437 H435 0.959 . S
C437 H436 0.961 . S
C437 H438 0.960 . S
H438 C437 0.960 . S
H439 N419 0.862 . S
O440 Co408 1.920 . S
O440 C413 1.289 . S
C441 O433 1.258 . S
C441 O434 1.266 . S
Co442 O445 1.970 . S
Co442 N459 1.989 . S
Co442 O467 1.967 . S
Co442 O474 1.920 . S
Co443 O446 1.966 . S
Co443 N452 2.022 . S
Co443 N460 1.993 . S
Co443 O468 1.941 . S
C444 O445 1.258 . S
C444 O446 1.263 . S
O445 Co442 1.970 . S
O445 C444 1.258 . S
O446 Co443 1.966 . S
O446 C444 1.263 . S
C447 O448 1.235 . S
C447 O474 1.289 . S
O448 C447 1.235 . S
C449 C451 1.400 . S
C449 N452 1.351 . S
C449 C454 1.501 . S
C450 C451 1.387 . S
C450 N453 1.341 . S
C451 C449 1.400 . S
C451 C450 1.387 . S
N452 Co443 2.022 . S
N452 C449 1.351 . S
N452 N453 1.365 . S
N453 C450 1.341 . S
N453 N452 1.365 . S
N453 H473 0.862 . S
C454 C449 1.501 . S
C454 H455 0.961 . S
C454 H456 0.961 . S
C454 H457 0.960 . S
H455 C454 0.961 . S
H456 C454 0.961 . S
H457 C454 0.960 . S
C458 N459 1.342 . S
C458 C462 1.401 1_545 S
C458 C463 1.499 . S
N459 Co442 1.989 . S
N459 C458 1.342 . S
N459 N460 1.388 . S
N460 Co443 1.993 . S
N460 N459 1.388 . S
N460 C461 1.346 . S
C461 N460 1.346 . S
C461 C462 1.396 1_545 S
C461 C471 1.510 1_545 S
C462 C458 1.401 1_565 S
C462 C461 1.396 1_565 S
C463 C458 1.499 . S
C463 H464 0.959 . S
C463 H465 0.960 1_545 S
C463 H466 0.961 . S
H464 C463 0.959 . S
H465 C463 0.960 1_565 S
H466 C463 0.961 . S
O467 Co442 1.967 . S
O467 C475 1.258 . S
O468 Co443 1.941 . S
O468 C475 1.266 . S
H469 C471 0.959 . S
H470 C471 0.961 . S
C471 C461 1.510 1_565 S
C471 H469 0.959 . S
C471 H470 0.961 . S
C471 H472 0.960 1_565 S
H472 C471 0.960 1_545 S
H473 N453 0.862 . S
O474 Co442 1.920 . S
O474 C447 1.289 . S
C475 O467 1.258 . S
C475 O468 1.266 . S
Co476 O479 1.970 . S
Co476 N493 1.989 . S
Co476 O501 1.967 . S
Co476 O508 1.920 . S
Co477 O480 1.966 . S
Co477 N486 2.022 . S
Co477 N494 1.993 . S
Co477 O502 1.941 . S
C478 O479 1.258 . S
C478 O480 1.263 . S
O479 Co476 1.970 . S
O479 C478 1.258 . S
O480 Co477 1.966 . S
O480 C478 1.263 . S
C481 O482 1.235 . S
C481 O508 1.289 . S
O482 C481 1.235 . S
C483 C485 1.400 . S
C483 N486 1.351 . S
C483 C488 1.501 . S
C484 C485 1.387 . S
C484 N487 1.341 . S
C485 C483 1.400 . S
C485 C484 1.387 . S
N486 Co477 2.022 . S
N486 C483 1.351 . S
N486 N487 1.365 . S
N487 C484 1.341 . S
N487 N486 1.365 . S
N487 H507 0.862 . S
C488 C483 1.501 . S
C488 H489 0.961 . S
C488 H490 0.961 . S
C488 H491 0.960 . S
H489 C488 0.961 . S
H490 C488 0.961 . S
H491 C488 0.960 . S
C492 N493 1.342 . S
C492 C496 1.401 . S
C492 C497 1.499 . S
N493 Co476 1.989 . S
N493 C492 1.342 . S
N493 N494 1.388 . S
N494 Co477 1.993 . S
N494 N493 1.388 . S
N494 C495 1.346 . S
C495 N494 1.346 . S
C495 C496 1.396 . S
C495 C505 1.510 . S
C496 C492 1.401 . S
C496 C495 1.396 . S
C497 C492 1.499 . S
C497 H498 0.959 . S
C497 H499 0.960 . S
C497 H500 0.961 . S
H498 C497 0.959 . S
H499 C497 0.960 . S
H500 C497 0.961 . S
O501 Co476 1.967 . S
O501 C509 1.258 . S
O502 Co477 1.941 . S
O502 C509 1.266 . S
H503 C505 0.959 . S
H504 C505 0.961 . S
C505 C495 1.510 . S
C505 H503 0.959 . S
C505 H504 0.961 . S
C505 H506 0.960 . S
H506 C505 0.960 . S
H507 N487 0.862 . S
O508 Co476 1.920 . S
O508 C481 1.289 . S
C509 O501 1.258 . S
C509 O502 1.266 . S
Co510 O513 1.970 . S
Co510 N527 1.989 . S
Co510 O535 1.967 . S
Co510 O542 1.920 . S
Co511 O514 1.966 . S
Co511 N520 2.022 . S
Co511 N528 1.993 . S
Co511 O536 1.941 . S
C512 O513 1.258 . S
C512 O514 1.263 . S
O513 Co510 1.970 . S
O513 C512 1.258 . S
O514 Co511 1.966 . S
O514 C512 1.263 . S
C515 O516 1.235 . S
C515 O542 1.289 . S
O516 C515 1.235 . S
C517 C519 1.400 . S
C517 N520 1.351 . S
C517 C522 1.501 . S
C518 C519 1.387 . S
C518 N521 1.341 . S
C519 C517 1.400 . S
C519 C518 1.387 . S
N520 Co511 2.022 . S
N520 C517 1.351 . S
N520 N521 1.365 . S
N521 C518 1.341 . S
N521 N520 1.365 . S
N521 H541 0.862 . S
C522 C517 1.501 . S
C522 H523 0.961 . S
C522 H524 0.961 . S
C522 H525 0.960 . S
H523 C522 0.961 . S
H524 C522 0.961 . S
H525 C522 0.960 . S
C526 N527 1.342 . S
C526 C530 1.401 . S
C526 C531 1.499 . S
N527 Co510 1.989 . S
N527 C526 1.342 . S
N527 N528 1.388 . S
N528 Co511 1.993 . S
N528 N527 1.388 . S
N528 C529 1.346 . S
C529 N528 1.346 . S
C529 C530 1.396 . S
C529 C539 1.510 . S
C530 C526 1.401 . S
C530 C529 1.396 . S
C531 C526 1.499 . S
C531 H532 0.959 . S
C531 H533 0.947 1_565 S
C531 H534 0.961 . S
H532 C531 0.959 . S
H533 C531 0.947 1_545 S
H534 C531 0.961 . S
O535 Co510 1.967 . S
O535 C543 1.258 . S
O536 Co511 1.941 . S
O536 C543 1.266 . S
H537 C539 0.959 . S
H538 C539 0.961 1_545 S
C539 C529 1.510 . S
C539 H537 0.959 . S
C539 H538 0.961 1_565 S
C539 H540 0.960 . S
H540 C539 0.960 . S
H541 N521 0.862 . S
O542 Co510 1.920 . S
O542 C515 1.289 . S
C543 O535 1.258 . S
C543 O536 1.266 . S
H544 C552 0.929 . S
H545 C554 0.930 . S
H546 C556 0.930 . S
H547 C559 0.929 . S
H548 C562 0.930 . S
H549 C564 0.960 . S
H550 C564 0.960 . S
H551 C564 0.960 . S
C552 H544 0.929 . S
C552 C553 1.377 . S
C552 C554 1.384 . S
C553 C552 1.377 . S
C553 C559 1.390 . S
C554 H545 0.930 . S
C554 C552 1.384 . S
C554 C555 1.372 . S
C555 C554 1.372 . S
C555 C556 1.400 . S
C555 C560 1.490 . S
C556 H546 0.930 . S
C556 C555 1.400 . S
C556 C559 1.386 . S
H557 C573 0.930 . S
H558 C574 0.931 . S
C559 H547 0.929 . S
C559 C553 1.390 . S
C559 C556 1.386 . S
C560 C555 1.490 . S
C560 C562 1.395 . S
C560 C563 1.403 . S
H561 C567 0.930 . S
C562 H548 0.930 . S
C562 C560 1.395 . S
C562 C565 1.403 . S
C563 C560 1.403 . S
C563 C564 1.524 . S
C563 C567 1.400 . S
C564 H549 0.960 . S
C564 H550 0.960 . S
C564 H551 0.960 . S
C564 C563 1.524 . S
C565 C562 1.403 . S
C565 C566 1.392 . S
C565 C569 1.495 . S
C566 C565 1.392 . S
C566 C567 1.385 . S
C566 C568 1.478 . S
C567 H561 0.930 . S
C567 C563 1.400 . S
C567 C566 1.385 . S
C568 C566 1.478 . S
C568 C570 1.381 . S
C568 C574 1.383 . S
C569 C565 1.495 . S
C569 H575 0.959 . S
C569 H576 0.961 . S
C569 H577 0.960 . S
C570 C568 1.381 . S
C570 C571 1.394 . S
C570 H578 0.930 . S
C571 C570 1.394 . S
C571 C572 1.383 . S
C571 H579 0.929 . S
C572 C571 1.383 . S
C572 C573 1.377 . S
C573 H557 0.930 . S
C573 C572 1.377 . S
C573 C574 1.379 . S
C574 H558 0.931 . S
C574 C568 1.383 . S
C574 C573 1.379 . S
H575 C569 0.959 . S
H576 C569 0.961 . S
H577 C569 0.960 . S
H578 C570 0.930 . S
H579 C571 0.929 . S
H580 C588 0.929 . S
H581 C590 0.930 . S
H582 C592 0.930 . S
H583 C595 0.929 . S
H584 C598 0.930 . S
H585 C600 0.960 . S
H586 C600 0.960 . S
H587 C600 0.960 . S
C588 H580 0.929 . S
C588 C589 1.377 . S
C588 C590 1.384 . S
C589 C588 1.377 . S
C589 C595 1.390 . S
C590 H581 0.930 . S
C590 C588 1.384 . S
C590 C591 1.372 . S
C591 C590 1.372 . S
C591 C592 1.400 . S
C591 C596 1.490 . S
C592 H582 0.930 . S
C592 C591 1.400 . S
C592 C595 1.386 . S
H593 C609 0.930 . S
H594 C610 0.931 . S
C595 H583 0.929 . S
C595 C589 1.390 . S
C595 C592 1.386 . S
C596 C591 1.490 . S
C596 C598 1.395 . S
C596 C599 1.403 . S
H597 C603 0.930 . S
C598 H584 0.930 . S
C598 C596 1.395 . S
C598 C601 1.403 . S
C599 C596 1.403 . S
C599 C600 1.524 . S
C599 C603 1.400 . S
C600 H585 0.960 . S
C600 H586 0.960 . S
C600 H587 0.960 . S
C600 C599 1.524 . S
C601 C598 1.403 . S
C601 C602 1.392 . S
C601 C605 1.495 . S
C602 C601 1.392 . S
C602 C603 1.385 . S
C602 C604 1.478 . S
C603 H597 0.930 . S
C603 C599 1.400 . S
C603 C602 1.385 . S
C604 C602 1.478 . S
C604 C606 1.381 . S
C604 C610 1.383 . S
C605 C601 1.495 . S
C605 H611 0.959 . S
C605 H612 0.961 . S
C605 H613 0.960 . S
C606 C604 1.381 . S
C606 C607 1.394 . S
C606 H614 0.930 . S
C607 C606 1.394 . S
C607 C608 1.383 . S
C607 H615 0.929 . S
C608 C607 1.383 . S
C608 C609 1.377 . S
C609 H593 0.930 . S
C609 C608 1.377 . S
C609 C610 1.379 . S
C610 H594 0.931 . S
C610 C604 1.383 . S
C610 C609 1.379 . S
H611 C605 0.959 . S
H612 C605 0.961 . S
H613 C605 0.960 . S
H614 C606 0.930 . S
H615 C607 0.929 . S
H616 C624 0.929 . S
H617 C626 0.930 . S
H618 C628 0.930 . S
H619 C631 0.929 . S
H620 C634 0.930 . S
H621 C636 0.960 . S
H622 C636 0.960 . S
H623 C636 0.960 . S
C624 H616 0.929 . S
C624 C625 1.377 . S
C624 C626 1.384 . S
C625 C624 1.377 . S
C625 C631 1.390 . S
C626 H617 0.930 . S
C626 C624 1.384 . S
C626 C627 1.372 . S
C627 C626 1.372 . S
C627 C628 1.400 . S
C627 C632 1.490 . S
C628 H618 0.930 . S
C628 C627 1.400 . S
C628 C631 1.386 . S
H629 C645 0.930 . S
H630 C646 0.931 . S
C631 H619 0.929 . S
C631 C625 1.390 . S
C631 C628 1.386 . S
C632 C627 1.490 . S
C632 C634 1.395 . S
C632 C635 1.403 . S
H633 C639 0.930 . S
C634 H620 0.930 . S
C634 C632 1.395 . S
C634 C637 1.403 . S
C635 C632 1.403 . S
C635 C636 1.524 . S
C635 C639 1.400 . S
C636 H621 0.960 . S
C636 H622 0.960 . S
C636 H623 0.960 . S
C636 C635 1.524 . S
C637 C634 1.403 . S
C637 C638 1.392 . S
C637 C641 1.495 . S
C638 C637 1.392 . S
C638 C639 1.385 . S
C638 C640 1.478 . S
C639 H633 0.930 . S
C639 C635 1.400 . S
C639 C638 1.385 . S
C640 C638 1.478 . S
C640 C642 1.381 . S
C640 C646 1.383 . S
C641 C637 1.495 . S
C641 H647 0.959 . S
C641 H648 0.961 . S
C641 H649 0.960 . S
C642 C640 1.381 . S
C642 C643 1.394 . S
C642 H650 0.930 . S
C643 C642 1.394 . S
C643 C644 1.383 . S
C643 H651 0.929 . S
C644 C643 1.383 . S
C644 C645 1.377 . S
C645 H629 0.930 . S
C645 C644 1.377 . S
C645 C646 1.379 . S
C646 H630 0.931 . S
C646 C640 1.383 . S
C646 C645 1.379 . S
H647 C641 0.959 . S
H648 C641 0.961 . S
H649 C641 0.960 . S
H650 C642 0.930 . S
H651 C643 0.929 . S
H652 C660 0.929 . S
H653 C662 0.930 . S
H654 C664 0.930 . S
H655 C667 0.929 . S
H656 C670 0.930 . S
H657 C672 0.960 . S
H658 C672 0.960 . S
H659 C672 0.960 . S
C660 H652 0.929 . S
C660 C661 1.377 . S
C660 C662 1.384 . S
C661 C660 1.377 . S
C661 C667 1.390 . S
C662 H653 0.930 . S
C662 C660 1.384 . S
C662 C663 1.372 . S
C663 C662 1.372 . S
C663 C664 1.400 . S
C663 C668 1.490 . S
C664 H654 0.930 . S
C664 C663 1.400 . S
C664 C667 1.386 . S
H665 C681 0.930 . S
H666 C682 0.931 . S
C667 H655 0.929 . S
C667 C661 1.390 . S
C667 C664 1.386 . S
C668 C663 1.490 . S
C668 C670 1.395 . S
C668 C671 1.403 . S
H669 C675 0.930 . S
C670 H656 0.930 . S
C670 C668 1.395 . S
C670 C673 1.403 . S
C671 C668 1.403 . S
C671 C672 1.524 . S
C671 C675 1.400 . S
C672 H657 0.960 . S
C672 H658 0.960 . S
C672 H659 0.960 . S
C672 C671 1.524 . S
C673 C670 1.403 . S
C673 C674 1.392 . S
C673 C677 1.495 . S
C674 C673 1.392 . S
C674 C675 1.385 . S
C674 C676 1.478 . S
C675 H669 0.930 . S
C675 C671 1.400 . S
C675 C674 1.385 . S
C676 C674 1.478 . S
C676 C678 1.381 . S
C676 C682 1.383 . S
C677 C673 1.495 . S
C677 H683 0.959 . S
C677 H684 0.961 . S
C677 H685 0.960 . S
C678 C676 1.381 . S
C678 C679 1.394 . S
C678 H686 0.930 . S
C679 C678 1.394 . S
C679 C680 1.383 . S
C679 H687 0.929 . S
C680 C679 1.383 . S
C680 C681 1.377 . S
C681 H665 0.930 . S
C681 C680 1.377 . S
C681 C682 1.379 . S
C682 H666 0.931 . S
C682 C676 1.383 . S
C682 C681 1.379 . S
H683 C677 0.959 . S
H684 C677 0.961 . S
H685 C677 0.960 . S
H686 C678 0.930 . S
H687 C679 0.929 . S
H688 C696 0.929 . S
H689 C698 0.930 . S
H690 C700 0.930 . S
H691 C703 0.929 . S
H692 C706 0.930 . S
H693 C708 0.960 . S
H694 C708 0.960 . S
H695 C708 0.960 . S
C696 H688 0.929 . S
C696 C697 1.377 . S
C696 C698 1.384 . S
C697 C696 1.377 . S
C697 C703 1.390 . S
C698 H689 0.930 . S
C698 C696 1.384 . S
C698 C699 1.372 . S
C699 C698 1.372 . S
C699 C700 1.400 . S
C699 C704 1.490 . S
C700 H690 0.930 . S
C700 C699 1.400 . S
C700 C703 1.386 . S
H701 C717 0.930 . S
H702 C718 0.931 . S
C703 H691 0.929 . S
C703 C697 1.390 . S
C703 C700 1.386 . S
C704 C699 1.490 . S
C704 C706 1.395 . S
C704 C707 1.403 . S
H705 C711 0.930 . S
C706 H692 0.930 . S
C706 C704 1.395 . S
C706 C709 1.403 . S
C707 C704 1.403 . S
C707 C708 1.524 . S
C707 C711 1.400 . S
C708 H693 0.960 . S
C708 H694 0.960 . S
C708 H695 0.960 . S
C708 C707 1.524 . S
C709 C706 1.403 . S
C709 C710 1.392 . S
C709 C713 1.495 . S
C710 C709 1.392 . S
C710 C711 1.385 . S
C710 C712 1.478 . S
C711 H705 0.930 . S
C711 C707 1.400 . S
C711 C710 1.385 . S
C712 C710 1.478 . S
C712 C714 1.381 . S
C712 C718 1.383 . S
C713 C709 1.495 . S
C713 H719 0.959 . S
C713 H720 0.961 . S
C713 H721 0.960 . S
C714 C712 1.381 . S
C714 C715 1.394 . S
C714 H722 0.930 . S
C715 C714 1.394 . S
C715 C716 1.383 . S
C715 H723 0.929 . S
C716 C715 1.383 . S
C716 C717 1.377 . S
C717 H701 0.930 . S
C717 C716 1.377 . S
C717 C718 1.379 . S
C718 H702 0.931 . S
C718 C712 1.383 . S
C718 C717 1.379 . S
H719 C713 0.959 . S
H720 C713 0.961 . S
H721 C713 0.960 . S
H722 C714 0.930 . S
H723 C715 0.929 . S
H724 C732 0.929 . S
H725 C734 0.930 . S
H726 C736 0.930 . S
H727 C739 0.929 . S
H728 C742 0.930 . S
H729 C744 0.960 . S
H730 C744 0.960 . S
H731 C744 0.960 . S
C732 H724 0.929 . S
C732 C733 1.377 . S
C732 C734 1.384 . S
C733 C732 1.377 . S
C733 C739 1.390 . S
C734 H725 0.930 . S
C734 C732 1.384 . S
C734 C735 1.372 . S
C735 C734 1.372 . S
C735 C736 1.400 . S
C735 C740 1.490 . S
C736 H726 0.930 . S
C736 C735 1.400 . S
C736 C739 1.386 . S
H737 C753 0.930 . S
H738 C754 0.931 . S
C739 H727 0.929 . S
C739 C733 1.390 . S
C739 C736 1.386 . S
C740 C735 1.490 . S
C740 C742 1.395 . S
C740 C743 1.403 . S
H741 C747 0.930 . S
C742 H728 0.930 . S
C742 C740 1.395 . S
C742 C745 1.403 . S
C743 C740 1.403 . S
C743 C744 1.524 . S
C743 C747 1.400 . S
C744 H729 0.960 . S
C744 H730 0.960 . S
C744 H731 0.960 . S
C744 C743 1.524 . S
C745 C742 1.403 . S
C745 C746 1.392 . S
C745 C749 1.495 . S
C746 C745 1.392 . S
C746 C747 1.385 . S
C746 C748 1.478 . S
C747 H741 0.930 . S
C747 C743 1.400 . S
C747 C746 1.385 . S
C748 C746 1.478 . S
C748 C750 1.381 . S
C748 C754 1.383 . S
C749 C745 1.495 . S
C749 H755 0.959 . S
C749 H756 0.961 . S
C749 H757 0.960 . S
C750 C748 1.381 . S
C750 C751 1.394 . S
C750 H758 0.930 . S
C751 C750 1.394 . S
C751 C752 1.383 . S
C751 H759 0.929 . S
C752 C751 1.383 . S
C752 C753 1.377 . S
C753 H737 0.930 . S
C753 C752 1.377 . S
C753 C754 1.379 . S
C754 H738 0.931 . S
C754 C748 1.383 . S
C754 C753 1.379 . S
H755 C749 0.959 . S
H756 C749 0.961 . S
H757 C749 0.960 . S
H758 C750 0.930 . S
H759 C751 0.929 . S
H760 C768 0.929 . S
H761 C770 0.930 . S
H762 C772 0.930 . S
H763 C775 0.929 . S
H764 C778 0.930 . S
H765 C780 0.960 . S
H766 C780 0.960 . S
H767 C780 0.960 . S
C768 H760 0.929 . S
C768 C769 1.377 . S
C768 C770 1.384 . S
C769 C768 1.377 . S
C769 C775 1.390 . S
C770 H761 0.930 . S
C770 C768 1.384 . S
C770 C771 1.372 . S
C771 C770 1.372 . S
C771 C772 1.400 . S
C771 C776 1.490 . S
C772 H762 0.930 . S
C772 C771 1.400 . S
C772 C775 1.386 . S
H773 C789 0.930 . S
H774 C790 0.931 . S
C775 H763 0.929 . S
C775 C769 1.390 . S
C775 C772 1.386 . S
C776 C771 1.490 . S
C776 C778 1.395 . S
C776 C779 1.403 . S
H777 C783 0.930 . S
C778 H764 0.930 . S
C778 C776 1.395 . S
C778 C781 1.403 . S
C779 C776 1.403 . S
C779 C780 1.524 . S
C779 C783 1.400 . S
C780 H765 0.960 . S
C780 H766 0.960 . S
C780 H767 0.960 . S
C780 C779 1.524 . S
C781 C778 1.403 . S
C781 C782 1.392 . S
C781 C785 1.495 . S
C782 C781 1.392 . S
C782 C783 1.385 . S
C782 C784 1.478 . S
C783 H777 0.930 . S
C783 C779 1.400 . S
C783 C782 1.385 . S
C784 C782 1.478 . S
C784 C786 1.381 . S
C784 C790 1.383 . S
C785 C781 1.495 . S
C785 H791 0.959 . S
C785 H792 0.961 . S
C785 H793 0.960 . S
C786 C784 1.381 . S
C786 C787 1.394 . S
C786 H794 0.930 . S
C787 C786 1.394 . S
C787 C788 1.383 . S
C787 H795 0.929 . S
C788 C787 1.383 . S
C788 C789 1.377 . S
C789 H773 0.930 . S
C789 C788 1.377 . S
C789 C790 1.379 . S
C790 H774 0.931 . S
C790 C784 1.383 . S
C790 C789 1.379 . S
H791 C785 0.959 . S
H792 C785 0.961 . S
H793 C785 0.960 . S
H794 C786 0.930 . S
H795 C787 0.929 . S
H796 C804 0.929 . S
H797 C806 0.930 . S
H798 C808 0.930 . S
H799 C811 0.929 . S
H800 C814 0.930 . S
H801 C816 0.960 . S
H802 C816 0.960 . S
H803 C816 0.960 . S
C804 H796 0.929 . S
C804 C805 1.377 . S
C804 C806 1.384 . S
C805 C804 1.377 . S
C805 C811 1.390 . S
C806 H797 0.930 . S
C806 C804 1.384 . S
C806 C807 1.372 . S
C807 C806 1.372 . S
C807 C808 1.400 . S
C807 C812 1.490 . S
C808 H798 0.930 . S
C808 C807 1.400 . S
C808 C811 1.386 . S
H809 C825 0.930 . S
H810 C826 0.931 . S
C811 H799 0.929 . S
C811 C805 1.390 . S
C811 C808 1.386 . S
C812 C807 1.490 . S
C812 C814 1.395 . S
C812 C815 1.403 . S
H813 C819 0.930 . S
C814 H800 0.930 . S
C814 C812 1.395 . S
C814 C817 1.403 . S
C815 C812 1.403 . S
C815 C816 1.524 . S
C815 C819 1.400 . S
C816 H801 0.960 . S
C816 H802 0.960 . S
C816 H803 0.960 . S
C816 C815 1.524 . S
C817 C814 1.403 . S
C817 C818 1.392 . S
C817 C821 1.495 . S
C818 C817 1.392 . S
C818 C819 1.385 . S
C818 C820 1.478 . S
C819 H813 0.930 . S
C819 C815 1.400 . S
C819 C818 1.385 . S
C820 C818 1.478 . S
C820 C822 1.381 . S
C820 C826 1.383 . S
C821 C817 1.495 . S
C821 H827 0.959 . S
C821 H828 0.961 . S
C821 H829 0.960 . S
C822 C820 1.381 . S
C822 C823 1.394 . S
C822 H830 0.930 . S
C823 C822 1.394 . S
C823 C824 1.383 . S
C823 H831 0.929 . S
C824 C823 1.383 . S
C824 C825 1.377 . S
C825 H809 0.930 . S
C825 C824 1.377 . S
C825 C826 1.379 . S
C826 H810 0.931 . S
C826 C820 1.383 . S
C826 C825 1.379 . S
H827 C821 0.959 . S
H828 C821 0.961 . S
H829 C821 0.960 . S
H830 C822 0.930 . S
H831 C823 0.929 . S
H832 C840 0.929 . S
H833 C842 0.930 . S
H834 C844 0.930 . S
H835 C847 0.929 . S
H836 C850 0.930 . S
H837 C852 0.960 . S
H838 C852 0.960 . S
H839 C852 0.960 . S
C840 H832 0.929 . S
C840 C841 1.377 . S
C840 C842 1.384 . S
C841 C840 1.377 . S
C841 C847 1.390 . S
C842 H833 0.930 . S
C842 C840 1.384 . S
C842 C843 1.372 . S
C843 C842 1.372 . S
C843 C844 1.400 . S
C843 C848 1.490 . S
C844 H834 0.930 . S
C844 C843 1.400 . S
C844 C847 1.386 . S
H845 C861 0.930 . S
H846 C862 0.931 . S
C847 H835 0.929 . S
C847 C841 1.390 . S
C847 C844 1.386 . S
C848 C843 1.490 . S
C848 C850 1.395 . S
C848 C851 1.403 . S
H849 C855 0.930 . S
C850 H836 0.930 . S
C850 C848 1.395 . S
C850 C853 1.403 . S
C851 C848 1.403 . S
C851 C852 1.524 . S
C851 C855 1.400 . S
C852 H837 0.960 . S
C852 H838 0.960 . S
C852 H839 0.960 . S
C852 C851 1.524 . S
C853 C850 1.403 . S
C853 C854 1.392 . S
C853 C857 1.495 . S
C854 C853 1.392 . S
C854 C855 1.385 . S
C854 C856 1.478 . S
C855 H849 0.930 . S
C855 C851 1.400 . S
C855 C854 1.385 . S
C856 C854 1.478 . S
C856 C858 1.381 . S
C856 C862 1.383 . S
C857 C853 1.495 . S
C857 H863 0.959 . S
C857 H864 0.961 . S
C857 H865 0.960 . S
C858 C856 1.381 . S
C858 C859 1.394 . S
C858 H866 0.930 . S
C859 C858 1.394 . S
C859 C860 1.383 . S
C859 H867 0.929 . S
C860 C859 1.383 . S
C860 C861 1.377 . S
C861 H845 0.930 . S
C861 C860 1.377 . S
C861 C862 1.379 . S
C862 H846 0.931 . S
C862 C856 1.383 . S
C862 C861 1.379 . S
H863 C857 0.959 . S
H864 C857 0.961 . S
H865 C857 0.960 . S
H866 C858 0.930 . S
H867 C859 0.929 . S
H868 C876 0.929 . S
H869 C878 0.930 . S
H870 C880 0.930 . S
H871 C883 0.929 . S
H872 C886 0.930 . S
H873 C888 0.960 . S
H874 C888 0.960 . S
H875 C888 0.960 . S
C876 H868 0.929 . S
C876 C877 1.377 . S
C876 C878 1.384 . S
C877 C876 1.377 . S
C877 C883 1.390 . S
C878 H869 0.930 . S
C878 C876 1.384 . S
C878 C879 1.372 . S
C879 C878 1.372 . S
C879 C880 1.400 . S
C879 C884 1.490 . S
C880 H870 0.930 . S
C880 C879 1.400 . S
C880 C883 1.386 . S
H881 C897 0.930 . S
H882 C898 0.931 . S
C883 H871 0.929 . S
C883 C877 1.390 . S
C883 C880 1.386 . S
C884 C879 1.490 . S
C884 C886 1.395 . S
C884 C887 1.403 . S
H885 C891 0.930 . S
C886 H872 0.930 . S
C886 C884 1.395 . S
C886 C889 1.403 . S
C887 C884 1.403 . S
C887 C888 1.524 . S
C887 C891 1.400 . S
C888 H873 0.960 . S
C888 H874 0.960 . S
C888 H875 0.960 . S
C888 C887 1.524 . S
C889 C886 1.403 . S
C889 C890 1.392 . S
C889 C893 1.495 . S
C890 C889 1.392 . S
C890 C891 1.385 . S
C890 C892 1.478 . S
C891 H885 0.930 . S
C891 C887 1.400 . S
C891 C890 1.385 . S
C892 C890 1.478 . S
C892 C894 1.381 . S
C892 C898 1.383 . S
C893 C889 1.495 . S
C893 H899 0.959 . S
C893 H900 0.961 . S
C893 H901 0.960 . S
C894 C892 1.381 . S
C894 C895 1.394 . S
C894 H902 0.930 . S
C895 C894 1.394 . S
C895 C896 1.383 . S
C895 H903 0.929 . S
C896 C895 1.383 . S
C896 C897 1.377 . S
C897 H881 0.930 . S
C897 C896 1.377 . S
C897 C898 1.379 . S
C898 H882 0.931 . S
C898 C892 1.383 . S
C898 C897 1.379 . S
H899 C893 0.959 . S
H900 C893 0.961 . S
H901 C893 0.960 . S
H902 C894 0.930 . S
H903 C895 0.929 . S
H904 C912 0.929 . S
H905 C914 0.930 . S
H906 C916 0.930 . S
H907 C919 0.929 . S
H908 C922 0.930 . S
H909 C924 0.960 . S
H910 C924 0.960 . S
H911 C924 0.960 . S
C912 H904 0.929 . S
C912 C913 1.377 . S
C912 C914 1.384 . S
C913 C912 1.377 . S
C913 C919 1.390 . S
C914 H905 0.930 . S
C914 C912 1.384 . S
C914 C915 1.372 . S
C915 C914 1.372 . S
C915 C916 1.400 . S
C915 C920 1.490 . S
C916 H906 0.930 . S
C916 C915 1.400 . S
C916 C919 1.386 . S
H917 C933 0.930 . S
H918 C934 0.931 . S
C919 H907 0.929 . S
C919 C913 1.390 . S
C919 C916 1.386 . S
C920 C915 1.490 . S
C920 C922 1.395 . S
C920 C923 1.403 . S
H921 C927 0.930 . S
C922 H908 0.930 . S
C922 C920 1.395 . S
C922 C925 1.403 . S
C923 C920 1.403 . S
C923 C924 1.524 . S
C923 C927 1.400 . S
C924 H909 0.960 . S
C924 H910 0.960 . S
C924 H911 0.960 . S
C924 C923 1.524 . S
C925 C922 1.403 . S
C925 C926 1.392 . S
C925 C929 1.495 . S
C926 C925 1.392 . S
C926 C927 1.385 . S
C926 C928 1.478 . S
C927 H921 0.930 . S
C927 C923 1.400 . S
C927 C926 1.385 . S
C928 C926 1.478 . S
C928 C930 1.381 . S
C928 C934 1.383 . S
C929 C925 1.495 . S
C929 H935 0.959 . S
C929 H936 0.961 . S
C929 H937 0.960 . S
C930 C928 1.381 . S
C930 C931 1.394 . S
C930 H938 0.930 . S
C931 C930 1.394 . S
C931 C932 1.383 . S
C931 H939 0.929 . S
C932 C931 1.383 . S
C932 C933 1.377 . S
C933 H917 0.930 . S
C933 C932 1.377 . S
C933 C934 1.379 . S
C934 H918 0.931 . S
C934 C928 1.383 . S
C934 C933 1.379 . S
H935 C929 0.959 . S
H936 C929 0.961 . S
H937 C929 0.960 . S
H938 C930 0.930 . S
H939 C931 0.929 . S
H940 C948 0.929 . S
H941 C950 0.930 . S
H942 C952 0.930 . S
H943 C955 0.929 . S
H944 C958 0.930 . S
H945 C960 0.960 . S
H946 C960 0.960 . S
H947 C960 0.960 . S
C948 H940 0.929 . S
C948 C949 1.377 . S
C948 C950 1.384 . S
C949 C948 1.377 . S
C949 C955 1.390 . S
C950 H941 0.930 . S
C950 C948 1.384 . S
C950 C951 1.372 . S
C951 C950 1.372 . S
C951 C952 1.400 . S
C951 C956 1.490 . S
C952 H942 0.930 . S
C952 C951 1.400 . S
C952 C955 1.386 . S
H953 C969 0.930 . S
H954 C970 0.931 . S
C955 H943 0.929 . S
C955 C949 1.390 . S
C955 C952 1.386 . S
C956 C951 1.490 . S
C956 C958 1.395 . S
C956 C959 1.403 . S
H957 C963 0.930 . S
C958 H944 0.930 . S
C958 C956 1.395 . S
C958 C961 1.403 . S
C959 C956 1.403 . S
C959 C960 1.524 . S
C959 C963 1.400 . S
C960 H945 0.960 . S
C960 H946 0.960 . S
C960 H947 0.960 . S
C960 C959 1.524 . S
C961 C958 1.403 . S
C961 C962 1.392 . S
C961 C965 1.495 . S
C962 C961 1.392 . S
C962 C963 1.385 . S
C962 C964 1.478 . S
C963 H957 0.930 . S
C963 C959 1.400 . S
C963 C962 1.385 . S
C964 C962 1.478 . S
C964 C966 1.381 . S
C964 C970 1.383 . S
C965 C961 1.495 . S
C965 H971 0.959 . S
C965 H972 0.961 . S
C965 H973 0.960 . S
C966 C964 1.381 . S
C966 C967 1.394 . S
C966 H974 0.930 . S
C967 C966 1.394 . S
C967 C968 1.383 . S
C967 H975 0.929 . S
C968 C967 1.383 . S
C968 C969 1.377 . S
C969 H953 0.930 . S
C969 C968 1.377 . S
C969 C970 1.379 . S
C970 H954 0.931 . S
C970 C964 1.383 . S
C970 C969 1.379 . S
H971 C965 0.959 . S
H972 C965 0.961 . S
H973 C965 0.960 . S
H974 C966 0.930 . S
H975 C967 0.929 . S
H976 C984 0.929 . S
H977 C986 0.930 . S
H978 C988 0.930 . S
H979 C991 0.929 . S
H980 C994 0.930 . S
H981 C996 0.960 . S
H982 C996 0.960 . S
H983 C996 0.960 . S
C984 H976 0.929 . S
C984 C985 1.377 . S
C984 C986 1.384 . S
C985 C984 1.377 . S
C985 C991 1.390 . S
C986 H977 0.930 . S
C986 C984 1.384 . S
C986 C987 1.372 . S
C987 C986 1.372 . S
C987 C988 1.400 . S
C987 C992 1.490 . S
C988 H978 0.930 . S
C988 C987 1.400 . S
C988 C991 1.386 . S
H989 C1005 0.930 . S
H990 C1006 0.931 . S
C991 H979 0.929 . S
C991 C985 1.390 . S
C991 C988 1.386 . S
C992 C987 1.490 . S
C992 C994 1.395 . S
C992 C995 1.403 . S
H993 C999 0.930 . S
C994 H980 0.930 . S
C994 C992 1.395 . S
C994 C997 1.403 . S
C995 C992 1.403 . S
C995 C996 1.524 . S
C995 C999 1.400 . S
C996 H981 0.960 . S
C996 H982 0.960 . S
C996 H983 0.960 . S
C996 C995 1.524 . S
C997 C994 1.403 . S
C997 C998 1.392 . S
C997 C1001 1.495 . S
C998 C997 1.392 . S
C998 C999 1.385 . S
C998 C1000 1.478 . S
C999 H993 0.930 . S
C999 C995 1.400 . S
C999 C998 1.385 . S
C1000 C998 1.478 . S
C1000 C1002 1.381 . S
C1000 C1006 1.383 . S
C1001 C997 1.495 . S
C1001 H1007 0.959 . S
C1001 H1008 0.961 . S
C1001 H1009 0.960 . S
C1002 C1000 1.381 . S
C1002 C1003 1.394 . S
C1002 H1010 0.930 . S
C1003 C1002 1.394 . S
C1003 C1004 1.383 . S
C1003 H1011 0.929 . S
C1004 C1003 1.383 . S
C1004 C1005 1.377 . S
C1005 H989 0.930 . S
C1005 C1004 1.377 . S
C1005 C1006 1.379 . S
C1006 H990 0.931 . S
C1006 C1000 1.383 . S
C1006 C1005 1.379 . S
H1007 C1001 0.959 . S
H1008 C1001 0.961 . S
H1009 C1001 0.960 . S
H1010 C1002 0.930 . S
H1011 C1003 0.929 . S
H1012 C1020 0.929 . S
H1013 C1022 0.930 . S
H1014 C1024 0.930 . S
H1015 C1027 0.929 . S
H1016 C1030 0.930 . S
H1017 C1032 0.960 . S
H1018 C1032 0.960 . S
H1019 C1032 0.960 . S
C1020 H1012 0.929 . S
C1020 C1021 1.377 . S
C1020 C1022 1.384 . S
C1021 C1020 1.377 . S
C1021 C1027 1.390 . S
C1022 H1013 0.930 . S
C1022 C1020 1.384 . S
C1022 C1023 1.372 . S
C1023 C1022 1.372 . S
C1023 C1024 1.400 . S
C1023 C1028 1.490 . S
C1024 H1014 0.930 . S
C1024 C1023 1.400 . S
C1024 C1027 1.386 . S
H1025 C1041 0.930 . S
H1026 C1042 0.931 . S
C1027 H1015 0.929 . S
C1027 C1021 1.390 . S
C1027 C1024 1.386 . S
C1028 C1023 1.490 . S
C1028 C1030 1.395 . S
C1028 C1031 1.403 . S
H1029 C1035 0.930 . S
C1030 H1016 0.930 . S
C1030 C1028 1.395 . S
C1030 C1033 1.403 . S
C1031 C1028 1.403 . S
C1031 C1032 1.524 . S
C1031 C1035 1.400 . S
C1032 H1017 0.960 . S
C1032 H1018 0.960 . S
C1032 H1019 0.960 . S
C1032 C1031 1.524 . S
C1033 C1030 1.403 . S
C1033 C1034 1.392 . S
C1033 C1037 1.495 . S
C1034 C1033 1.392 . S
C1034 C1035 1.385 . S
C1034 C1036 1.478 . S
C1035 H1029 0.930 . S
C1035 C1031 1.400 . S
C1035 C1034 1.385 . S
C1036 C1034 1.478 . S
C1036 C1038 1.381 . S
C1036 C1042 1.383 . S
C1037 C1033 1.495 . S
C1037 H1043 0.959 . S
C1037 H1044 0.961 . S
C1037 H1045 0.960 . S
C1038 C1036 1.381 . S
C1038 C1039 1.394 . S
C1038 H1046 0.930 . S
C1039 C1038 1.394 . S
C1039 C1040 1.383 . S
C1039 H1047 0.929 . S
C1040 C1039 1.383 . S
C1040 C1041 1.377 . S
C1041 H1025 0.930 . S
C1041 C1040 1.377 . S
C1041 C1042 1.379 . S
C1042 H1026 0.931 . S
C1042 C1036 1.383 . S
C1042 C1041 1.379 . S
H1043 C1037 0.959 . S
H1044 C1037 0.961 . S
H1045 C1037 0.960 . S
H1046 C1038 0.930 . S
H1047 C1039 0.929 . S
H1048 C1056 0.929 . S
H1049 C1058 0.930 . S
H1050 C1060 0.930 . S
H1051 C1063 0.929 . S
H1052 C1066 0.930 . S
H1053 C1068 0.960 . S
H1054 C1068 0.960 . S
H1055 C1068 0.960 . S
C1056 H1048 0.929 . S
C1056 C1057 1.377 . S
C1056 C1058 1.384 . S
C1057 C1056 1.377 . S
C1057 C1063 1.390 . S
C1058 H1049 0.930 . S
C1058 C1056 1.384 . S
C1058 C1059 1.372 . S
C1059 C1058 1.372 . S
C1059 C1060 1.400 . S
C1059 C1064 1.490 . S
C1060 H1050 0.930 . S
C1060 C1059 1.400 . S
C1060 C1063 1.386 . S
H1061 C1077 0.930 . S
H1062 C1078 0.931 . S
C1063 H1051 0.929 . S
C1063 C1057 1.390 . S
C1063 C1060 1.386 . S
C1064 C1059 1.490 . S
C1064 C1066 1.395 . S
C1064 C1067 1.403 . S
H1065 C1071 0.930 . S
C1066 H1052 0.930 . S
C1066 C1064 1.395 . S
C1066 C1069 1.403 . S
C1067 C1064 1.403 . S
C1067 C1068 1.524 . S
C1067 C1071 1.400 . S
C1068 H1053 0.960 . S
C1068 H1054 0.960 . S
C1068 H1055 0.960 . S
C1068 C1067 1.524 . S
C1069 C1066 1.403 . S
C1069 C1070 1.392 . S
C1069 C1073 1.495 . S
C1070 C1069 1.392 . S
C1070 C1071 1.385 . S
C1070 C1072 1.478 . S
C1071 H1065 0.930 . S
C1071 C1067 1.400 . S
C1071 C1070 1.385 . S
C1072 C1070 1.478 . S
C1072 C1074 1.381 . S
C1072 C1078 1.383 . S
C1073 C1069 1.495 . S
C1073 H1079 0.959 . S
C1073 H1080 0.961 . S
C1073 H1081 0.960 . S
C1074 C1072 1.381 . S
C1074 C1075 1.394 . S
C1074 H1082 0.930 . S
C1075 C1074 1.394 . S
C1075 C1076 1.383 . S
C1075 H1083 0.929 . S
C1076 C1075 1.383 . S
C1076 C1077 1.377 . S
C1077 H1061 0.930 . S
C1077 C1076 1.377 . S
C1077 C1078 1.379 . S
C1078 H1062 0.931 . S
C1078 C1072 1.383 . S
C1078 C1077 1.379 . S
H1079 C1073 0.959 . S
H1080 C1073 0.961 . S
H1081 C1073 0.960 . S
H1082 C1074 0.930 . S
H1083 C1075 0.929 . S
H1084 C1092 0.929 . S
H1085 C1094 0.930 . S
H1086 C1096 0.930 . S
H1087 C1099 0.929 . S
H1088 C1102 0.930 . S
H1089 C1104 0.960 . S
H1090 C1104 0.960 . S
H1091 C1104 0.960 . S
C1092 H1084 0.929 . S
C1092 C1093 1.377 . S
C1092 C1094 1.384 . S
C1093 C1092 1.377 . S
C1093 C1099 1.390 . S
C1094 H1085 0.930 . S
C1094 C1092 1.384 . S
C1094 C1095 1.372 . S
C1095 C1094 1.372 . S
C1095 C1096 1.400 . S
C1095 C1100 1.490 . S
C1096 H1086 0.930 . S
C1096 C1095 1.400 . S
C1096 C1099 1.386 . S
H1097 C1113 0.930 . S
H1098 C1114 0.931 . S
C1099 H1087 0.929 . S
C1099 C1093 1.390 . S
C1099 C1096 1.386 . S
C1100 C1095 1.490 . S
C1100 C1102 1.395 . S
C1100 C1103 1.403 . S
H1101 C1107 0.930 . S
C1102 H1088 0.930 . S
C1102 C1100 1.395 . S
C1102 C1105 1.403 . S
C1103 C1100 1.403 . S
C1103 C1104 1.524 . S
C1103 C1107 1.400 . S
C1104 H1089 0.960 . S
C1104 H1090 0.960 . S
C1104 H1091 0.960 . S
C1104 C1103 1.524 . S
C1105 C1102 1.403 . S
C1105 C1106 1.392 . S
C1105 C1109 1.495 . S
C1106 C1105 1.392 . S
C1106 C1107 1.385 . S
C1106 C1108 1.478 . S
C1107 H1101 0.930 . S
C1107 C1103 1.400 . S
C1107 C1106 1.385 . S
C1108 C1106 1.478 . S
C1108 C1110 1.381 . S
C1108 C1114 1.383 . S
C1109 C1105 1.495 . S
C1109 H1115 0.959 . S
C1109 H1116 0.961 . S
C1109 H1117 0.960 . S
C1110 C1108 1.381 . S
C1110 C1111 1.394 . S
C1110 H1118 0.930 . S
C1111 C1110 1.394 . S
C1111 C1112 1.383 . S
C1111 H1119 0.929 . S
C1112 C1111 1.383 . S
C1112 C1113 1.377 . S
C1113 H1097 0.930 . S
C1113 C1112 1.377 . S
C1113 C1114 1.379 . S
C1114 H1098 0.931 . S
C1114 C1108 1.383 . S
C1114 C1113 1.379 . S
H1115 C1109 0.959 . S
H1116 C1109 0.961 . S
H1117 C1109 0.960 . S
H1118 C1110 0.930 . S
H1119 C1111 0.929 . S
H1120 C1128 0.929 . S
H1121 C1130 0.930 . S
H1122 C1132 0.930 . S
H1123 C1135 0.929 . S
H1124 C1138 0.930 . S
H1125 C1140 0.960 . S
H1126 C1140 0.960 1_554 S
H1127 C1140 0.960 . S
C1128 H1120 0.929 . S
C1128 C1129 1.377 . S
C1128 C1130 1.384 . S
C1129 C1128 1.377 . S
C1129 C1135 1.390 . S
C1130 H1121 0.930 . S
C1130 C1128 1.384 . S
C1130 C1131 1.372 . S
C1131 C1130 1.372 . S
C1131 C1132 1.400 . S
C1131 C1136 1.490 . S
C1132 H1122 0.930 . S
C1132 C1131 1.400 . S
C1132 C1135 1.386 . S
H1133 C1149 0.930 . S
H1134 C1150 0.931 . S
C1135 H1123 0.929 . S
C1135 C1129 1.390 . S
C1135 C1132 1.386 . S
C1136 C1131 1.490 . S
C1136 C1138 1.395 . S
C1136 C1139 1.403 1_554 S
H1137 C1143 0.930 . S
C1138 H1124 0.930 . S
C1138 C1136 1.395 . S
C1138 C1141 1.403 1_554 S
C1139 C1136 1.403 1_556 S
C1139 C1140 1.524 . S
C1139 C1143 1.400 . S
C1140 H1125 0.960 . S
C1140 H1126 0.960 1_556 S
C1140 H1127 0.960 . S
C1140 C1139 1.524 . S
C1141 C1138 1.403 1_556 S
C1141 C1142 1.392 . S
C1141 C1145 1.495 . S
C1142 C1141 1.392 . S
C1142 C1143 1.385 . S
C1142 C1144 1.478 . S
C1143 H1137 0.930 . S
C1143 C1139 1.400 . S
C1143 C1142 1.385 . S
C1144 C1142 1.478 . S
C1144 C1146 1.381 . S
C1144 C1150 1.383 . S
C1145 C1141 1.495 . S
C1145 H1151 0.959 1_556 S
C1145 H1152 0.961 . S
C1145 H1153 0.960 . S
C1146 C1144 1.381 . S
C1146 C1147 1.394 . S
C1146 H1154 0.930 . S
C1147 C1146 1.394 . S
C1147 C1148 1.383 . S
C1147 H1155 0.929 . S
C1148 C1147 1.383 . S
C1148 C1149 1.377 . S
C1149 H1133 0.930 . S
C1149 C1148 1.377 . S
C1149 C1150 1.379 . S
C1150 H1134 0.931 . S
C1150 C1144 1.383 . S
C1150 C1149 1.379 . S
H1151 C1145 0.959 1_554 S
H1152 C1145 0.961 . S
H1153 C1145 0.960 . S
H1154 C1146 0.930 . S
H1155 C1147 0.929 . S
H1156 C1164 0.929 . S
H1157 C1166 0.930 . S
H1158 C1168 0.930 . S
H1159 C1171 0.929 . S
H1160 C1174 0.930 . S
H1161 C1176 0.960 1_554 S
H1162 C1176 0.960 . S
H1163 C1176 0.960 . S
C1164 H1156 0.929 . S
C1164 C1165 1.377 . S
C1164 C1166 1.384 . S
C1165 C1164 1.377 . S
C1165 C1171 1.390 . S
C1166 H1157 0.930 . S
C1166 C1164 1.384 . S
C1166 C1167 1.372 . S
C1167 C1166 1.372 . S
C1167 C1168 1.400 . S
C1167 C1172 1.490 . S
C1168 H1158 0.930 . S
C1168 C1167 1.400 . S
C1168 C1171 1.386 . S
H1169 C1185 0.930 . S
H1170 C1186 0.931 . S
C1171 H1159 0.929 . S
C1171 C1165 1.390 . S
C1171 C1168 1.386 . S
C1172 C1167 1.490 . S
C1172 C1174 1.395 . S
C1172 C1175 1.403 . S
H1173 C1179 0.930 . S
C1174 H1160 0.930 . S
C1174 C1172 1.395 . S
C1174 C1177 1.403 . S
C1175 C1172 1.403 . S
C1175 C1176 1.524 . S
C1175 C1179 1.400 1_556 S
C1176 H1161 0.960 1_556 S
C1176 H1162 0.960 . S
C1176 H1163 0.960 . S
C1176 C1175 1.524 . S
C1177 C1174 1.403 . S
C1177 C1178 1.392 1_556 S
C1177 C1181 1.495 . S
C1178 C1177 1.392 1_554 S
C1178 C1179 1.385 . S
C1178 C1180 1.478 . S
C1179 H1173 0.930 . S
C1179 C1175 1.400 1_554 S
C1179 C1178 1.385 . S
C1180 C1178 1.478 . S
C1180 C1182 1.381 . S
C1180 C1186 1.383 . S
C1181 C1177 1.495 . S
C1181 H1187 0.959 . S
C1181 H1188 0.955 1_556 S
C1181 H1189 0.960 . S
C1182 C1180 1.381 . S
C1182 C1183 1.394 . S
C1182 H1190 0.930 . S
C1183 C1182 1.394 . S
C1183 C1184 1.383 . S
C1183 H1191 0.929 . S
C1184 C1183 1.383 . S
C1184 C1185 1.377 . S
C1185 H1169 0.930 . S
C1185 C1184 1.377 . S
C1185 C1186 1.379 . S
C1186 H1170 0.931 . S
C1186 C1180 1.383 . S
C1186 C1185 1.379 . S
H1187 C1181 0.959 . S
H1188 C1181 0.955 1_554 S
H1189 C1181 0.960 . S
H1190 C1182 0.930 . S
H1191 C1183 0.929 . S
H1192 C1200 0.929 . S
H1193 C1202 0.930 . S
H1194 C1204 0.930 . S
H1195 C1207 0.929 . S
H1196 C1210 0.930 . S
H1197 C1212 0.960 . S
H1198 C1212 0.960 . S
H1199 C1212 0.960 . S
C1200 H1192 0.929 . S
C1200 C1201 1.377 . S
C1200 C1202 1.384 . S
C1201 C1200 1.377 . S
C1201 C1207 1.390 . S
C1202 H1193 0.930 . S
C1202 C1200 1.384 . S
C1202 C1203 1.372 . S
C1203 C1202 1.372 . S
C1203 C1204 1.400 . S
C1203 C1208 1.490 . S
C1204 H1194 0.930 . S
C1204 C1203 1.400 . S
C1204 C1207 1.386 . S
H1205 C1221 0.930 . S
H1206 C1222 0.931 . S
C1207 H1195 0.929 . S
C1207 C1201 1.390 . S
C1207 C1204 1.386 . S
C1208 C1203 1.490 . S
C1208 C1210 1.395 . S
C1208 C1211 1.403 . S
H1209 C1215 0.930 . S
C1210 H1196 0.930 . S
C1210 C1208 1.395 . S
C1210 C1213 1.403 . S
C1211 C1208 1.403 . S
C1211 C1212 1.524 . S
C1211 C1215 1.400 . S
C1212 H1197 0.960 . S
C1212 H1198 0.960 . S
C1212 H1199 0.960 . S
C1212 C1211 1.524 . S
C1213 C1210 1.403 . S
C1213 C1214 1.392 . S
C1213 C1217 1.495 . S
C1214 C1213 1.392 . S
C1214 C1215 1.385 . S
C1214 C1216 1.478 . S
C1215 H1209 0.930 . S
C1215 C1211 1.400 . S
C1215 C1214 1.385 . S
C1216 C1214 1.478 . S
C1216 C1218 1.381 . S
C1216 C1222 1.383 . S
C1217 C1213 1.495 . S
C1217 H1223 0.968 . S
C1217 H1224 0.961 . S
C1217 H1225 0.960 . S
C1218 C1216 1.381 . S
C1218 C1219 1.394 . S
C1218 H1226 0.930 . S
C1219 C1218 1.394 . S
C1219 C1220 1.383 . S
C1219 H1227 0.929 . S
C1220 C1219 1.383 . S
C1220 C1221 1.377 . S
C1221 H1205 0.930 . S
C1221 C1220 1.377 . S
C1221 C1222 1.379 . S
C1222 H1206 0.931 . S
C1222 C1216 1.383 . S
C1222 C1221 1.379 . S
H1223 C1217 0.968 . S
H1224 C1217 0.961 . S
H1225 C1217 0.960 . S
H1226 C1218 0.930 . S
H1227 C1219 0.929 . S
H1228 C1236 0.929 . S
H1229 C1238 0.930 . S
H1230 C1240 0.930 . S
H1231 C1243 0.929 . S
H1232 C1246 0.930 . S
H1233 C1248 0.960 . S
H1234 C1248 0.960 . S
H1235 C1248 0.960 . S
C1236 H1228 0.929 . S
C1236 C1237 1.377 . S
C1236 C1238 1.384 . S
C1237 C1236 1.377 . S
C1237 C1243 1.390 . S
C1238 H1229 0.930 . S
C1238 C1236 1.384 . S
C1238 C1239 1.372 . S
C1239 C1238 1.372 . S
C1239 C1240 1.400 . S
C1239 C1244 1.490 . S
C1240 H1230 0.930 . S
C1240 C1239 1.400 . S
C1240 C1243 1.386 . S
H1241 C1257 0.930 . S
H1242 C1258 0.931 . S
C1243 H1231 0.929 . S
C1243 C1237 1.390 . S
C1243 C1240 1.386 . S
C1244 C1239 1.490 . S
C1244 C1246 1.395 . S
C1244 C1247 1.403 . S
H1245 C1251 0.930 . S
C1246 H1232 0.930 . S
C1246 C1244 1.395 . S
C1246 C1249 1.403 . S
C1247 C1244 1.403 . S
C1247 C1248 1.524 . S
C1247 C1251 1.400 . S
C1248 H1233 0.960 . S
C1248 H1234 0.960 . S
C1248 H1235 0.960 . S
C1248 C1247 1.524 . S
C1249 C1246 1.403 . S
C1249 C1250 1.392 . S
C1249 C1253 1.495 . S
C1250 C1249 1.392 . S
C1250 C1251 1.385 . S
C1250 C1252 1.478 . S
C1251 H1245 0.930 . S
C1251 C1247 1.400 . S
C1251 C1250 1.385 . S
C1252 C1250 1.478 . S
C1252 C1254 1.381 . S
C1252 C1258 1.383 . S
C1253 C1249 1.495 . S
C1253 H1259 0.959 . S
C1253 H1260 0.961 . S
C1253 H1261 0.960 . S
C1254 C1252 1.381 . S
C1254 C1255 1.394 . S
C1254 H1262 0.930 . S
C1255 C1254 1.394 . S
C1255 C1256 1.383 . S
C1255 H1263 0.929 . S
C1256 C1255 1.383 . S
C1256 C1257 1.377 . S
C1257 H1241 0.930 . S
C1257 C1256 1.377 . S
C1257 C1258 1.379 . S
C1258 H1242 0.931 . S
C1258 C1252 1.383 . S
C1258 C1257 1.379 . S
H1259 C1253 0.959 . S
H1260 C1253 0.961 . S
H1261 C1253 0.960 . S
H1262 C1254 0.930 . S
H1263 C1255 0.929 . S
H1264 C1272 0.929 . S
H1265 C1274 0.930 . S
H1266 C1276 0.930 . S
H1267 C1279 0.929 . S
H1268 C1282 0.930 . S
H1269 C1284 0.960 . S
H1270 C1284 0.960 . S
H1271 C1284 0.960 . S
C1272 H1264 0.929 . S
C1272 C1273 1.377 . S
C1272 C1274 1.384 . S
C1273 C1272 1.377 . S
C1273 C1279 1.390 . S
C1274 H1265 0.930 . S
C1274 C1272 1.384 . S
C1274 C1275 1.372 . S
C1275 C1274 1.372 . S
C1275 C1276 1.400 . S
C1275 C1280 1.490 . S
C1276 H1266 0.930 . S
C1276 C1275 1.400 . S
C1276 C1279 1.386 . S
H1277 C1293 0.930 . S
H1278 C1294 0.931 . S
C1279 H1267 0.929 . S
C1279 C1273 1.390 . S
C1279 C1276 1.386 . S
C1280 C1275 1.490 . S
C1280 C1282 1.395 1_556 S
C1280 C1283 1.403 . S
H1281 C1287 0.930 . S
C1282 H1268 0.930 . S
C1282 C1280 1.395 1_554 S
C1282 C1285 1.403 . S
C1283 C1280 1.403 . S
C1283 C1284 1.524 . S
C1283 C1287 1.400 1_556 S
C1284 H1269 0.960 . S
C1284 H1270 0.960 . S
C1284 H1271 0.960 . S
C1284 C1283 1.524 . S
C1285 C1282 1.403 . S
C1285 C1286 1.392 . S
C1285 C1289 1.495 . S
C1286 C1285 1.392 . S
C1286 C1287 1.385 . S
C1286 C1288 1.478 . S
C1287 H1281 0.930 . S
C1287 C1283 1.400 1_554 S
C1287 C1286 1.385 . S
C1288 C1286 1.478 . S
C1288 C1290 1.381 . S
C1288 C1294 1.383 . S
C1289 C1285 1.495 . S
C1289 H1295 0.959 . S
C1289 H1296 0.961 . S
C1289 H1297 0.960 . S
C1290 C1288 1.381 . S
C1290 C1291 1.394 . S
C1290 H1298 0.930 . S
C1291 C1290 1.394 . S
C1291 C1292 1.383 . S
C1291 H1299 0.929 . S
C1292 C1291 1.383 . S
C1292 C1293 1.377 . S
C1293 H1277 0.930 . S
C1293 C1292 1.377 . S
C1293 C1294 1.379 . S
C1294 H1278 0.931 . S
C1294 C1288 1.383 . S
C1294 C1293 1.379 . S
H1295 C1289 0.959 . S
H1296 C1289 0.961 . S
H1297 C1289 0.960 . S
H1298 C1290 0.930 . S
H1299 C1291 0.929 . S
H1300 C1308 0.929 . S
H1301 C1310 0.930 . S
H1302 C1312 0.930 . S
H1303 C1315 0.929 . S
H1304 C1318 0.930 . S
H1305 C1320 0.960 . S
H1306 C1320 0.960 . S
H1307 C1320 0.960 . S
C1308 H1300 0.929 . S
C1308 C1309 1.377 . S
C1308 C1310 1.384 . S
C1309 C1308 1.377 . S
C1309 C1315 1.390 . S
C1310 H1301 0.930 . S
C1310 C1308 1.384 . S
C1310 C1311 1.372 . S
C1311 C1310 1.372 . S
C1311 C1312 1.400 . S
C1311 C1316 1.490 . S
C1312 H1302 0.930 . S
C1312 C1311 1.400 . S
C1312 C1315 1.386 . S
H1313 C1329 0.930 . S
H1314 C1330 0.931 . S
C1315 H1303 0.929 . S
C1315 C1309 1.390 . S
C1315 C1312 1.386 . S
C1316 C1311 1.490 . S
C1316 C1318 1.395 . S
C1316 C1319 1.403 . S
H1317 C1323 0.930 . S
C1318 H1304 0.930 . S
C1318 C1316 1.395 . S
C1318 C1321 1.403 1_554 S
C1319 C1316 1.403 . S
C1319 C1320 1.524 . S
C1319 C1323 1.400 1_554 S
C1320 H1305 0.960 . S
C1320 H1306 0.960 . S
C1320 H1307 0.960 . S
C1320 C1319 1.524 . S
C1321 C1318 1.403 1_556 S
C1321 C1322 1.392 . S
C1321 C1325 1.495 . S
C1322 C1321 1.392 . S
C1322 C1323 1.385 . S
C1322 C1324 1.478 . S
C1323 H1317 0.930 . S
C1323 C1319 1.400 1_556 S
C1323 C1322 1.385 . S
C1324 C1322 1.478 . S
C1324 C1326 1.381 . S
C1324 C1330 1.383 . S
C1325 C1321 1.495 . S
C1325 H1331 0.959 . S
C1325 H1332 0.961 . S
C1325 H1333 0.960 . S
C1326 C1324 1.381 . S
C1326 C1327 1.394 . S
C1326 H1334 0.930 . S
C1327 C1326 1.394 . S
C1327 C1328 1.383 . S
C1327 H1335 0.929 . S
C1328 C1327 1.383 . S
C1328 C1329 1.377 . S
C1329 H1313 0.930 . S
C1329 C1328 1.377 . S
C1329 C1330 1.379 . S
C1330 H1314 0.931 . S
C1330 C1324 1.383 . S
C1330 C1329 1.379 . S
H1331 C1325 0.959 . S
H1332 C1325 0.961 . S
H1333 C1325 0.960 . S
H1334 C1326 0.930 . S
H1335 C1327 0.929 . S
H1336 C1344 0.929 . S
H1337 C1346 0.930 . S
H1338 C1348 0.930 . S
H1339 C1351 0.929 . S
H1340 C1354 0.930 . S
H1341 C1356 0.960 . S
H1342 C1356 0.960 . S
H1343 C1356 0.960 . S
C1344 H1336 0.929 . S
C1344 C1345 1.377 . S
C1344 C1346 1.384 . S
C1345 C1344 1.377 . S
C1345 C1351 1.390 . S
C1346 H1337 0.930 . S
C1346 C1344 1.384 . S
C1346 C1347 1.372 . S
C1347 C1346 1.372 . S
C1347 C1348 1.400 . S
C1347 C1352 1.490 . S
C1348 H1338 0.930 . S
C1348 C1347 1.400 . S
C1348 C1351 1.386 . S
H1349 C1365 0.930 . S
H1350 C1366 0.931 . S
C1351 H1339 0.929 . S
C1351 C1345 1.390 . S
C1351 C1348 1.386 . S
C1352 C1347 1.490 . S
C1352 C1354 1.395 . S
C1352 C1355 1.403 . S
H1353 C1359 0.930 . S
C1354 H1340 0.930 . S
C1354 C1352 1.395 . S
C1354 C1357 1.403 . S
C1355 C1352 1.403 . S
C1355 C1356 1.524 . S
C1355 C1359 1.400 . S
C1356 H1341 0.960 . S
C1356 H1342 0.960 . S
C1356 H1343 0.960 . S
C1356 C1355 1.524 . S
C1357 C1354 1.403 . S
C1357 C1358 1.392 . S
C1357 C1361 1.495 . S
C1358 C1357 1.392 . S
C1358 C1359 1.385 . S
C1358 C1360 1.478 . S
C1359 H1353 0.930 . S
C1359 C1355 1.400 . S
C1359 C1358 1.385 . S
C1360 C1358 1.478 . S
C1360 C1362 1.381 . S
C1360 C1366 1.383 . S
C1361 C1357 1.495 . S
C1361 H1367 0.959 1_545 S
C1361 H1368 0.961 . S
C1361 H1369 0.956 1_545 S
C1362 C1360 1.381 . S
C1362 C1363 1.394 . S
C1362 H1370 0.930 . S
C1363 C1362 1.394 . S
C1363 C1364 1.383 . S
C1363 H1371 0.929 . S
C1364 C1363 1.383 . S
C1364 C1365 1.377 . S
C1365 H1349 0.930 . S
C1365 C1364 1.377 . S
C1365 C1366 1.379 . S
C1366 H1350 0.931 . S
C1366 C1360 1.383 . S
C1366 C1365 1.379 . S
H1367 C1361 0.959 1_565 S
H1368 C1361 0.961 . S
H1369 C1361 0.956 1_565 S
H1370 C1362 0.930 . S
H1371 C1363 0.929 . S
H1372 C1380 0.929 . S
H1373 C1382 0.930 . S
H1374 C1384 0.930 . S
H1375 C1387 0.929 . S
H1376 C1390 0.930 . S
H1377 C1392 0.960 . S
H1378 C1392 0.960 . S
H1379 C1392 0.960 . S
C1380 H1372 0.929 . S
C1380 C1381 1.377 . S
C1380 C1382 1.384 . S
C1381 C1380 1.377 . S
C1381 C1387 1.390 . S
C1382 H1373 0.930 . S
C1382 C1380 1.384 . S
C1382 C1383 1.372 . S
C1383 C1382 1.372 . S
C1383 C1384 1.400 . S
C1383 C1388 1.490 . S
C1384 H1374 0.930 . S
C1384 C1383 1.400 . S
C1384 C1387 1.386 . S
H1385 C1401 0.930 . S
H1386 C1402 0.931 . S
C1387 H1375 0.929 . S
C1387 C1381 1.390 . S
C1387 C1384 1.386 . S
C1388 C1383 1.490 . S
C1388 C1390 1.395 . S
C1388 C1391 1.403 . S
H1389 C1395 0.930 . S
C1390 H1376 0.930 . S
C1390 C1388 1.395 . S
C1390 C1393 1.403 . S
C1391 C1388 1.403 . S
C1391 C1392 1.524 . S
C1391 C1395 1.400 . S
C1392 H1377 0.960 . S
C1392 H1378 0.960 . S
C1392 H1379 0.960 . S
C1392 C1391 1.524 . S
C1393 C1390 1.403 . S
C1393 C1394 1.392 . S
C1393 C1397 1.495 . S
C1394 C1393 1.392 . S
C1394 C1395 1.385 . S
C1394 C1396 1.478 . S
C1395 H1389 0.930 . S
C1395 C1391 1.400 . S
C1395 C1394 1.385 . S
C1396 C1394 1.478 . S
C1396 C1398 1.381 . S
C1396 C1402 1.383 . S
C1397 C1393 1.495 . S
C1397 H1403 0.959 . S
C1397 H1404 0.961 . S
C1397 H1405 0.960 . S
C1398 C1396 1.381 . S
C1398 C1399 1.394 . S
C1398 H1406 0.930 . S
C1399 C1398 1.394 . S
C1399 C1400 1.383 . S
C1399 H1407 0.929 . S
C1400 C1399 1.383 . S
C1400 C1401 1.377 . S
C1401 H1385 0.930 . S
C1401 C1400 1.377 . S
C1401 C1402 1.379 . S
C1402 H1386 0.931 . S
C1402 C1396 1.383 . S
C1402 C1401 1.379 . S
H1403 C1397 0.959 . S
H1404 C1397 0.961 . S
H1405 C1397 0.960 . S
H1406 C1398 0.930 . S
H1407 C1399 0.929 . S
H1408 C1416 0.929 . S
H1409 C1418 0.930 . S
H1410 C1420 0.930 . S
H1411 C1423 0.929 . S
H1412 C1426 0.930 . S
H1413 C1428 0.960 . S
H1414 C1428 0.960 . S
H1415 C1428 0.960 . S
C1416 H1408 0.929 . S
C1416 C1417 1.377 . S
C1416 C1418 1.384 . S
C1417 C1416 1.377 . S
C1417 C1423 1.390 . S
C1418 H1409 0.930 . S
C1418 C1416 1.384 . S
C1418 C1419 1.372 . S
C1419 C1418 1.372 . S
C1419 C1420 1.400 . S
C1419 C1424 1.490 . S
C1420 H1410 0.930 . S
C1420 C1419 1.400 . S
C1420 C1423 1.386 . S
H1421 C1437 0.930 . S
H1422 C1438 0.931 . S
C1423 H1411 0.929 . S
C1423 C1417 1.390 . S
C1423 C1420 1.386 . S
C1424 C1419 1.490 . S
C1424 C1426 1.395 . S
C1424 C1427 1.403 . S
H1425 C1431 0.930 . S
C1426 H1412 0.930 . S
C1426 C1424 1.395 . S
C1426 C1429 1.403 . S
C1427 C1424 1.403 . S
C1427 C1428 1.524 . S
C1427 C1431 1.400 . S
C1428 H1413 0.960 . S
C1428 H1414 0.960 . S
C1428 H1415 0.960 . S
C1428 C1427 1.524 . S
C1429 C1426 1.403 . S
C1429 C1430 1.392 . S
C1429 C1433 1.495 . S
C1430 C1429 1.392 . S
C1430 C1431 1.385 . S
C1430 C1432 1.478 . S
C1431 H1425 0.930 . S
C1431 C1427 1.400 . S
C1431 C1430 1.385 . S
C1432 C1430 1.478 . S
C1432 C1434 1.381 1_545 S
C1432 C1438 1.383 . S
C1433 C1429 1.495 . S
C1433 H1439 0.959 . S
C1433 H1440 0.961 . S
C1433 H1441 0.960 1_545 S
C1434 C1432 1.381 1_565 S
C1434 C1435 1.394 . S
C1434 H1442 0.930 . S
C1435 C1434 1.394 . S
C1435 C1436 1.383 . S
C1435 H1443 0.929 . S
C1436 C1435 1.383 . S
C1436 C1437 1.377 1_565 S
C1437 H1421 0.930 . S
C1437 C1436 1.377 1_545 S
C1437 C1438 1.379 . S
C1438 H1422 0.931 . S
C1438 C1432 1.383 . S
C1438 C1437 1.379 . S
H1439 C1433 0.959 . S
H1440 C1433 0.961 . S
H1441 C1433 0.960 1_565 S
H1442 C1434 0.930 . S
H1443 C1435 0.929 . S
H1444 C1452 0.929 . S
H1445 C1454 0.930 . S
H1446 C1456 0.930 . S
H1447 C1459 0.929 . S
H1448 C1462 0.930 . S
H1449 C1464 0.960 . S
H1450 C1464 0.960 . S
H1451 C1464 0.960 . S
C1452 H1444 0.929 . S
C1452 C1453 1.377 . S
C1452 C1454 1.384 . S
C1453 C1452 1.377 . S
C1453 C1459 1.390 . S
C1454 H1445 0.930 . S
C1454 C1452 1.384 . S
C1454 C1455 1.372 . S
C1455 C1454 1.372 . S
C1455 C1456 1.400 . S
C1455 C1460 1.490 . S
C1456 H1446 0.930 . S
C1456 C1455 1.400 . S
C1456 C1459 1.386 . S
H1457 C1473 0.930 . S
H1458 C1474 0.931 . S
C1459 H1447 0.929 . S
C1459 C1453 1.390 . S
C1459 C1456 1.386 . S
C1460 C1455 1.490 . S
C1460 C1462 1.395 . S
C1460 C1463 1.403 . S
H1461 C1467 0.930 . S
C1462 H1448 0.930 . S
C1462 C1460 1.395 . S
C1462 C1465 1.403 . S
C1463 C1460 1.403 . S
C1463 C1464 1.524 . S
C1463 C1467 1.400 . S
C1464 H1449 0.960 . S
C1464 H1450 0.960 . S
C1464 H1451 0.960 . S
C1464 C1463 1.524 . S
C1465 C1462 1.403 . S
C1465 C1466 1.392 . S
C1465 C1469 1.495 . S
C1466 C1465 1.392 . S
C1466 C1467 1.385 . S
C1466 C1468 1.478 . S
C1467 H1461 0.930 . S
C1467 C1463 1.400 . S
C1467 C1466 1.385 . S
C1468 C1466 1.478 . S
C1468 C1470 1.381 . S
C1468 C1474 1.383 . S
C1469 C1465 1.495 . S
C1469 H1475 0.959 . S
C1469 H1476 0.961 . S
C1469 H1477 0.960 . S
C1470 C1468 1.381 . S
C1470 C1471 1.394 . S
C1470 H1478 0.930 . S
C1471 C1470 1.394 . S
C1471 C1472 1.383 . S
C1471 H1479 0.929 . S
C1472 C1471 1.383 . S
C1472 C1473 1.377 . S
C1473 H1457 0.930 . S
C1473 C1472 1.377 . S
C1473 C1474 1.379 . S
C1474 H1458 0.931 . S
C1474 C1468 1.383 . S
C1474 C1473 1.379 . S
H1475 C1469 0.959 . S
H1476 C1469 0.961 . S
H1477 C1469 0.960 . S
H1478 C1470 0.930 . S
H1479 C1471 0.929 . S
H1480 C1488 0.929 . S
H1481 C1490 0.930 . S
H1482 C1492 0.930 . S
H1483 C1495 0.929 . S
H1484 C1498 0.930 . S
H1485 C1500 0.960 . S
H1486 C1500 0.960 . S
H1487 C1500 0.960 . S
C1488 H1480 0.929 . S
C1488 C1489 1.377 1_545 S
C1488 C1490 1.384 . S
C1489 C1488 1.377 1_565 S
C1489 C1495 1.390 . S
C1490 H1481 0.930 . S
C1490 C1488 1.384 . S
C1490 C1491 1.372 1_545 S
C1491 C1490 1.372 1_565 S
C1491 C1492 1.400 . S
C1491 C1496 1.490 1_565 S
C1492 H1482 0.930 . S
C1492 C1491 1.400 . S
C1492 C1495 1.386 . S
H1493 C1509 0.930 1_565 S
H1494 C1510 0.931 1_565 S
C1495 H1483 0.929 . S
C1495 C1489 1.390 . S
C1495 C1492 1.386 . S
C1496 C1491 1.490 1_545 S
C1496 C1498 1.395 . S
C1496 C1499 1.403 1_545 S
H1497 C1503 0.934 . S
C1498 H1484 0.930 . S
C1498 C1496 1.395 . S
C1498 C1501 1.403 . S
C1499 C1496 1.403 1_565 S
C1499 C1500 1.524 . S
C1499 C1503 1.400 1_565 S
C1500 H1485 0.960 . S
C1500 H1486 0.960 . S
C1500 H1487 0.960 . S
C1500 C1499 1.524 . S
C1501 C1498 1.403 . S
C1501 C1502 1.392 . S
C1501 C1505 1.495 . S
C1502 C1501 1.392 . S
C1502 C1503 1.385 . S
C1502 C1504 1.478 . S
C1503 H1497 0.934 . S
C1503 C1499 1.400 1_545 S
C1503 C1502 1.385 . S
C1504 C1502 1.478 . S
C1504 C1506 1.381 . S
C1504 C1510 1.383 . S
C1505 C1501 1.495 . S
C1505 H1511 0.959 . S
C1505 H1512 0.961 . S
C1505 H1513 0.960 . S
C1506 C1504 1.381 . S
C1506 C1507 1.394 . S
C1506 H1514 0.930 . S
C1507 C1506 1.394 . S
C1507 C1508 1.383 . S
C1507 H1515 0.929 . S
C1508 C1507 1.383 . S
C1508 C1509 1.377 . S
C1509 H1493 0.930 1_545 S
C1509 C1508 1.377 . S
C1509 C1510 1.379 . S
C1510 H1494 0.931 1_545 S
C1510 C1504 1.383 . S
C1510 C1509 1.379 . S
H1511 C1505 0.959 . S
H1512 C1505 0.961 . S
H1513 C1505 0.960 . S
H1514 C1506 0.930 . S
H1515 C1507 0.929 . S
H1516 C1524 0.929 . S
H1517 C1526 0.930 . S
H1518 C1528 0.930 . S
H1519 C1531 0.929 . S
H1520 C1534 0.930 . S
H1521 C1536 0.960 . S
H1522 C1536 0.960 . S
H1523 C1536 0.960 . S
C1524 H1516 0.929 . S
C1524 C1525 1.377 . S
C1524 C1526 1.384 . S
C1525 C1524 1.377 . S
C1525 C1531 1.390 . S
C1526 H1517 0.930 . S
C1526 C1524 1.384 . S
C1526 C1527 1.372 . S
C1527 C1526 1.372 . S
C1527 C1528 1.400 . S
C1527 C1532 1.490 . S
C1528 H1518 0.930 . S
C1528 C1527 1.400 . S
C1528 C1531 1.386 . S
H1529 C1545 0.930 . S
H1530 C1546 0.931 . S
C1531 H1519 0.929 . S
C1531 C1525 1.390 . S
C1531 C1528 1.386 . S
C1532 C1527 1.490 . S
C1532 C1534 1.395 . S
C1532 C1535 1.403 . S
H1533 C1539 0.930 . S
C1534 H1520 0.930 . S
C1534 C1532 1.395 . S
C1534 C1537 1.403 . S
C1535 C1532 1.403 . S
C1535 C1536 1.524 . S
C1535 C1539 1.400 . S
C1536 H1521 0.960 . S
C1536 H1522 0.960 . S
C1536 H1523 0.960 . S
C1536 C1535 1.524 . S
C1537 C1534 1.403 . S
C1537 C1538 1.392 . S
C1537 C1541 1.495 . S
C1538 C1537 1.392 . S
C1538 C1539 1.385 . S
C1538 C1540 1.478 . S
C1539 H1533 0.930 . S
C1539 C1535 1.400 . S
C1539 C1538 1.385 . S
C1540 C1538 1.478 . S
C1540 C1542 1.381 . S
C1540 C1546 1.383 . S
C1541 C1537 1.495 . S
C1541 H1547 0.959 . S
C1541 H1548 0.961 . S
C1541 H1549 0.960 . S
C1542 C1540 1.381 . S
C1542 C1543 1.394 . S
C1542 H1550 0.930 . S
C1543 C1542 1.394 . S
C1543 C1544 1.383 . S
C1543 H1551 0.929 . S
C1544 C1543 1.383 . S
C1544 C1545 1.377 . S
C1545 H1529 0.930 . S
C1545 C1544 1.377 . S
C1545 C1546 1.379 . S
C1546 H1530 0.931 . S
C1546 C1540 1.383 . S
C1546 C1545 1.379 . S
H1547 C1541 0.959 . S
H1548 C1541 0.961 . S
H1549 C1541 0.960 . S
H1550 C1542 0.930 . S
H1551 C1543 0.929 . S
H1552 C1560 0.929 . S
H1553 C1562 0.930 . S
H1554 C1564 0.930 . S
H1555 C1567 0.929 . S
H1556 C1570 0.930 . S
H1557 C1572 0.960 . S
H1558 C1572 0.960 . S
H1559 C1572 0.960 . S
C1560 H1552 0.929 . S
C1560 C1561 1.377 . S
C1560 C1562 1.384 . S
C1561 C1560 1.377 . S
C1561 C1567 1.390 . S
C1562 H1553 0.930 . S
C1562 C1560 1.384 . S
C1562 C1563 1.372 . S
C1563 C1562 1.372 . S
C1563 C1564 1.400 . S
C1563 C1568 1.490 . S
C1564 H1554 0.930 . S
C1564 C1563 1.400 . S
C1564 C1567 1.386 . S
H1565 C1581 0.930 . S
H1566 C1582 0.931 . S
C1567 H1555 0.929 . S
C1567 C1561 1.390 . S
C1567 C1564 1.386 . S
C1568 C1563 1.490 . S
C1568 C1570 1.395 . S
C1568 C1571 1.403 . S
H1569 C1575 0.930 . S
C1570 H1556 0.930 . S
C1570 C1568 1.395 . S
C1570 C1573 1.403 . S
C1571 C1568 1.403 . S
C1571 C1572 1.524 . S
C1571 C1575 1.400 . S
C1572 H1557 0.960 . S
C1572 H1558 0.960 . S
C1572 H1559 0.960 . S
C1572 C1571 1.524 . S
C1573 C1570 1.403 . S
C1573 C1574 1.392 . S
C1573 C1577 1.495 . S
C1574 C1573 1.392 . S
C1574 C1575 1.385 . S
C1574 C1576 1.478 . S
C1575 H1569 0.930 . S
C1575 C1571 1.400 . S
C1575 C1574 1.385 . S
C1576 C1574 1.478 . S
C1576 C1578 1.381 . S
C1576 C1582 1.383 . S
C1577 C1573 1.495 . S
C1577 H1583 0.959 . S
C1577 H1584 0.961 . S
C1577 H1585 0.960 . S
C1578 C1576 1.381 . S
C1578 C1579 1.394 . S
C1578 H1586 0.930 . S
C1579 C1578 1.394 . S
C1579 C1580 1.383 . S
C1579 H1587 0.929 . S
C1580 C1579 1.383 . S
C1580 C1581 1.377 . S
C1581 H1565 0.930 . S
C1581 C1580 1.377 . S
C1581 C1582 1.379 . S
C1582 H1566 0.931 . S
C1582 C1576 1.383 . S
C1582 C1581 1.379 . S
H1583 C1577 0.959 . S
H1584 C1577 0.961 . S
H1585 C1577 0.960 . S
H1586 C1578 0.930 . S
H1587 C1579 0.929 . S
H1588 C1596 0.929 . S
H1589 C1598 0.930 . S
H1590 C1600 0.930 . S
H1591 C1603 0.929 . S
H1592 C1606 0.930 . S
H1593 C1608 0.960 . S
H1594 C1608 0.960 1_545 S
H1595 C1608 0.960 . S
C1596 H1588 0.929 . S
C1596 C1597 1.377 . S
C1596 C1598 1.384 . S
C1597 C1596 1.377 . S
C1597 C1603 1.390 1_545 S
C1598 H1589 0.930 . S
C1598 C1596 1.384 . S
C1598 C1599 1.372 1_545 S
C1599 C1598 1.372 1_565 S
C1599 C1600 1.400 . S
C1599 C1604 1.490 . S
C1600 H1590 0.930 . S
C1600 C1599 1.400 . S
C1600 C1603 1.386 . S
H1601 C1617 0.930 . S
H1602 C1618 0.931 . S
C1603 H1591 0.929 . S
C1603 C1597 1.390 1_565 S
C1603 C1600 1.386 . S
C1604 C1599 1.490 . S
C1604 C1606 1.395 . S
C1604 C1607 1.403 . S
H1605 C1611 0.930 . S
C1606 H1592 0.930 . S
C1606 C1604 1.395 . S
C1606 C1609 1.403 . S
C1607 C1604 1.403 . S
C1607 C1608 1.524 . S
C1607 C1611 1.400 . S
C1608 H1593 0.960 . S
C1608 H1594 0.960 1_565 S
C1608 H1595 0.960 . S
C1608 C1607 1.524 . S
C1609 C1606 1.403 . S
C1609 C1610 1.392 . S
C1609 C1613 1.495 . S
C1610 C1609 1.392 . S
C1610 C1611 1.385 . S
C1610 C1612 1.478 . S
C1611 H1605 0.930 . S
C1611 C1607 1.400 . S
C1611 C1610 1.385 . S
C1612 C1610 1.478 . S
C1612 C1614 1.381 . S
C1612 C1618 1.383 . S
C1613 C1609 1.495 . S
C1613 H1619 0.959 . S
C1613 H1620 0.961 . S
C1613 H1621 0.960 . S
C1614 C1612 1.381 . S
C1614 C1615 1.394 . S
C1614 H1622 0.930 . S
C1615 C1614 1.394 . S
C1615 C1616 1.383 . S
C1615 H1623 0.929 . S
C1616 C1615 1.383 . S
C1616 C1617 1.377 . S
C1617 H1601 0.930 . S
C1617 C1616 1.377 . S
C1617 C1618 1.379 . S
C1618 H1602 0.931 . S
C1618 C1612 1.383 . S
C1618 C1617 1.379 . S
H1619 C1613 0.959 . S
H1620 C1613 0.961 . S
H1621 C1613 0.960 . S
H1622 C1614 0.930 . S
H1623 C1615 0.929 . S
H1624 C1632 0.929 . S
H1625 C1634 0.930 . S
H1626 C1636 0.930 . S
H1627 C1639 0.929 . S
H1628 C1642 0.930 . S
H1629 C1644 0.960 . S
H1630 C1644 0.960 . S
H1631 C1644 0.960 . S
C1632 H1624 0.929 . S
C1632 C1633 1.377 . S
C1632 C1634 1.384 . S
C1633 C1632 1.377 . S
C1633 C1639 1.390 . S
C1634 H1625 0.930 . S
C1634 C1632 1.384 . S
C1634 C1635 1.372 . S
C1635 C1634 1.372 . S
C1635 C1636 1.400 . S
C1635 C1640 1.490 . S
C1636 H1626 0.930 . S
C1636 C1635 1.400 . S
C1636 C1639 1.386 . S
H1637 C1653 0.930 . S
H1638 C1654 0.931 . S
C1639 H1627 0.929 . S
C1639 C1633 1.390 . S
C1639 C1636 1.386 . S
C1640 C1635 1.490 . S
C1640 C1642 1.395 . S
C1640 C1643 1.403 . S
H1641 C1647 0.930 . S
C1642 H1628 0.930 . S
C1642 C1640 1.395 . S
C1642 C1645 1.403 . S
C1643 C1640 1.403 . S
C1643 C1644 1.524 . S
C1643 C1647 1.400 . S
C1644 H1629 0.960 . S
C1644 H1630 0.960 . S
C1644 H1631 0.960 . S
C1644 C1643 1.524 . S
C1645 C1642 1.403 . S
C1645 C1646 1.392 . S
C1645 C1649 1.495 . S
C1646 C1645 1.392 . S
C1646 C1647 1.385 . S
C1646 C1648 1.478 . S
C1647 H1641 0.930 . S
C1647 C1643 1.400 . S
C1647 C1646 1.385 . S
C1648 C1646 1.478 . S
C1648 C1650 1.381 . S
C1648 C1654 1.383 . S
C1649 C1645 1.495 . S
C1649 H1655 0.959 . S
C1649 H1656 0.961 . S
C1649 H1657 0.960 . S
C1650 C1648 1.381 . S
C1650 C1651 1.394 . S
C1650 H1658 0.930 . S
C1651 C1650 1.394 . S
C1651 C1652 1.383 . S
C1651 H1659 0.929 . S
C1652 C1651 1.383 . S
C1652 C1653 1.377 . S
C1653 H1637 0.930 . S
C1653 C1652 1.377 . S
C1653 C1654 1.379 . S
C1654 H1638 0.931 . S
C1654 C1648 1.383 . S
C1654 C1653 1.379 . S
H1655 C1649 0.959 . S
H1656 C1649 0.961 . S
H1657 C1649 0.960 . S
H1658 C1650 0.930 . S
H1659 C1651 0.929 . S
H1660 C1668 0.929 . S
H1661 C1670 0.930 . S
H1662 C1672 0.920 1_565 S
H1663 C1675 0.929 . S
H1664 C1678 0.930 . S
H1665 C1680 0.960 . S
H1666 C1680 0.960 . S
H1667 C1680 0.960 . S
C1668 H1660 0.929 . S
C1668 C1669 1.377 . S
C1668 C1670 1.384 . S
C1669 C1668 1.377 . S
C1669 C1675 1.390 . S
C1670 H1661 0.930 . S
C1670 C1668 1.384 . S
C1670 C1671 1.372 . S
C1671 C1670 1.372 . S
C1671 C1672 1.405 . S
C1671 C1676 1.490 . S
C1672 H1662 0.920 1_545 S
C1672 C1671 1.405 . S
C1672 C1675 1.390 . S
H1673 C1689 0.930 . S
H1674 C1690 0.931 . S
C1675 H1663 0.929 . S
C1675 C1669 1.390 . S
C1675 C1672 1.390 . S
C1676 C1671 1.490 . S
C1676 C1678 1.395 . S
C1676 C1679 1.403 1_545 S
H1677 C1683 0.930 . S
C1678 H1664 0.930 . S
C1678 C1676 1.395 . S
C1678 C1681 1.403 . S
C1679 C1676 1.403 1_565 S
C1679 C1680 1.524 . S
C1679 C1683 1.400 . S
C1680 H1665 0.960 . S
C1680 H1666 0.960 . S
C1680 H1667 0.960 . S
C1680 C1679 1.524 . S
C1681 C1678 1.403 . S
C1681 C1682 1.392 1_545 S
C1681 C1685 1.495 . S
C1682 C1681 1.392 1_565 S
C1682 C1683 1.385 . S
C1682 C1684 1.478 . S
C1683 H1677 0.930 . S
C1683 C1679 1.400 . S
C1683 C1682 1.385 . S
C1684 C1682 1.478 . S
C1684 C1686 1.381 . S
C1684 C1690 1.383 . S
C1685 C1681 1.495 . S
C1685 H1691 0.959 . S
C1685 H1692 0.961 . S
C1685 H1693 0.960 . S
C1686 C1684 1.381 . S
C1686 C1687 1.394 . S
C1686 H1694 0.930 . S
C1687 C1686 1.394 . S
C1687 C1688 1.383 . S
C1687 H1695 0.929 . S
C1688 C1687 1.383 . S
C1688 C1689 1.377 . S
C1689 H1673 0.930 . S
C1689 C1688 1.377 . S
C1689 C1690 1.379 . S
C1690 H1674 0.931 . S
C1690 C1684 1.383 . S
C1690 C1689 1.379 . S
H1691 C1685 0.959 . S
H1692 C1685 0.961 . S
H1693 C1685 0.960 . S
H1694 C1686 0.930 . S
H1695 C1687 0.929 . S
H1696 C1704 0.929 . S
H1697 C1706 0.930 . S
H1698 C1708 0.930 . S
H1699 C1711 0.929 . S
H1700 C1714 0.930 . S
H1701 C1716 0.960 . S
H1702 C1716 0.960 . S
H1703 C1716 0.960 . S
C1704 H1696 0.929 . S
C1704 C1705 1.377 . S
C1704 C1706 1.384 . S
C1705 C1704 1.377 . S
C1705 C1711 1.390 . S
C1706 H1697 0.930 . S
C1706 C1704 1.384 . S
C1706 C1707 1.372 . S
C1707 C1706 1.372 . S
C1707 C1708 1.400 . S
C1707 C1712 1.490 . S
C1708 H1698 0.930 . S
C1708 C1707 1.400 . S
C1708 C1711 1.386 . S
H1709 C1725 0.930 . S
H1710 C1726 0.931 . S
C1711 H1699 0.929 . S
C1711 C1705 1.390 . S
C1711 C1708 1.386 . S
C1712 C1707 1.490 . S
C1712 C1714 1.395 . S
C1712 C1715 1.403 . S
H1713 C1719 0.930 . S
C1714 H1700 0.930 . S
C1714 C1712 1.395 . S
C1714 C1717 1.403 . S
C1715 C1712 1.403 . S
C1715 C1716 1.524 . S
C1715 C1719 1.400 . S
C1716 H1701 0.960 . S
C1716 H1702 0.960 . S
C1716 H1703 0.960 . S
C1716 C1715 1.524 . S
C1717 C1714 1.403 . S
C1717 C1718 1.392 . S
C1717 C1721 1.495 . S
C1718 C1717 1.392 . S
C1718 C1719 1.385 . S
C1718 C1720 1.478 . S
C1719 H1713 0.930 . S
C1719 C1715 1.400 . S
C1719 C1718 1.385 . S
C1720 C1718 1.478 . S
C1720 C1722 1.381 . S
C1720 C1726 1.383 . S
C1721 C1717 1.495 . S
C1721 H1727 0.959 . S
C1721 H1728 0.961 . S
C1721 H1729 0.960 . S
C1722 C1720 1.381 . S
C1722 C1723 1.394 . S
C1722 H1730 0.930 . S
C1723 C1722 1.394 . S
C1723 C1724 1.383 . S
C1723 H1731 0.929 . S
C1724 C1723 1.383 . S
C1724 C1725 1.377 . S
C1725 H1709 0.930 . S
C1725 C1724 1.377 . S
C1725 C1726 1.379 . S
C1726 H1710 0.931 . S
C1726 C1720 1.383 . S
C1726 C1725 1.379 . S
H1727 C1721 0.959 . S
H1728 C1721 0.961 . S
H1729 C1721 0.960 . S
H1730 C1722 0.930 . S
H1731 C1723 0.929 . S
H1732 C1740 0.929 . S
H1733 C1742 0.930 . S
H1734 C1744 0.930 . S
H1735 C1747 0.929 . S
H1736 C1750 0.930 . S
H1737 C1752 0.960 . S
H1738 C1752 0.960 . S
H1739 C1752 0.960 . S
C1740 H1732 0.929 . S
C1740 C1741 1.377 . S
C1740 C1742 1.384 . S
C1741 C1740 1.377 . S
C1741 C1747 1.390 . S
C1742 H1733 0.930 . S
C1742 C1740 1.384 . S
C1742 C1743 1.372 . S
C1743 C1742 1.372 . S
C1743 C1744 1.400 . S
C1743 C1748 1.490 . S
C1744 H1734 0.930 . S
C1744 C1743 1.400 . S
C1744 C1747 1.386 . S
H1745 C1761 0.930 . S
H1746 C1762 0.931 . S
C1747 H1735 0.929 . S
C1747 C1741 1.390 . S
C1747 C1744 1.386 . S
C1748 C1743 1.490 . S
C1748 C1750 1.395 . S
C1748 C1751 1.403 . S
H1749 C1755 0.930 . S
C1750 H1736 0.930 . S
C1750 C1748 1.395 . S
C1750 C1753 1.403 . S
C1751 C1748 1.403 . S
C1751 C1752 1.524 . S
C1751 C1755 1.400 . S
C1752 H1737 0.960 . S
C1752 H1738 0.960 . S
C1752 H1739 0.960 . S
C1752 C1751 1.524 . S
C1753 C1750 1.403 . S
C1753 C1754 1.392 . S
C1753 C1757 1.495 . S
C1754 C1753 1.392 . S
C1754 C1755 1.385 . S
C1754 C1756 1.478 . S
C1755 H1749 0.930 . S
C1755 C1751 1.400 . S
C1755 C1754 1.385 . S
C1756 C1754 1.478 . S
C1756 C1758 1.381 . S
C1756 C1762 1.383 . S
C1757 C1753 1.495 . S
C1757 H1763 0.959 . S
C1757 H1764 0.961 . S
C1757 H1765 0.960 . S
C1758 C1756 1.381 . S
C1758 C1759 1.394 . S
C1758 H1766 0.930 . S
C1759 C1758 1.394 . S
C1759 C1760 1.383 . S
C1759 H1767 0.929 . S
C1760 C1759 1.383 . S
C1760 C1761 1.377 . S
C1761 H1745 0.930 . S
C1761 C1760 1.377 . S
C1761 C1762 1.379 . S
C1762 H1746 0.931 . S
C1762 C1756 1.383 . S
C1762 C1761 1.379 . S
H1763 C1757 0.959 . S
H1764 C1757 0.961 . S
H1765 C1757 0.960 . S
H1766 C1758 0.930 . S
H1767 C1759 0.929 . S
H1768 C1776 0.929 . S
H1769 C1778 0.930 . S
H1770 C1780 0.930 . S
H1771 C1783 0.929 . S
H1772 C1786 0.930 . S
H1773 C1788 0.960 . S
H1774 C1788 0.960 . S
H1775 C1788 0.960 . S
C1776 H1768 0.929 . S
C1776 C1777 1.377 . S
C1776 C1778 1.384 . S
C1777 C1776 1.377 . S
C1777 C1783 1.390 . S
C1778 H1769 0.930 . S
C1778 C1776 1.384 . S
C1778 C1779 1.372 . S
C1779 C1778 1.372 . S
C1779 C1780 1.400 . S
C1779 C1784 1.490 . S
C1780 H1770 0.930 . S
C1780 C1779 1.400 . S
C1780 C1783 1.386 . S
H1781 C1797 0.930 . S
H1782 C1798 0.931 . S
C1783 H1771 0.929 . S
C1783 C1777 1.390 . S
C1783 C1780 1.386 . S
C1784 C1779 1.490 . S
C1784 C1786 1.395 . S
C1784 C1787 1.403 . S
H1785 C1791 0.930 . S
C1786 H1772 0.930 . S
C1786 C1784 1.395 . S
C1786 C1789 1.403 . S
C1787 C1784 1.403 . S
C1787 C1788 1.524 . S
C1787 C1791 1.400 . S
C1788 H1773 0.960 . S
C1788 H1774 0.960 . S
C1788 H1775 0.960 . S
C1788 C1787 1.524 . S
C1789 C1786 1.403 . S
C1789 C1790 1.392 . S
C1789 C1793 1.495 . S
C1790 C1789 1.392 . S
C1790 C1791 1.385 . S
C1790 C1792 1.478 . S
C1791 H1785 0.930 . S
C1791 C1787 1.400 . S
C1791 C1790 1.385 . S
C1792 C1790 1.478 . S
C1792 C1794 1.381 . S
C1792 C1798 1.383 . S
C1793 C1789 1.495 . S
C1793 H1799 0.959 . S
C1793 H1800 0.961 . S
C1793 H1801 0.960 . S
C1794 C1792 1.381 . S
C1794 C1795 1.394 . S
C1794 H1802 0.930 . S
C1795 C1794 1.394 . S
C1795 C1796 1.383 . S
C1795 H1803 0.929 . S
C1796 C1795 1.383 . S
C1796 C1797 1.377 . S
C1797 H1781 0.930 . S
C1797 C1796 1.377 . S
C1797 C1798 1.379 . S
C1798 H1782 0.931 . S
C1798 C1792 1.383 . S
C1798 C1797 1.379 . S
H1799 C1793 0.959 . S
H1800 C1793 0.961 . S
H1801 C1793 0.960 . S
H1802 C1794 0.930 . S
H1803 C1795 0.929 . S
H1804 C1812 0.929 . S
H1805 C1814 0.930 . S
H1806 C1816 0.930 . S
H1807 C1819 0.929 . S
H1808 C1822 0.930 . S
H1809 C1824 0.960 . S
H1810 C1824 0.960 . S
H1811 C1824 0.960 . S
C1812 H1804 0.929 . S
C1812 C1813 1.377 . S
C1812 C1814 1.384 . S
C1813 C1812 1.377 . S
C1813 C1819 1.390 . S
C1814 H1805 0.930 . S
C1814 C1812 1.384 . S
C1814 C1815 1.372 . S
C1815 C1814 1.372 . S
C1815 C1816 1.400 . S
C1815 C1820 1.490 . S
C1816 H1806 0.930 . S
C1816 C1815 1.400 . S
C1816 C1819 1.386 . S
H1817 C1833 0.930 . S
H1818 C1834 0.931 . S
C1819 H1807 0.929 . S
C1819 C1813 1.390 . S
C1819 C1816 1.386 . S
C1820 C1815 1.490 . S
C1820 C1822 1.395 . S
C1820 C1823 1.403 . S
H1821 C1827 0.930 . S
C1822 H1808 0.930 . S
C1822 C1820 1.395 . S
C1822 C1825 1.403 . S
C1823 C1820 1.403 . S
C1823 C1824 1.524 . S
C1823 C1827 1.400 . S
C1824 H1809 0.960 . S
C1824 H1810 0.960 . S
C1824 H1811 0.960 . S
C1824 C1823 1.524 . S
C1825 C1822 1.403 . S
C1825 C1826 1.392 . S
C1825 C1829 1.495 . S
C1826 C1825 1.392 . S
C1826 C1827 1.385 . S
C1826 C1828 1.478 . S
C1827 H1821 0.930 . S
C1827 C1823 1.400 . S
C1827 C1826 1.385 . S
C1828 C1826 1.478 . S
C1828 C1830 1.381 . S
C1828 C1834 1.383 . S
C1829 C1825 1.495 . S
C1829 H1835 0.959 . S
C1829 H1836 0.961 . S
C1829 H1837 0.960 . S
C1830 C1828 1.381 . S
C1830 C1831 1.394 . S
C1830 H1838 0.930 . S
C1831 C1830 1.394 . S
C1831 C1832 1.383 . S
C1831 H1839 0.929 . S
C1832 C1831 1.383 . S
C1832 C1833 1.377 . S
C1833 H1817 0.930 . S
C1833 C1832 1.377 . S
C1833 C1834 1.379 . S
C1834 H1818 0.931 . S
C1834 C1828 1.383 . S
C1834 C1833 1.379 . S
H1835 C1829 0.959 . S
H1836 C1829 0.961 . S
H1837 C1829 0.960 . S
H1838 C1830 0.930 . S
H1839 C1831 0.929 . S
H1840 C1848 0.929 . S
H1841 C1850 0.930 . S
H1842 C1852 0.930 . S
H1843 C1855 0.929 . S
H1844 C1858 0.930 . S
H1845 C1860 0.960 . S
H1846 C1860 0.960 . S
H1847 C1860 0.960 . S
C1848 H1840 0.929 . S
C1848 C1849 1.377 . S
C1848 C1850 1.384 . S
C1849 C1848 1.377 . S
C1849 C1855 1.390 . S
C1850 H1841 0.930 . S
C1850 C1848 1.384 . S
C1850 C1851 1.372 . S
C1851 C1850 1.372 . S
C1851 C1852 1.400 . S
C1851 C1856 1.490 . S
C1852 H1842 0.930 . S
C1852 C1851 1.400 . S
C1852 C1855 1.386 . S
H1853 C1869 0.930 . S
H1854 C1870 0.931 . S
C1855 H1843 0.929 . S
C1855 C1849 1.390 . S
C1855 C1852 1.386 . S
C1856 C1851 1.490 . S
C1856 C1858 1.395 1_655 S
C1856 C1859 1.403 . S
H1857 C1863 0.930 . S
C1858 H1844 0.930 . S
C1858 C1856 1.395 1_455 S
C1858 C1861 1.403 . S
C1859 C1856 1.403 . S
C1859 C1860 1.524 . S
C1859 C1863 1.400 . S
C1860 H1845 0.960 . S
C1860 H1846 0.960 . S
C1860 H1847 0.960 . S
C1860 C1859 1.524 . S
C1861 C1858 1.403 . S
C1861 C1862 1.392 . S
C1861 C1865 1.495 . S
C1862 C1861 1.392 . S
C1862 C1863 1.385 1_455 S
C1862 C1864 1.478 . S
C1863 H1857 0.930 . S
C1863 C1859 1.400 . S
C1863 C1862 1.385 1_655 S
C1864 C1862 1.478 . S
C1864 C1866 1.381 . S
C1864 C1870 1.383 . S
C1865 C1861 1.495 . S
C1865 H1871 0.959 . S
C1865 H1872 0.961 . S
C1865 H1873 0.960 . S
C1866 C1864 1.381 . S
C1866 C1867 1.394 . S
C1866 H1874 0.930 . S
C1867 C1866 1.394 . S
C1867 C1868 1.383 . S
C1867 H1875 0.929 . S
C1868 C1867 1.383 . S
C1868 C1869 1.377 . S
C1869 H1853 0.930 . S
C1869 C1868 1.377 . S
C1869 C1870 1.379 . S
C1870 H1854 0.931 . S
C1870 C1864 1.383 . S
C1870 C1869 1.379 . S
H1871 C1865 0.959 . S
H1872 C1865 0.961 . S
H1873 C1865 0.960 . S
H1874 C1866 0.930 . S
H1875 C1867 0.929 . S
H1876 C1884 0.929 . S
H1877 C1886 0.930 . S
H1878 C1888 0.930 . S
H1879 C1891 0.929 . S
H1880 C1894 0.930 . S
H1881 C1896 0.960 . S
H1882 C1896 0.960 . S
H1883 C1896 0.960 . S
C1884 H1876 0.929 . S
C1884 C1885 1.377 . S
C1884 C1886 1.384 . S
C1885 C1884 1.377 . S
C1885 C1891 1.390 . S
C1886 H1877 0.930 . S
C1886 C1884 1.384 . S
C1886 C1887 1.372 . S
C1887 C1886 1.372 . S
C1887 C1888 1.400 . S
C1887 C1892 1.490 . S
C1888 H1878 0.930 . S
C1888 C1887 1.400 . S
C1888 C1891 1.386 . S
H1889 C1905 0.930 . S
H1890 C1906 0.931 . S
C1891 H1879 0.929 . S
C1891 C1885 1.390 . S
C1891 C1888 1.386 . S
C1892 C1887 1.490 . S
C1892 C1894 1.395 . S
C1892 C1895 1.403 1_455 S
H1893 C1899 0.930 . S
C1894 H1880 0.930 . S
C1894 C1892 1.395 . S
C1894 C1897 1.403 . S
C1895 C1892 1.403 1_655 S
C1895 C1896 1.524 . S
C1895 C1899 1.400 . S
C1896 H1881 0.960 . S
C1896 H1882 0.960 . S
C1896 H1883 0.960 . S
C1896 C1895 1.524 . S
C1897 C1894 1.403 . S
C1897 C1898 1.392 1_455 S
C1897 C1901 1.495 . S
C1898 C1897 1.392 1_655 S
C1898 C1899 1.385 . S
C1898 C1900 1.478 . S
C1899 H1893 0.930 . S
C1899 C1895 1.400 . S
C1899 C1898 1.385 . S
C1900 C1898 1.478 . S
C1900 C1902 1.381 . S
C1900 C1906 1.383 . S
C1901 C1897 1.495 . S
C1901 H1907 0.959 . S
C1901 H1908 0.961 . S
C1901 H1909 0.960 . S
C1902 C1900 1.381 . S
C1902 C1903 1.394 . S
C1902 H1910 0.930 . S
C1903 C1902 1.394 . S
C1903 C1904 1.383 . S
C1903 H1911 0.929 . S
C1904 C1903 1.383 . S
C1904 C1905 1.377 . S
C1905 H1889 0.930 . S
C1905 C1904 1.377 . S
C1905 C1906 1.379 . S
C1906 H1890 0.931 . S
C1906 C1900 1.383 . S
C1906 C1905 1.379 . S
H1907 C1901 0.959 . S
H1908 C1901 0.961 . S
H1909 C1901 0.960 . S
H1910 C1902 0.930 . S
H1911 C1903 0.929 . S
H1912 C1920 0.929 . S
H1913 C1922 0.930 . S
H1914 C1924 0.930 . S
H1915 C1927 0.929 . S
H1916 C1930 0.930 . S
H1917 C1932 0.960 . S
H1918 C1932 0.960 . S
H1919 C1932 0.961 . S
C1920 H1912 0.929 . S
C1920 C1921 1.377 . S
C1920 C1922 1.384 . S
C1921 C1920 1.377 . S
C1921 C1927 1.390 . S
C1922 H1913 0.930 . S
C1922 C1920 1.384 . S
C1922 C1923 1.372 . S
C1923 C1922 1.372 . S
C1923 C1924 1.400 . S
C1923 C1928 1.490 . S
C1924 H1914 0.930 . S
C1924 C1923 1.400 . S
C1924 C1927 1.386 . S
H1925 C1941 0.930 . S
H1926 C1942 0.931 . S
C1927 H1915 0.929 . S
C1927 C1921 1.390 . S
C1927 C1924 1.386 . S
C1928 C1923 1.490 . S
C1928 C1930 1.395 . S
C1928 C1931 1.403 1_455 S
H1929 C1935 0.930 . S
C1930 H1916 0.930 . S
C1930 C1928 1.395 . S
C1930 C1933 1.403 . S
C1931 C1928 1.403 1_655 S
C1931 C1932 1.524 . S
C1931 C1935 1.400 . S
C1932 H1917 0.960 . S
C1932 H1918 0.960 . S
C1932 H1919 0.961 . S
C1932 C1931 1.524 . S
C1933 C1930 1.403 . S
C1933 C1934 1.392 1_455 S
C1933 C1937 1.495 . S
C1934 C1933 1.392 1_655 S
C1934 C1935 1.385 . S
C1934 C1936 1.478 . S
C1935 H1929 0.930 . S
C1935 C1931 1.400 . S
C1935 C1934 1.385 . S
C1936 C1934 1.478 . S
C1936 C1938 1.381 . S
C1936 C1942 1.383 . S
C1937 C1933 1.495 . S
C1937 H1943 0.959 . S
C1937 H1944 0.961 . S
C1937 H1945 0.960 . S
C1938 C1936 1.381 . S
C1938 C1939 1.394 . S
C1938 H1946 0.930 . S
C1939 C1938 1.394 . S
C1939 C1940 1.383 . S
C1939 H1947 0.929 . S
C1940 C1939 1.383 . S
C1940 C1941 1.377 . S
C1941 H1925 0.930 . S
C1941 C1940 1.377 . S
C1941 C1942 1.379 . S
C1942 H1926 0.931 . S
C1942 C1936 1.383 . S
C1942 C1941 1.379 . S
H1943 C1937 0.959 . S
H1944 C1937 0.961 . S
H1945 C1937 0.960 . S
H1946 C1938 0.930 . S
H1947 C1939 0.929 . S
H1948 C1956 0.929 . S
H1949 C1958 0.930 . S
H1950 C1960 0.930 . S
H1951 C1963 0.929 . S
H1952 C1966 0.930 . S
H1953 C1968 0.960 . S
H1954 C1968 0.960 . S
H1955 C1968 0.960 . S
C1956 H1948 0.929 . S
C1956 C1957 1.377 . S
C1956 C1958 1.384 . S
C1957 C1956 1.377 . S
C1957 C1963 1.390 . S
C1958 H1949 0.930 . S
C1958 C1956 1.384 . S
C1958 C1959 1.372 . S
C1959 C1958 1.372 . S
C1959 C1960 1.400 . S
C1959 C1964 1.490 . S
C1960 H1950 0.930 . S
C1960 C1959 1.400 . S
C1960 C1963 1.386 . S
H1961 C1977 0.930 . S
H1962 C1978 0.931 . S
C1963 H1951 0.929 . S
C1963 C1957 1.390 . S
C1963 C1960 1.386 . S
C1964 C1959 1.490 . S
C1964 C1966 1.395 . S
C1964 C1967 1.403 1_655 S
H1965 C1971 0.930 . S
C1966 H1952 0.930 . S
C1966 C1964 1.395 . S
C1966 C1969 1.403 . S
C1967 C1964 1.403 1_455 S
C1967 C1968 1.524 . S
C1967 C1971 1.400 . S
C1968 H1953 0.960 . S
C1968 H1954 0.960 . S
C1968 H1955 0.960 . S
C1968 C1967 1.524 . S
C1969 C1966 1.403 . S
C1969 C1970 1.392 1_655 S
C1969 C1973 1.495 . S
C1970 C1969 1.392 1_455 S
C1970 C1971 1.385 . S
C1970 C1972 1.478 . S
C1971 H1965 0.930 . S
C1971 C1967 1.400 . S
C1971 C1970 1.385 . S
C1972 C1970 1.478 . S
C1972 C1974 1.381 . S
C1972 C1978 1.383 . S
C1973 C1969 1.495 . S
C1973 H1979 0.959 . S
C1973 H1980 0.961 . S
C1973 H1981 0.960 . S
C1974 C1972 1.381 . S
C1974 C1975 1.394 . S
C1974 H1982 0.930 . S
C1975 C1974 1.394 . S
C1975 C1976 1.383 . S
C1975 H1983 0.929 . S
C1976 C1975 1.383 . S
C1976 C1977 1.377 . S
C1977 H1961 0.930 . S
C1977 C1976 1.377 . S
C1977 C1978 1.379 . S
C1978 H1962 0.931 . S
C1978 C1972 1.383 . S
C1978 C1977 1.379 . S
H1979 C1973 0.959 . S
H1980 C1973 0.961 . S
H1981 C1973 0.960 . S
H1982 C1974 0.930 . S
H1983 C1975 0.929 . S
C553 C20 0.555 . S
C572 C509 0.532 . S
C589 C54 0.565 . S
C608 C543 0.532 . S
C625 C88 0.696 . S
C644 C441 0.718 . S
C661 C475 0.697 . S
C680 C122 0.683 . S
C697 C156 0.976 . S
C716 C373 0.991 . S
C733 C190 0.979 . S
C752 C407 0.975 . S
C769 C224 0.737 1_565 S
C788 C274 0.730 . S
C805 C308 0.736 . S
C824 C258 0.752 . S
C841 C292 0.562 . S
C860 C237 0.589 . S
C877 C271 0.550 . S
C896 C326 0.581 . S
C913 C360 0.700 . S
C932 C169 0.709 . S
C949 C394 0.698 . S
C968 C203 0.722 . S
C985 C428 0.979 . S
C1004 C101 0.966 . S
C1021 C462 0.975 . S
C1040 C135 0.948 . S
C1057 C2 0.733 . S
C1076 C496 0.712 . S
C1093 C36 0.737 . S
C1112 C530 0.755 1_545 S
C1129 C9 1.676 . S
C1148 C379 1.703 . S
C1165 C345 1.693 . S
C1184 C43 1.669 . S
C1201 C73 1.696 . S
C1220 C315 1.658 . S
C1237 C281 1.680 . S
C1256 C107 1.679 . S
C1273 C141 2.048 . S
C1292 C515 2.025 . S
C1309 C481 2.040 . S
C1328 C175 2.039 . S
C1345 C209 2.040 . S
C1364 C447 2.040 . S
C1381 C243 2.042 . S
C1400 C413 2.050 . S
C1417 C5 1.977 . S
C1436 C77 1.855 . S
C1453 C39 1.981 . S
C1472 C111 1.794 . S
C1489 C145 1.411 . S
C1508 C213 1.389 . S
C1525 C247 1.418 . S
C1544 C179 1.435 . S
C1561 C349 1.832 . S
C1580 C277 1.966 . S
C1597 C383 1.828 . S
C1616 C311 1.971 . S
C1633 C417 1.402 . S
C1652 C485 1.420 . S
C1669 C451 1.399 . S
C1688 C519 1.437 . S
C1705 C67 1.173 . S
C1724 C33 1.145 . S
C1741 C70 1.424 . S
C1760 C104 1.400 . S
C1777 C138 1.700 . S
C1796 C172 1.686 . S
C1813 C240 1.753 . S
C1832 C206 1.757 . S
C1849 C305 1.172 . S
C1868 C339 1.145 . S
C1885 C376 1.427 . S
C1904 C342 1.443 . S
C1921 C410 1.703 . S
C1940 C444 1.708 . S
C1957 C512 1.754 . S
C1976 C478 1.759 . S
