# Generated by pormake.
# Topology vmg, (6)-cn, num edge types: 1
# Building blocks:
#     Node 0, Type 0, BuildingBlock: VOLQOD_clean_sbu_1, # of connection points: 6
#     Node 1, Type 0, BuildingBlock: VOLQOD_clean_sbu_1, # of connection points: 6
#     Node 2, Type 0, BuildingBlock: VOLQOD_clean_sbu_1, # of connection points: 6
#     Node 3, Type 0, BuildingBlock: VOLQOD_clean_sbu_1, # of connection points: 6
#     Node 4, Type 0, BuildingBlock: VOLQOD_clean_sbu_1, # of connection points: 6
#     Node 5, Type 0, BuildingBlock: VOLQOD_clean_sbu_1, # of connection points: 6
#     Node 6, Type 0, BuildingBlock: VOLQOD_clean_sbu_1, # of connection points: 6
#     Node 7, Type 0, BuildingBlock: VOLQOD_clean_sbu_1, # of connection points: 6
#     Edge 8, Type (0, 0), BuildingBlock: AJUNOK_clean_linker_0, # of connection points: 2
#     Edge 9, Type (0, 0), BuildingBlock: AJUNOK_clean_linker_0, # of connection points: 2
#     Edge 10, Type (0, 0), BuildingBlock: AJUNOK_clean_linker_0, # of connection points: 2
#     Edge 11, Type (0, 0), BuildingBlock: AJUNOK_clean_linker_0, # of connection points: 2
#     Edge 12, Type (0, 0), BuildingBlock: AJUNOK_clean_linker_0, # of connection points: 2
#     Edge 13, Type (0, 0), BuildingBlock: AJUNOK_clean_linker_0, # of connection points: 2
#     Edge 14, Type (0, 0), BuildingBlock: AJUNOK_clean_linker_0, # of connection points: 2
#     Edge 15, Type (0, 0), BuildingBlock: AJUNOK_clean_linker_0, # of connection points: 2
#     Edge 16, Type (0, 0), BuildingBlock: AJUNOK_clean_linker_0, # of connection points: 2
#     Edge 17, Type (0, 0), BuildingBlock: AJUNOK_clean_linker_0, # of connection points: 2
#     Edge 18, Type (0, 0), BuildingBlock: AJUNOK_clean_linker_0, # of connection points: 2
#     Edge 19, Type (0, 0), BuildingBlock: AJUNOK_clean_linker_0, # of connection points: 2
#     Edge 20, Type (0, 0), BuildingBlock: AJUNOK_clean_linker_0, # of connection points: 2
#     Edge 21, Type (0, 0), BuildingBlock: AJUNOK_clean_linker_0, # of connection points: 2
#     Edge 22, Type (0, 0), BuildingBlock: AJUNOK_clean_linker_0, # of connection points: 2
#     Edge 23, Type (0, 0), BuildingBlock: AJUNOK_clean_linker_0, # of connection points: 2
#     Edge 24, Type (0, 0), BuildingBlock: AJUNOK_clean_linker_0, # of connection points: 2
#     Edge 25, Type (0, 0), BuildingBlock: AJUNOK_clean_linker_0, # of connection points: 2
#     Edge 26, Type (0, 0), BuildingBlock: AJUNOK_clean_linker_0, # of connection points: 2
#     Edge 27, Type (0, 0), BuildingBlock: AJUNOK_clean_linker_0, # of connection points: 2
#     Edge 28, Type (0, 0), BuildingBlock: AJUNOK_clean_linker_0, # of connection points: 2
#     Edge 29, Type (0, 0), BuildingBlock: AJUNOK_clean_linker_0, # of connection points: 2
#     Edge 30, Type (0, 0), BuildingBlock: AJUNOK_clean_linker_0, # of connection points: 2
#     Edge 31, Type (0, 0), BuildingBlock: AJUNOK_clean_linker_0, # of connection points: 2
# Relax obj value: 0.363
# Max RMSD: 0.272
# Mean RMSD: 0.272
data_MOF--net-vmg--node1-VOLQOD_clean_sbu_1--edge1-AJUNOK_clean_linker_0
_symmetry_space_group_name_H-M    P1
_symmetry_Int_Tables_number       1
_symmetry_cell_setting            triclinic
loop_
_symmetry_equiv_pos_as_xyz
'x, y, z'
_cell_length_a     21.825092
_cell_length_b     37.015833
_cell_length_c     21.159171
_cell_angle_alpha  89.988721
_cell_angle_beta   96.057168
_cell_angle_gamma 90.01592
loop_
_atom_site_label
_atom_site_type_symbol
_atom_site_fract_x
_atom_site_fract_y
_atom_site_fract_z
_atom_type_partial_charge
O0 O 0.14952 0.45672 0.09972 0.0
Zn1 Zn 0.23697 0.44198 0.12394 0.0
O2 O 0.23891 0.39049 0.12363 0.0
Zn3 Zn 0.25108 0.37035 0.20739 0.0
Zn4 Zn 0.16578 0.3722 0.07767 0.0
Zn5 Zn 0.30417 0.3763 0.07747 0.0
O6 O 0.33351 0.34337 0.21755 0.0
O7 O 0.37802 0.36886 0.13822 0.0
O8 O 0.26781 0.46166 0.21203 0.0
O9 O 0.26556 0.41132 0.26907 0.0
O10 O 0.17192 0.34414 0.22883 0.0
O11 O 0.11132 0.35487 0.13983 0.0
O12 O 0.18399 0.32706 0.02869 0.0
O13 O 0.2799 0.46169 0.0505 0.0
O14 O 0.28602 0.32797 0.04163 0.0
O15 O 0.31405 0.4119 0.00758 0.0
C16 C 0.11155 0.44444 0.0549 0.0
C17 C 0.38141 0.35049 0.18947 0.0
C18 C 0.11879 0.34321 0.19656 0.0
C19 C 0.27396 0.44531 0.26561 0.0
C20 C 0.2358 0.31183 0.02425 0.0
C21 C 0.30282 0.44567 0.00495 0.0
O22 O 0.11833 0.41295 0.03162 0.0
O23 O 0.86337 0.45529 0.40652 0.0
Zn24 Zn 0.77529 0.44199 0.3797 0.0
O25 O 0.77066 0.39046 0.38044 0.0
Zn26 Zn 0.75925 0.37004 0.29692 0.0
Zn27 Zn 0.84175 0.37078 0.42767 0.0
Zn28 Zn 0.70395 0.37741 0.42558 0.0
O29 O 0.67657 0.34346 0.28671 0.0
O30 O 0.63073 0.37089 0.36319 0.0
O31 O 0.74663 0.46159 0.29063 0.0
O32 O 0.74601 0.41078 0.23449 0.0
O33 O 0.83831 0.34327 0.27661 0.0
O34 O 0.89708 0.35291 0.3671 0.0
O35 O 0.8207 0.32598 0.476 0.0
O36 O 0.73119 0.46265 0.45158 0.0
O37 O 0.71892 0.3287 0.46158 0.0
O38 O 0.69524 0.4135 0.49542 0.0
C39 C 0.89984 0.4417 0.45146 0.0
C40 C 0.62797 0.35193 0.31258 0.0
C41 C 0.89065 0.3415 0.31027 0.0
C42 C 0.73947 0.44493 0.23732 0.0
C43 C 0.76805 0.31163 0.47964 0.0
C44 C 0.70719 0.44722 0.49706 0.0
O45 O 0.89025 0.41049 0.47442 0.0
O46 O 0.86647 0.51721 0.9053 0.0
Zn47 Zn 0.7777 0.52876 0.87864 0.0
O48 O 0.77071 0.58016 0.8796 0.0
Zn49 Zn 0.75908 0.60079 0.7965 0.0
Zn50 Zn 0.84055 0.60088 0.92757 0.0
Zn51 Zn 0.70258 0.59177 0.92325 0.0
O52 O 0.6767 0.62767 0.78645 0.0
O53 O 0.63018 0.59816 0.8602 0.0
O54 O 0.74865 0.50889 0.78941 0.0
O55 O 0.74479 0.56016 0.73451 0.0
O56 O 0.83846 0.6271 0.77604 0.0
O57 O 0.89661 0.61876 0.86738 0.0
O58 O 0.81666 0.64569 0.97503 0.0
O59 O 0.73546 0.50732 0.95144 0.0
O60 O 0.71523 0.64011 0.9604 0.0
O61 O 0.69363 0.55546 0.99224 0.0
C62 C 0.90066 0.53055 0.95233 0.0
C63 C 0.62784 0.6183 0.81106 0.0
C64 C 0.89056 0.6294 0.81005 0.0
C65 C 0.7393 0.52595 0.73656 0.0
C66 C 0.76282 0.6584 0.97899 0.0
C67 C 0.70902 0.52227 0.99578 0.0
O68 O 0.88884 0.56135 0.97569 0.0
O69 O 0.14797 0.51443 0.59669 0.0
Zn70 Zn 0.2353 0.52813 0.62323 0.0
O71 O 0.23849 0.57959 0.62335 0.0
Zn72 Zn 0.25104 0.59952 0.70727 0.0
Zn73 Zn 0.16658 0.59934 0.57679 0.0
Zn74 Zn 0.30495 0.59262 0.57829 0.0
O75 O 0.33342 0.62667 0.71703 0.0
O76 O 0.3783 0.59968 0.63946 0.0
O77 O 0.26459 0.50802 0.71143 0.0
O78 O 0.26562 0.55838 0.76876 0.0
O79 O 0.17183 0.62561 0.72887 0.0
O80 O 0.11186 0.61665 0.6388 0.0
O81 O 0.18755 0.64473 0.52879 0.0
O82 O 0.27899 0.50779 0.55088 0.0
O83 O 0.28919 0.64084 0.54245 0.0
O84 O 0.315 0.55717 0.50848 0.0
C85 C 0.11128 0.5273 0.5513 0.0
C86 C 0.38146 0.619 0.68957 0.0
C87 C 0.119 0.62737 0.69612 0.0
C88 C 0.27231 0.52427 0.76506 0.0
C89 C 0.24069 0.65845 0.52467 0.0
C90 C 0.30303 0.52351 0.50575 0.0
O91 O 0.11838 0.55914 0.52951 0.0
O92 O 0.63552 0.95465 0.09997 0.0
Zn93 Zn 0.72378 0.94157 0.12738 0.0
O94 O 0.72946 0.89 0.12474 0.0
Zn95 Zn 0.74192 0.86845 0.20725 0.0
Zn96 Zn 0.65823 0.8705 0.07767 0.0
Zn97 Zn 0.79557 0.87762 0.07827 0.0
O98 O 0.82547 0.84265 0.21659 0.0
O99 O 0.86943 0.8707 0.13936 0.0
O100 O 0.75158 0.96038 0.21766 0.0
O101 O 0.75444 0.90846 0.27055 0.0
O102 O 0.66332 0.84115 0.22753 0.0
O103 O 0.60333 0.85239 0.13838 0.0
O104 O 0.6789 0.826 0.02876 0.0
O105 O 0.76791 0.96322 0.05618 0.0
O106 O 0.78066 0.82917 0.04078 0.0
O107 O 0.80361 0.91475 0.01009 0.0
C108 C 0.59975 0.94125 0.05422 0.0
C109 C 0.87327 0.85129 0.18944 0.0
C110 C 0.61052 0.84008 0.19462 0.0
C111 C 0.75949 0.94271 0.26997 0.0
C112 C 0.73146 0.81194 0.0236 0.0
C113 C 0.79162 0.94847 0.00986 0.0
O114 O 0.6099 0.9102 0.03103 0.0
O115 O 0.35473 0.95733 0.40679 0.0
Zn116 Zn 0.26684 0.94328 0.37957 0.0
O117 O 0.26288 0.89165 0.37991 0.0
Zn118 Zn 0.25114 0.87135 0.29629 0.0
Zn119 Zn 0.3348 0.87236 0.42621 0.0
Zn120 Zn 0.19666 0.87781 0.42541 0.0
O121 O 0.16868 0.8446 0.28586 0.0
O122 O 0.12305 0.87098 0.36348 0.0
O123 O 0.23786 0.96291 0.29063 0.0
O124 O 0.23747 0.91221 0.23422 0.0
O125 O 0.32989 0.84462 0.27536 0.0
O126 O 0.38982 0.85458 0.36501 0.0
O127 O 0.31505 0.8277 0.47516 0.0
O128 O 0.2219 0.96338 0.45128 0.0
O129 O 0.21319 0.82912 0.46144 0.0
O130 O 0.18723 0.91385 0.49513 0.0
C131 C 0.3917 0.9436 0.45119 0.0
C132 C 0.12017 0.85256 0.31226 0.0
C133 C 0.38269 0.84312 0.30817 0.0
C134 C 0.23065 0.94633 0.23725 0.0
C135 C 0.26304 0.81271 0.47937 0.0
C136 C 0.1982 0.9477 0.4967 0.0
O137 O 0.38289 0.91207 0.47314 0.0
O138 O 0.35415 0.01493 0.90421 0.0
Zn139 Zn 0.2666 0.0287 0.87803 0.0
O140 O 0.26338 0.08022 0.87931 0.0
Zn141 Zn 0.252 0.10089 0.7961 0.0
Zn142 Zn 0.33505 0.09948 0.92679 0.0
Zn143 Zn 0.19615 0.09306 0.92357 0.0
O144 O 0.17006 0.12818 0.78568 0.0
O145 O 0.12342 0.10027 0.86108 0.0
O146 O 0.23662 0.0093 0.78899 0.0
O147 O 0.23693 0.06037 0.73382 0.0
O148 O 0.33155 0.12696 0.77567 0.0
O149 O 0.39075 0.11736 0.86598 0.0
O150 O 0.31358 0.14426 0.97581 0.0
O151 O 0.22348 0.00804 0.95075 0.0
O152 O 0.21174 0.14105 0.96099 0.0
O153 O 0.18607 0.05714 0.99279 0.0
C154 C 0.39009 0.02733 0.95068 0.0
C155 C 0.12119 0.11961 0.81096 0.0
C156 C 0.38413 0.12851 0.80889 0.0
C157 C 0.22913 0.02631 0.73602 0.0
C158 C 0.26057 0.15807 0.98015 0.0
C159 C 0.19902 0.0236 0.9958 0.0
O160 O 0.38237 0.05884 0.97351 0.0
O161 O 0.63654 0.01698 0.60154 0.0
Zn162 Zn 0.72449 0.02934 0.62829 0.0
O163 O 0.73048 0.08065 0.62514 0.0
Zn164 Zn 0.74359 0.10204 0.70771 0.0
Zn165 Zn 0.65972 0.10079 0.57736 0.0
Zn166 Zn 0.79747 0.09156 0.57924 0.0
O167 O 0.82682 0.12824 0.71567 0.0
O168 O 0.87106 0.0985 0.64048 0.0
O169 O 0.75266 0.01033 0.71802 0.0
O170 O 0.75708 0.06206 0.77143 0.0
O171 O 0.66485 0.12913 0.72811 0.0
O172 O 0.60498 0.11929 0.63824 0.0
O173 O 0.68297 0.14536 0.52855 0.0
O174 O 0.76701 0.00686 0.55698 0.0
O175 O 0.78437 0.13955 0.54128 0.0
O176 O 0.80499 0.05453 0.5109 0.0
C177 C 0.60171 0.02943 0.55427 0.0
C178 C 0.8747 0.11905 0.68913 0.0
C179 C 0.6122 0.13089 0.69498 0.0
C180 C 0.76175 0.02778 0.77043 0.0
C181 C 0.73674 0.15793 0.52346 0.0
C182 C 0.79137 0.02105 0.5106 0.0
O183 O 0.61083 0.06063 0.53081 0.0
C184 C 0.51515 0.34345 0.31666 0.0
C185 C 0.56619 0.34284 0.28101 0.0
C186 C 0.45476 0.34266 0.28689 0.0
C187 C 0.44336 0.34163 0.22039 0.0
H188 H 0.52178 0.34642 0.36786 0.0
H189 H 0.41706 0.34555 0.31597 0.0
S190 S 0.56032 0.33336 0.10595 0.0
N191 N 0.60102 0.33626 0.17611 0.0
N192 N 0.48741 0.33495 0.12009 0.0
C193 C 0.49376 0.33781 0.18451 0.0
C194 C 0.55527 0.3383 0.21486 0.0
C195 C 0.51551 0.62774 0.81575 0.0
C196 C 0.56628 0.62777 0.77972 0.0
C197 C 0.45501 0.62831 0.78632 0.0
C198 C 0.44332 0.6285 0.71983 0.0
H199 H 0.5225 0.62528 0.86704 0.0
H200 H 0.41748 0.62577 0.81571 0.0
S201 S 0.55964 0.63518 0.60437 0.0
N202 N 0.60067 0.63301 0.67445 0.0
N203 N 0.48682 0.634 0.61897 0.0
C204 C 0.49349 0.63192 0.68349 0.0
C205 C 0.55511 0.63163 0.7135 0.0
C206 C 0.00736 0.84368 0.31625 0.0
C207 C 0.05835 0.84366 0.28052 0.0
C208 C 0.94692 0.84296 0.28655 0.0
C209 C 0.93543 0.84262 0.22002 0.0
H210 H 0.01406 0.84609 0.36755 0.0
H211 H 0.90922 0.84532 0.31576 0.0
S212 S 0.05223 0.83635 0.1051 0.0
N213 N 0.09302 0.83856 0.17529 0.0
N214 N 0.97934 0.83744 0.11943 0.0
C215 C 0.98579 0.83952 0.18394 0.0
C216 C 0.04734 0.83992 0.2142 0.0
C217 C 0.00885 0.12957 0.81492 0.0
C218 C 0.05968 0.12871 0.77901 0.0
C219 C 0.94837 0.12973 0.78537 0.0
C220 C 0.93676 0.12857 0.71889 0.0
H221 H 0.01577 0.12814 0.86633 0.0
H222 H 0.91077 0.12798 0.81483 0.0
S223 S 0.05324 0.13225 0.60328 0.0
N224 N 0.09419 0.13149 0.6735 0.0
N225 N 0.98039 0.13163 0.61784 0.0
C226 C 0.98698 0.13094 0.68245 0.0
C227 C 0.04858 0.13112 0.71255 0.0
C228 C 0.29579 0.2579 0.99597 0.0
C229 C 0.2391 0.27288 0.00907 0.0
C230 C 0.30338 0.22056 0.99002 0.0
C231 C 0.25455 0.19663 0.99686 0.0
H232 H 0.33502 0.27516 0.99064 0.0
H233 H 0.34743 0.21055 0.97833 0.0
S234 S 0.09758 0.22166 0.03479 0.0
N235 N 0.13385 0.26059 0.03093 0.0
N236 N 0.14797 0.19041 0.01978 0.0
C237 C 0.19775 0.21115 0.01073 0.0
C238 C 0.18997 0.24923 0.01654 0.0
C239 C 0.70394 0.25783 0.50034 0.0
C240 C 0.76265 0.27272 0.49489 0.0
C241 C 0.69544 0.22057 0.50644 0.0
C242 C 0.74529 0.1965 0.50744 0.0
H243 H 0.66374 0.27507 0.49937 0.0
H244 H 0.64951 0.21073 0.51173 0.0
S245 S 0.90861 0.22135 0.49334 0.0
N246 N 0.87151 0.26024 0.49006 0.0
N247 N 0.85581 0.19025 0.50124 0.0
C248 C 0.80437 0.21096 0.5016 0.0
C249 C 0.81302 0.24899 0.49571 0.0
C250 C 0.79525 0.75843 1.00061 0.0
C251 C 0.73678 0.7731 0.00794 0.0
C252 C 0.80386 0.72119 0.99431 0.0
C253 C 0.75437 0.69696 0.99498 0.0
H254 H 0.83515 0.77582 1.0003 0.0
H255 H 0.84954 0.7115 0.98753 0.0
S256 S 0.59202 0.72114 0.01476 0.0
N257 N 0.62863 0.76018 0.01657 0.0
N258 N 0.64466 0.69024 0.00501 0.0
C259 C 0.69561 0.71118 0.00271 0.0
C260 C 0.6868 0.74917 0.00883 0.0
C261 C 0.19541 0.71996 0.50396 0.0
C262 C 0.24727 0.69726 0.50907 0.0
C263 C 0.20141 0.75737 0.49721 0.0
C264 C 0.25954 0.77377 0.49524 0.0
H265 H 0.14973 0.70891 0.50622 0.0
H266 H 0.15976 0.77349 0.49282 0.0
S267 S 0.41031 0.72642 0.50624 0.0
N268 N 0.35919 0.69399 0.51114 0.0
N269 N 0.37018 0.76421 0.49896 0.0
C270 C 0.31192 0.75142 0.50049 0.0
C271 C 0.30584 0.71326 0.50699 0.0
C272 C 0.96487 0.47451 0.95678 0.0
C273 C 0.95485 0.50949 0.97983 0.0
C274 C 0.01551 0.45382 0.98123 0.0
C275 C 0.05846 0.46717 0.02982 0.0
H276 H 0.93329 0.46277 0.91944 0.0
H277 H 0.02079 0.42708 0.96173 0.0
S278 S 0.05396 0.55741 0.10663 0.0
N279 N 0.99258 0.55673 0.054 0.0
N280 N 0.08774 0.51793 0.1001 0.0
C281 C 0.04917 0.50219 0.05338 0.0
C282 C 0.99744 0.52329 0.02841 0.0
C283 C 0.00669 0.52109 0.49163 0.0
C284 C 0.0588 0.50482 0.52459 0.0
C285 C 0.95552 0.50044 0.46822 0.0
C286 C 0.95452 0.46273 0.47689 0.0
H287 H 0.00488 0.55009 0.48471 0.0
H288 H 0.91615 0.51426 0.4438 0.0
S289 S 0.08174 0.40654 0.55453 0.0
N290 N 0.10789 0.44835 0.56111 0.0
N291 N 0.01166 0.40966 0.51716 0.0
C292 C 0.00683 0.446 0.50857 0.0
C293 C 0.05897 0.46699 0.53234 0.0
C294 C 0.54356 -0.0001 0.03835 0.0
C295 C 0.54548 0.96238 0.0278 0.0
C296 C 0.49292 0.02065 0.01384 0.0
C297 C 0.44224 0.00468 0.9778 0.0
H298 H 0.58181 0.01353 0.06518 0.0
H299 H 0.49401 0.0495 0.02249 0.0
S300 S 0.4221 0.90691 0.94121 0.0
N301 N 0.49069 0.90976 0.98192 0.0
N302 N 0.3955 0.94865 0.93587 0.0
C303 C 0.443 0.96704 0.96791 0.0
C304 C 0.49461 0.94593 0.99285 0.0
C305 C 0.44705 0.0025 0.46866 0.0
C306 C 0.44606 0.96477 0.47728 0.0
C307 C 0.49785 0.02323 0.49296 0.0
C308 C 0.54951 0.00701 0.52682 0.0
H309 H 0.40796 0.01627 0.4436 0.0
H310 H 0.49612 0.05223 0.48604 0.0
S311 S 0.57259 0.90881 0.55708 0.0
N312 N 0.50299 0.9118 0.51856 0.0
N313 N 0.59841 0.95067 0.56408 0.0
C314 C 0.54975 0.96921 0.53454 0.0
C315 C 0.49804 0.94813 0.50986 0.0
C316 C 0.00462 0.33329 0.18822 0.0
C317 C 0.06207 0.33307 0.22607 0.0
C318 C 0.94872 0.33269 0.21535 0.0
C319 C 0.9478 0.33161 0.28152 0.0
H320 H 0.00243 0.33627 0.1371 0.0
H321 H 0.90626 0.33571 0.18433 0.0
S322 S 0.08463 0.32188 0.40116 0.0
N323 N 0.11392 0.32559 0.33265 0.0
N324 N 0.00916 0.32357 0.38381 0.0
C325 C 0.00467 0.32719 0.31953 0.0
C326 C 0.06168 0.32811 0.29182 0.0
C327 C 0.00466 0.63673 0.68784 0.0
C328 C 0.06214 0.63729 0.72562 0.0
C329 C 0.94878 0.63742 0.71501 0.0
C330 C 0.94786 0.63892 0.78117 0.0
H331 H 0.00241 0.63347 0.63678 0.0
H332 H 0.90633 0.63423 0.68405 0.0
S333 S 0.08474 0.64948 0.9005 0.0
N334 N 0.114 0.64543 0.83203 0.0
N335 N 0.00927 0.64754 0.88326 0.0
C336 C 0.00475 0.64354 0.81906 0.0
C337 C 0.06175 0.64255 0.7913 0.0
C338 C 0.49693 0.83334 0.31705 0.0
C339 C 0.43948 0.83257 0.27918 0.0
C340 C 0.55284 0.83226 0.28997 0.0
C341 C 0.55373 0.83015 0.22388 0.0
H342 H 0.49912 0.83717 0.36799 0.0
H343 H 0.59529 0.83585 0.32079 0.0
S344 S 0.41707 0.8185 0.10473 0.0
N345 N 0.3877 0.82333 0.173 0.0
N346 N 0.49254 0.82048 0.12204 0.0
C347 C 0.49692 0.82513 0.1861 0.0
C348 C 0.4399 0.82653 0.21372 0.0
C349 C 0.55461 0.13805 0.79059 0.0
C350 C 0.55551 0.14076 0.72454 0.0
C351 C 0.49872 0.13713 0.81775 0.0
C352 C 0.44124 0.13868 0.78003 0.0
H353 H 0.59701 0.13395 0.82126 0.0
H354 H 0.50089 0.13285 0.86857 0.0
S355 S 0.41897 0.15441 0.60601 0.0
N356 N 0.49439 0.15168 0.62309 0.0
N357 N 0.38959 0.14921 0.6742 0.0
C358 C 0.44175 0.14523 0.71471 0.0
C359 C 0.49876 0.14643 0.68701 0.0
C360 C 0.29532 0.50303 0.94192 0.0
C361 C 0.3061 0.46556 0.94409 0.0
C362 C 0.2864 0.52165 0.88406 0.0
C363 C 0.28745 0.50371 0.82536 0.0
H364 H 0.29147 0.51808 0.98523 0.0
H365 H 0.27658 0.5503 0.88565 0.0
S366 S 0.32048 0.40631 0.80444 0.0
N367 N 0.32242 0.41157 0.88209 0.0
N368 N 0.30536 0.44665 0.77341 0.0
C369 C 0.30133 0.46657 0.82676 0.0
C370 C 0.31086 0.44754 0.88597 0.0
C371 C 0.71291 0.4492 0.61606 0.0
C372 C 0.70406 0.46749 0.55733 0.0
C373 C 0.72249 0.46813 0.67389 0.0
C374 C 0.72315 0.50616 0.67544 0.0
H375 H 0.71576 0.41998 0.61737 0.0
H376 H 0.73143 0.45276 0.71744 0.0
S377 S 0.69279 0.56671 0.53492 0.0
N378 N 0.69038 0.52559 0.50464 0.0
N379 N 0.70699 0.56131 0.61249 0.0
C380 C 0.71033 0.52469 0.61704 0.0
C381 C 0.70117 0.50537 0.5583 0.0
C382 C 0.73036 0.44714 0.11829 0.0
C383 C 0.72501 0.46498 0.17636 0.0
C384 C 0.72145 0.46536 0.05999 0.0
C385 C 0.70624 0.50229 0.05671 0.0
H386 H 0.74355 0.41894 0.11763 0.0
H387 H 0.72863 0.4505 0.01729 0.0
S388 S 0.67982 0.56081 0.1942 0.0
N389 N 0.69859 0.52117 0.22638 0.0
N390 N 0.68138 0.5555 0.11693 0.0
C391 C 0.69737 0.52009 0.11412 0.0
C392 C 0.70701 0.5015 0.17378 0.0
C393 C 0.28547 0.44776 0.38458 0.0
C394 C 0.28896 0.46561 0.32616 0.0
C395 C 0.29399 0.46626 0.44256 0.0
C396 C 0.3068 0.5035 0.44512 0.0
H397 H 0.27394 0.41933 0.38582 0.0
H398 H 0.28817 0.45134 0.48557 0.0
S399 S 0.32819 0.56228 0.30649 0.0
N400 N 0.31149 0.52221 0.27501 0.0
N401 N 0.32786 0.55708 0.38394 0.0
C402 C 0.31408 0.52136 0.38737 0.0
C403 C 0.30495 0.50246 0.32803 0.0
C404 C 0.79112 0.95142 0.89125 0.0
C405 C 0.79463 0.96948 0.95022 0.0
C406 C 0.78202 0.97039 0.83346 0.0
C407 C 0.77652 0.00829 0.83207 0.0
H408 H 0.79237 0.92219 0.88949 0.0
H409 H 0.77761 0.95505 0.78964 0.0
S410 S 0.79037 0.06874 0.97361 0.0
N411 N 0.79734 0.02762 0.00357 0.0
N412 N 0.78107 0.0634 0.89578 0.0
C413 C 0.78351 0.0268 0.89087 0.0
C414 C 0.79234 0.00742 0.94961 0.0
C415 C 0.21243 0.96853 0.67344 0.0
C416 C 0.21274 0.00656 0.67499 0.0
C417 C 0.20323 0.9496 0.61561 0.0
C418 C 0.19437 0.9679 0.5569 0.0
H419 H 0.22156 0.95317 0.71698 0.0
H420 H 0.20649 0.9204 0.61692 0.0
S421 S 0.18163 0.06708 0.53462 0.0
N422 N 0.19581 0.06168 0.6122 0.0
N423 N 0.17986 0.02599 0.50426 0.0
C424 C 0.19088 0.00577 0.55789 0.0
C425 C 0.1997 0.02508 0.61665 0.0
C426 C 0.2195 0.94843 0.11818 0.0
C427 C 0.2157 0.96643 0.17641 0.0
C428 C 0.21021 0.96664 0.05992 0.0
C429 C 0.19622 0.00374 0.05683 0.0
H430 H 0.23176 0.92009 0.11732 0.0
H431 H 0.21627 0.95163 0.01707 0.0
S432 S 0.1739 0.06277 0.19486 0.0
N433 N 0.19189 0.02299 0.22685 0.0
N434 N 0.17403 0.05731 0.11745 0.0
C435 C 0.18882 0.02173 0.11444 0.0
C436 C 0.19879 0.00313 0.17406 0.0
C437 C 0.79449 0.01786 0.3923 0.0
C438 C 0.79328 -0.00015 0.45095 0.0
C439 C 0.7847 -0.00074 0.33415 0.0
C440 C 0.77376 0.96178 0.33209 0.0
H441 H 0.80025 0.04691 0.39094 0.0
H442 H 0.7844 0.01459 0.29053 0.0
S443 S 0.77211 0.9013 0.47272 0.0
N444 N 0.78472 0.94193 0.50331 0.0
N445 N 0.76677 0.9069 0.39499 0.0
C446 C 0.77548 0.94317 0.39067 0.0
C447 C 0.78515 0.96217 0.44972 0.0
loop_
_geom_bond_atom_site_label_1
_geom_bond_atom_site_label_2
_geom_bond_distance
_geom_bond_site_symmetry_2
_ccdc_geom_bond_type
O0 Zn1 1.953 . S
O0 C16 1.225 . S
Zn1 O0 1.953 . S
Zn1 O2 1.949 . S
Zn1 O8 1.919 . S
Zn1 O13 1.924 . S
O2 Zn1 1.949 . S
O2 Zn3 1.923 . S
O2 Zn4 1.950 . S
O2 Zn5 1.945 . S
Zn3 O2 1.923 . S
Zn3 O6 1.933 . S
Zn3 O9 1.941 . S
Zn3 O10 1.965 . S
Zn4 O2 1.950 . S
Zn4 O11 1.938 . S
Zn4 O12 1.906 . S
Zn4 O22 1.953 . S
Zn5 O2 1.945 . S
Zn5 O7 1.932 . S
Zn5 O14 1.977 . S
Zn5 O15 1.910 . S
O6 Zn3 1.933 . S
O6 C17 1.226 . S
O7 Zn5 1.932 . S
O7 C17 1.307 . S
O8 Zn1 1.919 . S
O8 C19 1.253 . S
O9 Zn3 1.941 . S
O9 C19 1.283 . S
O10 Zn3 1.965 . S
O10 C18 1.303 . S
O11 Zn4 1.938 . S
O11 C18 1.247 . S
O12 Zn4 1.906 . S
O12 C20 1.304 . S
O13 Zn1 1.924 . S
O13 C21 1.311 . S
O14 Zn5 1.977 . S
O14 C20 1.272 . S
O15 Zn5 1.910 . S
O15 C21 1.231 . S
C16 O0 1.225 . S
C16 O22 1.298 . S
C17 O6 1.226 . S
C17 O7 1.307 . S
C18 O10 1.303 . S
C18 O11 1.247 . S
C19 O8 1.253 . S
C19 O9 1.283 . S
C20 O12 1.304 . S
C20 O14 1.272 . S
C21 O13 1.311 . S
C21 O15 1.231 . S
O22 Zn4 1.953 . S
O22 C16 1.298 . S
O23 Zn24 1.953 . S
O23 C39 1.225 . S
Zn24 O23 1.953 . S
Zn24 O25 1.949 . S
Zn24 O31 1.919 . S
Zn24 O36 1.924 . S
O25 Zn24 1.949 . S
O25 Zn26 1.923 . S
O25 Zn27 1.950 . S
O25 Zn28 1.945 . S
Zn26 O25 1.923 . S
Zn26 O29 1.933 . S
Zn26 O32 1.941 . S
Zn26 O33 1.965 . S
Zn27 O25 1.950 . S
Zn27 O34 1.938 . S
Zn27 O35 1.906 . S
Zn27 O45 1.953 . S
Zn28 O25 1.945 . S
Zn28 O30 1.932 . S
Zn28 O37 1.977 . S
Zn28 O38 1.910 . S
O29 Zn26 1.933 . S
O29 C40 1.226 . S
O30 Zn28 1.932 . S
O30 C40 1.307 . S
O31 Zn24 1.919 . S
O31 C42 1.253 . S
O32 Zn26 1.941 . S
O32 C42 1.283 . S
O33 Zn26 1.965 . S
O33 C41 1.303 . S
O34 Zn27 1.938 . S
O34 C41 1.247 . S
O35 Zn27 1.906 . S
O35 C43 1.304 . S
O36 Zn24 1.924 . S
O36 C44 1.311 . S
O37 Zn28 1.977 . S
O37 C43 1.272 . S
O38 Zn28 1.910 . S
O38 C44 1.231 . S
C39 O23 1.225 . S
C39 O45 1.298 . S
C40 O29 1.226 . S
C40 O30 1.307 . S
C41 O33 1.303 . S
C41 O34 1.247 . S
C42 O31 1.253 . S
C42 O32 1.283 . S
C43 O35 1.304 . S
C43 O37 1.272 . S
C44 O36 1.311 . S
C44 O38 1.231 . S
O45 Zn27 1.953 . S
O45 C39 1.298 . S
O46 Zn47 1.953 . S
O46 C62 1.225 . S
Zn47 O46 1.953 . S
Zn47 O48 1.949 . S
Zn47 O54 1.919 . S
Zn47 O59 1.924 . S
O48 Zn47 1.949 . S
O48 Zn49 1.923 . S
O48 Zn50 1.950 . S
O48 Zn51 1.945 . S
Zn49 O48 1.923 . S
Zn49 O52 1.933 . S
Zn49 O55 1.941 . S
Zn49 O56 1.965 . S
Zn50 O48 1.950 . S
Zn50 O57 1.938 . S
Zn50 O58 1.906 . S
Zn50 O68 1.953 . S
Zn51 O48 1.945 . S
Zn51 O53 1.932 . S
Zn51 O60 1.977 . S
Zn51 O61 1.910 . S
O52 Zn49 1.933 . S
O52 C63 1.226 . S
O53 Zn51 1.932 . S
O53 C63 1.307 . S
O54 Zn47 1.919 . S
O54 C65 1.253 . S
O55 Zn49 1.941 . S
O55 C65 1.283 . S
O56 Zn49 1.965 . S
O56 C64 1.303 . S
O57 Zn50 1.938 . S
O57 C64 1.247 . S
O58 Zn50 1.906 . S
O58 C66 1.304 . S
O59 Zn47 1.924 . S
O59 C67 1.311 . S
O60 Zn51 1.977 . S
O60 C66 1.272 . S
O61 Zn51 1.910 . S
O61 C67 1.231 . S
C62 O46 1.225 . S
C62 O68 1.298 . S
C63 O52 1.226 . S
C63 O53 1.307 . S
C64 O56 1.303 . S
C64 O57 1.247 . S
C65 O54 1.253 . S
C65 O55 1.283 . S
C66 O58 1.304 . S
C66 O60 1.272 . S
C67 O59 1.311 . S
C67 O61 1.231 . S
O68 Zn50 1.953 . S
O68 C62 1.298 . S
O69 Zn70 1.953 . S
O69 C85 1.225 . S
Zn70 O69 1.953 . S
Zn70 O71 1.949 . S
Zn70 O77 1.919 . S
Zn70 O82 1.924 . S
O71 Zn70 1.949 . S
O71 Zn72 1.923 . S
O71 Zn73 1.950 . S
O71 Zn74 1.945 . S
Zn72 O71 1.923 . S
Zn72 O75 1.933 . S
Zn72 O78 1.941 . S
Zn72 O79 1.965 . S
Zn73 O71 1.950 . S
Zn73 O80 1.938 . S
Zn73 O81 1.906 . S
Zn73 O91 1.953 . S
Zn74 O71 1.945 . S
Zn74 O76 1.932 . S
Zn74 O83 1.977 . S
Zn74 O84 1.910 . S
O75 Zn72 1.933 . S
O75 C86 1.226 . S
O76 Zn74 1.932 . S
O76 C86 1.307 . S
O77 Zn70 1.919 . S
O77 C88 1.253 . S
O78 Zn72 1.941 . S
O78 C88 1.283 . S
O79 Zn72 1.965 . S
O79 C87 1.303 . S
O80 Zn73 1.938 . S
O80 C87 1.247 . S
O81 Zn73 1.906 . S
O81 C89 1.304 . S
O82 Zn70 1.924 . S
O82 C90 1.311 . S
O83 Zn74 1.977 . S
O83 C89 1.272 . S
O84 Zn74 1.910 . S
O84 C90 1.231 . S
C85 O69 1.225 . S
C85 O91 1.298 . S
C86 O75 1.226 . S
C86 O76 1.307 . S
C87 O79 1.303 . S
C87 O80 1.247 . S
C88 O77 1.253 . S
C88 O78 1.283 . S
C89 O81 1.304 . S
C89 O83 1.272 . S
C90 O82 1.311 . S
C90 O84 1.231 . S
O91 Zn73 1.953 . S
O91 C85 1.298 . S
O92 Zn93 1.953 . S
O92 C108 1.225 . S
Zn93 O92 1.953 . S
Zn93 O94 1.949 . S
Zn93 O100 1.919 . S
Zn93 O105 1.924 . S
O94 Zn93 1.949 . S
O94 Zn95 1.923 . S
O94 Zn96 1.950 . S
O94 Zn97 1.945 . S
Zn95 O94 1.923 . S
Zn95 O98 1.933 . S
Zn95 O101 1.941 . S
Zn95 O102 1.965 . S
Zn96 O94 1.950 . S
Zn96 O103 1.938 . S
Zn96 O104 1.906 . S
Zn96 O114 1.953 . S
Zn97 O94 1.945 . S
Zn97 O99 1.932 . S
Zn97 O106 1.977 . S
Zn97 O107 1.910 . S
O98 Zn95 1.933 . S
O98 C109 1.226 . S
O99 Zn97 1.932 . S
O99 C109 1.307 . S
O100 Zn93 1.919 . S
O100 C111 1.253 . S
O101 Zn95 1.941 . S
O101 C111 1.283 . S
O102 Zn95 1.965 . S
O102 C110 1.303 . S
O103 Zn96 1.938 . S
O103 C110 1.247 . S
O104 Zn96 1.906 . S
O104 C112 1.304 . S
O105 Zn93 1.924 . S
O105 C113 1.311 . S
O106 Zn97 1.977 . S
O106 C112 1.272 . S
O107 Zn97 1.910 . S
O107 C113 1.231 . S
C108 O92 1.225 . S
C108 O114 1.298 . S
C109 O98 1.226 . S
C109 O99 1.307 . S
C110 O102 1.303 . S
C110 O103 1.247 . S
C111 O100 1.253 . S
C111 O101 1.283 . S
C112 O104 1.304 . S
C112 O106 1.272 . S
C113 O105 1.311 . S
C113 O107 1.231 . S
O114 Zn96 1.953 . S
O114 C108 1.298 . S
O115 Zn116 1.953 . S
O115 C131 1.225 . S
Zn116 O115 1.953 . S
Zn116 O117 1.949 . S
Zn116 O123 1.919 . S
Zn116 O128 1.924 . S
O117 Zn116 1.949 . S
O117 Zn118 1.923 . S
O117 Zn119 1.950 . S
O117 Zn120 1.945 . S
Zn118 O117 1.923 . S
Zn118 O121 1.933 . S
Zn118 O124 1.941 . S
Zn118 O125 1.965 . S
Zn119 O117 1.950 . S
Zn119 O126 1.938 . S
Zn119 O127 1.906 . S
Zn119 O137 1.953 . S
Zn120 O117 1.945 . S
Zn120 O122 1.932 . S
Zn120 O129 1.977 . S
Zn120 O130 1.910 . S
O121 Zn118 1.933 . S
O121 C132 1.226 . S
O122 Zn120 1.932 . S
O122 C132 1.307 . S
O123 Zn116 1.919 . S
O123 C134 1.253 . S
O124 Zn118 1.941 . S
O124 C134 1.283 . S
O125 Zn118 1.965 . S
O125 C133 1.303 . S
O126 Zn119 1.938 . S
O126 C133 1.247 . S
O127 Zn119 1.906 . S
O127 C135 1.304 . S
O128 Zn116 1.924 . S
O128 C136 1.311 . S
O129 Zn120 1.977 . S
O129 C135 1.272 . S
O130 Zn120 1.910 . S
O130 C136 1.231 . S
C131 O115 1.225 . S
C131 O137 1.298 . S
C132 O121 1.226 . S
C132 O122 1.307 . S
C133 O125 1.303 . S
C133 O126 1.247 . S
C134 O123 1.253 . S
C134 O124 1.283 . S
C135 O127 1.304 . S
C135 O129 1.272 . S
C136 O128 1.311 . S
C136 O130 1.231 . S
O137 Zn119 1.953 . S
O137 C131 1.298 . S
O138 Zn139 1.953 . S
O138 C154 1.225 . S
Zn139 O138 1.953 . S
Zn139 O140 1.949 . S
Zn139 O146 1.919 . S
Zn139 O151 1.924 . S
O140 Zn139 1.949 . S
O140 Zn141 1.923 . S
O140 Zn142 1.950 . S
O140 Zn143 1.945 . S
Zn141 O140 1.923 . S
Zn141 O144 1.933 . S
Zn141 O147 1.941 . S
Zn141 O148 1.965 . S
Zn142 O140 1.950 . S
Zn142 O149 1.938 . S
Zn142 O150 1.906 . S
Zn142 O160 1.953 . S
Zn143 O140 1.945 . S
Zn143 O145 1.932 . S
Zn143 O152 1.977 . S
Zn143 O153 1.910 . S
O144 Zn141 1.933 . S
O144 C155 1.226 . S
O145 Zn143 1.932 . S
O145 C155 1.307 . S
O146 Zn139 1.919 . S
O146 C157 1.253 . S
O147 Zn141 1.941 . S
O147 C157 1.283 . S
O148 Zn141 1.965 . S
O148 C156 1.303 . S
O149 Zn142 1.938 . S
O149 C156 1.247 . S
O150 Zn142 1.906 . S
O150 C158 1.304 . S
O151 Zn139 1.924 . S
O151 C159 1.311 . S
O152 Zn143 1.977 . S
O152 C158 1.272 . S
O153 Zn143 1.910 . S
O153 C159 1.231 . S
C154 O138 1.225 . S
C154 O160 1.298 . S
C155 O144 1.226 . S
C155 O145 1.307 . S
C156 O148 1.303 . S
C156 O149 1.247 . S
C157 O146 1.253 . S
C157 O147 1.283 . S
C158 O150 1.304 . S
C158 O152 1.272 . S
C159 O151 1.311 . S
C159 O153 1.231 . S
O160 Zn142 1.953 . S
O160 C154 1.298 . S
O161 Zn162 1.953 . S
O161 C177 1.225 . S
Zn162 O161 1.953 . S
Zn162 O163 1.949 . S
Zn162 O169 1.919 . S
Zn162 O174 1.924 . S
O163 Zn162 1.949 . S
O163 Zn164 1.923 . S
O163 Zn165 1.950 . S
O163 Zn166 1.945 . S
Zn164 O163 1.923 . S
Zn164 O167 1.933 . S
Zn164 O170 1.941 . S
Zn164 O171 1.965 . S
Zn165 O163 1.950 . S
Zn165 O172 1.938 . S
Zn165 O173 1.906 . S
Zn165 O183 1.953 . S
Zn166 O163 1.945 . S
Zn166 O168 1.932 . S
Zn166 O175 1.977 . S
Zn166 O176 1.910 . S
O167 Zn164 1.933 . S
O167 C178 1.226 . S
O168 Zn166 1.932 . S
O168 C178 1.307 . S
O169 Zn162 1.919 . S
O169 C180 1.253 . S
O170 Zn164 1.941 . S
O170 C180 1.283 . S
O171 Zn164 1.965 . S
O171 C179 1.303 . S
O172 Zn165 1.938 . S
O172 C179 1.247 . S
O173 Zn165 1.906 . S
O173 C181 1.304 . S
O174 Zn162 1.924 . S
O174 C182 1.311 . S
O175 Zn166 1.977 . S
O175 C181 1.272 . S
O176 Zn166 1.910 . S
O176 C182 1.231 . S
C177 O161 1.225 . S
C177 O183 1.298 . S
C178 O167 1.226 . S
C178 O168 1.307 . S
C179 O171 1.303 . S
C179 O172 1.247 . S
C180 O169 1.253 . S
C180 O170 1.283 . S
C181 O173 1.304 . S
C181 O175 1.272 . S
C182 O174 1.311 . S
C182 O176 1.231 . S
O183 Zn165 1.953 . S
O183 C177 1.298 . S
C184 C185 1.369 . S
C184 C186 1.419 . S
C184 H188 0.930 . S
C185 C184 1.369 . S
C185 C194 1.429 . S
C186 C184 1.419 . S
C186 C187 1.363 . S
C186 H189 0.929 . S
C187 C186 1.363 . S
C187 C193 1.428 . S
H188 C184 0.930 . S
H189 C186 0.929 . S
S190 N191 1.613 . S
S190 N192 1.610 . S
N191 S190 1.613 . S
N191 C194 1.350 . S
N192 S190 1.610 . S
N192 C193 1.351 . S
C193 C187 1.428 . S
C193 N192 1.351 . S
C193 C194 1.434 . S
C194 C185 1.429 . S
C194 N191 1.350 . S
C194 C193 1.434 . S
C195 C196 1.369 . S
C195 C197 1.419 . S
C195 H199 0.930 . S
C196 C195 1.369 . S
C196 C205 1.429 . S
C197 C195 1.419 . S
C197 C198 1.363 . S
C197 H200 0.929 . S
C198 C197 1.363 . S
C198 C204 1.428 . S
H199 C195 0.930 . S
H200 C197 0.929 . S
S201 N202 1.613 . S
S201 N203 1.610 . S
N202 S201 1.613 . S
N202 C205 1.350 . S
N203 S201 1.610 . S
N203 C204 1.351 . S
C204 C198 1.428 . S
C204 N203 1.351 . S
C204 C205 1.434 . S
C205 C196 1.429 . S
C205 N202 1.350 . S
C205 C204 1.434 . S
C206 C207 1.369 . S
C206 C208 1.419 1_455 S
C206 H210 0.930 . S
C207 C206 1.369 . S
C207 C216 1.429 . S
C208 C206 1.419 1_655 S
C208 C209 1.363 . S
C208 H211 0.929 . S
C209 C208 1.363 . S
C209 C215 1.428 . S
H210 C206 0.930 . S
H211 C208 0.929 . S
S212 N213 1.613 . S
S212 N214 1.610 1_455 S
N213 S212 1.613 . S
N213 C216 1.350 . S
N214 S212 1.610 1_655 S
N214 C215 1.351 . S
C215 C209 1.428 . S
C215 N214 1.351 . S
C215 C216 1.434 1_655 S
C216 C207 1.429 . S
C216 N213 1.350 . S
C216 C215 1.434 1_455 S
C217 C218 1.369 . S
C217 C219 1.419 1_455 S
C217 H221 0.930 . S
C218 C217 1.369 . S
C218 C227 1.429 . S
C219 C217 1.419 1_655 S
C219 C220 1.363 . S
C219 H222 0.929 . S
C220 C219 1.363 . S
C220 C226 1.428 . S
H221 C217 0.930 . S
H222 C219 0.929 . S
S223 N224 1.613 . S
S223 N225 1.610 1_455 S
N224 S223 1.613 . S
N224 C227 1.350 . S
N225 S223 1.610 1_655 S
N225 C226 1.351 . S
C226 C220 1.428 . S
C226 N225 1.351 . S
C226 C227 1.434 1_655 S
C227 C218 1.429 . S
C227 N224 1.350 . S
C227 C226 1.434 1_455 S
C228 C229 1.369 1_556 S
C228 C230 1.419 . S
C228 H232 0.930 . S
C229 C228 1.369 1_554 S
C229 C238 1.429 . S
C230 C228 1.419 . S
C230 C231 1.363 . S
C230 H233 0.929 . S
C231 C230 1.363 . S
C231 C237 1.428 1_556 S
H232 C228 0.930 . S
H233 C230 0.929 . S
S234 N235 1.613 . S
S234 N236 1.610 . S
N235 S234 1.613 . S
N235 C238 1.350 . S
N236 S234 1.610 . S
N236 C237 1.351 . S
C237 C231 1.428 1_554 S
C237 N236 1.351 . S
C237 C238 1.434 . S
C238 C229 1.429 . S
C238 N235 1.350 . S
C238 C237 1.434 . S
C239 C240 1.369 . S
C239 C241 1.419 . S
C239 H243 0.930 . S
C240 C239 1.369 . S
C240 C249 1.429 . S
C241 C239 1.419 . S
C241 C242 1.363 . S
C241 H244 0.929 . S
C242 C241 1.363 . S
C242 C248 1.428 . S
H243 C239 0.930 . S
H244 C241 0.929 . S
S245 N246 1.613 . S
S245 N247 1.610 . S
N246 S245 1.613 . S
N246 C249 1.350 . S
N247 S245 1.610 . S
N247 C248 1.351 . S
C248 C242 1.428 . S
C248 N247 1.351 . S
C248 C249 1.434 . S
C249 C240 1.429 . S
C249 N246 1.350 . S
C249 C248 1.434 . S
C250 C251 1.369 . S
C250 C252 1.419 . S
C250 H254 0.930 . S
C251 C250 1.369 . S
C251 C260 1.429 1_554 S
C252 C250 1.419 . S
C252 C253 1.363 1_554 S
C252 H255 0.929 . S
C253 C252 1.363 1_556 S
C253 C259 1.428 . S
H254 C250 0.930 . S
H255 C252 0.929 . S
S256 N257 1.613 . S
S256 N258 1.610 . S
N257 S256 1.613 . S
N257 C260 1.350 . S
N258 S256 1.610 . S
N258 C259 1.351 . S
C259 C253 1.428 . S
C259 N258 1.351 . S
C259 C260 1.434 . S
C260 C251 1.429 1_556 S
C260 N257 1.350 . S
C260 C259 1.434 . S
C261 C262 1.369 . S
C261 C263 1.419 . S
C261 H265 0.930 . S
C262 C261 1.369 . S
C262 C271 1.429 . S
C263 C261 1.419 . S
C263 C264 1.363 . S
C263 H266 0.929 . S
C264 C263 1.363 . S
C264 C270 1.428 . S
H265 C261 0.930 . S
H266 C263 0.929 . S
S267 N268 1.613 . S
S267 N269 1.610 . S
N268 S267 1.613 . S
N268 C271 1.350 . S
N269 S267 1.610 . S
N269 C270 1.351 . S
C270 C264 1.428 . S
C270 N269 1.351 . S
C270 C271 1.434 . S
C271 C262 1.429 . S
C271 N268 1.350 . S
C271 C270 1.434 . S
C272 C273 1.369 . S
C272 C274 1.419 . S
C272 H276 0.930 . S
C273 C272 1.369 . S
C273 C282 1.429 1_656 S
C274 C272 1.419 . S
C274 C275 1.363 1_656 S
C274 H277 0.929 . S
C275 C274 1.363 1_454 S
C275 C281 1.428 . S
H276 C272 0.930 . S
H277 C274 0.929 . S
S278 N279 1.613 . S
S278 N280 1.610 . S
N279 S278 1.613 . S
N279 C282 1.350 . S
N280 S278 1.610 . S
N280 C281 1.351 . S
C281 C275 1.428 . S
C281 N280 1.351 . S
C281 C282 1.434 . S
C282 C273 1.429 1_454 S
C282 N279 1.350 . S
C282 C281 1.434 . S
C283 C284 1.369 1_655 S
C283 C285 1.419 . S
C283 H287 0.930 . S
C284 C283 1.369 1_455 S
C284 C293 1.429 . S
C285 C283 1.419 . S
C285 C286 1.363 . S
C285 H288 0.929 . S
C286 C285 1.363 . S
C286 C292 1.428 1_655 S
H287 C283 0.930 . S
H288 C285 0.929 . S
S289 N290 1.613 . S
S289 N291 1.610 . S
N290 S289 1.613 . S
N290 C293 1.350 . S
N291 S289 1.610 . S
N291 C292 1.351 . S
C292 C286 1.428 1_455 S
C292 N291 1.351 . S
C292 C293 1.434 . S
C293 C284 1.429 . S
C293 N290 1.350 . S
C293 C292 1.434 . S
C294 C295 1.390 . S
C294 C296 1.399 1_565 S
C294 H298 0.929 1_565 S
C295 C294 1.390 . S
C295 C304 1.429 1_554 S
C296 C294 1.399 1_545 S
C296 C297 1.363 1_554 S
C296 H299 0.929 . S
C297 C296 1.363 1_556 S
C297 C303 1.419 1_545 S
H298 C294 0.929 1_545 S
H299 C296 0.929 . S
S300 N301 1.613 . S
S300 N302 1.610 . S
N301 S300 1.613 . S
N301 C304 1.350 . S
N302 S300 1.610 . S
N302 C303 1.352 . S
C303 C297 1.419 1_565 S
C303 N302 1.352 . S
C303 C304 1.443 . S
C304 C295 1.429 1_556 S
C304 N301 1.350 . S
C304 C303 1.443 . S
C305 C306 1.368 . S
C305 C307 1.419 1_565 S
C305 H309 0.930 1_565 S
C306 C305 1.368 . S
C306 C315 1.429 . S
C307 C305 1.419 1_545 S
C307 C308 1.363 . S
C307 H310 0.929 . S
C308 C307 1.363 . S
C308 C314 1.428 1_545 S
H309 C305 0.930 1_545 S
H310 C307 0.929 . S
S311 N312 1.613 . S
S311 N313 1.610 . S
N312 S311 1.613 . S
N312 C315 1.350 . S
N313 S311 1.610 . S
N313 C314 1.351 . S
C314 C308 1.428 1_565 S
C314 N313 1.351 . S
C314 C315 1.434 . S
C315 C306 1.429 . S
C315 N312 1.350 . S
C315 C314 1.434 . S
C316 C317 1.369 . S
C316 C318 1.419 1_455 S
C316 H320 0.930 . S
C317 C316 1.369 . S
C317 C326 1.429 . S
C318 C316 1.419 1_655 S
C318 C319 1.363 . S
C318 H321 0.929 . S
C319 C318 1.363 . S
C319 C325 1.428 . S
H320 C316 0.930 . S
H321 C318 0.929 . S
S322 N323 1.613 . S
S322 N324 1.610 1_455 S
N323 S322 1.613 . S
N323 C326 1.350 . S
N324 S322 1.610 1_655 S
N324 C325 1.351 . S
C325 C319 1.428 . S
C325 N324 1.351 . S
C325 C326 1.434 1_655 S
C326 C317 1.429 . S
C326 N323 1.350 . S
C326 C325 1.434 1_455 S
C327 C328 1.369 . S
C327 C329 1.419 1_455 S
C327 H331 0.930 . S
C328 C327 1.369 . S
C328 C337 1.429 . S
C329 C327 1.419 1_655 S
C329 C330 1.363 . S
C329 H332 0.929 . S
C330 C329 1.363 . S
C330 C336 1.428 . S
H331 C327 0.930 . S
H332 C329 0.929 . S
S333 N334 1.613 . S
S333 N335 1.610 1_455 S
N334 S333 1.613 . S
N334 C337 1.350 . S
N335 S333 1.610 1_655 S
N335 C336 1.351 . S
C336 C330 1.428 . S
C336 N335 1.351 . S
C336 C337 1.434 1_655 S
C337 C328 1.429 . S
C337 N334 1.350 . S
C337 C336 1.434 1_455 S
C338 C339 1.369 . S
C338 C340 1.419 . S
C338 H342 0.930 . S
C339 C338 1.369 . S
C339 C348 1.429 . S
C340 C338 1.419 . S
C340 C341 1.363 . S
C340 H343 0.929 . S
C341 C340 1.363 . S
C341 C347 1.428 . S
H342 C338 0.930 . S
H343 C340 0.929 . S
S344 N345 1.613 . S
S344 N346 1.610 . S
N345 S344 1.613 . S
N345 C348 1.350 . S
N346 S344 1.610 . S
N346 C347 1.351 . S
C347 C341 1.428 . S
C347 N346 1.351 . S
C347 C348 1.434 . S
C348 C339 1.429 . S
C348 N345 1.350 . S
C348 C347 1.434 . S
C349 C350 1.369 . S
C349 C351 1.419 . S
C349 H353 0.930 . S
C350 C349 1.369 . S
C350 C359 1.429 . S
C351 C349 1.419 . S
C351 C352 1.363 . S
C351 H354 0.929 . S
C352 C351 1.363 . S
C352 C358 1.428 . S
H353 C349 0.930 . S
H354 C351 0.929 . S
S355 N356 1.613 . S
S355 N357 1.610 . S
N356 S355 1.613 . S
N356 C359 1.350 . S
N357 S355 1.610 . S
N357 C358 1.351 . S
C358 C352 1.428 . S
C358 N357 1.351 . S
C358 C359 1.434 . S
C359 C350 1.429 . S
C359 N356 1.350 . S
C359 C358 1.434 . S
C360 C361 1.369 . S
C360 C362 1.419 . S
C360 H364 0.930 . S
C361 C360 1.369 . S
C361 C370 1.429 . S
C362 C360 1.419 . S
C362 C363 1.363 . S
C362 H365 0.929 . S
C363 C362 1.363 . S
C363 C369 1.428 . S
H364 C360 0.930 . S
H365 C362 0.929 . S
S366 N367 1.613 . S
S366 N368 1.610 . S
N367 S366 1.613 . S
N367 C370 1.350 . S
N368 S366 1.610 . S
N368 C369 1.351 . S
C369 C363 1.428 . S
C369 N368 1.351 . S
C369 C370 1.434 . S
C370 C361 1.429 . S
C370 N367 1.350 . S
C370 C369 1.434 . S
C371 C372 1.369 . S
C371 C373 1.419 . S
C371 H375 0.930 . S
C372 C371 1.369 . S
C372 C381 1.429 . S
C373 C371 1.419 . S
C373 C374 1.363 . S
C373 H376 0.929 . S
C374 C373 1.363 . S
C374 C380 1.428 . S
H375 C371 0.930 . S
H376 C373 0.929 . S
S377 N378 1.613 . S
S377 N379 1.610 . S
N378 S377 1.613 . S
N378 C381 1.350 . S
N379 S377 1.610 . S
N379 C380 1.351 . S
C380 C374 1.428 . S
C380 N379 1.351 . S
C380 C381 1.434 . S
C381 C372 1.429 . S
C381 N378 1.350 . S
C381 C380 1.434 . S
C382 C383 1.369 . S
C382 C384 1.419 . S
C382 H386 0.930 . S
C383 C382 1.369 . S
C383 C392 1.429 . S
C384 C382 1.419 . S
C384 C385 1.363 . S
C384 H387 0.929 . S
C385 C384 1.363 . S
C385 C391 1.428 . S
H386 C382 0.930 . S
H387 C384 0.929 . S
S388 N389 1.613 . S
S388 N390 1.610 . S
N389 S388 1.613 . S
N389 C392 1.350 . S
N390 S388 1.610 . S
N390 C391 1.351 . S
C391 C385 1.428 . S
C391 N390 1.351 . S
C391 C392 1.434 . S
C392 C383 1.429 . S
C392 N389 1.350 . S
C392 C391 1.434 . S
C393 C394 1.369 . S
C393 C395 1.419 . S
C393 H397 0.930 . S
C394 C393 1.369 . S
C394 C403 1.429 . S
C395 C393 1.419 . S
C395 C396 1.363 . S
C395 H398 0.929 . S
C396 C395 1.363 . S
C396 C402 1.428 . S
H397 C393 0.930 . S
H398 C395 0.929 . S
S399 N400 1.613 . S
S399 N401 1.610 . S
N400 S399 1.613 . S
N400 C403 1.350 . S
N401 S399 1.610 . S
N401 C402 1.351 . S
C402 C396 1.428 . S
C402 N401 1.351 . S
C402 C403 1.434 . S
C403 C394 1.429 . S
C403 N400 1.350 . S
C403 C402 1.434 . S
C404 C405 1.369 . S
C404 C406 1.419 . S
C404 H408 0.930 . S
C405 C404 1.369 . S
C405 C414 1.429 . S
C406 C404 1.419 . S
C406 C407 1.363 . S
C406 H409 0.929 . S
C407 C406 1.363 . S
C407 C413 1.428 1_565 S
H408 C404 0.930 . S
H409 C406 0.929 . S
S410 N411 1.613 . S
S410 N412 1.610 . S
N411 S410 1.613 . S
N411 C414 1.350 1_545 S
N412 S410 1.610 . S
N412 C413 1.351 . S
C413 C407 1.428 1_545 S
C413 N412 1.351 . S
C413 C414 1.434 1_545 S
C414 C405 1.429 . S
C414 N411 1.350 1_565 S
C414 C413 1.434 1_565 S
C415 C416 1.369 . S
C415 C417 1.419 . S
C415 H419 0.930 . S
C416 C415 1.369 . S
C416 C425 1.429 1_565 S
C417 C415 1.419 . S
C417 C418 1.363 . S
C417 H420 0.929 . S
C418 C417 1.363 . S
C418 C424 1.428 . S
H419 C415 0.930 . S
H420 C417 0.929 . S
S421 N422 1.613 . S
S421 N423 1.610 1_545 S
N422 S421 1.613 . S
N422 C425 1.350 . S
N423 S421 1.610 1_565 S
N423 C424 1.351 . S
C424 C418 1.428 . S
C424 N423 1.351 . S
C424 C425 1.434 1_565 S
C425 C416 1.429 1_545 S
C425 N422 1.350 . S
C425 C424 1.434 1_545 S
C426 C427 1.369 1_565 S
C426 C428 1.412 1_565 S
C426 H430 0.930 . S
C427 C426 1.369 1_545 S
C427 C436 1.429 . S
C428 C426 1.412 1_545 S
C428 C429 1.378 . S
C428 H431 0.920 1_545 S
C429 C428 1.378 . S
C429 C435 1.428 . S
H430 C426 0.930 . S
H431 C428 0.920 1_565 S
S432 N433 1.613 . S
S432 N434 1.610 . S
N433 S432 1.613 . S
N433 C436 1.350 . S
N434 S432 1.610 . S
N434 C435 1.351 . S
C435 C429 1.428 . S
C435 N434 1.351 . S
C435 C436 1.434 . S
C436 C427 1.429 . S
C436 N433 1.350 . S
C436 C435 1.434 . S
C437 C438 1.369 . S
C437 C439 1.419 . S
C437 H441 0.930 . S
C438 C437 1.369 . S
C438 C447 1.429 1_545 S
C439 C437 1.419 . S
C439 C440 1.363 . S
C439 H442 0.929 . S
C440 C439 1.363 . S
C440 C446 1.428 1_545 S
H441 C437 0.930 . S
H442 C439 0.929 . S
S443 N444 1.613 . S
S443 N445 1.610 . S
N444 S443 1.613 . S
N444 C447 1.350 . S
N445 S443 1.610 . S
N445 C446 1.351 . S
C446 C440 1.428 1_565 S
C446 N445 1.351 . S
C446 C447 1.434 . S
C447 C438 1.429 1_565 S
C447 N444 1.350 . S
C447 C446 1.434 . S
C185 C40 1.503 . S
C187 C17 1.503 . S
C196 C63 1.506 . S
C198 C86 1.503 . S
C207 C132 1.507 . S
C209 C109 1.504 . S
C218 C155 1.507 . S
C220 C178 1.504 . S
C229 C20 1.427 . S
C231 C158 1.428 . S
C240 C43 1.428 . S
C242 C181 1.428 . S
C251 C112 1.427 . S
C253 C66 1.428 . S
C262 C89 1.428 . S
C264 C135 1.428 . S
C273 C62 1.333 . S
C275 C16 1.321 . S
C284 C85 1.325 . S
C286 C39 1.327 . S
C295 C108 1.332 . S
C297 C154 1.322 . S
C306 C131 1.332 . S
C308 C177 1.321 . S
C317 C18 1.501 . S
C319 C41 1.495 . S
C328 C87 1.497 . S
C330 C64 1.497 . S
C339 C133 1.501 . S
C341 C110 1.494 . S
C350 C179 1.499 . S
C352 C156 1.497 . S
C361 C21 1.656 1_556 S
C363 C88 1.575 . S
C372 C44 1.654 . S
C374 C65 1.571 . S
C383 C42 1.575 . S
C385 C67 1.656 1_554 S
C394 C19 1.573 . S
C396 C90 1.655 . S
C405 C113 1.656 1_556 S
C407 C180 1.570 1_565 S
C416 C157 1.577 1_565 S
C418 C136 1.657 . S
C427 C134 1.574 1_545 S
C429 C159 1.656 1_554 S
C438 C182 1.658 . S
C440 C111 1.571 1_545 S
