# Generated by pormake.
# Topology yfw, (5)-cn, num edge types: 1
# Building blocks:
#     Node 0, Type 0, BuildingBlock: XOMCOT_clean_sbu_1, # of connection points: 5
#     Node 1, Type 0, BuildingBlock: XOMCOT_clean_sbu_1, # of connection points: 5
#     Node 2, Type 0, BuildingBlock: XOMCOT_clean_sbu_1, # of connection points: 5
#     Node 3, Type 0, BuildingBlock: XOMCOT_clean_sbu_1, # of connection points: 5
#     Node 4, Type 0, BuildingBlock: XOMCOT_clean_sbu_1, # of connection points: 5
#     Node 5, Type 0, BuildingBlock: XOMCOT_clean_sbu_1, # of connection points: 5
#     Node 6, Type 0, BuildingBlock: XOMCOT_clean_sbu_1, # of connection points: 5
#     Node 7, Type 0, BuildingBlock: XOMCOT_clean_sbu_1, # of connection points: 5
#     Node 8, Type 0, BuildingBlock: XOMCOT_clean_sbu_1, # of connection points: 5
#     Node 9, Type 0, BuildingBlock: XOMCOT_clean_sbu_1, # of connection points: 5
#     Node 10, Type 0, BuildingBlock: XOMCOT_clean_sbu_1, # of connection points: 5
#     Node 11, Type 0, BuildingBlock: XOMCOT_clean_sbu_1, # of connection points: 5
#     Node 12, Type 0, BuildingBlock: XOMCOT_clean_sbu_1, # of connection points: 5
#     Node 13, Type 0, BuildingBlock: XOMCOT_clean_sbu_1, # of connection points: 5
#     Node 14, Type 0, BuildingBlock: XOMCOT_clean_sbu_1, # of connection points: 5
#     Node 15, Type 0, BuildingBlock: XOMCOT_clean_sbu_1, # of connection points: 5
#     Edge 16, Type (0, 0), BuildingBlock: KIFKEQ_clean_linker_1, # of connection points: 2
#     Edge 17, Type (0, 0), BuildingBlock: KIFKEQ_clean_linker_1, # of connection points: 2
#     Edge 18, Type (0, 0), BuildingBlock: KIFKEQ_clean_linker_1, # of connection points: 2
#     Edge 19, Type (0, 0), BuildingBlock: KIFKEQ_clean_linker_1, # of connection points: 2
#     Edge 20, Type (0, 0), BuildingBlock: KIFKEQ_clean_linker_1, # of connection points: 2
#     Edge 21, Type (0, 0), BuildingBlock: KIFKEQ_clean_linker_1, # of connection points: 2
#     Edge 22, Type (0, 0), BuildingBlock: KIFKEQ_clean_linker_1, # of connection points: 2
#     Edge 23, Type (0, 0), BuildingBlock: KIFKEQ_clean_linker_1, # of connection points: 2
#     Edge 24, Type (0, 0), BuildingBlock: KIFKEQ_clean_linker_1, # of connection points: 2
#     Edge 25, Type (0, 0), BuildingBlock: KIFKEQ_clean_linker_1, # of connection points: 2
#     Edge 26, Type (0, 0), BuildingBlock: KIFKEQ_clean_linker_1, # of connection points: 2
#     Edge 27, Type (0, 0), BuildingBlock: KIFKEQ_clean_linker_1, # of connection points: 2
#     Edge 28, Type (0, 0), BuildingBlock: KIFKEQ_clean_linker_1, # of connection points: 2
#     Edge 29, Type (0, 0), BuildingBlock: KIFKEQ_clean_linker_1, # of connection points: 2
#     Edge 30, Type (0, 0), BuildingBlock: KIFKEQ_clean_linker_1, # of connection points: 2
#     Edge 31, Type (0, 0), BuildingBlock: KIFKEQ_clean_linker_1, # of connection points: 2
#     Edge 32, Type (0, 0), BuildingBlock: KIFKEQ_clean_linker_1, # of connection points: 2
#     Edge 33, Type (0, 0), BuildingBlock: KIFKEQ_clean_linker_1, # of connection points: 2
#     Edge 34, Type (0, 0), BuildingBlock: KIFKEQ_clean_linker_1, # of connection points: 2
#     Edge 35, Type (0, 0), BuildingBlock: KIFKEQ_clean_linker_1, # of connection points: 2
#     Edge 36, Type (0, 0), BuildingBlock: KIFKEQ_clean_linker_1, # of connection points: 2
#     Edge 37, Type (0, 0), BuildingBlock: KIFKEQ_clean_linker_1, # of connection points: 2
#     Edge 38, Type (0, 0), BuildingBlock: KIFKEQ_clean_linker_1, # of connection points: 2
#     Edge 39, Type (0, 0), BuildingBlock: KIFKEQ_clean_linker_1, # of connection points: 2
#     Edge 40, Type (0, 0), BuildingBlock: KIFKEQ_clean_linker_1, # of connection points: 2
#     Edge 41, Type (0, 0), BuildingBlock: KIFKEQ_clean_linker_1, # of connection points: 2
#     Edge 42, Type (0, 0), BuildingBlock: KIFKEQ_clean_linker_1, # of connection points: 2
#     Edge 43, Type (0, 0), BuildingBlock: KIFKEQ_clean_linker_1, # of connection points: 2
#     Edge 44, Type (0, 0), BuildingBlock: KIFKEQ_clean_linker_1, # of connection points: 2
#     Edge 45, Type (0, 0), BuildingBlock: KIFKEQ_clean_linker_1, # of connection points: 2
#     Edge 46, Type (0, 0), BuildingBlock: KIFKEQ_clean_linker_1, # of connection points: 2
#     Edge 47, Type (0, 0), BuildingBlock: KIFKEQ_clean_linker_1, # of connection points: 2
#     Edge 48, Type (0, 0), BuildingBlock: KIFKEQ_clean_linker_1, # of connection points: 2
#     Edge 49, Type (0, 0), BuildingBlock: KIFKEQ_clean_linker_1, # of connection points: 2
#     Edge 50, Type (0, 0), BuildingBlock: KIFKEQ_clean_linker_1, # of connection points: 2
#     Edge 51, Type (0, 0), BuildingBlock: KIFKEQ_clean_linker_1, # of connection points: 2
#     Edge 52, Type (0, 0), BuildingBlock: KIFKEQ_clean_linker_1, # of connection points: 2
#     Edge 53, Type (0, 0), BuildingBlock: KIFKEQ_clean_linker_1, # of connection points: 2
#     Edge 54, Type (0, 0), BuildingBlock: KIFKEQ_clean_linker_1, # of connection points: 2
#     Edge 55, Type (0, 0), BuildingBlock: KIFKEQ_clean_linker_1, # of connection points: 2
# Relax obj value: 0.116
# Max RMSD: 0.160
# Mean RMSD: 0.160
data_MOF--net-yfw--node1-XOMCOT_clean_sbu_1--edge1-KIFKEQ_clean_linker_1
_symmetry_space_group_name_H-M    P1
_symmetry_Int_Tables_number       1
_symmetry_cell_setting            triclinic
loop_
_symmetry_equiv_pos_as_xyz
'x, y, z'
_cell_length_a     58.11855
_cell_length_b     58.043471
_cell_length_c     25.462143
_cell_angle_alpha  90.049694
_cell_angle_beta   90.091614
_cell_angle_gamma 89.948213
loop_
_atom_site_label
_atom_site_type_symbol
_atom_site_fract_x
_atom_site_fract_y
_atom_site_fract_z
_atom_type_partial_charge
C0 C 0.09349 0.08216 0.96575 0.0
C1 C 0.07162 0.07304 0.96451 0.0
N2 N 0.07282 0.05085 0.97994 0.0
N3 N 0.10828 0.06585 0.98248 0.0
C4 C 0.09525 0.04699 0.99062 0.0
H5 H 0.09838 0.09936 0.95395 0.0
Co6 Co 0.14 0.06778 0.98686 0.0
C7 C 0.15093 0.04967 0.09281 0.0
O8 O 0.16457 0.06747 0.0997 0.0
N9 N 0.17243 0.06894 0.98944 0.0
C10 C 0.20838 0.05578 0.99545 0.0
C11 C 0.18559 0.05042 1.00138 0.0
C12 C 0.18783 0.08504 0.9737 0.0
N13 N 0.20976 0.07755 0.97795 0.0
O14 O 0.14237 0.04171 0.9406 0.0
H15 H 0.179 0.03364 0.01193 0.0
H16 H 0.18335 0.10157 0.95744 0.0
O17 O 0.13985 0.04741 0.04945 0.0
C18 C 0.14214 0.04783 0.89251 0.0
O19 O 0.141 0.06996 0.88184 0.0
N20 N 0.13673 0.09473 0.02846 0.0
C21 C 0.12768 0.13701 0.07748 0.0
C22 C 0.12055 0.11623 0.10036 0.0
C23 C 0.12472 0.09536 0.07462 0.0
C24 C 0.14246 0.11486 1.00425 0.0
C25 C 0.13867 0.13612 0.02857 0.0
H26 H 0.11741 0.07987 0.09099 0.0
H27 H 0.14864 0.11461 0.96436 0.0
H28 H 0.10221 0.03061 1.00328 0.0
H29 H 0.05623 0.0818 0.9513 0.0
H30 H 0.22278 0.04417 1.0008 0.0
H31 H 0.11138 0.11607 0.13735 0.0
H32 H 0.14327 0.15177 1.00798 0.0
C33 C 0.91422 0.5768 0.20979 0.0
C34 C 0.92462 0.55553 0.21062 0.0
N35 N 0.94609 0.55808 0.2297 0.0
N36 N 0.92895 0.59265 0.22904 0.0
C37 C 0.94835 0.58078 0.24031 0.0
H38 H 0.89705 0.58054 0.19575 0.0
Co39 Co 0.92298 0.62403 0.23493 0.0
C40 C 0.93816 0.6317 0.34782 0.0
O41 O 0.91763 0.63884 0.36136 0.0
N42 N 0.91681 0.65637 0.23983 0.0
C43 C 0.90289 0.69058 0.2646 0.0
C44 C 0.90337 0.66748 0.27524 0.0
C45 C 0.92359 0.67341 0.20678 0.0
N46 N 0.91556 0.69427 0.22155 0.0
O47 O 0.94974 0.63001 0.19238 0.0
H48 H 0.89306 0.65944 0.30517 0.0
H49 H 0.93386 0.67075 0.17197 0.0
O50 O 0.94211 0.62547 0.30027 0.0
C51 C 0.9446 0.62695 0.14404 0.0
O52 O 0.92319 0.6217 0.1324 0.0
N53 N 0.89546 0.61705 0.27041 0.0
C54 C 0.85144 0.60759 0.30862 0.0
C55 C 0.87107 0.59878 0.33408 0.0
C56 C 0.89298 0.60324 0.31348 0.0
C57 C 0.87657 0.62394 0.24284 0.0
C58 C 0.85449 0.61966 0.26145 0.0
H59 H 0.90792 0.59576 0.33222 0.0
H60 H 0.87872 0.63312 0.20622 0.0
H61 H 0.9638 0.58862 0.25594 0.0
H62 H 0.91718 0.5395 0.19702 0.0
H63 H 0.89289 0.70353 0.28504 0.0
H64 H 0.8696 0.58889 0.36993 0.0
H65 H 0.83992 0.62581 0.23888 0.0
C66 C 0.40984 0.41271 0.49336 0.0
C67 C 0.43231 0.42009 0.49582 0.0
N68 N 0.43239 0.44256 0.50941 0.0
N69 N 0.39579 0.43037 0.50577 0.0
C70 C 0.40999 0.44829 0.5153 0.0
H71 H 0.40411 0.39574 0.48171 0.0
Co72 Co 0.36383 0.4308 0.5022 0.0
C73 C 0.34888 0.45036 0.6041 0.0
O74 O 0.33273 0.43453 0.60562 0.0
N75 N 0.33141 0.43192 0.49661 0.0
C76 C 0.29645 0.44761 0.49144 0.0
C77 C 0.31926 0.45169 0.50166 0.0
C78 C 0.3155 0.41622 0.48129 0.0
N79 N 0.29412 0.42528 0.4785 0.0
O80 O 0.3654 0.45685 0.45618 0.0
H81 H 0.32665 0.46828 0.51108 0.0
H82 H 0.31929 0.39862 0.47099 0.0
O83 O 0.36268 0.45105 0.56484 0.0
C84 C 0.36846 0.45083 0.40852 0.0
O85 O 0.37022 0.42875 0.39777 0.0
N86 N 0.36314 0.40381 0.54355 0.0
C87 C 0.36849 0.36062 0.59075 0.0
C88 C 0.37402 0.38086 0.61812 0.0
C89 C 0.37182 0.40221 0.59337 0.0
C90 C 0.35842 0.38425 0.51592 0.0
C91 C 0.36045 0.36254 0.53902 0.0
H92 H 0.37846 0.41717 0.61344 0.0
H93 H 0.35463 0.38536 0.47446 0.0
H94 H 0.40388 0.46552 0.52366 0.0
H95 H 0.44735 0.40978 0.48724 0.0
H96 H 0.28279 0.46031 0.49129 0.0
H97 H 0.3809 0.3802 0.65764 0.0
H98 H 0.35719 0.34737 0.51537 0.0
C99 C 0.58919 0.91754 0.71414 0.0
C100 C 0.57972 0.93926 0.71021 0.0
N101 N 0.55896 0.93896 0.7337 0.0
N102 N 0.57462 0.90385 0.74101 0.0
C103 C 0.5563 0.91731 0.75183 0.0
H104 H 0.60545 0.91196 0.69791 0.0
Co105 Co 0.57714 0.87238 0.75453 0.0
C106 C 0.56481 0.87692 0.87022 0.0
O107 O 0.58618 0.87412 0.88561 0.0
N108 N 0.57875 0.84031 0.76676 0.0
C109 C 0.58161 0.80539 0.80233 0.0
C110 C 0.58156 0.82861 0.81221 0.0
C111 C 0.57736 0.82361 0.72974 0.0
N112 N 0.57892 0.80223 0.75039 0.0
O113 O 0.54904 0.86807 0.7158 0.0
H114 H 0.58406 0.83607 0.85034 0.0
H115 H 0.57523 0.82704 0.68833 0.0
O116 O 0.55961 0.87627 0.82119 0.0
C117 C 0.55378 0.86862 0.66684 0.0
O118 O 0.57552 0.87028 0.65309 0.0
N119 N 0.60637 0.87708 0.78689 0.0
C120 C 0.65148 0.88479 0.82103 0.0
C121 C 0.63397 0.90058 0.83272 0.0
C122 C 0.61163 0.89656 0.81483 0.0
C123 C 0.62357 0.86215 0.7732 0.0
C124 C 0.64607 0.86537 0.79093 0.0
H125 H 0.59841 0.90903 0.82417 0.0
H126 H 0.62014 0.84787 0.74715 0.0
H127 H 0.54108 0.91123 0.77195 0.0
H128 H 0.58714 0.9539 0.6901 0.0
H129 H 0.58413 0.79192 0.83113 0.0
H130 H 0.6375 0.91591 0.85566 0.0
H131 H 0.6593 0.85317 0.77964 0.0
C132 C 0.91425 0.09206 0.49026 0.0
C133 C 0.93668 0.08452 0.49477 0.0
N134 N 0.9363 0.06186 0.50617 0.0
N135 N 0.89992 0.07423 0.49943 0.0
C136 C 0.91385 0.05616 0.50906 0.0
H137 H 0.90879 0.10921 0.47934 0.0
Co138 Co 0.86806 0.07291 0.494 0.0
C139 C 0.85321 0.05391 0.59652 0.0
O140 O 0.83651 0.0692 0.59758 0.0
N141 N 0.83577 0.07071 0.48725 0.0
C142 C 0.80138 0.05382 0.48246 0.0
C143 C 0.82431 0.05059 0.49294 0.0
C144 C 0.81934 0.08576 0.47141 0.0
N145 N 0.7983 0.07597 0.46882 0.0
O146 O 0.87075 0.04626 0.44967 0.0
H147 H 0.83224 0.03434 0.50317 0.0
H148 H 0.82246 0.10343 0.46082 0.0
O149 O 0.86705 0.05341 0.55739 0.0
C150 C 0.8774 0.05079 0.40312 0.0
O151 O 0.88214 0.07226 0.39093 0.0
N152 N 0.86619 0.10026 0.53361 0.0
C153 C 0.86887 0.14415 0.57862 0.0
C154 C 0.87557 0.12454 0.60704 0.0
C155 C 0.87453 0.10283 0.58351 0.0
C156 C 0.86082 0.11923 0.50463 0.0
C157 C 0.86129 0.14121 0.52672 0.0
H158 H 0.88177 0.0884 0.6045 0.0
H159 H 0.85732 0.11746 0.46316 0.0
H160 H 0.90757 0.03893 0.51663 0.0
H161 H 0.95201 0.09461 0.48767 0.0
H162 H 0.78816 0.0407 0.48279 0.0
H163 H 0.88276 0.12602 0.64615 0.0
H164 H 0.85642 0.15578 0.50262 0.0
C165 C 0.90682 0.41331 0.73357 0.0
C166 C 0.91526 0.43546 0.73652 0.0
N167 N 0.93784 0.43428 0.7482 0.0
N168 N 0.92399 0.39834 0.74403 0.0
C169 C 0.94263 0.41163 0.75274 0.0
H170 H 0.88946 0.40844 0.72303 0.0
Co171 Co 0.92364 0.36635 0.7414 0.0
C172 C 0.94145 0.35199 0.84525 0.0
O173 O 0.925 0.33648 0.84727 0.0
N174 N 0.92416 0.33387 0.73753 0.0
C175 C 0.93938 0.29858 0.73702 0.0
C176 C 0.94366 0.32153 0.74509 0.0
C177 C 0.90845 0.31789 0.72274 0.0
N178 N 0.91722 0.29635 0.72289 0.0
O179 O 0.95043 0.36674 0.69736 0.0
H180 H 0.96022 0.32884 0.75502 0.0
H181 H 0.89105 0.32166 0.71088 0.0
O182 O 0.94297 0.36526 0.80518 0.0
C183 C 0.94683 0.37342 0.65037 0.0
O184 O 0.92609 0.38035 0.63714 0.0
N185 N 0.89616 0.36662 0.78076 0.0
C186 C 0.8525 0.37173 0.82556 0.0
C187 C 0.87238 0.37827 0.85323 0.0
C188 C 0.89398 0.376 0.82979 0.0
C189 C 0.87697 0.36148 0.75231 0.0
C190 C 0.85509 0.36318 0.77435 0.0
H191 H 0.90871 0.38299 0.85012 0.0
H192 H 0.87855 0.35714 0.71123 0.0
H193 H 0.95955 0.40473 0.76109 0.0
H194 H 0.90578 0.45112 0.72839 0.0
H195 H 0.95182 0.28472 0.73919 0.0
H196 H 0.87124 0.38617 0.89168 0.0
H197 H 0.84034 0.35839 0.75077 0.0
C198 C 0.58461 0.41786 0.98302 0.0
C199 C 0.56271 0.42694 0.98504 0.0
N200 N 0.56445 0.44987 0.99208 0.0
N201 N 0.60002 0.435 0.98959 0.0
C202 C 0.58721 0.45427 0.99479 0.0
H203 H 0.58899 0.40001 0.97604 0.0
Co204 Co 0.63196 0.43369 0.98677 0.0
C205 C 0.64739 0.45343 0.08807 0.0
O206 O 0.66266 0.43675 0.09112 0.0
N207 N 0.66444 0.43329 0.98225 0.0
C208 C 0.69997 0.44768 0.97918 0.0
C209 C 0.6772 0.45266 0.98722 0.0
C210 C 0.67998 0.41688 0.96888 0.0
N211 N 0.70168 0.42517 0.96757 0.0
O212 O 0.63181 0.45937 0.93956 0.0
H213 H 0.6703 0.4696 0.99534 0.0
H214 H 0.67576 0.39933 0.95903 0.0
O215 O 0.6338 0.4544 0.04838 0.0
C216 C 0.63021 0.45299 0.89178 0.0
O217 O 0.62888 0.43082 0.88169 0.0
N218 N 0.6313 0.40705 0.02944 0.0
C219 C 0.62607 0.36465 0.08012 0.0
C220 C 0.62012 0.38528 0.1055 0.0
C221 C 0.62238 0.40624 0.07908 0.0
C222 C 0.63586 0.38707 1.00331 0.0
C223 C 0.63396 0.36574 0.02823 0.0
H224 H 0.61593 0.4216 0.0979 0.0
H225 H 0.63984 0.38756 0.96191 0.0
H226 H 0.59449 0.4713 0.99966 0.0
H227 H 0.54679 0.41755 0.97968 0.0
H228 H 0.71408 0.45985 0.9796 0.0
H229 H 0.61327 0.3852 0.14503 0.0
H230 H 0.63756 0.35019 1.00617 0.0
C231 C 0.59252 0.09232 0.21605 0.0
C232 C 0.58327 0.07043 0.21622 0.0
N233 N 0.56078 0.07211 0.22842 0.0
N234 N 0.57595 0.10759 0.22893 0.0
C235 C 0.55684 0.09477 0.23587 0.0
H236 H 0.6101 0.09683 0.20676 0.0
Co237 Co 0.5774 0.13956 0.23361 0.0
C238 C 0.56045 0.14902 0.34058 0.0
O239 O 0.57779 0.16327 0.34716 0.0
N240 N 0.57769 0.17221 0.237 0.0
C241 C 0.56292 0.2075 0.24555 0.0
C242 C 0.55878 0.18442 0.25082 0.0
C243 C 0.59274 0.18856 0.22066 0.0
N244 N 0.58428 0.21012 0.22651 0.0
O245 O 0.55111 0.14158 0.18913 0.0
H246 H 0.54249 0.17698 0.2622 0.0
H247 H 0.60918 0.18504 0.20287 0.0
O248 O 0.55793 0.13842 0.2968 0.0
C249 C 0.55738 0.14094 0.14127 0.0
O250 O 0.57949 0.13946 0.13098 0.0
N251 N 0.60467 0.13681 0.27362 0.0
C252 C 0.64761 0.12907 0.32018 0.0
C253 C 0.62744 0.12058 0.34331 0.0
C254 C 0.60623 0.12419 0.31884 0.0
C255 C 0.62422 0.14389 0.24906 0.0
C256 C 0.64577 0.14082 0.27224 0.0
H257 H 0.59124 0.11589 0.33516 0.0
H258 H 0.6233 0.15076 0.20982 0.0
H259 H 0.54026 0.10199 0.24613 0.0
H260 H 0.59223 0.05461 0.20677 0.0
H261 H 0.55071 0.22127 0.25239 0.0
H262 H 0.62808 0.1103 0.37875 0.0
H263 H 0.66086 0.14714 0.25199 0.0
C264 C 0.57908 0.58688 0.44942 0.0
C265 C 0.55828 0.57573 0.45122 0.0
N266 N 0.56086 0.55631 0.47963 0.0
N267 N 0.59476 0.57469 0.47677 0.0
C268 C 0.58324 0.55601 0.49439 0.0
H269 H 0.58262 0.60292 0.42944 0.0
Co270 Co 0.62506 0.58422 0.48465 0.0
C271 C 0.63892 0.56653 0.59105 0.0
O272 O 0.64926 0.58601 0.60169 0.0
N273 N 0.65638 0.5947 0.49077 0.0
C274 C 0.68721 0.61582 0.51123 0.0
C275 C 0.6644 0.61226 0.52078 0.0
C276 C 0.67515 0.58823 0.46248 0.0
N277 N 0.69406 0.60092 0.47401 0.0
O278 O 0.63441 0.55957 0.43939 0.0
H279 H 0.65452 0.62218 0.54867 0.0
H280 H 0.67487 0.57508 0.43244 0.0
O281 O 0.62866 0.5639 0.54684 0.0
C282 C 0.63216 0.56524 0.39125 0.0
O283 O 0.62585 0.58647 0.38039 0.0
N284 N 0.61437 0.60917 0.52428 0.0
C285 C 0.59873 0.64954 0.57152 0.0
C286 C 0.59596 0.62816 0.59653 0.0
C287 C 0.60351 0.60803 0.57169 0.0
C288 C 0.61557 0.62951 0.49774 0.0
C289 C 0.60827 0.64997 0.52097 0.0
H290 H 0.60038 0.59164 0.59034 0.0
H291 H 0.623 0.62987 0.45881 0.0
H292 H 0.591 0.5426 0.51796 0.0
H293 H 0.54256 0.58133 0.43229 0.0
H294 H 0.69785 0.62864 0.53029 0.0
H295 H 0.58783 0.62696 0.63467 0.0
H296 H 0.61066 0.666 0.49998 0.0
C297 C 0.4119 0.08794 0.73403 0.0
C298 C 0.4209 0.06598 0.73714 0.0
N299 N 0.44381 0.06772 0.74421 0.0
N300 N 0.42909 0.10335 0.73989 0.0
C301 C 0.44825 0.09049 0.74603 0.0
H302 H 0.39412 0.09236 0.72646 0.0
Co303 Co 0.4284 0.13533 0.73423 0.0
C304 C 0.44792 0.15173 0.83439 0.0
O305 O 0.43162 0.16744 0.83586 0.0
N306 N 0.4289 0.16775 0.72697 0.0
C307 C 0.44579 0.20195 0.71805 0.0
C308 C 0.44906 0.1793 0.73034 0.0
C309 C 0.4136 0.18402 0.71115 0.0
N310 N 0.42352 0.20496 0.70558 0.0
O311 O 0.45423 0.13407 0.68794 0.0
H312 H 0.46547 0.17157 0.73994 0.0
H313 H 0.3959 0.18063 0.70107 0.0
O314 O 0.44886 0.13764 0.79569 0.0
C315 C 0.45042 0.1265 0.64181 0.0
O316 O 0.42977 0.11888 0.62994 0.0
N317 N 0.40184 0.13584 0.77682 0.0
C318 C 0.35987 0.12991 0.82841 0.0
C319 C 0.38062 0.12395 0.85298 0.0
C320 C 0.40132 0.12652 0.82613 0.0
C321 C 0.38176 0.14112 0.75183 0.0
C322 C 0.3606 0.13879 0.77728 0.0
H323 H 0.41669 0.11966 0.84408 0.0
H324 H 0.38196 0.14563 0.71073 0.0
H325 H 0.46529 0.09776 0.75042 0.0
H326 H 0.41151 0.05003 0.73217 0.0
H327 H 0.45894 0.21514 0.71759 0.0
H328 H 0.38081 0.11651 0.89198 0.0
H329 H 0.3449 0.14258 0.75597 0.0
C330 C 0.9199 0.90831 0.95596 0.0
C331 C 0.94201 0.91668 0.95217 0.0
N332 N 0.94257 0.93785 0.97406 0.0
N333 N 0.9067 0.92408 0.98045 0.0
C334 C 0.9209 0.94188 0.9907 0.0
H335 H 0.91374 0.89194 0.94128 0.0
Co336 Co 0.87526 0.92287 0.99229 0.0
C337 C 0.87265 0.93632 0.10483 0.0
O338 O 0.86048 0.91764 0.11371 0.0
N339 N 0.84301 0.92256 1.00206 0.0
C340 C 0.80775 0.93544 0.01985 0.0
C341 C 0.83065 0.93779 0.03076 0.0
C342 C 0.82696 0.91201 0.97171 0.0
N343 N 0.80535 0.91941 0.98214 0.0
O344 O 0.87162 0.95031 0.95131 0.0
H345 H 0.83758 0.95148 0.05463 0.0
H346 H 0.83118 0.90079 0.9392 0.0
O347 O 0.87934 0.94094 0.05798 0.0
C348 C 0.87071 0.94462 0.90295 0.0
O349 O 0.8718 0.92259 0.89111 0.0
N350 N 0.87944 0.89446 0.02809 0.0
C351 C 0.8896 0.85061 0.06719 0.0
C352 C 0.90072 0.8701 0.08727 0.0
C353 C 0.8959 0.89177 0.06615 0.0
C354 C 0.86897 0.8755 1.00721 0.0
C355 C 0.87368 0.85344 0.0264 0.0
H356 H 0.9059 0.90632 0.07952 0.0
H357 H 0.85776 0.87718 0.97377 0.0
H358 H 0.91517 0.95786 1.00826 0.0
H359 H 0.95647 0.90787 0.93448 0.0
H360 H 0.79409 0.94578 0.03651 0.0
H361 H 0.91371 0.86849 0.11763 0.0
H362 H 0.86514 0.83869 1.00906 0.0
C363 C 0.091 0.40684 0.22433 0.0
C364 C 0.08263 0.42908 0.22407 0.0
N365 N 0.06008 0.42838 0.23613 0.0
N366 N 0.07384 0.3923 0.23734 0.0
C367 C 0.05524 0.40592 0.24398 0.0
H368 H 0.10837 0.40158 0.21491 0.0
Co369 Co 0.07434 0.36029 0.24123 0.0
C370 C 0.0569 0.35073 0.34807 0.0
O371 O 0.07392 0.33603 0.35421 0.0
N372 N 0.07389 0.32761 0.24338 0.0
C373 C 0.05859 0.29249 0.24939 0.0
C374 C 0.0549 0.31555 0.257 0.0
C375 C 0.08851 0.31126 0.22495 0.0
N376 N 0.07974 0.28975 0.22914 0.0
O377 O 0.04792 0.35922 0.19641 0.0
H378 H 0.03881 0.32311 0.26954 0.0
H379 H 0.10481 0.31481 0.20663 0.0
O380 O 0.0547 0.36162 0.30455 0.0
C381 C 0.0537 0.3601 0.14821 0.0
O382 O 0.07572 0.3612 0.13679 0.0
N383 N 0.10167 0.36213 0.28174 0.0
C384 C 0.14464 0.36932 0.32901 0.0
C385 C 0.12446 0.37795 0.35198 0.0
C386 C 0.10327 0.37462 0.3272 0.0
C387 C 0.12123 0.35478 0.25749 0.0
C388 C 0.14277 0.3576 0.28099 0.0
H389 H 0.08836 0.38314 0.34338 0.0
H390 H 0.1204 0.34803 0.21813 0.0
H391 H 0.03835 0.3994 0.2539 0.0
H392 H 0.09219 0.44446 0.21405 0.0
H393 H 0.04615 0.27888 0.25547 0.0
H394 H 0.1251 0.38823 0.38748 0.0
H395 H 0.15786 0.35118 0.26083 0.0
C396 C 0.41295 0.59385 0.96002 0.0
C397 C 0.43466 0.58445 0.95611 0.0
N398 N 0.43438 0.56356 0.97914 0.0
N399 N 0.39924 0.57912 0.98639 0.0
C400 C 0.41271 0.56072 0.99689 0.0
H401 H 0.40742 0.61029 0.94449 0.0
Co402 Co 0.36791 0.58227 1.00078 0.0
C403 C 0.37261 0.56818 0.11539 0.0
O404 O 0.37031 0.58944 0.13204 0.0
N405 N 0.33597 0.58464 0.01373 0.0
C406 C 0.3013 0.58792 0.05005 0.0
C407 C 0.3245 0.58691 0.05958 0.0
C408 C 0.31916 0.58452 0.97684 0.0
N409 N 0.2979 0.58637 0.99793 0.0
O410 O 0.36251 0.55484 0.95992 0.0
H411 H 0.3321 0.58835 0.09784 0.0
H412 H 0.32244 0.58308 0.93521 0.0
O413 O 0.37161 0.56358 0.06608 0.0
C414 C 0.36338 0.5602 0.9113 0.0
O415 O 0.36635 0.58201 0.89916 0.0
N416 N 0.37361 0.61097 0.03528 0.0
C417 C 0.38302 0.65552 0.07167 0.0
C418 C 0.39825 0.63734 0.08192 0.0
C419 C 0.39337 0.61529 0.06299 0.0
C420 C 0.35915 0.62881 0.02323 0.0
C421 C 0.36322 0.65104 0.04208 0.0
H422 H 0.40545 0.60158 0.07116 0.0
H423 H 0.34462 0.62615 0.99747 0.0
H424 H 0.40669 0.54544 0.01693 0.0
H425 H 0.44933 0.59208 0.93663 0.0
H426 H 0.28802 0.59027 0.07931 0.0
H427 H 0.41383 0.64013 0.10444 0.0
H428 H 0.35141 0.66478 0.0319 0.0
C429 C 0.41258 0.92433 0.22981 0.0
C430 C 0.42194 0.94613 0.22713 0.0
N431 N 0.44401 0.94492 0.24325 0.0
N432 N 0.4286 0.90963 0.24845 0.0
C433 C 0.44755 0.92265 0.25597 0.0
H434 H 0.39542 0.91939 0.21774 0.0
Co435 Co 0.42707 0.87772 0.25521 0.0
C436 C 0.43965 0.87111 0.36698 0.0
O437 O 0.421 0.85849 0.37172 0.0
N438 N 0.42678 0.84505 0.25961 0.0
C439 C 0.44003 0.80943 0.27219 0.0
C440 C 0.44237 0.83207 0.2858 0.0
C441 C 0.41613 0.82967 0.22757 0.0
N442 N 0.42365 0.80782 0.23507 0.0
O443 O 0.45443 0.87524 0.21391 0.0
H444 H 0.45617 0.83852 0.31001 0.0
H445 H 0.40464 0.83458 0.19606 0.0
O446 O 0.44478 0.87974 0.32202 0.0
C447 C 0.44872 0.87631 0.16556 0.0
O448 O 0.42674 0.87803 0.15392 0.0
N449 N 0.39864 0.88081 0.29162 0.0
C450 C 0.35506 0.88842 0.3347 0.0
C451 C 0.37416 0.90071 0.35306 0.0
C452 C 0.39578 0.89677 0.33079 0.0
C453 C 0.37993 0.86957 0.27187 0.0
C454 C 0.35812 0.87269 0.2936 0.0
H455 H 0.41019 0.90692 0.34439 0.0
H456 H 0.38149 0.85881 0.23774 0.0
H457 H 0.46384 0.91576 0.2694 0.0
H458 H 0.4135 0.96144 0.21234 0.0
H459 H 0.45049 0.79541 0.28687 0.0
H460 H 0.37242 0.91326 0.38432 0.0
H461 H 0.34361 0.86345 0.27716 0.0
C462 C 0.08031 0.91706 0.45623 0.0
C463 C 0.06016 0.92915 0.46085 0.0
N464 N 0.06456 0.94857 0.48788 0.0
N465 N 0.09731 0.92862 0.48089 0.0
C466 C 0.08725 0.94803 0.4992 0.0
H467 H 0.08242 0.90072 0.43641 0.0
Co468 Co 0.12698 0.9171 0.4865 0.0
C469 C 0.14569 0.9348 0.58865 0.0
O470 O 0.15779 0.9159 0.5946 0.0
N471 N 0.15741 0.90462 0.4904 0.0
C472 C 0.18715 0.88123 0.50562 0.0
C473 C 0.16403 0.88433 0.51206 0.0
C474 C 0.17728 0.91337 0.47067 0.0
N475 N 0.1956 0.89947 0.47966 0.0
O476 O 0.13735 0.94092 0.43991 0.0
H477 H 0.15321 0.8724 0.53294 0.0
H478 H 0.17843 0.92966 0.4503 0.0
O479 O 0.13286 0.93721 0.548 0.0
C480 C 0.13268 0.93619 0.39214 0.0
O481 O 0.12332 0.91614 0.38136 0.0
N482 N 0.11516 0.89311 0.52763 0.0
C483 C 0.09594 0.85433 0.57463 0.0
C484 C 0.09831 0.87497 0.60288 0.0
C485 C 0.10752 0.8944 0.57824 0.0
C486 C 0.11169 0.8736 0.49881 0.0
C487 C 0.10234 0.85393 0.52164 0.0
H488 H 0.10805 0.91039 0.59975 0.0
H489 H 0.11682 0.87323 0.458 0.0
H490 H 0.09618 0.96125 0.52116 0.0
H491 H 0.04355 0.92419 0.4452 0.0
H492 H 0.19689 0.86634 0.51837 0.0
H493 H 0.09285 0.87614 0.64346 0.0
H494 H 0.10077 0.83839 0.49835 0.0
C495 C 0.08448 0.58056 0.71579 0.0
C496 C 0.07396 0.55941 0.71841 0.0
N497 N 0.0525 0.56248 0.73698 0.0
N498 N 0.06981 0.59684 0.7333 0.0
C499 C 0.05034 0.58535 0.74538 0.0
H500 H 0.1017 0.58389 0.70174 0.0
Co501 Co 0.07619 0.62808 0.73733 0.0
C502 C 0.05771 0.64203 0.8429 0.0
O503 O 0.07624 0.65427 0.85179 0.0
N504 N 0.083 0.66034 0.74024 0.0
C505 C 0.09867 0.6944 0.76013 0.0
C506 C 0.09986 0.67113 0.76783 0.0
C507 C 0.07224 0.67786 0.71475 0.0
N508 N 0.08133 0.6986 0.72678 0.0
O509 O 0.05061 0.63384 0.69076 0.0
H510 H 0.11207 0.663 0.79389 0.0
H511 H 0.05789 0.67569 0.68814 0.0
O512 O 0.05573 0.63082 0.79968 0.0
C513 C 0.05581 0.62941 0.64307 0.0
O514 O 0.077 0.62297 0.63258 0.0
N515 N 0.10224 0.62095 0.77783 0.0
C516 C 0.14401 0.60871 0.82423 0.0
C517 C 0.12309 0.60468 0.85025 0.0
C518 C 0.10231 0.61052 0.82588 0.0
C519 C 0.12227 0.62364 0.75072 0.0
C520 C 0.14335 0.61807 0.7735 0.0
H521 H 0.08637 0.60612 0.8451 0.0
H522 H 0.1218 0.63062 0.71134 0.0
H523 H 0.03493 0.59356 0.76018 0.0
H524 H 0.08134 0.5431 0.70647 0.0
H525 H 0.10992 0.70728 0.7771 0.0
H526 H 0.12276 0.59662 0.88858 0.0
H527 H 0.15899 0.62138 0.75173 0.0
H528 H 0.94907 0.9724 0.04433 0.0
H529 H 0.97988 0.93891 0.9101 0.0
H530 H 0.98087 0.99967 0.04716 0.0
H531 H 0.01174 0.9661 0.91319 0.0
H532 H 0.07608 0.00457 0.96695 0.0
H533 H 0.04479 0.9767 0.96802 0.0
H534 H 0.9961 0.03173 0.99478 0.0
H535 H 0.02754 0.05956 0.99543 0.0
C536 C 0.96253 0.97091 0.01522 0.0
C537 C 0.96183 0.95347 0.97684 0.0
C538 C 0.98078 0.98655 0.01689 0.0
C539 C 0.9988 0.98509 0.98033 0.0
C540 C 0.99827 0.9675 0.94236 0.0
C541 C 0.98 0.95188 0.94062 0.0
C542 C 0.05876 0.01072 0.97377 0.0
C543 C 0.05432 0.03432 0.98124 0.0
C544 C 0.04078 0.99476 0.97376 0.0
C545 C 0.01796 0.002 0.98136 0.0
C546 C 0.01353 0.02557 0.9893 0.0
C547 C 0.0315 0.04155 0.98912 0.0
H548 H 0.93855 0.51412 0.25863 0.0
H549 H 0.99199 0.56159 0.21366 0.0
H550 H 0.96662 0.48306 0.26363 0.0
H551 H 0.02021 0.53036 0.21651 0.0
H552 H 0.06871 0.47224 0.26657 0.0
H553 H 0.04143 0.5043 0.26906 0.0
H554 H 0.98831 0.45948 0.20803 0.0
H555 H 0.01537 0.42754 0.20746 0.0
C556 C 0.95635 0.51783 0.24953 0.0
C557 C 0.96309 0.5402 0.23547 0.0
C558 C 0.97247 0.50002 0.25208 0.0
C559 C 0.99573 0.50402 0.23978 0.0
C560 C 0.00254 0.52661 0.22683 0.0
C561 C 0.9864 0.54453 0.22505 0.0
C562 C 0.05118 0.46936 0.25372 0.0
C563 C 0.04411 0.44737 0.23721 0.0
C564 C 0.03554 0.48772 0.25495 0.0
C565 C 0.01254 0.48456 0.23904 0.0
C566 C 0.00566 0.46254 0.2219 0.0
C567 C 0.02119 0.44418 0.22136 0.0
H568 H 0.56645 0.51046 0.49713 0.0
H569 H 0.51514 0.56415 0.48792 0.0
H570 H 0.53608 0.48197 0.51108 0.0
H571 H 0.4849 0.53577 0.50012 0.0
H572 H 0.43608 0.48243 0.56455 0.0
H573 H 0.46816 0.50948 0.56364 0.0
H574 H 0.50535 0.46447 0.45854 0.0
H575 H 0.47335 0.43752 0.45933 0.0
C576 C 0.54874 0.51621 0.4985 0.0
C577 C 0.54322 0.53956 0.49094 0.0
C578 C 0.53132 0.49987 0.50601 0.0
C579 C 0.50804 0.50657 0.50652 0.0
C580 C 0.50263 0.53002 0.50046 0.0
C581 C 0.51998 0.54628 0.49276 0.0
C582 C 0.45108 0.4783 0.54121 0.0
C583 C 0.45199 0.45782 0.51174 0.0
C584 C 0.4695 0.4938 0.54075 0.0
C585 C 0.4893 0.4892 0.51082 0.0
C586 C 0.4905 0.46842 0.4826 0.0
C587 C 0.47209 0.45293 0.48303 0.0
H588 H 0.51269 0.9354 0.72794 0.0
H589 H 0.56798 0.98429 0.74544 0.0
H590 H 0.48472 0.96664 0.73111 0.0
H591 H 0.54011 0.01565 0.75073 0.0
H592 H 0.48644 0.06856 0.70234 0.0
H593 H 0.51431 0.03729 0.70018 0.0
H594 H 0.46682 0.99393 0.78551 0.0
H595 H 0.43864 0.02518 0.78562 0.0
C596 C 0.51881 0.95286 0.73323 0.0
C597 C 0.54249 0.95745 0.73645 0.0
C598 C 0.50278 0.97081 0.73526 0.0
C599 C 0.51005 0.99379 0.74128 0.0
C600 C 0.53381 0.99828 0.74504 0.0
C601 C 0.54983 0.98033 0.74222 0.0
C602 C 0.48207 0.05239 0.72098 0.0
C603 C 0.46042 0.0493 0.74432 0.0
C604 C 0.49808 0.03443 0.71992 0.0
C605 C 0.49296 0.01299 0.74283 0.0
C606 C 0.47129 0.01002 0.76662 0.0
C607 C 0.45514 0.02792 0.76697 0.0
H608 H 0.06947 0.99476 0.48046 0.0
H609 H 0.02216 0.94119 0.52521 0.0
H610 H 0.03877 0.02352 0.48984 0.0
H611 H 0.99178 0.96964 0.5369 0.0
H612 H 0.93693 0.01754 0.47473 0.0
H613 H 0.96915 0.99107 0.47716 0.0
H614 H 0.01193 0.04423 0.5452 0.0
H615 H 0.97936 0.07106 0.54156 0.0
C616 C 0.05262 0.98932 0.49359 0.0
C617 C 0.04794 0.96586 0.50138 0.0
C618 C 0.03506 0.0057 0.49908 0.0
C619 C 0.01265 0.99882 0.51307 0.0
C620 C 0.0086 0.97547 0.52445 0.0
C621 C 0.02598 0.95918 0.51814 0.0
C622 C 0.95309 0.02352 0.49089 0.0
C623 C 0.95555 0.04629 0.50852 0.0
C624 C 0.97162 0.00832 0.49243 0.0
C625 C 0.99311 0.01538 0.51215 0.0
C626 C 0.99566 0.03826 0.52954 0.0
C627 C 0.97705 0.0536 0.52756 0.0
H628 H 0.92984 0.47786 0.78143 0.0
H629 H 0.98236 0.43318 0.71836 0.0
H630 H 0.95735 0.50971 0.78375 0.0
H631 H 0.00962 0.46484 0.71928 0.0
H632 H 0.05993 0.51889 0.76892 0.0
H633 H 0.03165 0.48815 0.77633 0.0
H634 H 0.97813 0.53539 0.7278 0.0
H635 H 0.00654 0.5663 0.72211 0.0
C636 C 0.94724 0.47492 0.76787 0.0
C637 C 0.95401 0.45302 0.75014 0.0
C638 C 0.96299 0.49314 0.76903 0.0
C639 C 0.98579 0.48985 0.752 0.0
C640 C 0.99241 0.46792 0.73396 0.0
C641 C 0.97676 0.44973 0.7333 0.0
C642 C 0.0421 0.52266 0.76 0.0
C643 C 0.03543 0.54488 0.74452 0.0
C644 C 0.02588 0.50506 0.76404 0.0
C645 C 0.00261 0.50917 0.75197 0.0
C646 C 0.99584 0.53163 0.73791 0.0
C647 C 0.01208 0.54934 0.73451 0.0
H648 H 0.56517 0.49287 0.95161 0.0
H649 H 0.52191 0.44423 0.03265 0.0
H650 H 0.5336 0.52043 0.94895 0.0
H651 H 0.49041 0.47206 0.03216 0.0
H652 H 0.43156 0.51716 0.97361 0.0
H653 H 0.46319 0.48965 0.97749 0.0
H654 H 0.51118 0.54586 0.99838 0.0
H655 H 0.47946 0.57326 0.99227 0.0
C656 C 0.54897 0.48825 0.96964 0.0
C657 C 0.54598 0.46643 0.99237 0.0
C658 C 0.53083 0.50408 0.96832 0.0
C659 C 0.50932 0.4986 0.99039 0.0
C660 C 0.50651 0.4768 0.01381 0.0
C661 C 0.52457 0.46085 0.01439 0.0
C662 C 0.44888 0.52355 0.9793 0.0
C663 C 0.45308 0.54733 0.98256 0.0
C664 C 0.46706 0.50779 0.98176 0.0
C665 C 0.48988 0.51542 0.98833 0.0
C666 C 0.49396 0.53928 0.99223 0.0
C667 C 0.4758 0.55503 0.98895 0.0
H668 H 0.4893 0.94096 0.22092 0.0
H669 H 0.43682 0.99004 0.26374 0.0
H670 H 0.51767 0.97175 0.21742 0.0
H671 H 0.46528 0.02092 0.26226 0.0
H672 H 0.51585 0.0743 0.20144 0.0
H673 H 0.48762 0.04341 0.20546 0.0
H674 H 0.53967 0.99756 0.26751 0.0
H675 H 0.56802 0.02843 0.26148 0.0
C676 C 0.48393 0.95834 0.23041 0.0
C677 C 0.46085 0.96311 0.24268 0.0
C678 C 0.50021 0.97603 0.22856 0.0
C679 C 0.49388 0.99895 0.2396 0.0
C680 C 0.47077 0.00362 0.2525 0.0
C681 C 0.45444 0.98593 0.25361 0.0
C682 C 0.52119 0.05764 0.21617 0.0
C683 C 0.54413 0.05377 0.23119 0.0
C684 C 0.50498 0.0399 0.21871 0.0
C685 C 0.51123 0.01788 0.23701 0.0
C686 C 0.53424 0.01411 0.25232 0.0
C687 C 0.55052 0.0318 0.24906 0.0
H688 H 0.16315 0.97233 0.38661 0.0
H689 H 0.10868 0.93844 0.30111 0.0
H690 H 0.16824 0.99922 0.31368 0.0
H691 H 0.11258 0.96587 0.23004 0.0
H692 H 0.13736 0.00453 0.08719 0.0
H693 H 0.13418 0.97706 0.15921 0.0
H694 H 0.15336 0.03055 0.26935 0.0
H695 H 0.15788 0.05737 0.19694 0.0
C696 C 0.15212 0.97083 0.35245 0.0
C697 C 0.13566 0.95321 0.34941 0.0
C698 C 0.15488 0.98631 0.31063 0.0
C699 C 0.14089 0.98483 0.26533 0.0
C700 C 0.12415 0.96735 0.26321 0.0
C701 C 0.12176 0.95166 0.30435 0.0
C702 C 0.14089 0.01033 0.12685 0.0
C703 C 0.14794 0.03305 0.13636 0.0
C704 C 0.13894 0.99463 0.1684 0.0
C705 C 0.14348 0.00143 0.22068 0.0
C706 C 0.15022 0.02436 0.22988 0.0
C707 C 0.15263 0.03987 0.18827 0.0
H708 H 0.01307 0.64996 0.64215 0.0
H709 H 0.05973 0.61045 0.5458 0.0
H710 H 0.98548 0.65105 0.56967 0.0
H711 H 0.03199 0.61053 0.47455 0.0
H712 H 0.98544 0.63117 0.33757 0.0
H713 H 0.01402 0.63179 0.40832 0.0
H714 H 0.95932 0.62867 0.52302 0.0
H715 H 0.93114 0.62914 0.45292 0.0
C716 C 0.01735 0.64136 0.60567 0.0
C717 C 0.0386 0.63016 0.59986 0.0
C718 C 0.00149 0.64183 0.56404 0.0
C719 C 0.00634 0.6308 0.5158 0.0
C720 C 0.02767 0.61961 0.51037 0.0
C721 C 0.04358 0.61942 0.55161 0.0
C722 C 0.97963 0.63055 0.37794 0.0
C723 C 0.95603 0.63028 0.3895 0.0
C724 C 0.99599 0.63084 0.41868 0.0
C725 C 0.98911 0.63051 0.47189 0.0
C726 C 0.96544 0.62962 0.48295 0.0
C727 C 0.9492 0.62967 0.44248 0.0
H728 H 0.38113 0.48443 0.61817 0.0
H729 H 0.32381 0.45108 0.69466 0.0
H730 H 0.38591 0.50955 0.69451 0.0
H731 H 0.32842 0.47629 0.77033 0.0
H732 H 0.35616 0.51319 0.91784 0.0
H733 H 0.35402 0.48567 0.84467 0.0
H734 H 0.36491 0.54121 0.73473 0.0
H735 H 0.36729 0.56832 0.80681 0.0
C736 C 0.36952 0.48248 0.65112 0.0
C737 C 0.35199 0.46584 0.65002 0.0
C738 C 0.37223 0.49689 0.69488 0.0
C739 C 0.35752 0.49495 0.73862 0.0
C740 C 0.34023 0.47808 0.73772 0.0
C741 C 0.33748 0.46375 0.69399 0.0
C742 C 0.35812 0.51943 0.87803 0.0
C743 C 0.36185 0.54296 0.86831 0.0
C744 C 0.35684 0.50372 0.8361 0.0
C745 C 0.35944 0.51122 0.78377 0.0
C746 C 0.36325 0.53473 0.77443 0.0
C747 C 0.36441 0.55034 0.81599 0.0
H748 H 0.49497 0.86631 0.17018 0.0
H749 H 0.44114 0.88752 0.06349 0.0
H750 H 0.52248 0.86671 0.09765 0.0
H751 H 0.46855 0.88887 0.99192 0.0
H752 H 0.51875 0.86663 0.8631 0.0
H753 H 0.49079 0.86604 0.93476 0.0
H754 H 0.54279 0.89169 0.04141 0.0
H755 H 0.57069 0.89137 0.97059 0.0
C756 C 0.48906 0.87121 0.13139 0.0
C757 C 0.46588 0.87678 0.12263 0.0
C758 C 0.50483 0.87159 0.08977 0.0
C759 C 0.49779 0.87783 0.03863 0.0
C760 C 0.47459 0.88355 0.03029 0.0
C761 C 0.45885 0.88292 0.07161 0.0
C762 C 0.52406 0.87232 0.90178 0.0
C763 C 0.54692 0.87891 0.91125 0.0
C764 C 0.50807 0.87202 0.94296 0.0
C765 C 0.51455 0.87859 0.99428 0.0
C766 C 0.53726 0.88592 1.00297 0.0
C767 C 0.55324 0.88595 0.96212 0.0
H768 H 0.82899 0.05335 0.68839 0.0
H769 H 0.88575 0.02009 0.60921 0.0
H770 H 0.83449 0.02822 0.76394 0.0
H771 H 0.89138 0.99507 0.68525 0.0
H772 H 0.87353 0.93625 0.7983 0.0
H773 H 0.87043 0.96333 0.72626 0.0
H774 H 0.86149 0.01911 0.83674 0.0
H775 H 0.86441 0.99168 0.90978 0.0
C776 C 0.84271 0.04073 0.68711 0.0
C777 C 0.85682 0.03862 0.64248 0.0
C778 C 0.84598 0.02645 0.73071 0.0
C779 C 0.86336 0.00963 0.73069 0.0
C780 C 0.87766 0.0077 0.6863 0.0
C781 C 0.87446 0.02205 0.64273 0.0
C782 C 0.87095 0.95428 0.80755 0.0
C783 C 0.86915 0.96178 0.85996 0.0
C784 C 0.86936 0.96986 0.76605 0.0
C785 C 0.86583 0.99341 0.77563 0.0
C786 C 0.86407 1.00103 0.82806 0.0
C787 C 0.86582 0.98536 0.86988 0.0
H788 H 0.9413 0.32753 0.93668 0.0
H789 H 0.97745 0.38222 0.85662 0.0
H790 H 0.96754 0.33089 0.01078 0.0
H791 H 0.00358 0.3858 0.93148 0.0
H792 H 0.06188 0.36393 0.04343 0.0
H793 H 0.03428 0.36331 0.97176 0.0
H794 H 0.97875 0.35633 0.08316 0.0
H795 H 0.0066 0.35661 0.15546 0.0
C796 C 0.95479 0.34038 0.93494 0.0
C797 C 0.95735 0.35452 0.89049 0.0
C798 C 0.96972 0.34242 0.97774 0.0
C799 C 0.98766 0.35862 0.97717 0.0
C800 C 0.99009 0.37296 0.93293 0.0
C801 C 0.97508 0.37096 0.89008 0.0
C802 C 0.04378 0.36231 0.05286 0.0
C803 C 0.03645 0.36021 0.10526 0.0
C804 C 0.02793 0.36215 0.01163 0.0
C805 C 0.00429 0.35983 0.02162 0.0
C806 C 0.99688 0.35792 0.0741 0.0
C807 C 0.0128 0.35816 0.11553 0.0
H808 H 0.64183 0.51886 0.39727 0.0
H809 H 0.62972 0.57391 0.28647 0.0
H810 H 0.64508 0.49156 0.32426 0.0
H811 H 0.63332 0.54691 0.21411 0.0
H812 H 0.6163 0.48873 0.09982 0.0
H813 H 0.61266 0.51512 0.17414 0.0
H814 H 0.67009 0.48177 0.25068 0.0
H815 H 0.6735 0.45523 0.17712 0.0
C816 C 0.64004 0.52516 0.35744 0.0
C817 C 0.63547 0.54855 0.34779 0.0
C818 C 0.64195 0.50955 0.31558 0.0
C819 C 0.63929 0.51702 0.26326 0.0
C820 C 0.63503 0.54046 0.25383 0.0
C821 C 0.63315 0.556 0.29548 0.0
C822 C 0.62816 0.48706 0.13247 0.0
C823 C 0.64521 0.46989 0.13238 0.0
C824 C 0.62613 0.50223 0.17503 0.0
C825 C 0.6411 0.50057 0.21846 0.0
C826 C 0.65808 0.48335 0.2183 0.0
C827 C 0.66013 0.46823 0.17582 0.0
H828 H 0.56984 0.15433 0.44436 0.0
H829 H 0.51628 0.13288 0.33738 0.0
H830 H 0.54474 0.14679 0.5185 0.0
H831 H 0.49047 0.12661 0.4114 0.0
H832 H 0.454 0.09983 0.55441 0.0
H833 H 0.4815 0.10357 0.48292 0.0
H834 H 0.5133 0.16105 0.5634 0.0
H835 H 0.48659 0.15624 0.6361 0.0
C836 C 0.55254 0.14823 0.43673 0.0
C837 C 0.54494 0.1443 0.38512 0.0
C838 C 0.53805 0.14403 0.4793 0.0
C839 C 0.5154 0.13623 0.47132 0.0
C840 C 0.50788 0.13221 0.41942 0.0
C841 C 0.52259 0.13598 0.37683 0.0
C842 C 0.46708 0.11307 0.55693 0.0
C843 C 0.46821 0.12773 0.60072 0.0
C844 C 0.48273 0.11539 0.5157 0.0
C845 C 0.4996 0.13278 0.51678 0.0
C846 C 0.50088 0.1472 0.56128 0.0
C847 C 0.48551 0.14454 0.60301 0.0
H848 H 0.62901 0.44353 0.78696 0.0
H849 H 0.63142 0.50025 0.89681 0.0
H850 H 0.63044 0.47046 0.71397 0.0
H851 H 0.63229 0.52735 0.82344 0.0
H852 H 0.66175 0.56651 0.68429 0.0
H853 H 0.65858 0.53938 0.75616 0.0
H854 H 0.60917 0.49975 0.66704 0.0
H855 H 0.61275 0.52687 0.59396 0.0
C856 C 0.62966 0.46179 0.7956 0.0
C857 C 0.63025 0.46973 0.84783 0.0
C858 C 0.63031 0.47725 0.75359 0.0
C859 C 0.63153 0.50109 0.76265 0.0
C860 C 0.63171 0.50907 0.81497 0.0
C861 C 0.63111 0.49357 0.85708 0.0
C862 C 0.65019 0.55202 0.67973 0.0
C863 C 0.63743 0.54895 0.63323 0.0
C864 C 0.64824 0.53652 0.72133 0.0
C865 C 0.63342 0.51749 0.71782 0.0
C866 C 0.62086 0.51417 0.671 0.0
C867 C 0.62287 0.52972 0.6291 0.0
H868 H 0.56655 0.13695 0.03704 0.0
H869 H 0.51042 0.14608 0.14628 0.0
H870 H 0.5397 0.13856 0.96399 0.0
H871 H 0.48333 0.1474 0.07256 0.0
H872 H 0.44853 0.17743 0.92408 0.0
H873 H 0.47416 0.1736 0.9992 0.0
H874 H 0.50843 0.11655 0.92329 0.0
H875 H 0.4829 0.12053 0.84752 0.0
C876 C 0.54843 0.13919 0.04554 0.0
C877 C 0.54062 0.14148 0.09753 0.0
C878 C 0.53302 0.13993 1.00356 0.0
C879 C 0.5094 0.14304 0.01244 0.0
C880 C 0.50149 0.14518 0.06446 0.0
C881 C 0.51696 0.14435 0.10666 0.0
C882 C 0.46152 0.16405 0.92328 0.0
C883 C 0.46375 0.14935 0.87963 0.0
C884 C 0.47609 0.16175 0.96662 0.0
C885 C 0.49328 0.14475 0.96728 0.0
C886 C 0.49548 0.12997 0.92372 0.0
C887 C 0.48084 0.13222 0.88036 0.0
H888 H 0.90328 0.05198 0.31443 0.0
H889 H 0.85555 0.00903 0.39931 0.0
H890 H 0.90476 0.0238 0.2438 0.0
H891 H 0.85598 0.98123 0.32741 0.0
H892 H 0.87295 0.92647 0.20901 0.0
H893 H 0.87649 0.95305 0.28237 0.0
H894 H 0.88342 0.00972 0.17329 0.0
H895 H 0.88107 0.98274 0.09994 0.0
C896 C 0.89303 0.03648 0.31788 0.0
C897 C 0.87926 0.03272 0.36235 0.0
C898 C 0.89372 0.02037 0.2771 0.0
C899 C 0.88033 1.00022 0.27926 0.0
C900 C 0.86684 0.99631 0.32442 0.0
C901 C 0.86647 0.01229 0.36569 0.0
C902 C 0.87545 0.94461 0.20076 0.0
C903 C 0.87664 0.95255 0.14872 0.0
C904 C 0.87728 0.95992 0.2429 0.0
C905 C 0.87997 0.98369 0.23417 0.0
C906 C 0.88168 0.99154 0.18188 0.0
C907 C 0.88024 0.97611 0.13965 0.0
H908 H 0.06624 0.34475 0.45173 0.0
H909 H 0.01292 0.36767 0.34583 0.0
H910 H 0.04133 0.35221 0.52629 0.0
H911 H 0.98724 0.37385 0.4202 0.0
H912 H 0.95079 0.40014 0.56346 0.0
H913 H 0.97827 0.39635 0.49205 0.0
H914 H 0.01002 0.33879 0.57231 0.0
H915 H 0.98328 0.34371 0.64514 0.0
C916 C 0.04903 0.35116 0.4444 0.0
C917 C 0.04148 0.35554 0.39292 0.0
C918 C 0.03463 0.35532 0.48726 0.0
C919 C 0.01207 0.36352 0.47978 0.0
C920 C 0.00458 0.36795 0.42798 0.0
C921 C 0.01922 0.36425 0.38512 0.0
C922 C 0.96387 0.38687 0.56601 0.0
C923 C 0.96493 0.37222 0.6098 0.0
C924 C 0.97952 0.3845 0.52474 0.0
C925 C 0.99634 0.36705 0.5256 0.0
C926 C 0.99763 0.35268 0.57022 0.0
C927 C 0.98225 0.35541 0.61208 0.0
H928 H 0.36189 0.52211 0.10629 0.0
H929 H 0.3875 0.5729 0.21566 0.0
H930 H 0.36104 0.49354 0.17699 0.0
H931 H 0.38741 0.54447 0.28539 0.0
H932 H 0.35934 0.49722 0.41209 0.0
H933 H 0.36102 0.52472 0.33974 0.0
H934 H 0.38344 0.47045 0.23525 0.0
H935 H 0.38099 0.44295 0.307 0.0
C936 C 0.36771 0.52704 0.14514 0.0
C937 C 0.37455 0.54979 0.15547 0.0
C938 C 0.36725 0.5107 0.18574 0.0
C939 C 0.37385 0.51675 0.23731 0.0
C940 C 0.38158 0.53929 0.24673 0.0
C941 C 0.38182 0.55558 0.2065 0.0
C942 C 0.36465 0.49121 0.37369 0.0
C943 C 0.37001 0.46791 0.36539 0.0
C944 C 0.36575 0.50698 0.33215 0.0
C945 C 0.37244 0.49986 0.28142 0.0
C946 C 0.37788 0.47654 0.27339 0.0
C947 C 0.37662 0.46078 0.31477 0.0
H948 H 0.48183 0.89248 0.37222 0.0
H949 H 0.43309 0.85414 0.46558 0.0
H950 H 0.50839 0.89319 0.44677 0.0
H951 H 0.45971 0.85436 0.53918 0.0
H952 H 0.50688 0.87467 0.67686 0.0
H953 H 0.47855 0.87758 0.60564 0.0
H954 H 0.5324 0.86577 0.49192 0.0
H955 H 0.56042 0.8633 0.56221 0.0
C956 C 0.47675 0.88429 0.4086 0.0
C957 C 0.45542 0.8731 0.41267 0.0
C958 C 0.492 0.88456 0.45128 0.0
C959 C 0.48627 0.87365 0.49897 0.0
C960 C 0.46463 0.86311 0.50339 0.0
C961 C 0.44942 0.86285 0.46085 0.0
C962 C 0.51255 0.87256 0.63664 0.0
C963 C 0.53589 0.86878 0.62527 0.0
C964 C 0.49637 0.87425 0.5958 0.0
C965 C 0.50323 0.87219 0.54288 0.0
C966 C 0.52653 0.86803 0.53195 0.0
C967 C 0.54261 0.86639 0.57249 0.0
H968 H 0.16969 0.93317 0.68079 0.0
H969 H 0.12032 0.97479 0.59632 0.0
H970 H 0.16833 0.95995 0.75412 0.0
H971 H 0.11866 0.00148 0.67049 0.0
H972 H 0.14171 0.05696 0.78764 0.0
H973 H 0.14219 0.0299 0.71486 0.0
H974 H 0.14335 0.97314 0.82445 0.0
H975 H 0.14326 1.00043 0.89785 0.0
C976 C 0.15848 0.94803 0.67778 0.0
C977 C 0.14511 0.95179 0.6324 0.0
C978 C 0.15757 0.9633 0.72021 0.0
C979 C 0.14331 0.98284 0.71852 0.0
C980 C 0.13001 0.98672 0.67301 0.0
C981 C 0.1309 0.97137 0.63047 0.0
C982 C 0.14207 0.03871 0.79644 0.0
C983 C 0.14251 0.03089 0.84874 0.0
C984 C 0.14216 0.02316 0.75451 0.0
C985 C 0.14272 0.99931 0.7636 0.0
C986 C 0.14316 0.99142 0.81596 0.0
C987 C 0.14302 0.00704 0.85808 0.0
H988 H 0.93626 0.62425 0.03914 0.0
H989 H 0.9914 0.63463 0.15062 0.0
H990 H 0.96325 0.62752 0.96707 0.0
H991 H 0.01878 0.63739 0.07782 0.0
H992 H 0.05608 0.66647 0.93414 0.0
H993 H 0.02943 0.66246 1.00682 0.0
H994 H 0.99417 0.60802 0.92354 0.0
H995 H 0.02074 0.61241 0.84979 0.0
C996 C 0.95423 0.62713 0.0484 0.0
C997 C 0.96163 0.62922 0.10087 0.0
C998 C 0.96978 0.62881 1.00683 0.0
C999 C 0.99327 0.6326 0.01635 0.0
C1000 C 0.00076 0.63471 0.0689 0.0
C1001 C 0.98511 0.63306 0.11071 0.0
C1002 C 0.04264 0.65363 0.93108 0.0
C1003 C 0.04057 0.63977 0.88589 0.0
C1004 C 0.02743 0.65121 0.97317 0.0
C1005 C 0.00968 0.63482 0.97147 0.0
C1006 C 0.00749 0.62101 0.92609 0.0
C1007 C 0.02273 0.62348 0.88376 0.0
H1008 H 0.07343 0.2478 0.27193 0.0
H1009 H 0.10805 0.28304 0.14565 0.0
H1010 H 0.08669 0.21092 0.2378 0.0
H1011 H 0.12112 0.24604 0.11069 0.0
H1012 H 0.15505 0.17535 0.08514 0.0
H1013 H 0.14546 0.21257 0.12449 0.0
H1014 H 0.07794 0.18684 0.16407 0.0
H1015 H 0.08758 0.1498 0.12533 0.0
C1016 C 0.08389 0.24762 0.2368 0.0
C1017 C 0.08952 0.2683 0.21124 0.0
C1018 C 0.09144 0.22649 0.21709 0.0
C1019 C 0.10471 0.22543 0.17103 0.0
C1020 C 0.11108 0.2462 0.14647 0.0
C1021 C 0.1036 0.26742 0.16647 0.0
C1022 C 0.13816 0.1777 0.10225 0.0
C1023 C 0.12215 0.15954 0.10243 0.0
C1024 C 0.13265 0.19904 0.12471 0.0
C1025 C 0.11097 0.20271 0.14775 0.0
C1026 C 0.09498 0.18452 0.14777 0.0
C1027 C 0.10051 0.16322 0.12551 0.0
H1028 H 0.83277 0.57027 0.3608 0.0
H1029 H 0.81675 0.63922 0.30807 0.0
H1030 H 0.79441 0.56736 0.39996 0.0
H1031 H 0.77843 0.63579 0.3441 0.0
H1032 H 0.72461 0.63604 0.4687 0.0
H1033 H 0.76237 0.63577 0.42982 0.0
H1034 H 0.75254 0.56524 0.38046 0.0
H1035 H 0.71457 0.56509 0.42247 0.0
C1036 C 0.82111 0.58475 0.35735 0.0
C1037 C 0.82795 0.605 0.33127 0.0
C1038 C 0.79903 0.58295 0.37918 0.0
C1039 C 0.78338 0.60139 0.37549 0.0
C1040 C 0.79012 0.62137 0.34849 0.0
C1041 C 0.81209 0.62322 0.3271 0.0
C1042 C 0.73043 0.62026 0.45044 0.0
C1043 C 0.71644 0.6005 0.44926 0.0
C1044 C 0.7521 0.62024 0.42728 0.0
C1045 C 0.76046 0.60057 0.40147 0.0
C1046 C 0.74663 0.58066 0.40027 0.0
C1047 C 0.72479 0.58065 0.42383 0.0
H1048 H 0.34305 0.3208 0.58405 0.0
H1049 H 0.40641 0.34826 0.64732 0.0
H1050 H 0.35456 0.2821 0.61235 0.0
H1051 H 0.41741 0.31002 0.67668 0.0
H1052 H 0.44462 0.23823 0.64978 0.0
H1053 H 0.42921 0.27555 0.62544 0.0
H1054 H 0.36369 0.25733 0.69341 0.0
H1055 H 0.3794 0.21955 0.71856 0.0
C1056 C 0.35926 0.31863 0.60453 0.0
C1057 C 0.37384 0.33761 0.61327 0.0
C1058 C 0.36573 0.29653 0.62105 0.0
C1059 C 0.38699 0.29304 0.64616 0.0
C1060 C 0.40107 0.31215 0.65675 0.0
C1061 C 0.39461 0.33414 0.64047 0.0
C1062 C 0.42698 0.24215 0.65997 0.0
C1063 C 0.41336 0.2261 0.68707 0.0
C1064 C 0.41814 0.26356 0.64596 0.0
C1065 C 0.39541 0.26953 0.6585 0.0
C1066 C 0.38132 0.25317 0.68343 0.0
C1067 C 0.39026 0.23159 0.69769 0.0
H1068 H 0.68071 0.85442 0.86883 0.0
H1069 H 0.67612 0.92446 0.81305 0.0
H1070 H 0.71921 0.86215 0.90342 0.0
H1071 H 0.71475 0.93208 0.84588 0.0
H1072 H 0.76779 0.94671 0.97121 0.0
H1073 H 0.73179 0.93725 0.9293 0.0
H1074 H 0.75905 0.87083 0.88415 0.0
H1075 H 0.79517 0.87996 0.9293 0.0
C1076 C 0.68811 0.87136 0.86335 0.0
C1077 C 0.67536 0.88895 0.839 0.0
C1078 C 0.71019 0.87577 0.88287 0.0
C1079 C 0.72001 0.89781 0.87795 0.0
C1080 C 0.70752 0.91507 0.85155 0.0
C1081 C 0.6854 0.91074 0.83265 0.0
C1082 C 0.76618 0.92995 0.95305 0.0
C1083 C 0.78438 0.91397 0.95437 0.0
C1084 C 0.74554 0.92466 0.92805 0.0
C1085 C 0.74249 0.90332 0.903 0.0
C1086 C 0.76076 0.88737 0.90347 0.0
C1087 C 0.78152 0.89266 0.92887 0.0
H1088 H 0.8859 0.29119 0.64509 0.0
H1089 H 0.92372 0.25412 0.76404 0.0
H1090 H 0.87019 0.2548 0.61209 0.0
H1091 H 0.90813 0.21777 0.73113 0.0
H1092 H 0.86197 0.15806 0.68059 0.0
H1093 H 0.87031 0.19578 0.71886 0.0
H1094 H 0.89031 0.22111 0.56633 0.0
H1095 H 0.88291 0.18345 0.5283 0.0
C1096 C 0.89049 0.2753 0.66473 0.0
C1097 C 0.90611 0.27538 0.70687 0.0
C1098 C 0.88165 0.25451 0.64569 0.0
C1099 C 0.88801 0.23351 0.66902 0.0
C1100 C 0.9028 0.23372 0.71268 0.0
C1101 C 0.91187 0.25445 0.73119 0.0
C1102 C 0.86817 0.17165 0.65518 0.0
C1103 C 0.8718 0.16761 0.60131 0.0
C1104 C 0.87281 0.19325 0.67709 0.0
C1105 C 0.88087 0.21132 0.64548 0.0
C1106 C 0.88375 0.20757 0.59144 0.0
C1107 C 0.87941 0.18595 0.56966 0.0
H1108 H 0.81329 0.38582 0.77457 0.0
H1109 H 0.83885 0.3669 0.92827 0.0
H1110 H 0.77591 0.39447 0.81238 0.0
H1111 H 0.80145 0.37648 0.96621 0.0
H1112 H 0.74406 0.43138 1.00791 0.0
H1113 H 0.78001 0.41471 0.97581 0.0
H1114 H 0.74206 0.37569 0.8601 0.0
H1115 H 0.70604 0.39248 0.8924 0.0
C1116 C 0.8109 0.38305 0.81624 0.0
C1117 C 0.82922 0.37562 0.8483 0.0
C1118 C 0.78942 0.38809 0.83789 0.0
C1119 C 0.7858 0.38613 0.89217 0.0
C1120 C 0.80387 0.37829 0.92423 0.0
C1121 C 0.8253 0.37295 0.9025 0.0
C1122 C 0.74343 0.41905 0.97602 0.0
C1123 C 0.72235 0.41331 0.95239 0.0
C1124 C 0.76394 0.40937 0.95795 0.0
C1125 C 0.76379 0.39397 0.91539 0.0
C1126 C 0.74263 0.38762 0.89282 0.0
C1127 C 0.72205 0.39707 0.91147 0.0
H1128 H 0.61073 0.21814 0.14087 0.0
H1129 H 0.58034 0.2508 0.2762 0.0
H1130 H 0.62303 0.25578 0.10816 0.0
H1131 H 0.59307 0.2883 0.24474 0.0
H1132 H 0.58892 0.35113 0.13768 0.0
H1133 H 0.58155 0.31359 0.17621 0.0
H1134 H 0.64722 0.28916 0.11923 0.0
H1135 H 0.6544 0.32687 0.07978 0.0
C1136 C 0.60719 0.23334 0.16418 0.0
C1137 C 0.59439 0.23165 0.21073 0.0
C1138 C 0.61422 0.25491 0.14554 0.0
C1139 C 0.60874 0.27516 0.17341 0.0
C1140 C 0.59706 0.27318 0.22151 0.0
C1141 C 0.58986 0.25171 0.23974 0.0
C1142 C 0.60195 0.33788 0.13405 0.0
C1143 C 0.62229 0.34202 0.1059 0.0
C1144 C 0.59776 0.31631 0.15623 0.0
C1145 C 0.61385 0.29832 0.15115 0.0
C1146 C 0.63434 0.30252 0.12342 0.0
C1147 C 0.63848 0.32413 0.10093 0.0
H1148 H 0.68774 0.11795 0.26958 0.0
H1149 H 0.65934 0.12863 0.42459 0.0
H1150 H 0.72466 0.10795 0.30848 0.0
H1151 H 0.69631 0.11799 0.46343 0.0
H1152 H 0.75547 0.06594 0.50244 0.0
H1153 H 0.71927 0.08127 0.46834 0.0
H1154 H 0.75701 0.12494 0.36167 0.0
H1155 H 0.79322 0.10933 0.39537 0.0
C1156 C 0.68943 0.11857 0.31191 0.0
C1157 C 0.6705 0.12414 0.34392 0.0
C1158 C 0.71061 0.11277 0.33418 0.0
C1159 C 0.71334 0.11219 0.38896 0.0
C1160 C 0.6946 0.11808 0.42106 0.0
C1161 C 0.67343 0.12409 0.39878 0.0
C1162 C 0.75599 0.07886 0.47184 0.0
C1163 C 0.77713 0.08635 0.45137 0.0
C1164 C 0.73531 0.0878 0.45269 0.0
C1165 C 0.73534 0.10426 0.41229 0.0
C1166 C 0.75649 0.11214 0.39259 0.0
C1167 C 0.7772 0.10336 0.41216 0.0
H1168 H 0.56545 0.76099 0.78908 0.0
H1169 H 0.59195 0.79398 0.64977 0.0
H1170 H 0.56768 0.7237 0.74553 0.0
H1171 H 0.59414 0.75662 0.60608 0.0
H1172 H 0.57782 0.68763 0.52915 0.0
H1173 H 0.57074 0.72467 0.57155 0.0
H1174 H 0.59853 0.69796 0.71671 0.0
H1175 H 0.60573 0.66103 0.67436 0.0
C1176 C 0.5718 0.76029 0.74919 0.0
C1177 C 0.57874 0.78046 0.7231 0.0
C1178 C 0.57305 0.73891 0.72423 0.0
C1179 C 0.58123 0.73718 0.67251 0.0
C1180 C 0.58751 0.75741 0.64578 0.0
C1181 C 0.58627 0.77883 0.67081 0.0
C1182 C 0.58242 0.68967 0.57012 0.0
C1183 C 0.59245 0.6714 0.59831 0.0
C1184 C 0.57836 0.71089 0.59437 0.0
C1185 C 0.58416 0.71428 0.64739 0.0
C1186 C 0.59358 0.69581 0.67597 0.0
C1187 C 0.59768 0.67462 0.65171 0.0
H1188 H 0.32094 0.15668 0.83256 0.0
H1189 H 0.34828 0.09076 0.88062 0.0
H1190 H 0.28402 0.14698 0.87317 0.0
H1191 H 0.31167 0.08099 0.92027 0.0
H1192 H 0.25111 0.07494 0.02488 0.0
H1193 H 0.28737 0.09047 0.99262 0.0
H1194 H 0.25159 0.1211 0.86105 0.0
H1195 H 0.2152 0.10596 0.89453 0.0
C1196 C 0.31905 0.14016 0.8518 0.0
C1197 C 0.33757 0.1246 0.85394 0.0
C1198 C 0.29793 0.13459 0.87496 0.0
C1199 C 0.29494 0.1133 0.90045 0.0
C1200 C 0.31351 0.09778 0.90225 0.0
C1201 C 0.33454 0.10337 0.87942 0.0
C1202 C 0.25104 0.08519 0.98937 0.0
C1203 C 0.23046 0.08907 0.9619 0.0
C1204 C 0.27177 0.09401 0.97073 0.0
C1205 C 0.27246 0.10669 0.92373 0.0
C1206 C 0.25166 0.11154 0.89755 0.0
C1207 C 0.23082 0.10287 0.91662 0.0
H1208 H 0.88907 0.83646 0.16882 0.0
H1209 H 0.90289 0.81266 0.01154 0.0
H1210 H 0.89788 0.79836 0.20312 0.0
H1211 H 0.9131 0.77469 0.04569 0.0
H1212 H 0.90366 0.70282 0.1212 0.0
H1213 H 0.89866 0.74085 0.08146 0.0
H1214 H 0.92656 0.7723 0.22201 0.0
H1215 H 0.92989 0.7343 0.26211 0.0
C1216 C 0.89431 0.82305 0.14172 0.0
C1217 C 0.89523 0.82741 0.08764 0.0
C1218 C 0.89961 0.80121 0.16131 0.0
C1219 C 0.90649 0.78328 0.12737 0.0
C1220 C 0.90758 0.78783 0.07309 0.0
C1221 C 0.90181 0.80961 0.05344 0.0
C1222 C 0.9091 0.71796 0.14278 0.0
C1223 C 0.91713 0.71585 0.19447 0.0
C1224 C 0.90626 0.73978 0.12021 0.0
C1225 C 0.91182 0.75988 0.14872 0.0
C1226 C 0.92135 0.75741 0.19931 0.0
C1227 C 0.92363 0.73567 0.22214 0.0
H1228 H 0.29007 0.39147 0.40555 0.0
H1229 H 0.25097 0.43417 0.51182 0.0
H1230 H 0.25432 0.37489 0.37159 0.0
H1231 H 0.21527 0.41788 0.47753 0.0
H1232 H 0.15627 0.36995 0.43352 0.0
H1233 H 0.19304 0.38099 0.4726 0.0
H1234 H 0.22166 0.39064 0.31784 0.0
H1235 H 0.18491 0.38019 0.27868 0.0
C1236 C 0.27387 0.39707 0.42214 0.0
C1237 C 0.27329 0.41419 0.46117 0.0
C1238 C 0.25341 0.38773 0.40241 0.0
C1239 C 0.23201 0.39514 0.42181 0.0
C1240 C 0.2315 0.41168 0.46209 0.0
C1241 C 0.25191 0.42117 0.48137 0.0
C1242 C 0.17038 0.37446 0.40779 0.0
C1243 C 0.16753 0.37422 0.35289 0.0
C1244 C 0.19145 0.38071 0.43021 0.0
C1245 C 0.21021 0.38668 0.39827 0.0
C1246 C 0.20761 0.38579 0.34346 0.0
C1247 C 0.18651 0.37973 0.32103 0.0
H1248 H 0.38342 0.79885 0.18419 0.0
H1249 H 0.45018 0.76996 0.21979 0.0
H1250 H 0.37293 0.76319 0.13865 0.0
H1251 H 0.43938 0.73435 0.17768 0.0
H1252 H 0.4234 0.67888 0.06268 0.0
H1253 H 0.43256 0.71718 0.09566 0.0
H1254 H 0.3635 0.72365 0.15685 0.0
H1255 H 0.35419 0.68553 0.12194 0.0
C1256 C 0.39586 0.78499 0.18223 0.0
C1257 C 0.41755 0.78728 0.20619 0.0
C1258 C 0.38977 0.76445 0.15665 0.0
C1259 C 0.40529 0.74581 0.15446 0.0
C1260 C 0.42706 0.74836 0.17775 0.0
C1261 C 0.43314 0.76879 0.20287 0.0
C1262 C 0.4102 0.68853 0.08315 0.0
C1263 C 0.38818 0.67916 0.09032 0.0
C1264 C 0.41543 0.71047 0.10217 0.0
C1265 C 0.39886 0.72347 0.12958 0.0
C1266 C 0.37661 0.71429 0.1355 0.0
C1267 C 0.3713 0.6924 0.1158 0.0
H1268 H 0.2334 0.88188 0.52686 0.0
H1269 H 0.2115 0.92329 0.39498 0.0
H1270 H 0.27235 0.88105 0.49231 0.0
H1271 H 0.25103 0.923 0.36116 0.0
H1272 H 0.33276 0.92934 0.35156 0.0
H1273 H 0.29412 0.93499 0.38856 0.0
H1274 H 0.28695 0.8614 0.40625 0.0
H1275 H 0.32526 0.85575 0.36897 0.0
C1276 C 0.23689 0.89092 0.4906 0.0
C1277 C 0.21917 0.90221 0.46306 0.0
C1278 C 0.25925 0.89051 0.471 0.0
C1279 C 0.26456 0.90165 0.42375 0.0
C1280 C 0.24731 0.91426 0.39774 0.0
C1281 C 0.22473 0.91447 0.41717 0.0
C1282 C 0.32289 0.91443 0.36359 0.0
C1283 C 0.33194 0.8921 0.35761 0.0
C1284 C 0.30081 0.91767 0.38433 0.0
C1285 C 0.28768 0.89864 0.40038 0.0
C1286 C 0.29682 0.87636 0.39454 0.0
C1287 C 0.31864 0.87312 0.37303 0.0
H1288 H 0.10947 0.83749 0.66936 0.0
H1289 H 0.06484 0.82268 0.53795 0.0
H1290 H 0.10044 0.80027 0.70743 0.0
H1291 H 0.05517 0.78544 0.57674 0.0
H1292 H 0.07459 0.71 0.62531 0.0
H1293 H 0.07337 0.74915 0.58989 0.0
H1294 H 0.07312 0.77644 0.74806 0.0
H1295 H 0.07551 0.73731 0.78259 0.0
C1296 C 0.09723 0.82648 0.64931 0.0
C1297 C 0.08796 0.83294 0.60061 0.0
C1298 C 0.09195 0.80511 0.67119 0.0
C1299 C 0.07704 0.78974 0.64518 0.0
C1300 C 0.06699 0.79665 0.59744 0.0
C1301 C 0.07246 0.818 0.57529 0.0
C1302 C 0.07369 0.72445 0.65217 0.0
C1303 C 0.07539 0.72085 0.70645 0.0
C1304 C 0.07296 0.74688 0.63208 0.0
C1305 C 0.0736 0.76604 0.66612 0.0
C1306 C 0.0733 0.76217 0.72063 0.0
C1307 C 0.07445 0.73982 0.74051 0.0
H1308 H 0.25648 0.57348 0.03635 0.0
H1309 H 0.2896 0.60128 0.89856 0.0
H1310 H 0.21917 0.57732 0.99379 0.0
H1311 H 0.25217 0.60508 0.85579 0.0
H1312 H 0.18241 0.58955 0.77932 0.0
H1313 H 0.21979 0.58266 0.82012 0.0
H1314 H 0.19372 0.60879 0.96739 0.0
H1315 H 0.15642 0.6158 0.92661 0.0
C1316 C 0.25581 0.5805 0.99704 0.0
C1317 C 0.27605 0.58729 0.9711 0.0
C1318 C 0.2344 0.58269 0.97263 0.0
C1319 C 0.23267 0.59169 0.92159 0.0
C1320 C 0.25294 0.59788 0.89498 0.0
C1321 C 0.2744 0.5957 0.91948 0.0
C1322 C 0.18468 0.59393 0.82036 0.0
C1323 C 0.16642 0.60331 0.84967 0.0
C1324 C 0.20611 0.58997 0.8437 0.0
C1325 C 0.20975 0.59521 0.89694 0.0
C1326 C 0.19139 0.60425 0.92646 0.0
C1327 C 0.16999 0.60825 0.9031 0.0
loop_
_geom_bond_atom_site_label_1
_geom_bond_atom_site_label_2
_geom_bond_distance
_geom_bond_site_symmetry_2
_ccdc_geom_bond_type
C0 C1 1.351 . S
C0 N3 1.368 . S
C0 H5 0.931 . S
C1 C0 1.351 . S
C1 N2 1.373 1_556 S
C1 H29 0.930 . S
N2 C1 1.373 1_554 S
N2 C4 1.340 . S
N3 C0 1.368 . S
N3 C4 1.321 1_556 S
N3 Co6 2.135 . S
C4 N2 1.340 . S
C4 N3 1.321 1_554 S
C4 H28 0.930 . S
H5 C0 0.931 . S
Co6 N3 2.135 . S
Co6 N9 2.121 . S
Co6 O14 2.055 . S
Co6 O17 2.039 1_556 S
Co6 N20 2.140 1_556 S
C7 O8 1.227 . S
C7 O17 1.265 . S
O8 C7 1.227 . S
N9 Co6 2.121 . S
N9 C11 1.375 1_556 S
N9 C12 1.313 . S
C10 C11 1.338 . S
C10 N13 1.377 1_554 S
C10 H30 0.930 . S
C11 N9 1.375 1_554 S
C11 C10 1.338 . S
C11 H15 0.931 . S
C12 N9 1.313 . S
C12 N13 1.344 . S
C12 H16 0.930 . S
N13 C10 1.377 1_556 S
N13 C12 1.344 . S
O14 Co6 2.055 . S
O14 C18 1.253 . S
H15 C11 0.931 . S
H16 C12 0.930 . S
O17 Co6 2.039 1_554 S
O17 C7 1.265 . S
C18 O14 1.253 . S
C18 O19 1.227 . S
O19 C18 1.227 . S
N20 Co6 2.140 1_554 S
N20 C23 1.346 . S
N20 C24 1.345 1_554 S
C21 C22 1.387 . S
C21 C25 1.391 1_554 S
C22 C21 1.387 . S
C22 C23 1.369 . S
C22 H31 0.929 . S
C23 N20 1.346 . S
C23 C22 1.369 . S
C23 H26 0.928 . S
C24 N20 1.345 1_556 S
C24 C25 1.371 . S
C24 H27 0.931 . S
C25 C21 1.391 1_556 S
C25 C24 1.371 . S
C25 H32 0.930 . S
H26 C23 0.928 . S
H27 C24 0.931 . S
H28 C4 0.930 . S
H29 C1 0.930 . S
H30 C10 0.930 . S
H31 C22 0.929 . S
H32 C25 0.930 . S
C33 C34 1.351 . S
C33 N36 1.368 . S
C33 H38 0.931 . S
C34 C33 1.351 . S
C34 N35 1.373 . S
C34 H62 0.930 . S
N35 C34 1.373 . S
N35 C37 1.340 . S
N36 C33 1.368 . S
N36 C37 1.321 . S
N36 Co39 2.135 . S
C37 N35 1.340 . S
C37 N36 1.321 . S
C37 H61 0.930 . S
H38 C33 0.931 . S
Co39 N36 2.135 . S
Co39 N42 2.121 . S
Co39 O47 2.055 . S
Co39 O50 2.039 . S
Co39 N53 2.140 . S
C40 O41 1.227 . S
C40 O50 1.265 . S
O41 C40 1.227 . S
N42 Co39 2.121 . S
N42 C44 1.375 . S
N42 C45 1.313 . S
C43 C44 1.338 . S
C43 N46 1.377 . S
C43 H63 0.930 . S
C44 N42 1.375 . S
C44 C43 1.338 . S
C44 H48 0.931 . S
C45 N42 1.313 . S
C45 N46 1.344 . S
C45 H49 0.930 . S
N46 C43 1.377 . S
N46 C45 1.344 . S
O47 Co39 2.055 . S
O47 C51 1.253 . S
H48 C44 0.931 . S
H49 C45 0.930 . S
O50 Co39 2.039 . S
O50 C40 1.265 . S
C51 O47 1.253 . S
C51 O52 1.227 . S
O52 C51 1.227 . S
N53 Co39 2.140 . S
N53 C56 1.346 . S
N53 C57 1.345 . S
C54 C55 1.387 . S
C54 C58 1.391 . S
C55 C54 1.387 . S
C55 C56 1.369 . S
C55 H64 0.929 . S
C56 N53 1.346 . S
C56 C55 1.369 . S
C56 H59 0.928 . S
C57 N53 1.345 . S
C57 C58 1.371 . S
C57 H60 0.931 . S
C58 C54 1.391 . S
C58 C57 1.371 . S
C58 H65 0.930 . S
H59 C56 0.928 . S
H60 C57 0.931 . S
H61 C37 0.930 . S
H62 C34 0.930 . S
H63 C43 0.930 . S
H64 C55 0.929 . S
H65 C58 0.930 . S
C66 C67 1.351 . S
C66 N69 1.368 . S
C66 H71 0.931 . S
C67 C66 1.351 . S
C67 N68 1.373 . S
C67 H95 0.930 . S
N68 C67 1.373 . S
N68 C70 1.340 . S
N69 C66 1.368 . S
N69 C70 1.321 . S
N69 Co72 2.135 . S
C70 N68 1.340 . S
C70 N69 1.321 . S
C70 H94 0.930 . S
H71 C66 0.931 . S
Co72 N69 2.135 . S
Co72 N75 2.121 . S
Co72 O80 2.055 . S
Co72 O83 2.039 . S
Co72 N86 2.140 . S
C73 O74 1.227 . S
C73 O83 1.265 . S
O74 C73 1.227 . S
N75 Co72 2.121 . S
N75 C77 1.375 . S
N75 C78 1.313 . S
C76 C77 1.338 . S
C76 N79 1.377 . S
C76 H96 0.930 . S
C77 N75 1.375 . S
C77 C76 1.338 . S
C77 H81 0.931 . S
C78 N75 1.313 . S
C78 N79 1.344 . S
C78 H82 0.930 . S
N79 C76 1.377 . S
N79 C78 1.344 . S
O80 Co72 2.055 . S
O80 C84 1.253 . S
H81 C77 0.931 . S
H82 C78 0.930 . S
O83 Co72 2.039 . S
O83 C73 1.265 . S
C84 O80 1.253 . S
C84 O85 1.227 . S
O85 C84 1.227 . S
N86 Co72 2.140 . S
N86 C89 1.346 . S
N86 C90 1.345 . S
C87 C88 1.387 . S
C87 C91 1.391 . S
C88 C87 1.387 . S
C88 C89 1.369 . S
C88 H97 0.929 . S
C89 N86 1.346 . S
C89 C88 1.369 . S
C89 H92 0.928 . S
C90 N86 1.345 . S
C90 C91 1.371 . S
C90 H93 0.931 . S
C91 C87 1.391 . S
C91 C90 1.371 . S
C91 H98 0.930 . S
H92 C89 0.928 . S
H93 C90 0.931 . S
H94 C70 0.930 . S
H95 C67 0.930 . S
H96 C76 0.930 . S
H97 C88 0.929 . S
H98 C91 0.930 . S
C99 C100 1.351 . S
C99 N102 1.368 . S
C99 H104 0.931 . S
C100 C99 1.351 . S
C100 N101 1.373 . S
C100 H128 0.930 . S
N101 C100 1.373 . S
N101 C103 1.340 . S
N102 C99 1.368 . S
N102 C103 1.321 . S
N102 Co105 2.135 . S
C103 N101 1.340 . S
C103 N102 1.321 . S
C103 H127 0.930 . S
H104 C99 0.931 . S
Co105 N102 2.135 . S
Co105 N108 2.121 . S
Co105 O113 2.055 . S
Co105 O116 2.039 . S
Co105 N119 2.140 . S
C106 O107 1.227 . S
C106 O116 1.265 . S
O107 C106 1.227 . S
N108 Co105 2.121 . S
N108 C110 1.375 . S
N108 C111 1.313 . S
C109 C110 1.338 . S
C109 N112 1.377 . S
C109 H129 0.930 . S
C110 N108 1.375 . S
C110 C109 1.338 . S
C110 H114 0.931 . S
C111 N108 1.313 . S
C111 N112 1.344 . S
C111 H115 0.930 . S
N112 C109 1.377 . S
N112 C111 1.344 . S
O113 Co105 2.055 . S
O113 C117 1.253 . S
H114 C110 0.931 . S
H115 C111 0.930 . S
O116 Co105 2.039 . S
O116 C106 1.265 . S
C117 O113 1.253 . S
C117 O118 1.227 . S
O118 C117 1.227 . S
N119 Co105 2.140 . S
N119 C122 1.346 . S
N119 C123 1.345 . S
C120 C121 1.387 . S
C120 C124 1.391 . S
C121 C120 1.387 . S
C121 C122 1.369 . S
C121 H130 0.929 . S
C122 N119 1.346 . S
C122 C121 1.369 . S
C122 H125 0.928 . S
C123 N119 1.345 . S
C123 C124 1.371 . S
C123 H126 0.931 . S
C124 C120 1.391 . S
C124 C123 1.371 . S
C124 H131 0.930 . S
H125 C122 0.928 . S
H126 C123 0.931 . S
H127 C103 0.930 . S
H128 C100 0.930 . S
H129 C109 0.930 . S
H130 C121 0.929 . S
H131 C124 0.930 . S
C132 C133 1.351 . S
C132 N135 1.368 . S
C132 H137 0.931 . S
C133 C132 1.351 . S
C133 N134 1.373 . S
C133 H161 0.930 . S
N134 C133 1.373 . S
N134 C136 1.340 . S
N135 C132 1.368 . S
N135 C136 1.321 . S
N135 Co138 2.135 . S
C136 N134 1.340 . S
C136 N135 1.321 . S
C136 H160 0.930 . S
H137 C132 0.931 . S
Co138 N135 2.135 . S
Co138 N141 2.121 . S
Co138 O146 2.055 . S
Co138 O149 2.039 . S
Co138 N152 2.140 . S
C139 O140 1.227 . S
C139 O149 1.265 . S
O140 C139 1.227 . S
N141 Co138 2.121 . S
N141 C143 1.375 . S
N141 C144 1.313 . S
C142 C143 1.338 . S
C142 N145 1.377 . S
C142 H162 0.930 . S
C143 N141 1.375 . S
C143 C142 1.338 . S
C143 H147 0.931 . S
C144 N141 1.313 . S
C144 N145 1.344 . S
C144 H148 0.930 . S
N145 C142 1.377 . S
N145 C144 1.344 . S
O146 Co138 2.055 . S
O146 C150 1.253 . S
H147 C143 0.931 . S
H148 C144 0.930 . S
O149 Co138 2.039 . S
O149 C139 1.265 . S
C150 O146 1.253 . S
C150 O151 1.227 . S
O151 C150 1.227 . S
N152 Co138 2.140 . S
N152 C155 1.346 . S
N152 C156 1.345 . S
C153 C154 1.387 . S
C153 C157 1.391 . S
C154 C153 1.387 . S
C154 C155 1.369 . S
C154 H163 0.929 . S
C155 N152 1.346 . S
C155 C154 1.369 . S
C155 H158 0.928 . S
C156 N152 1.345 . S
C156 C157 1.371 . S
C156 H159 0.931 . S
C157 C153 1.391 . S
C157 C156 1.371 . S
C157 H164 0.930 . S
H158 C155 0.928 . S
H159 C156 0.931 . S
H160 C136 0.930 . S
H161 C133 0.930 . S
H162 C142 0.930 . S
H163 C154 0.929 . S
H164 C157 0.930 . S
C165 C166 1.351 . S
C165 N168 1.368 . S
C165 H170 0.931 . S
C166 C165 1.351 . S
C166 N167 1.373 . S
C166 H194 0.930 . S
N167 C166 1.373 . S
N167 C169 1.340 . S
N168 C165 1.368 . S
N168 C169 1.321 . S
N168 Co171 2.135 . S
C169 N167 1.340 . S
C169 N168 1.321 . S
C169 H193 0.930 . S
H170 C165 0.931 . S
Co171 N168 2.135 . S
Co171 N174 2.121 . S
Co171 O179 2.055 . S
Co171 O182 2.039 . S
Co171 N185 2.140 . S
C172 O173 1.227 . S
C172 O182 1.265 . S
O173 C172 1.227 . S
N174 Co171 2.121 . S
N174 C176 1.375 . S
N174 C177 1.313 . S
C175 C176 1.338 . S
C175 N178 1.377 . S
C175 H195 0.930 . S
C176 N174 1.375 . S
C176 C175 1.338 . S
C176 H180 0.931 . S
C177 N174 1.313 . S
C177 N178 1.344 . S
C177 H181 0.930 . S
N178 C175 1.377 . S
N178 C177 1.344 . S
O179 Co171 2.055 . S
O179 C183 1.253 . S
H180 C176 0.931 . S
H181 C177 0.930 . S
O182 Co171 2.039 . S
O182 C172 1.265 . S
C183 O179 1.253 . S
C183 O184 1.227 . S
O184 C183 1.227 . S
N185 Co171 2.140 . S
N185 C188 1.346 . S
N185 C189 1.345 . S
C186 C187 1.387 . S
C186 C190 1.391 . S
C187 C186 1.387 . S
C187 C188 1.369 . S
C187 H196 0.929 . S
C188 N185 1.346 . S
C188 C187 1.369 . S
C188 H191 0.928 . S
C189 N185 1.345 . S
C189 C190 1.371 . S
C189 H192 0.931 . S
C190 C186 1.391 . S
C190 C189 1.371 . S
C190 H197 0.930 . S
H191 C188 0.928 . S
H192 C189 0.931 . S
H193 C169 0.930 . S
H194 C166 0.930 . S
H195 C175 0.930 . S
H196 C187 0.929 . S
H197 C190 0.930 . S
C198 C199 1.351 . S
C198 N201 1.368 . S
C198 H203 0.931 . S
C199 C198 1.351 . S
C199 N200 1.373 1_556 S
C199 H227 0.930 . S
N200 C199 1.373 1_554 S
N200 C202 1.340 . S
N201 C198 1.368 . S
N201 C202 1.321 1_556 S
N201 Co204 2.135 . S
C202 N200 1.340 . S
C202 N201 1.321 1_554 S
C202 H226 0.930 . S
H203 C198 0.931 . S
Co204 N201 2.135 . S
Co204 N207 2.121 . S
Co204 O212 2.055 . S
Co204 O215 2.039 1_556 S
Co204 N218 2.140 1_556 S
C205 O206 1.227 . S
C205 O215 1.265 . S
O206 C205 1.227 . S
N207 Co204 2.121 . S
N207 C209 1.375 1_556 S
N207 C210 1.313 . S
C208 C209 1.338 . S
C208 N211 1.377 1_554 S
C208 H228 0.930 . S
C209 N207 1.375 1_554 S
C209 C208 1.338 . S
C209 H213 0.931 . S
C210 N207 1.313 . S
C210 N211 1.344 . S
C210 H214 0.930 . S
N211 C208 1.377 1_556 S
N211 C210 1.344 . S
O212 Co204 2.055 . S
O212 C216 1.253 . S
H213 C209 0.931 . S
H214 C210 0.930 . S
O215 Co204 2.039 1_554 S
O215 C205 1.265 . S
C216 O212 1.253 . S
C216 O217 1.227 . S
O217 C216 1.227 . S
N218 Co204 2.140 1_554 S
N218 C221 1.346 . S
N218 C222 1.345 1_554 S
C219 C220 1.387 . S
C219 C223 1.391 1_554 S
C220 C219 1.387 . S
C220 C221 1.369 . S
C220 H229 0.929 . S
C221 N218 1.346 . S
C221 C220 1.369 . S
C221 H224 0.928 . S
C222 N218 1.345 1_556 S
C222 C223 1.371 . S
C222 H225 0.931 . S
C223 C219 1.391 1_556 S
C223 C222 1.371 . S
C223 H230 0.930 . S
H224 C221 0.928 . S
H225 C222 0.931 . S
H226 C202 0.930 . S
H227 C199 0.930 . S
H228 C208 0.930 . S
H229 C220 0.929 . S
H230 C223 0.930 . S
C231 C232 1.351 . S
C231 N234 1.368 . S
C231 H236 0.931 . S
C232 C231 1.351 . S
C232 N233 1.373 . S
C232 H260 0.930 . S
N233 C232 1.373 . S
N233 C235 1.340 . S
N234 C231 1.368 . S
N234 C235 1.321 . S
N234 Co237 2.135 . S
C235 N233 1.340 . S
C235 N234 1.321 . S
C235 H259 0.930 . S
H236 C231 0.931 . S
Co237 N234 2.135 . S
Co237 N240 2.121 . S
Co237 O245 2.055 . S
Co237 O248 2.039 . S
Co237 N251 2.140 . S
C238 O239 1.227 . S
C238 O248 1.265 . S
O239 C238 1.227 . S
N240 Co237 2.121 . S
N240 C242 1.375 . S
N240 C243 1.313 . S
C241 C242 1.338 . S
C241 N244 1.377 . S
C241 H261 0.930 . S
C242 N240 1.375 . S
C242 C241 1.338 . S
C242 H246 0.931 . S
C243 N240 1.313 . S
C243 N244 1.344 . S
C243 H247 0.930 . S
N244 C241 1.377 . S
N244 C243 1.344 . S
O245 Co237 2.055 . S
O245 C249 1.253 . S
H246 C242 0.931 . S
H247 C243 0.930 . S
O248 Co237 2.039 . S
O248 C238 1.265 . S
C249 O245 1.253 . S
C249 O250 1.227 . S
O250 C249 1.227 . S
N251 Co237 2.140 . S
N251 C254 1.346 . S
N251 C255 1.345 . S
C252 C253 1.387 . S
C252 C256 1.391 . S
C253 C252 1.387 . S
C253 C254 1.369 . S
C253 H262 0.929 . S
C254 N251 1.346 . S
C254 C253 1.369 . S
C254 H257 0.928 . S
C255 N251 1.345 . S
C255 C256 1.371 . S
C255 H258 0.931 . S
C256 C252 1.391 . S
C256 C255 1.371 . S
C256 H263 0.930 . S
H257 C254 0.928 . S
H258 C255 0.931 . S
H259 C235 0.930 . S
H260 C232 0.930 . S
H261 C241 0.930 . S
H262 C253 0.929 . S
H263 C256 0.930 . S
C264 C265 1.351 . S
C264 N267 1.368 . S
C264 H269 0.931 . S
C265 C264 1.351 . S
C265 N266 1.373 . S
C265 H293 0.930 . S
N266 C265 1.373 . S
N266 C268 1.340 . S
N267 C264 1.368 . S
N267 C268 1.321 . S
N267 Co270 2.135 . S
C268 N266 1.340 . S
C268 N267 1.321 . S
C268 H292 0.930 . S
H269 C264 0.931 . S
Co270 N267 2.135 . S
Co270 N273 2.121 . S
Co270 O278 2.055 . S
Co270 O281 2.039 . S
Co270 N284 2.140 . S
C271 O272 1.227 . S
C271 O281 1.265 . S
O272 C271 1.227 . S
N273 Co270 2.121 . S
N273 C275 1.375 . S
N273 C276 1.313 . S
C274 C275 1.338 . S
C274 N277 1.377 . S
C274 H294 0.930 . S
C275 N273 1.375 . S
C275 C274 1.338 . S
C275 H279 0.931 . S
C276 N273 1.313 . S
C276 N277 1.344 . S
C276 H280 0.930 . S
N277 C274 1.377 . S
N277 C276 1.344 . S
O278 Co270 2.055 . S
O278 C282 1.253 . S
H279 C275 0.931 . S
H280 C276 0.930 . S
O281 Co270 2.039 . S
O281 C271 1.265 . S
C282 O278 1.253 . S
C282 O283 1.227 . S
O283 C282 1.227 . S
N284 Co270 2.140 . S
N284 C287 1.346 . S
N284 C288 1.345 . S
C285 C286 1.387 . S
C285 C289 1.391 . S
C286 C285 1.387 . S
C286 C287 1.369 . S
C286 H295 0.929 . S
C287 N284 1.346 . S
C287 C286 1.369 . S
C287 H290 0.928 . S
C288 N284 1.345 . S
C288 C289 1.371 . S
C288 H291 0.931 . S
C289 C285 1.391 . S
C289 C288 1.371 . S
C289 H296 0.930 . S
H290 C287 0.928 . S
H291 C288 0.931 . S
H292 C268 0.930 . S
H293 C265 0.930 . S
H294 C274 0.930 . S
H295 C286 0.929 . S
H296 C289 0.930 . S
C297 C298 1.351 . S
C297 N300 1.368 . S
C297 H302 0.931 . S
C298 C297 1.351 . S
C298 N299 1.373 . S
C298 H326 0.930 . S
N299 C298 1.373 . S
N299 C301 1.340 . S
N300 C297 1.368 . S
N300 C301 1.321 . S
N300 Co303 2.135 . S
C301 N299 1.340 . S
C301 N300 1.321 . S
C301 H325 0.930 . S
H302 C297 0.931 . S
Co303 N300 2.135 . S
Co303 N306 2.121 . S
Co303 O311 2.055 . S
Co303 O314 2.039 . S
Co303 N317 2.140 . S
C304 O305 1.227 . S
C304 O314 1.265 . S
O305 C304 1.227 . S
N306 Co303 2.121 . S
N306 C308 1.375 . S
N306 C309 1.313 . S
C307 C308 1.338 . S
C307 N310 1.377 . S
C307 H327 0.930 . S
C308 N306 1.375 . S
C308 C307 1.338 . S
C308 H312 0.931 . S
C309 N306 1.313 . S
C309 N310 1.344 . S
C309 H313 0.930 . S
N310 C307 1.377 . S
N310 C309 1.344 . S
O311 Co303 2.055 . S
O311 C315 1.253 . S
H312 C308 0.931 . S
H313 C309 0.930 . S
O314 Co303 2.039 . S
O314 C304 1.265 . S
C315 O311 1.253 . S
C315 O316 1.227 . S
O316 C315 1.227 . S
N317 Co303 2.140 . S
N317 C320 1.346 . S
N317 C321 1.345 . S
C318 C319 1.387 . S
C318 C322 1.391 . S
C319 C318 1.387 . S
C319 C320 1.369 . S
C319 H328 0.929 . S
C320 N317 1.346 . S
C320 C319 1.369 . S
C320 H323 0.928 . S
C321 N317 1.345 . S
C321 C322 1.371 . S
C321 H324 0.931 . S
C322 C318 1.391 . S
C322 C321 1.371 . S
C322 H329 0.930 . S
H323 C320 0.928 . S
H324 C321 0.931 . S
H325 C301 0.930 . S
H326 C298 0.930 . S
H327 C307 0.930 . S
H328 C319 0.929 . S
H329 C322 0.930 . S
C330 C331 1.351 . S
C330 N333 1.368 . S
C330 H335 0.931 . S
C331 C330 1.351 . S
C331 N332 1.373 1_556 S
C331 H359 0.930 . S
N332 C331 1.373 1_554 S
N332 C334 1.340 . S
N333 C330 1.368 . S
N333 C334 1.321 1_556 S
N333 Co336 2.135 . S
C334 N332 1.340 . S
C334 N333 1.321 1_554 S
C334 H358 0.930 . S
H335 C330 0.931 . S
Co336 N333 2.135 . S
Co336 N339 2.121 . S
Co336 O344 2.055 . S
Co336 O347 2.039 1_556 S
Co336 N350 2.140 1_556 S
C337 O338 1.227 . S
C337 O347 1.265 . S
O338 C337 1.227 . S
N339 Co336 2.121 . S
N339 C341 1.375 1_556 S
N339 C342 1.313 . S
C340 C341 1.338 . S
C340 N343 1.377 1_554 S
C340 H360 0.930 . S
C341 N339 1.375 1_554 S
C341 C340 1.338 . S
C341 H345 0.931 . S
C342 N339 1.313 . S
C342 N343 1.344 . S
C342 H346 0.930 . S
N343 C340 1.377 1_556 S
N343 C342 1.344 . S
O344 Co336 2.055 . S
O344 C348 1.253 . S
H345 C341 0.931 . S
H346 C342 0.930 . S
O347 Co336 2.039 1_554 S
O347 C337 1.265 . S
C348 O344 1.253 . S
C348 O349 1.227 . S
O349 C348 1.227 . S
N350 Co336 2.140 1_554 S
N350 C353 1.346 . S
N350 C354 1.345 1_554 S
C351 C352 1.387 . S
C351 C355 1.391 1_554 S
C352 C351 1.387 . S
C352 C353 1.369 . S
C352 H361 0.929 . S
C353 N350 1.346 . S
C353 C352 1.369 . S
C353 H356 0.928 . S
C354 N350 1.345 1_556 S
C354 C355 1.371 . S
C354 H357 0.931 . S
C355 C351 1.391 1_556 S
C355 C354 1.371 . S
C355 H362 0.930 . S
H356 C353 0.928 . S
H357 C354 0.931 . S
H358 C334 0.930 . S
H359 C331 0.930 . S
H360 C340 0.930 . S
H361 C352 0.929 . S
H362 C355 0.930 . S
C363 C364 1.351 . S
C363 N366 1.368 . S
C363 H368 0.931 . S
C364 C363 1.351 . S
C364 N365 1.373 . S
C364 H392 0.930 . S
N365 C364 1.373 . S
N365 C367 1.340 . S
N366 C363 1.368 . S
N366 C367 1.321 . S
N366 Co369 2.135 . S
C367 N365 1.340 . S
C367 N366 1.321 . S
C367 H391 0.930 . S
H368 C363 0.931 . S
Co369 N366 2.135 . S
Co369 N372 2.121 . S
Co369 O377 2.055 . S
Co369 O380 2.039 . S
Co369 N383 2.140 . S
C370 O371 1.227 . S
C370 O380 1.265 . S
O371 C370 1.227 . S
N372 Co369 2.121 . S
N372 C374 1.375 . S
N372 C375 1.313 . S
C373 C374 1.338 . S
C373 N376 1.377 . S
C373 H393 0.930 . S
C374 N372 1.375 . S
C374 C373 1.338 . S
C374 H378 0.931 . S
C375 N372 1.313 . S
C375 N376 1.344 . S
C375 H379 0.930 . S
N376 C373 1.377 . S
N376 C375 1.344 . S
O377 Co369 2.055 . S
O377 C381 1.253 . S
H378 C374 0.931 . S
H379 C375 0.930 . S
O380 Co369 2.039 . S
O380 C370 1.265 . S
C381 O377 1.253 . S
C381 O382 1.227 . S
O382 C381 1.227 . S
N383 Co369 2.140 . S
N383 C386 1.346 . S
N383 C387 1.345 . S
C384 C385 1.387 . S
C384 C388 1.391 . S
C385 C384 1.387 . S
C385 C386 1.369 . S
C385 H394 0.929 . S
C386 N383 1.346 . S
C386 C385 1.369 . S
C386 H389 0.928 . S
C387 N383 1.345 . S
C387 C388 1.371 . S
C387 H390 0.931 . S
C388 C384 1.391 . S
C388 C387 1.371 . S
C388 H395 0.930 . S
H389 C386 0.928 . S
H390 C387 0.931 . S
H391 C367 0.930 . S
H392 C364 0.930 . S
H393 C373 0.930 . S
H394 C385 0.929 . S
H395 C388 0.930 . S
C396 C397 1.351 . S
C396 N399 1.368 . S
C396 H401 0.931 . S
C397 C396 1.351 . S
C397 N398 1.373 1_556 S
C397 H425 0.930 . S
N398 C397 1.373 1_554 S
N398 C400 1.340 . S
N399 C396 1.368 . S
N399 C400 1.321 1_556 S
N399 Co402 2.135 . S
C400 N398 1.340 . S
C400 N399 1.321 1_554 S
C400 H424 0.930 . S
H401 C396 0.931 . S
Co402 N399 2.135 . S
Co402 N405 2.121 . S
Co402 O410 2.055 . S
Co402 O413 2.039 1_556 S
Co402 N416 2.140 1_556 S
C403 O404 1.227 . S
C403 O413 1.265 . S
O404 C403 1.227 . S
N405 Co402 2.121 . S
N405 C407 1.375 1_556 S
N405 C408 1.313 . S
C406 C407 1.338 . S
C406 N409 1.377 1_554 S
C406 H426 0.930 . S
C407 N405 1.375 1_554 S
C407 C406 1.338 . S
C407 H411 0.931 . S
C408 N405 1.313 . S
C408 N409 1.344 . S
C408 H412 0.930 . S
N409 C406 1.377 1_556 S
N409 C408 1.344 . S
O410 Co402 2.055 . S
O410 C414 1.253 . S
H411 C407 0.931 . S
H412 C408 0.930 . S
O413 Co402 2.039 1_554 S
O413 C403 1.265 . S
C414 O410 1.253 . S
C414 O415 1.227 . S
O415 C414 1.227 . S
N416 Co402 2.140 1_554 S
N416 C419 1.346 . S
N416 C420 1.345 1_554 S
C417 C418 1.387 . S
C417 C421 1.391 1_554 S
C418 C417 1.387 . S
C418 C419 1.369 . S
C418 H427 0.929 . S
C419 N416 1.346 . S
C419 C418 1.369 . S
C419 H422 0.928 . S
C420 N416 1.345 1_556 S
C420 C421 1.371 . S
C420 H423 0.931 . S
C421 C417 1.391 1_556 S
C421 C420 1.371 . S
C421 H428 0.930 . S
H422 C419 0.928 . S
H423 C420 0.931 . S
H424 C400 0.930 . S
H425 C397 0.930 . S
H426 C406 0.930 . S
H427 C418 0.929 . S
H428 C421 0.930 . S
C429 C430 1.351 . S
C429 N432 1.368 . S
C429 H434 0.931 . S
C430 C429 1.351 . S
C430 N431 1.373 . S
C430 H458 0.930 . S
N431 C430 1.373 . S
N431 C433 1.340 . S
N432 C429 1.368 . S
N432 C433 1.321 . S
N432 Co435 2.135 . S
C433 N431 1.340 . S
C433 N432 1.321 . S
C433 H457 0.930 . S
H434 C429 0.931 . S
Co435 N432 2.135 . S
Co435 N438 2.121 . S
Co435 O443 2.055 . S
Co435 O446 2.039 . S
Co435 N449 2.140 . S
C436 O437 1.227 . S
C436 O446 1.265 . S
O437 C436 1.227 . S
N438 Co435 2.121 . S
N438 C440 1.375 . S
N438 C441 1.313 . S
C439 C440 1.338 . S
C439 N442 1.377 . S
C439 H459 0.930 . S
C440 N438 1.375 . S
C440 C439 1.338 . S
C440 H444 0.931 . S
C441 N438 1.313 . S
C441 N442 1.344 . S
C441 H445 0.930 . S
N442 C439 1.377 . S
N442 C441 1.344 . S
O443 Co435 2.055 . S
O443 C447 1.253 . S
H444 C440 0.931 . S
H445 C441 0.930 . S
O446 Co435 2.039 . S
O446 C436 1.265 . S
C447 O443 1.253 . S
C447 O448 1.227 . S
O448 C447 1.227 . S
N449 Co435 2.140 . S
N449 C452 1.346 . S
N449 C453 1.345 . S
C450 C451 1.387 . S
C450 C454 1.391 . S
C451 C450 1.387 . S
C451 C452 1.369 . S
C451 H460 0.929 . S
C452 N449 1.346 . S
C452 C451 1.369 . S
C452 H455 0.928 . S
C453 N449 1.345 . S
C453 C454 1.371 . S
C453 H456 0.931 . S
C454 C450 1.391 . S
C454 C453 1.371 . S
C454 H461 0.930 . S
H455 C452 0.928 . S
H456 C453 0.931 . S
H457 C433 0.930 . S
H458 C430 0.930 . S
H459 C439 0.930 . S
H460 C451 0.929 . S
H461 C454 0.930 . S
C462 C463 1.351 . S
C462 N465 1.368 . S
C462 H467 0.931 . S
C463 C462 1.351 . S
C463 N464 1.373 . S
C463 H491 0.930 . S
N464 C463 1.373 . S
N464 C466 1.340 . S
N465 C462 1.368 . S
N465 C466 1.321 . S
N465 Co468 2.135 . S
C466 N464 1.340 . S
C466 N465 1.321 . S
C466 H490 0.930 . S
H467 C462 0.931 . S
Co468 N465 2.135 . S
Co468 N471 2.121 . S
Co468 O476 2.055 . S
Co468 O479 2.039 . S
Co468 N482 2.140 . S
C469 O470 1.227 . S
C469 O479 1.265 . S
O470 C469 1.227 . S
N471 Co468 2.121 . S
N471 C473 1.375 . S
N471 C474 1.313 . S
C472 C473 1.338 . S
C472 N475 1.377 . S
C472 H492 0.930 . S
C473 N471 1.375 . S
C473 C472 1.338 . S
C473 H477 0.931 . S
C474 N471 1.313 . S
C474 N475 1.344 . S
C474 H478 0.930 . S
N475 C472 1.377 . S
N475 C474 1.344 . S
O476 Co468 2.055 . S
O476 C480 1.253 . S
H477 C473 0.931 . S
H478 C474 0.930 . S
O479 Co468 2.039 . S
O479 C469 1.265 . S
C480 O476 1.253 . S
C480 O481 1.227 . S
O481 C480 1.227 . S
N482 Co468 2.140 . S
N482 C485 1.346 . S
N482 C486 1.345 . S
C483 C484 1.387 . S
C483 C487 1.391 . S
C484 C483 1.387 . S
C484 C485 1.369 . S
C484 H493 0.929 . S
C485 N482 1.346 . S
C485 C484 1.369 . S
C485 H488 0.928 . S
C486 N482 1.345 . S
C486 C487 1.371 . S
C486 H489 0.931 . S
C487 C483 1.391 . S
C487 C486 1.371 . S
C487 H494 0.930 . S
H488 C485 0.928 . S
H489 C486 0.931 . S
H490 C466 0.930 . S
H491 C463 0.930 . S
H492 C472 0.930 . S
H493 C484 0.929 . S
H494 C487 0.930 . S
C495 C496 1.351 . S
C495 N498 1.368 . S
C495 H500 0.931 . S
C496 C495 1.351 . S
C496 N497 1.373 . S
C496 H524 0.930 . S
N497 C496 1.373 . S
N497 C499 1.340 . S
N498 C495 1.368 . S
N498 C499 1.321 . S
N498 Co501 2.135 . S
C499 N497 1.340 . S
C499 N498 1.321 . S
C499 H523 0.930 . S
H500 C495 0.931 . S
Co501 N498 2.135 . S
Co501 N504 2.121 . S
Co501 O509 2.055 . S
Co501 O512 2.039 . S
Co501 N515 2.140 . S
C502 O503 1.227 . S
C502 O512 1.265 . S
O503 C502 1.227 . S
N504 Co501 2.121 . S
N504 C506 1.375 . S
N504 C507 1.313 . S
C505 C506 1.338 . S
C505 N508 1.377 . S
C505 H525 0.930 . S
C506 N504 1.375 . S
C506 C505 1.338 . S
C506 H510 0.931 . S
C507 N504 1.313 . S
C507 N508 1.344 . S
C507 H511 0.930 . S
N508 C505 1.377 . S
N508 C507 1.344 . S
O509 Co501 2.055 . S
O509 C513 1.253 . S
H510 C506 0.931 . S
H511 C507 0.930 . S
O512 Co501 2.039 . S
O512 C502 1.265 . S
C513 O509 1.253 . S
C513 O514 1.227 . S
O514 C513 1.227 . S
N515 Co501 2.140 . S
N515 C518 1.346 . S
N515 C519 1.345 . S
C516 C517 1.387 . S
C516 C520 1.391 . S
C517 C516 1.387 . S
C517 C518 1.369 . S
C517 H526 0.929 . S
C518 N515 1.346 . S
C518 C517 1.369 . S
C518 H521 0.928 . S
C519 N515 1.345 . S
C519 C520 1.371 . S
C519 H522 0.931 . S
C520 C516 1.391 . S
C520 C519 1.371 . S
C520 H527 0.930 . S
H521 C518 0.928 . S
H522 C519 0.931 . S
H523 C499 0.930 . S
H524 C496 0.930 . S
H525 C505 0.930 . S
H526 C517 0.929 . S
H527 C520 0.930 . S
H528 C536 0.950 . S
H529 C541 0.950 . S
H530 C538 0.950 . S
H531 C540 0.950 . S
H532 C542 0.950 . S
H533 C544 0.950 . S
H534 C546 0.950 . S
H535 C547 0.950 . S
C536 H528 0.950 . S
C536 C537 1.386 . S
C536 C538 1.391 . S
C537 C536 1.386 . S
C537 C541 1.393 1_554 S
C538 H530 0.950 . S
C538 C536 1.391 . S
C538 C539 1.400 . S
C539 C538 1.400 . S
C539 C540 1.398 1_554 S
C539 C545 1.491 1_665 S
C540 H531 0.950 . S
C540 C539 1.398 1_556 S
C540 C541 1.391 . S
C541 H529 0.950 . S
C541 C537 1.393 1_556 S
C541 C540 1.391 . S
C542 H532 0.950 . S
C542 C543 1.386 1_556 S
C542 C544 1.391 . S
C543 C542 1.386 1_554 S
C543 C547 1.393 . S
C544 H533 0.950 . S
C544 C542 1.391 . S
C544 C545 1.400 1_556 S
C545 C539 1.491 1_445 S
C545 C544 1.400 1_554 S
C545 C546 1.398 . S
C546 H534 0.950 . S
C546 C545 1.398 . S
C546 C547 1.391 . S
C547 H535 0.950 . S
C547 C543 1.393 . S
C547 C546 1.391 . S
H548 C556 0.950 . S
H549 C561 0.935 1_455 S
H550 C558 0.950 . S
H551 C560 0.950 . S
H552 C562 0.950 . S
H553 C564 0.950 . S
H554 C566 0.950 . S
H555 C567 0.935 1_655 S
C556 H548 0.950 . S
C556 C557 1.386 . S
C556 C558 1.391 . S
C557 C556 1.386 . S
C557 C561 1.393 . S
C558 H550 0.950 . S
C558 C556 1.391 . S
C558 C559 1.400 . S
C559 C558 1.400 . S
C559 C560 1.398 1_655 S
C559 C565 1.491 1_655 S
C560 H551 0.950 . S
C560 C559 1.398 1_455 S
C560 C561 1.391 1_455 S
C561 H549 0.935 1_655 S
C561 C557 1.393 . S
C561 C560 1.391 1_655 S
C562 H552 0.950 . S
C562 C563 1.386 . S
C562 C564 1.391 . S
C563 C562 1.386 . S
C563 C567 1.393 . S
C564 H553 0.950 . S
C564 C562 1.391 . S
C564 C565 1.400 . S
C565 C559 1.491 1_455 S
C565 C564 1.400 . S
C565 C566 1.398 1_455 S
C566 H554 0.950 . S
C566 C565 1.398 1_655 S
C566 C567 1.391 1_655 S
C567 H555 0.935 1_455 S
C567 C563 1.393 . S
C567 C566 1.391 1_455 S
H568 C576 0.950 . S
H569 C581 0.950 . S
H570 C578 0.950 . S
H571 C580 0.950 . S
H572 C582 0.950 . S
H573 C584 0.950 . S
H574 C586 0.950 . S
H575 C587 0.950 . S
C576 H568 0.950 . S
C576 C577 1.386 . S
C576 C578 1.391 . S
C577 C576 1.386 . S
C577 C581 1.393 . S
C578 H570 0.950 . S
C578 C576 1.391 . S
C578 C579 1.400 . S
C579 C578 1.400 . S
C579 C580 1.398 . S
C579 C585 1.491 . S
C580 H571 0.950 . S
C580 C579 1.398 . S
C580 C581 1.391 . S
C581 H569 0.950 . S
C581 C577 1.393 . S
C581 C580 1.391 . S
C582 H572 0.950 . S
C582 C583 1.386 . S
C582 C584 1.391 . S
C583 C582 1.386 . S
C583 C587 1.393 . S
C584 H573 0.950 . S
C584 C582 1.391 . S
C584 C585 1.400 . S
C585 C579 1.491 . S
C585 C584 1.400 . S
C585 C586 1.398 . S
C586 H574 0.950 . S
C586 C585 1.398 . S
C586 C587 1.391 . S
C587 H575 0.950 . S
C587 C583 1.393 . S
C587 C586 1.391 . S
H588 C596 0.950 . S
H589 C601 0.950 . S
H590 C598 0.950 . S
H591 C600 0.950 . S
H592 C602 0.950 . S
H593 C604 0.950 . S
H594 C606 0.950 . S
H595 C607 0.950 . S
C596 H588 0.950 . S
C596 C597 1.386 . S
C596 C598 1.391 . S
C597 C596 1.386 . S
C597 C601 1.393 . S
C598 H590 0.950 . S
C598 C596 1.391 . S
C598 C599 1.400 . S
C599 C598 1.400 . S
C599 C600 1.398 . S
C599 C605 1.491 1_565 S
C600 H591 0.950 . S
C600 C599 1.398 . S
C600 C601 1.391 . S
C601 H589 0.950 . S
C601 C597 1.393 . S
C601 C600 1.391 . S
C602 H592 0.950 . S
C602 C603 1.386 . S
C602 C604 1.391 . S
C603 C602 1.386 . S
C603 C607 1.393 . S
C604 H593 0.950 . S
C604 C602 1.391 . S
C604 C605 1.400 . S
C605 C599 1.491 1_545 S
C605 C604 1.400 . S
C605 C606 1.398 . S
C606 H594 0.950 . S
C606 C605 1.398 . S
C606 C607 1.391 . S
C607 H595 0.950 . S
C607 C603 1.393 . S
C607 C606 1.391 . S
H608 C616 0.950 . S
H609 C621 0.950 . S
H610 C618 0.950 1_545 S
H611 C620 0.950 . S
H612 C622 0.950 . S
H613 C624 0.950 1_565 S
H614 C626 0.950 . S
H615 C627 0.950 . S
C616 H608 0.950 . S
C616 C617 1.386 . S
C616 C618 1.391 . S
C617 C616 1.386 . S
C617 C621 1.393 . S
C618 H610 0.950 1_565 S
C618 C616 1.391 . S
C618 C619 1.400 . S
C619 C618 1.400 . S
C619 C620 1.398 . S
C619 C625 1.491 1_465 S
C620 H611 0.950 . S
C620 C619 1.398 . S
C620 C621 1.391 . S
C621 H609 0.950 . S
C621 C617 1.393 . S
C621 C620 1.391 . S
C622 H612 0.950 . S
C622 C623 1.386 . S
C622 C624 1.391 . S
C623 C622 1.386 . S
C623 C627 1.393 . S
C624 H613 0.950 1_545 S
C624 C622 1.391 . S
C624 C625 1.400 . S
C625 C619 1.491 1_645 S
C625 C624 1.400 . S
C625 C626 1.398 . S
C626 H614 0.950 . S
C626 C625 1.398 . S
C626 C627 1.391 . S
C627 H615 0.950 . S
C627 C623 1.393 . S
C627 C626 1.391 . S
H628 C636 0.950 . S
H629 C641 0.950 1_455 S
H630 C638 0.950 . S
H631 C640 0.950 . S
H632 C642 0.950 . S
H633 C644 0.950 . S
H634 C646 0.950 . S
H635 C647 0.950 1_655 S
C636 H628 0.950 . S
C636 C637 1.386 . S
C636 C638 1.391 . S
C637 C636 1.386 . S
C637 C641 1.393 . S
C638 H630 0.950 . S
C638 C636 1.391 . S
C638 C639 1.400 . S
C639 C638 1.400 . S
C639 C640 1.398 1_655 S
C639 C645 1.491 1_655 S
C640 H631 0.950 . S
C640 C639 1.398 1_455 S
C640 C641 1.391 1_455 S
C641 H629 0.950 1_655 S
C641 C637 1.393 . S
C641 C640 1.391 1_655 S
C642 H632 0.950 . S
C642 C643 1.386 . S
C642 C644 1.391 . S
C643 C642 1.386 . S
C643 C647 1.393 . S
C644 H633 0.950 . S
C644 C642 1.391 . S
C644 C645 1.400 . S
C645 C639 1.491 1_455 S
C645 C644 1.400 . S
C645 C646 1.398 1_455 S
C646 H634 0.950 . S
C646 C645 1.398 1_655 S
C646 C647 1.391 1_655 S
C647 H635 0.950 1_455 S
C647 C643 1.393 . S
C647 C646 1.391 1_455 S
H648 C656 0.950 . S
H649 C661 0.950 . S
H650 C658 0.950 . S
H651 C660 0.950 . S
H652 C662 0.950 . S
H653 C664 0.950 . S
H654 C666 0.950 . S
H655 C667 0.950 . S
C656 H648 0.950 . S
C656 C657 1.386 1_556 S
C656 C658 1.391 . S
C657 C656 1.386 1_554 S
C657 C661 1.393 . S
C658 H650 0.950 . S
C658 C656 1.391 . S
C658 C659 1.400 1_556 S
C659 C658 1.400 1_554 S
C659 C660 1.398 . S
C659 C665 1.491 . S
C660 H651 0.950 . S
C660 C659 1.398 . S
C660 C661 1.391 . S
C661 H649 0.950 . S
C661 C657 1.393 . S
C661 C660 1.391 . S
C662 H652 0.950 . S
C662 C663 1.386 . S
C662 C664 1.391 . S
C663 C662 1.386 . S
C663 C667 1.393 1_554 S
C664 H653 0.950 . S
C664 C662 1.391 . S
C664 C665 1.400 . S
C665 C659 1.491 . S
C665 C664 1.400 . S
C665 C666 1.398 1_554 S
C666 H654 0.950 . S
C666 C665 1.398 1_556 S
C666 C667 1.391 . S
C667 H655 0.950 . S
C667 C663 1.393 1_556 S
C667 C666 1.391 . S
H668 C676 0.950 . S
H669 C681 0.950 . S
H670 C678 0.950 . S
H671 C680 0.950 . S
H672 C682 0.950 . S
H673 C684 0.950 . S
H674 C686 0.950 . S
H675 C687 0.950 . S
C676 H668 0.950 . S
C676 C677 1.386 . S
C676 C678 1.391 . S
C677 C676 1.386 . S
C677 C681 1.393 . S
C678 H670 0.950 . S
C678 C676 1.391 . S
C678 C679 1.400 . S
C679 C678 1.400 . S
C679 C680 1.398 . S
C679 C685 1.491 1_565 S
C680 H671 0.950 . S
C680 C679 1.398 . S
C680 C681 1.391 . S
C681 H669 0.950 . S
C681 C677 1.393 . S
C681 C680 1.391 . S
C682 H672 0.950 . S
C682 C683 1.386 . S
C682 C684 1.391 . S
C683 C682 1.386 . S
C683 C687 1.393 . S
C684 H673 0.950 . S
C684 C682 1.391 . S
C684 C685 1.400 . S
C685 C679 1.491 1_545 S
C685 C684 1.400 . S
C685 C686 1.398 . S
C686 H674 0.950 . S
C686 C685 1.398 . S
C686 C687 1.391 . S
C687 H675 0.950 . S
C687 C683 1.393 . S
C687 C686 1.391 . S
H688 C696 0.950 . S
H689 C701 0.950 . S
H690 C698 0.950 1_545 S
H691 C700 0.950 . S
H692 C702 0.950 1_565 S
H693 C704 0.950 . S
H694 C706 0.950 . S
H695 C707 0.950 . S
C696 H688 0.950 . S
C696 C697 1.386 . S
C696 C698 1.391 . S
C697 C696 1.386 . S
C697 C701 1.393 . S
C698 H690 0.950 1_565 S
C698 C696 1.391 . S
C698 C699 1.400 . S
C699 C698 1.400 . S
C699 C700 1.398 . S
C699 C705 1.484 1_565 S
C700 H691 0.950 . S
C700 C699 1.398 . S
C700 C701 1.391 . S
C701 H689 0.950 . S
C701 C697 1.393 . S
C701 C700 1.391 . S
C702 H692 0.950 1_545 S
C702 C703 1.386 . S
C702 C704 1.391 1_545 S
C703 C702 1.386 . S
C703 C707 1.393 . S
C704 H693 0.950 . S
C704 C702 1.391 1_565 S
C704 C705 1.395 1_565 S
C705 C699 1.484 1_545 S
C705 C704 1.395 1_545 S
C705 C706 1.410 . S
C706 H694 0.950 . S
C706 C705 1.410 . S
C706 C707 1.391 . S
C707 H695 0.950 . S
C707 C703 1.393 . S
C707 C706 1.391 . S
H708 C716 0.950 . S
H709 C721 0.950 . S
H710 C718 0.950 . S
H711 C720 0.950 . S
H712 C722 0.950 . S
H713 C724 0.950 1_455 S
H714 C726 0.950 . S
H715 C727 0.950 . S
C716 H708 0.950 . S
C716 C717 1.386 . S
C716 C718 1.391 . S
C717 C716 1.386 . S
C717 C721 1.393 . S
C718 H710 0.950 . S
C718 C716 1.391 . S
C718 C719 1.400 . S
C719 C718 1.400 . S
C719 C720 1.398 . S
C719 C725 1.468 1_455 S
C720 H711 0.950 . S
C720 C719 1.398 . S
C720 C721 1.391 . S
C721 H709 0.950 . S
C721 C717 1.393 . S
C721 C720 1.391 . S
C722 H712 0.950 . S
C722 C723 1.386 . S
C722 C724 1.391 . S
C723 C722 1.386 . S
C723 C727 1.393 . S
C724 H713 0.950 1_655 S
C724 C722 1.391 . S
C724 C725 1.405 . S
C725 C719 1.468 1_655 S
C725 C724 1.405 . S
C725 C726 1.420 . S
C726 H714 0.950 . S
C726 C725 1.420 . S
C726 C727 1.391 . S
C727 H715 0.950 . S
C727 C723 1.393 . S
C727 C726 1.391 . S
H728 C736 0.950 . S
H729 C741 0.950 . S
H730 C738 0.950 . S
H731 C740 0.950 . S
H732 C742 0.950 . S
H733 C744 0.950 . S
H734 C746 0.950 . S
H735 C747 0.950 . S
C736 H728 0.950 . S
C736 C737 1.386 . S
C736 C738 1.391 . S
C737 C736 1.386 . S
C737 C741 1.393 . S
C738 H730 0.950 . S
C738 C736 1.391 . S
C738 C739 1.400 . S
C739 C738 1.400 . S
C739 C740 1.398 . S
C739 C745 1.491 . S
C740 H731 0.950 . S
C740 C739 1.398 . S
C740 C741 1.391 . S
C741 H729 0.950 . S
C741 C737 1.393 . S
C741 C740 1.391 . S
C742 H732 0.950 . S
C742 C743 1.386 . S
C742 C744 1.391 . S
C743 C742 1.386 . S
C743 C747 1.393 . S
C744 H733 0.950 . S
C744 C742 1.391 . S
C744 C745 1.400 . S
C745 C739 1.491 . S
C745 C744 1.400 . S
C745 C746 1.398 . S
C746 H734 0.950 . S
C746 C745 1.398 . S
C746 C747 1.391 . S
C747 H735 0.950 . S
C747 C743 1.393 . S
C747 C746 1.391 . S
H748 C756 0.950 . S
H749 C761 0.950 . S
H750 C758 0.950 . S
H751 C760 0.950 1_556 S
H752 C762 0.950 . S
H753 C764 0.950 . S
H754 C766 0.950 . S
H755 C767 0.950 . S
C756 H748 0.950 . S
C756 C757 1.386 . S
C756 C758 1.391 . S
C757 C756 1.386 . S
C757 C761 1.393 . S
C758 H750 0.950 . S
C758 C756 1.391 . S
C758 C759 1.400 . S
C759 C758 1.400 . S
C759 C760 1.398 . S
C759 C765 1.491 1_554 S
C760 H751 0.950 1_554 S
C760 C759 1.398 . S
C760 C761 1.391 . S
C761 H749 0.950 . S
C761 C757 1.393 . S
C761 C760 1.391 . S
C762 H752 0.950 . S
C762 C763 1.386 . S
C762 C764 1.391 . S
C763 C762 1.386 . S
C763 C767 1.393 . S
C764 H753 0.950 . S
C764 C762 1.391 . S
C764 C765 1.400 . S
C765 C759 1.491 1_556 S
C765 C764 1.400 . S
C765 C766 1.398 . S
C766 H754 0.950 . S
C766 C765 1.398 . S
C766 C767 1.391 . S
C767 H755 0.950 . S
C767 C763 1.393 . S
C767 C766 1.391 . S
H768 C776 0.950 . S
H769 C781 0.950 . S
H770 C778 0.950 . S
H771 C780 0.950 . S
H772 C782 0.950 . S
H773 C784 0.950 . S
H774 C786 0.950 1_545 S
H775 C787 0.950 . S
C776 H768 0.950 . S
C776 C777 1.386 . S
C776 C778 1.391 . S
C777 C776 1.386 . S
C777 C781 1.393 . S
C778 H770 0.950 . S
C778 C776 1.391 . S
C778 C779 1.403 . S
C779 C778 1.403 . S
C779 C780 1.397 1_545 S
C779 C785 1.489 1_545 S
C780 H771 0.950 . S
C780 C779 1.397 1_565 S
C780 C781 1.391 1_565 S
C781 H769 0.950 . S
C781 C777 1.393 . S
C781 C780 1.391 1_545 S
C782 H772 0.950 . S
C782 C783 1.386 . S
C782 C784 1.391 . S
C783 C782 1.386 . S
C783 C787 1.393 . S
C784 H773 0.950 . S
C784 C782 1.391 . S
C784 C785 1.400 . S
C785 C779 1.489 1_565 S
C785 C784 1.400 . S
C785 C786 1.398 . S
C786 H774 0.950 1_565 S
C786 C785 1.398 . S
C786 C787 1.391 . S
C787 H775 0.950 . S
C787 C783 1.393 . S
C787 C786 1.391 . S
H788 C796 0.950 . S
H789 C801 0.950 1_455 S
H790 C798 0.950 . S
H791 C800 0.950 . S
H792 C802 0.950 . S
H793 C804 0.950 1_556 S
H794 C806 0.950 1_655 S
H795 C807 0.950 . S
C796 H788 0.950 . S
C796 C797 1.386 . S
C796 C798 1.391 . S
C797 C796 1.386 . S
C797 C801 1.393 . S
C798 H790 0.950 . S
C798 C796 1.391 . S
C798 C799 1.410 . S
C799 C798 1.410 . S
C799 C800 1.394 1_655 S
C799 C805 1.485 1_656 S
C800 H791 0.950 . S
C800 C799 1.394 1_455 S
C800 C801 1.391 1_455 S
C801 H789 0.950 1_655 S
C801 C797 1.393 . S
C801 C800 1.391 1_655 S
C802 H792 0.950 . S
C802 C803 1.386 . S
C802 C804 1.391 . S
C803 C802 1.386 . S
C803 C807 1.393 . S
C804 H793 0.950 1_554 S
C804 C802 1.391 . S
C804 C805 1.400 . S
C805 C799 1.485 1_454 S
C805 C804 1.400 . S
C805 C806 1.398 . S
C806 H794 0.950 1_455 S
C806 C805 1.398 . S
C806 C807 1.391 . S
C807 H795 0.950 . S
C807 C803 1.393 . S
C807 C806 1.391 . S
H808 C816 0.950 . S
H809 C821 0.950 . S
H810 C818 0.950 . S
H811 C820 0.950 . S
H812 C822 0.950 . S
H813 C824 0.950 . S
H814 C826 0.950 . S
H815 C827 0.950 . S
C816 H808 0.950 . S
C816 C817 1.386 . S
C816 C818 1.391 . S
C817 C816 1.386 . S
C817 C821 1.393 . S
C818 H810 0.950 . S
C818 C816 1.391 . S
C818 C819 1.400 . S
C819 C818 1.400 . S
C819 C820 1.398 . S
C819 C825 1.491 . S
C820 H811 0.950 . S
C820 C819 1.398 . S
C820 C821 1.391 . S
C821 H809 0.950 . S
C821 C817 1.393 . S
C821 C820 1.391 . S
C822 H812 0.950 . S
C822 C823 1.386 . S
C822 C824 1.391 . S
C823 C822 1.386 . S
C823 C827 1.393 . S
C824 H813 0.950 . S
C824 C822 1.391 . S
C824 C825 1.400 . S
C825 C819 1.491 . S
C825 C824 1.400 . S
C825 C826 1.398 . S
C826 H814 0.950 . S
C826 C825 1.398 . S
C826 C827 1.391 . S
C827 H815 0.950 . S
C827 C823 1.393 . S
C827 C826 1.391 . S
H828 C836 0.950 . S
H829 C841 0.950 . S
H830 C838 0.950 . S
H831 C840 0.950 . S
H832 C842 0.950 . S
H833 C844 0.950 . S
H834 C846 0.950 . S
H835 C847 0.950 . S
C836 H828 0.950 . S
C836 C837 1.386 . S
C836 C838 1.391 . S
C837 C836 1.386 . S
C837 C841 1.393 . S
C838 H830 0.950 . S
C838 C836 1.391 . S
C838 C839 1.400 . S
C839 C838 1.400 . S
C839 C840 1.398 . S
C839 C845 1.491 . S
C840 H831 0.950 . S
C840 C839 1.398 . S
C840 C841 1.391 . S
C841 H829 0.950 . S
C841 C837 1.393 . S
C841 C840 1.391 . S
C842 H832 0.950 . S
C842 C843 1.386 . S
C842 C844 1.391 . S
C843 C842 1.386 . S
C843 C847 1.393 . S
C844 H833 0.950 . S
C844 C842 1.391 . S
C844 C845 1.400 . S
C845 C839 1.491 . S
C845 C844 1.400 . S
C845 C846 1.398 . S
C846 H834 0.950 . S
C846 C845 1.398 . S
C846 C847 1.391 . S
C847 H835 0.950 . S
C847 C843 1.393 . S
C847 C846 1.391 . S
H848 C856 0.950 . S
H849 C861 0.950 . S
H850 C858 0.950 . S
H851 C860 0.950 . S
H852 C862 0.950 . S
H853 C864 0.950 . S
H854 C866 0.950 . S
H855 C867 0.950 . S
C856 H848 0.950 . S
C856 C857 1.386 . S
C856 C858 1.391 . S
C857 C856 1.386 . S
C857 C861 1.393 . S
C858 H850 0.950 . S
C858 C856 1.391 . S
C858 C859 1.400 . S
C859 C858 1.400 . S
C859 C860 1.398 . S
C859 C865 1.491 . S
C860 H851 0.950 . S
C860 C859 1.398 . S
C860 C861 1.391 . S
C861 H849 0.950 . S
C861 C857 1.393 . S
C861 C860 1.391 . S
C862 H852 0.950 . S
C862 C863 1.386 . S
C862 C864 1.391 . S
C863 C862 1.386 . S
C863 C867 1.393 . S
C864 H853 0.950 . S
C864 C862 1.391 . S
C864 C865 1.400 . S
C865 C859 1.491 . S
C865 C864 1.400 . S
C865 C866 1.398 . S
C866 H854 0.950 . S
C866 C865 1.398 . S
C866 C867 1.391 . S
C867 H855 0.950 . S
C867 C863 1.393 . S
C867 C866 1.391 . S
H868 C876 0.950 . S
H869 C881 0.950 . S
H870 C878 0.950 1_556 S
H871 C880 0.950 . S
H872 C882 0.950 . S
H873 C884 0.950 . S
H874 C886 0.950 . S
H875 C887 0.950 . S
C876 H868 0.950 . S
C876 C877 1.386 . S
C876 C878 1.391 . S
C877 C876 1.386 . S
C877 C881 1.393 . S
C878 H870 0.950 1_554 S
C878 C876 1.391 . S
C878 C879 1.400 . S
C879 C878 1.400 . S
C879 C880 1.398 . S
C879 C885 1.491 1_554 S
C880 H871 0.950 . S
C880 C879 1.398 . S
C880 C881 1.391 . S
C881 H869 0.950 . S
C881 C877 1.393 . S
C881 C880 1.391 . S
C882 H872 0.950 . S
C882 C883 1.386 . S
C882 C884 1.391 . S
C883 C882 1.386 . S
C883 C887 1.393 . S
C884 H873 0.950 . S
C884 C882 1.391 . S
C884 C885 1.400 . S
C885 C879 1.491 1_556 S
C885 C884 1.400 . S
C885 C886 1.398 . S
C886 H874 0.950 . S
C886 C885 1.398 . S
C886 C887 1.391 . S
C887 H875 0.950 . S
C887 C883 1.393 . S
C887 C886 1.391 . S
H888 C896 0.950 . S
H889 C901 0.950 . S
H890 C898 0.950 . S
H891 C900 0.950 1_565 S
H892 C902 0.950 . S
H893 C904 0.950 . S
H894 C906 0.950 . S
H895 C907 0.950 . S
C896 H888 0.950 . S
C896 C897 1.386 . S
C896 C898 1.391 . S
C897 C896 1.386 . S
C897 C901 1.393 . S
C898 H890 0.950 . S
C898 C896 1.391 . S
C898 C899 1.400 . S
C899 C898 1.400 . S
C899 C900 1.398 . S
C899 C905 1.471 1_545 S
C900 H891 0.950 1_545 S
C900 C899 1.398 . S
C900 C901 1.391 . S
C901 H889 0.950 . S
C901 C897 1.393 . S
C901 C900 1.391 . S
C902 H892 0.950 . S
C902 C903 1.386 . S
C902 C904 1.391 . S
C903 C902 1.386 . S
C903 C907 1.393 . S
C904 H893 0.950 . S
C904 C902 1.391 . S
C904 C905 1.427 . S
C905 C899 1.471 1_565 S
C905 C904 1.427 . S
C905 C906 1.393 1_565 S
C906 H894 0.950 . S
C906 C905 1.393 1_545 S
C906 C907 1.391 1_545 S
C907 H895 0.950 . S
C907 C903 1.393 . S
C907 C906 1.391 1_565 S
H908 C916 0.950 . S
H909 C921 0.950 . S
H910 C918 0.950 . S
H911 C920 0.950 . S
H912 C922 0.950 . S
H913 C924 0.950 . S
H914 C926 0.925 1_455 S
H915 C927 0.950 . S
C916 H908 0.950 . S
C916 C917 1.386 . S
C916 C918 1.391 . S
C917 C916 1.386 . S
C917 C921 1.393 . S
C918 H910 0.950 . S
C918 C916 1.391 . S
C918 C919 1.401 . S
C919 C918 1.401 . S
C919 C920 1.398 1_455 S
C919 C925 1.490 1_455 S
C920 H911 0.950 . S
C920 C919 1.398 1_655 S
C920 C921 1.391 1_655 S
C921 H909 0.950 . S
C921 C917 1.393 . S
C921 C920 1.391 1_455 S
C922 H912 0.950 . S
C922 C923 1.386 . S
C922 C924 1.391 . S
C923 C922 1.386 . S
C923 C927 1.393 . S
C924 H913 0.950 . S
C924 C922 1.391 . S
C924 C925 1.400 . S
C925 C919 1.490 1_655 S
C925 C924 1.400 . S
C925 C926 1.398 . S
C926 H914 0.925 1_655 S
C926 C925 1.398 . S
C926 C927 1.391 . S
C927 H915 0.950 . S
C927 C923 1.393 . S
C927 C926 1.391 . S
H928 C936 0.950 . S
H929 C941 0.950 . S
H930 C938 0.950 . S
H931 C940 0.950 . S
H932 C942 0.950 . S
H933 C944 0.950 . S
H934 C946 0.950 . S
H935 C947 0.950 . S
C936 H928 0.950 . S
C936 C937 1.386 . S
C936 C938 1.391 . S
C937 C936 1.386 . S
C937 C941 1.393 . S
C938 H930 0.950 . S
C938 C936 1.391 . S
C938 C939 1.400 . S
C939 C938 1.400 . S
C939 C940 1.398 . S
C939 C945 1.491 . S
C940 H931 0.950 . S
C940 C939 1.398 . S
C940 C941 1.391 . S
C941 H929 0.950 . S
C941 C937 1.393 . S
C941 C940 1.391 . S
C942 H932 0.950 . S
C942 C943 1.386 . S
C942 C944 1.391 . S
C943 C942 1.386 . S
C943 C947 1.393 . S
C944 H933 0.950 . S
C944 C942 1.391 . S
C944 C945 1.400 . S
C945 C939 1.491 . S
C945 C944 1.400 . S
C945 C946 1.398 . S
C946 H934 0.950 . S
C946 C945 1.398 . S
C946 C947 1.391 . S
C947 H935 0.950 . S
C947 C943 1.393 . S
C947 C946 1.391 . S
H948 C956 0.950 . S
H949 C961 0.950 . S
H950 C958 0.950 . S
H951 C960 0.950 . S
H952 C962 0.950 . S
H953 C964 0.950 . S
H954 C966 0.950 . S
H955 C967 0.950 . S
C956 H948 0.950 . S
C956 C957 1.386 . S
C956 C958 1.391 . S
C957 C956 1.386 . S
C957 C961 1.393 . S
C958 H950 0.950 . S
C958 C956 1.391 . S
C958 C959 1.400 . S
C959 C958 1.400 . S
C959 C960 1.398 . S
C959 C965 1.491 . S
C960 H951 0.950 . S
C960 C959 1.398 . S
C960 C961 1.391 . S
C961 H949 0.950 . S
C961 C957 1.393 . S
C961 C960 1.391 . S
C962 H952 0.950 . S
C962 C963 1.386 . S
C962 C964 1.391 . S
C963 C962 1.386 . S
C963 C967 1.393 . S
C964 H953 0.950 . S
C964 C962 1.391 . S
C964 C965 1.400 . S
C965 C959 1.491 . S
C965 C964 1.400 . S
C965 C966 1.398 . S
C966 H954 0.950 . S
C966 C965 1.398 . S
C966 C967 1.391 . S
C967 H955 0.950 . S
C967 C963 1.393 . S
C967 C966 1.391 . S
H968 C976 0.950 . S
H969 C981 0.950 1_545 S
H970 C978 0.950 . S
H971 C980 0.950 . S
H972 C982 0.950 . S
H973 C984 0.950 . S
H974 C986 0.950 1_565 S
H975 C987 0.950 . S
C976 H968 0.950 . S
C976 C977 1.386 . S
C976 C978 1.391 . S
C977 C976 1.386 . S
C977 C981 1.393 . S
C978 H970 0.950 . S
C978 C976 1.391 . S
C978 C979 1.417 . S
C979 C978 1.417 . S
C979 C980 1.391 1_565 S
C979 C985 1.482 1_565 S
C980 H971 0.950 . S
C980 C979 1.391 1_545 S
C980 C981 1.391 1_545 S
C981 H969 0.950 1_565 S
C981 C977 1.393 . S
C981 C980 1.391 1_565 S
C982 H972 0.950 . S
C982 C983 1.386 . S
C982 C984 1.391 . S
C983 C982 1.386 . S
C983 C987 1.393 . S
C984 H973 0.950 . S
C984 C982 1.391 . S
C984 C985 1.400 . S
C985 C979 1.482 1_545 S
C985 C984 1.400 . S
C985 C986 1.398 . S
C986 H974 0.950 1_545 S
C986 C985 1.398 . S
C986 C987 1.391 . S
C987 H975 0.950 . S
C987 C983 1.393 . S
C987 C986 1.391 . S
H988 C996 0.950 . S
H989 C1001 0.950 . S
H990 C998 0.950 . S
H991 C1000 0.950 . S
H992 C1002 0.950 . S
H993 C1004 0.950 . S
H994 C1006 0.967 . S
H995 C1007 0.950 . S
C996 H988 0.950 . S
C996 C997 1.386 . S
C996 C998 1.391 . S
C997 C996 1.386 . S
C997 C1001 1.393 . S
C998 H990 0.950 . S
C998 C996 1.391 . S
C998 C999 1.400 . S
C999 C998 1.400 . S
C999 C1000 1.398 . S
C999 C1005 1.468 1_654 S
C1000 H991 0.950 . S
C1000 C999 1.398 . S
C1000 C1001 1.391 . S
C1001 H989 0.950 . S
C1001 C997 1.393 . S
C1001 C1000 1.391 . S
C1002 H992 0.950 . S
C1002 C1003 1.386 . S
C1002 C1004 1.391 . S
C1003 C1002 1.386 . S
C1003 C1007 1.393 . S
C1004 H993 0.950 . S
C1004 C1002 1.391 . S
C1004 C1005 1.416 . S
C1005 C999 1.468 1_456 S
C1005 C1004 1.416 . S
C1005 C1006 1.408 . S
C1006 H994 0.967 . S
C1006 C1005 1.408 . S
C1006 C1007 1.391 . S
C1007 H995 0.950 . S
C1007 C1003 1.393 . S
C1007 C1006 1.391 . S
H1008 C1016 0.950 . S
H1009 C1021 0.950 . S
H1010 C1018 0.950 . S
H1011 C1020 0.950 . S
H1012 C1022 0.950 . S
H1013 C1024 0.950 . S
H1014 C1026 0.950 . S
H1015 C1027 0.950 . S
C1016 H1008 0.950 . S
C1016 C1017 1.386 . S
C1016 C1018 1.391 . S
C1017 C1016 1.386 . S
C1017 C1021 1.393 . S
C1018 H1010 0.950 . S
C1018 C1016 1.391 . S
C1018 C1019 1.400 . S
C1019 C1018 1.400 . S
C1019 C1020 1.398 . S
C1019 C1025 1.491 . S
C1020 H1011 0.950 . S
C1020 C1019 1.398 . S
C1020 C1021 1.391 . S
C1021 H1009 0.950 . S
C1021 C1017 1.393 . S
C1021 C1020 1.391 . S
C1022 H1012 0.950 . S
C1022 C1023 1.386 . S
C1022 C1024 1.391 . S
C1023 C1022 1.386 . S
C1023 C1027 1.393 . S
C1024 H1013 0.950 . S
C1024 C1022 1.391 . S
C1024 C1025 1.400 . S
C1025 C1019 1.491 . S
C1025 C1024 1.400 . S
C1025 C1026 1.398 . S
C1026 H1014 0.950 . S
C1026 C1025 1.398 . S
C1026 C1027 1.391 . S
C1027 H1015 0.950 . S
C1027 C1023 1.393 . S
C1027 C1026 1.391 . S
H1028 C1036 0.950 . S
H1029 C1041 0.950 . S
H1030 C1038 0.950 . S
H1031 C1040 0.950 . S
H1032 C1042 0.950 . S
H1033 C1044 0.950 . S
H1034 C1046 0.950 . S
H1035 C1047 0.950 . S
C1036 H1028 0.950 . S
C1036 C1037 1.386 . S
C1036 C1038 1.391 . S
C1037 C1036 1.386 . S
C1037 C1041 1.393 . S
C1038 H1030 0.950 . S
C1038 C1036 1.391 . S
C1038 C1039 1.400 . S
C1039 C1038 1.400 . S
C1039 C1040 1.398 . S
C1039 C1045 1.491 . S
C1040 H1031 0.950 . S
C1040 C1039 1.398 . S
C1040 C1041 1.391 . S
C1041 H1029 0.950 . S
C1041 C1037 1.393 . S
C1041 C1040 1.391 . S
C1042 H1032 0.950 . S
C1042 C1043 1.386 . S
C1042 C1044 1.391 . S
C1043 C1042 1.386 . S
C1043 C1047 1.393 . S
C1044 H1033 0.950 . S
C1044 C1042 1.391 . S
C1044 C1045 1.400 . S
C1045 C1039 1.491 . S
C1045 C1044 1.400 . S
C1045 C1046 1.398 . S
C1046 H1034 0.950 . S
C1046 C1045 1.398 . S
C1046 C1047 1.391 . S
C1047 H1035 0.950 . S
C1047 C1043 1.393 . S
C1047 C1046 1.391 . S
H1048 C1056 0.950 . S
H1049 C1061 0.950 . S
H1050 C1058 0.950 . S
H1051 C1060 0.950 . S
H1052 C1062 0.950 . S
H1053 C1064 0.950 . S
H1054 C1066 0.950 . S
H1055 C1067 0.950 . S
C1056 H1048 0.950 . S
C1056 C1057 1.386 . S
C1056 C1058 1.391 . S
C1057 C1056 1.386 . S
C1057 C1061 1.393 . S
C1058 H1050 0.950 . S
C1058 C1056 1.391 . S
C1058 C1059 1.400 . S
C1059 C1058 1.400 . S
C1059 C1060 1.398 . S
C1059 C1065 1.491 . S
C1060 H1051 0.950 . S
C1060 C1059 1.398 . S
C1060 C1061 1.391 . S
C1061 H1049 0.950 . S
C1061 C1057 1.393 . S
C1061 C1060 1.391 . S
C1062 H1052 0.950 . S
C1062 C1063 1.386 . S
C1062 C1064 1.391 . S
C1063 C1062 1.386 . S
C1063 C1067 1.393 . S
C1064 H1053 0.950 . S
C1064 C1062 1.391 . S
C1064 C1065 1.400 . S
C1065 C1059 1.491 . S
C1065 C1064 1.400 . S
C1065 C1066 1.398 . S
C1066 H1054 0.950 . S
C1066 C1065 1.398 . S
C1066 C1067 1.391 . S
C1067 H1055 0.950 . S
C1067 C1063 1.393 . S
C1067 C1066 1.391 . S
H1068 C1076 0.950 . S
H1069 C1081 0.950 . S
H1070 C1078 0.950 . S
H1071 C1080 0.950 . S
H1072 C1082 0.950 . S
H1073 C1084 0.950 . S
H1074 C1086 0.950 . S
H1075 C1087 0.950 . S
C1076 H1068 0.950 . S
C1076 C1077 1.386 . S
C1076 C1078 1.391 . S
C1077 C1076 1.386 . S
C1077 C1081 1.393 . S
C1078 H1070 0.950 . S
C1078 C1076 1.391 . S
C1078 C1079 1.400 . S
C1079 C1078 1.400 . S
C1079 C1080 1.398 . S
C1079 C1085 1.491 . S
C1080 H1071 0.950 . S
C1080 C1079 1.398 . S
C1080 C1081 1.391 . S
C1081 H1069 0.950 . S
C1081 C1077 1.393 . S
C1081 C1080 1.391 . S
C1082 H1072 0.950 . S
C1082 C1083 1.386 . S
C1082 C1084 1.391 . S
C1083 C1082 1.386 . S
C1083 C1087 1.393 . S
C1084 H1073 0.950 . S
C1084 C1082 1.391 . S
C1084 C1085 1.400 . S
C1085 C1079 1.491 . S
C1085 C1084 1.400 . S
C1085 C1086 1.398 . S
C1086 H1074 0.950 . S
C1086 C1085 1.398 . S
C1086 C1087 1.391 . S
C1087 H1075 0.950 . S
C1087 C1083 1.393 . S
C1087 C1086 1.391 . S
H1088 C1096 0.950 . S
H1089 C1101 0.950 . S
H1090 C1098 0.950 . S
H1091 C1100 0.950 . S
H1092 C1102 0.950 . S
H1093 C1104 0.950 . S
H1094 C1106 0.950 . S
H1095 C1107 0.950 . S
C1096 H1088 0.950 . S
C1096 C1097 1.386 . S
C1096 C1098 1.391 . S
C1097 C1096 1.386 . S
C1097 C1101 1.393 . S
C1098 H1090 0.950 . S
C1098 C1096 1.391 . S
C1098 C1099 1.400 . S
C1099 C1098 1.400 . S
C1099 C1100 1.398 . S
C1099 C1105 1.491 . S
C1100 H1091 0.950 . S
C1100 C1099 1.398 . S
C1100 C1101 1.391 . S
C1101 H1089 0.950 . S
C1101 C1097 1.393 . S
C1101 C1100 1.391 . S
C1102 H1092 0.950 . S
C1102 C1103 1.386 . S
C1102 C1104 1.391 . S
C1103 C1102 1.386 . S
C1103 C1107 1.393 . S
C1104 H1093 0.950 . S
C1104 C1102 1.391 . S
C1104 C1105 1.400 . S
C1105 C1099 1.491 . S
C1105 C1104 1.400 . S
C1105 C1106 1.398 . S
C1106 H1094 0.950 . S
C1106 C1105 1.398 . S
C1106 C1107 1.391 . S
C1107 H1095 0.950 . S
C1107 C1103 1.393 . S
C1107 C1106 1.391 . S
H1108 C1116 0.950 . S
H1109 C1121 0.950 . S
H1110 C1118 0.950 . S
H1111 C1120 0.950 . S
H1112 C1122 0.950 . S
H1113 C1124 0.950 . S
H1114 C1126 0.950 . S
H1115 C1127 0.950 . S
C1116 H1108 0.950 . S
C1116 C1117 1.386 . S
C1116 C1118 1.391 . S
C1117 C1116 1.386 . S
C1117 C1121 1.393 . S
C1118 H1110 0.950 . S
C1118 C1116 1.391 . S
C1118 C1119 1.400 . S
C1119 C1118 1.400 . S
C1119 C1120 1.398 . S
C1119 C1125 1.491 . S
C1120 H1111 0.950 . S
C1120 C1119 1.398 . S
C1120 C1121 1.391 . S
C1121 H1109 0.950 . S
C1121 C1117 1.393 . S
C1121 C1120 1.391 . S
C1122 H1112 0.950 . S
C1122 C1123 1.386 . S
C1122 C1124 1.391 . S
C1123 C1122 1.386 . S
C1123 C1127 1.393 . S
C1124 H1113 0.950 . S
C1124 C1122 1.391 . S
C1124 C1125 1.400 . S
C1125 C1119 1.491 . S
C1125 C1124 1.400 . S
C1125 C1126 1.398 . S
C1126 H1114 0.950 . S
C1126 C1125 1.398 . S
C1126 C1127 1.391 . S
C1127 H1115 0.950 . S
C1127 C1123 1.393 . S
C1127 C1126 1.391 . S
H1128 C1136 0.950 . S
H1129 C1141 0.950 . S
H1130 C1138 0.950 . S
H1131 C1140 0.950 . S
H1132 C1142 0.950 . S
H1133 C1144 0.950 . S
H1134 C1146 0.950 . S
H1135 C1147 0.950 . S
C1136 H1128 0.950 . S
C1136 C1137 1.386 . S
C1136 C1138 1.391 . S
C1137 C1136 1.386 . S
C1137 C1141 1.393 . S
C1138 H1130 0.950 . S
C1138 C1136 1.391 . S
C1138 C1139 1.400 . S
C1139 C1138 1.400 . S
C1139 C1140 1.398 . S
C1139 C1145 1.491 . S
C1140 H1131 0.950 . S
C1140 C1139 1.398 . S
C1140 C1141 1.391 . S
C1141 H1129 0.950 . S
C1141 C1137 1.393 . S
C1141 C1140 1.391 . S
C1142 H1132 0.950 . S
C1142 C1143 1.386 . S
C1142 C1144 1.391 . S
C1143 C1142 1.386 . S
C1143 C1147 1.393 . S
C1144 H1133 0.950 . S
C1144 C1142 1.391 . S
C1144 C1145 1.400 . S
C1145 C1139 1.491 . S
C1145 C1144 1.400 . S
C1145 C1146 1.398 . S
C1146 H1134 0.950 . S
C1146 C1145 1.398 . S
C1146 C1147 1.391 . S
C1147 H1135 0.950 . S
C1147 C1143 1.393 . S
C1147 C1146 1.391 . S
H1148 C1156 0.950 . S
H1149 C1161 0.950 . S
H1150 C1158 0.950 . S
H1151 C1160 0.950 . S
H1152 C1162 0.950 . S
H1153 C1164 0.950 . S
H1154 C1166 0.950 . S
H1155 C1167 0.950 . S
C1156 H1148 0.950 . S
C1156 C1157 1.386 . S
C1156 C1158 1.391 . S
C1157 C1156 1.386 . S
C1157 C1161 1.393 . S
C1158 H1150 0.950 . S
C1158 C1156 1.391 . S
C1158 C1159 1.400 . S
C1159 C1158 1.400 . S
C1159 C1160 1.398 . S
C1159 C1165 1.491 . S
C1160 H1151 0.950 . S
C1160 C1159 1.398 . S
C1160 C1161 1.391 . S
C1161 H1149 0.950 . S
C1161 C1157 1.393 . S
C1161 C1160 1.391 . S
C1162 H1152 0.950 . S
C1162 C1163 1.386 . S
C1162 C1164 1.391 . S
C1163 C1162 1.386 . S
C1163 C1167 1.393 . S
C1164 H1153 0.950 . S
C1164 C1162 1.391 . S
C1164 C1165 1.400 . S
C1165 C1159 1.491 . S
C1165 C1164 1.400 . S
C1165 C1166 1.398 . S
C1166 H1154 0.950 . S
C1166 C1165 1.398 . S
C1166 C1167 1.391 . S
C1167 H1155 0.950 . S
C1167 C1163 1.393 . S
C1167 C1166 1.391 . S
H1168 C1176 0.950 . S
H1169 C1181 0.950 . S
H1170 C1178 0.950 . S
H1171 C1180 0.950 . S
H1172 C1182 0.950 . S
H1173 C1184 0.950 . S
H1174 C1186 0.950 . S
H1175 C1187 0.950 . S
C1176 H1168 0.950 . S
C1176 C1177 1.386 . S
C1176 C1178 1.391 . S
C1177 C1176 1.386 . S
C1177 C1181 1.393 . S
C1178 H1170 0.950 . S
C1178 C1176 1.391 . S
C1178 C1179 1.400 . S
C1179 C1178 1.400 . S
C1179 C1180 1.398 . S
C1179 C1185 1.491 . S
C1180 H1171 0.950 . S
C1180 C1179 1.398 . S
C1180 C1181 1.391 . S
C1181 H1169 0.950 . S
C1181 C1177 1.393 . S
C1181 C1180 1.391 . S
C1182 H1172 0.950 . S
C1182 C1183 1.386 . S
C1182 C1184 1.391 . S
C1183 C1182 1.386 . S
C1183 C1187 1.393 . S
C1184 H1173 0.950 . S
C1184 C1182 1.391 . S
C1184 C1185 1.400 . S
C1185 C1179 1.491 . S
C1185 C1184 1.400 . S
C1185 C1186 1.398 . S
C1186 H1174 0.950 . S
C1186 C1185 1.398 . S
C1186 C1187 1.391 . S
C1187 H1175 0.950 . S
C1187 C1183 1.393 . S
C1187 C1186 1.391 . S
H1188 C1196 0.950 . S
H1189 C1201 0.950 . S
H1190 C1198 0.950 . S
H1191 C1200 0.950 . S
H1192 C1202 0.950 . S
H1193 C1204 0.950 . S
H1194 C1206 0.950 . S
H1195 C1207 0.950 . S
C1196 H1188 0.950 . S
C1196 C1197 1.386 . S
C1196 C1198 1.391 . S
C1197 C1196 1.386 . S
C1197 C1201 1.393 . S
C1198 H1190 0.950 . S
C1198 C1196 1.391 . S
C1198 C1199 1.400 . S
C1199 C1198 1.400 . S
C1199 C1200 1.398 . S
C1199 C1205 1.491 . S
C1200 H1191 0.950 . S
C1200 C1199 1.398 . S
C1200 C1201 1.391 . S
C1201 H1189 0.950 . S
C1201 C1197 1.393 . S
C1201 C1200 1.391 . S
C1202 H1192 0.950 . S
C1202 C1203 1.386 . S
C1202 C1204 1.391 . S
C1203 C1202 1.386 . S
C1203 C1207 1.393 . S
C1204 H1193 0.950 . S
C1204 C1202 1.391 . S
C1204 C1205 1.400 . S
C1205 C1199 1.491 . S
C1205 C1204 1.400 . S
C1205 C1206 1.398 . S
C1206 H1194 0.950 . S
C1206 C1205 1.398 . S
C1206 C1207 1.391 . S
C1207 H1195 0.950 . S
C1207 C1203 1.393 . S
C1207 C1206 1.391 . S
H1208 C1216 0.950 . S
H1209 C1221 0.950 1_556 S
H1210 C1218 0.950 . S
H1211 C1220 0.950 . S
H1212 C1222 0.950 . S
H1213 C1224 0.950 . S
H1214 C1226 0.950 . S
H1215 C1227 0.950 . S
C1216 H1208 0.950 . S
C1216 C1217 1.386 . S
C1216 C1218 1.391 . S
C1217 C1216 1.386 . S
C1217 C1221 1.393 . S
C1218 H1210 0.950 . S
C1218 C1216 1.391 . S
C1218 C1219 1.400 . S
C1219 C1218 1.400 . S
C1219 C1220 1.398 . S
C1219 C1225 1.491 . S
C1220 H1211 0.950 . S
C1220 C1219 1.398 . S
C1220 C1221 1.391 . S
C1221 H1209 0.950 1_554 S
C1221 C1217 1.393 . S
C1221 C1220 1.391 . S
C1222 H1212 0.950 . S
C1222 C1223 1.386 . S
C1222 C1224 1.391 . S
C1223 C1222 1.386 . S
C1223 C1227 1.393 . S
C1224 H1213 0.950 . S
C1224 C1222 1.391 . S
C1224 C1225 1.400 . S
C1225 C1219 1.491 . S
C1225 C1224 1.400 . S
C1225 C1226 1.398 . S
C1226 H1214 0.950 . S
C1226 C1225 1.398 . S
C1226 C1227 1.391 . S
C1227 H1215 0.950 . S
C1227 C1223 1.393 . S
C1227 C1226 1.391 . S
H1228 C1236 0.950 . S
H1229 C1241 0.950 . S
H1230 C1238 0.950 . S
H1231 C1240 0.950 . S
H1232 C1242 0.950 . S
H1233 C1244 0.950 . S
H1234 C1246 0.950 . S
H1235 C1247 0.950 . S
C1236 H1228 0.950 . S
C1236 C1237 1.386 . S
C1236 C1238 1.391 . S
C1237 C1236 1.386 . S
C1237 C1241 1.393 . S
C1238 H1230 0.950 . S
C1238 C1236 1.391 . S
C1238 C1239 1.400 . S
C1239 C1238 1.400 . S
C1239 C1240 1.398 . S
C1239 C1245 1.491 . S
C1240 H1231 0.950 . S
C1240 C1239 1.398 . S
C1240 C1241 1.391 . S
C1241 H1229 0.950 . S
C1241 C1237 1.393 . S
C1241 C1240 1.391 . S
C1242 H1232 0.950 . S
C1242 C1243 1.386 . S
C1242 C1244 1.391 . S
C1243 C1242 1.386 . S
C1243 C1247 1.393 . S
C1244 H1233 0.950 . S
C1244 C1242 1.391 . S
C1244 C1245 1.400 . S
C1245 C1239 1.491 . S
C1245 C1244 1.400 . S
C1245 C1246 1.398 . S
C1246 H1234 0.950 . S
C1246 C1245 1.398 . S
C1246 C1247 1.391 . S
C1247 H1235 0.950 . S
C1247 C1243 1.393 . S
C1247 C1246 1.391 . S
H1248 C1256 0.950 . S
H1249 C1261 0.950 . S
H1250 C1258 0.950 . S
H1251 C1260 0.950 . S
H1252 C1262 0.950 . S
H1253 C1264 0.950 . S
H1254 C1266 0.950 . S
H1255 C1267 0.950 . S
C1256 H1248 0.950 . S
C1256 C1257 1.386 . S
C1256 C1258 1.391 . S
C1257 C1256 1.386 . S
C1257 C1261 1.393 . S
C1258 H1250 0.950 . S
C1258 C1256 1.391 . S
C1258 C1259 1.400 . S
C1259 C1258 1.400 . S
C1259 C1260 1.398 . S
C1259 C1265 1.491 . S
C1260 H1251 0.950 . S
C1260 C1259 1.398 . S
C1260 C1261 1.391 . S
C1261 H1249 0.950 . S
C1261 C1257 1.393 . S
C1261 C1260 1.391 . S
C1262 H1252 0.950 . S
C1262 C1263 1.386 . S
C1262 C1264 1.391 . S
C1263 C1262 1.386 . S
C1263 C1267 1.393 . S
C1264 H1253 0.950 . S
C1264 C1262 1.391 . S
C1264 C1265 1.400 . S
C1265 C1259 1.491 . S
C1265 C1264 1.400 . S
C1265 C1266 1.398 . S
C1266 H1254 0.950 . S
C1266 C1265 1.398 . S
C1266 C1267 1.391 . S
C1267 H1255 0.950 . S
C1267 C1263 1.393 . S
C1267 C1266 1.391 . S
H1268 C1276 0.950 . S
H1269 C1281 0.950 . S
H1270 C1278 0.950 . S
H1271 C1280 0.950 . S
H1272 C1282 0.950 . S
H1273 C1284 0.950 . S
H1274 C1286 0.950 . S
H1275 C1287 0.950 . S
C1276 H1268 0.950 . S
C1276 C1277 1.386 . S
C1276 C1278 1.391 . S
C1277 C1276 1.386 . S
C1277 C1281 1.393 . S
C1278 H1270 0.950 . S
C1278 C1276 1.391 . S
C1278 C1279 1.400 . S
C1279 C1278 1.400 . S
C1279 C1280 1.398 . S
C1279 C1285 1.491 . S
C1280 H1271 0.950 . S
C1280 C1279 1.398 . S
C1280 C1281 1.391 . S
C1281 H1269 0.950 . S
C1281 C1277 1.393 . S
C1281 C1280 1.391 . S
C1282 H1272 0.950 . S
C1282 C1283 1.386 . S
C1282 C1284 1.391 . S
C1283 C1282 1.386 . S
C1283 C1287 1.393 . S
C1284 H1273 0.950 . S
C1284 C1282 1.391 . S
C1284 C1285 1.400 . S
C1285 C1279 1.491 . S
C1285 C1284 1.400 . S
C1285 C1286 1.398 . S
C1286 H1274 0.950 . S
C1286 C1285 1.398 . S
C1286 C1287 1.391 . S
C1287 H1275 0.950 . S
C1287 C1283 1.393 . S
C1287 C1286 1.391 . S
H1288 C1296 0.950 . S
H1289 C1301 0.950 . S
H1290 C1298 0.950 . S
H1291 C1300 0.950 . S
H1292 C1302 0.950 . S
H1293 C1304 0.950 . S
H1294 C1306 0.950 . S
H1295 C1307 0.950 . S
C1296 H1288 0.950 . S
C1296 C1297 1.386 . S
C1296 C1298 1.391 . S
C1297 C1296 1.386 . S
C1297 C1301 1.393 . S
C1298 H1290 0.950 . S
C1298 C1296 1.391 . S
C1298 C1299 1.400 . S
C1299 C1298 1.400 . S
C1299 C1300 1.398 . S
C1299 C1305 1.491 . S
C1300 H1291 0.950 . S
C1300 C1299 1.398 . S
C1300 C1301 1.391 . S
C1301 H1289 0.950 . S
C1301 C1297 1.393 . S
C1301 C1300 1.391 . S
C1302 H1292 0.950 . S
C1302 C1303 1.386 . S
C1302 C1304 1.391 . S
C1303 C1302 1.386 . S
C1303 C1307 1.393 . S
C1304 H1293 0.950 . S
C1304 C1302 1.391 . S
C1304 C1305 1.400 . S
C1305 C1299 1.491 . S
C1305 C1304 1.400 . S
C1305 C1306 1.398 . S
C1306 H1294 0.950 . S
C1306 C1305 1.398 . S
C1306 C1307 1.391 . S
C1307 H1295 0.950 . S
C1307 C1303 1.393 . S
C1307 C1306 1.391 . S
H1308 C1316 0.950 1_554 S
H1309 C1321 0.950 . S
H1310 C1318 0.950 . S
H1311 C1320 0.950 . S
H1312 C1322 0.950 . S
H1313 C1324 0.950 . S
H1314 C1326 0.950 . S
H1315 C1327 0.950 . S
C1316 H1308 0.950 1_556 S
C1316 C1317 1.386 . S
C1316 C1318 1.391 . S
C1317 C1316 1.386 . S
C1317 C1321 1.393 . S
C1318 H1310 0.950 . S
C1318 C1316 1.391 . S
C1318 C1319 1.400 . S
C1319 C1318 1.400 . S
C1319 C1320 1.398 . S
C1319 C1325 1.491 . S
C1320 H1311 0.950 . S
C1320 C1319 1.398 . S
C1320 C1321 1.391 . S
C1321 H1309 0.950 . S
C1321 C1317 1.393 . S
C1321 C1320 1.391 . S
C1322 H1312 0.950 . S
C1322 C1323 1.386 . S
C1322 C1324 1.391 . S
C1323 C1322 1.386 . S
C1323 C1327 1.393 . S
C1324 H1313 0.950 . S
C1324 C1322 1.391 . S
C1324 C1325 1.400 . S
C1325 C1319 1.491 . S
C1325 C1324 1.400 . S
C1325 C1326 1.398 . S
C1326 H1314 0.950 . S
C1326 C1325 1.398 . S
C1326 C1327 1.391 . S
C1327 H1315 0.950 . S
C1327 C1323 1.393 . S
C1327 C1326 1.391 . S
C537 N332 1.419 . S
C543 N2 1.422 . S
C557 N35 1.406 . S
C563 N365 1.425 . S
C577 N266 1.432 . S
C583 N68 1.403 . S
C597 N101 1.424 . S
C603 N299 1.406 . S
C617 N464 1.416 . S
C623 N134 1.425 . S
C637 N167 1.427 . S
C643 N497 1.404 . S
C657 N200 1.412 . S
C663 N398 1.428 . S
C677 N431 1.406 . S
C683 N233 1.432 . S
C697 C480 0.948 . S
C703 C7 0.926 . S
C717 C513 0.955 . S
C723 C40 0.934 . S
C737 C73 0.954 . S
C743 C414 0.949 . S
C757 C447 0.947 . S
C763 C106 0.929 . S
C777 C139 0.951 . S
C783 C348 0.945 . S
C797 C172 0.954 . S
C803 C381 0.944 . S
C817 C282 0.946 . S
C823 C205 0.952 . S
C837 C238 0.947 . S
C843 C315 0.952 . S
C857 C216 0.943 . S
C863 C271 0.954 . S
C877 C249 0.946 . S
C883 C304 0.954 . S
C897 C150 0.952 . S
C903 C337 0.945 . S
C917 C370 0.938 . S
C923 C183 0.943 . S
C937 C403 0.932 . S
C943 C84 0.943 . S
C957 C436 0.926 . S
C963 C117 0.953 . S
C977 C469 0.954 . S
C983 C18 0.948 . S
C997 C51 0.955 . S
C1003 C502 0.932 . S
C1017 N376 1.743 . S
C1023 C21 1.707 . S
C1037 C54 1.708 . S
C1043 N277 1.742 . S
C1057 C87 1.723 . S
C1063 N310 1.740 . S
C1077 C120 1.721 . S
C1083 N343 1.741 . S
C1097 N178 1.742 . S
C1103 C153 1.720 . S
C1117 C186 1.723 . S
C1123 N211 1.743 . S
C1137 N244 1.743 . S
C1143 C219 1.708 . S
C1157 C252 1.712 . S
C1163 N145 1.744 . S
C1177 N112 1.744 . S
C1183 C285 1.715 . S
C1197 C318 1.723 . S
C1203 N13 1.741 . S
C1217 C351 1.718 . S
C1223 N46 1.742 . S
C1237 N79 1.741 . S
C1243 C384 1.711 . S
C1257 N442 1.744 . S
C1263 C417 1.710 . S
C1277 N475 1.741 . S
C1283 C450 1.711 . S
C1297 C483 1.717 . S
C1303 N508 1.740 . S
C1317 N409 1.740 . S
C1323 C516 1.714 . S
