# Generated by pormake.
# Topology noz, (5)-cn, num edge types: 1
# Building blocks:
#     Node 0, Type 0, BuildingBlock: BEQFEK_clean_sbu_0, # of connection points: 5
#     Node 1, Type 0, BuildingBlock: BEQFEK_clean_sbu_0, # of connection points: 5
#     Node 2, Type 0, BuildingBlock: BEQFEK_clean_sbu_0, # of connection points: 5
#     Node 3, Type 0, BuildingBlock: BEQFEK_clean_sbu_0, # of connection points: 5
#     Node 4, Type 0, BuildingBlock: BEQFEK_clean_sbu_0, # of connection points: 5
#     Node 5, Type 0, BuildingBlock: BEQFEK_clean_sbu_0, # of connection points: 5
#     Node 6, Type 0, BuildingBlock: BEQFEK_clean_sbu_0, # of connection points: 5
#     Node 7, Type 0, BuildingBlock: BEQFEK_clean_sbu_0, # of connection points: 5
#     Edge 8, Type (0, 0), BuildingBlock: OJICUG_clean_linker_0, # of connection points: 2
#     Edge 9, Type (0, 0), BuildingBlock: OJICUG_clean_linker_0, # of connection points: 2
#     Edge 10, Type (0, 0), BuildingBlock: OJICUG_clean_linker_0, # of connection points: 2
#     Edge 11, Type (0, 0), BuildingBlock: OJICUG_clean_linker_0, # of connection points: 2
#     Edge 12, Type (0, 0), BuildingBlock: OJICUG_clean_linker_0, # of connection points: 2
#     Edge 13, Type (0, 0), BuildingBlock: OJICUG_clean_linker_0, # of connection points: 2
#     Edge 14, Type (0, 0), BuildingBlock: OJICUG_clean_linker_0, # of connection points: 2
#     Edge 15, Type (0, 0), BuildingBlock: OJICUG_clean_linker_0, # of connection points: 2
#     Edge 16, Type (0, 0), BuildingBlock: OJICUG_clean_linker_0, # of connection points: 2
#     Edge 17, Type (0, 0), BuildingBlock: OJICUG_clean_linker_0, # of connection points: 2
#     Edge 18, Type (0, 0), BuildingBlock: OJICUG_clean_linker_0, # of connection points: 2
#     Edge 19, Type (0, 0), BuildingBlock: OJICUG_clean_linker_0, # of connection points: 2
#     Edge 20, Type (0, 0), BuildingBlock: OJICUG_clean_linker_0, # of connection points: 2
#     Edge 21, Type (0, 0), BuildingBlock: OJICUG_clean_linker_0, # of connection points: 2
#     Edge 22, Type (0, 0), BuildingBlock: OJICUG_clean_linker_0, # of connection points: 2
#     Edge 23, Type (0, 0), BuildingBlock: OJICUG_clean_linker_0, # of connection points: 2
#     Edge 24, Type (0, 0), BuildingBlock: OJICUG_clean_linker_0, # of connection points: 2
#     Edge 25, Type (0, 0), BuildingBlock: OJICUG_clean_linker_0, # of connection points: 2
#     Edge 26, Type (0, 0), BuildingBlock: OJICUG_clean_linker_0, # of connection points: 2
#     Edge 27, Type (0, 0), BuildingBlock: OJICUG_clean_linker_0, # of connection points: 2
# Relax obj value: 0.099
# Max RMSD: 0.182
# Mean RMSD: 0.119
data_MOF--net-noz--node1-BEQFEK_clean_sbu_0--edge1-OJICUG_clean_linker_0
_symmetry_space_group_name_H-M    P1
_symmetry_Int_Tables_number       1
_symmetry_cell_setting            triclinic
loop_
_symmetry_equiv_pos_as_xyz
'x, y, z'
_cell_length_a     18.723865
_cell_length_b     33.021226
_cell_length_c     32.489308
_cell_angle_alpha  88.987742
_cell_angle_beta   97.766387
_cell_angle_gamma 82.20268
loop_
_atom_site_label
_atom_site_type_symbol
_atom_site_fract_x
_atom_site_fract_y
_atom_site_fract_z
_atom_type_partial_charge
Co0 Co 0.15369 0.35331 0.38829 0.0
Co1 Co 0.04263 0.32434 0.44299 0.0
C2 C 0.19236 0.28352 0.45537 0.0
O3 O 0.20754 0.30806 0.42798 0.0
O4 O 0.1279 0.28487 0.4641 0.0
C5 C 0.24952 0.32948 0.3306 0.0
O6 O 0.23623 0.2938 0.34389 0.0
C7 C 0.93599 0.2844 0.4831 0.0
C8 C 0.85492 0.33856 0.48918 0.0
C9 C 0.86873 0.29659 0.49591 0.0
N10 N 0.9597 0.31775 0.46854 0.0
N11 N 0.91146 0.34999 0.4728 0.0
C12 C 0.97829 0.24234 0.4858 0.0
H13 H 0.03745 0.24404 0.49104 0.0
H14 H 0.96594 0.22705 0.45607 0.0
H15 H 0.96391 0.22368 0.5114 0.0
C16 C 0.03186 0.34085 0.32156 0.0
N17 N 0.06384 0.33836 0.36153 0.0
N18 N 0.01998 0.32384 0.38472 0.0
C19 C 0.95996 0.31568 0.36031 0.0
C20 C 0.96535 0.32617 0.31956 0.0
C21 C 0.06349 0.358 0.2863 0.0
H22 H 0.08901 0.3853 0.29628 0.0
H23 H 0.10651 0.3347 0.27727 0.0
H24 H 0.02147 0.3662 0.25885 0.0
O25 O 0.13463 0.40399 0.4206 0.0
O26 O 0.062 0.3785 0.45955 0.0
H27 H 0.86876 0.32626 0.39367 0.0
H28 H 0.85503 0.29363 0.35046 0.0
C29 C 0.89561 0.30157 0.37605 0.0
H30 H 0.91405 0.2744 0.39717 0.0
H31 H 0.91637 0.3798 0.46358 0.0
O32 O 0.21866 0.36169 0.34536 0.0
C33 C 0.09551 0.40739 0.44995 0.0
Co34 Co 0.49477 0.60384 0.88864 0.0
Co35 Co 0.62806 0.62458 0.95154 0.0
C36 C 0.48608 0.67848 0.94048 0.0
O37 O 0.45969 0.65425 0.91465 0.0
O38 O 0.55246 0.67193 0.95681 0.0
C39 C 0.38465 0.62919 0.82271 0.0
O40 O 0.40787 0.6641 0.83224 0.0
C41 C 0.73925 0.67298 0.98898 0.0
C42 C 0.82421 0.62588 0.02128 0.0
C43 C 0.80692 0.6677 1.0134 0.0
N44 N 0.71733 0.6361 0.98294 0.0
N45 N 0.76832 0.60808 1.00253 0.0
C46 C 0.69813 0.71208 0.96928 0.0
H47 H 0.66635 0.70608 0.93917 0.0
H48 H 0.73566 0.73441 0.96423 0.0
H49 H 0.65964 0.72552 0.99012 0.0
C50 C 0.60506 0.5993 0.8312 0.0
N51 N 0.58445 0.6068 0.86879 0.0
N52 N 0.6406 0.61507 0.89465 0.0
C53 C 0.69911 0.61289 0.87416 0.0
C54 C 0.6786 0.60272 0.83321 0.0
C55 C 0.55402 0.59034 0.79392 0.0
H56 H 0.52756 0.56346 0.8011 0.0
H57 H 0.51088 0.6169 0.7866 0.0
H58 H 0.58155 0.58477 0.76605 0.0
O59 O 0.50515 0.55971 0.93161 0.0
O60 O 0.59541 0.57589 0.97769 0.0
H61 H 0.78873 0.59599 0.9221 0.0
H62 H 0.81547 0.61006 0.87322 0.0
C63 C 0.77423 0.61714 0.89447 0.0
H64 H 0.77526 0.64881 0.90514 0.0
H65 H 0.76524 0.57676 1.00282 0.0
O66 O 0.4163 0.59668 0.84258 0.0
C67 C 0.54618 0.55345 0.96644 0.0
Co68 Co 0.08466 0.63787 0.55995 0.0
Co69 Co 0.97591 0.59981 0.6094 0.0
C70 C 0.92623 0.67044 0.54786 0.0
O71 O 0.99075 0.6711 0.54021 0.0
O72 O 0.91237 0.64457 0.57416 0.0
C73 C 0.15592 0.70346 0.54619 0.0
O74 O 0.10678 0.72045 0.56825 0.0
C75 C 0.8757 0.60014 0.67242 0.0
C76 C 0.88431 0.5344 0.68908 0.0
C77 C 0.85335 0.57277 0.69952 0.0
N78 N 0.91936 0.57892 0.64814 0.0
N79 N 0.92346 0.5396 0.65799 0.0
C80 C 0.85527 0.64567 0.66909 0.0
H81 H 0.85667 0.65745 0.63723 0.0
H82 H 0.89477 0.66022 0.69047 0.0
H83 H 0.79991 0.65461 0.67745 0.0
C84 C 0.16558 0.63891 0.6445 0.0
N85 N 0.10566 0.63307 0.61854 0.0
N86 N 0.06006 0.61765 0.63986 0.0
C87 C 0.08986 0.61335 0.68029 0.0
C88 C 0.15722 0.62708 0.68441 0.0
C89 C 0.23374 0.65038 0.6309 0.0
H90 H 0.24261 0.63656 0.60086 0.0
H91 H 0.22858 0.68414 0.62717 0.0
H92 H 0.28204 0.63991 0.6542 0.0
O93 O 0.08612 0.58355 0.53682 0.0
O94 O 1.00925 0.55563 0.57162 0.0
H95 H 0.04418 0.56403 0.70555 0.0
H96 H 0.0919 0.59293 0.74436 0.0
C97 C 0.0561 0.59501 0.71408 0.0
H98 H 1.00436 0.61427 0.71771 0.0
H99 H 0.95462 0.51637 0.64426 0.0
O100 O 0.15732 0.66602 0.53779 0.0
C101 C 0.05299 0.55366 0.5444 0.0
Co102 Co 0.50687 0.35803 0.13728 0.0
Co103 Co 0.61456 0.33024 0.07343 0.0
C104 C 0.48424 0.29016 0.07468 0.0
O105 O 0.46614 0.31369 0.10342 0.0
O106 O 0.54274 0.29214 0.05923 0.0
C107 C 0.43892 0.33258 0.20323 0.0
O108 O 0.47065 0.29757 0.19145 0.0
C109 C 0.72322 0.28804 0.02534 0.0
C110 C 0.78614 0.33821 1.01381 0.0
C111 C 0.78259 0.29721 1.0074 0.0
N112 N 0.69316 0.32215 0.04173 0.0
N113 N 0.73044 0.35212 0.03429 0.0
C114 C 0.69928 0.24702 0.03038 0.0
H115 H 0.67248 0.24566 0.05872 0.0
H116 H 0.7462 0.22227 0.03228 0.0
H117 H 0.65929 0.24212 1.00309 0.0
C118 C 0.6465 0.34279 0.19534 0.0
N119 N 0.60714 0.34135 0.15755 0.0
N120 N 0.65111 0.32739 0.13104 0.0
C121 C 0.71933 0.31837 0.15139 0.0
C122 C 0.7188 0.32808 0.19266 0.0
C123 C 0.61551 0.35888 0.23288 0.0
H124 H 0.57511 0.38649 0.224 0.0
H125 H 0.58696 0.33528 0.24577 0.0
H126 H 0.65864 0.36625 0.25736 0.0
O127 O 0.49746 0.41011 0.10292 0.0
O128 O 0.56889 0.38597 0.05699 0.0
H129 H 0.79748 0.32953 0.11193 0.0
H130 H 0.83339 0.29363 0.15426 0.0
C131 C 0.78494 0.30403 0.13111 0.0
H132 H 0.77363 0.2785 0.11067 0.0
H133 H 0.71895 0.38189 0.04421 0.0
O134 O 0.44814 0.36539 0.18468 0.0
C135 C 0.52662 0.41463 0.07015 0.0
Co136 Co 0.65407 0.85369 0.38831 0.0
Co137 Co 0.54426 0.82445 0.4438 0.0
C138 C 0.69415 0.78376 0.45516 0.0
O139 O 0.70891 0.80836 0.42768 0.0
O140 O 0.62991 0.78511 0.46423 0.0
C141 C 0.74841 0.83015 0.32973 0.0
O142 O 0.73535 0.79443 0.34305 0.0
C143 C 0.43885 0.78393 0.48437 0.0
C144 C 0.35823 0.83793 0.49176 0.0
C145 C 0.37205 0.79588 0.49784 0.0
N146 N 0.46225 0.81749 0.47007 0.0
N147 N 0.4143 0.84963 0.47512 0.0
C148 C 0.48101 0.74187 0.48618 0.0
H149 H 0.54019 0.74352 0.49095 0.0
H150 H 0.46779 0.727 0.4563 0.0
H151 H 0.46733 0.72285 0.51173 0.0
C152 C 0.53073 0.84165 0.32235 0.0
N153 N 0.56371 0.83879 0.36213 0.0
N154 N 0.52039 0.82421 0.38563 0.0
C155 C 0.45972 0.81638 0.36161 0.0
C156 C 0.4641 0.82718 0.32081 0.0
C157 C 0.56153 0.859 0.28687 0.0
H158 H 0.58717 0.88627 0.29678 0.0
H159 H 0.60434 0.83579 0.27748 0.0
H160 H 0.51901 0.86728 0.25967 0.0
O161 O 0.63542 0.9043 0.42086 0.0
O162 O 0.56364 0.87859 0.46023 0.0
H163 H 0.36987 0.82696 0.39602 0.0
H164 H 0.35415 0.79499 0.35248 0.0
C165 C 0.39567 0.8024 0.37783 0.0
H166 H 0.41424 0.77493 0.3985 0.0
H167 H 0.41903 0.87956 0.46622 0.0
O168 O 0.71798 0.86229 0.34482 0.0
C169 C 0.59678 0.90757 0.45045 0.0
Co170 Co 0.99566 0.10431 0.88787 0.0
Co171 Co 0.12702 0.12488 0.95199 0.0
C172 C 0.9853 0.17887 0.93973 0.0
O173 O 0.95946 0.15437 0.91404 0.0
O174 O 0.05165 0.17267 0.95615 0.0
C175 C 0.88566 0.12986 0.82178 0.0
O176 O 0.90758 0.16495 0.83191 0.0
C177 C 0.24567 0.17072 0.98441 0.0
C178 C 0.30071 0.13193 0.03858 0.0
C179 C 0.30119 0.16877 1.01763 0.0
N180 N 0.21402 0.13653 0.98553 0.0
N181 N 0.24772 0.1133 1.01781 0.0
C182 C 0.21814 0.20633 0.95479 0.0
H183 H 0.19736 0.23295 0.97229 0.0
H184 H 0.174 0.19878 0.93102 0.0
H185 H 0.26331 0.21508 0.93925 0.0
C186 C 0.10757 0.09983 0.83164 0.0
N187 N 0.08618 0.10744 0.86901 0.0
N188 N 0.14225 0.11483 0.8955 0.0
C189 C 0.20167 0.11152 0.87566 0.0
C190 C 0.18165 0.10195 0.83448 0.0
C191 C 0.05683 0.09193 0.79382 0.0
H192 H 0.03123 0.06439 0.79975 0.0
H193 H 1.01304 0.11829 0.78751 0.0
H194 H 0.08441 0.08794 0.76579 0.0
O195 O 1.00507 0.05961 0.93011 0.0
O196 O 0.09275 0.0764 0.97754 0.0
H197 H 0.28506 0.0998 0.92835 0.0
H198 H 0.31862 0.09808 0.87872 0.0
C199 C 0.27721 0.11387 0.89655 0.0
H200 H 0.28535 0.14643 0.89889 0.0
H201 H 0.23284 0.0854 0.02656 0.0
O202 O 0.91821 0.0973 0.84122 0.0
C203 C 0.04459 0.05358 0.96542 0.0
Co204 Co 0.58316 0.13838 0.55987 0.0
Co205 Co 0.47566 0.09979 0.6097 0.0
C206 C 0.42446 0.17041 0.54838 0.0
O207 O 0.48882 0.17115 0.5405 0.0
O208 O 0.41101 0.14453 0.57481 0.0
C209 C 0.65306 0.20441 0.54526 0.0
O210 O 0.60385 0.22147 0.56723 0.0
C211 C 0.37789 0.09947 0.67384 0.0
C212 C 0.38514 0.03352 0.68917 0.0
C213 C 0.35566 0.0718 0.70064 0.0
N214 N 0.42012 0.07849 0.6487 0.0
N215 N 0.42346 0.03905 0.65777 0.0
C216 C 0.35844 0.14507 0.67152 0.0
H217 H 0.35957 0.15742 0.63983 0.0
H218 H 0.39862 0.15898 0.69306 0.0
H219 H 0.30348 0.15411 0.68041 0.0
C220 C 0.66483 0.13973 0.64412 0.0
N221 N 0.60478 0.13366 0.6184 0.0
N222 N 0.55992 0.11778 0.63988 0.0
C223 C 0.59049 0.11323 0.68017 0.0
C224 C 0.65742 0.12743 0.68404 0.0
C225 C 0.73229 0.15186 0.63022 0.0
H226 H 0.74136 0.13797 0.60024 0.0
H227 H 0.72598 0.18563 0.62623 0.0
H228 H 0.78097 0.14196 0.65345 0.0
O229 O 0.58526 0.08404 0.53679 0.0
O230 O 0.509 0.05579 0.57175 0.0
H231 H 0.54523 0.06336 0.70474 0.0
H232 H 0.59521 0.09087 0.74386 0.0
C233 C 0.55812 0.09397 0.71401 0.0
H234 H 0.50711 0.11323 0.71896 0.0
H235 H 0.45348 0.01593 0.64326 0.0
O236 O 0.65498 0.16683 0.53732 0.0
C237 C 0.55257 0.054 0.54445 0.0
Co238 Co 1.0058 0.85873 0.13623 0.0
Co239 Co 0.11652 0.82979 0.07468 0.0
C240 C 0.98714 0.7892 0.07492 0.0
O241 O 0.96557 0.8144 0.10157 0.0
O242 O 0.04808 0.78997 0.06187 0.0
C243 C 0.9364 0.83349 0.2016 0.0
O244 O 0.96869 0.7985 0.19007 0.0
C245 C 0.22632 0.78761 0.02746 0.0
C246 C 0.28906 0.83787 1.01591 0.0
C247 C 0.2856 0.79686 1.00952 0.0
N248 N 0.1961 0.82171 0.04378 0.0
N249 N 0.23332 0.85172 0.03638 0.0
C250 C 0.20233 0.74658 0.03234 0.0
H251 H 0.17733 0.74477 0.06128 0.0
H252 H 0.24882 0.72172 0.03308 0.0
H253 H 0.16077 0.74226 1.00562 0.0
C254 C 0.14421 0.84445 0.19602 0.0
N255 N 0.10601 0.84255 0.15793 0.0
N256 N 0.15125 0.82852 0.13214 0.0
C257 C 0.21894 0.8198 0.15316 0.0
C258 C 0.2169 0.82985 0.1942 0.0
C259 C 0.11181 0.86075 0.23305 0.0
H260 H 0.07092 0.88802 0.22358 0.0
H261 H 0.08356 0.83702 0.24597 0.0
H262 H 0.15415 0.86871 0.25768 0.0
O263 O 0.9973 0.91045 0.10163 0.0
O264 O 0.06859 0.88482 0.05625 0.0
H265 H 0.29859 0.83041 0.11449 0.0
H266 H 0.33322 0.79493 0.15733 0.0
C267 C 0.28536 0.80513 0.13371 0.0
H268 H 0.27466 0.7794 0.11342 0.0
H269 H 0.22156 0.88152 0.04617 0.0
O270 O 0.9455 0.86627 0.18297 0.0
C271 C 0.02617 0.91395 0.0686 0.0
C272 C 0.31003 0.36879 0.28082 0.0
C273 C 0.2989 0.33136 0.29862 0.0
H274 H 0.36306 0.39877 0.23667 0.0
C275 C 0.33527 0.29492 0.28529 0.0
H276 H 0.28283 0.39744 0.29037 0.0
C277 C 0.38105 0.29568 0.25485 0.0
C278 C 0.39181 0.33291 0.23663 0.0
H279 H 0.32832 0.26551 0.2983 0.0
H280 H 0.40759 0.26682 0.24538 0.0
C281 C 0.35599 0.36956 0.25007 0.0
C282 C 0.2973 0.59149 0.77773 0.0
C283 C 0.32418 0.62821 0.78852 0.0
H284 H 0.22246 0.56239 0.73604 0.0
C285 C 0.29303 0.66452 0.76599 0.0
H286 H 0.32017 0.56303 0.79449 0.0
C287 C 0.23734 0.66406 0.73294 0.0
C288 C 0.21122 0.62741 0.72189 0.0
H289 H 0.31225 0.69337 0.77347 0.0
H290 H 0.2152 0.69233 0.71557 0.0
C291 C 0.24115 0.59112 0.74461 0.0
C292 C 0.81088 0.61662 0.757 0.0
C293 C 0.80901 0.58096 0.73396 0.0
H294 H 0.76996 0.65179 0.8059 0.0
C295 C 0.76652 0.55173 0.74536 0.0
H296 H 0.84577 0.63886 0.75083 0.0
C297 C 0.7252 0.55856 0.77799 0.0
C298 C 0.72499 0.59488 0.79982 0.0
H299 H 0.76478 0.5236 0.72883 0.0
H300 H 0.69316 0.53542 0.78612 0.0
C301 C 0.76867 0.62369 0.78927 0.0
C302 C 0.80435 0.36458 0.23919 0.0
C303 C 0.78288 0.32772 0.22462 0.0
H304 H 0.88102 0.39286 0.28046 0.0
C305 C 0.82466 0.29051 0.23931 0.0
H306 H 0.77313 0.3936 0.2278 0.0
C307 C 0.88619 0.29012 0.26903 0.0
C308 C 0.90715 0.32694 0.28401 0.0
H309 H 0.80911 0.2618 0.22816 0.0
H310 H 0.91656 0.26107 0.28102 0.0
C311 C 0.86627 0.3642 0.2687 0.0
C312 C 0.83336 0.79571 0.28392 0.0
C313 C 0.79721 0.83212 0.29744 0.0
H314 H 0.90521 0.76768 0.24371 0.0
C315 C 0.80808 0.86958 0.27958 0.0
H316 H 0.82662 0.76628 0.29696 0.0
C317 C 0.85364 0.8704 0.24861 0.0
C318 C 0.88932 0.83378 0.23502 0.0
H319 H 0.78103 0.8982 0.28927 0.0
H320 H 0.86059 0.89963 0.23521 0.0
C321 C 0.87875 0.79653 0.25327 0.0
C322 C 0.74332 0.09134 0.74333 0.0
C323 C 0.7119 0.12775 0.72127 0.0
H324 H 0.82361 0.06327 0.7926 0.0
C325 C 0.73687 0.16459 0.73275 0.0
H326 H 0.72556 0.06247 0.73438 0.0
C327 C 0.79277 0.16515 0.76565 0.0
C328 C 0.82528 0.12874 0.78759 0.0
H329 H 0.71359 0.19295 0.71585 0.0
H330 H 0.81102 0.19415 0.77352 0.0
C331 C 0.79966 0.09181 0.77631 0.0
C332 C 0.22636 0.05814 0.7785 0.0
C333 C 0.2288 0.09363 0.80153 0.0
H334 H 0.26357 0.0239 0.72827 0.0
C335 C 0.27544 0.12137 0.79235 0.0
H336 H 0.19218 0.03573 0.78565 0.0
C337 C 0.31717 0.11435 0.75985 0.0
C338 C 0.31233 0.07971 0.73551 0.0
H339 H 0.27899 0.14872 0.81001 0.0
H340 H 0.35382 0.13585 0.75436 0.0
C341 C 0.26752 0.05129 0.74582 0.0
C342 C 0.3022 0.86612 0.24117 0.0
C343 C 0.28015 0.82935 0.22673 0.0
H344 H 0.37982 0.89414 0.28207 0.0
C345 C 0.32149 0.79204 0.24148 0.0
H346 H 0.27138 0.89521 0.22968 0.0
C347 C 0.38337 0.79145 0.27094 0.0
C348 C 0.40512 0.82817 0.28567 0.0
H349 H 0.30555 0.76339 0.23036 0.0
H350 H 0.41354 0.76233 0.28286 0.0
C351 C 0.36446 0.86554 0.27047 0.0
C352 C 0.03067 0.48235 0.52828 0.0
C353 C 0.06518 0.5162 0.52045 0.0
H354 H 1.01322 0.42193 0.51244 0.0
C355 C 0.11084 0.51407 0.48914 0.0
H356 H 0.99527 0.48285 0.55209 0.0
C357 C 0.12131 0.47885 0.46605 0.0
C358 C 0.0864 0.4451 0.47388 0.0
H359 H 0.13834 0.53968 0.48226 0.0
H360 H 0.15646 0.47813 0.44212 0.0
C361 C 0.04114 0.44732 0.50537 0.0
C362 C 0.56442 0.518 0.03704 0.0
C363 C 0.53473 0.51992 0.99474 0.0
H364 H 0.58214 0.48329 0.09498 0.0
C365 C 0.49341 0.48945 0.9796 0.0
H366 H 0.59593 0.54118 0.04977 0.0
C367 C 0.48553 0.45662 1.0055 0.0
C368 C 0.51711 0.4541 0.04727 0.0
H369 H 0.46955 0.49002 0.94727 0.0
H370 H 0.45753 0.43216 0.99242 0.0
C371 C 0.55541 0.48538 0.06313 0.0
C372 C 0.53185 0.98236 0.52887 0.0
C373 C 0.56523 0.01652 0.52059 0.0
H374 H 0.51576 0.92165 0.51354 0.0
C375 C 0.61036 0.01463 0.48902 0.0
H376 H 0.49694 0.98266 0.55291 0.0
C377 C 0.62133 0.97935 0.46608 0.0
C378 C 0.58748 0.94529 0.47434 0.0
H379 H 0.637 0.04049 0.48182 0.0
H380 H 0.65597 0.97883 0.4419 0.0
C381 C 0.54284 0.94727 0.50612 0.0
C382 C 0.99302 0.95335 1.00176 0.0
C383 C 1.01654 0.95288 0.04464 0.0
H384 H 0.98282 0.98567 0.94318 0.0
C385 C 0.04605 0.98662 0.06194 0.0
H386 H 0.97166 0.92716 0.98771 0.0
C387 C 0.05485 0.01963 0.03628 0.0
C388 C 0.03319 0.01959 0.99306 0.0
H389 H 0.06635 0.98632 0.0948 0.0
H390 H 0.07972 0.04482 0.05015 0.0
C391 C 1.00025 0.98661 0.97629 0.0
C392 C 0.23617 0.22691 0.50939 0.0
C393 C 0.25129 0.25393 0.4787 0.0
H394 H 0.2787 0.17951 0.55563 0.0
C395 C 0.32368 0.25327 0.47143 0.0
H396 H 0.18102 0.22663 0.51592 0.0
C397 C 0.37959 0.22643 0.49434 0.0
C398 C 0.36461 0.19942 0.52506 0.0
H399 H 0.33744 0.27368 0.44816 0.0
H400 H 0.43469 0.22687 0.48778 0.0
C401 C 0.29219 0.19993 0.5323 0.0
C402 C 0.36031 0.71351 0.94321 0.0
C403 C 0.43588 0.71205 0.95477 0.0
H404 H 0.25366 0.74154 0.95165 0.0
C405 C 0.4616 0.74073 0.98245 0.0
H406 H 0.33846 0.69205 0.92177 0.0
C407 C 0.4125 0.7693 0.99934 0.0
C408 C 0.33723 0.76902 0.98938 0.0
H409 H 0.5194 0.7405 0.99182 0.0
H410 H 0.43332 0.79057 0.02136 0.0
C411 C 0.31154 0.74157 0.96054 0.0
C412 C 0.2207 0.76466 0.55134 0.0
C413 C 0.21233 0.72653 0.53436 0.0
H414 H 0.27929 0.81599 0.55359 0.0
C415 C 0.25873 0.7105 0.50631 0.0
H416 H 0.18594 0.77768 0.57321 0.0
C417 C 0.31191 0.73254 0.49495 0.0
C418 C 0.32043 0.77063 0.51203 0.0
H419 H 0.25306 0.68129 0.49248 0.0
H420 H 0.34434 0.72028 0.47174 0.0
C421 C 0.27428 0.78649 0.54026 0.0
C422 C 0.39106 0.21588 1.00508 0.0
C423 C 0.34667 0.20059 0.03144 0.0
H424 H 0.47064 0.25573 0.99835 0.0
C425 C 0.34756 0.21494 0.07189 0.0
H426 H 0.39199 0.20481 0.97394 0.0
C427 C 0.39127 0.24454 0.08561 0.0
C428 C 0.43664 0.25954 0.05954 0.0
H429 H 0.31389 0.20346 0.0928 0.0
H430 H 0.39055 0.25513 0.11694 0.0
C431 C 0.43633 0.24475 1.01916 0.0
C432 C 0.79414 0.70002 0.53174 0.0
C433 C 0.86654 0.6995 0.52449 0.0
H434 H 0.68303 0.72674 0.51549 0.0
C435 C 0.88153 0.72655 0.4938 0.0
H436 H 0.78061 0.67957 0.55504 0.0
C437 C 0.82559 0.75346 0.47095 0.0
C438 C 0.75322 0.75412 0.47828 0.0
H439 H 0.93664 0.72696 0.48725 0.0
H440 H 0.83929 0.77392 0.44772 0.0
C441 C 0.73814 0.72703 0.50892 0.0
C442 C 0.90991 0.26996 0.99767 0.0
C443 C 0.83474 0.26926 0.98768 0.0
H444 H 1.01728 0.24158 0.99046 0.0
C445 C 0.8097 0.24133 0.95918 0.0
H446 H 0.93026 0.29159 0.01943 0.0
C447 C 0.85901 0.2133 0.94218 0.0
C448 C 0.93449 0.21234 0.95373 0.0
H449 H 0.75194 0.24095 0.95025 0.0
H450 H 0.83765 0.19151 0.92097 0.0
C451 C 0.95955 0.24144 0.98111 0.0
C452 C 0.80885 0.2332 0.49367 0.0
C453 C 0.81692 0.27155 0.51023 0.0
H454 H 0.75053 0.18177 0.49188 0.0
C455 C 0.77036 0.28778 0.53809 0.0
H456 H 0.84161 0.22066 0.47073 0.0
C457 C 0.71691 0.26598 0.54942 0.0
C458 C 0.70909 0.22754 0.53304 0.0
H459 H 0.77503 0.31749 0.551 0.0
H460 H 0.68189 0.27924 0.57105 0.0
C461 C 0.75579 0.21121 0.50527 0.0
C462 C 0.82178 0.735 0.04594 0.0
C463 C 0.85246 0.69921 0.02853 0.0
H464 H 0.84035 0.79125 0.07479 0.0
C465 C 0.92765 0.69304 0.02677 0.0
H466 H 0.76417 0.74015 0.04839 0.0
C467 C 0.97117 0.72249 0.04134 0.0
C468 C 0.94068 0.75827 0.059 0.0
H469 H 0.95268 0.66561 1.01367 0.0
H470 H 0.02892 0.71695 0.03928 0.0
C471 C 0.86552 0.76407 0.06134 0.0
loop_
_geom_bond_atom_site_label_1
_geom_bond_atom_site_label_2
_geom_bond_distance
_geom_bond_site_symmetry_2
_ccdc_geom_bond_type
Co0 O3 1.970 . S
Co0 N17 1.989 . S
Co0 O25 1.967 . S
Co0 O32 1.920 . S
Co1 O4 1.966 . S
Co1 N10 2.022 1_455 S
Co1 N18 1.993 1_455 S
Co1 O26 1.941 . S
C2 O3 1.258 . S
C2 O4 1.263 . S
O3 Co0 1.970 . S
O3 C2 1.258 . S
O4 Co1 1.966 . S
O4 C2 1.263 . S
C5 O6 1.235 . S
C5 O32 1.289 . S
O6 C5 1.235 . S
C7 C9 1.400 . S
C7 N10 1.351 . S
C7 C12 1.501 . S
C8 C9 1.387 . S
C8 N11 1.341 . S
C9 C7 1.400 . S
C9 C8 1.387 . S
N10 Co1 2.022 1_655 S
N10 C7 1.351 . S
N10 N11 1.365 . S
N11 C8 1.341 . S
N11 N10 1.365 . S
N11 H31 0.862 . S
C12 C7 1.501 . S
C12 H13 0.961 1_655 S
C12 H14 0.961 . S
C12 H15 0.960 . S
H13 C12 0.961 1_455 S
H14 C12 0.961 . S
H15 C12 0.960 . S
C16 N17 1.342 1_655 S
C16 C20 1.401 . S
C16 C21 1.499 1_655 S
N17 Co0 1.989 . S
N17 C16 1.342 1_455 S
N17 N18 1.388 1_455 S
N18 Co1 1.993 1_655 S
N18 N17 1.388 1_655 S
N18 C19 1.346 . S
C19 N18 1.346 . S
C19 C20 1.396 . S
C19 C29 1.510 . S
C20 C16 1.401 . S
C20 C19 1.396 . S
C21 C16 1.499 1_455 S
C21 H22 0.959 . S
C21 H23 0.960 . S
C21 H24 0.961 . S
H22 C21 0.959 . S
H23 C21 0.960 . S
H24 C21 0.961 . S
O25 Co0 1.967 . S
O25 C33 1.258 . S
O26 Co1 1.941 . S
O26 C33 1.266 . S
H27 C29 0.959 . S
H28 C29 0.961 . S
C29 C19 1.510 . S
C29 H27 0.959 . S
C29 H28 0.961 . S
C29 H30 0.960 . S
H30 C29 0.960 . S
H31 N11 0.862 . S
O32 Co0 1.920 . S
O32 C5 1.289 . S
C33 O25 1.258 . S
C33 O26 1.266 . S
Co34 O37 1.970 . S
Co34 N51 1.989 . S
Co34 O59 1.967 . S
Co34 O66 1.920 . S
Co35 O38 1.966 . S
Co35 N44 2.022 . S
Co35 N52 1.993 . S
Co35 O60 1.941 . S
C36 O37 1.258 . S
C36 O38 1.263 . S
O37 Co34 1.970 . S
O37 C36 1.258 . S
O38 Co35 1.966 . S
O38 C36 1.263 . S
C39 O40 1.235 . S
C39 O66 1.289 . S
O40 C39 1.235 . S
C41 C43 1.400 . S
C41 N44 1.351 . S
C41 C46 1.501 . S
C42 C43 1.387 . S
C42 N45 1.341 . S
C43 C41 1.400 . S
C43 C42 1.387 . S
N44 Co35 2.022 . S
N44 C41 1.351 . S
N44 N45 1.365 . S
N45 C42 1.341 . S
N45 N44 1.365 . S
N45 H65 0.862 . S
C46 C41 1.501 . S
C46 H47 0.961 . S
C46 H48 0.961 . S
C46 H49 0.960 1_556 S
H47 C46 0.961 . S
H48 C46 0.961 . S
H49 C46 0.960 1_554 S
C50 N51 1.342 . S
C50 C54 1.401 . S
C50 C55 1.499 . S
N51 Co34 1.989 . S
N51 C50 1.342 . S
N51 N52 1.388 . S
N52 Co35 1.993 . S
N52 N51 1.388 . S
N52 C53 1.346 . S
C53 N52 1.346 . S
C53 C54 1.396 . S
C53 C63 1.510 . S
C54 C50 1.401 . S
C54 C53 1.396 . S
C55 C50 1.499 . S
C55 H56 0.959 . S
C55 H57 0.960 . S
C55 H58 0.961 . S
H56 C55 0.959 . S
H57 C55 0.960 . S
H58 C55 0.961 . S
O59 Co34 1.967 . S
O59 C67 1.258 . S
O60 Co35 1.941 . S
O60 C67 1.266 . S
H61 C63 0.959 . S
H62 C63 0.961 . S
C63 C53 1.510 . S
C63 H61 0.959 . S
C63 H62 0.961 . S
C63 H64 0.960 . S
H64 C63 0.960 . S
H65 N45 0.862 . S
O66 Co34 1.920 . S
O66 C39 1.289 . S
C67 O59 1.258 . S
C67 O60 1.266 . S
Co68 O71 1.970 1_455 S
Co68 N85 1.989 . S
Co68 O93 1.967 . S
Co68 O100 1.920 . S
Co69 O72 1.966 . S
Co69 N78 2.022 . S
Co69 N86 1.993 1_655 S
Co69 O94 1.941 . S
C70 O71 1.258 . S
C70 O72 1.263 . S
O71 Co68 1.970 1_655 S
O71 C70 1.258 . S
O72 Co69 1.966 . S
O72 C70 1.263 . S
C73 O74 1.235 . S
C73 O100 1.289 . S
O74 C73 1.235 . S
C75 C77 1.400 . S
C75 N78 1.351 . S
C75 C80 1.501 . S
C76 C77 1.387 . S
C76 N79 1.341 . S
C77 C75 1.400 . S
C77 C76 1.387 . S
N78 Co69 2.022 . S
N78 C75 1.351 . S
N78 N79 1.365 . S
N79 C76 1.341 . S
N79 N78 1.365 . S
N79 H99 0.862 . S
C80 C75 1.501 . S
C80 H81 0.961 . S
C80 H82 0.961 . S
C80 H83 0.960 . S
H81 C80 0.961 . S
H82 C80 0.961 . S
H83 C80 0.960 . S
C84 N85 1.342 . S
C84 C88 1.401 . S
C84 C89 1.499 . S
N85 Co68 1.989 . S
N85 C84 1.342 . S
N85 N86 1.388 . S
N86 Co69 1.993 1_455 S
N86 N85 1.388 . S
N86 C87 1.346 . S
C87 N86 1.346 . S
C87 C88 1.396 . S
C87 C97 1.510 . S
C88 C84 1.401 . S
C88 C87 1.396 . S
C89 C84 1.499 . S
C89 H90 0.959 . S
C89 H91 0.960 . S
C89 H92 0.961 . S
H90 C89 0.959 . S
H91 C89 0.960 . S
H92 C89 0.961 . S
O93 Co68 1.967 . S
O93 C101 1.258 . S
O94 Co69 1.941 . S
O94 C101 1.266 1_655 S
H95 C97 0.959 . S
H96 C97 0.961 . S
C97 C87 1.510 . S
C97 H95 0.959 . S
C97 H96 0.961 . S
C97 H98 0.960 . S
H98 C97 0.960 . S
H99 N79 0.862 . S
O100 Co68 1.920 . S
O100 C73 1.289 . S
C101 O93 1.258 . S
C101 O94 1.266 1_455 S
Co102 O105 1.970 . S
Co102 N119 1.989 . S
Co102 O127 1.967 . S
Co102 O134 1.920 . S
Co103 O106 1.966 . S
Co103 N112 2.022 . S
Co103 N120 1.993 . S
Co103 O128 1.941 . S
C104 O105 1.258 . S
C104 O106 1.263 . S
O105 Co102 1.970 . S
O105 C104 1.258 . S
O106 Co103 1.966 . S
O106 C104 1.263 . S
C107 O108 1.235 . S
C107 O134 1.289 . S
O108 C107 1.235 . S
C109 C111 1.400 . S
C109 N112 1.351 . S
C109 C114 1.501 . S
C110 C111 1.387 . S
C110 N113 1.341 . S
C111 C109 1.400 . S
C111 C110 1.387 . S
N112 Co103 2.022 . S
N112 C109 1.351 . S
N112 N113 1.365 . S
N113 C110 1.341 . S
N113 N112 1.365 . S
N113 H133 0.862 . S
C114 C109 1.501 . S
C114 H115 0.961 . S
C114 H116 0.961 . S
C114 H117 0.960 1_554 S
H115 C114 0.961 . S
H116 C114 0.961 . S
H117 C114 0.960 1_556 S
C118 N119 1.342 . S
C118 C122 1.401 . S
C118 C123 1.499 . S
N119 Co102 1.989 . S
N119 C118 1.342 . S
N119 N120 1.388 . S
N120 Co103 1.993 . S
N120 N119 1.388 . S
N120 C121 1.346 . S
C121 N120 1.346 . S
C121 C122 1.396 . S
C121 C131 1.510 . S
C122 C118 1.401 . S
C122 C121 1.396 . S
C123 C118 1.499 . S
C123 H124 0.959 . S
C123 H125 0.960 . S
C123 H126 0.961 . S
H124 C123 0.959 . S
H125 C123 0.960 . S
H126 C123 0.961 . S
O127 Co102 1.967 . S
O127 C135 1.258 . S
O128 Co103 1.941 . S
O128 C135 1.266 . S
H129 C131 0.959 . S
H130 C131 0.961 . S
C131 C121 1.510 . S
C131 H129 0.959 . S
C131 H130 0.961 . S
C131 H132 0.960 . S
H132 C131 0.960 . S
H133 N113 0.862 . S
O134 Co102 1.920 . S
O134 C107 1.289 . S
C135 O127 1.258 . S
C135 O128 1.266 . S
Co136 O139 1.970 . S
Co136 N153 1.989 . S
Co136 O161 1.967 . S
Co136 O168 1.920 . S
Co137 O140 1.966 . S
Co137 N146 2.022 . S
Co137 N154 1.993 . S
Co137 O162 1.941 . S
C138 O139 1.258 . S
C138 O140 1.263 . S
O139 Co136 1.970 . S
O139 C138 1.258 . S
O140 Co137 1.966 . S
O140 C138 1.263 . S
C141 O142 1.235 . S
C141 O168 1.289 . S
O142 C141 1.235 . S
C143 C145 1.400 . S
C143 N146 1.351 . S
C143 C148 1.501 . S
C144 C145 1.387 . S
C144 N147 1.341 . S
C145 C143 1.400 . S
C145 C144 1.387 . S
N146 Co137 2.022 . S
N146 C143 1.351 . S
N146 N147 1.365 . S
N147 C144 1.341 . S
N147 N146 1.365 . S
N147 H167 0.862 . S
C148 C143 1.501 . S
C148 H149 0.961 . S
C148 H150 0.961 . S
C148 H151 0.960 . S
H149 C148 0.961 . S
H150 C148 0.961 . S
H151 C148 0.960 . S
C152 N153 1.342 . S
C152 C156 1.401 . S
C152 C157 1.499 . S
N153 Co136 1.989 . S
N153 C152 1.342 . S
N153 N154 1.388 . S
N154 Co137 1.993 . S
N154 N153 1.388 . S
N154 C155 1.346 . S
C155 N154 1.346 . S
C155 C156 1.396 . S
C155 C165 1.510 . S
C156 C152 1.401 . S
C156 C155 1.396 . S
C157 C152 1.499 . S
C157 H158 0.959 . S
C157 H159 0.960 . S
C157 H160 0.961 . S
H158 C157 0.959 . S
H159 C157 0.960 . S
H160 C157 0.961 . S
O161 Co136 1.967 . S
O161 C169 1.258 . S
O162 Co137 1.941 . S
O162 C169 1.266 . S
H163 C165 0.959 . S
H164 C165 0.961 . S
C165 C155 1.510 . S
C165 H163 0.959 . S
C165 H164 0.961 . S
C165 H166 0.960 . S
H166 C165 0.960 . S
H167 N147 0.862 . S
O168 Co136 1.920 . S
O168 C141 1.289 . S
C169 O161 1.258 . S
C169 O162 1.266 . S
Co170 O173 1.970 . S
Co170 N187 1.989 1_655 S
Co170 O195 1.967 1_655 S
Co170 O202 1.920 . S
Co171 O174 1.966 . S
Co171 N180 2.022 . S
Co171 N188 1.993 . S
Co171 O196 1.941 . S
C172 O173 1.258 . S
C172 O174 1.263 1_655 S
O173 Co170 1.970 . S
O173 C172 1.258 . S
O174 Co171 1.966 . S
O174 C172 1.263 1_455 S
C175 O176 1.235 . S
C175 O202 1.289 . S
O176 C175 1.235 . S
C177 C179 1.400 . S
C177 N180 1.351 . S
C177 C182 1.501 . S
C178 C179 1.387 . S
C178 N181 1.341 . S
C179 C177 1.400 . S
C179 C178 1.387 . S
N180 Co171 2.022 . S
N180 C177 1.351 . S
N180 N181 1.365 . S
N181 C178 1.341 . S
N181 N180 1.365 . S
N181 H201 0.862 . S
C182 C177 1.501 . S
C182 H183 0.961 . S
C182 H184 0.961 . S
C182 H185 0.960 1_556 S
H183 C182 0.961 . S
H184 C182 0.961 . S
H185 C182 0.960 1_554 S
C186 N187 1.342 . S
C186 C190 1.401 . S
C186 C191 1.499 . S
N187 Co170 1.989 1_455 S
N187 C186 1.342 . S
N187 N188 1.388 . S
N188 Co171 1.993 . S
N188 N187 1.388 . S
N188 C189 1.346 . S
C189 N188 1.346 . S
C189 C190 1.396 . S
C189 C199 1.510 . S
C190 C186 1.401 . S
C190 C189 1.396 . S
C191 C186 1.499 . S
C191 H192 0.959 . S
C191 H193 0.960 . S
C191 H194 0.961 . S
H192 C191 0.959 . S
H193 C191 0.960 . S
H194 C191 0.961 . S
O195 Co170 1.967 1_455 S
O195 C203 1.258 . S
O196 Co171 1.941 . S
O196 C203 1.266 . S
H197 C199 0.959 . S
H198 C199 0.961 . S
C199 C189 1.510 . S
C199 H197 0.959 . S
C199 H198 0.961 . S
C199 H200 0.960 . S
H200 C199 0.960 . S
H201 N181 0.862 . S
O202 Co170 1.920 . S
O202 C175 1.289 . S
C203 O195 1.258 . S
C203 O196 1.266 . S
Co204 O207 1.970 . S
Co204 N221 1.989 . S
Co204 O229 1.967 . S
Co204 O236 1.920 . S
Co205 O208 1.966 . S
Co205 N214 2.022 . S
Co205 N222 1.993 . S
Co205 O230 1.941 . S
C206 O207 1.258 . S
C206 O208 1.263 . S
O207 Co204 1.970 . S
O207 C206 1.258 . S
O208 Co205 1.966 . S
O208 C206 1.263 . S
C209 O210 1.235 . S
C209 O236 1.289 . S
O210 C209 1.235 . S
C211 C213 1.400 . S
C211 N214 1.351 . S
C211 C216 1.501 . S
C212 C213 1.387 . S
C212 N215 1.341 . S
C213 C211 1.400 . S
C213 C212 1.387 . S
N214 Co205 2.022 . S
N214 C211 1.351 . S
N214 N215 1.365 . S
N215 C212 1.341 . S
N215 N214 1.365 . S
N215 H235 0.862 . S
C216 C211 1.501 . S
C216 H217 0.961 . S
C216 H218 0.961 . S
C216 H219 0.960 . S
H217 C216 0.961 . S
H218 C216 0.961 . S
H219 C216 0.960 . S
C220 N221 1.342 . S
C220 C224 1.401 . S
C220 C225 1.499 . S
N221 Co204 1.989 . S
N221 C220 1.342 . S
N221 N222 1.388 . S
N222 Co205 1.993 . S
N222 N221 1.388 . S
N222 C223 1.346 . S
C223 N222 1.346 . S
C223 C224 1.396 . S
C223 C233 1.510 . S
C224 C220 1.401 . S
C224 C223 1.396 . S
C225 C220 1.499 . S
C225 H226 0.959 . S
C225 H227 0.960 . S
C225 H228 0.961 . S
H226 C225 0.959 . S
H227 C225 0.960 . S
H228 C225 0.961 . S
O229 Co204 1.967 . S
O229 C237 1.258 . S
O230 Co205 1.941 . S
O230 C237 1.266 . S
H231 C233 0.959 . S
H232 C233 0.961 . S
C233 C223 1.510 . S
C233 H231 0.959 . S
C233 H232 0.961 . S
C233 H234 0.960 . S
H234 C233 0.960 . S
H235 N215 0.862 . S
O236 Co204 1.920 . S
O236 C209 1.289 . S
C237 O229 1.258 . S
C237 O230 1.266 . S
Co238 O241 1.970 . S
Co238 N255 1.989 1_655 S
Co238 O263 1.967 . S
Co238 O270 1.920 . S
Co239 O242 1.966 . S
Co239 N248 2.022 . S
Co239 N256 1.993 . S
Co239 O264 1.941 . S
C240 O241 1.258 . S
C240 O242 1.263 1_655 S
O241 Co238 1.970 . S
O241 C240 1.258 . S
O242 Co239 1.966 . S
O242 C240 1.263 1_455 S
C243 O244 1.235 . S
C243 O270 1.289 . S
O244 C243 1.235 . S
C245 C247 1.400 . S
C245 N248 1.351 . S
C245 C250 1.501 . S
C246 C247 1.387 . S
C246 N249 1.341 . S
C247 C245 1.400 . S
C247 C246 1.387 . S
N248 Co239 2.022 . S
N248 C245 1.351 . S
N248 N249 1.365 . S
N249 C246 1.341 . S
N249 N248 1.365 . S
N249 H269 0.862 . S
C250 C245 1.501 . S
C250 H251 0.961 . S
C250 H252 0.961 . S
C250 H253 0.960 1_554 S
H251 C250 0.961 . S
H252 C250 0.961 . S
H253 C250 0.960 1_556 S
C254 N255 1.342 . S
C254 C258 1.401 . S
C254 C259 1.499 . S
N255 Co238 1.989 1_455 S
N255 C254 1.342 . S
N255 N256 1.388 . S
N256 Co239 1.993 . S
N256 N255 1.388 . S
N256 C257 1.346 . S
C257 N256 1.346 . S
C257 C258 1.396 . S
C257 C267 1.510 . S
C258 C254 1.401 . S
C258 C257 1.396 . S
C259 C254 1.499 . S
C259 H260 0.959 . S
C259 H261 0.960 . S
C259 H262 0.961 . S
H260 C259 0.959 . S
H261 C259 0.960 . S
H262 C259 0.961 . S
O263 Co238 1.967 . S
O263 C271 1.258 1_655 S
O264 Co239 1.941 . S
O264 C271 1.266 . S
H265 C267 0.959 . S
H266 C267 0.961 . S
C267 C257 1.510 . S
C267 H265 0.959 . S
C267 H266 0.961 . S
C267 H268 0.960 . S
H268 C267 0.960 . S
H269 N249 0.862 . S
O270 Co238 1.920 . S
O270 C243 1.289 . S
C271 O263 1.258 1_455 S
C271 O264 1.266 . S
C272 C273 1.387 . S
C272 H276 0.950 . S
C272 C281 1.390 . S
C273 C272 1.387 . S
C273 C275 1.387 . S
H274 C281 0.950 . S
C275 C273 1.387 . S
C275 C277 1.390 . S
C275 H279 0.950 . S
H276 C272 0.950 . S
C277 C275 1.390 . S
C277 C278 1.387 . S
C277 H280 0.950 . S
C278 C277 1.387 . S
C278 C281 1.387 . S
H279 C275 0.950 . S
H280 C277 0.950 . S
C281 C272 1.390 . S
C281 H274 0.950 . S
C281 C278 1.387 . S
C282 C283 1.387 . S
C282 H286 0.950 . S
C282 C291 1.390 . S
C283 C282 1.387 . S
C283 C285 1.387 . S
H284 C291 0.950 . S
C285 C283 1.387 . S
C285 C287 1.390 . S
C285 H289 0.950 . S
H286 C282 0.950 . S
C287 C285 1.390 . S
C287 C288 1.387 . S
C287 H290 0.950 . S
C288 C287 1.387 . S
C288 C291 1.387 . S
H289 C285 0.950 . S
H290 C287 0.950 . S
C291 C282 1.390 . S
C291 H284 0.950 . S
C291 C288 1.387 . S
C292 C293 1.387 . S
C292 H296 0.950 . S
C292 C301 1.390 . S
C293 C292 1.387 . S
C293 C295 1.387 . S
H294 C301 0.950 . S
C295 C293 1.387 . S
C295 C297 1.390 . S
C295 H299 0.950 . S
H296 C292 0.950 . S
C297 C295 1.390 . S
C297 C298 1.387 . S
C297 H300 0.950 . S
C298 C297 1.387 . S
C298 C301 1.387 . S
H299 C295 0.950 . S
H300 C297 0.950 . S
C301 C292 1.390 . S
C301 H294 0.950 . S
C301 C298 1.387 . S
C302 C303 1.387 . S
C302 H306 0.950 . S
C302 C311 1.390 . S
C303 C302 1.387 . S
C303 C305 1.387 . S
H304 C311 0.950 . S
C305 C303 1.387 . S
C305 C307 1.390 . S
C305 H309 0.950 . S
H306 C302 0.950 . S
C307 C305 1.390 . S
C307 C308 1.387 . S
C307 H310 0.950 . S
C308 C307 1.387 . S
C308 C311 1.387 . S
H309 C305 0.950 . S
H310 C307 0.950 . S
C311 C302 1.390 . S
C311 H304 0.950 . S
C311 C308 1.387 . S
C312 C313 1.387 . S
C312 H316 0.950 . S
C312 C321 1.390 . S
C313 C312 1.387 . S
C313 C315 1.387 . S
H314 C321 0.950 . S
C315 C313 1.387 . S
C315 C317 1.390 . S
C315 H319 0.950 . S
H316 C312 0.950 . S
C317 C315 1.390 . S
C317 C318 1.387 . S
C317 H320 0.950 . S
C318 C317 1.387 . S
C318 C321 1.387 . S
H319 C315 0.950 . S
H320 C317 0.950 . S
C321 C312 1.390 . S
C321 H314 0.950 . S
C321 C318 1.387 . S
C322 C323 1.387 . S
C322 H326 0.950 . S
C322 C331 1.390 . S
C323 C322 1.387 . S
C323 C325 1.387 . S
H324 C331 0.950 . S
C325 C323 1.387 . S
C325 C327 1.390 . S
C325 H329 0.950 . S
H326 C322 0.950 . S
C327 C325 1.390 . S
C327 C328 1.387 . S
C327 H330 0.950 . S
C328 C327 1.387 . S
C328 C331 1.387 . S
H329 C325 0.950 . S
H330 C327 0.950 . S
C331 C322 1.390 . S
C331 H324 0.950 . S
C331 C328 1.387 . S
C332 C333 1.387 . S
C332 H336 0.950 . S
C332 C341 1.390 . S
C333 C332 1.387 . S
C333 C335 1.387 . S
H334 C341 0.950 . S
C335 C333 1.387 . S
C335 C337 1.390 . S
C335 H339 0.950 . S
H336 C332 0.950 . S
C337 C335 1.390 . S
C337 C338 1.387 . S
C337 H340 0.950 . S
C338 C337 1.387 . S
C338 C341 1.387 . S
H339 C335 0.950 . S
H340 C337 0.950 . S
C341 C332 1.390 . S
C341 H334 0.950 . S
C341 C338 1.387 . S
C342 C343 1.387 . S
C342 H346 0.950 . S
C342 C351 1.390 . S
C343 C342 1.387 . S
C343 C345 1.387 . S
H344 C351 0.950 . S
C345 C343 1.387 . S
C345 C347 1.390 . S
C345 H349 0.950 . S
H346 C342 0.950 . S
C347 C345 1.390 . S
C347 C348 1.387 . S
C347 H350 0.950 . S
C348 C347 1.387 . S
C348 C351 1.387 . S
H349 C345 0.950 . S
H350 C347 0.950 . S
C351 C342 1.390 . S
C351 H344 0.950 . S
C351 C348 1.387 . S
C352 C353 1.387 1_655 S
C352 H356 0.950 . S
C352 C361 1.390 1_655 S
C353 C352 1.387 1_455 S
C353 C355 1.387 . S
H354 C361 0.950 1_655 S
C355 C353 1.387 . S
C355 C357 1.390 . S
C355 H359 0.950 . S
H356 C352 0.950 . S
C357 C355 1.390 . S
C357 C358 1.387 . S
C357 H360 0.950 . S
C358 C357 1.387 . S
C358 C361 1.387 . S
H359 C355 0.950 . S
H360 C357 0.950 . S
C361 C352 1.390 1_455 S
C361 H354 0.950 1_455 S
C361 C358 1.387 . S
C362 C363 1.387 . S
C362 H366 0.950 . S
C362 C371 1.390 1_556 S
C363 C362 1.387 . S
C363 C365 1.387 . S
H364 C371 0.950 . S
C365 C363 1.387 . S
C365 C367 1.390 . S
C365 H369 0.950 . S
H366 C362 0.950 . S
C367 C365 1.390 . S
C367 C368 1.387 1_556 S
C367 H370 0.950 . S
C368 C367 1.387 1_554 S
C368 C371 1.387 . S
H369 C365 0.950 . S
H370 C367 0.950 . S
C371 C362 1.390 1_554 S
C371 H364 0.950 . S
C371 C368 1.387 . S
C372 C373 1.387 1_565 S
C372 H376 0.950 . S
C372 C381 1.390 . S
C373 C372 1.387 1_545 S
C373 C375 1.387 . S
H374 C381 0.950 . S
C375 C373 1.387 . S
C375 C377 1.390 1_545 S
C375 H379 0.950 . S
H376 C372 0.950 . S
C377 C375 1.390 1_565 S
C377 C378 1.387 . S
C377 H380 0.950 . S
C378 C377 1.387 . S
C378 C381 1.387 . S
H379 C375 0.950 . S
H380 C377 0.950 . S
C381 C372 1.390 . S
C381 H374 0.950 . S
C381 C378 1.387 . S
C382 C383 1.387 1_655 S
C382 H386 0.950 . S
C382 C391 1.390 1_564 S
C383 C382 1.387 1_455 S
C383 C385 1.387 . S
H384 C391 0.950 . S
C385 C383 1.387 . S
C385 C387 1.390 1_554 S
C385 H389 0.950 . S
H386 C382 0.950 . S
C387 C385 1.390 1_556 S
C387 C388 1.387 1_565 S
C387 H390 0.950 . S
C388 C387 1.387 1_545 S
C388 C391 1.387 1_455 S
H389 C385 0.950 . S
H390 C387 0.950 . S
C391 C382 1.390 1_546 S
C391 H384 0.950 . S
C391 C388 1.387 1_655 S
C392 C393 1.387 . S
C392 H396 0.950 . S
C392 C401 1.390 . S
C393 C392 1.387 . S
C393 C395 1.387 . S
H394 C401 0.950 . S
C395 C393 1.387 . S
C395 C397 1.390 . S
C395 H399 0.950 . S
H396 C392 0.950 . S
C397 C395 1.390 . S
C397 C398 1.387 . S
C397 H400 0.950 . S
C398 C397 1.387 . S
C398 C401 1.387 . S
H399 C395 0.950 . S
H400 C397 0.950 . S
C401 C392 1.390 . S
C401 H394 0.950 . S
C401 C398 1.387 . S
C402 C403 1.387 . S
C402 H406 0.950 . S
C402 C411 1.390 . S
C403 C402 1.387 . S
C403 C405 1.387 . S
H404 C411 0.950 . S
C405 C403 1.387 . S
C405 C407 1.390 1_556 S
C405 H409 0.956 . S
H406 C402 0.950 . S
C407 C405 1.390 1_554 S
C407 C408 1.387 1_554 S
C407 H410 0.950 . S
C408 C407 1.387 1_556 S
C408 C411 1.387 . S
H409 C405 0.956 . S
H410 C407 0.950 . S
C411 C402 1.390 . S
C411 H404 0.950 . S
C411 C408 1.387 . S
C412 C413 1.387 . S
C412 H416 0.950 . S
C412 C421 1.390 . S
C413 C412 1.387 . S
C413 C415 1.387 . S
H414 C421 0.950 . S
C415 C413 1.387 . S
C415 C417 1.390 . S
C415 H419 0.950 . S
H416 C412 0.950 . S
C417 C415 1.390 . S
C417 C418 1.387 . S
C417 H420 0.950 . S
C418 C417 1.387 . S
C418 C421 1.387 . S
H419 C415 0.950 . S
H420 C417 0.950 . S
C421 C412 1.390 . S
C421 H414 0.950 . S
C421 C418 1.387 . S
C422 C423 1.387 1_556 S
C422 H426 0.950 . S
C422 C431 1.390 . S
C423 C422 1.387 1_554 S
C423 C425 1.387 . S
H424 C431 0.950 . S
C425 C423 1.387 . S
C425 C427 1.390 . S
C425 H429 0.950 . S
H426 C422 0.950 . S
C427 C425 1.390 . S
C427 C428 1.387 . S
C427 H430 0.950 . S
C428 C427 1.387 . S
C428 C431 1.387 1_554 S
H429 C425 0.950 . S
H430 C427 0.950 . S
C431 C422 1.390 . S
C431 H424 0.950 . S
C431 C428 1.387 1_556 S
C432 C433 1.387 . S
C432 H436 0.950 . S
C432 C441 1.390 . S
C433 C432 1.387 . S
C433 C435 1.387 . S
H434 C441 0.950 . S
C435 C433 1.387 . S
C435 C437 1.390 . S
C435 H439 0.950 . S
H436 C432 0.950 . S
C437 C435 1.390 . S
C437 C438 1.387 . S
C437 H440 0.950 . S
C438 C437 1.387 . S
C438 C441 1.387 . S
H439 C435 0.950 . S
H440 C437 0.950 . S
C441 C432 1.390 . S
C441 H434 0.950 . S
C441 C438 1.387 . S
C442 C443 1.387 . S
C442 H446 0.950 . S
C442 C451 1.390 . S
C443 C442 1.387 . S
C443 C445 1.387 . S
H444 C451 0.950 . S
C445 C443 1.387 . S
C445 C447 1.390 . S
C445 H449 0.950 . S
H446 C442 0.950 . S
C447 C445 1.390 . S
C447 C448 1.387 . S
C447 H450 0.950 . S
C448 C447 1.387 . S
C448 C451 1.387 . S
H449 C445 0.950 . S
H450 C447 0.950 . S
C451 C442 1.390 . S
C451 H444 0.950 . S
C451 C448 1.387 . S
C452 C453 1.387 . S
C452 H456 0.950 . S
C452 C461 1.390 . S
C453 C452 1.387 . S
C453 C455 1.387 . S
H454 C461 0.950 . S
C455 C453 1.387 . S
C455 C457 1.390 . S
C455 H459 0.950 . S
H456 C452 0.950 . S
C457 C455 1.390 . S
C457 C458 1.387 . S
C457 H460 0.950 . S
C458 C457 1.387 . S
C458 C461 1.387 . S
H459 C455 0.950 . S
H460 C457 0.950 . S
C461 C452 1.390 . S
C461 H454 0.950 . S
C461 C458 1.387 . S
C462 C463 1.387 . S
C462 H466 0.950 . S
C462 C471 1.390 . S
C463 C462 1.387 . S
C463 C465 1.387 1_554 S
H464 C471 0.950 . S
C465 C463 1.387 1_556 S
C465 C467 1.390 . S
C465 H469 0.950 . S
H466 C462 0.950 . S
C467 C465 1.390 . S
C467 C468 1.387 1_556 S
C467 H470 0.950 . S
C468 C467 1.387 1_554 S
C468 C471 1.387 . S
H469 C465 0.950 . S
H470 C467 0.950 . S
C471 C462 1.390 . S
C471 H464 0.950 . S
C471 C468 1.387 . S
C273 C5 1.700 . S
C278 C107 1.656 . S
C283 C39 1.464 . S
C288 C88 1.544 . S
C293 C77 1.546 . S
C298 C54 1.555 . S
C303 C122 1.401 . S
C308 C20 1.398 . S
C313 C141 1.700 . S
C318 C243 1.658 . S
C323 C224 1.544 . S
C328 C175 1.464 . S
C333 C190 1.556 . S
C338 C213 1.547 . S
C343 C258 1.401 . S
C348 C156 1.398 . S
C353 C101 1.679 . S
C358 C33 1.647 . S
C363 C67 1.543 . S
C368 C135 1.511 . S
C373 C237 1.679 . S
C378 C169 1.647 . S
C383 C271 1.509 . S
C388 C203 1.541 . S
C393 C2 1.959 . S
C398 C206 1.958 . S
C403 C36 1.271 . S
C408 C247 1.234 1_556 S
C413 C73 1.358 . S
C418 C145 1.396 . S
C423 C179 1.636 1_554 S
C428 C104 1.648 . S
C433 C70 1.958 . S
C438 C138 1.959 . S
C443 C111 1.232 1_556 S
C448 C172 1.271 . S
C453 C9 1.393 . S
C458 C209 1.360 . S
C463 C43 1.638 1_554 S
C468 C240 1.648 . S
