# Generated by pormake.
# Topology wjz, (5)-cn, num edge types: 1
# Building blocks:
#     Node 0, Type 0, BuildingBlock: XOMCOT_clean_sbu_0, # of connection points: 5
#     Node 1, Type 0, BuildingBlock: XOMCOT_clean_sbu_0, # of connection points: 5
#     Node 2, Type 0, BuildingBlock: XOMCOT_clean_sbu_0, # of connection points: 5
#     Node 3, Type 0, BuildingBlock: XOMCOT_clean_sbu_0, # of connection points: 5
#     Node 4, Type 0, BuildingBlock: XOMCOT_clean_sbu_0, # of connection points: 5
#     Node 5, Type 0, BuildingBlock: XOMCOT_clean_sbu_0, # of connection points: 5
#     Node 6, Type 0, BuildingBlock: XOMCOT_clean_sbu_0, # of connection points: 5
#     Node 7, Type 0, BuildingBlock: XOMCOT_clean_sbu_0, # of connection points: 5
#     Node 8, Type 0, BuildingBlock: XOMCOT_clean_sbu_0, # of connection points: 5
#     Node 9, Type 0, BuildingBlock: XOMCOT_clean_sbu_0, # of connection points: 5
#     Node 10, Type 0, BuildingBlock: XOMCOT_clean_sbu_0, # of connection points: 5
#     Node 11, Type 0, BuildingBlock: XOMCOT_clean_sbu_0, # of connection points: 5
#     Edge 12, Type (0, 0), BuildingBlock: UVAHIK_clean_linker_0, # of connection points: 2
#     Edge 13, Type (0, 0), BuildingBlock: UVAHIK_clean_linker_0, # of connection points: 2
#     Edge 14, Type (0, 0), BuildingBlock: UVAHIK_clean_linker_0, # of connection points: 2
#     Edge 15, Type (0, 0), BuildingBlock: UVAHIK_clean_linker_0, # of connection points: 2
#     Edge 16, Type (0, 0), BuildingBlock: UVAHIK_clean_linker_0, # of connection points: 2
#     Edge 17, Type (0, 0), BuildingBlock: UVAHIK_clean_linker_0, # of connection points: 2
#     Edge 18, Type (0, 0), BuildingBlock: UVAHIK_clean_linker_0, # of connection points: 2
#     Edge 19, Type (0, 0), BuildingBlock: UVAHIK_clean_linker_0, # of connection points: 2
#     Edge 20, Type (0, 0), BuildingBlock: UVAHIK_clean_linker_0, # of connection points: 2
#     Edge 21, Type (0, 0), BuildingBlock: UVAHIK_clean_linker_0, # of connection points: 2
#     Edge 22, Type (0, 0), BuildingBlock: UVAHIK_clean_linker_0, # of connection points: 2
#     Edge 23, Type (0, 0), BuildingBlock: UVAHIK_clean_linker_0, # of connection points: 2
#     Edge 24, Type (0, 0), BuildingBlock: UVAHIK_clean_linker_0, # of connection points: 2
#     Edge 25, Type (0, 0), BuildingBlock: UVAHIK_clean_linker_0, # of connection points: 2
#     Edge 26, Type (0, 0), BuildingBlock: UVAHIK_clean_linker_0, # of connection points: 2
#     Edge 27, Type (0, 0), BuildingBlock: UVAHIK_clean_linker_0, # of connection points: 2
#     Edge 28, Type (0, 0), BuildingBlock: UVAHIK_clean_linker_0, # of connection points: 2
#     Edge 29, Type (0, 0), BuildingBlock: UVAHIK_clean_linker_0, # of connection points: 2
#     Edge 30, Type (0, 0), BuildingBlock: UVAHIK_clean_linker_0, # of connection points: 2
#     Edge 31, Type (0, 0), BuildingBlock: UVAHIK_clean_linker_0, # of connection points: 2
#     Edge 32, Type (0, 0), BuildingBlock: UVAHIK_clean_linker_0, # of connection points: 2
#     Edge 33, Type (0, 0), BuildingBlock: UVAHIK_clean_linker_0, # of connection points: 2
#     Edge 34, Type (0, 0), BuildingBlock: UVAHIK_clean_linker_0, # of connection points: 2
#     Edge 35, Type (0, 0), BuildingBlock: UVAHIK_clean_linker_0, # of connection points: 2
#     Edge 36, Type (0, 0), BuildingBlock: UVAHIK_clean_linker_0, # of connection points: 2
#     Edge 37, Type (0, 0), BuildingBlock: UVAHIK_clean_linker_0, # of connection points: 2
#     Edge 38, Type (0, 0), BuildingBlock: UVAHIK_clean_linker_0, # of connection points: 2
#     Edge 39, Type (0, 0), BuildingBlock: UVAHIK_clean_linker_0, # of connection points: 2
#     Edge 40, Type (0, 0), BuildingBlock: UVAHIK_clean_linker_0, # of connection points: 2
#     Edge 41, Type (0, 0), BuildingBlock: UVAHIK_clean_linker_0, # of connection points: 2
# Relax obj value: 0.147
# Max RMSD: 0.179
# Mean RMSD: 0.179
data_MOF--net-wjz--node1-XOMCOT_clean_sbu_0--edge1-UVAHIK_clean_linker_0
_symmetry_space_group_name_H-M    P1
_symmetry_Int_Tables_number       1
_symmetry_cell_setting            triclinic
loop_
_symmetry_equiv_pos_as_xyz
'x, y, z'
_cell_length_a     92.504229
_cell_length_b     92.549883
_cell_length_c     21.947239
_cell_angle_alpha  90.001581
_cell_angle_beta   89.984524
_cell_angle_gamma 120.04225
loop_
_atom_site_label
_atom_site_type_symbol
_atom_site_fract_x
_atom_site_fract_y
_atom_site_fract_z
_atom_type_partial_charge
Co0 Co 0.32558 0.47 0.06712 0.0
C1 C 0.32916 0.47378 0.20237 0.0
C2 C 0.34507 0.49661 0.15561 0.0
C3 C 0.34657 0.49979 0.21712 0.0
N4 N 0.33458 0.48015 0.14612 0.0
N5 N 0.33655 0.48539 0.24647 0.0
H6 H 0.31897 0.46138 0.21118 0.0
H7 H 0.35068 0.50592 0.12018 0.0
C8 C 0.36207 0.48999 0.04628 0.0
O9 O 0.36363 0.48238 0.09428 0.0
N10 N 0.31638 0.4604 0.98893 0.0
C11 C 0.30475 0.4444 0.97809 0.0
C12 C 0.30204 0.44232 0.9163 0.0
C13 C 0.32051 0.46791 0.93405 0.0
N14 N 0.31198 0.45709 0.88869 0.0
C15 C 0.3266 0.44242 0.12361 0.0
C16 C 0.34741 0.44017 0.0385 0.0
C17 C 0.34282 0.43003 0.09037 0.0
C18 C 0.33193 0.43091 0.13245 0.0
C19 C 0.34191 0.45164 0.0319 0.0
N20 N 0.33255 0.45344 0.0763 0.0
H21 H 0.31741 0.44214 0.15417 0.0
H22 H 0.34544 0.4593 0.99138 0.0
H23 H 0.29887 0.43487 0.01269 0.0
H24 H 0.3299 0.48086 0.92741 0.0
O25 O 0.30369 0.45755 0.10223 0.0
O26 O 0.31468 0.48313 0.06371 0.0
O27 O 0.34753 0.48638 0.02767 0.0
C28 C 0.3022 0.47053 0.09081 0.0
H29 H 0.35412 0.51185 0.23833 0.0
H30 H 0.2934 0.4308 0.89354 0.0
H31 H 0.35552 0.43959 0.0042 0.0
H32 H 0.32747 0.42268 0.17159 0.0
Co33 Co 0.85141 0.32656 0.24227 0.0
C34 C 0.85051 0.32972 0.37575 0.0
C35 C 0.84296 0.34538 0.32995 0.0
C36 C 0.84217 0.34729 0.39193 0.0
N37 N 0.8483 0.33445 0.32 0.0
N38 N 0.84683 0.33737 0.42049 0.0
H39 H 0.85476 0.32089 0.38339 0.0
H40 H 0.83963 0.35137 0.29482 0.0
C41 C 0.86558 0.35684 0.16284 0.0
O42 O 0.87676 0.35309 0.14362 0.0
N43 N 0.85402 0.31831 0.16355 0.0
C44 C 0.86041 0.30831 0.15129 0.0
C45 C 0.86006 0.30586 0.08938 0.0
C46 C 0.84896 0.3209 0.10883 0.0
N47 N 0.85297 0.31388 0.06275 0.0
C48 C 0.88192 0.32686 0.27172 0.0
C49 C 0.90127 0.36097 0.28708 0.0
C50 C 0.90885 0.35116 0.29176 0.0
C51 C 0.89885 0.33383 0.28538 0.0
C52 C 0.88431 0.35345 0.27348 0.0
N53 N 0.8751 0.33674 0.26143 0.0
H54 H 0.87425 0.31349 0.27152 0.0
H55 H 0.87861 0.36116 0.27315 0.0
H56 H 0.86469 0.3027 0.18423 0.0
H57 H 0.84292 0.32823 0.10254 0.0
O58 O 0.84373 0.30486 0.27733 0.0
O59 O 0.82752 0.31324 0.23361 0.0
O60 O 0.85466 0.34761 0.20227 0.0
C61 C 0.82879 0.30163 0.26254 0.0
H62 H 0.83805 0.35504 0.41428 0.0
H63 H 0.86458 0.29863 0.06575 0.0
H64 H 0.90838 0.37437 0.29331 0.0
H65 H 0.90398 0.32569 0.29215 0.0
Co66 Co 0.52216 0.85054 0.39833 0.0
C67 C 0.51843 0.85125 0.53148 0.0
C68 C 0.49492 0.84195 0.48564 0.0
C69 C 0.4922 0.84127 0.54749 0.0
N70 N 0.51136 0.84827 0.47584 0.0
N71 N 0.50699 0.84706 0.57634 0.0
H72 H 0.53159 0.85584 0.53871 0.0
H73 H 0.4855 0.83776 0.45044 0.0
C74 C 0.50664 0.86624 0.32367 0.0
O75 O 0.52167 0.87766 0.30604 0.0
N76 N 0.53268 0.85203 0.31962 0.0
C77 C 0.54766 0.85326 0.30915 0.0
C78 C 0.54983 0.85256 0.24748 0.0
C79 C 0.52556 0.84944 0.26391 0.0
N80 N 0.53592 0.85022 0.21911 0.0
C81 C 0.55339 0.88138 0.41196 0.0
C82 C 0.53951 0.9002 0.45063 0.0
C83 C 0.55685 0.9078 0.44479 0.0
C84 C 0.56382 0.89824 0.42541 0.0
C85 C 0.52952 0.8834 0.43548 0.0
N86 N 0.53644 0.87429 0.41445 0.0
H87 H 0.55907 0.87403 0.4017 0.0
H88 H 0.51616 0.87766 0.44113 0.0
H89 H 0.55622 0.85376 0.34364 0.0
H90 H 0.51292 0.84672 0.25599 0.0
O91 O 0.53572 0.84261 0.43506 0.0
O92 O 0.51085 0.82655 0.39256 0.0
O93 O 0.50471 0.85438 0.35871 0.0
C94 C 0.52364 0.8277 0.42194 0.0
H95 H 0.48021 0.83672 0.56931 0.0
H96 H 0.56056 0.85311 0.2254 0.0
H97 H 0.53372 0.9072 0.46647 0.0
H98 H 0.57724 0.90362 0.42254 0.0
Co99 Co 0.66873 0.5259 0.57687 0.0
C100 C 0.66468 0.5223 0.71203 0.0
C101 C 0.64881 0.49945 0.66542 0.0
C102 C 0.64717 0.49634 0.72699 0.0
N103 N 0.65937 0.51588 0.65575 0.0
N104 N 0.65718 0.51075 0.75625 0.0
H105 H 0.6749 0.53469 0.7208 0.0
H106 H 0.6433 0.49009 0.63013 0.0
C107 C 0.63234 0.50585 0.55385 0.0
O108 O 0.63052 0.5135 0.60118 0.0
N109 N 0.67831 0.5354 0.49888 0.0
C110 C 0.69009 0.55136 0.48821 0.0
C111 C 0.69287 0.55347 0.42644 0.0
C112 C 0.67414 0.52796 0.44389 0.0
N113 N 0.6828 0.53877 0.39864 0.0
C114 C 0.66746 0.55354 0.63153 0.0
C115 C 0.64704 0.5557 0.54452 0.0
C116 C 0.6514 0.56592 0.59616 0.0
C117 C 0.66211 0.56507 0.6392 0.0
C118 C 0.65255 0.54422 0.53906 0.0
N119 N 0.66173 0.54247 0.58434 0.0
H120 H 0.67648 0.55383 0.66293 0.0
H121 H 0.64919 0.53652 0.49872 0.0
H122 H 0.69598 0.56086 0.52287 0.0
H123 H 0.66459 0.51507 0.43702 0.0
O124 O 0.69045 0.53837 0.6133 0.0
O125 O 0.67963 0.51275 0.57543 0.0
O126 O 0.64699 0.50947 0.53644 0.0
C127 C 0.69196 0.52535 0.60318 0.0
H128 H 0.63958 0.48429 0.74831 0.0
H129 H 0.70158 0.56498 0.40381 0.0
H130 H 0.63908 0.55625 0.5095 0.0
H131 H 0.66641 0.57335 0.67823 0.0
Co132 Co 0.14124 0.66922 0.7426 0.0
C133 C 0.1408 0.66526 0.8777 0.0
C134 C 0.14987 0.65107 0.83113 0.0
C135 C 0.15136 0.6495 0.89272 0.0
N136 N 0.14277 0.66056 0.82152 0.0
N137 N 0.14571 0.6585 0.92185 0.0
H138 H 0.13675 0.67411 0.88661 0.0
H139 H 0.15443 0.64626 0.79568 0.0
C140 C 0.12544 0.63266 0.72432 0.0
O141 O 0.11661 0.63097 0.77348 0.0
N142 N 0.1404 0.67802 0.66428 0.0
C143 C 0.13552 0.68922 0.6527 0.0
C144 C 0.13623 0.69183 0.59079 0.0
C145 C 0.14409 0.674 0.60986 0.0
N146 N 0.14159 0.68222 0.56397 0.0
C147 C 0.11313 0.66959 0.79707 0.0
C148 C 0.0893 0.64675 0.71862 0.0
C149 C 0.08418 0.65303 0.767 0.0
C150 C 0.09641 0.66493 0.8056 0.0
C151 C 0.10617 0.65184 0.71168 0.0
N152 N 0.11773 0.66224 0.7532 0.0
H153 H 0.12237 0.67956 0.82453 0.0
H154 H 0.10991 0.64739 0.67265 0.0
H155 H 0.13145 0.69485 0.68682 0.0
H156 H 0.14852 0.66526 0.60414 0.0
O157 O 0.1509 0.69126 0.77662 0.0
O158 O 0.16526 0.68013 0.73743 0.0
O159 O 0.13573 0.64723 0.70405 0.0
C160 C 0.16532 0.69272 0.76424 0.0
H161 H 0.15703 0.64303 0.91423 0.0
H162 H 0.13262 0.69982 0.56732 0.0
H163 H 0.08037 0.63782 0.68672 0.0
H164 H 0.09313 0.67081 0.84147 0.0
Co165 Co 0.47166 0.14453 0.90509 0.0
C166 C 0.47585 0.14476 0.03808 0.0
C167 C 0.4994 0.155 0.99174 0.0
C168 C 0.50226 0.15618 0.05363 0.0
N169 N 0.48285 0.14781 0.98227 0.0
N170 N 0.48744 0.14979 0.08274 0.0
H171 H 0.4626 0.13954 0.0456 0.0
H172 H 0.50876 0.15944 0.95625 0.0
C173 C 0.48754 0.12987 0.82659 0.0
O174 O 0.47261 0.11868 0.80729 0.0
N175 N 0.46061 0.14177 0.82685 0.0
C176 C 0.44435 0.13645 0.81578 0.0
C177 C 0.44208 0.13701 0.75409 0.0
C178 C 0.46809 0.14635 0.7717 0.0
N179 N 0.457 0.14311 0.7263 0.0
C180 C 0.44123 0.11454 0.93654 0.0
C181 C 0.45535 0.09461 0.95139 0.0
C182 C 0.43806 0.08752 0.95763 0.0
C183 C 0.43103 0.09776 0.95184 0.0
C184 C 0.46508 0.1115 0.93718 0.0
N185 N 0.45786 0.12098 0.92538 0.0
H186 H 0.43575 0.12241 0.93557 0.0
H187 H 0.47847 0.11694 0.93646 0.0
H188 H 0.43474 0.13298 0.84957 0.0
H189 H 0.48138 0.15176 0.76483 0.0
O190 O 0.45802 0.15266 0.94009 0.0
O191 O 0.48256 0.16839 0.89508 0.0
O192 O 0.48924 0.14089 0.86545 0.0
C193 C 0.46986 0.16744 0.92431 0.0
H194 H 0.51436 0.16148 0.07534 0.0
H195 H 0.43036 0.13351 0.73164 0.0
H196 H 0.46132 0.08723 0.95856 0.0
H197 H 0.41778 0.09283 0.95866 0.0
Co198 Co 0.52335 0.66993 0.76393 0.0
C199 C 0.51958 0.66619 0.631 0.0
C200 C 0.49596 0.65217 0.67646 0.0
C201 C 0.49327 0.65053 0.61448 0.0
N202 N 0.51245 0.66193 0.6865 0.0
N203 N 0.50813 0.65941 0.58601 0.0
H204 H 0.53285 0.67425 0.62391 0.0
H205 H 0.48651 0.64704 0.71162 0.0
C206 C 0.50783 0.63939 0.8427 0.0
O207 O 0.52276 0.64358 0.86342 0.0
N208 N 0.53405 0.67824 0.84246 0.0
C209 C 0.5503 0.68879 0.85517 0.0
C210 C 0.55207 0.69171 0.91692 0.0
C211 C 0.52612 0.67556 0.89651 0.0
N212 N 0.53685 0.68327 0.94292 0.0
C213 C 0.55423 0.67161 0.73138 0.0
C214 C 0.54144 0.63766 0.71856 0.0
C215 C 0.55857 0.64847 0.71047 0.0
C216 C 0.56491 0.66566 0.71541 0.0
C217 C 0.53118 0.64418 0.73335 0.0
N218 N 0.53778 0.66087 0.74397 0.0
H219 H 0.55918 0.68489 0.73176 0.0
H220 H 0.51788 0.63574 0.73502 0.0
H221 H 0.56031 0.69442 0.82257 0.0
H222 H 0.51271 0.66816 0.90167 0.0
O223 O 0.53662 0.69187 0.72969 0.0
O224 O 0.51185 0.68234 0.77363 0.0
O225 O 0.50605 0.64845 0.80287 0.0
C226 C 0.52448 0.69438 0.74506 0.0
H227 H 0.48124 0.64385 0.59221 0.0
H228 H 0.56371 0.69928 0.94081 0.0
H229 H 0.53599 0.62433 0.71216 0.0
H230 H 0.578 0.67444 0.70732 0.0
Co231 Co 0.8521 0.52512 0.92526 0.0
C232 C 0.85225 0.52115 0.79005 0.0
C233 C 0.8414 0.49784 0.83753 0.0
C234 C 0.83996 0.49463 0.77603 0.0
N235 N 0.84948 0.5145 0.8465 0.0
N236 N 0.8468 0.50933 0.74626 0.0
H237 H 0.85706 0.53416 0.78057 0.0
H238 H 0.83644 0.48859 0.87341 0.0
C239 C 0.8673 0.50371 0.93962 0.0
O240 O 0.87544 0.51039 0.88875 0.0
N241 N 0.85408 0.53524 0.00353 0.0
C242 C 0.85955 0.55149 0.01437 0.0
C243 C 0.85978 0.55381 0.07635 0.0
C244 C 0.8509 0.52784 0.0585 0.0
N245 N 0.85435 0.53894 0.10394 0.0
C246 C 0.87955 0.55351 0.86783 0.0
C247 C 0.90446 0.55391 0.9384 0.0
C248 C 0.90892 0.56539 0.89048 0.0
C249 C 0.89616 0.56539 0.8561 0.0
C250 C 0.88766 0.54233 0.94873 0.0
N251 N 0.87552 0.54141 0.91074 0.0
H252 H 0.86995 0.55443 0.84344 0.0
H253 H 0.88448 0.53414 0.98758 0.0
H254 H 0.86331 0.561 0.97963 0.0
H255 H 0.84656 0.5147 0.0651 0.0
O256 O 0.84225 0.53753 0.89312 0.0
O257 O 0.82813 0.51227 0.93436 0.0
O258 O 0.85773 0.50858 0.96241 0.0
C259 C 0.82792 0.52473 0.90763 0.0
H260 H 0.83409 0.48241 0.75503 0.0
H261 H 0.86359 0.56554 0.09927 0.0
H262 H 0.91382 0.55367 0.9673 0.0
H263 H 0.89894 0.57464 0.82099 0.0
Co264 Co 0.32516 0.85383 0.09116 0.0
C265 C 0.32906 0.85403 0.95599 0.0
C266 C 0.34514 0.84734 0.0026 0.0
C267 C 0.34672 0.8458 0.94103 0.0
N268 N 0.33448 0.85309 0.01225 0.0
N269 N 0.33659 0.85002 0.91178 0.0
H270 H 0.31873 0.85604 0.94728 0.0
H271 H 0.35076 0.84362 0.03789 0.0
C272 C 0.36155 0.87016 0.11444 0.0
O273 O 0.36343 0.87967 0.06715 0.0
N274 N 0.31563 0.85382 0.16917 0.0
C275 C 0.3039 0.85805 0.1799 0.0
C276 C 0.30111 0.85735 0.24167 0.0
C277 C 0.31975 0.85047 0.22412 0.0
N278 N 0.31112 0.85264 0.26941 0.0
C279 C 0.32691 0.88291 0.03566 0.0
C280 C 0.34732 0.90538 0.12301 0.0
C281 C 0.34344 0.91135 0.07055 0.0
C282 C 0.33269 0.89987 0.02739 0.0
C283 C 0.3414 0.88832 0.12902 0.0
N284 N 0.33228 0.87744 0.08353 0.0
H285 H 0.31793 0.87424 0.00396 0.0
H286 H 0.34452 0.8839 0.16973 0.0
H287 H 0.29805 0.86172 0.14527 0.0
H288 H 0.32925 0.84707 0.23092 0.0
O289 O 0.30344 0.84462 0.05482 0.0
O290 O 0.3142 0.82978 0.09285 0.0
O291 O 0.34689 0.8591 0.13159 0.0
C292 C 0.30188 0.83007 0.06518 0.0
H293 H 0.35438 0.84143 0.91973 0.0
H294 H 0.29242 0.86017 0.26432 0.0
H295 H 0.35531 0.91385 0.15807 0.0
H296 H 0.32879 0.90397 0.98762 0.0
Co297 Co 0.47157 0.32683 0.26109 0.0
C298 C 0.47517 0.33087 0.12814 0.0
C299 C 0.4988 0.34503 0.17331 0.0
C300 C 0.50142 0.34676 0.1113 0.0
N301 N 0.48234 0.33512 0.18356 0.0
N302 N 0.48656 0.33778 0.08301 0.0
H303 H 0.46192 0.32267 0.12119 0.0
H304 H 0.50829 0.35017 0.2083 0.0
C305 C 0.48727 0.35711 0.34105 0.0
O306 O 0.47235 0.35292 0.36189 0.0
N307 N 0.46101 0.31822 0.33968 0.0
C308 C 0.44482 0.30745 0.35245 0.0
C309 C 0.44312 0.30442 0.41414 0.0
C310 C 0.46899 0.3209 0.3936 0.0
N311 N 0.45834 0.31302 0.44004 0.0
C312 C 0.44069 0.32538 0.23101 0.0
C313 C 0.45358 0.35935 0.21847 0.0
C314 C 0.43643 0.34859 0.21067 0.0
C315 C 0.43004 0.33139 0.21564 0.0
C316 C 0.46382 0.35276 0.23267 0.0
N317 N 0.45719 0.33605 0.24299 0.0
H318 H 0.43568 0.31209 0.23113 0.0
H319 H 0.47714 0.36115 0.23401 0.0
H320 H 0.43481 0.30173 0.31991 0.0
H321 H 0.48239 0.32845 0.3987 0.0
O322 O 0.45813 0.30508 0.22588 0.0
O323 O 0.48298 0.31425 0.26868 0.0
O324 O 0.48901 0.34814 0.30071 0.0
C325 C 0.47022 0.30239 0.24001 0.0
H326 H 0.51343 0.35354 0.08887 0.0
H327 H 0.43152 0.29669 0.43808 0.0
H328 H 0.45907 0.37269 0.21208 0.0
H329 H 0.41692 0.32265 0.2078 0.0
Co330 Co 0.1442 0.47285 0.42583 0.0
C331 C 0.14396 0.47687 0.29281 0.0
C332 C 0.15378 0.50039 0.33894 0.0
C333 C 0.15474 0.50319 0.27704 0.0
N334 N 0.14697 0.4839 0.34857 0.0
N335 N 0.14863 0.48839 0.24804 0.0
H336 H 0.13902 0.46366 0.28544 0.0
H337 H 0.15812 0.50978 0.37431 0.0
C338 C 0.12911 0.48842 0.50326 0.0
O339 O 0.11785 0.47337 0.5213 0.0
N340 N 0.14209 0.46199 0.50421 0.0
C341 C 0.1389 0.44628 0.51477 0.0
C342 C 0.1396 0.44405 0.57643 0.0
C343 C 0.14578 0.46934 0.5597 0.0
N344 N 0.14383 0.45855 0.60468 0.0
C345 C 0.11337 0.44209 0.40393 0.0
C346 C 0.09451 0.45687 0.37784 0.0
C347 C 0.08671 0.43942 0.37822 0.0
C348 C 0.09643 0.43204 0.39043 0.0
C349 C 0.11145 0.46641 0.39152 0.0
N350 N 0.12049 0.45901 0.40789 0.0
H351 H 0.12079 0.43623 0.40907 0.0
H352 H 0.11731 0.47984 0.38886 0.0
H353 H 0.13707 0.43718 0.48048 0.0
H354 H 0.1499 0.48237 0.56721 0.0
O355 O 0.15209 0.45918 0.38941 0.0
O356 O 0.16814 0.48379 0.43341 0.0
O357 O 0.14058 0.49038 0.46606 0.0
C358 C 0.167 0.47107 0.40373 0.0
H359 H 0.15973 0.51525 0.25529 0.0
H360 H 0.13767 0.43276 0.59855 0.0
H361 H 0.08758 0.46316 0.36768 0.0
H362 H 0.0911 0.41863 0.38826 0.0
Co363 Co 0.66898 0.14107 0.59126 0.0
C364 C 0.66455 0.14032 0.45613 0.0
C365 C 0.65248 0.15166 0.50298 0.0
C366 C 0.65077 0.15304 0.44146 0.0
N367 N 0.66075 0.14329 0.51242 0.0
N368 N 0.6584 0.14593 0.41205 0.0
H369 H 0.67267 0.13538 0.44703 0.0
H370 H 0.64848 0.15698 0.53853 0.0
C371 C 0.63264 0.12716 0.60794 0.0
O372 O 0.63079 0.11842 0.55839 0.0
N373 N 0.67743 0.13953 0.66949 0.0
C374 C 0.68809 0.1339 0.6802 0.0
C375 C 0.69029 0.13374 0.74209 0.0
C376 C 0.67336 0.14284 0.72453 0.0
N377 N 0.681 0.13933 0.76981 0.0
C378 C 0.66765 0.11202 0.53752 0.0
C379 C 0.64365 0.08905 0.61523 0.0
C380 C 0.6496 0.08326 0.56782 0.0
C381 C 0.66211 0.09507 0.52969 0.0
C382 C 0.64975 0.10611 0.62193 0.0
N383 N 0.66069 0.11729 0.58064 0.0
H384 H 0.67794 0.12089 0.51019 0.0
H385 H 0.64561 0.11027 0.66063 0.0
H386 H 0.6936 0.12989 0.64542 0.0
H387 H 0.6646 0.14723 0.73134 0.0
O388 O 0.69091 0.1496 0.55714 0.0
O389 O 0.68111 0.16512 0.59651 0.0
O390 O 0.64727 0.13676 0.62945 0.0
C391 C 0.69324 0.16436 0.56939 0.0
H392 H 0.6447 0.15915 0.42021 0.0
H393 H 0.69808 0.12976 0.7649 0.0
H394 H 0.63422 0.08055 0.64672 0.0
H395 H 0.66782 0.09132 0.49468 0.0
C396 C 0.3361 0.49633 0.349 0.0
C397 C 0.33349 0.48298 0.31109 0.0
C398 C 0.33321 0.49395 0.41166 0.0
C399 C 0.31062 0.46123 0.52686 0.0
H400 H 0.34294 0.49362 0.63929 0.0
C401 C 0.31024 0.44748 0.78256 0.0
C402 C 0.31372 0.46037 0.82414 0.0
C403 C 0.31212 0.45063 0.72006 0.0
C404 C 0.33367 0.48458 0.60851 0.0
H405 H 0.32602 0.45673 0.30963 0.0
H406 H 0.32092 0.45255 0.41878 0.0
H407 H 0.34718 0.49842 0.52979 0.0
H408 H 0.32166 0.48665 0.83244 0.0
H409 H 0.32492 0.49218 0.72311 0.0
H410 H 0.29714 0.44735 0.60543 0.0
C411 C 0.32496 0.46481 0.39988 0.0
C412 C 0.33611 0.48732 0.5458 0.0
C413 C 0.32789 0.4672 0.33731 0.0
C414 C 0.31909 0.4765 0.80169 0.0
C415 C 0.32095 0.47966 0.73906 0.0
C416 C 0.30816 0.45851 0.58951 0.0
C417 C 0.32761 0.47816 0.43775 0.0
C418 C 0.32469 0.4756 0.50432 0.0
C419 C 0.31751 0.46676 0.69756 0.0
C420 C 0.31974 0.47007 0.63105 0.0
H421 H 0.34017 0.50859 0.33028 0.0
H422 H 0.33516 0.50442 0.43958 0.0
H423 H 0.30144 0.45212 0.49603 0.0
H424 H 0.30638 0.43498 0.79829 0.0
H425 H 0.30967 0.44048 0.68941 0.0
C426 C 0.86413 0.31737 0.95842 0.0
C427 C 0.85157 0.31588 0.99831 0.0
C428 C 0.8632 0.31985 0.89612 0.0
C429 C 0.8344 0.31276 0.77198 0.0
H430 H 0.87284 0.34893 0.69131 0.0
C431 C 0.84269 0.31925 0.50924 0.0
C432 C 0.8472 0.33504 0.48523 0.0
C433 C 0.84267 0.31692 0.57225 0.0
C434 C 0.86201 0.33882 0.71329 0.0
H435 H 0.82806 0.31558 0.00419 0.0
H436 H 0.8262 0.31955 0.89436 0.0
H437 H 0.8737 0.34482 0.80115 0.0
H438 H 0.85547 0.36078 0.50805 0.0
H439 H 0.85581 0.3568 0.61826 0.0
H440 H 0.82285 0.30656 0.68375 0.0
C441 C 0.83683 0.31892 0.91175 0.0
C442 C 0.86253 0.33642 0.77596 0.0
C443 C 0.83793 0.31675 0.97444 0.0
C444 C 0.85185 0.34847 0.52541 0.0
C445 C 0.85212 0.34622 0.58832 0.0
C446 C 0.834 0.31498 0.70903 0.0
C447 C 0.84954 0.32064 0.87213 0.0
C448 C 0.84874 0.32337 0.80592 0.0
C449 C 0.84746 0.33041 0.61237 0.0
C450 C 0.8478 0.32804 0.67912 0.0
H451 H 0.87489 0.31696 0.97564 0.0
H452 H 0.87312 0.32105 0.86654 0.0
H453 H 0.82365 0.30256 0.79397 0.0
H454 H 0.8389 0.30866 0.4793 0.0
H455 H 0.83911 0.30463 0.5896 0.0
C456 C 0.51667 0.83988 0.13102 0.0
C457 C 0.53295 0.84918 0.15441 0.0
C458 C 0.51381 0.83936 0.06832 0.0
C459 C 0.53528 0.84758 0.91869 0.0
H460 H 0.49643 0.84912 0.86112 0.0
C461 C 0.52581 0.85811 0.6657 0.0
C462 C 0.50983 0.84762 0.64122 0.0
C463 C 0.52863 0.85829 0.72834 0.0
C464 C 0.50726 0.84855 0.87655 0.0
H465 H 0.55894 0.86535 0.13042 0.0
H466 H 0.55397 0.86465 0.02128 0.0
H467 H 0.50133 0.84922 0.97031 0.0
H468 H 0.4843 0.82904 0.66414 0.0
H469 H 0.4892 0.82961 0.77315 0.0
H470 H 0.54129 0.84714 0.82471 0.0
C471 C 0.54343 0.85744 0.05111 0.0
C472 C 0.51005 0.84855 0.93911 0.0
C473 C 0.54629 0.85786 0.11372 0.0
C474 C 0.49671 0.83748 0.68115 0.0
C475 C 0.49951 0.83776 0.74378 0.0
C476 C 0.53254 0.8477 0.85613 0.0
C477 C 0.52714 0.84822 0.0276 0.0
C478 C 0.52409 0.84805 0.96099 0.0
C479 C 0.51551 0.84811 0.768 0.0
C480 C 0.5185 0.84816 0.83442 0.0
H481 H 0.50616 0.83286 0.1611 0.0
H482 H 0.50114 0.83189 0.05174 0.0
H483 H 0.54606 0.84691 0.93387 0.0
H484 H 0.53615 0.86629 0.63666 0.0
H485 H 0.54105 0.86657 0.74585 0.0
C486 C 0.66591 0.529 0.84697 0.0
C487 C 0.66023 0.51319 0.82088 0.0
C488 C 0.66888 0.53143 0.90953 0.0
C489 C 0.65784 0.50897 0.05574 0.0
H490 H 0.69703 0.54882 0.11476 0.0
C491 C 0.67538 0.51946 0.31118 0.0
C492 C 0.68096 0.53559 0.33402 0.0
C493 C 0.67336 0.51638 0.24851 0.0
C494 C 0.68594 0.5377 0.09903 0.0
H495 H 0.65346 0.48757 0.84031 0.0
H496 H 0.65854 0.49179 0.94952 0.0
H497 H 0.69248 0.54411 0.00542 0.0
H498 H 0.68851 0.56107 0.30883 0.0
H499 H 0.68495 0.55572 0.19989 0.0
H500 H 0.65119 0.50264 0.14934 0.0
C501 C 0.66051 0.50226 0.92153 0.0
C502 C 0.68335 0.53501 0.0364 0.0
C503 C 0.65757 0.49984 0.85891 0.0
C504 C 0.6845 0.54857 0.29278 0.0
C505 C 0.68245 0.54549 0.23024 0.0
C506 C 0.66041 0.51168 0.11842 0.0
C507 C 0.6662 0.51808 0.94751 0.0
C508 C 0.66921 0.52067 0.01406 0.0
C509 C 0.67685 0.52937 0.20733 0.0
C510 C 0.67443 0.52613 0.14078 0.0
H511 H 0.66782 0.53947 0.8192 0.0
H512 H 0.67301 0.54371 0.92832 0.0
H513 H 0.64672 0.4979 0.03992 0.0
H514 H 0.67276 0.50924 0.34166 0.0
H515 H 0.66924 0.50386 0.23226 0.0
C516 C 0.14458 0.64908 0.02778 0.0
C517 C 0.14608 0.66134 0.98643 0.0
C518 C 0.14483 0.65175 0.09047 0.0
C519 C 0.13794 0.67706 0.20379 0.0
H520 H 0.16179 0.66306 0.31197 0.0
C521 C 0.14626 0.69345 0.4592 0.0
C522 C 0.14341 0.6805 0.49963 0.0
C523 C 0.14737 0.69154 0.39659 0.0
C524 C 0.15497 0.66691 0.28234 0.0
H525 H 0.14952 0.68623 0.97848 0.0
H526 H 0.14996 0.6909 0.08778 0.0
H527 H 0.1622 0.65889 0.20232 0.0
H528 H 0.1395 0.65539 0.50574 0.0
H529 H 0.14152 0.65212 0.39655 0.0
H530 H 0.13069 0.68505 0.28376 0.0
C531 C 0.14827 0.67908 0.07174 0.0
C532 C 0.15518 0.66451 0.21961 0.0
C533 C 0.14798 0.67639 0.00909 0.0
C534 C 0.14196 0.66571 0.47606 0.0
C535 C 0.1431 0.66381 0.41344 0.0
C536 C 0.13775 0.67949 0.26647 0.0
C537 C 0.14664 0.66677 0.11312 0.0
C538 C 0.14663 0.66952 0.17968 0.0
C539 C 0.14568 0.67666 0.37303 0.0
C540 C 0.14622 0.6744 0.30641 0.0
H541 H 0.14292 0.63729 0.01163 0.0
H542 H 0.14331 0.64192 0.12118 0.0
H543 H 0.13101 0.68081 0.17432 0.0
H544 H 0.14772 0.70511 0.4759 0.0
H545 H 0.14964 0.70177 0.3666 0.0
C546 C 0.47605 0.15637 0.63857 0.0
C547 C 0.4602 0.14481 0.66156 0.0
C548 C 0.4792 0.15754 0.57586 0.0
C549 C 0.45785 0.1465 0.42571 0.0
H550 H 0.49981 0.15168 0.3681 0.0
C551 C 0.46907 0.1378 0.17283 0.0
C552 C 0.48463 0.14932 0.14764 0.0
C553 C 0.46625 0.13758 0.23552 0.0
C554 C 0.4881 0.15041 0.38346 0.0
H555 H 0.43533 0.12527 0.63634 0.0
H556 H 0.44081 0.12725 0.52751 0.0
H557 H 0.49466 0.15102 0.47733 0.0
H558 H 0.50939 0.16978 0.16916 0.0
H559 H 0.50451 0.1693 0.27829 0.0
H560 H 0.45124 0.14574 0.33181 0.0
C561 C 0.45073 0.13567 0.55772 0.0
C562 C 0.48516 0.15007 0.4461 0.0
C563 C 0.44758 0.13453 0.62028 0.0
C564 C 0.49734 0.16055 0.18688 0.0
C565 C 0.49454 0.1603 0.24956 0.0
C566 C 0.46078 0.1468 0.36312 0.0
C567 C 0.46659 0.14715 0.53467 0.0
C568 C 0.46996 0.14804 0.46802 0.0
C569 C 0.47894 0.14885 0.27461 0.0
C570 C 0.47591 0.1487 0.34123 0.0
H571 H 0.486 0.16462 0.66893 0.0
H572 H 0.4915 0.16669 0.55961 0.0
H573 H 0.44612 0.14521 0.44095 0.0
H574 H 0.45908 0.1288 0.14426 0.0
H575 H 0.45418 0.12843 0.25348 0.0
C576 C 0.52477 0.67665 0.49876 0.0
C577 C 0.511 0.662 0.52133 0.0
C578 C 0.52735 0.67931 0.43606 0.0
C579 C 0.50544 0.66593 0.28817 0.0
H580 H 0.55025 0.68496 0.22274 0.0
C581 C 0.51909 0.66745 0.0304 0.0
C582 C 0.53307 0.68181 0.00714 0.0
C583 C 0.51604 0.66552 0.09308 0.0
C584 C 0.53769 0.67984 0.24035 0.0
H585 H 0.48931 0.63854 0.49557 0.0
H586 H 0.49384 0.64313 0.38616 0.0
H587 H 0.54576 0.68046 0.33213 0.0
H588 H 0.55445 0.70566 0.03155 0.0
H589 H 0.54914 0.70231 0.14087 0.0
H590 H 0.49736 0.66521 0.19622 0.0
C591 C 0.50249 0.6527 0.41698 0.0
C592 C 0.53511 0.67724 0.30307 0.0
C593 C 0.49991 0.65005 0.4797 0.0
C594 C 0.54373 0.69434 0.04798 0.0
C595 C 0.54069 0.69241 0.11064 0.0
C596 C 0.50801 0.66851 0.22541 0.0
C597 C 0.51622 0.66738 0.39442 0.0
C598 C 0.51896 0.67023 0.32772 0.0
C599 C 0.52692 0.6779 0.13397 0.0
C600 C 0.52417 0.67547 0.20078 0.0
H601 H 0.53339 0.68625 0.52946 0.0
H602 H 0.53791 0.69087 0.42022 0.0
H603 H 0.49287 0.66075 0.30579 0.0
H604 H 0.51077 0.65743 0.00041 0.0
H605 H 0.50544 0.6541 0.10962 0.0
C606 C 0.85951 0.52715 0.65579 0.0
C607 C 0.84734 0.51194 0.68138 0.0
C608 C 0.85991 0.52983 0.5931 0.0
C609 C 0.8467 0.50792 0.44646 0.0
H610 H 0.85321 0.55028 0.38746 0.0
C611 C 0.84134 0.52 0.19155 0.0
C612 C 0.85312 0.53572 0.16843 0.0
C613 C 0.84023 0.5169 0.25416 0.0
C614 C 0.85157 0.53845 0.40317 0.0
H615 H 0.826 0.48766 0.66083 0.0
H616 H 0.82682 0.49231 0.5513 0.0
H617 H 0.8522 0.54522 0.49676 0.0
H618 H 0.87317 0.5604 0.19272 0.0
H619 H 0.87135 0.55497 0.30174 0.0
H620 H 0.84625 0.50121 0.35292 0.0
C621 C 0.83612 0.50209 0.57988 0.0
C622 C 0.85097 0.53556 0.46576 0.0
C623 C 0.83568 0.49942 0.64265 0.0
C624 C 0.86378 0.54826 0.20919 0.0
C625 C 0.86272 0.54514 0.2717 0.0
C626 C 0.84736 0.51084 0.3838 0.0
C627 C 0.8482 0.51735 0.55453 0.0
C628 C 0.84859 0.52029 0.48805 0.0
C629 C 0.85092 0.52943 0.29494 0.0
C630 C 0.84986 0.52617 0.36146 0.0
H631 H 0.86887 0.53693 0.68409 0.0
H632 H 0.86954 0.54162 0.57471 0.0
H633 H 0.84504 0.49611 0.46237 0.0
H634 H 0.83282 0.51017 0.16134 0.0
H635 H 0.83084 0.50474 0.27067 0.0
C636 C 0.30934 0.8606 0.37541 0.0
C637 C 0.31291 0.85122 0.33402 0.0
C638 C 0.31134 0.8595 0.43794 0.0
C639 C 0.33337 0.84769 0.54959 0.0
H640 H 0.30117 0.84779 0.66254 0.0
C641 C 0.33626 0.83873 0.80915 0.0
C642 C 0.3335 0.84935 0.84716 0.0
C643 C 0.33331 0.83818 0.74652 0.0
C644 C 0.31034 0.84789 0.63158 0.0
H645 H 0.32114 0.8331 0.32612 0.0
H646 H 0.3246 0.83112 0.43548 0.0
H647 H 0.29667 0.84802 0.5532 0.0
H648 H 0.32571 0.86789 0.8488 0.0
H649 H 0.32052 0.86688 0.73969 0.0
H650 H 0.34707 0.84764 0.62812 0.0
C651 C 0.32047 0.83952 0.41936 0.0
C652 C 0.30777 0.84803 0.56895 0.0
C653 C 0.31848 0.84065 0.35671 0.0
C654 C 0.3277 0.85937 0.82105 0.0
C655 C 0.32473 0.8588 0.75849 0.0
C656 C 0.33593 0.84753 0.61228 0.0
C657 C 0.31695 0.84896 0.46068 0.0
C658 C 0.31933 0.84808 0.52722 0.0
C659 C 0.32751 0.84821 0.72052 0.0
C660 C 0.32451 0.84777 0.65395 0.0
H661 H 0.30533 0.8691 0.35951 0.0
H662 H 0.30882 0.86718 0.46841 0.0
H663 H 0.34263 0.84795 0.51869 0.0
H664 H 0.34048 0.83065 0.82778 0.0
H665 H 0.33537 0.82973 0.71855 0.0
C666 C 0.49465 0.34715 0.97662 0.0
C667 C 0.48368 0.33514 0.01837 0.0
C668 C 0.49211 0.34441 0.91392 0.0
C669 C 0.45975 0.31928 0.79997 0.0
H670 H 0.49774 0.33185 0.6937 0.0
C671 C 0.45162 0.30193 0.54513 0.0
C672 C 0.46214 0.31454 0.50424 0.0
C673 C 0.45461 0.30394 0.60781 0.0
C674 C 0.48702 0.3284 0.72272 0.0
H675 H 0.46153 0.3107 0.02672 0.0
H676 H 0.4571 0.30593 0.91752 0.0
H677 H 0.50209 0.33652 0.80323 0.0
H678 H 0.48417 0.33912 0.49743 0.0
H679 H 0.48943 0.34258 0.60664 0.0
H680 H 0.44469 0.31121 0.7195 0.0
C681 C 0.46753 0.3176 0.93325 0.0
C682 C 0.48951 0.3311 0.78546 0.0
C683 C 0.47006 0.32035 0.99593 0.0
C684 C 0.47596 0.32904 0.52745 0.0
C685 C 0.47897 0.33104 0.59014 0.0
C686 C 0.45727 0.31657 0.73727 0.0
C687 C 0.47855 0.32958 0.89149 0.0
C688 C 0.47591 0.32661 0.82481 0.0
C689 C 0.46821 0.3186 0.63109 0.0
C690 C 0.47087 0.32113 0.6979 0.0
H691 H 0.50512 0.35876 0.99239 0.0
H692 H 0.50068 0.35402 0.88301 0.0
H693 H 0.44903 0.31591 0.82886 0.0
H694 H 0.44102 0.29051 0.52874 0.0
H695 H 0.44626 0.294 0.63808 0.0
C696 C 0.1589 0.49849 0.14356 0.0
C697 C 0.14816 0.48557 0.18314 0.0
C698 C 0.15869 0.49568 0.08091 0.0
C699 C 0.14699 0.4622 0.96801 0.0
H700 H 0.14847 0.49484 0.85356 0.0
C701 C 0.13581 0.4486 0.71049 0.0
C702 C 0.14527 0.46164 0.66944 0.0
C703 C 0.13661 0.45163 0.7731 0.0
C704 C 0.14829 0.4857 0.88483 0.0
H705 H 0.12854 0.45961 0.18704 0.0
H706 H 0.12831 0.45469 0.07789 0.0
H707 H 0.14883 0.4999 0.96272 0.0
H708 H 0.16336 0.48803 0.66236 0.0
H709 H 0.16493 0.49332 0.77169 0.0
H710 H 0.14657 0.44804 0.89033 0.0
C711 C 0.13703 0.46696 0.09562 0.0
C712 C 0.14846 0.48859 0.94743 0.0
C713 C 0.13717 0.46978 0.15827 0.0
C714 C 0.15573 0.47776 0.69261 0.0
C715 C 0.1566 0.48079 0.75533 0.0
C716 C 0.14691 0.45934 0.90544 0.0
C717 C 0.1478 0.47987 0.05625 0.0
C718 C 0.14774 0.47685 0.98972 0.0
C719 C 0.14697 0.46777 0.79636 0.0
C720 C 0.14749 0.47102 0.86302 0.0
H721 H 0.16773 0.51073 0.16093 0.0
H722 H 0.1673 0.50583 0.05189 0.0
H723 H 0.14669 0.45303 -0.00055 0.0
H724 H 0.12741 0.4361 0.69414 0.0
H725 H 0.12879 0.44136 0.80315 0.0
C726 C 0.67524 0.15231 0.85786 0.0
C727 C 0.67899 0.14045 0.83433 0.0
C728 C 0.67321 0.1533 0.92052 0.0
C729 C 0.68296 0.14128 0.06902 0.0
H730 H 0.64747 0.14829 0.12856 0.0
C731 C 0.66344 0.13316 0.32162 0.0
C732 C 0.66062 0.14545 0.34726 0.0
C733 C 0.66578 0.13279 0.25894 0.0
C734 C 0.65753 0.14649 0.11255 0.0
H735 H 0.68316 0.12008 0.85787 0.0
H736 H 0.67948 0.12167 0.96693 0.0
H737 H 0.65143 0.14729 0.01907 0.0
H738 H 0.65824 0.16712 0.32686 0.0
H739 H 0.66217 0.16636 0.21747 0.0
H740 H 0.68892 0.14029 0.16258 0.0
C741 C 0.67849 0.13048 0.93722 0.0
C742 C 0.65983 0.14595 0.04989 0.0
C743 C 0.68059 0.12956 0.87469 0.0
C744 C 0.66011 0.15732 0.30865 0.0
C745 C 0.66239 0.15691 0.24594 0.0
C746 C 0.68061 0.14174 0.13164 0.0
C747 C 0.6748 0.14238 0.96089 0.0
C748 C 0.67254 0.14329 0.02743 0.0
C749 C 0.6653 0.14467 0.22049 0.0
C750 C 0.66785 0.14431 0.15403 0.0
H751 H 0.67413 0.161 0.82793 0.0
H752 H 0.67061 0.16276 0.93738 0.0
H753 H 0.69305 0.1395 0.05321 0.0
H754 H 0.66363 0.12367 0.34987 0.0
H755 H 0.66775 0.12306 0.24044 0.0
C756 C 0.4772 0.61891 0.83882 0.0
C757 C 0.49307 0.62365 0.86255 0.0
C758 C 0.46326 0.60391 0.85638 0.0
C759 C 0.4477 0.57236 0.9782 0.0
H760 H 0.41459 0.54483 0.85772 0.0
C761 C 0.39308 0.50756 0.03871 0.0
C762 C 0.37719 0.50379 0.01802 0.0
C763 C 0.4074 0.52148 0.01648 0.0
C764 C 0.42366 0.55246 0.89192 0.0
H765 H 0.50675 0.61635 0.92356 0.0
H766 H 0.48239 0.59006 0.95395 0.0
H767 H 0.43936 0.57067 0.82616 0.0
H768 H 0.3639 0.51131 0.956 0.0
H769 H 0.38899 0.53577 0.91747 0.0
H770 H 0.43199 0.55425 0.04402 0.0
C771 C 0.48072 0.59805 0.92213 0.0
C772 C 0.43784 0.56725 0.8739 0.0
C773 C 0.49469 0.61308 0.90452 0.0
C774 C 0.37597 0.5139 0.9729 0.0
C775 C 0.39034 0.52787 0.95066 0.0
C776 C 0.43355 0.55758 0.99619 0.0
C777 C 0.46486 0.59329 0.89811 0.0
C778 C 0.44998 0.57739 0.9169 0.0
C779 C 0.40618 0.53197 0.97308 0.0
C780 C 0.42135 0.54748 0.95329 0.0
H781 H 0.47549 0.62678 0.80656 0.0
H782 H 0.45117 0.60072 0.83779 0.0
H783 H 0.45668 0.58003 0.01257 0.0
H784 H 0.39448 0.49994 0.07302 0.0
H785 H 0.41945 0.52412 0.03376 0.0
C786 C 0.87762 0.3822 0.09625 0.0
C787 C 0.86605 0.37217 0.14092 0.0
C788 C 0.87819 0.3968 0.07616 0.0
C789 C 0.86672 0.42813 0.12068 0.0
H790 H 0.87076 0.43801 0.94779 0.0
C791 C 0.8581 0.48085 0.01707 0.0
C792 C 0.86853 0.48991 0.96819 0.0
C793 C 0.8584 0.46697 0.04057 0.0
C794 C 0.86987 0.43556 0.99631 0.0
H795 H 0.84593 0.36956 0.19935 0.0
H796 H 0.84692 0.395 0.16407 0.0
H797 H 0.87002 0.41272 0.98342 0.0
H798 H 0.88796 0.49193 0.90732 0.0
H799 H 0.88868 0.46795 0.94894 0.0
H800 H 0.86659 0.45099 0.13355 0.0
C801 C 0.85566 0.39166 0.14508 0.0
C802 C 0.86941 0.42106 0.01667 0.0
C803 C 0.85504 0.37703 0.16499 0.0
C804 C 0.87965 0.48514 0.94464 0.0
C805 C 0.87999 0.47132 0.96823 0.0
C806 C 0.86723 0.44268 0.10032 0.0
C807 C 0.86724 0.4017 0.10047 0.0
C808 C 0.86783 0.41718 0.07905 0.0
C809 C 0.86918 0.4619 0.01576 0.0
C810 C 0.86881 0.44656 0.03788 0.0
H811 H 0.88629 0.37883 0.07682 0.0
H812 H 0.88737 0.40438 0.04213 0.0
H813 H 0.8657 0.42556 0.16913 0.0
H814 H 0.84938 0.48421 0.03618 0.0
H815 H 0.84982 0.4599 0.07689 0.0
C816 C 0.37494 0.8594 0.18689 0.0
C817 C 0.37646 0.87127 0.14358 0.0
C818 C 0.38916 0.85964 0.20984 0.0
C819 C 0.43294 0.8743 0.16865 0.0
H820 H 0.4371 0.86444 0.33728 0.0
C821 C 0.49361 0.87997 0.26475 0.0
C822 C 0.49185 0.86712 0.30358 0.0
C823 C 0.47963 0.88093 0.24677 0.0
C824 C 0.43604 0.86707 0.28993 0.0
H825 H 0.39411 0.89319 0.09267 0.0
H826 H 0.41883 0.89374 0.1333 0.0
H827 H 0.41245 0.86559 0.30477 0.0
H828 H 0.474 0.84515 0.35383 0.0
H829 H 0.44964 0.84676 0.32205 0.0
H830 H 0.45646 0.8757 0.15365 0.0
C831 C 0.40667 0.88402 0.14851 0.0
C832 C 0.42193 0.86773 0.27134 0.0
C833 C 0.39249 0.88375 0.12551 0.0
C834 C 0.47581 0.85523 0.32396 0.0
C835 C 0.46185 0.85621 0.30611 0.0
C836 C 0.44704 0.87366 0.18723 0.0
C837 C 0.40517 0.87178 0.19001 0.0
C838 C 0.42023 0.87134 0.21046 0.0
C839 C 0.4636 0.86907 0.26736 0.0
C840 C 0.44873 0.87 0.24802 0.0
H841 H 0.36276 0.84962 0.20174 0.0
H842 H 0.38758 0.84998 0.24149 0.0
H843 H 0.43186 0.87679 0.12115 0.0
H844 H 0.5058 0.88936 0.24839 0.0
H845 H 0.48139 0.89108 0.21735 0.0
C846 C 0.50046 0.38306 0.40478 0.0
C847 C 0.50207 0.37269 0.36184 0.0
C848 C 0.51446 0.39791 0.42344 0.0
C849 C 0.55751 0.42881 0.37718 0.0
H850 H 0.56286 0.44096 0.54813 0.0
C851 C 0.6189 0.48208 0.47969 0.0
C852 C 0.6174 0.49198 0.525 0.0
C853 C 0.6047 0.46808 0.45672 0.0
C854 C 0.56145 0.43785 0.5001 0.0
H855 H 0.51966 0.36972 0.30517 0.0
H856 H 0.54403 0.39551 0.33825 0.0
H857 H 0.5383 0.4153 0.51498 0.0
H858 H 0.59977 0.49539 0.5797 0.0
H859 H 0.57508 0.47114 0.53922 0.0
H860 H 0.58076 0.45135 0.36251 0.0
C861 C 0.53194 0.39229 0.35681 0.0
C862 C 0.54737 0.42315 0.48112 0.0
C863 C 0.51796 0.37745 0.33818 0.0
C864 C 0.60139 0.48795 0.54522 0.0
C865 C 0.58723 0.47398 0.5223 0.0
C866 C 0.57161 0.44353 0.3962 0.0
C867 C 0.53035 0.40271 0.39955 0.0
C868 C 0.54524 0.41845 0.41948 0.0
C869 C 0.58873 0.46372 0.47863 0.0
C870 C 0.57372 0.44821 0.45787 0.0
H871 H 0.48839 0.37976 0.4238 0.0
H872 H 0.5128 0.40576 0.45599 0.0
H873 H 0.55611 0.42564 0.32921 0.0
H874 H 0.63106 0.48487 0.46312 0.0
H875 H 0.60626 0.46035 0.4233 0.0
C876 C 0.13951 0.51912 0.50204 0.0
C877 C 0.1283 0.50313 0.52474 0.0
C878 C 0.13859 0.533 0.52148 0.0
C879 C 0.12328 0.54795 0.64722 0.0
H880 H 0.1276 0.58135 0.5304 0.0
C881 C 0.11272 0.60172 0.71695 0.0
C882 C 0.12428 0.61771 0.69534 0.0
C883 C 0.11245 0.5876 0.69327 0.0
C884 C 0.12653 0.57221 0.56363 0.0
H885 H 0.10736 0.48918 0.58576 0.0
H886 H 0.10575 0.51343 0.6196 0.0
H887 H 0.12881 0.55693 0.49538 0.0
H888 H 0.1443 0.63139 0.6305 0.0
H889 H 0.14397 0.60671 0.58965 0.0
H890 H 0.12119 0.56324 0.71557 0.0
C891 C 0.11532 0.51522 0.58708 0.0
C892 C 0.12722 0.55823 0.54358 0.0
C893 C 0.1162 0.50133 0.56748 0.0
C894 C 0.13524 0.61924 0.64815 0.0
C895 C 0.135 0.60509 0.62454 0.0
C896 C 0.12264 0.56192 0.66726 0.0
C897 C 0.12648 0.5312 0.5642 0.0
C898 C 0.12561 0.54596 0.58521 0.0
C899 C 0.12377 0.58914 0.64757 0.0
C900 C 0.12424 0.57421 0.62572 0.0
H901 H 0.149 0.52095 0.4691 0.0
H902 H 0.1475 0.54518 0.50363 0.0
H903 H 0.12228 0.53885 0.6805 0.0
H904 H 0.104 0.60009 0.75291 0.0
H905 H 0.10342 0.57547 0.71113 0.0
C906 C 0.61943 0.13734 0.68374 0.0
C907 C 0.61781 0.1264 0.6364 0.0
C908 C 0.60534 0.13732 0.70697 0.0
C909 C 0.56235 0.12558 0.66317 0.0
H910 H 0.55658 0.13047 0.83547 0.0
C911 C 0.501 0.11768 0.76144 0.0
C912 C 0.50244 0.12936 0.80542 0.0
C913 C 0.51512 0.11716 0.74198 0.0
C914 C 0.5581 0.12925 0.78715 0.0
H915 H 0.60008 0.1064 0.5781 0.0
H916 H 0.57561 0.10622 0.61914 0.0
H917 H 0.58126 0.12969 0.80059 0.0
H918 H 0.51984 0.14966 0.86344 0.0
H919 H 0.54443 0.14879 0.82916 0.0
H920 H 0.53924 0.12514 0.64963 0.0
C921 C 0.58776 0.11507 0.63742 0.0
C922 C 0.57223 0.12881 0.76721 0.0
C923 C 0.6018 0.11511 0.61416 0.0
C924 C 0.51828 0.14049 0.82953 0.0
C925 C 0.53237 0.13993 0.81021 0.0
C926 C 0.54824 0.12599 0.68309 0.0
C927 C 0.58938 0.12635 0.68334 0.0
C928 C 0.57448 0.12692 0.70499 0.0
C929 C 0.53094 0.12827 0.76622 0.0
C930 C 0.54594 0.1278 0.74528 0.0
H931 H 0.63161 0.14619 0.70181 0.0
H932 H 0.607 0.14624 0.74213 0.0
H933 H 0.56387 0.12445 0.61478 0.0
H934 H 0.48898 0.10891 0.74205 0.0
H935 H 0.5136 0.10791 0.70844 0.0
C936 C 0.28872 0.48677 0.12442 0.0
C937 C 0.28763 0.47132 0.11319 0.0
C938 C 0.27565 0.48743 0.15379 0.0
C939 C 0.23111 0.46295 0.19044 0.0
H940 H 0.24268 0.49029 0.33604 0.0
C941 C 0.18039 0.45628 0.35623 0.0
C942 C 0.18187 0.471 0.38028 0.0
C943 C 0.19376 0.45662 0.32555 0.0
C944 C 0.23924 0.48277 0.29509 0.0
H945 H 0.27186 0.44448 0.12094 0.0
H946 H 0.24891 0.44563 0.17092 0.0
H947 H 0.26478 0.49105 0.27286 0.0
H948 H 0.1986 0.49752 0.39324 0.0
H949 H 0.22187 0.49824 0.33842 0.0
H950 H 0.20565 0.45481 0.21168 0.0
C951 C 0.25986 0.4572 0.15752 0.0
C952 C 0.2519 0.48322 0.25895 0.0
C953 C 0.273 0.45655 0.12912 0.0
C954 C 0.19717 0.48596 0.37547 0.0
C955 C 0.21051 0.48635 0.34408 0.0
C956 C 0.21848 0.46263 0.22611 0.0
C957 C 0.26122 0.47264 0.1713 0.0
C958 C 0.24792 0.47318 0.20671 0.0
C959 C 0.20882 0.47175 0.31751 0.0
C960 C 0.22237 0.47237 0.27931 0.0
H961 H 0.29993 0.49834 0.11292 0.0
H962 H 0.27691 0.49948 0.16363 0.0
H963 H 0.22775 0.45522 0.15001 0.0
H964 H 0.16875 0.44454 0.35973 0.0
H965 H 0.19218 0.44506 0.30712 0.0
C966 C 0.81562 0.27302 0.30662 0.0
C967 C 0.814 0.28636 0.28444 0.0
C968 C 0.80219 0.2595 0.33521 0.0
C969 C 0.76578 0.2496 0.42627 0.0
H970 H 0.75194 0.20348 0.38997 0.0
C971 C 0.70784 0.19418 0.53689 0.0
C972 C 0.70818 0.17939 0.54696 0.0
C973 C 0.72104 0.20758 0.50671 0.0
C974 C 0.75583 0.21629 0.40149 0.0
H975 H 0.79699 0.29588 0.27304 0.0
H976 H 0.77351 0.27227 0.32389 0.0
H977 H 0.77393 0.22572 0.32959 0.0
H978 H 0.72293 0.16728 0.5371 0.0
H979 H 0.7463 0.19087 0.48694 0.0
H980 H 0.7481 0.24033 0.49925 0.0
C981 C 0.78518 0.2723 0.31892 0.0
C982 C 0.76832 0.22899 0.3665 0.0
C983 C 0.79854 0.28571 0.28944 0.0
C984 C 0.72231 0.17852 0.5294 0.0
C985 C 0.73561 0.19198 0.5001 0.0
C986 C 0.75343 0.23692 0.46185 0.0
C987 C 0.78699 0.25923 0.34289 0.0
C988 C 0.77338 0.24574 0.37852 0.0
C989 C 0.73494 0.2065 0.48679 0.0
C990 C 0.7483 0.2201 0.44991 0.0
H991 H 0.82741 0.27323 0.30338 0.0
H992 H 0.80389 0.24958 0.35356 0.0
H993 H 0.76967 0.26247 0.43695 0.0
H994 H 0.69701 0.19511 0.54954 0.0
H995 H 0.72001 0.21848 0.49678 0.0
C996 C 0.53864 0.81427 0.46703 0.0
C997 C 0.52366 0.81293 0.44644 0.0
C998 C 0.53847 0.8012 0.49921 0.0
C999 C 0.51179 0.75654 0.54113 0.0
H1000 H 0.54239 0.76955 0.67789 0.0
C1001 C 0.50907 0.70915 0.71768 0.0
C1002 C 0.52428 0.70935 0.72403 0.0
C1003 C 0.50858 0.72225 0.68801 0.0
C1004 C 0.5338 0.76577 0.63983 0.0
H1005 H 0.49683 0.79676 0.44122 0.0
H1006 H 0.49644 0.77405 0.49881 0.0
H1007 H 0.54238 0.79098 0.61342 0.0
H1008 H 0.55096 0.7237 0.70785 0.0
H1009 H 0.55013 0.74677 0.65732 0.0
H1010 H 0.50307 0.73129 0.56865 0.0
C1011 C 0.50837 0.78503 0.48919 0.0
C1012 C 0.53387 0.77801 0.60252 0.0
C1013 C 0.50857 0.79803 0.45618 0.0
C1014 C 0.53908 0.72326 0.70347 0.0
C1015 C 0.53862 0.73646 0.67472 0.0
C1016 C 0.51158 0.74431 0.57897 0.0
C1017 C 0.52329 0.78663 0.51235 0.0
C1018 C 0.523 0.77354 0.55227 0.0
C1019 C 0.52331 0.73584 0.66528 0.0
C1020 C 0.52269 0.74883 0.62826 0.0
H1021 H 0.55046 0.82561 0.45967 0.0
H1022 H 0.55024 0.80268 0.51485 0.0
H1023 H 0.5034 0.75264 0.50249 0.0
H1024 H 0.49747 0.69852 0.73284 0.0
H1025 H 0.49665 0.7216 0.68161 0.0
C1026 C 0.81233 0.53844 0.87067 0.0
C1027 C 0.81225 0.52385 0.88865 0.0
C1028 C 0.79812 0.53753 0.84501 0.0
C1029 C 0.76206 0.50999 0.75395 0.0
H1030 H 0.74678 0.54087 0.79532 0.0
C1031 C 0.70511 0.50891 0.63828 0.0
C1032 C 0.70618 0.5244 0.62852 0.0
C1033 C 0.71761 0.50797 0.6708 0.0
C1034 C 0.75102 0.53229 0.78268 0.0
H1035 H 0.79719 0.49692 0.89575 0.0
H1036 H 0.77228 0.49533 0.85002 0.0
H1037 H 0.76879 0.54063 0.85552 0.0
H1038 H 0.72152 0.55112 0.64168 0.0
H1039 H 0.74357 0.54957 0.69633 0.0
H1040 H 0.74468 0.502 0.67991 0.0
C1041 C 0.78336 0.50743 0.856 0.0
C1042 C 0.76353 0.53209 0.81747 0.0
C1043 C 0.79753 0.50836 0.88253 0.0
C1044 C 0.72032 0.53899 0.64903 0.0
C1045 C 0.73286 0.53808 0.68089 0.0
C1046 C 0.74962 0.51029 0.71872 0.0
C1047 C 0.78363 0.522 0.83618 0.0
C1048 C 0.7693 0.52109 0.803 0.0
C1049 C 0.73145 0.52254 0.69363 0.0
C1050 C 0.74414 0.52162 0.73219 0.0
H1051 H 0.82353 0.55054 0.87491 0.0
H1052 H 0.7987 0.54894 0.8297 0.0
H1053 H 0.76644 0.50152 0.74143 0.0
H1054 H 0.69426 0.49745 0.62331 0.0
H1055 H 0.7161 0.49579 0.68006 0.0
C1056 C 0.28849 0.80033 0.03155 0.0
C1057 C 0.28756 0.81486 0.04046 0.0
C1058 C 0.27584 0.78677 -1e-05 0.0
C1059 C 0.24212 0.77729 0.88913 0.0
H1060 H 0.22666 0.73125 0.93317 0.0
C1061 C 0.18071 0.72187 0.80292 0.0
C1062 C 0.18086 0.7074 0.78487 0.0
C1063 C 0.19486 0.73518 0.82893 0.0
C1064 C 0.23105 0.74406 0.91993 0.0
H1065 H 0.27233 0.82633 0.02671 0.0
H1066 H 0.25003 0.80253 0.9737 0.0
H1067 H 0.24863 0.75375 0.99327 0.0
H1068 H 0.19595 0.69556 0.7784 0.0
H1069 H 0.22075 0.71889 0.82479 0.0
H1070 H 0.22417 0.76757 0.81695 0.0
C1071 C 0.26073 0.80174 0.98909 0.0
C1072 C 0.2436 0.75694 0.95431 0.0
C1073 C 0.27343 0.81532 0.01999 0.0
C1074 C 0.19555 0.70663 0.79168 0.0
C1075 C 0.20967 0.71988 0.81855 0.0
C1076 C 0.22949 0.76444 0.85519 0.0
C1077 C 0.26199 0.78748 0.97728 0.0
C1078 C 0.24911 0.7737 0.93976 0.0
C1079 C 0.20935 0.73417 0.83806 0.0
C1080 C 0.22372 0.74772 0.87068 0.0
H1081 H 0.29932 0.79971 0.04653 0.0
H1082 H 0.27723 0.77601 0.99139 0.0
H1083 H 0.24638 0.79006 0.87566 0.0
H1084 H 0.16953 0.72278 0.79817 0.0
H1085 H 0.19425 0.74601 0.84402 0.0
C1086 C 0.48529 0.28768 0.2073 0.0
C1087 C 0.47019 0.28744 0.21736 0.0
C1088 C 0.48541 0.27465 0.17567 0.0
C1089 C 0.45941 0.24112 0.06624 0.0
H1090 H 0.49093 0.22609 0.09943 0.0
C1091 C 0.4549 0.18119 0.96753 0.0
C1092 C 0.46975 0.18244 0.94563 0.0
C1093 C 0.45517 0.19476 0.99627 0.0
C1094 C 0.48219 0.23033 0.08935 0.0
H1095 H 0.44333 0.27301 0.20637 0.0
H1096 H 0.44343 0.24991 0.15376 0.0
H1097 H 0.49065 0.24735 0.16437 0.0
H1098 H 0.49641 0.19895 0.93453 0.0
H1099 H 0.49689 0.22267 0.98573 0.0
H1100 H 0.45065 0.22365 0.99234 0.0
C1101 C 0.45524 0.26041 0.16796 0.0
C1102 C 0.48202 0.24249 0.12647 0.0
C1103 C 0.45515 0.27354 0.19869 0.0
C1104 C 0.48478 0.19769 0.95074 0.0
C1105 C 0.48508 0.21119 0.98039 0.0
C1106 C 0.45945 0.22881 0.0297 0.0
C1107 C 0.47041 0.26105 0.15431 0.0
C1108 C 0.47058 0.248 0.11548 0.0
C1109 C 0.47033 0.20971 0.00437 0.0
C1110 C 0.47082 0.22332 0.04099 0.0
H1111 H 0.49707 0.29835 0.22079 0.0
H1112 H 0.49733 0.27563 0.16559 0.0
H1113 H 0.45071 0.24535 0.05544 0.0
H1114 H 0.44316 0.16956 0.96413 0.0
H1115 H 0.44365 0.19331 0.01463 0.0
C1116 C 0.35674 0.41924 0.15887 0.0
C1117 C 0.34982 0.41902 0.10176 0.0
C1118 C 0.3643 0.40969 0.16923 0.0
C1119 C 0.38351 0.38864 0.08707 0.0
H1120 H 0.38257 0.37073 0.24776 0.0
C1121 C 0.4143 0.34905 0.14668 0.0
C1122 C 0.42531 0.35527 0.19638 0.0
C1123 C 0.40379 0.35541 0.13345 0.0
C1124 C 0.3829 0.37567 0.2027 0.0
H1125 H 0.34487 0.40829 0.01121 0.0
H1126 H 0.35766 0.39112 0.02971 0.0
H1127 H 0.36566 0.38364 0.22739 0.0
H1128 H 0.43392 0.37273 0.27169 0.0
H1129 H 0.41527 0.38368 0.24922 0.0
H1130 H 0.40065 0.38039 0.06259 0.0
C1131 C 0.35764 0.39902 0.06609 0.0
C1132 C 0.37331 0.38314 0.19102 0.0
C1133 C 0.35026 0.40877 0.05549 0.0
C1134 C 0.42558 0.36783 0.23295 0.0
C1135 C 0.41487 0.37398 0.22039 0.0
C1136 C 0.3929 0.38092 0.09856 0.0
C1137 C 0.36492 0.39951 0.12292 0.0
C1138 C 0.37378 0.39006 0.13345 0.0
C1139 C 0.40393 0.36785 0.17047 0.0
C1140 C 0.39292 0.37469 0.15679 0.0
H1141 H 0.35677 0.42724 0.19501 0.0
H1142 H 0.37008 0.4107 0.21309 0.0
H1143 H 0.38438 0.39402 0.04247 0.0
H1144 H 0.41397 0.33941 0.11772 0.0
H1145 H 0.39543 0.35052 0.09476 0.0
C1146 C 0.93661 0.35336 0.27265 0.0
C1147 C 0.92702 0.35897 0.3036 0.0
C1148 C 0.95387 0.36127 0.28128 0.0
C1149 C 0.98936 0.40147 0.32797 0.0
H1150 H 0.01266 0.37658 0.34381 0.0
C1151 C 0.06097 0.43379 0.32073 0.0
C1152 C 0.06857 0.42904 0.36582 0.0
C1153 C 0.04374 0.42458 0.3116 0.0
C1154 C 0.0063 0.38368 0.33967 0.0
H1155 H 0.92795 0.37682 0.36981 0.0
H1156 H 0.95809 0.39069 0.38453 0.0
H1157 H 0.98225 0.3616 0.33375 0.0
H1158 H 0.06407 0.41074 0.43597 0.0
H1159 H 0.03396 0.3946 0.41974 0.0
H1160 H 0.01332 0.42353 0.33462 0.0
C1161 C 0.95227 0.38034 0.35285 0.0
C1162 C 0.98893 0.37512 0.33343 0.0
C1163 C 0.93502 0.37242 0.34436 0.0
C1164 C 0.05861 0.41462 0.40043 0.0
C1165 C 0.04137 0.40537 0.39118 0.0
C1166 C 0.0067 0.41001 0.33391 0.0
C1167 C 0.96189 0.37497 0.32092 0.0
C1168 C 0.98029 0.38394 0.32771 0.0
C1169 C 0.03374 0.41039 0.34722 0.0
C1170 C 0.01535 0.40122 0.33989 0.0
H1171 H 0.93084 0.34316 0.24039 0.0
H1172 H 0.96099 0.35697 0.25557 0.0
H1173 H 0.98306 0.40861 0.32293 0.0
H1174 H 0.06834 0.44464 0.29247 0.0
H1175 H 0.03823 0.42856 0.27663 0.0
C1176 C 0.64061 0.05858 0.49862 0.0
C1177 C 0.64266 0.06507 0.55802 0.0
C1178 C 0.63298 0.04139 0.48908 0.0
C1179 C 0.60137 0.00268 0.55238 0.0
H1180 H 0.62034 0.98154 0.45367 0.0
C1181 C 0.56639 0.93157 0.51747 0.0
C1182 C 0.56767 0.92556 0.46028 0.0
C1183 C 0.57661 0.94839 0.53209 0.0
C1184 C 0.61474 0.98726 0.48063 0.0
H1185 H 0.63902 0.05844 0.65409 0.0
H1186 H 0.625 0.0284 0.63684 0.0
H1187 H 0.63658 0.01151 0.47335 0.0
H1188 H 0.58036 0.93217 0.37326 0.0
H1189 H 0.59769 0.96174 0.39731 0.0
H1190 H 0.57925 0.97884 0.55747 0.0
C1191 C 0.62937 0.03674 0.59796 0.0
C1192 C 0.62412 0.00437 0.49218 0.0
C1193 C 0.63728 0.05393 0.60765 0.0
C1194 C 0.57929 0.93658 0.41784 0.0
C1195 C 0.58928 0.95347 0.43193 0.0
C1196 C 0.59187 0.98565 0.53991 0.0
C1197 C 0.62701 0.03035 0.53861 0.0
C1198 C 0.61748 0.01219 0.52812 0.0
C1199 C 0.58807 0.95962 0.48927 0.0
C1200 C 0.59841 0.9777 0.50378 0.0
H1201 H 0.64436 0.06671 0.45923 0.0
H1202 H 0.63114 0.03669 0.44285 0.0
H1203 H 0.59595 0.00853 0.57959 0.0
H1204 H 0.55763 0.92319 0.55113 0.0
H1205 H 0.57556 0.95254 0.57714 0.0
C1206 C 0.63739 0.57695 0.66308 0.0
C1207 C 0.64439 0.57698 0.60634 0.0
C1208 C 0.62996 0.58666 0.6725 0.0
C1209 C 0.61125 0.60793 0.58867 0.0
H1210 H 0.61241 0.62636 0.74854 0.0
C1211 C 0.58074 0.64797 0.64668 0.0
C1212 C 0.56972 0.64181 0.69641 0.0
C1213 C 0.59124 0.64156 0.63366 0.0
C1214 C 0.61203 0.62129 0.70369 0.0
H1215 H 0.64954 0.58745 0.51536 0.0
H1216 H 0.63693 0.60486 0.5322 0.0
H1217 H 0.62906 0.61312 0.72912 0.0
H1218 H 0.56112 0.62444 0.77202 0.0
H1219 H 0.57972 0.61344 0.74994 0.0
H1220 H 0.5943 0.61636 0.56348 0.0
C1221 C 0.63682 0.59703 0.56904 0.0
C1222 C 0.62146 0.61362 0.69256 0.0
C1223 C 0.64409 0.58713 0.55939 0.0
C1224 C 0.56946 0.62929 0.73324 0.0
C1225 C 0.58015 0.62311 0.72091 0.0
C1226 C 0.60201 0.61584 0.59961 0.0
C1227 C 0.62952 0.59679 0.6256 0.0
C1228 C 0.62089 0.60649 0.63535 0.0
C1229 C 0.59108 0.62916 0.67094 0.0
C1230 C 0.60206 0.62225 0.65757 0.0
H1231 H 0.63723 0.56903 0.69973 0.0
H1232 H 0.62414 0.58583 0.71617 0.0
H1233 H 0.61032 0.60241 0.54432 0.0
H1234 H 0.58108 0.65758 0.61752 0.0
H1235 H 0.59959 0.64639 0.59492 0.0
C1236 C 0.05975 0.64407 0.83701 0.0
C1237 C 0.06622 0.6471 0.77746 0.0
C1238 C 0.04268 0.63747 0.84697 0.0
C1239 C 0.00257 0.61153 0.77242 0.0
H1240 H 0.98505 0.62625 0.9041 0.0
C1241 C 0.93201 0.58077 0.81511 0.0
C1242 C 0.92672 0.57718 0.87606 0.0
C1243 C 0.94886 0.5911 0.80109 0.0
C1244 C 0.98977 0.62192 0.86743 0.0
H1245 H 0.05992 0.64629 0.68179 0.0
H1246 H 0.03005 0.63453 0.69927 0.0
H1247 H 0.01501 0.64127 0.88307 0.0
H1248 H 0.93498 0.58217 0.97017 0.0
H1249 H 0.96445 0.59971 0.94568 0.0
H1250 H 0.97752 0.5919 0.75774 0.0
C1251 C 0.03821 0.63711 0.73813 0.0
C1252 C 0.0069 0.63055 0.85533 0.0
C1253 C 0.05529 0.64379 0.72816 0.0
C1254 C 0.93865 0.58447 0.92272 0.0
C1255 C 0.95553 0.59472 0.90868 0.0
C1256 C 0.98549 0.60285 0.7847 0.0
C1257 C 0.03172 0.63369 0.79759 0.0
C1258 C 0.01347 0.62534 0.80804 0.0
C1259 C 0.96085 0.59798 0.84767 0.0
C1260 C 0.9789 0.60786 0.83268 0.0
H1261 H 0.06778 0.64626 0.87594 0.0
H1262 H 0.038 0.63475 0.89325 0.0
H1263 H 0.00732 0.60706 0.73631 0.0
H1264 H 0.92318 0.57526 0.77801 0.0
H1265 H 0.95251 0.59355 0.75364 0.0
C1266 C 0.42897 0.05785 0.93429 0.0
C1267 C 0.42751 0.06953 0.97051 0.0
C1268 C 0.41912 0.04083 0.94611 0.0
C1269 C 0.38111 0.00979 0.02919 0.0
H1270 H 0.40071 0.98178 0.00303 0.0
C1271 C 0.35184 0.94034 0.10517 0.0
C1272 C 0.35125 0.92947 0.0593 0.0
C1273 C 0.36026 0.95757 0.09514 0.0
C1274 C 0.39508 0.98947 0.01024 0.0
H1275 H 0.41477 0.07277 0.04752 0.0
H1276 H 0.3979 0.04297 0.06986 0.0
H1277 H 0.41748 0.0117 0.98573 0.0
H1278 H 0.35884 0.92795 0.96717 0.0
H1279 H 0.37376 0.95807 0.95005 0.0
H1280 H 0.35882 0.98736 0.05551 0.0
C1281 C 0.40631 0.04688 0.03125 0.0
C1282 C 0.40463 0.0066 2e-05 0.0
C1283 C 0.41601 0.06393 0.01874 0.0
C1284 C 0.35899 0.93606 0.00306 0.0
C1285 C 0.36761 0.95325 0.99342 0.0
C1286 C 0.37163 0.99264 0.04036 0.0
C1287 C 0.40779 0.03511 0.99514 0.0
C1288 C 0.39771 0.01696 0.00854 0.0
C1289 C 0.36846 0.96415 0.03955 0.0
C1290 C 0.3785 0.98235 0.03019 0.0
H1291 H 0.4376 0.0619 0.89628 0.0
H1292 H 0.42031 0.03215 0.91636 0.0
H1293 H 0.3753 0.01734 0.03553 0.0
H1294 H 0.34589 0.93552 0.14882 0.0
H1295 H 0.36081 0.96578 0.13138 0.0
loop_
_geom_bond_atom_site_label_1
_geom_bond_atom_site_label_2
_geom_bond_distance
_geom_bond_site_symmetry_2
_ccdc_geom_bond_type
Co0 N4 2.148 . S
Co0 N10 2.128 . S
Co0 N20 2.194 . S
Co0 O25 2.351 . S
Co0 O26 2.155 . S
Co0 O27 2.096 . S
C1 N4 1.301 . S
C1 N5 1.328 . S
C1 H6 0.930 . S
C2 C3 1.333 . S
C2 N4 1.317 . S
C2 H7 0.930 . S
C3 C2 1.333 . S
C3 N5 1.350 . S
C3 H29 0.931 . S
N4 Co0 2.148 . S
N4 C1 1.301 . S
N4 C2 1.317 . S
N5 C1 1.328 . S
N5 C3 1.350 . S
H6 C1 0.930 . S
H7 C2 0.930 . S
C8 O9 1.224 . S
C8 O27 1.247 . S
O9 C8 1.224 . S
N10 Co0 2.128 . S
N10 C11 1.355 1_554 S
N10 C13 1.311 1_554 S
C11 N10 1.355 1_556 S
C11 C12 1.363 . S
C11 H23 0.929 1_556 S
C12 C11 1.363 . S
C12 N14 1.375 . S
C12 H30 0.931 . S
C13 N10 1.311 1_556 S
C13 N14 1.347 . S
C13 H24 0.929 . S
N14 C12 1.375 . S
N14 C13 1.347 . S
C15 C18 1.365 . S
C15 N20 1.328 . S
C15 H21 0.929 . S
C16 C17 1.362 . S
C16 C19 1.378 . S
C16 H31 0.929 . S
C17 C16 1.362 . S
C17 C18 1.366 . S
C18 C15 1.365 . S
C18 C17 1.366 . S
C18 H32 0.930 . S
C19 C16 1.378 . S
C19 N20 1.315 . S
C19 H22 0.930 . S
N20 Co0 2.194 . S
N20 C15 1.328 . S
N20 C19 1.315 . S
H21 C15 0.929 . S
H22 C19 0.930 . S
H23 C11 0.929 1_554 S
H24 C13 0.929 . S
O25 Co0 2.351 . S
O25 C28 1.244 . S
O26 Co0 2.155 . S
O26 C28 1.240 . S
O27 Co0 2.096 . S
O27 C8 1.247 . S
C28 O25 1.244 . S
C28 O26 1.240 . S
H29 C3 0.931 . S
H30 C12 0.931 . S
H31 C16 0.929 . S
H32 C18 0.930 . S
Co33 N37 2.148 . S
Co33 N43 2.128 . S
Co33 N53 2.194 . S
Co33 O58 2.351 . S
Co33 O59 2.155 . S
Co33 O60 2.096 . S
C34 N37 1.301 . S
C34 N38 1.328 . S
C34 H39 0.930 . S
C35 C36 1.333 . S
C35 N37 1.317 . S
C35 H40 0.930 . S
C36 C35 1.333 . S
C36 N38 1.350 . S
C36 H62 0.931 . S
N37 Co33 2.148 . S
N37 C34 1.301 . S
N37 C35 1.317 . S
N38 C34 1.328 . S
N38 C36 1.350 . S
H39 C34 0.930 . S
H40 C35 0.930 . S
C41 O42 1.224 . S
C41 O60 1.247 . S
O42 C41 1.224 . S
N43 Co33 2.128 . S
N43 C44 1.355 . S
N43 C46 1.311 . S
C44 N43 1.355 . S
C44 C45 1.363 . S
C44 H56 0.929 . S
C45 C44 1.363 . S
C45 N47 1.375 . S
C45 H63 0.931 . S
C46 N43 1.311 . S
C46 N47 1.347 . S
C46 H57 0.929 . S
N47 C45 1.375 . S
N47 C46 1.347 . S
C48 C51 1.365 . S
C48 N53 1.328 . S
C48 H54 0.929 . S
C49 C50 1.362 . S
C49 C52 1.378 . S
C49 H64 0.929 . S
C50 C49 1.362 . S
C50 C51 1.366 . S
C51 C48 1.365 . S
C51 C50 1.366 . S
C51 H65 0.930 . S
C52 C49 1.378 . S
C52 N53 1.315 . S
C52 H55 0.930 . S
N53 Co33 2.194 . S
N53 C48 1.328 . S
N53 C52 1.315 . S
H54 C48 0.929 . S
H55 C52 0.930 . S
H56 C44 0.929 . S
H57 C46 0.929 . S
O58 Co33 2.351 . S
O58 C61 1.244 . S
O59 Co33 2.155 . S
O59 C61 1.240 . S
O60 Co33 2.096 . S
O60 C41 1.247 . S
C61 O58 1.244 . S
C61 O59 1.240 . S
H62 C36 0.931 . S
H63 C45 0.931 . S
H64 C49 0.929 . S
H65 C51 0.930 . S
Co66 N70 2.148 . S
Co66 N76 2.128 . S
Co66 N86 2.194 . S
Co66 O91 2.351 . S
Co66 O92 2.155 . S
Co66 O93 2.096 . S
C67 N70 1.301 . S
C67 N71 1.328 . S
C67 H72 0.930 . S
C68 C69 1.333 . S
C68 N70 1.317 . S
C68 H73 0.930 . S
C69 C68 1.333 . S
C69 N71 1.350 . S
C69 H95 0.931 . S
N70 Co66 2.148 . S
N70 C67 1.301 . S
N70 C68 1.317 . S
N71 C67 1.328 . S
N71 C69 1.350 . S
H72 C67 0.930 . S
H73 C68 0.930 . S
C74 O75 1.224 . S
C74 O93 1.247 . S
O75 C74 1.224 . S
N76 Co66 2.128 . S
N76 C77 1.355 . S
N76 C79 1.311 . S
C77 N76 1.355 . S
C77 C78 1.363 . S
C77 H89 0.929 . S
C78 C77 1.363 . S
C78 N80 1.375 . S
C78 H96 0.931 . S
C79 N76 1.311 . S
C79 N80 1.347 . S
C79 H90 0.929 . S
N80 C78 1.375 . S
N80 C79 1.347 . S
C81 C84 1.365 . S
C81 N86 1.328 . S
C81 H87 0.929 . S
C82 C83 1.362 . S
C82 C85 1.378 . S
C82 H97 0.929 . S
C83 C82 1.362 . S
C83 C84 1.366 . S
C84 C81 1.365 . S
C84 C83 1.366 . S
C84 H98 0.930 . S
C85 C82 1.378 . S
C85 N86 1.315 . S
C85 H88 0.930 . S
N86 Co66 2.194 . S
N86 C81 1.328 . S
N86 C85 1.315 . S
H87 C81 0.929 . S
H88 C85 0.930 . S
H89 C77 0.929 . S
H90 C79 0.929 . S
O91 Co66 2.351 . S
O91 C94 1.244 . S
O92 Co66 2.155 . S
O92 C94 1.240 . S
O93 Co66 2.096 . S
O93 C74 1.247 . S
C94 O91 1.244 . S
C94 O92 1.240 . S
H95 C69 0.931 . S
H96 C78 0.931 . S
H97 C82 0.929 . S
H98 C84 0.930 . S
Co99 N103 2.148 . S
Co99 N109 2.128 . S
Co99 N119 2.194 . S
Co99 O124 2.351 . S
Co99 O125 2.155 . S
Co99 O126 2.096 . S
C100 N103 1.301 . S
C100 N104 1.328 . S
C100 H105 0.930 . S
C101 C102 1.333 . S
C101 N103 1.317 . S
C101 H106 0.930 . S
C102 C101 1.333 . S
C102 N104 1.350 . S
C102 H128 0.931 . S
N103 Co99 2.148 . S
N103 C100 1.301 . S
N103 C101 1.317 . S
N104 C100 1.328 . S
N104 C102 1.350 . S
H105 C100 0.930 . S
H106 C101 0.930 . S
C107 O108 1.224 . S
C107 O126 1.247 . S
O108 C107 1.224 . S
N109 Co99 2.128 . S
N109 C110 1.355 . S
N109 C112 1.311 . S
C110 N109 1.355 . S
C110 C111 1.363 . S
C110 H122 0.929 . S
C111 C110 1.363 . S
C111 N113 1.375 . S
C111 H129 0.931 . S
C112 N109 1.311 . S
C112 N113 1.347 . S
C112 H123 0.929 . S
N113 C111 1.375 . S
N113 C112 1.347 . S
C114 C117 1.365 . S
C114 N119 1.328 . S
C114 H120 0.929 . S
C115 C116 1.362 . S
C115 C118 1.378 . S
C115 H130 0.929 . S
C116 C115 1.362 . S
C116 C117 1.366 . S
C117 C114 1.365 . S
C117 C116 1.366 . S
C117 H131 0.930 . S
C118 C115 1.378 . S
C118 N119 1.315 . S
C118 H121 0.930 . S
N119 Co99 2.194 . S
N119 C114 1.328 . S
N119 C118 1.315 . S
H120 C114 0.929 . S
H121 C118 0.930 . S
H122 C110 0.929 . S
H123 C112 0.929 . S
O124 Co99 2.351 . S
O124 C127 1.244 . S
O125 Co99 2.155 . S
O125 C127 1.240 . S
O126 Co99 2.096 . S
O126 C107 1.247 . S
C127 O124 1.244 . S
C127 O125 1.240 . S
H128 C102 0.931 . S
H129 C111 0.931 . S
H130 C115 0.929 . S
H131 C117 0.930 . S
Co132 N136 2.148 . S
Co132 N142 2.128 . S
Co132 N152 2.194 . S
Co132 O157 2.351 . S
Co132 O158 2.155 . S
Co132 O159 2.096 . S
C133 N136 1.301 . S
C133 N137 1.328 . S
C133 H138 0.930 . S
C134 C135 1.333 . S
C134 N136 1.317 . S
C134 H139 0.930 . S
C135 C134 1.333 . S
C135 N137 1.350 . S
C135 H161 0.931 . S
N136 Co132 2.148 . S
N136 C133 1.301 . S
N136 C134 1.317 . S
N137 C133 1.328 . S
N137 C135 1.350 . S
H138 C133 0.930 . S
H139 C134 0.930 . S
C140 O141 1.224 . S
C140 O159 1.247 . S
O141 C140 1.224 . S
N142 Co132 2.128 . S
N142 C143 1.355 . S
N142 C145 1.311 . S
C143 N142 1.355 . S
C143 C144 1.363 . S
C143 H155 0.929 . S
C144 C143 1.363 . S
C144 N146 1.375 . S
C144 H162 0.931 . S
C145 N142 1.311 . S
C145 N146 1.347 . S
C145 H156 0.929 . S
N146 C144 1.375 . S
N146 C145 1.347 . S
C147 C150 1.365 . S
C147 N152 1.328 . S
C147 H153 0.929 . S
C148 C149 1.362 . S
C148 C151 1.378 . S
C148 H163 0.929 . S
C149 C148 1.362 . S
C149 C150 1.366 . S
C150 C147 1.365 . S
C150 C149 1.366 . S
C150 H164 0.930 . S
C151 C148 1.378 . S
C151 N152 1.315 . S
C151 H154 0.930 . S
N152 Co132 2.194 . S
N152 C147 1.328 . S
N152 C151 1.315 . S
H153 C147 0.929 . S
H154 C151 0.930 . S
H155 C143 0.929 . S
H156 C145 0.929 . S
O157 Co132 2.351 . S
O157 C160 1.244 . S
O158 Co132 2.155 . S
O158 C160 1.240 . S
O159 Co132 2.096 . S
O159 C140 1.247 . S
C160 O157 1.244 . S
C160 O158 1.240 . S
H161 C135 0.931 . S
H162 C144 0.931 . S
H163 C148 0.929 . S
H164 C150 0.930 . S
Co165 N169 2.148 1_556 S
Co165 N175 2.128 . S
Co165 N185 2.194 . S
Co165 O190 2.351 . S
Co165 O191 2.155 . S
Co165 O192 2.096 . S
C166 N169 1.301 . S
C166 N170 1.328 . S
C166 H171 0.930 . S
C167 C168 1.333 . S
C167 N169 1.317 . S
C167 H172 0.930 . S
C168 C167 1.333 . S
C168 N170 1.350 . S
C168 H194 0.931 . S
N169 Co165 2.148 1_554 S
N169 C166 1.301 . S
N169 C167 1.317 . S
N170 C166 1.328 . S
N170 C168 1.350 . S
H171 C166 0.930 . S
H172 C167 0.930 . S
C173 O174 1.224 . S
C173 O192 1.247 . S
O174 C173 1.224 . S
N175 Co165 2.128 . S
N175 C176 1.355 . S
N175 C178 1.311 . S
C176 N175 1.355 . S
C176 C177 1.363 . S
C176 H188 0.929 . S
C177 C176 1.363 . S
C177 N179 1.375 . S
C177 H195 0.931 . S
C178 N175 1.311 . S
C178 N179 1.347 . S
C178 H189 0.929 . S
N179 C177 1.375 . S
N179 C178 1.347 . S
C180 C183 1.365 . S
C180 N185 1.328 . S
C180 H186 0.929 . S
C181 C182 1.362 . S
C181 C184 1.378 . S
C181 H196 0.929 . S
C182 C181 1.362 . S
C182 C183 1.366 . S
C183 C180 1.365 . S
C183 C182 1.366 . S
C183 H197 0.930 . S
C184 C181 1.378 . S
C184 N185 1.315 . S
C184 H187 0.930 . S
N185 Co165 2.194 . S
N185 C180 1.328 . S
N185 C184 1.315 . S
H186 C180 0.929 . S
H187 C184 0.930 . S
H188 C176 0.929 . S
H189 C178 0.929 . S
O190 Co165 2.351 . S
O190 C193 1.244 . S
O191 Co165 2.155 . S
O191 C193 1.240 . S
O192 Co165 2.096 . S
O192 C173 1.247 . S
C193 O190 1.244 . S
C193 O191 1.240 . S
H194 C168 0.931 . S
H195 C177 0.931 . S
H196 C181 0.929 . S
H197 C183 0.930 . S
Co198 N202 2.148 . S
Co198 N208 2.128 . S
Co198 N218 2.194 . S
Co198 O223 2.351 . S
Co198 O224 2.155 . S
Co198 O225 2.096 . S
C199 N202 1.301 . S
C199 N203 1.328 . S
C199 H204 0.930 . S
C200 C201 1.333 . S
C200 N202 1.317 . S
C200 H205 0.930 . S
C201 C200 1.333 . S
C201 N203 1.350 . S
C201 H227 0.931 . S
N202 Co198 2.148 . S
N202 C199 1.301 . S
N202 C200 1.317 . S
N203 C199 1.328 . S
N203 C201 1.350 . S
H204 C199 0.930 . S
H205 C200 0.930 . S
C206 O207 1.224 . S
C206 O225 1.247 . S
O207 C206 1.224 . S
N208 Co198 2.128 . S
N208 C209 1.355 . S
N208 C211 1.311 . S
C209 N208 1.355 . S
C209 C210 1.363 . S
C209 H221 0.929 . S
C210 C209 1.363 . S
C210 N212 1.375 . S
C210 H228 0.931 . S
C211 N208 1.311 . S
C211 N212 1.347 . S
C211 H222 0.929 . S
N212 C210 1.375 . S
N212 C211 1.347 . S
C213 C216 1.365 . S
C213 N218 1.328 . S
C213 H219 0.929 . S
C214 C215 1.362 . S
C214 C217 1.378 . S
C214 H229 0.929 . S
C215 C214 1.362 . S
C215 C216 1.366 . S
C216 C213 1.365 . S
C216 C215 1.366 . S
C216 H230 0.930 . S
C217 C214 1.378 . S
C217 N218 1.315 . S
C217 H220 0.930 . S
N218 Co198 2.194 . S
N218 C213 1.328 . S
N218 C217 1.315 . S
H219 C213 0.929 . S
H220 C217 0.930 . S
H221 C209 0.929 . S
H222 C211 0.929 . S
O223 Co198 2.351 . S
O223 C226 1.244 . S
O224 Co198 2.155 . S
O224 C226 1.240 . S
O225 Co198 2.096 . S
O225 C206 1.247 . S
C226 O223 1.244 . S
C226 O224 1.240 . S
H227 C201 0.931 . S
H228 C210 0.931 . S
H229 C214 0.929 . S
H230 C216 0.930 . S
Co231 N235 2.148 . S
Co231 N241 2.128 . S
Co231 N251 2.194 . S
Co231 O256 2.351 . S
Co231 O257 2.155 . S
Co231 O258 2.096 . S
C232 N235 1.301 . S
C232 N236 1.328 . S
C232 H237 0.930 . S
C233 C234 1.333 . S
C233 N235 1.317 . S
C233 H238 0.930 . S
C234 C233 1.333 . S
C234 N236 1.350 . S
C234 H260 0.931 . S
N235 Co231 2.148 . S
N235 C232 1.301 . S
N235 C233 1.317 . S
N236 C232 1.328 . S
N236 C234 1.350 . S
H237 C232 0.930 . S
H238 C233 0.930 . S
C239 O240 1.224 . S
C239 O258 1.247 . S
O240 C239 1.224 . S
N241 Co231 2.128 . S
N241 C242 1.355 1_556 S
N241 C244 1.311 1_556 S
C242 N241 1.355 1_554 S
C242 C243 1.363 . S
C242 H254 0.929 1_554 S
C243 C242 1.363 . S
C243 N245 1.375 . S
C243 H261 0.931 . S
C244 N241 1.311 1_554 S
C244 N245 1.347 . S
C244 H255 0.929 . S
N245 C243 1.375 . S
N245 C244 1.347 . S
C246 C249 1.365 . S
C246 N251 1.328 . S
C246 H252 0.929 . S
C247 C248 1.362 . S
C247 C250 1.378 . S
C247 H262 0.929 . S
C248 C247 1.362 . S
C248 C249 1.366 . S
C249 C246 1.365 . S
C249 C248 1.366 . S
C249 H263 0.930 . S
C250 C247 1.378 . S
C250 N251 1.315 . S
C250 H253 0.930 . S
N251 Co231 2.194 . S
N251 C246 1.328 . S
N251 C250 1.315 . S
H252 C246 0.929 . S
H253 C250 0.930 . S
H254 C242 0.929 1_556 S
H255 C244 0.929 . S
O256 Co231 2.351 . S
O256 C259 1.244 . S
O257 Co231 2.155 . S
O257 C259 1.240 . S
O258 Co231 2.096 . S
O258 C239 1.247 . S
C259 O256 1.244 . S
C259 O257 1.240 . S
H260 C234 0.931 . S
H261 C243 0.931 . S
H262 C247 0.929 . S
H263 C249 0.930 . S
Co264 N268 2.148 1_554 S
Co264 N274 2.128 . S
Co264 N284 2.194 . S
Co264 O289 2.351 . S
Co264 O290 2.155 . S
Co264 O291 2.096 . S
C265 N268 1.301 . S
C265 N269 1.328 . S
C265 H270 0.930 . S
C266 C267 1.333 . S
C266 N268 1.317 . S
C266 H271 0.930 . S
C267 C266 1.333 . S
C267 N269 1.350 . S
C267 H293 0.931 . S
N268 Co264 2.148 1_556 S
N268 C265 1.301 . S
N268 C266 1.317 . S
N269 C265 1.328 . S
N269 C267 1.350 . S
H270 C265 0.930 . S
H271 C266 0.930 . S
C272 O273 1.224 . S
C272 O291 1.247 . S
O273 C272 1.224 . S
N274 Co264 2.128 . S
N274 C275 1.355 . S
N274 C277 1.311 . S
C275 N274 1.355 . S
C275 C276 1.363 . S
C275 H287 0.929 . S
C276 C275 1.363 . S
C276 N278 1.375 . S
C276 H294 0.931 . S
C277 N274 1.311 . S
C277 N278 1.347 . S
C277 H288 0.929 . S
N278 C276 1.375 . S
N278 C277 1.347 . S
C279 C282 1.365 . S
C279 N284 1.328 . S
C279 H285 0.929 . S
C280 C281 1.362 . S
C280 C283 1.378 . S
C280 H295 0.929 . S
C281 C280 1.362 . S
C281 C282 1.366 . S
C282 C279 1.365 . S
C282 C281 1.366 . S
C282 H296 0.930 . S
C283 C280 1.378 . S
C283 N284 1.315 . S
C283 H286 0.930 . S
N284 Co264 2.194 . S
N284 C279 1.328 . S
N284 C283 1.315 . S
H285 C279 0.929 . S
H286 C283 0.930 . S
H287 C275 0.929 . S
H288 C277 0.929 . S
O289 Co264 2.351 . S
O289 C292 1.244 . S
O290 Co264 2.155 . S
O290 C292 1.240 . S
O291 Co264 2.096 . S
O291 C272 1.247 . S
C292 O289 1.244 . S
C292 O290 1.240 . S
H293 C267 0.931 . S
H294 C276 0.931 . S
H295 C280 0.929 . S
H296 C282 0.930 . S
Co297 N301 2.148 . S
Co297 N307 2.128 . S
Co297 N317 2.194 . S
Co297 O322 2.351 . S
Co297 O323 2.155 . S
Co297 O324 2.096 . S
C298 N301 1.301 . S
C298 N302 1.328 . S
C298 H303 0.930 . S
C299 C300 1.333 . S
C299 N301 1.317 . S
C299 H304 0.930 . S
C300 C299 1.333 . S
C300 N302 1.350 . S
C300 H326 0.931 . S
N301 Co297 2.148 . S
N301 C298 1.301 . S
N301 C299 1.317 . S
N302 C298 1.328 . S
N302 C300 1.350 . S
H303 C298 0.930 . S
H304 C299 0.930 . S
C305 O306 1.224 . S
C305 O324 1.247 . S
O306 C305 1.224 . S
N307 Co297 2.128 . S
N307 C308 1.355 . S
N307 C310 1.311 . S
C308 N307 1.355 . S
C308 C309 1.363 . S
C308 H320 0.929 . S
C309 C308 1.363 . S
C309 N311 1.375 . S
C309 H327 0.931 . S
C310 N307 1.311 . S
C310 N311 1.347 . S
C310 H321 0.929 . S
N311 C309 1.375 . S
N311 C310 1.347 . S
C312 C315 1.365 . S
C312 N317 1.328 . S
C312 H318 0.929 . S
C313 C314 1.362 . S
C313 C316 1.378 . S
C313 H328 0.929 . S
C314 C313 1.362 . S
C314 C315 1.366 . S
C315 C312 1.365 . S
C315 C314 1.366 . S
C315 H329 0.930 . S
C316 C313 1.378 . S
C316 N317 1.315 . S
C316 H319 0.930 . S
N317 Co297 2.194 . S
N317 C312 1.328 . S
N317 C316 1.315 . S
H318 C312 0.929 . S
H319 C316 0.930 . S
H320 C308 0.929 . S
H321 C310 0.929 . S
O322 Co297 2.351 . S
O322 C325 1.244 . S
O323 Co297 2.155 . S
O323 C325 1.240 . S
O324 Co297 2.096 . S
O324 C305 1.247 . S
C325 O322 1.244 . S
C325 O323 1.240 . S
H326 C300 0.931 . S
H327 C309 0.931 . S
H328 C313 0.929 . S
H329 C315 0.930 . S
Co330 N334 2.148 . S
Co330 N340 2.128 . S
Co330 N350 2.194 . S
Co330 O355 2.351 . S
Co330 O356 2.155 . S
Co330 O357 2.096 . S
C331 N334 1.301 . S
C331 N335 1.328 . S
C331 H336 0.930 . S
C332 C333 1.333 . S
C332 N334 1.317 . S
C332 H337 0.930 . S
C333 C332 1.333 . S
C333 N335 1.350 . S
C333 H359 0.931 . S
N334 Co330 2.148 . S
N334 C331 1.301 . S
N334 C332 1.317 . S
N335 C331 1.328 . S
N335 C333 1.350 . S
H336 C331 0.930 . S
H337 C332 0.930 . S
C338 O339 1.224 . S
C338 O357 1.247 . S
O339 C338 1.224 . S
N340 Co330 2.128 . S
N340 C341 1.355 . S
N340 C343 1.311 . S
C341 N340 1.355 . S
C341 C342 1.363 . S
C341 H353 0.929 . S
C342 C341 1.363 . S
C342 N344 1.375 . S
C342 H360 0.931 . S
C343 N340 1.311 . S
C343 N344 1.347 . S
C343 H354 0.929 . S
N344 C342 1.375 . S
N344 C343 1.347 . S
C345 C348 1.365 . S
C345 N350 1.328 . S
C345 H351 0.929 . S
C346 C347 1.362 . S
C346 C349 1.378 . S
C346 H361 0.929 . S
C347 C346 1.362 . S
C347 C348 1.366 . S
C348 C345 1.365 . S
C348 C347 1.366 . S
C348 H362 0.930 . S
C349 C346 1.378 . S
C349 N350 1.315 . S
C349 H352 0.930 . S
N350 Co330 2.194 . S
N350 C345 1.328 . S
N350 C349 1.315 . S
H351 C345 0.929 . S
H352 C349 0.930 . S
H353 C341 0.929 . S
H354 C343 0.929 . S
O355 Co330 2.351 . S
O355 C358 1.244 . S
O356 Co330 2.155 . S
O356 C358 1.240 . S
O357 Co330 2.096 . S
O357 C338 1.247 . S
C358 O355 1.244 . S
C358 O356 1.240 . S
H359 C333 0.931 . S
H360 C342 0.931 . S
H361 C346 0.929 . S
H362 C348 0.930 . S
Co363 N367 2.148 . S
Co363 N373 2.128 . S
Co363 N383 2.194 . S
Co363 O388 2.351 . S
Co363 O389 2.155 . S
Co363 O390 2.096 . S
C364 N367 1.301 . S
C364 N368 1.328 . S
C364 H369 0.930 . S
C365 C366 1.333 . S
C365 N367 1.317 . S
C365 H370 0.930 . S
C366 C365 1.333 . S
C366 N368 1.350 . S
C366 H392 0.931 . S
N367 Co363 2.148 . S
N367 C364 1.301 . S
N367 C365 1.317 . S
N368 C364 1.328 . S
N368 C366 1.350 . S
H369 C364 0.930 . S
H370 C365 0.930 . S
C371 O372 1.224 . S
C371 O390 1.247 . S
O372 C371 1.224 . S
N373 Co363 2.128 . S
N373 C374 1.355 . S
N373 C376 1.311 . S
C374 N373 1.355 . S
C374 C375 1.363 . S
C374 H386 0.929 . S
C375 C374 1.363 . S
C375 N377 1.375 . S
C375 H393 0.931 . S
C376 N373 1.311 . S
C376 N377 1.347 . S
C376 H387 0.929 . S
N377 C375 1.375 . S
N377 C376 1.347 . S
C378 C381 1.365 . S
C378 N383 1.328 . S
C378 H384 0.929 . S
C379 C380 1.362 . S
C379 C382 1.378 . S
C379 H394 0.929 . S
C380 C379 1.362 . S
C380 C381 1.366 . S
C381 C378 1.365 . S
C381 C380 1.366 . S
C381 H395 0.930 . S
C382 C379 1.378 . S
C382 N383 1.315 . S
C382 H385 0.930 . S
N383 Co363 2.194 . S
N383 C378 1.328 . S
N383 C382 1.315 . S
H384 C378 0.929 . S
H385 C382 0.930 . S
H386 C374 0.929 . S
H387 C376 0.929 . S
O388 Co363 2.351 . S
O388 C391 1.244 . S
O389 Co363 2.155 . S
O389 C391 1.240 . S
O390 Co363 2.096 . S
O390 C371 1.247 . S
C391 O388 1.244 . S
C391 O389 1.240 . S
H392 C366 0.931 . S
H393 C375 0.931 . S
H394 C379 0.929 . S
H395 C381 0.930 . S
C396 C397 1.349 . S
C396 C398 1.327 . S
C396 H421 0.950 . S
C397 C396 1.349 . S
C397 C413 1.349 . S
C398 C396 1.327 . S
C398 C417 1.429 . S
C398 H422 0.950 . S
C399 C416 1.574 . S
C399 C418 1.368 . S
C399 H423 0.949 . S
H400 C404 0.949 . S
C401 C402 1.349 . S
C401 C403 1.327 . S
C401 H424 0.950 . S
C402 C401 1.349 . S
C402 C414 1.349 . S
C403 C401 1.327 . S
C403 C419 1.429 . S
C403 H425 0.950 . S
C404 H400 0.949 . S
C404 C412 1.574 . S
C404 C420 1.368 . S
H405 C413 0.950 . S
H406 C411 0.950 . S
H407 C412 0.949 . S
H408 C414 0.950 . S
H409 C415 0.950 . S
H410 C416 0.949 . S
C411 H406 0.950 . S
C411 C413 1.327 . S
C411 C417 1.429 . S
C412 C404 1.574 . S
C412 H407 0.949 . S
C412 C418 1.368 . S
C413 C397 1.349 . S
C413 H405 0.950 . S
C413 C411 1.327 . S
C414 C402 1.349 . S
C414 H408 0.950 . S
C414 C415 1.327 . S
C415 H409 0.950 . S
C415 C414 1.327 . S
C415 C419 1.429 . S
C416 C399 1.574 . S
C416 H410 0.949 . S
C416 C420 1.368 . S
C417 C398 1.429 . S
C417 C411 1.429 . S
C417 C418 1.523 . S
C418 C399 1.368 . S
C418 C412 1.368 . S
C418 C417 1.523 . S
C419 C403 1.429 . S
C419 C415 1.429 . S
C419 C420 1.523 . S
C420 C404 1.368 . S
C420 C416 1.368 . S
C420 C419 1.523 . S
H421 C396 0.950 . S
H422 C398 0.950 . S
H423 C399 0.949 . S
H424 C401 0.950 . S
H425 C403 0.950 . S
C426 C427 1.349 1_556 S
C426 C428 1.327 . S
C426 H451 0.950 1_556 S
C427 C426 1.349 1_554 S
C427 C443 1.349 1_554 S
C428 C426 1.327 . S
C428 C447 1.429 . S
C428 H452 0.950 . S
C429 C446 1.574 . S
C429 C448 1.368 . S
C429 H453 0.949 . S
H430 C434 0.949 . S
C431 C432 1.349 . S
C431 C433 1.327 . S
C431 H454 0.950 . S
C432 C431 1.349 . S
C432 C444 1.349 . S
C433 C431 1.327 . S
C433 C449 1.429 . S
C433 H455 0.950 . S
C434 H430 0.949 . S
C434 C442 1.574 . S
C434 C450 1.368 . S
H435 C443 0.950 1_554 S
H436 C441 0.950 . S
H437 C442 0.949 . S
H438 C444 0.950 . S
H439 C445 0.950 . S
H440 C446 0.949 . S
C441 H436 0.950 . S
C441 C443 1.327 . S
C441 C447 1.429 . S
C442 C434 1.574 . S
C442 H437 0.949 . S
C442 C448 1.368 . S
C443 C427 1.349 1_556 S
C443 H435 0.950 1_556 S
C443 C441 1.327 . S
C444 C432 1.349 . S
C444 H438 0.950 . S
C444 C445 1.327 . S
C445 H439 0.950 . S
C445 C444 1.327 . S
C445 C449 1.429 . S
C446 C429 1.574 . S
C446 H440 0.949 . S
C446 C450 1.368 . S
C447 C428 1.429 . S
C447 C441 1.429 . S
C447 C448 1.523 . S
C448 C429 1.368 . S
C448 C442 1.368 . S
C448 C447 1.523 . S
C449 C433 1.429 . S
C449 C445 1.429 . S
C449 C450 1.523 . S
C450 C434 1.368 . S
C450 C446 1.368 . S
C450 C449 1.523 . S
H451 C426 0.950 1_554 S
H452 C428 0.950 . S
H453 C429 0.949 . S
H454 C431 0.950 . S
H455 C433 0.950 . S
C456 C457 1.349 . S
C456 C458 1.327 . S
C456 H481 0.950 . S
C457 C456 1.349 . S
C457 C473 1.349 . S
C458 C456 1.327 . S
C458 C477 1.429 . S
C458 H482 0.950 . S
C459 C476 1.574 . S
C459 C478 1.368 . S
C459 H483 0.949 . S
H460 C464 0.949 . S
C461 C462 1.349 . S
C461 C463 1.327 . S
C461 H484 0.950 . S
C462 C461 1.349 . S
C462 C474 1.349 . S
C463 C461 1.327 . S
C463 C479 1.429 . S
C463 H485 0.950 . S
C464 H460 0.949 . S
C464 C472 1.574 . S
C464 C480 1.368 . S
H465 C473 0.950 . S
H466 C471 0.950 . S
H467 C472 0.949 . S
H468 C474 0.950 . S
H469 C475 0.950 . S
H470 C476 0.949 . S
C471 H466 0.950 . S
C471 C473 1.327 . S
C471 C477 1.429 . S
C472 C464 1.574 . S
C472 H467 0.949 . S
C472 C478 1.368 . S
C473 C457 1.349 . S
C473 H465 0.950 . S
C473 C471 1.327 . S
C474 C462 1.349 . S
C474 H468 0.950 . S
C474 C475 1.327 . S
C475 H469 0.950 . S
C475 C474 1.327 . S
C475 C479 1.429 . S
C476 C459 1.574 . S
C476 H470 0.949 . S
C476 C480 1.368 . S
C477 C458 1.429 . S
C477 C471 1.429 . S
C477 C478 1.523 1_554 S
C478 C459 1.368 . S
C478 C472 1.368 . S
C478 C477 1.523 1_556 S
C479 C463 1.429 . S
C479 C475 1.429 . S
C479 C480 1.523 . S
C480 C464 1.368 . S
C480 C476 1.368 . S
C480 C479 1.523 . S
H481 C456 0.950 . S
H482 C458 0.950 . S
H483 C459 0.949 . S
H484 C461 0.950 . S
H485 C463 0.950 . S
C486 C487 1.349 . S
C486 C488 1.327 . S
C486 H511 0.950 . S
C487 C486 1.349 . S
C487 C503 1.349 . S
C488 C486 1.327 . S
C488 C507 1.429 . S
C488 H512 0.950 . S
C489 C506 1.574 . S
C489 C508 1.368 . S
C489 H513 0.949 . S
H490 C494 0.949 . S
C491 C492 1.349 . S
C491 C493 1.327 . S
C491 H514 0.950 . S
C492 C491 1.349 . S
C492 C504 1.349 . S
C493 C491 1.327 . S
C493 C509 1.429 . S
C493 H515 0.950 . S
C494 H490 0.949 . S
C494 C502 1.574 . S
C494 C510 1.368 . S
H495 C503 0.950 . S
H496 C501 0.950 . S
H497 C502 0.949 . S
H498 C504 0.950 . S
H499 C505 0.950 . S
H500 C506 0.949 . S
C501 H496 0.950 . S
C501 C503 1.327 . S
C501 C507 1.429 . S
C502 C494 1.574 . S
C502 H497 0.949 . S
C502 C508 1.368 . S
C503 C487 1.349 . S
C503 H495 0.950 . S
C503 C501 1.327 . S
C504 C492 1.349 . S
C504 H498 0.950 . S
C504 C505 1.327 . S
C505 H499 0.950 . S
C505 C504 1.327 . S
C505 C509 1.429 . S
C506 C489 1.574 . S
C506 H500 0.949 . S
C506 C510 1.368 . S
C507 C488 1.429 . S
C507 C501 1.429 . S
C507 C508 1.523 1_556 S
C508 C489 1.368 . S
C508 C502 1.368 . S
C508 C507 1.523 1_554 S
C509 C493 1.429 . S
C509 C505 1.429 . S
C509 C510 1.523 . S
C510 C494 1.368 . S
C510 C506 1.368 . S
C510 C509 1.523 . S
H511 C486 0.950 . S
H512 C488 0.950 . S
H513 C489 0.949 . S
H514 C491 0.950 . S
H515 C493 0.950 . S
C516 C517 1.349 . S
C516 C518 1.327 . S
C516 H541 0.950 . S
C517 C516 1.349 . S
C517 C533 1.349 . S
C518 C516 1.327 . S
C518 C537 1.429 . S
C518 H542 0.950 . S
C519 C536 1.574 . S
C519 C538 1.368 . S
C519 H543 0.949 . S
H520 C524 0.949 . S
C521 C522 1.349 . S
C521 C523 1.327 . S
C521 H544 0.950 . S
C522 C521 1.349 . S
C522 C534 1.349 . S
C523 C521 1.327 . S
C523 C539 1.429 . S
C523 H545 0.950 . S
C524 H520 0.949 . S
C524 C532 1.574 . S
C524 C540 1.368 . S
H525 C533 0.950 . S
H526 C531 0.950 . S
H527 C532 0.949 . S
H528 C534 0.950 . S
H529 C535 0.950 . S
H530 C536 0.949 . S
C531 H526 0.950 . S
C531 C533 1.327 . S
C531 C537 1.429 . S
C532 C524 1.574 . S
C532 H527 0.949 . S
C532 C538 1.368 . S
C533 C517 1.349 . S
C533 H525 0.950 . S
C533 C531 1.327 . S
C534 C522 1.349 . S
C534 H528 0.950 . S
C534 C535 1.327 . S
C535 H529 0.950 . S
C535 C534 1.327 . S
C535 C539 1.429 . S
C536 C519 1.574 . S
C536 H530 0.949 . S
C536 C540 1.368 . S
C537 C518 1.429 . S
C537 C531 1.429 . S
C537 C538 1.523 . S
C538 C519 1.368 . S
C538 C532 1.368 . S
C538 C537 1.523 . S
C539 C523 1.429 . S
C539 C535 1.429 . S
C539 C540 1.523 . S
C540 C524 1.368 . S
C540 C536 1.368 . S
C540 C539 1.523 . S
H541 C516 0.950 . S
H542 C518 0.950 . S
H543 C519 0.949 . S
H544 C521 0.950 . S
H545 C523 0.950 . S
C546 C547 1.349 . S
C546 C548 1.327 . S
C546 H571 0.950 . S
C547 C546 1.349 . S
C547 C563 1.349 . S
C548 C546 1.327 . S
C548 C567 1.429 . S
C548 H572 0.950 . S
C549 C566 1.574 . S
C549 C568 1.368 . S
C549 H573 0.949 . S
H550 C554 0.949 . S
C551 C552 1.349 . S
C551 C553 1.327 . S
C551 H574 0.950 . S
C552 C551 1.349 . S
C552 C564 1.349 . S
C553 C551 1.327 . S
C553 C569 1.429 . S
C553 H575 0.950 . S
C554 H550 0.949 . S
C554 C562 1.574 . S
C554 C570 1.368 . S
H555 C563 0.950 . S
H556 C561 0.950 . S
H557 C562 0.949 . S
H558 C564 0.950 . S
H559 C565 0.950 . S
H560 C566 0.949 . S
C561 H556 0.950 . S
C561 C563 1.327 . S
C561 C567 1.429 . S
C562 C554 1.574 . S
C562 H557 0.949 . S
C562 C568 1.368 . S
C563 C547 1.349 . S
C563 H555 0.950 . S
C563 C561 1.327 . S
C564 C552 1.349 . S
C564 H558 0.950 . S
C564 C565 1.327 . S
C565 H559 0.950 . S
C565 C564 1.327 . S
C565 C569 1.429 . S
C566 C549 1.574 . S
C566 H560 0.949 . S
C566 C570 1.368 . S
C567 C548 1.429 . S
C567 C561 1.429 . S
C567 C568 1.523 . S
C568 C549 1.368 . S
C568 C562 1.368 . S
C568 C567 1.523 . S
C569 C553 1.429 . S
C569 C565 1.429 . S
C569 C570 1.523 . S
C570 C554 1.368 . S
C570 C566 1.368 . S
C570 C569 1.523 . S
H571 C546 0.950 . S
H572 C548 0.950 . S
H573 C549 0.949 . S
H574 C551 0.950 . S
H575 C553 0.950 . S
C576 C577 1.349 . S
C576 C578 1.327 . S
C576 H601 0.950 . S
C577 C576 1.349 . S
C577 C593 1.349 . S
C578 C576 1.327 . S
C578 C597 1.429 . S
C578 H602 0.950 . S
C579 C596 1.574 . S
C579 C598 1.368 . S
C579 H603 0.949 . S
H580 C584 0.949 . S
C581 C582 1.349 1_554 S
C581 C583 1.327 . S
C581 H604 0.950 1_554 S
C582 C581 1.349 1_556 S
C582 C594 1.349 1_556 S
C583 C581 1.327 . S
C583 C599 1.429 . S
C583 H605 0.950 . S
C584 H580 0.949 . S
C584 C592 1.574 . S
C584 C600 1.368 . S
H585 C593 0.950 . S
H586 C591 0.950 . S
H587 C592 0.949 . S
H588 C594 0.949 1_556 S
H589 C595 0.950 . S
H590 C596 0.949 . S
C591 H586 0.950 . S
C591 C593 1.327 . S
C591 C597 1.429 . S
C592 C584 1.574 . S
C592 H587 0.949 . S
C592 C598 1.368 . S
C593 C577 1.349 . S
C593 H585 0.950 . S
C593 C591 1.327 . S
C594 C582 1.349 1_554 S
C594 H588 0.949 1_554 S
C594 C595 1.327 . S
C595 H589 0.950 . S
C595 C594 1.327 . S
C595 C599 1.429 . S
C596 C579 1.574 . S
C596 H590 0.949 . S
C596 C600 1.368 . S
C597 C578 1.429 . S
C597 C591 1.429 . S
C597 C598 1.523 . S
C598 C579 1.368 . S
C598 C592 1.368 . S
C598 C597 1.523 . S
C599 C583 1.429 . S
C599 C595 1.429 . S
C599 C600 1.523 . S
C600 C584 1.368 . S
C600 C596 1.368 . S
C600 C599 1.523 . S
H601 C576 0.950 . S
H602 C578 0.950 . S
H603 C579 0.949 . S
H604 C581 0.950 1_556 S
H605 C583 0.950 . S
C606 C607 1.349 . S
C606 C608 1.327 . S
C606 H631 0.950 . S
C607 C606 1.349 . S
C607 C623 1.349 . S
C608 C606 1.327 . S
C608 C627 1.429 . S
C608 H632 0.950 . S
C609 C626 1.574 . S
C609 C628 1.368 . S
C609 H633 0.949 . S
H610 C614 0.949 . S
C611 C612 1.349 . S
C611 C613 1.327 . S
C611 H634 0.950 . S
C612 C611 1.349 . S
C612 C624 1.349 . S
C613 C611 1.327 . S
C613 C629 1.429 . S
C613 H635 0.950 . S
C614 H610 0.949 . S
C614 C622 1.574 . S
C614 C630 1.368 . S
H615 C623 0.950 . S
H616 C621 0.950 . S
H617 C622 0.949 . S
H618 C624 0.950 . S
H619 C625 0.950 . S
H620 C626 0.949 . S
C621 H616 0.950 . S
C621 C623 1.327 . S
C621 C627 1.429 . S
C622 C614 1.574 . S
C622 H617 0.949 . S
C622 C628 1.368 . S
C623 C607 1.349 . S
C623 H615 0.950 . S
C623 C621 1.327 . S
C624 C612 1.349 . S
C624 H618 0.950 . S
C624 C625 1.327 . S
C625 H619 0.950 . S
C625 C624 1.327 . S
C625 C629 1.429 . S
C626 C609 1.574 . S
C626 H620 0.949 . S
C626 C630 1.368 . S
C627 C608 1.429 . S
C627 C621 1.429 . S
C627 C628 1.523 . S
C628 C609 1.368 . S
C628 C622 1.368 . S
C628 C627 1.523 . S
C629 C613 1.429 . S
C629 C625 1.429 . S
C629 C630 1.523 . S
C630 C614 1.368 . S
C630 C626 1.368 . S
C630 C629 1.523 . S
H631 C606 0.950 . S
H632 C608 0.950 . S
H633 C609 0.949 . S
H634 C611 0.950 . S
H635 C613 0.950 . S
C636 C637 1.349 . S
C636 C638 1.327 . S
C636 H661 0.950 . S
C637 C636 1.349 . S
C637 C653 1.349 . S
C638 C636 1.327 . S
C638 C657 1.429 . S
C638 H662 0.950 . S
C639 C656 1.574 . S
C639 C658 1.368 . S
C639 H663 0.949 . S
H640 C644 0.949 . S
C641 C642 1.349 . S
C641 C643 1.327 . S
C641 H664 0.950 . S
C642 C641 1.349 . S
C642 C654 1.349 . S
C643 C641 1.327 . S
C643 C659 1.429 . S
C643 H665 0.950 . S
C644 H640 0.949 . S
C644 C652 1.574 . S
C644 C660 1.368 . S
H645 C653 0.950 . S
H646 C651 0.950 . S
H647 C652 0.949 . S
H648 C654 0.950 . S
H649 C655 0.950 . S
H650 C656 0.949 . S
C651 H646 0.950 . S
C651 C653 1.327 . S
C651 C657 1.429 . S
C652 C644 1.574 . S
C652 H647 0.949 . S
C652 C658 1.368 . S
C653 C637 1.349 . S
C653 H645 0.950 . S
C653 C651 1.327 . S
C654 C642 1.349 . S
C654 H648 0.950 . S
C654 C655 1.327 . S
C655 H649 0.950 . S
C655 C654 1.327 . S
C655 C659 1.429 . S
C656 C639 1.574 . S
C656 H650 0.949 . S
C656 C660 1.368 . S
C657 C638 1.429 . S
C657 C651 1.429 . S
C657 C658 1.523 . S
C658 C639 1.368 . S
C658 C652 1.368 . S
C658 C657 1.523 . S
C659 C643 1.429 . S
C659 C655 1.429 . S
C659 C660 1.523 . S
C660 C644 1.368 . S
C660 C656 1.368 . S
C660 C659 1.523 . S
H661 C636 0.950 . S
H662 C638 0.950 . S
H663 C639 0.949 . S
H664 C641 0.950 . S
H665 C643 0.950 . S
C666 C667 1.349 . S
C666 C668 1.327 . S
C666 H691 0.950 . S
C667 C666 1.349 . S
C667 C683 1.349 . S
C668 C666 1.327 . S
C668 C687 1.429 . S
C668 H692 0.950 . S
C669 C686 1.574 . S
C669 C688 1.368 . S
C669 H693 0.949 . S
H670 C674 0.949 . S
C671 C672 1.349 . S
C671 C673 1.327 . S
C671 H694 0.950 . S
C672 C671 1.349 . S
C672 C684 1.349 . S
C673 C671 1.327 . S
C673 C689 1.429 . S
C673 H695 0.950 . S
C674 H670 0.949 . S
C674 C682 1.574 . S
C674 C690 1.368 . S
H675 C683 0.950 . S
H676 C681 0.950 . S
H677 C682 0.949 . S
H678 C684 0.950 . S
H679 C685 0.950 . S
H680 C686 0.949 . S
C681 H676 0.950 . S
C681 C683 1.327 . S
C681 C687 1.429 . S
C682 C674 1.574 . S
C682 H677 0.949 . S
C682 C688 1.368 . S
C683 C667 1.349 . S
C683 H675 0.950 . S
C683 C681 1.327 . S
C684 C672 1.349 . S
C684 H678 0.950 . S
C684 C685 1.327 . S
C685 H679 0.950 . S
C685 C684 1.327 . S
C685 C689 1.429 . S
C686 C669 1.574 . S
C686 H680 0.949 . S
C686 C690 1.368 . S
C687 C668 1.429 . S
C687 C681 1.429 . S
C687 C688 1.523 . S
C688 C669 1.368 . S
C688 C682 1.368 . S
C688 C687 1.523 . S
C689 C673 1.429 . S
C689 C685 1.429 . S
C689 C690 1.523 . S
C690 C674 1.368 . S
C690 C686 1.368 . S
C690 C689 1.523 . S
H691 C666 0.950 . S
H692 C668 0.950 . S
H693 C669 0.949 . S
H694 C671 0.950 . S
H695 C673 0.950 . S
C696 C697 1.349 . S
C696 C698 1.327 . S
C696 H721 0.950 . S
C697 C696 1.349 . S
C697 C713 1.349 . S
C698 C696 1.327 . S
C698 C717 1.429 . S
C698 H722 0.950 . S
C699 C716 1.574 . S
C699 C718 1.368 . S
C699 H723 0.949 . S
H700 C704 0.949 . S
C701 C702 1.349 . S
C701 C703 1.327 . S
C701 H724 0.950 . S
C702 C701 1.349 . S
C702 C714 1.349 . S
C703 C701 1.327 . S
C703 C719 1.429 . S
C703 H725 0.950 . S
C704 H700 0.949 . S
C704 C712 1.574 . S
C704 C720 1.368 . S
H705 C713 0.950 . S
H706 C711 0.950 . S
H707 C712 0.949 . S
H708 C714 0.950 . S
H709 C715 0.950 . S
H710 C716 0.949 . S
C711 H706 0.950 . S
C711 C713 1.327 . S
C711 C717 1.429 . S
C712 C704 1.574 . S
C712 H707 0.949 . S
C712 C718 1.368 . S
C713 C697 1.349 . S
C713 H705 0.950 . S
C713 C711 1.327 . S
C714 C702 1.349 . S
C714 H708 0.950 . S
C714 C715 1.327 . S
C715 H709 0.950 . S
C715 C714 1.327 . S
C715 C719 1.429 . S
C716 C699 1.574 . S
C716 H710 0.949 . S
C716 C720 1.368 . S
C717 C698 1.429 . S
C717 C711 1.429 . S
C717 C718 1.523 1_554 S
C718 C699 1.368 . S
C718 C712 1.368 . S
C718 C717 1.523 1_556 S
C719 C703 1.429 . S
C719 C715 1.429 . S
C719 C720 1.523 . S
C720 C704 1.368 . S
C720 C716 1.368 . S
C720 C719 1.523 . S
H721 C696 0.950 . S
H722 C698 0.950 . S
H723 C699 0.949 . S
H724 C701 0.950 . S
H725 C703 0.950 . S
C726 C727 1.349 . S
C726 C728 1.327 . S
C726 H751 0.950 . S
C727 C726 1.349 . S
C727 C743 1.349 . S
C728 C726 1.327 . S
C728 C747 1.429 . S
C728 H752 0.950 . S
C729 C746 1.574 . S
C729 C748 1.368 . S
C729 H753 0.949 . S
H730 C734 0.949 . S
C731 C732 1.349 . S
C731 C733 1.327 . S
C731 H754 0.950 . S
C732 C731 1.349 . S
C732 C744 1.349 . S
C733 C731 1.327 . S
C733 C749 1.429 . S
C733 H755 0.950 . S
C734 H730 0.949 . S
C734 C742 1.574 . S
C734 C750 1.368 . S
H735 C743 0.950 . S
H736 C741 0.950 . S
H737 C742 0.949 . S
H738 C744 0.950 . S
H739 C745 0.950 . S
H740 C746 0.949 . S
C741 H736 0.950 . S
C741 C743 1.327 . S
C741 C747 1.429 . S
C742 C734 1.574 . S
C742 H737 0.949 . S
C742 C748 1.368 . S
C743 C727 1.349 . S
C743 H735 0.950 . S
C743 C741 1.327 . S
C744 C732 1.349 . S
C744 H738 0.950 . S
C744 C745 1.327 . S
C745 H739 0.950 . S
C745 C744 1.327 . S
C745 C749 1.429 . S
C746 C729 1.574 . S
C746 H740 0.949 . S
C746 C750 1.368 . S
C747 C728 1.429 . S
C747 C741 1.429 . S
C747 C748 1.523 1_556 S
C748 C729 1.368 . S
C748 C742 1.368 . S
C748 C747 1.523 1_554 S
C749 C733 1.429 . S
C749 C745 1.429 . S
C749 C750 1.523 . S
C750 C734 1.368 . S
C750 C746 1.368 . S
C750 C749 1.523 . S
H751 C726 0.950 . S
H752 C728 0.950 . S
H753 C729 0.949 . S
H754 C731 0.950 . S
H755 C733 0.950 . S
C756 C757 1.349 . S
C756 C758 1.327 . S
C756 H781 0.950 . S
C757 C756 1.349 . S
C757 C773 1.349 . S
C758 C756 1.327 . S
C758 C777 1.429 . S
C758 H782 0.950 . S
C759 C776 1.574 . S
C759 C778 1.368 . S
C759 H783 0.949 . S
H760 C764 0.949 . S
C761 C762 1.349 . S
C761 C763 1.327 1_554 S
C761 H784 0.950 . S
C762 C761 1.349 . S
C762 C774 1.349 . S
C763 C761 1.327 1_556 S
C763 C779 1.429 . S
C763 H785 0.950 . S
C764 H760 0.949 . S
C764 C772 1.574 . S
C764 C780 1.368 . S
H765 C773 0.950 . S
H766 C771 0.950 . S
H767 C772 0.949 . S
H768 C774 0.950 . S
H769 C775 0.950 . S
H770 C776 0.949 . S
C771 H766 0.950 . S
C771 C773 1.327 . S
C771 C777 1.429 . S
C772 C764 1.574 . S
C772 H767 0.949 . S
C772 C778 1.368 . S
C773 C757 1.349 . S
C773 H765 0.950 . S
C773 C771 1.327 . S
C774 C762 1.349 . S
C774 H768 0.950 . S
C774 C775 1.327 1_554 S
C775 H769 0.950 . S
C775 C774 1.327 1_556 S
C775 C779 1.429 . S
C776 C759 1.574 . S
C776 H770 0.949 . S
C776 C780 1.368 . S
C777 C758 1.429 . S
C777 C771 1.429 . S
C777 C778 1.523 . S
C778 C759 1.368 . S
C778 C772 1.368 . S
C778 C777 1.523 . S
C779 C763 1.429 . S
C779 C775 1.429 . S
C779 C780 1.523 . S
C780 C764 1.368 . S
C780 C776 1.368 . S
C780 C779 1.523 . S
H781 C756 0.950 . S
H782 C758 0.950 . S
H783 C759 0.949 . S
H784 C761 0.950 . S
H785 C763 0.950 . S
C786 C787 1.349 . S
C786 C788 1.327 . S
C786 H811 0.950 . S
C787 C786 1.349 . S
C787 C803 1.349 . S
C788 C786 1.327 . S
C788 C807 1.429 . S
C788 H812 0.950 . S
C789 C806 1.574 . S
C789 C808 1.368 . S
C789 H813 0.949 . S
H790 C794 0.949 1_556 S
C791 C792 1.349 1_554 S
C791 C793 1.327 . S
C791 H814 0.950 . S
C792 C791 1.349 1_556 S
C792 C804 1.349 . S
C793 C791 1.327 . S
C793 C809 1.429 . S
C793 H815 0.950 . S
C794 H790 0.949 1_554 S
C794 C802 1.574 . S
C794 C810 1.368 . S
H795 C803 0.950 . S
H796 C801 0.950 . S
H797 C802 0.949 . S
H798 C804 0.950 . S
H799 C805 0.950 . S
H800 C806 0.949 . S
C801 H796 0.950 . S
C801 C803 1.327 . S
C801 C807 1.429 . S
C802 C794 1.574 . S
C802 H797 0.949 . S
C802 C808 1.368 . S
C803 C787 1.349 . S
C803 H795 0.950 . S
C803 C801 1.327 . S
C804 C792 1.349 . S
C804 H798 0.950 . S
C804 C805 1.327 . S
C805 H799 0.950 . S
C805 C804 1.327 . S
C805 C809 1.429 1_556 S
C806 C789 1.574 . S
C806 H800 0.949 . S
C806 C810 1.368 . S
C807 C788 1.429 . S
C807 C801 1.429 . S
C807 C808 1.523 . S
C808 C789 1.368 . S
C808 C802 1.368 . S
C808 C807 1.523 . S
C809 C793 1.429 . S
C809 C805 1.429 1_554 S
C809 C810 1.523 . S
C810 C794 1.368 . S
C810 C806 1.368 . S
C810 C809 1.523 . S
H811 C786 0.950 . S
H812 C788 0.950 . S
H813 C789 0.949 . S
H814 C791 0.950 . S
H815 C793 0.950 . S
C816 C817 1.349 . S
C816 C818 1.327 . S
C816 H841 0.950 . S
C817 C816 1.349 . S
C817 C833 1.349 . S
C818 C816 1.327 . S
C818 C837 1.429 . S
C818 H842 0.950 . S
C819 C836 1.574 . S
C819 C838 1.368 . S
C819 H843 0.949 . S
H820 C824 0.949 . S
C821 C822 1.349 . S
C821 C823 1.327 . S
C821 H844 0.950 . S
C822 C821 1.349 . S
C822 C834 1.349 . S
C823 C821 1.327 . S
C823 C839 1.429 . S
C823 H845 0.950 . S
C824 H820 0.949 . S
C824 C832 1.574 . S
C824 C840 1.368 . S
H825 C833 0.950 . S
H826 C831 0.950 . S
H827 C832 0.949 . S
H828 C834 0.950 . S
H829 C835 0.950 . S
H830 C836 0.949 . S
C831 H826 0.950 . S
C831 C833 1.327 . S
C831 C837 1.429 . S
C832 C824 1.574 . S
C832 H827 0.949 . S
C832 C838 1.368 . S
C833 C817 1.349 . S
C833 H825 0.950 . S
C833 C831 1.327 . S
C834 C822 1.349 . S
C834 H828 0.950 . S
C834 C835 1.327 . S
C835 H829 0.950 . S
C835 C834 1.327 . S
C835 C839 1.429 . S
C836 C819 1.574 . S
C836 H830 0.949 . S
C836 C840 1.368 . S
C837 C818 1.429 . S
C837 C831 1.429 . S
C837 C838 1.523 . S
C838 C819 1.368 . S
C838 C832 1.368 . S
C838 C837 1.523 . S
C839 C823 1.429 . S
C839 C835 1.429 . S
C839 C840 1.523 . S
C840 C824 1.368 . S
C840 C836 1.368 . S
C840 C839 1.523 . S
H841 C816 0.950 . S
H842 C818 0.950 . S
H843 C819 0.949 . S
H844 C821 0.950 . S
H845 C823 0.950 . S
C846 C847 1.349 . S
C846 C848 1.327 . S
C846 H871 0.950 . S
C847 C846 1.349 . S
C847 C863 1.349 . S
C848 C846 1.327 . S
C848 C867 1.429 . S
C848 H872 0.950 . S
C849 C866 1.574 . S
C849 C868 1.368 . S
C849 H873 0.949 . S
H850 C854 0.949 . S
C851 C852 1.349 . S
C851 C853 1.327 . S
C851 H874 0.950 . S
C852 C851 1.349 . S
C852 C864 1.349 . S
C853 C851 1.327 . S
C853 C869 1.429 . S
C853 H875 0.950 . S
C854 H850 0.949 . S
C854 C862 1.574 . S
C854 C870 1.368 . S
H855 C863 0.950 . S
H856 C861 0.950 . S
H857 C862 0.949 . S
H858 C864 0.950 . S
H859 C865 0.950 . S
H860 C866 0.949 . S
C861 H856 0.950 . S
C861 C863 1.327 . S
C861 C867 1.429 . S
C862 C854 1.574 . S
C862 H857 0.949 . S
C862 C868 1.368 . S
C863 C847 1.349 . S
C863 H855 0.950 . S
C863 C861 1.327 . S
C864 C852 1.349 . S
C864 H858 0.950 . S
C864 C865 1.327 . S
C865 H859 0.950 . S
C865 C864 1.327 . S
C865 C869 1.429 . S
C866 C849 1.574 . S
C866 H860 0.949 . S
C866 C870 1.368 . S
C867 C848 1.429 . S
C867 C861 1.429 . S
C867 C868 1.523 . S
C868 C849 1.368 . S
C868 C862 1.368 . S
C868 C867 1.523 . S
C869 C853 1.429 . S
C869 C865 1.429 . S
C869 C870 1.523 . S
C870 C854 1.368 . S
C870 C866 1.368 . S
C870 C869 1.523 . S
H871 C846 0.950 . S
H872 C848 0.950 . S
H873 C849 0.949 . S
H874 C851 0.950 . S
H875 C853 0.950 . S
C876 C877 1.349 . S
C876 C878 1.327 . S
C876 H901 0.950 . S
C877 C876 1.349 . S
C877 C893 1.349 . S
C878 C876 1.327 . S
C878 C897 1.429 . S
C878 H902 0.950 . S
C879 C896 1.574 . S
C879 C898 1.368 . S
C879 H903 0.949 . S
H880 C884 0.949 . S
C881 C882 1.349 . S
C881 C883 1.327 . S
C881 H904 0.950 . S
C882 C881 1.349 . S
C882 C894 1.349 . S
C883 C881 1.327 . S
C883 C899 1.429 . S
C883 H905 0.950 . S
C884 H880 0.949 . S
C884 C892 1.574 . S
C884 C900 1.368 . S
H885 C893 0.950 . S
H886 C891 0.950 . S
H887 C892 0.949 . S
H888 C894 0.950 . S
H889 C895 0.950 . S
H890 C896 0.949 . S
C891 H886 0.950 . S
C891 C893 1.327 . S
C891 C897 1.429 . S
C892 C884 1.574 . S
C892 H887 0.949 . S
C892 C898 1.368 . S
C893 C877 1.349 . S
C893 H885 0.950 . S
C893 C891 1.327 . S
C894 C882 1.349 . S
C894 H888 0.950 . S
C894 C895 1.327 . S
C895 H889 0.950 . S
C895 C894 1.327 . S
C895 C899 1.429 . S
C896 C879 1.574 . S
C896 H890 0.949 . S
C896 C900 1.368 . S
C897 C878 1.429 . S
C897 C891 1.429 . S
C897 C898 1.523 . S
C898 C879 1.368 . S
C898 C892 1.368 . S
C898 C897 1.523 . S
C899 C883 1.429 . S
C899 C895 1.429 . S
C899 C900 1.523 . S
C900 C884 1.368 . S
C900 C896 1.368 . S
C900 C899 1.523 . S
H901 C876 0.950 . S
H902 C878 0.950 . S
H903 C879 0.949 . S
H904 C881 0.950 . S
H905 C883 0.950 . S
C906 C907 1.349 . S
C906 C908 1.327 . S
C906 H931 0.950 . S
C907 C906 1.349 . S
C907 C923 1.349 . S
C908 C906 1.327 . S
C908 C927 1.429 . S
C908 H932 0.950 . S
C909 C926 1.574 . S
C909 C928 1.368 . S
C909 H933 0.949 . S
H910 C914 0.949 . S
C911 C912 1.349 . S
C911 C913 1.327 . S
C911 H934 0.950 . S
C912 C911 1.349 . S
C912 C924 1.349 . S
C913 C911 1.327 . S
C913 C929 1.429 . S
C913 H935 0.950 . S
C914 H910 0.949 . S
C914 C922 1.574 . S
C914 C930 1.368 . S
H915 C923 0.950 . S
H916 C921 0.950 . S
H917 C922 0.949 . S
H918 C924 0.950 . S
H919 C925 0.950 . S
H920 C926 0.949 . S
C921 H916 0.950 . S
C921 C923 1.327 . S
C921 C927 1.429 . S
C922 C914 1.574 . S
C922 H917 0.949 . S
C922 C928 1.368 . S
C923 C907 1.349 . S
C923 H915 0.950 . S
C923 C921 1.327 . S
C924 C912 1.349 . S
C924 H918 0.950 . S
C924 C925 1.327 . S
C925 H919 0.950 . S
C925 C924 1.327 . S
C925 C929 1.429 . S
C926 C909 1.574 . S
C926 H920 0.949 . S
C926 C930 1.368 . S
C927 C908 1.429 . S
C927 C921 1.429 . S
C927 C928 1.523 . S
C928 C909 1.368 . S
C928 C922 1.368 . S
C928 C927 1.523 . S
C929 C913 1.429 . S
C929 C925 1.429 . S
C929 C930 1.523 . S
C930 C914 1.368 . S
C930 C926 1.368 . S
C930 C929 1.523 . S
H931 C906 0.950 . S
H932 C908 0.950 . S
H933 C909 0.949 . S
H934 C911 0.950 . S
H935 C913 0.950 . S
C936 C937 1.349 . S
C936 C938 1.327 . S
C936 H961 0.950 . S
C937 C936 1.349 . S
C937 C953 1.349 . S
C938 C936 1.327 . S
C938 C957 1.429 . S
C938 H962 0.950 . S
C939 C956 1.574 . S
C939 C958 1.368 . S
C939 H963 0.949 . S
H940 C944 0.949 . S
C941 C942 1.349 . S
C941 C943 1.327 . S
C941 H964 0.950 . S
C942 C941 1.349 . S
C942 C954 1.349 . S
C943 C941 1.327 . S
C943 C959 1.429 . S
C943 H965 0.950 . S
C944 H940 0.949 . S
C944 C952 1.574 . S
C944 C960 1.368 . S
H945 C953 0.950 . S
H946 C951 0.950 . S
H947 C952 0.949 . S
H948 C954 0.950 . S
H949 C955 0.950 . S
H950 C956 0.949 . S
C951 H946 0.950 . S
C951 C953 1.327 . S
C951 C957 1.429 . S
C952 C944 1.574 . S
C952 H947 0.949 . S
C952 C958 1.368 . S
C953 C937 1.349 . S
C953 H945 0.950 . S
C953 C951 1.327 . S
C954 C942 1.349 . S
C954 H948 0.950 . S
C954 C955 1.327 . S
C955 H949 0.950 . S
C955 C954 1.327 . S
C955 C959 1.429 . S
C956 C939 1.574 . S
C956 H950 0.949 . S
C956 C960 1.368 . S
C957 C938 1.429 . S
C957 C951 1.429 . S
C957 C958 1.523 . S
C958 C939 1.368 . S
C958 C952 1.368 . S
C958 C957 1.523 . S
C959 C943 1.429 . S
C959 C955 1.429 . S
C959 C960 1.523 . S
C960 C944 1.368 . S
C960 C956 1.368 . S
C960 C959 1.523 . S
H961 C936 0.950 . S
H962 C938 0.950 . S
H963 C939 0.949 . S
H964 C941 0.950 . S
H965 C943 0.950 . S
C966 C967 1.349 . S
C966 C968 1.327 . S
C966 H991 0.950 . S
C967 C966 1.349 . S
C967 C983 1.349 . S
C968 C966 1.327 . S
C968 C987 1.429 . S
C968 H992 0.950 . S
C969 C986 1.574 . S
C969 C988 1.368 . S
C969 H993 0.949 . S
H970 C974 0.949 . S
C971 C972 1.349 . S
C971 C973 1.327 . S
C971 H994 0.950 . S
C972 C971 1.349 . S
C972 C984 1.349 . S
C973 C971 1.327 . S
C973 C989 1.429 . S
C973 H995 0.950 . S
C974 H970 0.949 . S
C974 C982 1.574 . S
C974 C990 1.368 . S
H975 C983 0.950 . S
H976 C981 0.950 . S
H977 C982 0.949 . S
H978 C984 0.950 . S
H979 C985 0.950 . S
H980 C986 0.949 . S
C981 H976 0.950 . S
C981 C983 1.327 . S
C981 C987 1.429 . S
C982 C974 1.574 . S
C982 H977 0.949 . S
C982 C988 1.368 . S
C983 C967 1.349 . S
C983 H975 0.950 . S
C983 C981 1.327 . S
C984 C972 1.349 . S
C984 H978 0.950 . S
C984 C985 1.327 . S
C985 H979 0.950 . S
C985 C984 1.327 . S
C985 C989 1.429 . S
C986 C969 1.574 . S
C986 H980 0.949 . S
C986 C990 1.368 . S
C987 C968 1.429 . S
C987 C981 1.429 . S
C987 C988 1.523 . S
C988 C969 1.368 . S
C988 C982 1.368 . S
C988 C987 1.523 . S
C989 C973 1.429 . S
C989 C985 1.429 . S
C989 C990 1.523 . S
C990 C974 1.368 . S
C990 C986 1.368 . S
C990 C989 1.523 . S
H991 C966 0.950 . S
H992 C968 0.950 . S
H993 C969 0.949 . S
H994 C971 0.950 . S
H995 C973 0.950 . S
C996 C997 1.349 . S
C996 C998 1.327 . S
C996 H1021 0.950 . S
C997 C996 1.349 . S
C997 C1013 1.349 . S
C998 C996 1.327 . S
C998 C1017 1.429 . S
C998 H1022 0.950 . S
C999 C1016 1.574 . S
C999 C1018 1.368 . S
C999 H1023 0.949 . S
H1000 C1004 0.949 . S
C1001 C1002 1.349 . S
C1001 C1003 1.327 . S
C1001 H1024 0.950 . S
C1002 C1001 1.349 . S
C1002 C1014 1.349 . S
C1003 C1001 1.327 . S
C1003 C1019 1.429 . S
C1003 H1025 0.950 . S
C1004 H1000 0.949 . S
C1004 C1012 1.574 . S
C1004 C1020 1.368 . S
H1005 C1013 0.950 . S
H1006 C1011 0.950 . S
H1007 C1012 0.949 . S
H1008 C1014 0.950 . S
H1009 C1015 0.950 . S
H1010 C1016 0.949 . S
C1011 H1006 0.950 . S
C1011 C1013 1.327 . S
C1011 C1017 1.429 . S
C1012 C1004 1.574 . S
C1012 H1007 0.949 . S
C1012 C1018 1.368 . S
C1013 C997 1.349 . S
C1013 H1005 0.950 . S
C1013 C1011 1.327 . S
C1014 C1002 1.349 . S
C1014 H1008 0.950 . S
C1014 C1015 1.327 . S
C1015 H1009 0.950 . S
C1015 C1014 1.327 . S
C1015 C1019 1.429 . S
C1016 C999 1.574 . S
C1016 H1010 0.949 . S
C1016 C1020 1.368 . S
C1017 C998 1.429 . S
C1017 C1011 1.429 . S
C1017 C1018 1.523 . S
C1018 C999 1.368 . S
C1018 C1012 1.368 . S
C1018 C1017 1.523 . S
C1019 C1003 1.429 . S
C1019 C1015 1.429 . S
C1019 C1020 1.523 . S
C1020 C1004 1.368 . S
C1020 C1016 1.368 . S
C1020 C1019 1.523 . S
H1021 C996 0.950 . S
H1022 C998 0.950 . S
H1023 C999 0.949 . S
H1024 C1001 0.950 . S
H1025 C1003 0.950 . S
C1026 C1027 1.349 . S
C1026 C1028 1.327 . S
C1026 H1051 0.950 . S
C1027 C1026 1.349 . S
C1027 C1043 1.349 . S
C1028 C1026 1.327 . S
C1028 C1047 1.429 . S
C1028 H1052 0.950 . S
C1029 C1046 1.574 . S
C1029 C1048 1.368 . S
C1029 H1053 0.949 . S
H1030 C1034 0.949 . S
C1031 C1032 1.349 . S
C1031 C1033 1.327 . S
C1031 H1054 0.950 . S
C1032 C1031 1.349 . S
C1032 C1044 1.349 . S
C1033 C1031 1.327 . S
C1033 C1049 1.429 . S
C1033 H1055 0.950 . S
C1034 H1030 0.949 . S
C1034 C1042 1.574 . S
C1034 C1050 1.368 . S
H1035 C1043 0.950 . S
H1036 C1041 0.950 . S
H1037 C1042 0.949 . S
H1038 C1044 0.950 . S
H1039 C1045 0.950 . S
H1040 C1046 0.949 . S
C1041 H1036 0.950 . S
C1041 C1043 1.327 . S
C1041 C1047 1.429 . S
C1042 C1034 1.574 . S
C1042 H1037 0.949 . S
C1042 C1048 1.368 . S
C1043 C1027 1.349 . S
C1043 H1035 0.950 . S
C1043 C1041 1.327 . S
C1044 C1032 1.349 . S
C1044 H1038 0.950 . S
C1044 C1045 1.327 . S
C1045 H1039 0.950 . S
C1045 C1044 1.327 . S
C1045 C1049 1.429 . S
C1046 C1029 1.574 . S
C1046 H1040 0.949 . S
C1046 C1050 1.368 . S
C1047 C1028 1.429 . S
C1047 C1041 1.429 . S
C1047 C1048 1.523 . S
C1048 C1029 1.368 . S
C1048 C1042 1.368 . S
C1048 C1047 1.523 . S
C1049 C1033 1.429 . S
C1049 C1045 1.429 . S
C1049 C1050 1.523 . S
C1050 C1034 1.368 . S
C1050 C1046 1.368 . S
C1050 C1049 1.523 . S
H1051 C1026 0.950 . S
H1052 C1028 0.950 . S
H1053 C1029 0.949 . S
H1054 C1031 0.950 . S
H1055 C1033 0.950 . S
C1056 C1057 1.349 1_556 S
C1056 C1058 1.327 . S
C1056 H1081 0.950 . S
C1057 C1056 1.349 1_554 S
C1057 C1073 1.349 . S
C1058 C1056 1.327 . S
C1058 C1077 1.429 . S
C1058 H1082 0.950 . S
C1059 C1076 1.574 . S
C1059 C1078 1.368 . S
C1059 H1083 0.949 1_556 S
H1060 C1064 0.949 . S
C1061 C1062 1.349 . S
C1061 C1063 1.327 . S
C1061 H1084 0.950 . S
C1062 C1061 1.349 . S
C1062 C1074 1.349 . S
C1063 C1061 1.327 . S
C1063 C1079 1.429 . S
C1063 H1085 0.950 . S
C1064 H1060 0.949 . S
C1064 C1072 1.574 . S
C1064 C1080 1.368 . S
H1065 C1073 0.950 . S
H1066 C1071 0.950 . S
H1067 C1072 0.949 . S
H1068 C1074 0.950 . S
H1069 C1075 0.950 . S
H1070 C1076 0.949 . S
C1071 H1066 0.950 . S
C1071 C1073 1.327 . S
C1071 C1077 1.429 1_554 S
C1072 C1064 1.574 . S
C1072 H1067 0.949 . S
C1072 C1078 1.368 . S
C1073 C1057 1.349 . S
C1073 H1065 0.950 . S
C1073 C1071 1.327 . S
C1074 C1062 1.349 . S
C1074 H1068 0.950 . S
C1074 C1075 1.327 . S
C1075 H1069 0.950 . S
C1075 C1074 1.327 . S
C1075 C1079 1.429 . S
C1076 C1059 1.574 . S
C1076 H1070 0.949 . S
C1076 C1080 1.368 . S
C1077 C1058 1.429 . S
C1077 C1071 1.429 1_556 S
C1077 C1078 1.523 . S
C1078 C1059 1.368 . S
C1078 C1072 1.368 . S
C1078 C1077 1.523 . S
C1079 C1063 1.429 . S
C1079 C1075 1.429 . S
C1079 C1080 1.523 . S
C1080 C1064 1.368 . S
C1080 C1076 1.368 . S
C1080 C1079 1.523 . S
H1081 C1056 0.950 . S
H1082 C1058 0.950 . S
H1083 C1059 0.949 1_554 S
H1084 C1061 0.950 . S
H1085 C1063 0.950 . S
C1086 C1087 1.349 . S
C1086 C1088 1.327 . S
C1086 H1111 0.950 . S
C1087 C1086 1.349 . S
C1087 C1103 1.349 . S
C1088 C1086 1.327 . S
C1088 C1107 1.429 . S
C1088 H1112 0.950 . S
C1089 C1106 1.574 . S
C1089 C1108 1.368 . S
C1089 H1113 0.949 . S
H1090 C1094 0.949 . S
C1091 C1092 1.349 1_554 S
C1091 C1093 1.327 . S
C1091 H1114 0.950 . S
C1092 C1091 1.349 1_556 S
C1092 C1104 1.349 . S
C1093 C1091 1.327 . S
C1093 C1109 1.429 . S
C1093 H1115 0.950 . S
C1094 H1090 0.949 . S
C1094 C1102 1.574 . S
C1094 C1110 1.368 . S
H1095 C1103 0.950 . S
H1096 C1101 0.950 . S
H1097 C1102 0.949 . S
H1098 C1104 0.950 . S
H1099 C1105 0.950 . S
H1100 C1106 0.949 . S
C1101 H1096 0.950 . S
C1101 C1103 1.327 . S
C1101 C1107 1.429 . S
C1102 C1094 1.574 . S
C1102 H1097 0.949 . S
C1102 C1108 1.368 . S
C1103 C1087 1.349 . S
C1103 H1095 0.950 . S
C1103 C1101 1.327 . S
C1104 C1092 1.349 . S
C1104 H1098 0.950 . S
C1104 C1105 1.327 . S
C1105 H1099 0.950 . S
C1105 C1104 1.327 . S
C1105 C1109 1.429 1_556 S
C1106 C1089 1.574 . S
C1106 H1100 0.949 . S
C1106 C1110 1.368 . S
C1107 C1088 1.429 . S
C1107 C1101 1.429 . S
C1107 C1108 1.523 . S
C1108 C1089 1.368 . S
C1108 C1102 1.368 . S
C1108 C1107 1.523 . S
C1109 C1093 1.429 . S
C1109 C1105 1.429 1_554 S
C1109 C1110 1.523 . S
C1110 C1094 1.368 . S
C1110 C1106 1.368 . S
C1110 C1109 1.523 . S
H1111 C1086 0.950 . S
H1112 C1088 0.950 . S
H1113 C1089 0.949 . S
H1114 C1091 0.950 . S
H1115 C1093 0.950 . S
C1116 C1117 1.349 . S
C1116 C1118 1.327 . S
C1116 H1141 0.950 . S
C1117 C1116 1.349 . S
C1117 C1133 1.349 . S
C1118 C1116 1.327 . S
C1118 C1137 1.429 . S
C1118 H1142 0.950 . S
C1119 C1136 1.574 . S
C1119 C1138 1.368 . S
C1119 H1143 0.949 . S
H1120 C1124 0.949 . S
C1121 C1122 1.349 . S
C1121 C1123 1.327 . S
C1121 H1144 0.950 . S
C1122 C1121 1.349 . S
C1122 C1134 1.349 . S
C1123 C1121 1.327 . S
C1123 C1139 1.429 . S
C1123 H1145 0.950 . S
C1124 H1120 0.949 . S
C1124 C1132 1.574 . S
C1124 C1140 1.368 . S
H1125 C1133 0.950 . S
H1126 C1131 0.950 . S
H1127 C1132 0.949 . S
H1128 C1134 0.950 . S
H1129 C1135 0.950 . S
H1130 C1136 0.949 . S
C1131 H1126 0.950 . S
C1131 C1133 1.327 . S
C1131 C1137 1.429 . S
C1132 C1124 1.574 . S
C1132 H1127 0.949 . S
C1132 C1138 1.368 . S
C1133 C1117 1.349 . S
C1133 H1125 0.950 . S
C1133 C1131 1.327 . S
C1134 C1122 1.349 . S
C1134 H1128 0.950 . S
C1134 C1135 1.327 . S
C1135 H1129 0.950 . S
C1135 C1134 1.327 . S
C1135 C1139 1.429 . S
C1136 C1119 1.574 . S
C1136 H1130 0.949 . S
C1136 C1140 1.368 . S
C1137 C1118 1.429 . S
C1137 C1131 1.429 . S
C1137 C1138 1.523 . S
C1138 C1119 1.368 . S
C1138 C1132 1.368 . S
C1138 C1137 1.523 . S
C1139 C1123 1.429 . S
C1139 C1135 1.429 . S
C1139 C1140 1.523 . S
C1140 C1124 1.368 . S
C1140 C1136 1.368 . S
C1140 C1139 1.523 . S
H1141 C1116 0.950 . S
H1142 C1118 0.950 . S
H1143 C1119 0.949 . S
H1144 C1121 0.950 . S
H1145 C1123 0.950 . S
C1146 C1147 1.349 . S
C1146 C1148 1.327 . S
C1146 H1171 0.950 . S
C1147 C1146 1.349 . S
C1147 C1163 1.349 . S
C1148 C1146 1.327 . S
C1148 C1167 1.429 . S
C1148 H1172 0.950 . S
C1149 C1166 1.574 1_655 S
C1149 C1168 1.368 . S
C1149 H1173 0.949 . S
H1150 C1154 0.949 . S
C1151 C1152 1.349 . S
C1151 C1153 1.327 . S
C1151 H1174 0.950 . S
C1152 C1151 1.349 . S
C1152 C1164 1.349 . S
C1153 C1151 1.327 . S
C1153 C1169 1.429 . S
C1153 H1175 0.950 . S
C1154 H1150 0.949 . S
C1154 C1162 1.574 1_455 S
C1154 C1170 1.368 . S
H1155 C1163 0.950 . S
H1156 C1161 0.950 . S
H1157 C1162 0.949 . S
H1158 C1164 0.950 . S
H1159 C1165 0.950 . S
H1160 C1166 0.949 . S
C1161 H1156 0.950 . S
C1161 C1163 1.327 . S
C1161 C1167 1.429 . S
C1162 C1154 1.574 1_655 S
C1162 H1157 0.949 . S
C1162 C1168 1.368 . S
C1163 C1147 1.349 . S
C1163 H1155 0.950 . S
C1163 C1161 1.327 . S
C1164 C1152 1.349 . S
C1164 H1158 0.950 . S
C1164 C1165 1.327 . S
C1165 H1159 0.950 . S
C1165 C1164 1.327 . S
C1165 C1169 1.429 . S
C1166 C1149 1.574 1_455 S
C1166 H1160 0.949 . S
C1166 C1170 1.368 . S
C1167 C1148 1.429 . S
C1167 C1161 1.429 . S
C1167 C1168 1.523 . S
C1168 C1149 1.368 . S
C1168 C1162 1.368 . S
C1168 C1167 1.523 . S
C1169 C1153 1.429 . S
C1169 C1165 1.429 . S
C1169 C1170 1.523 . S
C1170 C1154 1.368 . S
C1170 C1166 1.368 . S
C1170 C1169 1.523 . S
H1171 C1146 0.950 . S
H1172 C1148 0.950 . S
H1173 C1149 0.949 . S
H1174 C1151 0.950 . S
H1175 C1153 0.950 . S
C1176 C1177 1.349 . S
C1176 C1178 1.327 . S
C1176 H1201 0.950 . S
C1177 C1176 1.349 . S
C1177 C1193 1.349 . S
C1178 C1176 1.327 . S
C1178 C1197 1.429 . S
C1178 H1202 0.950 . S
C1179 C1196 1.574 1_545 S
C1179 C1198 1.368 . S
C1179 H1203 0.949 . S
H1180 C1184 0.949 . S
C1181 C1182 1.349 . S
C1181 C1183 1.327 . S
C1181 H1204 0.950 . S
C1182 C1181 1.349 . S
C1182 C1194 1.349 . S
C1183 C1181 1.327 . S
C1183 C1199 1.429 . S
C1183 H1205 0.950 . S
C1184 H1180 0.949 . S
C1184 C1192 1.574 1_565 S
C1184 C1200 1.368 . S
H1185 C1193 0.950 . S
H1186 C1191 0.950 . S
H1187 C1192 0.949 . S
H1188 C1194 0.950 . S
H1189 C1195 0.950 . S
H1190 C1196 0.949 . S
C1191 H1186 0.950 . S
C1191 C1193 1.327 . S
C1191 C1197 1.429 . S
C1192 C1184 1.574 1_545 S
C1192 H1187 0.949 . S
C1192 C1198 1.368 . S
C1193 C1177 1.349 . S
C1193 H1185 0.950 . S
C1193 C1191 1.327 . S
C1194 C1182 1.349 . S
C1194 H1188 0.950 . S
C1194 C1195 1.327 . S
C1195 H1189 0.950 . S
C1195 C1194 1.327 . S
C1195 C1199 1.429 . S
C1196 C1179 1.574 1_565 S
C1196 H1190 0.949 . S
C1196 C1200 1.368 . S
C1197 C1178 1.429 . S
C1197 C1191 1.429 . S
C1197 C1198 1.523 . S
C1198 C1179 1.368 . S
C1198 C1192 1.368 . S
C1198 C1197 1.523 . S
C1199 C1183 1.429 . S
C1199 C1195 1.429 . S
C1199 C1200 1.523 . S
C1200 C1184 1.368 . S
C1200 C1196 1.368 . S
C1200 C1199 1.523 . S
H1201 C1176 0.950 . S
H1202 C1178 0.950 . S
H1203 C1179 0.949 . S
H1204 C1181 0.950 . S
H1205 C1183 0.950 . S
C1206 C1207 1.349 . S
C1206 C1208 1.327 . S
C1206 H1231 0.950 . S
C1207 C1206 1.349 . S
C1207 C1223 1.349 . S
C1208 C1206 1.327 . S
C1208 C1227 1.429 . S
C1208 H1232 0.950 . S
C1209 C1226 1.574 . S
C1209 C1228 1.368 . S
C1209 H1233 0.949 . S
H1210 C1214 0.949 . S
C1211 C1212 1.349 . S
C1211 C1213 1.327 . S
C1211 H1234 0.950 . S
C1212 C1211 1.349 . S
C1212 C1224 1.349 . S
C1213 C1211 1.327 . S
C1213 C1229 1.429 . S
C1213 H1235 0.950 . S
C1214 H1210 0.949 . S
C1214 C1222 1.574 . S
C1214 C1230 1.368 . S
H1215 C1223 0.950 . S
H1216 C1221 0.950 . S
H1217 C1222 0.949 . S
H1218 C1224 0.950 . S
H1219 C1225 0.950 . S
H1220 C1226 0.949 . S
C1221 H1216 0.950 . S
C1221 C1223 1.327 . S
C1221 C1227 1.429 . S
C1222 C1214 1.574 . S
C1222 H1217 0.949 . S
C1222 C1228 1.368 . S
C1223 C1207 1.349 . S
C1223 H1215 0.950 . S
C1223 C1221 1.327 . S
C1224 C1212 1.349 . S
C1224 H1218 0.950 . S
C1224 C1225 1.327 . S
C1225 H1219 0.950 . S
C1225 C1224 1.327 . S
C1225 C1229 1.429 . S
C1226 C1209 1.574 . S
C1226 H1220 0.949 . S
C1226 C1230 1.368 . S
C1227 C1208 1.429 . S
C1227 C1221 1.429 . S
C1227 C1228 1.523 . S
C1228 C1209 1.368 . S
C1228 C1222 1.368 . S
C1228 C1227 1.523 . S
C1229 C1213 1.429 . S
C1229 C1225 1.429 . S
C1229 C1230 1.523 . S
C1230 C1214 1.368 . S
C1230 C1226 1.368 . S
C1230 C1229 1.523 . S
H1231 C1206 0.950 . S
H1232 C1208 0.950 . S
H1233 C1209 0.949 . S
H1234 C1211 0.950 . S
H1235 C1213 0.950 . S
C1236 C1237 1.349 . S
C1236 C1238 1.327 . S
C1236 H1261 0.950 . S
C1237 C1236 1.349 . S
C1237 C1253 1.349 . S
C1238 C1236 1.327 . S
C1238 C1257 1.429 . S
C1238 H1262 0.950 . S
C1239 C1256 1.574 1_455 S
C1239 C1258 1.368 . S
C1239 H1263 0.949 . S
H1240 C1244 0.949 . S
C1241 C1242 1.349 . S
C1241 C1243 1.327 . S
C1241 H1264 0.950 . S
C1242 C1241 1.349 . S
C1242 C1254 1.349 . S
C1243 C1241 1.327 . S
C1243 C1259 1.429 . S
C1243 H1265 0.950 . S
C1244 H1240 0.949 . S
C1244 C1252 1.574 1_655 S
C1244 C1260 1.368 . S
H1245 C1253 0.950 . S
H1246 C1251 0.950 . S
H1247 C1252 0.949 . S
H1248 C1254 0.950 . S
H1249 C1255 0.950 . S
H1250 C1256 0.949 . S
C1251 H1246 0.950 . S
C1251 C1253 1.327 . S
C1251 C1257 1.429 . S
C1252 C1244 1.574 1_455 S
C1252 H1247 0.949 . S
C1252 C1258 1.368 . S
C1253 C1237 1.349 . S
C1253 H1245 0.950 . S
C1253 C1251 1.327 . S
C1254 C1242 1.349 . S
C1254 H1248 0.950 . S
C1254 C1255 1.327 . S
C1255 H1249 0.950 . S
C1255 C1254 1.327 . S
C1255 C1259 1.429 . S
C1256 C1239 1.574 1_655 S
C1256 H1250 0.949 . S
C1256 C1260 1.368 . S
C1257 C1238 1.429 . S
C1257 C1251 1.429 . S
C1257 C1258 1.523 . S
C1258 C1239 1.368 . S
C1258 C1252 1.368 . S
C1258 C1257 1.523 . S
C1259 C1243 1.429 . S
C1259 C1255 1.429 . S
C1259 C1260 1.523 . S
C1260 C1244 1.368 . S
C1260 C1256 1.368 . S
C1260 C1259 1.523 . S
H1261 C1236 0.950 . S
H1262 C1238 0.950 . S
H1263 C1239 0.949 . S
H1264 C1241 0.950 . S
H1265 C1243 0.950 . S
C1266 C1267 1.349 . S
C1266 C1268 1.327 . S
C1266 H1291 0.950 . S
C1267 C1266 1.349 . S
C1267 C1283 1.335 1_556 S
C1268 C1266 1.327 . S
C1268 C1287 1.429 . S
C1268 H1292 0.950 . S
C1269 C1286 1.574 1_545 S
C1269 C1288 1.368 1_554 S
C1269 H1293 0.949 . S
H1270 C1274 0.949 . S
C1271 C1272 1.349 . S
C1271 C1273 1.327 . S
C1271 H1294 0.950 . S
C1272 C1271 1.349 . S
C1272 C1284 1.349 1_554 S
C1273 C1271 1.327 . S
C1273 C1289 1.429 . S
C1273 H1295 0.950 . S
C1274 H1270 0.949 . S
C1274 C1282 1.574 1_565 S
C1274 C1290 1.368 1_556 S
H1275 C1283 0.960 . S
H1276 C1281 0.950 . S
H1277 C1282 0.949 . S
H1278 C1284 0.950 . S
H1279 C1285 0.950 . S
H1280 C1286 0.949 . S
C1281 H1276 0.950 . S
C1281 C1283 1.331 . S
C1281 C1287 1.429 1_554 S
C1282 C1274 1.574 1_545 S
C1282 H1277 0.949 . S
C1282 C1288 1.368 . S
C1283 C1267 1.335 1_554 S
C1283 H1275 0.960 . S
C1283 C1281 1.331 . S
C1284 C1272 1.349 1_556 S
C1284 H1278 0.950 . S
C1284 C1285 1.327 . S
C1285 H1279 0.950 . S
C1285 C1284 1.327 . S
C1285 C1289 1.429 1_556 S
C1286 C1269 1.574 1_565 S
C1286 H1280 0.949 . S
C1286 C1290 1.368 . S
C1287 C1268 1.429 . S
C1287 C1281 1.429 1_556 S
C1287 C1288 1.523 . S
C1288 C1269 1.368 1_556 S
C1288 C1282 1.368 . S
C1288 C1287 1.523 . S
C1289 C1273 1.429 . S
C1289 C1285 1.429 1_554 S
C1289 C1290 1.523 . S
C1290 C1274 1.368 1_554 S
C1290 C1286 1.368 . S
C1290 C1289 1.523 . S
H1291 C1266 0.950 . S
H1292 C1268 0.950 . S
H1293 C1269 0.949 . S
H1294 C1271 0.950 . S
H1295 C1273 0.950 . S
C397 N5 1.181 . S
C402 N14 1.179 . S
C427 N47 1.179 . S
C432 N38 1.180 . S
C457 N80 1.179 . S
C462 N71 1.180 . S
C487 N104 1.181 . S
C492 N113 1.179 . S
C517 N137 1.180 1_554 S
C522 N146 1.179 . S
C547 N179 1.179 . S
C552 N170 1.180 . S
C577 N203 1.181 . S
C582 N212 1.179 . S
C607 N236 1.180 . S
C612 N245 1.179 . S
C637 N278 1.179 . S
C642 N269 1.180 . S
C667 N302 1.181 1_556 S
C672 N311 1.179 . S
C697 N335 1.180 . S
C702 N344 1.179 . S
C727 N377 1.179 . S
C732 N368 1.181 . S
C757 C206 1.490 . S
C762 C8 1.490 . S
C787 C41 1.490 . S
C792 C239 1.490 . S
C817 C272 1.489 . S
C822 C74 1.489 . S
C847 C305 1.490 . S
C852 C107 1.490 . S
C877 C338 1.490 . S
C882 C140 1.490 . S
C907 C371 1.491 . S
C912 C173 1.491 . S
C937 C28 0.998 . S
C942 C358 0.998 . S
C967 C61 0.999 . S
C972 C391 0.999 . S
C997 C94 0.999 . S
C1002 C226 0.999 . S
C1027 C259 0.998 . S
C1032 C127 0.998 . S
C1057 C292 1.001 . S
C1062 C160 1.001 . S
C1087 C325 0.998 . S
C1092 C193 0.998 . S
C1117 C17 1.431 . S
C1122 C314 1.431 . S
C1147 C50 1.432 . S
C1152 C347 1.432 . S
C1177 C380 1.431 . S
C1182 C83 1.431 . S
C1207 C116 1.431 . S
C1212 C215 1.431 . S
C1237 C149 1.432 . S
C1242 C248 1.432 . S
C1267 C182 1.433 . S
C1272 C281 1.433 . S
