# Generated by pormake.
# Topology uol, (4)-cn, num edge types: 1
# Building blocks:
#     Node 0, Type 0, BuildingBlock: MUDLON_clean_sbu_0, # of connection points: 4
#     Node 1, Type 0, BuildingBlock: MUDLON_clean_sbu_0, # of connection points: 4
#     Node 2, Type 0, BuildingBlock: MUDLON_clean_sbu_0, # of connection points: 4
#     Node 3, Type 0, BuildingBlock: MUDLON_clean_sbu_0, # of connection points: 4
#     Node 4, Type 0, BuildingBlock: MUDLON_clean_sbu_0, # of connection points: 4
#     Node 5, Type 0, BuildingBlock: MUDLON_clean_sbu_0, # of connection points: 4
#     Node 6, Type 0, BuildingBlock: MUDLON_clean_sbu_0, # of connection points: 4
#     Node 7, Type 0, BuildingBlock: MUDLON_clean_sbu_0, # of connection points: 4
#     Node 8, Type 0, BuildingBlock: MUDLON_clean_sbu_0, # of connection points: 4
#     Node 9, Type 0, BuildingBlock: MUDLON_clean_sbu_0, # of connection points: 4
#     Node 10, Type 0, BuildingBlock: MUDLON_clean_sbu_0, # of connection points: 4
#     Node 11, Type 0, BuildingBlock: MUDLON_clean_sbu_0, # of connection points: 4
#     Edge 12, Type (0, 0), BuildingBlock: TEMPAE_clean_linker_10, # of connection points: 2
#     Edge 13, Type (0, 0), BuildingBlock: TEMPAE_clean_linker_10, # of connection points: 2
#     Edge 14, Type (0, 0), BuildingBlock: TEMPAE_clean_linker_10, # of connection points: 2
#     Edge 15, Type (0, 0), BuildingBlock: TEMPAE_clean_linker_10, # of connection points: 2
#     Edge 16, Type (0, 0), BuildingBlock: TEMPAE_clean_linker_10, # of connection points: 2
#     Edge 17, Type (0, 0), BuildingBlock: TEMPAE_clean_linker_10, # of connection points: 2
#     Edge 18, Type (0, 0), BuildingBlock: TEMPAE_clean_linker_10, # of connection points: 2
#     Edge 19, Type (0, 0), BuildingBlock: TEMPAE_clean_linker_10, # of connection points: 2
#     Edge 20, Type (0, 0), BuildingBlock: TEMPAE_clean_linker_10, # of connection points: 2
#     Edge 21, Type (0, 0), BuildingBlock: TEMPAE_clean_linker_10, # of connection points: 2
#     Edge 22, Type (0, 0), BuildingBlock: TEMPAE_clean_linker_10, # of connection points: 2
#     Edge 23, Type (0, 0), BuildingBlock: TEMPAE_clean_linker_10, # of connection points: 2
#     Edge 24, Type (0, 0), BuildingBlock: TEMPAE_clean_linker_10, # of connection points: 2
#     Edge 25, Type (0, 0), BuildingBlock: TEMPAE_clean_linker_10, # of connection points: 2
#     Edge 26, Type (0, 0), BuildingBlock: TEMPAE_clean_linker_10, # of connection points: 2
#     Edge 27, Type (0, 0), BuildingBlock: TEMPAE_clean_linker_10, # of connection points: 2
#     Edge 28, Type (0, 0), BuildingBlock: TEMPAE_clean_linker_10, # of connection points: 2
#     Edge 29, Type (0, 0), BuildingBlock: TEMPAE_clean_linker_10, # of connection points: 2
#     Edge 30, Type (0, 0), BuildingBlock: TEMPAE_clean_linker_10, # of connection points: 2
#     Edge 31, Type (0, 0), BuildingBlock: TEMPAE_clean_linker_10, # of connection points: 2
#     Edge 32, Type (0, 0), BuildingBlock: TEMPAE_clean_linker_10, # of connection points: 2
#     Edge 33, Type (0, 0), BuildingBlock: TEMPAE_clean_linker_10, # of connection points: 2
#     Edge 34, Type (0, 0), BuildingBlock: TEMPAE_clean_linker_10, # of connection points: 2
#     Edge 35, Type (0, 0), BuildingBlock: TEMPAE_clean_linker_10, # of connection points: 2
# Relax obj value: 0.129
# Max RMSD: 0.264
# Mean RMSD: 0.264
data_MOF--net-uol--node1-MUDLON_clean_sbu_0--edge1-TEMPAE_clean_linker_10
_symmetry_space_group_name_H-M    P1
_symmetry_Int_Tables_number       1
_symmetry_cell_setting            triclinic
loop_
_symmetry_equiv_pos_as_xyz
'x, y, z'
_cell_length_a     33.827288
_cell_length_b     33.9197
_cell_length_c     72.962377
_cell_angle_alpha  89.945713
_cell_angle_beta   90.043228
_cell_angle_gamma 119.92056
loop_
_atom_site_label
_atom_site_type_symbol
_atom_site_fract_x
_atom_site_fract_y
_atom_site_fract_z
_atom_type_partial_charge
Mg0 Mg 0.13903 0.33867 0.11452 0.0
C1 C 0.06898 0.30916 0.14306 0.0
O2 O 0.09749 0.35212 0.1468 0.0
C3 C 0.19044 0.32609 0.0842 0.0
O4 O 0.22267 0.3502 0.09613 0.0
C5 C 0.16522 0.43905 0.11979 0.0
O6 O 0.19087 0.43795 0.13308 0.0
O7 O 0.14154 0.40345 0.11028 0.0
O8 O 0.07574 0.29227 0.12863 0.0
O9 O 0.19003 0.34137 0.13342 0.0
C10 C 0.18731 0.30278 0.13525 0.0
O11 O 0.15706 0.26865 0.12535 0.0
O12 O 0.14945 0.31487 0.08808 0.0
Mg13 Mg 0.81441 0.13742 0.28379 0.0
C14 C 0.89326 0.1728 0.30924 0.0
O15 O 0.88213 0.13002 0.30718 0.0
C16 C 0.73012 0.13318 0.26883 0.0
O17 O 0.73884 0.11079 0.25628 0.0
C18 C 0.8808 0.14827 0.25337 0.0
O19 O 0.90469 0.1479 0.2675 0.0
O20 O 0.84095 0.14209 0.25609 0.0
O21 O 0.87 0.18727 0.30083 0.0
O22 O 0.78962 0.0722 0.29764 0.0
C23 C 0.77428 0.07162 0.31363 0.0
O24 O 0.77324 0.1079 0.31924 0.0
O25 O 0.75724 0.14994 0.28236 0.0
Mg26 Mg 0.67981 0.80351 0.45029 0.0
C27 C 0.71441 0.89483 0.46614 0.0
O28 O 0.74596 0.90119 0.45411 0.0
C29 C 0.60555 0.71328 0.43634 0.0
O30 O 0.64106 0.71599 0.42784 0.0
C31 C 0.6795 0.83271 0.41146 0.0
O32 O 0.63555 0.80878 0.41482 0.0
O33 O 0.70731 0.83502 0.42375 0.0
O34 O 0.67922 0.85557 0.46735 0.0
O35 O 0.72248 0.78371 0.46569 0.0
C36 C 0.70427 0.76035 0.48007 0.0
O37 O 0.66134 0.74738 0.48348 0.0
O38 O 0.61147 0.74548 0.44697 0.0
Mg39 Mg 0.8803 0.66746 0.61807 0.0
C40 C 0.94639 0.6978 0.64762 0.0
O41 O 0.90909 0.66273 0.65403 0.0
C42 C 0.86525 0.72226 0.5888 0.0
O43 O 0.86751 0.74626 0.6033 0.0
C44 C 0.8541 0.57414 0.6028 0.0
O45 O 0.84714 0.59202 0.58802 0.0
O46 O 0.86693 0.5976 0.61744 0.0
O47 O 0.94653 0.70941 0.63101 0.0
O48 O 0.83466 0.67537 0.6366 0.0
C49 C 0.79435 0.66687 0.63312 0.0
O50 O 0.77566 0.64859 0.6173 0.0
O51 O 0.87184 0.68871 0.59079 0.0
Mg52 Mg 0.2176 0.87741 0.78274 0.0
C53 C 0.13546 0.83894 0.80554 0.0
O54 O 0.14156 0.87873 0.80037 0.0
C55 C 0.30685 0.89084 0.76913 0.0
O56 O 0.30161 0.91971 0.75882 0.0
C57 C 0.1878 0.84464 0.74435 0.0
O58 O 0.20956 0.82291 0.7487 0.0
O59 O 0.18703 0.87238 0.75588 0.0
O60 O 0.16361 0.82702 0.80001 0.0
O61 O 0.24081 0.9419 0.79684 0.0
C62 C 0.2564 0.9427 0.8128 0.0
O63 O 0.25823 0.9068 0.8184 0.0
O64 O 0.2758 0.86676 0.78063 0.0
Mg65 Mg 0.35192 0.21326 0.94853 0.0
C66 C 0.31886 0.12269 0.96467 0.0
O67 O 0.28674 0.11606 0.95287 0.0
C68 C 0.42671 0.30305 0.93371 0.0
O69 O 0.39252 0.2981 0.9235 0.0
C70 C 0.35277 0.18356 0.90971 0.0
O71 O 0.39678 0.20771 0.91293 0.0
O72 O 0.32512 0.18137 0.92202 0.0
O73 O 0.35418 0.16193 0.96553 0.0
O74 O 0.30579 0.22828 0.96394 0.0
C75 C 0.31525 0.26801 0.96885 0.0
O76 O 0.35297 0.30323 0.96286 0.0
O77 O 0.41958 0.27276 0.94561 0.0
Mg78 Mg 0.68127 0.87656 0.749 0.0
C79 C 0.68616 0.83392 0.71323 0.0
O80 O 0.69292 0.87314 0.70701 0.0
C81 C 0.6083 0.89752 0.76123 0.0
O82 O 0.64451 0.93299 0.76808 0.0
C83 C 0.68653 0.85815 0.78987 0.0
O84 O 0.64719 0.85707 0.79022 0.0
O85 O 0.70842 0.86706 0.77482 0.0
O86 O 0.67854 0.82522 0.73024 0.0
O87 O 0.72598 0.94263 0.73627 0.0
C88 C 0.7081 0.95945 0.72577 0.0
O89 O 0.66349 0.93797 0.72408 0.0
O90 O 0.61332 0.8677 0.75264 0.0
Mg91 Mg 0.81117 0.68033 0.91855 0.0
C92 C 0.76022 0.70593 0.89226 0.0
O93 O 0.7376 0.6613 0.8914 0.0
C94 C 0.88486 0.73334 0.94659 0.0
O95 O 0.90837 0.75031 0.93145 0.0
C96 C 0.73868 0.57854 0.91411 0.0
O97 O 0.76662 0.57864 0.90159 0.0
O98 O 0.74947 0.61498 0.92284 0.0
O99 O 0.79305 0.72505 0.90362 0.0
O100 O 0.86299 0.67741 0.9019 0.0
C101 C 0.85919 0.6725 0.88459 0.0
O102 O 0.82066 0.66373 0.87678 0.0
O103 O 0.84233 0.70516 0.94537 0.0
Mg104 Mg 0.15011 0.80731 0.08439 0.0
C105 C 0.20344 0.89597 0.06646 0.0
O106 O 0.17647 0.90195 0.07767 0.0
C107 C 0.13236 0.71608 0.09825 0.0
O108 O 0.09943 0.71884 0.10661 0.0
C109 C 0.18047 0.83727 0.12328 0.0
O110 O 0.19808 0.8109 0.12056 0.0
O111 O 0.15647 0.8408 0.11064 0.0
O112 O 0.20196 0.85778 0.06657 0.0
O113 O 0.08715 0.78894 0.06964 0.0
C114 C 0.07819 0.76249 0.05598 0.0
O115 O 0.10452 0.74495 0.0529 0.0
O116 O 0.15921 0.74851 0.08781 0.0
Mg117 Mg 0.35204 0.14194 0.25113 0.0
C118 C 0.31469 0.19658 0.23499 0.0
O119 O 0.28472 0.17302 0.24776 0.0
C120 C 0.42638 0.12169 0.26063 0.0
O121 O 0.38997 0.08346 0.26542 0.0
C122 C 0.34588 0.15453 0.29244 0.0
O123 O 0.38576 0.15672 0.29245 0.0
O124 O 0.32387 0.14639 0.27746 0.0
O125 O 0.34974 0.19221 0.23334 0.0
O126 O 0.31124 0.07793 0.23664 0.0
C127 C 0.32631 0.07737 0.22072 0.0
O128 O 0.36429 0.11325 0.2153 0.0
O129 O 0.4212 0.15365 0.25413 0.0
Mg130 Mg 0.22282 0.33555 0.4196 0.0
C131 C 0.27467 0.30925 0.39405 0.0
O132 O 0.29774 0.35386 0.39302 0.0
C133 C 0.14921 0.28185 0.44753 0.0
O134 O 0.12579 0.2648 0.43238 0.0
C135 C 0.29556 0.43691 0.41464 0.0
O136 O 0.26882 0.43578 0.40133 0.0
O137 O 0.28406 0.40114 0.42398 0.0
O138 O 0.24131 0.29062 0.40517 0.0
O139 O 0.17127 0.3384 0.40269 0.0
C140 C 0.17464 0.34092 0.38531 0.0
O141 O 0.21238 0.34696 0.37765 0.0
O142 O 0.1916 0.31051 0.44634 0.0
Mg143 Mg 0.88552 0.21064 0.58532 0.0
C144 C 0.83127 0.12367 0.56698 0.0
O145 O 0.85803 0.11732 0.57819 0.0
C146 C 0.84586 0.27263 0.59336 0.0
O147 O 0.80874 0.23363 0.59664 0.0
C148 C 0.8731 0.19056 0.62674 0.0
O149 O 0.87912 0.23188 0.62766 0.0
O150 O 0.87633 0.1751 0.61127 0.0
O151 O 0.8331 0.16203 0.56716 0.0
O152 O 0.94783 0.22608 0.57076 0.0
C153 C 0.95746 0.25285 0.55715 0.0
O154 O 0.93217 0.27161 0.55418 0.0
O155 O 0.88197 0.27263 0.58853 0.0
C156 C 0.10924 0.64105 0.11312 0.0
C157 C 0.13841 0.67609 0.10122 0.0
C158 C 0.11447 0.60301 0.11616 0.0
C159 C 0.14972 0.5998 0.10706 0.0
C160 C 0.17935 0.63504 0.09505 0.0
C161 C 0.17336 0.67276 0.09228 0.0
C162 C 0.08215 0.56616 0.12906 0.0
C163 C 0.21728 0.63282 0.08508 0.0
C164 C 0.18655 0.51954 0.12723 0.0
C165 C 0.16255 0.48079 0.11621 0.0
C166 C 0.18312 0.5587 0.12428 0.0
C167 C 0.15508 0.55918 0.10996 0.0
C168 C 0.13123 0.52041 0.09865 0.0
C169 C 0.13522 0.48173 0.10191 0.0
C170 C 0.20907 0.59937 0.13664 0.0
C171 C 0.10103 0.51957 0.08322 0.0
H172 H 0.08217 0.64327 0.12012 0.0
H173 H 0.1961 0.69964 0.08306 0.0
H174 H 0.06353 0.53333 0.12164 0.0
H175 H 0.1016 0.56148 0.14028 0.0
H176 H 0.05682 0.574 0.13522 0.0
H177 H 0.23766 0.66319 0.07634 0.0
H178 H 0.24043 0.62996 0.09509 0.0
H179 H 0.20286 0.60203 0.0763 0.0
H180 H 0.20775 0.5192 0.1383 0.0
H181 H 0.11658 0.45204 0.09329 0.0
H182 H 0.18482 0.60669 0.14406 0.0
H183 H 0.23155 0.6299 0.12835 0.0
H184 H 0.23029 0.59401 0.14687 0.0
H185 H 0.07309 0.52416 0.0888 0.0
H186 H 0.08571 0.48721 0.07538 0.0
H187 H 0.12093 0.54816 0.07364 0.0
C188 C 0.65947 0.11894 0.2522 0.0
C189 C 0.68799 0.13641 0.26758 0.0
C190 C 0.61818 0.11923 0.25112 0.0
C191 C 0.60487 0.13733 0.2658 0.0
C192 C 0.63393 0.15594 0.2812 0.0
C193 C 0.67518 0.15532 0.2819 0.0
C194 C 0.58828 0.09917 0.23444 0.0
C195 C 0.6209 0.1755 0.29713 0.0
C196 C 0.51135 0.166 0.25614 0.0
C197 C 0.47245 0.12689 0.26258 0.0
C198 C 0.55483 0.17031 0.2574 0.0
C199 C 0.55955 0.13473 0.26532 0.0
C200 C 0.52053 0.09558 0.27214 0.0
C201 C 0.47752 0.09211 0.27066 0.0
C202 C 0.5956 0.21252 0.24993 0.0
C203 C 0.52407 0.05692 0.28073 0.0
H204 H 0.66909 0.10442 0.24103 0.0
H205 H 0.69696 0.1689 0.29383 0.0
H206 H 0.5554 0.06917 0.23849 0.0
H207 H 0.58036 0.12433 0.22826 0.0
H208 H 0.6045 0.08837 0.22384 0.0
H209 H 0.64822 0.19072 0.30765 0.0
H210 H 0.61328 0.20197 0.29223 0.0
H211 H 0.58945 0.14836 0.30368 0.0
H212 H 0.5078 0.19307 0.24989 0.0
H213 H 0.44776 0.06183 0.27575 0.0
H214 H 0.61089 0.20323 0.23846 0.0
H215 H 0.62215 0.22862 0.26069 0.0
H216 H 0.58653 0.23791 0.24489 0.0
H217 H 0.53685 0.04184 0.27047 0.0
H218 H 0.49078 0.02965 0.28604 0.0
H219 H 0.54892 0.06977 0.2922 0.0
C220 C 0.52126 0.67025 0.44243 0.0
C221 C 0.55935 0.6736 0.43332 0.0
C222 C 0.47744 0.63275 0.43964 0.0
C223 C 0.47152 0.59778 0.42743 0.0
C224 C 0.50979 0.60107 0.41814 0.0
C225 C 0.55318 0.63888 0.4212 0.0
C226 C 0.43748 0.63043 0.44982 0.0
C227 C 0.50493 0.56449 0.40502 0.0
C228 C 0.36821 0.47955 0.43248 0.0
C229 C 0.33975 0.47879 0.4183 0.0
C230 C 0.41083 0.51826 0.43576 0.0
C231 C 0.42549 0.55725 0.4246 0.0
C232 C 0.39672 0.557 0.41042 0.0
C233 C 0.3542 0.51779 0.40745 0.0
C234 C 0.44046 0.51717 0.45102 0.0
C235 C 0.41118 0.59792 0.39822 0.0
H236 H 0.52566 0.69691 0.45181 0.0
H237 H 0.58233 0.64114 0.41406 0.0
H238 H 0.41128 0.6277 0.43995 0.0
H239 H 0.42129 0.59954 0.45856 0.0
H240 H 0.44768 0.66069 0.45864 0.0
H241 H 0.53795 0.57245 0.39868 0.0
H242 H 0.49087 0.5315 0.41233 0.0
H243 H 0.48053 0.56005 0.39395 0.0
H244 H 0.35739 0.44967 0.44098 0.0
H245 H 0.33249 0.51758 0.39647 0.0
H246 H 0.4494 0.54564 0.46068 0.0
H247 H 0.47286 0.52178 0.44528 0.0
H248 H 0.42352 0.4847 0.45882 0.0
H249 H 0.41951 0.62831 0.40665 0.0
H250 H 0.38433 0.5928 0.38818 0.0
H251 H 0.44252 0.60534 0.39061 0.0
C252 C 0.83621 0.50298 0.58579 0.0
C253 C 0.84966 0.52834 0.60208 0.0
C254 C 0.83406 0.46062 0.58457 0.0
C255 C 0.84567 0.44311 0.59999 0.0
C256 C 0.85848 0.46812 0.61658 0.0
C257 C 0.86029 0.51039 0.61743 0.0
C258 C 0.82015 0.43498 0.56664 0.0
C259 C 0.87108 0.4506 0.63333 0.0
C260 C 0.80636 0.31657 0.60094 0.0
C261 C 0.8458 0.3162 0.59525 0.0
C262 C 0.80587 0.35761 0.60266 0.0
C263 C 0.84576 0.3993 0.59858 0.0
C264 C 0.88571 0.39917 0.59291 0.0
C265 C 0.88526 0.35769 0.59132 0.0
C266 C 0.76262 0.35634 0.60877 0.0
C267 C 0.92894 0.44289 0.58841 0.0
H268 H 0.82783 0.51644 0.57386 0.0
H269 H 0.8707 0.52968 0.63008 0.0
H270 H 0.84862 0.431 0.56124 0.0
H271 H 0.79072 0.40033 0.56882 0.0
H272 H 0.81069 0.45251 0.55612 0.0
H273 H 0.87874 0.47334 0.64536 0.0
H274 H 0.84286 0.41624 0.63699 0.0
H275 H 0.90146 0.44731 0.63035 0.0
H276 H 0.77572 0.28474 0.60404 0.0
H277 H 0.91593 0.35783 0.58691 0.0
H278 H 0.75097 0.37141 0.59802 0.0
H279 H 0.76921 0.37711 0.62133 0.0
H280 H 0.73467 0.3212 0.61164 0.0
H281 H 0.92251 0.46068 0.57703 0.0
H282 H 0.95724 0.43702 0.58437 0.0
H283 H 0.94 0.46596 0.60043 0.0
C284 C 0.55709 0.92484 0.77352 0.0
C285 C 0.56263 0.89326 0.76304 0.0
C286 C 0.51451 0.92237 0.77487 0.0
C287 C 0.47647 0.88759 0.76546 0.0
C288 C 0.48163 0.85518 0.75508 0.0
C289 C 0.52461 0.85833 0.75403 0.0
C290 C 0.5104 0.95746 0.78616 0.0
C291 C 0.44194 0.81772 0.74478 0.0
C292 C 0.35834 0.86249 0.78046 0.0
C293 C 0.3491 0.88794 0.76776 0.0
C294 C 0.39938 0.8615 0.77975 0.0
C295 C 0.4318 0.88633 0.76593 0.0
C296 C 0.42222 0.91128 0.75285 0.0
C297 C 0.3811 0.91189 0.75396 0.0
C298 C 0.40845 0.83465 0.79398 0.0
C299 C 0.45575 0.93799 0.73784 0.0
H300 H 0.58617 0.95184 0.78059 0.0
H301 H 0.52853 0.83378 0.74589 0.0
H302 H 0.50053 0.9776 0.7772 0.0
H303 H 0.48316 0.94045 0.79659 0.0
H304 H 0.54275 0.98118 0.79325 0.0
H305 H 0.45116 0.79425 0.73787 0.0
H306 H 0.41317 0.79772 0.75429 0.0
H307 H 0.4296 0.83271 0.73428 0.0
H308 H 0.33385 0.84393 0.79119 0.0
H309 H 0.37421 0.93149 0.74403 0.0
H310 H 0.43892 0.85791 0.80218 0.0
H311 H 0.41599 0.80986 0.78722 0.0
H312 H 0.37914 0.81593 0.80343 0.0
H313 H 0.48801 0.96497 0.74395 0.0
H314 H 0.44241 0.95419 0.72832 0.0
H315 H 0.46416 0.91537 0.72982 0.0
C316 C 0.51011 0.34748 0.94143 0.0
C317 C 0.47299 0.34297 0.93115 0.0
C318 C 0.5541 0.38498 0.93897 0.0
C319 C 0.56116 0.41886 0.92595 0.0
C320 C 0.52386 0.41453 0.91554 0.0
C321 C 0.48029 0.37666 0.91825 0.0
C322 C 0.59301 0.38839 0.95034 0.0
C323 C 0.52993 0.44999 0.90156 0.0
C324 C 0.66409 0.53746 0.93079 0.0
C325 C 0.69399 0.53705 0.91755 0.0
C326 C 0.62105 0.49909 0.93381 0.0
C327 C 0.60744 0.45922 0.92334 0.0
C328 C 0.63762 0.45833 0.91012 0.0
C329 C 0.68052 0.49724 0.90738 0.0
C330 C 0.5899 0.50142 0.94805 0.0
C331 C 0.62434 0.41645 0.89869 0.0
H332 H 0.50486 0.32161 0.95141 0.0
H333 H 0.45188 0.37355 0.91023 0.0
H334 H 0.62015 0.39024 0.94124 0.0
H335 H 0.60835 0.42008 0.95858 0.0
H336 H 0.58196 0.35899 0.95976 0.0
H337 H 0.49752 0.44145 0.89449 0.0
H338 H 0.54334 0.48355 0.90832 0.0
H339 H 0.55532 0.45354 0.8911 0.0
H340 H 0.67412 0.56799 0.93874 0.0
H341 H 0.70333 0.49654 0.89713 0.0
H342 H 0.58004 0.47386 0.95828 0.0
H343 H 0.55807 0.49615 0.94144 0.0
H344 H 0.60601 0.53456 0.95535 0.0
H345 H 0.61522 0.3868 0.90773 0.0
H346 H 0.65212 0.42082 0.88933 0.0
H347 H 0.59374 0.40833 0.89037 0.0
C348 C 0.33292 0.24355 0.20629 0.0
C349 C 0.30447 0.22296 0.22146 0.0
C350 C 0.32011 0.2634 0.19226 0.0
C351 C 0.27778 0.26232 0.1934 0.0
C352 C 0.25023 0.24389 0.20918 0.0
C353 C 0.26397 0.2246 0.22302 0.0
C354 C 0.35067 0.28324 0.17576 0.0
C355 C 0.20479 0.24194 0.21096 0.0
C356 C 0.24296 0.32872 0.16152 0.0
C357 C 0.21472 0.29476 0.14906 0.0
C358 C 0.2655 0.31938 0.17564 0.0
C359 C 0.2594 0.27506 0.17732 0.0
C360 C 0.23239 0.24129 0.16433 0.0
C361 C 0.21054 0.25158 0.15037 0.0
C362 C 0.2944 0.35637 0.18913 0.0
C363 C 0.22492 0.19356 0.16561 0.0
H364 H 0.36443 0.24274 0.20503 0.0
H365 H 0.24192 0.20917 0.23476 0.0
H366 H 0.33501 0.26039 0.16382 0.0
H367 H 0.35451 0.31674 0.17211 0.0
H368 H 0.38505 0.28751 0.17811 0.0
H369 H 0.18949 0.23042 0.22477 0.0
H370 H 0.2086 0.27584 0.20823 0.0
H371 H 0.18069 0.21804 0.20062 0.0
H372 H 0.24651 0.36223 0.16056 0.0
H373 H 0.18911 0.22518 0.14073 0.0
H374 H 0.32802 0.35855 0.19091 0.0
H375 H 0.27743 0.34813 0.20272 0.0
H376 H 0.29999 0.39015 0.18475 0.0
H377 H 0.25812 0.19447 0.16617 0.0
H378 H 0.20506 0.17202 0.15383 0.0
H379 H 0.20625 0.17721 0.17842 0.0
C380 C 0.94851 0.24997 0.32212 0.0
C381 C 0.93313 0.20323 0.32075 0.0
C382 C 0.98738 0.27873 0.33258 0.0
C383 C 1.01127 0.26024 0.34184 0.0
C384 C 0.99541 0.21301 0.3407 0.0
C385 C 0.95666 0.1852 0.33021 0.0
C386 C 1.00324 0.32889 0.33353 0.0
C387 C 0.01977 0.19181 0.35039 0.0
C388 C 0.1363 0.32646 0.35474 0.0
C389 C 0.13385 0.32877 0.37387 0.0
C390 C 0.09668 0.30714 0.34393 0.0
C391 C 0.05356 0.28977 0.35245 0.0
C392 C 0.05113 0.29519 0.37158 0.0
C393 C 0.09131 0.31464 0.38207 0.0
C394 C 0.10083 0.30229 0.32356 0.0
C395 C 1.00587 0.27744 0.38119 0.0
H396 H 0.93051 0.26417 0.31486 0.0
H397 H 0.94501 0.14914 0.32932 0.0
H398 H 1.00606 0.33981 0.34803 0.0
H399 H 0.03771 0.34865 0.32737 0.0
H400 H 0.9798 0.33763 0.32622 0.0
H401 H 1.00252 0.15439 0.34839 0.0
H402 H 0.05526 0.20705 0.34524 0.0
H403 H 0.02171 0.19888 0.36531 0.0
H404 H 0.16902 0.33768 0.34823 0.0
H405 H 0.08904 0.3166 0.39683 0.0
H406 H 0.07928 0.31273 0.31584 0.0
H407 H 0.08853 0.26606 0.32025 0.0
H408 H 0.13661 0.32287 0.31871 0.0
H409 H 0.98362 0.28718 0.3736 0.0
H410 H 1.01002 0.29029 0.39547 0.0
H411 H 0.9881 0.23973 0.38163 0.0
C412 C 0.80589 0.04817 0.55258 0.0
C413 C 0.80413 0.0886 0.55309 0.0
C414 C 0.78536 0.01673 0.53834 0.0
C415 C 0.76202 0.02564 0.52428 0.0
C416 C 0.75786 0.06512 0.52521 0.0
C417 C 0.77917 0.09632 0.53959 0.0
C418 C 0.79075 0.97511 0.53787 0.0
C419 C 0.73263 0.07537 0.51062 0.0
C420 C 0.76455 0.97221 0.47913 0.0
C421 C 0.72303 0.93102 0.47957 0.0
C422 C 0.77652 1.00448 0.49312 0.0
C423 C 0.74605 0.99559 0.50788 0.0
C424 C 0.70281 0.95548 0.50781 0.0
C425 C 0.69186 0.9235 0.49368 0.0
C426 C 0.82304 0.04676 0.49268 0.0
C427 C 0.66913 0.94518 0.52316 0.0
H428 H 0.82477 0.04167 0.56301 0.0
H429 H 0.77741 0.12736 0.53993 0.0
H430 H 0.75701 0.94391 0.53636 0.0
H431 H 0.81164 0.97699 0.52582 0.0
H432 H 0.80747 0.97176 0.55042 0.0
H433 H 0.72715 0.1039 0.51459 0.0
H434 H 0.75245 0.08463 0.49768 0.0
H435 H 0.69905 0.04487 0.50778 0.0
H436 H 0.78873 0.97856 0.46821 0.0
H437 H 0.65953 0.89194 0.49406 0.0
H438 H 0.8443 0.04536 0.50397 0.0
H439 H 0.82005 0.07753 0.49484 0.0
H440 H 0.84107 0.0505 0.47951 0.0
H441 H 0.68142 0.93619 0.53572 0.0
H442 H 0.63477 0.91641 0.51973 0.0
H443 H 0.66612 0.97553 0.52639 0.0
C444 C 0.72688 0.67414 0.64268 0.0
C445 C 0.77149 0.68307 0.64594 0.0
C446 C 0.70697 0.69333 0.65384 0.0
C447 C 0.73255 0.7226 0.66839 0.0
C448 C 0.77693 0.73038 0.67213 0.0
C449 C 0.79569 0.71029 0.66097 0.0
C450 C 0.65922 0.68357 0.64965 0.0
C451 C 0.80557 0.76168 0.68742 0.0
C452 C 0.71287 0.81822 0.68368 0.0
C453 C 0.69279 0.80289 0.70095 0.0
C454 C 0.72433 0.79158 0.67264 0.0
C455 C 0.71483 0.74818 0.67887 0.0
C456 C 0.6923 0.73144 0.69585 0.0
C457 C 0.68188 0.75917 0.70677 0.0
C458 C 0.74878 0.81096 0.65472 0.0
C459 C 0.68081 0.68499 0.70279 0.0
H460 H 0.70783 0.65292 0.63118 0.0
H461 H 0.83013 0.71736 0.66366 0.0
H462 H 0.63833 0.6736 0.66233 0.0
H463 H 0.66043 0.71478 0.64431 0.0
H464 H 0.64201 0.65611 0.63932 0.0
H465 H 0.83858 0.76242 0.68908 0.0
H466 H 0.81272 0.79678 0.68455 0.0
H467 H 0.78676 0.75091 0.70059 0.0
H468 H 0.72141 0.85192 0.67904 0.0
H469 H 0.666 0.74692 0.72004 0.0
H470 H 0.73099 0.78679 0.64336 0.0
H471 H 0.78383 0.81614 0.6555 0.0
H472 H 0.75118 0.84402 0.65132 0.0
H473 H 0.66371 0.65906 0.69191 0.0
H474 H 0.65834 0.67472 0.71504 0.0
H475 H 0.71266 0.68506 0.7065 0.0
C476 C 0.94352 0.70485 0.88127 0.0
C477 C 0.9001 0.68502 0.8732 0.0
C478 C 0.98316 0.72457 0.87047 0.0
C479 C 0.97928 0.72422 0.85114 0.0
C480 C 0.93556 0.70114 0.84291 0.0
C481 C 0.89649 0.68192 0.85403 0.0
C482 C 0.0291 0.74876 0.87981 0.0
C483 C 0.92992 0.69954 0.82235 0.0
C484 C 0.06965 0.82612 0.82506 0.0
C485 C 0.09633 0.8092 0.81749 0.0
C486 C 0.0319 0.79885 0.83614 0.0
C487 C 0.02017 0.75327 0.83972 0.0
C488 C 0.04705 0.7359 0.83225 0.0
C489 C 0.08499 0.76416 0.82125 0.0
C490 C 1.00436 0.81888 0.84393 0.0
C491 C 0.03544 0.68743 0.83572 0.0
H492 H 0.94673 0.7072 0.89607 0.0
H493 H 0.86311 0.66626 0.84766 0.0
H494 H 0.0531 0.73966 0.8733 0.0
H495 H 0.04387 0.78606 0.87831 0.0
H496 H 0.02666 0.74057 0.89465 0.0
H497 H 0.89442 0.67505 0.81807 0.0
H498 H 0.93877 0.7338 0.81724 0.0
H499 H 0.95338 0.68998 0.81566 0.0
H500 H 0.07824 0.86091 0.82233 0.0
H501 H 0.10542 0.75083 0.81544 0.0
H502 H 1.00327 0.8162 0.8591 0.0
H503 H 0.9687 0.79946 0.83891 0.0
H504 H 0.01857 0.85519 0.84013 0.0
H505 H 0.03447 0.68104 0.85067 0.0
H506 H 0.06033 0.6794 0.82928 0.0
H507 H 1.00097 0.66371 0.83023 0.0
C508 C 0.22815 0.97128 0.0519 0.0
C509 C 0.23045 0.93115 0.05257 0.0
C510 C 0.24855 1.00264 0.0376 0.0
C511 C 0.27224 0.99392 0.02365 0.0
C512 C 0.27695 0.95478 0.02477 0.0
C513 C 0.25581 0.92369 0.0392 0.0
C514 C 0.24262 0.04392 0.03693 0.0
C515 C 0.30252 0.94469 1.0103 0.0
C516 C 0.26918 0.0457 0.97809 0.0
C517 C 0.31058 0.08702 0.97834 0.0
C518 C 0.25739 0.014 0.99232 0.0
C519 C 0.28791 0.02362 1.00714 0.0
C520 C 0.33102 0.06389 1.00691 0.0
C521 C 0.34181 0.09527 0.99253 0.0
C522 C 0.21103 0.97149 0.99203 0.0
C523 C 0.36474 0.07497 0.02232 0.0
H524 H 0.20894 0.97757 0.06223 0.0
H525 H 0.258 0.8929 0.03967 0.0
H526 H 0.27617 0.07531 0.0353 0.0
H527 H 0.22149 0.04152 0.02488 0.0
H528 H 0.2259 0.04733 0.04945 0.0
H529 H 0.30836 0.91645 1.0144 0.0
H530 H 0.28274 0.93507 0.99733 0.0
H531 H 0.33594 0.97537 1.00743 0.0
H532 H 0.24496 0.03878 0.96712 0.0
H533 H 0.37402 0.12697 0.99278 0.0
H534 H 0.18974 0.97297 1.00328 0.0
H535 H 0.21433 0.94095 0.99437 0.0
H536 H 0.19286 0.96728 0.97885 0.0
H537 H 0.3522 0.08403 0.03477 0.0
H538 H 0.39895 0.10392 0.01885 0.0
H539 H 0.36816 0.04494 0.02576 0.0
C540 C 0.24453 0.31466 0.06482 0.0
C541 C 0.20265 0.31345 0.06651 0.0
C542 C 0.25832 0.30509 0.04809 0.0
C543 C 0.22991 0.29475 0.03249 0.0
C544 C 0.18728 0.29295 0.03411 0.0
C545 C 0.17394 0.30194 0.05118 0.0
C546 C 0.30366 0.30659 0.04708 0.0
C547 C 0.15633 0.2826 0.01775 0.0
C548 C 0.2955 0.31735 0.98784 0.0
C549 C 0.28797 0.2739 0.98341 0.0
C550 C 0.27448 0.32419 1.00316 0.0
C551 C 0.24576 0.2868 1.01451 0.0
C552 C 0.23629 0.24255 1.00961 0.0
C553 C 0.25723 0.23658 0.99406 0.0
C554 C 0.28488 0.37183 1.00772 0.0
C555 C 0.20631 0.20183 0.02142 0.0
H556 H 0.26673 0.32313 0.07665 0.0
H557 H 0.14163 0.30118 0.05238 0.0
H558 H 0.29882 0.27385 0.04173 0.0
H559 H 0.32664 0.33368 0.03743 0.0
H560 H 0.3208 0.31324 0.06063 0.0
H561 H 0.1237 0.28106 0.02139 0.0
H562 H 0.17381 0.30918 1.00713 0.0
H563 H 0.1486 0.24966 1.01155 0.0
H564 H 0.31888 0.34631 0.97962 0.0
H565 H 0.25118 0.20285 0.99078 0.0
H566 H 0.30633 0.3838 0.02024 0.0
H567 H 0.25292 0.37226 1.01067 0.0
H568 H 0.30326 0.39618 0.99644 0.0
H569 H 0.22373 0.20458 0.03464 0.0
H570 H 0.19851 0.16928 1.01477 0.0
H571 H 0.17376 0.20083 0.02459 0.0
C572 C 0.87932 0.16807 0.22025 0.0
C573 C 0.90248 0.16203 0.235 0.0
C574 C 0.9017 0.18691 0.20357 0.0
C575 C 0.94836 0.20015 0.20161 0.0
C576 C 0.97113 0.19179 0.21609 0.0
C577 C 0.94793 0.1728 0.23257 0.0
C578 C 0.87606 0.19487 0.18842 0.0
C579 C 0.02085 0.20529 0.21458 0.0
C580 C 1.01022 0.2329 0.15561 0.0
C581 C 0.03358 0.28056 0.1567 0.0
C582 C 0.9809 0.20602 0.16981 0.0
C583 C 0.97489 0.22735 0.18541 0.0
C584 C 0.99686 0.27541 0.18615 0.0
C585 C 0.02581 0.30132 0.17182 0.0
C586 C 0.95784 0.15489 0.16846 0.0
C587 C 0.99132 0.29964 0.20246 0.0
H588 H 0.84412 0.15962 0.22193 0.0
H589 H 0.9661 0.168 0.2438 0.0
H590 H 0.88881 0.23187 0.18707 0.0
H591 H 0.88195 0.18286 0.17511 0.0
H592 H 0.83878 0.17739 0.1911 0.0
H593 H 0.03238 0.19266 0.22632 0.0
H594 H 0.02712 0.19195 0.2017 0.0
H595 H 0.04205 0.24292 0.21413 0.0
H596 H 0.01602 0.21655 0.14399 0.0
H597 H 0.04339 0.33811 0.17274 0.0
H598 H 0.92089 0.13928 0.17148 0.0
H599 H 0.97256 0.14191 0.17882 0.0
H600 H 0.96203 0.1435 0.15469 0.0
H601 H 0.95463 0.28692 0.20515 0.0
H602 H 1.00867 0.33708 0.20046 0.0
H603 H 1.00573 0.2925 0.21486 0.0
C604 C 0.7442 0.03408 0.34386 0.0
C605 C 0.7605 0.03266 0.32633 0.0
C606 C 0.73245 0.99883 0.35651 0.0
C607 C 0.73695 0.96091 0.35159 0.0
C608 C 0.75309 0.95895 0.33388 0.0
C609 C 0.76471 0.9949 0.32144 0.0
C610 C 0.7153 1.00232 0.37522 0.0
C611 C 0.75824 0.91902 0.32814 0.0
C612 C 0.7419 0.89473 0.39275 0.0
C613 C 0.69591 0.86113 0.39465 0.0
C614 C 0.75636 0.92594 0.37815 0.0
C615 C 0.72411 0.92341 0.3651 0.0
C616 C 0.67823 0.88786 0.36634 0.0
C617 C 0.66469 0.85724 0.3811 0.0
C618 C 0.80562 0.96327 0.37731 0.0
C619 C 0.64278 0.88372 0.35269 0.0
H620 H 0.74078 0.06303 0.34781 0.0
H621 H 0.7774 0.99357 0.30795 0.0
H622 H 0.68059 0.973 0.3775 0.0
H623 H 0.73776 1.00107 0.38602 0.0
H624 H 0.71399 0.03419 0.37693 0.0
H625 H 0.77101 0.92248 0.31387 0.0
H626 H 0.78226 0.91565 0.3375 0.0
H627 H 0.72495 0.88709 0.32921 0.0
H628 H 0.76632 0.89794 0.40311 0.0
H629 H 0.62916 0.83114 0.38232 0.0
H630 H 0.80805 0.99631 0.38068 0.0
H631 H 0.81936 0.96621 0.36327 0.0
H632 H 0.82739 0.9574 0.38707 0.0
H633 H 0.63612 0.91235 0.35461 0.0
H634 H 0.61005 0.85129 0.35426 0.0
H635 H 0.65532 0.88589 0.33847 0.0
C636 C 0.84057 0.76664 0.5691 0.0
C637 C 0.84961 0.7307 0.57094 0.0
C638 C 0.82083 0.77212 0.55306 0.0
C639 C 0.80974 0.74089 0.53843 0.0
C640 C 0.82067 0.70576 0.53985 0.0
C641 C 0.84048 0.70109 0.55607 0.0
C642 C 0.80993 0.81018 0.5521 0.0
C643 C 0.80955 0.67184 0.52457 0.0
C644 C 0.70974 0.72417 0.50909 0.0
C645 C 0.73155 0.75194 0.49388 0.0
C646 C 0.7348 0.71924 0.52336 0.0
C647 C 0.78303 0.74269 0.52247 0.0
C648 C 0.80531 0.7695 0.50686 0.0
C649 C 0.7793 0.77378 0.49272 0.0
C650 C 0.70959 0.6901 0.53969 0.0
C651 C 0.85665 0.79492 0.50538 0.0
H652 H 0.84768 0.78987 0.58044 0.0
H653 H 0.84741 0.67326 0.55731 0.0
H654 H 0.82371 0.82998 0.53928 0.0
H655 H 0.77239 0.79568 0.55187 0.0
H656 H 0.82407 0.83375 0.56395 0.0
H657 H 0.82439 0.64953 0.52697 0.0
H658 H 0.772 0.65012 0.52332 0.0
H659 H 0.82237 0.68968 0.51129 0.0
H660 H 0.67287 0.70692 0.51009 0.0
H661 H 0.79649 0.79534 0.48104 0.0
H662 H 0.71839 0.71162 0.55214 0.0
H663 H 0.72012 0.66437 0.54218 0.0
H664 H 0.67199 0.6722 0.53783 0.0
H665 H 0.87133 0.82169 0.51608 0.0
H666 H 0.86861 0.81125 0.49176 0.0
H667 H 0.87016 0.77154 0.50783 0.0
C668 C 0.12896 0.8478 0.72432 0.0
C669 C 0.15982 0.83221 0.72738 0.0
C670 C 0.09776 0.8309 0.70969 0.0
C671 C 0.09746 0.79769 0.69782 0.0
C672 C 0.13048 0.78407 0.70016 0.0
C673 C 0.16118 0.80144 0.7149 0.0
C674 C 0.06325 0.84646 0.70764 0.0
C675 C 0.13154 0.74892 0.68781 0.0
C676 C 0.98345 0.70909 0.67822 0.0
C677 C 0.98595 0.72365 0.66003 0.0
C678 C 0.01937 0.73307 0.69056 0.0
C679 C 0.05914 0.77279 0.68465 0.0
C680 C 0.06213 0.78778 0.66629 0.0
C681 C 0.02545 0.76301 0.65417 0.0
C682 C 1.01469 0.71575 0.70999 0.0
C683 C 0.10401 0.82996 0.6595 0.0
H684 H 0.12778 0.87174 0.73382 0.0
H685 H 0.18519 0.78951 0.71701 0.0
H686 H 0.06104 0.85508 0.69314 0.0
H687 H 0.02904 0.81844 0.71166 0.0
H688 H 0.07169 0.87654 0.71632 0.0
H689 H 0.16262 0.74622 0.68997 0.0
H690 H 0.1012 0.71517 0.69055 0.0
H691 H 0.13004 0.75722 0.67321 0.0
H692 H 0.95314 0.67878 0.68294 0.0
H693 H 0.02764 0.77459 0.64017 0.0
H694 H 0.01822 0.74231 0.71979 0.0
H695 H 0.04231 0.70811 0.71304 0.0
H696 H 0.98136 0.68451 0.71245 0.0
H697 H 0.10996 0.85973 0.66787 0.0
H698 H 0.101 0.83725 0.64488 0.0
H699 H 0.13447 0.826 0.6611 0.0
C700 C 0.29035 0.12006 0.89164 0.0
C701 C 0.33605 0.1547 0.89305 0.0
C702 C 0.27574 0.08849 0.87718 0.0
C703 C 0.30752 0.09182 0.86376 0.0
C704 C 0.35299 0.12839 0.8645 0.0
C705 C 0.36673 0.15927 0.87916 0.0
C706 C 0.22696 0.05 0.87691 0.0
C707 C 0.38787 0.13344 0.8504 0.0
C708 C 0.28869 0.98161 0.8426 0.0
C709 C 0.27043 0.9819 0.82536 0.0
C710 C 0.30089 0.01719 0.85511 0.0
C711 C 0.29475 0.05424 0.85033 0.0
C712 C 0.27668 0.05508 0.8329 0.0
C713 C 0.26473 0.01886 0.82059 0.0
C714 C 0.32016 0.01494 0.87352 0.0
C715 C 0.26972 0.09405 0.82733 0.0
H716 H 0.26635 0.11629 0.90228 0.0
H717 H 0.40201 0.1862 0.88002 0.0
H718 H 0.21195 0.04637 0.86306 0.0
H719 H 0.22601 0.01758 0.88017 0.0
H720 H 0.20534 0.05509 0.88701 0.0
H721 H 0.42006 0.16653 0.8516 0.0
H722 H 0.39592 0.1057 0.85217 0.0
H723 H 0.37408 0.13044 0.83635 0.0
H724 H 0.29334 0.9533 0.84644 0.0
H725 H 0.25056 0.01933 0.80732 0.0
H726 H 0.29825 0.01567 0.88467 0.0
H727 H 0.3546 0.04504 0.87534 0.0
H728 H 0.32282 0.98376 0.87511 0.0
H729 H 0.24578 0.09668 0.83695 0.0
H730 H 0.25595 0.08997 0.8132 0.0
H731 H 0.30253 0.12658 0.82811 0.0
C732 C 0.67959 0.83665 0.82308 0.0
C733 C 0.70259 0.84426 0.80631 0.0
C734 C 0.69113 0.81881 0.83824 0.0
C735 C 0.72629 0.80791 0.83657 0.0
C736 C 0.75098 0.81738 0.81993 0.0
C737 C 0.73897 0.8356 0.80503 0.0
C738 C 0.66428 0.80971 0.85578 0.0
C739 C 0.78857 0.8061 0.81754 0.0
C740 C 0.77466 0.78054 0.8789 0.0
C741 C 0.75019 0.73279 0.87884 0.0
C742 C 0.76685 0.80564 0.86541 0.0
C743 C 0.73409 0.78242 0.85149 0.0
C744 C 0.70892 0.73429 0.85155 0.0
C745 C 0.71712 0.71017 0.86523 0.0
C746 C 0.79404 0.85692 0.8659 0.0
C747 C 0.6738 0.70812 0.83694 0.0
H748 H 0.65168 0.84358 0.82427 0.0
H749 H 0.75704 0.84143 0.79216 0.0
H750 H 0.64296 0.77247 0.85792 0.0
H751 H 0.68765 0.82374 0.86769 0.0
H752 H 0.64158 0.82464 0.85556 0.0
H753 H 0.8071 0.81917 0.80438 0.0
H754 H 0.81341 0.82054 0.82896 0.0
H755 H 0.77385 0.76864 0.81788 0.0
H756 H 0.80027 0.79833 0.88935 0.0
H757 H 0.69802 0.67332 0.86501 0.0
H758 H 0.77072 0.87108 0.86604 0.0
H759 H 0.81523 0.86987 0.85335 0.0
H760 H 0.81676 0.86988 0.87806 0.0
H761 H 0.6473 0.71828 0.83682 0.0
H762 H 0.65682 0.67074 0.83903 0.0
H763 H 0.69024 0.7163 0.82325 0.0
C764 C 0.95579 0.77296 0.96562 0.0
C765 C 0.9088 0.74208 0.9645 0.0
C766 C 0.98027 0.77757 0.9818 0.0
C767 C 0.95731 0.75055 0.99727 0.0
C768 C 0.90952 0.72091 0.99653 0.0
C769 C 0.88582 0.71707 0.98016 0.0
C770 C 0.03114 0.80987 0.98203 0.0
C771 C 0.88375 0.6916 1.01272 0.0
C772 C 0.03145 0.72409 0.02822 0.0
C773 C 0.04283 0.75603 0.04233 0.0
C774 C 1.00232 0.7209 1.01388 0.0
C775 C 0.98412 0.75051 1.01353 0.0
C776 C 0.99397 0.78164 0.02811 0.0
C777 C 0.02314 0.78397 0.04237 0.0
C778 C 0.99244 0.68693 0.99871 0.0
C779 C 0.97524 0.81376 0.02826 0.0
H780 H 0.97386 0.79267 0.95366 0.0
H781 H 0.84951 0.69318 0.97947 0.0
H782 H 0.04083 0.83255 0.99415 0.0
H783 H 0.04922 0.79022 0.98314 0.0
H784 H 0.04322 0.83121 0.96948 0.0
H785 H 0.84623 0.67402 1.01065 0.0
H786 H 0.8939 0.66551 1.01497 0.0
H787 H 0.89238 0.71243 0.02536 0.0
H788 H 0.04623 0.70215 0.02811 0.0
H789 H 0.03179 0.80883 0.05319 0.0
H790 H 1.00717 0.7052 0.98565 0.0
H791 H 0.9551 0.66544 0.99666 0.0
H792 H 1.00682 0.66442 1.00159 0.0
H793 H 0.99055 0.8385 0.01685 0.0
H794 H 0.98257 0.83293 0.04133 0.0
H795 H 0.93781 0.79477 0.02604 0.0
C796 C 0.21906 0.86159 0.15381 0.0
C797 C 0.19334 0.86659 0.13984 0.0
C798 C 0.2366 0.89253 0.16844 0.0
C799 C 0.2284 0.92956 0.16911 0.0
C800 C 0.20044 0.93344 0.15558 0.0
C801 C 0.18317 0.90186 0.14113 0.0
C802 C 0.26597 0.88695 0.18262 0.0
C803 C 0.19083 0.97238 0.15581 0.0
C804 C 0.25822 1.00167 0.21252 0.0
C805 C 0.3012 0.03848 0.20799 0.0
C806 C 0.23396 0.96583 0.20005 0.0
C807 C 0.2532 0.96683 0.18269 0.0
C808 C 0.29671 1.0037 0.17815 0.0
C809 C 0.32008 0.03894 0.19081 0.0
C810 C 0.18767 0.92708 0.20538 0.0
C811 C 0.31861 1.0061 0.15983 0.0
H812 H 0.22679 0.83423 0.15304 0.0
H813 H 0.16323 0.90596 0.13045 0.0
H814 H 0.30187 0.91459 0.18103 0.0
H815 H 0.25491 0.88973 0.19664 0.0
H816 H 0.26487 0.85378 0.18135 0.0
H817 H 0.16461 0.96787 0.14555 0.0
H818 H 0.17913 0.97592 0.16959 0.0
H819 H 0.22268 1.00463 0.15275 0.0
H820 H 0.24331 1.00107 0.22574 0.0
H821 H 0.35327 0.06711 0.18715 0.0
H822 H 0.18756 0.89436 0.20458 0.0
H823 H 0.1615 0.92492 0.19562 0.0
H824 H 0.17768 0.93102 0.21946 0.0
H825 H 0.32253 0.97576 0.15796 0.0
H826 H 0.35269 0.03705 0.15843 0.0
H827 H 0.29642 1.00594 0.14859 0.0
C828 C 0.35329 0.17541 0.32573 0.0
C829 C 0.32985 0.1677 0.30905 0.0
C830 C 0.34221 0.19348 0.34092 0.0
C831 C 0.30713 0.20453 0.33935 0.0
C832 C 0.28185 0.19472 0.32285 0.0
C833 C 0.29336 0.17624 0.30794 0.0
C834 C 0.3696 0.20286 0.35833 0.0
C835 C 0.24432 0.20616 0.32057 0.0
C836 C 0.26008 0.23404 0.38143 0.0
C837 C 0.28464 0.28177 0.38098 0.0
C838 C 0.26762 0.20825 0.36822 0.0
C839 C 0.30013 0.23075 0.35416 0.0
C840 C 0.3255 0.27887 0.35385 0.0
C841 C 0.31762 0.3037 0.36728 0.0
C842 C 0.24028 0.157 0.36911 0.0
C843 C 0.36034 0.30429 0.33906 0.0
H844 H 0.38128 0.16858 0.32678 0.0
H845 H 0.27495 0.17034 0.29514 0.0
H846 H 0.3915 0.24013 0.36019 0.0
H847 H 0.34663 0.18964 0.37039 0.0
H848 H 0.39179 0.18736 0.35813 0.0
H849 H 0.2252 0.19265 0.30756 0.0
H850 H 0.21996 0.19229 0.33217 0.0
H851 H 0.25924 0.24365 0.32066 0.0
H852 H 0.23457 0.21679 0.39197 0.0
H853 H 0.33678 0.34053 0.36676 0.0
H854 H 0.26345 0.14266 0.36916 0.0
H855 H 0.21836 0.1436 0.35677 0.0
H856 H 0.21823 0.14467 0.38147 0.0
H857 H 0.38657 0.29377 0.33895 0.0
H858 H 0.37769 0.34175 0.34092 0.0
H859 H 0.34352 0.29578 0.32543 0.0
C860 C 0.07821 0.24216 0.4665 0.0
C861 C 0.12532 0.27254 0.46545 0.0
C862 C 0.05388 0.23721 0.48273 0.0
C863 C 0.07715 0.26331 0.49835 0.0
C864 C 0.12505 0.29229 0.49768 0.0
C865 C 0.14858 0.29653 0.48125 0.0
C866 C 1.00286 0.20569 0.48288 0.0
C867 C 0.15115 0.32055 0.51404 0.0
C868 C 1.00473 0.29123 0.52954 0.0
C869 C 0.99249 0.25868 0.54349 0.0
C870 C 0.03356 0.29406 0.51517 0.0
C871 C 0.05059 0.2635 0.51463 0.0
C872 C 0.03989 0.23171 0.52904 0.0
C873 C 1.01101 0.22973 0.54334 0.0
C874 C 0.04437 0.32873 0.50018 0.0
C875 C 0.05744 0.19861 0.52898 0.0
H876 H 0.05993 0.22321 0.45443 0.0
H877 H 0.185 0.31998 0.48063 0.0
H878 H 0.99268 0.18258 0.49488 0.0
H879 H 0.98544 0.22594 0.48412 0.0
H880 H 0.99051 0.18481 0.47022 0.0
H881 H 0.18864 0.33734 0.51202 0.0
H882 H 0.14193 0.34725 0.51649 0.0
H883 H 0.14189 0.29916 0.52655 0.0
H884 H 0.99087 0.31396 0.52959 0.0
H885 H 1.00166 0.2044 0.55403 0.0
H886 H 0.02954 0.31105 0.48703 0.0
H887 H 0.0818 0.34961 0.49823 0.0
H888 H 0.0307 0.35178 0.50318 0.0
H889 H 0.04167 0.17431 0.51747 0.0
H890 H 0.04962 0.179 0.54196 0.0
H891 H 0.09487 0.21687 0.52678 0.0
C892 C 0.78446 0.01908 0.71361 0.0
C893 C 0.73673 0.99872 0.71364 0.0
C894 C 0.81118 0.05321 0.70083 0.0
C895 C 0.78965 0.06708 0.68772 0.0
C896 C 0.74165 0.0477 0.6881 0.0
C897 C 0.71587 0.01396 0.70106 0.0
C898 C 0.8623 0.07338 0.70098 0.0
C899 C 0.71726 0.06143 0.67436 0.0
C900 C 0.85239 0.17652 0.66009 0.0
C901 C 0.85708 0.1602 0.64303 0.0
C902 C 0.83249 0.14696 0.67507 0.0
C903 C 0.81658 0.09991 0.6729 0.0
C904 C 0.82299 0.08357 0.65595 0.0
C905 C 0.84328 0.11389 0.64126 0.0
C906 C 0.82676 0.16581 0.69298 0.0
C907 C 0.80642 0.03364 0.65302 0.0
H908 H 0.80093 1.00762 0.72329 0.0
H909 H 0.67907 0.99864 0.70098 0.0
H910 H 0.8732 0.06342 0.6883 0.0
H911 H 0.87952 0.11107 0.70113 0.0
H912 H 0.87412 0.06188 0.71299 0.0
H913 H 0.67998 0.04455 0.67699 0.0
H914 H 0.73148 0.09879 0.67468 0.0
H915 H 0.72263 0.0524 0.66033 0.0
H916 H 0.86317 0.21226 0.66165 0.0
H917 H 0.84682 0.10089 0.62817 0.0
H918 H 0.83925 0.1537 0.70454 0.0
H919 H 0.79004 0.15337 0.69542 0.0
H920 H 0.84527 0.20359 0.69308 0.0
H921 H 0.81976 0.02062 0.66393 0.0
H922 H 0.81689 0.02688 0.63949 0.0
H923 H 0.76863 0.01409 0.65387 0.0
loop_
_geom_bond_atom_site_label_1
_geom_bond_atom_site_label_2
_geom_bond_distance
_geom_bond_site_symmetry_2
_ccdc_geom_bond_type
Mg0 O7 2.141 . S
Mg0 O8 2.048 . S
Mg0 O9 2.048 . S
Mg0 O12 2.141 . S
C1 O2 1.313 . S
C1 O8 1.195 . S
O2 C1 1.313 . S
C3 O4 1.245 . S
C3 O12 1.289 . S
O4 C3 1.245 . S
C5 O6 1.245 . S
C5 O7 1.289 . S
O6 C5 1.245 . S
O7 Mg0 2.141 . S
O7 C5 1.289 . S
O8 Mg0 2.048 . S
O8 C1 1.195 . S
O9 Mg0 2.048 . S
O9 C10 1.195 . S
C10 O9 1.195 . S
C10 O11 1.313 . S
O11 C10 1.313 . S
O12 Mg0 2.141 . S
O12 C3 1.289 . S
Mg13 O20 2.141 . S
Mg13 O21 2.048 . S
Mg13 O22 2.048 . S
Mg13 O25 2.141 . S
C14 O15 1.313 . S
C14 O21 1.195 . S
O15 C14 1.313 . S
C16 O17 1.245 . S
C16 O25 1.289 . S
O17 C16 1.245 . S
C18 O19 1.245 . S
C18 O20 1.289 . S
O19 C18 1.245 . S
O20 Mg13 2.141 . S
O20 C18 1.289 . S
O21 Mg13 2.048 . S
O21 C14 1.195 . S
O22 Mg13 2.048 . S
O22 C23 1.195 . S
C23 O22 1.195 . S
C23 O24 1.313 . S
O24 C23 1.313 . S
O25 Mg13 2.141 . S
O25 C16 1.289 . S
Mg26 O33 2.141 . S
Mg26 O34 2.048 . S
Mg26 O35 2.048 . S
Mg26 O38 2.141 . S
C27 O28 1.313 . S
C27 O34 1.195 . S
O28 C27 1.313 . S
C29 O30 1.245 . S
C29 O38 1.289 . S
O30 C29 1.245 . S
C31 O32 1.245 . S
C31 O33 1.289 . S
O32 C31 1.245 . S
O33 Mg26 2.141 . S
O33 C31 1.289 . S
O34 Mg26 2.048 . S
O34 C27 1.195 . S
O35 Mg26 2.048 . S
O35 C36 1.195 . S
C36 O35 1.195 . S
C36 O37 1.313 . S
O37 C36 1.313 . S
O38 Mg26 2.141 . S
O38 C29 1.289 . S
Mg39 O46 2.141 . S
Mg39 O47 2.048 . S
Mg39 O48 2.048 . S
Mg39 O51 2.141 . S
C40 O41 1.313 . S
C40 O47 1.195 . S
O41 C40 1.313 . S
C42 O43 1.245 . S
C42 O51 1.289 . S
O43 C42 1.245 . S
C44 O45 1.245 . S
C44 O46 1.289 . S
O45 C44 1.245 . S
O46 Mg39 2.141 . S
O46 C44 1.289 . S
O47 Mg39 2.048 . S
O47 C40 1.195 . S
O48 Mg39 2.048 . S
O48 C49 1.195 . S
C49 O48 1.195 . S
C49 O50 1.313 . S
O50 C49 1.313 . S
O51 Mg39 2.141 . S
O51 C42 1.289 . S
Mg52 O59 2.141 . S
Mg52 O60 2.048 . S
Mg52 O61 2.048 . S
Mg52 O64 2.141 . S
C53 O54 1.313 . S
C53 O60 1.195 . S
O54 C53 1.313 . S
C55 O56 1.245 . S
C55 O64 1.289 . S
O56 C55 1.245 . S
C57 O58 1.245 . S
C57 O59 1.289 . S
O58 C57 1.245 . S
O59 Mg52 2.141 . S
O59 C57 1.289 . S
O60 Mg52 2.048 . S
O60 C53 1.195 . S
O61 Mg52 2.048 . S
O61 C62 1.195 . S
C62 O61 1.195 . S
C62 O63 1.313 . S
O63 C62 1.313 . S
O64 Mg52 2.141 . S
O64 C55 1.289 . S
Mg65 O72 2.141 . S
Mg65 O73 2.048 . S
Mg65 O74 2.048 . S
Mg65 O77 2.141 . S
C66 O67 1.313 . S
C66 O73 1.195 . S
O67 C66 1.313 . S
C68 O69 1.245 . S
C68 O77 1.289 . S
O69 C68 1.245 . S
C70 O71 1.245 . S
C70 O72 1.289 . S
O71 C70 1.245 . S
O72 Mg65 2.141 . S
O72 C70 1.289 . S
O73 Mg65 2.048 . S
O73 C66 1.195 . S
O74 Mg65 2.048 . S
O74 C75 1.195 . S
C75 O74 1.195 . S
C75 O76 1.313 . S
O76 C75 1.313 . S
O77 Mg65 2.141 . S
O77 C68 1.289 . S
Mg78 O85 2.141 . S
Mg78 O86 2.048 . S
Mg78 O87 2.048 . S
Mg78 O90 2.141 . S
C79 O80 1.313 . S
C79 O86 1.195 . S
O80 C79 1.313 . S
C81 O82 1.245 . S
C81 O90 1.289 . S
O82 C81 1.245 . S
C83 O84 1.245 . S
C83 O85 1.289 . S
O84 C83 1.245 . S
O85 Mg78 2.141 . S
O85 C83 1.289 . S
O86 Mg78 2.048 . S
O86 C79 1.195 . S
O87 Mg78 2.048 . S
O87 C88 1.195 . S
C88 O87 1.195 . S
C88 O89 1.313 . S
O89 C88 1.313 . S
O90 Mg78 2.141 . S
O90 C81 1.289 . S
Mg91 O98 2.141 . S
Mg91 O99 2.048 . S
Mg91 O100 2.048 . S
Mg91 O103 2.141 . S
C92 O93 1.313 . S
C92 O99 1.195 . S
O93 C92 1.313 . S
C94 O95 1.245 . S
C94 O103 1.289 . S
O95 C94 1.245 . S
C96 O97 1.245 . S
C96 O98 1.289 . S
O97 C96 1.245 . S
O98 Mg91 2.141 . S
O98 C96 1.289 . S
O99 Mg91 2.048 . S
O99 C92 1.195 . S
O100 Mg91 2.048 . S
O100 C101 1.195 . S
C101 O100 1.195 . S
C101 O102 1.313 . S
O102 C101 1.313 . S
O103 Mg91 2.141 . S
O103 C94 1.289 . S
Mg104 O111 2.141 . S
Mg104 O112 2.048 . S
Mg104 O113 2.048 . S
Mg104 O116 2.141 . S
C105 O106 1.313 . S
C105 O112 1.195 . S
O106 C105 1.313 . S
C107 O108 1.245 . S
C107 O116 1.289 . S
O108 C107 1.245 . S
C109 O110 1.245 . S
C109 O111 1.289 . S
O110 C109 1.245 . S
O111 Mg104 2.141 . S
O111 C109 1.289 . S
O112 Mg104 2.048 . S
O112 C105 1.195 . S
O113 Mg104 2.048 . S
O113 C114 1.195 . S
C114 O113 1.195 . S
C114 O115 1.313 . S
O115 C114 1.313 . S
O116 Mg104 2.141 . S
O116 C107 1.289 . S
Mg117 O124 2.141 . S
Mg117 O125 2.048 . S
Mg117 O126 2.048 . S
Mg117 O129 2.141 . S
C118 O119 1.313 . S
C118 O125 1.195 . S
O119 C118 1.313 . S
C120 O121 1.245 . S
C120 O129 1.289 . S
O121 C120 1.245 . S
C122 O123 1.245 . S
C122 O124 1.289 . S
O123 C122 1.245 . S
O124 Mg117 2.141 . S
O124 C122 1.289 . S
O125 Mg117 2.048 . S
O125 C118 1.195 . S
O126 Mg117 2.048 . S
O126 C127 1.195 . S
C127 O126 1.195 . S
C127 O128 1.313 . S
O128 C127 1.313 . S
O129 Mg117 2.141 . S
O129 C120 1.289 . S
Mg130 O137 2.141 . S
Mg130 O138 2.048 . S
Mg130 O139 2.048 . S
Mg130 O142 2.141 . S
C131 O132 1.313 . S
C131 O138 1.195 . S
O132 C131 1.313 . S
C133 O134 1.245 . S
C133 O142 1.289 . S
O134 C133 1.245 . S
C135 O136 1.245 . S
C135 O137 1.289 . S
O136 C135 1.245 . S
O137 Mg130 2.141 . S
O137 C135 1.289 . S
O138 Mg130 2.048 . S
O138 C131 1.195 . S
O139 Mg130 2.048 . S
O139 C140 1.195 . S
C140 O139 1.195 . S
C140 O141 1.313 . S
O141 C140 1.313 . S
O142 Mg130 2.141 . S
O142 C133 1.289 . S
Mg143 O150 2.141 . S
Mg143 O151 2.048 . S
Mg143 O152 2.048 . S
Mg143 O155 2.141 . S
C144 O145 1.313 . S
C144 O151 1.195 . S
O145 C144 1.313 . S
C146 O147 1.245 . S
C146 O155 1.289 . S
O147 C146 1.245 . S
C148 O149 1.245 . S
C148 O150 1.289 . S
O149 C148 1.245 . S
O150 Mg143 2.141 . S
O150 C148 1.289 . S
O151 Mg143 2.048 . S
O151 C144 1.195 . S
O152 Mg143 2.048 . S
O152 C153 1.195 . S
C153 O152 1.195 . S
C153 O154 1.313 . S
O154 C153 1.313 . S
O155 Mg143 2.141 . S
O155 C146 1.289 . S
C156 C157 1.391 . S
C156 C158 1.394 . S
C156 H172 0.931 . S
C157 C156 1.391 . S
C157 C161 1.376 . S
C158 C156 1.394 . S
C158 C159 1.369 . S
C158 C162 1.531 . S
C159 C158 1.369 . S
C159 C160 1.410 . S
C159 C167 1.503 . S
C160 C159 1.410 . S
C160 C161 1.392 . S
C160 C163 1.511 . S
C161 C157 1.376 . S
C161 C160 1.392 . S
C161 H173 0.929 . S
C162 C158 1.531 . S
C162 H174 0.960 . S
C162 H175 0.962 . S
C162 H176 0.960 . S
C163 C160 1.511 . S
C163 H177 0.961 . S
C163 H178 0.961 . S
C163 H179 0.961 . S
C164 C165 1.370 . S
C164 C166 1.363 . S
C164 H180 0.931 . S
C165 C164 1.370 . S
C165 C169 1.408 . S
C166 C164 1.363 . S
C166 C167 1.370 . S
C166 C170 1.524 . S
C167 C159 1.503 . S
C167 C166 1.370 . S
C167 C168 1.403 . S
C168 C167 1.403 . S
C168 C169 1.404 . S
C168 C171 1.539 . S
C169 C165 1.408 . S
C169 C168 1.404 . S
C169 H181 0.930 . S
C170 C166 1.524 . S
C170 H182 0.956 . S
C170 H183 0.961 . S
C170 H184 0.961 . S
C171 C168 1.539 . S
C171 H185 0.958 1_455 S
C171 H186 0.961 1_455 S
C171 H187 0.960 . S
H172 C156 0.931 . S
H173 C161 0.929 . S
H174 C162 0.960 . S
H175 C162 0.962 . S
H176 C162 0.960 . S
H177 C163 0.961 . S
H178 C163 0.961 . S
H179 C163 0.961 . S
H180 C164 0.931 . S
H181 C169 0.930 . S
H182 C170 0.956 . S
H183 C170 0.961 . S
H184 C170 0.961 . S
H185 C171 0.958 1_655 S
H186 C171 0.961 1_655 S
H187 C171 0.960 . S
C188 C189 1.391 . S
C188 C190 1.394 . S
C188 H204 0.931 . S
C189 C188 1.391 . S
C189 C193 1.376 . S
C190 C188 1.394 . S
C190 C191 1.369 . S
C190 C194 1.531 . S
C191 C190 1.369 . S
C191 C192 1.410 . S
C191 C199 1.503 . S
C192 C191 1.410 . S
C192 C193 1.392 . S
C192 C195 1.511 . S
C193 C189 1.376 . S
C193 C192 1.392 . S
C193 H205 0.929 . S
C194 C190 1.531 . S
C194 H206 0.960 . S
C194 H207 0.962 . S
C194 H208 0.960 . S
C195 C192 1.511 . S
C195 H209 0.961 . S
C195 H210 0.961 . S
C195 H211 0.961 . S
C196 C197 1.370 . S
C196 C198 1.363 . S
C196 H212 0.931 . S
C197 C196 1.370 . S
C197 C201 1.408 . S
C198 C196 1.363 . S
C198 C199 1.370 . S
C198 C202 1.524 . S
C199 C191 1.503 . S
C199 C198 1.370 . S
C199 C200 1.403 . S
C200 C199 1.403 . S
C200 C201 1.404 . S
C200 C203 1.539 . S
C201 C197 1.408 . S
C201 C200 1.404 . S
C201 H213 0.930 . S
C202 C198 1.524 . S
C202 H214 0.956 . S
C202 H215 0.961 . S
C202 H216 0.961 . S
C203 C200 1.539 . S
C203 H217 0.958 1_545 S
C203 H218 0.961 1_545 S
C203 H219 0.956 1_545 S
H204 C188 0.931 . S
H205 C193 0.929 . S
H206 C194 0.960 . S
H207 C194 0.962 . S
H208 C194 0.960 . S
H209 C195 0.961 . S
H210 C195 0.961 . S
H211 C195 0.961 . S
H212 C196 0.931 . S
H213 C201 0.930 . S
H214 C202 0.956 . S
H215 C202 0.961 . S
H216 C202 0.961 . S
H217 C203 0.958 1_565 S
H218 C203 0.961 1_565 S
H219 C203 0.956 1_565 S
C220 C221 1.391 . S
C220 C222 1.394 . S
C220 H236 0.931 . S
C221 C220 1.391 . S
C221 C225 1.376 . S
C222 C220 1.394 . S
C222 C223 1.369 . S
C222 C226 1.531 . S
C223 C222 1.369 . S
C223 C224 1.410 . S
C223 C231 1.503 . S
C224 C223 1.410 . S
C224 C225 1.392 . S
C224 C227 1.511 . S
C225 C221 1.376 . S
C225 C224 1.392 . S
C225 H237 0.929 . S
C226 C222 1.531 . S
C226 H238 0.960 . S
C226 H239 0.962 . S
C226 H240 0.960 . S
C227 C224 1.511 . S
C227 H241 0.961 . S
C227 H242 0.961 . S
C227 H243 0.961 . S
C228 C229 1.370 . S
C228 C230 1.363 . S
C228 H244 0.931 . S
C229 C228 1.370 . S
C229 C233 1.408 . S
C230 C228 1.363 . S
C230 C231 1.370 . S
C230 C234 1.524 . S
C231 C223 1.503 . S
C231 C230 1.370 . S
C231 C232 1.403 . S
C232 C231 1.403 . S
C232 C233 1.404 . S
C232 C235 1.539 . S
C233 C229 1.408 . S
C233 C232 1.404 . S
C233 H245 0.930 . S
C234 C230 1.524 . S
C234 H246 0.956 . S
C234 H247 0.961 . S
C234 H248 0.961 . S
C235 C232 1.539 . S
C235 H249 0.958 . S
C235 H250 0.961 . S
C235 H251 0.960 . S
H236 C220 0.931 . S
H237 C225 0.929 . S
H238 C226 0.960 . S
H239 C226 0.962 . S
H240 C226 0.960 . S
H241 C227 0.961 . S
H242 C227 0.961 . S
H243 C227 0.961 . S
H244 C228 0.931 . S
H245 C233 0.930 . S
H246 C234 0.956 . S
H247 C234 0.961 . S
H248 C234 0.961 . S
H249 C235 0.958 . S
H250 C235 0.961 . S
H251 C235 0.960 . S
C252 C253 1.391 . S
C252 C254 1.394 . S
C252 H268 0.931 . S
C253 C252 1.391 . S
C253 C257 1.376 . S
C254 C252 1.394 . S
C254 C255 1.369 . S
C254 C258 1.531 . S
C255 C254 1.369 . S
C255 C256 1.410 . S
C255 C263 1.503 . S
C256 C255 1.410 . S
C256 C257 1.392 . S
C256 C259 1.511 . S
C257 C253 1.376 . S
C257 C256 1.392 . S
C257 H269 0.929 . S
C258 C254 1.531 . S
C258 H270 0.960 . S
C258 H271 0.962 . S
C258 H272 0.960 . S
C259 C256 1.511 . S
C259 H273 0.961 1_655 S
C259 H274 0.961 . S
C259 H275 0.961 1_655 S
C260 C261 1.370 . S
C260 C262 1.363 . S
C260 H276 0.931 . S
C261 C260 1.370 . S
C261 C265 1.408 . S
C262 C260 1.363 . S
C262 C263 1.370 . S
C262 C266 1.524 . S
C263 C255 1.503 . S
C263 C262 1.370 . S
C263 C264 1.403 . S
C264 C263 1.403 . S
C264 C265 1.404 . S
C264 C267 1.539 . S
C265 C261 1.408 . S
C265 C264 1.404 . S
C265 H277 0.930 . S
C266 C262 1.524 . S
C266 H278 0.956 . S
C266 H279 0.961 . S
C266 H280 0.961 . S
C267 C264 1.539 . S
C267 H281 0.958 . S
C267 H282 0.961 . S
C267 H283 0.960 . S
H268 C252 0.931 . S
H269 C257 0.929 . S
H270 C258 0.960 . S
H271 C258 0.962 . S
H272 C258 0.960 . S
H273 C259 0.961 1_455 S
H274 C259 0.961 . S
H275 C259 0.961 1_455 S
H276 C260 0.931 . S
H277 C265 0.930 . S
H278 C266 0.956 . S
H279 C266 0.961 . S
H280 C266 0.961 . S
H281 C267 0.958 . S
H282 C267 0.961 . S
H283 C267 0.960 . S
C284 C285 1.391 . S
C284 C286 1.394 . S
C284 H300 0.931 . S
C285 C284 1.391 . S
C285 C289 1.376 . S
C286 C284 1.394 . S
C286 C287 1.369 . S
C286 C290 1.531 . S
C287 C286 1.369 . S
C287 C288 1.410 . S
C287 C295 1.503 . S
C288 C287 1.410 . S
C288 C289 1.392 . S
C288 C291 1.511 . S
C289 C285 1.376 . S
C289 C288 1.392 . S
C289 H301 0.929 . S
C290 C286 1.531 . S
C290 H302 0.960 . S
C290 H303 0.961 . S
C290 H304 0.960 1_565 S
C291 C288 1.511 . S
C291 H305 0.961 . S
C291 H306 0.961 . S
C291 H307 0.961 . S
C292 C293 1.370 . S
C292 C294 1.363 . S
C292 H308 0.931 . S
C293 C292 1.370 . S
C293 C297 1.408 . S
C294 C292 1.363 . S
C294 C295 1.370 . S
C294 C298 1.524 . S
C295 C287 1.503 . S
C295 C294 1.370 . S
C295 C296 1.403 . S
C296 C295 1.403 . S
C296 C297 1.404 . S
C296 C299 1.539 . S
C297 C293 1.408 . S
C297 C296 1.404 . S
C297 H309 0.930 . S
C298 C294 1.524 . S
C298 H310 0.956 . S
C298 H311 0.961 . S
C298 H312 0.961 . S
C299 C296 1.539 . S
C299 H313 0.958 . S
C299 H314 0.961 . S
C299 H315 0.960 . S
H300 C284 0.931 . S
H301 C289 0.929 . S
H302 C290 0.960 . S
H303 C290 0.961 . S
H304 C290 0.960 1_545 S
H305 C291 0.961 . S
H306 C291 0.961 . S
H307 C291 0.961 . S
H308 C292 0.931 . S
H309 C297 0.930 . S
H310 C298 0.956 . S
H311 C298 0.961 . S
H312 C298 0.961 . S
H313 C299 0.958 . S
H314 C299 0.961 . S
H315 C299 0.960 . S
C316 C317 1.391 . S
C316 C318 1.394 . S
C316 H332 0.931 . S
C317 C316 1.391 . S
C317 C321 1.376 . S
C318 C316 1.394 . S
C318 C319 1.369 . S
C318 C322 1.531 . S
C319 C318 1.369 . S
C319 C320 1.410 . S
C319 C327 1.503 . S
C320 C319 1.410 . S
C320 C321 1.392 . S
C320 C323 1.511 . S
C321 C317 1.376 . S
C321 C320 1.392 . S
C321 H333 0.929 . S
C322 C318 1.531 . S
C322 H334 0.960 . S
C322 H335 0.962 . S
C322 H336 0.960 . S
C323 C320 1.511 . S
C323 H337 0.961 . S
C323 H338 0.961 . S
C323 H339 0.961 . S
C324 C325 1.370 . S
C324 C326 1.363 . S
C324 H340 0.931 . S
C325 C324 1.370 . S
C325 C329 1.408 . S
C326 C324 1.363 . S
C326 C327 1.370 . S
C326 C330 1.524 . S
C327 C319 1.503 . S
C327 C326 1.370 . S
C327 C328 1.403 . S
C328 C327 1.403 . S
C328 C329 1.404 . S
C328 C331 1.539 . S
C329 C325 1.408 . S
C329 C328 1.404 . S
C329 H341 0.930 . S
C330 C326 1.524 . S
C330 H342 0.956 . S
C330 H343 0.961 . S
C330 H344 0.961 . S
C331 C328 1.539 . S
C331 H345 0.958 . S
C331 H346 0.961 . S
C331 H347 0.960 . S
H332 C316 0.931 . S
H333 C321 0.929 . S
H334 C322 0.960 . S
H335 C322 0.962 . S
H336 C322 0.960 . S
H337 C323 0.961 . S
H338 C323 0.961 . S
H339 C323 0.961 . S
H340 C324 0.931 . S
H341 C329 0.930 . S
H342 C330 0.956 . S
H343 C330 0.961 . S
H344 C330 0.961 . S
H345 C331 0.958 . S
H346 C331 0.961 . S
H347 C331 0.960 . S
C348 C349 1.391 . S
C348 C350 1.394 . S
C348 H364 0.931 . S
C349 C348 1.391 . S
C349 C353 1.376 . S
C350 C348 1.394 . S
C350 C351 1.369 . S
C350 C354 1.531 . S
C351 C350 1.369 . S
C351 C352 1.410 . S
C351 C359 1.503 . S
C352 C351 1.410 . S
C352 C353 1.392 . S
C352 C355 1.511 . S
C353 C349 1.376 . S
C353 C352 1.392 . S
C353 H365 0.929 . S
C354 C350 1.531 . S
C354 H366 0.960 . S
C354 H367 0.962 . S
C354 H368 0.960 . S
C355 C352 1.511 . S
C355 H369 0.961 . S
C355 H370 0.961 . S
C355 H371 0.961 . S
C356 C357 1.370 . S
C356 C358 1.363 . S
C356 H372 0.931 . S
C357 C356 1.370 . S
C357 C361 1.408 . S
C358 C356 1.363 . S
C358 C359 1.370 . S
C358 C362 1.524 . S
C359 C351 1.503 . S
C359 C358 1.370 . S
C359 C360 1.403 . S
C360 C359 1.403 . S
C360 C361 1.404 . S
C360 C363 1.539 . S
C361 C357 1.408 . S
C361 C360 1.404 . S
C361 H373 0.930 . S
C362 C358 1.524 . S
C362 H374 0.956 . S
C362 H375 0.961 . S
C362 H376 0.961 . S
C363 C360 1.539 . S
C363 H377 0.958 . S
C363 H378 0.961 . S
C363 H379 0.960 . S
H364 C348 0.931 . S
H365 C353 0.929 . S
H366 C354 0.960 . S
H367 C354 0.962 . S
H368 C354 0.960 . S
H369 C355 0.961 . S
H370 C355 0.961 . S
H371 C355 0.961 . S
H372 C356 0.931 . S
H373 C361 0.930 . S
H374 C362 0.956 . S
H375 C362 0.961 . S
H376 C362 0.961 . S
H377 C363 0.958 . S
H378 C363 0.961 . S
H379 C363 0.960 . S
C380 C381 1.391 . S
C380 C382 1.394 . S
C380 H396 0.931 . S
C381 C380 1.391 . S
C381 C385 1.376 . S
C382 C380 1.394 . S
C382 C383 1.369 . S
C382 C386 1.531 . S
C383 C382 1.369 . S
C383 C384 1.410 . S
C383 C391 1.503 1_655 S
C384 C383 1.410 . S
C384 C385 1.392 . S
C384 C387 1.511 . S
C385 C381 1.376 . S
C385 C384 1.392 . S
C385 H397 0.929 . S
C386 C382 1.531 . S
C386 H398 0.960 . S
C386 H399 0.962 . S
C386 H400 0.960 . S
C387 C384 1.511 . S
C387 H401 0.961 . S
C387 H402 0.961 1_655 S
C387 H403 0.961 . S
C388 C389 1.370 . S
C388 C390 1.363 . S
C388 H404 0.931 . S
C389 C388 1.370 . S
C389 C393 1.408 . S
C390 C388 1.363 . S
C390 C391 1.370 . S
C390 C394 1.524 . S
C391 C383 1.503 1_455 S
C391 C390 1.370 . S
C391 C392 1.403 . S
C392 C391 1.403 . S
C392 C393 1.404 . S
C392 C395 1.539 1_455 S
C393 C389 1.408 . S
C393 C392 1.404 . S
C393 H405 0.930 . S
C394 C390 1.524 . S
C394 H406 0.956 . S
C394 H407 0.961 . S
C394 H408 0.961 . S
C395 C392 1.539 1_655 S
C395 H409 0.958 . S
C395 H410 0.961 . S
C395 H411 0.960 . S
H396 C380 0.931 . S
H397 C385 0.929 . S
H398 C386 0.960 . S
H399 C386 0.962 . S
H400 C386 0.960 . S
H401 C387 0.961 . S
H402 C387 0.961 1_455 S
H403 C387 0.961 . S
H404 C388 0.931 . S
H405 C393 0.930 . S
H406 C394 0.956 . S
H407 C394 0.961 . S
H408 C394 0.961 . S
H409 C395 0.958 . S
H410 C395 0.961 . S
H411 C395 0.960 . S
C412 C413 1.391 . S
C412 C414 1.394 . S
C412 H428 0.931 . S
C413 C412 1.391 . S
C413 C417 1.376 . S
C414 C412 1.394 . S
C414 C415 1.369 . S
C414 C418 1.531 1_545 S
C415 C414 1.369 . S
C415 C416 1.410 . S
C415 C423 1.503 1_545 S
C416 C415 1.410 . S
C416 C417 1.392 . S
C416 C419 1.511 . S
C417 C413 1.376 . S
C417 C416 1.392 . S
C417 H429 0.929 . S
C418 C414 1.531 1_565 S
C418 H430 0.960 . S
C418 H431 0.962 1_565 S
C418 H432 0.960 . S
C419 C416 1.511 . S
C419 H433 0.961 . S
C419 H434 0.961 . S
C419 H435 0.961 . S
C420 C421 1.370 . S
C420 C422 1.363 . S
C420 H436 0.931 . S
C421 C420 1.370 . S
C421 C425 1.408 . S
C422 C420 1.363 . S
C422 C423 1.370 . S
C422 C426 1.524 1_565 S
C423 C415 1.503 1_565 S
C423 C422 1.370 . S
C423 C424 1.403 . S
C424 C423 1.403 . S
C424 C425 1.404 . S
C424 C427 1.539 . S
C425 C421 1.408 . S
C425 C424 1.404 . S
C425 H437 0.930 . S
C426 C422 1.524 1_545 S
C426 H438 0.956 . S
C426 H439 0.961 . S
C426 H440 0.961 . S
C427 C424 1.539 . S
C427 H441 0.958 . S
C427 H442 0.961 . S
C427 H443 0.960 . S
H428 C412 0.931 . S
H429 C417 0.929 . S
H430 C418 0.960 . S
H431 C418 0.962 1_545 S
H432 C418 0.960 . S
H433 C419 0.961 . S
H434 C419 0.961 . S
H435 C419 0.961 . S
H436 C420 0.931 . S
H437 C425 0.930 . S
H438 C426 0.956 . S
H439 C426 0.961 . S
H440 C426 0.961 . S
H441 C427 0.958 . S
H442 C427 0.961 . S
H443 C427 0.960 . S
C444 C445 1.391 . S
C444 C446 1.394 . S
C444 H460 0.931 . S
C445 C444 1.391 . S
C445 C449 1.376 . S
C446 C444 1.394 . S
C446 C447 1.369 . S
C446 C450 1.531 . S
C447 C446 1.369 . S
C447 C448 1.410 . S
C447 C455 1.503 . S
C448 C447 1.410 . S
C448 C449 1.392 . S
C448 C451 1.511 . S
C449 C445 1.376 . S
C449 C448 1.392 . S
C449 H461 0.929 . S
C450 C446 1.531 . S
C450 H462 0.960 . S
C450 H463 0.962 . S
C450 H464 0.960 . S
C451 C448 1.511 . S
C451 H465 0.961 . S
C451 H466 0.961 . S
C451 H467 0.961 . S
C452 C453 1.370 . S
C452 C454 1.363 . S
C452 H468 0.931 . S
C453 C452 1.370 . S
C453 C457 1.408 . S
C454 C452 1.363 . S
C454 C455 1.370 . S
C454 C458 1.524 . S
C455 C447 1.503 . S
C455 C454 1.370 . S
C455 C456 1.403 . S
C456 C455 1.403 . S
C456 C457 1.404 . S
C456 C459 1.539 . S
C457 C453 1.408 . S
C457 C456 1.404 . S
C457 H469 0.930 . S
C458 C454 1.524 . S
C458 H470 0.956 . S
C458 H471 0.961 . S
C458 H472 0.961 . S
C459 C456 1.539 . S
C459 H473 0.958 . S
C459 H474 0.961 . S
C459 H475 0.960 . S
H460 C444 0.931 . S
H461 C449 0.929 . S
H462 C450 0.960 . S
H463 C450 0.962 . S
H464 C450 0.960 . S
H465 C451 0.961 . S
H466 C451 0.961 . S
H467 C451 0.961 . S
H468 C452 0.931 . S
H469 C457 0.930 . S
H470 C458 0.956 . S
H471 C458 0.961 . S
H472 C458 0.961 . S
H473 C459 0.958 . S
H474 C459 0.961 . S
H475 C459 0.960 . S
C476 C477 1.391 . S
C476 C478 1.394 . S
C476 H492 0.931 . S
C477 C476 1.391 . S
C477 C481 1.376 . S
C478 C476 1.394 . S
C478 C479 1.369 . S
C478 C482 1.531 1_655 S
C479 C478 1.369 . S
C479 C480 1.410 . S
C479 C487 1.503 1_655 S
C480 C479 1.410 . S
C480 C481 1.392 . S
C480 C483 1.511 . S
C481 C477 1.376 . S
C481 C480 1.392 . S
C481 H493 0.929 . S
C482 C478 1.531 1_455 S
C482 H494 0.960 . S
C482 H495 0.962 . S
C482 H496 0.960 . S
C483 C480 1.511 . S
C483 H497 0.961 . S
C483 H498 0.961 . S
C483 H499 0.961 . S
C484 C485 1.370 . S
C484 C486 1.363 . S
C484 H500 0.931 . S
C485 C484 1.370 . S
C485 C489 1.408 . S
C486 C484 1.363 . S
C486 C487 1.370 . S
C486 C490 1.524 1_455 S
C487 C479 1.503 1_455 S
C487 C486 1.370 . S
C487 C488 1.403 . S
C488 C487 1.403 . S
C488 C489 1.404 . S
C488 C491 1.539 . S
C489 C485 1.408 . S
C489 C488 1.404 . S
C489 H501 0.930 . S
C490 C486 1.524 1_655 S
C490 H502 0.954 . S
C490 H503 0.961 . S
C490 H504 0.961 1_655 S
C491 C488 1.539 . S
C491 H505 0.958 . S
C491 H506 0.961 . S
C491 H507 0.960 . S
H492 C476 0.931 . S
H493 C481 0.929 . S
H494 C482 0.960 . S
H495 C482 0.962 . S
H496 C482 0.960 . S
H497 C483 0.961 . S
H498 C483 0.961 . S
H499 C483 0.961 . S
H500 C484 0.931 . S
H501 C489 0.930 . S
H502 C490 0.954 . S
H503 C490 0.961 . S
H504 C490 0.961 1_455 S
H505 C491 0.958 . S
H506 C491 0.961 . S
H507 C491 0.960 . S
C508 C509 1.391 . S
C508 C510 1.394 . S
C508 H524 0.931 . S
C509 C508 1.391 . S
C509 C513 1.376 . S
C510 C508 1.394 . S
C510 C511 1.369 . S
C510 C514 1.531 1_565 S
C511 C510 1.369 . S
C511 C512 1.410 . S
C511 C519 1.503 1_564 S
C512 C511 1.410 . S
C512 C513 1.392 . S
C512 C515 1.511 1_554 S
C513 C509 1.376 . S
C513 C512 1.392 . S
C513 H525 0.929 . S
C514 C510 1.531 1_545 S
C514 H526 0.960 . S
C514 H527 0.962 . S
C514 H528 0.960 . S
C515 C512 1.511 1_556 S
C515 H529 0.961 . S
C515 H530 0.961 . S
C515 H531 0.961 . S
C516 C517 1.370 . S
C516 C518 1.363 . S
C516 H532 0.931 . S
C517 C516 1.370 . S
C517 C521 1.408 . S
C518 C516 1.363 . S
C518 C519 1.370 . S
C518 C522 1.524 1_545 S
C519 C511 1.503 1_546 S
C519 C518 1.370 . S
C519 C520 1.403 . S
C520 C519 1.403 . S
C520 C521 1.404 . S
C520 C523 1.539 1_556 S
C521 C517 1.408 . S
C521 C520 1.404 . S
C521 H533 0.930 . S
C522 C518 1.524 1_565 S
C522 H534 0.956 . S
C522 H535 0.961 . S
C522 H536 0.961 . S
C523 C520 1.539 1_554 S
C523 H537 0.958 . S
C523 H538 0.961 . S
C523 H539 0.960 . S
H524 C508 0.931 . S
H525 C513 0.929 . S
H526 C514 0.960 . S
H527 C514 0.962 . S
H528 C514 0.960 . S
H529 C515 0.961 . S
H530 C515 0.961 . S
H531 C515 0.961 . S
H532 C516 0.931 . S
H533 C521 0.930 . S
H534 C522 0.956 . S
H535 C522 0.961 . S
H536 C522 0.961 . S
H537 C523 0.958 . S
H538 C523 0.961 . S
H539 C523 0.960 . S
C540 C541 1.391 . S
C540 C542 1.394 . S
C540 H556 0.931 . S
C541 C540 1.391 . S
C541 C545 1.376 . S
C542 C540 1.394 . S
C542 C543 1.369 . S
C542 C546 1.531 . S
C543 C542 1.369 . S
C543 C544 1.410 . S
C543 C551 1.503 . S
C544 C543 1.410 . S
C544 C545 1.392 . S
C544 C547 1.511 . S
C545 C541 1.376 . S
C545 C544 1.392 . S
C545 H557 0.929 . S
C546 C542 1.531 . S
C546 H558 0.960 . S
C546 H559 0.962 . S
C546 H560 0.960 . S
C547 C544 1.511 . S
C547 H561 0.961 . S
C547 H562 0.961 . S
C547 H563 0.961 . S
C548 C549 1.370 . S
C548 C550 1.363 1_556 S
C548 H564 0.931 . S
C549 C548 1.370 . S
C549 C553 1.408 1_556 S
C550 C548 1.363 1_554 S
C550 C551 1.370 . S
C550 C554 1.524 . S
C551 C543 1.503 . S
C551 C550 1.370 . S
C551 C552 1.403 . S
C552 C551 1.403 . S
C552 C553 1.404 . S
C552 C555 1.539 . S
C553 C549 1.408 1_554 S
C553 C552 1.404 . S
C553 H565 0.930 . S
C554 C550 1.524 . S
C554 H566 0.956 . S
C554 H567 0.961 . S
C554 H568 0.940 1_554 S
C555 C552 1.539 . S
C555 H569 0.958 . S
C555 H570 0.961 . S
C555 H571 0.960 . S
H556 C540 0.931 . S
H557 C545 0.929 . S
H558 C546 0.960 . S
H559 C546 0.962 . S
H560 C546 0.960 . S
H561 C547 0.961 . S
H562 C547 0.961 . S
H563 C547 0.961 . S
H564 C548 0.931 . S
H565 C553 0.930 . S
H566 C554 0.956 . S
H567 C554 0.961 . S
H568 C554 0.940 1_556 S
H569 C555 0.958 . S
H570 C555 0.961 . S
H571 C555 0.960 . S
C572 C573 1.391 . S
C572 C574 1.394 . S
C572 H588 0.931 . S
C573 C572 1.391 . S
C573 C577 1.376 . S
C574 C572 1.394 . S
C574 C575 1.369 . S
C574 C578 1.531 . S
C575 C574 1.369 . S
C575 C576 1.410 . S
C575 C583 1.503 . S
C576 C575 1.410 . S
C576 C577 1.392 . S
C576 C579 1.511 . S
C577 C573 1.376 . S
C577 C576 1.392 . S
C577 H589 0.929 . S
C578 C574 1.531 . S
C578 H590 0.960 . S
C578 H591 0.962 . S
C578 H592 0.960 . S
C579 C576 1.511 . S
C579 H593 0.961 . S
C579 H594 0.961 1_655 S
C579 H595 0.961 . S
C580 C581 1.370 . S
C580 C582 1.363 1_455 S
C580 H596 0.931 . S
C581 C580 1.370 . S
C581 C585 1.408 . S
C582 C580 1.363 1_655 S
C582 C583 1.370 . S
C582 C586 1.524 . S
C583 C575 1.503 . S
C583 C582 1.370 . S
C583 C584 1.403 . S
C584 C583 1.403 . S
C584 C585 1.404 1_655 S
C584 C587 1.539 . S
C585 C581 1.408 . S
C585 C584 1.404 1_455 S
C585 H597 0.930 . S
C586 C582 1.524 . S
C586 H598 0.956 . S
C586 H599 0.961 . S
C586 H600 0.961 1_655 S
C587 C584 1.539 . S
C587 H601 0.958 . S
C587 H602 0.961 . S
C587 H603 0.960 . S
H588 C572 0.931 . S
H589 C577 0.929 . S
H590 C578 0.960 . S
H591 C578 0.962 . S
H592 C578 0.960 . S
H593 C579 0.961 . S
H594 C579 0.961 1_455 S
H595 C579 0.961 . S
H596 C580 0.931 . S
H597 C585 0.930 . S
H598 C586 0.956 . S
H599 C586 0.961 . S
H600 C586 0.961 1_455 S
H601 C587 0.958 . S
H602 C587 0.961 . S
H603 C587 0.960 . S
C604 C605 1.391 1_565 S
C604 C606 1.394 . S
C604 H620 0.931 . S
C605 C604 1.391 1_545 S
C605 C609 1.376 . S
C606 C604 1.394 . S
C606 C607 1.369 . S
C606 C610 1.531 . S
C607 C606 1.369 . S
C607 C608 1.410 . S
C607 C615 1.503 . S
C608 C607 1.410 . S
C608 C609 1.392 1_565 S
C608 C611 1.515 1_565 S
C609 C605 1.376 . S
C609 C608 1.392 1_545 S
C609 H621 0.929 . S
C610 C606 1.531 . S
C610 H622 0.960 . S
C610 H623 0.962 . S
C610 H624 0.960 . S
C611 C608 1.515 1_545 S
C611 H625 0.967 . S
C611 H626 0.959 1_545 S
C611 H627 0.953 1_545 S
C612 C613 1.370 . S
C612 C614 1.363 . S
C612 H628 0.931 . S
C613 C612 1.370 . S
C613 C617 1.408 . S
C614 C612 1.363 . S
C614 C615 1.370 . S
C614 C618 1.524 . S
C615 C607 1.503 . S
C615 C614 1.370 . S
C615 C616 1.403 . S
C616 C615 1.403 . S
C616 C617 1.404 . S
C616 C619 1.539 . S
C617 C613 1.408 . S
C617 C616 1.404 . S
C617 H629 0.930 . S
C618 C614 1.524 . S
C618 H630 0.956 . S
C618 H631 0.961 1_565 S
C618 H632 0.961 . S
C619 C616 1.539 . S
C619 H633 0.958 . S
C619 H634 0.961 . S
C619 H635 0.960 . S
H620 C604 0.931 . S
H621 C609 0.929 . S
H622 C610 0.960 . S
H623 C610 0.962 . S
H624 C610 0.960 . S
H625 C611 0.967 . S
H626 C611 0.959 1_565 S
H627 C611 0.953 1_565 S
H628 C612 0.931 . S
H629 C617 0.930 . S
H630 C618 0.956 . S
H631 C618 0.961 1_545 S
H632 C618 0.961 . S
H633 C619 0.958 . S
H634 C619 0.961 . S
H635 C619 0.960 . S
C636 C637 1.391 . S
C636 C638 1.394 . S
C636 H652 0.931 . S
C637 C636 1.391 . S
C637 C641 1.376 . S
C638 C636 1.394 . S
C638 C639 1.369 . S
C638 C642 1.531 . S
C639 C638 1.369 . S
C639 C640 1.410 . S
C639 C647 1.503 . S
C640 C639 1.410 . S
C640 C641 1.392 . S
C640 C643 1.511 . S
C641 C637 1.376 . S
C641 C640 1.392 . S
C641 H653 0.929 . S
C642 C638 1.531 . S
C642 H654 0.960 . S
C642 H655 0.962 . S
C642 H656 0.960 . S
C643 C640 1.511 . S
C643 H657 0.961 . S
C643 H658 0.961 . S
C643 H659 0.961 . S
C644 C645 1.370 . S
C644 C646 1.363 . S
C644 H660 0.931 . S
C645 C644 1.370 . S
C645 C649 1.408 . S
C646 C644 1.363 . S
C646 C647 1.370 . S
C646 C650 1.524 . S
C647 C639 1.503 . S
C647 C646 1.370 . S
C647 C648 1.403 . S
C648 C647 1.403 . S
C648 C649 1.404 . S
C648 C651 1.539 . S
C649 C645 1.408 . S
C649 C648 1.404 . S
C649 H661 0.930 . S
C650 C646 1.524 . S
C650 H662 0.956 . S
C650 H663 0.961 . S
C650 H664 0.961 . S
C651 C648 1.539 . S
C651 H665 0.958 . S
C651 H666 0.961 . S
C651 H667 0.960 . S
H652 C636 0.931 . S
H653 C641 0.929 . S
H654 C642 0.960 . S
H655 C642 0.962 . S
H656 C642 0.960 . S
H657 C643 0.961 . S
H658 C643 0.961 . S
H659 C643 0.961 . S
H660 C644 0.931 . S
H661 C649 0.930 . S
H662 C650 0.956 . S
H663 C650 0.961 . S
H664 C650 0.961 . S
H665 C651 0.958 . S
H666 C651 0.961 . S
H667 C651 0.960 . S
C668 C669 1.391 . S
C668 C670 1.394 . S
C668 H684 0.931 . S
C669 C668 1.391 . S
C669 C673 1.376 . S
C670 C668 1.394 . S
C670 C671 1.369 . S
C670 C674 1.531 . S
C671 C670 1.369 . S
C671 C672 1.410 . S
C671 C679 1.503 . S
C672 C671 1.410 . S
C672 C673 1.392 . S
C672 C675 1.511 . S
C673 C669 1.376 . S
C673 C672 1.392 . S
C673 H685 0.929 . S
C674 C670 1.531 . S
C674 H686 0.960 . S
C674 H687 0.962 1_455 S
C674 H688 0.960 . S
C675 C672 1.511 . S
C675 H689 0.961 . S
C675 H690 0.961 . S
C675 H691 0.961 . S
C676 C677 1.370 . S
C676 C678 1.363 1_655 S
C676 H692 0.931 . S
C677 C676 1.370 . S
C677 C681 1.408 . S
C678 C676 1.363 1_455 S
C678 C679 1.370 . S
C678 C682 1.524 . S
C679 C671 1.503 . S
C679 C678 1.370 . S
C679 C680 1.403 . S
C680 C679 1.403 . S
C680 C681 1.404 1_455 S
C680 C683 1.539 . S
C681 C677 1.408 . S
C681 C680 1.404 1_655 S
C681 H693 0.930 . S
C682 C678 1.524 . S
C682 H694 0.956 1_455 S
C682 H695 0.961 . S
C682 H696 0.961 1_455 S
C683 C680 1.539 . S
C683 H697 0.958 . S
C683 H698 0.961 . S
C683 H699 0.960 . S
H684 C668 0.931 . S
H685 C673 0.929 . S
H686 C674 0.960 . S
H687 C674 0.962 1_655 S
H688 C674 0.960 . S
H689 C675 0.961 . S
H690 C675 0.961 . S
H691 C675 0.961 . S
H692 C676 0.931 . S
H693 C681 0.930 . S
H694 C682 0.956 1_655 S
H695 C682 0.961 . S
H696 C682 0.961 1_655 S
H697 C683 0.958 . S
H698 C683 0.961 . S
H699 C683 0.960 . S
C700 C701 1.391 . S
C700 C702 1.394 . S
C700 H716 0.931 . S
C701 C700 1.391 . S
C701 C705 1.376 . S
C702 C700 1.394 . S
C702 C703 1.369 . S
C702 C706 1.531 . S
C703 C702 1.369 . S
C703 C704 1.410 . S
C703 C711 1.503 . S
C704 C703 1.410 . S
C704 C705 1.392 . S
C704 C707 1.511 . S
C705 C701 1.376 . S
C705 C704 1.392 . S
C705 H717 0.929 . S
C706 C702 1.531 . S
C706 H718 0.960 . S
C706 H719 0.962 . S
C706 H720 0.960 . S
C707 C704 1.511 . S
C707 H721 0.961 . S
C707 H722 0.961 . S
C707 H723 0.961 . S
C708 C709 1.370 1_545 S
C708 C710 1.363 . S
C708 H724 0.931 . S
C709 C708 1.370 1_565 S
C709 C713 1.408 . S
C710 C708 1.363 . S
C710 C711 1.370 . S
C710 C714 1.524 . S
C711 C703 1.503 . S
C711 C710 1.370 . S
C711 C712 1.403 1_545 S
C712 C711 1.403 1_565 S
C712 C713 1.404 . S
C712 C715 1.539 . S
C713 C709 1.408 . S
C713 C712 1.404 . S
C713 H725 0.930 . S
C714 C710 1.524 . S
C714 H726 0.956 . S
C714 H727 0.961 . S
C714 H728 0.961 . S
C715 C712 1.539 . S
C715 H729 0.958 . S
C715 H730 0.961 . S
C715 H731 0.960 . S
H716 C700 0.931 . S
H717 C705 0.929 . S
H718 C706 0.960 . S
H719 C706 0.962 . S
H720 C706 0.960 . S
H721 C707 0.961 . S
H722 C707 0.961 . S
H723 C707 0.961 . S
H724 C708 0.931 . S
H725 C713 0.930 . S
H726 C714 0.956 . S
H727 C714 0.961 . S
H728 C714 0.961 . S
H729 C715 0.958 . S
H730 C715 0.961 . S
H731 C715 0.960 . S
C732 C733 1.391 . S
C732 C734 1.394 . S
C732 H748 0.931 . S
C733 C732 1.391 . S
C733 C737 1.376 . S
C734 C732 1.394 . S
C734 C735 1.369 . S
C734 C738 1.531 . S
C735 C734 1.369 . S
C735 C736 1.410 . S
C735 C743 1.503 . S
C736 C735 1.410 . S
C736 C737 1.392 . S
C736 C739 1.511 . S
C737 C733 1.376 . S
C737 C736 1.392 . S
C737 H749 0.929 . S
C738 C734 1.531 . S
C738 H750 0.960 . S
C738 H751 0.962 . S
C738 H752 0.960 . S
C739 C736 1.511 . S
C739 H753 0.961 . S
C739 H754 0.961 . S
C739 H755 0.961 . S
C740 C741 1.370 . S
C740 C742 1.363 . S
C740 H756 0.931 . S
C741 C740 1.370 . S
C741 C745 1.408 . S
C742 C740 1.363 . S
C742 C743 1.370 . S
C742 C746 1.524 . S
C743 C735 1.503 . S
C743 C742 1.370 . S
C743 C744 1.403 . S
C744 C743 1.403 . S
C744 C745 1.404 . S
C744 C747 1.539 . S
C745 C741 1.408 . S
C745 C744 1.404 . S
C745 H757 0.930 . S
C746 C742 1.524 . S
C746 H758 0.956 . S
C746 H759 0.961 . S
C746 H760 0.961 . S
C747 C744 1.539 . S
C747 H761 0.958 . S
C747 H762 0.961 . S
C747 H763 0.960 . S
H748 C732 0.931 . S
H749 C737 0.929 . S
H750 C738 0.960 . S
H751 C738 0.962 . S
H752 C738 0.960 . S
H753 C739 0.961 . S
H754 C739 0.961 . S
H755 C739 0.961 . S
H756 C740 0.931 . S
H757 C745 0.930 . S
H758 C746 0.956 . S
H759 C746 0.961 . S
H760 C746 0.961 . S
H761 C747 0.958 . S
H762 C747 0.961 . S
H763 C747 0.960 . S
C764 C765 1.391 . S
C764 C766 1.394 . S
C764 H780 0.931 . S
C765 C764 1.391 . S
C765 C769 1.376 . S
C766 C764 1.394 . S
C766 C767 1.369 . S
C766 C770 1.531 . S
C767 C766 1.369 . S
C767 C768 1.410 . S
C767 C775 1.503 . S
C768 C767 1.410 . S
C768 C769 1.392 . S
C768 C771 1.511 . S
C769 C765 1.376 . S
C769 C768 1.392 . S
C769 H781 0.929 . S
C770 C766 1.531 . S
C770 H782 0.960 1_655 S
C770 H783 0.962 1_655 S
C770 H784 0.960 1_655 S
C771 C768 1.511 . S
C771 H785 0.961 . S
C771 H786 0.961 . S
C771 H787 0.961 . S
C772 C773 1.370 1_556 S
C772 C774 1.363 1_455 S
C772 H788 0.945 . S
C773 C772 1.370 1_554 S
C773 C777 1.419 . S
C774 C772 1.363 1_655 S
C774 C775 1.370 . S
C774 C778 1.524 . S
C775 C767 1.503 . S
C775 C774 1.370 . S
C775 C776 1.403 . S
C776 C775 1.403 . S
C776 C777 1.373 1_656 S
C776 C779 1.539 . S
C777 C773 1.419 . S
C777 C776 1.373 1_454 S
C777 H789 0.951 . S
C778 C774 1.524 . S
C778 H790 0.956 . S
C778 H791 0.961 . S
C778 H792 0.961 . S
C779 C776 1.539 . S
C779 H793 0.967 . S
C779 H794 0.961 . S
C779 H795 0.960 . S
H780 C764 0.931 . S
H781 C769 0.929 . S
H782 C770 0.960 1_455 S
H783 C770 0.962 1_455 S
H784 C770 0.960 1_455 S
H785 C771 0.961 . S
H786 C771 0.961 . S
H787 C771 0.961 . S
H788 C772 0.945 . S
H789 C777 0.951 . S
H790 C778 0.956 . S
H791 C778 0.961 . S
H792 C778 0.961 . S
H793 C779 0.967 . S
H794 C779 0.961 . S
H795 C779 0.960 . S
C796 C797 1.391 . S
C796 C798 1.394 . S
C796 H812 0.931 . S
C797 C796 1.391 . S
C797 C801 1.376 . S
C798 C796 1.394 . S
C798 C799 1.369 . S
C798 C802 1.531 . S
C799 C798 1.369 . S
C799 C800 1.410 . S
C799 C807 1.503 . S
C800 C799 1.410 . S
C800 C801 1.392 . S
C800 C803 1.511 . S
C801 C797 1.376 . S
C801 C800 1.392 . S
C801 H813 0.929 . S
C802 C798 1.531 . S
C802 H814 0.960 . S
C802 H815 0.962 . S
C802 H816 0.960 . S
C803 C800 1.511 . S
C803 H817 0.961 . S
C803 H818 0.961 . S
C803 H819 0.961 . S
C804 C805 1.370 . S
C804 C806 1.363 . S
C804 H820 0.931 . S
C805 C804 1.370 . S
C805 C809 1.408 1_545 S
C806 C804 1.363 . S
C806 C807 1.370 1_545 S
C806 C810 1.524 . S
C807 C799 1.503 . S
C807 C806 1.370 1_565 S
C807 C808 1.403 . S
C808 C807 1.403 . S
C808 C809 1.404 . S
C808 C811 1.539 . S
C809 C805 1.408 1_565 S
C809 C808 1.404 . S
C809 H821 0.930 . S
C810 C806 1.524 . S
C810 H822 0.956 . S
C810 H823 0.961 . S
C810 H824 0.961 . S
C811 C808 1.539 . S
C811 H825 0.958 . S
C811 H826 0.961 . S
C811 H827 0.960 . S
H812 C796 0.931 . S
H813 C801 0.929 . S
H814 C802 0.960 . S
H815 C802 0.962 . S
H816 C802 0.960 . S
H817 C803 0.961 . S
H818 C803 0.961 . S
H819 C803 0.961 . S
H820 C804 0.931 . S
H821 C809 0.930 . S
H822 C810 0.956 . S
H823 C810 0.961 . S
H824 C810 0.961 . S
H825 C811 0.958 . S
H826 C811 0.961 . S
H827 C811 0.960 . S
C828 C829 1.391 . S
C828 C830 1.394 . S
C828 H844 0.931 . S
C829 C828 1.391 . S
C829 C833 1.376 . S
C830 C828 1.394 . S
C830 C831 1.369 . S
C830 C834 1.531 . S
C831 C830 1.369 . S
C831 C832 1.410 . S
C831 C839 1.503 . S
C832 C831 1.410 . S
C832 C833 1.392 . S
C832 C835 1.511 . S
C833 C829 1.376 . S
C833 C832 1.392 . S
C833 H845 0.929 . S
C834 C830 1.531 . S
C834 H846 0.960 . S
C834 H847 0.962 . S
C834 H848 0.960 . S
C835 C832 1.511 . S
C835 H849 0.961 . S
C835 H850 0.961 . S
C835 H851 0.961 . S
C836 C837 1.370 . S
C836 C838 1.363 . S
C836 H852 0.931 . S
C837 C836 1.370 . S
C837 C841 1.408 . S
C838 C836 1.363 . S
C838 C839 1.370 . S
C838 C842 1.524 . S
C839 C831 1.503 . S
C839 C838 1.370 . S
C839 C840 1.403 . S
C840 C839 1.403 . S
C840 C841 1.404 . S
C840 C843 1.539 . S
C841 C837 1.408 . S
C841 C840 1.404 . S
C841 H853 0.930 . S
C842 C838 1.524 . S
C842 H854 0.956 . S
C842 H855 0.961 . S
C842 H856 0.961 . S
C843 C840 1.539 . S
C843 H857 0.958 . S
C843 H858 0.961 . S
C843 H859 0.960 . S
H844 C828 0.931 . S
H845 C833 0.929 . S
H846 C834 0.960 . S
H847 C834 0.962 . S
H848 C834 0.960 . S
H849 C835 0.961 . S
H850 C835 0.961 . S
H851 C835 0.961 . S
H852 C836 0.931 . S
H853 C841 0.930 . S
H854 C842 0.956 . S
H855 C842 0.961 . S
H856 C842 0.961 . S
H857 C843 0.958 . S
H858 C843 0.961 . S
H859 C843 0.960 . S
C860 C861 1.391 . S
C860 C862 1.394 . S
C860 H876 0.931 . S
C861 C860 1.391 . S
C861 C865 1.376 . S
C862 C860 1.394 . S
C862 C863 1.369 . S
C862 C866 1.531 . S
C863 C862 1.369 . S
C863 C864 1.410 . S
C863 C871 1.503 . S
C864 C863 1.410 . S
C864 C865 1.392 . S
C864 C867 1.511 . S
C865 C861 1.376 . S
C865 C864 1.392 . S
C865 H877 0.929 . S
C866 C862 1.531 . S
C866 H878 0.960 1_455 S
C866 H879 0.962 . S
C866 H880 0.960 . S
C867 C864 1.511 . S
C867 H881 0.961 . S
C867 H882 0.961 . S
C867 H883 0.961 . S
C868 C869 1.370 1_455 S
C868 C870 1.363 . S
C868 H884 0.931 . S
C869 C868 1.370 1_655 S
C869 C873 1.408 . S
C870 C868 1.363 . S
C870 C871 1.370 . S
C870 C874 1.524 . S
C871 C863 1.503 . S
C871 C870 1.370 . S
C871 C872 1.403 1_455 S
C872 C871 1.403 1_655 S
C872 C873 1.404 . S
C872 C875 1.539 . S
C873 C869 1.408 . S
C873 C872 1.404 . S
C873 H885 0.930 . S
C874 C870 1.524 . S
C874 H886 0.956 . S
C874 H887 0.961 . S
C874 H888 0.961 . S
C875 C872 1.539 . S
C875 H889 0.958 . S
C875 H890 0.961 . S
C875 H891 0.960 1_655 S
H876 C860 0.931 . S
H877 C865 0.929 . S
H878 C866 0.960 1_655 S
H879 C866 0.962 . S
H880 C866 0.960 . S
H881 C867 0.961 . S
H882 C867 0.961 . S
H883 C867 0.961 . S
H884 C868 0.931 . S
H885 C873 0.930 . S
H886 C874 0.956 . S
H887 C874 0.961 . S
H888 C874 0.961 . S
H889 C875 0.958 . S
H890 C875 0.961 . S
H891 C875 0.960 1_455 S
C892 C893 1.391 . S
C892 C894 1.394 . S
C892 H908 0.931 . S
C893 C892 1.391 . S
C893 C897 1.376 1_565 S
C894 C892 1.394 . S
C894 C895 1.369 1_565 S
C894 C898 1.531 . S
C895 C894 1.369 1_545 S
C895 C896 1.410 . S
C895 C903 1.503 . S
C896 C895 1.410 . S
C896 C897 1.392 . S
C896 C899 1.511 . S
C897 C893 1.376 1_545 S
C897 C896 1.392 . S
C897 H909 0.929 . S
C898 C894 1.531 . S
C898 H910 0.960 . S
C898 H911 0.962 . S
C898 H912 0.960 . S
C899 C896 1.511 . S
C899 H913 0.961 . S
C899 H914 0.961 . S
C899 H915 0.961 . S
C900 C901 1.370 . S
C900 C902 1.363 . S
C900 H916 0.931 . S
C901 C900 1.370 . S
C901 C905 1.408 . S
C902 C900 1.363 . S
C902 C903 1.370 . S
C902 C906 1.524 . S
C903 C895 1.503 . S
C903 C902 1.370 . S
C903 C904 1.403 . S
C904 C903 1.403 . S
C904 C905 1.404 . S
C904 C907 1.539 . S
C905 C901 1.408 . S
C905 C904 1.404 . S
C905 H917 0.930 . S
C906 C902 1.524 . S
C906 H918 0.956 . S
C906 H919 0.961 . S
C906 H920 0.961 . S
C907 C904 1.539 . S
C907 H921 0.958 . S
C907 H922 0.961 . S
C907 H923 0.960 . S
H908 C892 0.931 . S
H909 C897 0.929 . S
H910 C898 0.960 . S
H911 C898 0.962 . S
H912 C898 0.960 . S
H913 C899 0.961 . S
H914 C899 0.961 . S
H915 C899 0.961 . S
H916 C900 0.931 . S
H917 C905 0.930 . S
H918 C906 0.956 . S
H919 C906 0.961 . S
H920 C906 0.961 . S
H921 C907 0.958 . S
H922 C907 0.961 . S
H923 C907 0.960 . S
C157 C107 1.652 . S
C165 C5 1.597 . S
C189 C16 1.656 . S
C197 C120 1.656 . S
C221 C29 1.650 . S
C229 C135 1.571 . S
C253 C44 1.602 . S
C261 C146 1.652 . S
C285 C81 1.645 . S
C293 C55 1.656 . S
C317 C68 1.648 . S
C325 C96 1.570 . S
C349 C118 1.427 . S
C357 C10 1.401 . S
C381 C14 1.424 . S
C389 C140 1.415 . S
C413 C144 1.448 . S
C421 C27 1.434 . S
C445 C49 1.369 . S
C453 C79 1.444 . S
C477 C101 1.385 . S
C485 C53 1.437 . S
C509 C105 1.443 . S
C517 C66 1.435 . S
C541 C3 1.876 . S
C549 C75 1.824 . S
C573 C18 1.868 . S
C581 C1 1.884 . S
C605 C23 1.799 . S
C613 C31 1.846 . S
C637 C42 1.882 . S
C645 C36 1.818 . S
C669 C57 1.832 . S
C677 C40 1.874 . S
C701 C70 1.831 . S
C709 C62 1.826 . S
C733 C83 1.867 . S
C741 C92 1.884 . S
C765 C94 1.883 . S
C773 C114 1.818 . S
C797 C109 1.857 . S
C805 C127 1.828 . S
C829 C122 1.864 . S
C837 C131 1.883 . S
C861 C133 1.877 . S
C869 C153 1.822 . S
C893 C88 1.849 . S
C901 C148 1.857 . S
