# Generated by pormake.
# Topology wjo, (5)-cn, num edge types: 1
# Building blocks:
#     Node 0, Type 0, BuildingBlock: BEQFEK_clean_sbu_0, # of connection points: 5
#     Node 1, Type 0, BuildingBlock: BEQFEK_clean_sbu_0, # of connection points: 5
#     Node 2, Type 0, BuildingBlock: BEQFEK_clean_sbu_0, # of connection points: 5
#     Node 3, Type 0, BuildingBlock: BEQFEK_clean_sbu_0, # of connection points: 5
#     Node 4, Type 0, BuildingBlock: BEQFEK_clean_sbu_0, # of connection points: 5
#     Node 5, Type 0, BuildingBlock: BEQFEK_clean_sbu_0, # of connection points: 5
#     Node 6, Type 0, BuildingBlock: BEQFEK_clean_sbu_0, # of connection points: 5
#     Node 7, Type 0, BuildingBlock: BEQFEK_clean_sbu_0, # of connection points: 5
#     Node 8, Type 0, BuildingBlock: BEQFEK_clean_sbu_0, # of connection points: 5
#     Node 9, Type 0, BuildingBlock: BEQFEK_clean_sbu_0, # of connection points: 5
#     Node 10, Type 0, BuildingBlock: BEQFEK_clean_sbu_0, # of connection points: 5
#     Node 11, Type 0, BuildingBlock: BEQFEK_clean_sbu_0, # of connection points: 5
#     Edge 12, Type (0, 0), BuildingBlock: MIFKUJ_clean_linker_0, # of connection points: 2
#     Edge 13, Type (0, 0), BuildingBlock: MIFKUJ_clean_linker_0, # of connection points: 2
#     Edge 14, Type (0, 0), BuildingBlock: MIFKUJ_clean_linker_0, # of connection points: 2
#     Edge 15, Type (0, 0), BuildingBlock: MIFKUJ_clean_linker_0, # of connection points: 2
#     Edge 16, Type (0, 0), BuildingBlock: MIFKUJ_clean_linker_0, # of connection points: 2
#     Edge 17, Type (0, 0), BuildingBlock: MIFKUJ_clean_linker_0, # of connection points: 2
#     Edge 18, Type (0, 0), BuildingBlock: MIFKUJ_clean_linker_0, # of connection points: 2
#     Edge 19, Type (0, 0), BuildingBlock: MIFKUJ_clean_linker_0, # of connection points: 2
#     Edge 20, Type (0, 0), BuildingBlock: MIFKUJ_clean_linker_0, # of connection points: 2
#     Edge 21, Type (0, 0), BuildingBlock: MIFKUJ_clean_linker_0, # of connection points: 2
#     Edge 22, Type (0, 0), BuildingBlock: MIFKUJ_clean_linker_0, # of connection points: 2
#     Edge 23, Type (0, 0), BuildingBlock: MIFKUJ_clean_linker_0, # of connection points: 2
#     Edge 24, Type (0, 0), BuildingBlock: MIFKUJ_clean_linker_0, # of connection points: 2
#     Edge 25, Type (0, 0), BuildingBlock: MIFKUJ_clean_linker_0, # of connection points: 2
#     Edge 26, Type (0, 0), BuildingBlock: MIFKUJ_clean_linker_0, # of connection points: 2
#     Edge 27, Type (0, 0), BuildingBlock: MIFKUJ_clean_linker_0, # of connection points: 2
#     Edge 28, Type (0, 0), BuildingBlock: MIFKUJ_clean_linker_0, # of connection points: 2
#     Edge 29, Type (0, 0), BuildingBlock: MIFKUJ_clean_linker_0, # of connection points: 2
#     Edge 30, Type (0, 0), BuildingBlock: MIFKUJ_clean_linker_0, # of connection points: 2
#     Edge 31, Type (0, 0), BuildingBlock: MIFKUJ_clean_linker_0, # of connection points: 2
#     Edge 32, Type (0, 0), BuildingBlock: MIFKUJ_clean_linker_0, # of connection points: 2
#     Edge 33, Type (0, 0), BuildingBlock: MIFKUJ_clean_linker_0, # of connection points: 2
#     Edge 34, Type (0, 0), BuildingBlock: MIFKUJ_clean_linker_0, # of connection points: 2
#     Edge 35, Type (0, 0), BuildingBlock: MIFKUJ_clean_linker_0, # of connection points: 2
#     Edge 36, Type (0, 0), BuildingBlock: MIFKUJ_clean_linker_0, # of connection points: 2
#     Edge 37, Type (0, 0), BuildingBlock: MIFKUJ_clean_linker_0, # of connection points: 2
#     Edge 38, Type (0, 0), BuildingBlock: MIFKUJ_clean_linker_0, # of connection points: 2
#     Edge 39, Type (0, 0), BuildingBlock: MIFKUJ_clean_linker_0, # of connection points: 2
#     Edge 40, Type (0, 0), BuildingBlock: MIFKUJ_clean_linker_0, # of connection points: 2
#     Edge 41, Type (0, 0), BuildingBlock: MIFKUJ_clean_linker_0, # of connection points: 2
# Relax obj value: 0.761
# Max RMSD: 0.254
# Mean RMSD: 0.244
data_MOF--net-wjo--node1-BEQFEK_clean_sbu_0--edge1-MIFKUJ_clean_linker_0
_symmetry_space_group_name_H-M    P1
_symmetry_Int_Tables_number       1
_symmetry_cell_setting            triclinic
loop_
_symmetry_equiv_pos_as_xyz
'x, y, z'
_cell_length_a     58.342394
_cell_length_b     58.074094
_cell_length_c     33.589245
_cell_angle_alpha  90.160103
_cell_angle_beta   89.940212
_cell_angle_gamma 120.14671
loop_
_atom_site_label
_atom_site_type_symbol
_atom_site_fract_x
_atom_site_fract_y
_atom_site_fract_z
_atom_type_partial_charge
Co0 Co 0.29441 0.37735 0.90276 0.0
Co1 Co 0.28612 0.41217 0.96731 0.0
C2 C 0.29857 0.36948 0.98945 0.0
O3 O 0.30007 0.36346 0.95346 0.0
O4 O 0.29333 0.38766 0.99827 0.0
C5 C 0.31556 0.35522 0.84811 0.0
O6 O 0.33789 0.37538 0.86115 0.0
C7 C 0.27131 0.42711 0.04236 0.0
C8 C 0.27531 0.46605 0.02805 0.0
C9 C 0.26978 0.44818 0.05881 0.0
N10 N 0.27783 0.43234 0.00374 0.0
N11 N 0.28014 0.45565 0.99533 0.0
C12 C 0.26556 0.40187 0.0626 0.0
H13 H 0.25563 0.38491 0.04153 0.0
H14 H 0.25267 0.39792 0.089 0.0
H15 H 0.28452 0.40361 0.07244 0.0
C16 C 0.23728 0.36074 0.88815 0.0
N17 N 0.26112 0.37686 0.90512 0.0
N18 N 0.25839 0.39231 0.93119 0.0
C19 C 0.23314 0.38699 0.93104 0.0
C20 C 0.21883 0.36684 0.90376 0.0
C21 C 0.23186 0.33837 0.86046 0.0
H22 H 0.23578 0.32389 0.87613 0.0
H23 H 0.21106 0.32812 0.84965 0.0
H24 H 0.24563 0.34624 0.83476 0.0
O25 O 0.32595 0.41423 0.89445 0.0
O26 O 0.31841 0.43774 0.93946 0.0
H27 H 0.23312 0.42035 0.95805 0.0
H28 H 0.20075 0.39084 0.95572 0.0
C29 C 0.22217 0.39835 0.96051 0.0
H30 H 0.22505 0.39306 0.99105 0.0
H31 H 0.28546 0.46467 0.96741 0.0
O32 O 0.29376 0.35253 0.86069 0.0
C33 C 0.33251 0.43627 0.91184 0.0
Co34 Co 0.91659 0.28336 0.06701 0.0
Co35 Co 0.86998 0.27569 0.12325 0.0
C36 C 0.92428 0.29089 0.15467 0.0
O37 O 0.93324 0.29005 0.12046 0.0
O38 O 0.90057 0.28594 0.1591 0.0
C39 C 0.95786 0.27456 0.03857 0.0
O40 O 0.9536 0.26235 0.07297 0.0
C41 C 0.83617 0.25754 0.19367 0.0
C42 C 0.80408 0.26562 0.17843 0.0
C43 C 0.81375 0.25679 0.20881 0.0
N44 N 0.83993 0.26671 0.15619 0.0
N45 N 0.82054 0.27132 0.14709 0.0
C46 C 0.85324 0.24877 0.21416 0.0
H47 H 0.86322 0.24254 0.19205 0.0
H48 H 0.84119 0.23204 0.23475 0.0
H49 H 0.86849 0.26553 0.23197 0.0
C50 C 0.87634 0.22556 0.05015 0.0
N51 N 0.88384 0.24961 0.0667 0.0
N52 N 0.86438 0.24724 0.0895 0.0
C53 C 0.84387 0.22213 0.08736 0.0
C54 C 0.85071 0.20742 0.0626 0.0
C55 C 0.89381 0.2196 0.02483 0.0
H56 H 0.90499 0.2361 0.00355 0.0
H57 H 0.90826 0.21786 0.04416 0.0
H58 H 0.88202 0.20062 0.00829 0.0
O59 O 0.91154 0.31466 0.05488 0.0
O60 O 0.87705 0.30703 0.09245 0.0
H61 H 0.8108 0.22505 0.10848 0.0
H62 H 0.80404 0.19137 0.1029 0.0
C63 C 0.81921 0.21179 0.11186 0.0
H64 H 0.82417 0.21157 0.14366 0.0
H65 H 0.81895 0.27903 0.11989 0.0
O66 O 0.94334 0.28422 0.02865 0.0
C67 C 0.89481 0.32115 0.0672 0.0
Co68 Co 0.62529 0.90979 0.23726 0.0
Co69 Co 0.58731 0.86172 0.29238 0.0
C70 C 0.62805 0.91481 0.32601 0.0
O71 O 0.63672 0.92488 0.2918 0.0
O72 O 0.60918 0.89092 0.32973 0.0
C73 C 0.67522 0.95151 0.20756 0.0
O74 O 0.68387 0.94749 0.24146 0.0
C75 C 0.57062 0.82457 0.35946 0.0
C76 C 0.52918 0.79549 0.3438 0.0
C77 C 0.54803 0.80247 0.37335 0.0
N78 N 0.56563 0.83049 0.32302 0.0
N79 N 0.54089 0.81275 0.31356 0.0
C80 C 0.5959 0.84067 0.38201 0.0
H81 H 0.61254 0.85287 0.36152 0.0
H82 H 0.60052 0.82735 0.39962 0.0
H83 H 0.59336 0.85384 0.4033 0.0
C84 C 0.64205 0.86999 0.21502 0.0
N85 N 0.62549 0.87671 0.2331 0.0
N86 N 0.609 0.85666 0.2557 0.0
C87 C 0.61418 0.83661 0.25225 0.0
C88 C 0.63543 0.84435 0.22649 0.0
C89 C 0.66525 0.88849 0.19002 0.0
H90 H 0.65953 0.89974 0.16963 0.0
H91 H 0.68141 0.90288 0.20968 0.0
H92 H 0.6727 0.87739 0.17243 0.0
O93 O 0.58911 0.90553 0.22759 0.0
O94 O 0.56322 0.8707 0.26534 0.0
H95 H 0.57983 0.80269 0.27614 0.0
H96 H 0.60763 0.79763 0.26943 0.0
C97 C 0.6017 0.81232 0.27804 0.0
H98 H 0.6077 0.8183 0.30938 0.0
H99 H 0.53161 0.8132 0.28728 0.0
O100 O 0.65075 0.93709 0.19893 0.0
C101 C 0.56625 0.88883 0.24122 0.0
Co102 Co 0.71919 0.62964 0.40583 0.0
Co103 Co 0.73018 0.59091 0.45719 0.0
C104 C 0.71917 0.63196 0.49419 0.0
O105 O 0.71728 0.64121 0.4608 0.0
O106 O 0.72361 0.61267 0.49613 0.0
C107 C 0.72626 0.67936 0.37749 0.0
O108 O 0.73953 0.6881 0.41098 0.0
C109 C 0.75546 0.57633 0.51997 0.0
C110 C 0.74015 0.53372 0.50734 0.0
C111 C 0.75543 0.55387 0.53411 0.0
N112 N 0.74098 0.56975 0.48638 0.0
N113 N 0.73222 0.54434 0.47866 0.0
C114 C 0.7668 0.60291 0.54005 0.0
H115 H 0.75701 0.6006 0.56931 0.0
H116 H 0.76457 0.61728 0.52132 0.0
H117 H 0.78823 0.61135 0.54536 0.0
C118 C 0.77556 0.64756 0.38166 0.0
N119 N 0.75232 0.63011 0.39913 0.0
N120 N 0.75594 0.6128 0.41939 0.0
C121 C 0.78102 0.61807 0.41428 0.0
C122 C 0.7945 0.64051 0.39072 0.0
C123 C 0.78054 0.67223 0.36045 0.0
H124 H 0.76384 0.6676 0.34005 0.0
H125 H 0.78206 0.68713 0.38261 0.0
H126 H 0.79931 0.68092 0.34324 0.0
O127 O 0.68672 0.59323 0.3979 0.0
O128 O 0.69651 0.56652 0.43175 0.0
H129 H 0.77946 0.5827 0.43637 0.0
H130 H 0.81232 0.60884 0.4237 0.0
C131 C 0.79309 0.60453 0.43667 0.0
H132 H 0.79658 0.61171 0.46785 0.0
H133 H 0.71989 0.53398 0.45475 0.0
O134 O 0.7162 0.65486 0.36848 0.0
C135 C 0.68074 0.57004 0.40999 0.0
Co136 Co 0.09319 0.72453 0.56141 0.0
Co137 Co 0.13712 0.73512 0.62558 0.0
C138 C 0.08328 0.72411 0.64929 0.0
O139 O 0.07489 0.72031 0.61357 0.0
O140 O 0.10699 0.73054 0.65741 0.0
C141 C 0.05549 0.73606 0.52883 0.0
O142 O 0.06191 0.75041 0.56158 0.0
C143 C 0.16321 0.73997 0.70154 0.0
C144 C 0.20571 0.75974 0.68642 0.0
C145 C 0.18824 0.75064 0.71828 0.0
N146 N 0.16576 0.74374 0.66195 0.0
N147 N 0.19121 0.75488 0.65294 0.0
C148 C 0.1372 0.72316 0.72204 0.0
H149 H 0.12323 0.70699 0.70194 0.0
H150 H 0.12853 0.73568 0.73034 0.0
H151 H 0.13978 0.71401 0.74933 0.0
C152 C 0.13504 0.78048 0.53918 0.0
N153 N 0.12673 0.75773 0.56006 0.0
N154 N 0.1446 0.7621 0.58761 0.0
C155 C 0.16414 0.78774 0.58591 0.0
C156 C 0.15911 0.80009 0.55467 0.0
C157 C 0.11957 0.78401 0.50672 0.0
H158 H 0.10879 0.76546 0.48895 0.0
H159 H 0.10495 0.78862 0.52012 0.0
H160 H 0.13286 0.80079 0.48699 0.0
O161 O 0.09745 0.69249 0.55473 0.0
O162 O 0.12855 0.70118 0.59998 0.0
H163 H 0.20257 0.80124 0.61075 0.0
H164 H 0.18964 0.82285 0.62086 0.0
C165 C 0.18427 0.80167 0.61813 0.0
H166 H 0.17645 0.7919 0.6472 0.0
H167 H 0.19869 0.75933 0.62405 0.0
O168 O 0.06761 0.72352 0.52062 0.0
C169 C 0.11264 0.6862 0.57315 0.0
Co170 Co 0.37645 0.08923 0.74417 0.0
Co171 Co 0.40805 0.13046 0.81283 0.0
C172 C 0.36325 0.07582 0.83094 0.0
O173 O 0.35937 0.06946 0.79422 0.0
O174 O 0.38132 0.09886 0.84201 0.0
C175 C 0.32871 0.05428 0.70306 0.0
O176 O 0.31856 0.06045 0.7334 0.0
C177 C 0.42744 0.15899 0.88913 0.0
C178 C 0.45541 0.20006 0.8698 0.0
C179 C 0.44399 0.18461 0.90331 0.0
N180 N 0.42815 0.15943 0.84912 0.0
N181 N 0.44538 0.18397 0.8378 0.0
C182 C 0.41337 0.13402 0.9131 0.0
H183 H 0.41376 0.11745 0.8973 0.0
H184 H 0.39252 0.129 0.91733 0.0
H185 H 0.42278 0.13646 0.94267 0.0
C186 C 0.36587 0.13357 0.72232 0.0
N187 N 0.37792 0.12323 0.74442 0.0
N188 N 0.39036 0.13964 0.77425 0.0
C189 C 0.38596 0.16027 0.77273 0.0
C190 C 0.37083 0.15748 0.73942 0.0
C191 C 0.34926 0.12058 0.68633 0.0
H192 H 0.35697 0.10928 0.66994 0.0
H193 H 0.32863 0.10656 0.69583 0.0
H194 H 0.34897 0.13566 0.66643 0.0
O195 O 0.41255 0.09291 0.74022 0.0
O196 O 0.43387 0.12263 0.78796 0.0
H197 H 0.41225 0.19742 0.80094 0.0
H198 H 0.37788 0.18716 0.80661 0.0
C199 C 0.39225 0.17996 0.8058 0.0
H200 H 0.39165 0.17079 0.83493 0.0
H201 H 0.45013 0.18979 0.80817 0.0
O202 O 0.3538 0.06536 0.70019 0.0
C203 C 0.43353 0.10747 0.76032 0.0
Co204 Co 0.63627 0.72066 0.93205 0.0
Co205 Co 0.60178 0.73053 0.86948 0.0
C206 C 0.64394 0.71833 0.84411 0.0
O207 O 0.65003 0.71651 0.8799 0.0
O208 O 0.62576 0.72364 0.83616 0.0
C209 C 0.68472 0.72994 0.96854 0.0
O210 O 0.69532 0.74569 0.93773 0.0
C211 C 0.58547 0.7468 0.79705 0.0
C212 C 0.54744 0.74324 0.81511 0.0
C213 C 0.56428 0.74886 0.78295 0.0
N214 N 0.58128 0.73987 0.83564 0.0
N215 N 0.55854 0.73792 0.84633 0.0
C216 C 0.60978 0.75223 0.77453 0.0
H217 H 0.62729 0.76133 0.79452 0.0
H218 H 0.61336 0.76579 0.7491 0.0
H219 H 0.60702 0.73311 0.76288 0.0
C220 C 0.65167 0.77753 0.95263 0.0
N221 N 0.63662 0.75416 0.9333 0.0
N222 N 0.62179 0.75759 0.90708 0.0
C223 C 0.62682 0.78285 0.90892 0.0
C224 C 0.64587 0.79644 0.93792 0.0
C225 C 0.67241 0.78229 0.98282 0.0
H226 H 0.66583 0.76428 0.00137 0.0
H227 H 0.69095 0.78673 0.96724 0.0
H228 H 0.67666 0.79954 0.00211 0.0
O229 O 0.5997 0.68883 0.93897 0.0
O230 O 0.5761 0.69734 0.89587 0.0
H231 H 0.59466 0.78522 0.88289 0.0
H232 H 0.62549 0.81644 0.88269 0.0
C233 C 0.61643 0.79461 0.8793 0.0
H234 H 0.62052 0.79032 0.84879 0.0
H235 H 0.55033 0.73241 0.87472 0.0
O236 O 0.6597 0.71815 0.97328 0.0
C237 C 0.5777 0.68254 0.92219 0.0
Co238 Co 0.91721 0.62553 0.08856 0.0
Co239 Co 0.8705 0.58745 0.03194 0.0
C240 C 0.92408 0.62855 0.0006 0.0
O241 O 0.93336 0.63778 0.03499 0.0
O242 O 0.90061 0.60915 0.99623 0.0
C243 C 0.95766 0.67524 0.12038 0.0
O244 O 0.95312 0.68425 0.08724 0.0
C245 C 0.83512 0.5739 0.96364 0.0
C246 C 0.80759 0.53088 0.97248 0.0
C247 C 0.81419 0.55162 0.94618 0.0
N248 N 0.84054 0.56671 0.9988 0.0
N249 N 0.82376 0.54105 0.00421 0.0
C250 C 0.85188 0.60075 0.94517 0.0
H251 H 0.86484 0.59946 0.92214 0.0
H252 H 0.86428 0.61565 0.96799 0.0
H253 H 0.83939 0.60761 0.93049 0.0
C254 C 0.87679 0.64188 0.10916 0.0
N255 N 0.88422 0.6258 0.0911 0.0
N256 N 0.86472 0.60915 0.06776 0.0
C257 C 0.84427 0.61362 0.07088 0.0
C258 C 0.85122 0.63468 0.09699 0.0
C259 C 0.89427 0.66471 0.13577 0.0
H260 H 0.90568 0.65898 0.15577 0.0
H261 H 0.90845 0.68175 0.11727 0.0
H262 H 0.88244 0.67106 0.1538 0.0
O263 O 0.91283 0.58902 0.09759 0.0
O264 O 0.87789 0.56269 0.06025 0.0
H265 H 0.81176 0.57829 0.04596 0.0
H266 H 0.80432 0.60439 0.05494 0.0
C267 C 0.81995 0.60012 0.04533 0.0
H268 H 0.82541 0.60709 0.01427 0.0
H269 H 0.82422 0.53022 0.02862 0.0
O270 O 0.94381 0.6505 0.12808 0.0
C271 C 0.89594 0.56593 0.08453 0.0
Co272 Co 0.28417 0.91114 0.26016 0.0
Co273 Co 0.27365 0.86093 0.20903 0.0
C274 C 0.2812 0.91129 0.17133 0.0
O275 O 0.28446 0.92309 0.20462 0.0
O276 O 0.27713 0.88765 0.1694 0.0
C277 C 0.27577 0.95352 0.2853 0.0
O278 O 0.26277 0.94752 0.25143 0.0
C279 C 0.24927 0.81954 0.14741 0.0
C280 C 0.2695 0.79652 0.15716 0.0
C281 C 0.25215 0.79897 0.13177 0.0
N282 N 0.26425 0.82881 0.18043 0.0
N283 N 0.27588 0.81459 0.18651 0.0
C284 C 0.23509 0.83227 0.12867 0.0
H285 H 0.23589 0.84813 0.14796 0.0
H286 H 0.21395 0.81727 0.12397 0.0
H287 H 0.24397 0.84048 0.09916 0.0
C288 C 0.22924 0.8709 0.28799 0.0
N289 N 0.25206 0.87744 0.26869 0.0
N290 N 0.24857 0.85645 0.24844 0.0
C291 C 0.22401 0.8359 0.25518 0.0
C292 C 0.21063 0.84437 0.28 0.0
C293 C 0.22433 0.89032 0.31027 0.0
H294 H 0.2416 0.903 0.32951 0.0
H295 H 0.22184 0.90334 0.28872 0.0
H296 H 0.20618 0.87989 0.32882 0.0
O297 O 0.31759 0.90914 0.26751 0.0
O298 O 0.30832 0.87275 0.23302 0.0
H299 H 0.22691 0.80322 0.23107 0.0
H300 H 0.19425 0.79417 0.24781 0.0
C301 C 0.21226 0.80997 0.23309 0.0
H302 H 0.2068 0.81277 0.20264 0.0
H303 H 0.28936 0.81823 0.2094 0.0
O304 O 0.28619 0.93984 0.29631 0.0
C305 C 0.32393 0.89234 0.25476 0.0
Co306 Co 0.3768 0.28903 0.42982 0.0
Co307 Co 0.41868 0.28045 0.38247 0.0
C308 C 0.37954 0.29167 0.3411 0.0
O309 O 0.36907 0.29284 0.37373 0.0
O310 O 0.3988 0.28723 0.34055 0.0
C311 C 0.3259 0.28254 0.44865 0.0
O312 O 0.32062 0.27249 0.41251 0.0
C313 C 0.4377 0.25794 0.32189 0.0
C314 C 0.47949 0.27372 0.33935 0.0
C315 C 0.46097 0.25884 0.31045 0.0
N316 N 0.44215 0.27143 0.35622 0.0
N317 N 0.46708 0.28055 0.36681 0.0
C318 C 0.41268 0.24751 0.29817 0.0
H319 H 0.41561 0.26222 0.27488 0.0
H320 H 0.39592 0.24424 0.31755 0.0
H321 H 0.4076 0.22857 0.28314 0.0
C322 C 0.35775 0.23165 0.44877 0.0
N323 N 0.37638 0.25578 0.43514 0.0
N324 N 0.39501 0.25312 0.41716 0.0
C325 C 0.38945 0.22772 0.4204 0.0
C326 C 0.36544 0.21306 0.43991 0.0
C327 C 0.33154 0.22574 0.46519 0.0
H328 H 0.33448 0.24092 0.48783 0.0
H329 H 0.31927 0.2267 0.44076 0.0
H330 H 0.3209 0.20561 0.47875 0.0
O331 O 0.41209 0.32149 0.44337 0.0
O332 O 0.44071 0.31357 0.41124 0.0
H333 H 0.42613 0.23062 0.40252 0.0
H334 H 0.39991 0.19711 0.41194 0.0
C335 C 0.40455 0.21666 0.39958 0.0
H336 H 0.39912 0.21388 0.36765 0.0
H337 H 0.47591 0.29235 0.3919 0.0
O338 O 0.34875 0.29017 0.46329 0.0
C339 C 0.4358 0.32825 0.43355 0.0
Co340 Co 0.09108 0.38173 0.59332 0.0
Co341 Co 0.13985 0.42079 0.54001 0.0
C342 C 0.08733 0.38001 0.50475 0.0
O343 O 0.07672 0.37158 0.53872 0.0
O344 O 0.11133 0.39864 0.50133 0.0
C345 C 0.04617 0.3578 0.64668 0.0
O346 O 0.04668 0.38049 0.6417 0.0
C347 C 0.17798 0.43851 0.47441 0.0
C348 C 0.2098 0.47778 0.49519 0.0
C349 C 0.20195 0.46013 0.46358 0.0
N350 N 0.17172 0.44284 0.51106 0.0
N351 N 0.19092 0.46633 0.52346 0.0
C352 C 0.1611 0.4144 0.44964 0.0
H353 H 0.15032 0.3966 0.46885 0.0
H354 H 0.17329 0.41097 0.42763 0.0
H355 H 0.14651 0.41764 0.43314 0.0
C356 C 0.12896 0.36251 0.61098 0.0
N357 N 0.12358 0.38097 0.59648 0.0
N358 N 0.14429 0.39859 0.57619 0.0
C359 C 0.16374 0.39263 0.57858 0.0
C360 C 0.15472 0.36942 0.60033 0.0
C361 C 0.10866 0.337 0.62971 0.0
H362 H 0.10047 0.34151 0.65652 0.0
H363 H 0.09205 0.32592 0.60852 0.0
H364 H 0.11725 0.32445 0.63823 0.0
O365 O 0.0955 0.41799 0.6048 0.0
O366 O 0.13045 0.44451 0.56768 0.0
H367 H 0.1983 0.42801 0.55852 0.0
H368 H 0.20302 0.39984 0.564 0.0
C369 C 0.18878 0.40615 0.55474 0.0
H370 H 0.18396 0.40117 0.52284 0.0
H371 H 0.19088 0.47479 0.55089 0.0
O372 O 0.06373 0.35436 0.62966 0.0
C373 C 0.11231 0.44112 0.59196 0.0
Co374 Co 0.719 0.0908 0.76104 0.0
Co375 Co 0.72535 0.13462 0.69941 0.0
C376 C 0.71527 0.08103 0.67279 0.0
O377 O 0.7144 0.07308 0.70837 0.0
O378 O 0.71936 0.10427 0.6654 0.0
C379 C 0.73187 0.05338 0.79459 0.0
O380 O 0.74593 0.05877 0.76179 0.0
C381 C 0.73692 0.16694 0.62709 0.0
C382 C 0.73615 0.20246 0.64892 0.0
C383 C 0.7392 0.19073 0.61497 0.0
N384 N 0.73238 0.16436 0.66649 0.0
N385 N 0.73189 0.18566 0.67937 0.0
C386 C 0.74048 0.14766 0.60198 0.0
H387 H 0.75259 0.14098 0.61836 0.0
H388 H 0.75037 0.15668 0.57332 0.0
H389 H 0.72075 0.13007 0.59572 0.0
C390 C 0.77507 0.13443 0.77954 0.0
N391 N 0.75141 0.12497 0.761 0.0
N392 N 0.75354 0.14287 0.73491 0.0
C393 C 0.77831 0.16394 0.73584 0.0
C394 C 0.7928 0.15949 0.76436 0.0
C395 C 0.78107 0.11936 0.80976 0.0
H396 H 0.76361 0.10774 0.82918 0.0
H397 H 0.78573 0.10533 0.7942 0.0
H398 H 0.79845 0.13309 0.82817 0.0
O399 O 0.68653 0.09378 0.77092 0.0
O400 O 0.69266 0.12554 0.72831 0.0
H401 H 0.78048 0.19911 0.71224 0.0
H402 H 0.81077 0.19823 0.70656 0.0
C403 C 0.78884 0.18604 0.70596 0.0
H404 H 0.78262 0.1776 0.67565 0.0
H405 H 0.72849 0.18866 0.70893 0.0
O406 O 0.71938 0.06571 0.80153 0.0
C407 C 0.67906 0.1089 0.75521 0.0
H408 H 0.18457 0.47265 0.39756 0.0
H409 H 0.19986 0.47421 0.32917 0.0
H410 H 0.26031 0.45832 0.3719 0.0
H411 H 0.24523 0.45734 0.44072 0.0
H412 H 0.27819 0.49393 0.30956 0.0
H413 H 0.20466 0.40851 0.33841 0.0
H414 H 0.15996 0.3768 0.36332 0.0
H415 H 0.1255 0.40315 0.27439 0.0
H416 H 0.17008 0.43542 0.24933 0.0
H417 H 0.2924 0.44053 0.12459 0.0
H418 H 0.28356 0.4456 0.19439 0.0
H419 H 0.22822 0.4701 0.1575 0.0
H420 H 0.23706 0.46503 0.08741 0.0
H421 H 0.20888 0.42948 0.2176 0.0
H422 H 0.28523 0.51567 0.18987 0.0
H423 H 0.33084 0.54561 0.16643 0.0
H424 H 0.36088 0.5142 0.25469 0.0
H425 H 0.31538 0.48379 0.27829 0.0
C426 C 0.20152 0.47014 0.39225 0.0
C427 C 0.21395 0.46506 0.4239 0.0
C428 C 0.21013 0.47087 0.35333 0.0
C429 C 0.23096 0.466 0.34548 0.0
C430 C 0.24424 0.46217 0.3774 0.0
C431 C 0.2357 0.46164 0.41652 0.0
C432 C 0.23737 0.46297 0.30382 0.0
C433 C 0.26315 0.47964 0.28955 0.0
C434 C 0.21766 0.44433 0.27778 0.0
C435 C 0.19075 0.42456 0.29218 0.0
C436 C 0.18757 0.40768 0.32429 0.0
C437 C 0.16225 0.38959 0.33844 0.0
C438 C 0.13991 0.388 0.32049 0.0
C439 C 0.14284 0.40444 0.28828 0.0
C440 C 0.16813 0.42262 0.27406 0.0
C441 C 0.2782 0.4468 0.13142 0.0
C442 C 0.26501 0.45197 0.10081 0.0
C443 C 0.27335 0.44989 0.17121 0.0
C444 C 0.25523 0.45819 0.18099 0.0
C445 C 0.24222 0.4636 0.15045 0.0
C446 C 0.24732 0.46081 0.11057 0.0
C447 C 0.24955 0.46078 0.22316 0.0
C448 C 0.2239 0.44383 0.23759 0.0
C449 C 0.26949 0.47879 0.24945 0.0
C450 C 0.29687 0.49728 0.2356 0.0
C451 C 0.30154 0.515 0.20408 0.0
C452 C 0.32737 0.53208 0.1908 0.0
C453 C 0.34874 0.53176 0.20899 0.0
C454 C 0.34431 0.51441 0.24059 0.0
C455 C 0.3185 0.49727 0.25396 0.0
H456 H 0.36873 0.54499 0.19865 0.0
H457 H 0.12033 0.37397 0.33147 0.0
H458 H 0.76349 0.22388 0.2355 0.0
H459 H 0.74859 0.21481 0.30503 0.0
H460 H 0.82804 0.27084 0.34436 0.0
H461 H 0.84295 0.27903 0.27527 0.0
H462 H 0.81042 0.22943 0.38729 0.0
H463 H 0.77485 0.28408 0.34628 0.0
H464 H 0.74922 0.29788 0.3043 0.0
H465 H 0.67779 0.22461 0.33034 0.0
H466 H 0.70306 0.21022 0.37209 0.0
H467 H 0.77864 0.23851 0.58847 0.0
H468 H 0.78908 0.25288 0.51874 0.0
H469 H 0.71945 0.18068 0.48047 0.0
H470 H 0.70934 0.16607 0.54996 0.0
H471 H 0.73146 0.23116 0.43841 0.0
H472 H 0.76963 0.17709 0.47786 0.0
H473 H 0.7962 0.16597 0.52244 0.0
H474 H 0.86475 0.24248 0.50052 0.0
H475 H 0.8384 0.25425 0.45639 0.0
C476 C 0.77763 0.23418 0.25916 0.0
C477 C 0.80438 0.25176 0.25032 0.0
C478 C 0.76914 0.22917 0.2988 0.0
C479 C 0.78715 0.24231 0.33006 0.0
C480 C 0.81379 0.26029 0.32091 0.0
C481 C 0.82233 0.26489 0.28145 0.0
C482 C 0.77867 0.23676 0.37237 0.0
C483 C 0.79338 0.23025 0.39841 0.0
C484 C 0.75616 0.23735 0.38703 0.0
C485 C 0.7409 0.24596 0.36199 0.0
C486 C 0.75371 0.27082 0.34281 0.0
C487 C 0.73924 0.27877 0.3191 0.0
C488 C 0.71191 0.2621 0.31457 0.0
C489 C 0.69897 0.23749 0.33384 0.0
C490 C 0.71336 0.22943 0.35755 0.0
C491 C 0.76538 0.22605 0.56512 0.0
C492 C 0.74342 0.20115 0.57414 0.0
C493 C 0.77131 0.23421 0.52549 0.0
C494 C 0.75504 0.21774 0.49466 0.0
C495 C 0.73214 0.19364 0.50393 0.0
C496 C 0.7265 0.18528 0.54344 0.0
C497 C 0.76338 0.22419 0.45272 0.0
C498 C 0.74858 0.23064 0.42695 0.0
C499 C 0.786 0.22393 0.43832 0.0
C500 C 0.80198 0.21666 0.4642 0.0
C501 C 0.79031 0.19163 0.48282 0.0
C502 C 0.80533 0.18519 0.50797 0.0
C503 C 0.83213 0.20353 0.51439 0.0
C504 C 0.84398 0.22831 0.49557 0.0
C505 C 0.82901 0.23487 0.47049 0.0
H506 H 0.84374 0.19852 0.53387 0.0
H507 H 0.70074 0.26829 0.29621 0.0
H508 H 0.53382 0.82293 0.4342 0.0
H509 H 0.53154 0.81171 0.50498 0.0
H510 H 0.55067 0.75083 0.47593 0.0
H511 H 0.55266 0.76198 0.40491 0.0
H512 H 0.51298 0.73481 0.53488 0.0
H513 H 0.59787 0.80996 0.50518 0.0
H514 H 0.62913 0.85472 0.47948 0.0
H515 H 0.59934 0.8894 0.56306 0.0
H516 H 0.56744 0.84474 0.58872 0.0
H517 H 0.56934 0.72521 0.71619 0.0
H518 H 0.56161 0.73289 0.64728 0.0
H519 H 0.53853 0.78901 0.68719 0.0
H520 H 0.54644 0.78143 0.75661 0.0
H521 H 0.57557 0.80771 0.62401 0.0
H522 H 0.49206 0.73105 0.65607 0.0
H523 H 0.46248 0.68578 0.68159 0.0
H524 H 0.492 0.65352 0.59347 0.0
H525 H 0.52206 0.69867 0.56777 0.0
C526 C 0.53697 0.8068 0.44307 0.0
C527 C 0.54322 0.79311 0.41463 0.0
C528 C 0.53582 0.80051 0.48333 0.0
C529 C 0.54123 0.78065 0.49567 0.0
C530 C 0.5464 0.76619 0.46696 0.0
C531 C 0.54753 0.7725 0.42659 0.0
C532 C 0.54316 0.77616 0.53861 0.0
C533 C 0.52679 0.75067 0.55434 0.0
C534 C 0.56092 0.79705 0.56402 0.0
C535 C 0.58005 0.82395 0.5486 0.0
C536 C 0.59777 0.82709 0.51783 0.0
C537 C 0.61563 0.85245 0.50329 0.0
C538 C 0.6162 0.87488 0.51963 0.0
C539 C 0.59885 0.87199 0.55043 0.0
C540 C 0.58086 0.84666 0.56497 0.0
C541 C 0.56287 0.73938 0.71025 0.0
C542 C 0.55898 0.75317 0.74151 0.0
C543 C 0.55818 0.74352 0.67095 0.0
C544 C 0.54943 0.76144 0.66222 0.0
C545 C 0.54529 0.7751 0.69342 0.0
C546 C 0.54974 0.77073 0.7329 0.0
C547 C 0.54541 0.76635 0.62029 0.0
C548 C 0.56151 0.79193 0.60468 0.0
C549 C 0.52762 0.7455 0.59494 0.0
C550 C 0.50948 0.71829 0.61021 0.0
C551 C 0.49241 0.71433 0.64234 0.0
C552 C 0.47552 0.68869 0.6568 0.0
C553 C 0.4754 0.66679 0.63922 0.0
C554 C 0.49213 0.6705 0.60707 0.0
C555 C 0.50907 0.69612 0.59252 0.0
H556 H 0.46231 0.64695 0.65045 0.0
H557 H 0.6302 0.89449 0.50857 0.0
H558 H 0.72834 0.5127 0.58503 0.0
H559 H 0.73929 0.50982 0.65437 0.0
H560 H 0.81274 0.5843 0.6421 0.0
H561 H 0.80282 0.58602 0.5719 0.0
H562 H 0.81988 0.55363 0.69064 0.0
H563 H 0.75593 0.58203 0.67929 0.0
H564 H 0.71432 0.57829 0.6548 0.0
H565 H 0.66934 0.50406 0.71648 0.0
H566 H 0.7107 0.50722 0.74099 0.0
H567 H 0.79622 0.58107 0.90833 0.0
H568 H 0.7866 0.58023 0.83713 0.0
H569 H 0.80029 0.51439 0.8204 0.0
H570 H 0.81074 0.51579 0.8913 0.0
H571 H 0.75086 0.54383 0.78682 0.0
H572 H 0.83474 0.52474 0.73231 0.0
H573 H 0.87839 0.53309 0.75545 0.0
H574 H 0.88766 0.59882 0.82645 0.0
H575 H 0.84449 0.59143 0.80282 0.0
C576 C 0.74707 0.52816 0.59691 0.0
C577 C 0.76418 0.55028 0.57368 0.0
C578 C 0.75321 0.52662 0.63661 0.0
C579 C 0.77634 0.54738 0.65384 0.0
C580 C 0.79449 0.56834 0.62971 0.0
C581 C 0.78855 0.56964 0.58981 0.0
C582 C 0.78071 0.54813 0.69742 0.0
C583 C 0.80477 0.55138 0.71166 0.0
C584 C 0.76132 0.54608 0.72488 0.0
C585 C 0.73641 0.54474 0.71167 0.0
C586 C 0.73716 0.5649 0.68759 0.0
C587 C 0.71363 0.56287 0.67367 0.0
C588 C 0.68923 0.54087 0.6839 0.0
C589 C 0.68828 0.52104 0.7085 0.0
C590 C 0.71174 0.52296 0.72247 0.0
C591 C 0.79733 0.56658 0.8893 0.0
C592 C 0.80489 0.54897 0.90481 0.0
C593 C 0.79154 0.5659 0.84884 0.0
C594 C 0.79325 0.54759 0.82343 0.0
C595 C 0.79933 0.52898 0.83942 0.0
C596 C 0.8051 0.52966 0.87986 0.0
C597 C 0.78973 0.54862 0.77998 0.0
C598 C 0.76591 0.54591 0.76579 0.0
C599 C 0.80973 0.5521 0.75265 0.0
C600 C 0.83617 0.55727 0.76612 0.0
C601 C 0.84617 0.5411 0.75262 0.0
C602 C 0.87086 0.5457 0.76579 0.0
C603 C 0.88577 0.56646 0.79243 0.0
C604 C 0.87609 0.58276 0.8058 0.0
C605 C 0.85151 0.57837 0.79251 0.0
H606 H 0.90483 0.56992 0.80269 0.0
H607 H 0.67105 0.53913 0.67271 0.0
H608 H 0.23052 0.75047 0.75299 0.0
H609 H 0.24245 0.75616 0.82379 0.0
H610 H 0.17392 0.76333 0.85052 0.0
H611 H 0.16307 0.75953 0.78018 0.0
H612 H 0.21375 0.79897 0.88989 0.0
H613 H 0.1762 0.7052 0.86905 0.0
H614 H 0.1713 0.66468 0.83715 0.0
H615 H 0.25078 0.68711 0.87117 0.0
H616 H 0.25629 0.72799 0.90283 0.0
H617 H 0.20336 0.77752 0.09639 0.0
H618 H 0.19323 0.76613 0.02593 0.0
H619 H 0.27243 0.78047 0.00673 0.0
H620 H 0.283 0.79288 0.07697 0.0
H621 H 0.22959 0.73441 0.96397 0.0
H622 H 0.2643 0.82882 0.9879 0.0
H623 H 0.26439 0.86583 0.02424 0.0
H624 H 0.18458 0.83863 0.98614 0.0
H625 H 0.18373 0.80103 0.95045 0.0
C626 C 0.21804 0.75325 0.77406 0.0
C627 C 0.19533 0.7536 0.76109 0.0
C628 C 0.22475 0.75631 0.81451 0.0
C629 C 0.20878 0.75964 0.84264 0.0
C630 C 0.18643 0.76054 0.82952 0.0
C631 C 0.17995 0.75784 0.7892 0.0
C632 C 0.21545 0.76278 0.88571 0.0
C633 C 0.21698 0.78468 0.90602 0.0
C634 C 0.22003 0.74437 0.90685 0.0
C635 C 0.21676 0.7198 0.88792 0.0
C636 C 0.19271 0.7016 0.86946 0.0
C637 C 0.18981 0.67855 0.85147 0.0
C638 C 0.21074 0.67336 0.85203 0.0
C639 C 0.2346 0.69118 0.87069 0.0
C640 C 0.23762 0.71429 0.88869 0.0
C641 C 0.21864 0.77842 0.07712 0.0
C642 C 0.24425 0.78706 0.09168 0.0
C643 C 0.21273 0.77154 0.03707 0.0
C644 C 0.23226 0.77293 0.01115 0.0
C645 C 0.25716 0.77939 0.02633 0.0
C646 C 0.26314 0.78645 0.06638 0.0
C647 C 0.22748 0.77028 0.96775 0.0
C648 C 0.22646 0.74865 0.94752 0.0
C649 C 0.2229 0.78865 0.94674 0.0
C650 C 0.22387 0.81196 0.96678 0.0
C651 C 0.24671 0.83064 0.98744 0.0
C652 C 0.24691 0.85173 0.00792 0.0
C653 C 0.22449 0.85456 0.00752 0.0
C654 C 0.20191 0.83639 0.98645 0.0
C655 C 0.20156 0.81519 0.96611 0.0
H656 H 0.22458 0.87078 0.02354 0.0
H657 H 0.20845 0.6555 0.8381 0.0
H658 H 0.48929 0.22474 0.93644 0.0
H659 H 0.49655 0.23965 0.00595 0.0
H660 H 0.41565 0.18068 0.03357 0.0
H661 H 0.40781 0.16741 0.96399 0.0
H662 H 0.42645 0.22214 0.07185 0.0
H663 H 0.47154 0.17285 0.05433 0.0
H664 H 0.50297 0.16146 0.02351 0.0
H665 H 0.56793 0.23854 0.05465 0.0
H666 H 0.53683 0.25054 0.08517 0.0
H667 H 0.43464 0.20944 0.27731 0.0
H668 H 0.43741 0.19788 0.20799 0.0
H669 H 0.5025 0.27738 0.18783 0.0
H670 H 0.49938 0.28918 0.25715 0.0
H671 H 0.50251 0.22803 0.14699 0.0
H672 H 0.45229 0.27653 0.15758 0.0
H673 H 0.41964 0.28296 0.19562 0.0
H674 H 0.36276 0.19962 0.18437 0.0
H675 H 0.39493 0.19287 0.14568 0.0
C676 C 0.47307 0.21509 0.95739 0.0
C677 C 0.4483 0.19412 0.94508 0.0
C678 C 0.47728 0.22345 0.99717 0.0
C679 C 0.45688 0.21075 0.02537 0.0
C680 C 0.43185 0.19057 0.01262 0.0
C681 C 0.42752 0.1826 0.97286 0.0
C682 C 0.46137 0.21825 0.06819 0.0
C683 C 0.44307 0.22326 0.08803 0.0
C684 C 0.48307 0.21991 0.08974 0.0
C685 C 0.50183 0.2127 0.07163 0.0
C686 C 0.49251 0.18744 0.05435 0.0
C687 C 0.51027 0.18086 0.03697 0.0
C688 C 0.53742 0.19929 0.03702 0.0
C689 C 0.54689 0.22431 0.05457 0.0
C690 C 0.52921 0.23101 0.07192 0.0
C691 C 0.44969 0.2243 0.25816 0.0
C692 C 0.46629 0.25034 0.27192 0.0
C693 C 0.45147 0.21762 0.21884 0.0
C694 C 0.47004 0.23688 0.19296 0.0
C695 C 0.48815 0.26228 0.20756 0.0
C696 C 0.48631 0.26899 0.24698 0.0
C697 C 0.46764 0.23164 0.14976 0.0
C698 C 0.4862 0.2271 0.13019 0.0
C699 C 0.44595 0.22982 0.12851 0.0
C700 C 0.42587 0.23426 0.14859 0.0
C701 C 0.43268 0.25968 0.16283 0.0
C702 C 0.41429 0.26338 0.1845 0.0
C703 C 0.38912 0.24174 0.19231 0.0
C704 C 0.38218 0.21641 0.17806 0.0
C705 C 0.40041 0.21267 0.15601 0.0
H706 H 0.37503 0.24459 0.2095 0.0
H707 H 0.55114 0.19417 0.02354 0.0
H708 H 0.3584 0.35736 0.8116 0.0
H709 H 0.36063 0.32151 0.77713 0.0
H710 H 0.27649 0.26993 0.79334 0.0
H711 H 0.27409 0.30585 0.82812 0.0
H712 H 0.30404 0.24687 0.81853 0.0
H713 H 0.30231 0.29202 0.70314 0.0
H714 H 0.31399 0.32827 0.65519 0.0
H715 H 0.39194 0.3388 0.64277 0.0
H716 H 0.38068 0.30259 0.69069 0.0
H717 H 0.31888 0.14425 0.73308 0.0
H718 H 0.30209 0.17551 0.7349 0.0
H719 H 0.38226 0.24151 0.72775 0.0
H720 H 0.39886 0.21037 0.72542 0.0
H721 H 0.34835 0.2531 0.68962 0.0
H722 H 0.35373 0.21713 0.81725 0.0
H723 H 0.34308 0.18074 0.86465 0.0
H724 H 0.26024 0.15499 0.85504 0.0
H725 H 0.27041 0.19106 0.80713 0.0
C726 C 0.34026 0.33854 0.80734 0.0
C727 C 0.31609 0.33445 0.82285 0.0
C728 C 0.34155 0.31807 0.78738 0.0
C729 C 0.31871 0.29302 0.78242 0.0
C730 C 0.29436 0.28911 0.79674 0.0
C731 C 0.29302 0.30968 0.81653 0.0
C732 C 0.3209 0.27043 0.76573 0.0
C733 C 0.31312 0.24799 0.78985 0.0
C734 C 0.33332 0.27209 0.72868 0.0
C735 C 0.34055 0.29448 0.7006 0.0
C736 C 0.32194 0.30209 0.69029 0.0
C737 C 0.3285 0.32264 0.66307 0.0
C738 C 0.35371 0.33585 0.64593 0.0
C739 C 0.3724 0.32853 0.65602 0.0
C740 C 0.36589 0.30792 0.68315 0.0
C741 C 0.33273 0.16539 0.73027 0.0
C742 C 0.36012 0.17502 0.72917 0.0
C743 C 0.32319 0.18324 0.73169 0.0
C744 C 0.34096 0.2109 0.7322 0.0
C745 C 0.36815 0.22033 0.72744 0.0
C746 C 0.37764 0.20254 0.7261 0.0
C747 C 0.33202 0.23004 0.74283 0.0
C748 C 0.33869 0.25184 0.71779 0.0
C749 C 0.31889 0.22806 0.77924 0.0
C750 C 0.31279 0.20655 0.80827 0.0
C751 C 0.33323 0.20359 0.82505 0.0
C752 C 0.32729 0.18304 0.85202 0.0
C753 C 0.30099 0.1655 0.86274 0.0
C754 C 0.28059 0.16854 0.84662 0.0
C755 C 0.28643 0.18903 0.81957 0.0
H756 H 0.29643 0.14961 0.88362 0.0
H757 H 0.35876 0.35175 0.62484 0.0
H758 H 0.18558 0.3185 0.9359 0.0
H759 H 0.13781 0.2988 0.94642 0.0
H760 H 0.1388 0.36201 0.8777 0.0
H761 H 0.18682 0.38215 0.86861 0.0
H762 H 0.11581 0.35836 0.94426 0.0
H763 H 0.10531 0.29409 0.84651 0.0
H764 H 0.1132 0.26058 0.81402 0.0
H765 H 0.08472 0.21119 0.91797 0.0
H766 H 0.07699 0.24457 0.95133 0.0
H767 H 0.97783 0.30603 0.97221 0.0
H768 H 0.01907 0.31776 0.937 0.0
H769 H 0.03152 0.26576 0.01403 0.0
H770 H 0.99042 0.25392 0.04931 0.0
H771 H 0.04556 0.26336 0.93564 0.0
H772 H 0.06137 0.33024 0.03495 0.0
H773 H 0.05375 0.36385 0.06777 0.0
H774 H 0.07254 0.4084 0.95899 0.0
H775 H 0.07992 0.37482 0.92537 0.0
C776 C 0.17533 0.32758 0.92193 0.0
C777 C 0.18961 0.35155 0.90099 0.0
C778 C 0.14802 0.31635 0.92794 0.0
C779 C 0.13448 0.32876 0.91264 0.0
C780 C 0.14869 0.35201 0.88981 0.0
C781 C 0.17603 0.36338 0.88424 0.0
C782 C 0.10641 0.31926 0.92417 0.0
C783 C 0.10036 0.33767 0.94139 0.0
C784 C 0.08623 0.29214 0.92155 0.0
C785 C 0.09075 0.27195 0.90153 0.0
C786 C 0.1009 0.27617 0.86256 0.0
C787 C 0.10532 0.25718 0.84397 0.0
C788 C 0.09951 0.23379 0.86395 0.0
C789 C 0.08922 0.22932 0.90254 0.0
C790 C 0.08478 0.24826 0.92128 0.0
C791 C 0.98914 0.2968 0.98131 0.0
C792 C 0.98095 0.27926 0.0139 0.0
C793 C 0.01274 0.30357 0.96119 0.0
C794 C 0.02855 0.29287 0.97318 0.0
C795 C 0.01968 0.27428 0.00427 0.0
C796 C 0.9962 0.26763 0.02453 0.0
C797 C 0.05524 0.30248 0.95554 0.0
C798 C 0.061 0.2841 0.93759 0.0
C799 C 0.07521 0.32963 0.95732 0.0
C800 C 0.07088 0.34987 0.97753 0.0
C801 C 0.06366 0.34709 0.01795 0.0
C802 C 0.05942 0.36615 0.03671 0.0
C803 C 0.06257 0.3882 0.01545 0.0
C804 C 0.07005 0.39128 0.9754 0.0
C805 C 0.07427 0.37225 0.95648 0.0
H806 H 0.05929 0.40294 0.03002 0.0
H807 H 0.10295 0.21912 0.8495 0.0
H808 H 0.80399 0.17607 0.02467 0.0
H809 H 0.77423 0.12818 0.03476 0.0
H810 H 0.83382 0.12519 0.10692 0.0
H811 H 0.86373 0.173 0.09604 0.0
H812 H 0.80548 0.07902 0.06627 0.0
H813 H 0.78554 0.13337 0.15279 0.0
H814 H 0.7746 0.16814 0.16961 0.0
H815 H 0.70565 0.1299 0.09484 0.0
H816 H 0.71606 0.09473 0.07794 0.0
H817 H 0.7291 0.98202 0.21354 0.0
H818 H 0.75892 0.02097 0.17399 0.0
H819 H 0.69299 0.01025 0.10227 0.0
H820 H 0.66292 0.97112 0.14174 0.0
H821 H 0.72211 0.06074 0.13298 0.0
H822 H 0.73872 0.99846 0.06581 0.0
H823 H 0.75102 0.96407 0.05669 0.0
H824 H 0.82871 0.01718 0.10303 0.0
H825 H 0.81687 0.052 0.11264 0.0
C826 C 0.811 0.16489 0.04142 0.0
C827 C 0.83607 0.17803 0.05951 0.0
C828 C 0.79393 0.13763 0.04755 0.0
C829 C 0.80154 0.12315 0.07234 0.0
C830 C 0.82745 0.1359 0.08776 0.0
C831 C 0.84458 0.16316 0.08142 0.0
C832 C 0.78175 0.09574 0.08563 0.0
C833 C 0.7873 0.07497 0.08105 0.0
C834 C 0.75778 0.09033 0.10433 0.0
C835 C 0.75173 0.11165 0.11376 0.0
C836 C 0.76813 0.13248 0.13978 0.0
C837 C 0.76195 0.15216 0.14949 0.0
C838 C 0.73953 0.15131 0.13314 0.0
C839 C 0.72307 0.1306 0.10737 0.0
C840 C 0.72902 0.11072 0.09786 0.0
C841 C 0.72094 0.9877 0.18904 0.0
C842 C 0.69356 0.97354 0.18102 0.0
C843 C 0.73808 0.00991 0.16628 0.0
C844 C 0.72823 0.01847 0.13502 0.0
C845 C 0.70102 0.00395 0.12619 0.0
C846 C 0.68387 0.98158 0.14877 0.0
C847 C 0.74593 0.04395 0.11425 0.0
C848 C 0.74001 0.06448 0.11755 0.0
C849 C 0.76977 0.04911 0.09527 0.0
C850 C 0.77685 0.02799 0.0899 0.0
C851 C 0.75842 0.00291 0.07415 0.0
C852 C 0.76532 0.98328 0.06888 0.0
C853 C 0.79064 0.98843 0.07927 0.0
C854 C 0.80911 0.01323 0.09493 0.0
C855 C 0.80232 0.03296 0.10019 0.0
H856 H 0.79594 0.97319 0.0752 0.0
H857 H 0.73486 0.16664 0.14054 0.0
H858 H 0.75251 0.73361 0.3806 0.0
H859 H 0.74304 0.7638 0.34308 0.0
H860 H 0.68075 0.69706 0.27953 0.0
H861 H 0.6907 0.6667 0.31628 0.0
H862 H 0.70583 0.73942 0.23079 0.0
H863 H 0.6667 0.72326 0.36071 0.0
H864 H 0.66589 0.72085 0.43403 0.0
H865 H 0.72228 0.80455 0.44091 0.0
H866 H 0.7237 0.80738 0.36757 0.0
H867 H 0.62184 0.79568 0.19553 0.0
H868 H 0.6443 0.77027 0.20811 0.0
H869 H 0.7082 0.83885 0.2661 0.0
H870 H 0.68559 0.86407 0.25387 0.0
H871 H 0.68447 0.79657 0.31468 0.0
H872 H 0.72037 0.81243 0.18245 0.0
H873 H 0.72034 0.81326 0.10904 0.0
H874 H 0.66724 0.72872 0.10606 0.0
H875 H 0.66667 0.72742 0.1795 0.0
C876 C 0.73697 0.72534 0.35836 0.0
C877 C 0.7221 0.6977 0.35185 0.0
C878 C 0.73155 0.74264 0.33692 0.0
C879 C 0.71079 0.73268 0.30904 0.0
C880 C 0.69679 0.70522 0.30098 0.0
C881 C 0.70243 0.68787 0.32213 0.0
C882 C 0.70251 0.7507 0.29074 0.0
C883 C 0.70092 0.75176 0.24908 0.0
C884 C 0.69641 0.76708 0.31454 0.0
C885 C 0.69552 0.76547 0.35866 0.0
C886 C 0.67907 0.74111 0.37786 0.0
C887 C 0.67848 0.73967 0.41942 0.0
C888 C 0.69408 0.76251 0.44212 0.0
C889 C 0.71024 0.78686 0.42329 0.0
C890 C 0.71094 0.7884 0.38173 0.0
C891 C 0.64115 0.80553 0.20963 0.0
C892 C 0.652 0.83171 0.22389 0.0
C893 C 0.65401 0.79105 0.21675 0.0
C894 C 0.67794 0.80261 0.23817 0.0
C895 C 0.68978 0.82952 0.2495 0.0
C896 C 0.67695 0.84397 0.24232 0.0
C897 C 0.68809 0.78566 0.25462 0.0
C898 C 0.68971 0.78454 0.29619 0.0
C899 C 0.69378 0.76904 0.23066 0.0
C900 C 0.69328 0.76989 0.18653 0.0
C901 C 0.70841 0.79407 0.16617 0.0
C902 C 0.70857 0.7946 0.12454 0.0
C903 C 0.69374 0.77107 0.1029 0.0
C904 C 0.67866 0.74695 0.12286 0.0
C905 C 0.67841 0.7463 0.16449 0.0
H906 H 0.69399 0.77151 0.07068 0.0
H907 H 0.69359 0.76136 0.47429 0.0
H908 H 0.03478 0.70635 0.46051 0.0
H909 H 0.99352 0.6964 0.42656 0.0
H910 H 0.98289 0.74705 0.50953 0.0
H911 H 0.02399 0.75738 0.54302 0.0
H912 H 0.94026 0.69649 0.50671 0.0
H913 H 0.99658 0.7648 0.4177 0.0
H914 H 0.03137 0.79007 0.36816 0.0
H915 H 0.99307 0.72526 0.28518 0.0
H916 H 0.95868 0.69909 0.33481 0.0
H917 H 0.82347 0.68625 0.43208 0.0
H918 H 0.87102 0.708 0.44671 0.0
H919 H 0.87841 0.65413 0.36612 0.0
H920 H 0.83072 0.6323 0.35159 0.0
H921 H 0.92307 0.70723 0.36534 0.0
H922 H 0.86928 0.63773 0.45943 0.0
H923 H 0.83414 0.61427 0.5095 0.0
H924 H 0.86787 0.68463 0.58235 0.0
H925 H 0.90319 0.70852 0.5327 0.0
C926 C 0.02391 0.71577 0.47099 0.0
C927 C 0.03259 0.73247 0.50472 0.0
C928 C 1.00037 0.71011 0.45151 0.0
C929 C 0.98506 0.7209 0.46565 0.0
C930 C 0.99433 0.73844 0.4982 0.0
C931 C 0.01788 0.74431 0.51733 0.0
C932 C 0.95812 0.71188 0.44956 0.0
C933 C 0.93662 0.69919 0.47586 0.0
C934 C 0.95328 0.71486 0.40911 0.0
C935 C 0.97516 0.72977 0.38031 0.0
C936 C 0.99589 0.75561 0.3893 0.0
C937 C 0.01554 0.77016 0.36112 0.0
C938 C 0.01449 0.75927 0.32359 0.0
C939 C 0.99401 0.73364 0.31435 0.0
C940 C 0.97447 0.71889 0.34257 0.0
C941 C 0.83549 0.67976 0.41642 0.0
C942 C 0.82365 0.65779 0.39056 0.0
C943 C 0.86255 0.69198 0.42504 0.0
C944 C 0.87816 0.68242 0.40792 0.0
C945 C 0.86673 0.66181 0.37965 0.0
C946 C 0.83959 0.64945 0.37122 0.0
C947 C 0.90551 0.69203 0.42256 0.0
C948 C 0.92694 0.70462 0.39609 0.0
C949 C 0.91046 0.68913 0.46293 0.0
C950 C 0.88873 0.67499 0.49217 0.0
C951 C 0.86904 0.64828 0.48592 0.0
C952 C 0.84913 0.63488 0.51428 0.0
C953 C 0.84873 0.64799 0.549 0.0
C954 C 0.86819 0.67452 0.55542 0.0
C955 C 0.88819 0.68797 0.52723 0.0
H956 H 0.83345 0.63759 0.5711 0.0
H957 H 0.02943 0.7708 0.30158 0.0
H958 H 0.27544 0.03309 0.69327 0.0
H959 H 0.24524 0.99401 0.65408 0.0
H960 H 0.31129 0.98695 0.6118 0.0
H961 H 0.34179 0.02664 0.65011 0.0
H962 H 0.2752 0.97294 0.55435 0.0
H963 H 0.27407 0.95053 0.69141 0.0
H964 H 0.26986 0.95441 0.76384 0.0
H965 H 0.18973 0.9372 0.74828 0.0
H966 H 0.1936 0.93361 0.67564 0.0
H967 H 0.21054 0.83115 0.53339 0.0
H968 H 0.23757 0.87943 0.54256 0.0
H969 H 0.16739 0.88257 0.57335 0.0
H970 H 0.14032 0.83423 0.56375 0.0
H971 H 0.20395 0.89993 0.63292 0.0
H972 H 0.20301 0.9158 0.49544 0.0
H973 H 0.20812 0.91436 0.42286 0.0
H974 H 0.29154 0.94464 0.43725 0.0
H975 H 0.28691 0.94565 0.51007 0.0
C976 C 0.28362 0.02346 0.67522 0.0
C977 C 0.31099 0.03276 0.67526 0.0
C978 C 0.26629 1.00105 0.65288 0.0
C979 C 0.27589 0.9871 0.63072 0.0
C980 C 0.30338 0.99726 0.62883 0.0
C981 C 0.32079 0.01992 0.65083 0.0
C982 C 0.25713 0.96099 0.61204 0.0
C983 C 0.2596 0.95693 0.57138 0.0
C984 C 0.23668 0.94012 0.63435 0.0
C985 C 0.23423 0.94209 0.67805 0.0
C986 C 0.25562 0.94777 0.70341 0.0
C987 C 0.25329 0.94989 0.7445 0.0
C988 C 0.22957 0.94613 0.76064 0.0
C989 C 0.2081 0.94016 0.73573 0.0
C990 C 0.21035 0.93807 0.69459 0.0
C991 C 0.20081 0.8424 0.54029 0.0
C992 C 0.17342 0.82915 0.54763 0.0
C993 C 0.21625 0.86996 0.54559 0.0
C994 C 0.20453 0.88464 0.55875 0.0
C995 C 0.17683 0.87165 0.56305 0.0
C996 C 0.16134 0.84409 0.55728 0.0
C997 C 0.22148 0.91201 0.57472 0.0
C998 C 0.21901 0.91613 0.61533 0.0
C999 C 0.24189 0.9328 0.5522 0.0
C1000 C 0.24451 0.93044 0.50851 0.0
C1001 C 0.22236 0.92158 0.48332 0.0
C1002 C 0.22521 0.92099 0.44205 0.0
C1003 C 0.25013 0.92934 0.42548 0.0
C1004 C 0.27223 0.93813 0.45015 0.0
C1005 C 0.2695 0.93869 0.49146 0.0
H1006 H 0.25233 0.92912 0.39351 0.0
H1007 H 0.2278 0.94778 0.79247 0.0
H1008 H 0.80162 0.61626 0.12641 0.0
H1009 H 0.77372 0.63628 0.11673 0.0
H1010 H 0.84045 0.70651 0.06764 0.0
H1011 H 0.86826 0.68617 0.07636 0.0
H1012 H 0.80167 0.71476 0.11829 0.0
H1013 H 0.80775 0.66872 0.002 0.0
H1014 H 0.80695 0.63093 0.96698 0.0
H1015 H 0.72714 0.5792 0.00661 0.0
H1016 H 0.72754 0.61673 0.04203 0.0
H1017 H 0.73843 0.75882 0.97826 0.0
H1018 H 0.76659 0.74554 0.01375 0.0
H1019 H 0.69726 0.67307 0.05125 0.0
H1020 H 0.66888 0.68646 0.01649 0.0
H1021 H 0.73663 0.66598 0.01068 0.0
H1022 H 0.72936 0.71402 0.12127 0.0
H1023 H 0.73084 0.75228 0.15567 0.0
H1024 H 0.81307 0.80106 0.12557 0.0
H1025 H 0.81214 0.76302 0.09103 0.0
C1026 C 0.81048 0.63629 0.11468 0.0
C1027 C 0.83693 0.64959 0.10172 0.0
C1028 C 0.79457 0.64769 0.10914 0.0
C1029 C 0.80498 0.67276 0.09112 0.0
C1030 C 0.83208 0.68718 0.0817 0.0
C1031 C 0.84795 0.6756 0.08679 0.0
C1032 C 0.78681 0.68194 0.077 0.0
C1033 C 0.7876 0.70429 0.09456 0.0
C1034 C 0.76821 0.66802 0.04643 0.0
C1035 C 0.76777 0.64544 0.02498 0.0
C1036 C 0.7901 0.64924 0.00346 0.0
C1037 C 0.78968 0.62791 0.98342 0.0
C1038 C 0.76704 0.60266 0.98467 0.0
C1039 C 0.74469 0.59875 0.00573 0.0
C1040 C 0.74496 0.62007 0.0257 0.0
C1041 C 0.72914 0.74027 0.99465 0.0
C1042 C 0.70143 0.72363 0.99439 0.0
C1043 C 0.74526 0.73276 0.01502 0.0
C1044 C 0.73401 0.7083 0.03507 0.0
C1045 C 0.70632 0.69203 0.03597 0.0
C1046 C 0.69014 0.69977 0.0162 0.0
C1047 C 0.7513 0.69879 0.05202 0.0
C1048 C 0.75048 0.67638 0.03471 0.0
C1049 C 0.76991 0.71279 0.08258 0.0
C1050 C 0.77061 0.73574 0.10323 0.0
C1051 C 0.74771 0.73296 0.1217 0.0
C1052 C 0.74845 0.75459 0.14129 0.0
C1053 C 0.77195 0.77913 0.14256 0.0
C1054 C 0.79485 0.78204 0.12448 0.0
C1055 C 0.79426 0.76043 0.10501 0.0
H1056 H 0.77244 0.79586 0.15769 0.0
H1057 H 0.76681 0.58614 0.96929 0.0
H1058 H 0.98538 0.72952 0.1188 0.0
H1059 H 0.02485 0.75952 0.15703 0.0
H1060 H 0.02051 0.69243 0.21885 0.0
H1061 H 0.9804 0.66224 0.18135 0.0
H1062 H 0.03692 0.73339 0.26849 0.0
H1063 H 0.06211 0.7205 0.1393 0.0
H1064 H 0.06185 0.71893 0.06593 0.0
H1065 H 0.08775 0.80237 0.06129 0.0
H1066 H 0.08779 0.80435 0.13469 0.0
H1067 H 0.176 0.79669 0.31411 0.0
H1068 H 0.12861 0.76961 0.29895 0.0
H1069 H 0.13217 0.83569 0.23502 0.0
H1070 H 0.17963 0.86233 0.24904 0.0
H1071 H 0.1156 0.79428 0.1884 0.0
H1072 H 0.09338 0.80813 0.31947 0.0
H1073 H 0.09231 0.80867 0.39279 0.0
H1074 H 0.06041 0.72408 0.39514 0.0
H1075 H 0.06172 0.72304 0.32188 0.0
C1076 C 0.99263 0.72112 0.1408 0.0
C1077 C 0.97994 0.69345 0.14663 0.0
C1078 C 0.01528 0.73831 0.16259 0.0
C1079 C 0.02608 0.72821 0.19017 0.0
C1080 C 0.01268 0.7007 0.19757 0.0
C1081 C 0.98978 0.68346 0.17603 0.0
C1082 C 0.05207 0.74629 0.20944 0.0
C1083 C 0.05415 0.74676 0.25112 0.0
C1084 C 0.07465 0.76361 0.18667 0.0
C1085 C 0.07468 0.7625 0.1425 0.0
C1086 C 0.06755 0.73846 0.12264 0.0
C1087 C 0.06747 0.73751 0.08105 0.0
C1088 C 0.07471 0.76052 0.05896 0.0
C1089 C 0.0821 0.78455 0.07844 0.0
C1090 C 0.08217 0.78561 0.12003 0.0
C1091 C 0.16636 0.80564 0.29803 0.0
C1092 C 0.18139 0.83143 0.28241 0.0
C1093 C 0.13926 0.7902 0.28944 0.0
C1094 C 0.12678 0.80051 0.26553 0.0
C1095 C 0.14136 0.82723 0.25333 0.0
C1096 C 0.16844 0.84255 0.26166 0.0
C1097 C 0.10022 0.78251 0.24786 0.0
C1098 C 0.09822 0.78156 0.20613 0.0
C1099 C 0.07781 0.76486 0.27077 0.0
C1100 C 0.07804 0.76558 0.31503 0.0
C1101 C 0.08657 0.78969 0.33558 0.0
C1102 C 0.0858 0.79007 0.37719 0.0
C1103 C 0.07636 0.76644 0.39865 0.0
C1104 C 0.06773 0.74238 0.37853 0.0
C1105 C 0.06851 0.74189 0.33694 0.0
H1106 H 0.07566 0.76676 0.43084 0.0
H1107 H 0.07465 0.75974 0.02676 0.0
H1108 H 0.30105 0.97221 0.35746 0.0
H1109 H 0.31082 0.01369 0.39133 0.0
H1110 H 0.26921 0.02955 0.29919 0.0
H1111 H 0.2595 0.9885 0.26532 0.0
H1112 H 0.31714 0.07145 0.31066 0.0
H1113 H 0.24496 0.01093 0.39195 0.0
H1114 H 0.21804 0.97474 0.43889 0.0
H1115 H 0.27847 0.01234 0.52812 0.0
H1116 H 0.30636 0.04793 0.48117 0.0
H1117 H 0.32349 0.18634 0.39052 0.0
H1118 H 0.30304 0.13941 0.37077 0.0
H1119 H 0.35007 0.1276 0.45852 0.0
H1120 H 0.37052 0.17462 0.47826 0.0
H1121 H 0.29867 0.08358 0.45092 0.0
H1122 H 0.37237 0.14116 0.36712 0.0
H1123 H 0.39825 0.17895 0.32209 0.0
H1124 H 0.33339 0.14768 0.23935 0.0
H1125 H 0.30699 0.10971 0.28411 0.0
C1126 C 0.29376 0.98442 0.34466 0.0
C1127 C 0.27972 0.97712 0.30842 0.0
C1128 C 0.29925 0.00807 0.36416 0.0
C1129 C 0.29081 0.02483 0.34777 0.0
C1130 C 0.27605 0.01707 0.31234 0.0
C1131 C 0.27048 0.99349 0.29301 0.0
C1132 C 0.29889 0.05139 0.36552 0.0
C1133 C 0.31273 0.07395 0.34123 0.0
C1134 C 0.29379 0.05486 0.40573 0.0
C1135 C 0.27796 0.03203 0.43273 0.0
C1136 C 0.25286 0.01113 0.42119 0.0
C1137 C 0.23737 0.9907 0.44787 0.0
C1138 C 0.24655 0.99117 0.48643 0.0
C1139 C 0.27144 0.01179 0.49815 0.0
C1140 C 0.28716 0.03204 0.47144 0.0
C1141 C 0.32869 0.17343 0.40651 0.0
C1142 C 0.34836 0.18387 0.43605 0.0
C1143 C 0.31724 0.14674 0.39496 0.0
C1144 C 0.32535 0.13012 0.41274 0.0
C1145 C 0.34355 0.14007 0.44438 0.0
C1146 C 0.35511 0.16682 0.45578 0.0
C1147 C 0.31669 0.10324 0.39603 0.0
C1148 C 0.30295 0.08081 0.42042 0.0
C1149 C 0.32186 0.09976 0.35596 0.0
C1150 C 0.3376 0.12272 0.32916 0.0
C1151 C 0.36352 0.14245 0.3395 0.0
C1152 C 0.37831 0.16389 0.31397 0.0
C1153 C 0.36745 0.16577 0.27791 0.0
C1154 C 0.34176 0.14621 0.26731 0.0
C1155 C 0.32689 0.1247 0.29272 0.0
H1156 H 0.37896 0.1823 0.25807 0.0
H1157 H 0.23425 0.97572 0.50735 0.0
H1158 H 0.32969 0.30354 0.52369 0.0
H1159 H 0.29777 0.31317 0.55639 0.0
H1160 H 0.24539 0.28047 0.45542 0.0
H1161 H 0.27697 0.27089 0.42272 0.0
H1162 H 0.25268 0.32816 0.47467 0.0
H1163 H 0.23376 0.24885 0.5419 0.0
H1164 H 0.24025 0.21759 0.58305 0.0
H1165 H 0.25789 0.26895 0.68437 0.0
H1166 H 0.25354 0.30157 0.64322 0.0
H1167 H 0.1404 0.32855 0.54899 0.0
H1168 H 0.16741 0.30892 0.52933 0.0
H1169 H 0.22343 0.35323 0.62236 0.0
H1170 H 0.1965 0.37315 0.64169 0.0
H1171 H 0.21369 0.29908 0.6092 0.0
H1172 H 0.23928 0.38096 0.53683 0.0
H1173 H 0.23117 0.41111 0.49515 0.0
H1174 H 0.19585 0.3507 0.40497 0.0
H1175 H 0.20403 0.32028 0.44593 0.0
C1176 C 0.31125 0.29817 0.50865 0.0
C1177 C 0.30599 0.28656 0.47045 0.0
C1178 C 0.29299 0.30362 0.52743 0.0
C1179 C 0.26915 0.29756 0.50835 0.0
C1180 C 0.26367 0.28543 0.47068 0.0
C1181 C 0.28178 0.2799 0.45204 0.0
C1182 C 0.25048 0.30511 0.52628 0.0
C1183 C 0.244 0.32149 0.50395 0.0
C1184 C 0.23942 0.29685 0.56483 0.0
C1185 C 0.24381 0.27801 0.58909 0.0
C1186 C 0.23984 0.25396 0.57262 0.0
C1187 C 0.24321 0.23598 0.59598 0.0
C1188 C 0.24993 0.2415 0.63616 0.0
C1189 C 0.25333 0.26501 0.65303 0.0
C1190 C 0.25057 0.28333 0.62962 0.0
C1191 C 0.15791 0.33321 0.5662 0.0
C1192 C 0.16627 0.35197 0.59718 0.0
C1193 C 0.17346 0.32225 0.55472 0.0
C1194 C 0.19755 0.32986 0.57414 0.0
C1195 C 0.20489 0.34707 0.60708 0.0
C1196 C 0.18944 0.35826 0.6183 0.0
C1197 C 0.2162 0.32197 0.55757 0.0
C1198 C 0.22262 0.30567 0.58006 0.0
C1199 C 0.22717 0.33011 0.51912 0.0
C1200 C 0.22205 0.34828 0.49459 0.0
C1201 C 0.22965 0.37406 0.50821 0.0
C1202 C 0.22513 0.39122 0.48467 0.0
C1203 C 0.21285 0.38277 0.44757 0.0
C1204 C 0.20529 0.3572 0.43377 0.0
C1205 C 0.20998 0.34003 0.45704 0.0
H1206 H 0.20932 0.39606 0.42945 0.0
H1207 H 0.25224 0.22742 0.65433 0.0
H1208 H 0.03472 0.306 0.65436 0.0
H1209 H 0.99585 0.26915 0.68627 0.0
H1210 H 0.96868 0.32292 0.72128 0.0
H1211 H 0.00741 0.3598 0.68969 0.0
H1212 H 0.96067 0.28685 0.78055 0.0
H1213 H 0.94442 0.28568 0.63885 0.0
H1214 H 0.95404 0.28386 0.56775 0.0
H1215 H 0.94993 0.20872 0.58601 0.0
H1216 H 0.94062 0.21028 0.65737 0.0
H1217 H 0.82052 0.21118 0.78751 0.0
H1218 H 0.86828 0.2414 0.7809 0.0
H1219 H 0.87817 0.17536 0.74582 0.0
H1220 H 0.83016 0.14514 0.75209 0.0
H1221 H 0.8986 0.21344 0.69189 0.0
H1222 H 0.90693 0.21094 0.83179 0.0
H1223 H 0.89732 0.2128 0.90284 0.0
H1224 H 0.91609 0.29393 0.88943 0.0
H1225 H 0.92543 0.29247 0.81815 0.0
C1226 C 0.02064 0.31005 0.66924 0.0
C1227 C 0.02408 0.33584 0.66912 0.0
C1228 C 0.9984 0.28894 0.68742 0.0
C1229 C 0.9792 0.29321 0.70585 0.0
C1230 C 0.98322 0.31914 0.70729 0.0
C1231 C 0.00534 0.3402 0.689 0.0
C1232 C 0.95405 0.27055 0.72128 0.0
C1233 C 0.947 0.27081 0.76122 0.0
C1234 C 0.93658 0.24921 0.69636 0.0
C1235 C 0.94217 0.24827 0.6535 0.0
C1236 C 0.9458 0.26889 0.62775 0.0
C1237 C 0.95115 0.26788 0.58741 0.0
C1238 C 0.95268 0.24623 0.5724 0.0
C1239 C 0.9488 0.22551 0.59769 0.0
C1240 C 0.94348 0.22644 0.63808 0.0
C1241 C 0.83307 0.20304 0.77976 0.0
C1242 C 0.8218 0.17592 0.77039 0.0
C1243 C 0.86038 0.22029 0.77602 0.0
C1244 C 0.87694 0.21071 0.76291 0.0
C1245 C 0.86583 0.18323 0.75604 0.0
C1246 C 0.83847 0.16593 0.75993 0.0
C1247 C 0.90483 0.22982 0.75119 0.0
C1248 C 0.9124 0.22905 0.71171 0.0
C1249 C 0.9227 0.25063 0.77664 0.0
C1250 C 0.91671 0.25152 0.81945 0.0
C1251 C 0.90876 0.22911 0.84386 0.0
C1252 C 0.90341 0.23011 0.88423 0.0
C1253 C 0.90605 0.25345 0.90063 0.0
C1254 C 0.91405 0.27585 0.87669 0.0
C1255 C 0.9194 0.27496 0.8363 0.0
H1256 H 0.90194 0.2542 0.93189 0.0
H1257 H 0.95682 0.24548 0.54115 0.0
H1258 H 0.69536 0.02829 0.85405 0.0
H1259 H 0.68692 0.98855 0.89101 0.0
H1260 H 0.75311 0.98942 0.83211 0.0
H1261 H 0.76112 0.02861 0.79428 0.0
H1262 H 0.71199 0.94254 0.82628 0.0
H1263 H 0.75288 0.00327 0.93504 0.0
H1264 H 0.75951 0.0393 0.98105 0.0
H1265 H 0.68022 0.99122 0.02514 0.0
H1266 H 0.67297 0.95501 0.97907 0.0
H1267 H 0.69798 0.83009 0.92179 0.0
H1268 H 0.7192 0.87828 0.91119 0.0
H1269 H 0.64827 0.87675 0.95165 0.0
H1270 H 0.62715 0.82857 0.96253 0.0
H1271 H 0.69522 0.92527 0.971 0.0
H1272 H 0.65267 0.86883 0.85616 0.0
H1273 H 0.64424 0.83328 0.80793 0.0
H1274 H 0.72656 0.87421 0.7756 0.0
H1275 H 0.73545 0.91005 0.82362 0.0
C1276 C 0.70839 0.02028 0.84945 0.0
C1277 C 0.7288 0.03152 0.82096 0.0
C1278 C 0.70363 0.99759 0.87082 0.0
C1279 C 0.71946 0.98596 0.86463 0.0
C1280 C 0.74055 0.99791 0.83742 0.0
C1281 C 0.74513 0.02037 0.81578 0.0
C1282 C 0.71254 0.95996 0.8833 0.0
C1283 C 0.70897 0.93908 0.85808 0.0
C1284 C 0.70775 0.95501 0.9247 0.0
C1285 C 0.71228 0.97651 0.9532 0.0
C1286 C 0.73678 1.00044 0.95432 0.0
C1287 C 0.74064 0.02092 0.98037 0.0
C1288 C 0.72019 0.01768 0.00563 0.0
C1289 C 0.69597 0.99379 0.0053 0.0
C1290 C 0.69199 0.97325 0.97929 0.0
C1291 C 0.68738 0.84027 0.92999 0.0
C1292 C 0.66097 0.82575 0.94287 0.0
C1293 C 0.69942 0.86775 0.92367 0.0
C1294 C 0.68517 0.88106 0.93004 0.0
C1295 C 0.65965 0.86694 0.94656 0.0
C1296 C 0.64761 0.83946 0.9528 0.0
C1297 C 0.6951 0.90829 0.91388 0.0
C1298 C 0.69888 0.92914 0.93938 0.0
C1299 C 0.70008 0.91339 0.87268 0.0
C1300 C 0.69477 0.89193 0.84375 0.0
C1301 C 0.66899 0.87014 0.83894 0.0
C1302 C 0.66412 0.84997 0.81163 0.0
C1303 C 0.68487 0.85139 0.78894 0.0
C1304 C 0.71051 0.87309 0.7933 0.0
C1305 C 0.71547 0.89338 0.82046 0.0
H1306 H 0.68107 0.83572 0.76786 0.0
H1307 H 0.72323 0.03354 0.0258 0.0
H1308 H 0.27557 0.35745 0.06239 0.0
H1309 H 0.28776 0.34002 0.11947 0.0
H1310 H 0.34532 0.33304 0.04755 0.0
H1311 H 0.33277 0.35022 0.98982 0.0
H1312 H 0.31944 0.29118 0.10001 0.0
H1313 H 0.3651 0.38708 0.10566 0.0
H1314 H 0.36701 0.43047 0.10338 0.0
H1315 H 0.31613 0.40892 0.20559 0.0
H1316 H 0.31365 0.36524 0.20818 0.0
H1317 H 0.39678 0.2909 0.26537 0.0
H1318 H 0.38106 0.29986 0.20319 0.0
H1319 H 0.32381 0.3113 0.26851 0.0
H1320 H 0.33939 0.30242 0.33079 0.0
H1321 H 0.35108 0.35118 0.21762 0.0
H1322 H 0.30483 0.25609 0.21318 0.0
H1323 H 0.2984 0.21077 0.21324 0.0
H1324 H 0.34728 0.22915 0.10919 0.0
H1325 H 0.35445 0.27479 0.10893 0.0
C1326 C 0.29078 0.35217 0.05871 0.0
C1327 C 0.3037 0.35578 0.02206 0.0
C1328 C 0.29765 0.34211 0.09127 0.0
C1329 C 0.31791 0.33591 0.08794 0.0
C1330 C 0.32976 0.33793 0.05073 0.0
C1331 C 0.32262 0.34774 0.01788 0.0
C1332 C 0.32772 0.329 0.12397 0.0
C1333 C 0.32679 0.30442 0.12555 0.0
C1334 C 0.33673 0.34614 0.15748 0.0
C1335 C 0.33906 0.37282 0.15696 0.0
C1336 C 0.35428 0.39157 0.1276 0.0
C1337 C 0.35545 0.41621 0.12624 0.0
C1338 C 0.34165 0.42242 0.15427 0.0
C1339 C 0.3268 0.40407 0.18389 0.0
C1340 C 0.32554 0.37939 0.18536 0.0
C1341 C 0.3807 0.29509 0.26653 0.0
C1342 C 0.3694 0.29599 0.30314 0.0
C1343 C 0.37168 0.30013 0.23091 0.0
C1344 C 0.3512 0.30614 0.23125 0.0
C1345 C 0.33968 0.30674 0.26764 0.0
C1346 C 0.34861 0.30163 0.30321 0.0
C1347 C 0.3426 0.31314 0.19399 0.0
C1348 C 0.3439 0.33791 0.19209 0.0
C1349 C 0.33385 0.2961 0.16034 0.0
C1350 C 0.33039 0.26897 0.16127 0.0
C1351 C 0.31451 0.25061 0.19061 0.0
C1352 C 0.31064 0.22482 0.1906 0.0
C1353 C 0.32234 0.21707 0.16116 0.0
C1354 C 0.33812 0.23515 0.13186 0.0
C1355 C 0.34215 0.26101 0.13184 0.0
H1356 H 0.3192 0.19705 0.16108 0.0
H1357 H 0.3425 0.44145 0.15308 0.0
H1358 H 0.97569 0.30138 0.15848 0.0
H1359 H 0.00482 0.31569 0.21674 0.0
H1360 H 0.94168 0.31178 0.28878 0.0
H1361 H 0.91303 0.29876 0.23067 0.0
H1362 H 0.98536 0.3556 0.3043 0.0
H1363 H 0.96073 0.26339 0.29244 0.0
H1364 H 0.95585 0.2235 0.25835 0.0
H1365 H 0.04008 0.26257 0.24094 0.0
H1366 H 0.04542 0.30284 0.27448 0.0
H1367 H 0.03362 0.35625 0.4976 0.0
H1368 H 0.00727 0.33995 0.43657 0.0
H1369 H 0.07808 0.3612 0.3692 0.0
H1370 H 0.10458 0.37755 0.43005 0.0
H1371 H 0.03313 0.30986 0.34982 0.0
H1372 H 0.05707 0.40167 0.36414 0.0
H1373 H 0.06117 0.44056 0.40035 0.0
H1374 H 0.97667 0.40069 0.41486 0.0
H1375 H 0.9721 0.36136 0.37929 0.0
C1376 C 0.96799 0.30349 0.18676 0.0
C1377 C 0.94186 0.29858 0.18995 0.0
C1378 C 0.98463 0.31153 0.2201 0.0
C1379 C 0.97533 0.31448 0.25729 0.0
C1380 C 0.94929 0.30958 0.26046 0.0
C1381 C 0.9328 0.30183 0.22718 0.0
C1382 C 0.99277 0.32334 0.29289 0.0
C1383 C 0.99552 0.34535 0.31443 0.0
C1384 C 0.0066 0.31043 0.30566 0.0
C1385 C 1.00344 0.28623 0.28557 0.0
C1386 C 0.97819 0.26355 0.28106 0.0
C1387 C 0.97535 0.24086 0.26189 0.0
C1388 C 0.99763 0.24053 0.24738 0.0
C1389 C 0.02283 0.26287 0.25212 0.0
C1390 C 0.02578 0.28563 0.27124 0.0
C1391 C 0.04356 0.35724 0.46985 0.0
C1392 C 0.07122 0.36853 0.46848 0.0
C1393 C 0.02851 0.348 0.43506 0.0
C1394 C 0.04084 0.34963 0.39846 0.0
C1395 C 0.06829 0.3599 0.39721 0.0
C1396 C 0.0834 0.36945 0.4319 0.0
C1397 C 0.02518 0.34167 0.36128 0.0
C1398 C 0.02291 0.32001 0.33946 0.0
C1399 C 0.01161 0.35474 0.34836 0.0
C1400 C 0.01427 0.37847 0.36939 0.0
C1401 C 0.03938 0.40111 0.37534 0.0
C1402 C 0.04179 0.42324 0.3957 0.0
C1403 C 0.0192 0.42307 0.40998 0.0
C1404 C 0.99415 0.40078 0.40382 0.0
C1405 C 0.99164 0.37857 0.38354 0.0
H1406 H 0.0211 0.44023 0.42574 0.0
H1407 H 0.99539 0.22295 0.23256 0.0
H1408 H 0.66936 0.96635 0.3316 0.0
H1409 H 0.68676 0.99334 0.39195 0.0
H1410 H 0.63017 0.92721 0.46279 0.0
H1411 H 0.61224 0.90051 0.4029 0.0
H1412 H 0.63091 0.96974 0.48608 0.0
H1413 H 0.69777 0.94703 0.45972 0.0
H1414 H 0.7311 0.94312 0.41966 0.0
H1415 H 0.77571 0.02807 0.40589 0.0
H1416 H 0.74244 0.03246 0.44544 0.0
H1417 H 0.68736 0.02657 0.67334 0.0
H1418 H 0.67556 0.99666 0.61576 0.0
H1419 H 0.7206 0.06414 0.53905 0.0
H1420 H 0.7325 0.09402 0.59625 0.0
H1421 H 0.72651 0.01972 0.52078 0.0
H1422 H 0.65775 0.04116 0.54565 0.0
H1423 H 0.62484 0.04436 0.58766 0.0
H1424 H 0.58359 0.95972 0.6056 0.0
H1425 H 0.6167 0.95611 0.56434 0.0
C1426 C 0.66072 0.9575 0.36006 0.0
C1427 C 0.63951 0.93114 0.36236 0.0
C1428 C 0.67081 0.97291 0.39459 0.0
C1429 C 0.66008 0.96214 0.43206 0.0
C1430 C 0.63894 0.93587 0.43432 0.0
C1431 C 0.62878 0.92056 0.39994 0.0
C1432 C 0.67009 0.97844 0.46886 0.0
C1433 C 0.65178 0.98028 0.49391 0.0
C1434 C 0.69737 0.9926 0.47888 0.0
C1435 C 0.71748 0.99005 0.45523 0.0
C1436 C 0.71458 0.96486 0.4479 0.0
C1437 C 0.73348 0.96256 0.42533 0.0
C1438 C 0.75547 0.98533 0.41015 0.0
C1439 C 0.75865 0.01045 0.41762 0.0
C1440 C 0.73979 0.01286 0.44015 0.0
C1441 C 0.69504 0.03497 0.64429 0.0
C1442 C 0.71046 0.06268 0.63916 0.0
C1443 C 0.68826 0.01789 0.61147 0.0
C1444 C 0.69701 0.02827 0.57318 0.0
C1445 C 0.7136 0.05578 0.56836 0.0
C1446 C 0.72014 0.07284 0.60102 0.0
C1447 C 0.68731 0.0108 0.53769 0.0
C1448 C 0.70565 0.00889 0.51293 0.0
C1449 C 0.66004 0.99635 0.52805 0.0
C1450 C 0.63987 0.99841 0.5523 0.0
C1451 C 0.64179 0.02325 0.55882 0.0
C1452 C 0.62307 0.02514 0.58247 0.0
C1453 C 0.60213 1.00225 0.59937 0.0
C1454 C 0.59985 0.97743 0.59255 0.0
C1455 C 0.61859 0.97546 0.56905 0.0
H1456 H 0.58765 0.00374 0.6177 0.0
H1457 H 0.77008 0.98351 0.39268 0.0
H1458 H 0.7257 0.61983 0.57041 0.0
H1459 H 0.7182 0.63715 0.63221 0.0
H1460 H 0.69657 0.68664 0.56513 0.0
H1461 H 0.70471 0.66991 0.50297 0.0
H1462 H 0.72658 0.7133 0.62745 0.0
H1463 H 0.65037 0.62671 0.60517 0.0
H1464 H 0.62614 0.57817 0.59403 0.0
H1465 H 0.65419 0.56647 0.70605 0.0
H1466 H 0.67929 0.61497 0.71724 0.0
H1467 H 0.64827 0.73461 0.767 0.0
H1468 H 0.66651 0.72248 0.71082 0.0
H1469 H 0.68906 0.67867 0.78958 0.0
H1470 H 0.67025 0.69039 0.84612 0.0
H1471 H 0.66203 0.64956 0.7248 0.0
H1472 H 0.73601 0.73615 0.74891 0.0
H1473 H 0.75887 0.78459 0.76077 0.0
H1474 H 0.73338 0.7962 0.64648 0.0
H1475 H 0.71003 0.74777 0.63415 0.0
C1476 C 0.71951 0.63452 0.56869 0.0
C1477 C 0.71563 0.64334 0.53165 0.0
C1478 C 0.71514 0.64434 0.60412 0.0
C1479 C 0.70642 0.66288 0.6033 0.0
C1480 C 0.70323 0.67229 0.56645 0.0
C1481 C 0.7078 0.66263 0.53093 0.0
C1482 C 0.69993 0.67194 0.64079 0.0
C1483 C 0.71229 0.69938 0.64858 0.0
C1484 C 0.6818 0.65373 0.66889 0.0
C1485 C 0.66701 0.62453 0.66179 0.0
C1486 C 0.65168 0.61382 0.62717 0.0
C1487 C 0.63778 0.58629 0.62083 0.0
C1488 C 0.63877 0.56924 0.64917 0.0
C1489 C 0.65361 0.57969 0.68394 0.0
C1490 C 0.66772 0.6072 0.69026 0.0
C1491 C 0.65706 0.72239 0.77245 0.0
C1492 C 0.65744 0.71314 0.81092 0.0
C1493 C 0.66779 0.71573 0.74034 0.0
C1494 C 0.67927 0.69979 0.74605 0.0
C1495 C 0.68031 0.69104 0.78458 0.0
C1496 C 0.66966 0.69783 0.81683 0.0
C1497 C 0.6885 0.69089 0.71128 0.0
C1498 C 0.67657 0.66347 0.70392 0.0
C1499 C 0.70692 0.7091 0.68357 0.0
C1500 C 0.72109 0.73828 0.69075 0.0
C1501 C 0.73511 0.74901 0.72642 0.0
C1502 C 0.74819 0.77647 0.73321 0.0
C1503 C 0.74754 0.79346 0.70443 0.0
C1504 C 0.73386 0.78302 0.66876 0.0
C1505 C 0.72072 0.75556 0.66183 0.0
H1506 H 0.75767 0.81472 0.70974 0.0
H1507 H 0.62794 0.54793 0.64428 0.0
H1508 H 0.09468 0.75061 0.7197 0.0
H1509 H 0.06677 0.73817 0.77905 0.0
H1510 H 1.00345 0.67285 0.71443 0.0
H1511 H 0.03101 0.68612 0.65437 0.0
H1512 H 0.98325 0.6925 0.76342 0.0
H1513 H 0.04842 0.66508 0.7765 0.0
H1514 H 0.09362 0.67168 0.77718 0.0
H1515 H 0.11503 0.72796 0.87294 0.0
H1516 H 0.06996 0.72179 0.87268 0.0
H1517 H 0.91357 0.60891 0.92479 0.0
H1518 H 0.9403 0.62827 0.86535 0.0
H1519 H 0.99857 0.69436 0.935 0.0
H1520 H 0.9721 0.67475 0.99511 0.0
H1521 H 0.02177 0.67667 0.88479 0.0
H1522 H 0.95356 0.69969 0.8745 0.0
H1523 H 0.90744 0.69045 0.87363 0.0
H1524 H 0.89091 0.64013 0.77118 0.0
H1525 H 0.93674 0.64851 0.77202 0.0
C1526 C 0.07464 0.73386 0.71807 0.0
C1527 C 0.06503 0.71911 0.6827 0.0
C1528 C 0.05877 0.72666 0.75203 0.0
C1529 C 0.0333 0.70406 0.7516 0.0
C1530 C 0.02312 0.69024 0.71559 0.0
C1531 C 0.03882 0.69783 0.68128 0.0
C1532 C 0.01784 0.69406 0.78902 0.0
C1533 C 0.99159 0.6888 0.78983 0.0
C1534 C 0.02887 0.68966 0.82379 0.0
C1535 C 0.05588 0.69313 0.82435 0.0
C1536 C 0.0628 0.67894 0.7976 0.0
C1537 C 0.08838 0.68257 0.79795 0.0
C1538 C 0.10719 0.70026 0.82506 0.0
C1539 C 0.10043 0.71427 0.85197 0.0
C1540 C 0.07486 0.71067 0.8518 0.0
C1541 C 0.93202 0.62762 0.92757 0.0
C1542 C 0.94061 0.64038 0.96472 0.0
C1543 C 0.94725 0.63871 0.89346 0.0
C1544 C 0.9712 0.66302 0.89558 0.0
C1545 C 0.98007 0.67565 0.93267 0.0
C1546 C 0.96491 0.66444 0.96697 0.0
C1547 C 0.98714 0.67497 0.8591 0.0
C1548 C 0.01349 0.68056 0.85847 0.0
C1549 C 0.97609 0.67936 0.8244 0.0
C1550 C 0.94858 0.6746 0.82351 0.0
C1551 C 0.94005 0.6865 0.85196 0.0
C1552 C 0.91394 0.68139 0.85149 0.0
C1553 C 0.89623 0.66464 0.82245 0.0
C1554 C 0.90463 0.65307 0.7937 0.0
C1555 C 0.93067 0.65797 0.79418 0.0
H1556 H 0.87601 0.66068 0.82216 0.0
H1557 H 0.12701 0.70309 0.82526 0.0
H1558 H 0.26168 0.88936 0.09832 0.0
H1559 H 0.26592 0.91259 0.03589 0.0
H1560 H 0.30879 0.98804 0.09686 0.0
H1561 H 0.30367 0.96491 0.15979 0.0
H1562 H 0.27663 0.99002 0.04442 0.0
H1563 H 0.33933 0.95715 0.04153 0.0
H1564 H 0.35047 0.92141 0.04393 0.0
H1565 H 0.29948 0.88284 0.9439 0.0
H1566 H 0.28776 0.91816 0.94129 0.0
H1567 H 0.36376 0.08372 0.911 0.0
H1568 H 0.34044 0.05108 0.96245 0.0
H1569 H 0.30231 0.98979 0.87317 0.0
H1570 H 0.3264 0.02268 0.82087 0.0
H1571 H 0.32192 0.97378 0.93187 0.0
H1572 H 0.26613 0.01087 0.92623 0.0
H1573 H 0.25449 0.04617 0.92278 0.0
H1574 H 0.2906 0.07588 0.03689 0.0
H1575 H 0.30282 0.04101 0.0408 0.0
C1576 C 0.27188 0.91089 0.09851 0.0
C1577 C 0.2826 0.92532 0.13394 0.0
C1578 C 0.27431 0.92413 0.06275 0.0
C1579 C 0.28811 0.95204 0.06148 0.0
C1580 C 0.2981 0.96647 0.09705 0.0
C1581 C 0.29525 0.95324 0.133 0.0
C1582 C 0.29313 0.96641 0.02308 0.0
C1583 C 0.28666 0.98658 0.01988 0.0
C1584 C 0.30506 0.96107 0.99024 0.0
C1585 C 0.31251 0.94015 0.99144 0.0
C1586 C 0.33043 0.94098 0.02016 0.0
C1587 C 0.33683 0.9208 0.02156 0.0
C1588 C 0.32565 0.89985 0.99413 0.0
C1589 C 0.30814 0.89909 0.96511 0.0
C1590 C 0.3016 0.91917 0.96367 0.0
C1591 C 0.35038 0.06343 0.90202 0.0
C1592 C 0.34717 0.05592 0.86171 0.0
C1593 C 0.33678 0.04473 0.9316 0.0
C1594 C 0.3193 0.01803 0.9217 0.0
C1595 C 0.31561 0.01035 0.88145 0.0
C1596 C 0.32935 0.02918 0.85164 0.0
C1597 C 0.30656 0.99823 0.95401 0.0
C1598 C 0.31143 0.97694 0.95604 0.0
C1599 C 0.29302 1.00243 0.98567 0.0
C1600 C 0.28548 0.02334 0.98372 0.0
C1601 C 0.27173 0.02501 0.9505 0.0
C1602 C 0.26501 0.04495 0.94847 0.0
C1603 C 0.27182 0.06327 0.97958 0.0
C1604 C 0.28532 0.06166 0.01283 0.0
C1605 C 0.2921 0.04178 0.015 0.0
H1606 H 0.26662 0.0787 0.97794 0.0
H1607 H 0.33057 0.88421 0.99533 0.0
H1608 H 0.57474 0.63491 0.93825 0.0
H1609 H 0.5345 0.59068 0.93829 0.0
H1610 H 0.48655 0.62725 0.9228 0.0
H1611 H 0.52654 0.67125 0.92163 0.0
H1612 H 0.46677 0.58309 0.98069 0.0
H1613 H 0.49971 0.60697 0.8447 0.0
H1614 H 0.53412 0.62031 0.79302 0.0
H1615 H 0.5387 0.54998 0.81556 0.0
H1616 H 0.50458 0.53644 0.86786 0.0
H1617 H 0.34333 0.48741 0.91347 0.0
H1618 H 0.38691 0.52755 0.91527 0.0
H1619 H 0.42393 0.48003 0.89734 0.0
H1620 H 0.37999 0.43967 0.89392 0.0
H1621 H 0.45218 0.52671 0.8613 0.0
H1622 H 0.41717 0.49948 0.99132 0.0
H1623 H 0.38373 0.4849 0.04469 0.0
H1624 H 0.38476 0.55923 0.03794 0.0
H1625 H 0.41792 0.57412 0.98407 0.0
C1626 C 0.55556 0.63349 0.9358 0.0
C1627 C 0.55373 0.65649 0.92998 0.0
C1628 C 0.53265 0.60826 0.93555 0.0
C1629 C 0.5076 0.60574 0.93029 0.0
C1630 C 0.50568 0.62878 0.9269 0.0
C1631 C 0.52853 0.65388 0.92625 0.0
C1632 C 0.48341 0.57924 0.92564 0.0
C1633 C 0.46348 0.57078 0.95456 0.0
C1634 C 0.47954 0.56284 0.89213 0.0
C1635 C 0.49987 0.57088 0.86051 0.0
C1636 C 0.50824 0.59449 0.8389 0.0
C1637 C 0.52765 0.60206 0.80945 0.0
C1638 C 0.53866 0.58605 0.8011 0.0
C1639 C 0.53021 0.56239 0.82212 0.0
C1640 C 0.51083 0.55476 0.85165 0.0
C1641 C 0.36073 0.48558 0.90889 0.0
C1642 C 0.3583 0.46043 0.90376 0.0
C1643 C 0.38567 0.50851 0.91032 0.0
C1644 C 0.40878 0.50676 0.90783 0.0
C1645 C 0.40641 0.48187 0.89978 0.0
C1646 C 0.3813 0.45884 0.89761 0.0
C1647 C 0.43509 0.53073 0.91594 0.0
C1648 C 0.45547 0.53875 0.88775 0.0
C1649 C 0.43958 0.54652 0.95057 0.0
C1650 C 0.41992 0.53784 0.98342 0.0
C1651 C 0.41017 0.51267 0.00105 0.0
C1652 C 0.39126 0.50434 0.0314 0.0
C1653 C 0.38208 0.5211 0.04464 0.0
C1654 C 0.39187 0.54626 0.02763 0.0
C1655 C 0.41075 0.55467 0.99721 0.0
H1656 H 0.36742 0.51462 0.06811 0.0
H1657 H 0.55368 0.59194 0.77828 0.0
H1658 H 0.94059 0.3681 0.05245 0.0
H1659 H 0.94567 0.41275 0.05199 0.0
H1660 H 0.86084 0.37773 0.06016 0.0
H1661 H 0.8557 0.33332 0.06115 0.0
H1662 H 0.88465 0.4221 0.0095 0.0
H1663 H 0.89565 0.396 0.14219 0.0
H1664 H 0.91685 0.38148 0.19184 0.0
H1665 H 0.99184 0.45196 0.17032 0.0
H1666 H 0.97112 0.46669 0.12004 0.0
H1667 H 0.8566 0.51444 0.08939 0.0
H1668 H 0.86118 0.475 0.08557 0.0
H1669 H 0.94625 0.5246 0.09118 0.0
H1670 H 0.9417 0.56436 0.09611 0.0
H1671 H 0.92889 0.47668 0.1294 0.0
H1672 H 0.91699 0.50555 0.00223 0.0
H1673 H 0.89557 0.52046 0.9536 0.0
H1674 H 0.8232 0.44549 0.96347 0.0
H1675 H 0.84405 0.43028 0.0127 0.0
C1676 C 0.92302 0.36994 0.05288 0.0
C1677 C 0.89774 0.34725 0.05688 0.0
C1678 C 0.92595 0.39544 0.05299 0.0
C1679 C 0.90364 0.39853 0.05657 0.0
C1680 C 0.87832 0.37581 0.05746 0.0
C1681 C 0.87541 0.35044 0.05798 0.0
C1682 C 0.90641 0.42515 0.06283 0.0
C1683 C 0.8943 0.43402 0.0357 0.0
C1684 C 0.91952 0.441 0.0966 0.0
C1685 C 0.93192 0.43227 0.12701 0.0
C1686 C 0.9167 0.40828 0.1478 0.0
C1687 C 0.92862 0.40003 0.17609 0.0
C1688 C 0.95569 0.41574 0.18414 0.0
C1689 C 0.97088 0.43978 0.16399 0.0
C1690 C 0.95907 0.44809 0.13559 0.0
C1691 C 0.87627 0.51692 0.09096 0.0
C1692 C 0.8988 0.54248 0.09275 0.0
C1693 C 0.87888 0.49438 0.08847 0.0
C1694 C 0.90409 0.4969 0.08684 0.0
C1695 C 0.92661 0.52221 0.092 0.0
C1696 C 0.92399 0.54489 0.09504 0.0
C1697 C 0.9066 0.47334 0.07649 0.0
C1698 C 0.91967 0.46504 0.10281 0.0
C1699 C 0.8945 0.45805 0.04179 0.0
C1700 C 0.88206 0.46684 0.01137 0.0
C1701 C 0.89647 0.49228 0.99417 0.0
C1702 C 0.88443 0.50079 0.96651 0.0
C1703 C 0.85802 0.48395 0.95551 0.0
C1704 C 0.84365 0.45852 0.97204 0.0
C1705 C 0.85558 0.44993 -0.00021 0.0
H1706 H 0.84871 0.4906 0.93415 0.0
H1707 H 0.96489 0.40933 0.20606 0.0
H1708 H 0.51444 0.85103 0.24999 0.0
H1709 H 0.47601 0.85684 0.24762 0.0
H1710 H 0.52584 0.93874 0.21249 0.0
H1711 H 0.56488 0.93312 0.21529 0.0
H1712 H 0.49255 0.93357 0.27427 0.0
H1713 H 0.48279 0.89418 0.14607 0.0
H1714 H 0.48112 0.8616 0.09722 0.0
H1715 H 0.41455 0.79863 0.15837 0.0
H1716 H 0.41603 0.83076 0.20792 0.0
H1717 H 0.37148 0.93906 0.2522 0.0
H1718 H 0.41548 0.94348 0.24653 0.0
H1719 H 0.38055 0.85892 0.26556 0.0
H1720 H 0.33672 0.8544 0.26934 0.0
H1721 H 0.40955 0.87183 0.20296 0.0
H1722 H 0.42269 0.90975 0.33551 0.0
H1723 H 0.42463 0.94168 0.38588 0.0
H1724 H 0.48453 0.0066 0.31789 0.0
H1725 H 0.48271 0.97506 0.26688 0.0
C1726 C 0.51729 0.87021 0.24108 0.0
C1727 C 0.54279 0.89162 0.23279 0.0
C1728 C 0.49521 0.87348 0.23965 0.0
C1729 C 0.49796 0.89819 0.22968 0.0
C1730 C 0.52326 0.91948 0.2202 0.0
C1731 C 0.5455 0.91618 0.22144 0.0
C1732 C 0.47438 0.90168 0.23144 0.0
C1733 C 0.47452 0.92045 0.25807 0.0
C1734 C 0.45073 0.88428 0.21084 0.0
C1735 C 0.44962 0.8649 0.18085 0.0
C1736 C 0.46789 0.87337 0.14925 0.0
C1737 C 0.46696 0.85497 0.12141 0.0
C1738 C 0.44776 0.82806 0.12472 0.0
C1739 C 0.42941 0.81949 0.15583 0.0
C1740 C 0.43025 0.83779 0.18377 0.0
C1741 C 0.3734 0.92161 0.25631 0.0
C1742 C 0.35076 0.8964 0.26131 0.0
C1743 C 0.39855 0.92411 0.25295 0.0
C1744 C 0.40144 0.90151 0.25544 0.0
C1745 C 0.37891 0.87664 0.26307 0.0
C1746 C 0.35387 0.87408 0.2656 0.0
C1747 C 0.42727 0.90295 0.24713 0.0
C1748 C 0.4276 0.88518 0.21894 0.0
C1749 C 0.45123 0.92116 0.26648 0.0
C1750 C 0.45234 0.94008 0.29718 0.0
C1751 C 0.43612 0.93085 0.33116 0.0
C1752 C 0.43723 0.94887 0.35985 0.0
C1753 C 0.45463 0.97615 0.35502 0.0
C1754 C 0.47102 0.98547 0.32156 0.0
C1755 C 0.46997 0.96753 0.29277 0.0
H1756 H 0.45545 0.99007 0.37727 0.0
H1757 H 0.44708 0.81385 0.10315 0.0
H1758 H 0.48718 0.34193 0.44366 0.0
H1759 H 0.52568 0.38666 0.44461 0.0
H1760 H 0.47434 0.42015 0.44405 0.0
H1761 H 0.43539 0.375 0.44315 0.0
H1762 H 0.51251 0.44104 0.38482 0.0
H1763 H 0.51114 0.42883 0.5247 0.0
H1764 H 0.50804 0.40543 0.58736 0.0
H1765 H 0.57841 0.40328 0.55673 0.0
H1766 H 0.58173 0.42632 0.49359 0.0
H1767 H 0.63414 0.57003 0.39789 0.0
H1768 H 0.58916 0.53164 0.40431 0.0
H1769 H 0.62162 0.47966 0.41631 0.0
H1770 H 0.66631 0.51773 0.41059 0.0
H1771 H 0.58915 0.47292 0.4765 0.0
H1772 H 0.5867 0.47933 0.33303 0.0
H1773 H 0.58954 0.50185 0.26954 0.0
H1774 H 0.52637 0.51464 0.30686 0.0
H1775 H 0.52339 0.49248 0.37082 0.0
C1776 C 0.48403 0.35878 0.44483 0.0
C1777 C 0.45826 0.35496 0.44347 0.0
C1778 C 0.50608 0.38438 0.44536 0.0
C1779 C 0.50292 0.40679 0.44442 0.0
C1780 C 0.4772 0.40311 0.44483 0.0
C1781 C 0.45499 0.37735 0.44476 0.0
C1782 C 0.52668 0.43368 0.43982 0.0
C1783 C 0.52908 0.44838 0.40534 0.0
C1784 C 0.54844 0.44301 0.46622 0.0
C1785 C 0.5466 0.4292 0.50427 0.0
C1786 C 0.52585 0.42321 0.53118 0.0
C1787 C 0.52407 0.41003 0.56682 0.0
C1788 C 0.54299 0.40284 0.576 0.0
C1789 C 0.56377 0.40886 0.54958 0.0
C1790 C 0.56563 0.42202 0.51389 0.0
C1791 C 0.6316 0.55031 0.40072 0.0
C1792 C 0.65378 0.54693 0.40394 0.0
C1793 C 0.60588 0.52839 0.40459 0.0
C1794 C 0.602 0.50276 0.41124 0.0
C1795 C 0.6241 0.49925 0.41172 0.0
C1796 C 0.64966 0.52104 0.40817 0.0
C1797 C 0.57537 0.47977 0.42072 0.0
C1798 C 0.57245 0.46586 0.45627 0.0
C1799 C 0.55322 0.4712 0.39527 0.0
C1800 C 0.55506 0.48456 0.3569 0.0
C1801 C 0.57359 0.48717 0.32785 0.0
C1802 C 0.57518 0.49982 0.29174 0.0
C1803 C 0.55821 0.50975 0.28423 0.0
C1804 C 0.53955 0.50699 0.31276 0.0
C1805 C 0.53789 0.49438 0.34892 0.0
H1806 H 0.55947 0.51953 0.25625 0.0
H1807 H 0.54158 0.39264 0.6036 0.0
H1808 H 0.06814 0.63864 0.5557 0.0
H1809 H 0.06375 0.59425 0.55769 0.0
H1810 H 0.14773 0.63036 0.57889 0.0
H1811 H 0.15212 0.67451 0.57792 0.0
H1812 H 0.12571 0.58651 0.52212 0.0
H1813 H 0.11107 0.61031 0.65488 0.0
H1814 H 0.08822 0.62385 0.7033 0.0
H1815 H 0.01417 0.55353 0.67613 0.0
H1816 H 0.03656 0.53979 0.62704 0.0
H1817 H 0.15167 0.49244 0.59916 0.0
H1818 H 0.14732 0.53204 0.59673 0.0
H1819 H 0.06216 0.48264 0.59894 0.0
H1820 H 0.06648 0.4427 0.6026 0.0
H1821 H 0.07866 0.52983 0.63866 0.0
H1822 H 0.09281 0.50319 0.51112 0.0
H1823 H 0.1147 0.48887 0.46219 0.0
H1824 H 0.18736 0.56317 0.47648 0.0
H1825 H 0.16601 0.57778 0.52599 0.0
C1826 C 0.08572 0.63707 0.55984 0.0
C1827 C 0.11048 0.65999 0.56661 0.0
C1828 C 0.08316 0.61175 0.56127 0.0
C1829 C 0.1054 0.60907 0.56873 0.0
C1830 C 0.13034 0.632 0.57311 0.0
C1831 C 0.13281 0.6572 0.57253 0.0
C1832 C 0.10276 0.58252 0.57448 0.0
C1833 C 0.1155 0.57414 0.54761 0.0
C1834 C 0.08881 0.56608 0.6072 0.0
C1835 C 0.07541 0.5742 0.63694 0.0
C1836 C 0.08987 0.59786 0.65896 0.0
C1837 C 0.07702 0.60555 0.68658 0.0
C1838 C 0.04974 0.58961 0.69269 0.0
C1839 C 0.03529 0.56589 0.67129 0.0
C1840 C 0.04805 0.55814 0.64358 0.0
C1841 C 0.13202 0.49002 0.60028 0.0
C1842 C 0.10941 0.46449 0.60078 0.0
C1843 C 0.12954 0.51266 0.59859 0.0
C1844 C 0.10441 0.51027 0.59641 0.0
C1845 C 0.08175 0.48493 0.60023 0.0
C1846 C 0.08424 0.46214 0.60252 0.0
C1847 C 0.10218 0.53407 0.58676 0.0
C1848 C 0.08854 0.54195 0.6128 0.0
C1849 C 0.11504 0.54995 0.55294 0.0
C1850 C 0.12784 0.54151 0.52248 0.0
C1851 C 0.11349 0.51643 0.50397 0.0
C1852 C 0.1258 0.50826 0.47614 0.0
C1853 C 0.15242 0.52508 0.46629 0.0
C1854 C 0.16675 0.55015 0.48416 0.0
C1855 C 0.15454 0.55841 0.51208 0.0
H1856 H 0.16194 0.5187 0.44479 0.0
H1857 H 0.03982 0.59559 0.71408 0.0
H1858 H 0.63223 0.06304 0.76977 0.0
H1859 H 0.58792 0.05832 0.77357 0.0
H1860 H 0.6232 0.14359 0.76618 0.0
H1861 H 0.66722 0.14834 0.76115 0.0
H1862 H 0.58013 0.11608 0.8254 0.0
H1863 H 0.60251 0.11352 0.68599 0.0
H1864 H 0.61469 0.09531 0.62858 0.0
H1865 H 0.5451 0.01896 0.64651 0.0
H1866 H 0.53271 0.03664 0.70446 0.0
H1867 H 0.48443 0.14701 0.77006 0.0
H1868 H 0.52415 0.14315 0.77095 0.0
H1869 H 0.47712 0.05976 0.74101 0.0
H1870 H 0.43726 0.06391 0.7383 0.0
H1871 H 0.52297 0.07957 0.70576 0.0
H1872 H 0.49684 0.08157 0.83896 0.0
H1873 H 0.48302 0.09805 0.89662 0.0
H1874 H 0.55735 0.17152 0.89419 0.0
H1875 H 0.57148 0.15565 0.83611 0.0
C1876 C 0.6305 0.08076 0.76991 0.0
C1877 C 0.6531 0.10606 0.7653 0.0
C1878 C 0.60523 0.07803 0.77178 0.0
C1879 C 0.60235 0.10061 0.76992 0.0
C1880 C 0.62503 0.12594 0.76768 0.0
C1881 C 0.65013 0.12862 0.76486 0.0
C1882 C 0.5758 0.09811 0.7678 0.0
C1883 C 0.56761 0.10817 0.79926 0.0
C1884 C 0.55917 0.087 0.7342 0.0
C1885 C 0.56687 0.0763 0.69984 0.0
C1886 C 0.58999 0.09276 0.67801 0.0
C1887 C 0.59688 0.08256 0.6453 0.0
C1888 C 0.58069 0.05599 0.63395 0.0
C1889 C 0.55763 0.03953 0.65537 0.0
C1890 C 0.55066 0.04963 0.68814 0.0
C1891 C 0.48261 0.12794 0.763 0.0
C1892 C 0.45773 0.10572 0.75435 0.0
C1893 C 0.5053 0.12568 0.76391 0.0
C1894 C 0.50356 0.10095 0.75742 0.0
C1895 C 0.47895 0.079 0.74657 0.0
C1896 C 0.4562 0.08139 0.74486 0.0
C1897 C 0.5274 0.09815 0.76306 0.0
C1898 C 0.53514 0.08708 0.73229 0.0
C1899 C 0.54342 0.10792 0.7977 0.0
C1900 C 0.53515 0.11747 0.83297 0.0
C1901 C 0.51019 0.1013 0.85057 0.0
C1902 C 0.5023 0.11054 0.88334 0.0
C1903 C 0.51928 0.13584 0.89902 0.0
C1904 C 0.54422 0.15193 0.88201 0.0
C1905 C 0.55219 0.14281 0.84918 0.0
H1906 H 0.51313 0.14295 0.92438 0.0
H1907 H 0.5859 0.0482 0.6084 0.0
loop_
_geom_bond_atom_site_label_1
_geom_bond_atom_site_label_2
_geom_bond_distance
_geom_bond_site_symmetry_2
_ccdc_geom_bond_type
Co0 O3 1.970 1_556 S
Co0 N17 1.989 . S
Co0 O25 1.967 . S
Co0 O32 1.920 . S
Co1 O4 1.966 . S
Co1 N10 2.022 . S
Co1 N18 1.993 1_554 S
Co1 O26 1.941 1_554 S
C2 O3 1.258 . S
C2 O4 1.263 . S
O3 Co0 1.970 1_554 S
O3 C2 1.258 . S
O4 Co1 1.966 . S
O4 C2 1.263 . S
C5 O6 1.235 . S
C5 O32 1.289 . S
O6 C5 1.235 . S
C7 C9 1.400 . S
C7 N10 1.351 . S
C7 C12 1.501 . S
C8 C9 1.387 . S
C8 N11 1.341 . S
C9 C7 1.400 . S
C9 C8 1.387 . S
N10 Co1 2.022 . S
N10 C7 1.351 . S
N10 N11 1.365 . S
N11 C8 1.341 . S
N11 N10 1.365 . S
N11 H31 0.862 . S
C12 C7 1.501 . S
C12 H13 0.961 . S
C12 H14 0.961 . S
C12 H15 0.960 . S
H13 C12 0.961 . S
H14 C12 0.961 . S
H15 C12 0.960 . S
C16 N17 1.342 . S
C16 C20 1.401 . S
C16 C21 1.499 . S
N17 Co0 1.989 . S
N17 C16 1.342 . S
N17 N18 1.388 . S
N18 Co1 1.993 1_556 S
N18 N17 1.388 . S
N18 C19 1.346 . S
C19 N18 1.346 . S
C19 C20 1.396 . S
C19 C29 1.510 1_556 S
C20 C16 1.401 . S
C20 C19 1.396 . S
C21 C16 1.499 . S
C21 H22 0.959 . S
C21 H23 0.960 . S
C21 H24 0.961 . S
H22 C21 0.959 . S
H23 C21 0.960 . S
H24 C21 0.961 . S
O25 Co0 1.967 . S
O25 C33 1.258 . S
O26 Co1 1.941 1_556 S
O26 C33 1.266 . S
H27 C29 0.959 . S
H28 C29 0.961 . S
C29 C19 1.510 1_554 S
C29 H27 0.959 . S
C29 H28 0.961 . S
C29 H30 0.960 . S
H30 C29 0.960 . S
H31 N11 0.862 . S
O32 Co0 1.920 . S
O32 C5 1.289 . S
C33 O25 1.258 . S
C33 O26 1.266 . S
Co34 O37 1.970 . S
Co34 N51 1.989 . S
Co34 O59 1.967 . S
Co34 O66 1.920 . S
Co35 O38 1.966 . S
Co35 N44 2.022 . S
Co35 N52 1.993 . S
Co35 O60 1.941 . S
C36 O37 1.258 . S
C36 O38 1.263 . S
O37 Co34 1.970 . S
O37 C36 1.258 . S
O38 Co35 1.966 . S
O38 C36 1.263 . S
C39 O40 1.235 . S
C39 O66 1.289 . S
O40 C39 1.235 . S
C41 C43 1.400 . S
C41 N44 1.351 . S
C41 C46 1.501 . S
C42 C43 1.387 . S
C42 N45 1.341 . S
C43 C41 1.400 . S
C43 C42 1.387 . S
N44 Co35 2.022 . S
N44 C41 1.351 . S
N44 N45 1.365 . S
N45 C42 1.341 . S
N45 N44 1.365 . S
N45 H65 0.862 . S
C46 C41 1.501 . S
C46 H47 0.961 . S
C46 H48 0.961 . S
C46 H49 0.960 . S
H47 C46 0.961 . S
H48 C46 0.961 . S
H49 C46 0.960 . S
C50 N51 1.342 . S
C50 C54 1.401 . S
C50 C55 1.499 . S
N51 Co34 1.989 . S
N51 C50 1.342 . S
N51 N52 1.388 . S
N52 Co35 1.993 . S
N52 N51 1.388 . S
N52 C53 1.346 . S
C53 N52 1.346 . S
C53 C54 1.396 . S
C53 C63 1.510 . S
C54 C50 1.401 . S
C54 C53 1.396 . S
C55 C50 1.499 . S
C55 H56 0.959 . S
C55 H57 0.960 . S
C55 H58 0.961 . S
H56 C55 0.959 . S
H57 C55 0.960 . S
H58 C55 0.961 . S
O59 Co34 1.967 . S
O59 C67 1.258 . S
O60 Co35 1.941 . S
O60 C67 1.266 . S
H61 C63 0.959 . S
H62 C63 0.961 . S
C63 C53 1.510 . S
C63 H61 0.959 . S
C63 H62 0.961 . S
C63 H64 0.960 . S
H64 C63 0.960 . S
H65 N45 0.862 . S
O66 Co34 1.920 . S
O66 C39 1.289 . S
C67 O59 1.258 . S
C67 O60 1.266 . S
Co68 O71 1.970 . S
Co68 N85 1.989 . S
Co68 O93 1.967 . S
Co68 O100 1.920 . S
Co69 O72 1.966 . S
Co69 N78 2.022 . S
Co69 N86 1.993 . S
Co69 O94 1.941 . S
C70 O71 1.258 . S
C70 O72 1.263 . S
O71 Co68 1.970 . S
O71 C70 1.258 . S
O72 Co69 1.966 . S
O72 C70 1.263 . S
C73 O74 1.235 . S
C73 O100 1.289 . S
O74 C73 1.235 . S
C75 C77 1.400 . S
C75 N78 1.351 . S
C75 C80 1.501 . S
C76 C77 1.387 . S
C76 N79 1.341 . S
C77 C75 1.400 . S
C77 C76 1.387 . S
N78 Co69 2.022 . S
N78 C75 1.351 . S
N78 N79 1.365 . S
N79 C76 1.341 . S
N79 N78 1.365 . S
N79 H99 0.862 . S
C80 C75 1.501 . S
C80 H81 0.961 . S
C80 H82 0.961 . S
C80 H83 0.960 . S
H81 C80 0.961 . S
H82 C80 0.961 . S
H83 C80 0.960 . S
C84 N85 1.342 . S
C84 C88 1.401 . S
C84 C89 1.499 . S
N85 Co68 1.989 . S
N85 C84 1.342 . S
N85 N86 1.388 . S
N86 Co69 1.993 . S
N86 N85 1.388 . S
N86 C87 1.346 . S
C87 N86 1.346 . S
C87 C88 1.396 . S
C87 C97 1.510 . S
C88 C84 1.401 . S
C88 C87 1.396 . S
C89 C84 1.499 . S
C89 H90 0.959 . S
C89 H91 0.960 . S
C89 H92 0.961 . S
H90 C89 0.959 . S
H91 C89 0.960 . S
H92 C89 0.961 . S
O93 Co68 1.967 . S
O93 C101 1.258 . S
O94 Co69 1.941 . S
O94 C101 1.266 . S
H95 C97 0.959 . S
H96 C97 0.961 . S
C97 C87 1.510 . S
C97 H95 0.959 . S
C97 H96 0.961 . S
C97 H98 0.960 . S
H98 C97 0.960 . S
H99 N79 0.862 . S
O100 Co68 1.920 . S
O100 C73 1.289 . S
C101 O93 1.258 . S
C101 O94 1.266 . S
Co102 O105 1.970 . S
Co102 N119 1.989 . S
Co102 O127 1.967 . S
Co102 O134 1.920 . S
Co103 O106 1.966 . S
Co103 N112 2.022 . S
Co103 N120 1.993 . S
Co103 O128 1.941 . S
C104 O105 1.258 . S
C104 O106 1.263 . S
O105 Co102 1.970 . S
O105 C104 1.258 . S
O106 Co103 1.966 . S
O106 C104 1.263 . S
C107 O108 1.235 . S
C107 O134 1.289 . S
O108 C107 1.235 . S
C109 C111 1.400 . S
C109 N112 1.351 . S
C109 C114 1.501 . S
C110 C111 1.387 . S
C110 N113 1.341 . S
C111 C109 1.400 . S
C111 C110 1.387 . S
N112 Co103 2.022 . S
N112 C109 1.351 . S
N112 N113 1.365 . S
N113 C110 1.341 . S
N113 N112 1.365 . S
N113 H133 0.862 . S
C114 C109 1.501 . S
C114 H115 0.961 . S
C114 H116 0.961 . S
C114 H117 0.960 . S
H115 C114 0.961 . S
H116 C114 0.961 . S
H117 C114 0.960 . S
C118 N119 1.342 . S
C118 C122 1.401 . S
C118 C123 1.499 . S
N119 Co102 1.989 . S
N119 C118 1.342 . S
N119 N120 1.388 . S
N120 Co103 1.993 . S
N120 N119 1.388 . S
N120 C121 1.346 . S
C121 N120 1.346 . S
C121 C122 1.396 . S
C121 C131 1.510 . S
C122 C118 1.401 . S
C122 C121 1.396 . S
C123 C118 1.499 . S
C123 H124 0.959 . S
C123 H125 0.960 . S
C123 H126 0.961 . S
H124 C123 0.959 . S
H125 C123 0.960 . S
H126 C123 0.961 . S
O127 Co102 1.967 . S
O127 C135 1.258 . S
O128 Co103 1.941 . S
O128 C135 1.266 . S
H129 C131 0.959 . S
H130 C131 0.961 . S
C131 C121 1.510 . S
C131 H129 0.959 . S
C131 H130 0.961 . S
C131 H132 0.960 . S
H132 C131 0.960 . S
H133 N113 0.862 . S
O134 Co102 1.920 . S
O134 C107 1.289 . S
C135 O127 1.258 . S
C135 O128 1.266 . S
Co136 O139 1.970 . S
Co136 N153 1.989 . S
Co136 O161 1.967 . S
Co136 O168 1.920 . S
Co137 O140 1.966 . S
Co137 N146 2.022 . S
Co137 N154 1.993 . S
Co137 O162 1.941 . S
C138 O139 1.258 . S
C138 O140 1.263 . S
O139 Co136 1.970 . S
O139 C138 1.258 . S
O140 Co137 1.966 . S
O140 C138 1.263 . S
C141 O142 1.235 . S
C141 O168 1.289 . S
O142 C141 1.235 . S
C143 C145 1.400 . S
C143 N146 1.351 . S
C143 C148 1.501 . S
C144 C145 1.387 . S
C144 N147 1.341 . S
C145 C143 1.400 . S
C145 C144 1.387 . S
N146 Co137 2.022 . S
N146 C143 1.351 . S
N146 N147 1.365 . S
N147 C144 1.341 . S
N147 N146 1.365 . S
N147 H167 0.862 . S
C148 C143 1.501 . S
C148 H149 0.961 . S
C148 H150 0.961 . S
C148 H151 0.960 . S
H149 C148 0.961 . S
H150 C148 0.961 . S
H151 C148 0.960 . S
C152 N153 1.342 . S
C152 C156 1.401 . S
C152 C157 1.499 . S
N153 Co136 1.989 . S
N153 C152 1.342 . S
N153 N154 1.388 . S
N154 Co137 1.993 . S
N154 N153 1.388 . S
N154 C155 1.346 . S
C155 N154 1.346 . S
C155 C156 1.396 . S
C155 C165 1.510 . S
C156 C152 1.401 . S
C156 C155 1.396 . S
C157 C152 1.499 . S
C157 H158 0.959 . S
C157 H159 0.960 . S
C157 H160 0.961 . S
H158 C157 0.959 . S
H159 C157 0.960 . S
H160 C157 0.961 . S
O161 Co136 1.967 . S
O161 C169 1.258 . S
O162 Co137 1.941 . S
O162 C169 1.266 . S
H163 C165 0.959 . S
H164 C165 0.961 . S
C165 C155 1.510 . S
C165 H163 0.959 . S
C165 H164 0.961 . S
C165 H166 0.960 . S
H166 C165 0.960 . S
H167 N147 0.862 . S
O168 Co136 1.920 . S
O168 C141 1.289 . S
C169 O161 1.258 . S
C169 O162 1.266 . S
Co170 O173 1.970 . S
Co170 N187 1.989 . S
Co170 O195 1.967 . S
Co170 O202 1.920 . S
Co171 O174 1.966 . S
Co171 N180 2.022 . S
Co171 N188 1.993 . S
Co171 O196 1.941 . S
C172 O173 1.258 . S
C172 O174 1.263 . S
O173 Co170 1.970 . S
O173 C172 1.258 . S
O174 Co171 1.966 . S
O174 C172 1.263 . S
C175 O176 1.235 . S
C175 O202 1.289 . S
O176 C175 1.235 . S
C177 C179 1.400 . S
C177 N180 1.351 . S
C177 C182 1.501 . S
C178 C179 1.387 . S
C178 N181 1.341 . S
C179 C177 1.400 . S
C179 C178 1.387 . S
N180 Co171 2.022 . S
N180 C177 1.351 . S
N180 N181 1.365 . S
N181 C178 1.341 . S
N181 N180 1.365 . S
N181 H201 0.862 . S
C182 C177 1.501 . S
C182 H183 0.961 . S
C182 H184 0.961 . S
C182 H185 0.960 . S
H183 C182 0.961 . S
H184 C182 0.961 . S
H185 C182 0.960 . S
C186 N187 1.342 . S
C186 C190 1.401 . S
C186 C191 1.499 . S
N187 Co170 1.989 . S
N187 C186 1.342 . S
N187 N188 1.388 . S
N188 Co171 1.993 . S
N188 N187 1.388 . S
N188 C189 1.346 . S
C189 N188 1.346 . S
C189 C190 1.396 . S
C189 C199 1.510 . S
C190 C186 1.401 . S
C190 C189 1.396 . S
C191 C186 1.499 . S
C191 H192 0.959 . S
C191 H193 0.960 . S
C191 H194 0.961 . S
H192 C191 0.959 . S
H193 C191 0.960 . S
H194 C191 0.961 . S
O195 Co170 1.967 . S
O195 C203 1.258 . S
O196 Co171 1.941 . S
O196 C203 1.266 . S
H197 C199 0.959 . S
H198 C199 0.961 . S
C199 C189 1.510 . S
C199 H197 0.959 . S
C199 H198 0.961 . S
C199 H200 0.960 . S
H200 C199 0.960 . S
H201 N181 0.862 . S
O202 Co170 1.920 . S
O202 C175 1.289 . S
C203 O195 1.258 . S
C203 O196 1.266 . S
Co204 O207 1.970 . S
Co204 N221 1.989 . S
Co204 O229 1.967 . S
Co204 O236 1.920 . S
Co205 O208 1.966 . S
Co205 N214 2.022 . S
Co205 N222 1.993 . S
Co205 O230 1.941 . S
C206 O207 1.258 . S
C206 O208 1.263 . S
O207 Co204 1.970 . S
O207 C206 1.258 . S
O208 Co205 1.966 . S
O208 C206 1.263 . S
C209 O210 1.235 . S
C209 O236 1.289 . S
O210 C209 1.235 . S
C211 C213 1.400 . S
C211 N214 1.351 . S
C211 C216 1.501 . S
C212 C213 1.387 . S
C212 N215 1.341 . S
C213 C211 1.400 . S
C213 C212 1.387 . S
N214 Co205 2.022 . S
N214 C211 1.351 . S
N214 N215 1.365 . S
N215 C212 1.341 . S
N215 N214 1.365 . S
N215 H235 0.862 . S
C216 C211 1.501 . S
C216 H217 0.961 . S
C216 H218 0.961 . S
C216 H219 0.960 . S
H217 C216 0.961 . S
H218 C216 0.961 . S
H219 C216 0.960 . S
C220 N221 1.342 . S
C220 C224 1.401 . S
C220 C225 1.499 . S
N221 Co204 1.989 . S
N221 C220 1.342 . S
N221 N222 1.388 . S
N222 Co205 1.993 . S
N222 N221 1.388 . S
N222 C223 1.346 . S
C223 N222 1.346 . S
C223 C224 1.396 . S
C223 C233 1.510 . S
C224 C220 1.401 . S
C224 C223 1.396 . S
C225 C220 1.499 . S
C225 H226 0.959 . S
C225 H227 0.960 . S
C225 H228 0.961 . S
H226 C225 0.959 . S
H227 C225 0.960 . S
H228 C225 0.961 . S
O229 Co204 1.967 . S
O229 C237 1.258 . S
O230 Co205 1.941 . S
O230 C237 1.266 . S
H231 C233 0.959 . S
H232 C233 0.961 . S
C233 C223 1.510 . S
C233 H231 0.959 . S
C233 H232 0.961 . S
C233 H234 0.960 . S
H234 C233 0.960 . S
H235 N215 0.862 . S
O236 Co204 1.920 . S
O236 C209 1.289 . S
C237 O229 1.258 . S
C237 O230 1.266 . S
Co238 O241 1.970 1_554 S
Co238 N255 1.989 . S
Co238 O263 1.967 . S
Co238 O270 1.920 . S
Co239 O242 1.966 . S
Co239 N248 2.022 . S
Co239 N256 1.993 1_556 S
Co239 O264 1.941 1_556 S
C240 O241 1.258 . S
C240 O242 1.263 . S
O241 Co238 1.970 1_556 S
O241 C240 1.258 . S
O242 Co239 1.966 . S
O242 C240 1.263 . S
C243 O244 1.235 . S
C243 O270 1.289 . S
O244 C243 1.235 . S
C245 C247 1.400 . S
C245 N248 1.351 . S
C245 C250 1.501 . S
C246 C247 1.387 . S
C246 N249 1.341 . S
C247 C245 1.400 . S
C247 C246 1.387 . S
N248 Co239 2.022 . S
N248 C245 1.351 . S
N248 N249 1.365 . S
N249 C246 1.341 . S
N249 N248 1.365 . S
N249 H269 0.862 . S
C250 C245 1.501 . S
C250 H251 0.961 . S
C250 H252 0.961 . S
C250 H253 0.960 . S
H251 C250 0.961 . S
H252 C250 0.961 . S
H253 C250 0.960 . S
C254 N255 1.342 . S
C254 C258 1.401 . S
C254 C259 1.499 . S
N255 Co238 1.989 . S
N255 C254 1.342 . S
N255 N256 1.388 . S
N256 Co239 1.993 1_554 S
N256 N255 1.388 . S
N256 C257 1.346 . S
C257 N256 1.346 . S
C257 C258 1.396 . S
C257 C267 1.510 1_554 S
C258 C254 1.401 . S
C258 C257 1.396 . S
C259 C254 1.499 . S
C259 H260 0.959 . S
C259 H261 0.960 . S
C259 H262 0.961 . S
H260 C259 0.959 . S
H261 C259 0.960 . S
H262 C259 0.961 . S
O263 Co238 1.967 . S
O263 C271 1.258 . S
O264 Co239 1.941 1_554 S
O264 C271 1.266 . S
H265 C267 0.959 . S
H266 C267 0.961 . S
C267 C257 1.510 1_556 S
C267 H265 0.959 . S
C267 H266 0.961 . S
C267 H268 0.960 . S
H268 C267 0.960 . S
H269 N249 0.862 . S
O270 Co238 1.920 . S
O270 C243 1.289 . S
C271 O263 1.258 . S
C271 O264 1.266 . S
Co272 O275 1.970 . S
Co272 N289 1.989 . S
Co272 O297 1.967 . S
Co272 O304 1.920 . S
Co273 O276 1.966 . S
Co273 N282 2.022 . S
Co273 N290 1.993 . S
Co273 O298 1.941 . S
C274 O275 1.258 . S
C274 O276 1.263 . S
O275 Co272 1.970 . S
O275 C274 1.258 . S
O276 Co273 1.966 . S
O276 C274 1.263 . S
C277 O278 1.235 . S
C277 O304 1.289 . S
O278 C277 1.235 . S
C279 C281 1.400 . S
C279 N282 1.351 . S
C279 C284 1.501 . S
C280 C281 1.387 . S
C280 N283 1.341 . S
C281 C279 1.400 . S
C281 C280 1.387 . S
N282 Co273 2.022 . S
N282 C279 1.351 . S
N282 N283 1.365 . S
N283 C280 1.341 . S
N283 N282 1.365 . S
N283 H303 0.862 . S
C284 C279 1.501 . S
C284 H285 0.961 . S
C284 H286 0.961 . S
C284 H287 0.960 . S
H285 C284 0.961 . S
H286 C284 0.961 . S
H287 C284 0.960 . S
C288 N289 1.342 . S
C288 C292 1.401 . S
C288 C293 1.499 . S
N289 Co272 1.989 . S
N289 C288 1.342 . S
N289 N290 1.388 . S
N290 Co273 1.993 . S
N290 N289 1.388 . S
N290 C291 1.346 . S
C291 N290 1.346 . S
C291 C292 1.396 . S
C291 C301 1.510 . S
C292 C288 1.401 . S
C292 C291 1.396 . S
C293 C288 1.499 . S
C293 H294 0.959 . S
C293 H295 0.960 . S
C293 H296 0.961 . S
H294 C293 0.959 . S
H295 C293 0.960 . S
H296 C293 0.961 . S
O297 Co272 1.967 . S
O297 C305 1.258 . S
O298 Co273 1.941 . S
O298 C305 1.266 . S
H299 C301 0.959 . S
H300 C301 0.961 . S
C301 C291 1.510 . S
C301 H299 0.959 . S
C301 H300 0.961 . S
C301 H302 0.960 . S
H302 C301 0.960 . S
H303 N283 0.862 . S
O304 Co272 1.920 . S
O304 C277 1.289 . S
C305 O297 1.258 . S
C305 O298 1.266 . S
Co306 O309 1.970 . S
Co306 N323 1.989 . S
Co306 O331 1.967 . S
Co306 O338 1.920 . S
Co307 O310 1.966 . S
Co307 N316 2.022 . S
Co307 N324 1.993 . S
Co307 O332 1.941 . S
C308 O309 1.258 . S
C308 O310 1.263 . S
O309 Co306 1.970 . S
O309 C308 1.258 . S
O310 Co307 1.966 . S
O310 C308 1.263 . S
C311 O312 1.235 . S
C311 O338 1.289 . S
O312 C311 1.235 . S
C313 C315 1.400 . S
C313 N316 1.351 . S
C313 C318 1.501 . S
C314 C315 1.387 . S
C314 N317 1.341 . S
C315 C313 1.400 . S
C315 C314 1.387 . S
N316 Co307 2.022 . S
N316 C313 1.351 . S
N316 N317 1.365 . S
N317 C314 1.341 . S
N317 N316 1.365 . S
N317 H337 0.862 . S
C318 C313 1.501 . S
C318 H319 0.961 . S
C318 H320 0.961 . S
C318 H321 0.960 . S
H319 C318 0.961 . S
H320 C318 0.961 . S
H321 C318 0.960 . S
C322 N323 1.342 . S
C322 C326 1.401 . S
C322 C327 1.499 . S
N323 Co306 1.989 . S
N323 C322 1.342 . S
N323 N324 1.388 . S
N324 Co307 1.993 . S
N324 N323 1.388 . S
N324 C325 1.346 . S
C325 N324 1.346 . S
C325 C326 1.396 . S
C325 C335 1.510 . S
C326 C322 1.401 . S
C326 C325 1.396 . S
C327 C322 1.499 . S
C327 H328 0.959 . S
C327 H329 0.960 . S
C327 H330 0.961 . S
H328 C327 0.959 . S
H329 C327 0.960 . S
H330 C327 0.961 . S
O331 Co306 1.967 . S
O331 C339 1.258 . S
O332 Co307 1.941 . S
O332 C339 1.266 . S
H333 C335 0.959 . S
H334 C335 0.961 . S
C335 C325 1.510 . S
C335 H333 0.959 . S
C335 H334 0.961 . S
C335 H336 0.960 . S
H336 C335 0.960 . S
H337 N317 0.862 . S
O338 Co306 1.920 . S
O338 C311 1.289 . S
C339 O331 1.258 . S
C339 O332 1.266 . S
Co340 O343 1.970 . S
Co340 N357 1.989 . S
Co340 O365 1.967 . S
Co340 O372 1.920 . S
Co341 O344 1.966 . S
Co341 N350 2.022 . S
Co341 N358 1.993 . S
Co341 O366 1.941 . S
C342 O343 1.258 . S
C342 O344 1.263 . S
O343 Co340 1.970 . S
O343 C342 1.258 . S
O344 Co341 1.966 . S
O344 C342 1.263 . S
C345 O346 1.235 . S
C345 O372 1.289 . S
O346 C345 1.235 . S
C347 C349 1.400 . S
C347 N350 1.351 . S
C347 C352 1.501 . S
C348 C349 1.387 . S
C348 N351 1.341 . S
C349 C347 1.400 . S
C349 C348 1.387 . S
N350 Co341 2.022 . S
N350 C347 1.351 . S
N350 N351 1.365 . S
N351 C348 1.341 . S
N351 N350 1.365 . S
N351 H371 0.862 . S
C352 C347 1.501 . S
C352 H353 0.961 . S
C352 H354 0.961 . S
C352 H355 0.960 . S
H353 C352 0.961 . S
H354 C352 0.961 . S
H355 C352 0.960 . S
C356 N357 1.342 . S
C356 C360 1.401 . S
C356 C361 1.499 . S
N357 Co340 1.989 . S
N357 C356 1.342 . S
N357 N358 1.388 . S
N358 Co341 1.993 . S
N358 N357 1.388 . S
N358 C359 1.346 . S
C359 N358 1.346 . S
C359 C360 1.396 . S
C359 C369 1.510 . S
C360 C356 1.401 . S
C360 C359 1.396 . S
C361 C356 1.499 . S
C361 H362 0.959 . S
C361 H363 0.960 . S
C361 H364 0.961 . S
H362 C361 0.959 . S
H363 C361 0.960 . S
H364 C361 0.961 . S
O365 Co340 1.967 . S
O365 C373 1.258 . S
O366 Co341 1.941 . S
O366 C373 1.266 . S
H367 C369 0.959 . S
H368 C369 0.961 . S
C369 C359 1.510 . S
C369 H367 0.959 . S
C369 H368 0.961 . S
C369 H370 0.960 . S
H370 C369 0.960 . S
H371 N351 0.862 . S
O372 Co340 1.920 . S
O372 C345 1.289 . S
C373 O365 1.258 . S
C373 O366 1.266 . S
Co374 O377 1.970 . S
Co374 N391 1.989 . S
Co374 O399 1.967 . S
Co374 O406 1.920 . S
Co375 O378 1.966 . S
Co375 N384 2.022 . S
Co375 N392 1.993 . S
Co375 O400 1.941 . S
C376 O377 1.258 . S
C376 O378 1.263 . S
O377 Co374 1.970 . S
O377 C376 1.258 . S
O378 Co375 1.966 . S
O378 C376 1.263 . S
C379 O380 1.235 . S
C379 O406 1.289 . S
O380 C379 1.235 . S
C381 C383 1.400 . S
C381 N384 1.351 . S
C381 C386 1.501 . S
C382 C383 1.387 . S
C382 N385 1.341 . S
C383 C381 1.400 . S
C383 C382 1.387 . S
N384 Co375 2.022 . S
N384 C381 1.351 . S
N384 N385 1.365 . S
N385 C382 1.341 . S
N385 N384 1.365 . S
N385 H405 0.862 . S
C386 C381 1.501 . S
C386 H387 0.961 . S
C386 H388 0.961 . S
C386 H389 0.960 . S
H387 C386 0.961 . S
H388 C386 0.961 . S
H389 C386 0.960 . S
C390 N391 1.342 . S
C390 C394 1.401 . S
C390 C395 1.499 . S
N391 Co374 1.989 . S
N391 C390 1.342 . S
N391 N392 1.388 . S
N392 Co375 1.993 . S
N392 N391 1.388 . S
N392 C393 1.346 . S
C393 N392 1.346 . S
C393 C394 1.396 . S
C393 C403 1.510 . S
C394 C390 1.401 . S
C394 C393 1.396 . S
C395 C390 1.499 . S
C395 H396 0.959 . S
C395 H397 0.960 . S
C395 H398 0.961 . S
H396 C395 0.959 . S
H397 C395 0.960 . S
H398 C395 0.961 . S
O399 Co374 1.967 . S
O399 C407 1.258 . S
O400 Co375 1.941 . S
O400 C407 1.266 . S
H401 C403 0.959 . S
H402 C403 0.961 . S
C403 C393 1.510 . S
C403 H401 0.959 . S
C403 H402 0.961 . S
C403 H404 0.960 . S
H404 C403 0.960 . S
H405 N385 0.862 . S
O406 Co374 1.920 . S
O406 C379 1.289 . S
C407 O399 1.258 . S
C407 O400 1.266 . S
H408 C426 0.951 . S
H409 C428 0.951 . S
H410 C430 0.950 . S
H411 C431 0.950 . S
H412 C433 0.950 . S
H413 C436 0.950 . S
H414 C437 0.950 . S
H415 C439 0.950 . S
H416 C440 0.950 . S
H417 C441 0.951 . S
H418 C443 0.951 . S
H419 C445 0.950 . S
H420 C446 0.950 . S
H421 C448 0.950 . S
H422 C451 0.950 . S
H423 C452 0.950 . S
H424 C454 0.950 . S
H425 C455 0.950 . S
C426 H408 0.951 . S
C426 C427 1.366 . S
C426 C428 1.388 . S
C427 C426 1.366 . S
C427 C431 1.385 . S
C428 H409 0.951 . S
C428 C426 1.388 . S
C428 C429 1.366 . S
C429 C428 1.366 . S
C429 C430 1.414 . S
C429 C432 1.499 . S
C430 H410 0.950 . S
C430 C429 1.414 . S
C430 C431 1.374 . S
C431 H411 0.950 . S
C431 C427 1.385 . S
C431 C430 1.374 . S
C432 C429 1.499 . S
C432 C433 1.373 . S
C432 C434 1.389 . S
C433 H412 0.950 . S
C433 C432 1.373 . S
C433 C449 1.377 . S
C434 C432 1.389 . S
C434 C435 1.524 . S
C434 C448 1.377 . S
C435 C434 1.524 . S
C435 C436 1.397 . S
C435 C440 1.363 . S
C436 H413 0.950 . S
C436 C435 1.397 . S
C436 C437 1.334 . S
C437 H414 0.950 . S
C437 C436 1.334 . S
C437 C438 1.287 . S
C438 C437 1.287 . S
C438 C439 1.524 . S
C438 H457 0.913 . S
C439 H415 0.950 . S
C439 C438 1.524 . S
C439 C440 1.415 . S
C440 H416 0.950 . S
C440 C435 1.363 . S
C440 C439 1.415 . S
C441 H417 0.951 . S
C441 C442 1.366 . S
C441 C443 1.388 . S
C442 C441 1.366 . S
C442 C446 1.385 . S
C443 H418 0.951 . S
C443 C441 1.388 . S
C443 C444 1.366 . S
C444 C443 1.366 . S
C444 C445 1.414 . S
C444 C447 1.499 . S
C445 H419 0.950 . S
C445 C444 1.414 . S
C445 C446 1.374 . S
C446 H420 0.950 . S
C446 C442 1.385 . S
C446 C445 1.374 . S
C447 C444 1.499 . S
C447 C448 1.373 . S
C447 C449 1.389 . S
C448 H421 0.950 . S
C448 C434 1.377 . S
C448 C447 1.373 . S
C449 C433 1.377 . S
C449 C447 1.389 . S
C449 C450 1.524 . S
C450 C449 1.524 . S
C450 C451 1.397 . S
C450 C455 1.363 . S
C451 H422 0.950 . S
C451 C450 1.397 . S
C451 C452 1.334 . S
C452 H423 0.950 . S
C452 C451 1.334 . S
C452 C453 1.287 . S
C453 C452 1.287 . S
C453 C454 1.524 . S
C453 H456 0.999 . S
C454 H424 0.950 . S
C454 C453 1.524 . S
C454 C455 1.415 . S
C455 H425 0.950 . S
C455 C450 1.363 . S
C455 C454 1.415 . S
H456 C453 0.999 . S
H457 C438 0.913 . S
H458 C476 0.951 . S
H459 C478 0.951 . S
H460 C480 0.950 . S
H461 C481 0.950 . S
H462 C483 0.950 . S
H463 C486 0.950 . S
H464 C487 0.950 . S
H465 C489 0.950 . S
H466 C490 0.950 . S
H467 C491 0.951 . S
H468 C493 0.951 . S
H469 C495 0.950 . S
H470 C496 0.950 . S
H471 C498 0.950 . S
H472 C501 0.950 . S
H473 C502 0.950 . S
H474 C504 0.950 . S
H475 C505 0.950 . S
C476 H458 0.951 . S
C476 C477 1.366 . S
C476 C478 1.388 . S
C477 C476 1.366 . S
C477 C481 1.385 . S
C478 H459 0.951 . S
C478 C476 1.388 . S
C478 C479 1.366 . S
C479 C478 1.366 . S
C479 C480 1.414 . S
C479 C482 1.499 . S
C480 H460 0.950 . S
C480 C479 1.414 . S
C480 C481 1.374 . S
C481 H461 0.950 . S
C481 C477 1.385 . S
C481 C480 1.374 . S
C482 C479 1.499 . S
C482 C483 1.373 . S
C482 C484 1.389 . S
C483 H462 0.950 . S
C483 C482 1.373 . S
C483 C499 1.377 . S
C484 C482 1.389 . S
C484 C485 1.524 . S
C484 C498 1.377 . S
C485 C484 1.524 . S
C485 C486 1.397 . S
C485 C490 1.363 . S
C486 H463 0.950 . S
C486 C485 1.397 . S
C486 C487 1.334 . S
C487 H464 0.950 . S
C487 C486 1.334 . S
C487 C488 1.287 . S
C488 C487 1.287 . S
C488 C489 1.524 . S
C488 H507 0.913 . S
C489 H465 0.950 . S
C489 C488 1.524 . S
C489 C490 1.415 . S
C490 H466 0.950 . S
C490 C485 1.363 . S
C490 C489 1.415 . S
C491 H467 0.951 . S
C491 C492 1.366 . S
C491 C493 1.388 . S
C492 C491 1.366 . S
C492 C496 1.385 . S
C493 H468 0.951 . S
C493 C491 1.388 . S
C493 C494 1.366 . S
C494 C493 1.366 . S
C494 C495 1.414 . S
C494 C497 1.499 . S
C495 H469 0.950 . S
C495 C494 1.414 . S
C495 C496 1.374 . S
C496 H470 0.950 . S
C496 C492 1.385 . S
C496 C495 1.374 . S
C497 C494 1.499 . S
C497 C498 1.373 . S
C497 C499 1.389 . S
C498 H471 0.950 . S
C498 C484 1.377 . S
C498 C497 1.373 . S
C499 C483 1.377 . S
C499 C497 1.389 . S
C499 C500 1.524 . S
C500 C499 1.524 . S
C500 C501 1.397 . S
C500 C505 1.363 . S
C501 H472 0.950 . S
C501 C500 1.397 . S
C501 C502 1.334 . S
C502 H473 0.950 . S
C502 C501 1.334 . S
C502 C503 1.287 . S
C503 C502 1.287 . S
C503 C504 1.524 . S
C503 H506 0.999 . S
C504 H474 0.950 . S
C504 C503 1.524 . S
C504 C505 1.415 . S
C505 H475 0.950 . S
C505 C500 1.363 . S
C505 C504 1.415 . S
H506 C503 0.999 . S
H507 C488 0.913 . S
H508 C526 0.951 . S
H509 C528 0.951 . S
H510 C530 0.950 . S
H511 C531 0.950 . S
H512 C533 0.950 . S
H513 C536 0.950 . S
H514 C537 0.950 . S
H515 C539 0.950 . S
H516 C540 0.950 . S
H517 C541 0.951 . S
H518 C543 0.951 . S
H519 C545 0.950 . S
H520 C546 0.950 . S
H521 C548 0.950 . S
H522 C551 0.950 . S
H523 C552 0.950 . S
H524 C554 0.950 . S
H525 C555 0.950 . S
C526 H508 0.951 . S
C526 C527 1.366 . S
C526 C528 1.388 . S
C527 C526 1.366 . S
C527 C531 1.385 . S
C528 H509 0.951 . S
C528 C526 1.388 . S
C528 C529 1.366 . S
C529 C528 1.366 . S
C529 C530 1.414 . S
C529 C532 1.499 . S
C530 H510 0.950 . S
C530 C529 1.414 . S
C530 C531 1.374 . S
C531 H511 0.950 . S
C531 C527 1.385 . S
C531 C530 1.374 . S
C532 C529 1.499 . S
C532 C533 1.373 . S
C532 C534 1.389 . S
C533 H512 0.950 . S
C533 C532 1.373 . S
C533 C549 1.377 . S
C534 C532 1.389 . S
C534 C535 1.524 . S
C534 C548 1.377 . S
C535 C534 1.524 . S
C535 C536 1.397 . S
C535 C540 1.363 . S
C536 H513 0.950 . S
C536 C535 1.397 . S
C536 C537 1.334 . S
C537 H514 0.950 . S
C537 C536 1.334 . S
C537 C538 1.287 . S
C538 C537 1.287 . S
C538 C539 1.524 . S
C538 H557 0.913 . S
C539 H515 0.950 . S
C539 C538 1.524 . S
C539 C540 1.415 . S
C540 H516 0.950 . S
C540 C535 1.363 . S
C540 C539 1.415 . S
C541 H517 0.951 . S
C541 C542 1.366 . S
C541 C543 1.388 . S
C542 C541 1.366 . S
C542 C546 1.385 . S
C543 H518 0.951 . S
C543 C541 1.388 . S
C543 C544 1.366 . S
C544 C543 1.366 . S
C544 C545 1.414 . S
C544 C547 1.499 . S
C545 H519 0.950 . S
C545 C544 1.414 . S
C545 C546 1.374 . S
C546 H520 0.950 . S
C546 C542 1.385 . S
C546 C545 1.374 . S
C547 C544 1.499 . S
C547 C548 1.373 . S
C547 C549 1.389 . S
C548 H521 0.950 . S
C548 C534 1.377 . S
C548 C547 1.373 . S
C549 C533 1.377 . S
C549 C547 1.389 . S
C549 C550 1.524 . S
C550 C549 1.524 . S
C550 C551 1.397 . S
C550 C555 1.363 . S
C551 H522 0.950 . S
C551 C550 1.397 . S
C551 C552 1.334 . S
C552 H523 0.950 . S
C552 C551 1.334 . S
C552 C553 1.287 . S
C553 C552 1.287 . S
C553 C554 1.524 . S
C553 H556 0.999 . S
C554 H524 0.950 . S
C554 C553 1.524 . S
C554 C555 1.415 . S
C555 H525 0.950 . S
C555 C550 1.363 . S
C555 C554 1.415 . S
H556 C553 0.999 . S
H557 C538 0.913 . S
H558 C576 0.951 . S
H559 C578 0.951 . S
H560 C580 0.950 . S
H561 C581 0.950 . S
H562 C583 0.950 . S
H563 C586 0.950 . S
H564 C587 0.950 . S
H565 C589 0.950 . S
H566 C590 0.950 . S
H567 C591 0.951 . S
H568 C593 0.951 . S
H569 C595 0.950 . S
H570 C596 0.950 . S
H571 C598 0.950 . S
H572 C601 0.950 . S
H573 C602 0.950 . S
H574 C604 0.950 . S
H575 C605 0.950 . S
C576 H558 0.951 . S
C576 C577 1.366 . S
C576 C578 1.388 . S
C577 C576 1.366 . S
C577 C581 1.385 . S
C578 H559 0.951 . S
C578 C576 1.388 . S
C578 C579 1.366 . S
C579 C578 1.366 . S
C579 C580 1.414 . S
C579 C582 1.499 . S
C580 H560 0.950 . S
C580 C579 1.414 . S
C580 C581 1.374 . S
C581 H561 0.950 . S
C581 C577 1.385 . S
C581 C580 1.374 . S
C582 C579 1.499 . S
C582 C583 1.373 . S
C582 C584 1.389 . S
C583 H562 0.950 . S
C583 C582 1.373 . S
C583 C599 1.377 . S
C584 C582 1.389 . S
C584 C585 1.524 . S
C584 C598 1.377 . S
C585 C584 1.524 . S
C585 C586 1.397 . S
C585 C590 1.363 . S
C586 H563 0.950 . S
C586 C585 1.397 . S
C586 C587 1.334 . S
C587 H564 0.950 . S
C587 C586 1.334 . S
C587 C588 1.287 . S
C588 C587 1.287 . S
C588 C589 1.524 . S
C588 H607 0.913 . S
C589 H565 0.950 . S
C589 C588 1.524 . S
C589 C590 1.415 . S
C590 H566 0.950 . S
C590 C585 1.363 . S
C590 C589 1.415 . S
C591 H567 0.951 . S
C591 C592 1.366 . S
C591 C593 1.388 . S
C592 C591 1.366 . S
C592 C596 1.385 . S
C593 H568 0.951 . S
C593 C591 1.388 . S
C593 C594 1.366 . S
C594 C593 1.366 . S
C594 C595 1.414 . S
C594 C597 1.499 . S
C595 H569 0.950 . S
C595 C594 1.414 . S
C595 C596 1.374 . S
C596 H570 0.950 . S
C596 C592 1.385 . S
C596 C595 1.374 . S
C597 C594 1.499 . S
C597 C598 1.373 . S
C597 C599 1.389 . S
C598 H571 0.950 . S
C598 C584 1.377 . S
C598 C597 1.373 . S
C599 C583 1.377 . S
C599 C597 1.389 . S
C599 C600 1.524 . S
C600 C599 1.524 . S
C600 C601 1.397 . S
C600 C605 1.363 . S
C601 H572 0.950 . S
C601 C600 1.397 . S
C601 C602 1.334 . S
C602 H573 0.950 . S
C602 C601 1.334 . S
C602 C603 1.287 . S
C603 C602 1.287 . S
C603 C604 1.524 . S
C603 H606 0.999 . S
C604 H574 0.950 . S
C604 C603 1.524 . S
C604 C605 1.415 . S
C605 H575 0.950 . S
C605 C600 1.363 . S
C605 C604 1.415 . S
H606 C603 0.999 . S
H607 C588 0.913 . S
H608 C626 0.951 . S
H609 C628 0.951 . S
H610 C630 0.950 . S
H611 C631 0.950 . S
H612 C633 0.950 . S
H613 C636 0.950 . S
H614 C637 0.950 . S
H615 C639 0.950 . S
H616 C640 0.950 . S
H617 C641 0.951 . S
H618 C643 0.951 1_556 S
H619 C645 0.950 1_556 S
H620 C646 0.950 . S
H621 C648 0.950 . S
H622 C651 0.950 . S
H623 C652 0.950 . S
H624 C654 0.950 . S
H625 C655 0.950 . S
C626 H608 0.951 . S
C626 C627 1.366 . S
C626 C628 1.388 . S
C627 C626 1.366 . S
C627 C631 1.385 . S
C628 H609 0.951 . S
C628 C626 1.388 . S
C628 C629 1.366 . S
C629 C628 1.366 . S
C629 C630 1.414 . S
C629 C632 1.499 . S
C630 H610 0.950 . S
C630 C629 1.414 . S
C630 C631 1.374 . S
C631 H611 0.950 . S
C631 C627 1.385 . S
C631 C630 1.374 . S
C632 C629 1.499 . S
C632 C633 1.373 . S
C632 C634 1.389 . S
C633 H612 0.950 . S
C633 C632 1.373 . S
C633 C649 1.377 . S
C634 C632 1.389 . S
C634 C635 1.524 . S
C634 C648 1.377 . S
C635 C634 1.524 . S
C635 C636 1.397 . S
C635 C640 1.363 . S
C636 H613 0.950 . S
C636 C635 1.397 . S
C636 C637 1.334 . S
C637 H614 0.950 . S
C637 C636 1.334 . S
C637 C638 1.287 . S
C638 C637 1.287 . S
C638 C639 1.524 . S
C638 H657 0.913 . S
C639 H615 0.950 . S
C639 C638 1.524 . S
C639 C640 1.415 . S
C640 H616 0.950 . S
C640 C635 1.363 . S
C640 C639 1.415 . S
C641 H617 0.951 . S
C641 C642 1.366 . S
C641 C643 1.388 . S
C642 C641 1.366 . S
C642 C646 1.385 . S
C643 H618 0.951 1_554 S
C643 C641 1.388 . S
C643 C644 1.366 1_554 S
C644 C643 1.366 1_556 S
C644 C645 1.414 1_556 S
C644 C647 1.499 . S
C645 H619 0.950 1_554 S
C645 C644 1.414 1_554 S
C645 C646 1.374 . S
C646 H620 0.950 . S
C646 C642 1.385 . S
C646 C645 1.374 . S
C647 C644 1.499 . S
C647 C648 1.373 . S
C647 C649 1.389 . S
C648 H621 0.950 . S
C648 C634 1.377 . S
C648 C647 1.373 . S
C649 C633 1.377 . S
C649 C647 1.389 . S
C649 C650 1.524 . S
C650 C649 1.524 . S
C650 C651 1.397 . S
C650 C655 1.363 . S
C651 H622 0.950 . S
C651 C650 1.397 . S
C651 C652 1.334 . S
C652 H623 0.950 . S
C652 C651 1.334 . S
C652 C653 1.287 . S
C653 C652 1.287 . S
C653 C654 1.524 . S
C653 H656 0.999 . S
C654 H624 0.950 . S
C654 C653 1.524 . S
C654 C655 1.415 . S
C655 H625 0.950 . S
C655 C650 1.363 . S
C655 C654 1.415 . S
H656 C653 0.999 . S
H657 C638 0.913 . S
H658 C676 0.951 . S
H659 C678 0.951 1_554 S
H660 C680 0.959 . S
H661 C681 0.950 . S
H662 C683 0.950 . S
H663 C686 0.950 . S
H664 C687 0.950 . S
H665 C689 0.950 . S
H666 C690 0.950 . S
H667 C691 0.951 . S
H668 C693 0.951 . S
H669 C695 0.950 . S
H670 C696 0.950 . S
H671 C698 0.950 . S
H672 C701 0.950 . S
H673 C702 0.950 . S
H674 C704 0.950 . S
H675 C705 0.950 . S
C676 H658 0.951 . S
C676 C677 1.366 . S
C676 C678 1.388 . S
C677 C676 1.366 . S
C677 C681 1.385 . S
C678 H659 0.951 1_556 S
C678 C676 1.388 . S
C678 C679 1.366 1_556 S
C679 C678 1.366 1_554 S
C679 C680 1.420 . S
C679 C682 1.499 . S
C680 H660 0.959 . S
C680 C679 1.420 . S
C680 C681 1.359 1_554 S
C681 H661 0.950 . S
C681 C677 1.385 . S
C681 C680 1.359 1_556 S
C682 C679 1.499 . S
C682 C683 1.373 . S
C682 C684 1.389 . S
C683 H662 0.950 . S
C683 C682 1.373 . S
C683 C699 1.377 . S
C684 C682 1.389 . S
C684 C685 1.524 . S
C684 C698 1.377 . S
C685 C684 1.524 . S
C685 C686 1.397 . S
C685 C690 1.363 . S
C686 H663 0.950 . S
C686 C685 1.397 . S
C686 C687 1.334 . S
C687 H664 0.950 . S
C687 C686 1.334 . S
C687 C688 1.287 . S
C688 C687 1.287 . S
C688 C689 1.524 . S
C688 H707 0.913 . S
C689 H665 0.950 . S
C689 C688 1.524 . S
C689 C690 1.415 . S
C690 H666 0.950 . S
C690 C685 1.363 . S
C690 C689 1.415 . S
C691 H667 0.951 . S
C691 C692 1.366 . S
C691 C693 1.388 . S
C692 C691 1.366 . S
C692 C696 1.385 . S
C693 H668 0.951 . S
C693 C691 1.388 . S
C693 C694 1.366 . S
C694 C693 1.366 . S
C694 C695 1.414 . S
C694 C697 1.499 . S
C695 H669 0.950 . S
C695 C694 1.414 . S
C695 C696 1.374 . S
C696 H670 0.950 . S
C696 C692 1.385 . S
C696 C695 1.374 . S
C697 C694 1.499 . S
C697 C698 1.373 . S
C697 C699 1.389 . S
C698 H671 0.950 . S
C698 C684 1.377 . S
C698 C697 1.373 . S
C699 C683 1.377 . S
C699 C697 1.389 . S
C699 C700 1.524 . S
C700 C699 1.524 . S
C700 C701 1.397 . S
C700 C705 1.363 . S
C701 H672 0.950 . S
C701 C700 1.397 . S
C701 C702 1.334 . S
C702 H673 0.950 . S
C702 C701 1.334 . S
C702 C703 1.287 . S
C703 C702 1.287 . S
C703 C704 1.524 . S
C703 H706 0.999 . S
C704 H674 0.950 . S
C704 C703 1.524 . S
C704 C705 1.415 . S
C705 H675 0.950 . S
C705 C700 1.363 . S
C705 C704 1.415 . S
H706 C703 0.999 . S
H707 C688 0.913 . S
H708 C726 0.951 . S
H709 C728 0.951 . S
H710 C730 0.950 . S
H711 C731 0.950 . S
H712 C733 0.950 . S
H713 C736 0.950 . S
H714 C737 0.950 . S
H715 C739 0.950 . S
H716 C740 0.950 . S
H717 C741 0.951 . S
H718 C743 0.951 . S
H719 C745 0.950 . S
H720 C746 0.950 . S
H721 C748 0.950 . S
H722 C751 0.950 . S
H723 C752 0.950 . S
H724 C754 0.950 . S
H725 C755 0.950 . S
C726 H708 0.951 . S
C726 C727 1.366 . S
C726 C728 1.388 . S
C727 C726 1.366 . S
C727 C731 1.385 . S
C728 H709 0.951 . S
C728 C726 1.388 . S
C728 C729 1.366 . S
C729 C728 1.366 . S
C729 C730 1.414 . S
C729 C732 1.499 . S
C730 H710 0.950 . S
C730 C729 1.414 . S
C730 C731 1.374 . S
C731 H711 0.950 . S
C731 C727 1.385 . S
C731 C730 1.374 . S
C732 C729 1.499 . S
C732 C733 1.373 . S
C732 C734 1.389 . S
C733 H712 0.950 . S
C733 C732 1.373 . S
C733 C749 1.377 . S
C734 C732 1.389 . S
C734 C735 1.524 . S
C734 C748 1.377 . S
C735 C734 1.524 . S
C735 C736 1.397 . S
C735 C740 1.363 . S
C736 H713 0.950 . S
C736 C735 1.397 . S
C736 C737 1.334 . S
C737 H714 0.950 . S
C737 C736 1.334 . S
C737 C738 1.287 . S
C738 C737 1.287 . S
C738 C739 1.524 . S
C738 H757 0.913 . S
C739 H715 0.950 . S
C739 C738 1.524 . S
C739 C740 1.415 . S
C740 H716 0.950 . S
C740 C735 1.363 . S
C740 C739 1.415 . S
C741 H717 0.951 . S
C741 C742 1.366 . S
C741 C743 1.388 . S
C742 C741 1.366 . S
C742 C746 1.385 . S
C743 H718 0.951 . S
C743 C741 1.388 . S
C743 C744 1.366 . S
C744 C743 1.366 . S
C744 C745 1.414 . S
C744 C747 1.499 . S
C745 H719 0.950 . S
C745 C744 1.414 . S
C745 C746 1.374 . S
C746 H720 0.950 . S
C746 C742 1.385 . S
C746 C745 1.374 . S
C747 C744 1.499 . S
C747 C748 1.373 . S
C747 C749 1.389 . S
C748 H721 0.950 . S
C748 C734 1.377 . S
C748 C747 1.373 . S
C749 C733 1.377 . S
C749 C747 1.389 . S
C749 C750 1.524 . S
C750 C749 1.524 . S
C750 C751 1.397 . S
C750 C755 1.363 . S
C751 H722 0.950 . S
C751 C750 1.397 . S
C751 C752 1.334 . S
C752 H723 0.950 . S
C752 C751 1.334 . S
C752 C753 1.287 . S
C753 C752 1.287 . S
C753 C754 1.524 . S
C753 H756 0.999 . S
C754 H724 0.950 . S
C754 C753 1.524 . S
C754 C755 1.415 . S
C755 H725 0.950 . S
C755 C750 1.363 . S
C755 C754 1.415 . S
H756 C753 0.999 . S
H757 C738 0.913 . S
H758 C776 0.951 . S
H759 C778 0.951 1_554 S
H760 C780 0.950 . S
H761 C781 0.950 . S
H762 C783 0.950 . S
H763 C786 0.950 . S
H764 C787 0.950 . S
H765 C789 0.950 . S
H766 C790 0.950 1_554 S
H767 C791 0.951 . S
H768 C793 0.951 . S
H769 C795 0.950 . S
H770 C796 0.950 . S
H771 C798 0.950 . S
H772 C801 0.950 . S
H773 C802 0.950 . S
H774 C804 0.950 . S
H775 C805 0.950 . S
C776 H758 0.951 . S
C776 C777 1.366 . S
C776 C778 1.388 . S
C777 C776 1.366 . S
C777 C781 1.385 . S
C778 H759 0.951 1_556 S
C778 C776 1.388 . S
C778 C779 1.366 . S
C779 C778 1.366 . S
C779 C780 1.414 . S
C779 C782 1.499 . S
C780 H760 0.950 . S
C780 C779 1.414 . S
C780 C781 1.374 . S
C781 H761 0.950 . S
C781 C777 1.385 . S
C781 C780 1.374 . S
C782 C779 1.499 . S
C782 C783 1.373 . S
C782 C784 1.389 . S
C783 H762 0.950 . S
C783 C782 1.373 . S
C783 C799 1.377 . S
C784 C782 1.389 . S
C784 C785 1.524 . S
C784 C798 1.377 . S
C785 C784 1.524 . S
C785 C786 1.397 . S
C785 C790 1.363 . S
C786 H763 0.950 . S
C786 C785 1.397 . S
C786 C787 1.334 . S
C787 H764 0.950 . S
C787 C786 1.334 . S
C787 C788 1.287 . S
C788 C787 1.287 . S
C788 C789 1.524 . S
C788 H807 0.913 . S
C789 H765 0.950 . S
C789 C788 1.524 . S
C789 C790 1.415 . S
C790 H766 0.950 1_556 S
C790 C785 1.363 . S
C790 C789 1.415 . S
C791 H767 0.951 . S
C791 C792 1.366 1_556 S
C791 C793 1.388 1_655 S
C792 C791 1.366 1_554 S
C792 C796 1.385 . S
C793 H768 0.951 . S
C793 C791 1.388 1_455 S
C793 C794 1.366 1_556 S
C794 C793 1.366 1_554 S
C794 C795 1.414 . S
C794 C797 1.499 1_554 S
C795 H769 0.950 . S
C795 C794 1.414 . S
C795 C796 1.374 1_455 S
C796 H770 0.950 . S
C796 C792 1.385 . S
C796 C795 1.374 1_655 S
C797 C794 1.499 1_556 S
C797 C798 1.373 . S
C797 C799 1.389 . S
C798 H771 0.950 . S
C798 C784 1.377 . S
C798 C797 1.373 . S
C799 C783 1.377 . S
C799 C797 1.389 . S
C799 C800 1.524 1_556 S
C800 C799 1.524 1_554 S
C800 C801 1.397 . S
C800 C805 1.363 1_554 S
C801 H772 0.950 . S
C801 C800 1.397 . S
C801 C802 1.334 . S
C802 H773 0.950 . S
C802 C801 1.334 . S
C802 C803 1.287 . S
C803 C802 1.287 . S
C803 C804 1.524 1_554 S
C803 H806 0.999 . S
C804 H774 0.950 . S
C804 C803 1.524 1_556 S
C804 C805 1.415 . S
C805 H775 0.950 . S
C805 C800 1.363 1_556 S
C805 C804 1.415 . S
H806 C803 0.999 . S
H807 C788 0.913 . S
H808 C826 0.951 . S
H809 C828 0.951 . S
H810 C830 0.950 . S
H811 C831 0.950 . S
H812 C833 0.950 . S
H813 C836 0.950 . S
H814 C837 0.950 . S
H815 C839 0.950 . S
H816 C840 0.950 . S
H817 C841 0.951 . S
H818 C843 0.951 . S
H819 C845 0.950 . S
H820 C846 0.950 . S
H821 C848 0.950 . S
H822 C851 0.950 . S
H823 C852 0.950 1_565 S
H824 C854 0.950 . S
H825 C855 0.950 . S
C826 H808 0.951 . S
C826 C827 1.366 . S
C826 C828 1.388 . S
C827 C826 1.366 . S
C827 C831 1.385 . S
C828 H809 0.951 . S
C828 C826 1.388 . S
C828 C829 1.366 . S
C829 C828 1.366 . S
C829 C830 1.414 . S
C829 C832 1.499 . S
C830 H810 0.950 . S
C830 C829 1.414 . S
C830 C831 1.374 . S
C831 H811 0.950 . S
C831 C827 1.385 . S
C831 C830 1.374 . S
C832 C829 1.499 . S
C832 C833 1.373 . S
C832 C834 1.389 . S
C833 H812 0.950 . S
C833 C832 1.373 . S
C833 C849 1.377 . S
C834 C832 1.389 . S
C834 C835 1.524 . S
C834 C848 1.377 . S
C835 C834 1.524 . S
C835 C836 1.397 . S
C835 C840 1.363 . S
C836 H813 0.950 . S
C836 C835 1.397 . S
C836 C837 1.334 . S
C837 H814 0.950 . S
C837 C836 1.334 . S
C837 C838 1.287 . S
C838 C837 1.287 . S
C838 C839 1.524 . S
C838 H857 0.913 . S
C839 H815 0.950 . S
C839 C838 1.524 . S
C839 C840 1.415 . S
C840 H816 0.950 . S
C840 C835 1.363 . S
C840 C839 1.415 . S
C841 H817 0.951 . S
C841 C842 1.366 . S
C841 C843 1.388 1_565 S
C842 C841 1.366 . S
C842 C846 1.385 . S
C843 H818 0.951 . S
C843 C841 1.388 1_545 S
C843 C844 1.366 . S
C844 C843 1.366 . S
C844 C845 1.414 . S
C844 C847 1.499 . S
C845 H819 0.950 . S
C845 C844 1.414 . S
C845 C846 1.374 1_545 S
C846 H820 0.950 . S
C846 C842 1.385 . S
C846 C845 1.374 1_565 S
C847 C844 1.499 . S
C847 C848 1.373 . S
C847 C849 1.389 . S
C848 H821 0.950 . S
C848 C834 1.377 . S
C848 C847 1.373 . S
C849 C833 1.377 . S
C849 C847 1.389 . S
C849 C850 1.524 . S
C850 C849 1.524 . S
C850 C851 1.397 . S
C850 C855 1.363 . S
C851 H822 0.950 . S
C851 C850 1.397 . S
C851 C852 1.334 . S
C852 H823 0.950 1_545 S
C852 C851 1.334 . S
C852 C853 1.287 . S
C853 C852 1.287 . S
C853 C854 1.524 . S
C853 H856 1.010 . S
C854 H824 0.950 . S
C854 C853 1.524 . S
C854 C855 1.415 . S
C855 H825 0.950 . S
C855 C850 1.363 . S
C855 C854 1.415 . S
H856 C853 1.010 . S
H857 C838 0.913 . S
H858 C876 0.951 . S
H859 C878 0.951 . S
H860 C880 0.950 . S
H861 C881 0.950 . S
H862 C883 0.950 . S
H863 C886 0.950 . S
H864 C887 0.950 . S
H865 C889 0.950 . S
H866 C890 0.950 . S
H867 C891 0.951 . S
H868 C893 0.951 . S
H869 C895 0.950 . S
H870 C896 0.950 . S
H871 C898 0.950 . S
H872 C901 0.950 . S
H873 C902 0.950 . S
H874 C904 0.950 . S
H875 C905 0.950 . S
C876 H858 0.951 . S
C876 C877 1.366 . S
C876 C878 1.388 . S
C877 C876 1.366 . S
C877 C881 1.385 . S
C878 H859 0.951 . S
C878 C876 1.388 . S
C878 C879 1.366 . S
C879 C878 1.366 . S
C879 C880 1.414 . S
C879 C882 1.499 . S
C880 H860 0.950 . S
C880 C879 1.414 . S
C880 C881 1.374 . S
C881 H861 0.950 . S
C881 C877 1.385 . S
C881 C880 1.374 . S
C882 C879 1.499 . S
C882 C883 1.373 . S
C882 C884 1.389 . S
C883 H862 0.950 . S
C883 C882 1.373 . S
C883 C899 1.377 . S
C884 C882 1.389 . S
C884 C885 1.524 . S
C884 C898 1.377 . S
C885 C884 1.524 . S
C885 C886 1.397 . S
C885 C890 1.363 . S
C886 H863 0.950 . S
C886 C885 1.397 . S
C886 C887 1.334 . S
C887 H864 0.950 . S
C887 C886 1.334 . S
C887 C888 1.287 . S
C888 C887 1.287 . S
C888 C889 1.524 . S
C888 H907 0.913 . S
C889 H865 0.950 . S
C889 C888 1.524 . S
C889 C890 1.415 . S
C890 H866 0.950 . S
C890 C885 1.363 . S
C890 C889 1.415 . S
C891 H867 0.951 . S
C891 C892 1.366 . S
C891 C893 1.388 . S
C892 C891 1.366 . S
C892 C896 1.385 . S
C893 H868 0.951 . S
C893 C891 1.388 . S
C893 C894 1.366 . S
C894 C893 1.366 . S
C894 C895 1.414 . S
C894 C897 1.499 . S
C895 H869 0.950 . S
C895 C894 1.414 . S
C895 C896 1.374 . S
C896 H870 0.950 . S
C896 C892 1.385 . S
C896 C895 1.374 . S
C897 C894 1.499 . S
C897 C898 1.373 . S
C897 C899 1.389 . S
C898 H871 0.950 . S
C898 C884 1.377 . S
C898 C897 1.373 . S
C899 C883 1.377 . S
C899 C897 1.389 . S
C899 C900 1.524 . S
C900 C899 1.524 . S
C900 C901 1.397 . S
C900 C905 1.363 . S
C901 H872 0.950 . S
C901 C900 1.397 . S
C901 C902 1.334 . S
C902 H873 0.950 . S
C902 C901 1.334 . S
C902 C903 1.287 . S
C903 C902 1.287 . S
C903 C904 1.524 . S
C903 H906 0.999 . S
C904 H874 0.950 . S
C904 C903 1.524 . S
C904 C905 1.415 . S
C905 H875 0.950 . S
C905 C900 1.363 . S
C905 C904 1.415 . S
H906 C903 0.999 . S
H907 C888 0.913 . S
H908 C926 0.951 . S
H909 C928 0.951 . S
H910 C930 0.950 . S
H911 C931 0.950 . S
H912 C933 0.950 . S
H913 C936 0.950 . S
H914 C937 0.950 . S
H915 C939 0.950 . S
H916 C940 0.950 . S
H917 C941 0.951 . S
H918 C943 0.951 . S
H919 C945 0.950 . S
H920 C946 0.950 . S
H921 C948 0.950 . S
H922 C951 0.950 . S
H923 C952 0.950 . S
H924 C954 0.950 . S
H925 C955 0.950 . S
C926 H908 0.951 . S
C926 C927 1.366 . S
C926 C928 1.388 1_455 S
C927 C926 1.366 . S
C927 C931 1.385 . S
C928 H909 0.951 . S
C928 C926 1.388 1_655 S
C928 C929 1.366 . S
C929 C928 1.366 . S
C929 C930 1.414 . S
C929 C932 1.499 . S
C930 H910 0.950 . S
C930 C929 1.414 . S
C930 C931 1.374 1_655 S
C931 H911 0.950 . S
C931 C927 1.385 . S
C931 C930 1.374 1_455 S
C932 C929 1.499 . S
C932 C933 1.373 . S
C932 C934 1.389 . S
C933 H912 0.950 . S
C933 C932 1.373 . S
C933 C949 1.377 . S
C934 C932 1.389 . S
C934 C935 1.524 . S
C934 C948 1.377 . S
C935 C934 1.524 . S
C935 C936 1.397 . S
C935 C940 1.363 . S
C936 H913 0.950 . S
C936 C935 1.397 . S
C936 C937 1.334 1_655 S
C937 H914 0.950 . S
C937 C936 1.334 1_455 S
C937 C938 1.287 . S
C938 C937 1.287 . S
C938 C939 1.524 1_455 S
C938 H957 0.913 . S
C939 H915 0.950 . S
C939 C938 1.524 1_655 S
C939 C940 1.415 . S
C940 H916 0.950 . S
C940 C935 1.363 . S
C940 C939 1.415 . S
C941 H917 0.951 . S
C941 C942 1.366 . S
C941 C943 1.388 . S
C942 C941 1.366 . S
C942 C946 1.385 . S
C943 H918 0.951 . S
C943 C941 1.388 . S
C943 C944 1.366 . S
C944 C943 1.366 . S
C944 C945 1.414 . S
C944 C947 1.499 . S
C945 H919 0.950 . S
C945 C944 1.414 . S
C945 C946 1.374 . S
C946 H920 0.950 . S
C946 C942 1.385 . S
C946 C945 1.374 . S
C947 C944 1.499 . S
C947 C948 1.373 . S
C947 C949 1.389 . S
C948 H921 0.950 . S
C948 C934 1.377 . S
C948 C947 1.373 . S
C949 C933 1.377 . S
C949 C947 1.389 . S
C949 C950 1.524 . S
C950 C949 1.524 . S
C950 C951 1.397 . S
C950 C955 1.363 . S
C951 H922 0.950 . S
C951 C950 1.397 . S
C951 C952 1.334 . S
C952 H923 0.950 . S
C952 C951 1.334 . S
C952 C953 1.287 . S
C953 C952 1.287 . S
C953 C954 1.524 . S
C953 H956 0.999 . S
C954 H924 0.950 . S
C954 C953 1.524 . S
C954 C955 1.415 . S
C955 H925 0.950 . S
C955 C950 1.363 . S
C955 C954 1.415 . S
H956 C953 0.999 . S
H957 C938 0.913 . S
H958 C976 0.951 . S
H959 C978 0.951 . S
H960 C980 0.950 . S
H961 C981 0.950 . S
H962 C983 0.950 . S
H963 C986 0.950 . S
H964 C987 0.950 . S
H965 C989 0.950 . S
H966 C990 0.950 . S
H967 C991 0.951 . S
H968 C993 0.951 . S
H969 C995 0.950 . S
H970 C996 0.950 . S
H971 C998 0.950 . S
H972 C1001 0.950 . S
H973 C1002 0.950 . S
H974 C1004 0.950 . S
H975 C1005 0.950 . S
C976 H958 0.951 . S
C976 C977 1.366 . S
C976 C978 1.388 . S
C977 C976 1.366 . S
C977 C981 1.385 . S
C978 H959 0.951 . S
C978 C976 1.388 . S
C978 C979 1.366 1_545 S
C979 C978 1.366 1_565 S
C979 C980 1.414 . S
C979 C982 1.499 . S
C980 H960 0.950 . S
C980 C979 1.414 . S
C980 C981 1.374 1_565 S
C981 H961 0.950 . S
C981 C977 1.385 . S
C981 C980 1.374 1_545 S
C982 C979 1.499 . S
C982 C983 1.373 . S
C982 C984 1.389 . S
C983 H962 0.950 . S
C983 C982 1.373 . S
C983 C999 1.377 . S
C984 C982 1.389 . S
C984 C985 1.524 . S
C984 C998 1.377 . S
C985 C984 1.524 . S
C985 C986 1.397 . S
C985 C990 1.363 . S
C986 H963 0.950 . S
C986 C985 1.397 . S
C986 C987 1.334 . S
C987 H964 0.950 . S
C987 C986 1.334 . S
C987 C988 1.287 . S
C988 C987 1.287 . S
C988 C989 1.524 . S
C988 H1007 0.913 . S
C989 H965 0.950 . S
C989 C988 1.524 . S
C989 C990 1.415 . S
C990 H966 0.950 . S
C990 C985 1.363 . S
C990 C989 1.415 . S
C991 H967 0.951 . S
C991 C992 1.366 . S
C991 C993 1.388 . S
C992 C991 1.366 . S
C992 C996 1.385 . S
C993 H968 0.951 . S
C993 C991 1.388 . S
C993 C994 1.366 . S
C994 C993 1.366 . S
C994 C995 1.414 . S
C994 C997 1.499 . S
C995 H969 0.950 . S
C995 C994 1.414 . S
C995 C996 1.374 . S
C996 H970 0.950 . S
C996 C992 1.385 . S
C996 C995 1.374 . S
C997 C994 1.499 . S
C997 C998 1.373 . S
C997 C999 1.389 . S
C998 H971 0.950 . S
C998 C984 1.377 . S
C998 C997 1.373 . S
C999 C983 1.377 . S
C999 C997 1.389 . S
C999 C1000 1.524 . S
C1000 C999 1.524 . S
C1000 C1001 1.397 . S
C1000 C1005 1.363 . S
C1001 H972 0.950 . S
C1001 C1000 1.397 . S
C1001 C1002 1.334 . S
C1002 H973 0.950 . S
C1002 C1001 1.334 . S
C1002 C1003 1.287 . S
C1003 C1002 1.287 . S
C1003 C1004 1.524 . S
C1003 H1006 0.999 . S
C1004 H974 0.950 . S
C1004 C1003 1.524 . S
C1004 C1005 1.415 . S
C1005 H975 0.950 . S
C1005 C1000 1.363 . S
C1005 C1004 1.415 . S
H1006 C1003 0.999 . S
H1007 C988 0.913 . S
H1008 C1026 0.951 . S
H1009 C1028 0.951 . S
H1010 C1030 0.950 . S
H1011 C1031 0.950 . S
H1012 C1033 0.950 . S
H1013 C1036 0.950 . S
H1014 C1037 0.950 . S
H1015 C1039 0.950 . S
H1016 C1040 0.950 . S
H1017 C1041 0.951 . S
H1018 C1043 0.951 1_554 S
H1019 C1045 0.950 . S
H1020 C1046 0.950 . S
H1021 C1048 0.950 . S
H1022 C1051 0.950 . S
H1023 C1052 0.950 . S
H1024 C1054 0.950 . S
H1025 C1055 0.950 . S
C1026 H1008 0.951 . S
C1026 C1027 1.366 . S
C1026 C1028 1.388 . S
C1027 C1026 1.366 . S
C1027 C1031 1.385 . S
C1028 H1009 0.951 . S
C1028 C1026 1.388 . S
C1028 C1029 1.366 . S
C1029 C1028 1.366 . S
C1029 C1030 1.414 . S
C1029 C1032 1.499 . S
C1030 H1010 0.950 . S
C1030 C1029 1.414 . S
C1030 C1031 1.374 . S
C1031 H1011 0.950 . S
C1031 C1027 1.385 . S
C1031 C1030 1.374 . S
C1032 C1029 1.499 . S
C1032 C1033 1.373 . S
C1032 C1034 1.389 1_554 S
C1033 H1012 0.950 . S
C1033 C1032 1.373 . S
C1033 C1049 1.377 . S
C1034 C1032 1.389 1_556 S
C1034 C1035 1.524 . S
C1034 C1048 1.377 . S
C1035 C1034 1.524 . S
C1035 C1036 1.397 . S
C1035 C1040 1.363 . S
C1036 H1013 0.950 . S
C1036 C1035 1.397 . S
C1036 C1037 1.334 . S
C1037 H1014 0.950 . S
C1037 C1036 1.334 . S
C1037 C1038 1.287 . S
C1038 C1037 1.287 . S
C1038 C1039 1.524 . S
C1038 H1057 0.913 . S
C1039 H1015 0.950 . S
C1039 C1038 1.524 . S
C1039 C1040 1.415 . S
C1040 H1016 0.950 . S
C1040 C1035 1.363 . S
C1040 C1039 1.415 . S
C1041 H1017 0.951 . S
C1041 C1042 1.366 . S
C1041 C1043 1.388 . S
C1042 C1041 1.366 . S
C1042 C1046 1.385 . S
C1043 H1018 0.951 1_556 S
C1043 C1041 1.388 . S
C1043 C1044 1.367 . S
C1044 C1043 1.367 . S
C1044 C1045 1.418 . S
C1044 C1047 1.495 1_556 S
C1045 H1019 0.950 . S
C1045 C1044 1.418 . S
C1045 C1046 1.374 . S
C1046 H1020 0.950 . S
C1046 C1042 1.385 . S
C1046 C1045 1.374 . S
C1047 C1044 1.495 1_554 S
C1047 C1048 1.373 1_554 S
C1047 C1049 1.389 . S
C1048 H1021 0.950 . S
C1048 C1034 1.377 . S
C1048 C1047 1.373 1_556 S
C1049 C1033 1.377 . S
C1049 C1047 1.389 . S
C1049 C1050 1.524 . S
C1050 C1049 1.524 . S
C1050 C1051 1.397 . S
C1050 C1055 1.363 . S
C1051 H1022 0.950 . S
C1051 C1050 1.397 . S
C1051 C1052 1.334 . S
C1052 H1023 0.950 . S
C1052 C1051 1.334 . S
C1052 C1053 1.287 . S
C1053 C1052 1.287 . S
C1053 C1054 1.524 . S
C1053 H1056 0.999 . S
C1054 H1024 0.950 . S
C1054 C1053 1.524 . S
C1054 C1055 1.415 . S
C1055 H1025 0.950 . S
C1055 C1050 1.363 . S
C1055 C1054 1.415 . S
H1056 C1053 0.999 . S
H1057 C1038 0.913 . S
H1058 C1076 0.951 . S
H1059 C1078 0.951 . S
H1060 C1080 0.950 . S
H1061 C1081 0.950 . S
H1062 C1083 0.950 . S
H1063 C1086 0.950 . S
H1064 C1087 0.950 . S
H1065 C1089 0.950 . S
H1066 C1090 0.950 . S
H1067 C1091 0.951 . S
H1068 C1093 0.951 . S
H1069 C1095 0.950 . S
H1070 C1096 0.950 . S
H1071 C1098 0.950 . S
H1072 C1101 0.950 . S
H1073 C1102 0.950 . S
H1074 C1104 0.950 . S
H1075 C1105 0.950 . S
C1076 H1058 0.951 . S
C1076 C1077 1.366 . S
C1076 C1078 1.388 1_655 S
C1077 C1076 1.366 . S
C1077 C1081 1.385 . S
C1078 H1059 0.951 . S
C1078 C1076 1.388 1_455 S
C1078 C1079 1.366 . S
C1079 C1078 1.366 . S
C1079 C1080 1.414 . S
C1079 C1082 1.499 . S
C1080 H1060 0.950 . S
C1080 C1079 1.414 . S
C1080 C1081 1.374 1_455 S
C1081 H1061 0.950 . S
C1081 C1077 1.385 . S
C1081 C1080 1.374 1_655 S
C1082 C1079 1.499 . S
C1082 C1083 1.373 . S
C1082 C1084 1.389 . S
C1083 H1062 0.950 . S
C1083 C1082 1.373 . S
C1083 C1099 1.377 . S
C1084 C1082 1.389 . S
C1084 C1085 1.524 . S
C1084 C1098 1.377 . S
C1085 C1084 1.524 . S
C1085 C1086 1.397 . S
C1085 C1090 1.363 . S
C1086 H1063 0.950 . S
C1086 C1085 1.397 . S
C1086 C1087 1.334 . S
C1087 H1064 0.950 . S
C1087 C1086 1.334 . S
C1087 C1088 1.287 . S
C1088 C1087 1.287 . S
C1088 C1089 1.524 . S
C1088 H1107 0.913 . S
C1089 H1065 0.950 . S
C1089 C1088 1.524 . S
C1089 C1090 1.415 . S
C1090 H1066 0.950 . S
C1090 C1085 1.363 . S
C1090 C1089 1.415 . S
C1091 H1067 0.951 . S
C1091 C1092 1.366 . S
C1091 C1093 1.388 . S
C1092 C1091 1.366 . S
C1092 C1096 1.385 . S
C1093 H1068 0.951 . S
C1093 C1091 1.388 . S
C1093 C1094 1.366 . S
C1094 C1093 1.366 . S
C1094 C1095 1.414 . S
C1094 C1097 1.499 . S
C1095 H1069 0.950 . S
C1095 C1094 1.414 . S
C1095 C1096 1.374 . S
C1096 H1070 0.950 . S
C1096 C1092 1.385 . S
C1096 C1095 1.374 . S
C1097 C1094 1.499 . S
C1097 C1098 1.373 . S
C1097 C1099 1.389 . S
C1098 H1071 0.950 . S
C1098 C1084 1.377 . S
C1098 C1097 1.373 . S
C1099 C1083 1.377 . S
C1099 C1097 1.389 . S
C1099 C1100 1.524 . S
C1100 C1099 1.524 . S
C1100 C1101 1.397 . S
C1100 C1105 1.363 . S
C1101 H1072 0.950 . S
C1101 C1100 1.397 . S
C1101 C1102 1.334 . S
C1102 H1073 0.950 . S
C1102 C1101 1.334 . S
C1102 C1103 1.287 . S
C1103 C1102 1.287 . S
C1103 C1104 1.524 . S
C1103 H1106 0.999 . S
C1104 H1074 0.950 . S
C1104 C1103 1.524 . S
C1104 C1105 1.415 . S
C1105 H1075 0.950 . S
C1105 C1100 1.363 . S
C1105 C1104 1.415 . S
H1106 C1103 0.999 . S
H1107 C1088 0.913 . S
H1108 C1126 0.951 . S
H1109 C1128 0.951 1_545 S
H1110 C1130 0.950 . S
H1111 C1131 0.950 . S
H1112 C1133 0.950 . S
H1113 C1136 0.950 . S
H1114 C1137 0.950 . S
H1115 C1139 0.950 . S
H1116 C1140 0.950 . S
H1117 C1141 0.951 . S
H1118 C1143 0.951 . S
H1119 C1145 0.950 . S
H1120 C1146 0.950 . S
H1121 C1148 0.950 . S
H1122 C1151 0.950 . S
H1123 C1152 0.950 . S
H1124 C1154 0.950 . S
H1125 C1155 0.950 . S
C1126 H1108 0.951 . S
C1126 C1127 1.366 . S
C1126 C1128 1.388 . S
C1127 C1126 1.366 . S
C1127 C1131 1.385 . S
C1128 H1109 0.951 1_565 S
C1128 C1126 1.388 . S
C1128 C1129 1.366 1_565 S
C1129 C1128 1.366 1_545 S
C1129 C1130 1.414 . S
C1129 C1132 1.499 . S
C1130 H1110 0.950 . S
C1130 C1129 1.414 . S
C1130 C1131 1.374 1_545 S
C1131 H1111 0.950 . S
C1131 C1127 1.385 . S
C1131 C1130 1.374 1_565 S
C1132 C1129 1.499 . S
C1132 C1133 1.373 . S
C1132 C1134 1.389 . S
C1133 H1112 0.950 . S
C1133 C1132 1.373 . S
C1133 C1149 1.377 . S
C1134 C1132 1.389 . S
C1134 C1135 1.524 . S
C1134 C1148 1.377 . S
C1135 C1134 1.524 . S
C1135 C1136 1.397 . S
C1135 C1140 1.363 . S
C1136 H1113 0.950 . S
C1136 C1135 1.397 . S
C1136 C1137 1.334 1_545 S
C1137 H1114 0.950 . S
C1137 C1136 1.334 1_565 S
C1137 C1138 1.287 . S
C1138 C1137 1.287 . S
C1138 C1139 1.524 1_565 S
C1138 H1157 0.913 . S
C1139 H1115 0.950 . S
C1139 C1138 1.524 1_545 S
C1139 C1140 1.415 . S
C1140 H1116 0.950 . S
C1140 C1135 1.363 . S
C1140 C1139 1.415 . S
C1141 H1117 0.951 . S
C1141 C1142 1.366 . S
C1141 C1143 1.388 . S
C1142 C1141 1.366 . S
C1142 C1146 1.385 . S
C1143 H1118 0.951 . S
C1143 C1141 1.388 . S
C1143 C1144 1.366 . S
C1144 C1143 1.366 . S
C1144 C1145 1.414 . S
C1144 C1147 1.499 . S
C1145 H1119 0.950 . S
C1145 C1144 1.414 . S
C1145 C1146 1.374 . S
C1146 H1120 0.950 . S
C1146 C1142 1.385 . S
C1146 C1145 1.374 . S
C1147 C1144 1.499 . S
C1147 C1148 1.373 . S
C1147 C1149 1.389 . S
C1148 H1121 0.950 . S
C1148 C1134 1.377 . S
C1148 C1147 1.373 . S
C1149 C1133 1.377 . S
C1149 C1147 1.389 . S
C1149 C1150 1.524 . S
C1150 C1149 1.524 . S
C1150 C1151 1.397 . S
C1150 C1155 1.363 . S
C1151 H1122 0.950 . S
C1151 C1150 1.397 . S
C1151 C1152 1.334 . S
C1152 H1123 0.950 . S
C1152 C1151 1.334 . S
C1152 C1153 1.287 . S
C1153 C1152 1.287 . S
C1153 C1154 1.524 . S
C1153 H1156 0.999 . S
C1154 H1124 0.950 . S
C1154 C1153 1.524 . S
C1154 C1155 1.415 . S
C1155 H1125 0.950 . S
C1155 C1150 1.363 . S
C1155 C1154 1.415 . S
H1156 C1153 0.999 . S
H1157 C1138 0.913 . S
H1158 C1176 0.951 . S
H1159 C1178 0.951 . S
H1160 C1180 0.950 . S
H1161 C1181 0.950 . S
H1162 C1183 0.950 . S
H1163 C1186 0.950 . S
H1164 C1187 0.950 . S
H1165 C1189 0.950 . S
H1166 C1190 0.950 . S
H1167 C1191 0.951 . S
H1168 C1193 0.951 . S
H1169 C1195 0.950 . S
H1170 C1196 0.950 . S
H1171 C1198 0.950 . S
H1172 C1201 0.950 . S
H1173 C1202 0.950 . S
H1174 C1204 0.950 . S
H1175 C1205 0.950 . S
C1176 H1158 0.951 . S
C1176 C1177 1.366 . S
C1176 C1178 1.388 . S
C1177 C1176 1.366 . S
C1177 C1181 1.385 . S
C1178 H1159 0.951 . S
C1178 C1176 1.388 . S
C1178 C1179 1.366 . S
C1179 C1178 1.366 . S
C1179 C1180 1.414 . S
C1179 C1182 1.499 . S
C1180 H1160 0.950 . S
C1180 C1179 1.414 . S
C1180 C1181 1.374 . S
C1181 H1161 0.950 . S
C1181 C1177 1.385 . S
C1181 C1180 1.374 . S
C1182 C1179 1.499 . S
C1182 C1183 1.373 . S
C1182 C1184 1.389 . S
C1183 H1162 0.950 . S
C1183 C1182 1.373 . S
C1183 C1199 1.377 . S
C1184 C1182 1.389 . S
C1184 C1185 1.524 . S
C1184 C1198 1.377 . S
C1185 C1184 1.524 . S
C1185 C1186 1.397 . S
C1185 C1190 1.363 . S
C1186 H1163 0.950 . S
C1186 C1185 1.397 . S
C1186 C1187 1.334 . S
C1187 H1164 0.950 . S
C1187 C1186 1.334 . S
C1187 C1188 1.287 . S
C1188 C1187 1.287 . S
C1188 C1189 1.524 . S
C1188 H1207 0.913 . S
C1189 H1165 0.950 . S
C1189 C1188 1.524 . S
C1189 C1190 1.415 . S
C1190 H1166 0.950 . S
C1190 C1185 1.363 . S
C1190 C1189 1.415 . S
C1191 H1167 0.951 . S
C1191 C1192 1.366 . S
C1191 C1193 1.388 . S
C1192 C1191 1.366 . S
C1192 C1196 1.385 . S
C1193 H1168 0.951 . S
C1193 C1191 1.388 . S
C1193 C1194 1.366 . S
C1194 C1193 1.366 . S
C1194 C1195 1.414 . S
C1194 C1197 1.499 . S
C1195 H1169 0.950 . S
C1195 C1194 1.414 . S
C1195 C1196 1.374 . S
C1196 H1170 0.950 . S
C1196 C1192 1.385 . S
C1196 C1195 1.374 . S
C1197 C1194 1.499 . S
C1197 C1198 1.373 . S
C1197 C1199 1.389 . S
C1198 H1171 0.950 . S
C1198 C1184 1.377 . S
C1198 C1197 1.373 . S
C1199 C1183 1.377 . S
C1199 C1197 1.389 . S
C1199 C1200 1.524 . S
C1200 C1199 1.524 . S
C1200 C1201 1.397 . S
C1200 C1205 1.363 . S
C1201 H1172 0.950 . S
C1201 C1200 1.397 . S
C1201 C1202 1.334 . S
C1202 H1173 0.950 . S
C1202 C1201 1.334 . S
C1202 C1203 1.287 . S
C1203 C1202 1.287 . S
C1203 C1204 1.524 . S
C1203 H1206 0.999 . S
C1204 H1174 0.950 . S
C1204 C1203 1.524 . S
C1204 C1205 1.415 . S
C1205 H1175 0.950 . S
C1205 C1200 1.363 . S
C1205 C1204 1.415 . S
H1206 C1203 0.999 . S
H1207 C1188 0.913 . S
H1208 C1226 0.951 . S
H1209 C1228 0.951 . S
H1210 C1230 0.950 . S
H1211 C1231 0.950 . S
H1212 C1233 0.950 . S
H1213 C1236 0.950 . S
H1214 C1237 0.950 . S
H1215 C1239 0.950 . S
H1216 C1240 0.950 . S
H1217 C1241 0.951 . S
H1218 C1243 0.951 . S
H1219 C1245 0.950 . S
H1220 C1246 0.950 . S
H1221 C1248 0.950 . S
H1222 C1251 0.950 . S
H1223 C1252 0.950 . S
H1224 C1254 0.950 . S
H1225 C1255 0.950 . S
C1226 H1208 0.951 . S
C1226 C1227 1.366 . S
C1226 C1228 1.388 1_455 S
C1227 C1226 1.366 . S
C1227 C1231 1.385 . S
C1228 H1209 0.951 . S
C1228 C1226 1.388 1_655 S
C1228 C1229 1.366 . S
C1229 C1228 1.366 . S
C1229 C1230 1.414 . S
C1229 C1232 1.499 . S
C1230 H1210 0.950 . S
C1230 C1229 1.414 . S
C1230 C1231 1.374 1_655 S
C1231 H1211 0.950 . S
C1231 C1227 1.385 . S
C1231 C1230 1.374 1_455 S
C1232 C1229 1.499 . S
C1232 C1233 1.373 . S
C1232 C1234 1.389 . S
C1233 H1212 0.950 . S
C1233 C1232 1.373 . S
C1233 C1249 1.377 . S
C1234 C1232 1.389 . S
C1234 C1235 1.524 . S
C1234 C1248 1.377 . S
C1235 C1234 1.524 . S
C1235 C1236 1.397 . S
C1235 C1240 1.363 . S
C1236 H1213 0.950 . S
C1236 C1235 1.397 . S
C1236 C1237 1.334 . S
C1237 H1214 0.950 . S
C1237 C1236 1.334 . S
C1237 C1238 1.287 . S
C1238 C1237 1.287 . S
C1238 C1239 1.524 . S
C1238 H1257 0.913 . S
C1239 H1215 0.950 . S
C1239 C1238 1.524 . S
C1239 C1240 1.415 . S
C1240 H1216 0.950 . S
C1240 C1235 1.363 . S
C1240 C1239 1.415 . S
C1241 H1217 0.951 . S
C1241 C1242 1.366 . S
C1241 C1243 1.388 . S
C1242 C1241 1.366 . S
C1242 C1246 1.385 . S
C1243 H1218 0.951 . S
C1243 C1241 1.388 . S
C1243 C1244 1.366 . S
C1244 C1243 1.366 . S
C1244 C1245 1.414 . S
C1244 C1247 1.499 . S
C1245 H1219 0.950 . S
C1245 C1244 1.414 . S
C1245 C1246 1.374 . S
C1246 H1220 0.950 . S
C1246 C1242 1.385 . S
C1246 C1245 1.374 . S
C1247 C1244 1.499 . S
C1247 C1248 1.373 . S
C1247 C1249 1.389 . S
C1248 H1221 0.950 . S
C1248 C1234 1.377 . S
C1248 C1247 1.373 . S
C1249 C1233 1.377 . S
C1249 C1247 1.389 . S
C1249 C1250 1.524 . S
C1250 C1249 1.524 . S
C1250 C1251 1.397 . S
C1250 C1255 1.363 . S
C1251 H1222 0.950 . S
C1251 C1250 1.397 . S
C1251 C1252 1.334 . S
C1252 H1223 0.950 . S
C1252 C1251 1.334 . S
C1252 C1253 1.287 . S
C1253 C1252 1.287 . S
C1253 C1254 1.524 . S
C1253 H1256 0.999 . S
C1254 H1224 0.950 . S
C1254 C1253 1.524 . S
C1254 C1255 1.415 . S
C1255 H1225 0.950 . S
C1255 C1250 1.363 . S
C1255 C1254 1.415 . S
H1256 C1253 0.999 . S
H1257 C1238 0.913 . S
H1258 C1276 0.951 . S
H1259 C1278 0.951 . S
H1260 C1280 0.950 . S
H1261 C1281 0.950 . S
H1262 C1283 0.950 . S
H1263 C1286 0.950 . S
H1264 C1287 0.950 1_545 S
H1265 C1289 0.950 . S
H1266 C1290 0.950 . S
H1267 C1291 0.951 . S
H1268 C1293 0.951 . S
H1269 C1295 0.950 . S
H1270 C1296 0.950 . S
H1271 C1298 0.950 . S
H1272 C1301 0.950 . S
H1273 C1302 0.950 . S
H1274 C1304 0.950 . S
H1275 C1305 0.950 . S
C1276 H1258 0.951 . S
C1276 C1277 1.366 . S
C1276 C1278 1.388 1_545 S
C1277 C1276 1.366 . S
C1277 C1281 1.385 . S
C1278 H1259 0.951 . S
C1278 C1276 1.388 1_565 S
C1278 C1279 1.366 . S
C1279 C1278 1.366 . S
C1279 C1280 1.414 . S
C1279 C1282 1.499 . S
C1280 H1260 0.950 . S
C1280 C1279 1.414 . S
C1280 C1281 1.374 1_565 S
C1281 H1261 0.950 . S
C1281 C1277 1.385 . S
C1281 C1280 1.374 1_545 S
C1282 C1279 1.499 . S
C1282 C1283 1.373 . S
C1282 C1284 1.389 . S
C1283 H1262 0.950 . S
C1283 C1282 1.373 . S
C1283 C1299 1.377 . S
C1284 C1282 1.389 . S
C1284 C1285 1.524 . S
C1284 C1298 1.377 . S
C1285 C1284 1.524 . S
C1285 C1286 1.397 . S
C1285 C1290 1.363 . S
C1286 H1263 0.950 . S
C1286 C1285 1.397 . S
C1286 C1287 1.334 . S
C1287 H1264 0.950 1_565 S
C1287 C1286 1.334 . S
C1287 C1288 1.287 . S
C1288 C1287 1.287 . S
C1288 C1289 1.524 . S
C1288 H1307 0.904 1_556 S
C1289 H1265 0.950 . S
C1289 C1288 1.524 . S
C1289 C1290 1.415 . S
C1290 H1266 0.950 . S
C1290 C1285 1.363 . S
C1290 C1289 1.415 . S
C1291 H1267 0.951 . S
C1291 C1292 1.366 . S
C1291 C1293 1.388 . S
C1292 C1291 1.366 . S
C1292 C1296 1.385 . S
C1293 H1268 0.951 . S
C1293 C1291 1.388 . S
C1293 C1294 1.366 . S
C1294 C1293 1.366 . S
C1294 C1295 1.414 . S
C1294 C1297 1.499 . S
C1295 H1269 0.950 . S
C1295 C1294 1.414 . S
C1295 C1296 1.374 . S
C1296 H1270 0.950 . S
C1296 C1292 1.385 . S
C1296 C1295 1.374 . S
C1297 C1294 1.499 . S
C1297 C1298 1.373 . S
C1297 C1299 1.389 . S
C1298 H1271 0.950 . S
C1298 C1284 1.377 . S
C1298 C1297 1.373 . S
C1299 C1283 1.377 . S
C1299 C1297 1.389 . S
C1299 C1300 1.524 . S
C1300 C1299 1.524 . S
C1300 C1301 1.397 . S
C1300 C1305 1.363 . S
C1301 H1272 0.950 . S
C1301 C1300 1.397 . S
C1301 C1302 1.334 . S
C1302 H1273 0.950 . S
C1302 C1301 1.334 . S
C1302 C1303 1.287 . S
C1303 C1302 1.287 . S
C1303 C1304 1.524 . S
C1303 H1306 0.999 . S
C1304 H1274 0.950 . S
C1304 C1303 1.524 . S
C1304 C1305 1.415 . S
C1305 H1275 0.950 . S
C1305 C1300 1.363 . S
C1305 C1304 1.415 . S
H1306 C1303 0.999 . S
H1307 C1288 0.904 1_554 S
H1308 C1326 0.951 . S
H1309 C1328 0.951 . S
H1310 C1330 0.950 . S
H1311 C1331 0.950 . S
H1312 C1333 0.950 . S
H1313 C1336 0.950 . S
H1314 C1337 0.950 . S
H1315 C1339 0.950 . S
H1316 C1340 0.950 . S
H1317 C1341 0.951 . S
H1318 C1343 0.951 . S
H1319 C1345 0.950 . S
H1320 C1346 0.950 . S
H1321 C1348 0.950 . S
H1322 C1351 0.950 . S
H1323 C1352 0.950 . S
H1324 C1354 0.950 . S
H1325 C1355 0.950 . S
C1326 H1308 0.951 . S
C1326 C1327 1.366 . S
C1326 C1328 1.388 . S
C1327 C1326 1.366 . S
C1327 C1331 1.385 . S
C1328 H1309 0.951 . S
C1328 C1326 1.388 . S
C1328 C1329 1.366 . S
C1329 C1328 1.366 . S
C1329 C1330 1.414 . S
C1329 C1332 1.499 . S
C1330 H1310 0.950 . S
C1330 C1329 1.414 . S
C1330 C1331 1.374 . S
C1331 H1311 0.950 . S
C1331 C1327 1.385 . S
C1331 C1330 1.374 . S
C1332 C1329 1.499 . S
C1332 C1333 1.373 . S
C1332 C1334 1.389 . S
C1333 H1312 0.950 . S
C1333 C1332 1.373 . S
C1333 C1349 1.377 . S
C1334 C1332 1.389 . S
C1334 C1335 1.524 . S
C1334 C1348 1.377 . S
C1335 C1334 1.524 . S
C1335 C1336 1.397 . S
C1335 C1340 1.363 . S
C1336 H1313 0.950 . S
C1336 C1335 1.397 . S
C1336 C1337 1.334 . S
C1337 H1314 0.950 . S
C1337 C1336 1.334 . S
C1337 C1338 1.287 . S
C1338 C1337 1.287 . S
C1338 C1339 1.524 . S
C1338 H1357 0.913 . S
C1339 H1315 0.950 . S
C1339 C1338 1.524 . S
C1339 C1340 1.415 . S
C1340 H1316 0.950 . S
C1340 C1335 1.363 . S
C1340 C1339 1.415 . S
C1341 H1317 0.951 . S
C1341 C1342 1.366 . S
C1341 C1343 1.388 . S
C1342 C1341 1.366 . S
C1342 C1346 1.385 . S
C1343 H1318 0.951 . S
C1343 C1341 1.388 . S
C1343 C1344 1.366 . S
C1344 C1343 1.366 . S
C1344 C1345 1.414 . S
C1344 C1347 1.499 . S
C1345 H1319 0.950 . S
C1345 C1344 1.414 . S
C1345 C1346 1.374 . S
C1346 H1320 0.950 . S
C1346 C1342 1.385 . S
C1346 C1345 1.374 . S
C1347 C1344 1.499 . S
C1347 C1348 1.373 . S
C1347 C1349 1.389 . S
C1348 H1321 0.950 . S
C1348 C1334 1.377 . S
C1348 C1347 1.373 . S
C1349 C1333 1.377 . S
C1349 C1347 1.389 . S
C1349 C1350 1.524 . S
C1350 C1349 1.524 . S
C1350 C1351 1.397 . S
C1350 C1355 1.363 . S
C1351 H1322 0.950 . S
C1351 C1350 1.397 . S
C1351 C1352 1.334 . S
C1352 H1323 0.950 . S
C1352 C1351 1.334 . S
C1352 C1353 1.287 . S
C1353 C1352 1.287 . S
C1353 C1354 1.524 . S
C1353 H1356 0.999 . S
C1354 H1324 0.950 . S
C1354 C1353 1.524 . S
C1354 C1355 1.415 . S
C1355 H1325 0.950 . S
C1355 C1350 1.363 . S
C1355 C1354 1.415 . S
H1356 C1353 0.999 . S
H1357 C1338 0.913 . S
H1358 C1376 0.951 . S
H1359 C1378 0.951 . S
H1360 C1380 0.950 . S
H1361 C1381 0.950 . S
H1362 C1383 0.950 . S
H1363 C1386 0.950 . S
H1364 C1387 0.950 . S
H1365 C1389 0.950 1_455 S
H1366 C1390 0.950 . S
H1367 C1391 0.951 . S
H1368 C1393 0.951 . S
H1369 C1395 0.950 . S
H1370 C1396 0.950 . S
H1371 C1398 0.950 . S
H1372 C1401 0.950 . S
H1373 C1402 0.950 . S
H1374 C1404 0.950 1_655 S
H1375 C1405 0.950 . S
C1376 H1358 0.951 . S
C1376 C1377 1.366 . S
C1376 C1378 1.388 . S
C1377 C1376 1.366 . S
C1377 C1381 1.385 . S
C1378 H1359 0.951 . S
C1378 C1376 1.388 . S
C1378 C1379 1.366 . S
C1379 C1378 1.366 . S
C1379 C1380 1.414 . S
C1379 C1382 1.499 . S
C1380 H1360 0.950 . S
C1380 C1379 1.414 . S
C1380 C1381 1.374 . S
C1381 H1361 0.950 . S
C1381 C1377 1.385 . S
C1381 C1380 1.374 . S
C1382 C1379 1.499 . S
C1382 C1383 1.373 . S
C1382 C1384 1.389 . S
C1383 H1362 0.950 . S
C1383 C1382 1.373 . S
C1383 C1399 1.377 1_655 S
C1384 C1382 1.389 . S
C1384 C1385 1.524 . S
C1384 C1398 1.377 1_655 S
C1385 C1384 1.524 . S
C1385 C1386 1.397 . S
C1385 C1390 1.363 1_655 S
C1386 H1363 0.950 . S
C1386 C1385 1.397 . S
C1386 C1387 1.334 . S
C1387 H1364 0.950 . S
C1387 C1386 1.334 . S
C1387 C1388 1.287 . S
C1388 C1387 1.287 . S
C1388 C1389 1.524 . S
C1388 H1407 0.913 . S
C1389 H1365 0.950 1_655 S
C1389 C1388 1.524 . S
C1389 C1390 1.415 1_655 S
C1390 H1366 0.950 . S
C1390 C1385 1.363 1_455 S
C1390 C1389 1.415 1_455 S
C1391 H1367 0.951 . S
C1391 C1392 1.366 . S
C1391 C1393 1.388 . S
C1392 C1391 1.366 . S
C1392 C1396 1.385 . S
C1393 H1368 0.951 . S
C1393 C1391 1.388 . S
C1393 C1394 1.366 . S
C1394 C1393 1.366 . S
C1394 C1395 1.414 . S
C1394 C1397 1.499 . S
C1395 H1369 0.950 . S
C1395 C1394 1.414 . S
C1395 C1396 1.374 . S
C1396 H1370 0.950 . S
C1396 C1392 1.385 . S
C1396 C1395 1.374 . S
C1397 C1394 1.499 . S
C1397 C1398 1.373 . S
C1397 C1399 1.389 . S
C1398 H1371 0.950 . S
C1398 C1384 1.377 1_455 S
C1398 C1397 1.373 . S
C1399 C1383 1.377 1_455 S
C1399 C1397 1.389 . S
C1399 C1400 1.524 . S
C1400 C1399 1.524 . S
C1400 C1401 1.397 . S
C1400 C1405 1.363 1_455 S
C1401 H1372 0.950 . S
C1401 C1400 1.397 . S
C1401 C1402 1.334 . S
C1402 H1373 0.950 . S
C1402 C1401 1.334 . S
C1402 C1403 1.287 . S
C1403 C1402 1.287 . S
C1403 C1404 1.524 . S
C1403 H1406 0.999 . S
C1404 H1374 0.950 1_455 S
C1404 C1403 1.524 . S
C1404 C1405 1.415 1_455 S
C1405 H1375 0.950 . S
C1405 C1400 1.363 1_655 S
C1405 C1404 1.415 1_655 S
H1406 C1403 0.999 . S
H1407 C1388 0.913 . S
H1408 C1426 0.951 . S
H1409 C1428 0.951 . S
H1410 C1430 0.950 . S
H1411 C1431 0.950 . S
H1412 C1433 0.950 . S
H1413 C1436 0.950 . S
H1414 C1437 0.950 . S
H1415 C1439 0.950 . S
H1416 C1440 0.950 . S
H1417 C1441 0.951 . S
H1418 C1443 0.951 . S
H1419 C1445 0.950 . S
H1420 C1446 0.950 . S
H1421 C1448 0.950 . S
H1422 C1451 0.950 . S
H1423 C1452 0.950 . S
H1424 C1454 0.950 . S
H1425 C1455 0.950 . S
C1426 H1408 0.951 . S
C1426 C1427 1.366 . S
C1426 C1428 1.388 . S
C1427 C1426 1.366 . S
C1427 C1431 1.385 . S
C1428 H1409 0.951 . S
C1428 C1426 1.388 . S
C1428 C1429 1.366 . S
C1429 C1428 1.366 . S
C1429 C1430 1.414 . S
C1429 C1432 1.499 . S
C1430 H1410 0.950 . S
C1430 C1429 1.414 . S
C1430 C1431 1.374 . S
C1431 H1411 0.950 . S
C1431 C1427 1.385 . S
C1431 C1430 1.374 . S
C1432 C1429 1.499 . S
C1432 C1433 1.373 . S
C1432 C1434 1.389 . S
C1433 H1412 0.950 . S
C1433 C1432 1.373 . S
C1433 C1449 1.377 1_565 S
C1434 C1432 1.389 . S
C1434 C1435 1.524 . S
C1434 C1448 1.377 1_565 S
C1435 C1434 1.524 . S
C1435 C1436 1.397 . S
C1435 C1440 1.363 1_565 S
C1436 H1413 0.950 . S
C1436 C1435 1.397 . S
C1436 C1437 1.334 . S
C1437 H1414 0.950 . S
C1437 C1436 1.334 . S
C1437 C1438 1.287 . S
C1438 C1437 1.287 . S
C1438 C1439 1.524 1_565 S
C1438 H1457 0.913 . S
C1439 H1415 0.950 . S
C1439 C1438 1.524 1_545 S
C1439 C1440 1.415 . S
C1440 H1416 0.950 . S
C1440 C1435 1.363 1_545 S
C1440 C1439 1.415 . S
C1441 H1417 0.951 . S
C1441 C1442 1.366 . S
C1441 C1443 1.388 . S
C1442 C1441 1.366 . S
C1442 C1446 1.385 . S
C1443 H1418 0.951 . S
C1443 C1441 1.388 . S
C1443 C1444 1.366 . S
C1444 C1443 1.366 . S
C1444 C1445 1.414 . S
C1444 C1447 1.499 . S
C1445 H1419 0.950 . S
C1445 C1444 1.414 . S
C1445 C1446 1.374 . S
C1446 H1420 0.950 . S
C1446 C1442 1.385 . S
C1446 C1445 1.374 . S
C1447 C1444 1.499 . S
C1447 C1448 1.373 . S
C1447 C1449 1.389 . S
C1448 H1421 0.950 . S
C1448 C1434 1.377 1_545 S
C1448 C1447 1.373 . S
C1449 C1433 1.377 1_545 S
C1449 C1447 1.389 . S
C1449 C1450 1.524 . S
C1450 C1449 1.524 . S
C1450 C1451 1.397 . S
C1450 C1455 1.363 1_545 S
C1451 H1422 0.950 . S
C1451 C1450 1.397 . S
C1451 C1452 1.334 . S
C1452 H1423 0.950 . S
C1452 C1451 1.334 . S
C1452 C1453 1.287 . S
C1453 C1452 1.287 . S
C1453 C1454 1.524 1_545 S
C1453 H1456 0.999 . S
C1454 H1424 0.950 . S
C1454 C1453 1.524 1_565 S
C1454 C1455 1.415 . S
C1455 H1425 0.950 . S
C1455 C1450 1.363 1_565 S
C1455 C1454 1.415 . S
H1456 C1453 0.999 . S
H1457 C1438 0.913 . S
H1458 C1476 0.951 . S
H1459 C1478 0.951 . S
H1460 C1480 0.950 . S
H1461 C1481 0.950 . S
H1462 C1483 0.950 . S
H1463 C1486 0.950 . S
H1464 C1487 0.950 . S
H1465 C1489 0.950 . S
H1466 C1490 0.950 . S
H1467 C1491 0.951 . S
H1468 C1493 0.951 . S
H1469 C1495 0.950 . S
H1470 C1496 0.950 . S
H1471 C1498 0.950 . S
H1472 C1501 0.950 . S
H1473 C1502 0.950 . S
H1474 C1504 0.950 . S
H1475 C1505 0.950 . S
C1476 H1458 0.951 . S
C1476 C1477 1.366 . S
C1476 C1478 1.388 . S
C1477 C1476 1.366 . S
C1477 C1481 1.385 . S
C1478 H1459 0.951 . S
C1478 C1476 1.388 . S
C1478 C1479 1.366 . S
C1479 C1478 1.366 . S
C1479 C1480 1.414 . S
C1479 C1482 1.499 . S
C1480 H1460 0.950 . S
C1480 C1479 1.414 . S
C1480 C1481 1.374 . S
C1481 H1461 0.950 . S
C1481 C1477 1.385 . S
C1481 C1480 1.374 . S
C1482 C1479 1.499 . S
C1482 C1483 1.373 . S
C1482 C1484 1.389 . S
C1483 H1462 0.950 . S
C1483 C1482 1.373 . S
C1483 C1499 1.377 . S
C1484 C1482 1.389 . S
C1484 C1485 1.524 . S
C1484 C1498 1.377 . S
C1485 C1484 1.524 . S
C1485 C1486 1.397 . S
C1485 C1490 1.363 . S
C1486 H1463 0.950 . S
C1486 C1485 1.397 . S
C1486 C1487 1.334 . S
C1487 H1464 0.950 . S
C1487 C1486 1.334 . S
C1487 C1488 1.287 . S
C1488 C1487 1.287 . S
C1488 C1489 1.524 . S
C1488 H1507 0.913 . S
C1489 H1465 0.950 . S
C1489 C1488 1.524 . S
C1489 C1490 1.415 . S
C1490 H1466 0.950 . S
C1490 C1485 1.363 . S
C1490 C1489 1.415 . S
C1491 H1467 0.951 . S
C1491 C1492 1.366 . S
C1491 C1493 1.388 . S
C1492 C1491 1.366 . S
C1492 C1496 1.385 . S
C1493 H1468 0.951 . S
C1493 C1491 1.388 . S
C1493 C1494 1.366 . S
C1494 C1493 1.366 . S
C1494 C1495 1.414 . S
C1494 C1497 1.499 . S
C1495 H1469 0.950 . S
C1495 C1494 1.414 . S
C1495 C1496 1.374 . S
C1496 H1470 0.950 . S
C1496 C1492 1.385 . S
C1496 C1495 1.374 . S
C1497 C1494 1.499 . S
C1497 C1498 1.373 . S
C1497 C1499 1.389 . S
C1498 H1471 0.950 . S
C1498 C1484 1.377 . S
C1498 C1497 1.373 . S
C1499 C1483 1.377 . S
C1499 C1497 1.389 . S
C1499 C1500 1.524 . S
C1500 C1499 1.524 . S
C1500 C1501 1.397 . S
C1500 C1505 1.363 . S
C1501 H1472 0.950 . S
C1501 C1500 1.397 . S
C1501 C1502 1.334 . S
C1502 H1473 0.950 . S
C1502 C1501 1.334 . S
C1502 C1503 1.287 . S
C1503 C1502 1.287 . S
C1503 C1504 1.524 . S
C1503 H1506 0.999 . S
C1504 H1474 0.950 . S
C1504 C1503 1.524 . S
C1504 C1505 1.415 . S
C1505 H1475 0.950 . S
C1505 C1500 1.363 . S
C1505 C1504 1.415 . S
H1506 C1503 0.999 . S
H1507 C1488 0.913 . S
H1508 C1526 0.951 . S
H1509 C1528 0.951 . S
H1510 C1530 0.950 . S
H1511 C1531 0.950 . S
H1512 C1533 0.950 . S
H1513 C1536 0.950 . S
H1514 C1537 0.950 . S
H1515 C1539 0.950 . S
H1516 C1540 0.950 . S
H1517 C1541 0.951 . S
H1518 C1543 0.951 . S
H1519 C1545 0.950 . S
H1520 C1546 0.950 . S
H1521 C1548 0.950 . S
H1522 C1551 0.950 . S
H1523 C1552 0.950 . S
H1524 C1554 0.950 . S
H1525 C1555 0.950 . S
C1526 H1508 0.951 . S
C1526 C1527 1.366 . S
C1526 C1528 1.388 . S
C1527 C1526 1.366 . S
C1527 C1531 1.385 . S
C1528 H1509 0.951 . S
C1528 C1526 1.388 . S
C1528 C1529 1.366 . S
C1529 C1528 1.366 . S
C1529 C1530 1.414 . S
C1529 C1532 1.499 . S
C1530 H1510 0.950 . S
C1530 C1529 1.414 . S
C1530 C1531 1.374 . S
C1531 H1511 0.950 . S
C1531 C1527 1.385 . S
C1531 C1530 1.374 . S
C1532 C1529 1.499 . S
C1532 C1533 1.373 1_455 S
C1532 C1534 1.389 . S
C1533 H1512 0.950 . S
C1533 C1532 1.373 1_655 S
C1533 C1549 1.377 . S
C1534 C1532 1.389 . S
C1534 C1535 1.524 . S
C1534 C1548 1.377 . S
C1535 C1534 1.524 . S
C1535 C1536 1.397 . S
C1535 C1540 1.363 . S
C1536 H1513 0.950 . S
C1536 C1535 1.397 . S
C1536 C1537 1.334 . S
C1537 H1514 0.950 . S
C1537 C1536 1.334 . S
C1537 C1538 1.287 . S
C1538 C1537 1.287 . S
C1538 C1539 1.524 . S
C1538 H1557 0.913 . S
C1539 H1515 0.950 . S
C1539 C1538 1.524 . S
C1539 C1540 1.415 . S
C1540 H1516 0.950 . S
C1540 C1535 1.363 . S
C1540 C1539 1.415 . S
C1541 H1517 0.951 . S
C1541 C1542 1.366 . S
C1541 C1543 1.388 . S
C1542 C1541 1.366 . S
C1542 C1546 1.385 . S
C1543 H1518 0.951 . S
C1543 C1541 1.388 . S
C1543 C1544 1.366 . S
C1544 C1543 1.366 . S
C1544 C1545 1.414 . S
C1544 C1547 1.499 . S
C1545 H1519 0.950 . S
C1545 C1544 1.414 . S
C1545 C1546 1.374 . S
C1546 H1520 0.950 . S
C1546 C1542 1.385 . S
C1546 C1545 1.374 . S
C1547 C1544 1.499 . S
C1547 C1548 1.373 1_655 S
C1547 C1549 1.389 . S
C1548 H1521 0.950 . S
C1548 C1534 1.377 . S
C1548 C1547 1.373 1_455 S
C1549 C1533 1.377 . S
C1549 C1547 1.389 . S
C1549 C1550 1.524 . S
C1550 C1549 1.524 . S
C1550 C1551 1.397 . S
C1550 C1555 1.363 . S
C1551 H1522 0.950 . S
C1551 C1550 1.397 . S
C1551 C1552 1.334 . S
C1552 H1523 0.950 . S
C1552 C1551 1.334 . S
C1552 C1553 1.287 . S
C1553 C1552 1.287 . S
C1553 C1554 1.524 . S
C1553 H1556 0.999 . S
C1554 H1524 0.950 . S
C1554 C1553 1.524 . S
C1554 C1555 1.415 . S
C1555 H1525 0.950 . S
C1555 C1550 1.363 . S
C1555 C1554 1.415 . S
H1556 C1553 0.999 . S
H1557 C1538 0.913 . S
H1558 C1576 0.951 . S
H1559 C1578 0.951 . S
H1560 C1580 0.950 . S
H1561 C1581 0.950 . S
H1562 C1583 0.950 . S
H1563 C1586 0.950 . S
H1564 C1587 0.950 . S
H1565 C1589 0.950 . S
H1566 C1590 0.950 . S
H1567 C1591 0.951 . S
H1568 C1593 0.951 . S
H1569 C1595 0.950 . S
H1570 C1596 0.950 . S
H1571 C1598 0.950 . S
H1572 C1601 0.950 . S
H1573 C1602 0.950 . S
H1574 C1604 0.950 . S
H1575 C1605 0.950 . S
C1576 H1558 0.951 . S
C1576 C1577 1.366 . S
C1576 C1578 1.388 . S
C1577 C1576 1.366 . S
C1577 C1581 1.385 . S
C1578 H1559 0.951 . S
C1578 C1576 1.388 . S
C1578 C1579 1.366 . S
C1579 C1578 1.366 . S
C1579 C1580 1.414 . S
C1579 C1582 1.499 . S
C1580 H1560 0.950 . S
C1580 C1579 1.414 . S
C1580 C1581 1.374 . S
C1581 H1561 0.950 . S
C1581 C1577 1.385 . S
C1581 C1580 1.374 . S
C1582 C1579 1.499 . S
C1582 C1583 1.373 1_565 S
C1582 C1584 1.389 . S
C1583 H1562 0.950 . S
C1583 C1582 1.373 1_545 S
C1583 C1599 1.377 1_554 S
C1584 C1582 1.389 . S
C1584 C1585 1.524 . S
C1584 C1598 1.377 1_554 S
C1585 C1584 1.524 . S
C1585 C1586 1.397 . S
C1585 C1590 1.363 1_554 S
C1586 H1563 0.950 . S
C1586 C1585 1.397 . S
C1586 C1587 1.334 . S
C1587 H1564 0.950 . S
C1587 C1586 1.334 . S
C1587 C1588 1.287 . S
C1588 C1587 1.287 . S
C1588 C1589 1.524 1_554 S
C1588 H1607 0.913 . S
C1589 H1565 0.950 . S
C1589 C1588 1.524 1_556 S
C1589 C1590 1.415 . S
C1590 H1566 0.950 . S
C1590 C1585 1.363 1_556 S
C1590 C1589 1.415 . S
C1591 H1567 0.951 . S
C1591 C1592 1.366 . S
C1591 C1593 1.388 . S
C1592 C1591 1.366 . S
C1592 C1596 1.385 . S
C1593 H1568 0.951 . S
C1593 C1591 1.388 . S
C1593 C1594 1.366 . S
C1594 C1593 1.366 . S
C1594 C1595 1.414 . S
C1594 C1597 1.499 . S
C1595 H1569 0.950 . S
C1595 C1594 1.414 . S
C1595 C1596 1.374 . S
C1596 H1570 0.950 . S
C1596 C1592 1.385 . S
C1596 C1595 1.374 . S
C1597 C1594 1.499 . S
C1597 C1598 1.373 1_545 S
C1597 C1599 1.389 . S
C1598 H1571 0.950 . S
C1598 C1584 1.377 1_556 S
C1598 C1597 1.373 1_565 S
C1599 C1583 1.377 1_556 S
C1599 C1597 1.389 . S
C1599 C1600 1.524 . S
C1600 C1599 1.524 . S
C1600 C1601 1.397 . S
C1600 C1605 1.363 1_556 S
C1601 H1572 0.950 . S
C1601 C1600 1.397 . S
C1601 C1602 1.334 . S
C1602 H1573 0.950 . S
C1602 C1601 1.334 . S
C1602 C1603 1.287 . S
C1603 C1602 1.287 . S
C1603 C1604 1.524 1_556 S
C1603 H1606 0.999 . S
C1604 H1574 0.950 . S
C1604 C1603 1.524 1_554 S
C1604 C1605 1.415 . S
C1605 H1575 0.950 . S
C1605 C1600 1.363 1_554 S
C1605 C1604 1.415 . S
H1606 C1603 0.999 . S
H1607 C1588 0.913 . S
H1608 C1626 0.951 . S
H1609 C1628 0.951 . S
H1610 C1630 0.950 . S
H1611 C1631 0.950 . S
H1612 C1633 0.950 . S
H1613 C1636 0.950 . S
H1614 C1637 0.950 . S
H1615 C1639 0.950 . S
H1616 C1640 0.950 . S
H1617 C1641 0.951 . S
H1618 C1643 0.951 . S
H1619 C1645 0.950 . S
H1620 C1646 0.950 . S
H1621 C1648 0.950 . S
H1622 C1651 0.950 . S
H1623 C1652 0.950 . S
H1624 C1654 0.950 . S
H1625 C1655 0.950 1_556 S
C1626 H1608 0.951 . S
C1626 C1627 1.366 . S
C1626 C1628 1.388 . S
C1627 C1626 1.366 . S
C1627 C1631 1.385 . S
C1628 H1609 0.951 . S
C1628 C1626 1.388 . S
C1628 C1629 1.366 . S
C1629 C1628 1.366 . S
C1629 C1630 1.414 . S
C1629 C1632 1.499 . S
C1630 H1610 0.950 . S
C1630 C1629 1.414 . S
C1630 C1631 1.374 . S
C1631 H1611 0.950 . S
C1631 C1627 1.385 . S
C1631 C1630 1.374 . S
C1632 C1629 1.499 . S
C1632 C1633 1.373 . S
C1632 C1634 1.389 . S
C1633 H1612 0.950 . S
C1633 C1632 1.373 . S
C1633 C1649 1.377 . S
C1634 C1632 1.389 . S
C1634 C1635 1.524 . S
C1634 C1648 1.377 . S
C1635 C1634 1.524 . S
C1635 C1636 1.397 . S
C1635 C1640 1.363 . S
C1636 H1613 0.950 . S
C1636 C1635 1.397 . S
C1636 C1637 1.334 . S
C1637 H1614 0.950 . S
C1637 C1636 1.334 . S
C1637 C1638 1.287 . S
C1638 C1637 1.287 . S
C1638 C1639 1.524 . S
C1638 H1657 0.913 . S
C1639 H1615 0.950 . S
C1639 C1638 1.524 . S
C1639 C1640 1.415 . S
C1640 H1616 0.950 . S
C1640 C1635 1.363 . S
C1640 C1639 1.415 . S
C1641 H1617 0.951 . S
C1641 C1642 1.366 . S
C1641 C1643 1.388 . S
C1642 C1641 1.366 . S
C1642 C1646 1.385 . S
C1643 H1618 0.951 . S
C1643 C1641 1.388 . S
C1643 C1644 1.366 . S
C1644 C1643 1.366 . S
C1644 C1645 1.414 . S
C1644 C1647 1.499 . S
C1645 H1619 0.950 . S
C1645 C1644 1.414 . S
C1645 C1646 1.374 . S
C1646 H1620 0.950 . S
C1646 C1642 1.385 . S
C1646 C1645 1.374 . S
C1647 C1644 1.499 . S
C1647 C1648 1.373 . S
C1647 C1649 1.389 . S
C1648 H1621 0.950 . S
C1648 C1634 1.377 . S
C1648 C1647 1.373 . S
C1649 C1633 1.377 . S
C1649 C1647 1.389 . S
C1649 C1650 1.524 1_556 S
C1650 C1649 1.524 1_554 S
C1650 C1651 1.397 . S
C1650 C1655 1.363 . S
C1651 H1622 0.950 . S
C1651 C1650 1.397 . S
C1651 C1652 1.334 . S
C1652 H1623 0.950 . S
C1652 C1651 1.334 . S
C1652 C1653 1.287 . S
C1653 C1652 1.287 . S
C1653 C1654 1.524 . S
C1653 H1656 0.999 . S
C1654 H1624 0.950 . S
C1654 C1653 1.524 . S
C1654 C1655 1.415 . S
C1655 H1625 0.950 1_554 S
C1655 C1650 1.363 . S
C1655 C1654 1.415 . S
H1656 C1653 0.999 . S
H1657 C1638 0.913 . S
H1658 C1676 0.951 . S
H1659 C1678 0.951 . S
H1660 C1680 0.950 . S
H1661 C1681 0.950 . S
H1662 C1683 0.950 . S
H1663 C1686 0.950 . S
H1664 C1687 0.950 . S
H1665 C1689 0.950 . S
H1666 C1690 0.950 . S
H1667 C1691 0.951 . S
H1668 C1693 0.951 . S
H1669 C1695 0.950 . S
H1670 C1696 0.950 . S
H1671 C1698 0.950 . S
H1672 C1701 0.950 . S
H1673 C1702 0.950 . S
H1674 C1704 0.950 . S
H1675 C1705 0.950 1_554 S
C1676 H1658 0.951 . S
C1676 C1677 1.366 . S
C1676 C1678 1.388 . S
C1677 C1676 1.366 . S
C1677 C1681 1.385 . S
C1678 H1659 0.951 . S
C1678 C1676 1.388 . S
C1678 C1679 1.366 . S
C1679 C1678 1.366 . S
C1679 C1680 1.414 . S
C1679 C1682 1.499 . S
C1680 H1660 0.950 . S
C1680 C1679 1.414 . S
C1680 C1681 1.374 . S
C1681 H1661 0.950 . S
C1681 C1677 1.385 . S
C1681 C1680 1.374 . S
C1682 C1679 1.499 . S
C1682 C1683 1.373 . S
C1682 C1684 1.389 . S
C1683 H1662 0.950 . S
C1683 C1682 1.373 . S
C1683 C1699 1.377 . S
C1684 C1682 1.389 . S
C1684 C1685 1.524 . S
C1684 C1698 1.377 . S
C1685 C1684 1.524 . S
C1685 C1686 1.397 . S
C1685 C1690 1.363 . S
C1686 H1663 0.950 . S
C1686 C1685 1.397 . S
C1686 C1687 1.334 . S
C1687 H1664 0.950 . S
C1687 C1686 1.334 . S
C1687 C1688 1.287 . S
C1688 C1687 1.287 . S
C1688 C1689 1.524 . S
C1688 H1707 0.913 . S
C1689 H1665 0.950 . S
C1689 C1688 1.524 . S
C1689 C1690 1.415 . S
C1690 H1666 0.950 . S
C1690 C1685 1.363 . S
C1690 C1689 1.415 . S
C1691 H1667 0.951 . S
C1691 C1692 1.366 . S
C1691 C1693 1.388 . S
C1692 C1691 1.366 . S
C1692 C1696 1.385 . S
C1693 H1668 0.951 . S
C1693 C1691 1.388 . S
C1693 C1694 1.366 . S
C1694 C1693 1.366 . S
C1694 C1695 1.414 . S
C1694 C1697 1.499 . S
C1695 H1669 0.950 . S
C1695 C1694 1.414 . S
C1695 C1696 1.374 . S
C1696 H1670 0.950 . S
C1696 C1692 1.385 . S
C1696 C1695 1.374 . S
C1697 C1694 1.499 . S
C1697 C1698 1.373 . S
C1697 C1699 1.389 . S
C1698 H1671 0.950 . S
C1698 C1684 1.377 . S
C1698 C1697 1.373 . S
C1699 C1683 1.377 . S
C1699 C1697 1.389 . S
C1699 C1700 1.534 . S
C1700 C1699 1.534 . S
C1700 C1701 1.387 1_554 S
C1700 C1705 1.362 1_554 S
C1701 H1672 0.950 . S
C1701 C1700 1.387 1_556 S
C1701 C1702 1.334 . S
C1702 H1673 0.950 . S
C1702 C1701 1.334 . S
C1702 C1703 1.287 . S
C1703 C1702 1.287 . S
C1703 C1704 1.524 . S
C1703 H1706 0.999 . S
C1704 H1674 0.950 . S
C1704 C1703 1.524 . S
C1704 C1705 1.415 . S
C1705 H1675 0.950 1_556 S
C1705 C1700 1.362 1_556 S
C1705 C1704 1.415 . S
H1706 C1703 0.999 . S
H1707 C1688 0.913 . S
H1708 C1726 0.951 . S
H1709 C1728 0.951 . S
H1710 C1730 0.950 . S
H1711 C1731 0.950 . S
H1712 C1733 0.950 . S
H1713 C1736 0.950 . S
H1714 C1737 0.950 . S
H1715 C1739 0.950 . S
H1716 C1740 0.950 . S
H1717 C1741 0.951 . S
H1718 C1743 0.951 . S
H1719 C1745 0.950 . S
H1720 C1746 0.950 . S
H1721 C1748 0.950 . S
H1722 C1751 0.950 . S
H1723 C1752 0.950 . S
H1724 C1754 0.950 . S
H1725 C1755 0.950 . S
C1726 H1708 0.951 . S
C1726 C1727 1.366 . S
C1726 C1728 1.388 . S
C1727 C1726 1.366 . S
C1727 C1731 1.385 . S
C1728 H1709 0.951 . S
C1728 C1726 1.388 . S
C1728 C1729 1.366 . S
C1729 C1728 1.366 . S
C1729 C1730 1.414 . S
C1729 C1732 1.499 . S
C1730 H1710 0.950 . S
C1730 C1729 1.414 . S
C1730 C1731 1.374 . S
C1731 H1711 0.950 . S
C1731 C1727 1.385 . S
C1731 C1730 1.374 . S
C1732 C1729 1.499 . S
C1732 C1733 1.373 . S
C1732 C1734 1.389 . S
C1733 H1712 0.950 . S
C1733 C1732 1.373 . S
C1733 C1749 1.377 . S
C1734 C1732 1.389 . S
C1734 C1735 1.524 . S
C1734 C1748 1.377 . S
C1735 C1734 1.524 . S
C1735 C1736 1.397 . S
C1735 C1740 1.363 . S
C1736 H1713 0.950 . S
C1736 C1735 1.397 . S
C1736 C1737 1.334 . S
C1737 H1714 0.950 . S
C1737 C1736 1.334 . S
C1737 C1738 1.287 . S
C1738 C1737 1.287 . S
C1738 C1739 1.524 . S
C1738 H1757 0.913 . S
C1739 H1715 0.950 . S
C1739 C1738 1.524 . S
C1739 C1740 1.415 . S
C1740 H1716 0.950 . S
C1740 C1735 1.363 . S
C1740 C1739 1.415 . S
C1741 H1717 0.951 . S
C1741 C1742 1.366 . S
C1741 C1743 1.388 . S
C1742 C1741 1.366 . S
C1742 C1746 1.385 . S
C1743 H1718 0.951 . S
C1743 C1741 1.388 . S
C1743 C1744 1.366 . S
C1744 C1743 1.366 . S
C1744 C1745 1.414 . S
C1744 C1747 1.499 . S
C1745 H1719 0.950 . S
C1745 C1744 1.414 . S
C1745 C1746 1.374 . S
C1746 H1720 0.950 . S
C1746 C1742 1.385 . S
C1746 C1745 1.374 . S
C1747 C1744 1.499 . S
C1747 C1748 1.373 . S
C1747 C1749 1.389 . S
C1748 H1721 0.950 . S
C1748 C1734 1.377 . S
C1748 C1747 1.373 . S
C1749 C1733 1.377 . S
C1749 C1747 1.389 . S
C1749 C1750 1.524 . S
C1750 C1749 1.524 . S
C1750 C1751 1.397 . S
C1750 C1755 1.363 . S
C1751 H1722 0.950 . S
C1751 C1750 1.397 . S
C1751 C1752 1.334 . S
C1752 H1723 0.950 . S
C1752 C1751 1.334 . S
C1752 C1753 1.287 . S
C1753 C1752 1.287 . S
C1753 C1754 1.524 . S
C1753 H1756 0.999 . S
C1754 H1724 0.950 . S
C1754 C1753 1.524 . S
C1754 C1755 1.415 . S
C1755 H1725 0.950 . S
C1755 C1750 1.363 . S
C1755 C1754 1.415 . S
H1756 C1753 0.999 . S
H1757 C1738 0.913 . S
H1758 C1776 0.951 . S
H1759 C1778 0.951 . S
H1760 C1780 0.950 . S
H1761 C1781 0.950 . S
H1762 C1783 0.950 . S
H1763 C1786 0.950 . S
H1764 C1787 0.950 . S
H1765 C1789 0.950 . S
H1766 C1790 0.950 . S
H1767 C1791 0.951 . S
H1768 C1793 0.951 . S
H1769 C1795 0.950 . S
H1770 C1796 0.950 . S
H1771 C1798 0.950 . S
H1772 C1801 0.950 . S
H1773 C1802 0.950 . S
H1774 C1804 0.950 . S
H1775 C1805 0.950 . S
C1776 H1758 0.951 . S
C1776 C1777 1.366 . S
C1776 C1778 1.388 . S
C1777 C1776 1.366 . S
C1777 C1781 1.385 . S
C1778 H1759 0.951 . S
C1778 C1776 1.388 . S
C1778 C1779 1.366 . S
C1779 C1778 1.366 . S
C1779 C1780 1.414 . S
C1779 C1782 1.499 . S
C1780 H1760 0.950 . S
C1780 C1779 1.414 . S
C1780 C1781 1.374 . S
C1781 H1761 0.950 . S
C1781 C1777 1.385 . S
C1781 C1780 1.374 . S
C1782 C1779 1.499 . S
C1782 C1783 1.373 . S
C1782 C1784 1.389 . S
C1783 H1762 0.950 . S
C1783 C1782 1.373 . S
C1783 C1799 1.377 . S
C1784 C1782 1.389 . S
C1784 C1785 1.524 . S
C1784 C1798 1.377 . S
C1785 C1784 1.524 . S
C1785 C1786 1.397 . S
C1785 C1790 1.363 . S
C1786 H1763 0.950 . S
C1786 C1785 1.397 . S
C1786 C1787 1.334 . S
C1787 H1764 0.950 . S
C1787 C1786 1.334 . S
C1787 C1788 1.287 . S
C1788 C1787 1.287 . S
C1788 C1789 1.524 . S
C1788 H1807 0.913 . S
C1789 H1765 0.950 . S
C1789 C1788 1.524 . S
C1789 C1790 1.415 . S
C1790 H1766 0.950 . S
C1790 C1785 1.363 . S
C1790 C1789 1.415 . S
C1791 H1767 0.951 . S
C1791 C1792 1.366 . S
C1791 C1793 1.388 . S
C1792 C1791 1.366 . S
C1792 C1796 1.385 . S
C1793 H1768 0.951 . S
C1793 C1791 1.388 . S
C1793 C1794 1.366 . S
C1794 C1793 1.366 . S
C1794 C1795 1.414 . S
C1794 C1797 1.499 . S
C1795 H1769 0.950 . S
C1795 C1794 1.414 . S
C1795 C1796 1.374 . S
C1796 H1770 0.950 . S
C1796 C1792 1.385 . S
C1796 C1795 1.374 . S
C1797 C1794 1.499 . S
C1797 C1798 1.373 . S
C1797 C1799 1.389 . S
C1798 H1771 0.950 . S
C1798 C1784 1.377 . S
C1798 C1797 1.373 . S
C1799 C1783 1.377 . S
C1799 C1797 1.389 . S
C1799 C1800 1.524 . S
C1800 C1799 1.524 . S
C1800 C1801 1.397 . S
C1800 C1805 1.363 . S
C1801 H1772 0.950 . S
C1801 C1800 1.397 . S
C1801 C1802 1.334 . S
C1802 H1773 0.950 . S
C1802 C1801 1.334 . S
C1802 C1803 1.287 . S
C1803 C1802 1.287 . S
C1803 C1804 1.524 . S
C1803 H1806 0.999 . S
C1804 H1774 0.950 . S
C1804 C1803 1.524 . S
C1804 C1805 1.415 . S
C1805 H1775 0.950 . S
C1805 C1800 1.363 . S
C1805 C1804 1.415 . S
H1806 C1803 0.999 . S
H1807 C1788 0.913 . S
H1808 C1826 0.951 . S
H1809 C1828 0.951 . S
H1810 C1830 0.950 . S
H1811 C1831 0.950 . S
H1812 C1833 0.950 . S
H1813 C1836 0.950 . S
H1814 C1837 0.950 . S
H1815 C1839 0.950 . S
H1816 C1840 0.950 . S
H1817 C1841 0.951 . S
H1818 C1843 0.951 . S
H1819 C1845 0.950 . S
H1820 C1846 0.950 . S
H1821 C1848 0.950 . S
H1822 C1851 0.950 . S
H1823 C1852 0.950 . S
H1824 C1854 0.950 . S
H1825 C1855 0.950 . S
C1826 H1808 0.951 . S
C1826 C1827 1.366 . S
C1826 C1828 1.388 . S
C1827 C1826 1.366 . S
C1827 C1831 1.385 . S
C1828 H1809 0.951 . S
C1828 C1826 1.388 . S
C1828 C1829 1.366 . S
C1829 C1828 1.366 . S
C1829 C1830 1.414 . S
C1829 C1832 1.499 . S
C1830 H1810 0.950 . S
C1830 C1829 1.414 . S
C1830 C1831 1.374 . S
C1831 H1811 0.950 . S
C1831 C1827 1.385 . S
C1831 C1830 1.374 . S
C1832 C1829 1.499 . S
C1832 C1833 1.373 . S
C1832 C1834 1.389 . S
C1833 H1812 0.950 . S
C1833 C1832 1.373 . S
C1833 C1849 1.377 . S
C1834 C1832 1.389 . S
C1834 C1835 1.524 . S
C1834 C1848 1.377 . S
C1835 C1834 1.524 . S
C1835 C1836 1.397 . S
C1835 C1840 1.363 . S
C1836 H1813 0.950 . S
C1836 C1835 1.397 . S
C1836 C1837 1.334 . S
C1837 H1814 0.950 . S
C1837 C1836 1.334 . S
C1837 C1838 1.287 . S
C1838 C1837 1.287 . S
C1838 C1839 1.524 . S
C1838 H1857 0.913 . S
C1839 H1815 0.950 . S
C1839 C1838 1.524 . S
C1839 C1840 1.415 . S
C1840 H1816 0.950 . S
C1840 C1835 1.363 . S
C1840 C1839 1.415 . S
C1841 H1817 0.951 . S
C1841 C1842 1.366 . S
C1841 C1843 1.388 . S
C1842 C1841 1.366 . S
C1842 C1846 1.385 . S
C1843 H1818 0.951 . S
C1843 C1841 1.388 . S
C1843 C1844 1.366 . S
C1844 C1843 1.366 . S
C1844 C1845 1.414 . S
C1844 C1847 1.499 . S
C1845 H1819 0.950 . S
C1845 C1844 1.414 . S
C1845 C1846 1.374 . S
C1846 H1820 0.950 . S
C1846 C1842 1.385 . S
C1846 C1845 1.374 . S
C1847 C1844 1.499 . S
C1847 C1848 1.373 . S
C1847 C1849 1.389 . S
C1848 H1821 0.950 . S
C1848 C1834 1.377 . S
C1848 C1847 1.373 . S
C1849 C1833 1.377 . S
C1849 C1847 1.389 . S
C1849 C1850 1.524 . S
C1850 C1849 1.524 . S
C1850 C1851 1.397 . S
C1850 C1855 1.363 . S
C1851 H1822 0.950 . S
C1851 C1850 1.397 . S
C1851 C1852 1.334 . S
C1852 H1823 0.950 . S
C1852 C1851 1.334 . S
C1852 C1853 1.287 . S
C1853 C1852 1.287 . S
C1853 C1854 1.524 . S
C1853 H1856 0.999 . S
C1854 H1824 0.950 . S
C1854 C1853 1.524 . S
C1854 C1855 1.415 . S
C1855 H1825 0.950 . S
C1855 C1850 1.363 . S
C1855 C1854 1.415 . S
H1856 C1853 0.999 . S
H1857 C1838 0.913 . S
H1858 C1876 0.951 . S
H1859 C1878 0.951 . S
H1860 C1880 0.950 . S
H1861 C1881 0.950 . S
H1862 C1883 0.950 . S
H1863 C1886 0.950 . S
H1864 C1887 0.950 . S
H1865 C1889 0.950 . S
H1866 C1890 0.950 . S
H1867 C1891 0.951 . S
H1868 C1893 0.951 . S
H1869 C1895 0.950 . S
H1870 C1896 0.950 . S
H1871 C1898 0.950 . S
H1872 C1901 0.950 . S
H1873 C1902 0.950 . S
H1874 C1904 0.950 . S
H1875 C1905 0.950 . S
C1876 H1858 0.951 . S
C1876 C1877 1.366 . S
C1876 C1878 1.388 . S
C1877 C1876 1.366 . S
C1877 C1881 1.385 . S
C1878 H1859 0.951 . S
C1878 C1876 1.388 . S
C1878 C1879 1.366 . S
C1879 C1878 1.366 . S
C1879 C1880 1.414 . S
C1879 C1882 1.499 . S
C1880 H1860 0.950 . S
C1880 C1879 1.414 . S
C1880 C1881 1.374 . S
C1881 H1861 0.950 . S
C1881 C1877 1.385 . S
C1881 C1880 1.374 . S
C1882 C1879 1.499 . S
C1882 C1883 1.373 . S
C1882 C1884 1.389 . S
C1883 H1862 0.950 . S
C1883 C1882 1.373 . S
C1883 C1899 1.377 . S
C1884 C1882 1.389 . S
C1884 C1885 1.524 . S
C1884 C1898 1.377 . S
C1885 C1884 1.524 . S
C1885 C1886 1.397 . S
C1885 C1890 1.363 . S
C1886 H1863 0.950 . S
C1886 C1885 1.397 . S
C1886 C1887 1.334 . S
C1887 H1864 0.950 . S
C1887 C1886 1.334 . S
C1887 C1888 1.287 . S
C1888 C1887 1.287 . S
C1888 C1889 1.524 . S
C1888 H1907 0.913 . S
C1889 H1865 0.950 . S
C1889 C1888 1.524 . S
C1889 C1890 1.415 . S
C1890 H1866 0.950 . S
C1890 C1885 1.363 . S
C1890 C1889 1.415 . S
C1891 H1867 0.951 . S
C1891 C1892 1.366 . S
C1891 C1893 1.388 . S
C1892 C1891 1.366 . S
C1892 C1896 1.385 . S
C1893 H1868 0.951 . S
C1893 C1891 1.388 . S
C1893 C1894 1.366 . S
C1894 C1893 1.366 . S
C1894 C1895 1.414 . S
C1894 C1897 1.499 . S
C1895 H1869 0.950 . S
C1895 C1894 1.414 . S
C1895 C1896 1.374 . S
C1896 H1870 0.950 . S
C1896 C1892 1.385 . S
C1896 C1895 1.374 . S
C1897 C1894 1.499 . S
C1897 C1898 1.373 . S
C1897 C1899 1.389 . S
C1898 H1871 0.950 . S
C1898 C1884 1.377 . S
C1898 C1897 1.373 . S
C1899 C1883 1.377 . S
C1899 C1897 1.389 . S
C1899 C1900 1.524 . S
C1900 C1899 1.524 . S
C1900 C1901 1.397 . S
C1900 C1905 1.363 . S
C1901 H1872 0.950 . S
C1901 C1900 1.397 . S
C1901 C1902 1.334 . S
C1902 H1873 0.950 . S
C1902 C1901 1.334 . S
C1902 C1903 1.287 . S
C1903 C1902 1.287 . S
C1903 C1904 1.524 . S
C1903 H1906 0.999 . S
C1904 H1874 0.950 . S
C1904 C1903 1.524 . S
C1904 C1905 1.415 . S
C1905 H1875 0.950 . S
C1905 C1900 1.363 . S
C1905 C1904 1.415 . S
H1906 C1903 0.999 . S
H1907 C1888 0.913 . S
C427 C349 0.195 . S
C442 C9 0.165 . S
C477 C43 0.295 . S
C492 C383 0.297 . S
C527 C77 0.297 . S
C542 C213 0.295 . S
C577 C111 0.197 . S
C592 C247 0.163 . S
C627 C145 0.289 . S
C642 C281 0.278 . S
C677 C179 0.280 . S
C692 C315 0.287 . S
C727 C5 1.703 . S
C742 C190 1.700 . S
C777 C20 1.741 . S
C792 C39 1.676 . S
C827 C54 1.803 . S
C842 C73 1.763 . S
C877 C107 1.731 . S
C892 C88 1.777 . S
C927 C141 1.920 . S
C942 C122 1.962 . S
C977 C175 1.806 . S
C992 C156 1.821 . S
C1027 C258 1.742 . S
C1042 C209 1.675 . S
C1077 C243 1.705 . S
C1092 C292 1.700 . S
C1127 C277 1.805 . S
C1142 C326 1.821 . S
C1177 C311 1.920 . S
C1192 C360 1.962 . S
C1227 C345 1.731 . S
C1242 C394 1.777 . S
C1277 C379 1.763 . S
C1292 C224 1.803 . S
C1327 C2 0.985 . S
C1342 C308 0.984 . S
C1377 C36 1.383 . S
C1392 C342 1.385 . S
C1427 C70 1.275 . S
C1442 C376 1.275 . S
C1477 C104 1.385 . S
C1492 C206 1.383 . S
C1527 C138 0.986 . S
C1542 C240 0.984 . S
C1577 C274 1.149 . S
C1592 C172 1.149 . S
C1627 C237 1.010 . S
C1642 C33 1.014 . S
C1677 C67 1.011 . S
C1692 C271 1.014 . S
C1727 C101 1.062 . S
C1742 C305 1.062 . S
C1777 C339 1.148 . S
C1792 C135 1.151 . S
C1827 C169 1.149 . S
C1842 C373 1.152 . S
C1877 C407 1.063 . S
C1892 C203 1.062 . S
