# Generated by pormake.
# Topology zft, (5)-cn, num edge types: 1
# Building blocks:
#     Node 0, Type 0, BuildingBlock: BEQFEK_clean_sbu_0, # of connection points: 5
#     Node 1, Type 0, BuildingBlock: BEQFEK_clean_sbu_0, # of connection points: 5
#     Node 2, Type 0, BuildingBlock: BEQFEK_clean_sbu_0, # of connection points: 5
#     Node 3, Type 0, BuildingBlock: BEQFEK_clean_sbu_0, # of connection points: 5
#     Node 4, Type 0, BuildingBlock: BEQFEK_clean_sbu_0, # of connection points: 5
#     Node 5, Type 0, BuildingBlock: BEQFEK_clean_sbu_0, # of connection points: 5
#     Node 6, Type 0, BuildingBlock: BEQFEK_clean_sbu_0, # of connection points: 5
#     Node 7, Type 0, BuildingBlock: BEQFEK_clean_sbu_0, # of connection points: 5
#     Edge 8, Type (0, 0), BuildingBlock: UVAHIK_clean_linker_0, # of connection points: 2
#     Edge 9, Type (0, 0), BuildingBlock: UVAHIK_clean_linker_0, # of connection points: 2
#     Edge 10, Type (0, 0), BuildingBlock: UVAHIK_clean_linker_0, # of connection points: 2
#     Edge 11, Type (0, 0), BuildingBlock: UVAHIK_clean_linker_0, # of connection points: 2
#     Edge 12, Type (0, 0), BuildingBlock: UVAHIK_clean_linker_0, # of connection points: 2
#     Edge 13, Type (0, 0), BuildingBlock: UVAHIK_clean_linker_0, # of connection points: 2
#     Edge 14, Type (0, 0), BuildingBlock: UVAHIK_clean_linker_0, # of connection points: 2
#     Edge 15, Type (0, 0), BuildingBlock: UVAHIK_clean_linker_0, # of connection points: 2
#     Edge 16, Type (0, 0), BuildingBlock: UVAHIK_clean_linker_0, # of connection points: 2
#     Edge 17, Type (0, 0), BuildingBlock: UVAHIK_clean_linker_0, # of connection points: 2
#     Edge 18, Type (0, 0), BuildingBlock: UVAHIK_clean_linker_0, # of connection points: 2
#     Edge 19, Type (0, 0), BuildingBlock: UVAHIK_clean_linker_0, # of connection points: 2
#     Edge 20, Type (0, 0), BuildingBlock: UVAHIK_clean_linker_0, # of connection points: 2
#     Edge 21, Type (0, 0), BuildingBlock: UVAHIK_clean_linker_0, # of connection points: 2
#     Edge 22, Type (0, 0), BuildingBlock: UVAHIK_clean_linker_0, # of connection points: 2
#     Edge 23, Type (0, 0), BuildingBlock: UVAHIK_clean_linker_0, # of connection points: 2
#     Edge 24, Type (0, 0), BuildingBlock: UVAHIK_clean_linker_0, # of connection points: 2
#     Edge 25, Type (0, 0), BuildingBlock: UVAHIK_clean_linker_0, # of connection points: 2
#     Edge 26, Type (0, 0), BuildingBlock: UVAHIK_clean_linker_0, # of connection points: 2
#     Edge 27, Type (0, 0), BuildingBlock: UVAHIK_clean_linker_0, # of connection points: 2
# Relax obj value: 0.057
# Max RMSD: 0.119
# Mean RMSD: 0.119
data_MOF--net-zft--node1-BEQFEK_clean_sbu_0--edge1-UVAHIK_clean_linker_0
_symmetry_space_group_name_H-M    P1
_symmetry_Int_Tables_number       1
_symmetry_cell_setting            triclinic
loop_
_symmetry_equiv_pos_as_xyz
'x, y, z'
_cell_length_a     35.406349
_cell_length_b     35.382988
_cell_length_c     69.697511
_cell_angle_alpha  89.997771
_cell_angle_beta   89.969595
_cell_angle_gamma 89.98957
loop_
_atom_site_label
_atom_site_type_symbol
_atom_site_fract_x
_atom_site_fract_y
_atom_site_fract_z
_atom_type_partial_charge
Co0 Co 0.06406 0.27878 0.19108 0.0
Co1 Co 0.12965 0.32803 0.17401 0.0
C2 C 0.05386 0.32367 0.15508 0.0
O3 O 0.04136 0.30112 0.16781 0.0
O4 O 0.08743 0.33645 0.1558 0.0
C5 C 0.9895 0.26245 0.20489 0.0
O6 O 0.98011 0.29293 0.19524 0.0
C7 C 0.17043 0.3961 0.16083 0.0
C8 C 0.22884 0.37433 0.15915 0.0
C9 C 0.20703 0.40612 0.15568 0.0
N10 N 0.17078 0.36006 0.16702 0.0
N11 N 0.20584 0.3474 0.16613 0.0
C12 C 0.13533 0.41936 0.15873 0.0
H13 H 0.10969 0.40189 0.16056 0.0
H14 H 0.13485 0.44152 0.16996 0.0
H15 H 0.13493 0.43348 0.14451 0.0
C16 C 0.07988 0.32656 0.22501 0.0
N17 N 0.08648 0.31628 0.20672 0.0
N18 N 0.11414 0.33696 0.19972 0.0
C19 C 0.12609 0.36108 0.2134 0.0
C20 C 0.10469 0.35534 0.22984 0.0
C21 C 0.04922 0.31012 0.23723 0.0
H22 H 0.05316 0.27909 0.23834 0.0
H23 H 0.02157 0.3154 0.23027 0.0
H24 H 0.04861 0.32268 0.25179 0.0
O25 O 0.10174 0.24049 0.18335 0.0
O26 O 0.14768 0.27532 0.17084 0.0
H27 H 0.18268 0.3727 0.20422 0.0
H28 H 0.16816 0.39903 0.22516 0.0
C29 C 0.15872 0.38759 0.21114 0.0
H30 H 0.15018 0.4114 0.20177 0.0
H31 H 0.21394 0.31998 0.16985 0.0
O32 O 0.02382 0.25194 0.2052 0.0
C33 C 0.1338 0.24325 0.17519 0.0
Co34 Co 0.21387 0.56445 0.4387 0.0
Co35 Co 0.16962 0.63551 0.42408 0.0
C36 C 0.16383 0.55949 0.40467 0.0
O37 O 0.1852 0.54366 0.41695 0.0
O38 O 0.15615 0.59462 0.40566 0.0
C39 C 0.228 0.48941 0.45344 0.0
O40 O 0.19363 0.48156 0.44756 0.0
C41 C 0.10475 0.67983 0.41091 0.0
C42 C 0.12433 0.73846 0.41558 0.0
C43 C 0.09418 0.71741 0.4088 0.0
N44 N 0.13939 0.67884 0.41876 0.0
N45 N 0.15091 0.71394 0.42157 0.0
C46 C 0.08454 0.64529 0.40393 0.0
H47 H 0.08531 0.62312 0.41518 0.0
H48 H 0.05499 0.651 0.3997 0.0
H49 H 0.09958 0.6342 0.39116 0.0
C50 C 0.17261 0.58347 0.47452 0.0
N51 N 0.18145 0.58983 0.456 0.0
N52 N 0.16271 0.61962 0.44987 0.0
C53 C 0.14146 0.63325 0.46434 0.0
C54 C 0.14703 0.61075 0.48039 0.0
C55 C 0.18932 0.55262 0.48649 0.0
H56 H 0.22032 0.55162 0.48428 0.0
H57 H 0.17729 0.52513 0.48191 0.0
H58 H 0.18327 0.55685 0.50197 0.0
O59 O 0.25345 0.59863 0.42868 0.0
O60 O 0.22268 0.65026 0.41959 0.0
H61 H 0.13169 0.692 0.45928 0.0
H62 H 0.09862 0.67081 0.47588 0.0
C63 C 0.11516 0.66618 0.46257 0.0
H64 H 0.09534 0.66113 0.45053 0.0
H65 H 0.17713 0.72112 0.42732 0.0
O66 O 0.2409 0.52265 0.45136 0.0
C67 C 0.25328 0.63189 0.42173 0.0
Co68 Co 0.92929 0.71611 0.69045 0.0
Co69 Co 0.86598 0.66395 0.67364 0.0
C70 C 0.94187 0.66884 0.65523 0.0
O71 O 0.95299 0.69271 0.66766 0.0
O72 O 0.90877 0.65482 0.65587 0.0
C73 C 0.00276 0.73316 0.70516 0.0
O74 O 0.01152 0.6999 0.69806 0.0
C75 C 0.82822 0.59573 0.65948 0.0
C76 C 0.768 0.61073 0.66288 0.0
C77 C 0.79184 0.58233 0.65647 0.0
N78 N 0.82589 0.63049 0.66715 0.0
N79 N 0.78984 0.63931 0.66914 0.0
C80 C 0.86466 0.57526 0.65631 0.0
H81 H 0.88649 0.58562 0.66645 0.0
H82 H 0.86083 0.54434 0.65817 0.0
H83 H 0.8746 0.58075 0.64148 0.0
C84 C 0.9136 0.66997 0.72512 0.0
N85 N 0.90739 0.6792 0.70664 0.0
N86 N 0.88114 0.65687 0.69955 0.0
C87 C 0.87015 0.63235 0.71325 0.0
C88 C 0.89036 0.63986 0.72987 0.0
C89 C 0.94254 0.68856 0.73759 0.0
H90 H 0.97109 0.68114 0.73224 0.0
H91 H 0.94028 0.67935 0.75275 0.0
H92 H 0.93935 0.7197 0.73674 0.0
O93 O 0.89096 0.75282 0.68187 0.0
O94 O 0.8466 0.71597 0.66943 0.0
H95 H 0.83334 0.58838 0.72428 0.0
H96 H 0.84928 0.58225 0.69983 0.0
C97 C 0.83994 0.60321 0.71066 0.0
H98 H 0.81391 0.61698 0.70528 0.0
H99 H 0.78015 0.66489 0.67474 0.0
O100 O 0.96895 0.74497 0.70391 0.0
C101 C 0.85936 0.74868 0.67344 0.0
Co102 Co 0.77949 0.43093 0.93954 0.0
Co103 Co 0.82444 0.36077 0.92454 0.0
C104 C 0.82786 0.43619 0.9047 0.0
O105 O 0.80617 0.45173 0.91695 0.0
O106 O 0.83676 0.40142 0.906 0.0
C107 C 0.76551 0.50611 0.95407 0.0
O108 O 0.79962 0.51395 0.9478 0.0
C109 C 0.88966 0.31863 0.91063 0.0
C110 C 0.87201 0.25927 0.91471 0.0
C111 C 0.90114 0.28158 0.90776 0.0
N112 N 0.85521 0.31824 0.91867 0.0
N113 N 0.84478 0.2827 0.92111 0.0
C114 C 0.91186 0.35393 0.90706 0.0
H115 H 0.90369 0.37614 0.91751 0.0
H116 H 0.94264 0.34839 0.90818 0.0
H117 H 0.90559 0.36444 0.89241 0.0
C118 C 0.82312 0.41325 0.97484 0.0
N119 N 0.81358 0.40667 0.95644 0.0
N120 N 0.83224 0.37692 0.95018 0.0
C121 C 0.85408 0.36348 0.96446 0.0
C122 C 0.84905 0.38611 0.98051 0.0
C123 C 0.8065 0.44391 0.98698 0.0
H124 H 0.77538 0.44435 0.98519 0.0
H125 H 0.81779 0.47156 0.98215 0.0
H126 H 0.81342 0.43995 0.00237 0.0
O127 O 0.73976 0.3954 0.93086 0.0
O128 O 0.77152 0.34539 0.92047 0.0
H129 H 0.86327 0.30475 0.95905 0.0
H130 H 0.89636 0.32519 0.97588 0.0
C131 C 0.88003 0.3303 0.96256 0.0
H132 H 0.90005 0.33542 0.95061 0.0
H133 H 0.81897 0.27445 0.927 0.0
O134 O 0.75268 0.47276 0.95232 0.0
C135 C 0.74047 0.36244 0.92355 0.0
Co136 Co 0.56412 0.21593 0.55438 0.0
Co137 Co 0.62811 0.16424 0.57089 0.0
C138 C 0.55297 0.1698 0.59011 0.0
O139 O 0.54128 0.19336 0.57765 0.0
O140 O 0.58601 0.15569 0.58915 0.0
C141 C 0.48998 0.23304 0.54048 0.0
O142 O 0.4807 0.2016 0.54934 0.0
C143 C 0.66608 0.09608 0.58485 0.0
C144 C 0.72626 0.11093 0.58115 0.0
C145 C 0.70248 0.08255 0.58764 0.0
N146 N 0.66834 0.13088 0.57723 0.0
N147 N 0.70437 0.13963 0.57506 0.0
C148 C 0.62965 0.07568 0.58815 0.0
H149 H 0.60761 0.08632 0.5782 0.0
H150 H 0.63333 0.04478 0.58611 0.0
H151 H 0.62008 0.0809 0.60307 0.0
C152 C 0.57847 0.16885 0.51993 0.0
N153 N 0.5854 0.17849 0.53829 0.0
N154 N 0.612 0.15637 0.54522 0.0
C155 C 0.62255 0.13163 0.53152 0.0
C156 C 0.60164 0.13874 0.51508 0.0
C157 C 0.54903 0.18714 0.50764 0.0
H158 H 0.52074 0.18086 0.51368 0.0
H159 H 0.54996 0.17674 0.49265 0.0
H160 H 0.55299 0.21824 0.5078 0.0
O161 O 0.60277 0.25296 0.56229 0.0
O162 O 0.64759 0.21638 0.57453 0.0
H163 H 0.67912 0.11667 0.53911 0.0
H164 H 0.65937 0.08794 0.52025 0.0
C165 C 0.65305 0.10272 0.53391 0.0
H166 H 0.64415 0.08168 0.5448 0.0
H167 H 0.714 0.16521 0.56944 0.0
O168 O 0.52417 0.24397 0.54069 0.0
C169 C 0.6347 0.249 0.57043 0.0
Co170 Co 0.27931 0.06668 0.80611 0.0
Co171 Co 0.32495 0.13548 0.82229 0.0
C172 C 0.32672 0.05912 0.84123 0.0
O173 O 0.3051 0.04459 0.82864 0.0
O174 O 0.33636 0.09377 0.84043 0.0
C175 C 0.26435 0.99211 0.79101 0.0
O176 O 0.29665 0.98265 0.79894 0.0
C177 C 0.38988 0.17817 0.8367 0.0
C178 C 0.37123 0.23727 0.83255 0.0
C179 C 0.40082 0.21548 0.83939 0.0
N180 N 0.35556 0.17804 0.82848 0.0
N181 N 0.3446 0.2134 0.82599 0.0
C182 C 0.40937 0.14303 0.84343 0.0
H183 H 0.40848 0.12131 0.83195 0.0
H184 H 0.43891 0.14808 0.84787 0.0
H185 H 0.39386 0.13169 0.85599 0.0
C186 C 0.32406 0.08533 0.77137 0.0
N187 N 0.31415 0.09132 0.78979 0.0
N188 N 0.33322 0.12038 0.7965 0.0
C189 C 0.35578 0.13391 0.78251 0.0
C190 C 0.35073 0.1121 0.76618 0.0
C191 C 0.30709 0.05553 0.75882 0.0
H192 H 0.27589 0.05623 0.76013 0.0
H193 H 0.31702 0.02738 0.76367 0.0
H194 H 0.31504 0.05951 0.74355 0.0
O195 O 0.2397 0.10213 0.815 0.0
O196 O 0.27199 0.15104 0.82625 0.0
H197 H 0.3664 0.19223 0.78837 0.0
H198 H 0.39987 0.17109 0.77194 0.0
C199 C 0.38259 0.16623 0.78499 0.0
H200 H 0.40171 0.16027 0.79721 0.0
H201 H 0.31872 0.22122 0.82005 0.0
O202 O 0.25275 0.02599 0.79229 0.0
C203 C 0.24074 0.13465 0.82279 0.0
Co204 Co 0.4294 0.77907 0.05495 0.0
Co205 Co 0.36477 0.82878 0.07249 0.0
C206 C 0.44111 0.82516 0.09062 0.0
O207 O 0.45276 0.80211 0.0779 0.0
O208 O 0.40763 0.83832 0.09022 0.0
C209 C 0.50343 0.76332 0.04028 0.0
O210 O 0.5127 0.79457 0.04931 0.0
C211 C 0.32481 0.89552 0.08709 0.0
C212 C 0.26525 0.87699 0.08542 0.0
C213 C 0.28805 0.90676 0.09111 0.0
N214 N 0.32362 0.86076 0.07934 0.0
N215 N 0.28796 0.84997 0.07825 0.0
C216 C 0.36081 0.91497 0.09247 0.0
H217 H 0.38323 0.90808 0.08189 0.0
H218 H 0.35746 0.94597 0.09345 0.0
H219 H 0.36992 0.90446 0.10673 0.0
C220 C 0.41174 0.8257 0.02082 0.0
N221 N 0.40622 0.81598 0.03928 0.0
N222 N 0.37931 0.83721 0.0466 0.0
C223 C 0.36705 0.86144 0.03303 0.0
C224 C 0.38717 0.85489 0.01626 0.0
C225 C 0.44116 0.80834 0.00815 0.0
H226 H 0.43742 0.77721 0.0079 0.0
H227 H 0.46947 0.81446 0.01418 0.0
H228 H 0.44001 0.81954 0.99331 0.0
O229 O 0.39225 0.74091 0.06329 0.0
O230 O 0.34703 0.77606 0.07623 0.0
H231 H 0.31031 0.87407 0.04138 0.0
H232 H 0.328 0.90377 0.02236 0.0
C233 C 0.33556 0.8891 0.03588 0.0
H234 H 0.34413 0.91032 0.04676 0.0
H235 H 0.27919 0.82376 0.073 0.0
O236 O 0.46933 0.75211 0.04066 0.0
C237 C 0.36064 0.74387 0.07187 0.0
Co238 Co 0.71472 0.9304 0.30642 0.0
Co239 Co 0.67069 0.85983 0.32137 0.0
C240 C 0.66402 0.93603 0.34028 0.0
O241 O 0.68624 0.95165 0.32831 0.0
O242 O 0.65605 0.90104 0.33911 0.0
C243 C 0.72814 0.00532 0.29147 0.0
O244 O 0.6937 0.01284 0.29737 0.0
C245 C 0.60403 0.81817 0.33325 0.0
C246 C 0.6252 0.7596 0.33537 0.0
C247 C 0.59339 0.78172 0.33847 0.0
N248 N 0.64028 0.81743 0.32764 0.0
N249 N 0.65281 0.78236 0.32884 0.0
C250 C 0.5803 0.85317 0.3326 0.0
H251 H 0.59206 0.87355 0.32206 0.0
H252 H 0.55074 0.84625 0.32866 0.0
H253 H 0.58056 0.86691 0.34691 0.0
C254 C 0.67333 0.91059 0.27069 0.0
N255 N 0.68227 0.9046 0.28922 0.0
N256 N 0.66437 0.87431 0.29536 0.0
C257 C 0.64391 0.85973 0.28084 0.0
C258 C 0.64877 0.88241 0.26479 0.0
C259 C 0.68891 0.94203 0.25871 0.0
H260 H 0.71998 0.94356 0.26058 0.0
H261 H 0.67659 0.96918 0.26363 0.0
H262 H 0.68229 0.93807 0.24328 0.0
O263 O 0.75477 0.89618 0.31617 0.0
O264 O 0.72356 0.84585 0.32659 0.0
H265 H 0.63571 0.80197 0.28898 0.0
H266 H 0.60802 0.81646 0.26842 0.0
C267 C 0.61934 0.82547 0.28252 0.0
H268 H 0.59526 0.83188 0.29215 0.0
H269 H 0.68035 0.77412 0.32556 0.0
O270 O 0.74139 0.97222 0.29358 0.0
C271 C 0.75438 0.86353 0.32385 0.0
C272 C 0.11405 0.35491 0.2653 0.0
C273 C 0.10778 0.37527 0.24834 0.0
C274 C 0.11689 0.37374 0.28284 0.0
C275 C 0.092 0.46256 0.30722 0.0
H276 H 0.17397 0.43594 0.34152 0.0
C277 C 0.13613 0.55514 0.37168 0.0
C278 C 0.15001 0.53709 0.3882 0.0
C279 C 0.12715 0.53417 0.35532 0.0
C280 C 0.15049 0.4433 0.3323 0.0
H281 H 0.09958 0.43089 0.23614 0.0
H282 H 0.10467 0.46411 0.26688 0.0
H283 H 0.16623 0.4017 0.3115 0.0
H284 H 0.16331 0.48268 0.40087 0.0
H285 H 0.14682 0.44607 0.37251 0.0
H286 H 0.07625 0.5042 0.32802 0.0
C287 C 0.10703 0.43359 0.26667 0.0
C288 C 0.14616 0.42374 0.31506 0.0
C289 C 0.10443 0.41472 0.24911 0.0
C290 C 0.15308 0.49749 0.3883 0.0
C291 C 0.14384 0.47652 0.37201 0.0
C292 C 0.09618 0.48201 0.32455 0.0
C293 C 0.11337 0.41328 0.28371 0.0
C294 C 0.11707 0.43334 0.30227 0.0
C295 C 0.13162 0.49468 0.35517 0.0
C296 C 0.12566 0.47278 0.33723 0.0
H297 H 0.11695 0.32443 0.26494 0.0
H298 H 0.12154 0.35735 0.29575 0.0
H299 H 0.06901 0.47022 0.29774 0.0
H300 H 0.13366 0.58562 0.37108 0.0
H301 H 0.1182 0.54913 0.34256 0.0
C302 C -0.00102 0.68153 0.63512 0.0
C303 C 0.96718 0.65904 0.63909 0.0
C304 C 0.02111 0.6745 0.61893 0.0
C305 C 0.04761 0.60314 0.58354 0.0
H306 H 0.06312 0.68868 0.54966 0.0
C307 C 0.10676 0.58574 0.50681 0.0
C308 C 0.12938 0.61476 0.49941 0.0
C309 C 0.08888 0.5901 0.52454 0.0
C310 C 0.05976 0.66459 0.55908 0.0
H311 H 0.93469 0.61051 0.62965 0.0
H312 H 0.97388 0.5979 0.60147 0.0
H313 H 0.02962 0.69751 0.5798 0.0
H314 H 0.15245 0.67036 0.50464 0.0
H315 H 0.12248 0.67771 0.53598 0.0
H316 H 0.07833 0.57025 0.56306 0.0
C317 C 0.98137 0.62109 0.61087 0.0
C318 C 0.04039 0.66967 0.57632 0.0
C319 C 0.95887 0.62844 0.62693 0.0
C320 C 0.13472 0.64783 0.5101 0.0
C321 C 0.11733 0.65203 0.52795 0.0
C322 C 0.06753 0.59812 0.5664 0.0
C323 C 0.01223 0.64452 0.60655 0.0
C324 C 0.03395 0.63899 0.58864 0.0
C325 C 0.09378 0.62341 0.53532 0.0
C326 C 0.07366 0.62875 0.55388 0.0
H327 H 0.00621 0.7053 0.6442 0.0
H328 H 0.04498 0.69275 0.61598 0.0
H329 H 0.04321 0.5791 0.5929 0.0
H330 H 0.10227 0.56004 0.49866 0.0
H331 H 0.07054 0.5677 0.52956 0.0
C332 C 0.8339 0.4973 0.88672 0.0
C333 C 0.84113 0.45829 0.88798 0.0
C334 C 0.84359 0.51743 0.87018 0.0
C335 C 0.85728 0.50294 0.81877 0.0
H336 H 0.90136 0.60324 0.81967 0.0
C337 C 0.89623 0.58084 0.74907 0.0
C338 C 0.88824 0.61958 0.74829 0.0
C339 C 0.89356 0.56133 0.76643 0.0
C340 C 0.88868 0.5754 0.81919 0.0
H341 H 0.86538 0.41016 0.87307 0.0
H342 H 0.88228 0.44536 0.8443 0.0
H343 H 0.89182 0.56903 0.84974 0.0
H344 H 0.87112 0.6686 0.76465 0.0
H345 H 0.86561 0.63448 0.79505 0.0
H346 H 0.85316 0.50943 0.78838 0.0
C347 C 0.86883 0.46024 0.85604 0.0
C348 C 0.88335 0.55581 0.8364 0.0
C349 C 0.85935 0.44015 0.87259 0.0
C350 C 0.8777 0.6387 0.76506 0.0
C351 C 0.87477 0.61919 0.78243 0.0
C352 C 0.86236 0.52258 0.80161 0.0
C353 C 0.86049 0.49893 0.85454 0.0
C354 C 0.86753 0.51941 0.83635 0.0
C355 C 0.8825 0.5802 0.7833 0.0
C356 C 0.87804 0.55909 0.80159 0.0
H357 H 0.82 0.51217 0.89833 0.0
H358 H 0.83662 0.5472 0.86938 0.0
H359 H 0.84441 0.47519 0.81832 0.0
H360 H 0.90464 0.56571 0.73624 0.0
H361 H 0.90031 0.53148 0.76663 0.0
C362 C 0.89046 0.41045 0.0066 0.0
C363 C 0.86697 0.38192 -0.00058 0.0
C364 C 0.90877 0.40572 0.02419 0.0
C365 C 0.93706 0.33054 0.05854 0.0
H366 H 0.95652 0.41552 0.09227 0.0
C367 C 0.997 0.31221 0.13465 0.0
C368 C 0.02946 0.33369 0.13865 0.0
C369 C 0.97542 0.31972 0.11834 0.0
C370 C 0.95132 0.39162 0.08292 0.0
H371 H 0.84273 0.32692 0.00491 0.0
H372 H 0.8734 0.319 0.03602 0.0
H373 H 0.92114 0.42535 0.0626 0.0
H374 H 0.06385 0.38087 0.12911 0.0
H375 H 0.02554 0.39434 0.10072 0.0
H376 H 0.96659 0.29679 0.07913 0.0
C377 C 0.87893 0.34451 0.02791 0.0
C378 C 0.93125 0.39721 0.06589 0.0
C379 C 0.86113 0.34905 0.0102 0.0
C380 C 0.0391 0.36371 0.12636 0.0
C381 C 0.01713 0.37156 0.11019 0.0
C382 C 0.95658 0.32492 0.07568 0.0
C383 C 0.90343 0.37255 0.03504 0.0
C384 C 0.92399 0.36673 0.05342 0.0
C385 C 0.9855 0.34919 0.10588 0.0
C386 C 0.96401 0.3554 0.08798 0.0
H387 H 0.89531 0.43598 -0.00162 0.0
H388 H 0.92779 0.42768 0.02904 0.0
H389 H 0.93286 0.30654 0.04914 0.0
H390 H 0.98878 0.28891 0.14382 0.0
H391 H 0.95094 0.30229 0.11538 0.0
C392 C 0.61333 0.13755 0.47981 0.0
C393 C 0.60334 0.11841 0.49666 0.0
C394 C 0.61571 0.11806 0.46242 0.0
C395 C 0.62696 0.02132 0.44304 0.0
H396 H 0.59776 0.06875 0.39511 0.0
C397 C 0.63002 0.94007 0.37172 0.0
C398 C 0.64942 0.9582 0.3567 0.0
C399 C 0.61993 0.96002 0.38823 0.0
C400 C 0.6061 0.05524 0.40839 0.0
H401 H 0.58736 0.06453 0.50883 0.0
H402 H 0.59059 0.03037 0.47838 0.0
H403 H 0.58866 0.10262 0.4253 0.0
H404 H 0.67162 0.01199 0.34684 0.0
H405 H 0.6538 0.04679 0.37569 0.0
H406 H 0.64429 0.97396 0.42613 0.0
C407 C 0.5974 0.0602 0.47854 0.0
C408 C 0.60105 0.07464 0.42568 0.0
C409 C 0.59535 0.07967 0.49594 0.0
C410 C 0.65686 0.99713 0.35818 0.0
C411 C 0.6465 0.01713 0.37465 0.0
C412 C 0.63168 0.00185 0.4258 0.0
C413 C 0.6079 0.07909 0.46157 0.0
C414 C 0.61172 0.05803 0.44321 0.0
C415 C 0.62872 -0.00144 0.39001 0.0
C416 C 0.62157 0.01869 0.40829 0.0
H417 H 0.61988 0.16745 0.48018 0.0
H418 H 0.62449 0.1334 0.44974 0.0
H419 H 0.63619 0.00791 0.45619 0.0
H420 H 0.62365 0.91016 0.37104 0.0
H421 H 0.60579 0.94513 0.39976 0.0
C422 C 0.36476 0.15016 0.73699 0.0
C423 C 0.36923 0.11662 0.7474 0.0
C424 C 0.38243 0.15459 0.71922 0.0
C425 C 0.43054 0.10044 0.68032 0.0
H426 H 0.46971 0.19937 0.667 0.0
C427 C 0.53699 0.12972 0.61866 0.0
C428 C 0.52847 0.16046 0.60663 0.0
C429 C 0.51529 0.12267 0.63503 0.0
C430 C 0.45861 0.17167 0.67048 0.0
H431 H 0.39528 0.06137 0.74777 0.0
H432 H 0.42753 0.06938 0.71703 0.0
H433 H 0.43706 0.19062 0.69741 0.0
H434 H 0.48996 0.2074 0.60214 0.0
H435 H 0.45259 0.19538 0.63092 0.0
H436 H 0.4536 0.08147 0.65352 0.0
C437 C 0.40962 0.092 0.7222 0.0
C438 C 0.43972 0.16663 0.68787 0.0
C439 C 0.39146 0.08743 0.73985 0.0
C440 C 0.4973 0.18348 0.61109 0.0
C441 C 0.476 0.17676 0.6276 0.0
C442 C 0.44997 0.10541 0.66303 0.0
C443 C 0.4054 0.12569 0.71165 0.0
C444 C 0.42533 0.13097 0.69302 0.0
C445 C 0.48505 0.14657 0.63982 0.0
C446 C 0.46405 0.14111 0.65795 0.0
H447 H 0.34734 0.17283 0.74256 0.0
H448 H 0.37782 0.18059 0.71137 0.0
H449 H 0.41932 0.07273 0.68361 0.0
H450 H 0.56071 0.11138 0.61557 0.0
H451 H 0.52291 0.09929 0.64429 0.0
C452 C 0.38863 0.91357 0.99647 0.0
C453 C 0.38323 0.8744 0.99769 0.0
C454 C 0.38529 0.93201 0.97883 0.0
C455 C 0.34134 0.92304 0.93143 0.0
H456 H 0.41449 -0.00094 0.9164 0.0
C457 C 0.33299 0.99662 0.85787 0.0
C458 C 0.33891 0.0359 0.85777 0.0
C459 C 0.34165 0.9752 0.87413 0.0
C460 C 0.39364 0.97813 0.92045 0.0
H461 H 0.36981 0.82362 0.98182 0.0
H462 H 0.36387 0.85581 0.95085 0.0
H463 H 0.42249 0.96532 0.94667 0.0
H464 H 0.35923 0.08333 0.87459 0.0
H465 H 0.37376 0.04618 0.90295 0.0
H466 H 0.31194 0.93634 0.90553 0.0
C467 C 0.37063 0.87232 0.96348 0.0
C468 C 0.39826 0.95881 0.93778 0.0
C469 C 0.37422 0.85389 0.9811 0.0
C470 C 0.35463 0.0531 0.87409 0.0
C471 C 0.36308 0.03173 0.89037 0.0
C472 C 0.33658 0.9425 0.91418 0.0
C473 C 0.37621 0.91157 0.96215 0.0
C474 C 0.37202 0.93124 0.9435 0.0
C475 C 0.3562 0.99261 0.89069 0.0
C476 C 0.36253 0.97048 0.90853 0.0
H477 H 0.39562 0.92983 0.00915 0.0
H478 H 0.38929 0.96234 0.97828 0.0
H479 H 0.32041 0.90225 0.93558 0.0
H480 H 0.32117 0.98243 0.84548 0.0
H481 H 0.33663 0.94502 0.87377 0.0
C482 C 0.60585 0.90637 0.23928 0.0
C483 C 0.63064 0.87842 0.2459 0.0
C484 C 0.58764 0.90211 0.22163 0.0
C485 C 0.56202 0.82858 0.18594 0.0
H486 H 0.53932 0.9153 0.1539 0.0
C487 C 0.49908 0.81343 0.11025 0.0
C488 C 0.46635 0.83491 0.1068 0.0
C489 C 0.5213 0.82036 0.1264 0.0
C490 C 0.54542 0.8909 0.16276 0.0
H491 H 0.65722 0.82495 0.23939 0.0
H492 H 0.6265 0.81782 0.20821 0.0
H493 H 0.57489 0.92406 0.18358 0.0
H494 H 0.43229 0.8816 0.11718 0.0
H495 H 0.47153 0.894 0.14531 0.0
H496 H 0.53303 0.79545 0.1649 0.0
C497 C 0.62 0.84251 0.21678 0.0
C498 C 0.56562 0.89587 0.17981 0.0
C499 C 0.63779 0.84659 0.23454 0.0
C500 C 0.45716 0.86443 0.11948 0.0
C501 C 0.47971 0.87167 0.13552 0.0
C502 C 0.54231 0.8236 0.1688 0.0
C503 C 0.59434 0.87001 0.21018 0.0
C504 C 0.57397 0.86478 0.19169 0.0
C505 C 0.51158 0.84924 0.1393 0.0
C506 C 0.53363 0.85471 0.15711 0.0
H507 H 0.6 0.93111 0.24794 0.0
H508 H 0.56768 0.92359 0.21721 0.0
H509 H 0.56716 0.80408 0.19487 0.0
H510 H 0.50702 0.79051 0.10077 0.0
H511 H 0.54595 0.80291 0.12891 0.0
C512 C 0.28718 0.9771 0.09526 0.0
C513 C 0.27481 0.94116 0.10099 0.0
C514 C 0.27395 0.00946 0.10461 0.0
C515 C 0.19388 0.04422 0.13293 0.0
H516 H 0.26219 0.12495 0.14746 0.0
C517 C 0.141 0.17281 0.17546 0.0
C518 C 0.15407 0.20842 0.16948 0.0
C519 C 0.1579 0.13978 0.16863 0.0
C520 C 0.2427 0.10281 0.14334 0.0
H521 H 0.23812 0.91066 0.12045 0.0
H522 H 0.21477 0.96718 0.13675 0.0
H523 H 0.28713 0.0682 0.13204 0.0
H524 H 0.19603 0.23722 0.1521 0.0
H525 H 0.22497 0.17966 0.13989 0.0
H526 H 0.14934 0.0789 0.14378 0.0
C527 C 0.2349 0.97041 0.12515 0.0
C528 C 0.257 0.07033 0.13453 0.0
C529 C 0.24829 0.93811 0.11587 0.0
C530 C 0.18527 0.21025 0.15703 0.0
C531 C 0.20201 0.1772 0.15009 0.0
C532 C 0.17956 0.07674 0.14162 0.0
C533 C 0.24762 0.00642 0.11964 0.0
C534 C 0.23271 0.04073 0.12921 0.0
C535 C 0.18809 0.14156 0.15554 0.0
C536 C 0.20377 0.10648 0.14692 0.0
H537 H 0.30631 0.98032 0.08325 0.0
H538 H 0.28359 0.0369 0.09976 0.0
H539 H 0.17439 0.02213 0.12873 0.0
H540 H 0.11725 0.17036 0.18519 0.0
H541 H 0.14699 0.11281 0.17344 0.0
C542 C 0.54714 0.72971 0.34442 0.0
C543 C 0.55726 0.7679 0.34666 0.0
C544 C 0.5143 0.71559 0.35291 0.0
C545 C 0.42127 0.74152 0.36969 0.0
H546 H 0.42944 0.65541 0.40385 0.0
C547 C 0.29258 0.68776 0.41237 0.0
C548 C 0.28909 0.64856 0.41493 0.0
C549 C 0.32587 0.70314 0.40494 0.0
C550 C 0.42644 0.67908 0.39412 0.0
H551 H 0.54141 0.82047 0.36067 0.0
H552 H 0.48314 0.79631 0.37437 0.0
H553 H 0.48579 0.67988 0.38805 0.0
H554 H 0.31759 0.59468 0.4117 0.0
H555 H 0.37482 0.62113 0.39803 0.0
H556 H 0.36189 0.74008 0.375 0.0
C557 C 0.50059 0.77759 0.36584 0.0
C558 C 0.45879 0.69314 0.38517 0.0
C559 C 0.5338 0.79154 0.35768 0.0
C560 C 0.3196 0.62507 0.41009 0.0
C561 C 0.35256 0.64033 0.40233 0.0
C562 C 0.38875 0.72702 0.37833 0.0
C563 C 0.49075 0.73947 0.36363 0.0
C564 C 0.45644 0.72446 0.37291 0.0
C565 C 0.35613 0.67957 0.39956 0.0
C566 C 0.39088 0.6956 0.39069 0.0
H567 H 0.56471 0.71062 0.33617 0.0
H568 H 0.50719 0.68604 0.35102 0.0
H569 H 0.41885 0.76561 0.36017 0.0
H570 H 0.26959 0.70658 0.41612 0.0
H571 H 0.32781 0.73353 0.40344 0.0
C572 C 0.74751 0.02851 0.58923 0.0
C573 C 0.71487 0.04639 0.59617 0.0
C574 C 0.76084 0.99549 0.59785 0.0
C575 C 0.73334 0.91718 0.6302 0.0
H576 H 0.84157 0.90839 0.63739 0.0
C577 C 0.85121 0.81891 0.67203 0.0
C578 C 0.83841 0.78262 0.66703 0.0
C579 C 0.83382 0.85103 0.66448 0.0
C580 C 0.81124 0.91055 0.63569 0.0
H581 H 0.67131 0.04444 0.61803 0.0
H582 H 0.69443 0.98674 0.63305 0.0
H583 H 0.81584 0.96415 0.62178 0.0
H584 H 0.79627 0.75171 0.65075 0.0
H585 H 0.76629 0.80782 0.63737 0.0
H586 H 0.72882 0.86377 0.64449 0.0
C587 C 0.70916 0.99764 0.6206 0.0
C588 C 0.79653 0.94229 0.62648 0.0
C589 C 0.69578 0.03063 0.61193 0.0
C590 C 0.80687 0.77924 0.65489 0.0
C591 C 0.78956 0.81142 0.64728 0.0
C592 C 0.74809 0.88537 0.63946 0.0
C593 C 0.74204 0.97988 0.61376 0.0
C594 C 0.75743 0.94595 0.62356 0.0
C595 C 0.80332 0.84766 0.65169 0.0
C596 C 0.78723 0.88171 0.6423 0.0
H597 H 0.76279 0.04009 0.57711 0.0
H598 H 0.78594 0.98222 0.59206 0.0
H599 H 0.7031 0.91904 0.62806 0.0
H600 H 0.87519 0.82259 0.68149 0.0
H601 H 0.84461 0.87857 0.66849 0.0
C602 C 0.47099 0.21602 0.84361 0.0
C603 C 0.43529 0.23018 0.8486 0.0
C604 C 0.5034 0.22962 0.8527 0.0
C605 C 0.54075 0.31137 0.87875 0.0
H606 H 0.61562 0.24032 0.89743 0.0
C607 C 0.66977 0.36126 0.92204 0.0
C608 C 0.70465 0.3446 0.91743 0.0
C609 C 0.63613 0.34611 0.91495 0.0
C610 C 0.59518 0.26055 0.89213 0.0
H611 H 0.40538 0.27089 0.86614 0.0
H612 H 0.46214 0.29501 0.88195 0.0
H613 H 0.55862 0.21686 0.88179 0.0
H614 H 0.73145 0.29836 0.90213 0.0
H615 H 0.67295 0.27246 0.88948 0.0
H616 H 0.57749 0.35511 0.88865 0.0
C617 C 0.46504 0.27308 0.87121 0.0
C618 C 0.56254 0.2471 0.8832 0.0
C619 C 0.43263 0.25927 0.86221 0.0
C620 C 0.70507 0.31185 0.90601 0.0
C621 C 0.67146 0.29686 0.89882 0.0
C622 C 0.57349 0.32485 0.88755 0.0
C623 C 0.50071 0.25812 0.86667 0.0
C624 C 0.53508 0.27238 0.87637 0.0
C625 C 0.63663 0.31411 0.903 0.0
C626 C 0.60117 0.29961 0.8943 0.0
H627 H 0.47392 0.19477 0.83253 0.0
H628 H 0.53063 0.21823 0.84859 0.0
H629 H 0.52024 0.33151 0.87342 0.0
H630 H 0.66841 0.38634 0.93093 0.0
H631 H 0.60974 0.35965 0.91876 0.0
C632 C 0.68762 0.27987 0.58849 0.0
C633 C 0.65585 0.28306 0.5765 0.0
C634 C 0.70504 0.31216 0.59592 0.0
C635 C 0.7464 0.38612 0.60364 0.0
H636 H 0.67862 0.46487 0.62133 0.0
C637 C 0.79883 0.53079 0.63198 0.0
C638 C 0.77952 0.54634 0.64772 0.0
C639 C 0.78545 0.49804 0.62307 0.0
C640 C 0.69794 0.44302 0.61663 0.0
H641 H 0.61879 0.3228 0.56206 0.0
H642 H 0.64958 0.37899 0.57471 0.0
H643 H 0.65293 0.40924 0.60561 0.0
H644 H 0.7312 0.53992 0.66651 0.0
H645 H 0.70809 0.48245 0.65118 0.0
H646 H 0.79134 0.41962 0.61519 0.0
C647 C 0.66047 0.35152 0.57876 0.0
C648 C 0.68325 0.41136 0.60734 0.0
C649 C 0.64296 0.31928 0.57141 0.0
C650 C 0.74666 0.52849 0.65441 0.0
C651 C 0.73335 0.49571 0.64556 0.0
C652 C 0.76113 0.41785 0.61297 0.0
C653 C 0.69116 0.34833 0.59145 0.0
C654 C 0.70727 0.38249 0.60075 0.0
C655 C 0.75237 0.4803 0.62966 0.0
C656 C 0.73702 0.44658 0.61965 0.0
H657 H 0.69831 0.25241 0.59271 0.0
H658 H 0.72845 0.30868 0.60575 0.0
H659 H 0.76569 0.36451 0.59862 0.0
H660 H 0.82348 0.54459 0.62607 0.0
H661 H 0.80037 0.4873 0.61065 0.0
C662 C 0.20581 0.1854 0.84049 0.0
C663 C 0.20509 0.15265 0.82907 0.0
C664 C 0.17238 0.2005 0.84785 0.0
C665 C 0.09615 0.23708 0.85466 0.0
H666 H 0.02135 0.1664 0.87377 0.0
C667 C 0.95048 0.28585 0.88216 0.0
C668 C 0.93599 0.26775 0.8985 0.0
C669 C 0.98298 0.2722 0.87318 0.0
C670 C 0.04208 0.18653 0.86866 0.0
H671 H 0.16846 0.11104 0.81576 0.0
H672 H 0.1101 0.1379 0.82828 0.0
H673 H 0.0787 0.14261 0.85878 0.0
H674 H 0.94345 0.22084 0.91808 0.0
H675 H 0.00076 0.19727 0.90264 0.0
H676 H 0.0601 0.28098 0.86514 0.0
C677 C 0.13662 0.15136 0.83192 0.0
C678 C 0.07473 0.1729 0.8598 0.0
C679 C 0.17007 0.13612 0.82464 0.0
C680 C 0.95421 0.23539 0.90554 0.0
C681 C 0.98687 0.22182 0.89663 0.0
C682 C 0.06357 0.25072 0.8636 0.0
C683 C 0.13744 0.18336 0.84387 0.0
C684 C 0.10219 0.198 0.85273 0.0
C685 C 0.00163 0.24009 0.88033 0.0
C686 C 0.03619 0.22559 0.87075 0.0
H687 H 0.2323 0.19881 0.84423 0.0
H688 H 0.1741 0.22493 0.85718 0.0
H689 H 0.11655 0.2572 0.84922 0.0
H690 H 0.93624 0.31003 0.87599 0.0
H691 H 0.99306 0.28641 0.8604 0.0
C692 C 0.3543 0.67339 0.07258 0.0
C693 C 0.34065 0.70915 0.07799 0.0
C694 C 0.33767 0.64055 0.07978 0.0
C695 C 0.25256 0.60342 0.10441 0.0
H696 H 0.32161 0.52498 0.12115 0.0
C697 C 0.20629 0.47681 0.15153 0.0
C698 C 0.2207 0.44121 0.14643 0.0
C699 C 0.21968 0.50954 0.14257 0.0
C700 C 0.30192 0.54643 0.11636 0.0
H701 H 0.29787 0.73836 0.09468 0.0
H702 H 0.26924 0.68103 0.10745 0.0
H703 H 0.34641 0.58178 0.10604 0.0
H704 H 0.26091 0.41202 0.12823 0.0
H705 H 0.28431 0.46904 0.11264 0.0
H706 H 0.2081 0.56803 0.11502 0.0
C707 C 0.29257 0.67838 0.09748 0.0
C708 C 0.31612 0.57896 0.10765 0.0
C709 C 0.30911 0.71127 0.09021 0.0
C710 C 0.24923 0.43907 0.13246 0.0
C711 C 0.26268 0.47172 0.12356 0.0
C712 C 0.23835 0.57086 0.1132 0.0
C713 C 0.30711 0.64267 0.09262 0.0
C714 C 0.29162 0.60783 0.10154 0.0
C715 C 0.24804 0.50732 0.1285 0.0
C716 C 0.26291 0.542 0.11923 0.0
H717 H 0.37832 0.67069 0.06305 0.0
H718 H 0.34906 0.61346 0.07544 0.0
H719 H 0.23291 0.62495 0.09968 0.0
H720 H 0.18544 0.47967 0.16275 0.0
H721 H 0.20843 0.53666 0.14697 0.0
C722 C 0.825 0.86392 0.32651 0.0
C723 C 0.79019 0.84668 0.33068 0.0
C724 C 0.85854 0.84935 0.33403 0.0
C725 C 0.89958 0.764 0.35699 0.0
H726 H 0.97391 0.83518 0.3761 0.0
C727 C 0.02389 0.71889 0.4052 0.0
C728 C 0.05956 0.73294 0.40009 0.0
C729 C 0.99136 0.73291 0.3964 0.0
C730 C 0.95355 0.81499 0.37067 0.0
H731 H 0.76344 0.80016 0.34579 0.0
H732 H 0.82172 0.7753 0.35919 0.0
H733 H 0.91665 0.85863 0.36074 0.0
H734 H 0.08928 0.77406 0.38272 0.0
H735 H 0.03229 0.79895 0.3674 0.0
H736 H 0.93629 0.72042 0.3673 0.0
C737 C 0.82326 0.79968 0.34984 0.0
C738 C 0.92081 0.82838 0.3618 0.0
C739 C 0.78977 0.81408 0.34221 0.0
C740 C 0.06206 0.7625 0.38672 0.0
C741 C 0.02951 0.77675 0.37801 0.0
C742 C 0.93219 0.75065 0.36599 0.0
C743 C 0.85802 0.81735 0.346 0.0
C744 C 0.89338 0.80305 0.3549 0.0
C745 C 0.99388 0.76175 0.38259 0.0
C746 C 0.95944 0.77601 0.37295 0.0
H747 H 0.82636 0.88892 0.31757 0.0
H748 H 0.88489 0.86325 0.3305 0.0
H749 H 0.87937 0.74369 0.35156 0.0
H750 H 0.02111 0.69726 0.4161 0.0
H751 H 0.96417 0.72148 0.40053 0.0
C752 C 0.73715 0.07072 0.27823 0.0
C753 C 0.75216 0.03519 0.28308 0.0
C754 C 0.76053 0.099 0.27073 0.0
C755 C 0.85959 0.12888 0.26942 0.0
H756 H 0.83349 0.18111 0.22235 0.0
C757 C 0.97061 0.20669 0.22466 0.0
C758 C 0.96059 0.2404 0.21532 0.0
C759 C 0.94337 0.18516 0.2341 0.0
C760 C 0.84091 0.16731 0.2357 0.0
H761 H 0.80335 0.0014 0.28376 0.0
H762 H 0.84391 0.05066 0.27085 0.0
H763 H 0.78843 0.1371 0.23674 0.0
H764 H 0.91416 0.27831 0.20883 0.0
H765 H 0.86653 0.24086 0.22561 0.0
H766 H 0.91201 0.1587 0.26846 0.0
C767 C 0.81419 0.05674 0.27293 0.0
C768 C 0.81513 0.14208 0.24389 0.0
C769 C 0.79086 0.02846 0.2802 0.0
C770 C 0.92275 0.25237 0.21583 0.0
C771 C 0.89543 0.23084 0.22536 0.0
C772 C 0.88519 0.15424 0.26134 0.0
C773 C 0.79934 0.09232 0.26821 0.0
C774 C 0.82464 0.12201 0.26058 0.0
C775 C 0.90544 0.19691 0.23454 0.0
C776 C 0.87655 0.17307 0.24414 0.0
H777 H 0.70741 0.07671 0.28025 0.0
H778 H 0.74844 0.12625 0.2672 0.0
H779 H 0.86732 0.11424 0.2825 0.0
H780 H -0.00051 0.19657 0.22449 0.0
H781 H 0.95197 0.15883 0.24071 0.0
C782 C 0.47108 0.28999 0.52162 0.0
C783 C 0.46116 0.25551 0.53024 0.0
C784 C 0.44396 0.31172 0.51221 0.0
C785 C 0.34134 0.32805 0.50942 0.0
H786 H 0.36923 0.3834 0.46352 0.0
C787 C 0.23776 0.42393 0.46645 0.0
C788 C 0.25227 0.45981 0.4619 0.0
C789 C 0.26138 0.39597 0.47407 0.0
C790 C 0.36108 0.36815 0.47635 0.0
H791 H 0.41503 0.21652 0.53554 0.0
H792 H 0.36763 0.25436 0.51884 0.0
H793 H 0.41402 0.3393 0.47776 0.0
H794 H 0.30283 0.49457 0.46187 0.0
H795 H 0.34378 0.44589 0.47499 0.0
H796 H 0.28834 0.35727 0.50795 0.0
C797 C 0.39635 0.26479 0.51961 0.0
C798 C 0.38674 0.34299 0.48454 0.0
C799 C 0.42354 0.24305 0.5291 0.0
C800 C 0.29072 0.46722 0.46519 0.0
C801 C 0.31429 0.43927 0.47258 0.0
C802 C 0.31552 0.3531 0.50113 0.0
C803 C 0.40627 0.29942 0.51109 0.0
C804 C 0.37751 0.32328 0.50141 0.0
C805 C 0.29995 0.40333 0.47701 0.0
C806 C 0.32551 0.37398 0.48476 0.0
H807 H 0.49979 0.3005 0.52229 0.0
H808 H 0.45245 0.33857 0.50612 0.0
H809 H 0.33346 0.31354 0.52251 0.0
H810 H 0.20823 0.41742 0.46412 0.0
H811 H 0.24967 0.36843 0.47734 0.0
C812 C 0.02388 0.79517 0.71849 0.0
C813 C 0.03205 0.75735 0.71394 0.0
C814 C 0.05181 0.81872 0.72595 0.0
C815 C 0.14098 0.81943 0.75217 0.0
H816 H 0.15099 0.91984 0.73043 0.0
C817 C 0.25365 0.92633 0.77862 0.0
C818 C 0.24111 0.96377 0.78085 0.0
C819 C 0.23094 0.89963 0.76934 0.0
C820 C 0.14837 0.89202 0.73677 0.0
H821 H 0.07571 0.71432 0.71408 0.0
H822 H 0.12457 0.75562 0.72739 0.0
H823 H 0.10551 0.87576 0.7168 0.0
H824 H 0.19498 0.00255 0.77505 0.0
H825 H 0.15535 0.9561 0.7593 0.0
H826 H 0.18309 0.83606 0.77252 0.0
C827 C 0.0965 0.76691 0.72506 0.0
C828 C 0.12238 0.86679 0.72893 0.0
C829 C 0.06859 0.74337 0.71739 0.0
C830 C 0.2056 0.97399 0.77352 0.0
C831 C 0.18294 0.94737 0.76433 0.0
C832 C 0.16685 0.84483 0.76014 0.0
C833 C 0.08844 0.80492 0.72919 0.0
C834 C 0.118 0.83048 0.73674 0.0
C835 C 0.19527 0.90987 0.76213 0.0
C836 C 0.17036 0.88165 0.75272 0.0
H837 H 0.996 0.80682 0.71604 0.0
H838 H 0.0447 0.84777 0.72926 0.0
H839 H 0.138 0.79164 0.75851 0.0
H840 H 0.28093 0.91761 0.78407 0.0
H841 H 0.2414 0.87104 0.7677 0.0
C842 C 0.75586 0.57188 0.96672 0.0
C843 C 0.74132 0.53588 0.96245 0.0
C844 C 0.73228 0.60006 0.97417 0.0
C845 C 0.6327 0.62813 0.97625 0.0
H846 H 0.66 0.68351 0.0222 0.0
C847 C 0.52238 0.70671 0.02116 0.0
C848 C 0.53223 0.74114 0.02985 0.0
C849 C 0.54956 0.68507 0.01173 0.0
C850 C 0.65222 0.6688 0.00917 0.0
H851 H 0.69076 0.50113 0.96277 0.0
H852 H 0.64986 0.55021 0.97558 0.0
H853 H 0.70519 0.63948 0.00792 0.0
H854 H 0.57828 0.78019 0.03518 0.0
H855 H 0.62577 0.74251 0.01842 0.0
H856 H 0.5798 0.65708 0.97742 0.0
C857 C 0.67936 0.55674 0.97309 0.0
C858 C 0.67808 0.64357 0.00103 0.0
C859 C 0.70289 0.52856 0.96587 0.0
C860 C 0.56983 0.7537 0.02869 0.0
C861 C 0.59707 0.73204 0.01918 0.0
C862 C 0.60702 0.65349 0.98427 0.0
C863 C 0.69373 0.59279 0.97722 0.0
C864 C 0.66818 0.62239 0.98476 0.0
C865 C 0.58724 0.6974 0.01065 0.0
C866 C 0.61611 0.67347 0.00108 0.0
H867 H 0.78537 0.57832 0.96427 0.0
H868 H 0.744 0.62768 0.97723 0.0
H869 H 0.62464 0.61263 0.96349 0.0
H870 H 0.4937 0.69613 0.02184 0.0
H871 H 0.54112 0.65821 0.00564 0.0
loop_
_geom_bond_atom_site_label_1
_geom_bond_atom_site_label_2
_geom_bond_distance
_geom_bond_site_symmetry_2
_ccdc_geom_bond_type
Co0 O3 1.970 . S
Co0 N17 1.989 . S
Co0 O25 1.967 . S
Co0 O32 1.920 . S
Co1 O4 1.966 . S
Co1 N10 2.022 . S
Co1 N18 1.993 . S
Co1 O26 1.941 . S
C2 O3 1.258 . S
C2 O4 1.263 . S
O3 Co0 1.970 . S
O3 C2 1.258 . S
O4 Co1 1.966 . S
O4 C2 1.263 . S
C5 O6 1.222 1_455 S
C5 O32 1.318 . S
O6 C5 1.222 1_655 S
C7 C9 1.400 . S
C7 N10 1.351 . S
C7 C12 1.501 . S
C8 C9 1.387 . S
C8 N11 1.341 . S
C9 C7 1.400 . S
C9 C8 1.387 . S
N10 Co1 2.022 . S
N10 C7 1.351 . S
N10 N11 1.365 . S
N11 C8 1.341 . S
N11 N10 1.365 . S
N11 H31 0.862 . S
C12 C7 1.501 . S
C12 H13 0.961 . S
C12 H14 0.961 . S
C12 H15 0.960 . S
H13 C12 0.961 . S
H14 C12 0.961 . S
H15 C12 0.960 . S
C16 N17 1.342 . S
C16 C20 1.401 . S
C16 C21 1.499 . S
N17 Co0 1.989 . S
N17 C16 1.342 . S
N17 N18 1.388 . S
N18 Co1 1.993 . S
N18 N17 1.388 . S
N18 C19 1.346 . S
C19 N18 1.346 . S
C19 C20 1.396 . S
C19 C29 1.510 . S
C20 C16 1.401 . S
C20 C19 1.396 . S
C21 C16 1.499 . S
C21 H22 0.959 . S
C21 H23 0.960 . S
C21 H24 0.961 . S
H22 C21 0.959 . S
H23 C21 0.960 . S
H24 C21 0.961 . S
O25 Co0 1.967 . S
O25 C33 1.258 . S
O26 Co1 1.941 . S
O26 C33 1.266 . S
H27 C29 0.959 . S
H28 C29 0.961 . S
C29 C19 1.510 . S
C29 H27 0.959 . S
C29 H28 0.961 . S
C29 H30 0.960 . S
H30 C29 0.960 . S
H31 N11 0.862 . S
O32 Co0 1.920 . S
O32 C5 1.318 . S
C33 O25 1.258 . S
C33 O26 1.266 . S
Co34 O37 1.970 . S
Co34 N51 1.989 . S
Co34 O59 1.967 . S
Co34 O66 1.920 . S
Co35 O38 1.966 . S
Co35 N44 2.022 . S
Co35 N52 1.993 . S
Co35 O60 1.941 . S
C36 O37 1.258 . S
C36 O38 1.263 . S
O37 Co34 1.970 . S
O37 C36 1.258 . S
O38 Co35 1.966 . S
O38 C36 1.263 . S
C39 O40 1.235 . S
C39 O66 1.289 . S
O40 C39 1.235 . S
C41 C43 1.400 . S
C41 N44 1.351 . S
C41 C46 1.501 . S
C42 C43 1.387 . S
C42 N45 1.341 . S
C43 C41 1.400 . S
C43 C42 1.387 . S
N44 Co35 2.022 . S
N44 C41 1.351 . S
N44 N45 1.365 . S
N45 C42 1.341 . S
N45 N44 1.365 . S
N45 H65 0.862 . S
C46 C41 1.501 . S
C46 H47 0.961 . S
C46 H48 0.961 . S
C46 H49 0.960 . S
H47 C46 0.961 . S
H48 C46 0.961 . S
H49 C46 0.960 . S
C50 N51 1.342 . S
C50 C54 1.401 . S
C50 C55 1.499 . S
N51 Co34 1.989 . S
N51 C50 1.342 . S
N51 N52 1.388 . S
N52 Co35 1.993 . S
N52 N51 1.388 . S
N52 C53 1.346 . S
C53 N52 1.346 . S
C53 C54 1.396 . S
C53 C63 1.510 . S
C54 C50 1.401 . S
C54 C53 1.396 . S
C55 C50 1.499 . S
C55 H56 0.959 . S
C55 H57 0.960 . S
C55 H58 0.961 . S
H56 C55 0.959 . S
H57 C55 0.960 . S
H58 C55 0.961 . S
O59 Co34 1.967 . S
O59 C67 1.258 . S
O60 Co35 1.941 . S
O60 C67 1.266 . S
H61 C63 0.959 . S
H62 C63 0.961 . S
C63 C53 1.510 . S
C63 H61 0.959 . S
C63 H62 0.961 . S
C63 H64 0.960 . S
H64 C63 0.960 . S
H65 N45 0.862 . S
O66 Co34 1.920 . S
O66 C39 1.289 . S
C67 O59 1.258 . S
C67 O60 1.266 . S
Co68 O71 1.970 . S
Co68 N85 1.989 . S
Co68 O93 1.967 . S
Co68 O100 1.920 . S
Co69 O72 1.966 . S
Co69 N78 2.022 . S
Co69 N86 1.993 . S
Co69 O94 1.941 . S
C70 O71 1.258 . S
C70 O72 1.263 . S
O71 Co68 1.970 . S
O71 C70 1.258 . S
O72 Co69 1.966 . S
O72 C70 1.263 . S
C73 O74 1.235 1_655 S
C73 O100 1.289 . S
O74 C73 1.235 1_455 S
C75 C77 1.400 . S
C75 N78 1.351 . S
C75 C80 1.501 . S
C76 C77 1.387 . S
C76 N79 1.341 . S
C77 C75 1.400 . S
C77 C76 1.387 . S
N78 Co69 2.022 . S
N78 C75 1.351 . S
N78 N79 1.365 . S
N79 C76 1.341 . S
N79 N78 1.365 . S
N79 H99 0.862 . S
C80 C75 1.501 . S
C80 H81 0.961 . S
C80 H82 0.961 . S
C80 H83 0.960 . S
H81 C80 0.961 . S
H82 C80 0.961 . S
H83 C80 0.960 . S
C84 N85 1.342 . S
C84 C88 1.401 . S
C84 C89 1.499 . S
N85 Co68 1.989 . S
N85 C84 1.342 . S
N85 N86 1.388 . S
N86 Co69 1.993 . S
N86 N85 1.388 . S
N86 C87 1.346 . S
C87 N86 1.346 . S
C87 C88 1.396 . S
C87 C97 1.510 . S
C88 C84 1.401 . S
C88 C87 1.396 . S
C89 C84 1.499 . S
C89 H90 0.959 . S
C89 H91 0.960 . S
C89 H92 0.961 . S
H90 C89 0.959 . S
H91 C89 0.960 . S
H92 C89 0.961 . S
O93 Co68 1.967 . S
O93 C101 1.258 . S
O94 Co69 1.941 . S
O94 C101 1.266 . S
H95 C97 0.959 . S
H96 C97 0.961 . S
C97 C87 1.510 . S
C97 H95 0.959 . S
C97 H96 0.961 . S
C97 H98 0.960 . S
H98 C97 0.960 . S
H99 N79 0.862 . S
O100 Co68 1.920 . S
O100 C73 1.289 . S
C101 O93 1.258 . S
C101 O94 1.266 . S
Co102 O105 1.970 . S
Co102 N119 1.989 . S
Co102 O127 1.967 . S
Co102 O134 1.920 . S
Co103 O106 1.966 . S
Co103 N112 2.022 . S
Co103 N120 1.993 . S
Co103 O128 1.941 . S
C104 O105 1.258 . S
C104 O106 1.263 . S
O105 Co102 1.970 . S
O105 C104 1.258 . S
O106 Co103 1.966 . S
O106 C104 1.263 . S
C107 O108 1.235 . S
C107 O134 1.289 . S
O108 C107 1.235 . S
C109 C111 1.400 . S
C109 N112 1.351 . S
C109 C114 1.501 . S
C110 C111 1.387 . S
C110 N113 1.341 . S
C111 C109 1.400 . S
C111 C110 1.387 . S
N112 Co103 2.022 . S
N112 C109 1.351 . S
N112 N113 1.365 . S
N113 C110 1.341 . S
N113 N112 1.365 . S
N113 H133 0.862 . S
C114 C109 1.501 . S
C114 H115 0.961 . S
C114 H116 0.961 . S
C114 H117 0.960 . S
H115 C114 0.961 . S
H116 C114 0.961 . S
H117 C114 0.960 . S
C118 N119 1.342 . S
C118 C122 1.401 . S
C118 C123 1.499 . S
N119 Co102 1.989 . S
N119 C118 1.342 . S
N119 N120 1.388 . S
N120 Co103 1.993 . S
N120 N119 1.388 . S
N120 C121 1.346 . S
C121 N120 1.346 . S
C121 C122 1.396 . S
C121 C131 1.510 . S
C122 C118 1.401 . S
C122 C121 1.396 . S
C123 C118 1.499 . S
C123 H124 0.959 . S
C123 H125 0.960 . S
C123 H126 0.961 . S
H124 C123 0.959 . S
H125 C123 0.960 . S
H126 C123 0.961 . S
O127 Co102 1.967 . S
O127 C135 1.258 . S
O128 Co103 1.941 . S
O128 C135 1.266 . S
H129 C131 0.959 . S
H130 C131 0.961 . S
C131 C121 1.510 . S
C131 H129 0.959 . S
C131 H130 0.961 . S
C131 H132 0.960 . S
H132 C131 0.960 . S
H133 N113 0.862 . S
O134 Co102 1.920 . S
O134 C107 1.289 . S
C135 O127 1.258 . S
C135 O128 1.266 . S
Co136 O139 1.970 . S
Co136 N153 1.989 . S
Co136 O161 1.967 . S
Co136 O168 1.920 . S
Co137 O140 1.966 . S
Co137 N146 2.022 . S
Co137 N154 1.993 . S
Co137 O162 1.941 . S
C138 O139 1.258 . S
C138 O140 1.263 . S
O139 Co136 1.970 . S
O139 C138 1.258 . S
O140 Co137 1.966 . S
O140 C138 1.263 . S
C141 O142 1.235 . S
C141 O168 1.289 . S
O142 C141 1.235 . S
C143 C145 1.400 . S
C143 N146 1.351 . S
C143 C148 1.501 . S
C144 C145 1.387 . S
C144 N147 1.341 . S
C145 C143 1.400 . S
C145 C144 1.387 . S
N146 Co137 2.022 . S
N146 C143 1.351 . S
N146 N147 1.365 . S
N147 C144 1.341 . S
N147 N146 1.365 . S
N147 H167 0.862 . S
C148 C143 1.501 . S
C148 H149 0.961 . S
C148 H150 0.961 . S
C148 H151 0.960 . S
H149 C148 0.961 . S
H150 C148 0.961 . S
H151 C148 0.960 . S
C152 N153 1.342 . S
C152 C156 1.401 . S
C152 C157 1.499 . S
N153 Co136 1.989 . S
N153 C152 1.342 . S
N153 N154 1.388 . S
N154 Co137 1.993 . S
N154 N153 1.388 . S
N154 C155 1.346 . S
C155 N154 1.346 . S
C155 C156 1.396 . S
C155 C165 1.510 . S
C156 C152 1.401 . S
C156 C155 1.396 . S
C157 C152 1.499 . S
C157 H158 0.959 . S
C157 H159 0.960 . S
C157 H160 0.961 . S
H158 C157 0.959 . S
H159 C157 0.960 . S
H160 C157 0.961 . S
O161 Co136 1.967 . S
O161 C169 1.258 . S
O162 Co137 1.941 . S
O162 C169 1.266 . S
H163 C165 0.959 . S
H164 C165 0.961 . S
C165 C155 1.510 . S
C165 H163 0.959 . S
C165 H164 0.961 . S
C165 H166 0.960 . S
H166 C165 0.960 . S
H167 N147 0.862 . S
O168 Co136 1.920 . S
O168 C141 1.289 . S
C169 O161 1.258 . S
C169 O162 1.266 . S
Co170 O173 1.970 . S
Co170 N187 1.989 . S
Co170 O195 1.967 . S
Co170 O202 1.920 . S
Co171 O174 1.966 . S
Co171 N180 2.022 . S
Co171 N188 1.993 . S
Co171 O196 1.941 . S
C172 O173 1.258 . S
C172 O174 1.263 . S
O173 Co170 1.970 . S
O173 C172 1.258 . S
O174 Co171 1.966 . S
O174 C172 1.263 . S
C175 O176 1.222 1_545 S
C175 O202 1.318 . S
O176 C175 1.222 1_565 S
C177 C179 1.400 . S
C177 N180 1.351 . S
C177 C182 1.501 . S
C178 C179 1.387 . S
C178 N181 1.341 . S
C179 C177 1.400 . S
C179 C178 1.387 . S
N180 Co171 2.022 . S
N180 C177 1.351 . S
N180 N181 1.365 . S
N181 C178 1.341 . S
N181 N180 1.365 . S
N181 H201 0.862 . S
C182 C177 1.501 . S
C182 H183 0.961 . S
C182 H184 0.961 . S
C182 H185 0.960 . S
H183 C182 0.961 . S
H184 C182 0.961 . S
H185 C182 0.960 . S
C186 N187 1.342 . S
C186 C190 1.401 . S
C186 C191 1.499 . S
N187 Co170 1.989 . S
N187 C186 1.342 . S
N187 N188 1.388 . S
N188 Co171 1.993 . S
N188 N187 1.388 . S
N188 C189 1.346 . S
C189 N188 1.346 . S
C189 C190 1.396 . S
C189 C199 1.510 . S
C190 C186 1.401 . S
C190 C189 1.396 . S
C191 C186 1.499 . S
C191 H192 0.959 . S
C191 H193 0.960 . S
C191 H194 0.961 . S
H192 C191 0.959 . S
H193 C191 0.960 . S
H194 C191 0.961 . S
O195 Co170 1.967 . S
O195 C203 1.258 . S
O196 Co171 1.941 . S
O196 C203 1.266 . S
H197 C199 0.959 . S
H198 C199 0.961 . S
C199 C189 1.510 . S
C199 H197 0.959 . S
C199 H198 0.961 . S
C199 H200 0.960 . S
H200 C199 0.960 . S
H201 N181 0.862 . S
O202 Co170 1.920 . S
O202 C175 1.318 . S
C203 O195 1.258 . S
C203 O196 1.266 . S
Co204 O207 1.970 . S
Co204 N221 1.989 . S
Co204 O229 1.967 . S
Co204 O236 1.920 . S
Co205 O208 1.966 . S
Co205 N214 2.022 . S
Co205 N222 1.993 . S
Co205 O230 1.941 . S
C206 O207 1.258 . S
C206 O208 1.263 . S
O207 Co204 1.970 . S
O207 C206 1.258 . S
O208 Co205 1.966 . S
O208 C206 1.263 . S
C209 O210 1.235 . S
C209 O236 1.289 . S
O210 C209 1.235 . S
C211 C213 1.400 . S
C211 N214 1.351 . S
C211 C216 1.501 . S
C212 C213 1.387 . S
C212 N215 1.341 . S
C213 C211 1.400 . S
C213 C212 1.387 . S
N214 Co205 2.022 . S
N214 C211 1.351 . S
N214 N215 1.365 . S
N215 C212 1.341 . S
N215 N214 1.365 . S
N215 H235 0.862 . S
C216 C211 1.501 . S
C216 H217 0.961 . S
C216 H218 0.961 . S
C216 H219 0.960 . S
H217 C216 0.961 . S
H218 C216 0.961 . S
H219 C216 0.960 . S
C220 N221 1.342 . S
C220 C224 1.401 . S
C220 C225 1.499 . S
N221 Co204 1.989 . S
N221 C220 1.342 . S
N221 N222 1.388 . S
N222 Co205 1.993 . S
N222 N221 1.388 . S
N222 C223 1.346 . S
C223 N222 1.346 . S
C223 C224 1.396 . S
C223 C233 1.510 . S
C224 C220 1.401 . S
C224 C223 1.396 . S
C225 C220 1.499 . S
C225 H226 0.959 . S
C225 H227 0.960 . S
C225 H228 0.961 . S
H226 C225 0.959 . S
H227 C225 0.960 . S
H228 C225 0.961 . S
O229 Co204 1.967 . S
O229 C237 1.258 . S
O230 Co205 1.941 . S
O230 C237 1.266 . S
H231 C233 0.959 . S
H232 C233 0.961 . S
C233 C223 1.510 . S
C233 H231 0.959 . S
C233 H232 0.961 . S
C233 H234 0.960 . S
H234 C233 0.960 . S
H235 N215 0.862 . S
O236 Co204 1.920 . S
O236 C209 1.289 . S
C237 O229 1.258 . S
C237 O230 1.266 . S
Co238 O241 1.970 . S
Co238 N255 1.989 . S
Co238 O263 1.967 . S
Co238 O270 1.920 . S
Co239 O242 1.966 . S
Co239 N248 2.022 . S
Co239 N256 1.993 . S
Co239 O264 1.941 . S
C240 O241 1.258 . S
C240 O242 1.263 . S
O241 Co238 1.970 . S
O241 C240 1.258 . S
O242 Co239 1.966 . S
O242 C240 1.263 . S
C243 O244 1.235 1_565 S
C243 O270 1.289 . S
O244 C243 1.235 1_545 S
C245 C247 1.400 . S
C245 N248 1.351 . S
C245 C250 1.501 . S
C246 C247 1.387 . S
C246 N249 1.341 . S
C247 C245 1.400 . S
C247 C246 1.387 . S
N248 Co239 2.022 . S
N248 C245 1.351 . S
N248 N249 1.365 . S
N249 C246 1.341 . S
N249 N248 1.365 . S
N249 H269 0.862 . S
C250 C245 1.501 . S
C250 H251 0.961 . S
C250 H252 0.961 . S
C250 H253 0.960 . S
H251 C250 0.961 . S
H252 C250 0.961 . S
H253 C250 0.960 . S
C254 N255 1.342 . S
C254 C258 1.401 . S
C254 C259 1.499 . S
N255 Co238 1.989 . S
N255 C254 1.342 . S
N255 N256 1.388 . S
N256 Co239 1.993 . S
N256 N255 1.388 . S
N256 C257 1.346 . S
C257 N256 1.346 . S
C257 C258 1.396 . S
C257 C267 1.510 . S
C258 C254 1.401 . S
C258 C257 1.396 . S
C259 C254 1.499 . S
C259 H260 0.959 . S
C259 H261 0.960 . S
C259 H262 0.961 . S
H260 C259 0.959 . S
H261 C259 0.960 . S
H262 C259 0.961 . S
O263 Co238 1.967 . S
O263 C271 1.258 . S
O264 Co239 1.941 . S
O264 C271 1.266 . S
H265 C267 0.959 . S
H266 C267 0.961 . S
C267 C257 1.510 . S
C267 H265 0.959 . S
C267 H266 0.961 . S
C267 H268 0.960 . S
H268 C267 0.960 . S
H269 N249 0.862 . S
O270 Co238 1.920 . S
O270 C243 1.289 . S
C271 O263 1.258 . S
C271 O264 1.266 . S
C272 C273 1.349 . S
C272 C274 1.327 . S
C272 H297 0.950 . S
C273 C272 1.349 . S
C273 C289 1.349 . S
C274 C272 1.327 . S
C274 C293 1.429 . S
C274 H298 0.950 . S
C275 C292 1.574 . S
C275 C294 1.368 . S
C275 H299 0.949 . S
H276 C280 0.949 . S
C277 C278 1.349 . S
C277 C279 1.327 . S
C277 H300 0.950 . S
C278 C277 1.349 . S
C278 C290 1.349 . S
C279 C277 1.327 . S
C279 C295 1.429 . S
C279 H301 0.950 . S
C280 H276 0.949 . S
C280 C288 1.574 . S
C280 C296 1.368 . S
H281 C289 0.950 . S
H282 C287 0.950 . S
H283 C288 0.949 . S
H284 C290 0.950 . S
H285 C291 0.950 . S
H286 C292 0.949 . S
C287 H282 0.950 . S
C287 C289 1.327 . S
C287 C293 1.429 . S
C288 C280 1.574 . S
C288 H283 0.949 . S
C288 C294 1.368 . S
C289 C273 1.349 . S
C289 H281 0.950 . S
C289 C287 1.327 . S
C290 C278 1.349 . S
C290 H284 0.950 . S
C290 C291 1.327 . S
C291 H285 0.950 . S
C291 C290 1.327 . S
C291 C295 1.429 . S
C292 C275 1.574 . S
C292 H286 0.949 . S
C292 C296 1.368 . S
C293 C274 1.429 . S
C293 C287 1.429 . S
C293 C294 1.523 . S
C294 C275 1.368 . S
C294 C288 1.368 . S
C294 C293 1.523 . S
C295 C279 1.429 . S
C295 C291 1.429 . S
C295 C296 1.523 . S
C296 C280 1.368 . S
C296 C292 1.368 . S
C296 C295 1.523 . S
H297 C272 0.950 . S
H298 C274 0.950 . S
H299 C275 0.949 . S
H300 C277 0.950 . S
H301 C279 0.950 . S
C302 C303 1.349 . S
C302 C304 1.327 . S
C302 H327 0.950 . S
C303 C302 1.349 . S
C303 C319 1.349 . S
C304 C302 1.327 . S
C304 C323 1.434 . S
C304 H328 0.950 . S
C305 C322 1.574 . S
C305 C324 1.368 . S
C305 H329 0.949 . S
H306 C310 0.949 . S
C307 C308 1.349 . S
C307 C309 1.327 . S
C307 H330 0.950 . S
C308 C307 1.349 . S
C308 C320 1.349 . S
C309 C307 1.327 . S
C309 C325 1.429 . S
C309 H331 0.950 . S
C310 H306 0.949 . S
C310 C318 1.574 . S
C310 C326 1.368 . S
H311 C319 0.950 . S
H312 C317 0.947 1_455 S
H313 C318 0.949 . S
H314 C320 0.950 . S
H315 C321 0.950 . S
H316 C322 0.949 . S
C317 H312 0.947 1_655 S
C317 C319 1.330 . S
C317 C323 1.429 . S
C318 C310 1.574 . S
C318 H313 0.949 . S
C318 C324 1.368 . S
C319 C303 1.349 . S
C319 H311 0.950 . S
C319 C317 1.330 . S
C320 C308 1.349 . S
C320 H314 0.950 . S
C320 C321 1.327 . S
C321 H315 0.950 . S
C321 C320 1.327 . S
C321 C325 1.429 . S
C322 C305 1.574 . S
C322 H316 0.949 . S
C322 C326 1.368 . S
C323 C304 1.434 . S
C323 C317 1.429 . S
C323 C324 1.518 1_655 S
C324 C305 1.368 . S
C324 C318 1.368 . S
C324 C323 1.518 1_455 S
C325 C309 1.429 . S
C325 C321 1.429 . S
C325 C326 1.523 . S
C326 C310 1.368 . S
C326 C322 1.368 . S
C326 C325 1.523 . S
H327 C302 0.950 . S
H328 C304 0.950 . S
H329 C305 0.949 . S
H330 C307 0.950 . S
H331 C309 0.950 . S
C332 C333 1.349 . S
C332 C334 1.327 . S
C332 H357 0.950 . S
C333 C332 1.349 . S
C333 C349 1.349 . S
C334 C332 1.327 . S
C334 C353 1.429 . S
C334 H358 0.950 . S
C335 C352 1.574 . S
C335 C354 1.368 . S
C335 H359 0.949 . S
H336 C340 0.949 . S
C337 C338 1.349 . S
C337 C339 1.327 . S
C337 H360 0.950 . S
C338 C337 1.349 . S
C338 C350 1.349 . S
C339 C337 1.327 . S
C339 C355 1.429 . S
C339 H361 0.950 . S
C340 H336 0.949 . S
C340 C348 1.574 . S
C340 C356 1.368 . S
H341 C349 0.950 . S
H342 C347 0.950 . S
H343 C348 0.949 . S
H344 C350 0.950 . S
H345 C351 0.950 . S
H346 C352 0.949 . S
C347 H342 0.950 . S
C347 C349 1.327 . S
C347 C353 1.429 . S
C348 C340 1.574 . S
C348 H343 0.949 . S
C348 C354 1.368 . S
C349 C333 1.349 . S
C349 H341 0.950 . S
C349 C347 1.327 . S
C350 C338 1.349 . S
C350 H344 0.950 . S
C350 C351 1.327 . S
C351 H345 0.950 . S
C351 C350 1.327 . S
C351 C355 1.429 . S
C352 C335 1.574 . S
C352 H346 0.949 . S
C352 C356 1.368 . S
C353 C334 1.429 . S
C353 C347 1.429 . S
C353 C354 1.523 . S
C354 C335 1.368 . S
C354 C348 1.368 . S
C354 C353 1.523 . S
C355 C339 1.429 . S
C355 C351 1.429 . S
C355 C356 1.523 . S
C356 C340 1.368 . S
C356 C352 1.368 . S
C356 C355 1.523 . S
H357 C332 0.950 . S
H358 C334 0.950 . S
H359 C335 0.949 . S
H360 C337 0.950 . S
H361 C339 0.950 . S
C362 C363 1.349 1_554 S
C362 C364 1.327 . S
C362 H387 0.950 . S
C363 C362 1.349 1_556 S
C363 C379 1.349 . S
C364 C362 1.327 . S
C364 C383 1.429 . S
C364 H388 0.950 . S
C365 C382 1.574 . S
C365 C384 1.368 . S
C365 H389 0.949 . S
H366 C370 0.949 . S
C367 C368 1.349 . S
C367 C369 1.327 . S
C367 H390 0.950 . S
C368 C367 1.349 . S
C368 C380 1.349 . S
C369 C367 1.327 . S
C369 C385 1.429 1_455 S
C369 H391 0.950 . S
C370 H366 0.949 . S
C370 C378 1.574 . S
C370 C386 1.368 . S
H371 C379 0.950 . S
H372 C377 0.950 . S
H373 C378 0.949 . S
H374 C380 0.950 . S
H375 C381 0.950 . S
H376 C382 0.949 1_455 S
C377 H372 0.950 . S
C377 C379 1.327 1_554 S
C377 C383 1.429 . S
C378 C370 1.574 . S
C378 H373 0.949 . S
C378 C384 1.368 . S
C379 C363 1.349 . S
C379 H371 0.950 . S
C379 C377 1.327 1_556 S
C380 C368 1.349 . S
C380 H374 0.950 . S
C380 C381 1.327 1_455 S
C381 H375 0.950 . S
C381 C380 1.327 1_655 S
C381 C385 1.429 . S
C382 C365 1.574 . S
C382 H376 0.949 1_655 S
C382 C386 1.368 . S
C383 C364 1.429 . S
C383 C377 1.429 . S
C383 C384 1.523 . S
C384 C365 1.368 . S
C384 C378 1.368 . S
C384 C383 1.523 . S
C385 C369 1.429 1_655 S
C385 C381 1.429 . S
C385 C386 1.523 . S
C386 C370 1.368 . S
C386 C382 1.368 . S
C386 C385 1.523 . S
H387 C362 0.950 . S
H388 C364 0.950 . S
H389 C365 0.949 . S
H390 C367 0.950 . S
H391 C369 0.950 . S
C392 C393 1.349 . S
C392 C394 1.327 . S
C392 H417 0.950 . S
C393 C392 1.349 . S
C393 C409 1.349 . S
C394 C392 1.327 . S
C394 C413 1.429 . S
C394 H418 0.950 . S
C395 C412 1.574 1_545 S
C395 C414 1.368 . S
C395 H419 0.949 . S
H396 C400 0.949 . S
C397 C398 1.349 . S
C397 C399 1.327 . S
C397 H420 0.950 . S
C398 C397 1.349 . S
C398 C410 1.352 . S
C399 C397 1.327 . S
C399 C415 1.440 . S
C399 H421 0.950 . S
C400 H396 0.949 . S
C400 C408 1.574 . S
C400 C416 1.368 . S
H401 C409 0.950 . S
H402 C407 0.950 . S
H403 C408 0.949 . S
H404 C410 0.948 1_545 S
H405 C411 0.950 . S
H406 C412 0.949 . S
C407 H402 0.950 . S
C407 C409 1.327 . S
C407 C413 1.429 . S
C408 C400 1.574 . S
C408 H403 0.949 . S
C408 C414 1.368 . S
C409 C393 1.349 . S
C409 H401 0.950 . S
C409 C407 1.327 . S
C410 C398 1.352 . S
C410 H404 0.948 1_565 S
C410 C411 1.325 1_565 S
C411 H405 0.950 . S
C411 C410 1.325 1_545 S
C411 C415 1.423 1_545 S
C412 C395 1.574 1_565 S
C412 H406 0.949 . S
C412 C416 1.368 1_565 S
C413 C394 1.429 . S
C413 C407 1.429 . S
C413 C414 1.523 . S
C414 C395 1.368 . S
C414 C408 1.368 . S
C414 C413 1.523 . S
C415 C399 1.440 . S
C415 C411 1.423 1_565 S
C415 C416 1.518 1_565 S
C416 C400 1.368 . S
C416 C412 1.368 1_545 S
C416 C415 1.518 1_545 S
H417 C392 0.950 . S
H418 C394 0.950 . S
H419 C395 0.949 . S
H420 C397 0.950 . S
H421 C399 0.950 . S
C422 C423 1.349 . S
C422 C424 1.327 . S
C422 H447 0.950 . S
C423 C422 1.349 . S
C423 C439 1.349 . S
C424 C422 1.327 . S
C424 C443 1.429 . S
C424 H448 0.950 . S
C425 C442 1.574 . S
C425 C444 1.368 . S
C425 H449 0.949 . S
H426 C430 0.949 . S
C427 C428 1.349 . S
C427 C429 1.327 . S
C427 H450 0.950 . S
C428 C427 1.349 . S
C428 C440 1.349 . S
C429 C427 1.327 . S
C429 C445 1.429 . S
C429 H451 0.950 . S
C430 H426 0.949 . S
C430 C438 1.574 . S
C430 C446 1.368 . S
H431 C439 0.950 . S
H432 C437 0.950 . S
H433 C438 0.949 . S
H434 C440 0.950 . S
H435 C441 0.950 . S
H436 C442 0.949 . S
C437 H432 0.950 . S
C437 C439 1.327 . S
C437 C443 1.429 . S
C438 C430 1.574 . S
C438 H433 0.949 . S
C438 C444 1.368 . S
C439 C423 1.349 . S
C439 H431 0.950 . S
C439 C437 1.327 . S
C440 C428 1.349 . S
C440 H434 0.950 . S
C440 C441 1.327 . S
C441 H435 0.950 . S
C441 C440 1.327 . S
C441 C445 1.429 . S
C442 C425 1.574 . S
C442 H436 0.949 . S
C442 C446 1.368 . S
C443 C424 1.429 . S
C443 C437 1.429 . S
C443 C444 1.523 . S
C444 C425 1.368 . S
C444 C438 1.368 . S
C444 C443 1.523 . S
C445 C429 1.429 . S
C445 C441 1.429 . S
C445 C446 1.523 . S
C446 C430 1.368 . S
C446 C442 1.368 . S
C446 C445 1.523 . S
H447 C422 0.950 . S
H448 C424 0.950 . S
H449 C425 0.949 . S
H450 C427 0.950 . S
H451 C429 0.950 . S
C452 C453 1.349 . S
C452 C454 1.327 1_554 S
C452 H477 0.950 . S
C453 C452 1.349 . S
C453 C469 1.349 1_554 S
C454 C452 1.327 1_556 S
C454 C473 1.429 . S
C454 H478 0.950 . S
C455 C472 1.574 . S
C455 C474 1.368 . S
C455 H479 0.949 . S
H456 C460 0.949 1_545 S
C457 C458 1.349 . S
C457 C459 1.327 1_545 S
C457 H480 0.950 1_545 S
C458 C457 1.349 . S
C458 C470 1.349 . S
C459 C457 1.327 1_565 S
C459 C475 1.429 . S
C459 H481 0.950 . S
C460 H456 0.949 1_565 S
C460 C468 1.574 . S
C460 C476 1.368 . S
H461 C469 0.950 . S
H462 C467 0.950 . S
H463 C468 0.949 . S
H464 C470 0.950 . S
H465 C471 0.950 . S
H466 C472 0.949 . S
C467 H462 0.950 . S
C467 C469 1.327 . S
C467 C473 1.429 . S
C468 C460 1.574 . S
C468 H463 0.949 . S
C468 C474 1.368 . S
C469 C453 1.349 1_556 S
C469 H461 0.950 . S
C469 C467 1.327 . S
C470 C458 1.349 . S
C470 H464 0.950 . S
C470 C471 1.327 . S
C471 H465 0.950 . S
C471 C470 1.327 . S
C471 C475 1.429 1_545 S
C472 C455 1.574 . S
C472 H466 0.949 . S
C472 C476 1.368 . S
C473 C454 1.429 . S
C473 C467 1.429 . S
C473 C474 1.523 . S
C474 C455 1.368 . S
C474 C468 1.368 . S
C474 C473 1.523 . S
C475 C459 1.429 . S
C475 C471 1.429 1_565 S
C475 C476 1.523 . S
C476 C460 1.368 . S
C476 C472 1.368 . S
C476 C475 1.523 . S
H477 C452 0.950 . S
H478 C454 0.950 . S
H479 C455 0.949 . S
H480 C457 0.950 1_565 S
H481 C459 0.950 . S
C482 C483 1.349 . S
C482 C484 1.327 . S
C482 H507 0.950 . S
C483 C482 1.349 . S
C483 C499 1.349 . S
C484 C482 1.327 . S
C484 C503 1.429 . S
C484 H508 0.950 . S
C485 C502 1.574 . S
C485 C504 1.368 . S
C485 H509 0.949 . S
H486 C490 0.949 . S
C487 C488 1.349 . S
C487 C489 1.327 . S
C487 H510 0.950 . S
C488 C487 1.349 . S
C488 C500 1.349 . S
C489 C487 1.327 . S
C489 C505 1.429 . S
C489 H511 0.950 . S
C490 H486 0.949 . S
C490 C498 1.574 . S
C490 C506 1.368 . S
H491 C499 0.950 . S
H492 C497 0.950 . S
H493 C498 0.949 . S
H494 C500 0.950 . S
H495 C501 0.950 . S
H496 C502 0.949 . S
C497 H492 0.950 . S
C497 C499 1.327 . S
C497 C503 1.429 . S
C498 C490 1.574 . S
C498 H493 0.949 . S
C498 C504 1.368 . S
C499 C483 1.349 . S
C499 H491 0.950 . S
C499 C497 1.327 . S
C500 C488 1.349 . S
C500 H494 0.950 . S
C500 C501 1.327 . S
C501 H495 0.950 . S
C501 C500 1.327 . S
C501 C505 1.429 . S
C502 C485 1.574 . S
C502 H496 0.949 . S
C502 C506 1.368 . S
C503 C484 1.429 . S
C503 C497 1.429 . S
C503 C504 1.523 . S
C504 C485 1.368 . S
C504 C498 1.368 . S
C504 C503 1.523 . S
C505 C489 1.429 . S
C505 C501 1.429 . S
C505 C506 1.523 . S
C506 C490 1.368 . S
C506 C502 1.368 . S
C506 C505 1.523 . S
H507 C482 0.950 . S
H508 C484 0.950 . S
H509 C485 0.949 . S
H510 C487 0.950 . S
H511 C489 0.950 . S
C512 C513 1.349 1_545 S
C512 C514 1.327 . S
C512 H537 0.950 . S
C513 C512 1.349 1_565 S
C513 C529 1.349 . S
C514 C512 1.327 . S
C514 C533 1.429 . S
C514 H538 0.950 . S
C515 C532 1.574 . S
C515 C534 1.368 . S
C515 H539 0.949 . S
H516 C520 0.949 . S
C517 C518 1.349 . S
C517 C519 1.327 . S
C517 H540 0.950 . S
C518 C517 1.349 . S
C518 C530 1.349 . S
C519 C517 1.327 . S
C519 C535 1.429 . S
C519 H541 0.950 . S
C520 H516 0.949 . S
C520 C528 1.574 . S
C520 C536 1.368 . S
H521 C529 0.950 . S
H522 C527 0.950 . S
H523 C528 0.949 . S
H524 C530 0.950 . S
H525 C531 0.950 . S
H526 C532 0.949 . S
C527 H522 0.950 . S
C527 C529 1.327 1_545 S
C527 C533 1.429 . S
C528 C520 1.574 . S
C528 H523 0.949 . S
C528 C534 1.368 . S
C529 C513 1.349 . S
C529 H521 0.950 . S
C529 C527 1.327 1_565 S
C530 C518 1.349 . S
C530 H524 0.950 . S
C530 C531 1.327 . S
C531 H525 0.950 . S
C531 C530 1.327 . S
C531 C535 1.429 . S
C532 C515 1.574 . S
C532 H526 0.949 . S
C532 C536 1.368 . S
C533 C514 1.429 . S
C533 C527 1.429 . S
C533 C534 1.523 . S
C534 C515 1.368 . S
C534 C528 1.368 . S
C534 C533 1.523 . S
C535 C519 1.429 . S
C535 C531 1.429 . S
C535 C536 1.523 . S
C536 C520 1.368 . S
C536 C532 1.368 . S
C536 C535 1.523 . S
H537 C512 0.950 . S
H538 C514 0.950 . S
H539 C515 0.949 . S
H540 C517 0.950 . S
H541 C519 0.950 . S
C542 C543 1.349 . S
C542 C544 1.327 . S
C542 H567 0.950 . S
C543 C542 1.349 . S
C543 C559 1.349 . S
C544 C542 1.327 . S
C544 C563 1.429 . S
C544 H568 0.950 . S
C545 C562 1.574 . S
C545 C564 1.368 . S
C545 H569 0.949 . S
H546 C550 0.949 . S
C547 C548 1.349 . S
C547 C549 1.327 . S
C547 H570 0.950 . S
C548 C547 1.349 . S
C548 C560 1.349 . S
C549 C547 1.327 . S
C549 C565 1.429 . S
C549 H571 0.950 . S
C550 H546 0.949 . S
C550 C558 1.574 . S
C550 C566 1.368 . S
H551 C559 0.950 . S
H552 C557 0.950 . S
H553 C558 0.949 . S
H554 C560 0.950 . S
H555 C561 0.950 . S
H556 C562 0.949 . S
C557 H552 0.950 . S
C557 C559 1.327 . S
C557 C563 1.429 . S
C558 C550 1.574 . S
C558 H553 0.949 . S
C558 C564 1.368 . S
C559 C543 1.349 . S
C559 H551 0.950 . S
C559 C557 1.327 . S
C560 C548 1.349 . S
C560 H554 0.950 . S
C560 C561 1.327 . S
C561 H555 0.950 . S
C561 C560 1.327 . S
C561 C565 1.429 . S
C562 C545 1.574 . S
C562 H556 0.949 . S
C562 C566 1.368 . S
C563 C544 1.429 . S
C563 C557 1.429 . S
C563 C564 1.523 . S
C564 C545 1.368 . S
C564 C558 1.368 . S
C564 C563 1.523 . S
C565 C549 1.429 . S
C565 C561 1.429 . S
C565 C566 1.523 . S
C566 C550 1.368 . S
C566 C562 1.368 . S
C566 C565 1.523 . S
H567 C542 0.950 . S
H568 C544 0.950 . S
H569 C545 0.949 . S
H570 C547 0.950 . S
H571 C549 0.950 . S
C572 C573 1.349 1_565 S
C572 C574 1.327 . S
C572 H597 0.950 1_565 S
C573 C572 1.349 1_545 S
C573 C589 1.349 1_545 S
C574 C572 1.327 . S
C574 C593 1.429 . S
C574 H598 0.950 . S
C575 C592 1.574 . S
C575 C594 1.368 . S
C575 H599 0.949 . S
H576 C580 0.949 . S
C577 C578 1.349 . S
C577 C579 1.327 . S
C577 H600 0.950 . S
C578 C577 1.349 . S
C578 C590 1.349 . S
C579 C577 1.327 . S
C579 C595 1.429 . S
C579 H601 0.950 . S
C580 H576 0.949 . S
C580 C588 1.574 . S
C580 C596 1.368 . S
H581 C589 0.950 1_545 S
H582 C587 0.950 . S
H583 C588 0.949 . S
H584 C590 0.950 . S
H585 C591 0.950 . S
H586 C592 0.949 . S
C587 H582 0.950 . S
C587 C589 1.327 . S
C587 C593 1.429 . S
C588 C580 1.574 . S
C588 H583 0.949 . S
C588 C594 1.368 . S
C589 C573 1.349 1_565 S
C589 H581 0.950 1_565 S
C589 C587 1.327 . S
C590 C578 1.349 . S
C590 H584 0.950 . S
C590 C591 1.327 . S
C591 H585 0.950 . S
C591 C590 1.327 . S
C591 C595 1.429 . S
C592 C575 1.574 . S
C592 H586 0.949 . S
C592 C596 1.368 . S
C593 C574 1.429 . S
C593 C587 1.429 . S
C593 C594 1.523 . S
C594 C575 1.368 . S
C594 C588 1.368 . S
C594 C593 1.523 . S
C595 C579 1.429 . S
C595 C591 1.429 . S
C595 C596 1.523 . S
C596 C580 1.368 . S
C596 C592 1.368 . S
C596 C595 1.523 . S
H597 C572 0.950 1_545 S
H598 C574 0.950 . S
H599 C575 0.949 . S
H600 C577 0.950 . S
H601 C579 0.950 . S
C602 C603 1.349 . S
C602 C604 1.327 . S
C602 H627 0.950 . S
C603 C602 1.349 . S
C603 C619 1.349 . S
C604 C602 1.327 . S
C604 C623 1.429 . S
C604 H628 0.950 . S
C605 C622 1.574 . S
C605 C624 1.368 . S
C605 H629 0.949 . S
H606 C610 0.949 . S
C607 C608 1.349 . S
C607 C609 1.327 . S
C607 H630 0.950 . S
C608 C607 1.349 . S
C608 C620 1.349 . S
C609 C607 1.327 . S
C609 C625 1.429 . S
C609 H631 0.950 . S
C610 H606 0.949 . S
C610 C618 1.574 . S
C610 C626 1.368 . S
H611 C619 0.950 . S
H612 C617 0.950 . S
H613 C618 0.949 . S
H614 C620 0.950 . S
H615 C621 0.950 . S
H616 C622 0.949 . S
C617 H612 0.950 . S
C617 C619 1.327 . S
C617 C623 1.429 . S
C618 C610 1.574 . S
C618 H613 0.949 . S
C618 C624 1.368 . S
C619 C603 1.349 . S
C619 H611 0.950 . S
C619 C617 1.327 . S
C620 C608 1.349 . S
C620 H614 0.950 . S
C620 C621 1.327 . S
C621 H615 0.950 . S
C621 C620 1.327 . S
C621 C625 1.429 . S
C622 C605 1.574 . S
C622 H616 0.949 . S
C622 C626 1.368 . S
C623 C604 1.429 . S
C623 C617 1.429 . S
C623 C624 1.523 . S
C624 C605 1.368 . S
C624 C618 1.368 . S
C624 C623 1.523 . S
C625 C609 1.429 . S
C625 C621 1.429 . S
C625 C626 1.523 . S
C626 C610 1.368 . S
C626 C622 1.368 . S
C626 C625 1.523 . S
H627 C602 0.950 . S
H628 C604 0.950 . S
H629 C605 0.949 . S
H630 C607 0.950 . S
H631 C609 0.950 . S
C632 C633 1.349 . S
C632 C634 1.327 . S
C632 H657 0.950 . S
C633 C632 1.349 . S
C633 C649 1.349 . S
C634 C632 1.327 . S
C634 C653 1.429 . S
C634 H658 0.950 . S
C635 C652 1.574 . S
C635 C654 1.368 . S
C635 H659 0.949 . S
H636 C640 0.949 . S
C637 C638 1.349 . S
C637 C639 1.327 . S
C637 H660 0.950 . S
C638 C637 1.349 . S
C638 C650 1.349 . S
C639 C637 1.327 . S
C639 C655 1.429 . S
C639 H661 0.950 . S
C640 H636 0.949 . S
C640 C648 1.574 . S
C640 C656 1.368 . S
H641 C649 0.950 . S
H642 C647 0.950 . S
H643 C648 0.949 . S
H644 C650 0.950 . S
H645 C651 0.950 . S
H646 C652 0.949 . S
C647 H642 0.950 . S
C647 C649 1.327 . S
C647 C653 1.429 . S
C648 C640 1.574 . S
C648 H643 0.949 . S
C648 C654 1.368 . S
C649 C633 1.349 . S
C649 H641 0.950 . S
C649 C647 1.327 . S
C650 C638 1.349 . S
C650 H644 0.950 . S
C650 C651 1.327 . S
C651 H645 0.950 . S
C651 C650 1.327 . S
C651 C655 1.429 . S
C652 C635 1.574 . S
C652 H646 0.949 . S
C652 C656 1.368 . S
C653 C634 1.429 . S
C653 C647 1.429 . S
C653 C654 1.523 . S
C654 C635 1.368 . S
C654 C648 1.368 . S
C654 C653 1.523 . S
C655 C639 1.429 . S
C655 C651 1.429 . S
C655 C656 1.523 . S
C656 C640 1.368 . S
C656 C652 1.368 . S
C656 C655 1.523 . S
H657 C632 0.950 . S
H658 C634 0.950 . S
H659 C635 0.949 . S
H660 C637 0.950 . S
H661 C639 0.950 . S
C662 C663 1.349 . S
C662 C664 1.327 . S
C662 H687 0.950 . S
C663 C662 1.349 . S
C663 C679 1.349 . S
C664 C662 1.327 . S
C664 C683 1.429 . S
C664 H688 0.950 . S
C665 C682 1.574 . S
C665 C684 1.368 . S
C665 H689 0.949 . S
H666 C670 0.949 . S
C667 C668 1.349 . S
C667 C669 1.327 1_655 S
C667 H690 0.950 . S
C668 C667 1.349 . S
C668 C680 1.349 1_655 S
C669 C667 1.327 1_455 S
C669 C685 1.429 . S
C669 H691 0.950 . S
C670 H666 0.949 . S
C670 C678 1.574 . S
C670 C686 1.368 . S
H671 C679 0.950 . S
H672 C677 0.950 . S
H673 C678 0.949 . S
H674 C680 0.947 1_655 S
H675 C681 0.950 . S
H676 C682 0.949 . S
C677 H672 0.950 . S
C677 C679 1.327 . S
C677 C683 1.429 . S
C678 C670 1.574 . S
C678 H673 0.949 . S
C678 C684 1.368 . S
C679 C663 1.349 . S
C679 H671 0.950 . S
C679 C677 1.327 . S
C680 C668 1.349 1_455 S
C680 H674 0.947 1_455 S
C680 C681 1.327 . S
C681 H675 0.950 . S
C681 C680 1.327 . S
C681 C685 1.429 . S
C682 C665 1.574 . S
C682 H676 0.949 . S
C682 C686 1.368 . S
C683 C664 1.429 . S
C683 C677 1.429 . S
C683 C684 1.523 . S
C684 C665 1.368 . S
C684 C678 1.368 . S
C684 C683 1.523 . S
C685 C669 1.429 . S
C685 C681 1.429 . S
C685 C686 1.523 . S
C686 C670 1.368 . S
C686 C682 1.368 . S
C686 C685 1.523 . S
H687 C662 0.950 . S
H688 C664 0.950 . S
H689 C665 0.949 . S
H690 C667 0.950 . S
H691 C669 0.950 . S
C692 C693 1.349 . S
C692 C694 1.327 . S
C692 H717 0.950 . S
C693 C692 1.349 . S
C693 C709 1.349 . S
C694 C692 1.327 . S
C694 C713 1.429 . S
C694 H718 0.950 . S
C695 C712 1.574 . S
C695 C714 1.368 . S
C695 H719 0.949 . S
H696 C700 0.949 . S
C697 C698 1.349 . S
C697 C699 1.327 . S
C697 H720 0.950 . S
C698 C697 1.349 . S
C698 C710 1.349 . S
C699 C697 1.327 . S
C699 C715 1.429 . S
C699 H721 0.950 . S
C700 H696 0.949 . S
C700 C708 1.574 . S
C700 C716 1.368 . S
H701 C709 0.950 . S
H702 C707 0.950 . S
H703 C708 0.949 . S
H704 C710 0.950 . S
H705 C711 0.950 . S
H706 C712 0.949 . S
C707 H702 0.950 . S
C707 C709 1.327 . S
C707 C713 1.429 . S
C708 C700 1.574 . S
C708 H703 0.949 . S
C708 C714 1.368 . S
C709 C693 1.349 . S
C709 H701 0.950 . S
C709 C707 1.327 . S
C710 C698 1.349 . S
C710 H704 0.950 . S
C710 C711 1.327 . S
C711 H705 0.950 . S
C711 C710 1.327 . S
C711 C715 1.429 . S
C712 C695 1.574 . S
C712 H706 0.949 . S
C712 C716 1.368 . S
C713 C694 1.429 . S
C713 C707 1.429 . S
C713 C714 1.523 . S
C714 C695 1.368 . S
C714 C708 1.368 . S
C714 C713 1.523 . S
C715 C699 1.429 . S
C715 C711 1.429 . S
C715 C716 1.523 . S
C716 C700 1.368 . S
C716 C712 1.368 . S
C716 C715 1.523 . S
H717 C692 0.950 . S
H718 C694 0.950 . S
H719 C695 0.949 . S
H720 C697 0.950 . S
H721 C699 0.950 . S
C722 C723 1.349 . S
C722 C724 1.327 . S
C722 H747 0.950 . S
C723 C722 1.349 . S
C723 C739 1.349 . S
C724 C722 1.327 . S
C724 C743 1.429 . S
C724 H748 0.950 . S
C725 C742 1.574 . S
C725 C744 1.368 . S
C725 H749 0.949 . S
H726 C730 0.949 . S
C727 C728 1.349 1_655 S
C727 C729 1.327 . S
C727 H750 0.950 . S
C728 C727 1.349 1_455 S
C728 C740 1.349 . S
C729 C727 1.327 . S
C729 C745 1.429 . S
C729 H751 0.950 . S
C730 H726 0.949 . S
C730 C738 1.574 . S
C730 C746 1.368 . S
H731 C739 0.950 . S
H732 C737 0.950 . S
H733 C738 0.949 . S
H734 C740 0.950 . S
H735 C741 0.950 . S
H736 C742 0.949 . S
C737 H732 0.950 . S
C737 C739 1.327 . S
C737 C743 1.429 . S
C738 C730 1.574 . S
C738 H733 0.949 . S
C738 C744 1.368 . S
C739 C723 1.349 . S
C739 H731 0.950 . S
C739 C737 1.327 . S
C740 C728 1.349 . S
C740 H734 0.950 . S
C740 C741 1.327 1_455 S
C741 H735 0.950 . S
C741 C740 1.327 1_655 S
C741 C745 1.429 . S
C742 C725 1.574 . S
C742 H736 0.949 . S
C742 C746 1.368 . S
C743 C724 1.429 . S
C743 C737 1.429 . S
C743 C744 1.523 . S
C744 C725 1.368 . S
C744 C738 1.368 . S
C744 C743 1.523 . S
C745 C729 1.429 . S
C745 C741 1.429 . S
C745 C746 1.523 . S
C746 C730 1.368 . S
C746 C742 1.368 . S
C746 C745 1.523 . S
H747 C722 0.950 . S
H748 C724 0.950 . S
H749 C725 0.949 . S
H750 C727 0.950 . S
H751 C729 0.950 . S
C752 C753 1.349 . S
C752 C754 1.327 . S
C752 H777 0.950 . S
C753 C752 1.349 . S
C753 C769 1.349 . S
C754 C752 1.327 . S
C754 C773 1.429 . S
C754 H778 0.950 . S
C755 C772 1.574 . S
C755 C774 1.368 . S
C755 H779 0.949 . S
H756 C760 0.949 . S
C757 C758 1.349 . S
C757 C759 1.327 . S
C757 H780 0.950 1_655 S
C758 C757 1.349 . S
C758 C770 1.349 . S
C759 C757 1.327 . S
C759 C775 1.429 . S
C759 H781 0.950 . S
C760 H756 0.949 . S
C760 C768 1.574 . S
C760 C776 1.368 . S
H761 C769 0.950 . S
H762 C767 0.950 . S
H763 C768 0.949 . S
H764 C770 0.950 . S
H765 C771 0.950 . S
H766 C772 0.949 . S
C767 H762 0.950 . S
C767 C769 1.327 . S
C767 C773 1.429 . S
C768 C760 1.574 . S
C768 H763 0.949 . S
C768 C774 1.368 . S
C769 C753 1.349 . S
C769 H761 0.950 . S
C769 C767 1.327 . S
C770 C758 1.349 . S
C770 H764 0.950 . S
C770 C771 1.327 . S
C771 H765 0.950 . S
C771 C770 1.327 . S
C771 C775 1.429 . S
C772 C755 1.574 . S
C772 H766 0.949 . S
C772 C776 1.368 . S
C773 C754 1.429 . S
C773 C767 1.429 . S
C773 C774 1.523 . S
C774 C755 1.368 . S
C774 C768 1.368 . S
C774 C773 1.523 . S
C775 C759 1.429 . S
C775 C771 1.429 . S
C775 C776 1.523 . S
C776 C760 1.368 . S
C776 C772 1.368 . S
C776 C775 1.523 . S
H777 C752 0.950 . S
H778 C754 0.950 . S
H779 C755 0.949 . S
H780 C757 0.950 1_455 S
H781 C759 0.950 . S
C782 C783 1.349 . S
C782 C784 1.327 . S
C782 H807 0.950 . S
C783 C782 1.349 . S
C783 C799 1.349 . S
C784 C782 1.327 . S
C784 C803 1.429 . S
C784 H808 0.950 . S
C785 C802 1.574 . S
C785 C804 1.368 . S
C785 H809 0.949 . S
H786 C790 0.949 . S
C787 C788 1.349 . S
C787 C789 1.327 . S
C787 H810 0.950 . S
C788 C787 1.349 . S
C788 C800 1.349 . S
C789 C787 1.327 . S
C789 C805 1.429 . S
C789 H811 0.950 . S
C790 H786 0.949 . S
C790 C798 1.574 . S
C790 C806 1.368 . S
H791 C799 0.950 . S
H792 C797 0.950 . S
H793 C798 0.949 . S
H794 C800 0.950 . S
H795 C801 0.950 . S
H796 C802 0.949 . S
C797 H792 0.950 . S
C797 C799 1.327 . S
C797 C803 1.429 . S
C798 C790 1.574 . S
C798 H793 0.949 . S
C798 C804 1.368 . S
C799 C783 1.349 . S
C799 H791 0.950 . S
C799 C797 1.327 . S
C800 C788 1.349 . S
C800 H794 0.950 . S
C800 C801 1.327 . S
C801 H795 0.950 . S
C801 C800 1.327 . S
C801 C805 1.429 . S
C802 C785 1.574 . S
C802 H796 0.949 . S
C802 C806 1.368 . S
C803 C784 1.429 . S
C803 C797 1.429 . S
C803 C804 1.523 . S
C804 C785 1.368 . S
C804 C798 1.368 . S
C804 C803 1.523 . S
C805 C789 1.429 . S
C805 C801 1.429 . S
C805 C806 1.523 . S
C806 C790 1.368 . S
C806 C802 1.368 . S
C806 C805 1.523 . S
H807 C782 0.950 . S
H808 C784 0.950 . S
H809 C785 0.949 . S
H810 C787 0.950 . S
H811 C789 0.950 . S
C812 C813 1.349 . S
C812 C814 1.327 . S
C812 H837 0.950 . S
C813 C812 1.349 . S
C813 C829 1.349 . S
C814 C812 1.327 . S
C814 C833 1.429 . S
C814 H838 0.950 . S
C815 C832 1.574 . S
C815 C834 1.368 . S
C815 H839 0.949 . S
H816 C820 0.949 . S
C817 C818 1.349 . S
C817 C819 1.327 . S
C817 H840 0.950 . S
C818 C817 1.349 . S
C818 C830 1.349 . S
C819 C817 1.327 . S
C819 C835 1.429 . S
C819 H841 0.950 . S
C820 H816 0.949 . S
C820 C828 1.574 . S
C820 C836 1.368 . S
H821 C829 0.950 . S
H822 C827 0.950 . S
H823 C828 0.949 . S
H824 C830 0.950 1_545 S
H825 C831 0.950 . S
H826 C832 0.949 . S
C827 H822 0.950 . S
C827 C829 1.327 . S
C827 C833 1.429 . S
C828 C820 1.574 . S
C828 H823 0.949 . S
C828 C834 1.368 . S
C829 C813 1.349 . S
C829 H821 0.950 . S
C829 C827 1.327 . S
C830 C818 1.349 . S
C830 H824 0.950 1_565 S
C830 C831 1.327 . S
C831 H825 0.950 . S
C831 C830 1.327 . S
C831 C835 1.429 . S
C832 C815 1.574 . S
C832 H826 0.949 . S
C832 C836 1.368 . S
C833 C814 1.429 . S
C833 C827 1.429 . S
C833 C834 1.523 . S
C834 C815 1.368 . S
C834 C828 1.368 . S
C834 C833 1.523 . S
C835 C819 1.429 . S
C835 C831 1.429 . S
C835 C836 1.523 . S
C836 C820 1.368 . S
C836 C832 1.368 . S
C836 C835 1.523 . S
H837 C812 0.950 . S
H838 C814 0.950 . S
H839 C815 0.949 . S
H840 C817 0.950 . S
H841 C819 0.950 . S
C842 C843 1.349 . S
C842 C844 1.327 . S
C842 H867 0.950 . S
C843 C842 1.349 . S
C843 C859 1.349 . S
C844 C842 1.327 . S
C844 C863 1.429 . S
C844 H868 0.950 1_556 S
C845 C862 1.574 . S
C845 C864 1.368 . S
C845 H869 0.949 . S
H846 C850 0.949 . S
C847 C848 1.349 . S
C847 C849 1.327 . S
C847 H870 0.950 . S
C848 C847 1.349 . S
C848 C860 1.349 . S
C849 C847 1.327 . S
C849 C865 1.429 . S
C849 H871 0.950 1_554 S
C850 H846 0.949 . S
C850 C858 1.574 . S
C850 C866 1.368 . S
H851 C859 0.950 . S
H852 C857 0.950 . S
H853 C858 0.949 . S
H854 C860 0.950 . S
H855 C861 0.950 . S
H856 C862 0.949 . S
C857 H852 0.950 . S
C857 C859 1.327 . S
C857 C863 1.429 . S
C858 C850 1.574 . S
C858 H853 0.949 . S
C858 C864 1.368 1_554 S
C859 C843 1.349 . S
C859 H851 0.950 . S
C859 C857 1.327 . S
C860 C848 1.349 . S
C860 H854 0.950 . S
C860 C861 1.327 . S
C861 H855 0.950 . S
C861 C860 1.327 . S
C861 C865 1.429 . S
C862 C845 1.574 . S
C862 H856 0.949 . S
C862 C866 1.368 1_556 S
C863 C844 1.429 . S
C863 C857 1.429 . S
C863 C864 1.523 . S
C864 C845 1.368 . S
C864 C858 1.368 1_556 S
C864 C863 1.523 . S
C865 C849 1.429 . S
C865 C861 1.429 . S
C865 C866 1.523 . S
C866 C850 1.368 . S
C866 C862 1.368 1_554 S
C866 C865 1.523 . S
H867 C842 0.950 . S
H868 C844 0.950 1_554 S
H869 C845 0.949 . S
H870 C847 0.950 . S
H871 C849 0.950 1_556 S
C273 C20 1.238 . S
C278 C36 1.240 . S
C303 C70 1.240 . S
C308 C54 1.238 . S
C333 C104 1.240 . S
C338 C88 1.238 . S
C363 C122 1.238 . S
C368 C2 1.240 . S
C393 C156 1.238 . S
C398 C240 1.240 . S
C423 C190 1.238 . S
C428 C138 1.240 . S
C453 C224 1.238 . S
C458 C172 1.240 . S
C483 C258 1.238 . S
C488 C206 1.240 . S
C513 C213 1.326 . S
C518 C33 1.364 . S
C543 C247 1.326 . S
C548 C67 1.363 . S
C573 C145 1.326 . S
C578 C101 1.363 . S
C603 C179 1.326 . S
C608 C135 1.363 . S
C633 C169 1.363 . S
C638 C77 1.326 . S
C663 C203 1.364 . S
C668 C111 1.326 . S
C693 C237 1.363 . S
C698 C9 1.326 . S
C723 C271 1.363 . S
C728 C43 1.326 . S
C753 C243 1.735 1_545 S
C758 C5 1.717 1_655 S
C783 C141 1.735 . S
C788 C39 1.735 . S
C813 C73 1.735 1_455 S
C818 C175 1.717 1_565 S
C843 C107 1.736 . S
C848 C209 1.736 . S
