# Generated by pormake.
# Topology pcu-h, (3)-cn, num edge types: 1
# Building blocks:
#     Node 0, Type 0, BuildingBlock: OLANEW_clean_sbu_2, # of connection points: 3
#     Node 1, Type 0, BuildingBlock: OLANEW_clean_sbu_2, # of connection points: 3
#     Node 2, Type 0, BuildingBlock: OLANEW_clean_sbu_2, # of connection points: 3
#     Node 3, Type 0, BuildingBlock: OLANEW_clean_sbu_2, # of connection points: 3
#     Node 4, Type 0, BuildingBlock: OLANEW_clean_sbu_2, # of connection points: 3
#     Node 5, Type 0, BuildingBlock: OLANEW_clean_sbu_2, # of connection points: 3
#     Node 6, Type 0, BuildingBlock: OLANEW_clean_sbu_2, # of connection points: 3
#     Node 7, Type 0, BuildingBlock: OLANEW_clean_sbu_2, # of connection points: 3
#     Node 8, Type 0, BuildingBlock: OLANEW_clean_sbu_2, # of connection points: 3
#     Node 9, Type 0, BuildingBlock: OLANEW_clean_sbu_2, # of connection points: 3
#     Node 10, Type 0, BuildingBlock: OLANEW_clean_sbu_2, # of connection points: 3
#     Node 11, Type 0, BuildingBlock: OLANEW_clean_sbu_2, # of connection points: 3
#     Node 12, Type 0, BuildingBlock: OLANEW_clean_sbu_2, # of connection points: 3
#     Node 13, Type 0, BuildingBlock: OLANEW_clean_sbu_2, # of connection points: 3
#     Node 14, Type 0, BuildingBlock: OLANEW_clean_sbu_2, # of connection points: 3
#     Node 15, Type 0, BuildingBlock: OLANEW_clean_sbu_2, # of connection points: 3
#     Node 16, Type 0, BuildingBlock: OLANEW_clean_sbu_2, # of connection points: 3
#     Node 17, Type 0, BuildingBlock: OLANEW_clean_sbu_2, # of connection points: 3
#     Edge 18, Type (0, 0), BuildingBlock: EZIPEK_clean_linker_0, # of connection points: 2
#     Edge 19, Type (0, 0), BuildingBlock: EZIPEK_clean_linker_0, # of connection points: 2
#     Edge 20, Type (0, 0), BuildingBlock: EZIPEK_clean_linker_0, # of connection points: 2
#     Edge 21, Type (0, 0), BuildingBlock: EZIPEK_clean_linker_0, # of connection points: 2
#     Edge 22, Type (0, 0), BuildingBlock: EZIPEK_clean_linker_0, # of connection points: 2
#     Edge 23, Type (0, 0), BuildingBlock: EZIPEK_clean_linker_0, # of connection points: 2
#     Edge 24, Type (0, 0), BuildingBlock: EZIPEK_clean_linker_0, # of connection points: 2
#     Edge 25, Type (0, 0), BuildingBlock: EZIPEK_clean_linker_0, # of connection points: 2
#     Edge 26, Type (0, 0), BuildingBlock: EZIPEK_clean_linker_0, # of connection points: 2
#     Edge 27, Type (0, 0), BuildingBlock: EZIPEK_clean_linker_0, # of connection points: 2
#     Edge 28, Type (0, 0), BuildingBlock: EZIPEK_clean_linker_0, # of connection points: 2
#     Edge 29, Type (0, 0), BuildingBlock: EZIPEK_clean_linker_0, # of connection points: 2
#     Edge 30, Type (0, 0), BuildingBlock: EZIPEK_clean_linker_0, # of connection points: 2
#     Edge 31, Type (0, 0), BuildingBlock: EZIPEK_clean_linker_0, # of connection points: 2
#     Edge 32, Type (0, 0), BuildingBlock: EZIPEK_clean_linker_0, # of connection points: 2
#     Edge 33, Type (0, 0), BuildingBlock: EZIPEK_clean_linker_0, # of connection points: 2
#     Edge 34, Type (0, 0), BuildingBlock: EZIPEK_clean_linker_0, # of connection points: 2
#     Edge 35, Type (0, 0), BuildingBlock: EZIPEK_clean_linker_0, # of connection points: 2
#     Edge 36, Type (0, 0), BuildingBlock: EZIPEK_clean_linker_0, # of connection points: 2
#     Edge 37, Type (0, 0), BuildingBlock: EZIPEK_clean_linker_0, # of connection points: 2
#     Edge 38, Type (0, 0), BuildingBlock: EZIPEK_clean_linker_0, # of connection points: 2
#     Edge 39, Type (0, 0), BuildingBlock: EZIPEK_clean_linker_0, # of connection points: 2
#     Edge 40, Type (0, 0), BuildingBlock: EZIPEK_clean_linker_0, # of connection points: 2
#     Edge 41, Type (0, 0), BuildingBlock: EZIPEK_clean_linker_0, # of connection points: 2
#     Edge 42, Type (0, 0), BuildingBlock: EZIPEK_clean_linker_0, # of connection points: 2
#     Edge 43, Type (0, 0), BuildingBlock: EZIPEK_clean_linker_0, # of connection points: 2
#     Edge 44, Type (0, 0), BuildingBlock: EZIPEK_clean_linker_0, # of connection points: 2
# Relax obj value: 0.007
# Max RMSD: 0.071
# Mean RMSD: 0.046
data_MOF--net-pcu-h--node1-OLANEW_clean_sbu_2--edge1-EZIPEK_clean_linker_0
_symmetry_space_group_name_H-M    P1
_symmetry_Int_Tables_number       1
_symmetry_cell_setting            triclinic
loop_
_symmetry_equiv_pos_as_xyz
'x, y, z'
_cell_length_a     57.224028
_cell_length_b     49.123816
_cell_length_c     43.628817
_cell_angle_alpha  98.333276
_cell_angle_beta   90.401815
_cell_angle_gamma 125.51348
loop_
_atom_site_label
_atom_site_type_symbol
_atom_site_fract_x
_atom_site_fract_y
_atom_site_fract_z
_atom_type_partial_charge
O0 O 0.18637 0.07356 0.04745 0.0
Cd1 Cd 0.23491 0.12441 0.05083 0.0
O2 O 0.18946 0.08127 -0.00104 0.0
Cd3 Cd 0.21088 0.12239 0.97542 0.0
O4 O 0.1932 0.14391 0.00377 0.0
C5 C 0.16885 0.13661 0.99231 0.0
O6 O 0.15619 0.11412 0.96632 0.0
C7 C 0.1787 0.06133 0.01851 0.0
C8 C 0.27498 0.14669 0.1022 0.0
O9 O 0.26211 0.11652 0.08633 0.0
O10 O 0.2667 0.16481 0.09596 0.0
O11 O 0.84125 0.05285 0.05499 0.0
Cd12 Cd 0.86904 0.09031 0.1025 0.0
O13 O 0.88068 0.05494 0.05695 0.0
Cd14 Cd 0.92145 0.07946 0.08481 0.0
O15 O 0.94071 0.12262 0.06078 0.0
C16 C 0.9654 0.13147 0.05407 0.0
O17 O 0.97638 0.11752 0.06603 0.0
C18 C 0.85604 0.0431 0.0435 0.0
C19 C 0.84435 0.12019 0.13321 0.0
O20 O 0.82937 0.09328 0.1125 0.0
O21 O 0.87124 0.13357 0.13938 0.0
O22 O 0.91312 0.75622 0.04284 0.0
Cd23 Cd 0.87911 0.75655 0.07635 0.0
O24 O 0.91393 0.8001 0.04405 0.0
Cd25 Cd 0.90771 0.83954 0.0516 0.0
O26 O 0.86583 0.80494 0.02372 0.0
C27 C 0.86597 0.81514 -0.00135 0.0
O28 O 0.88927 0.84114 0.99359 0.0
C29 C 0.92277 0.78297 0.03198 0.0
C30 C 0.85027 0.70216 0.10758 0.0
O31 O 0.87328 0.71031 0.09553 0.0
O32 O 0.8399 0.71871 0.10375 0.0
O33 O 0.14181 0.23408 0.94353 0.0
Cd34 Cd 0.10987 0.23205 0.90459 0.0
O35 O 0.10235 0.18346 0.93761 0.0
Cd36 Cd 0.05804 0.14915 0.91969 0.0
O37 O 0.03924 0.17454 0.9424 0.0
C38 C 0.04082 0.18352 0.97175 0.0
O39 O 0.06176 0.18923 0.99056 0.0
C40 C 0.12872 0.20386 0.94828 0.0
C41 C 0.13764 0.28091 0.86619 0.0
O42 O 0.15144 0.28303 0.89055 0.0
O43 O 0.11101 0.25579 0.85956 0.0
O44 O 0.78108 0.93349 0.92072 0.0
Cd45 Cd 0.76701 0.88916 0.87723 0.0
O46 O 0.82025 0.93492 0.91923 0.0
Cd47 Cd 0.83754 0.91102 0.89237 0.0
O48 O 0.81653 0.8633 0.90955 0.0
C49 C 0.83221 0.86679 0.9326 0.0
O50 O 0.85765 0.89618 0.94106 0.0
C51 C 0.80656 0.94581 0.93189 0.0
C52 C 0.71552 0.86527 0.84214 0.0
O53 O 0.71992 0.87674 0.87134 0.0
O54 O 0.73549 0.8653 0.82901 0.0
O55 O 0.1164 0.92153 0.92553 0.0
Cd56 Cd 0.09509 0.85961 0.9173 0.0
O57 O 0.09624 0.89695 0.96391 0.0
Cd58 Cd 0.08172 0.87314 0.0024 0.0
O59 O 0.03896 0.83824 0.97563 0.0
C60 C 0.02271 0.84539 0.98771 0.0
O61 O 0.03489 0.87066 0.0114 0.0
C62 C 0.11026 0.92434 0.95306 0.0
C63 C 0.12115 0.8389 0.87601 0.0
O64 O 0.11015 0.85351 0.86764 0.0
O65 O 0.12001 0.83389 0.90417 0.0
O66 O 0.85724 0.4036 0.38141 0.0
Cd67 Cd 0.89862 0.46265 0.39091 0.0
O68 O 0.85587 0.41537 0.33479 0.0
Cd69 Cd 0.88088 0.4621 0.31769 0.0
O70 O 0.86866 0.49351 0.34161 0.0
C71 C 0.8417 0.47999 0.34097 0.0
O72 O 0.82342 0.44658 0.33431 0.0
C73 C 0.8459 0.39445 0.35334 0.0
C74 C 0.94512 0.48104 0.4326 0.0
O75 O 0.9194 0.46572 0.44045 0.0
O76 O 0.94911 0.48736 0.40487 0.0
O77 O 0.50382 0.3837 0.39089 0.0
Cd78 Cd 0.5366 0.4288 0.43381 0.0
O79 O 0.54443 0.38949 0.39325 0.0
Cd80 Cd 0.58653 0.40945 0.41462 0.0
O81 O 0.60896 0.45549 0.39526 0.0
C82 C 0.61883 0.45118 0.3706 0.0
O83 O 0.614 0.42145 0.36125 0.0
C84 C 0.5199 0.3763 0.37871 0.0
C85 C 0.51028 0.4547 0.46757 0.0
O86 O 0.50306 0.44287 0.43842 0.0
O87 O 0.5301 0.45458 0.48118 0.0
O88 O 0.56868 0.07928 0.36231 0.0
Cd89 Cd 0.54379 0.08535 0.40569 0.0
O90 O 0.57289 0.1264 0.37016 0.0
Cd91 Cd 0.57003 0.16749 0.38651 0.0
O92 O 0.52811 0.13289 0.35871 0.0
C93 C 0.53022 0.14116 0.33217 0.0
O94 O 0.55638 0.16224 0.32438 0.0
C95 C 0.58089 0.109 0.35654 0.0
C96 C 0.5164 0.03403 0.44052 0.0
O97 O 0.53875 0.04076 0.42761 0.0
O98 O 0.50627 0.05075 0.43624 0.0
O99 O 0.81475 0.57266 0.28013 0.0
Cd100 Cd 0.78402 0.56745 0.23691 0.0
O101 O 0.77216 0.5251 0.27012 0.0
Cd102 Cd 0.72924 0.47976 0.25463 0.0
O103 O 0.71374 0.50795 0.27788 0.0
C104 C 0.7049 0.49772 0.30321 0.0
O105 O 0.70627 0.47349 0.31024 0.0
C106 C 0.79724 0.54256 0.28496 0.0
C107 C 0.8079 0.61743 0.20051 0.0
O108 O 0.82411 0.61479 0.21821 0.0
O109 O 0.78048 0.59697 0.20036 0.0
O110 O 0.44644 0.26261 0.25492 0.0
Cd111 Cd 0.43439 0.223 0.2086 0.0
O112 O 0.48785 0.2688 0.25245 0.0
Cd113 Cd 0.50195 0.24205 0.22373 0.0
O114 O 0.48239 0.19473 0.24213 0.0
C115 C 0.49831 0.19849 0.26514 0.0
O116 O 0.52402 0.2277 0.27279 0.0
C117 C 0.47289 0.2781 0.26475 0.0
C118 C 0.38138 0.19617 0.17509 0.0
O119 O 0.38987 0.21697 0.20082 0.0
O120 O 0.39787 0.18812 0.16478 0.0
O121 O 0.77969 0.25059 0.25886 0.0
Cd122 Cd 0.7681 0.1941 0.25256 0.0
O123 O 0.76545 0.23401 0.30339 0.0
Cd124 Cd 0.74502 0.19012 0.32492 0.0
O125 O 0.7006 0.15716 0.30295 0.0
C126 C 0.68739 0.17058 0.29989 0.0
O127 O 0.7028 0.20383 0.30156 0.0
C128 C 0.77667 0.25719 0.28715 0.0
C129 C 0.78711 0.17004 0.20386 0.0
O130 O 0.80094 0.20191 0.2144 0.0
O131 O 0.76355 0.14956 0.21505 0.0
O132 O 0.52323 0.74382 0.71205 0.0
Cd133 Cd 0.56633 0.80161 0.72334 0.0
O134 O 0.52534 0.74947 0.66246 0.0
Cd135 Cd 0.55227 0.79782 0.64631 0.0
O136 O 0.53751 0.82736 0.66784 0.0
C137 C 0.51386 0.81685 0.6528 0.0
O138 O 0.50504 0.7946 0.62674 0.0
C139 C 0.51466 0.73099 0.68329 0.0
C140 C 0.61112 0.81577 0.76555 0.0
O141 O 0.58511 0.80024 0.77253 0.0
O142 O 0.61603 0.82388 0.7385 0.0
O143 O 0.17479 0.72485 0.71934 0.0
Cd144 Cd 0.20423 0.76619 0.76587 0.0
O145 O 0.21125 0.72261 0.7244 0.0
Cd146 Cd 0.25238 0.74268 0.74846 0.0
O147 O 0.2742 0.78995 0.72945 0.0
C148 C 0.2829 0.78666 0.70343 0.0
O149 O 0.27792 0.75708 0.69275 0.0
C150 C 0.18693 0.71072 0.71016 0.0
C151 C 0.1757 0.78869 0.80099 0.0
O152 O 0.16746 0.77528 0.77222 0.0
O153 O 0.1973 0.79135 0.81374 0.0
O154 O 0.23482 0.41518 0.69732 0.0
Cd155 Cd 0.20621 0.41856 0.73591 0.0
O156 O 0.24136 0.46395 0.70204 0.0
Cd157 Cd 0.23222 0.49848 0.72283 0.0
O158 O 0.18903 0.47449 0.70043 0.0
C159 C 0.18622 0.46795 0.67084 0.0
O160 O 0.20663 0.46803 0.6569 0.0
C161 C 0.24721 0.44402 0.68948 0.0
C162 C 0.18786 0.37332 0.77777 0.0
O163 O 0.18777 0.36461 0.74878 0.0
O164 O 0.19892 0.40486 0.78746 0.0
O165 O 0.48488 0.9019 0.6044 0.0
Cd166 Cd 0.45171 0.90221 0.56857 0.0
O167 O 0.44034 0.85961 0.59917 0.0
Cd168 Cd 0.39467 0.82542 0.58241 0.0
O169 O 0.37699 0.84813 0.60994 0.0
C170 C 0.36518 0.83067 0.63096 0.0
O171 O 0.36356 0.80265 0.62991 0.0
C172 C 0.46549 0.87417 0.61269 0.0
C173 C 0.47389 0.95277 0.53375 0.0
O174 O 0.49062 0.95074 0.55121 0.0
O175 O 0.44652 0.93149 0.53341 0.0
O176 O 0.11453 0.60734 0.58121 0.0
Cd177 Cd 0.09952 0.55813 0.54172 0.0
O178 O 0.14637 0.59686 0.58141 0.0
Cd179 Cd 0.1629 0.57059 0.55847 0.0
O180 O 0.13925 0.52778 0.58216 0.0
C181 C 0.15527 0.51875 0.58752 0.0
O182 O 0.17926 0.53206 0.574 0.0
C183 C 0.13664 0.61236 0.59495 0.0
C184 C 0.04697 0.53122 0.50806 0.0
O185 O 0.05121 0.54163 0.53747 0.0
O186 O 0.06748 0.53328 0.49419 0.0
O187 O 0.45141 0.58758 0.59261 0.0
Cd188 Cd 0.43016 0.52608 0.58453 0.0
O189 O 0.43137 0.5666 0.63294 0.0
Cd190 Cd 0.40895 0.52662 0.65846 0.0
O191 O 0.36704 0.49592 0.63093 0.0
C192 C 0.35357 0.50928 0.6352 0.0
O193 O 0.36877 0.54227 0.64597 0.0
C194 C 0.4451 0.59212 0.61972 0.0
C195 C 0.45597 0.50517 0.5426 0.0
O196 O 0.44476 0.51961 0.53436 0.0
O197 O 0.45512 0.50038 0.57081 0.0
C198 C 0.13637 0.01379 0.97987 0.0
C199 C 0.15669 0.02426 0.00611 0.0
C200 C 0.14306 0.96859 -0.00028 0.0
C201 C 0.12404 0.95868 0.97274 0.0
N202 N 0.10143 0.97247 0.9371 0.0
N203 N 0.17753 0.00881 0.04274 0.0
C204 C 0.12071 0.98274 0.96259 0.0
C205 C 0.15868 -0.00047 0.01712 0.0
N206 N 0.13307 0.03728 0.97121 0.0
N207 N 0.14584 0.94497 0.00903 0.0
H208 H 0.18933 0.03239 0.05737 0.0
H209 H 0.18297 -0.0064 0.04971 0.0
H210 H 0.13888 0.92172 0.99553 0.0
H211 H 0.1537 0.94686 0.03139 0.0
H212 H 0.12261 0.03436 0.9501 0.0
H213 H 0.13952 0.05948 0.98654 0.0
H214 H 0.09748 0.98802 0.92791 0.0
H215 H 0.08814 0.94725 0.92533 0.0
C216 C 0.97668 0.12098 0.00195 0.0
C217 C 0.97523 0.14347 0.02451 0.0
C218 C 0.0097 0.19248 0.00292 0.0
C219 C 0.01335 0.16946 0.9849 0.0
N220 N 0.00162 0.11286 0.96814 0.0
N221 N 0.98337 0.19753 0.04039 0.0
C222 C -0.00484 0.13358 0.98405 0.0
C223 C -0.01283 0.17836 0.02275 0.0
N224 N 0.9568 0.08655 2e-05 0.0
N225 N 0.02813 0.22689 0.00371 0.0
H226 H 0.96659 0.18675 0.05455 0.0
H227 H -0.01062 0.22295 0.03948 0.0
H228 H 0.04344 0.23664 0.9901 0.0
H229 H 0.02758 0.24487 0.01898 0.0
H230 H 0.95458 0.06727 0.98442 0.0
H231 H 0.93924 0.07644 0.01321 0.0
H232 H -0.00777 0.08794 0.97119 0.0
H233 H 0.01784 0.12059 0.95347 0.0
C234 C 0.82778 0.79453 0.95592 0.0
C235 C 0.83888 0.81013 0.98755 0.0
C236 C 0.82741 0.84998 0.98401 0.0
C237 C 0.82264 0.83971 0.95122 0.0
N238 N 0.80748 0.79546 0.90694 0.0
N239 N 0.84576 0.84871 0.03294 0.0
C240 C 0.81852 0.80907 0.93753 0.0
C241 C 0.83696 0.83612 0.00167 0.0
N242 N 0.82871 0.76803 0.94337 0.0
N243 N 0.825 0.8751 0.99664 0.0
H244 H 0.85026 0.83691 0.04757 0.0
H245 H 0.84803 0.87022 0.04488 0.0
H246 H 0.81643 0.88301 0.98229 0.0
H247 H 0.82993 0.88649 0.01926 0.0
H248 H 0.82294 0.75653 0.91995 0.0
H249 H 0.8355 0.7576 0.95723 0.0
H250 H 0.80416 0.77325 0.89512 0.0
H251 H 0.79965 0.80532 0.89386 0.0
C252 C 0.84026 0.02682 0.98716 0.0
C253 C 0.84533 0.01859 0.01431 0.0
C254 C 0.82431 0.96304 0.98847 0.0
C255 C 0.82031 0.9719 0.96032 0.0
N256 N 0.82369 0.00936 0.93153 0.0
N257 N 0.84461 0.98166 0.04214 0.0
C258 C 0.82808 0.00205 0.95925 0.0
C259 C 0.83898 0.98898 0.01501 0.0
N260 N 0.8487 0.05934 0.98737 0.0
N261 N 0.81207 0.92973 0.98963 0.0
H262 H 0.8517 -0.00477 0.0636 0.0
H263 H 0.84348 0.95984 0.04326 0.0
H264 H 0.79977 0.91031 0.97037 0.0
H265 H 0.8113 0.92163 0.00942 0.0
H266 H 0.84631 0.06817 0.96817 0.0
H267 H 0.86019 0.07939 0.00621 0.0
H268 H 0.82774 0.03238 0.92874 0.0
H269 H 0.81587 -0.00789 0.91047 0.0
C270 C 0.9802 0.83895 0.98312 0.0
C271 C -0.00901 0.82286 0.98038 0.0
C272 C 0.95428 0.77386 -0.00309 0.0
C273 C 0.94348 0.79334 0.00715 0.0
N274 N 0.94115 0.8395 -0.00062 0.0
N275 N -0.01287 0.77092 0.97282 0.0
C276 C 0.95406 0.82379 0.99726 0.0
C277 C 0.97925 0.78843 0.98347 0.0
N278 N -0.01032 0.86927 0.97292 0.0
N279 N 0.93953 0.74068 0.00066 0.0
H280 H 0.00374 0.78035 0.95845 0.0
H281 H 0.98193 0.74621 0.97561 0.0
H282 H 0.91729 0.72557 0.00214 0.0
H283 H 0.94823 0.72695 -0.0007 0.0
H284 H 0.98478 0.88367 0.97442 0.0
H285 H 0.00841 0.87939 0.96161 0.0
H286 H 0.94843 0.86322 0.9971 0.0
H287 H 0.91925 0.82455 0.00164 0.0
C288 C 0.18329 0.19245 0.98393 0.0
C289 C 0.16407 0.16327 0.99711 0.0
C290 C 0.12471 0.16805 0.9875 0.0
C291 C 0.14222 0.19321 0.96856 0.0
N292 N 0.18938 0.23091 0.95048 0.0
N293 N 0.12127 0.12938 0.01856 0.0
C294 C 0.17206 0.20641 0.96778 0.0
C295 C 0.13708 0.15395 0.00084 0.0
N296 N 0.21179 0.20446 0.98436 0.0
N297 N 0.09738 0.15834 0.99157 0.0
H298 H 0.13031 0.11945 0.02962 0.0
H299 H 0.1002 0.11955 0.02337 0.0
H300 H 0.09044 0.17228 0.98583 0.0
H301 H 0.08345 0.13927 0.00142 0.0
H302 H 0.22663 0.22161 0.97109 0.0
H303 H 0.22275 0.19977 -0.00087 0.0
H304 H 0.21171 0.24413 0.95139 0.0
H305 H 0.18188 0.23785 0.93363 0.0
C306 C 0.78142 0.31074 0.3074 0.0
C307 C 0.79357 0.2923 0.30403 0.0
C308 C 0.83875 0.33996 0.33501 0.0
C309 C 0.82664 0.35844 0.33889 0.0
N310 N 0.78787 0.36369 0.3289 0.0
N311 N 0.83177 0.28646 0.31569 0.0
C312 C 0.79834 0.34453 0.32493 0.0
C313 C 0.82157 0.306 0.31847 0.0
N314 N 0.75368 0.29548 0.29438 0.0
N315 N 0.86713 0.35553 0.34613 0.0
H316 H 0.82006 0.26147 0.30341 0.0
H317 H 0.85169 0.29406 0.32575 0.0
H318 H 0.88156 0.38138 0.35559 0.0
H319 H 0.8775 0.34373 0.34531 0.0
H320 H 0.74291 0.30686 0.29601 0.0
H321 H 0.74093 0.27057 0.28179 0.0
H322 H 0.76821 0.35642 0.3183 0.0
H323 H 0.79894 0.38717 0.34395 0.0
C324 C 0.67053 0.49862 0.3732 0.0
C325 C 0.64212 0.48048 0.35784 0.0
C326 C 0.66131 0.49705 0.30857 0.0
C327 C 0.68844 0.50716 0.32221 0.0
N328 N 0.72193 0.52758 0.36763 0.0
N329 N 0.60983 0.4682 0.31391 0.0
C330 C 0.69413 0.51223 0.35495 0.0
C331 C 0.6374 0.48235 0.32651 0.0
N332 N 0.67441 0.49989 0.40452 0.0
N333 N 0.65826 0.49925 0.27811 0.0
H334 H 0.5925 0.45803 0.32741 0.0
H335 H 0.60401 0.4669 0.29081 0.0
H336 H 0.67603 0.51237 0.26567 0.0
H337 H 0.6388 0.49051 0.26574 0.0
H338 H 0.69424 0.51055 0.41716 0.0
H339 H 0.65758 0.49118 0.41855 0.0
H340 H 0.72832 0.53142 0.39116 0.0
H341 H 0.73912 0.53784 0.35394 0.0
C342 C 0.49351 0.12589 0.28877 0.0
C343 C 0.50764 0.14334 0.31941 0.0
C344 C 0.49581 0.18313 0.31672 0.0
C345 C 0.48907 0.17174 0.28421 0.0
N346 N 0.46984 0.1251 0.24131 0.0
N347 N 0.51812 0.18516 0.36499 0.0
C348 C 0.48358 0.14024 0.27089 0.0
C349 C 0.50682 0.17036 0.33447 0.0
N350 N 0.49115 0.09696 0.27677 0.0
N351 N 0.49094 0.20591 0.33018 0.0
H352 H 0.52438 0.1753 0.38002 0.0
H353 H 0.52187 0.20792 0.3758 0.0
H354 H 0.4765 0.20801 0.31801 0.0
H355 H 0.4961 0.21717 0.35365 0.0
H356 H 0.48225 0.08335 0.25419 0.0
H357 H 0.49805 0.08635 0.29021 0.0
H358 H 0.46536 0.10223 0.22962 0.0
H359 H 0.46136 0.13482 0.22902 0.0
C360 C 0.50994 0.32339 0.34693 0.0
C361 C 0.51022 0.35269 0.34867 0.0
C362 C 0.48786 0.33427 0.29438 0.0
C363 C 0.4859 0.30404 0.29339 0.0
N364 N 0.49654 0.27014 0.31658 0.0
N365 N 0.50403 0.38948 0.32395 0.0
C366 C 0.49781 0.29901 0.3189 0.0
C367 C 0.50042 0.35911 0.32231 0.0
N368 N 0.51938 0.31779 0.37276 0.0
N369 N 0.47841 0.33941 0.26829 0.0
H370 H 0.51532 0.40932 0.3431 0.0
H371 H 0.49705 0.39615 0.3063 0.0
H372 H 0.47116 0.32289 0.24684 0.0
H373 H 0.47767 0.35993 0.26723 0.0
H374 H 0.51972 0.29697 0.37372 0.0
H375 H 0.5256 0.33299 0.39476 0.0
H376 H 0.50895 0.2674 0.33154 0.0
H377 H 0.48415 0.24938 0.29854 0.0
C378 C 0.63455 0.14537 0.36028 0.0
C379 C 0.60766 0.12516 0.34104 0.0
C380 C 0.63274 0.13421 0.29378 0.0
C381 C 0.65955 0.15433 0.31319 0.0
N382 N 0.68707 0.17941 0.36425 0.0
N383 N 0.57985 0.09884 0.29047 0.0
C384 C 0.66072 0.15989 0.34627 0.0
C385 C 0.60634 0.11907 0.30796 0.0
N386 N 0.63483 0.14972 0.39212 0.0
N387 N 0.63281 0.13006 0.26206 0.0
H388 H 0.56041 0.08816 0.30043 0.0
H389 H 0.57672 0.09218 0.26629 0.0
H390 H 0.65194 0.14083 0.25147 0.0
H391 H 0.61436 0.11663 0.24606 0.0
H392 H 0.65318 0.16247 0.40811 0.0
H393 H 0.61617 0.13954 0.40345 0.0
H394 H 0.69019 0.18723 0.38827 0.0
H395 H 0.7069 0.18951 0.3554 0.0
C396 C 0.83129 0.49723 0.29553 0.0
C397 C 0.83227 0.49877 0.32836 0.0
C398 C 0.81007 0.52941 0.33341 0.0
C399 C 0.80809 0.52652 0.30041 0.0
N400 N 0.81744 0.50972 0.24981 0.0
N401 N 0.82291 0.51506 0.37904 0.0
C402 C 0.81872 0.51077 0.28143 0.0
C403 C 0.82185 0.51468 0.34759 0.0
N404 N 0.84165 0.48174 0.2777 0.0
N405 N 0.80075 0.54627 0.35079 0.0
H406 H 0.8319 0.50485 0.38965 0.0
H407 H 0.81466 0.52477 0.39463 0.0
H408 H 0.7917 0.55671 0.34071 0.0
H409 H 0.80227 0.55063 0.37502 0.0
H410 H 0.83811 0.47514 0.25354 0.0
H411 H 0.85305 0.47358 0.28668 0.0
H412 H 0.82685 0.50149 0.23443 0.0
H413 H 0.8076 0.51841 0.23826 0.0
C414 C 0.47085 0.68367 0.64749 0.0
C415 C 0.49251 0.69395 0.6722 0.0
C416 C 0.47969 0.63598 0.66472 0.0
C417 C 0.45985 0.62662 0.63854 0.0
N418 N 0.433 0.63842 0.60701 0.0
N419 N 0.51739 0.68028 0.70516 0.0
C420 C 0.45435 0.64961 0.63048 0.0
C421 C 0.49625 0.66996 0.68173 0.0
N422 N 0.46629 0.70677 0.64057 0.0
N423 N 0.48415 0.61287 0.67198 0.0
H424 H 0.5324 0.70534 0.71626 0.0
H425 H 0.52138 0.66455 0.71383 0.0
H426 H 0.47714 0.59015 0.65725 0.0
H427 H 0.49531 0.61571 0.69248 0.0
H428 H 0.45261 0.70255 0.62176 0.0
H429 H 0.47568 0.73051 0.65476 0.0
H430 H 0.42739 0.65327 0.59945 0.0
H431 H 0.42 0.61321 0.59515 0.0
C432 C 0.35797 0.8336 0.68609 0.0
C433 C 0.35399 0.84085 0.65713 0.0
C434 C 0.30832 0.83094 0.66951 0.0
C435 C 0.30944 0.81629 0.69486 0.0
N436 N 0.33593 0.80785 0.73078 0.0
N437 N 0.33311 0.86065 0.62696 0.0
C438 C 0.33515 0.82052 0.70507 0.0
C439 C 0.33194 0.84502 0.65103 0.0
N440 N 0.38287 0.83686 0.69376 0.0
N441 N 0.28403 0.82901 0.66218 0.0
H442 H 0.35119 0.87266 0.61473 0.0
H443 H 0.31757 0.86423 0.62076 0.0
H444 H 0.26692 0.81876 0.67598 0.0
H445 H 0.28072 0.83716 0.64292 0.0
H446 H 0.3877 0.83177 0.71429 0.0
H447 H 0.39995 0.84731 0.67992 0.0
H448 H 0.352 0.80524 0.73724 0.0
H449 H 0.32015 0.79979 0.74618 0.0
C450 C 0.18028 0.53054 0.63813 0.0
C451 C 0.15499 0.50784 0.61717 0.0
C452 C 0.14466 0.45942 0.63918 0.0
C453 C 0.17305 0.48135 0.65548 0.0
N454 N 0.21793 0.53787 0.67176 0.0
N455 N 0.108 0.45457 0.60455 0.0
C456 C 0.19061 0.51713 0.65596 0.0
C457 C 0.13519 0.47339 0.6202 0.0
N458 N 0.1948 0.56491 0.63956 0.0
N459 N 0.12787 0.42545 0.6406 0.0
H460 H 0.10128 0.46544 0.59124 0.0
H461 H 0.09186 0.42931 0.60597 0.0
H462 H 0.13474 0.41507 0.65438 0.0
H463 H 0.10757 0.40758 0.62807 0.0
H464 H 0.21341 0.58358 0.65457 0.0
H465 H 0.1864 0.5748 0.62728 0.0
H466 H 0.23319 0.56304 0.66932 0.0
H467 H 0.2264 0.52983 0.68633 0.0
C468 C 0.1808 0.65896 0.63187 0.0
C469 C 0.15014 0.63508 0.62586 0.0
C470 C 0.14409 0.65788 0.677 0.0
C471 C 0.17445 0.68359 0.68182 0.0
N472 N 0.22133 0.71113 0.66298 0.0
N473 N 0.10294 0.60677 0.64455 0.0
C474 C 0.19283 0.68404 0.65955 0.0
C475 C 0.13184 0.63332 0.6489 0.0
N476 N 0.19829 0.65977 0.60998 0.0
N477 N 0.12715 0.65635 0.69985 0.0
H478 H 0.09399 0.58551 0.62684 0.0
H479 H 0.08771 0.60397 0.65926 0.0
H480 H 0.13553 0.66925 0.72276 0.0
H481 H 0.10466 0.64165 0.69694 0.0
H482 H 0.22064 0.67326 0.61406 0.0
H483 H 0.19092 0.64712 0.58696 0.0
H484 H 0.23702 0.71272 0.64977 0.0
H485 H 0.22829 0.73453 0.67619 0.0
C486 C 0.29932 0.47603 0.62794 0.0
C487 C 0.32517 0.4881 0.64656 0.0
C488 C 0.2992 0.47006 0.69228 0.0
C489 C 0.2734 0.45802 0.67385 0.0
N490 N 0.24701 0.44728 0.62495 0.0
N491 N 0.3502 0.49446 0.69508 0.0
C492 C 0.27283 0.4603 0.64178 0.0
C493 C 0.3251 0.48397 0.67821 0.0
N494 N 0.30042 0.47977 0.59736 0.0
N495 N 0.29867 0.46784 0.72335 0.0
H496 H 0.36898 0.5011 0.6854 0.0
H497 H 0.35327 0.49718 0.71912 0.0
H498 H 0.28047 0.45958 0.73518 0.0
H499 H 0.31586 0.47359 0.73817 0.0
H500 H 0.28279 0.47251 0.58226 0.0
H501 H 0.3196 0.49043 0.58688 0.0
H502 H 0.24457 0.448 0.60151 0.0
H503 H 0.22736 0.43449 0.63452 0.0
C504 C 0.45576 0.82247 0.63379 0.0
C505 C 0.47274 0.85882 0.63511 0.0
C506 C 0.51126 0.86607 0.66955 0.0
C507 C 0.4971 0.83068 0.66139 0.0
N508 N 0.45238 0.77543 0.65181 0.0
N509 N 0.51262 0.91516 0.66234 0.0
C510 C 0.46767 0.8092 0.64978 0.0
C511 C 0.49912 0.8807 0.65603 0.0
N512 N 0.42979 0.80015 0.61556 0.0
N513 N 0.53584 0.88505 0.69017 0.0
H514 H 0.5022 0.92604 0.65723 0.0
H515 H 0.5333 0.93291 0.67405 0.0
H516 H 0.54279 0.87359 0.70219 0.0
H517 H 0.54805 0.91135 0.69728 0.0
H518 H 0.41843 0.7738 0.61179 0.0
H519 H 0.41885 0.80633 0.60276 0.0
H520 H 0.4305 0.75705 0.64421 0.0
H521 H 0.46159 0.7667 0.66448 0.0
C522 C 0.32904 0.18758 0.1137 0.0
C523 C 0.30193 0.16191 0.12315 0.0
C524 C 0.32719 0.15858 0.16681 0.0
C525 C 0.35405 0.1836 0.15685 0.0
N526 N 0.38183 0.22317 0.12257 0.0
N527 N 0.27438 0.1241 0.15884 0.0
C528 C 0.35532 0.19841 0.13071 0.0
C529 C 0.30079 0.14773 0.14986 0.0
N530 N 0.32955 0.20081 0.08785 0.0
N531 N 0.32719 0.14525 0.19236 0.0
H532 H 0.25493 0.11709 0.14766 0.0
H533 H 0.27125 0.11166 0.17744 0.0
H534 H 0.34616 0.15213 0.20467 0.0
H535 H 0.30876 0.12721 0.20161 0.0
H536 H 0.34812 0.21814 0.07833 0.0
H537 H 0.31109 0.19383 0.07451 0.0
H538 H 0.38512 0.23637 0.10456 0.0
H539 H 0.40148 0.23173 0.13454 0.0
C540 C 0.8127 0.14255 0.20014 0.0
C541 C 0.80138 0.15711 0.18506 0.0
C542 C 0.81992 0.14943 0.13627 0.0
C543 C 0.83027 0.13378 0.15114 0.0
N544 N 0.83626 0.11391 0.19598 0.0
N545 N 0.79394 0.17533 0.13986 0.0
C546 C 0.82652 0.12984 0.18276 0.0
C547 C 0.80491 0.16083 0.15333 0.0
N548 N 0.81076 0.14174 0.23138 0.0
N549 N 0.82491 0.15366 0.10602 0.0
H550 H 0.78257 0.18336 0.15183 0.0
H551 H 0.79551 0.17924 0.11694 0.0
H552 H 0.83677 0.14675 0.09347 0.0
H553 H 0.81797 0.16445 0.09312 0.0
H554 H 0.81745 0.13069 0.2442 0.0
H555 H 0.80302 0.15326 0.24555 0.0
H556 H 0.83467 0.10998 0.21888 0.0
H557 H 0.84566 0.10335 0.1837 0.0
C558 C 0.83462 0.67524 0.18619 0.0
C559 C 0.82026 0.63959 0.17716 0.0
C560 C 0.82709 0.64483 0.12233 0.0
C561 C 0.84026 0.68026 0.13119 0.0
N562 N 0.86125 0.73085 0.1707 0.0
N563 N 0.80583 0.59024 0.1388 0.0
C564 C 0.84542 0.69599 0.16295 0.0
C565 C 0.81745 0.6243 0.14579 0.0
N566 N 0.83798 0.68894 0.21699 0.0
N567 N 0.82382 0.63114 0.09155 0.0
H568 H 0.79989 0.57488 0.15566 0.0
H569 H 0.80254 0.57679 0.11656 0.0
H570 H 0.83038 0.64568 0.07395 0.0
H571 H 0.81437 0.60557 0.08288 0.0
H572 H 0.8479 0.7146 0.22577 0.0
H573 H 0.83031 0.67418 0.23443 0.0
H574 H 0.86519 0.74444 0.19304 0.0
H575 H 0.87172 0.7471 0.15474 0.0
C576 C 0.1632 0.29716 0.81892 0.0
C577 C 0.1524 0.30552 0.84496 0.0
C578 C 0.16137 0.35467 0.82513 0.0
C579 C 0.17356 0.34765 0.79919 0.0
N580 N 0.18224 0.30856 0.76922 0.0
N581 N 0.14194 0.34169 0.87488 0.0
C582 C 0.17326 0.31773 0.79528 0.0
C583 C 0.15219 0.33452 0.8489 0.0
N584 N 0.16344 0.2691 0.81698 0.0
N585 N 0.15686 0.37932 0.82594 0.0
H586 H 0.13545 0.32751 0.89277 0.0
H587 H 0.14034 0.3619 0.87971 0.0
H588 H 0.15523 0.38765 0.80587 0.0
H589 H 0.15223 0.38965 0.84539 0.0
H590 H 0.17011 0.2599 0.79879 0.0
H591 H 0.15718 0.25441 0.83445 0.0
H592 H 0.18394 0.28841 0.76557 0.0
H593 H 0.18826 0.32037 0.74999 0.0
C594 C 0.68309 0.87588 0.81623 0.0
C595 C 0.68788 0.85228 0.8242 0.0
C596 C 0.63953 0.80403 0.79888 0.0
C597 C 0.63558 0.82769 0.78911 0.0
N598 N 0.64963 0.88503 0.79343 0.0
N599 N 0.67149 0.79471 0.82534 0.0
C600 C 0.65621 0.86338 0.79946 0.0
C601 C 0.6662 0.8165 0.81635 0.0
N602 N 0.70465 0.91017 0.82412 0.0
N603 N 0.61785 0.76984 0.7911 0.0
H604 H 0.69065 0.80314 0.83839 0.0
H605 H 0.65738 0.76828 0.81997 0.0
H606 H 0.5982 0.76018 0.77839 0.0
H607 H 0.61858 0.75071 0.79748 0.0
H608 H 0.70345 0.9292 0.81837 0.0
H609 H 0.72478 0.92006 0.83582 0.0
H610 H 0.66315 0.91139 0.80017 0.0
H611 H 0.62943 0.87634 0.78285 0.0
C612 C 0.17457 0.83734 0.82531 0.0
C613 C 0.16099 0.80162 0.81864 0.0
C614 C 0.11881 0.79057 0.84425 0.0
C615 C 0.13346 0.82631 0.85327 0.0
N616 N 0.17253 0.88399 0.84924 0.0
N617 N 0.12083 0.74384 0.8208 0.0
C618 C 0.16047 0.84984 0.84257 0.0
C619 C 0.13311 0.77805 0.82761 0.0
N620 N 0.20106 0.85907 0.81531 0.0
N621 N 0.09106 0.7689 0.85136 0.0
H622 H 0.13106 0.73398 0.80924 0.0
H623 H 0.10103 0.7249 0.82729 0.0
H624 H 0.07962 0.77755 0.86201 0.0
H625 H 0.07852 0.74247 0.84558 0.0
H626 H 0.21302 0.88549 0.81981 0.0
H627 H 0.21165 0.85064 0.8022 0.0
H628 H 0.1919 0.90299 0.84207 0.0
H629 H 0.16275 0.89381 0.86191 0.0
C630 C 0.0147 0.54174 0.48187 0.0
C631 C 0.01922 0.51815 0.49048 0.0
C632 C 0.97387 0.4699 0.46592 0.0
C633 C 0.97008 0.49346 0.45556 0.0
N634 N 0.98467 0.55089 0.45845 0.0
N635 N 0.00256 0.46075 0.49282 0.0
C636 C -0.01219 0.52922 0.46511 0.0
C637 C -0.00264 0.48243 0.48333 0.0
N638 N 0.03645 0.57601 0.48926 0.0
N639 N 0.95203 0.43571 0.45872 0.0
H640 H 0.02182 0.46928 0.50572 0.0
H641 H -0.01171 0.43431 0.48798 0.0
H642 H 0.9324 0.42586 0.44587 0.0
H643 H 0.95264 0.4167 0.46566 0.0
H644 H 0.03546 0.595 0.48296 0.0
H645 H 0.0565 0.58592 0.50119 0.0
H646 H -0.00479 0.5773 0.46468 0.0
H647 H 0.96451 0.54222 0.44776 0.0
C648 C 0.46811 0.44417 0.49474 0.0
C649 C 0.49561 0.46771 0.48504 0.0
C650 C 0.49475 0.51584 0.50822 0.0
C651 C 0.46812 0.49242 0.5197 0.0
N652 N 0.42628 0.43493 0.51906 0.0
N653 N 0.53508 0.52493 0.48041 0.0
C654 C 0.45379 0.45667 0.51137 0.0
C655 C 0.50885 0.50332 0.49096 0.0
N656 N 0.45616 0.41002 0.48851 0.0
N657 N 0.5065 0.5499 0.51422 0.0
H658 H 0.54574 0.5164 0.46759 0.0
H659 H 0.54679 0.55132 0.48428 0.0
H660 H 0.49676 0.55976 0.5269 0.0
H661 H 0.52555 0.56877 0.50643 0.0
H662 H 0.4367 0.39115 0.49566 0.0
H663 H 0.46629 0.40017 0.47671 0.0
H664 H 0.41398 0.40849 0.51379 0.0
H665 H 0.41476 0.44351 0.52964 0.0
C666 C 0.51266 0.02822 0.49614 0.0
C667 C 0.50602 0.01223 0.46426 0.0
C668 C 0.48124 0.95885 0.47869 0.0
C669 C 0.48575 0.97464 0.51028 0.0
N670 N 0.50669 0.0216 0.55046 0.0
N671 N 0.486 0.96524 0.42428 0.0
C672 C 0.50172 0.00759 0.51947 0.0
C673 C 0.49101 0.97933 0.45524 0.0
N674 N 0.52993 0.06314 0.50385 0.0
N675 N 0.46814 0.9244 0.47149 0.0
H676 H 0.49272 0.97977 0.40666 0.0
H677 H 0.47485 0.93936 0.41547 0.0
H678 H 0.46249 0.90899 0.48826 0.0
H679 H 0.46354 0.91063 0.44909 0.0
H680 H 0.53521 0.077 0.52633 0.0
H681 H 0.54002 0.07907 0.48757 0.0
H682 H 0.51829 0.04751 0.55938 0.0
H683 H 0.49869 0.00693 0.56795 0.0
loop_
_geom_bond_atom_site_label_1
_geom_bond_atom_site_label_2
_geom_bond_distance
_geom_bond_site_symmetry_2
_ccdc_geom_bond_type
O0 Cd1 2.300 . S
O0 C7 1.275 . S
Cd1 O0 2.300 . S
Cd1 O9 2.381 . S
Cd1 O10 2.378 . S
O2 Cd3 2.385 1_554 S
O2 C7 1.255 . S
Cd3 O2 2.385 1_556 S
Cd3 O4 2.317 1_556 S
O4 Cd3 2.317 1_554 S
O4 C5 1.232 . S
C5 O4 1.232 . S
C5 O6 1.218 1_554 S
O6 C5 1.218 1_556 S
C7 O0 1.275 . S
C7 O2 1.255 . S
C8 O9 1.258 . S
C8 O10 1.256 . S
O9 Cd1 2.381 . S
O9 C8 1.258 . S
O10 Cd1 2.378 . S
O10 C8 1.256 . S
O11 Cd12 2.300 . S
O11 C18 1.275 . S
Cd12 O11 2.300 . S
Cd12 O20 2.381 . S
Cd12 O21 2.378 . S
O13 Cd14 2.385 . S
O13 C18 1.255 . S
Cd14 O13 2.385 . S
Cd14 O15 2.317 . S
O15 Cd14 2.317 . S
O15 C16 1.232 . S
C16 O15 1.232 . S
C16 O17 1.218 . S
O17 C16 1.218 . S
C18 O11 1.275 . S
C18 O13 1.255 . S
C19 O20 1.258 . S
C19 O21 1.256 . S
O20 Cd12 2.381 . S
O20 C19 1.258 . S
O21 Cd12 2.378 . S
O21 C19 1.256 . S
O22 Cd23 2.300 . S
O22 C29 1.275 . S
Cd23 O22 2.300 . S
Cd23 O31 2.381 . S
Cd23 O32 2.378 . S
O24 Cd25 2.385 . S
O24 C29 1.255 . S
Cd25 O24 2.385 . S
Cd25 O26 2.317 . S
O26 Cd25 2.317 . S
O26 C27 1.232 . S
C27 O26 1.232 . S
C27 O28 1.218 . S
O28 C27 1.218 . S
C29 O22 1.275 . S
C29 O24 1.255 . S
C30 O31 1.258 . S
C30 O32 1.256 . S
O31 Cd23 2.381 . S
O31 C30 1.258 . S
O32 Cd23 2.378 . S
O32 C30 1.256 . S
O33 Cd34 2.300 . S
O33 C40 1.275 . S
Cd34 O33 2.300 . S
Cd34 O42 2.381 . S
Cd34 O43 2.378 . S
O35 Cd36 2.385 . S
O35 C40 1.255 . S
Cd36 O35 2.385 . S
Cd36 O37 2.317 . S
O37 Cd36 2.317 . S
O37 C38 1.232 . S
C38 O37 1.232 . S
C38 O39 1.218 . S
O39 C38 1.218 . S
C40 O33 1.275 . S
C40 O35 1.255 . S
C41 O42 1.258 . S
C41 O43 1.256 . S
O42 Cd34 2.381 . S
O42 C41 1.258 . S
O43 Cd34 2.378 . S
O43 C41 1.256 . S
O44 Cd45 2.300 . S
O44 C51 1.275 . S
Cd45 O44 2.300 . S
Cd45 O53 2.381 . S
Cd45 O54 2.378 . S
O46 Cd47 2.385 . S
O46 C51 1.255 . S
Cd47 O46 2.385 . S
Cd47 O48 2.317 . S
O48 Cd47 2.317 . S
O48 C49 1.232 . S
C49 O48 1.232 . S
C49 O50 1.218 . S
O50 C49 1.218 . S
C51 O44 1.275 . S
C51 O46 1.255 . S
C52 O53 1.258 . S
C52 O54 1.256 . S
O53 Cd45 2.381 . S
O53 C52 1.258 . S
O54 Cd45 2.378 . S
O54 C52 1.256 . S
O55 Cd56 2.300 . S
O55 C62 1.275 . S
Cd56 O55 2.300 . S
Cd56 O64 2.381 . S
Cd56 O65 2.378 . S
O57 Cd58 2.385 1_556 S
O57 C62 1.255 . S
Cd58 O57 2.385 1_554 S
Cd58 O59 2.317 1_554 S
O59 Cd58 2.317 1_556 S
O59 C60 1.232 . S
C60 O59 1.232 . S
C60 O61 1.218 1_556 S
O61 C60 1.218 1_554 S
C62 O55 1.275 . S
C62 O57 1.255 . S
C63 O64 1.258 . S
C63 O65 1.256 . S
O64 Cd56 2.381 . S
O64 C63 1.258 . S
O65 Cd56 2.378 . S
O65 C63 1.256 . S
O66 Cd67 2.300 . S
O66 C73 1.275 . S
Cd67 O66 2.300 . S
Cd67 O75 2.381 . S
Cd67 O76 2.378 . S
O68 Cd69 2.385 . S
O68 C73 1.255 . S
Cd69 O68 2.385 . S
Cd69 O70 2.317 . S
O70 Cd69 2.317 . S
O70 C71 1.232 . S
C71 O70 1.232 . S
C71 O72 1.218 . S
O72 C71 1.218 . S
C73 O66 1.275 . S
C73 O68 1.255 . S
C74 O75 1.258 . S
C74 O76 1.256 . S
O75 Cd67 2.381 . S
O75 C74 1.258 . S
O76 Cd67 2.378 . S
O76 C74 1.256 . S
O77 Cd78 2.300 . S
O77 C84 1.275 . S
Cd78 O77 2.300 . S
Cd78 O86 2.381 . S
Cd78 O87 2.378 . S
O79 Cd80 2.385 . S
O79 C84 1.255 . S
Cd80 O79 2.385 . S
Cd80 O81 2.317 . S
O81 Cd80 2.317 . S
O81 C82 1.232 . S
C82 O81 1.232 . S
C82 O83 1.218 . S
O83 C82 1.218 . S
C84 O77 1.275 . S
C84 O79 1.255 . S
C85 O86 1.258 . S
C85 O87 1.256 . S
O86 Cd78 2.381 . S
O86 C85 1.258 . S
O87 Cd78 2.378 . S
O87 C85 1.256 . S
O88 Cd89 2.300 . S
O88 C95 1.275 . S
Cd89 O88 2.300 . S
Cd89 O97 2.381 . S
Cd89 O98 2.378 . S
O90 Cd91 2.385 . S
O90 C95 1.255 . S
Cd91 O90 2.385 . S
Cd91 O92 2.317 . S
O92 Cd91 2.317 . S
O92 C93 1.232 . S
C93 O92 1.232 . S
C93 O94 1.218 . S
O94 C93 1.218 . S
C95 O88 1.275 . S
C95 O90 1.255 . S
C96 O97 1.258 . S
C96 O98 1.256 . S
O97 Cd89 2.381 . S
O97 C96 1.258 . S
O98 Cd89 2.378 . S
O98 C96 1.256 . S
O99 Cd100 2.300 . S
O99 C106 1.275 . S
Cd100 O99 2.300 . S
Cd100 O108 2.381 . S
Cd100 O109 2.378 . S
O101 Cd102 2.385 . S
O101 C106 1.255 . S
Cd102 O101 2.385 . S
Cd102 O103 2.317 . S
O103 Cd102 2.317 . S
O103 C104 1.232 . S
C104 O103 1.232 . S
C104 O105 1.218 . S
O105 C104 1.218 . S
C106 O99 1.275 . S
C106 O101 1.255 . S
C107 O108 1.258 . S
C107 O109 1.256 . S
O108 Cd100 2.381 . S
O108 C107 1.258 . S
O109 Cd100 2.378 . S
O109 C107 1.256 . S
O110 Cd111 2.300 . S
O110 C117 1.275 . S
Cd111 O110 2.300 . S
Cd111 O119 2.381 . S
Cd111 O120 2.378 . S
O112 Cd113 2.385 . S
O112 C117 1.255 . S
Cd113 O112 2.385 . S
Cd113 O114 2.317 . S
O114 Cd113 2.317 . S
O114 C115 1.232 . S
C115 O114 1.232 . S
C115 O116 1.218 . S
O116 C115 1.218 . S
C117 O110 1.275 . S
C117 O112 1.255 . S
C118 O119 1.258 . S
C118 O120 1.256 . S
O119 Cd111 2.381 . S
O119 C118 1.258 . S
O120 Cd111 2.378 . S
O120 C118 1.256 . S
O121 Cd122 2.300 . S
O121 C128 1.275 . S
Cd122 O121 2.300 . S
Cd122 O130 2.381 . S
Cd122 O131 2.378 . S
O123 Cd124 2.385 . S
O123 C128 1.255 . S
Cd124 O123 2.385 . S
Cd124 O125 2.317 . S
O125 Cd124 2.317 . S
O125 C126 1.232 . S
C126 O125 1.232 . S
C126 O127 1.218 . S
O127 C126 1.218 . S
C128 O121 1.275 . S
C128 O123 1.255 . S
C129 O130 1.258 . S
C129 O131 1.256 . S
O130 Cd122 2.381 . S
O130 C129 1.258 . S
O131 Cd122 2.378 . S
O131 C129 1.256 . S
O132 Cd133 2.300 . S
O132 C139 1.275 . S
Cd133 O132 2.300 . S
Cd133 O141 2.381 . S
Cd133 O142 2.378 . S
O134 Cd135 2.385 . S
O134 C139 1.255 . S
Cd135 O134 2.385 . S
Cd135 O136 2.317 . S
O136 Cd135 2.317 . S
O136 C137 1.232 . S
C137 O136 1.232 . S
C137 O138 1.218 . S
O138 C137 1.218 . S
C139 O132 1.275 . S
C139 O134 1.255 . S
C140 O141 1.258 . S
C140 O142 1.256 . S
O141 Cd133 2.381 . S
O141 C140 1.258 . S
O142 Cd133 2.378 . S
O142 C140 1.256 . S
O143 Cd144 2.300 . S
O143 C150 1.275 . S
Cd144 O143 2.300 . S
Cd144 O152 2.381 . S
Cd144 O153 2.378 . S
O145 Cd146 2.385 . S
O145 C150 1.255 . S
Cd146 O145 2.385 . S
Cd146 O147 2.317 . S
O147 Cd146 2.317 . S
O147 C148 1.232 . S
C148 O147 1.232 . S
C148 O149 1.218 . S
O149 C148 1.218 . S
C150 O143 1.275 . S
C150 O145 1.255 . S
C151 O152 1.258 . S
C151 O153 1.256 . S
O152 Cd144 2.381 . S
O152 C151 1.258 . S
O153 Cd144 2.378 . S
O153 C151 1.256 . S
O154 Cd155 2.300 . S
O154 C161 1.275 . S
Cd155 O154 2.300 . S
Cd155 O163 2.381 . S
Cd155 O164 2.378 . S
O156 Cd157 2.385 . S
O156 C161 1.255 . S
Cd157 O156 2.385 . S
Cd157 O158 2.317 . S
O158 Cd157 2.317 . S
O158 C159 1.232 . S
C159 O158 1.232 . S
C159 O160 1.218 . S
O160 C159 1.218 . S
C161 O154 1.275 . S
C161 O156 1.255 . S
C162 O163 1.258 . S
C162 O164 1.256 . S
O163 Cd155 2.381 . S
O163 C162 1.258 . S
O164 Cd155 2.378 . S
O164 C162 1.256 . S
O165 Cd166 2.300 . S
O165 C172 1.275 . S
Cd166 O165 2.300 . S
Cd166 O174 2.381 . S
Cd166 O175 2.378 . S
O167 Cd168 2.385 . S
O167 C172 1.255 . S
Cd168 O167 2.385 . S
Cd168 O169 2.317 . S
O169 Cd168 2.317 . S
O169 C170 1.232 . S
C170 O169 1.232 . S
C170 O171 1.218 . S
O171 C170 1.218 . S
C172 O165 1.275 . S
C172 O167 1.255 . S
C173 O174 1.258 . S
C173 O175 1.256 . S
O174 Cd166 2.381 . S
O174 C173 1.258 . S
O175 Cd166 2.378 . S
O175 C173 1.256 . S
O176 Cd177 2.300 . S
O176 C183 1.275 . S
Cd177 O176 2.300 . S
Cd177 O185 2.381 . S
Cd177 O186 2.378 . S
O178 Cd179 2.385 . S
O178 C183 1.255 . S
Cd179 O178 2.385 . S
Cd179 O180 2.317 . S
O180 Cd179 2.317 . S
O180 C181 1.232 . S
C181 O180 1.232 . S
C181 O182 1.218 . S
O182 C181 1.218 . S
C183 O176 1.275 . S
C183 O178 1.255 . S
C184 O185 1.258 . S
C184 O186 1.256 . S
O185 Cd177 2.381 . S
O185 C184 1.258 . S
O186 Cd177 2.378 . S
O186 C184 1.256 . S
O187 Cd188 2.300 . S
O187 C194 1.275 . S
Cd188 O187 2.300 . S
Cd188 O196 2.381 . S
Cd188 O197 2.378 . S
O189 Cd190 2.385 . S
O189 C194 1.255 . S
Cd190 O189 2.385 . S
Cd190 O191 2.317 . S
O191 Cd190 2.317 . S
O191 C192 1.232 . S
C192 O191 1.232 . S
C192 O193 1.218 . S
O193 C192 1.218 . S
C194 O187 1.275 . S
C194 O189 1.255 . S
C195 O196 1.258 . S
C195 O197 1.256 . S
O196 Cd188 2.381 . S
O196 C195 1.258 . S
O197 Cd188 2.378 . S
O197 C195 1.256 . S
C198 C199 1.363 1_556 S
C198 C204 1.379 1_545 S
C198 N206 1.356 . S
C199 C198 1.363 1_554 S
C199 C205 1.363 . S
C200 C201 1.358 1_554 S
C200 C205 1.381 1_565 S
C200 N207 1.358 . S
C201 C200 1.358 1_556 S
C201 C204 1.363 . S
N202 C204 1.356 . S
N202 H214 0.984 . S
N202 H215 0.985 . S
N203 C205 1.356 . S
N203 H208 0.984 . S
N203 H209 0.985 . S
C204 C198 1.379 1_565 S
C204 C201 1.363 . S
C204 N202 1.356 . S
C205 C199 1.363 . S
C205 C200 1.381 1_545 S
C205 N203 1.356 . S
N206 C198 1.356 . S
N206 H212 0.984 . S
N206 H213 0.984 . S
N207 C200 1.358 . S
N207 H210 0.984 1_554 S
N207 H211 0.985 . S
H208 N203 0.984 . S
H209 N203 0.985 . S
H210 N207 0.984 1_556 S
H211 N207 0.985 . S
H212 N206 0.984 . S
H213 N206 0.984 . S
H214 N202 0.984 . S
H215 N202 0.985 . S
C216 C217 1.363 . S
C216 C222 1.379 1_654 S
C216 N224 1.356 . S
C217 C216 1.363 . S
C217 C223 1.363 1_655 S
C218 C219 1.363 1_554 S
C218 C223 1.379 . S
C218 N225 1.356 . S
C219 C218 1.363 1_556 S
C219 C222 1.363 . S
N220 C222 1.356 . S
N220 H232 0.984 . S
N220 H233 0.985 . S
N221 C223 1.356 1_655 S
N221 H226 0.984 . S
N221 H227 0.985 . S
C222 C216 1.379 1_456 S
C222 C219 1.363 . S
C222 N220 1.356 . S
C223 C217 1.363 1_455 S
C223 C218 1.379 . S
C223 N221 1.356 1_455 S
N224 C216 1.356 . S
N224 H230 0.984 . S
N224 H231 0.984 . S
N225 C218 1.356 . S
N225 H228 0.984 1_554 S
N225 H229 0.985 . S
H226 N221 0.984 . S
H227 N221 0.985 . S
H228 N225 0.984 1_556 S
H229 N225 0.985 . S
H230 N224 0.984 . S
H231 N224 0.984 . S
H232 N220 0.984 . S
H233 N220 0.985 . S
C234 C235 1.363 . S
C234 C240 1.379 . S
C234 N242 1.356 . S
C235 C234 1.363 . S
C235 C241 1.363 1_556 S
C236 C237 1.363 . S
C236 C241 1.379 1_556 S
C236 N243 1.356 . S
C237 C236 1.363 . S
C237 C240 1.363 . S
N238 C240 1.356 . S
N238 H250 0.984 . S
N238 H251 0.985 . S
N239 C241 1.356 . S
N239 H244 0.984 . S
N239 H245 0.985 . S
C240 C234 1.379 . S
C240 C237 1.363 . S
C240 N238 1.356 . S
C241 C235 1.363 1_554 S
C241 C236 1.379 1_554 S
C241 N239 1.356 . S
N242 C234 1.356 . S
N242 H248 0.984 . S
N242 H249 0.984 . S
N243 C236 1.356 . S
N243 H246 0.984 . S
N243 H247 0.985 1_556 S
H244 N239 0.984 . S
H245 N239 0.985 . S
H246 N243 0.984 . S
H247 N243 0.985 1_554 S
H248 N242 0.984 . S
H249 N242 0.984 . S
H250 N238 0.984 . S
H251 N238 0.985 . S
C252 C253 1.363 1_556 S
C252 C258 1.379 . S
C252 N260 1.356 . S
C253 C252 1.363 1_554 S
C253 C259 1.363 1_545 S
C254 C255 1.363 . S
C254 C259 1.379 1_556 S
C254 N261 1.356 . S
C255 C254 1.363 . S
C255 C258 1.363 1_565 S
N256 C258 1.356 . S
N256 H268 0.984 . S
N256 H269 0.985 1_545 S
N257 C259 1.356 . S
N257 H262 0.984 1_565 S
N257 H263 0.985 . S
C258 C252 1.379 . S
C258 C255 1.363 1_545 S
C258 N256 1.356 . S
C259 C253 1.363 1_565 S
C259 C254 1.379 1_554 S
C259 N257 1.356 . S
N260 C252 1.356 . S
N260 H266 0.984 . S
N260 H267 0.984 1_556 S
N261 C254 1.356 . S
N261 H264 0.984 . S
N261 H265 0.985 . S
H262 N257 0.984 1_545 S
H263 N257 0.985 . S
H264 N261 0.984 . S
H265 N261 0.985 . S
H266 N260 0.984 . S
H267 N260 0.984 1_554 S
H268 N256 0.984 . S
H269 N256 0.985 1_565 S
C270 C271 1.363 1_655 S
C270 C276 1.381 . S
C270 N278 1.356 1_655 S
C271 C270 1.363 1_455 S
C271 C277 1.363 1_455 S
C272 C273 1.366 . S
C272 C277 1.369 1_554 S
C272 N279 1.366 . S
C273 C272 1.366 . S
C273 C276 1.361 1_554 S
N274 C276 1.355 1_554 S
N274 H286 0.984 . S
N274 H287 0.985 . S
N275 C277 1.356 1_455 S
N275 H280 0.984 . S
N275 H281 0.985 . S
C276 C270 1.381 . S
C276 C273 1.361 1_556 S
C276 N274 1.355 1_556 S
C277 C271 1.363 1_655 S
C277 C272 1.369 1_556 S
C277 N275 1.356 1_655 S
N278 C270 1.356 1_455 S
N278 H284 0.984 . S
N278 H285 0.984 . S
N279 C272 1.366 . S
N279 H282 0.984 . S
N279 H283 0.985 . S
H280 N275 0.984 . S
H281 N275 0.985 . S
H282 N279 0.984 . S
H283 N279 0.985 . S
H284 N278 0.984 . S
H285 N278 0.984 . S
H286 N274 0.984 . S
H287 N274 0.985 . S
C288 C289 1.363 1_556 S
C288 C294 1.379 . S
C288 N296 1.356 . S
C289 C288 1.363 1_554 S
C289 C295 1.363 . S
C290 C291 1.363 . S
C290 C295 1.379 1_556 S
C290 N297 1.356 . S
C291 C290 1.363 . S
C291 C294 1.363 . S
N292 C294 1.356 . S
N292 H304 0.984 . S
N292 H305 0.985 . S
N293 C295 1.356 . S
N293 H298 0.984 . S
N293 H299 0.985 . S
C294 C288 1.379 . S
C294 C291 1.363 . S
C294 N292 1.356 . S
C295 C289 1.363 . S
C295 C290 1.379 1_554 S
C295 N293 1.356 . S
N296 C288 1.356 . S
N296 H302 0.984 . S
N296 H303 0.984 1_556 S
N297 C290 1.356 . S
N297 H300 0.984 . S
N297 H301 0.985 . S
H298 N293 0.984 . S
H299 N293 0.985 . S
H300 N297 0.984 . S
H301 N297 0.985 . S
H302 N296 0.984 . S
H303 N296 0.984 1_554 S
H304 N292 0.984 . S
H305 N292 0.985 . S
C306 C307 1.363 . S
C306 C312 1.379 . S
C306 N314 1.356 . S
C307 C306 1.363 . S
C307 C313 1.363 . S
C308 C309 1.363 . S
C308 C313 1.379 . S
C308 N315 1.356 . S
C309 C308 1.363 . S
C309 C312 1.363 . S
N310 C312 1.356 . S
N310 H322 0.984 . S
N310 H323 0.985 . S
N311 C313 1.356 . S
N311 H316 0.984 . S
N311 H317 0.985 . S
C312 C306 1.379 . S
C312 C309 1.363 . S
C312 N310 1.356 . S
C313 C307 1.363 . S
C313 C308 1.379 . S
C313 N311 1.356 . S
N314 C306 1.356 . S
N314 H320 0.984 . S
N314 H321 0.984 . S
N315 C308 1.356 . S
N315 H318 0.984 . S
N315 H319 0.985 . S
H316 N311 0.984 . S
H317 N311 0.985 . S
H318 N315 0.984 . S
H319 N315 0.985 . S
H320 N314 0.984 . S
H321 N314 0.984 . S
H322 N310 0.984 . S
H323 N310 0.985 . S
C324 C325 1.363 . S
C324 C330 1.379 . S
C324 N332 1.356 . S
C325 C324 1.363 . S
C325 C331 1.363 . S
C326 C327 1.363 . S
C326 C331 1.379 . S
C326 N333 1.356 . S
C327 C326 1.363 . S
C327 C330 1.363 . S
N328 C330 1.356 . S
N328 H340 0.984 . S
N328 H341 0.985 . S
N329 C331 1.356 . S
N329 H334 0.984 . S
N329 H335 0.985 . S
C330 C324 1.379 . S
C330 C327 1.363 . S
C330 N328 1.356 . S
C331 C325 1.363 . S
C331 C326 1.379 . S
C331 N329 1.356 . S
N332 C324 1.356 . S
N332 H338 0.984 . S
N332 H339 0.984 . S
N333 C326 1.356 . S
N333 H336 0.984 . S
N333 H337 0.985 . S
H334 N329 0.984 . S
H335 N329 0.985 . S
H336 N333 0.984 . S
H337 N333 0.985 . S
H338 N332 0.984 . S
H339 N332 0.984 . S
H340 N328 0.984 . S
H341 N328 0.985 . S
C342 C343 1.363 . S
C342 C348 1.379 . S
C342 N350 1.356 . S
C343 C342 1.363 . S
C343 C349 1.363 . S
C344 C345 1.363 . S
C344 C349 1.379 . S
C344 N351 1.356 . S
C345 C344 1.363 . S
C345 C348 1.363 . S
N346 C348 1.356 . S
N346 H358 0.984 . S
N346 H359 0.985 . S
N347 C349 1.356 . S
N347 H352 0.984 . S
N347 H353 0.985 . S
C348 C342 1.379 . S
C348 C345 1.363 . S
C348 N346 1.356 . S
C349 C343 1.363 . S
C349 C344 1.379 . S
C349 N347 1.356 . S
N350 C342 1.356 . S
N350 H356 0.984 . S
N350 H357 0.984 . S
N351 C344 1.356 . S
N351 H354 0.984 . S
N351 H355 0.985 . S
H352 N347 0.984 . S
H353 N347 0.985 . S
H354 N351 0.984 . S
H355 N351 0.985 . S
H356 N350 0.984 . S
H357 N350 0.984 . S
H358 N346 0.984 . S
H359 N346 0.985 . S
C360 C361 1.363 . S
C360 C366 1.379 . S
C360 N368 1.356 . S
C361 C360 1.363 . S
C361 C367 1.363 . S
C362 C363 1.363 . S
C362 C367 1.379 . S
C362 N369 1.356 . S
C363 C362 1.363 . S
C363 C366 1.363 . S
N364 C366 1.356 . S
N364 H376 0.984 . S
N364 H377 0.985 . S
N365 C367 1.356 . S
N365 H370 0.984 . S
N365 H371 0.985 . S
C366 C360 1.379 . S
C366 C363 1.363 . S
C366 N364 1.356 . S
C367 C361 1.363 . S
C367 C362 1.379 . S
C367 N365 1.356 . S
N368 C360 1.356 . S
N368 H374 0.984 . S
N368 H375 0.984 . S
N369 C362 1.356 . S
N369 H372 0.984 . S
N369 H373 0.985 . S
H370 N365 0.984 . S
H371 N365 0.985 . S
H372 N369 0.984 . S
H373 N369 0.985 . S
H374 N368 0.984 . S
H375 N368 0.984 . S
H376 N364 0.984 . S
H377 N364 0.985 . S
C378 C379 1.363 . S
C378 C384 1.379 . S
C378 N386 1.356 . S
C379 C378 1.363 . S
C379 C385 1.363 . S
C380 C381 1.363 . S
C380 C385 1.379 . S
C380 N387 1.356 . S
C381 C380 1.363 . S
C381 C384 1.363 . S
N382 C384 1.356 . S
N382 H394 0.984 . S
N382 H395 0.985 . S
N383 C385 1.356 . S
N383 H388 0.984 . S
N383 H389 0.985 . S
C384 C378 1.379 . S
C384 C381 1.363 . S
C384 N382 1.356 . S
C385 C379 1.363 . S
C385 C380 1.379 . S
C385 N383 1.356 . S
N386 C378 1.356 . S
N386 H392 0.984 . S
N386 H393 0.984 . S
N387 C380 1.356 . S
N387 H390 0.984 . S
N387 H391 0.985 . S
H388 N383 0.984 . S
H389 N383 0.985 . S
H390 N387 0.984 . S
H391 N387 0.985 . S
H392 N386 0.984 . S
H393 N386 0.984 . S
H394 N382 0.984 . S
H395 N382 0.985 . S
C396 C397 1.363 . S
C396 C402 1.379 . S
C396 N404 1.356 . S
C397 C396 1.363 . S
C397 C403 1.363 . S
C398 C399 1.363 . S
C398 C403 1.379 . S
C398 N405 1.356 . S
C399 C398 1.363 . S
C399 C402 1.363 . S
N400 C402 1.356 . S
N400 H412 0.984 . S
N400 H413 0.985 . S
N401 C403 1.356 . S
N401 H406 0.984 . S
N401 H407 0.985 . S
C402 C396 1.379 . S
C402 C399 1.363 . S
C402 N400 1.356 . S
C403 C397 1.363 . S
C403 C398 1.379 . S
C403 N401 1.356 . S
N404 C396 1.356 . S
N404 H410 0.984 . S
N404 H411 0.984 . S
N405 C398 1.356 . S
N405 H408 0.984 . S
N405 H409 0.985 . S
H406 N401 0.984 . S
H407 N401 0.985 . S
H408 N405 0.984 . S
H409 N405 0.985 . S
H410 N404 0.984 . S
H411 N404 0.984 . S
H412 N400 0.984 . S
H413 N400 0.985 . S
C414 C415 1.363 . S
C414 C420 1.379 . S
C414 N422 1.356 . S
C415 C414 1.363 . S
C415 C421 1.363 . S
C416 C417 1.363 . S
C416 C421 1.379 . S
C416 N423 1.356 . S
C417 C416 1.363 . S
C417 C420 1.363 . S
N418 C420 1.356 . S
N418 H430 0.984 . S
N418 H431 0.985 . S
N419 C421 1.356 . S
N419 H424 0.984 . S
N419 H425 0.985 . S
C420 C414 1.379 . S
C420 C417 1.363 . S
C420 N418 1.356 . S
C421 C415 1.363 . S
C421 C416 1.379 . S
C421 N419 1.356 . S
N422 C414 1.356 . S
N422 H428 0.984 . S
N422 H429 0.984 . S
N423 C416 1.356 . S
N423 H426 0.984 . S
N423 H427 0.985 . S
H424 N419 0.984 . S
H425 N419 0.985 . S
H426 N423 0.984 . S
H427 N423 0.985 . S
H428 N422 0.984 . S
H429 N422 0.984 . S
H430 N418 0.984 . S
H431 N418 0.985 . S
C432 C433 1.363 . S
C432 C438 1.379 . S
C432 N440 1.356 . S
C433 C432 1.363 . S
C433 C439 1.363 . S
C434 C435 1.363 . S
C434 C439 1.379 . S
C434 N441 1.356 . S
C435 C434 1.363 . S
C435 C438 1.363 . S
N436 C438 1.356 . S
N436 H448 0.984 . S
N436 H449 0.985 . S
N437 C439 1.356 . S
N437 H442 0.984 . S
N437 H443 0.985 . S
C438 C432 1.379 . S
C438 C435 1.363 . S
C438 N436 1.356 . S
C439 C433 1.363 . S
C439 C434 1.379 . S
C439 N437 1.356 . S
N440 C432 1.356 . S
N440 H446 0.984 . S
N440 H447 0.984 . S
N441 C434 1.356 . S
N441 H444 0.984 . S
N441 H445 0.985 . S
H442 N437 0.984 . S
H443 N437 0.985 . S
H444 N441 0.984 . S
H445 N441 0.985 . S
H446 N440 0.984 . S
H447 N440 0.984 . S
H448 N436 0.984 . S
H449 N436 0.985 . S
C450 C451 1.363 . S
C450 C456 1.379 . S
C450 N458 1.356 . S
C451 C450 1.363 . S
C451 C457 1.363 . S
C452 C453 1.363 . S
C452 C457 1.379 . S
C452 N459 1.356 . S
C453 C452 1.363 . S
C453 C456 1.363 . S
N454 C456 1.356 . S
N454 H466 0.984 . S
N454 H467 0.985 . S
N455 C457 1.356 . S
N455 H460 0.984 . S
N455 H461 0.985 . S
C456 C450 1.379 . S
C456 C453 1.363 . S
C456 N454 1.356 . S
C457 C451 1.363 . S
C457 C452 1.379 . S
C457 N455 1.356 . S
N458 C450 1.356 . S
N458 H464 0.984 . S
N458 H465 0.984 . S
N459 C452 1.356 . S
N459 H462 0.984 . S
N459 H463 0.985 . S
H460 N455 0.984 . S
H461 N455 0.985 . S
H462 N459 0.984 . S
H463 N459 0.985 . S
H464 N458 0.984 . S
H465 N458 0.984 . S
H466 N454 0.984 . S
H467 N454 0.985 . S
C468 C469 1.363 . S
C468 C474 1.379 . S
C468 N476 1.356 . S
C469 C468 1.363 . S
C469 C475 1.363 . S
C470 C471 1.363 . S
C470 C475 1.379 . S
C470 N477 1.356 . S
C471 C470 1.363 . S
C471 C474 1.363 . S
N472 C474 1.356 . S
N472 H484 0.984 . S
N472 H485 0.985 . S
N473 C475 1.356 . S
N473 H478 0.984 . S
N473 H479 0.985 . S
C474 C468 1.379 . S
C474 C471 1.363 . S
C474 N472 1.356 . S
C475 C469 1.363 . S
C475 C470 1.379 . S
C475 N473 1.356 . S
N476 C468 1.356 . S
N476 H482 0.984 . S
N476 H483 0.984 . S
N477 C470 1.356 . S
N477 H480 0.984 . S
N477 H481 0.985 . S
H478 N473 0.984 . S
H479 N473 0.985 . S
H480 N477 0.984 . S
H481 N477 0.985 . S
H482 N476 0.984 . S
H483 N476 0.984 . S
H484 N472 0.984 . S
H485 N472 0.985 . S
C486 C487 1.363 . S
C486 C492 1.379 . S
C486 N494 1.356 . S
C487 C486 1.363 . S
C487 C493 1.363 . S
C488 C489 1.363 . S
C488 C493 1.379 . S
C488 N495 1.356 . S
C489 C488 1.363 . S
C489 C492 1.363 . S
N490 C492 1.356 . S
N490 H502 0.984 . S
N490 H503 0.985 . S
N491 C493 1.356 . S
N491 H496 0.984 . S
N491 H497 0.985 . S
C492 C486 1.379 . S
C492 C489 1.363 . S
C492 N490 1.356 . S
C493 C487 1.363 . S
C493 C488 1.379 . S
C493 N491 1.356 . S
N494 C486 1.356 . S
N494 H500 0.984 . S
N494 H501 0.984 . S
N495 C488 1.356 . S
N495 H498 0.984 . S
N495 H499 0.985 . S
H496 N491 0.984 . S
H497 N491 0.985 . S
H498 N495 0.984 . S
H499 N495 0.985 . S
H500 N494 0.984 . S
H501 N494 0.984 . S
H502 N490 0.984 . S
H503 N490 0.985 . S
C504 C505 1.363 . S
C504 C510 1.379 . S
C504 N512 1.356 . S
C505 C504 1.363 . S
C505 C511 1.363 . S
C506 C507 1.363 . S
C506 C511 1.379 . S
C506 N513 1.356 . S
C507 C506 1.363 . S
C507 C510 1.363 . S
N508 C510 1.356 . S
N508 H520 0.984 . S
N508 H521 0.985 . S
N509 C511 1.356 . S
N509 H514 0.984 . S
N509 H515 0.985 . S
C510 C504 1.379 . S
C510 C507 1.363 . S
C510 N508 1.356 . S
C511 C505 1.363 . S
C511 C506 1.379 . S
C511 N509 1.356 . S
N512 C504 1.356 . S
N512 H518 0.984 . S
N512 H519 0.984 . S
N513 C506 1.356 . S
N513 H516 0.984 . S
N513 H517 0.985 . S
H514 N509 0.984 . S
H515 N509 0.985 . S
H516 N513 0.984 . S
H517 N513 0.985 . S
H518 N512 0.984 . S
H519 N512 0.984 . S
H520 N508 0.984 . S
H521 N508 0.985 . S
C522 C523 1.363 . S
C522 C528 1.379 . S
C522 N530 1.356 . S
C523 C522 1.363 . S
C523 C529 1.363 . S
C524 C525 1.363 . S
C524 C529 1.379 . S
C524 N531 1.356 . S
C525 C524 1.363 . S
C525 C528 1.363 . S
N526 C528 1.356 . S
N526 H538 0.984 . S
N526 H539 0.985 . S
N527 C529 1.356 . S
N527 H532 0.984 . S
N527 H533 0.985 . S
C528 C522 1.379 . S
C528 C525 1.363 . S
C528 N526 1.356 . S
C529 C523 1.363 . S
C529 C524 1.379 . S
C529 N527 1.356 . S
N530 C522 1.356 . S
N530 H536 0.984 . S
N530 H537 0.984 . S
N531 C524 1.356 . S
N531 H534 0.984 . S
N531 H535 0.985 . S
H532 N527 0.984 . S
H533 N527 0.985 . S
H534 N531 0.984 . S
H535 N531 0.985 . S
H536 N530 0.984 . S
H537 N530 0.984 . S
H538 N526 0.984 . S
H539 N526 0.985 . S
C540 C541 1.363 . S
C540 C546 1.379 . S
C540 N548 1.356 . S
C541 C540 1.363 . S
C541 C547 1.363 . S
C542 C543 1.363 . S
C542 C547 1.379 . S
C542 N549 1.356 . S
C543 C542 1.363 . S
C543 C546 1.363 . S
N544 C546 1.356 . S
N544 H556 0.984 . S
N544 H557 0.985 . S
N545 C547 1.356 . S
N545 H550 0.984 . S
N545 H551 0.985 . S
C546 C540 1.379 . S
C546 C543 1.363 . S
C546 N544 1.356 . S
C547 C541 1.363 . S
C547 C542 1.379 . S
C547 N545 1.356 . S
N548 C540 1.356 . S
N548 H554 0.984 . S
N548 H555 0.984 . S
N549 C542 1.356 . S
N549 H552 0.984 . S
N549 H553 0.985 . S
H550 N545 0.984 . S
H551 N545 0.985 . S
H552 N549 0.984 . S
H553 N549 0.985 . S
H554 N548 0.984 . S
H555 N548 0.984 . S
H556 N544 0.984 . S
H557 N544 0.985 . S
C558 C559 1.363 . S
C558 C564 1.379 . S
C558 N566 1.356 . S
C559 C558 1.363 . S
C559 C565 1.363 . S
C560 C561 1.363 . S
C560 C565 1.379 . S
C560 N567 1.356 . S
C561 C560 1.363 . S
C561 C564 1.363 . S
N562 C564 1.356 . S
N562 H574 0.984 . S
N562 H575 0.985 . S
N563 C565 1.356 . S
N563 H568 0.984 . S
N563 H569 0.985 . S
C564 C558 1.379 . S
C564 C561 1.363 . S
C564 N562 1.356 . S
C565 C559 1.363 . S
C565 C560 1.379 . S
C565 N563 1.356 . S
N566 C558 1.356 . S
N566 H572 0.984 . S
N566 H573 0.984 . S
N567 C560 1.356 . S
N567 H570 0.984 . S
N567 H571 0.985 . S
H568 N563 0.984 . S
H569 N563 0.985 . S
H570 N567 0.984 . S
H571 N567 0.985 . S
H572 N566 0.984 . S
H573 N566 0.984 . S
H574 N562 0.984 . S
H575 N562 0.985 . S
C576 C577 1.363 . S
C576 C582 1.379 . S
C576 N584 1.356 . S
C577 C576 1.363 . S
C577 C583 1.363 . S
C578 C579 1.363 . S
C578 C583 1.379 . S
C578 N585 1.356 . S
C579 C578 1.363 . S
C579 C582 1.363 . S
N580 C582 1.356 . S
N580 H592 0.984 . S
N580 H593 0.985 . S
N581 C583 1.356 . S
N581 H586 0.984 . S
N581 H587 0.985 . S
C582 C576 1.379 . S
C582 C579 1.363 . S
C582 N580 1.356 . S
C583 C577 1.363 . S
C583 C578 1.379 . S
C583 N581 1.356 . S
N584 C576 1.356 . S
N584 H590 0.984 . S
N584 H591 0.984 . S
N585 C578 1.356 . S
N585 H588 0.984 . S
N585 H589 0.985 . S
H586 N581 0.984 . S
H587 N581 0.985 . S
H588 N585 0.984 . S
H589 N585 0.985 . S
H590 N584 0.984 . S
H591 N584 0.984 . S
H592 N580 0.984 . S
H593 N580 0.985 . S
C594 C595 1.363 . S
C594 C600 1.379 . S
C594 N602 1.356 . S
C595 C594 1.363 . S
C595 C601 1.363 . S
C596 C597 1.363 . S
C596 C601 1.379 . S
C596 N603 1.356 . S
C597 C596 1.363 . S
C597 C600 1.363 . S
N598 C600 1.356 . S
N598 H610 0.984 . S
N598 H611 0.985 . S
N599 C601 1.356 . S
N599 H604 0.984 . S
N599 H605 0.985 . S
C600 C594 1.379 . S
C600 C597 1.363 . S
C600 N598 1.356 . S
C601 C595 1.363 . S
C601 C596 1.379 . S
C601 N599 1.356 . S
N602 C594 1.356 . S
N602 H608 0.984 . S
N602 H609 0.984 . S
N603 C596 1.356 . S
N603 H606 0.984 . S
N603 H607 0.985 . S
H604 N599 0.984 . S
H605 N599 0.985 . S
H606 N603 0.984 . S
H607 N603 0.985 . S
H608 N602 0.984 . S
H609 N602 0.984 . S
H610 N598 0.984 . S
H611 N598 0.985 . S
C612 C613 1.363 . S
C612 C618 1.379 . S
C612 N620 1.356 . S
C613 C612 1.363 . S
C613 C619 1.363 . S
C614 C615 1.363 . S
C614 C619 1.379 . S
C614 N621 1.356 . S
C615 C614 1.363 . S
C615 C618 1.363 . S
N616 C618 1.356 . S
N616 H628 0.984 . S
N616 H629 0.985 . S
N617 C619 1.356 . S
N617 H622 0.984 . S
N617 H623 0.985 . S
C618 C612 1.379 . S
C618 C615 1.363 . S
C618 N616 1.356 . S
C619 C613 1.363 . S
C619 C614 1.379 . S
C619 N617 1.356 . S
N620 C612 1.356 . S
N620 H626 0.984 . S
N620 H627 0.984 . S
N621 C614 1.356 . S
N621 H624 0.984 . S
N621 H625 0.985 . S
H622 N617 0.984 . S
H623 N617 0.985 . S
H624 N621 0.984 . S
H625 N621 0.985 . S
H626 N620 0.984 . S
H627 N620 0.984 . S
H628 N616 0.984 . S
H629 N616 0.985 . S
C630 C631 1.363 . S
C630 C636 1.379 . S
C630 N638 1.356 . S
C631 C630 1.363 . S
C631 C637 1.363 . S
C632 C633 1.363 . S
C632 C637 1.379 1_655 S
C632 N639 1.356 . S
C633 C632 1.363 . S
C633 C636 1.363 1_655 S
N634 C636 1.356 1_655 S
N634 H646 0.984 1_655 S
N634 H647 0.985 . S
N635 C637 1.356 . S
N635 H640 0.984 . S
N635 H641 0.985 . S
C636 C630 1.379 . S
C636 C633 1.363 1_455 S
C636 N634 1.356 1_455 S
C637 C631 1.363 . S
C637 C632 1.379 1_455 S
C637 N635 1.356 . S
N638 C630 1.356 . S
N638 H644 0.984 . S
N638 H645 0.984 . S
N639 C632 1.356 . S
N639 H642 0.984 . S
N639 H643 0.985 . S
H640 N635 0.984 . S
H641 N635 0.985 . S
H642 N639 0.984 . S
H643 N639 0.985 . S
H644 N638 0.984 . S
H645 N638 0.984 . S
H646 N634 0.984 1_455 S
H647 N634 0.985 . S
C648 C649 1.363 . S
C648 C654 1.379 . S
C648 N656 1.356 . S
C649 C648 1.363 . S
C649 C655 1.363 . S
C650 C651 1.363 . S
C650 C655 1.379 . S
C650 N657 1.356 . S
C651 C650 1.363 . S
C651 C654 1.363 . S
N652 C654 1.356 . S
N652 H664 0.984 . S
N652 H665 0.985 . S
N653 C655 1.356 . S
N653 H658 0.984 . S
N653 H659 0.985 . S
C654 C648 1.379 . S
C654 C651 1.363 . S
C654 N652 1.356 . S
C655 C649 1.363 . S
C655 C650 1.379 . S
C655 N653 1.356 . S
N656 C648 1.356 . S
N656 H662 0.984 . S
N656 H663 0.984 . S
N657 C650 1.356 . S
N657 H660 0.984 . S
N657 H661 0.985 . S
H658 N653 0.984 . S
H659 N653 0.985 . S
H660 N657 0.984 . S
H661 N657 0.985 . S
H662 N656 0.984 . S
H663 N656 0.984 . S
H664 N652 0.984 . S
H665 N652 0.985 . S
C666 C667 1.363 . S
C666 C672 1.379 . S
C666 N674 1.356 . S
C667 C666 1.363 . S
C667 C673 1.363 1_545 S
C668 C669 1.363 . S
C668 C673 1.379 . S
C668 N675 1.356 . S
C669 C668 1.363 . S
C669 C672 1.363 1_565 S
N670 C672 1.356 . S
N670 H682 0.984 . S
N670 H683 0.985 . S
N671 C673 1.356 . S
N671 H676 1.014 . S
N671 H677 0.985 . S
C672 C666 1.379 . S
C672 C669 1.363 1_545 S
C672 N670 1.356 . S
C673 C667 1.363 1_565 S
C673 C668 1.379 . S
C673 N671 1.356 . S
N674 C666 1.356 . S
N674 H680 0.984 . S
N674 H681 0.984 . S
N675 C668 1.356 . S
N675 H678 0.984 . S
N675 H679 0.985 . S
H676 N671 1.014 . S
H677 N671 0.985 . S
H678 N675 0.984 . S
H679 N675 0.985 . S
H680 N674 0.984 . S
H681 N674 0.984 . S
H682 N670 0.984 . S
H683 N670 0.985 . S
C199 C7 1.564 . S
C201 C62 1.564 . S
C217 C16 1.380 . S
C219 C38 1.330 . S
C235 C27 1.330 1_556 S
C237 C49 1.380 . S
C253 C18 1.486 . S
C255 C51 1.486 . S
C271 C60 1.267 . S
C273 C29 1.472 . S
C289 C5 1.267 . S
C291 C40 1.472 . S
C307 C128 1.564 . S
C309 C73 1.564 . S
C325 C82 1.380 . S
C327 C104 1.330 . S
C343 C93 1.329 . S
C345 C115 1.380 . S
C361 C84 1.487 . S
C363 C117 1.487 . S
C379 C95 1.472 . S
C381 C126 1.267 . S
C397 C71 1.267 . S
C399 C106 1.473 . S
C415 C139 1.564 . S
C417 C194 1.564 . S
C433 C170 1.329 . S
C435 C148 1.380 . S
C451 C181 1.380 . S
C453 C159 1.330 . S
C469 C183 1.487 . S
C471 C150 1.487 . S
C487 C192 1.267 . S
C489 C161 1.472 . S
C505 C172 1.472 . S
C507 C137 1.267 . S
C523 C8 1.525 . S
C525 C118 1.556 . S
C541 C129 1.525 . S
C543 C19 1.556 . S
C559 C107 1.520 . S
C561 C30 1.520 . S
C577 C41 1.520 . S
C579 C162 1.520 . S
C595 C52 1.556 . S
C597 C140 1.525 . S
C613 C151 1.556 . S
C615 C63 1.525 . S
C631 C184 1.557 . S
C633 C74 1.525 . S
C649 C85 1.556 . S
C651 C195 1.525 . S
C667 C96 1.520 . S
C669 C173 1.520 . S
