# Generated by pormake.
# Topology wio, (6)-cn, num edge types: 1
# Building blocks:
#     Node 0, Type 0, BuildingBlock: BETFAJ_clean_sbu_0, # of connection points: 6
#     Node 1, Type 0, BuildingBlock: BETFAJ_clean_sbu_0, # of connection points: 6
#     Node 2, Type 0, BuildingBlock: BETFAJ_clean_sbu_0, # of connection points: 6
#     Node 3, Type 0, BuildingBlock: BETFAJ_clean_sbu_0, # of connection points: 6
#     Node 4, Type 0, BuildingBlock: BETFAJ_clean_sbu_0, # of connection points: 6
#     Node 5, Type 0, BuildingBlock: BETFAJ_clean_sbu_0, # of connection points: 6
#     Node 6, Type 0, BuildingBlock: BETFAJ_clean_sbu_0, # of connection points: 6
#     Node 7, Type 0, BuildingBlock: BETFAJ_clean_sbu_0, # of connection points: 6
#     Node 8, Type 0, BuildingBlock: BETFAJ_clean_sbu_0, # of connection points: 6
#     Node 9, Type 0, BuildingBlock: BETFAJ_clean_sbu_0, # of connection points: 6
#     Node 10, Type 0, BuildingBlock: BETFAJ_clean_sbu_0, # of connection points: 6
#     Node 11, Type 0, BuildingBlock: BETFAJ_clean_sbu_0, # of connection points: 6
#     Node 12, Type 0, BuildingBlock: BETFAJ_clean_sbu_0, # of connection points: 6
#     Node 13, Type 0, BuildingBlock: BETFAJ_clean_sbu_0, # of connection points: 6
#     Node 14, Type 0, BuildingBlock: BETFAJ_clean_sbu_0, # of connection points: 6
#     Node 15, Type 0, BuildingBlock: BETFAJ_clean_sbu_0, # of connection points: 6
#     Node 16, Type 0, BuildingBlock: BETFAJ_clean_sbu_0, # of connection points: 6
#     Node 17, Type 0, BuildingBlock: BETFAJ_clean_sbu_0, # of connection points: 6
#     Node 18, Type 0, BuildingBlock: BETFAJ_clean_sbu_0, # of connection points: 6
#     Node 19, Type 0, BuildingBlock: BETFAJ_clean_sbu_0, # of connection points: 6
#     Node 20, Type 0, BuildingBlock: BETFAJ_clean_sbu_0, # of connection points: 6
#     Node 21, Type 0, BuildingBlock: BETFAJ_clean_sbu_0, # of connection points: 6
#     Node 22, Type 0, BuildingBlock: BETFAJ_clean_sbu_0, # of connection points: 6
#     Node 23, Type 0, BuildingBlock: BETFAJ_clean_sbu_0, # of connection points: 6
#     Node 24, Type 0, BuildingBlock: BETFAJ_clean_sbu_0, # of connection points: 6
#     Node 25, Type 0, BuildingBlock: BETFAJ_clean_sbu_0, # of connection points: 6
#     Node 26, Type 0, BuildingBlock: BETFAJ_clean_sbu_0, # of connection points: 6
#     Node 27, Type 0, BuildingBlock: BETFAJ_clean_sbu_0, # of connection points: 6
#     Node 28, Type 0, BuildingBlock: BETFAJ_clean_sbu_0, # of connection points: 6
#     Node 29, Type 0, BuildingBlock: BETFAJ_clean_sbu_0, # of connection points: 6
#     Node 30, Type 0, BuildingBlock: BETFAJ_clean_sbu_0, # of connection points: 6
#     Node 31, Type 0, BuildingBlock: BETFAJ_clean_sbu_0, # of connection points: 6
#     Edge 32, Type (0, 0), BuildingBlock: XIVTED_clean_linker_0, # of connection points: 2
#     Edge 33, Type (0, 0), BuildingBlock: XIVTED_clean_linker_0, # of connection points: 2
#     Edge 34, Type (0, 0), BuildingBlock: XIVTED_clean_linker_0, # of connection points: 2
#     Edge 35, Type (0, 0), BuildingBlock: XIVTED_clean_linker_0, # of connection points: 2
#     Edge 36, Type (0, 0), BuildingBlock: XIVTED_clean_linker_0, # of connection points: 2
#     Edge 37, Type (0, 0), BuildingBlock: XIVTED_clean_linker_0, # of connection points: 2
#     Edge 38, Type (0, 0), BuildingBlock: XIVTED_clean_linker_0, # of connection points: 2
#     Edge 39, Type (0, 0), BuildingBlock: XIVTED_clean_linker_0, # of connection points: 2
#     Edge 40, Type (0, 0), BuildingBlock: XIVTED_clean_linker_0, # of connection points: 2
#     Edge 41, Type (0, 0), BuildingBlock: XIVTED_clean_linker_0, # of connection points: 2
#     Edge 42, Type (0, 0), BuildingBlock: XIVTED_clean_linker_0, # of connection points: 2
#     Edge 43, Type (0, 0), BuildingBlock: XIVTED_clean_linker_0, # of connection points: 2
#     Edge 44, Type (0, 0), BuildingBlock: XIVTED_clean_linker_0, # of connection points: 2
#     Edge 45, Type (0, 0), BuildingBlock: XIVTED_clean_linker_0, # of connection points: 2
#     Edge 46, Type (0, 0), BuildingBlock: XIVTED_clean_linker_0, # of connection points: 2
#     Edge 47, Type (0, 0), BuildingBlock: XIVTED_clean_linker_0, # of connection points: 2
#     Edge 48, Type (0, 0), BuildingBlock: XIVTED_clean_linker_0, # of connection points: 2
#     Edge 49, Type (0, 0), BuildingBlock: XIVTED_clean_linker_0, # of connection points: 2
#     Edge 50, Type (0, 0), BuildingBlock: XIVTED_clean_linker_0, # of connection points: 2
#     Edge 51, Type (0, 0), BuildingBlock: XIVTED_clean_linker_0, # of connection points: 2
#     Edge 52, Type (0, 0), BuildingBlock: XIVTED_clean_linker_0, # of connection points: 2
#     Edge 53, Type (0, 0), BuildingBlock: XIVTED_clean_linker_0, # of connection points: 2
#     Edge 54, Type (0, 0), BuildingBlock: XIVTED_clean_linker_0, # of connection points: 2
#     Edge 55, Type (0, 0), BuildingBlock: XIVTED_clean_linker_0, # of connection points: 2
#     Edge 56, Type (0, 0), BuildingBlock: XIVTED_clean_linker_0, # of connection points: 2
#     Edge 57, Type (0, 0), BuildingBlock: XIVTED_clean_linker_0, # of connection points: 2
#     Edge 58, Type (0, 0), BuildingBlock: XIVTED_clean_linker_0, # of connection points: 2
#     Edge 59, Type (0, 0), BuildingBlock: XIVTED_clean_linker_0, # of connection points: 2
#     Edge 60, Type (0, 0), BuildingBlock: XIVTED_clean_linker_0, # of connection points: 2
#     Edge 61, Type (0, 0), BuildingBlock: XIVTED_clean_linker_0, # of connection points: 2
#     Edge 62, Type (0, 0), BuildingBlock: XIVTED_clean_linker_0, # of connection points: 2
#     Edge 63, Type (0, 0), BuildingBlock: XIVTED_clean_linker_0, # of connection points: 2
#     Edge 64, Type (0, 0), BuildingBlock: XIVTED_clean_linker_0, # of connection points: 2
#     Edge 65, Type (0, 0), BuildingBlock: XIVTED_clean_linker_0, # of connection points: 2
#     Edge 66, Type (0, 0), BuildingBlock: XIVTED_clean_linker_0, # of connection points: 2
#     Edge 67, Type (0, 0), BuildingBlock: XIVTED_clean_linker_0, # of connection points: 2
#     Edge 68, Type (0, 0), BuildingBlock: XIVTED_clean_linker_0, # of connection points: 2
#     Edge 69, Type (0, 0), BuildingBlock: XIVTED_clean_linker_0, # of connection points: 2
#     Edge 70, Type (0, 0), BuildingBlock: XIVTED_clean_linker_0, # of connection points: 2
#     Edge 71, Type (0, 0), BuildingBlock: XIVTED_clean_linker_0, # of connection points: 2
#     Edge 72, Type (0, 0), BuildingBlock: XIVTED_clean_linker_0, # of connection points: 2
#     Edge 73, Type (0, 0), BuildingBlock: XIVTED_clean_linker_0, # of connection points: 2
#     Edge 74, Type (0, 0), BuildingBlock: XIVTED_clean_linker_0, # of connection points: 2
#     Edge 75, Type (0, 0), BuildingBlock: XIVTED_clean_linker_0, # of connection points: 2
#     Edge 76, Type (0, 0), BuildingBlock: XIVTED_clean_linker_0, # of connection points: 2
#     Edge 77, Type (0, 0), BuildingBlock: XIVTED_clean_linker_0, # of connection points: 2
#     Edge 78, Type (0, 0), BuildingBlock: XIVTED_clean_linker_0, # of connection points: 2
#     Edge 79, Type (0, 0), BuildingBlock: XIVTED_clean_linker_0, # of connection points: 2
#     Edge 80, Type (0, 0), BuildingBlock: XIVTED_clean_linker_0, # of connection points: 2
#     Edge 81, Type (0, 0), BuildingBlock: XIVTED_clean_linker_0, # of connection points: 2
#     Edge 82, Type (0, 0), BuildingBlock: XIVTED_clean_linker_0, # of connection points: 2
#     Edge 83, Type (0, 0), BuildingBlock: XIVTED_clean_linker_0, # of connection points: 2
#     Edge 84, Type (0, 0), BuildingBlock: XIVTED_clean_linker_0, # of connection points: 2
#     Edge 85, Type (0, 0), BuildingBlock: XIVTED_clean_linker_0, # of connection points: 2
#     Edge 86, Type (0, 0), BuildingBlock: XIVTED_clean_linker_0, # of connection points: 2
#     Edge 87, Type (0, 0), BuildingBlock: XIVTED_clean_linker_0, # of connection points: 2
#     Edge 88, Type (0, 0), BuildingBlock: XIVTED_clean_linker_0, # of connection points: 2
#     Edge 89, Type (0, 0), BuildingBlock: XIVTED_clean_linker_0, # of connection points: 2
#     Edge 90, Type (0, 0), BuildingBlock: XIVTED_clean_linker_0, # of connection points: 2
#     Edge 91, Type (0, 0), BuildingBlock: XIVTED_clean_linker_0, # of connection points: 2
#     Edge 92, Type (0, 0), BuildingBlock: XIVTED_clean_linker_0, # of connection points: 2
#     Edge 93, Type (0, 0), BuildingBlock: XIVTED_clean_linker_0, # of connection points: 2
#     Edge 94, Type (0, 0), BuildingBlock: XIVTED_clean_linker_0, # of connection points: 2
#     Edge 95, Type (0, 0), BuildingBlock: XIVTED_clean_linker_0, # of connection points: 2
#     Edge 96, Type (0, 0), BuildingBlock: XIVTED_clean_linker_0, # of connection points: 2
#     Edge 97, Type (0, 0), BuildingBlock: XIVTED_clean_linker_0, # of connection points: 2
#     Edge 98, Type (0, 0), BuildingBlock: XIVTED_clean_linker_0, # of connection points: 2
#     Edge 99, Type (0, 0), BuildingBlock: XIVTED_clean_linker_0, # of connection points: 2
#     Edge 100, Type (0, 0), BuildingBlock: XIVTED_clean_linker_0, # of connection points: 2
#     Edge 101, Type (0, 0), BuildingBlock: XIVTED_clean_linker_0, # of connection points: 2
#     Edge 102, Type (0, 0), BuildingBlock: XIVTED_clean_linker_0, # of connection points: 2
#     Edge 103, Type (0, 0), BuildingBlock: XIVTED_clean_linker_0, # of connection points: 2
#     Edge 104, Type (0, 0), BuildingBlock: XIVTED_clean_linker_0, # of connection points: 2
#     Edge 105, Type (0, 0), BuildingBlock: XIVTED_clean_linker_0, # of connection points: 2
#     Edge 106, Type (0, 0), BuildingBlock: XIVTED_clean_linker_0, # of connection points: 2
#     Edge 107, Type (0, 0), BuildingBlock: XIVTED_clean_linker_0, # of connection points: 2
#     Edge 108, Type (0, 0), BuildingBlock: XIVTED_clean_linker_0, # of connection points: 2
#     Edge 109, Type (0, 0), BuildingBlock: XIVTED_clean_linker_0, # of connection points: 2
#     Edge 110, Type (0, 0), BuildingBlock: XIVTED_clean_linker_0, # of connection points: 2
#     Edge 111, Type (0, 0), BuildingBlock: XIVTED_clean_linker_0, # of connection points: 2
#     Edge 112, Type (0, 0), BuildingBlock: XIVTED_clean_linker_0, # of connection points: 2
#     Edge 113, Type (0, 0), BuildingBlock: XIVTED_clean_linker_0, # of connection points: 2
#     Edge 114, Type (0, 0), BuildingBlock: XIVTED_clean_linker_0, # of connection points: 2
#     Edge 115, Type (0, 0), BuildingBlock: XIVTED_clean_linker_0, # of connection points: 2
#     Edge 116, Type (0, 0), BuildingBlock: XIVTED_clean_linker_0, # of connection points: 2
#     Edge 117, Type (0, 0), BuildingBlock: XIVTED_clean_linker_0, # of connection points: 2
#     Edge 118, Type (0, 0), BuildingBlock: XIVTED_clean_linker_0, # of connection points: 2
#     Edge 119, Type (0, 0), BuildingBlock: XIVTED_clean_linker_0, # of connection points: 2
#     Edge 120, Type (0, 0), BuildingBlock: XIVTED_clean_linker_0, # of connection points: 2
#     Edge 121, Type (0, 0), BuildingBlock: XIVTED_clean_linker_0, # of connection points: 2
#     Edge 122, Type (0, 0), BuildingBlock: XIVTED_clean_linker_0, # of connection points: 2
#     Edge 123, Type (0, 0), BuildingBlock: XIVTED_clean_linker_0, # of connection points: 2
#     Edge 124, Type (0, 0), BuildingBlock: XIVTED_clean_linker_0, # of connection points: 2
#     Edge 125, Type (0, 0), BuildingBlock: XIVTED_clean_linker_0, # of connection points: 2
#     Edge 126, Type (0, 0), BuildingBlock: XIVTED_clean_linker_0, # of connection points: 2
#     Edge 127, Type (0, 0), BuildingBlock: XIVTED_clean_linker_0, # of connection points: 2
# Relax obj value: 0.201
# Max RMSD: 0.236
# Mean RMSD: 0.236
data_MOF--net-wio--node1-BETFAJ_clean_sbu_0--edge1-XIVTED_clean_linker_0
_symmetry_space_group_name_H-M    P1
_symmetry_Int_Tables_number       1
_symmetry_cell_setting            triclinic
loop_
_symmetry_equiv_pos_as_xyz
'x, y, z'
_cell_length_a     62.148136
_cell_length_b     62.282828
_cell_length_c     55.314073
_cell_angle_alpha  89.960495
_cell_angle_beta   89.976967
_cell_angle_gamma 89.996109
loop_
_atom_site_label
_atom_site_type_symbol
_atom_site_fract_x
_atom_site_fract_y
_atom_site_fract_z
_atom_type_partial_charge
Sm0 Sm 0.15086 0.11713 0.2798 0.0
Sm1 Sm 0.10407 0.12607 0.2919 0.0
C2 C 0.18852 0.10507 0.26181 0.0
C3 C 0.20489 0.11086 0.24346 0.0
C4 C 0.20234 0.105 0.2191 0.0
C5 C 0.2189 0.10855 0.20246 0.0
C6 C 0.23839 0.118 0.2098 0.0
C7 C 0.24068 0.12448 0.23398 0.0
C8 C 0.22416 0.12083 0.25066 0.0
C9 C 0.14464 0.15458 0.30503 0.0
C10 C 0.11968 0.13795 0.23724 0.0
C11 C 0.06837 0.14016 0.31323 0.0
C12 C 0.05402 0.13593 0.33425 0.0
C13 C 0.05778 0.14571 0.35681 0.0
C14 C 0.04342 0.14273 0.3761 0.0
C15 C 0.02493 0.12995 0.3733 0.0
C16 C 0.02121 0.12022 0.35071 0.0
C17 C 0.03551 0.12322 0.33146 0.0
C18 C 0.11063 0.08616 0.27126 0.0
C19 C 0.13417 0.09911 0.33131 0.0
O20 O 0.17008 0.09736 0.25431 0.0
O21 O 0.18655 0.11777 0.28049 0.0
O22 O 0.13263 0.14819 0.28792 0.0
O23 O 0.16096 0.1419 0.30786 0.0
O24 O 0.13827 0.12912 0.24304 0.0
O25 O 0.10405 0.14046 0.25327 0.0
O26 O 0.0875 0.14803 0.31756 0.0
O27 O 0.0684 0.12622 0.29554 0.0
O28 O 0.12269 0.09527 0.28637 0.0
O29 O 0.09349 0.0977 0.2677 0.0
O30 O 0.11675 0.11105 0.32796 0.0
O31 O 0.14841 0.09648 0.31386 0.0
H32 H 0.18776 0.09721 0.21294 0.0
H33 H 0.21656 0.10361 0.18387 0.0
H34 H 0.25558 0.13158 0.24024 0.0
H35 H 0.22672 0.12529 0.26936 0.0
H36 H 0.07173 0.15585 0.35954 0.0
H37 H 0.04689 0.15035 0.39325 0.0
H38 H 0.00694 0.11061 0.34769 0.0
H39 H 0.03185 0.1158 0.31424 0.0
Sm40 Sm 0.14487 0.90323 0.53242 0.0
Sm41 Sm 0.13328 0.85622 0.54191 0.0
C42 C 0.16 0.94049 0.51653 0.0
C43 C 0.15658 0.95704 0.498 0.0
C44 C 0.17188 0.97336 0.49546 0.0
C45 C 0.16905 0.98953 0.47827 0.0
C46 C 0.15081 0.98967 0.4632 0.0
C47 C 0.13538 0.97327 0.4659 0.0
C48 C 0.13827 0.95703 0.48315 0.0
C49 C 0.10635 0.89762 0.55588 0.0
C50 C 0.12333 0.87465 0.48792 0.0
C51 C 0.11725 0.82072 0.56167 0.0
C52 C 0.12125 0.80565 0.58207 0.0
C53 C 0.11156 0.80894 0.60479 0.0
C54 C 0.11462 0.79422 0.62368 0.0
C55 C 0.1274 0.77582 0.6203 0.0
C56 C 0.13694 0.7725 0.59751 0.0
C57 C 0.13386 0.78717 0.57865 0.0
C58 C 0.17402 0.86195 0.523 0.0
C59 C 0.16037 0.8839 0.58373 0.0
O60 O 0.16732 0.9219 0.5092 0.0
O61 O 0.14526 0.93882 0.5333 0.0
O62 O 0.11291 0.88604 0.5385 0.0
O63 O 0.11944 0.91341 0.55988 0.0
O64 O 0.1337 0.89206 0.49492 0.0
O65 O 0.11906 0.85877 0.50316 0.0
O66 O 0.11053 0.84006 0.56703 0.0
O67 O 0.13086 0.8206 0.54359 0.0
O68 O 0.16488 0.87371 0.53837 0.0
O69 O 0.16207 0.84532 0.51834 0.0
O70 O 0.14823 0.86689 0.57892 0.0
O71 O 0.16382 0.8989 0.56734 0.0
H72 H 0.18604 0.97367 0.50689 0.0
H73 H 0.18108 1.00205 0.47694 0.0
H74 H 0.12127 0.97281 0.45442 0.0
H75 H 0.12629 0.94448 0.4849 0.0
H76 H 0.1015 0.82285 0.608 0.0
H77 H 0.10714 0.79738 0.641 0.0
H78 H 0.14653 0.75831 0.59404 0.0
H79 H 0.14123 0.78389 0.5613 0.0
Sm80 Sm 0.35886 0.89227 0.78179 0.0
Sm81 Sm 0.40604 0.88152 0.79094 0.0
C82 C 0.32106 0.90671 0.76655 0.0
C83 C 0.30374 0.90287 0.74903 0.0
C84 C 0.28583 0.91647 0.74927 0.0
C85 C 0.2691 0.9135 0.7328 0.0
C86 C 0.26997 0.89684 0.71566 0.0
C87 C 0.28788 0.88297 0.7157 0.0
C88 C 0.30469 0.88599 0.73227 0.0
C89 C 0.36513 0.85416 0.80578 0.0
C90 C 0.38729 0.87078 0.73721 0.0
C91 C 0.44214 0.86627 0.81025 0.0
C92 C 0.45744 0.87023 0.83044 0.0
C93 C 0.45234 0.86478 0.85449 0.0
C94 C 0.46745 0.86763 0.87306 0.0
C95 C 0.48799 0.87602 0.86805 0.0
C96 C 0.49304 0.8814 0.84398 0.0
C97 C 0.478 0.87848 0.82545 0.0
C98 C 0.39973 0.92189 0.77139 0.0
C99 C 0.37838 0.90884 0.8325 0.0
O100 O 0.33947 0.91358 0.75803 0.0
O101 O 0.32321 0.89266 0.78394 0.0
O102 O 0.37649 0.86061 0.78816 0.0
O103 O 0.34926 0.86714 0.80985 0.0
O104 O 0.3697 0.88083 0.74431 0.0
O105 O 0.40346 0.86703 0.75228 0.0
O106 O 0.42297 0.85903 0.81566 0.0
O107 O 0.44184 0.88014 0.79247 0.0
O108 O 0.38815 0.91288 0.78706 0.0
O109 O 0.41636 0.90995 0.76661 0.0
O110 O 0.39533 0.89649 0.82799 0.0
O111 O 0.36352 0.91211 0.81591 0.0
H112 H 0.28479 0.92948 0.76222 0.0
H113 H 0.25542 0.92425 0.73355 0.0
H114 H 0.28912 0.87011 0.70261 0.0
H115 H 0.31844 0.87531 0.73191 0.0
H116 H 0.43671 0.8582 0.859 0.0
H117 H 0.46295 0.86347 0.89139 0.0
H118 H 0.50881 0.88756 0.83934 0.0
H119 H 0.48258 0.88248 0.80709 0.0
Sm120 Sm 0.36826 0.10814 0.03086 0.0
Sm121 Sm 0.37828 0.15505 0.04073 0.0
C122 C 0.35581 0.07024 1.01416 0.0
C123 C 0.36144 0.05415 0.99555 0.0
C124 C 0.36012 0.05888 0.97074 0.0
C125 C 0.36388 0.04285 0.95355 0.0
C126 C 0.36916 0.02184 0.96078 0.0
C127 C 0.3712 0.01734 0.98556 0.0
C128 C 0.36726 0.03332 1.00276 0.0
C129 C 0.4065 0.11448 0.05454 0.0
C130 C 0.38898 0.13751 0.9866 0.0
C131 C 0.3929 0.19098 0.06092 0.0
C132 C 0.38868 0.20568 0.08163 0.0
C133 C 0.39793 0.20193 0.10449 0.0
C134 C 0.39483 0.21646 0.12355 0.0
C135 C 0.38244 0.23515 0.12025 0.0
C136 C 0.37327 0.23888 0.09734 0.0
C137 C 0.37639 0.2244 0.07831 0.0
C138 C 0.33765 0.14848 0.0217 0.0
C139 C 0.35187 0.12624 0.08213 0.0
O140 O 0.34741 0.08846 1.00699 0.0
O141 O 0.3693 0.07251 0.0321 0.0
O142 O 0.39986 0.12605 0.03718 0.0
O143 O 0.39357 0.09858 0.05856 0.0
O144 O 0.37903 0.11983 0.99346 0.0
O145 O 0.39274 0.15341 1.00196 0.0
O146 O 0.40055 0.1719 0.06578 0.0
O147 O 0.37902 0.19075 0.04314 0.0
O148 O 0.34701 0.13682 0.03701 0.0
O149 O 0.3494 0.16524 1.01694 0.0
O150 O 0.36387 0.14342 0.07769 0.0
O151 O 0.34859 0.11157 0.06536 0.0
H152 H 0.35581 0.07482 0.96458 0.0
H153 H 0.36242 0.04684 0.93456 0.0
H154 H 0.37504 1.00127 0.99169 0.0
H155 H 0.36831 0.02925 0.02177 0.0
H156 H 0.40773 0.18783 0.10766 0.0
H157 H 0.40202 0.21295 0.14094 0.0
H158 H 0.36397 0.25327 0.09392 0.0
H159 H 0.36937 0.22804 0.06086 0.0
Sm160 Sm 0.15269 0.89509 0.26199 0.0
Sm161 Sm 0.1059 0.88347 0.25104 0.0
C162 C 0.18987 0.91037 0.2782 0.0
C163 C 0.20745 0.90602 0.29527 0.0
C164 C 0.22539 0.9196 0.2952 0.0
C165 C 0.24241 0.91604 0.31116 0.0
C166 C 0.24183 0.89879 0.3276 0.0
C167 C 0.22388 0.88497 0.32737 0.0
C168 C 0.20678 0.88859 0.31133 0.0
C169 C 0.14762 0.85481 0.24234 0.0
C170 C 0.12152 0.87815 0.30663 0.0
C171 C 0.07059 0.86716 0.231 0.0
C172 C 0.05543 0.87097 0.2106 0.0
C173 C 0.0585 0.8608 0.18813 0.0
C174 C 0.04368 0.86359 0.16927 0.0
C175 C 0.02535 0.87655 0.1724 0.0
C176 C 0.02225 0.88659 0.19495 0.0
C177 C 0.03703 0.88381 0.21378 0.0
C178 C 0.11144 0.92517 0.26711 0.0
C179 C 0.13536 0.90791 0.20888 0.0
O180 O 0.17121 0.91574 0.28732 0.0
O181 O 0.18826 0.89749 0.25968 0.0
O182 O 0.13517 0.86295 0.25801 0.0
O183 O 0.16405 0.86711 0.2386 0.0
O184 O 0.13885 0.88879 0.2998 0.0
O185 O 0.10726 0.87108 0.2907 0.0
O186 O 0.09009 0.86084 0.2256 0.0
O187 O 0.07023 0.8806 0.2492 0.0
O188 O 0.12371 0.9151 0.25303 0.0
O189 O 0.09444 0.91371 0.27174 0.0
O190 O 0.11827 0.89585 0.21356 0.0
O191 O 0.14947 0.91256 0.2259 0.0
H192 H 0.22623 0.93304 0.28278 0.0
H193 H 0.2561 0.92679 0.31055 0.0
H194 H 0.22284 0.87166 0.33993 0.0
H195 H 0.19302 0.8779 0.31155 0.0
H196 H 0.07233 0.85056 0.18512 0.0
H197 H 0.04671 0.85572 0.15215 0.0
H198 H 0.00813 0.89636 0.19825 0.0
H199 H 0.0339 0.89156 0.23095 0.0
Sm200 Sm 0.36384 0.90088 0.51285 0.0
Sm201 Sm 0.37689 0.85458 0.50034 0.0
C202 C 0.34748 0.93711 0.53022 0.0
C203 C 0.352 0.95492 0.54686 0.0
C204 C 0.33847 0.97288 0.54653 0.0
C205 C 0.34217 0.99008 0.56214 0.0
C206 C 0.35951 0.98967 0.57848 0.0
C207 C 0.37329 0.9717 0.57851 0.0
C208 C 0.36955 0.95443 0.56282 0.0
C209 C 0.40422 0.89732 0.49279 0.0
C210 C 0.38238 0.86939 0.55629 0.0
C211 C 0.39475 0.82034 0.47975 0.0
C212 C 0.39136 0.80544 0.45936 0.0
C213 C 0.40805 0.79163 0.45235 0.0
C214 C 0.40506 0.77692 0.43349 0.0
C215 C 0.38524 0.7757 0.42124 0.0
C216 C 0.36866 0.78993 0.42808 0.0
C217 C 0.3717 0.80467 0.44692 0.0
C218 C 0.3352 0.85864 0.51718 0.0
C219 C 0.35093 0.88413 0.45942 0.0
O220 O 0.34377 0.91824 0.53977 0.0
O221 O 0.35918 0.93616 0.51063 0.0
O222 O 0.39637 0.88433 0.50805 0.0
O223 O 0.39159 0.91361 0.48981 0.0
O224 O 0.3709 0.88637 0.55019 0.0
O225 O 0.3898 0.85581 0.53982 0.0
O226 O 0.39992 0.84009 0.47421 0.0
O227 O 0.38111 0.8192 0.49774 0.0
O228 O 0.34486 0.87145 0.50339 0.0
O229 O 0.34702 0.84174 0.52093 0.0
O230 O 0.36369 0.86741 0.46335 0.0
O231 O 0.34596 0.89759 0.47698 0.0
H232 H 0.32496 0.97358 0.53417 0.0
H233 H 0.33145 1.00378 0.56133 0.0
H234 H 0.38667 0.97079 0.59101 0.0
H235 H 0.38021 0.94066 0.56323 0.0
H236 H 0.42336 0.79201 0.4617 0.0
H237 H 0.41809 0.76611 0.42898 0.0
H238 H 0.3533 0.78967 0.41886 0.0
H239 H 0.35867 0.81535 0.45191 0.0
Sm240 Sm 0.35945 0.11264 0.76262 0.0
Sm241 Sm 0.40589 0.1244 0.7499 0.0
C242 C 0.3228 0.09719 0.78014 0.0
C243 C 0.30594 0.10108 0.79822 0.0
C244 C 0.30559 0.11979 0.81234 0.0
C245 C 0.28901 0.12308 0.82914 0.0
C246 C 0.27263 0.10766 0.83209 0.0
C247 C 0.2731 0.08906 0.81768 0.0
C248 C 0.2896 0.08582 0.80096 0.0
C249 C 0.36378 0.15262 0.74197 0.0
C250 C 0.39135 0.13077 0.80579 0.0
C251 C 0.44084 0.14064 0.729 0.0
C252 C 0.45626 0.13655 0.70893 0.0
C253 C 0.45153 0.14266 0.685 0.0
C254 C 0.46671 0.13982 0.6665 0.0
C255 C 0.487 0.13082 0.67146 0.0
C256 C 0.49169 0.12477 0.69542 0.0
C257 C 0.47657 0.12766 0.71389 0.0
C258 C 0.40089 0.08284 0.76673 0.0
C259 C 0.37548 0.09941 0.70904 0.0
O260 O 0.34174 0.09135 0.7881 0.0
O261 O 0.32383 0.11068 0.76209 0.0
O262 O 0.37667 0.14483 0.75741 0.0
O263 O 0.34738 0.14013 0.73896 0.0
O264 O 0.37412 0.11958 0.7999 0.0
O265 O 0.40506 0.13774 0.78919 0.0
O266 O 0.42121 0.14635 0.7233 0.0
O267 O 0.4415 0.12782 0.74775 0.0
O268 O 0.38828 0.09279 0.75294 0.0
O269 O 0.418 0.09433 0.7706 0.0
O270 O 0.39264 0.1116 0.71297 0.0
O271 O 0.36183 0.09492 0.72661 0.0
H272 H 0.31811 0.13177 0.81038 0.0
H273 H 0.28922 0.13748 0.8401 0.0
H274 H 0.26059 0.07703 0.81916 0.0
H275 H 0.28955 0.07137 0.79006 0.0
H276 H 0.43615 0.1498 0.68053 0.0
H277 H 0.46247 0.14451 0.64826 0.0
H278 H 0.50727 0.11815 0.70005 0.0
H279 H 0.48092 0.12316 0.73217 0.0
Sm280 Sm 0.14569 0.10874 1.01501 0.0
Sm281 Sm 0.13566 0.15565 1.00254 0.0
C282 C 0.16048 0.0718 0.03204 0.0
C283 C 0.15584 0.05381 0.04837 0.0
C284 C 0.16779 0.03491 0.04582 0.0
C285 C 0.16411 0.01748 0.06112 0.0
C286 C 0.14838 0.01862 0.07935 0.0
C287 C 0.13609 0.03753 0.08159 0.0
C288 C 0.13982 0.05504 0.0662 0.0
C289 C 0.10724 0.11428 0.99134 0.0
C290 C 0.12462 0.1397 0.05754 0.0
C291 C 0.12042 0.19088 0.98142 0.0
C292 C 0.12478 0.20591 0.96107 0.0
C293 C 0.11491 0.20296 0.9384 0.0
C294 C 0.118 0.21785 0.91968 0.0
C295 C 0.13098 0.23609 0.92317 0.0
C296 C 0.14078 0.23901 0.94589 0.0
C297 C 0.13768 0.22417 0.96457 0.0
C298 C 0.17633 0.14953 0.02176 0.0
C299 C 0.16222 0.12577 0.96274 0.0
O300 O 0.16498 0.09042 0.04181 0.0
O301 O 0.14858 0.07331 1.01264 0.0
O302 O 0.1143 0.12667 1.00771 0.0
O303 O 0.11955 0.09764 0.9889 0.0
O304 O 0.13381 0.12127 0.05185 0.0
O305 O 0.12167 0.15518 0.04142 0.0
O306 O 0.11392 0.17147 0.97604 0.0
O307 O 0.1335 0.19122 0.99996 0.0
O308 O 0.16664 0.13728 1.00738 0.0
O309 O 0.16507 0.16689 0.02499 0.0
O310 O 0.15008 0.14301 0.96615 0.0
O311 O 0.16552 0.11184 0.98034 0.0
H312 H 0.18009 0.03364 0.032 0.0
H313 H 0.1736 1.00306 0.05863 0.0
H314 H 0.12397 0.03897 0.09557 0.0
H315 H 0.13037 0.06954 0.06832 0.0
H316 H 0.10461 0.18923 0.93516 0.0
H317 H 0.11032 0.21497 0.90241 0.0
H318 H 0.15053 0.25307 0.94946 0.0
H319 H 0.1452 0.22721 0.9819 0.0
Sm320 Sm 0.90504 0.88314 0.75227 0.0
Sm321 Sm 0.85795 0.89478 0.76173 0.0
C322 C 0.94058 0.86656 0.73301 0.0
C323 C 0.9554 0.87002 0.7125 0.0
C324 C 0.96911 0.85335 0.70524 0.0
C325 C 0.98365 0.85634 0.68617 0.0
C326 C 0.9848 0.87614 0.67394 0.0
C327 C 0.97069 0.89272 0.68104 0.0
C328 C 0.9561 0.88968 0.70009 0.0
C329 C 0.89936 0.92407 0.77034 0.0
C330 C 0.87707 0.90928 0.70998 0.0
C331 C 0.82066 0.90999 0.7776 0.0
C332 C 0.80386 0.90606 0.79574 0.0
C333 C 0.78666 0.92049 0.79742 0.0
C334 C 0.77027 0.91715 0.81426 0.0
C335 C 0.77076 0.89927 0.82983 0.0
C336 C 0.78801 0.88469 0.82795 0.0
C337 C 0.80447 0.88809 0.81103 0.0
C338 C 0.86349 0.85594 0.73917 0.0
C339 C 0.88659 0.87356 0.80642 0.0
O340 O 0.9212 0.85994 0.72767 0.0
O341 O 0.94072 0.88094 0.75025 0.0
O342 O 0.88743 0.91475 0.75527 0.0
O343 O 0.91605 0.91222 0.77517 0.0
O344 O 0.89417 0.89732 0.71498 0.0
O345 O 0.86215 0.9131 0.72638 0.0
O346 O 0.83932 0.91674 0.78552 0.0
O347 O 0.82232 0.89589 0.76022 0.0
O348 O 0.87516 0.8628 0.75632 0.0
O349 O 0.84759 0.86887 0.73504 0.0
O350 O 0.86912 0.88381 0.79931 0.0
O351 O 0.90258 0.86934 0.79127 0.0
H352 H 0.96876 0.83804 0.71454 0.0
H353 H 0.99438 0.84331 0.68145 0.0
H354 H 0.97089 0.90807 0.67185 0.0
H355 H 0.94548 0.90269 0.70524 0.0
H356 H 0.78587 0.93437 0.78562 0.0
H357 H 0.75709 0.92851 0.81495 0.0
H358 H 0.78898 0.87089 0.83981 0.0
H359 H 0.81767 0.87676 0.8099 0.0
Sm360 Sm 0.87775 0.15344 0.50227 0.0
Sm361 Sm 0.86474 0.10711 0.51341 0.0
C362 C 0.89559 0.1879 0.4821 0.0
C363 C 0.89213 0.20249 0.46143 0.0
C364 C 0.9086 0.21655 0.45437 0.0
C365 C 0.90554 0.23082 0.43509 0.0
C366 C 0.88588 0.23135 0.42247 0.0
C367 C 0.86953 0.21688 0.42937 0.0
C368 C 0.87264 0.20257 0.44863 0.0
C369 C 0.83606 0.14933 0.51901 0.0
C370 C 0.85152 0.12497 0.46065 0.0
C371 C 0.84901 0.07033 0.53002 0.0
C372 C 0.85418 0.0525 0.54644 0.0
C373 C 0.86977 0.05452 0.56465 0.0
C374 C 0.87399 0.03729 0.58027 0.0
C375 C 0.86266 0.01782 0.57789 0.0
C376 C 0.8474 0.01585 0.55925 0.0
C377 C 0.84321 0.03302 0.54371 0.0
C378 C 0.90504 0.11112 0.49324 0.0
C379 C 0.88321 0.13759 0.55781 0.0
O380 O 0.90121 0.16822 0.47685 0.0
O381 O 0.88162 0.18887 0.49978 0.0
O382 O 0.84557 0.13667 0.5049 0.0
O383 O 0.84807 0.16599 0.5233 0.0
O384 O 0.86448 0.14145 0.46497 0.0
O385 O 0.84651 0.11119 0.4779 0.0
O386 O 0.84483 0.08899 0.53981 0.0
O387 O 0.86059 0.07179 0.51038 0.0
O388 O 0.89736 0.12357 0.50913 0.0
O389 O 0.8922 0.09514 0.48944 0.0
O390 O 0.87195 0.12065 0.55112 0.0
O391 O 0.89047 0.15167 0.54178 0.0
H392 H 0.92379 0.21666 0.46398 0.0
H393 H 0.91839 0.24185 0.43052 0.0
H394 H 0.8543 0.21661 0.41988 0.0
H395 H 0.8598 0.19168 0.45365 0.0
H396 H 0.87847 0.06946 0.56693 0.0
H397 H 0.88571 0.0394 0.59455 0.0
H398 H 0.83863 1.001 0.55665 0.0
H399 H 0.83126 0.03113 0.52961 0.0
Sm400 Sm 0.60684 0.12704 0.25155 0.0
Sm401 Sm 0.65381 0.11779 0.2616 0.0
C402 C 0.57024 0.1418 0.23292 0.0
C403 C 0.55659 0.13959 0.21123 0.0
C404 C 0.54208 0.15603 0.20539 0.0
C405 C 0.52832 0.15402 0.18548 0.0
C406 C 0.52876 0.13545 0.171 0.0
C407 C 0.54376 0.1192 0.17662 0.0
C408 C 0.55757 0.12127 0.19652 0.0
C409 C 0.61441 0.08605 0.26894 0.0
C410 C 0.63609 0.10322 0.20915 0.0
C411 C 0.69169 0.10361 0.2769 0.0
C412 C 0.70882 0.10694 0.29478 0.0
C413 C 0.70821 0.12395 0.3114 0.0
C414 C 0.72503 0.12668 0.32802 0.0
C415 C 0.74261 0.11238 0.32827 0.0
C416 C 0.74309 0.09554 0.31134 0.0
C417 C 0.72636 0.09286 0.29481 0.0
C418 C 0.64716 0.15633 0.23875 0.0
C419 C 0.62347 0.13643 0.30627 0.0
O420 O 0.58881 0.15127 0.22998 0.0
O421 O 0.5713 0.12529 0.24749 0.0
O422 O 0.62571 0.09612 0.25387 0.0
O423 O 0.59781 0.09752 0.27506 0.0
O424 O 0.61867 0.11474 0.21393 0.0
O425 O 0.65069 0.09957 0.22596 0.0
O426 O 0.67332 0.09601 0.28474 0.0
O427 O 0.68946 0.11836 0.26028 0.0
O428 O 0.63546 0.14918 0.2558 0.0
O429 O 0.66351 0.1439 0.23496 0.0
O430 O 0.64205 0.12813 0.29944 0.0
O431 O 0.60744 0.1394 0.2909 0.0
H432 H 0.54112 0.17032 0.2165 0.0
H433 H 0.51685 0.16672 0.18193 0.0
H434 H 0.54476 0.10482 0.16569 0.0
H435 H 0.56881 0.10848 0.20058 0.0
H436 H 0.69475 0.135 0.31156 0.0
H437 H 0.72409 0.13969 0.34096 0.0
H438 H 0.75651 0.08445 0.31075 0.0
H439 H 0.72715 0.07976 0.28196 0.0
Sm440 Sm 0.6344 0.85454 1.00186 0.0
Sm441 Sm 0.64486 0.90111 1.0143 0.0
C442 C 0.61808 0.81965 0.98111 0.0
C443 C 0.6209 0.80583 0.95974 0.0
C444 C 0.60475 0.79105 0.95376 0.0
C445 C 0.6073 0.77721 0.93405 0.0
C446 C 0.62611 0.77786 0.91989 0.0
C447 C 0.64208 0.7931 0.92568 0.0
C448 C 0.63949 0.80697 0.94541 0.0
C449 C 0.67475 0.85983 0.02188 0.0
C450 C 0.66159 0.88418 0.96226 0.0
C451 C 0.65863 0.93801 0.03247 0.0
C452 C 0.6535 0.95478 0.05057 0.0
C453 C 0.66364 0.9546 0.07325 0.0
C454 C 0.66071 0.97157 0.08943 0.0
C455 C 0.64767 0.9892 0.08325 0.0
C456 C 0.63703 0.98911 0.06084 0.0
C457 C 0.63998 0.97213 0.04463 0.0
C458 C 0.60672 0.89587 0.98996 0.0
C459 C 0.62344 0.87022 0.05676 0.0
O460 O 0.61082 0.83904 0.97718 0.0
O461 O 0.63323 0.81909 0.99749 0.0
O462 O 0.66574 0.87235 1.00716 0.0
O463 O 0.66289 0.84289 0.0253 0.0
O464 O 0.64932 0.86702 0.96565 0.0
O465 O 0.66483 0.8982 0.97977 0.0
O466 O 0.66511 0.91925 0.04036 0.0
O467 O 0.64624 0.93665 1.01341 0.0
O468 O 0.61332 0.88371 1.00679 0.0
O469 O 0.61953 0.91207 0.98706 0.0
O470 O 0.6326 0.88864 0.05101 0.0
O471 O 0.62058 0.85471 0.04073 0.0
H472 H 0.59026 0.78998 0.96461 0.0
H473 H 0.59479 0.76555 0.93037 0.0
H474 H 0.65664 0.79426 0.915 0.0
H475 H 0.65206 0.81842 0.94963 0.0
H476 H 0.67429 0.94158 0.07832 0.0
H477 H 0.66889 0.971 0.10671 0.0
H478 H 0.62705 1.00254 0.05544 0.0
H479 H 0.63213 0.97293 0.02718 0.0
Sm480 Sm 0.90523 0.12556 0.79308 0.0
Sm481 Sm 0.85799 0.11554 0.78408 0.0
C482 C 0.94138 0.14068 0.81247 0.0
C483 C 0.95662 0.13693 0.83281 0.0
C484 C 0.95314 0.14624 0.85569 0.0
C485 C 0.96823 0.14373 0.87433 0.0
C486 C 0.98723 0.13189 0.87059 0.0
C487 C 0.99068 0.12264 0.84768 0.0
C488 C 0.97563 0.12518 0.82906 0.0
C489 C 0.8984 0.08497 0.77457 0.0
C490 C 0.87677 0.09967 0.83529 0.0
C491 C 0.81976 0.10309 0.76806 0.0
C492 C 0.80377 0.10805 0.74909 0.0
C493 C 0.80901 0.10718 0.72439 0.0
C494 C 0.79313 0.11052 0.70686 0.0
C495 C 0.77176 0.11494 0.71366 0.0
C496 C 0.76673 0.11646 0.73836 0.0
C497 C 0.78256 0.11294 0.75588 0.0
C498 C 0.86493 0.15386 0.80725 0.0
C499 C 0.88702 0.13562 0.73909 0.0
O500 O 0.92222 0.14805 0.81773 0.0
O501 O 0.94103 0.12669 0.79482 0.0
O502 O 0.88679 0.0944 0.78989 0.0
O503 O 0.91528 0.09652 0.76965 0.0
O504 O 0.89417 0.1112 0.83026 0.0
O505 O 0.86159 0.09655 0.81902 0.0
O506 O 0.83786 0.09404 0.76145 0.0
O507 O 0.82228 0.1174 0.78508 0.0
O508 O 0.87611 0.14704 0.78965 0.0
O509 O 0.84904 0.14103 0.81183 0.0
O510 O 0.86941 0.12572 0.74636 0.0
O511 O 0.90309 0.13962 0.75417 0.0
H512 H 0.93881 0.15565 0.85918 0.0
H513 H 0.96493 0.15094 0.89175 0.0
H514 H 1.00528 0.11375 0.84392 0.0
H515 H 0.97907 0.11815 0.81157 0.0
H516 H 0.82527 0.10361 0.71859 0.0
H517 H 0.79755 0.1095 0.68795 0.0
H518 H 0.75039 0.11963 0.74417 0.0
H519 H 0.77812 0.11364 0.77481 0.0
Sm520 Sm 0.63375 0.15153 0.54193 0.0
Sm521 Sm 0.64625 0.10524 0.52885 0.0
C522 C 0.61538 0.18512 0.56313 0.0
C523 C 0.61827 0.20018 0.58347 0.0
C524 C 0.60012 0.20776 0.59594 0.0
C525 C 0.60225 0.22318 0.61421 0.0
C526 C 0.62262 0.23138 0.62029 0.0
C527 C 0.64086 0.22314 0.6083 0.0
C528 C 0.63871 0.20768 0.59011 0.0
C529 C 0.67478 0.14785 0.52317 0.0
C530 C 0.66176 0.12254 0.58142 0.0
C531 C 0.66249 0.06908 0.51148 0.0
C532 C 0.65782 0.05134 0.49488 0.0
C533 C 0.64132 0.05269 0.47765 0.0
C534 C 0.63738 0.03543 0.46204 0.0
C535 C 0.64992 0.01663 0.46348 0.0
C536 C 0.66618 0.01536 0.4811 0.0
C537 C 0.67008 0.03256 0.49662 0.0
C538 C 0.60716 0.10898 0.55173 0.0
C539 C 0.62485 0.13595 0.48635 0.0
O540 O 0.61071 0.16524 0.56862 0.0
O541 O 0.62875 0.18671 0.54492 0.0
O542 O 0.66559 0.13474 0.53703 0.0
O543 O 0.66292 0.1649 0.52058 0.0
O544 O 0.64869 0.13915 0.57824 0.0
O545 O 0.66582 0.10906 0.56357 0.0
O546 O 0.66628 0.08795 0.50191 0.0
O547 O 0.6508 0.06999 0.5311 0.0
O548 O 0.61408 0.12166 0.53559 0.0
O549 O 0.62011 0.09287 0.55445 0.0
O550 O 0.6347 0.11784 0.49194 0.0
O551 O 0.62079 0.151 0.50265 0.0
H552 H 0.58419 0.2021 0.59114 0.0
H553 H 0.58788 0.22924 0.62293 0.0
H554 H 0.65683 0.22883 0.61282 0.0
H555 H 0.65299 0.20189 0.58095 0.0
H556 H 0.63164 0.0671 0.47617 0.0
H557 H 0.62487 0.03697 0.44853 0.0
H558 H 0.67589 1.00101 0.48295 0.0
H559 H 0.68275 0.03121 0.51 0.0
Sm560 Sm 0.60327 0.88435 0.29091 0.0
Sm561 Sm 0.65049 0.89206 0.2805 0.0
C562 C 0.56633 0.87146 0.31049 0.0
C563 C 0.55208 0.87517 0.33172 0.0
C564 C 0.55614 0.86533 0.3542 0.0
C565 C 0.54181 0.8679 0.3736 0.0
C566 C 0.52307 0.88037 0.371 0.0
C567 C 0.51906 0.89016 0.3485 0.0
C568 C 0.53331 0.88754 0.32913 0.0
C569 C 0.61208 0.92503 0.27319 0.0
C570 C 0.63369 0.90737 0.3329 0.0
C571 C 0.6887 0.904 0.26387 0.0
C572 C 0.70534 0.89868 0.24564 0.0
C573 C 0.70365 0.90606 0.2217 0.0
C574 C 0.72051 0.90288 0.20535 0.0
C575 C 0.73946 0.89229 0.21256 0.0
C576 C 0.74088 0.88436 0.23628 0.0
C577 C 0.72406 0.88763 0.25267 0.0
C578 C 0.6428 0.85393 0.30354 0.0
C579 C 0.61949 0.87336 0.23645 0.0
O580 O 0.58475 0.86185 0.31419 0.0
O581 O 0.56762 0.88665 0.29422 0.0
O582 O 0.62313 0.91466 0.28822 0.0
O583 O 0.59507 0.91407 0.26733 0.0
O584 O 0.61585 0.89648 0.32827 0.0
O585 O 0.64833 0.91056 0.31601 0.0
O586 O 0.67056 0.91243 0.25638 0.0
O587 O 0.68612 0.89055 0.2818 0.0
O588 O 0.63115 0.8613 0.28657 0.0
O589 O 0.65954 0.86586 0.30714 0.0
O590 O 0.63819 0.88155 0.24298 0.0
O591 O 0.60347 0.87094 0.25198 0.0
H592 H 0.57031 0.85547 0.3568 0.0
H593 H 0.54551 0.86025 0.39068 0.0
H594 H 0.50461 0.89954 0.34563 0.0
H595 H 0.52946 0.89499 0.31197 0.0
H596 H 0.68952 0.91473 0.21569 0.0
H597 H 0.71882 0.90894 0.18709 0.0
H598 H 0.75534 0.87635 0.24247 0.0
H599 H 0.72598 0.882 0.27108 0.0
Sm600 Sm 0.87783 0.85465 0.04325 0.0
Sm601 Sm 0.86556 0.90118 0.03183 0.0
C602 C 0.89493 0.81977 0.06336 0.0
C603 C 0.89151 0.80418 0.08342 0.0
C604 C 0.90021 0.80787 0.10655 0.0
C605 C 0.89799 0.79255 0.125 0.0
C606 C 0.88706 0.77313 0.12078 0.0
C607 C 0.87847 0.76944 0.09759 0.0
C608 C 0.88072 0.78471 0.07917 0.0
C609 C 0.83607 0.85944 0.02687 0.0
C610 C 0.85245 0.88386 0.08487 0.0
C611 C 0.85004 0.93808 1.01532 0.0
C612 C 0.85489 0.95579 0.99864 0.0
C613 C 0.87097 0.95406 0.98093 0.0
C614 C 0.87493 0.97121 0.9651 0.0
C615 C 0.86282 0.99028 0.96676 0.0
C616 C 0.84703 0.99194 0.9849 0.0
C617 C 0.84312 0.97486 1.00064 0.0
C618 C 0.90582 0.89659 0.05195 0.0
C619 C 0.88336 0.87025 0.98758 0.0
O620 O 0.90056 0.83937 0.06909 0.0
O621 O 0.88167 0.81914 0.04498 0.0
O622 O 0.84595 0.87201 0.04076 0.0
O623 O 0.84771 0.84249 0.02272 0.0
O624 O 0.86507 0.8671 0.08059 0.0
O625 O 0.84756 0.89758 0.06753 0.0
O626 O 0.84542 0.91943 1.00576 0.0
O627 O 0.86213 0.93658 0.03455 0.0
O628 O 0.89791 0.88415 0.03618 0.0
O629 O 0.8933 0.91287 0.05553 0.0
O630 O 0.87229 0.88734 0.99415 0.0
O631 O 0.89057 0.85622 1.00369 0.0
H632 H 0.9089 0.82255 0.11041 0.0
H633 H 0.90468 0.79604 0.14264 0.0
H634 H 0.87033 0.75452 0.09347 0.0
H635 H 0.8742 0.78111 0.06148 0.0
H636 H 0.88028 0.93943 0.97921 0.0
H637 H 0.88707 0.96934 0.95121 0.0
H638 H 0.83767 0.00649 0.98696 0.0
H639 H 0.83077 0.97652 1.01436 0.0
Sm640 Sm 0.6534 0.61722 0.78107 0.0
Sm641 Sm 0.60651 0.62606 0.7917 0.0
C642 C 0.69132 0.60458 0.76445 0.0
C643 C 0.70739 0.60949 0.74559 0.0
C644 C 0.70221 0.60872 0.72089 0.0
C645 C 0.71819 0.61186 0.70343 0.0
C646 C 0.73958 0.61595 0.71034 0.0
C647 C 0.74456 0.61738 0.73506 0.0
C648 C 0.72863 0.61408 0.7525 0.0
C649 C 0.64656 0.65567 0.80385 0.0
C650 C 0.62263 0.63619 0.73697 0.0
C651 C 0.57004 0.63995 0.81144 0.0
C652 C 0.55589 0.63647 0.83279 0.0
C653 C 0.56 0.64669 0.85503 0.0
C654 C 0.54587 0.64419 0.87461 0.0
C655 C 0.52729 0.63144 0.87243 0.0
C656 C 0.5232 0.62131 0.85014 0.0
C657 C 0.53726 0.62385 0.8306 0.0
C658 C 0.61422 0.58537 0.77365 0.0
C659 C 0.63641 0.6017 0.83341 0.0
O660 O 0.67306 0.59595 0.75769 0.0
O661 O 0.6891 0.61868 0.78177 0.0
O662 O 0.63481 0.6484 0.78697 0.0
O663 O 0.66292 0.64329 0.8078 0.0
O664 O 0.64113 0.62752 0.74343 0.0
O665 O 0.60684 0.63927 0.75264 0.0
O666 O 0.58873 0.64906 0.81505 0.0
O667 O 0.57084 0.62478 0.79511 0.0
O668 O 0.62548 0.59531 0.78881 0.0
O669 O 0.59747 0.59677 0.76789 0.0
O670 O 0.61891 0.61324 0.829 0.0
O671 O 0.65088 0.59842 0.81636 0.0
H672 H 0.68593 0.60536 0.71501 0.0
H673 H 0.71384 0.61092 0.6845 0.0
H674 H 0.76093 0.6203 0.74092 0.0
H675 H 0.73301 0.61467 0.77145 0.0
H676 H 0.57406 0.65676 0.8573 0.0
H677 H 0.54959 0.65212 0.89152 0.0
H678 H 0.50885 0.61171 0.84761 0.0
H679 H 0.53337 0.6161 0.81363 0.0
Sm680 Sm 0.6437 0.40369 0.03324 0.0
Sm681 Sm 0.63249 0.3568 0.04248 0.0
C682 C 0.6571 0.44162 1.01744 0.0
C683 C 0.65263 0.45787 0.99857 0.0
C684 C 0.65622 0.45359 0.97395 0.0
C685 C 0.65337 0.46975 0.95667 0.0
C686 C 0.64681 0.49047 0.96361 0.0
C687 C 0.64267 0.49454 0.98815 0.0
C688 C 0.64566 0.47843 1.00545 0.0
C689 C 0.60454 0.39763 0.05519 0.0
C690 C 0.62508 0.37441 0.98779 0.0
C691 C 0.61603 0.32112 0.0615 0.0
C692 C 0.61884 0.30681 0.08256 0.0
C693 C 0.60227 0.2926 0.08891 0.0
C694 C 0.60471 0.27847 0.10844 0.0
C695 C 0.62385 0.27823 0.12205 0.0
C696 C 0.64028 0.29287 0.11587 0.0
C697 C 0.63778 0.30704 0.09635 0.0
C698 C 0.67358 0.36278 0.02461 0.0
C699 C 0.65827 0.38493 0.08488 0.0
O700 O 0.66578 0.4234 1.01078 0.0
O701 O 0.64265 0.43933 0.03441 0.0
O702 O 0.6117 0.38619 0.03801 0.0
O703 O 0.61752 0.4133 0.06001 0.0
O704 O 0.6352 0.39178 0.99528 0.0
O705 O 0.61957 0.35894 1.00307 0.0
O706 O 0.6085 0.34031 0.06591 0.0
O707 O 0.63134 0.32118 0.04526 0.0
O708 O 0.66417 0.37451 0.03983 0.0
O709 O 0.66171 0.34619 1.01951 0.0
O710 O 0.64602 0.36802 0.07999 0.0
O711 O 0.66232 0.39958 0.06828 0.0
H712 H 0.66155 0.43789 0.96803 0.0
H713 H 0.65645 0.46606 0.93784 0.0
H714 H 0.63781 0.51038 0.9941 0.0
H715 H 0.64293 0.48219 0.02433 0.0
H716 H 0.58749 0.29223 0.07853 0.0
H717 H 0.59182 0.26731 0.11242 0.0
H718 H 0.65511 0.29337 0.12613 0.0
H719 H 0.6507 0.31805 0.09191 0.0
Sm720 Sm 0.85674 0.39177 0.28296 0.0
Sm721 Sm 0.9036 0.38058 0.29086 0.0
C722 C 0.81839 0.40497 0.2682 0.0
C723 C 0.80207 0.4003 0.24951 0.0
C724 C 0.80641 0.40327 0.2248 0.0
C725 C 0.79021 0.4001 0.20764 0.0
C726 C 0.76943 0.3938 0.21482 0.0
C727 C 0.76532 0.39021 0.23946 0.0
C728 C 0.78146 0.39355 0.25663 0.0
C729 C 0.863 0.35295 0.30541 0.0
C730 C 0.88488 0.37255 0.23679 0.0
C731 C 0.93936 0.36381 0.30922 0.0
C732 C 0.95468 0.3664 0.32956 0.0
C733 C 0.95654 0.35006 0.34699 0.0
C734 C 0.97194 0.35141 0.36542 0.0
C735 C 0.98597 0.36907 0.36669 0.0
C736 C 0.98374 0.38566 0.34955 0.0
C737 C 0.96829 0.38435 0.33121 0.0
C738 C 0.89759 0.42169 0.2732 0.0
C739 C 0.87662 0.40674 0.33397 0.0
O740 O 0.83645 0.41395 0.26133 0.0
O741 O 0.82109 0.39042 0.28494 0.0
O742 O 0.87409 0.35973 0.2877 0.0
O743 O 0.84761 0.36617 0.31055 0.0
O744 O 0.86759 0.38268 0.24464 0.0
O745 O 0.90079 0.36748 0.25166 0.0
O746 O 0.92008 0.3569 0.31457 0.0
O747 O 0.9393 0.37835 0.29212 0.0
O748 O 0.88603 0.41232 0.28865 0.0
O749 O 0.914 0.4097 0.26765 0.0
O750 O 0.89363 0.3948 0.3285 0.0
O751 O 0.86134 0.41038 0.31796 0.0
H752 H 0.82217 0.40834 0.21871 0.0
H753 H 0.79389 0.40276 0.18873 0.0
H754 H 0.74942 0.38555 0.24554 0.0
H755 H 0.77771 0.39124 0.27559 0.0
H756 H 0.94635 0.33597 0.34607 0.0
H757 H 0.97332 0.33828 0.37817 0.0
H758 H 0.99406 0.39966 0.35022 0.0
H759 H 0.96727 0.39727 0.31814 0.0
Sm760 Sm 0.8678 0.60989 0.528 0.0
Sm761 Sm 0.87692 0.65668 0.54036 0.0
C762 C 0.855 0.57264 0.50983 0.0
C763 C 0.86047 0.556 0.49169 0.0
C764 C 0.84969 0.55557 0.46938 0.0
C765 C 0.85285 0.5386 0.45326 0.0
C766 C 0.86675 0.52155 0.45912 0.0
C767 C 0.87808 0.5223 0.48109 0.0
C768 C 0.8749 0.53929 0.49726 0.0
C769 C 0.90593 0.61607 0.55204 0.0
C770 C 0.88825 0.64137 0.48547 0.0
C771 C 0.89189 0.69222 0.56106 0.0
C772 C 0.88888 0.70593 0.58255 0.0
C773 C 0.90535 0.72008 0.58934 0.0
C774 C 0.90266 0.73392 0.60904 0.0
C775 C 0.88338 0.73393 0.62239 0.0
C776 C 0.86706 0.7193 0.61583 0.0
C777 C 0.86981 0.7054 0.59613 0.0
C778 C 0.83641 0.65006 0.52081 0.0
C779 C 0.85104 0.6263 0.58015 0.0
O780 O 0.84803 0.59123 0.50195 0.0
O781 O 0.86738 0.57431 0.52886 0.0
O782 O 0.89892 0.62817 0.53535 0.0
O783 O 0.89355 0.59954 0.55499 0.0
O784 O 0.87953 0.62274 0.49123 0.0
O785 O 0.89074 0.65694 0.5015 0.0
O786 O 0.90015 0.6732 0.56468 0.0
O787 O 0.87646 0.69213 0.54499 0.0
O788 O 0.84603 0.63795 0.53547 0.0
O789 O 0.84781 0.66726 0.5171 0.0
O790 O 0.86328 0.64348 0.57682 0.0
O791 O 0.84772 0.61248 0.56246 0.0
H792 H 0.83836 0.56809 0.4646 0.0
H793 H 0.84413 0.53867 0.43631 0.0
H794 H 0.88875 0.50933 0.48623 0.0
H795 H 0.88328 0.53897 0.51441 0.0
H796 H 0.92021 0.72068 0.57911 0.0
H797 H 0.91545 0.74509 0.61332 0.0
H798 H 0.85212 0.71863 0.62588 0.0
H799 H 0.85697 0.69443 0.59132 0.0
Sm800 Sm 0.65202 0.3928 0.75851 0.0
Sm801 Sm 0.60446 0.38404 0.75282 0.0
C802 C 0.69164 0.40368 0.77141 0.0
C803 C 0.70765 0.39971 0.79064 0.0
C804 C 0.70325 0.40425 0.81502 0.0
C805 C 0.71918 0.40137 0.8326 0.0
C806 C 0.73974 0.39379 0.82616 0.0
C807 C 0.74388 0.38872 0.80187 0.0
C808 C 0.72802 0.39175 0.78428 0.0
C809 C 0.64312 0.35546 0.73454 0.0
C810 C 0.62426 0.37504 0.80591 0.0
C811 C 0.56662 0.37025 0.7367 0.0
C812 C 0.55249 0.37195 0.71526 0.0
C813 C 0.54275 0.35335 0.70609 0.0
C814 C 0.52871 0.35448 0.68636 0.0
C815 C 0.52398 0.37431 0.67534 0.0
C816 C 0.53407 0.39293 0.68437 0.0
C817 C 0.54821 0.39176 0.70407 0.0
C818 C 0.61386 0.42453 0.77043 0.0
C819 C 0.63136 0.40813 0.70817 0.0
O820 O 0.67464 0.41518 0.77675 0.0
O821 O 0.68733 0.38754 0.75716 0.0
O822 O 0.63308 0.36172 0.75327 0.0
O823 O 0.65877 0.36831 0.72922 0.0
O824 O 0.64176 0.38432 0.79731 0.0
O825 O 0.60769 0.37069 0.79173 0.0
O826 O 0.58451 0.35947 0.73403 0.0
O827 O 0.56893 0.38732 0.75021 0.0
O828 O 0.62366 0.41475 0.75391 0.0
O829 O 0.59784 0.41298 0.77819 0.0
O830 O 0.61402 0.39701 0.7145 0.0
O831 O 0.6473 0.41135 0.72347 0.0
H832 H 0.68764 0.41025 0.8205 0.0
H833 H 0.71544 0.40517 0.85124 0.0
H834 H 0.7596 0.38306 0.79631 0.0
H835 H 0.73179 0.38819 0.76558 0.0
H836 H 0.54591 0.33788 0.71433 0.0
H837 H 0.52164 0.33975 0.67969 0.0
H838 H 0.53069 0.40852 0.67658 0.0
H839 H 0.55559 0.40637 0.71069 0.0
Sm840 Sm 0.86508 0.40369 1.00878 0.0
Sm841 Sm 0.87597 0.35685 1.00006 0.0
C842 C 0.85214 0.44192 0.02402 0.0
C843 C 0.85675 0.45791 0.04303 0.0
C844 C 0.85459 0.45294 0.0677 0.0
C845 C 0.85798 0.46875 0.08523 0.0
C846 C 0.86369 0.48978 0.07846 0.0
C847 C 0.86632 0.49456 0.05382 0.0
C848 C 0.86278 0.4788 0.03629 0.0
C849 C 0.90409 0.39741 0.98654 0.0
C850 C 0.88283 0.37444 0.05476 0.0
C851 C 0.89244 0.32098 0.98163 0.0
C852 C 0.88966 0.30647 0.96081 0.0
C853 C 0.90598 0.29178 0.95513 0.0
C854 C 0.90353 0.27745 0.93583 0.0
C855 C 0.88464 0.2775 0.9218 0.0
C856 C 0.86847 0.29262 0.9273 0.0
C857 C 0.87097 0.30699 0.94659 0.0
C858 C 0.83484 0.36318 1.01771 0.0
C859 C 0.85016 0.3847 0.95735 0.0
O860 O 0.8429 0.42392 0.03048 0.0
O861 O 0.86691 0.43929 1.00748 0.0
O862 O 0.89712 0.38611 1.00397 0.0
O863 O 0.89097 0.41293 0.9816 0.0
O864 O 0.87296 0.39188 0.04701 0.0
O865 O 0.88856 0.35899 0.03961 0.0
O866 O 0.89997 0.34012 0.97693 0.0
O867 O 0.87707 0.32122 0.9978 0.0
O868 O 0.84438 0.37472 1.00242 0.0
O869 O 0.84655 0.34651 0.02297 0.0
O870 O 0.86228 0.36772 0.96242 0.0
O871 O 0.84633 0.39954 0.97379 0.0
H872 H 0.85007 0.43695 0.07348 0.0
H873 H 0.85608 0.46453 0.10412 0.0
H874 H 0.87048 0.51065 0.04803 0.0
H875 H 0.86445 0.48303 1.01737 0.0
H876 H 0.92055 0.29119 0.96585 0.0
H877 H 0.91619 0.26591 0.93236 0.0
H878 H 0.85384 0.29334 0.9167 0.0
H879 H 0.85826 0.31838 0.95054 0.0
Sm880 Sm 0.86069 0.61438 0.26429 0.0
Sm881 Sm 0.9076 0.62295 0.25137 0.0
C882 C 0.82335 0.60186 0.28267 0.0
C883 C 0.80675 0.60761 0.30077 0.0
C884 C 0.80825 0.60013 0.32468 0.0
C885 C 0.79144 0.60361 0.34101 0.0
C886 C 0.77271 0.61455 0.33378 0.0
C887 C 0.77148 0.62259 0.31009 0.0
C888 C 0.78826 0.61905 0.29372 0.0
C889 C 0.86692 0.65214 0.23972 0.0
C890 C 0.89262 0.63481 0.3063 0.0
C891 C 0.94343 0.63725 0.23059 0.0
C892 C 0.95744 0.63472 0.20914 0.0
C893 C 0.96414 0.65313 0.19659 0.0
C894 C 0.9786 0.65155 0.17729 0.0
C895 C 0.98682 0.63148 0.17009 0.0
C896 C 0.97965 0.61296 0.18235 0.0
C897 C 0.96512 0.61456 0.20167 0.0
C898 C 0.90053 0.58275 0.27128 0.0
C899 C 0.87654 0.59751 0.21196 0.0
O900 O 0.84197 0.59485 0.29052 0.0
O901 O 0.82503 0.61411 0.26355 0.0
O902 O 0.87923 0.64524 0.25631 0.0
O903 O 0.85021 0.63992 0.23728 0.0
O904 O 0.87382 0.62629 0.30081 0.0
O905 O 0.90816 0.63695 0.29011 0.0
O906 O 0.92457 0.64605 0.22723 0.0
O907 O 0.94308 0.62176 0.24657 0.0
O908 O 0.88849 0.59244 0.25663 0.0
O909 O 0.91798 0.59384 0.27474 0.0
O910 O 0.89394 0.60951 0.21504 0.0
O911 O 0.86286 0.59428 0.22987 0.0
H912 H 0.82217 0.59113 0.33068 0.0
H913 H 0.79299 0.59746 0.35925 0.0
H914 H 0.75718 0.63088 0.30391 0.0
H915 H 0.78647 0.62478 0.27534 0.0
H916 H 0.95841 0.66885 0.20197 0.0
H917 H 0.98339 0.66612 0.16804 0.0
H918 H 0.98574 0.59726 0.17749 0.0
H919 H 0.96021 0.60007 0.21101 0.0
Sm920 Sm 0.6439 0.60759 0.51341 0.0
Sm921 Sm 0.6338 0.65441 0.50172 0.0
C922 C 0.6583 0.57035 0.53004 0.0
C923 C 0.65289 0.55254 0.54637 0.0
C924 C 0.66234 0.53248 0.54224 0.0
C925 C 0.65797 0.51523 0.55758 0.0
C926 C 0.64406 0.51772 0.57745 0.0
C927 C 0.6342 0.5378 0.58124 0.0
C928 C 0.63859 0.55512 0.5658 0.0
C929 C 0.6051 0.61323 0.49052 0.0
C930 C 0.6241 0.63837 0.55687 0.0
C931 C 0.6176 0.68985 0.48192 0.0
C932 C 0.61985 0.7037 0.46043 0.0
C933 C 0.60348 0.71838 0.45488 0.0
C934 C 0.6055 0.73226 0.43509 0.0
C935 C 0.62399 0.73176 0.42041 0.0
C936 C 0.64017 0.71659 0.42575 0.0
C937 C 0.63811 0.70268 0.44556 0.0
C938 C 0.67479 0.64818 0.52013 0.0
C939 C 0.65927 0.62487 0.46096 0.0
O940 O 0.66318 0.58886 0.53984 0.0
O941 O 0.6466 0.57216 0.51053 0.0
O942 O 0.61236 0.62546 0.50695 0.0
O943 O 0.61748 0.59672 0.48755 0.0
O944 O 0.63277 0.61984 0.55065 0.0
O945 O 0.6211 0.65408 0.54108 0.0
O946 O 0.60964 0.6707 0.47838 0.0
O947 O 0.63345 0.68991 0.49747 0.0
O948 O 0.66501 0.63605 0.50565 0.0
O949 O 0.66332 0.66528 0.52416 0.0
O950 O 0.64703 0.64196 0.46477 0.0
O951 O 0.66318 0.61097 0.47844 0.0
H952 H 0.67326 0.53017 0.52718 0.0
H953 H 0.66555 0.49992 0.55388 0.0
H954 H 0.62354 0.54029 0.59648 0.0
H955 H 0.63105 0.57051 0.56916 0.0
H956 H 0.58923 0.71935 0.46612 0.0
H957 H 0.59284 0.74384 0.43177 0.0
H958 H 0.6545 0.71551 0.41467 0.0
H959 H 0.65085 0.6913 0.44942 0.0
Sm960 Sm 0.40331 0.38104 0.25046 0.0
Sm961 Sm 0.35703 0.39321 0.26265 0.0
C962 C 0.43796 0.36389 0.22987 0.0
C963 C 0.4526 0.36759 0.2093 0.0
C964 C 0.46685 0.3513 0.20225 0.0
C965 C 0.48125 0.35458 0.18313 0.0
C966 C 0.48172 0.37428 0.17065 0.0
C967 C 0.46707 0.39046 0.17754 0.0
C968 C 0.45262 0.38713 0.19666 0.0
C969 C 0.39892 0.42257 0.26739 0.0
C970 C 0.37349 0.40651 0.20947 0.0
C971 C 0.32031 0.40788 0.28072 0.0
C972 C 0.30324 0.40262 0.29839 0.0
C973 C 0.2994 0.41668 0.31771 0.0
C974 C 0.28227 0.4131 0.33357 0.0
C975 C 0.26844 0.39545 0.33037 0.0
C976 C 0.2726 0.38106 0.31134 0.0
C977 C 0.28981 0.38461 0.29548 0.0
C978 C 0.36135 0.35313 0.24216 0.0
C979 C 0.38859 0.37512 0.30621 0.0
O980 O 0.41828 0.35819 0.22455 0.0
O981 O 0.43884 0.37766 0.2477 0.0
O982 O 0.38611 0.413 0.25347 0.0
O983 O 0.41577 0.41071 0.27138 0.0
O984 O 0.39028 0.39383 0.21342 0.0
O985 O 0.36001 0.41141 0.22705 0.0
O986 O 0.33918 0.41329 0.28925 0.0
O987 O 0.32153 0.3962 0.26114 0.0
O988 O 0.37392 0.36091 0.25789 0.0
O989 O 0.34513 0.36576 0.23867 0.0
O990 O 0.37151 0.38641 0.30002 0.0
O991 O 0.4023 0.36788 0.28979 0.0
H992 H 0.46702 0.33609 0.21176 0.0
H993 H 0.49242 0.34187 0.17856 0.0
H994 H 0.46676 0.40572 0.16816 0.0
H995 H 0.44159 0.39983 0.20168 0.0
H996 H 0.30948 0.43068 0.32033 0.0
H997 H 0.27981 0.42428 0.3483 0.0
H998 H 0.26219 0.36739 0.30825 0.0
H999 H 0.29229 0.37349 0.2807 0.0
Sm1000 Sm 0.37958 0.65238 1.00125 0.0
Sm1001 Sm 0.36754 0.6059 1.01222 0.0
C1002 C 0.39672 0.68735 0.98137 0.0
C1003 C 0.3932 0.7023 0.96103 0.0
C1004 C 0.4099 0.71604 0.95382 0.0
C1005 C 0.40685 0.73073 0.93494 0.0
C1006 C 0.38696 0.73203 0.92285 0.0
C1007 C 0.37035 0.71792 0.9299 0.0
C1008 C 0.37345 0.70317 0.94877 0.0
C1009 C 0.33792 0.64738 1.0177 0.0
C1010 C 0.35402 0.62338 0.95941 0.0
C1011 C 0.35313 0.56865 0.02898 0.0
C1012 C 0.35806 0.55175 0.04701 0.0
C1013 C 0.35081 0.55354 0.07099 0.0
C1014 C 0.35382 0.53667 0.08733 0.0
C1015 C 0.36408 0.51761 0.08005 0.0
C1016 C 0.3718 0.51601 0.05625 0.0
C1017 C 0.36871 0.53285 0.03987 0.0
C1018 C 0.40762 0.61068 0.99186 0.0
C1019 C 0.38487 0.63665 0.05693 0.0
O1020 O 0.4026 0.66782 0.97578 0.0
O1021 O 0.38278 0.6879 0.99909 0.0
O1022 O 0.34775 0.63497 1.00361 0.0
O1023 O 0.34955 0.66428 0.02207 0.0
O1024 O 0.36651 0.64022 0.96387 0.0
O1025 O 0.34944 0.60937 0.97657 0.0
O1026 O 0.34636 0.58727 0.0369 0.0
O1027 O 0.36605 0.57035 1.01043 0.0
O1028 O 0.39993 0.62296 1.00796 0.0
O1029 O 0.39484 0.59471 0.98777 0.0
O1030 O 0.3742 0.61941 0.05005 0.0
O1031 O 0.39191 0.65095 0.04101 0.0
H1032 H 0.42528 0.71558 0.96302 0.0
H1033 H 0.41991 0.74146 0.93026 0.0
H1034 H 0.35492 0.71824 0.92081 0.0
H1035 H 0.36041 0.69255 0.95389 0.0
H1036 H 0.34244 0.5678 0.07708 0.0
H1037 H 0.34793 0.53849 0.10564 0.0
H1038 H 0.37955 0.50145 0.05003 0.0
H1039 H 0.37423 0.53085 1.02143 0.0
Sm1040 Sm 0.10734 0.62808 0.74907 0.0
Sm1041 Sm 0.1541 0.61645 0.76081 0.0
C1042 C 0.07247 0.64507 0.72871 0.0
C1043 C 0.05758 0.64181 0.70825 0.0
C1044 C 0.04384 0.65858 0.70131 0.0
C1045 C 0.02918 0.65581 0.68233 0.0
C1046 C 0.02792 0.63615 0.66988 0.0
C1047 C 0.04204 0.61947 0.67667 0.0
C1048 C 0.05675 0.62229 0.69564 0.0
C1049 C 0.1125 0.58687 0.76653 0.0
C1050 C 0.13703 0.6022 0.70805 0.0
C1051 C 0.19143 0.60276 0.77834 0.0
C1052 C 0.20795 0.60765 0.79688 0.0
C1053 C 0.20573 0.60017 0.82074 0.0
C1054 C 0.22234 0.60301 0.83748 0.0
C1055 C 0.24158 0.61332 0.83077 0.0
C1056 C 0.24357 0.62131 0.80712 0.0
C1057 C 0.22699 0.6184 0.79033 0.0
C1058 C 0.14889 0.65615 0.73976 0.0
C1059 C 0.12263 0.63438 0.80462 0.0
O1060 O 0.0921 0.65095 0.72332 0.0
O1061 O 0.07175 0.63105 0.74633 0.0
O1062 O 0.12503 0.59652 0.75234 0.0
O1063 O 0.0954 0.59839 0.77043 0.0
O1064 O 0.12005 0.61462 0.71216 0.0
O1065 O 0.15107 0.59798 0.72533 0.0
O1066 O 0.17277 0.59542 0.78561 0.0
O1067 O 0.18981 0.61594 0.76004 0.0
O1068 O 0.13668 0.64844 0.75592 0.0
O1069 O 0.16506 0.64355 0.73583 0.0
O1070 O 0.13987 0.62337 0.79832 0.0
O1071 O 0.10857 0.64127 0.78837 0.0
H1072 H 0.04427 0.67379 0.71078 0.0
H1073 H 0.01844 0.66892 0.67787 0.0
H1074 H 0.04175 0.60421 0.6673 0.0
H1075 H 0.06737 0.6092 0.70057 0.0
H1076 H 0.19135 0.59172 0.82639 0.0
H1077 H 0.2202 0.5969 0.85566 0.0
H1078 H 0.25826 0.62912 0.8013 0.0
H1079 H 0.22933 0.6241 0.77201 0.0
Sm1080 Sm 0.13389 0.35551 0.5036 0.0
Sm1081 Sm 0.14168 0.40364 0.50987 0.0
C1082 C 0.12055 0.31776 0.48687 0.0
C1083 C 0.12353 0.30285 0.46613 0.0
C1084 C 0.11597 0.30781 0.44277 0.0
C1085 C 0.11809 0.29297 0.42381 0.0
C1086 C 0.12788 0.27289 0.42773 0.0
C1087 C 0.13535 0.26801 0.45113 0.0
C1088 C 0.13314 0.28275 0.47005 0.0
C1089 C 0.17446 0.36581 0.52043 0.0
C1090 C 0.1567 0.38358 0.45881 0.0
C1091 C 0.15196 0.44356 0.52195 0.0
C1092 C 0.15107 0.4593 0.54176 0.0
C1093 C 0.16648 0.47569 0.5425 0.0
C1094 C 0.16516 0.49189 0.55988 0.0
C1095 C 0.14833 0.49205 0.5769 0.0
C1096 C 0.13303 0.47538 0.57633 0.0
C1097 C 0.13442 0.4591 0.55893 0.0
C1098 C 0.10434 0.39325 0.48631 0.0
C1099 C 0.12626 0.37461 0.55723 0.0
O1100 O 0.1104 0.33584 0.48295 0.0
O1101 O 0.13656 0.31985 0.50204 0.0
O1102 O 0.16403 0.37571 0.50448 0.0
O1103 O 0.16371 0.34909 0.52774 0.0
O1104 O 0.14664 0.3657 0.46542 0.0
O1105 O 0.15915 0.39981 0.4739 0.0
O1106 O 0.16531 0.42742 0.52416 0.0
O1107 O 0.13363 0.43817 0.51208 0.0
O1108 O 0.1113 0.38369 0.50498 0.0
O1109 O 0.11653 0.40936 0.4807 0.0
O1110 O 0.13575 0.39208 0.54887 0.0
O1111 O 0.12073 0.35868 0.54265 0.0
H1112 H 0.10834 0.3231 0.43911 0.0
H1113 H 0.1123 0.29734 0.40601 0.0
H1114 H 0.14263 0.25258 0.45497 0.0
H1115 H 0.13881 0.27831 0.48789 0.0
H1116 H 0.17935 0.4762 0.52928 0.0
H1117 H 0.17706 0.50459 0.55962 0.0
H1118 H 0.12005 0.47488 0.58938 0.0
H1119 H 0.12236 0.44654 0.55868 0.0
Sm1120 Sm 0.40408 0.62427 0.29279 0.0
Sm1121 Sm 0.35679 0.61358 0.2836 0.0
C1122 C 0.43998 0.64029 0.31185 0.0
C1123 C 0.45454 0.63737 0.33272 0.0
C1124 C 0.46834 0.65415 0.33943 0.0
C1125 C 0.48272 0.65166 0.35873 0.0
C1126 C 0.48364 0.63225 0.37176 0.0
C1127 C 0.46943 0.61558 0.36522 0.0
C1128 C 0.455 0.61812 0.34592 0.0
C1129 C 0.39762 0.58354 0.27447 0.0
C1130 C 0.37584 0.59848 0.3352 0.0
C1131 C 0.31896 0.59964 0.26774 0.0
C1132 C 0.3023 0.60402 0.2495 0.0
C1133 C 0.28399 0.59095 0.24886 0.0
C1134 C 0.26779 0.59467 0.23187 0.0
C1135 C 0.26957 0.61155 0.21506 0.0
C1136 C 0.28793 0.62482 0.21592 0.0
C1137 C 0.30419 0.62106 0.23302 0.0
C1138 C 0.36325 0.65222 0.30637 0.0
C1139 C 0.38591 0.63387 0.23858 0.0
O1140 O 0.4208 0.64783 0.3165 0.0
O1141 O 0.43979 0.62517 0.29545 0.0
O1142 O 0.3859 0.59293 0.28974 0.0
O1143 O 0.41441 0.59522 0.26952 0.0
O1144 O 0.39303 0.6103 0.33012 0.0
O1145 O 0.36078 0.59492 0.31887 0.0
O1146 O 0.33738 0.59215 0.25998 0.0
O1147 O 0.3211 0.61379 0.285 0.0
O1148 O 0.37462 0.64524 0.28901 0.0
O1149 O 0.34723 0.63948 0.31071 0.0
O1150 O 0.36822 0.62408 0.24589 0.0
O1151 O 0.40198 0.63787 0.25367 0.0
H1152 H 0.46819 0.66916 0.32951 0.0
H1153 H 0.49353 0.66475 0.36299 0.0
H1154 H 0.46944 0.60052 0.37502 0.0
H1155 H 0.44432 0.60503 0.3412 0.0
H1156 H 0.28219 0.57783 0.26158 0.0
H1157 H 0.25375 0.58437 0.23205 0.0
H1158 H 0.28993 0.63783 0.20313 0.0
H1159 H 0.31822 0.63137 0.23334 0.0
Sm1160 Sm 0.13826 0.66119 0.03894 0.0
Sm1161 Sm 0.14686 0.61026 0.0295 0.0
C1162 C 0.12558 0.69867 0.05689 0.0
C1163 C 0.12489 0.71016 0.08029 0.0
C1164 C 0.10987 0.72668 0.08381 0.0
C1165 C 0.11044 0.73927 0.10481 0.0
C1166 C 0.12615 0.73566 0.1227 0.0
C1167 C 0.14063 0.71847 0.1195 0.0
C1168 C 0.13999 0.70585 0.09854 0.0
C1169 C 0.17702 0.65069 1.01795 0.0
C1170 C 0.16223 0.63107 0.08127 0.0
C1171 C 0.16386 0.57358 1.01485 0.0
C1172 C 0.15856 0.55474 0.99994 0.0
C1173 C 0.17053 0.53587 1.0028 0.0
C1174 C 0.16688 0.51823 0.98773 0.0
C1175 C 0.15118 0.51913 0.96943 0.0
C1176 C 0.13869 0.5379 0.96714 0.0
C1177 C 0.14237 0.55558 0.98226 0.0
C1178 C 0.1059 0.61747 0.04801 0.0
C1179 C 0.12689 0.64106 0.98546 0.0
O1180 O 0.11253 0.68236 0.05404 0.0
O1181 O 0.14469 0.69528 0.04769 0.0
O1182 O 0.16735 0.64002 0.03403 0.0
O1183 O 0.16641 0.66823 1.01308 0.0
O1184 O 0.15232 0.64939 0.0758 0.0
O1185 O 0.16362 0.61481 0.06594 0.0
O1186 O 0.16643 0.59183 1.00332 0.0
O1187 O 0.15357 0.57559 0.03544 0.0
O1188 O 0.12011 0.6308 0.04219 0.0
O1189 O 0.11296 0.59843 0.04259 0.0
O1190 O 0.13638 0.62302 0.99237 0.0
O1191 O 0.12374 0.65755 1.00034 0.0
H1192 H 0.0981 0.7303 0.06995 0.0
H1193 H 0.09917 0.75245 0.10651 0.0
H1194 H 0.15273 0.71499 0.13303 0.0
H1195 H 0.15167 0.6931 0.0963 0.0
H1196 H 0.18301 0.53489 1.01643 0.0
H1197 H 0.17655 0.50394 0.99027 0.0
H1198 H 0.1266 0.53922 0.95312 0.0
H1199 H 0.13293 0.57004 0.97981 0.0
Sm1200 Sm 0.10952 0.38535 0.79342 0.0
Sm1201 Sm 0.15634 0.39706 0.78387 0.0
C1202 C 0.07401 0.3691 0.81316 0.0
C1203 C 0.05836 0.37291 0.83311 0.0
C1204 C 0.06199 0.36472 0.8565 0.0
C1205 C 0.04661 0.36739 0.87484 0.0
C1206 C 0.0272 0.37829 0.87025 0.0
C1207 C 0.02358 0.38635 0.8468 0.0
C1208 C 0.0389 0.38364 0.8285 0.0
C1209 C 0.11474 0.42616 0.77487 0.0
C1210 C 0.13746 0.41223 0.83531 0.0
C1211 C 0.19377 0.41076 0.76663 0.0
C1212 C 0.21041 0.40514 0.74847 0.0
C1213 C 0.2132 0.41823 0.72804 0.0
C1214 C 0.2298 0.41418 0.7116 0.0
C1215 C 0.24415 0.39699 0.71526 0.0
C1216 C 0.24109 0.38362 0.73547 0.0
C1217 C 0.22444 0.38767 0.75193 0.0
C1218 C 0.15088 0.35797 0.80612 0.0
C1219 C 0.12738 0.37655 0.73906 0.0
O1220 O 0.09346 0.36294 0.81901 0.0
O1221 O 0.07384 0.3824 0.79483 0.0
O1222 O 0.12683 0.41718 0.79008 0.0
O1223 O 0.09821 0.41404 0.77023 0.0
O1224 O 0.12058 0.39986 0.83053 0.0
O1225 O 0.15222 0.41613 0.81873 0.0
O1226 O 0.17517 0.4176 0.75859 0.0
O1227 O 0.19196 0.39841 0.78565 0.0
O1228 O 0.13924 0.36493 0.78902 0.0
O1229 O 0.16666 0.37098 0.81047 0.0
O1230 O 0.14462 0.38712 0.74623 0.0
O1231 O 0.11181 0.37149 0.75443 0.0
H1232 H 0.07666 0.35609 0.86065 0.0
H1233 H 0.05002 0.36108 0.89268 0.0
H1234 H 0.00867 0.39446 0.84241 0.0
H1235 H 0.03535 0.38978 0.81061 0.0
H1236 H 0.20271 0.43185 0.72494 0.0
H1237 H 0.23144 0.42459 0.69602 0.0
H1238 H 0.25194 0.37037 0.73898 0.0
H1239 H 0.22286 0.37732 0.76757 0.0
Sm1240 Sm 0.37448 0.3499 0.54015 0.0
Sm1241 Sm 0.36824 0.40144 0.5328 0.0
C1242 C 0.38534 0.31124 0.55639 0.0
C1243 C 0.38401 0.29755 0.57836 0.0
C1244 C 0.39521 0.30245 0.5998 0.0
C1245 C 0.39392 0.28876 0.61996 0.0
C1246 C 0.38132 0.26997 0.61915 0.0
C1247 C 0.37034 0.26511 0.59759 0.0
C1248 C 0.37172 0.27867 0.5775 0.0
C1249 C 0.33536 0.36343 0.52231 0.0
C1250 C 0.35417 0.38025 0.58487 0.0
C1251 C 0.35232 0.43868 0.51838 0.0
C1252 C 0.35677 0.45652 0.50137 0.0
C1253 C 0.34197 0.46081 0.48285 0.0
C1254 C 0.34525 0.47787 0.46687 0.0
C1255 C 0.36336 0.49128 0.46911 0.0
C1256 C 0.37834 0.48687 0.48756 0.0
C1257 C 0.37508 0.46968 0.50354 0.0
C1258 C 0.40937 0.39151 0.54894 0.0
C1259 C 0.38584 0.37079 0.48724 0.0
O1260 O 0.39852 0.32767 0.55648 0.0
O1261 O 0.36726 0.31525 0.54511 0.0
O1262 O 0.34645 0.37273 0.53824 0.0
O1263 O 0.34475 0.34573 0.51552 0.0
O1264 O 0.36211 0.36136 0.57792 0.0
O1265 O 0.35358 0.39725 0.57047 0.0
O1266 O 0.34685 0.42024 0.50871 0.0
O1267 O 0.36465 0.43667 0.53754 0.0
O1268 O 0.39438 0.37919 0.54276 0.0
O1269 O 0.40304 0.41111 0.54499 0.0
O1270 O 0.37717 0.38898 0.49495 0.0
O1271 O 0.38869 0.35386 0.50156 0.0
H1272 H 0.40494 0.31683 0.60103 0.0
H1273 H 0.4025 0.29303 0.6363 0.0
H1274 H 0.36083 0.2506 0.59608 0.0
H1275 H 0.36318 0.27429 0.56115 0.0
H1276 H 0.32773 0.45094 0.48075 0.0
H1277 H 0.33358 0.48044 0.45262 0.0
H1278 H 0.39238 0.49694 0.48995 0.0
H1279 H 0.38679 0.46682 0.51767 0.0
H1280 H 0.26612 0.15202 0.20305 0.0
H1281 H 0.33274 0.09058 0.10034 0.0
H1282 H 0.2526 0.08789 0.1778 0.0
H1283 H 0.34121 0.15817 0.11465 0.0
H1284 H 0.30681 0.08857 0.13312 0.0
H1285 H 0.29644 0.15399 0.17459 0.0
C1286 C 0.26957 0.13836 0.19158 0.0
C1287 C 0.25669 0.11983 0.19263 0.0
C1288 C 0.31439 0.10386 0.12928 0.0
C1289 C 0.29133 0.12193 0.16029 0.0
C1290 C 0.3293 0.105 0.11057 0.0
C1291 C 0.339 0.12463 0.10455 0.0
C1292 C 0.30894 0.12249 0.14214 0.0
C1293 C 0.33408 0.14272 0.11867 0.0
C1294 C 0.28682 0.13952 0.17534 0.0
C1295 C 0.26182 0.10264 0.17732 0.0
N1296 N 0.31918 0.14127 0.1367 0.0
N1297 N 0.2787 0.10411 0.16185 0.0
H1298 H 0.1035 0.08909 0.3656 0.0
H1299 H 0.18175 0.00633 0.4335 0.0
H1300 H 0.17007 0.07833 0.3469 0.0
H1301 H 0.11416 0.01186 0.45033 0.0
H1302 H 0.17786 0.03473 0.40359 0.0
H1303 H 0.10728 0.06324 0.39892 0.0
C1304 C 0.11896 0.08154 0.36868 0.0
C1305 C 0.13647 0.08578 0.35334 0.0
C1306 C 0.16384 0.02982 0.41381 0.0
C1307 C 0.14083 0.05616 0.39118 0.0
C1308 C 0.16608 0.01362 0.43101 0.0
C1309 C 0.14828 0.00672 0.44456 0.0
C1310 C 0.14362 0.0393 0.40997 0.0
C1311 C 0.12829 0.01654 0.44015 0.0
C1312 C 0.12106 0.06669 0.38759 0.0
C1313 C 0.15608 0.07545 0.3581 0.0
N1314 N 0.12649 0.03236 0.42325 0.0
N1315 N 0.15768 0.0611 0.37648 0.0
H1316 H 0.2496 0.92878 0.69075 0.0
H1317 H 0.17244 0.85106 0.61442 0.0
H1318 H 0.25056 0.85986 0.69888 0.0
H1319 H 0.17768 0.91954 0.60406 0.0
H1320 H 0.19811 0.85366 0.64816 0.0
H1321 H 0.22073 0.92537 0.66139 0.0
C1322 C 0.24361 0.91289 0.6865 0.0
C1323 C 0.2525 0.89459 0.69743 0.0
C1324 C 0.19345 0.86811 0.6386 0.0
C1325 C 0.21937 0.8905 0.66336 0.0
C1326 C 0.17868 0.86666 0.6195 0.0
C1327 C 0.17304 0.8851 0.60633 0.0
C1328 C 0.20243 0.88815 0.64457 0.0
C1329 C 0.18173 0.90487 0.61354 0.0
C1330 C 0.22714 0.91093 0.66959 0.0
C1331 C 0.24432 0.8744 0.69075 0.0
N1332 N 0.19601 0.90583 0.63203 0.0
N1333 N 0.22819 0.87288 0.67414 0.0
H1334 H 0.41015 0.91721 0.86634 0.0
H1335 H 0.34241 0.0137 0.92292 0.0
H1336 H 0.34388 0.93118 0.84893 0.0
H1337 H 0.39989 0.99002 0.9576 0.0
H1338 H 0.34469 0.98453 0.89376 0.0
H1339 H 0.40831 0.94395 0.89908 0.0
C1340 C 0.39517 0.92561 0.8696 0.0
C1341 C 0.37722 0.92212 0.85468 0.0
C1342 C 0.35683 0.98563 0.90774 0.0
C1343 C 0.37515 0.9528 0.89162 0.0
C1344 C 0.35564 1.00243 0.92426 0.0
C1345 C 0.37104 1.00437 0.94263 0.0
C1346 C 0.37366 0.97062 0.90936 0.0
C1347 C 0.38763 0.98904 0.94374 0.0
C1348 C 0.39416 0.94092 0.88819 0.0
C1349 C 0.35824 0.9335 0.8597 0.0
N1350 N 0.38859 0.97284 0.92722 0.0
N1351 N 0.35779 0.94841 0.8775 0.0
H1352 H 0.33495 0.92073 0.44002 0.0
H1353 H 0.26118 0.86115 0.34251 0.0
H1354 H 0.33903 0.85255 0.42715 0.0
H1355 H 0.26304 0.92975 0.35322 0.0
H1356 H 0.29036 0.8572 0.37211 0.0
H1357 H 0.31011 0.92406 0.40626 0.0
C1358 C 0.3308 0.90646 0.42983 0.0
C1359 C 0.33899 0.88633 0.43645 0.0
C1360 C 0.28445 0.8731 0.36782 0.0
C1361 C 0.31007 0.88993 0.39788 0.0
C1362 C 0.26769 0.87536 0.35108 0.0
C1363 C 0.25963 0.89583 0.3453 0.0
C1364 C 0.2931 0.89143 0.37898 0.0
C1365 C 0.26887 0.91369 0.35678 0.0
C1366 C 0.31654 0.90835 0.41056 0.0
C1367 C 0.33314 0.8684 0.42255 0.0
N1368 N 0.28499 0.91105 0.37306 0.0
N1369 N 0.31878 0.87056 0.40406 0.0
H1370 H 0.39737 0.00895 0.5929 0.0
H1371 H 0.33853 0.0838 0.68989 0.0
H1372 H 0.32865 0.01138 0.60386 0.0
H1373 H 0.40685 0.0871 0.67664 0.0
H1374 H 0.33484 0.05887 0.65632 0.0
H1375 H 0.40159 0.03833 0.62208 0.0
C1376 C 0.38319 0.01563 0.60143 0.0
C1377 C 0.36261 0.00766 0.59586 0.0
C1378 C 0.35065 0.06516 0.66049 0.0
C1379 C 0.36731 0.04138 0.62907 0.0
C1380 C 0.35275 0.07948 0.67965 0.0
C1381 C 0.37303 0.08745 0.68613 0.0
C1382 C 0.36901 0.05844 0.64778 0.0
C1383 C 0.39089 0.08137 0.67216 0.0
C1384 C 0.3856 0.03251 0.61793 0.0
C1385 C 0.3448 0.01713 0.60727 0.0
N1386 N 0.38852 0.06697 0.6538 0.0
N1387 N 0.34758 0.03336 0.62333 0.0
H1388 H 0.17288 0.15649 0.92873 0.0
H1389 H 0.25565 0.07734 0.86227 0.0
H1390 H 0.18181 0.08959 0.94649 0.0
H1391 H 0.25013 0.14445 0.84378 0.0
H1392 H 0.22681 0.08165 0.89156 0.0
H1393 H 0.19888 0.15243 0.89551 0.0
C1394 C 0.18003 0.14091 0.92543 0.0
C1395 C 0.17528 0.12339 0.94051 0.0
C1396 C 0.2318 0.09548 0.8811 0.0
C1397 C 0.20509 0.11871 0.90285 0.0
C1398 C 0.24825 0.09299 0.86424 0.0
C1399 C 0.25529 0.11052 0.8504 0.0
C1400 C 0.22219 0.11569 0.88435 0.0
C1401 C 0.24535 0.13053 0.8542 0.0
C1402 C 0.19497 0.13864 0.90659 0.0
C1403 C 0.18511 0.1036 0.9355 0.0
N1404 N 0.22928 0.13258 0.87082 0.0
N1405 N 0.19957 0.10185 0.91725 0.0
H1406 H 0.17184 0.92225 0.18746 0.0
H1407 H 0.11068 1.00133 0.09706 0.0
H1408 H 0.10291 0.9212 0.17853 0.0
H1409 H 0.1797 0.99438 0.10066 0.0
H1410 H 0.10697 0.97146 0.12575 0.0
H1411 H 0.17466 0.94731 0.15383 0.0
C1412 C 0.1573 0.92707 0.17813 0.0
C1413 C 0.13712 0.91972 0.18583 0.0
C1414 C 0.12289 0.97639 0.12007 0.0
C1415 C 0.14013 0.94889 0.14753 0.0
C1416 C 0.12503 0.99354 0.10386 0.0
C1417 C 0.14553 1.00037 0.09641 0.0
C1418 C 0.14141 0.96615 0.12903 0.0
C1419 C 0.16356 0.98952 0.10561 0.0
C1420 C 0.15889 0.94146 0.15894 0.0
C1421 C 0.11879 0.92643 0.17306 0.0
N1422 N 0.16107 0.97309 0.12147 0.0
N1423 N 0.1207 0.94092 0.15471 0.0
H1424 H 0.7503 0.86189 0.84354 0.0
H1425 H 0.67999 0.92064 0.94508 0.0
H1426 H 0.75193 0.92993 0.85815 0.0
H1427 H 0.67324 0.85316 0.92912 0.0
H1428 H 0.70531 0.92408 0.91181 0.0
H1429 H 0.72174 0.85791 0.87391 0.0
C1430 C 0.74471 0.87597 0.85316 0.0
C1431 C 0.75352 0.8963 0.84821 0.0
C1432 C 0.69823 0.90851 0.91537 0.0
C1433 C 0.72076 0.89188 0.88277 0.0
C1434 C 0.6837 0.90654 0.93439 0.0
C1435 C 0.67457 0.88655 0.93999 0.0
C1436 C 0.70395 0.89032 0.90183 0.0
C1437 C 0.67988 0.86889 0.92538 0.0
C1438 C 0.72831 0.87371 0.87034 0.0
C1439 C 0.74546 0.914 0.86104 0.0
N1440 N 0.69443 0.87113 0.90709 0.0
N1441 N 0.72964 0.91136 0.87769 0.0
H1442 H 0.90066 1.00264 0.59726 0.0
H1443 H 0.84073 0.92239 0.68744 0.0
H1444 H 0.83202 0.99219 0.59847 0.0
H1445 H 0.90985 0.92397 0.68073 0.0
H1446 H 0.83778 0.94692 0.65337 0.0
H1447 H 0.905 0.97357 0.62687 0.0
C1448 C 0.88652 0.99425 0.60371 0.0
C1449 C 0.86593 0.99989 0.59533 0.0
C1450 C 0.85364 0.94179 0.65908 0.0
C1451 C 0.87081 0.96658 0.62904 0.0
C1452 C 0.85531 0.92773 0.67854 0.0
C1453 C 0.87556 0.92122 0.68697 0.0
C1454 C 0.87236 0.94978 0.64807 0.0
C1455 C 0.89393 0.92856 0.6747 0.0
C1456 C 0.88903 0.97756 0.62046 0.0
C1457 C 0.84822 0.98828 0.60412 0.0
N1458 N 0.89191 0.94272 0.65602 0.0
N1459 N 0.85107 0.97232 0.62052 0.0
H1460 H 0.76229 0.08028 0.35362 0.0
H1461 H 0.84136 0.15724 0.42842 0.0
H1462 H 0.76291 0.14909 0.34439 0.0
H1463 H 0.83343 0.08935 0.44122 0.0
H1464 H 0.81601 0.1546 0.39438 0.0
H1465 H 0.7913 0.0834 0.38288 0.0
C1466 C 0.76865 0.09608 0.35761 0.0
C1467 C 0.76016 0.11444 0.34642 0.0
C1468 C 0.82003 0.14027 0.40452 0.0
C1469 C 0.79344 0.1182 0.38034 0.0
C1470 C 0.83463 0.14174 0.42379 0.0
C1471 C 0.83939 0.1235 0.43773 0.0
C1472 C 0.81035 0.12042 0.39917 0.0
C1473 C 0.83007 0.10386 0.4311 0.0
C1474 C 0.78519 0.09787 0.37445 0.0
C1475 C 0.76883 0.13452 0.35274 0.0
N1476 N 0.81597 0.10288 0.41243 0.0
N1477 N 0.78501 0.13588 0.3693 0.0
H1478 H 0.68004 0.00844 0.10861 0.0
H1479 H 0.60385 0.09227 0.17724 0.0
H1480 H 0.61184 0.01315 0.09494 0.0
H1481 H 0.67202 0.08528 0.18987 0.0
H1482 H 0.60658 0.0662 0.14409 0.0
H1483 H 0.67743 0.0388 0.1361 0.0
C1484 C 0.66446 0.0158 0.11151 0.0
C1485 C 0.64608 0.00803 0.09967 0.0
C1486 C 0.62096 0.0706 0.15395 0.0
C1487 C 0.64299 0.04319 0.13103 0.0
C1488 C 0.61944 0.0856 0.17274 0.0
C1489 C 0.63771 0.0908 0.18646 0.0
C1490 C 0.64088 0.06087 0.1489 0.0
C1491 C 0.65747 0.08157 0.17995 0.0
C1492 C 0.663 0.03329 0.12708 0.0
C1493 C 0.62642 0.01862 0.10367 0.0
N1494 N 0.65848 0.06697 0.16181 0.0
N1495 N 0.62535 0.03558 0.11916 0.0
H1496 H 0.73888 0.14451 0.71087 0.0
H1497 H 0.68646 0.08858 0.59488 0.0
H1498 H 0.76523 0.08921 0.67445 0.0
H1499 H 0.66774 0.15203 0.61822 0.0
H1500 H 0.71212 0.0868 0.62788 0.0
H1501 H 0.7101 0.14611 0.68046 0.0
C1502 C 0.7386 0.13271 0.6965 0.0
C1503 C 0.75455 0.11676 0.69511 0.0
C1504 C 0.70237 0.10111 0.62592 0.0
C1505 C 0.72166 0.1184 0.66051 0.0
C1506 C 0.6876 0.10213 0.60708 0.0
C1507 C 0.67502 0.12059 0.60357 0.0
C1508 C 0.70472 0.11866 0.64157 0.0
C1509 C 0.67713 0.1375 0.62021 0.0
C1510 C 0.72222 0.13368 0.67916 0.0
C1511 C 0.75348 0.10196 0.67605 0.0
N1512 N 0.69184 0.13619 0.63845 0.0
N1513 N 0.73732 0.1031 0.65961 0.0
H1514 H 0.61184 0.99944 0.44691 0.0
H1515 H 0.67072 0.9215 0.35338 0.0
H1516 H 0.68075 0.99289 0.44059 0.0
H1517 H 0.60192 0.92119 0.36384 0.0
H1518 H 0.67438 0.94626 0.38714 0.0
H1519 H 0.60742 0.97014 0.41771 0.0
C1520 C 0.62602 0.99186 0.4394 0.0
C1521 C 0.6467 0.99864 0.44622 0.0
C1522 C 0.65847 0.94065 0.3823 0.0
C1523 C 0.64177 0.96506 0.41302 0.0
C1524 C 0.65638 0.92645 0.36303 0.0
C1525 C 0.63598 0.91938 0.35574 0.0
C1526 C 0.64 0.94813 0.39425 0.0
C1527 C 0.61796 0.92622 0.36895 0.0
C1528 C 0.62348 0.97503 0.42289 0.0
C1529 C 0.6645 0.98805 0.43614 0.0
N1530 N 0.62035 0.94048 0.38742 0.0
N1531 N 0.66161 0.97191 0.42001 0.0
H1532 H 0.83442 0.91977 0.10369 0.0
H1533 H 0.76614 0.85766 0.20457 0.0
H1534 H 0.84232 0.85208 0.11774 0.0
H1535 H 0.75545 0.9233 0.18266 0.0
H1536 H 0.79678 0.85577 0.17659 0.0
H1537 H 0.8089 0.92198 0.1369 0.0
C1538 C 0.83098 0.90538 0.11401 0.0
C1539 C 0.84035 0.88567 0.10779 0.0
C1540 C 0.78773 0.87058 0.17799 0.0
C1541 C 0.81072 0.88799 0.14577 0.0
C1542 C 0.77028 0.87169 0.19396 0.0
C1543 C 0.75807 0.89061 0.19578 0.0
C1544 C 0.79309 0.88859 0.16391 0.0
C1545 C 0.76411 0.90826 0.18154 0.0
C1546 C 0.8163 0.90663 0.13295 0.0
C1547 C 0.83545 0.8676 0.12196 0.0
N1548 N 0.78112 0.90679 0.16625 0.0
N1549 N 0.82072 0.86913 0.14015 0.0
H1550 H 0.84037 0.08581 0.85729 0.0
H1551 H 0.90077 0.0066 0.94846 0.0
H1552 H 0.90947 0.08497 0.86464 0.0
H1553 H 0.83186 0.01455 0.94481 0.0
H1554 H 0.90489 0.03571 0.91886 0.0
H1555 H 0.83746 0.0609 0.891 0.0
C1556 C 0.85496 0.08054 0.86623 0.0
C1557 C 0.87519 0.08738 0.85808 0.0
C1558 C 0.8889 0.03116 0.92471 0.0
C1559 C 0.87202 0.05841 0.89661 0.0
C1560 C 0.88652 0.01444 0.94146 0.0
C1561 C 0.86593 0.00811 0.94918 0.0
C1562 C 0.87054 0.04148 0.9155 0.0
C1563 C 0.84806 0.01903 0.93969 0.0
C1564 C 0.8533 0.06625 0.88549 0.0
C1565 C 0.89355 0.08013 0.87043 0.0
N1566 N 0.85079 0.03504 0.92333 0.0
N1567 N 0.89155 0.06578 0.88893 0.0
H1568 H 0.74589 0.59 0.67132 0.0
H1569 H 0.84542 0.65541 0.61726 0.0
H1570 H 0.77273 0.64514 0.70761 0.0
H1571 H 0.82591 0.59242 0.59309 0.0
H1572 H 0.81915 0.65285 0.65032 0.0
H1573 H 0.77466 0.59199 0.64148 0.0
C1574 C 0.75778 0.60265 0.67289 0.0
C1575 C 0.75685 0.6175 0.69189 0.0
C1576 C 0.82083 0.63954 0.63788 0.0
C1577 C 0.79009 0.61976 0.65787 0.0
C1578 C 0.83588 0.64094 0.61908 0.0
C1579 C 0.83776 0.62418 0.60223 0.0
C1580 C 0.80756 0.62132 0.63966 0.0
C1581 C 0.82492 0.60586 0.60545 0.0
C1582 C 0.77434 0.60366 0.65597 0.0
C1583 C 0.77294 0.63331 0.69328 0.0
N1584 N 0.81028 0.60502 0.6236 0.0
N1585 N 0.78887 0.63411 0.6764 0.0
H1586 H 0.60568 0.59416 0.86852 0.0
H1587 H 0.67532 0.49993 0.92764 0.0
H1588 H 0.6714 0.57957 0.84923 0.0
H1589 H 0.61523 0.52118 0.95855 0.0
H1590 H 0.67322 0.52892 0.89816 0.0
H1591 H 0.60824 0.56816 0.90184 0.0
C1592 C 0.62073 0.58579 0.8715 0.0
C1593 C 0.63829 0.58892 0.8559 0.0
C1594 C 0.66048 0.52734 0.9114 0.0
C1595 C 0.64119 0.55901 0.89362 0.0
C1596 C 0.66158 0.51064 0.92811 0.0
C1597 C 0.64536 0.50803 0.94549 0.0
C1598 C 0.64293 0.54156 0.91184 0.0
C1599 C 0.62814 0.52268 0.94551 0.0
C1600 C 0.62214 0.57088 0.89043 0.0
C1601 C 0.65735 0.57755 0.86058 0.0
N1602 N 0.62729 0.53876 0.92884 0.0
N1603 N 0.6582 0.56302 0.87881 0.0
H1604 H 0.66661 0.35292 0.11826 0.0
H1605 H 0.7598 0.42227 0.1791 0.0
H1606 H 0.67863 0.41986 0.10305 0.0
H1607 H 0.73877 0.36217 0.20991 0.0
H1608 H 0.73057 0.42029 0.1499 0.0
H1609 H 0.69255 0.35491 0.1518 0.0
C1610 C 0.67438 0.36809 0.12222 0.0
C1611 C 0.67066 0.38619 0.10765 0.0
C1612 C 0.73224 0.40752 0.16306 0.0
C1613 C 0.70042 0.38845 0.14551 0.0
C1614 C 0.74908 0.40856 0.17959 0.0
C1615 C 0.7518 0.39229 0.19683 0.0
C1616 C 0.71801 0.38999 0.16354 0.0
C1617 C 0.73716 0.37508 0.19692 0.0
C1618 C 0.68924 0.36918 0.14125 0.0
C1619 C 0.68121 0.4054 0.11354 0.0
N1620 N 0.72094 0.37428 0.18039 0.0
N1621 N 0.69572 0.40595 0.13178 0.0
H1622 H 0.83417 0.5008 0.4358 0.0
H1623 H 0.91018 0.41934 0.36339 0.0
H1624 H 0.90298 0.49875 0.44594 0.0
H1625 H 0.8412 0.4232 0.35572 0.0
H1626 H 0.90819 0.44562 0.39649 0.0
H1627 H 0.83675 0.47025 0.40863 0.0
C1628 C 0.84988 0.49398 0.43219 0.0
C1629 C 0.86842 0.50257 0.44293 0.0
C1630 C 0.89349 0.44047 0.38773 0.0
C1631 C 0.87152 0.46717 0.41188 0.0
C1632 C 0.89461 0.42536 0.36899 0.0
C1633 C 0.87584 0.41925 0.35666 0.0
C1634 C 0.87347 0.44938 0.39411 0.0
C1635 C 0.85611 0.42765 0.36452 0.0
C1636 C 0.85134 0.47637 0.41679 0.0
C1637 C 0.88828 0.49264 0.43805 0.0
N1638 N 0.85548 0.44236 0.38255 0.0
N1639 N 0.88934 0.47556 0.42272 0.0
H1640 H 0.75012 0.42307 0.86084 0.0
H1641 H 0.84148 0.35255 0.92427 0.0
H1642 H 0.76912 0.36122 0.83298 0.0
H1643 H 0.82983 0.41962 0.93897 0.0
H1644 H 0.81561 0.35453 0.89067 0.0
H1645 H 0.77899 0.42097 0.8905 0.0
C1646 C 0.7603 0.40895 0.86109 0.0
C1647 C 0.75712 0.39225 0.84451 0.0
C1648 C 0.81896 0.36882 0.90113 0.0
C1649 C 0.79052 0.38978 0.87836 0.0
C1650 C 0.8338 0.36773 0.9202 0.0
C1651 C 0.83765 0.38588 0.93462 0.0
C1652 C 0.80794 0.38816 0.89665 0.0
C1653 C 0.82718 0.40512 0.92859 0.0
C1654 C 0.77694 0.40783 0.87789 0.0
C1655 C 0.77109 0.3745 0.8454 0.0
N1656 N 0.81271 0.40568 0.91029 0.0
N1657 N 0.78713 0.37366 0.86215 0.0
H1658 H 0.84129 0.57446 0.19876 0.0
H1659 H 0.895 0.52085 0.08202 0.0
H1660 H 0.90532 0.59083 0.17464 0.0
H1661 H 0.8373 0.49782 0.11684 0.0
H1662 H 0.89772 0.54923 0.11266 0.0
H1663 H 0.83799 0.54954 0.16524 0.0
C1664 C 0.85465 0.57296 0.18629 0.0
C1665 C 0.87372 0.58464 0.1897 0.0
C1666 C 0.88449 0.53794 0.11355 0.0
C1667 C 0.87004 0.55582 0.15114 0.0
C1668 C 0.88289 0.5218 0.09607 0.0
C1669 C 0.86595 0.50687 0.09698 0.0
C1670 C 0.86891 0.53928 0.13189 0.0
C1671 C 0.85079 0.50876 0.11563 0.0
C1672 C 0.85276 0.55862 0.16714 0.0
C1673 C 0.89035 0.58212 0.17273 0.0
N1674 N 0.85262 0.52466 0.13227 0.0
N1675 N 0.88819 0.56784 0.15423 0.0
H1676 H 0.74654 0.64955 0.34177 0.0
H1677 H 0.67801 0.58877 0.44341 0.0
H1678 H 0.75625 0.58373 0.36359 0.0
H1679 H 0.66975 0.65614 0.42762 0.0
H1680 H 0.7037 0.58609 0.41042 0.0
H1681 H 0.71599 0.65188 0.36981 0.0
C1682 C 0.7422 0.63558 0.35237 0.0
C1683 C 0.75412 0.61648 0.35053 0.0
C1684 C 0.69619 0.60146 0.41396 0.0
C1685 C 0.71923 0.61901 0.38248 0.0
C1686 C 0.68143 0.60299 0.43279 0.0
C1687 C 0.67188 0.62276 0.43844 0.0
C1688 C 0.70167 0.61988 0.40067 0.0
C1689 C 0.67677 0.64058 0.42388 0.0
C1690 C 0.7248 0.63694 0.36838 0.0
C1691 C 0.74783 0.59891 0.36475 0.0
N1692 N 0.69156 0.63879 0.40579 0.0
N1693 N 0.73089 0.60062 0.38009 0.0
H1694 H 0.66681 0.4186 0.68237 0.0
H1695 H 0.60647 0.50444 0.59942 0.0
H1696 H 0.59774 0.4252 0.68209 0.0
H1697 H 0.67423 0.48981 0.59479 0.0
H1698 H 0.60217 0.47496 0.62853 0.0
H1699 H 0.66907 0.44335 0.64841 0.0
C1700 C 0.65206 0.42507 0.67487 0.0
C1701 C 0.63208 0.41993 0.68506 0.0
C1702 C 0.61792 0.47812 0.62094 0.0
C1703 C 0.63452 0.44876 0.6464 0.0
C1704 C 0.62042 0.49504 0.60449 0.0
C1705 C 0.64075 0.49962 0.59462 0.0
C1706 C 0.63591 0.46584 0.6277 0.0
C1707 C 0.65821 0.48674 0.60163 0.0
C1708 C 0.65335 0.43927 0.65549 0.0
C1709 C 0.61346 0.4287 0.67462 0.0
N1710 N 0.65539 0.47058 0.61777 0.0
N1711 N 0.61514 0.44297 0.65602 0.0
H1712 H 0.16807 0.4193 0.43376 0.0
H1713 H 0.25221 0.3579 0.34958 0.0
H1714 H 0.17283 0.35023 0.4317 0.0
H1715 H 0.24116 0.42631 0.34768 0.0
H1716 H 0.22173 0.35408 0.37739 0.0
H1717 H 0.19288 0.42155 0.39979 0.0
C1718 C 0.17414 0.40456 0.4259 0.0
C1719 C 0.16851 0.38456 0.43566 0.0
C1720 C 0.22592 0.36989 0.37075 0.0
C1721 C 0.19736 0.387 0.39692 0.0
C1722 C 0.24329 0.37209 0.35483 0.0
C1723 C 0.24948 0.39251 0.34649 0.0
C1724 C 0.21466 0.38823 0.3784 0.0
C1725 C 0.23736 0.41031 0.35405 0.0
C1726 C 0.18837 0.40585 0.4065 0.0
C1727 C 0.17674 0.36598 0.42466 0.0
N1728 N 0.22068 0.40777 0.36962 0.0
N1729 N 0.19103 0.36765 0.40607 0.0
H1730 H 0.33742 0.42505 0.19151 0.0
H1731 H 0.3986 0.49071 0.0878 0.0
H1732 H 0.40475 0.41573 0.17559 0.0
H1733 H 0.33315 0.50215 0.11045 0.0
H1734 H 0.40061 0.46053 0.1163 0.0
H1735 H 0.33485 0.44999 0.15782 0.0
C1736 C 0.35165 0.42807 0.18069 0.0
C1737 C 0.37138 0.41847 0.18651 0.0
C1738 C 0.38581 0.46963 0.11494 0.0
C1739 C 0.36864 0.44741 0.14796 0.0
C1740 C 0.38463 0.48681 0.09867 0.0
C1741 C 0.36574 0.49912 0.09693 0.0
C1742 C 0.36791 0.46465 0.12941 0.0
C1743 C 0.34817 0.49341 0.1115 0.0
C1744 C 0.35019 0.44241 0.16147 0.0
C1745 C 0.38922 0.42281 0.17171 0.0
N1746 N 0.34971 0.47666 0.1271 0.0
N1747 N 0.3875 0.43721 0.15324 0.0
H1748 H 0.25641 0.58202 0.86102 0.0
H1749 H 0.34495 0.6552 0.92613 0.0
H1750 H 0.26871 0.64749 0.83954 0.0
H1751 H 0.33442 0.58802 0.94116 0.0
H1752 H 0.31905 0.65279 0.89264 0.0
H1753 H 0.28616 0.58415 0.8895 0.0
C1754 C 0.26531 0.59692 0.86241 0.0
C1755 C 0.25988 0.61467 0.84803 0.0
C1756 C 0.32265 0.63854 0.90312 0.0
C1757 C 0.29436 0.61719 0.88057 0.0
C1758 C 0.33754 0.63988 0.9221 0.0
C1759 C 0.3417 0.62182 0.93659 0.0
C1760 C 0.31193 0.61903 0.89869 0.0
C1761 C 0.33153 0.60242 0.93067 0.0
C1762 C 0.28246 0.59808 0.87855 0.0
C1763 C 0.27236 0.6334 0.85024 0.0
N1764 N 0.31704 0.6016 0.91238 0.0
N1765 N 0.28894 0.63424 0.86634 0.0
H1766 H 0.10516 0.59251 0.67518 0.0
H1767 H 0.18099 0.5106 0.60267 0.0
H1768 H 0.17268 0.5828 0.68979 0.0
H1769 H 0.11224 0.51371 0.59236 0.0
H1770 H 0.17848 0.53981 0.63183 0.0
H1771 H 0.10777 0.56686 0.64158 0.0
C1772 C 0.1206 0.5853 0.67106 0.0
C1773 C 0.13871 0.58969 0.68539 0.0
C1774 C 0.16391 0.53417 0.62318 0.0
C1775 C 0.14175 0.56025 0.64727 0.0
C1776 C 0.16536 0.51751 0.60643 0.0
C1777 C 0.1468 0.50964 0.59502 0.0
C1778 C 0.14375 0.54316 0.62866 0.0
C1779 C 0.12693 0.51907 0.60094 0.0
C1780 C 0.12204 0.57053 0.65202 0.0
C1781 C 0.15826 0.57976 0.67936 0.0
N1782 N 0.12592 0.53533 0.61735 0.0
N1783 N 0.15922 0.56547 0.66089 0.0
H1784 H 0.17731 0.6633 0.1111 0.0
H1785 H 0.24779 0.58089 0.18949 0.0
H1786 H 0.17606 0.59439 0.10306 0.0
H1787 H 0.25242 0.64961 0.19802 0.0
H1788 H 0.21957 0.58605 0.15961 0.0
H1789 H 0.20241 0.65915 0.14511 0.0
C1790 C 0.18199 0.64731 0.11671 0.0
C1791 C 0.17465 0.62918 0.10408 0.0
C1792 C 0.22666 0.60006 0.16802 0.0
C1793 C 0.20352 0.62433 0.1427 0.0
C1794 C 0.24276 0.5971 0.18523 0.0
C1795 C 0.2525 0.61482 0.19646 0.0
C1796 C 0.22012 0.62092 0.16174 0.0
C1797 C 0.24553 0.63547 0.1897 0.0
C1798 C 0.19646 0.64496 0.136 0.0
C1799 C 0.18142 0.60887 0.11206 0.0
N1800 N 0.22977 0.63796 0.17279 0.0
N1801 N 0.1955 0.60703 0.13069 0.0
H1802 H 0.10473 0.42343 0.86658 0.0
H1803 H 0.18308 0.49545 0.9483 0.0
H1804 H 0.17328 0.4291 0.85597 0.0
H1805 H 0.11395 0.50172 0.95049 0.0
H1806 H 0.17941 0.46686 0.91861 0.0
H1807 H 0.10752 0.44778 0.90147 0.0
C1808 C 0.12038 0.4295 0.87182 0.0
C1809 C 0.13879 0.42435 0.85827 0.0
C1810 C 0.16499 0.47439 0.92563 0.0
C1811 C 0.14207 0.45215 0.89793 0.0
C1812 C 0.16708 0.49065 0.94276 0.0
C1813 C 0.1488 0.50106 0.95198 0.0
C1814 C 0.14447 0.46833 0.91751 0.0
C1815 C 0.12849 0.49432 0.94369 0.0
C1816 C 0.12194 0.4435 0.89159 0.0
C1817 C 0.15864 0.43279 0.86574 0.0
N1818 N 0.12686 0.4784 0.9269 0.0
N1819 N 0.15973 0.44627 0.88496 0.0
H1820 H 0.34438 0.41666 0.60981 0.0
H1821 H 0.26038 0.35874 0.69795 0.0
H1822 H 0.33655 0.34786 0.61248 0.0
H1823 H 0.27011 0.42728 0.69428 0.0
H1824 H 0.29016 0.35382 0.66941 0.0
H1825 H 0.3197 0.42018 0.64373 0.0
C1826 C 0.33769 0.40223 0.61776 0.0
C1827 C 0.34244 0.38194 0.60813 0.0
C1828 C 0.28582 0.36992 0.67495 0.0
C1829 C 0.31372 0.38589 0.64694 0.0
C1830 C 0.26885 0.37275 0.6913 0.0
C1831 C 0.26253 0.39349 0.69839 0.0
C1832 C 0.2966 0.38795 0.66563 0.0
C1833 C 0.27404 0.41102 0.689 0.0
C1834 C 0.3235 0.40426 0.63713 0.0
C1835 C 0.33337 0.36382 0.61933 0.0
N1836 N 0.2904 0.40784 0.6731 0.0
N1837 N 0.31921 0.36624 0.63797 0.0
H1838 H 0.40096 0.50644 0.44858 0.0
H1839 H 0.33963 0.58407 0.35737 0.0
H1840 H 0.33259 0.51854 0.45116 0.0
H1841 H 0.40867 0.58529 0.36525 0.0
H1842 H 0.33716 0.56037 0.3923 0.0
H1843 H 0.40472 0.53544 0.41888 0.0
C1844 C 0.38677 0.51529 0.44315 0.0
C1845 C 0.36636 0.50976 0.45223 0.0
C1846 C 0.35287 0.56595 0.38663 0.0
C1847 C 0.37057 0.54282 0.418 0.0
C1848 C 0.35429 0.5795 0.36664 0.0
C1849 C 0.37439 0.58659 0.35832 0.0
C1850 C 0.37172 0.55905 0.39827 0.0
C1851 C 0.39284 0.58024 0.37113 0.0
C1852 C 0.38894 0.53182 0.42612 0.0
C1853 C 0.34857 0.52177 0.44428 0.0
N1854 N 0.3911 0.56657 0.3903 0.0
N1855 N 0.35108 0.53754 0.42755 0.0
H1856 H 0.16281 0.2476 0.41806 0.0
H1857 H 0.11078 0.18396 0.30593 0.0
H1858 H 0.09917 0.262 0.39145 0.0
H1859 H 0.17152 0.16898 0.33968 0.0
H1860 H 0.10639 0.21411 0.33454 0.0
H1861 H 0.1666 0.22035 0.38691 0.0
C1862 C 0.14955 0.24498 0.40571 0.0
C1863 C 0.13054 0.25702 0.40767 0.0
C1864 C 0.12068 0.20421 0.33554 0.0
C1865 C 0.13484 0.22563 0.37144 0.0
C1866 C 0.12317 0.18702 0.31924 0.0
C1867 C 0.14145 0.17379 0.32053 0.0
C1868 C 0.13669 0.2082 0.35301 0.0
C1869 C 0.15709 0.17861 0.338 0.0
C1870 C 0.15176 0.22942 0.38776 0.0
C1871 C 0.11415 0.25317 0.39062 0.0
N1872 N 0.15433 0.19528 0.35345 0.0
N1873 N 0.11661 0.23773 0.37331 0.0
H1874 H 0.07635 0.86455 0.55387 0.0
H1875 H 0.00926 0.91207 0.66602 0.0
H1876 H 0.09176 0.92294 0.59199 0.0
H1877 H 0.99821 0.84839 0.63794 0.0
H1878 H 0.03718 0.9174 0.6357 0.0
H1879 H 0.04559 0.85916 0.58146 0.0
C1880 C 0.07326 0.87621 0.56795 0.0
C1881 C 0.08679 0.8941 0.57078 0.0
C1882 C 0.02864 0.90225 0.63606 0.0
C1883 C 0.05162 0.88825 0.60206 0.0
C1884 C 0.01251 0.89926 0.65331 0.0
C1885 C 1.00127 0.87975 0.65465 0.0
C1886 C 0.0337 0.88565 0.61979 0.0
C1887 C 0.0066 0.86362 0.63782 0.0
C1888 C 0.05573 0.87316 0.58367 0.0
C1889 C 0.08189 0.90885 0.58915 0.0
N1890 N 0.02242 0.86691 0.62112 0.0
N1891 N 0.06482 0.9056 0.60401 0.0
H1892 H 0.39838 0.82434 0.8036 0.0
H1893 H 0.35094 0.75656 0.91533 0.0
H1894 H 0.33989 0.83944 0.84198 0.0
H1895 H 0.41469 0.74571 0.88688 0.0
H1896 H 0.34557 0.78469 0.88532 0.0
H1897 H 0.40385 0.79349 0.83095 0.0
C1898 C 0.38671 0.82116 0.81769 0.0
C1899 C 0.36876 0.83461 0.82063 0.0
C1900 C 0.36075 0.77615 0.88553 0.0
C1901 C 0.37471 0.79935 0.85168 0.0
C1902 C 0.36376 0.75991 0.9026 0.0
C1903 C 0.38331 0.74865 0.90374 0.0
C1904 C 0.37735 0.78133 0.86925 0.0
C1905 C 0.39944 0.7541 0.88691 0.0
C1906 C 0.38981 0.80358 0.83327 0.0
C1907 C 0.35402 0.82961 0.83904 0.0
N1908 N 0.39612 0.77004 0.87039 0.0
N1909 N 0.35732 0.81249 0.85377 0.0
H1910 H 0.42296 0.08702 0.0874 0.0
H1911 H 0.51399 0.16537 0.13798 0.0
H1912 H 0.43558 0.14851 0.05439 0.0
H1913 H 0.50678 0.09895 0.15871 0.0
H1914 H 0.48573 0.16044 0.10744 0.0
H1915 H 0.45393 0.09188 0.11344 0.0
C1916 C 0.43233 0.1016 0.08555 0.0
C1917 C 0.42649 0.11749 0.06879 0.0
C1918 C 0.49051 0.14693 0.11854 0.0
C1919 C 0.46224 0.12329 0.09904 0.0
C1920 C 0.50655 0.14974 0.13609 0.0
C1921 C 0.51281 0.13255 0.15106 0.0
C1922 C 0.48049 0.12684 0.11609 0.0
C1923 C 0.50276 0.11262 0.1475 0.0
C1924 C 0.4501 0.10436 0.10049 0.0
C1925 C 0.43938 0.13596 0.06722 0.0
N1926 N 0.48707 0.1104 0.13058 0.0
N1927 N 0.45658 0.13848 0.08236 0.0
H1928 H 0.17623 0.83579 0.21257 0.0
H1929 H 0.09442 0.75457 0.15067 0.0
H1930 H 0.1119 0.82775 0.24039 0.0
H1931 H 0.16336 0.7516 0.14207 0.0
H1932 H 0.09924 0.7816 0.18263 0.0
H1933 H 0.17084 0.8052 0.18615 0.0
C1934 C 0.1609 0.82752 0.21321 0.0
C1935 C 0.14434 0.83465 0.22848 0.0
C1936 C 0.11328 0.7748 0.17391 0.0
C1937 C 0.13792 0.79939 0.19771 0.0
C1938 C 0.11056 0.75947 0.15556 0.0
C1939 C 0.12852 0.75074 0.14355 0.0
C1940 C 0.1341 0.78168 0.18006 0.0
C1941 C 0.14903 0.7576 0.15089 0.0
C1942 C 0.15785 0.80996 0.19805 0.0
C1943 C 0.12493 0.82307 0.22856 0.0
N1944 N 0.15121 0.77272 0.16841 0.0
N1945 N 0.12212 0.80615 0.21313 0.0
H1946 H 0.50156 0.91686 0.38435 0.0
H1947 H 0.43281 0.86292 0.4915 0.0
H1948 H 0.50929 0.85037 0.40454 0.0
H1949 H 0.42093 0.92547 0.46077 0.0
H1950 H 0.46342 0.85855 0.46343 0.0
H1951 H 0.47463 0.92093 0.41595 0.0
C1952 C 0.49756 0.90306 0.39539 0.0
C1953 C 0.50759 0.88317 0.39146 0.0
C1954 C 0.45411 0.87324 0.46299 0.0
C1955 C 0.47662 0.88778 0.42817 0.0
C1956 C 0.43665 0.87571 0.47895 0.0
C1957 C 0.42407 0.89443 0.47821 0.0
C1958 C 0.45909 0.88975 0.44648 0.0
C1959 C 0.43001 0.91066 0.4619 0.0
C1960 C 0.4822 0.90541 0.41358 0.0
C1961 C 0.50205 0.86603 0.4069 0.0
N1962 N 0.44694 0.90792 0.44674 0.0
N1963 N 0.48684 0.86868 0.42446 0.0
H1964 H 0.41287 0.25629 0.651 0.0
H1965 H 0.33421 0.17095 0.71295 0.0
H1966 H 0.34499 0.25039 0.63616 0.0
H1967 H 0.39919 0.18003 0.73828 0.0
H1968 H 0.33846 0.20123 0.68591 0.0
H1969 H 0.40896 0.22989 0.68387 0.0
C1970 C 0.39712 0.24965 0.65479 0.0
C1971 C 0.37928 0.25539 0.6405 0.0
C1972 C 0.35188 0.19679 0.69736 0.0
C1973 C 0.37475 0.22513 0.67797 0.0
C1974 C 0.34945 0.17941 0.71291 0.0
C1975 C 0.36649 0.17265 0.72769 0.0
C1976 C 0.37163 0.20765 0.69616 0.0
C1977 C 0.38576 0.18446 0.7269 0.0
C1978 C 0.39493 0.23453 0.6735 0.0
C1979 C 0.35931 0.24616 0.64623 0.0
N1980 N 0.38792 0.20128 0.71115 0.0
N1981 N 0.35766 0.23149 0.66431 0.0
H1982 H 0.07875 0.14875 0.99 0.0
H1983 H 0.01053 0.09589 0.88185 0.0
H1984 H 0.09146 0.08695 0.9579 0.0
H1985 H 1.00097 0.16148 0.90456 0.0
H1986 H 0.03824 0.09187 0.91257 0.0
H1987 H 0.04829 0.15338 0.96181 0.0
C1988 C 0.07513 0.13618 0.97713 0.0
C1989 C 0.08782 0.11754 0.97615 0.0
C1990 C 0.03011 0.10718 0.91093 0.0
C1991 C 0.05301 0.12255 0.94418 0.0
C1992 C 0.0143 0.10952 0.89323 0.0
C1993 C 1.00347 0.12913 0.89031 0.0
C1994 C 0.03533 0.12455 0.92606 0.0
C1995 C 0.00879 0.14602 0.90616 0.0
C1996 C 0.05776 0.1388 0.96107 0.0
C1997 C 0.08225 0.10165 0.95929 0.0
N1998 N 0.02441 0.14339 0.92326 0.0
N1999 N 0.06539 0.10453 0.94406 0.0
H2000 H 0.89685 0.8262 0.74116 0.0
H2001 H 0.84673 0.75661 0.63262 0.0
H2002 H 0.83714 0.8402 0.70468 0.0
H2003 H 0.91212 0.74809 0.65704 0.0
H2004 H 0.84171 0.78431 0.66314 0.0
H2005 H 0.90176 0.79492 0.71431 0.0
C2006 C 0.8848 0.82269 0.72761 0.0
C2007 C 0.86671 0.83599 0.72496 0.0
C2008 C 0.85717 0.77635 0.66195 0.0
C2009 C 0.87198 0.80024 0.6946 0.0
C2010 C 0.85999 0.76034 0.6446 0.0
C2011 C 0.87989 0.74993 0.64213 0.0
C2012 C 0.87434 0.78215 0.67715 0.0
C2013 C 0.89657 0.75586 0.65804 0.0
C2014 C 0.88758 0.80486 0.71233 0.0
C2015 C 0.85142 0.83052 0.70732 0.0
N2016 N 0.89344 0.77159 0.67482 0.0
N2017 N 0.85442 0.81318 0.69289 0.0
H2018 H 1.0038 0.09308 0.38618 0.0
H2019 H 0.93409 0.14514 0.49357 0.0
H2020 H 0.01062 0.15949 0.40701 0.0
H2021 H 0.92173 0.08367 0.46051 0.0
H2022 H 0.96504 0.14992 0.46606 0.0
H2023 H 0.97666 0.08847 0.41747 0.0
C2024 C 0.99956 0.10675 0.39729 0.0
C2025 C 0.00938 0.12678 0.39362 0.0
C2026 C 0.95554 0.13537 0.46499 0.0
C2027 C 0.97821 0.12154 0.42998 0.0
C2028 C 0.9379 0.13267 0.48064 0.0
C2029 C 0.92508 0.11416 0.47906 0.0
C2030 C 0.96049 0.11927 0.44799 0.0
C2031 C 0.93098 0.09832 0.46227 0.0
C2032 C 0.98409 0.10408 0.4153 0.0
C2033 C 1.00355 0.14373 0.40916 0.0
N2034 N 0.94811 0.10126 0.44745 0.0
N2035 N 0.98824 0.14078 0.42655 0.0
H2036 H 0.59462 0.26383 0.15616 0.0
H2037 H 0.67382 0.17252 0.20488 0.0
H2038 H 0.66032 0.2554 0.13276 0.0
H2039 H 0.61297 0.18541 0.23949 0.0
H2040 H 0.66835 0.20315 0.17859 0.0
H2041 H 0.60004 0.23556 0.18657 0.0
C2042 C 0.61019 0.25611 0.15741 0.0
C2043 C 0.62704 0.26207 0.14174 0.0
C2044 C 0.65613 0.19945 0.19192 0.0
C2045 C 0.63332 0.22973 0.1766 0.0
C2046 C 0.65924 0.18186 0.20703 0.0
C2047 C 0.6437 0.17616 0.22431 0.0
C2048 C 0.63719 0.21159 0.19374 0.0
C2049 C 0.62522 0.18904 0.22621 0.0
C2050 C 0.61328 0.24006 0.17489 0.0
C2051 C 0.64691 0.25164 0.14451 0.0
N2052 N 0.62236 0.20609 0.21093 0.0
N2053 N 0.64941 0.23598 0.1614 0.0
H2054 H 0.51533 0.91004 0.87416 0.0
H2055 H 0.57623 0.86316 0.99106 0.0
H2056 H 0.49758 0.84967 0.90687 0.0
H2057 H 0.59365 0.92113 0.95311 0.0
H2058 H 0.54614 0.85816 0.96246 0.0
H2059 H 0.54287 0.91472 0.90493 0.0
C2060 C 0.51727 0.89768 0.88778 0.0
C2061 C 0.50418 0.87932 0.88768 0.0
C2062 C 0.55657 0.87198 0.96052 0.0
C2063 C 0.53585 0.88469 0.92346 0.0
C2064 C 0.57373 0.8748 0.97679 0.0
C2065 C 0.58761 0.89247 0.97434 0.0
C2066 C 0.55328 0.88703 0.94185 0.0
C2067 C 0.58348 0.90721 0.9557 0.0
C2068 C 0.53298 0.90042 0.9055 0.0
C2069 C 0.50721 0.86413 0.90626 0.0
N2070 N 0.56682 0.90413 0.94026 0.0
N2071 N 0.5228 0.86708 0.92331 0.0
H2072 H 0.84784 0.25532 0.91103 0.0
H2073 H 0.8988 0.18304 0.80523 0.0
H2074 H 0.91401 0.26202 0.88852 0.0
H2075 H 0.83844 0.17044 0.84108 0.0
H2076 H 0.90381 0.21466 0.83156 0.0
H2077 H 0.84302 0.22717 0.88101 0.0
C2078 C 0.86133 0.25108 0.89958 0.0
C2079 C 0.88137 0.26112 0.90242 0.0
C2080 C 0.88946 0.20495 0.83351 0.0
C2081 C 0.87603 0.2284 0.86799 0.0
C2082 C 0.88662 0.18694 0.81851 0.0
C2083 C 0.8683 0.17394 0.82114 0.0
C2084 C 0.8737 0.21006 0.8509 0.0
C2085 C 0.8529 0.17986 0.83847 0.0
C2086 C 0.85861 0.23482 0.88251 0.0
C2087 C 0.89833 0.25456 0.88721 0.0
N2088 N 0.85595 0.19738 0.85259 0.0
N2089 N 0.8953 0.23859 0.87068 0.0
H2090 H 0.49717 0.15781 0.63343 0.0
H2091 H 0.59348 0.08273 0.58744 0.0
H2092 H 0.51409 0.09661 0.66471 0.0
H2093 H 0.57689 0.14188 0.5514 0.0
H2094 H 0.56349 0.08774 0.61493 0.0
H2095 H 0.52507 0.15252 0.60254 0.0
C2096 C 0.5066 0.14319 0.63373 0.0
C2097 C 0.50331 0.1277 0.6519 0.0
C2098 C 0.56626 0.09969 0.60105 0.0
C2099 C 0.53538 0.12165 0.61665 0.0
C2100 C 0.58345 0.09682 0.58524 0.0
C2101 C 0.58788 0.11202 0.56719 0.0
C2102 C 0.55321 0.118 0.59903 0.0
C2103 C 0.57419 0.12989 0.56523 0.0
C2104 C 0.5226 0.14025 0.61614 0.0
C2105 C 0.51622 0.1092 0.65143 0.0
N2106 N 0.55751 0.13248 0.58108 0.0
N2107 N 0.53162 0.10676 0.63422 0.0
H2108 H 0.60754 0.82624 0.30399 0.0
H2109 H 0.66081 0.75308 0.40769 0.0
H2110 H 0.67039 0.83596 0.3352 0.0
H2111 H 0.59385 0.74737 0.38803 0.0
H2112 H 0.6652 0.7807 0.37701 0.0
H2113 H 0.6026 0.79489 0.33084 0.0
C2114 C 0.62027 0.82177 0.31635 0.0
C2115 C 0.63929 0.8339 0.31754 0.0
C2116 C 0.64952 0.77339 0.37926 0.0
C2117 C 0.63394 0.79811 0.34789 0.0
C2118 C 0.64705 0.75741 0.39672 0.0
C2119 C 0.62692 0.74779 0.40057 0.0
C2120 C 0.63177 0.78 0.36537 0.0
C2121 C 0.60962 0.75451 0.38594 0.0
C2122 C 0.61747 0.80391 0.33164 0.0
C2123 C 0.65538 0.82724 0.3337 0.0
N2124 N 0.61241 0.77023 0.36904 0.0
N2125 N 0.65233 0.80993 0.34815 0.0
H2126 H 0.93399 0.8618 0.05249 0.0
H2127 H 1.00415 0.91347 0.15976 0.0
H2128 H 0.92289 0.92395 0.08451 0.0
H2129 H 0.01037 0.84694 0.13911 0.0
H2130 H 0.97692 0.9182 0.12863 0.0
H2131 H 0.96456 0.85658 0.08042 0.0
C2132 C 0.93799 0.87433 0.06528 0.0
C2133 C 0.92565 0.89319 0.06642 0.0
C2134 C 0.98422 0.90253 0.13081 0.0
C2135 C 0.96062 0.88754 0.09799 0.0
C2136 C 0.99974 0.89978 0.14876 0.0
C2137 C 0.00947 0.8797 0.15239 0.0
C2138 C 0.9782 0.8851 0.11616 0.0
C2139 C 1.0034 0.86275 0.13697 0.0
C2140 C 0.95542 0.87137 0.08118 0.0
C2141 C 0.93178 0.90906 0.08306 0.0
N2142 N 0.98808 0.86579 0.11962 0.0
N2143 N 0.94869 0.90585 0.09812 0.0
H2144 H 0.61195 0.68396 0.803 0.0
H2145 H 0.66322 0.75658 0.90822 0.0
H2146 H 0.67364 0.67303 0.83656 0.0
H2147 H 0.59676 0.76245 0.8866 0.0
H2148 H 0.66826 0.72893 0.87769 0.0
H2149 H 0.6068 0.71539 0.82956 0.0
C2150 C 0.62439 0.68819 0.81584 0.0
C2151 C 0.64312 0.6757 0.81778 0.0
C2152 C 0.65256 0.73629 0.87949 0.0
C2153 C 0.63755 0.7116 0.84779 0.0
C2154 C 0.64972 0.75227 0.89685 0.0
C2155 C 0.62952 0.76191 0.90011 0.0
C2156 C 0.6351 0.72974 0.86511 0.0
C2157 C 0.61255 0.75527 0.88498 0.0
C2158 C 0.62147 0.70609 0.83095 0.0
C2159 C 0.65886 0.68205 0.8345 0.0
N2160 N 0.6157 0.73956 0.86819 0.0
N2161 N 0.65571 0.69944 0.84879 0.0
H2162 H 0.57475 0.36443 0.05191 0.0
H2163 H 0.50499 0.41091 0.16248 0.0
H2164 H 0.58876 0.42282 0.09072 0.0
H2165 H 0.49608 0.3467 0.13498 0.0
H2166 H 0.53299 0.41681 0.1324 0.0
H2167 H 0.54343 0.35866 0.07861 0.0
C2168 C 0.57124 0.37601 0.06595 0.0
C2169 C 0.58456 0.39397 0.0693 0.0
C2170 C 0.52489 0.40142 0.13282 0.0
C2171 C 0.54876 0.38773 0.0995 0.0
C2172 C 0.50872 0.3981 0.14993 0.0
C2173 C 0.49809 0.37826 0.15138 0.0
C2174 C 0.53061 0.38483 0.11684 0.0
C2175 C 0.50401 0.36217 0.13477 0.0
C2176 C 0.55339 0.37275 0.08115 0.0
C2177 C 0.57908 0.40866 0.08754 0.0
N2178 N 0.51988 0.36578 0.11823 0.0
N2179 N 0.56172 0.4052 0.10187 0.0
H2180 H 0.89608 0.32289 0.30218 0.0
H2181 H 0.84934 0.25471 0.41389 0.0
H2182 H 0.83796 0.33775 0.3414 0.0
H2183 H 0.9138 0.24538 0.38682 0.0
H2184 H 0.84365 0.28237 0.38346 0.0
H2185 H 0.90186 0.29193 0.32936 0.0
C2186 C 0.88456 0.31964 0.3164 0.0
C2187 C 0.86667 0.33311 0.31972 0.0
C2188 C 0.85906 0.27426 0.38405 0.0
C2189 C 0.87292 0.29771 0.35046 0.0
C2190 C 0.86226 0.25828 0.40137 0.0
C2191 C 0.88209 0.24761 0.40303 0.0
C2192 C 0.87576 0.27977 0.36805 0.0
C2193 C 0.89833 0.25333 0.38644 0.0
C2194 C 0.88784 0.302 0.33188 0.0
C2195 C 0.85207 0.32796 0.33821 0.0
N2196 N 0.89482 0.26902 0.36967 0.0
N2197 N 0.85552 0.31079 0.35279 0.0
H2198 H 0.93516 0.64987 0.55131 0.0
H2199 H 1.00347 0.60028 0.66145 0.0
H2200 H 0.92115 0.58994 0.58712 0.0
H2201 H 0.01421 0.66444 0.63452 0.0
H2202 H 0.97537 0.59541 0.63129 0.0
H2203 H 0.96598 0.65495 0.57886 0.0
C2204 C 0.93856 0.63781 0.56489 0.0
C2205 C 0.92543 0.61957 0.56705 0.0
C2206 C 0.98388 0.61057 0.63186 0.0
C2207 C 0.96065 0.62507 0.59831 0.0
C2208 C 1.00011 0.6133 0.64903 0.0
C2209 C 0.01133 0.63281 0.65065 0.0
C2210 C 0.97866 0.62743 0.61598 0.0
C2211 C 0.00585 0.6492 0.63419 0.0
C2212 C 0.95613 0.64069 0.58058 0.0
C2213 C 0.93073 0.60431 0.58479 0.0
N2214 N 0.98991 0.64616 0.61758 0.0
N2215 N 0.94781 0.60742 0.59965 0.0
H2216 H 0.61348 0.32227 0.74156 0.0
H2217 H 0.6483 0.26668 0.61638 0.0
H2218 H 0.66148 0.34604 0.6919 0.0
H2219 H 0.60158 0.23757 0.66392 0.0
H2220 H 0.65199 0.29629 0.6445 0.0
H2221 H 0.6073 0.29153 0.71406 0.0
C2222 C 0.62265 0.32106 0.72496 0.0
C2223 C 0.63809 0.33668 0.71909 0.0
C2224 C 0.64094 0.28345 0.64898 0.0
C2225 C 0.63117 0.30189 0.68777 0.0
C2226 C 0.63896 0.26638 0.63292 0.0
C2227 C 0.62482 0.24941 0.63786 0.0
C2228 C 0.62873 0.28377 0.67039 0.0
C2229 C 0.61266 0.25034 0.65935 0.0
C2230 C 0.61915 0.30356 0.70932 0.0
C2231 C 0.64951 0.33437 0.69736 0.0
N2232 N 0.61495 0.26721 0.6749 0.0
N2233 N 0.64583 0.31743 0.68264 0.0
H2234 H 0.93428 0.3643 0.98912 0.0
H2235 H 1.00283 0.41401 0.87921 0.0
H2236 H 0.91973 0.42332 0.95168 0.0
H2237 H 0.01402 0.34983 0.90581 0.0
H2238 H 0.97459 0.41853 0.9092 0.0
H2239 H 0.96571 0.35939 0.96227 0.0
C2240 C 0.93769 0.3762 0.97538 0.0
C2241 C 0.92418 0.3941 0.97246 0.0
C2242 C 0.98318 0.40342 0.90859 0.0
C2243 C 0.96007 0.38881 0.94207 0.0
C2244 C 0.9993 0.40079 0.8913 0.0
C2245 C 0.01072 0.38141 0.88965 0.0
C2246 C 0.97823 0.38657 0.92458 0.0
C2247 C 0.00571 0.36509 0.9064 0.0
C2248 C 0.9556 0.37342 0.96009 0.0
C2249 C 0.92953 0.40918 0.95456 0.0
N2250 N 0.98975 0.36797 0.92307 0.0
N2251 N 0.94691 0.40617 0.94014 0.0
H2252 H 0.91645 0.76045 0.15559 0.0
H2253 H 0.83984 0.66719 0.20562 0.0
H2254 H 0.85178 0.74826 0.13077 0.0
H2255 H 0.9011 0.68117 0.23868 0.0
H2256 H 0.84469 0.69731 0.17847 0.0
H2257 H 0.9119 0.73233 0.18635 0.0
C2258 C 0.90125 0.75203 0.15668 0.0
C2259 C 0.88453 0.7567 0.14032 0.0
C2260 C 0.85715 0.69396 0.19162 0.0
C2261 C 0.87933 0.72434 0.1754 0.0
C2262 C 0.85438 0.67666 0.20724 0.0
C2263 C 0.87017 0.67147 0.2244 0.0
C2264 C 0.87597 0.70634 0.19285 0.0
C2265 C 0.88862 0.68447 0.22557 0.0
C2266 C 0.89872 0.7359 0.1742 0.0
C2267 C 0.8653 0.74503 0.14255 0.0
N2268 N 0.8911 0.70128 0.20987 0.0
N2269 N 0.8633 0.72946 0.15961 0.0
H2270 H 0.5756 0.64691 0.49115 0.0
H2271 H 0.5076 0.5963 0.38141 0.0
H2272 H 0.58983 0.58684 0.45582 0.0
H2273 H 0.49737 0.66108 0.40655 0.0
H2274 H 0.5354 0.5917 0.41198 0.0
H2275 H 0.54483 0.65179 0.46343 0.0
C2276 C 0.57228 0.63479 0.47764 0.0
C2277 C 0.58549 0.61658 0.47562 0.0
C2278 C 0.52707 0.60694 0.41093 0.0
C2279 C 0.55028 0.62183 0.44424 0.0
C2280 C 0.511 0.60952 0.39353 0.0
C2281 C 0.50002 0.62911 0.39128 0.0
C2282 C 0.53236 0.62404 0.42642 0.0
C2283 C 0.50556 0.64576 0.40737 0.0
C2284 C 0.55472 0.63754 0.46187 0.0
C2285 C 0.58022 0.60121 0.45803 0.0
N2286 N 0.52133 0.64286 0.42422 0.0
N2287 N 0.56316 0.60419 0.44311 0.0
H2288 H 0.34557 0.257 0.13181 0.0
H2289 H 0.39594 0.32472 0.2418 0.0
H2290 H 0.41139 0.24892 0.15496 0.0
H2291 H 0.3343 0.33683 0.2087 0.0
H2292 H 0.40132 0.29452 0.21352 0.0
H2293 H 0.3405 0.28386 0.16322 0.0
C2294 C 0.35903 0.26092 0.14344 0.0
C2295 C 0.37902 0.25077 0.14042 0.0
C2296 C 0.3866 0.30379 0.21259 0.0
C2297 C 0.37323 0.28164 0.17695 0.0
C2298 C 0.38356 0.32101 0.2287 0.0
C2299 C 0.3648 0.33353 0.22738 0.0
C2300 C 0.37063 0.29898 0.19535 0.0
C2301 C 0.34911 0.32779 0.21031 0.0
C2302 C 0.35609 0.27624 0.16153 0.0
C2303 C 0.39565 0.25622 0.15661 0.0
N2304 N 0.3524 0.31108 0.19503 0.0
N2305 N 0.39243 0.27136 0.17407 0.0
H2306 H 0.51319 0.66167 0.90546 0.0
H2307 H 0.42546 0.58222 0.96119 0.0
H2308 H 0.50663 0.59475 0.8867 0.0
H2309 H 0.43603 0.64536 0.99089 0.0
H2310 H 0.45617 0.58703 0.93483 0.0
H2311 H 0.48624 0.6567 0.93752 0.0
C2312 C 0.50628 0.64589 0.90821 0.0
C2313 C 0.51206 0.62865 0.89309 0.0
C2314 C 0.45196 0.59991 0.94709 0.0
C2315 C 0.48111 0.62294 0.92963 0.0
C2316 C 0.43433 0.59716 0.96225 0.0
C2317 C 0.42788 0.61357 0.97804 0.0
C2318 C 0.46336 0.61934 0.94734 0.0
C2319 C 0.44022 0.63245 0.97869 0.0
C2320 C 0.49085 0.64311 0.92647 0.0
C2321 C 0.50242 0.60864 0.89745 0.0
N2322 N 0.45727 0.63496 0.9633 0.0
N2323 N 0.48742 0.60641 0.91514 0.0
H2324 H 0.16456 0.7547 0.63219 0.0
H2325 H 0.11434 0.68457 0.74035 0.0
H2326 H 0.09825 0.76102 0.65427 0.0
H2327 H 0.17573 0.67293 0.70639 0.0
H2328 H 0.10886 0.71531 0.7128 0.0
H2329 H 0.16974 0.72746 0.66319 0.0
C2330 C 0.15103 0.75032 0.6435 0.0
C2331 C 0.13086 0.76004 0.64029 0.0
C2332 C 0.12353 0.70602 0.71153 0.0
C2333 C 0.13677 0.72877 0.67633 0.0
C2334 C 0.12664 0.6885 0.72721 0.0
C2335 C 0.14536 0.67596 0.72541 0.0
C2336 C 0.13943 0.71111 0.69429 0.0
C2337 C 0.16095 0.68197 0.70834 0.0
C2338 C 0.15403 0.73479 0.66135 0.0
C2339 C 0.11411 0.75403 0.65608 0.0
N2340 N 0.15761 0.69898 0.6935 0.0
N2341 N 0.11739 0.73869 0.67331 0.0
H2342 H 0.98453 0.35795 0.41509 0.0
H2343 H 0.10527 0.39732 0.43803 0.0
H2344 H 0.02766 0.38158 0.36002 0.0
H2345 H 0.06631 0.37122 0.49546 0.0
H2346 H 0.07719 0.3888 0.40921 0.0
H2347 H 0.01397 0.36026 0.44469 0.0
C2348 C 1.00018 0.3635 0.40918 0.0
C2349 C 1.00352 0.36985 0.38504 0.0
C2350 C 0.07464 0.38476 0.42804 0.0
C2351 C 0.0372 0.37249 0.41877 0.0
C2352 C 0.09073 0.38964 0.44456 0.0
C2353 C 0.08799 0.38519 0.4692 0.0
C2354 C 0.0553 0.37559 0.4361 0.0
C2355 C 0.06898 0.37494 0.47658 0.0
C2356 C 0.01695 0.36484 0.4261 0.0
C2357 C 0.02412 0.37698 0.37847 0.0
N2358 N 0.05314 0.37071 0.46009 0.0
N2359 N 0.04005 0.37814 0.39519 0.0
H2360 H 0.34909 0.75143 0.41369 0.0
H2361 H 0.39655 0.68201 0.30338 0.0
H2362 H 0.4131 0.76153 0.38561 0.0
H2363 H 0.33804 0.66766 0.34212 0.0
H2364 H 0.40208 0.71329 0.33008 0.0
H2365 H 0.34369 0.7231 0.38402 0.0
C2366 C 0.36196 0.74789 0.40111 0.0
C2367 C 0.38159 0.75899 0.40226 0.0
C2368 C 0.38803 0.70326 0.33261 0.0
C2369 C 0.3756 0.72604 0.36817 0.0
C2370 C 0.38489 0.68543 0.31741 0.0
C2371 C 0.36693 0.67205 0.32068 0.0
C2372 C 0.37294 0.7078 0.35093 0.0
C2373 C 0.35219 0.6774 0.33895 0.0
C2374 C 0.35893 0.73152 0.38423 0.0
C2375 C 0.39778 0.75326 0.38563 0.0
N2376 N 0.35552 0.69474 0.3533 0.0
N2377 N 0.39445 0.73719 0.3693 0.0
H2378 H 0.09846 0.65142 0.07828 0.0
H2379 H 0.99079 0.60075 0.13448 0.0
H2380 H 0.07075 0.59189 0.05393 0.0
H2381 H 0.02055 0.65884 0.16078 0.0
H2382 H 0.01857 0.59831 0.10326 0.0
H2383 H 0.06839 0.65595 0.10638 0.0
C2384 C 0.08571 0.63965 0.07834 0.0
C2385 C 0.08683 0.62156 0.06335 0.0
C2386 C 0.01897 0.61164 0.1158 0.0
C2387 C 0.0527 0.62609 0.09616 0.0
C2388 C 1.00316 0.61298 0.13376 0.0
C2389 C 1.00325 0.63002 0.15042 0.0
C2390 C 0.03509 0.62742 0.11441 0.0
C2391 C 0.01956 0.64556 0.14822 0.0
C2392 C 0.06869 0.64203 0.09467 0.0
C2393 C 0.07039 0.60619 0.06506 0.0
N2394 N 0.0348 0.64385 0.13066 0.0
N2395 N 0.05403 0.60877 0.08117 0.0
H2396 H 0.11699 0.32885 0.80469 0.0
H2397 H 0.16802 0.25752 0.91129 0.0
H2398 H 0.17763 0.34151 0.8398 0.0
H2399 H 0.10155 0.25135 0.88979 0.0
H2400 H 0.17282 0.2854 0.88093 0.0
H2401 H 0.11193 0.29758 0.83159 0.0
C2402 C 0.12923 0.32503 0.81794 0.0
C2403 C 0.14762 0.33797 0.82022 0.0
C2404 C 0.15716 0.27796 0.88276 0.0
C2405 C 0.14217 0.30224 0.85062 0.0
C2406 C 0.15437 0.26206 0.90024 0.0
C2407 C 0.13427 0.25219 0.90344 0.0
C2408 C 0.13976 0.28419 0.86813 0.0
C2409 C 0.11737 0.25843 0.88798 0.0
C2410 C 0.12636 0.30722 0.83326 0.0
C2411 C 0.16311 0.33213 0.83747 0.0
N2412 N 0.12045 0.27412 0.87109 0.0
N2413 N 0.16002 0.31482 0.85193 0.0
H2414 H 0.52534 0.40035 0.63499 0.0
H2415 H 0.41313 0.35833 0.58117 0.0
H2416 H 0.48662 0.35122 0.66883 0.0
H2417 H 0.44693 0.41346 0.5535 0.0
H2418 H 0.44221 0.35246 0.61031 0.0
H2419 H 0.49878 0.40293 0.60255 0.0
C2420 C 0.51126 0.39013 0.6357 0.0
C2421 C 0.50829 0.3756 0.65488 0.0
C2422 C 0.44346 0.36565 0.59763 0.0
C2423 C 0.47785 0.37827 0.61739 0.0
C2424 C 0.42702 0.36875 0.5807 0.0
C2425 C 0.42791 0.38605 0.56452 0.0
C2426 C 0.46089 0.38005 0.59844 0.0
C2427 C 0.44576 0.39979 0.56555 0.0
C2428 C 0.49614 0.39153 0.61704 0.0
C2429 C 0.48985 0.36248 0.65437 0.0
N2430 N 0.46153 0.39653 0.58222 0.0
N2431 N 0.47536 0.36417 0.63602 0.0
H2432 H 0.07717 0.05949 0.2594 0.0
H2433 H 0.14609 0.95147 0.26122 0.0
H2434 H 0.14495 0.05921 0.27612 0.0
H2435 H 0.07812 0.95267 0.27689 0.0
H2436 H 0.14633 0.99088 0.26096 0.0
H2437 H 0.07753 0.02011 0.25899 0.0
C2438 C 0.09219 0.05115 0.26262 0.0
C2439 C 0.11107 0.0626 0.26781 0.0
C2440 C 0.1314 0.9825 0.26459 0.0
C2441 C 0.11157 0.01763 0.26742 0.0
C2442 C 0.13126 0.96006 0.2648 0.0
C2443 C 0.11207 0.94883 0.26919 0.0
C2444 C 0.11212 0.9938 0.26831 0.0
C2445 C 0.09328 0.9607 0.27359 0.0
C2446 C 0.09234 0.02869 0.26261 0.0
C2447 C 0.13005 0.05096 0.27205 0.0
N2448 N 0.09373 0.98255 0.2728 0.0
N2449 N 0.12984 0.02911 0.27171 0.0
H2450 H 0.20122 0.89571 0.52929 0.0
H2451 H 0.30801 0.82494 0.52654 0.0
H2452 H 0.20055 0.8285 0.5106 0.0
H2453 H 0.30865 0.89321 0.51344 0.0
H2454 H 0.26849 0.8258 0.52673 0.0
H2455 H 0.24064 0.8951 0.52851 0.0
C2456 C 0.2094 0.88089 0.52475 0.0
C2457 C 0.19764 0.86217 0.51985 0.0
C2458 C 0.27732 0.84058 0.5239 0.0
C2459 C 0.24267 0.8612 0.5196 0.0
C2460 C 0.29983 0.84013 0.52401 0.0
C2461 C 0.31156 0.85904 0.51998 0.0
C2462 C 0.26653 0.86013 0.52014 0.0
C2463 C 0.30018 0.87827 0.5166 0.0
C2464 C 0.23186 0.88053 0.52439 0.0
C2465 C 0.20901 0.84333 0.51429 0.0
N2466 N 0.2783 0.87835 0.51684 0.0
N2467 N 0.23092 0.84326 0.51457 0.0
H2468 H 0.43314 0.94804 0.75788 0.0
H2469 H 0.36584 0.05688 0.76301 0.0
H2470 H 0.36619 0.94938 0.77838 0.0
H2471 H 0.43435 0.05509 0.77513 0.0
H2472 H 0.36518 0.01752 0.76311 0.0
H2473 H 0.43342 0.98745 0.75759 0.0
C2474 C 0.41843 0.95663 0.76197 0.0
C2475 C 0.3996 0.94547 0.76814 0.0
C2476 C 0.38032 0.02575 0.76591 0.0
C2477 C 0.39983 0.99043 0.76789 0.0
C2478 C 0.38071 0.04817 0.76591 0.0
C2479 C 0.40016 0.05922 0.76919 0.0
C2480 C 0.39961 0.01427 0.76869 0.0
C2481 C 0.41899 0.04718 0.77271 0.0
C2482 C 0.41866 0.97909 0.76203 0.0
C2483 C 0.38103 0.95739 0.7735 0.0
N2484 N 0.41829 0.02533 0.77213 0.0
N2485 N 0.38159 0.97923 0.77319 0.0
H2486 H 0.20225 0.11444 1.01854 0.0
H2487 H 0.31101 0.1819 1.0095 0.0
H2488 H 0.20425 0.18294 0.02958 0.0
H2489 H 0.31038 0.11488 0.02916 0.0
H2490 H 0.27154 0.18211 1.01076 0.0
H2491 H 0.24169 0.1138 1.01758 0.0
C2492 C 0.21103 0.1293 1.02106 0.0
C2493 C 0.20001 0.14875 0.02428 0.0
C2494 C 0.28006 0.16735 1.01468 0.0
C2495 C 0.24504 0.14822 0.02252 0.0
C2496 C 0.30256 0.16716 1.01372 0.0
C2497 C 0.31395 0.14833 1.01922 0.0
C2498 C 0.2689 0.14849 1.02079 0.0
C2499 C 0.30218 0.12973 0.02479 0.0
C2500 C 0.2335 0.12893 1.02042 0.0
C2501 C 0.21213 0.16758 0.02725 0.0
N2502 N 0.28031 0.13025 0.02538 0.0
N2503 N 0.234 0.16689 0.02604 0.0
H2504 H 0.86389 0.05853 0.7802 0.0
H2505 H 0.93284 0.95078 0.78212 0.0
H2506 H 0.93169 0.05774 0.76361 0.0
H2507 H 0.86528 0.95102 0.76431 0.0
H2508 H 0.93251 0.99021 0.78204 0.0
H2509 H 0.8638 0.01914 0.78001 0.0
C2510 C 0.8787 0.05004 0.77626 0.0
C2511 C 0.89779 0.06137 0.77175 0.0
C2512 C 0.91776 0.98159 0.77827 0.0
C2513 C 0.89794 0.01643 0.77222 0.0
C2514 C 0.91788 0.95913 0.77854 0.0
C2515 C 0.89904 0.94766 0.77325 0.0
C2516 C 0.89858 0.99261 0.7731 0.0
C2517 C 0.88015 0.95928 0.76851 0.0
C2518 C 0.87865 0.02761 0.77623 0.0
C2519 C 0.91659 0.04962 0.76696 0.0
N2520 N 0.88036 0.98111 0.76864 0.0
N2521 N 0.91625 0.02776 0.76758 0.0
H2522 H 0.70157 0.11343 0.52533 0.0
H2523 H 0.80933 0.18304 0.53005 0.0
H2524 H 0.70173 0.18206 0.515 0.0
H2525 H 0.80897 0.11546 0.51311 0.0
H2526 H 0.76981 0.18284 0.52979 0.0
H2527 H 0.74096 0.11366 0.52504 0.0
C2528 C 0.70993 0.12852 0.52273 0.0
C2529 C 0.69841 0.14774 0.52007 0.0
C2530 C 0.77841 0.16806 0.52621 0.0
C2531 C 0.74345 0.1482 0.52031 0.0
C2532 C 0.80093 0.16812 0.52658 0.0
C2533 C 0.81239 0.14923 0.5216 0.0
C2534 C 0.76733 0.1489 0.52118 0.0
C2535 C 0.80073 0.13037 0.51702 0.0
C2536 C 0.73239 0.12865 0.52264 0.0
C2537 C 0.71001 0.16687 0.51692 0.0
N2538 N 0.77885 0.13067 0.51698 0.0
N2539 N 0.73192 0.16666 0.51736 0.0
H2540 H 0.62591 0.05852 0.23299 0.0
H2541 H 0.62407 0.95223 0.30922 0.0
H2542 H 0.60226 0.05967 0.30629 0.0
H2543 H 0.60097 0.95173 0.23571 0.0
H2544 H 0.62388 0.99157 0.30855 0.0
H2545 H 0.62458 0.0192 0.23363 0.0
C2546 C 0.62061 0.05048 0.24931 0.0
C2547 C 0.61425 0.06232 0.26971 0.0
C2548 C 0.61888 0.98282 0.2926 0.0
C2549 C 0.61301 0.01742 0.27055 0.0
C2550 C 0.61913 0.96041 0.29285 0.0
C2551 C 0.6126 0.94875 0.2724 0.0
C2552 C 0.61267 0.99366 0.27153 0.0
C2553 C 0.60612 0.96017 0.2518 0.0
C2554 C 0.61971 0.02809 0.24954 0.0
C2555 C 0.60729 0.05108 0.29024 0.0
N2556 N 0.60659 0.98206 0.25175 0.0
N2557 N 0.60712 0.02919 0.29027 0.0
H2558 H 0.70108 0.82596 0.03333 0.0
H2559 H 0.80979 0.89412 0.03153 0.0
H2560 H 0.70216 0.89373 1.01731 0.0
H2561 H 0.8085 0.82602 1.01758 0.0
H2562 H 0.77036 0.89451 0.0315 0.0
H2563 H 0.74057 0.82586 0.03379 0.0
C2564 C 0.70962 0.84087 0.03026 0.0
C2565 C 0.69836 0.85989 0.02527 0.0
C2566 C 0.7787 0.87951 0.0283 0.0
C2567 C 0.74343 0.85987 0.0257 0.0
C2568 C 0.80118 0.87929 0.02826 0.0
C2569 C 0.81239 0.86003 0.02445 0.0
C2570 C 0.76733 0.86026 0.02496 0.0
C2571 C 0.80046 0.84124 1.02042 0.0
C2572 C 0.73213 0.84076 0.03029 0.0
C2573 C 0.71024 0.87872 1.02122 0.0
N2574 N 0.77856 0.84177 1.02101 0.0
N2575 N 0.73212 0.87826 0.02157 0.0
H2576 H 0.60087 0.55962 0.73642 0.0
H2577 H 0.60445 0.45022 0.80931 0.0
H2578 H 0.62729 0.55739 0.80847 0.0
H2579 H 0.62314 0.45256 0.73424 0.0
H2580 H 0.60448 0.48985 0.81014 0.0
H2581 H 0.60063 0.52001 0.73575 0.0
C2582 C 0.60659 0.55079 0.75203 0.0
C2583 C 0.6143 0.56169 0.7724 0.0
C2584 C 0.60856 0.48156 0.79355 0.0
C2585 C 0.61343 0.51682 0.77208 0.0
C2586 C 0.60852 0.45907 0.79308 0.0
C2587 C 0.61399 0.4482 0.77178 0.0
C2588 C 0.6134 0.49308 0.77236 0.0
C2589 C 0.61907 0.46035 0.75113 0.0
C2590 C 0.60647 0.52831 0.75164 0.0
C2591 C 0.62146 0.54957 0.79228 0.0
N2592 N 0.61843 0.48215 0.75185 0.0
N2593 N 0.62065 0.52777 0.79173 0.0
H2594 H 0.80838 0.39763 1.01188 0.0
H2595 H 0.70016 0.32949 1.01208 0.0
H2596 H 0.80754 0.33016 0.02935 0.0
H2597 H 0.70079 0.39664 0.03104 0.0
H2598 H 0.73966 0.3297 1.01147 0.0
H2599 H 0.76891 0.39794 1.01295 0.0
C2600 C 0.79987 0.38294 1.01617 0.0
C2601 C 0.81121 0.36388 1.02069 0.0
C2602 C 0.73111 0.34439 1.01566 0.0
C2603 C 0.76616 0.36397 1.02124 0.0
C2604 C 0.70861 0.34434 1.0158 0.0
C2605 C 0.69723 0.3631 0.0216 0.0
C2606 C 0.74228 0.36344 1.0209 0.0
C2607 C 0.70898 0.38185 0.02647 0.0
C2608 C 0.77739 0.38312 1.01671 0.0
C2609 C 0.79941 0.34523 0.02596 0.0
N2610 N 0.73087 0.38158 0.0259 0.0
N2611 N 0.77751 0.34568 0.02582 0.0
H2612 H 0.86505 0.55724 0.26836 0.0
H2613 H 0.93114 0.44787 0.26014 0.0
H2614 H 0.93365 0.55455 0.27962 0.0
H2615 H 0.86446 0.44937 0.28172 0.0
H2616 H 0.9318 0.48727 0.26103 0.0
H2617 H 0.86393 0.51787 0.26818 0.0
C2618 C 0.87983 0.54834 0.27108 0.0
C2619 C 0.89945 0.55915 0.27416 0.0
C2620 C 0.91702 0.47895 0.26547 0.0
C2621 C 0.89838 0.51418 0.27326 0.0
C2622 C 0.91656 0.4565 0.26474 0.0
C2623 C 0.8977 0.44537 0.27084 0.0
C2624 C 0.89837 0.49035 0.27193 0.0
C2625 C 0.87933 0.45735 0.27687 0.0
C2626 C 0.87919 0.52591 0.27089 0.0
C2627 C 0.91816 0.54686 0.2774 0.0
N2628 N 0.88009 0.47919 0.27718 0.0
N2629 N 0.91721 0.52502 0.27659 0.0
H2630 H 0.7014 0.61368 0.51497 0.0
H2631 H 0.80911 0.68335 0.51003 0.0
H2632 H 0.70224 0.68172 0.5293 0.0
H2633 H 0.80967 0.61567 0.52654 0.0
H2634 H 0.76964 0.68275 0.51088 0.0
H2635 H 0.74089 0.61374 0.51414 0.0
C2636 C 0.70992 0.62859 0.51819 0.0
C2637 C 0.69854 0.6477 0.52234 0.0
C2638 C 0.77842 0.66802 0.5142 0.0
C2639 C 0.74365 0.64799 0.52076 0.0
C2640 C 0.80093 0.66831 0.51349 0.0
C2641 C 0.81268 0.64952 0.51821 0.0
C2642 C 0.76756 0.64875 0.51929 0.0
C2643 C 0.80122 0.63051 0.5228 0.0
C2644 C 0.73242 0.62862 0.51764 0.0
C2645 C 0.71037 0.6666 0.52623 0.0
N2646 N 0.77931 0.63059 0.52316 0.0
N2647 N 0.73226 0.66631 0.5251 0.0
H2648 H 0.36335 0.55683 0.28071 0.0
H2649 H 0.43278 0.44933 0.27745 0.0
H2650 H 0.43072 0.5566 0.26203 0.0
H2651 H 0.36457 0.44951 0.26315 0.0
H2652 H 0.43234 0.48875 0.27803 0.0
H2653 H 0.36337 0.51745 0.27955 0.0
C2654 C 0.37809 0.54847 0.27613 0.0
C2655 C 0.39703 0.55996 0.27133 0.0
C2656 C 0.41747 0.48013 0.27484 0.0
C2657 C 0.39731 0.51499 0.27062 0.0
C2658 C 0.41768 0.45766 0.27472 0.0
C2659 C 0.39868 0.44618 0.27024 0.0
C2660 C 0.39806 0.49115 0.2709 0.0
C2661 C 0.37958 0.45779 0.26665 0.0
C2662 C 0.3781 0.52604 0.27553 0.0
C2663 C 0.41573 0.54836 0.26567 0.0
N2664 N 0.37972 0.47963 0.26714 0.0
N2665 N 0.41546 0.5265 0.26572 0.0
H2666 H 0.31157 0.61266 1.01393 0.0
H2667 H 0.20461 0.68187 1.00222 0.0
H2668 H 0.31049 0.68118 0.02507 0.0
H2669 H 0.20301 0.6162 0.02705 0.0
H2670 H 0.24398 0.68074 1.00303 0.0
H2671 H 0.27209 0.6126 1.01265 0.0
C2672 C 0.30299 0.62765 1.01636 0.0
C2673 C 0.31424 0.64694 1.01974 0.0
C2674 C 0.23499 0.66655 1.00814 0.0
C2675 C 0.2693 0.64706 1.01757 0.0
C2676 C 0.21254 0.66709 1.00744 0.0
C2677 C 0.20055 0.6491 1.01462 0.0
C2678 C 0.24552 0.64777 1.01566 0.0
C2679 C 0.21168 0.63042 1.02138 0.0
C2680 C 0.28052 0.6276 1.01556 0.0
C2681 C 0.30241 0.66594 0.02262 0.0
N2682 N 0.23358 0.63021 0.02171 0.0
N2683 N 0.28056 0.66556 1.0212 0.0
H2684 H 0.08095 0.4519 0.76172 0.0
H2685 H 0.14765 0.56105 0.76309 0.0
H2686 H 0.14813 0.45394 0.78113 0.0
H2687 H 0.0793 0.5592 0.77638 0.0
H2688 H 0.14854 0.52172 0.76438 0.0
H2689 H 0.08041 0.49128 0.76073 0.0
C2690 C 0.09564 0.46063 0.76546 0.0
C2691 C 0.11463 0.44969 0.77152 0.0
C2692 C 0.13338 0.52993 0.76719 0.0
C2693 C 0.1141 0.49461 0.77044 0.0
C2694 C 0.13287 0.55234 0.76651 0.0
C2695 C 0.11339 0.56334 0.76975 0.0
C2696 C 0.1142 0.51844 0.77062 0.0
C2697 C 0.09467 0.55132 0.77397 0.0
C2698 C 0.09527 0.48308 0.76511 0.0
C2699 C 0.13317 0.46179 0.77639 0.0
N2700 N 0.09549 0.52947 0.77403 0.0
N2701 N 0.13247 0.48361 0.77567 0.0
H2702 H 0.20085 0.35545 0.55841 0.0
H2703 H 0.30877 0.35389 0.48445 0.0
H2704 H 0.20185 0.37861 0.48491 0.0
H2705 H 0.30848 0.37846 0.55734 0.0
H2706 H 0.26916 0.3558 0.48413 0.0
H2707 H 0.24055 0.35657 0.5588 0.0
C2708 C 0.20943 0.3608 0.54245 0.0
C2709 C 0.19815 0.36707 0.52169 0.0
C2710 C 0.27788 0.36089 0.50008 0.0
C2711 C 0.24312 0.36778 0.52175 0.0
C2712 C 0.30036 0.35983 0.50025 0.0
C2713 C 0.31182 0.36621 0.52083 0.0
C2714 C 0.26689 0.36765 0.52092 0.0
C2715 C 0.30023 0.37362 0.54099 0.0
C2716 C 0.23195 0.36148 0.54269 0.0
C2717 C 0.20995 0.37383 0.50138 0.0
N2718 N 0.27835 0.37384 0.54068 0.0
N2719 N 0.23181 0.37372 0.50179 0.0
H2720 H 0.10434 0.11145 0.0876 0.0
H2721 H 0.14688 0.16016 0.20768 0.0
H2722 H 0.13244 0.17467 0.08647 0.0
H2723 H 0.08589 0.12732 0.20769 0.0
H2724 H 0.1445 0.16386 0.16351 0.0
H2725 H 0.09957 0.11454 0.13157 0.0
C2726 C 0.10915 0.12615 0.09658 0.0
C2727 C 0.11858 0.14294 0.08332 0.0
C2728 C 0.13144 0.15623 0.17322 0.0
C2729 C 0.11393 0.14621 0.13378 0.0
C2730 C 0.13276 0.15413 0.1984 0.0
C2731 C 0.1164 0.14369 0.2114 0.0
C2732 C 0.11404 0.14705 0.16076 0.0
C2733 C 0.09866 0.13581 0.19842 0.0
C2734 C 0.10642 0.12788 0.12164 0.0
C2735 C 0.12481 0.16149 0.09594 0.0
N2736 N 0.09816 0.13725 0.17378 0.0
N2737 N 0.1228 0.16246 0.12052 0.0
H2738 H 0.11471 0.83887 0.45904 0.0
H2739 H 0.13148 0.90809 0.33975 0.0
H2740 H 0.11891 0.90799 0.45673 0.0
H2741 H 0.10337 0.84499 0.33425 0.0
H2742 H 0.12838 0.90631 0.38332 0.0
H2743 H 0.11095 0.83863 0.41447 0.0
C2744 C 0.11445 0.85396 0.44932 0.0
C2745 C 0.11743 0.87346 0.46176 0.0
C2746 C 0.1227 0.89281 0.37279 0.0
C2747 C 0.11342 0.87326 0.41094 0.0
C2748 C 0.12456 0.89377 0.34775 0.0
C2749 C 0.11775 0.87664 0.3332 0.0
C2750 C 0.11424 0.87437 0.38389 0.0
C2751 C 0.10874 0.85861 0.34478 0.0
C2752 C 0.11238 0.8538 0.42389 0.0
C2753 C 0.11705 0.8925 0.44811 0.0
N2754 N 0.10748 0.8578 0.36954 0.0
N2755 N 0.11534 0.89186 0.42366 0.0
H2756 H 0.35347 0.86312 0.70757 0.0
H2757 H 0.41708 0.85206 0.58202 0.0
H2758 H 0.42286 0.86467 0.70701 0.0
H2759 H 0.35311 0.87764 0.59096 0.0
H2760 H 0.41992 0.8487 0.62665 0.0
H2761 H 0.35349 0.85928 0.66395 0.0
C2762 C 0.36882 0.86244 0.6983 0.0
C2763 C 0.3882 0.86455 0.71114 0.0
C2764 C 0.40528 0.85493 0.61867 0.0
C2765 C 0.38829 0.86028 0.66044 0.0
C2766 C 0.40361 0.85673 0.59327 0.0
C2767 C 0.38486 0.86526 0.58271 0.0
C2768 C 0.38786 0.8612 0.63339 0.0
C2769 C 0.36795 0.87117 0.59818 0.0
C2770 C 0.36879 0.86029 0.67325 0.0
C2771 C 0.40753 0.86315 0.6979 0.0
N2772 N 0.36984 0.86896 0.62249 0.0
N2773 N 0.40711 0.86135 0.67319 0.0
H2774 H 0.38749 0.09979 0.83923 0.0
H2775 H 0.39473 0.17335 0.95683 0.0
H2776 H 0.40473 0.16654 0.83245 0.0
H2777 H 0.39689 0.10413 0.95655 0.0
H2778 H 0.39891 0.17297 0.9123 0.0
H2779 H 0.39075 0.10254 0.8828 0.0
C2780 C 0.39215 0.11508 0.84698 0.0
C2781 C 0.39584 0.13294 0.83211 0.0
C2782 C 0.39879 0.15794 0.92214 0.0
C2783 C 0.39933 0.13642 0.88271 0.0
C2784 C 0.39651 0.15815 0.94756 0.0
C2785 C 0.39521 0.13874 0.96053 0.0
C2786 C 0.39971 0.13819 0.90976 0.0
C2787 C 0.39746 0.11953 0.94746 0.0
C2788 C 0.39406 0.11666 0.87199 0.0
C2789 C 0.40189 0.15233 0.84327 0.0
N2790 N 0.39937 0.11978 0.92303 0.0
N2791 N 0.40317 0.15366 0.86798 0.0
H2792 H 0.8528 0.86776 0.83671 0.0
H2793 H 0.91703 0.85173 0.96109 0.0
H2794 H 0.9222 0.8657 0.83609 0.0
H2795 H 0.85437 0.88067 0.95338 0.0
H2796 H 0.91935 0.84901 0.91636 0.0
H2797 H 0.85316 0.86354 0.88025 0.0
C2798 C 0.86822 0.86625 0.84569 0.0
C2799 C 0.88752 0.86744 0.83255 0.0
C2800 C 0.90512 0.85585 0.92463 0.0
C2801 C 0.88801 0.86269 0.88319 0.0
C2802 C 0.90374 0.85729 0.95009 0.0
C2803 C 0.88553 0.86657 0.96103 0.0
C2804 C 0.88792 0.86324 0.91025 0.0
C2805 C 0.86883 0.87361 0.94588 0.0
C2806 C 0.86839 0.86387 0.87071 0.0
C2807 C 0.90692 0.86494 0.84545 0.0
N2808 N 0.87042 0.87173 0.92152 0.0
N2809 N 0.90671 0.86291 0.87015 0.0
H2810 H 0.85325 0.14074 0.70866 0.0
H2811 H 0.9161 0.15792 0.58389 0.0
H2812 H 0.92264 0.14347 0.70932 0.0
H2813 H 0.85563 0.12478 0.59259 0.0
H2814 H 0.91871 0.16082 0.62858 0.0
H2815 H 0.85365 0.14435 0.66507 0.0
C2816 C 0.86868 0.14229 0.69969 0.0
C2817 C 0.88798 0.14144 0.71287 0.0
C2818 C 0.90493 0.15298 0.62052 0.0
C2819 C 0.88848 0.14553 0.66216 0.0
C2820 C 0.90337 0.15142 0.59508 0.0
C2821 C 0.88567 0.14097 0.58439 0.0
C2822 C 0.88838 0.14455 0.63514 0.0
C2823 C 0.86969 0.13278 0.59982 0.0
C2824 C 0.86886 0.14431 0.67463 0.0
C2825 C 0.90737 0.14396 0.69994 0.0
N2826 N 0.87139 0.13485 0.62415 0.0
N2827 N 0.90717 0.14567 0.67521 0.0
H2828 H 0.60456 0.10836 0.45562 0.0
H2829 H 0.65211 0.15519 0.33719 0.0
H2830 H 0.63439 0.17075 0.45795 0.0
H2831 H 0.58873 0.12723 0.33508 0.0
H2832 H 0.64911 0.15831 0.38138 0.0
H2833 H 0.60114 0.11173 0.41148 0.0
C2834 C 0.61 0.12295 0.44686 0.0
C2835 C 0.61948 0.13945 0.46047 0.0
C2836 C 0.63573 0.15182 0.37119 0.0
C2837 C 0.61648 0.14297 0.40994 0.0
C2838 C 0.63743 0.15002 0.34601 0.0
C2839 C 0.62054 0.14115 0.33242 0.0
C2840 C 0.61737 0.14392 0.38302 0.0
C2841 C 0.60198 0.13444 0.34483 0.0
C2842 C 0.60807 0.12484 0.42171 0.0
C2843 C 0.62665 0.15784 0.44816 0.0
N2844 N 0.60106 0.13555 0.36946 0.0
N2845 N 0.62542 0.15893 0.42354 0.0
H2846 H 0.60181 0.89783 0.08629 0.0
H2847 H 0.64783 0.85294 0.20663 0.0
H2848 H 0.63293 0.83603 0.08613 0.0
H2849 H 0.58515 0.8825 0.20698 0.0
H2850 H 0.64526 0.84876 0.16256 0.0
H2851 H 0.59751 0.89517 0.13037 0.0
C2852 C 0.60736 0.88351 0.09552 0.0
C2853 C 0.6175 0.867 0.08252 0.0
C2854 C 0.63192 0.85582 0.17233 0.0
C2855 C 0.61344 0.86427 0.13303 0.0
C2856 C 0.63337 0.85823 0.19745 0.0
C2857 C 0.61658 0.8679 0.2105 0.0
C2858 C 0.61391 0.86388 0.15999 0.0
C2859 C 0.59832 0.8747 0.19764 0.0
C2860 C 0.60491 0.88202 0.12063 0.0
C2861 C 0.62472 0.84894 0.09542 0.0
N2862 N 0.59765 0.87297 0.17304 0.0
N2863 N 0.62296 0.84825 0.12002 0.0
H2864 H 0.65118 0.65555 0.70644 0.0
H2865 H 0.60358 0.6105 0.58718 0.0
H2866 H 0.58786 0.62741 0.70803 0.0
H2867 H 0.63401 0.67263 0.58595 0.0
H2868 H 0.6001 0.61325 0.63135 0.0
H2869 H 0.64824 0.65932 0.66232 0.0
C2870 C 0.63651 0.65049 0.69752 0.0
C2871 C 0.61963 0.64137 0.71094 0.0
C2872 C 0.60719 0.62644 0.62135 0.0
C2873 C 0.61654 0.64489 0.66039 0.0
C2874 C 0.60917 0.6249 0.59619 0.0
C2875 C 0.61886 0.64149 0.58286 0.0
C2876 C 0.61572 0.64432 0.63345 0.0
C2877 C 0.62614 0.65964 0.5955 0.0
C2878 C 0.63486 0.65266 0.67238 0.0
C2879 C 0.6011 0.63481 0.69841 0.0
N2880 N 0.62484 0.66039 0.62014 0.0
N2881 N 0.60022 0.63628 0.67379 0.0
H2882 H 0.65523 0.38456 0.83897 0.0
H2883 H 0.60467 0.34209 0.96088 0.0
H2884 H 0.59155 0.35705 0.83428 0.0
H2885 H 0.63774 0.40274 0.95322 0.0
H2886 H 0.60272 0.33971 0.91614 0.0
H2887 H 0.65332 0.38237 0.88261 0.0
C2888 C 0.64082 0.37784 0.847 0.0
C2889 C 0.62339 0.37122 0.83262 0.0
C2890 C 0.61019 0.35354 0.92451 0.0
C2891 C 0.62129 0.36856 0.88337 0.0
C2892 C 0.61134 0.35492 0.94998 0.0
C2893 C 0.62153 0.37256 0.96108 0.0
C2894 C 0.6197 0.36967 0.91024 0.0
C2895 C 0.62986 0.38869 0.94588 0.0
C2896 C 0.63978 0.37666 0.87208 0.0
C2897 C 0.60533 0.36249 0.84456 0.0
N2898 N 0.62899 0.3867 0.9215 0.0
N2899 N 0.60469 0.36145 0.86932 0.0
H2900 H 0.86437 0.39936 0.0892 0.0
H2901 H 0.91927 0.35763 0.20865 0.0
H2902 H 0.90711 0.34503 0.08207 0.0
H2903 H 0.85302 0.37809 0.20368 0.0
H2904 H 0.92054 0.35575 0.16389 0.0
H2905 H 0.86634 0.39617 0.13263 0.0
C2906 C 0.87438 0.38675 0.09666 0.0
C2907 C 0.88555 0.37238 0.08159 0.0
C2908 C 0.90574 0.36036 0.17282 0.0
C2909 C 0.88782 0.36872 0.13231 0.0
C2910 C 0.90497 0.36144 0.19832 0.0
C2911 C 0.8861 0.36831 0.21016 0.0
C2912 C 0.88762 0.36651 0.15921 0.0
C2913 C 0.86809 0.37303 0.19568 0.0
C2914 C 0.87536 0.3849 0.12167 0.0
C2915 C 0.89814 0.35641 0.09287 0.0
N2916 N 0.86943 0.37232 0.17122 0.0
N2917 N 0.89902 0.35503 0.11763 0.0
H2918 H 0.92759 0.626 0.33487 0.0
H2919 H 0.87894 0.67587 0.45648 0.0
H2920 H 0.86528 0.6563 0.33636 0.0
H2921 H 0.9097 0.61387 0.4556 0.0
H2922 H 0.88279 0.67771 0.41213 0.0
H2923 H 0.93002 0.63042 0.37911 0.0
C2924 C 0.91473 0.63412 0.34441 0.0
C2925 C 0.89624 0.64087 0.33196 0.0
C2926 C 0.88908 0.66394 0.42178 0.0
C2927 C 0.89902 0.64617 0.38231 0.0
C2928 C 0.88706 0.66296 0.44704 0.0
C2929 C 0.8941 0.64473 0.4597 0.0
C2930 C 0.89873 0.64684 0.40922 0.0
C2931 C 0.90411 0.62823 0.44651 0.0
C2932 C 0.91604 0.63647 0.36961 0.0
C2933 C 0.87982 0.65092 0.34528 0.0
N2934 N 0.90619 0.62969 0.42204 0.0
N2935 N 0.88161 0.65333 0.36968 0.0
H2936 H 0.4048 0.34026 0.33241 0.0
H2937 H 0.39303 0.40461 0.45732 0.0
H2938 H 0.38128 0.405 0.34029 0.0
H2939 H 0.3916 0.33534 0.45697 0.0
H2940 H 0.39727 0.40451 0.41378 0.0
H2941 H 0.40757 0.33768 0.3771 0.0
C2942 C 0.40051 0.35395 0.34345 0.0
C2943 C 0.39269 0.37284 0.33261 0.0
C2944 C 0.39615 0.38925 0.42311 0.0
C2945 C 0.39602 0.37011 0.38333 0.0
C2946 C 0.39375 0.38927 0.44813 0.0
C2947 C 0.3916 0.36994 0.46101 0.0
C2948 C 0.3964 0.36977 0.41038 0.0
C2949 C 0.3931 0.35064 0.44783 0.0
C2950 C 0.40195 0.35243 0.36889 0.0
C2951 C 0.3872 0.39005 0.34778 0.0
N2952 N 0.39518 0.35101 0.42316 0.0
N2953 N 0.38902 0.38827 0.37213 0.0
H2954 H 0.35245 0.63774 0.20738 0.0
H2955 H 0.41718 0.65701 0.08398 0.0
H2956 H 0.42168 0.64268 0.20935 0.0
H2957 H 0.35656 0.62386 0.09092 0.0
H2958 H 0.41895 0.65959 0.12877 0.0
H2959 H 0.35337 0.64156 0.16383 0.0
C2960 C 0.36794 0.63979 0.19871 0.0
C2961 C 0.38705 0.63953 0.21228 0.0
C2962 C 0.40531 0.65183 0.1203 0.0
C2963 C 0.38818 0.64389 0.16155 0.0
C2964 C 0.40423 0.65046 0.0948 0.0
C2965 C 0.38676 0.64008 0.08359 0.0
C2966 C 0.38851 0.64325 0.13447 0.0
C2967 C 0.37048 0.63181 0.09858 0.0
C2968 C 0.36843 0.64194 0.17366 0.0
C2969 C 0.40654 0.64268 0.19969 0.0
N2970 N 0.37173 0.63367 0.12296 0.0
N2971 N 0.40665 0.64453 0.17497 0.0
H2972 H 0.12814 0.60361 0.83803 0.0
H2973 H 0.12114 0.67682 0.95564 0.0
H2974 H 0.10857 0.66975 0.83152 0.0
H2975 H 0.11865 0.6076 0.95548 0.0
H2976 H 0.11653 0.67642 0.91119 0.0
H2977 H 0.12545 0.60632 0.88167 0.0
C2978 C 0.12311 0.61876 0.84586 0.0
C2979 C 0.11858 0.63646 0.83105 0.0
C2980 C 0.11669 0.66139 0.92105 0.0
C2981 C 0.11573 0.63988 0.88168 0.0
C2982 C 0.11924 0.66161 0.94642 0.0
C2983 C 0.12059 0.64221 0.95941 0.0
C2984 C 0.11559 0.64164 0.90871 0.0
C2985 C 0.11811 0.62299 0.94639 0.0
C2986 C 0.12151 0.6203 0.87089 0.0
C2987 C 0.11207 0.65566 0.84229 0.0
N2988 N 0.11597 0.62323 0.92198 0.0
N2989 N 0.11111 0.65698 0.86703 0.0
H2990 H 0.15982 0.37887 0.70628 0.0
H2991 H 0.10071 0.3467 0.58466 0.0
H2992 H 0.09226 0.36317 0.71098 0.0
H2993 H 0.14665 0.39834 0.59139 0.0
H2994 H 0.09923 0.34438 0.62942 0.0
H2995 H 0.1578 0.37637 0.66267 0.0
C2996 C 0.14448 0.3747 0.69824 0.0
C2997 C 0.12606 0.3716 0.71261 0.0
C2998 C 0.10946 0.35624 0.62089 0.0
C2999 C 0.1238 0.36858 0.66187 0.0
C3000 C 0.11039 0.35754 0.59541 0.0
C3001 C 0.12381 0.37276 0.58407 0.0
C3002 C 0.1225 0.36984 0.63495 0.0
C3003 C 0.13597 0.38639 0.59903 0.0
C3004 C 0.1434 0.37332 0.67317 0.0
C3005 C 0.10685 0.36583 0.70071 0.0
N3006 N 0.13518 0.38443 0.62344 0.0
N3007 N 0.10615 0.36463 0.67595 0.0
loop_
_geom_bond_atom_site_label_1
_geom_bond_atom_site_label_2
_geom_bond_distance
_geom_bond_site_symmetry_2
_ccdc_geom_bond_type
Sm0 C2 2.846 . S
Sm0 O20 2.543 . S
Sm0 O21 2.450 . S
Sm0 O22 2.681 . S
Sm0 O23 2.464 . S
Sm0 O24 2.396 . S
Sm0 O28 2.386 . S
Sm0 O31 2.408 . S
Sm1 C11 2.846 . S
Sm1 O22 2.386 . S
Sm1 O25 2.408 . S
Sm1 O26 2.543 . S
Sm1 O27 2.450 . S
Sm1 O28 2.681 . S
Sm1 O29 2.464 . S
Sm1 O30 2.396 . S
C2 Sm0 2.846 . S
C2 C3 1.506 . S
C2 O20 1.261 . S
C2 O21 1.242 . S
C3 C2 1.506 . S
C3 C4 1.358 . S
C3 C8 1.382 . S
C4 C3 1.358 . S
C4 C5 1.385 . S
C4 H32 0.930 . S
C5 C4 1.385 . S
C5 C6 1.395 . S
C5 H33 0.929 . S
C6 C5 1.395 . S
C6 C7 1.335 . S
C7 C6 1.335 . S
C7 C8 1.398 . S
C7 H34 0.930 . S
C8 C3 1.382 . S
C8 C7 1.398 . S
C8 H35 0.929 . S
C9 O22 1.271 . S
C9 O23 1.251 . S
C10 O24 1.252 . S
C10 O25 1.272 . S
C11 Sm1 2.846 . S
C11 C12 1.506 . S
C11 O26 1.261 . S
C11 O27 1.242 . S
C12 C11 1.506 . S
C12 C13 1.358 . S
C12 C17 1.382 . S
C13 C12 1.358 . S
C13 C14 1.385 . S
C13 H36 0.930 . S
C14 C13 1.385 . S
C14 C15 1.395 . S
C14 H37 0.929 . S
C15 C14 1.395 . S
C15 C16 1.335 . S
C16 C15 1.335 . S
C16 C17 1.398 . S
C16 H38 0.930 . S
C17 C12 1.382 . S
C17 C16 1.398 . S
C17 H39 0.929 . S
C18 O28 1.271 . S
C18 O29 1.251 . S
C19 O30 1.252 . S
C19 O31 1.272 . S
O20 Sm0 2.543 . S
O20 C2 1.261 . S
O21 Sm0 2.450 . S
O21 C2 1.242 . S
O22 Sm0 2.681 . S
O22 Sm1 2.386 . S
O22 C9 1.271 . S
O23 Sm0 2.464 . S
O23 C9 1.251 . S
O24 Sm0 2.396 . S
O24 C10 1.252 . S
O25 Sm1 2.408 . S
O25 C10 1.272 . S
O26 Sm1 2.543 . S
O26 C11 1.261 . S
O27 Sm1 2.450 . S
O27 C11 1.242 . S
O28 Sm0 2.386 . S
O28 Sm1 2.681 . S
O28 C18 1.271 . S
O29 Sm1 2.464 . S
O29 C18 1.251 . S
O30 Sm1 2.396 . S
O30 C19 1.252 . S
O31 Sm0 2.408 . S
O31 C19 1.272 . S
H32 C4 0.930 . S
H33 C5 0.929 . S
H34 C7 0.930 . S
H35 C8 0.929 . S
H36 C13 0.930 . S
H37 C14 0.929 . S
H38 C16 0.930 . S
H39 C17 0.929 . S
Sm40 C42 2.846 . S
Sm40 O60 2.543 . S
Sm40 O61 2.450 . S
Sm40 O62 2.681 . S
Sm40 O63 2.464 . S
Sm40 O64 2.396 . S
Sm40 O68 2.386 . S
Sm40 O71 2.408 . S
Sm41 C51 2.846 . S
Sm41 O62 2.386 . S
Sm41 O65 2.408 . S
Sm41 O66 2.543 . S
Sm41 O67 2.450 . S
Sm41 O68 2.681 . S
Sm41 O69 2.464 . S
Sm41 O70 2.396 . S
C42 Sm40 2.846 . S
C42 C43 1.506 . S
C42 O60 1.261 . S
C42 O61 1.242 . S
C43 C42 1.506 . S
C43 C44 1.358 . S
C43 C48 1.382 . S
C44 C43 1.358 . S
C44 C45 1.385 . S
C44 H72 0.930 . S
C45 C44 1.385 . S
C45 C46 1.395 . S
C45 H73 0.929 . S
C46 C45 1.395 . S
C46 C47 1.335 . S
C47 C46 1.335 . S
C47 C48 1.398 . S
C47 H74 0.922 1_565 S
C48 C43 1.382 . S
C48 C47 1.398 . S
C48 H75 0.929 . S
C49 O62 1.271 . S
C49 O63 1.251 . S
C50 O64 1.252 . S
C50 O65 1.272 . S
C51 Sm41 2.846 . S
C51 C52 1.506 . S
C51 O66 1.261 . S
C51 O67 1.242 . S
C52 C51 1.506 . S
C52 C53 1.358 . S
C52 C57 1.382 . S
C53 C52 1.358 . S
C53 C54 1.385 . S
C53 H76 0.930 . S
C54 C53 1.385 . S
C54 C55 1.395 . S
C54 H77 0.929 . S
C55 C54 1.395 . S
C55 C56 1.335 . S
C56 C55 1.335 . S
C56 C57 1.398 . S
C56 H78 0.930 . S
C57 C52 1.382 . S
C57 C56 1.398 . S
C57 H79 0.929 . S
C58 O68 1.271 . S
C58 O69 1.251 . S
C59 O70 1.252 . S
C59 O71 1.272 . S
O60 Sm40 2.543 . S
O60 C42 1.261 . S
O61 Sm40 2.450 . S
O61 C42 1.242 . S
O62 Sm40 2.681 . S
O62 Sm41 2.386 . S
O62 C49 1.271 . S
O63 Sm40 2.464 . S
O63 C49 1.251 . S
O64 Sm40 2.396 . S
O64 C50 1.252 . S
O65 Sm41 2.408 . S
O65 C50 1.272 . S
O66 Sm41 2.543 . S
O66 C51 1.261 . S
O67 Sm41 2.450 . S
O67 C51 1.242 . S
O68 Sm40 2.386 . S
O68 Sm41 2.681 . S
O68 C58 1.271 . S
O69 Sm41 2.464 . S
O69 C58 1.251 . S
O70 Sm41 2.396 . S
O70 C59 1.252 . S
O71 Sm40 2.408 . S
O71 C59 1.272 . S
H72 C44 0.930 . S
H73 C45 0.929 . S
H74 C47 0.922 1_545 S
H75 C48 0.929 . S
H76 C53 0.930 . S
H77 C54 0.929 . S
H78 C56 0.930 . S
H79 C57 0.929 . S
Sm80 C82 2.846 . S
Sm80 O100 2.543 . S
Sm80 O101 2.450 . S
Sm80 O102 2.681 . S
Sm80 O103 2.464 . S
Sm80 O104 2.396 . S
Sm80 O108 2.386 . S
Sm80 O111 2.408 . S
Sm81 C91 2.846 . S
Sm81 O102 2.386 . S
Sm81 O105 2.408 . S
Sm81 O106 2.543 . S
Sm81 O107 2.450 . S
Sm81 O108 2.681 . S
Sm81 O109 2.464 . S
Sm81 O110 2.396 . S
C82 Sm80 2.846 . S
C82 C83 1.506 . S
C82 O100 1.261 . S
C82 O101 1.242 . S
C83 C82 1.506 . S
C83 C84 1.358 . S
C83 C88 1.382 . S
C84 C83 1.358 . S
C84 C85 1.385 . S
C84 H112 0.930 . S
C85 C84 1.385 . S
C85 C86 1.395 . S
C85 H113 0.929 . S
C86 C85 1.395 . S
C86 C87 1.335 . S
C87 C86 1.335 . S
C87 C88 1.398 . S
C87 H114 0.930 . S
C88 C83 1.382 . S
C88 C87 1.398 . S
C88 H115 0.929 . S
C89 O102 1.271 . S
C89 O103 1.251 . S
C90 O104 1.252 . S
C90 O105 1.272 . S
C91 Sm81 2.846 . S
C91 C92 1.506 . S
C91 O106 1.261 . S
C91 O107 1.242 . S
C92 C91 1.506 . S
C92 C93 1.358 . S
C92 C97 1.382 . S
C93 C92 1.358 . S
C93 C94 1.385 . S
C93 H116 0.930 . S
C94 C93 1.385 . S
C94 C95 1.395 . S
C94 H117 0.929 . S
C95 C94 1.395 . S
C95 C96 1.335 . S
C96 C95 1.335 . S
C96 C97 1.398 . S
C96 H118 0.930 . S
C97 C92 1.382 . S
C97 C96 1.398 . S
C97 H119 0.929 . S
C98 O108 1.271 . S
C98 O109 1.251 . S
C99 O110 1.252 . S
C99 O111 1.272 . S
O100 Sm80 2.543 . S
O100 C82 1.261 . S
O101 Sm80 2.450 . S
O101 C82 1.242 . S
O102 Sm80 2.681 . S
O102 Sm81 2.386 . S
O102 C89 1.271 . S
O103 Sm80 2.464 . S
O103 C89 1.251 . S
O104 Sm80 2.396 . S
O104 C90 1.252 . S
O105 Sm81 2.408 . S
O105 C90 1.272 . S
O106 Sm81 2.543 . S
O106 C91 1.261 . S
O107 Sm81 2.450 . S
O107 C91 1.242 . S
O108 Sm80 2.386 . S
O108 Sm81 2.681 . S
O108 C98 1.271 . S
O109 Sm81 2.464 . S
O109 C98 1.251 . S
O110 Sm81 2.396 . S
O110 C99 1.252 . S
O111 Sm80 2.408 . S
O111 C99 1.272 . S
H112 C84 0.930 . S
H113 C85 0.929 . S
H114 C87 0.930 . S
H115 C88 0.929 . S
H116 C93 0.930 . S
H117 C94 0.929 . S
H118 C96 0.930 . S
H119 C97 0.929 . S
Sm120 C122 2.846 1_554 S
Sm120 O140 2.543 1_554 S
Sm120 O141 2.450 . S
Sm120 O142 2.681 . S
Sm120 O143 2.464 . S
Sm120 O144 2.396 1_554 S
Sm120 O148 2.386 . S
Sm120 O151 2.408 . S
Sm121 C131 2.846 . S
Sm121 O142 2.386 . S
Sm121 O145 2.408 1_554 S
Sm121 O146 2.543 . S
Sm121 O147 2.450 . S
Sm121 O148 2.681 . S
Sm121 O149 2.464 . S
Sm121 O150 2.396 . S
C122 Sm120 2.846 1_556 S
C122 C123 1.506 . S
C122 O140 1.261 . S
C122 O141 1.242 1_556 S
C123 C122 1.506 . S
C123 C124 1.358 . S
C123 C128 1.382 . S
C124 C123 1.358 . S
C124 C125 1.385 . S
C124 H152 0.930 . S
C125 C124 1.385 . S
C125 C126 1.395 . S
C125 H153 0.929 . S
C126 C125 1.395 . S
C126 C127 1.335 . S
C127 C126 1.335 . S
C127 C128 1.398 . S
C127 H154 0.922 1_545 S
C128 C123 1.382 . S
C128 C127 1.398 . S
C128 H155 0.929 . S
C129 O142 1.271 . S
C129 O143 1.251 . S
C130 O144 1.252 . S
C130 O145 1.272 . S
C131 Sm121 2.846 . S
C131 C132 1.506 . S
C131 O146 1.261 . S
C131 O147 1.242 . S
C132 C131 1.506 . S
C132 C133 1.358 . S
C132 C137 1.382 . S
C133 C132 1.358 . S
C133 C134 1.385 . S
C133 H156 0.930 . S
C134 C133 1.385 . S
C134 C135 1.395 . S
C134 H157 0.929 . S
C135 C134 1.395 . S
C135 C136 1.335 . S
C136 C135 1.335 . S
C136 C137 1.398 . S
C136 H158 0.930 . S
C137 C132 1.382 . S
C137 C136 1.398 . S
C137 H159 0.929 . S
C138 O148 1.271 . S
C138 O149 1.251 . S
C139 O150 1.252 . S
C139 O151 1.272 . S
O140 Sm120 2.543 1_556 S
O140 C122 1.261 . S
O141 Sm120 2.450 . S
O141 C122 1.242 1_554 S
O142 Sm120 2.681 . S
O142 Sm121 2.386 . S
O142 C129 1.271 . S
O143 Sm120 2.464 . S
O143 C129 1.251 . S
O144 Sm120 2.396 1_556 S
O144 C130 1.252 . S
O145 Sm121 2.408 1_556 S
O145 C130 1.272 . S
O146 Sm121 2.543 . S
O146 C131 1.261 . S
O147 Sm121 2.450 . S
O147 C131 1.242 . S
O148 Sm120 2.386 . S
O148 Sm121 2.681 . S
O148 C138 1.271 . S
O149 Sm121 2.464 . S
O149 C138 1.251 . S
O150 Sm121 2.396 . S
O150 C139 1.252 . S
O151 Sm120 2.408 . S
O151 C139 1.272 . S
H152 C124 0.930 . S
H153 C125 0.929 . S
H154 C127 0.922 1_565 S
H155 C128 0.929 . S
H156 C133 0.930 . S
H157 C134 0.929 . S
H158 C136 0.930 . S
H159 C137 0.929 . S
Sm160 C162 2.846 . S
Sm160 O180 2.543 . S
Sm160 O181 2.450 . S
Sm160 O182 2.681 . S
Sm160 O183 2.464 . S
Sm160 O184 2.396 . S
Sm160 O188 2.386 . S
Sm160 O191 2.408 . S
Sm161 C171 2.846 . S
Sm161 O182 2.386 . S
Sm161 O185 2.408 . S
Sm161 O186 2.543 . S
Sm161 O187 2.450 . S
Sm161 O188 2.681 . S
Sm161 O189 2.464 . S
Sm161 O190 2.396 . S
C162 Sm160 2.846 . S
C162 C163 1.506 . S
C162 O180 1.261 . S
C162 O181 1.242 . S
C163 C162 1.506 . S
C163 C164 1.358 . S
C163 C168 1.382 . S
C164 C163 1.358 . S
C164 C165 1.385 . S
C164 H192 0.930 . S
C165 C164 1.385 . S
C165 C166 1.395 . S
C165 H193 0.929 . S
C166 C165 1.395 . S
C166 C167 1.335 . S
C167 C166 1.335 . S
C167 C168 1.398 . S
C167 H194 0.930 . S
C168 C163 1.382 . S
C168 C167 1.398 . S
C168 H195 0.929 . S
C169 O182 1.271 . S
C169 O183 1.251 . S
C170 O184 1.252 . S
C170 O185 1.272 . S
C171 Sm161 2.846 . S
C171 C172 1.506 . S
C171 O186 1.261 . S
C171 O187 1.242 . S
C172 C171 1.506 . S
C172 C173 1.358 . S
C172 C177 1.382 . S
C173 C172 1.358 . S
C173 C174 1.385 . S
C173 H196 0.930 . S
C174 C173 1.385 . S
C174 C175 1.395 . S
C174 H197 0.929 . S
C175 C174 1.395 . S
C175 C176 1.335 . S
C176 C175 1.335 . S
C176 C177 1.398 . S
C176 H198 0.930 . S
C177 C172 1.382 . S
C177 C176 1.398 . S
C177 H199 0.929 . S
C178 O188 1.271 . S
C178 O189 1.251 . S
C179 O190 1.252 . S
C179 O191 1.272 . S
O180 Sm160 2.543 . S
O180 C162 1.261 . S
O181 Sm160 2.450 . S
O181 C162 1.242 . S
O182 Sm160 2.681 . S
O182 Sm161 2.386 . S
O182 C169 1.271 . S
O183 Sm160 2.464 . S
O183 C169 1.251 . S
O184 Sm160 2.396 . S
O184 C170 1.252 . S
O185 Sm161 2.408 . S
O185 C170 1.272 . S
O186 Sm161 2.543 . S
O186 C171 1.261 . S
O187 Sm161 2.450 . S
O187 C171 1.242 . S
O188 Sm160 2.386 . S
O188 Sm161 2.681 . S
O188 C178 1.271 . S
O189 Sm161 2.464 . S
O189 C178 1.251 . S
O190 Sm161 2.396 . S
O190 C179 1.252 . S
O191 Sm160 2.408 . S
O191 C179 1.272 . S
H192 C164 0.930 . S
H193 C165 0.929 . S
H194 C167 0.930 . S
H195 C168 0.929 . S
H196 C173 0.930 . S
H197 C174 0.929 . S
H198 C176 0.930 . S
H199 C177 0.929 . S
Sm200 C202 2.846 . S
Sm200 O220 2.543 . S
Sm200 O221 2.450 . S
Sm200 O222 2.681 . S
Sm200 O223 2.464 . S
Sm200 O224 2.396 . S
Sm200 O228 2.386 . S
Sm200 O231 2.408 . S
Sm201 C211 2.846 . S
Sm201 O222 2.386 . S
Sm201 O225 2.408 . S
Sm201 O226 2.543 . S
Sm201 O227 2.450 . S
Sm201 O228 2.681 . S
Sm201 O229 2.464 . S
Sm201 O230 2.396 . S
C202 Sm200 2.846 . S
C202 C203 1.506 . S
C202 O220 1.261 . S
C202 O221 1.242 . S
C203 C202 1.506 . S
C203 C204 1.358 . S
C203 C208 1.382 . S
C204 C203 1.358 . S
C204 C205 1.385 . S
C204 H232 0.930 . S
C205 C204 1.385 . S
C205 C206 1.395 . S
C205 H233 0.929 . S
C206 C205 1.395 . S
C206 C207 1.335 . S
C207 C206 1.335 . S
C207 C208 1.398 . S
C207 H234 0.922 1_565 S
C208 C203 1.382 . S
C208 C207 1.398 . S
C208 H235 0.929 . S
C209 O222 1.271 . S
C209 O223 1.251 . S
C210 O224 1.252 . S
C210 O225 1.272 . S
C211 Sm201 2.846 . S
C211 C212 1.506 . S
C211 O226 1.261 . S
C211 O227 1.242 . S
C212 C211 1.506 . S
C212 C213 1.358 . S
C212 C217 1.382 . S
C213 C212 1.358 . S
C213 C214 1.385 . S
C213 H236 0.930 . S
C214 C213 1.385 . S
C214 C215 1.395 . S
C214 H237 0.929 . S
C215 C214 1.395 . S
C215 C216 1.335 . S
C216 C215 1.335 . S
C216 C217 1.398 . S
C216 H238 0.930 . S
C217 C212 1.382 . S
C217 C216 1.398 . S
C217 H239 0.929 . S
C218 O228 1.271 . S
C218 O229 1.251 . S
C219 O230 1.252 . S
C219 O231 1.272 . S
O220 Sm200 2.543 . S
O220 C202 1.261 . S
O221 Sm200 2.450 . S
O221 C202 1.242 . S
O222 Sm200 2.681 . S
O222 Sm201 2.386 . S
O222 C209 1.271 . S
O223 Sm200 2.464 . S
O223 C209 1.251 . S
O224 Sm200 2.396 . S
O224 C210 1.252 . S
O225 Sm201 2.408 . S
O225 C210 1.272 . S
O226 Sm201 2.543 . S
O226 C211 1.261 . S
O227 Sm201 2.450 . S
O227 C211 1.242 . S
O228 Sm200 2.386 . S
O228 Sm201 2.681 . S
O228 C218 1.271 . S
O229 Sm201 2.464 . S
O229 C218 1.251 . S
O230 Sm201 2.396 . S
O230 C219 1.252 . S
O231 Sm200 2.408 . S
O231 C219 1.272 . S
H232 C204 0.930 . S
H233 C205 0.929 . S
H234 C207 0.922 1_545 S
H235 C208 0.929 . S
H236 C213 0.930 . S
H237 C214 0.929 . S
H238 C216 0.930 . S
H239 C217 0.929 . S
Sm240 C242 2.846 . S
Sm240 O260 2.543 . S
Sm240 O261 2.450 . S
Sm240 O262 2.681 . S
Sm240 O263 2.464 . S
Sm240 O264 2.396 . S
Sm240 O268 2.386 . S
Sm240 O271 2.408 . S
Sm241 C251 2.846 . S
Sm241 O262 2.386 . S
Sm241 O265 2.408 . S
Sm241 O266 2.543 . S
Sm241 O267 2.450 . S
Sm241 O268 2.681 . S
Sm241 O269 2.464 . S
Sm241 O270 2.396 . S
C242 Sm240 2.846 . S
C242 C243 1.506 . S
C242 O260 1.261 . S
C242 O261 1.242 . S
C243 C242 1.506 . S
C243 C244 1.358 . S
C243 C248 1.382 . S
C244 C243 1.358 . S
C244 C245 1.385 . S
C244 H272 0.930 . S
C245 C244 1.385 . S
C245 C246 1.395 . S
C245 H273 0.929 . S
C246 C245 1.395 . S
C246 C247 1.335 . S
C247 C246 1.335 . S
C247 C248 1.398 . S
C247 H274 0.930 . S
C248 C243 1.382 . S
C248 C247 1.398 . S
C248 H275 0.929 . S
C249 O262 1.271 . S
C249 O263 1.251 . S
C250 O264 1.252 . S
C250 O265 1.272 . S
C251 Sm241 2.846 . S
C251 C252 1.506 . S
C251 O266 1.261 . S
C251 O267 1.242 . S
C252 C251 1.506 . S
C252 C253 1.358 . S
C252 C257 1.382 . S
C253 C252 1.358 . S
C253 C254 1.385 . S
C253 H276 0.930 . S
C254 C253 1.385 . S
C254 C255 1.395 . S
C254 H277 0.929 . S
C255 C254 1.395 . S
C255 C256 1.335 . S
C256 C255 1.335 . S
C256 C257 1.398 . S
C256 H278 0.930 . S
C257 C252 1.382 . S
C257 C256 1.398 . S
C257 H279 0.929 . S
C258 O268 1.271 . S
C258 O269 1.251 . S
C259 O270 1.252 . S
C259 O271 1.272 . S
O260 Sm240 2.543 . S
O260 C242 1.261 . S
O261 Sm240 2.450 . S
O261 C242 1.242 . S
O262 Sm240 2.681 . S
O262 Sm241 2.386 . S
O262 C249 1.271 . S
O263 Sm240 2.464 . S
O263 C249 1.251 . S
O264 Sm240 2.396 . S
O264 C250 1.252 . S
O265 Sm241 2.408 . S
O265 C250 1.272 . S
O266 Sm241 2.543 . S
O266 C251 1.261 . S
O267 Sm241 2.450 . S
O267 C251 1.242 . S
O268 Sm240 2.386 . S
O268 Sm241 2.681 . S
O268 C258 1.271 . S
O269 Sm241 2.464 . S
O269 C258 1.251 . S
O270 Sm241 2.396 . S
O270 C259 1.252 . S
O271 Sm240 2.408 . S
O271 C259 1.272 . S
H272 C244 0.930 . S
H273 C245 0.929 . S
H274 C247 0.930 . S
H275 C248 0.929 . S
H276 C253 0.930 . S
H277 C254 0.929 . S
H278 C256 0.930 . S
H279 C257 0.929 . S
Sm280 C282 2.846 1_556 S
Sm280 O300 2.543 1_556 S
Sm280 O301 2.450 . S
Sm280 O302 2.681 . S
Sm280 O303 2.464 . S
Sm280 O304 2.396 1_556 S
Sm280 O308 2.386 . S
Sm280 O311 2.408 . S
Sm281 C291 2.846 . S
Sm281 O302 2.386 . S
Sm281 O305 2.408 1_556 S
Sm281 O306 2.543 . S
Sm281 O307 2.450 . S
Sm281 O308 2.681 . S
Sm281 O309 2.464 . S
Sm281 O310 2.396 . S
C282 Sm280 2.846 1_554 S
C282 C283 1.506 . S
C282 O300 1.261 . S
C282 O301 1.242 1_554 S
C283 C282 1.506 . S
C283 C284 1.358 . S
C283 C288 1.382 . S
C284 C283 1.358 . S
C284 C285 1.385 . S
C284 H312 0.930 . S
C285 C284 1.385 . S
C285 C286 1.395 . S
C285 H313 0.929 . S
C286 C285 1.395 . S
C286 C287 1.335 . S
C287 C286 1.335 . S
C287 C288 1.398 . S
C287 H314 0.922 1_545 S
C288 C283 1.382 . S
C288 C287 1.398 . S
C288 H315 0.929 . S
C289 O302 1.271 . S
C289 O303 1.251 . S
C290 O304 1.252 . S
C290 O305 1.272 . S
C291 Sm281 2.846 . S
C291 C292 1.506 . S
C291 O306 1.261 . S
C291 O307 1.242 . S
C292 C291 1.506 . S
C292 C293 1.358 . S
C292 C297 1.382 . S
C293 C292 1.358 . S
C293 C294 1.385 . S
C293 H316 0.930 . S
C294 C293 1.385 . S
C294 C295 1.395 . S
C294 H317 0.929 . S
C295 C294 1.395 . S
C295 C296 1.335 . S
C296 C295 1.335 . S
C296 C297 1.398 . S
C296 H318 0.930 . S
C297 C292 1.382 . S
C297 C296 1.398 . S
C297 H319 0.929 . S
C298 O308 1.271 . S
C298 O309 1.251 . S
C299 O310 1.252 . S
C299 O311 1.272 . S
O300 Sm280 2.543 1_554 S
O300 C282 1.261 . S
O301 Sm280 2.450 . S
O301 C282 1.242 1_556 S
O302 Sm280 2.681 . S
O302 Sm281 2.386 . S
O302 C289 1.271 . S
O303 Sm280 2.464 . S
O303 C289 1.251 . S
O304 Sm280 2.396 1_554 S
O304 C290 1.252 . S
O305 Sm281 2.408 1_554 S
O305 C290 1.272 . S
O306 Sm281 2.543 . S
O306 C291 1.261 . S
O307 Sm281 2.450 . S
O307 C291 1.242 . S
O308 Sm280 2.386 . S
O308 Sm281 2.681 . S
O308 C298 1.271 . S
O309 Sm281 2.464 . S
O309 C298 1.251 . S
O310 Sm281 2.396 . S
O310 C299 1.252 . S
O311 Sm280 2.408 . S
O311 C299 1.272 . S
H312 C284 0.930 . S
H313 C285 0.929 . S
H314 C287 0.922 1_565 S
H315 C288 0.929 . S
H316 C293 0.930 . S
H317 C294 0.929 . S
H318 C296 0.930 . S
H319 C297 0.929 . S
Sm320 C322 2.846 . S
Sm320 O340 2.543 . S
Sm320 O341 2.450 . S
Sm320 O342 2.681 . S
Sm320 O343 2.464 . S
Sm320 O344 2.396 . S
Sm320 O348 2.386 . S
Sm320 O351 2.408 . S
Sm321 C331 2.846 . S
Sm321 O342 2.386 . S
Sm321 O345 2.408 . S
Sm321 O346 2.543 . S
Sm321 O347 2.450 . S
Sm321 O348 2.681 . S
Sm321 O349 2.464 . S
Sm321 O350 2.396 . S
C322 Sm320 2.846 . S
C322 C323 1.506 . S
C322 O340 1.261 . S
C322 O341 1.242 . S
C323 C322 1.506 . S
C323 C324 1.358 . S
C323 C328 1.382 . S
C324 C323 1.358 . S
C324 C325 1.385 . S
C324 H352 0.930 . S
C325 C324 1.385 . S
C325 C326 1.395 . S
C325 H353 0.929 . S
C326 C325 1.395 . S
C326 C327 1.335 . S
C327 C326 1.335 . S
C327 C328 1.398 . S
C327 H354 0.930 . S
C328 C323 1.382 . S
C328 C327 1.398 . S
C328 H355 0.929 . S
C329 O342 1.271 . S
C329 O343 1.251 . S
C330 O344 1.252 . S
C330 O345 1.272 . S
C331 Sm321 2.846 . S
C331 C332 1.506 . S
C331 O346 1.261 . S
C331 O347 1.242 . S
C332 C331 1.506 . S
C332 C333 1.358 . S
C332 C337 1.382 . S
C333 C332 1.358 . S
C333 C334 1.385 . S
C333 H356 0.930 . S
C334 C333 1.385 . S
C334 C335 1.395 . S
C334 H357 0.929 . S
C335 C334 1.395 . S
C335 C336 1.335 . S
C336 C335 1.335 . S
C336 C337 1.398 . S
C336 H358 0.930 . S
C337 C332 1.382 . S
C337 C336 1.398 . S
C337 H359 0.929 . S
C338 O348 1.271 . S
C338 O349 1.251 . S
C339 O350 1.252 . S
C339 O351 1.272 . S
O340 Sm320 2.543 . S
O340 C322 1.261 . S
O341 Sm320 2.450 . S
O341 C322 1.242 . S
O342 Sm320 2.681 . S
O342 Sm321 2.386 . S
O342 C329 1.271 . S
O343 Sm320 2.464 . S
O343 C329 1.251 . S
O344 Sm320 2.396 . S
O344 C330 1.252 . S
O345 Sm321 2.408 . S
O345 C330 1.272 . S
O346 Sm321 2.543 . S
O346 C331 1.261 . S
O347 Sm321 2.450 . S
O347 C331 1.242 . S
O348 Sm320 2.386 . S
O348 Sm321 2.681 . S
O348 C338 1.271 . S
O349 Sm321 2.464 . S
O349 C338 1.251 . S
O350 Sm321 2.396 . S
O350 C339 1.252 . S
O351 Sm320 2.408 . S
O351 C339 1.272 . S
H352 C324 0.930 . S
H353 C325 0.929 . S
H354 C327 0.930 . S
H355 C328 0.929 . S
H356 C333 0.930 . S
H357 C334 0.929 . S
H358 C336 0.930 . S
H359 C337 0.929 . S
Sm360 C362 2.846 . S
Sm360 O380 2.543 . S
Sm360 O381 2.450 . S
Sm360 O382 2.681 . S
Sm360 O383 2.464 . S
Sm360 O384 2.396 . S
Sm360 O388 2.386 . S
Sm360 O391 2.408 . S
Sm361 C371 2.846 . S
Sm361 O382 2.386 . S
Sm361 O385 2.408 . S
Sm361 O386 2.543 . S
Sm361 O387 2.450 . S
Sm361 O388 2.681 . S
Sm361 O389 2.464 . S
Sm361 O390 2.396 . S
C362 Sm360 2.846 . S
C362 C363 1.506 . S
C362 O380 1.261 . S
C362 O381 1.242 . S
C363 C362 1.506 . S
C363 C364 1.358 . S
C363 C368 1.382 . S
C364 C363 1.358 . S
C364 C365 1.385 . S
C364 H392 0.930 . S
C365 C364 1.385 . S
C365 C366 1.395 . S
C365 H393 0.929 . S
C366 C365 1.395 . S
C366 C367 1.335 . S
C367 C366 1.335 . S
C367 C368 1.398 . S
C367 H394 0.930 . S
C368 C363 1.382 . S
C368 C367 1.398 . S
C368 H395 0.929 . S
C369 O382 1.271 . S
C369 O383 1.251 . S
C370 O384 1.252 . S
C370 O385 1.272 . S
C371 Sm361 2.846 . S
C371 C372 1.506 . S
C371 O386 1.261 . S
C371 O387 1.242 . S
C372 C371 1.506 . S
C372 C373 1.358 . S
C372 C377 1.382 . S
C373 C372 1.358 . S
C373 C374 1.385 . S
C373 H396 0.930 . S
C374 C373 1.385 . S
C374 C375 1.395 . S
C374 H397 0.929 . S
C375 C374 1.395 . S
C375 C376 1.335 . S
C376 C375 1.335 . S
C376 C377 1.398 . S
C376 H398 0.922 1_545 S
C377 C372 1.382 . S
C377 C376 1.398 . S
C377 H399 0.929 . S
C378 O388 1.271 . S
C378 O389 1.251 . S
C379 O390 1.252 . S
C379 O391 1.272 . S
O380 Sm360 2.543 . S
O380 C362 1.261 . S
O381 Sm360 2.450 . S
O381 C362 1.242 . S
O382 Sm360 2.681 . S
O382 Sm361 2.386 . S
O382 C369 1.271 . S
O383 Sm360 2.464 . S
O383 C369 1.251 . S
O384 Sm360 2.396 . S
O384 C370 1.252 . S
O385 Sm361 2.408 . S
O385 C370 1.272 . S
O386 Sm361 2.543 . S
O386 C371 1.261 . S
O387 Sm361 2.450 . S
O387 C371 1.242 . S
O388 Sm360 2.386 . S
O388 Sm361 2.681 . S
O388 C378 1.271 . S
O389 Sm361 2.464 . S
O389 C378 1.251 . S
O390 Sm361 2.396 . S
O390 C379 1.252 . S
O391 Sm360 2.408 . S
O391 C379 1.272 . S
H392 C364 0.930 . S
H393 C365 0.929 . S
H394 C367 0.930 . S
H395 C368 0.929 . S
H396 C373 0.930 . S
H397 C374 0.929 . S
H398 C376 0.922 1_565 S
H399 C377 0.929 . S
Sm400 C402 2.846 . S
Sm400 O420 2.543 . S
Sm400 O421 2.450 . S
Sm400 O422 2.681 . S
Sm400 O423 2.464 . S
Sm400 O424 2.396 . S
Sm400 O428 2.386 . S
Sm400 O431 2.408 . S
Sm401 C411 2.846 . S
Sm401 O422 2.386 . S
Sm401 O425 2.408 . S
Sm401 O426 2.543 . S
Sm401 O427 2.450 . S
Sm401 O428 2.681 . S
Sm401 O429 2.464 . S
Sm401 O430 2.396 . S
C402 Sm400 2.846 . S
C402 C403 1.506 . S
C402 O420 1.261 . S
C402 O421 1.242 . S
C403 C402 1.506 . S
C403 C404 1.358 . S
C403 C408 1.382 . S
C404 C403 1.358 . S
C404 C405 1.385 . S
C404 H432 0.930 . S
C405 C404 1.385 . S
C405 C406 1.395 . S
C405 H433 0.929 . S
C406 C405 1.395 . S
C406 C407 1.335 . S
C407 C406 1.335 . S
C407 C408 1.398 . S
C407 H434 0.930 . S
C408 C403 1.382 . S
C408 C407 1.398 . S
C408 H435 0.929 . S
C409 O422 1.271 . S
C409 O423 1.251 . S
C410 O424 1.252 . S
C410 O425 1.272 . S
C411 Sm401 2.846 . S
C411 C412 1.506 . S
C411 O426 1.261 . S
C411 O427 1.242 . S
C412 C411 1.506 . S
C412 C413 1.358 . S
C412 C417 1.382 . S
C413 C412 1.358 . S
C413 C414 1.385 . S
C413 H436 0.930 . S
C414 C413 1.385 . S
C414 C415 1.395 . S
C414 H437 0.929 . S
C415 C414 1.395 . S
C415 C416 1.335 . S
C416 C415 1.335 . S
C416 C417 1.398 . S
C416 H438 0.930 . S
C417 C412 1.382 . S
C417 C416 1.398 . S
C417 H439 0.929 . S
C418 O428 1.271 . S
C418 O429 1.251 . S
C419 O430 1.252 . S
C419 O431 1.272 . S
O420 Sm400 2.543 . S
O420 C402 1.261 . S
O421 Sm400 2.450 . S
O421 C402 1.242 . S
O422 Sm400 2.681 . S
O422 Sm401 2.386 . S
O422 C409 1.271 . S
O423 Sm400 2.464 . S
O423 C409 1.251 . S
O424 Sm400 2.396 . S
O424 C410 1.252 . S
O425 Sm401 2.408 . S
O425 C410 1.272 . S
O426 Sm401 2.543 . S
O426 C411 1.261 . S
O427 Sm401 2.450 . S
O427 C411 1.242 . S
O428 Sm400 2.386 . S
O428 Sm401 2.681 . S
O428 C418 1.271 . S
O429 Sm401 2.464 . S
O429 C418 1.251 . S
O430 Sm401 2.396 . S
O430 C419 1.252 . S
O431 Sm400 2.408 . S
O431 C419 1.272 . S
H432 C404 0.930 . S
H433 C405 0.929 . S
H434 C407 0.930 . S
H435 C408 0.929 . S
H436 C413 0.930 . S
H437 C414 0.929 . S
H438 C416 0.930 . S
H439 C417 0.929 . S
Sm440 C442 2.846 . S
Sm440 O460 2.543 . S
Sm440 O461 2.450 . S
Sm440 O462 2.681 . S
Sm440 O463 2.464 . S
Sm440 O464 2.396 . S
Sm440 O468 2.386 . S
Sm440 O471 2.408 1_556 S
Sm441 C451 2.846 1_556 S
Sm441 O462 2.386 . S
Sm441 O465 2.408 . S
Sm441 O466 2.543 1_556 S
Sm441 O467 2.450 . S
Sm441 O468 2.681 . S
Sm441 O469 2.464 . S
Sm441 O470 2.396 1_556 S
C442 Sm440 2.846 . S
C442 C443 1.506 . S
C442 O460 1.261 . S
C442 O461 1.242 . S
C443 C442 1.506 . S
C443 C444 1.358 . S
C443 C448 1.382 . S
C444 C443 1.358 . S
C444 C445 1.385 . S
C444 H472 0.930 . S
C445 C444 1.385 . S
C445 C446 1.395 . S
C445 H473 0.929 . S
C446 C445 1.395 . S
C446 C447 1.335 . S
C447 C446 1.335 . S
C447 C448 1.398 . S
C447 H474 0.930 . S
C448 C443 1.382 . S
C448 C447 1.398 . S
C448 H475 0.929 . S
C449 O462 1.271 . S
C449 O463 1.251 . S
C450 O464 1.252 . S
C450 O465 1.272 . S
C451 Sm441 2.846 1_554 S
C451 C452 1.506 . S
C451 O466 1.261 . S
C451 O467 1.242 1_554 S
C452 C451 1.506 . S
C452 C453 1.358 . S
C452 C457 1.382 . S
C453 C452 1.358 . S
C453 C454 1.385 . S
C453 H476 0.930 . S
C454 C453 1.385 . S
C454 C455 1.395 . S
C454 H477 0.929 . S
C455 C454 1.395 . S
C455 C456 1.335 . S
C456 C455 1.335 . S
C456 C457 1.398 . S
C456 H478 0.922 1_565 S
C457 C452 1.382 . S
C457 C456 1.398 . S
C457 H479 0.929 . S
C458 O468 1.271 . S
C458 O469 1.251 . S
C459 O470 1.252 . S
C459 O471 1.272 . S
O460 Sm440 2.543 . S
O460 C442 1.261 . S
O461 Sm440 2.450 . S
O461 C442 1.242 . S
O462 Sm440 2.681 . S
O462 Sm441 2.386 . S
O462 C449 1.271 . S
O463 Sm440 2.464 . S
O463 C449 1.251 . S
O464 Sm440 2.396 . S
O464 C450 1.252 . S
O465 Sm441 2.408 . S
O465 C450 1.272 . S
O466 Sm441 2.543 1_554 S
O466 C451 1.261 . S
O467 Sm441 2.450 . S
O467 C451 1.242 1_556 S
O468 Sm440 2.386 . S
O468 Sm441 2.681 . S
O468 C458 1.271 . S
O469 Sm441 2.464 . S
O469 C458 1.251 . S
O470 Sm441 2.396 1_554 S
O470 C459 1.252 . S
O471 Sm440 2.408 1_554 S
O471 C459 1.272 . S
H472 C444 0.930 . S
H473 C445 0.929 . S
H474 C447 0.930 . S
H475 C448 0.929 . S
H476 C453 0.930 . S
H477 C454 0.929 . S
H478 C456 0.922 1_545 S
H479 C457 0.929 . S
Sm480 C482 2.846 . S
Sm480 O500 2.543 . S
Sm480 O501 2.450 . S
Sm480 O502 2.681 . S
Sm480 O503 2.464 . S
Sm480 O504 2.396 . S
Sm480 O508 2.386 . S
Sm480 O511 2.408 . S
Sm481 C491 2.846 . S
Sm481 O502 2.386 . S
Sm481 O505 2.408 . S
Sm481 O506 2.543 . S
Sm481 O507 2.450 . S
Sm481 O508 2.681 . S
Sm481 O509 2.464 . S
Sm481 O510 2.396 . S
C482 Sm480 2.846 . S
C482 C483 1.506 . S
C482 O500 1.261 . S
C482 O501 1.242 . S
C483 C482 1.506 . S
C483 C484 1.358 . S
C483 C488 1.382 . S
C484 C483 1.358 . S
C484 C485 1.385 . S
C484 H512 0.930 . S
C485 C484 1.385 . S
C485 C486 1.395 . S
C485 H513 0.929 . S
C486 C485 1.395 . S
C486 C487 1.335 . S
C487 C486 1.335 . S
C487 C488 1.398 . S
C487 H514 0.930 . S
C488 C483 1.382 . S
C488 C487 1.398 . S
C488 H515 0.929 . S
C489 O502 1.271 . S
C489 O503 1.251 . S
C490 O504 1.252 . S
C490 O505 1.272 . S
C491 Sm481 2.846 . S
C491 C492 1.506 . S
C491 O506 1.261 . S
C491 O507 1.242 . S
C492 C491 1.506 . S
C492 C493 1.358 . S
C492 C497 1.382 . S
C493 C492 1.358 . S
C493 C494 1.385 . S
C493 H516 0.930 . S
C494 C493 1.385 . S
C494 C495 1.395 . S
C494 H517 0.929 . S
C495 C494 1.395 . S
C495 C496 1.335 . S
C496 C495 1.335 . S
C496 C497 1.398 . S
C496 H518 0.930 . S
C497 C492 1.382 . S
C497 C496 1.398 . S
C497 H519 0.929 . S
C498 O508 1.271 . S
C498 O509 1.251 . S
C499 O510 1.252 . S
C499 O511 1.272 . S
O500 Sm480 2.543 . S
O500 C482 1.261 . S
O501 Sm480 2.450 . S
O501 C482 1.242 . S
O502 Sm480 2.681 . S
O502 Sm481 2.386 . S
O502 C489 1.271 . S
O503 Sm480 2.464 . S
O503 C489 1.251 . S
O504 Sm480 2.396 . S
O504 C490 1.252 . S
O505 Sm481 2.408 . S
O505 C490 1.272 . S
O506 Sm481 2.543 . S
O506 C491 1.261 . S
O507 Sm481 2.450 . S
O507 C491 1.242 . S
O508 Sm480 2.386 . S
O508 Sm481 2.681 . S
O508 C498 1.271 . S
O509 Sm481 2.464 . S
O509 C498 1.251 . S
O510 Sm481 2.396 . S
O510 C499 1.252 . S
O511 Sm480 2.408 . S
O511 C499 1.272 . S
H512 C484 0.930 . S
H513 C485 0.929 . S
H514 C487 0.930 . S
H515 C488 0.929 . S
H516 C493 0.930 . S
H517 C494 0.929 . S
H518 C496 0.930 . S
H519 C497 0.929 . S
Sm520 C522 2.846 . S
Sm520 O540 2.543 . S
Sm520 O541 2.450 . S
Sm520 O542 2.681 . S
Sm520 O543 2.464 . S
Sm520 O544 2.396 . S
Sm520 O548 2.386 . S
Sm520 O551 2.408 . S
Sm521 C531 2.846 . S
Sm521 O542 2.386 . S
Sm521 O545 2.408 . S
Sm521 O546 2.543 . S
Sm521 O547 2.450 . S
Sm521 O548 2.681 . S
Sm521 O549 2.464 . S
Sm521 O550 2.396 . S
C522 Sm520 2.846 . S
C522 C523 1.506 . S
C522 O540 1.261 . S
C522 O541 1.242 . S
C523 C522 1.506 . S
C523 C524 1.358 . S
C523 C528 1.382 . S
C524 C523 1.358 . S
C524 C525 1.385 . S
C524 H552 0.930 . S
C525 C524 1.385 . S
C525 C526 1.395 . S
C525 H553 0.929 . S
C526 C525 1.395 . S
C526 C527 1.335 . S
C527 C526 1.335 . S
C527 C528 1.398 . S
C527 H554 0.930 . S
C528 C523 1.382 . S
C528 C527 1.398 . S
C528 H555 0.929 . S
C529 O542 1.271 . S
C529 O543 1.251 . S
C530 O544 1.252 . S
C530 O545 1.272 . S
C531 Sm521 2.846 . S
C531 C532 1.506 . S
C531 O546 1.261 . S
C531 O547 1.242 . S
C532 C531 1.506 . S
C532 C533 1.358 . S
C532 C537 1.382 . S
C533 C532 1.358 . S
C533 C534 1.385 . S
C533 H556 0.930 . S
C534 C533 1.385 . S
C534 C535 1.395 . S
C534 H557 0.929 . S
C535 C534 1.395 . S
C535 C536 1.335 . S
C536 C535 1.335 . S
C536 C537 1.398 . S
C536 H558 0.922 1_545 S
C537 C532 1.382 . S
C537 C536 1.398 . S
C537 H559 0.929 . S
C538 O548 1.271 . S
C538 O549 1.251 . S
C539 O550 1.252 . S
C539 O551 1.272 . S
O540 Sm520 2.543 . S
O540 C522 1.261 . S
O541 Sm520 2.450 . S
O541 C522 1.242 . S
O542 Sm520 2.681 . S
O542 Sm521 2.386 . S
O542 C529 1.271 . S
O543 Sm520 2.464 . S
O543 C529 1.251 . S
O544 Sm520 2.396 . S
O544 C530 1.252 . S
O545 Sm521 2.408 . S
O545 C530 1.272 . S
O546 Sm521 2.543 . S
O546 C531 1.261 . S
O547 Sm521 2.450 . S
O547 C531 1.242 . S
O548 Sm520 2.386 . S
O548 Sm521 2.681 . S
O548 C538 1.271 . S
O549 Sm521 2.464 . S
O549 C538 1.251 . S
O550 Sm521 2.396 . S
O550 C539 1.252 . S
O551 Sm520 2.408 . S
O551 C539 1.272 . S
H552 C524 0.930 . S
H553 C525 0.929 . S
H554 C527 0.930 . S
H555 C528 0.929 . S
H556 C533 0.930 . S
H557 C534 0.929 . S
H558 C536 0.922 1_565 S
H559 C537 0.929 . S
Sm560 C562 2.846 . S
Sm560 O580 2.543 . S
Sm560 O581 2.450 . S
Sm560 O582 2.681 . S
Sm560 O583 2.464 . S
Sm560 O584 2.396 . S
Sm560 O588 2.386 . S
Sm560 O591 2.408 . S
Sm561 C571 2.846 . S
Sm561 O582 2.386 . S
Sm561 O585 2.408 . S
Sm561 O586 2.543 . S
Sm561 O587 2.450 . S
Sm561 O588 2.681 . S
Sm561 O589 2.464 . S
Sm561 O590 2.396 . S
C562 Sm560 2.846 . S
C562 C563 1.506 . S
C562 O580 1.261 . S
C562 O581 1.242 . S
C563 C562 1.506 . S
C563 C564 1.358 . S
C563 C568 1.382 . S
C564 C563 1.358 . S
C564 C565 1.385 . S
C564 H592 0.930 . S
C565 C564 1.385 . S
C565 C566 1.395 . S
C565 H593 0.929 . S
C566 C565 1.395 . S
C566 C567 1.335 . S
C567 C566 1.335 . S
C567 C568 1.398 . S
C567 H594 0.930 . S
C568 C563 1.382 . S
C568 C567 1.398 . S
C568 H595 0.929 . S
C569 O582 1.271 . S
C569 O583 1.251 . S
C570 O584 1.252 . S
C570 O585 1.272 . S
C571 Sm561 2.846 . S
C571 C572 1.506 . S
C571 O586 1.261 . S
C571 O587 1.242 . S
C572 C571 1.506 . S
C572 C573 1.358 . S
C572 C577 1.382 . S
C573 C572 1.358 . S
C573 C574 1.385 . S
C573 H596 0.930 . S
C574 C573 1.385 . S
C574 C575 1.395 . S
C574 H597 0.929 . S
C575 C574 1.395 . S
C575 C576 1.335 . S
C576 C575 1.335 . S
C576 C577 1.398 . S
C576 H598 0.930 . S
C577 C572 1.382 . S
C577 C576 1.398 . S
C577 H599 0.929 . S
C578 O588 1.271 . S
C578 O589 1.251 . S
C579 O590 1.252 . S
C579 O591 1.272 . S
O580 Sm560 2.543 . S
O580 C562 1.261 . S
O581 Sm560 2.450 . S
O581 C562 1.242 . S
O582 Sm560 2.681 . S
O582 Sm561 2.386 . S
O582 C569 1.271 . S
O583 Sm560 2.464 . S
O583 C569 1.251 . S
O584 Sm560 2.396 . S
O584 C570 1.252 . S
O585 Sm561 2.408 . S
O585 C570 1.272 . S
O586 Sm561 2.543 . S
O586 C571 1.261 . S
O587 Sm561 2.450 . S
O587 C571 1.242 . S
O588 Sm560 2.386 . S
O588 Sm561 2.681 . S
O588 C578 1.271 . S
O589 Sm561 2.464 . S
O589 C578 1.251 . S
O590 Sm561 2.396 . S
O590 C579 1.252 . S
O591 Sm560 2.408 . S
O591 C579 1.272 . S
H592 C564 0.930 . S
H593 C565 0.929 . S
H594 C567 0.930 . S
H595 C568 0.929 . S
H596 C573 0.930 . S
H597 C574 0.929 . S
H598 C576 0.930 . S
H599 C577 0.929 . S
Sm600 C602 2.846 . S
Sm600 O620 2.543 . S
Sm600 O621 2.450 . S
Sm600 O622 2.681 . S
Sm600 O623 2.464 . S
Sm600 O624 2.396 . S
Sm600 O628 2.386 . S
Sm600 O631 2.408 1_554 S
Sm601 C611 2.846 1_554 S
Sm601 O622 2.386 . S
Sm601 O625 2.408 . S
Sm601 O626 2.543 1_554 S
Sm601 O627 2.450 . S
Sm601 O628 2.681 . S
Sm601 O629 2.464 . S
Sm601 O630 2.396 1_554 S
C602 Sm600 2.846 . S
C602 C603 1.506 . S
C602 O620 1.261 . S
C602 O621 1.242 . S
C603 C602 1.506 . S
C603 C604 1.358 . S
C603 C608 1.382 . S
C604 C603 1.358 . S
C604 C605 1.385 . S
C604 H632 0.930 . S
C605 C604 1.385 . S
C605 C606 1.395 . S
C605 H633 0.929 . S
C606 C605 1.395 . S
C606 C607 1.335 . S
C607 C606 1.335 . S
C607 C608 1.398 . S
C607 H634 0.930 . S
C608 C603 1.382 . S
C608 C607 1.398 . S
C608 H635 0.929 . S
C609 O622 1.271 . S
C609 O623 1.251 . S
C610 O624 1.252 . S
C610 O625 1.272 . S
C611 Sm601 2.846 1_556 S
C611 C612 1.506 . S
C611 O626 1.261 . S
C611 O627 1.242 1_556 S
C612 C611 1.506 . S
C612 C613 1.358 . S
C612 C617 1.382 . S
C613 C612 1.358 . S
C613 C614 1.385 . S
C613 H636 0.930 . S
C614 C613 1.385 . S
C614 C615 1.395 . S
C614 H637 0.929 . S
C615 C614 1.395 . S
C615 C616 1.335 . S
C616 C615 1.335 . S
C616 C617 1.398 . S
C616 H638 0.922 1_565 S
C617 C612 1.382 . S
C617 C616 1.398 . S
C617 H639 0.929 . S
C618 O628 1.271 . S
C618 O629 1.251 . S
C619 O630 1.252 . S
C619 O631 1.272 . S
O620 Sm600 2.543 . S
O620 C602 1.261 . S
O621 Sm600 2.450 . S
O621 C602 1.242 . S
O622 Sm600 2.681 . S
O622 Sm601 2.386 . S
O622 C609 1.271 . S
O623 Sm600 2.464 . S
O623 C609 1.251 . S
O624 Sm600 2.396 . S
O624 C610 1.252 . S
O625 Sm601 2.408 . S
O625 C610 1.272 . S
O626 Sm601 2.543 1_556 S
O626 C611 1.261 . S
O627 Sm601 2.450 . S
O627 C611 1.242 1_554 S
O628 Sm600 2.386 . S
O628 Sm601 2.681 . S
O628 C618 1.271 . S
O629 Sm601 2.464 . S
O629 C618 1.251 . S
O630 Sm601 2.396 1_556 S
O630 C619 1.252 . S
O631 Sm600 2.408 1_556 S
O631 C619 1.272 . S
H632 C604 0.930 . S
H633 C605 0.929 . S
H634 C607 0.930 . S
H635 C608 0.929 . S
H636 C613 0.930 . S
H637 C614 0.929 . S
H638 C616 0.922 1_545 S
H639 C617 0.929 . S
Sm640 C642 2.846 . S
Sm640 O660 2.543 . S
Sm640 O661 2.450 . S
Sm640 O662 2.681 . S
Sm640 O663 2.464 . S
Sm640 O664 2.396 . S
Sm640 O668 2.386 . S
Sm640 O671 2.408 . S
Sm641 C651 2.846 . S
Sm641 O662 2.386 . S
Sm641 O665 2.408 . S
Sm641 O666 2.543 . S
Sm641 O667 2.450 . S
Sm641 O668 2.681 . S
Sm641 O669 2.464 . S
Sm641 O670 2.396 . S
C642 Sm640 2.846 . S
C642 C643 1.506 . S
C642 O660 1.261 . S
C642 O661 1.242 . S
C643 C642 1.506 . S
C643 C644 1.358 . S
C643 C648 1.382 . S
C644 C643 1.358 . S
C644 C645 1.385 . S
C644 H672 0.930 . S
C645 C644 1.385 . S
C645 C646 1.395 . S
C645 H673 0.929 . S
C646 C645 1.395 . S
C646 C647 1.335 . S
C647 C646 1.335 . S
C647 C648 1.398 . S
C647 H674 0.930 . S
C648 C643 1.382 . S
C648 C647 1.398 . S
C648 H675 0.929 . S
C649 O662 1.271 . S
C649 O663 1.251 . S
C650 O664 1.252 . S
C650 O665 1.272 . S
C651 Sm641 2.846 . S
C651 C652 1.506 . S
C651 O666 1.261 . S
C651 O667 1.242 . S
C652 C651 1.506 . S
C652 C653 1.358 . S
C652 C657 1.382 . S
C653 C652 1.358 . S
C653 C654 1.385 . S
C653 H676 0.930 . S
C654 C653 1.385 . S
C654 C655 1.395 . S
C654 H677 0.929 . S
C655 C654 1.395 . S
C655 C656 1.335 . S
C656 C655 1.335 . S
C656 C657 1.398 . S
C656 H678 0.930 . S
C657 C652 1.382 . S
C657 C656 1.398 . S
C657 H679 0.929 . S
C658 O668 1.271 . S
C658 O669 1.251 . S
C659 O670 1.252 . S
C659 O671 1.272 . S
O660 Sm640 2.543 . S
O660 C642 1.261 . S
O661 Sm640 2.450 . S
O661 C642 1.242 . S
O662 Sm640 2.681 . S
O662 Sm641 2.386 . S
O662 C649 1.271 . S
O663 Sm640 2.464 . S
O663 C649 1.251 . S
O664 Sm640 2.396 . S
O664 C650 1.252 . S
O665 Sm641 2.408 . S
O665 C650 1.272 . S
O666 Sm641 2.543 . S
O666 C651 1.261 . S
O667 Sm641 2.450 . S
O667 C651 1.242 . S
O668 Sm640 2.386 . S
O668 Sm641 2.681 . S
O668 C658 1.271 . S
O669 Sm641 2.464 . S
O669 C658 1.251 . S
O670 Sm641 2.396 . S
O670 C659 1.252 . S
O671 Sm640 2.408 . S
O671 C659 1.272 . S
H672 C644 0.930 . S
H673 C645 0.929 . S
H674 C647 0.930 . S
H675 C648 0.929 . S
H676 C653 0.930 . S
H677 C654 0.929 . S
H678 C656 0.930 . S
H679 C657 0.929 . S
Sm680 C682 2.846 1_554 S
Sm680 O700 2.543 1_554 S
Sm680 O701 2.450 . S
Sm680 O702 2.681 . S
Sm680 O703 2.464 . S
Sm680 O704 2.396 1_554 S
Sm680 O708 2.386 . S
Sm680 O711 2.408 . S
Sm681 C691 2.846 . S
Sm681 O702 2.386 . S
Sm681 O705 2.408 1_554 S
Sm681 O706 2.543 . S
Sm681 O707 2.450 . S
Sm681 O708 2.681 . S
Sm681 O709 2.464 . S
Sm681 O710 2.396 . S
C682 Sm680 2.846 1_556 S
C682 C683 1.506 . S
C682 O700 1.261 . S
C682 O701 1.242 1_556 S
C683 C682 1.506 . S
C683 C684 1.358 . S
C683 C688 1.382 . S
C684 C683 1.358 . S
C684 C685 1.385 . S
C684 H712 0.930 . S
C685 C684 1.385 . S
C685 C686 1.395 . S
C685 H713 0.929 . S
C686 C685 1.395 . S
C686 C687 1.335 . S
C687 C686 1.335 . S
C687 C688 1.398 . S
C687 H714 0.930 . S
C688 C683 1.382 . S
C688 C687 1.398 . S
C688 H715 0.929 . S
C689 O702 1.271 . S
C689 O703 1.251 . S
C690 O704 1.252 . S
C690 O705 1.272 . S
C691 Sm681 2.846 . S
C691 C692 1.506 . S
C691 O706 1.261 . S
C691 O707 1.242 . S
C692 C691 1.506 . S
C692 C693 1.358 . S
C692 C697 1.382 . S
C693 C692 1.358 . S
C693 C694 1.385 . S
C693 H716 0.930 . S
C694 C693 1.385 . S
C694 C695 1.395 . S
C694 H717 0.929 . S
C695 C694 1.395 . S
C695 C696 1.335 . S
C696 C695 1.335 . S
C696 C697 1.398 . S
C696 H718 0.930 . S
C697 C692 1.382 . S
C697 C696 1.398 . S
C697 H719 0.929 . S
C698 O708 1.271 . S
C698 O709 1.251 . S
C699 O710 1.252 . S
C699 O711 1.272 . S
O700 Sm680 2.543 1_556 S
O700 C682 1.261 . S
O701 Sm680 2.450 . S
O701 C682 1.242 1_554 S
O702 Sm680 2.681 . S
O702 Sm681 2.386 . S
O702 C689 1.271 . S
O703 Sm680 2.464 . S
O703 C689 1.251 . S
O704 Sm680 2.396 1_556 S
O704 C690 1.252 . S
O705 Sm681 2.408 1_556 S
O705 C690 1.272 . S
O706 Sm681 2.543 . S
O706 C691 1.261 . S
O707 Sm681 2.450 . S
O707 C691 1.242 . S
O708 Sm680 2.386 . S
O708 Sm681 2.681 . S
O708 C698 1.271 . S
O709 Sm681 2.464 . S
O709 C698 1.251 . S
O710 Sm681 2.396 . S
O710 C699 1.252 . S
O711 Sm680 2.408 . S
O711 C699 1.272 . S
H712 C684 0.930 . S
H713 C685 0.929 . S
H714 C687 0.930 . S
H715 C688 0.929 . S
H716 C693 0.930 . S
H717 C694 0.929 . S
H718 C696 0.930 . S
H719 C697 0.929 . S
Sm720 C722 2.846 . S
Sm720 O740 2.543 . S
Sm720 O741 2.450 . S
Sm720 O742 2.681 . S
Sm720 O743 2.464 . S
Sm720 O744 2.396 . S
Sm720 O748 2.386 . S
Sm720 O751 2.408 . S
Sm721 C731 2.846 . S
Sm721 O742 2.386 . S
Sm721 O745 2.408 . S
Sm721 O746 2.543 . S
Sm721 O747 2.450 . S
Sm721 O748 2.681 . S
Sm721 O749 2.464 . S
Sm721 O750 2.396 . S
C722 Sm720 2.846 . S
C722 C723 1.506 . S
C722 O740 1.261 . S
C722 O741 1.242 . S
C723 C722 1.506 . S
C723 C724 1.358 . S
C723 C728 1.382 . S
C724 C723 1.358 . S
C724 C725 1.385 . S
C724 H752 0.930 . S
C725 C724 1.385 . S
C725 C726 1.395 . S
C725 H753 0.929 . S
C726 C725 1.395 . S
C726 C727 1.335 . S
C727 C726 1.335 . S
C727 C728 1.398 . S
C727 H754 0.930 . S
C728 C723 1.382 . S
C728 C727 1.398 . S
C728 H755 0.929 . S
C729 O742 1.271 . S
C729 O743 1.251 . S
C730 O744 1.252 . S
C730 O745 1.272 . S
C731 Sm721 2.846 . S
C731 C732 1.506 . S
C731 O746 1.261 . S
C731 O747 1.242 . S
C732 C731 1.506 . S
C732 C733 1.358 . S
C732 C737 1.382 . S
C733 C732 1.358 . S
C733 C734 1.385 . S
C733 H756 0.930 . S
C734 C733 1.385 . S
C734 C735 1.395 . S
C734 H757 0.929 . S
C735 C734 1.395 . S
C735 C736 1.335 . S
C736 C735 1.335 . S
C736 C737 1.398 . S
C736 H758 0.930 . S
C737 C732 1.382 . S
C737 C736 1.398 . S
C737 H759 0.929 . S
C738 O748 1.271 . S
C738 O749 1.251 . S
C739 O750 1.252 . S
C739 O751 1.272 . S
O740 Sm720 2.543 . S
O740 C722 1.261 . S
O741 Sm720 2.450 . S
O741 C722 1.242 . S
O742 Sm720 2.681 . S
O742 Sm721 2.386 . S
O742 C729 1.271 . S
O743 Sm720 2.464 . S
O743 C729 1.251 . S
O744 Sm720 2.396 . S
O744 C730 1.252 . S
O745 Sm721 2.408 . S
O745 C730 1.272 . S
O746 Sm721 2.543 . S
O746 C731 1.261 . S
O747 Sm721 2.450 . S
O747 C731 1.242 . S
O748 Sm720 2.386 . S
O748 Sm721 2.681 . S
O748 C738 1.271 . S
O749 Sm721 2.464 . S
O749 C738 1.251 . S
O750 Sm721 2.396 . S
O750 C739 1.252 . S
O751 Sm720 2.408 . S
O751 C739 1.272 . S
H752 C724 0.930 . S
H753 C725 0.929 . S
H754 C727 0.930 . S
H755 C728 0.929 . S
H756 C733 0.930 . S
H757 C734 0.929 . S
H758 C736 0.930 . S
H759 C737 0.929 . S
Sm760 C762 2.846 . S
Sm760 O780 2.543 . S
Sm760 O781 2.450 . S
Sm760 O782 2.681 . S
Sm760 O783 2.464 . S
Sm760 O784 2.396 . S
Sm760 O788 2.386 . S
Sm760 O791 2.408 . S
Sm761 C771 2.846 . S
Sm761 O782 2.386 . S
Sm761 O785 2.408 . S
Sm761 O786 2.543 . S
Sm761 O787 2.450 . S
Sm761 O788 2.681 . S
Sm761 O789 2.464 . S
Sm761 O790 2.396 . S
C762 Sm760 2.846 . S
C762 C763 1.506 . S
C762 O780 1.261 . S
C762 O781 1.242 . S
C763 C762 1.506 . S
C763 C764 1.358 . S
C763 C768 1.382 . S
C764 C763 1.358 . S
C764 C765 1.385 . S
C764 H792 0.930 . S
C765 C764 1.385 . S
C765 C766 1.395 . S
C765 H793 0.929 . S
C766 C765 1.395 . S
C766 C767 1.335 . S
C767 C766 1.335 . S
C767 C768 1.398 . S
C767 H794 0.930 . S
C768 C763 1.382 . S
C768 C767 1.398 . S
C768 H795 0.929 . S
C769 O782 1.271 . S
C769 O783 1.251 . S
C770 O784 1.252 . S
C770 O785 1.272 . S
C771 Sm761 2.846 . S
C771 C772 1.506 . S
C771 O786 1.261 . S
C771 O787 1.242 . S
C772 C771 1.506 . S
C772 C773 1.358 . S
C772 C777 1.382 . S
C773 C772 1.358 . S
C773 C774 1.385 . S
C773 H796 0.930 . S
C774 C773 1.385 . S
C774 C775 1.395 . S
C774 H797 0.929 . S
C775 C774 1.395 . S
C775 C776 1.335 . S
C776 C775 1.335 . S
C776 C777 1.398 . S
C776 H798 0.930 . S
C777 C772 1.382 . S
C777 C776 1.398 . S
C777 H799 0.929 . S
C778 O788 1.271 . S
C778 O789 1.251 . S
C779 O790 1.252 . S
C779 O791 1.272 . S
O780 Sm760 2.543 . S
O780 C762 1.261 . S
O781 Sm760 2.450 . S
O781 C762 1.242 . S
O782 Sm760 2.681 . S
O782 Sm761 2.386 . S
O782 C769 1.271 . S
O783 Sm760 2.464 . S
O783 C769 1.251 . S
O784 Sm760 2.396 . S
O784 C770 1.252 . S
O785 Sm761 2.408 . S
O785 C770 1.272 . S
O786 Sm761 2.543 . S
O786 C771 1.261 . S
O787 Sm761 2.450 . S
O787 C771 1.242 . S
O788 Sm760 2.386 . S
O788 Sm761 2.681 . S
O788 C778 1.271 . S
O789 Sm761 2.464 . S
O789 C778 1.251 . S
O790 Sm761 2.396 . S
O790 C779 1.252 . S
O791 Sm760 2.408 . S
O791 C779 1.272 . S
H792 C764 0.930 . S
H793 C765 0.929 . S
H794 C767 0.930 . S
H795 C768 0.929 . S
H796 C773 0.930 . S
H797 C774 0.929 . S
H798 C776 0.930 . S
H799 C777 0.929 . S
Sm800 C802 2.846 . S
Sm800 O820 2.543 . S
Sm800 O821 2.450 . S
Sm800 O822 2.681 . S
Sm800 O823 2.464 . S
Sm800 O824 2.396 . S
Sm800 O828 2.386 . S
Sm800 O831 2.408 . S
Sm801 C811 2.846 . S
Sm801 O822 2.386 . S
Sm801 O825 2.408 . S
Sm801 O826 2.543 . S
Sm801 O827 2.450 . S
Sm801 O828 2.681 . S
Sm801 O829 2.464 . S
Sm801 O830 2.396 . S
C802 Sm800 2.846 . S
C802 C803 1.506 . S
C802 O820 1.261 . S
C802 O821 1.242 . S
C803 C802 1.506 . S
C803 C804 1.358 . S
C803 C808 1.382 . S
C804 C803 1.358 . S
C804 C805 1.385 . S
C804 H832 0.930 . S
C805 C804 1.385 . S
C805 C806 1.395 . S
C805 H833 0.929 . S
C806 C805 1.395 . S
C806 C807 1.335 . S
C807 C806 1.335 . S
C807 C808 1.398 . S
C807 H834 0.930 . S
C808 C803 1.382 . S
C808 C807 1.398 . S
C808 H835 0.929 . S
C809 O822 1.271 . S
C809 O823 1.251 . S
C810 O824 1.252 . S
C810 O825 1.272 . S
C811 Sm801 2.846 . S
C811 C812 1.506 . S
C811 O826 1.261 . S
C811 O827 1.242 . S
C812 C811 1.506 . S
C812 C813 1.358 . S
C812 C817 1.382 . S
C813 C812 1.358 . S
C813 C814 1.385 . S
C813 H836 0.930 . S
C814 C813 1.385 . S
C814 C815 1.395 . S
C814 H837 0.929 . S
C815 C814 1.395 . S
C815 C816 1.335 . S
C816 C815 1.335 . S
C816 C817 1.398 . S
C816 H838 0.930 . S
C817 C812 1.382 . S
C817 C816 1.398 . S
C817 H839 0.929 . S
C818 O828 1.271 . S
C818 O829 1.251 . S
C819 O830 1.252 . S
C819 O831 1.272 . S
O820 Sm800 2.543 . S
O820 C802 1.261 . S
O821 Sm800 2.450 . S
O821 C802 1.242 . S
O822 Sm800 2.681 . S
O822 Sm801 2.386 . S
O822 C809 1.271 . S
O823 Sm800 2.464 . S
O823 C809 1.251 . S
O824 Sm800 2.396 . S
O824 C810 1.252 . S
O825 Sm801 2.408 . S
O825 C810 1.272 . S
O826 Sm801 2.543 . S
O826 C811 1.261 . S
O827 Sm801 2.450 . S
O827 C811 1.242 . S
O828 Sm800 2.386 . S
O828 Sm801 2.681 . S
O828 C818 1.271 . S
O829 Sm801 2.464 . S
O829 C818 1.251 . S
O830 Sm801 2.396 . S
O830 C819 1.252 . S
O831 Sm800 2.408 . S
O831 C819 1.272 . S
H832 C804 0.930 . S
H833 C805 0.929 . S
H834 C807 0.930 . S
H835 C808 0.929 . S
H836 C813 0.930 . S
H837 C814 0.929 . S
H838 C816 0.930 . S
H839 C817 0.929 . S
Sm840 C842 2.846 1_556 S
Sm840 O860 2.543 1_556 S
Sm840 O861 2.450 . S
Sm840 O862 2.681 . S
Sm840 O863 2.464 . S
Sm840 O864 2.396 1_556 S
Sm840 O868 2.386 . S
Sm840 O871 2.408 . S
Sm841 C851 2.846 . S
Sm841 O862 2.386 . S
Sm841 O865 2.408 1_556 S
Sm841 O866 2.543 . S
Sm841 O867 2.450 . S
Sm841 O868 2.681 . S
Sm841 O869 2.464 . S
Sm841 O870 2.396 . S
C842 Sm840 2.846 1_554 S
C842 C843 1.506 . S
C842 O860 1.261 . S
C842 O861 1.242 1_554 S
C843 C842 1.506 . S
C843 C844 1.358 . S
C843 C848 1.382 . S
C844 C843 1.358 . S
C844 C845 1.385 . S
C844 H872 0.930 . S
C845 C844 1.385 . S
C845 C846 1.395 . S
C845 H873 0.929 . S
C846 C845 1.395 . S
C846 C847 1.335 . S
C847 C846 1.335 . S
C847 C848 1.398 . S
C847 H874 0.930 . S
C848 C843 1.382 . S
C848 C847 1.398 . S
C848 H875 0.929 . S
C849 O862 1.271 . S
C849 O863 1.251 . S
C850 O864 1.252 . S
C850 O865 1.272 . S
C851 Sm841 2.846 . S
C851 C852 1.506 . S
C851 O866 1.261 . S
C851 O867 1.242 . S
C852 C851 1.506 . S
C852 C853 1.358 . S
C852 C857 1.382 . S
C853 C852 1.358 . S
C853 C854 1.385 . S
C853 H876 0.930 . S
C854 C853 1.385 . S
C854 C855 1.395 . S
C854 H877 0.929 . S
C855 C854 1.395 . S
C855 C856 1.335 . S
C856 C855 1.335 . S
C856 C857 1.398 . S
C856 H878 0.930 . S
C857 C852 1.382 . S
C857 C856 1.398 . S
C857 H879 0.929 . S
C858 O868 1.271 . S
C858 O869 1.251 . S
C859 O870 1.252 . S
C859 O871 1.272 . S
O860 Sm840 2.543 1_554 S
O860 C842 1.261 . S
O861 Sm840 2.450 . S
O861 C842 1.242 1_556 S
O862 Sm840 2.681 . S
O862 Sm841 2.386 . S
O862 C849 1.271 . S
O863 Sm840 2.464 . S
O863 C849 1.251 . S
O864 Sm840 2.396 1_554 S
O864 C850 1.252 . S
O865 Sm841 2.408 1_554 S
O865 C850 1.272 . S
O866 Sm841 2.543 . S
O866 C851 1.261 . S
O867 Sm841 2.450 . S
O867 C851 1.242 . S
O868 Sm840 2.386 . S
O868 Sm841 2.681 . S
O868 C858 1.271 . S
O869 Sm841 2.464 . S
O869 C858 1.251 . S
O870 Sm841 2.396 . S
O870 C859 1.252 . S
O871 Sm840 2.408 . S
O871 C859 1.272 . S
H872 C844 0.930 . S
H873 C845 0.929 . S
H874 C847 0.930 . S
H875 C848 0.929 . S
H876 C853 0.930 . S
H877 C854 0.929 . S
H878 C856 0.930 . S
H879 C857 0.929 . S
Sm880 C882 2.846 . S
Sm880 O900 2.543 . S
Sm880 O901 2.450 . S
Sm880 O902 2.681 . S
Sm880 O903 2.464 . S
Sm880 O904 2.396 . S
Sm880 O908 2.386 . S
Sm880 O911 2.408 . S
Sm881 C891 2.846 . S
Sm881 O902 2.386 . S
Sm881 O905 2.408 . S
Sm881 O906 2.543 . S
Sm881 O907 2.450 . S
Sm881 O908 2.681 . S
Sm881 O909 2.464 . S
Sm881 O910 2.396 . S
C882 Sm880 2.846 . S
C882 C883 1.506 . S
C882 O900 1.261 . S
C882 O901 1.242 . S
C883 C882 1.506 . S
C883 C884 1.358 . S
C883 C888 1.382 . S
C884 C883 1.358 . S
C884 C885 1.385 . S
C884 H912 0.930 . S
C885 C884 1.385 . S
C885 C886 1.395 . S
C885 H913 0.929 . S
C886 C885 1.395 . S
C886 C887 1.335 . S
C887 C886 1.335 . S
C887 C888 1.398 . S
C887 H914 0.930 . S
C888 C883 1.382 . S
C888 C887 1.398 . S
C888 H915 0.929 . S
C889 O902 1.271 . S
C889 O903 1.251 . S
C890 O904 1.252 . S
C890 O905 1.272 . S
C891 Sm881 2.846 . S
C891 C892 1.506 . S
C891 O906 1.261 . S
C891 O907 1.242 . S
C892 C891 1.506 . S
C892 C893 1.358 . S
C892 C897 1.382 . S
C893 C892 1.358 . S
C893 C894 1.385 . S
C893 H916 0.930 . S
C894 C893 1.385 . S
C894 C895 1.395 . S
C894 H917 0.929 . S
C895 C894 1.395 . S
C895 C896 1.335 . S
C896 C895 1.335 . S
C896 C897 1.398 . S
C896 H918 0.930 . S
C897 C892 1.382 . S
C897 C896 1.398 . S
C897 H919 0.929 . S
C898 O908 1.271 . S
C898 O909 1.251 . S
C899 O910 1.252 . S
C899 O911 1.272 . S
O900 Sm880 2.543 . S
O900 C882 1.261 . S
O901 Sm880 2.450 . S
O901 C882 1.242 . S
O902 Sm880 2.681 . S
O902 Sm881 2.386 . S
O902 C889 1.271 . S
O903 Sm880 2.464 . S
O903 C889 1.251 . S
O904 Sm880 2.396 . S
O904 C890 1.252 . S
O905 Sm881 2.408 . S
O905 C890 1.272 . S
O906 Sm881 2.543 . S
O906 C891 1.261 . S
O907 Sm881 2.450 . S
O907 C891 1.242 . S
O908 Sm880 2.386 . S
O908 Sm881 2.681 . S
O908 C898 1.271 . S
O909 Sm881 2.464 . S
O909 C898 1.251 . S
O910 Sm881 2.396 . S
O910 C899 1.252 . S
O911 Sm880 2.408 . S
O911 C899 1.272 . S
H912 C884 0.930 . S
H913 C885 0.929 . S
H914 C887 0.930 . S
H915 C888 0.929 . S
H916 C893 0.930 . S
H917 C894 0.929 . S
H918 C896 0.930 . S
H919 C897 0.929 . S
Sm920 C922 2.846 . S
Sm920 O940 2.543 . S
Sm920 O941 2.450 . S
Sm920 O942 2.681 . S
Sm920 O943 2.464 . S
Sm920 O944 2.396 . S
Sm920 O948 2.386 . S
Sm920 O951 2.408 . S
Sm921 C931 2.846 . S
Sm921 O942 2.386 . S
Sm921 O945 2.408 . S
Sm921 O946 2.543 . S
Sm921 O947 2.450 . S
Sm921 O948 2.681 . S
Sm921 O949 2.464 . S
Sm921 O950 2.396 . S
C922 Sm920 2.846 . S
C922 C923 1.506 . S
C922 O940 1.261 . S
C922 O941 1.242 . S
C923 C922 1.506 . S
C923 C924 1.358 . S
C923 C928 1.382 . S
C924 C923 1.358 . S
C924 C925 1.385 . S
C924 H952 0.930 . S
C925 C924 1.385 . S
C925 C926 1.395 . S
C925 H953 0.929 . S
C926 C925 1.395 . S
C926 C927 1.335 . S
C927 C926 1.335 . S
C927 C928 1.398 . S
C927 H954 0.930 . S
C928 C923 1.382 . S
C928 C927 1.398 . S
C928 H955 0.929 . S
C929 O942 1.271 . S
C929 O943 1.251 . S
C930 O944 1.252 . S
C930 O945 1.272 . S
C931 Sm921 2.846 . S
C931 C932 1.506 . S
C931 O946 1.261 . S
C931 O947 1.242 . S
C932 C931 1.506 . S
C932 C933 1.358 . S
C932 C937 1.382 . S
C933 C932 1.358 . S
C933 C934 1.385 . S
C933 H956 0.930 . S
C934 C933 1.385 . S
C934 C935 1.395 . S
C934 H957 0.929 . S
C935 C934 1.395 . S
C935 C936 1.335 . S
C936 C935 1.335 . S
C936 C937 1.398 . S
C936 H958 0.930 . S
C937 C932 1.382 . S
C937 C936 1.398 . S
C937 H959 0.929 . S
C938 O948 1.271 . S
C938 O949 1.251 . S
C939 O950 1.252 . S
C939 O951 1.272 . S
O940 Sm920 2.543 . S
O940 C922 1.261 . S
O941 Sm920 2.450 . S
O941 C922 1.242 . S
O942 Sm920 2.681 . S
O942 Sm921 2.386 . S
O942 C929 1.271 . S
O943 Sm920 2.464 . S
O943 C929 1.251 . S
O944 Sm920 2.396 . S
O944 C930 1.252 . S
O945 Sm921 2.408 . S
O945 C930 1.272 . S
O946 Sm921 2.543 . S
O946 C931 1.261 . S
O947 Sm921 2.450 . S
O947 C931 1.242 . S
O948 Sm920 2.386 . S
O948 Sm921 2.681 . S
O948 C938 1.271 . S
O949 Sm921 2.464 . S
O949 C938 1.251 . S
O950 Sm921 2.396 . S
O950 C939 1.252 . S
O951 Sm920 2.408 . S
O951 C939 1.272 . S
H952 C924 0.930 . S
H953 C925 0.929 . S
H954 C927 0.930 . S
H955 C928 0.929 . S
H956 C933 0.930 . S
H957 C934 0.929 . S
H958 C936 0.930 . S
H959 C937 0.929 . S
Sm960 C962 2.846 . S
Sm960 O980 2.543 . S
Sm960 O981 2.450 . S
Sm960 O982 2.681 . S
Sm960 O983 2.464 . S
Sm960 O984 2.396 . S
Sm960 O988 2.386 . S
Sm960 O991 2.408 . S
Sm961 C971 2.846 . S
Sm961 O982 2.386 . S
Sm961 O985 2.408 . S
Sm961 O986 2.543 . S
Sm961 O987 2.450 . S
Sm961 O988 2.681 . S
Sm961 O989 2.464 . S
Sm961 O990 2.396 . S
C962 Sm960 2.846 . S
C962 C963 1.506 . S
C962 O980 1.261 . S
C962 O981 1.242 . S
C963 C962 1.506 . S
C963 C964 1.358 . S
C963 C968 1.382 . S
C964 C963 1.358 . S
C964 C965 1.385 . S
C964 H992 0.930 . S
C965 C964 1.385 . S
C965 C966 1.395 . S
C965 H993 0.929 . S
C966 C965 1.395 . S
C966 C967 1.335 . S
C967 C966 1.335 . S
C967 C968 1.398 . S
C967 H994 0.930 . S
C968 C963 1.382 . S
C968 C967 1.398 . S
C968 H995 0.929 . S
C969 O982 1.271 . S
C969 O983 1.251 . S
C970 O984 1.252 . S
C970 O985 1.272 . S
C971 Sm961 2.846 . S
C971 C972 1.506 . S
C971 O986 1.261 . S
C971 O987 1.242 . S
C972 C971 1.506 . S
C972 C973 1.358 . S
C972 C977 1.382 . S
C973 C972 1.358 . S
C973 C974 1.385 . S
C973 H996 0.930 . S
C974 C973 1.385 . S
C974 C975 1.395 . S
C974 H997 0.929 . S
C975 C974 1.395 . S
C975 C976 1.335 . S
C976 C975 1.335 . S
C976 C977 1.398 . S
C976 H998 0.930 . S
C977 C972 1.382 . S
C977 C976 1.398 . S
C977 H999 0.929 . S
C978 O988 1.271 . S
C978 O989 1.251 . S
C979 O990 1.252 . S
C979 O991 1.272 . S
O980 Sm960 2.543 . S
O980 C962 1.261 . S
O981 Sm960 2.450 . S
O981 C962 1.242 . S
O982 Sm960 2.681 . S
O982 Sm961 2.386 . S
O982 C969 1.271 . S
O983 Sm960 2.464 . S
O983 C969 1.251 . S
O984 Sm960 2.396 . S
O984 C970 1.252 . S
O985 Sm961 2.408 . S
O985 C970 1.272 . S
O986 Sm961 2.543 . S
O986 C971 1.261 . S
O987 Sm961 2.450 . S
O987 C971 1.242 . S
O988 Sm960 2.386 . S
O988 Sm961 2.681 . S
O988 C978 1.271 . S
O989 Sm961 2.464 . S
O989 C978 1.251 . S
O990 Sm961 2.396 . S
O990 C979 1.252 . S
O991 Sm960 2.408 . S
O991 C979 1.272 . S
H992 C964 0.930 . S
H993 C965 0.929 . S
H994 C967 0.930 . S
H995 C968 0.929 . S
H996 C973 0.930 . S
H997 C974 0.929 . S
H998 C976 0.930 . S
H999 C977 0.929 . S
Sm1000 C1002 2.846 . S
Sm1000 O1020 2.543 . S
Sm1000 O1021 2.450 . S
Sm1000 O1022 2.681 . S
Sm1000 O1023 2.464 . S
Sm1000 O1024 2.396 . S
Sm1000 O1028 2.386 . S
Sm1000 O1031 2.408 1_556 S
Sm1001 C1011 2.846 1_556 S
Sm1001 O1022 2.386 . S
Sm1001 O1025 2.408 . S
Sm1001 O1026 2.543 1_556 S
Sm1001 O1027 2.450 . S
Sm1001 O1028 2.681 . S
Sm1001 O1029 2.464 . S
Sm1001 O1030 2.396 1_556 S
C1002 Sm1000 2.846 . S
C1002 C1003 1.506 . S
C1002 O1020 1.261 . S
C1002 O1021 1.242 . S
C1003 C1002 1.506 . S
C1003 C1004 1.358 . S
C1003 C1008 1.382 . S
C1004 C1003 1.358 . S
C1004 C1005 1.385 . S
C1004 H1032 0.930 . S
C1005 C1004 1.385 . S
C1005 C1006 1.395 . S
C1005 H1033 0.929 . S
C1006 C1005 1.395 . S
C1006 C1007 1.335 . S
C1007 C1006 1.335 . S
C1007 C1008 1.398 . S
C1007 H1034 0.930 . S
C1008 C1003 1.382 . S
C1008 C1007 1.398 . S
C1008 H1035 0.929 . S
C1009 O1022 1.271 . S
C1009 O1023 1.251 . S
C1010 O1024 1.252 . S
C1010 O1025 1.272 . S
C1011 Sm1001 2.846 1_554 S
C1011 C1012 1.506 . S
C1011 O1026 1.261 . S
C1011 O1027 1.242 1_554 S
C1012 C1011 1.506 . S
C1012 C1013 1.358 . S
C1012 C1017 1.382 . S
C1013 C1012 1.358 . S
C1013 C1014 1.385 . S
C1013 H1036 0.930 . S
C1014 C1013 1.385 . S
C1014 C1015 1.395 . S
C1014 H1037 0.929 . S
C1015 C1014 1.395 . S
C1015 C1016 1.335 . S
C1016 C1015 1.335 . S
C1016 C1017 1.398 . S
C1016 H1038 0.930 . S
C1017 C1012 1.382 . S
C1017 C1016 1.398 . S
C1017 H1039 0.929 . S
C1018 O1028 1.271 . S
C1018 O1029 1.251 . S
C1019 O1030 1.252 . S
C1019 O1031 1.272 . S
O1020 Sm1000 2.543 . S
O1020 C1002 1.261 . S
O1021 Sm1000 2.450 . S
O1021 C1002 1.242 . S
O1022 Sm1000 2.681 . S
O1022 Sm1001 2.386 . S
O1022 C1009 1.271 . S
O1023 Sm1000 2.464 . S
O1023 C1009 1.251 . S
O1024 Sm1000 2.396 . S
O1024 C1010 1.252 . S
O1025 Sm1001 2.408 . S
O1025 C1010 1.272 . S
O1026 Sm1001 2.543 1_554 S
O1026 C1011 1.261 . S
O1027 Sm1001 2.450 . S
O1027 C1011 1.242 1_556 S
O1028 Sm1000 2.386 . S
O1028 Sm1001 2.681 . S
O1028 C1018 1.271 . S
O1029 Sm1001 2.464 . S
O1029 C1018 1.251 . S
O1030 Sm1001 2.396 1_554 S
O1030 C1019 1.252 . S
O1031 Sm1000 2.408 1_554 S
O1031 C1019 1.272 . S
H1032 C1004 0.930 . S
H1033 C1005 0.929 . S
H1034 C1007 0.930 . S
H1035 C1008 0.929 . S
H1036 C1013 0.930 . S
H1037 C1014 0.929 . S
H1038 C1016 0.930 . S
H1039 C1017 0.929 . S
Sm1040 C1042 2.846 . S
Sm1040 O1060 2.543 . S
Sm1040 O1061 2.450 . S
Sm1040 O1062 2.681 . S
Sm1040 O1063 2.464 . S
Sm1040 O1064 2.396 . S
Sm1040 O1068 2.386 . S
Sm1040 O1071 2.408 . S
Sm1041 C1051 2.846 . S
Sm1041 O1062 2.386 . S
Sm1041 O1065 2.408 . S
Sm1041 O1066 2.543 . S
Sm1041 O1067 2.450 . S
Sm1041 O1068 2.681 . S
Sm1041 O1069 2.464 . S
Sm1041 O1070 2.396 . S
C1042 Sm1040 2.846 . S
C1042 C1043 1.506 . S
C1042 O1060 1.261 . S
C1042 O1061 1.242 . S
C1043 C1042 1.506 . S
C1043 C1044 1.358 . S
C1043 C1048 1.382 . S
C1044 C1043 1.358 . S
C1044 C1045 1.385 . S
C1044 H1072 0.930 . S
C1045 C1044 1.385 . S
C1045 C1046 1.395 . S
C1045 H1073 0.929 . S
C1046 C1045 1.395 . S
C1046 C1047 1.335 . S
C1047 C1046 1.335 . S
C1047 C1048 1.398 . S
C1047 H1074 0.930 . S
C1048 C1043 1.382 . S
C1048 C1047 1.398 . S
C1048 H1075 0.929 . S
C1049 O1062 1.271 . S
C1049 O1063 1.251 . S
C1050 O1064 1.252 . S
C1050 O1065 1.272 . S
C1051 Sm1041 2.846 . S
C1051 C1052 1.506 . S
C1051 O1066 1.261 . S
C1051 O1067 1.242 . S
C1052 C1051 1.506 . S
C1052 C1053 1.358 . S
C1052 C1057 1.382 . S
C1053 C1052 1.358 . S
C1053 C1054 1.385 . S
C1053 H1076 0.930 . S
C1054 C1053 1.385 . S
C1054 C1055 1.395 . S
C1054 H1077 0.929 . S
C1055 C1054 1.395 . S
C1055 C1056 1.335 . S
C1056 C1055 1.335 . S
C1056 C1057 1.398 . S
C1056 H1078 0.930 . S
C1057 C1052 1.382 . S
C1057 C1056 1.398 . S
C1057 H1079 0.929 . S
C1058 O1068 1.271 . S
C1058 O1069 1.251 . S
C1059 O1070 1.252 . S
C1059 O1071 1.272 . S
O1060 Sm1040 2.543 . S
O1060 C1042 1.261 . S
O1061 Sm1040 2.450 . S
O1061 C1042 1.242 . S
O1062 Sm1040 2.681 . S
O1062 Sm1041 2.386 . S
O1062 C1049 1.271 . S
O1063 Sm1040 2.464 . S
O1063 C1049 1.251 . S
O1064 Sm1040 2.396 . S
O1064 C1050 1.252 . S
O1065 Sm1041 2.408 . S
O1065 C1050 1.272 . S
O1066 Sm1041 2.543 . S
O1066 C1051 1.261 . S
O1067 Sm1041 2.450 . S
O1067 C1051 1.242 . S
O1068 Sm1040 2.386 . S
O1068 Sm1041 2.681 . S
O1068 C1058 1.271 . S
O1069 Sm1041 2.464 . S
O1069 C1058 1.251 . S
O1070 Sm1041 2.396 . S
O1070 C1059 1.252 . S
O1071 Sm1040 2.408 . S
O1071 C1059 1.272 . S
H1072 C1044 0.930 . S
H1073 C1045 0.929 . S
H1074 C1047 0.930 . S
H1075 C1048 0.929 . S
H1076 C1053 0.930 . S
H1077 C1054 0.929 . S
H1078 C1056 0.930 . S
H1079 C1057 0.929 . S
Sm1080 C1082 2.846 . S
Sm1080 O1100 2.543 . S
Sm1080 O1101 2.450 . S
Sm1080 O1102 2.681 . S
Sm1080 O1103 2.464 . S
Sm1080 O1104 2.396 . S
Sm1080 O1108 2.386 . S
Sm1080 O1111 2.408 . S
Sm1081 C1091 2.846 . S
Sm1081 O1102 2.386 . S
Sm1081 O1105 2.408 . S
Sm1081 O1106 2.543 . S
Sm1081 O1107 2.450 . S
Sm1081 O1108 2.681 . S
Sm1081 O1109 2.464 . S
Sm1081 O1110 2.396 . S
C1082 Sm1080 2.846 . S
C1082 C1083 1.506 . S
C1082 O1100 1.261 . S
C1082 O1101 1.242 . S
C1083 C1082 1.506 . S
C1083 C1084 1.358 . S
C1083 C1088 1.382 . S
C1084 C1083 1.358 . S
C1084 C1085 1.385 . S
C1084 H1112 0.930 . S
C1085 C1084 1.385 . S
C1085 C1086 1.395 . S
C1085 H1113 0.929 . S
C1086 C1085 1.395 . S
C1086 C1087 1.335 . S
C1087 C1086 1.335 . S
C1087 C1088 1.398 . S
C1087 H1114 0.930 . S
C1088 C1083 1.382 . S
C1088 C1087 1.398 . S
C1088 H1115 0.929 . S
C1089 O1102 1.271 . S
C1089 O1103 1.251 . S
C1090 O1104 1.252 . S
C1090 O1105 1.272 . S
C1091 Sm1081 2.846 . S
C1091 C1092 1.506 . S
C1091 O1106 1.261 . S
C1091 O1107 1.242 . S
C1092 C1091 1.506 . S
C1092 C1093 1.358 . S
C1092 C1097 1.382 . S
C1093 C1092 1.358 . S
C1093 C1094 1.385 . S
C1093 H1116 0.930 . S
C1094 C1093 1.385 . S
C1094 C1095 1.395 . S
C1094 H1117 0.929 . S
C1095 C1094 1.395 . S
C1095 C1096 1.335 . S
C1096 C1095 1.335 . S
C1096 C1097 1.398 . S
C1096 H1118 0.930 . S
C1097 C1092 1.382 . S
C1097 C1096 1.398 . S
C1097 H1119 0.929 . S
C1098 O1108 1.271 . S
C1098 O1109 1.251 . S
C1099 O1110 1.252 . S
C1099 O1111 1.272 . S
O1100 Sm1080 2.543 . S
O1100 C1082 1.261 . S
O1101 Sm1080 2.450 . S
O1101 C1082 1.242 . S
O1102 Sm1080 2.681 . S
O1102 Sm1081 2.386 . S
O1102 C1089 1.271 . S
O1103 Sm1080 2.464 . S
O1103 C1089 1.251 . S
O1104 Sm1080 2.396 . S
O1104 C1090 1.252 . S
O1105 Sm1081 2.408 . S
O1105 C1090 1.272 . S
O1106 Sm1081 2.543 . S
O1106 C1091 1.261 . S
O1107 Sm1081 2.450 . S
O1107 C1091 1.242 . S
O1108 Sm1080 2.386 . S
O1108 Sm1081 2.681 . S
O1108 C1098 1.271 . S
O1109 Sm1081 2.464 . S
O1109 C1098 1.251 . S
O1110 Sm1081 2.396 . S
O1110 C1099 1.252 . S
O1111 Sm1080 2.408 . S
O1111 C1099 1.272 . S
H1112 C1084 0.930 . S
H1113 C1085 0.929 . S
H1114 C1087 0.930 . S
H1115 C1088 0.929 . S
H1116 C1093 0.930 . S
H1117 C1094 0.929 . S
H1118 C1096 0.930 . S
H1119 C1097 0.929 . S
Sm1120 C1122 2.846 . S
Sm1120 O1140 2.543 . S
Sm1120 O1141 2.450 . S
Sm1120 O1142 2.681 . S
Sm1120 O1143 2.464 . S
Sm1120 O1144 2.396 . S
Sm1120 O1148 2.386 . S
Sm1120 O1151 2.408 . S
Sm1121 C1131 2.846 . S
Sm1121 O1142 2.386 . S
Sm1121 O1145 2.408 . S
Sm1121 O1146 2.543 . S
Sm1121 O1147 2.450 . S
Sm1121 O1148 2.681 . S
Sm1121 O1149 2.464 . S
Sm1121 O1150 2.396 . S
C1122 Sm1120 2.846 . S
C1122 C1123 1.506 . S
C1122 O1140 1.261 . S
C1122 O1141 1.242 . S
C1123 C1122 1.506 . S
C1123 C1124 1.358 . S
C1123 C1128 1.382 . S
C1124 C1123 1.358 . S
C1124 C1125 1.385 . S
C1124 H1152 0.930 . S
C1125 C1124 1.385 . S
C1125 C1126 1.395 . S
C1125 H1153 0.929 . S
C1126 C1125 1.395 . S
C1126 C1127 1.335 . S
C1127 C1126 1.335 . S
C1127 C1128 1.398 . S
C1127 H1154 0.930 . S
C1128 C1123 1.382 . S
C1128 C1127 1.398 . S
C1128 H1155 0.929 . S
C1129 O1142 1.271 . S
C1129 O1143 1.251 . S
C1130 O1144 1.252 . S
C1130 O1145 1.272 . S
C1131 Sm1121 2.846 . S
C1131 C1132 1.506 . S
C1131 O1146 1.261 . S
C1131 O1147 1.242 . S
C1132 C1131 1.506 . S
C1132 C1133 1.358 . S
C1132 C1137 1.382 . S
C1133 C1132 1.358 . S
C1133 C1134 1.385 . S
C1133 H1156 0.930 . S
C1134 C1133 1.385 . S
C1134 C1135 1.395 . S
C1134 H1157 0.929 . S
C1135 C1134 1.395 . S
C1135 C1136 1.335 . S
C1136 C1135 1.335 . S
C1136 C1137 1.398 . S
C1136 H1158 0.930 . S
C1137 C1132 1.382 . S
C1137 C1136 1.398 . S
C1137 H1159 0.929 . S
C1138 O1148 1.271 . S
C1138 O1149 1.251 . S
C1139 O1150 1.252 . S
C1139 O1151 1.272 . S
O1140 Sm1120 2.543 . S
O1140 C1122 1.261 . S
O1141 Sm1120 2.450 . S
O1141 C1122 1.242 . S
O1142 Sm1120 2.681 . S
O1142 Sm1121 2.386 . S
O1142 C1129 1.271 . S
O1143 Sm1120 2.464 . S
O1143 C1129 1.251 . S
O1144 Sm1120 2.396 . S
O1144 C1130 1.252 . S
O1145 Sm1121 2.408 . S
O1145 C1130 1.272 . S
O1146 Sm1121 2.543 . S
O1146 C1131 1.261 . S
O1147 Sm1121 2.450 . S
O1147 C1131 1.242 . S
O1148 Sm1120 2.386 . S
O1148 Sm1121 2.681 . S
O1148 C1138 1.271 . S
O1149 Sm1121 2.464 . S
O1149 C1138 1.251 . S
O1150 Sm1121 2.396 . S
O1150 C1139 1.252 . S
O1151 Sm1120 2.408 . S
O1151 C1139 1.272 . S
H1152 C1124 0.930 . S
H1153 C1125 0.929 . S
H1154 C1127 0.930 . S
H1155 C1128 0.929 . S
H1156 C1133 0.930 . S
H1157 C1134 0.929 . S
H1158 C1136 0.930 . S
H1159 C1137 0.929 . S
Sm1160 C1162 2.846 . S
Sm1160 O1180 2.543 . S
Sm1160 O1181 2.450 . S
Sm1160 O1182 2.681 . S
Sm1160 O1183 2.464 . S
Sm1160 O1184 2.396 . S
Sm1160 O1188 2.386 . S
Sm1160 O1191 2.408 1_554 S
Sm1161 C1171 2.846 1_554 S
Sm1161 O1182 2.386 . S
Sm1161 O1185 2.408 . S
Sm1161 O1186 2.543 1_554 S
Sm1161 O1187 2.450 . S
Sm1161 O1188 2.681 . S
Sm1161 O1189 2.464 . S
Sm1161 O1190 2.396 1_554 S
C1162 Sm1160 2.846 . S
C1162 C1163 1.506 . S
C1162 O1180 1.261 . S
C1162 O1181 1.242 . S
C1163 C1162 1.506 . S
C1163 C1164 1.358 . S
C1163 C1168 1.382 . S
C1164 C1163 1.358 . S
C1164 C1165 1.385 . S
C1164 H1192 0.930 . S
C1165 C1164 1.385 . S
C1165 C1166 1.395 . S
C1165 H1193 0.929 . S
C1166 C1165 1.395 . S
C1166 C1167 1.335 . S
C1167 C1166 1.335 . S
C1167 C1168 1.398 . S
C1167 H1194 0.930 . S
C1168 C1163 1.382 . S
C1168 C1167 1.398 . S
C1168 H1195 0.929 . S
C1169 O1182 1.271 . S
C1169 O1183 1.251 . S
C1170 O1184 1.252 . S
C1170 O1185 1.272 . S
C1171 Sm1161 2.846 1_556 S
C1171 C1172 1.506 . S
C1171 O1186 1.261 . S
C1171 O1187 1.242 1_556 S
C1172 C1171 1.506 . S
C1172 C1173 1.358 . S
C1172 C1177 1.382 . S
C1173 C1172 1.358 . S
C1173 C1174 1.385 . S
C1173 H1196 0.930 . S
C1174 C1173 1.385 . S
C1174 C1175 1.395 . S
C1174 H1197 0.929 . S
C1175 C1174 1.395 . S
C1175 C1176 1.335 . S
C1176 C1175 1.335 . S
C1176 C1177 1.398 . S
C1176 H1198 0.930 . S
C1177 C1172 1.382 . S
C1177 C1176 1.398 . S
C1177 H1199 0.929 . S
C1178 O1188 1.271 . S
C1178 O1189 1.251 . S
C1179 O1190 1.252 . S
C1179 O1191 1.272 . S
O1180 Sm1160 2.543 . S
O1180 C1162 1.261 . S
O1181 Sm1160 2.450 . S
O1181 C1162 1.242 . S
O1182 Sm1160 2.681 . S
O1182 Sm1161 2.386 . S
O1182 C1169 1.271 . S
O1183 Sm1160 2.464 . S
O1183 C1169 1.251 . S
O1184 Sm1160 2.396 . S
O1184 C1170 1.252 . S
O1185 Sm1161 2.408 . S
O1185 C1170 1.272 . S
O1186 Sm1161 2.543 1_556 S
O1186 C1171 1.261 . S
O1187 Sm1161 2.450 . S
O1187 C1171 1.242 1_554 S
O1188 Sm1160 2.386 . S
O1188 Sm1161 2.681 . S
O1188 C1178 1.271 . S
O1189 Sm1161 2.464 . S
O1189 C1178 1.251 . S
O1190 Sm1161 2.396 1_556 S
O1190 C1179 1.252 . S
O1191 Sm1160 2.408 1_556 S
O1191 C1179 1.272 . S
H1192 C1164 0.930 . S
H1193 C1165 0.929 . S
H1194 C1167 0.930 . S
H1195 C1168 0.929 . S
H1196 C1173 0.930 . S
H1197 C1174 0.929 . S
H1198 C1176 0.930 . S
H1199 C1177 0.929 . S
Sm1200 C1202 2.846 . S
Sm1200 O1220 2.543 . S
Sm1200 O1221 2.450 . S
Sm1200 O1222 2.681 . S
Sm1200 O1223 2.464 . S
Sm1200 O1224 2.396 . S
Sm1200 O1228 2.386 . S
Sm1200 O1231 2.408 . S
Sm1201 C1211 2.846 . S
Sm1201 O1222 2.386 . S
Sm1201 O1225 2.408 . S
Sm1201 O1226 2.543 . S
Sm1201 O1227 2.450 . S
Sm1201 O1228 2.681 . S
Sm1201 O1229 2.464 . S
Sm1201 O1230 2.396 . S
C1202 Sm1200 2.846 . S
C1202 C1203 1.506 . S
C1202 O1220 1.261 . S
C1202 O1221 1.242 . S
C1203 C1202 1.506 . S
C1203 C1204 1.358 . S
C1203 C1208 1.382 . S
C1204 C1203 1.358 . S
C1204 C1205 1.385 . S
C1204 H1232 0.930 . S
C1205 C1204 1.385 . S
C1205 C1206 1.395 . S
C1205 H1233 0.929 . S
C1206 C1205 1.395 . S
C1206 C1207 1.335 . S
C1207 C1206 1.335 . S
C1207 C1208 1.398 . S
C1207 H1234 0.930 . S
C1208 C1203 1.382 . S
C1208 C1207 1.398 . S
C1208 H1235 0.929 . S
C1209 O1222 1.271 . S
C1209 O1223 1.251 . S
C1210 O1224 1.252 . S
C1210 O1225 1.272 . S
C1211 Sm1201 2.846 . S
C1211 C1212 1.506 . S
C1211 O1226 1.261 . S
C1211 O1227 1.242 . S
C1212 C1211 1.506 . S
C1212 C1213 1.358 . S
C1212 C1217 1.382 . S
C1213 C1212 1.358 . S
C1213 C1214 1.385 . S
C1213 H1236 0.930 . S
C1214 C1213 1.385 . S
C1214 C1215 1.395 . S
C1214 H1237 0.929 . S
C1215 C1214 1.395 . S
C1215 C1216 1.335 . S
C1216 C1215 1.335 . S
C1216 C1217 1.398 . S
C1216 H1238 0.930 . S
C1217 C1212 1.382 . S
C1217 C1216 1.398 . S
C1217 H1239 0.929 . S
C1218 O1228 1.271 . S
C1218 O1229 1.251 . S
C1219 O1230 1.252 . S
C1219 O1231 1.272 . S
O1220 Sm1200 2.543 . S
O1220 C1202 1.261 . S
O1221 Sm1200 2.450 . S
O1221 C1202 1.242 . S
O1222 Sm1200 2.681 . S
O1222 Sm1201 2.386 . S
O1222 C1209 1.271 . S
O1223 Sm1200 2.464 . S
O1223 C1209 1.251 . S
O1224 Sm1200 2.396 . S
O1224 C1210 1.252 . S
O1225 Sm1201 2.408 . S
O1225 C1210 1.272 . S
O1226 Sm1201 2.543 . S
O1226 C1211 1.261 . S
O1227 Sm1201 2.450 . S
O1227 C1211 1.242 . S
O1228 Sm1200 2.386 . S
O1228 Sm1201 2.681 . S
O1228 C1218 1.271 . S
O1229 Sm1201 2.464 . S
O1229 C1218 1.251 . S
O1230 Sm1201 2.396 . S
O1230 C1219 1.252 . S
O1231 Sm1200 2.408 . S
O1231 C1219 1.272 . S
H1232 C1204 0.930 . S
H1233 C1205 0.929 . S
H1234 C1207 0.930 . S
H1235 C1208 0.929 . S
H1236 C1213 0.930 . S
H1237 C1214 0.929 . S
H1238 C1216 0.930 . S
H1239 C1217 0.929 . S
Sm1240 C1242 2.846 . S
Sm1240 O1260 2.543 . S
Sm1240 O1261 2.450 . S
Sm1240 O1262 2.681 . S
Sm1240 O1263 2.464 . S
Sm1240 O1264 2.396 . S
Sm1240 O1268 2.386 . S
Sm1240 O1271 2.408 . S
Sm1241 C1251 2.846 . S
Sm1241 O1262 2.386 . S
Sm1241 O1265 2.408 . S
Sm1241 O1266 2.543 . S
Sm1241 O1267 2.450 . S
Sm1241 O1268 2.681 . S
Sm1241 O1269 2.464 . S
Sm1241 O1270 2.396 . S
C1242 Sm1240 2.846 . S
C1242 C1243 1.506 . S
C1242 O1260 1.261 . S
C1242 O1261 1.242 . S
C1243 C1242 1.506 . S
C1243 C1244 1.358 . S
C1243 C1248 1.382 . S
C1244 C1243 1.358 . S
C1244 C1245 1.385 . S
C1244 H1272 0.930 . S
C1245 C1244 1.385 . S
C1245 C1246 1.395 . S
C1245 H1273 0.929 . S
C1246 C1245 1.395 . S
C1246 C1247 1.335 . S
C1247 C1246 1.335 . S
C1247 C1248 1.398 . S
C1247 H1274 0.930 . S
C1248 C1243 1.382 . S
C1248 C1247 1.398 . S
C1248 H1275 0.929 . S
C1249 O1262 1.271 . S
C1249 O1263 1.251 . S
C1250 O1264 1.252 . S
C1250 O1265 1.272 . S
C1251 Sm1241 2.846 . S
C1251 C1252 1.506 . S
C1251 O1266 1.261 . S
C1251 O1267 1.242 . S
C1252 C1251 1.506 . S
C1252 C1253 1.358 . S
C1252 C1257 1.382 . S
C1253 C1252 1.358 . S
C1253 C1254 1.385 . S
C1253 H1276 0.930 . S
C1254 C1253 1.385 . S
C1254 C1255 1.395 . S
C1254 H1277 0.929 . S
C1255 C1254 1.395 . S
C1255 C1256 1.335 . S
C1256 C1255 1.335 . S
C1256 C1257 1.398 . S
C1256 H1278 0.930 . S
C1257 C1252 1.382 . S
C1257 C1256 1.398 . S
C1257 H1279 0.929 . S
C1258 O1268 1.271 . S
C1258 O1269 1.251 . S
C1259 O1270 1.252 . S
C1259 O1271 1.272 . S
O1260 Sm1240 2.543 . S
O1260 C1242 1.261 . S
O1261 Sm1240 2.450 . S
O1261 C1242 1.242 . S
O1262 Sm1240 2.681 . S
O1262 Sm1241 2.386 . S
O1262 C1249 1.271 . S
O1263 Sm1240 2.464 . S
O1263 C1249 1.251 . S
O1264 Sm1240 2.396 . S
O1264 C1250 1.252 . S
O1265 Sm1241 2.408 . S
O1265 C1250 1.272 . S
O1266 Sm1241 2.543 . S
O1266 C1251 1.261 . S
O1267 Sm1241 2.450 . S
O1267 C1251 1.242 . S
O1268 Sm1240 2.386 . S
O1268 Sm1241 2.681 . S
O1268 C1258 1.271 . S
O1269 Sm1241 2.464 . S
O1269 C1258 1.251 . S
O1270 Sm1241 2.396 . S
O1270 C1259 1.252 . S
O1271 Sm1240 2.408 . S
O1271 C1259 1.272 . S
H1272 C1244 0.930 . S
H1273 C1245 0.929 . S
H1274 C1247 0.930 . S
H1275 C1248 0.929 . S
H1276 C1253 0.930 . S
H1277 C1254 0.929 . S
H1278 C1256 0.930 . S
H1279 C1257 0.929 . S
H1280 C1286 0.930 . S
H1281 C1290 0.930 . S
H1282 C1295 0.929 . S
H1283 C1293 0.929 . S
H1284 C1288 0.929 . S
H1285 C1294 0.929 . S
C1286 H1280 0.930 . S
C1286 C1287 1.367 . S
C1286 C1294 1.378 . S
C1287 C1286 1.367 . S
C1287 C1295 1.433 . S
C1288 H1284 0.929 . S
C1288 C1290 1.378 . S
C1288 C1292 1.350 . S
C1289 C1292 1.463 . S
C1289 C1294 1.350 . S
C1289 N1297 1.427 . S
C1290 H1281 0.930 . S
C1290 C1288 1.378 . S
C1290 C1291 1.367 . S
C1291 C1290 1.367 . S
C1291 C1293 1.433 . S
C1292 C1288 1.350 . S
C1292 C1289 1.463 . S
C1292 N1296 1.427 . S
C1293 H1283 0.929 . S
C1293 C1291 1.433 . S
C1293 N1296 1.384 . S
C1294 H1285 0.929 . S
C1294 C1286 1.378 . S
C1294 C1289 1.350 . S
C1295 H1282 0.929 . S
C1295 C1287 1.433 . S
C1295 N1297 1.384 . S
N1296 C1292 1.427 . S
N1296 C1293 1.384 . S
N1297 C1289 1.427 . S
N1297 C1295 1.384 . S
H1298 C1304 0.930 . S
H1299 C1308 0.930 . S
H1300 C1313 0.929 . S
H1301 C1311 0.929 . S
H1302 C1306 0.929 . S
H1303 C1312 0.929 . S
C1304 H1298 0.930 . S
C1304 C1305 1.367 . S
C1304 C1312 1.378 . S
C1305 C1304 1.367 . S
C1305 C1313 1.433 . S
C1306 H1302 0.929 . S
C1306 C1308 1.378 1_545 S
C1306 C1310 1.350 . S
C1307 C1310 1.463 . S
C1307 C1312 1.350 . S
C1307 N1315 1.427 . S
C1308 H1299 0.930 . S
C1308 C1306 1.378 1_565 S
C1308 C1309 1.367 1_565 S
C1309 C1308 1.367 1_545 S
C1309 C1311 1.433 . S
C1310 C1306 1.350 . S
C1310 C1307 1.463 . S
C1310 N1314 1.427 . S
C1311 H1301 0.929 . S
C1311 C1309 1.433 . S
C1311 N1314 1.384 . S
C1312 H1303 0.929 . S
C1312 C1304 1.378 . S
C1312 C1307 1.350 . S
C1313 H1300 0.929 . S
C1313 C1305 1.433 . S
C1313 N1315 1.384 . S
N1314 C1310 1.427 . S
N1314 C1311 1.384 . S
N1315 C1307 1.427 . S
N1315 C1313 1.384 . S
H1316 C1322 0.930 . S
H1317 C1326 0.930 . S
H1318 C1331 0.929 . S
H1319 C1329 0.929 . S
H1320 C1324 0.929 . S
H1321 C1330 0.929 . S
C1322 H1316 0.930 . S
C1322 C1323 1.367 . S
C1322 C1330 1.378 . S
C1323 C1322 1.367 . S
C1323 C1331 1.433 . S
C1324 H1320 0.929 . S
C1324 C1326 1.378 . S
C1324 C1328 1.350 . S
C1325 C1328 1.463 . S
C1325 C1330 1.350 . S
C1325 N1333 1.427 . S
C1326 H1317 0.930 . S
C1326 C1324 1.378 . S
C1326 C1327 1.367 . S
C1327 C1326 1.367 . S
C1327 C1329 1.433 . S
C1328 C1324 1.350 . S
C1328 C1325 1.463 . S
C1328 N1332 1.427 . S
C1329 H1319 0.929 . S
C1329 C1327 1.433 . S
C1329 N1332 1.384 . S
C1330 H1321 0.929 . S
C1330 C1322 1.378 . S
C1330 C1325 1.350 . S
C1331 H1318 0.929 . S
C1331 C1323 1.433 . S
C1331 N1333 1.384 . S
N1332 C1328 1.427 . S
N1332 C1329 1.384 . S
N1333 C1325 1.427 . S
N1333 C1331 1.384 . S
H1334 C1340 0.930 . S
H1335 C1344 0.930 1_545 S
H1336 C1349 0.929 . S
H1337 C1347 0.929 . S
H1338 C1342 0.929 . S
H1339 C1348 0.929 . S
C1340 H1334 0.930 . S
C1340 C1341 1.367 . S
C1340 C1348 1.378 . S
C1341 C1340 1.367 . S
C1341 C1349 1.433 . S
C1342 H1338 0.929 . S
C1342 C1344 1.378 . S
C1342 C1346 1.350 . S
C1343 C1346 1.463 . S
C1343 C1348 1.350 . S
C1343 N1351 1.427 . S
C1344 H1335 0.930 1_565 S
C1344 C1342 1.378 . S
C1344 C1345 1.367 . S
C1345 C1344 1.367 . S
C1345 C1347 1.433 . S
C1346 C1342 1.350 . S
C1346 C1343 1.463 . S
C1346 N1350 1.427 . S
C1347 H1337 0.929 . S
C1347 C1345 1.433 . S
C1347 N1350 1.384 . S
C1348 H1339 0.929 . S
C1348 C1340 1.378 . S
C1348 C1343 1.350 . S
C1349 H1336 0.929 . S
C1349 C1341 1.433 . S
C1349 N1351 1.384 . S
N1350 C1346 1.427 . S
N1350 C1347 1.384 . S
N1351 C1343 1.427 . S
N1351 C1349 1.384 . S
H1352 C1358 0.930 . S
H1353 C1362 0.930 . S
H1354 C1367 0.929 . S
H1355 C1365 0.929 . S
H1356 C1360 0.929 . S
H1357 C1366 0.929 . S
C1358 H1352 0.930 . S
C1358 C1359 1.367 . S
C1358 C1366 1.378 . S
C1359 C1358 1.367 . S
C1359 C1367 1.433 . S
C1360 H1356 0.929 . S
C1360 C1362 1.378 . S
C1360 C1364 1.350 . S
C1361 C1364 1.463 . S
C1361 C1366 1.350 . S
C1361 N1369 1.427 . S
C1362 H1353 0.930 . S
C1362 C1360 1.378 . S
C1362 C1363 1.367 . S
C1363 C1362 1.367 . S
C1363 C1365 1.433 . S
C1364 C1360 1.350 . S
C1364 C1361 1.463 . S
C1364 N1368 1.427 . S
C1365 H1355 0.929 . S
C1365 C1363 1.433 . S
C1365 N1368 1.384 . S
C1366 H1357 0.929 . S
C1366 C1358 1.378 . S
C1366 C1361 1.350 . S
C1367 H1354 0.929 . S
C1367 C1359 1.433 . S
C1367 N1369 1.384 . S
N1368 C1364 1.427 . S
N1368 C1365 1.384 . S
N1369 C1361 1.427 . S
N1369 C1367 1.384 . S
H1370 C1376 0.930 . S
H1371 C1380 0.930 . S
H1372 C1385 0.929 . S
H1373 C1383 0.929 . S
H1374 C1378 0.929 . S
H1375 C1384 0.929 . S
C1376 H1370 0.930 . S
C1376 C1377 1.367 . S
C1376 C1384 1.378 . S
C1377 C1376 1.367 . S
C1377 C1385 1.433 1_545 S
C1378 H1374 0.929 . S
C1378 C1380 1.378 . S
C1378 C1382 1.350 . S
C1379 C1382 1.463 . S
C1379 C1384 1.350 . S
C1379 N1387 1.427 . S
C1380 H1371 0.930 . S
C1380 C1378 1.378 . S
C1380 C1381 1.367 . S
C1381 C1380 1.367 . S
C1381 C1383 1.433 . S
C1382 C1378 1.350 . S
C1382 C1379 1.463 . S
C1382 N1386 1.427 . S
C1383 H1373 0.929 . S
C1383 C1381 1.433 . S
C1383 N1386 1.384 . S
C1384 H1375 0.929 . S
C1384 C1376 1.378 . S
C1384 C1379 1.350 . S
C1385 H1372 0.929 . S
C1385 C1377 1.433 1_565 S
C1385 N1387 1.384 1_565 S
N1386 C1382 1.427 . S
N1386 C1383 1.384 . S
N1387 C1379 1.427 . S
N1387 C1385 1.384 1_545 S
H1388 C1394 0.930 . S
H1389 C1398 0.930 . S
H1390 C1403 0.929 . S
H1391 C1401 0.929 . S
H1392 C1396 0.929 . S
H1393 C1402 0.929 . S
C1394 H1388 0.930 . S
C1394 C1395 1.367 . S
C1394 C1402 1.378 . S
C1395 C1394 1.367 . S
C1395 C1403 1.433 . S
C1396 H1392 0.929 . S
C1396 C1398 1.378 . S
C1396 C1400 1.350 . S
C1397 C1400 1.463 . S
C1397 C1402 1.350 . S
C1397 N1405 1.427 . S
C1398 H1389 0.930 . S
C1398 C1396 1.378 . S
C1398 C1399 1.367 . S
C1399 C1398 1.367 . S
C1399 C1401 1.433 . S
C1400 C1396 1.350 . S
C1400 C1397 1.463 . S
C1400 N1404 1.427 . S
C1401 H1391 0.929 . S
C1401 C1399 1.433 . S
C1401 N1404 1.384 . S
C1402 H1393 0.929 . S
C1402 C1394 1.378 . S
C1402 C1397 1.350 . S
C1403 H1390 0.929 . S
C1403 C1395 1.433 . S
C1403 N1405 1.384 . S
N1404 C1400 1.427 . S
N1404 C1401 1.384 . S
N1405 C1397 1.427 . S
N1405 C1403 1.384 . S
H1406 C1412 0.930 . S
H1407 C1416 0.930 . S
H1408 C1421 0.929 . S
H1409 C1419 0.929 . S
H1410 C1414 0.929 . S
H1411 C1420 0.929 . S
C1412 H1406 0.930 . S
C1412 C1413 1.367 . S
C1412 C1420 1.378 . S
C1413 C1412 1.367 . S
C1413 C1421 1.433 . S
C1414 H1410 0.929 . S
C1414 C1416 1.378 . S
C1414 C1418 1.350 . S
C1415 C1418 1.463 . S
C1415 C1420 1.350 . S
C1415 N1423 1.427 . S
C1416 H1407 0.930 . S
C1416 C1414 1.378 . S
C1416 C1417 1.367 . S
C1417 C1416 1.367 . S
C1417 C1419 1.433 1_565 S
C1418 C1414 1.350 . S
C1418 C1415 1.463 . S
C1418 N1422 1.427 . S
C1419 H1409 0.929 . S
C1419 C1417 1.433 1_545 S
C1419 N1422 1.384 1_545 S
C1420 H1411 0.929 . S
C1420 C1412 1.378 . S
C1420 C1415 1.350 . S
C1421 H1408 0.929 . S
C1421 C1413 1.433 . S
C1421 N1423 1.384 . S
N1422 C1418 1.427 . S
N1422 C1419 1.384 1_565 S
N1423 C1415 1.427 . S
N1423 C1421 1.384 . S
H1424 C1430 0.930 . S
H1425 C1434 0.930 . S
H1426 C1439 0.929 . S
H1427 C1437 0.929 . S
H1428 C1432 0.929 . S
H1429 C1438 0.929 . S
C1430 H1424 0.930 . S
C1430 C1431 1.367 . S
C1430 C1438 1.378 . S
C1431 C1430 1.367 . S
C1431 C1439 1.433 . S
C1432 H1428 0.929 . S
C1432 C1434 1.378 . S
C1432 C1436 1.350 . S
C1433 C1436 1.463 . S
C1433 C1438 1.350 . S
C1433 N1441 1.427 . S
C1434 H1425 0.930 . S
C1434 C1432 1.378 . S
C1434 C1435 1.367 . S
C1435 C1434 1.367 . S
C1435 C1437 1.433 . S
C1436 C1432 1.350 . S
C1436 C1433 1.463 . S
C1436 N1440 1.427 . S
C1437 H1427 0.929 . S
C1437 C1435 1.433 . S
C1437 N1440 1.384 . S
C1438 H1429 0.929 . S
C1438 C1430 1.378 . S
C1438 C1433 1.350 . S
C1439 H1426 0.929 . S
C1439 C1431 1.433 . S
C1439 N1441 1.384 . S
N1440 C1436 1.427 . S
N1440 C1437 1.384 . S
N1441 C1433 1.427 . S
N1441 C1439 1.384 . S
H1442 C1448 0.930 . S
H1443 C1452 0.930 . S
H1444 C1457 0.929 . S
H1445 C1455 0.929 . S
H1446 C1450 0.929 . S
H1447 C1456 0.929 . S
C1448 H1442 0.930 . S
C1448 C1449 1.367 1_545 S
C1448 C1456 1.378 1_545 S
C1449 C1448 1.367 1_565 S
C1449 C1457 1.433 . S
C1450 H1446 0.929 . S
C1450 C1452 1.378 . S
C1450 C1454 1.350 . S
C1451 C1454 1.463 . S
C1451 C1456 1.350 . S
C1451 N1459 1.427 . S
C1452 H1443 0.930 . S
C1452 C1450 1.378 . S
C1452 C1453 1.367 . S
C1453 C1452 1.367 . S
C1453 C1455 1.433 . S
C1454 C1450 1.350 . S
C1454 C1451 1.463 . S
C1454 N1458 1.427 . S
C1455 H1445 0.929 . S
C1455 C1453 1.433 . S
C1455 N1458 1.384 . S
C1456 H1447 0.929 . S
C1456 C1448 1.378 1_565 S
C1456 C1451 1.350 . S
C1457 H1444 0.929 . S
C1457 C1449 1.433 . S
C1457 N1459 1.384 . S
N1458 C1454 1.427 . S
N1458 C1455 1.384 . S
N1459 C1451 1.427 . S
N1459 C1457 1.384 . S
H1460 C1466 0.930 . S
H1461 C1470 0.930 . S
H1462 C1475 0.929 . S
H1463 C1473 0.929 . S
H1464 C1468 0.929 . S
H1465 C1474 0.929 . S
C1466 H1460 0.930 . S
C1466 C1467 1.367 . S
C1466 C1474 1.378 . S
C1467 C1466 1.367 . S
C1467 C1475 1.433 . S
C1468 H1464 0.929 . S
C1468 C1470 1.378 . S
C1468 C1472 1.350 . S
C1469 C1472 1.463 . S
C1469 C1474 1.350 . S
C1469 N1477 1.427 . S
C1470 H1461 0.930 . S
C1470 C1468 1.378 . S
C1470 C1471 1.367 . S
C1471 C1470 1.367 . S
C1471 C1473 1.433 . S
C1472 C1468 1.350 . S
C1472 C1469 1.463 . S
C1472 N1476 1.427 . S
C1473 H1463 0.929 . S
C1473 C1471 1.433 . S
C1473 N1476 1.384 . S
C1474 H1465 0.929 . S
C1474 C1466 1.378 . S
C1474 C1469 1.350 . S
C1475 H1462 0.929 . S
C1475 C1467 1.433 . S
C1475 N1477 1.384 . S
N1476 C1472 1.427 . S
N1476 C1473 1.384 . S
N1477 C1469 1.427 . S
N1477 C1475 1.384 . S
H1478 C1484 0.930 . S
H1479 C1488 0.930 . S
H1480 C1493 0.929 . S
H1481 C1491 0.929 . S
H1482 C1486 0.929 . S
H1483 C1492 0.929 . S
C1484 H1478 0.930 . S
C1484 C1485 1.367 . S
C1484 C1492 1.378 . S
C1485 C1484 1.367 . S
C1485 C1493 1.433 1_545 S
C1486 H1482 0.929 . S
C1486 C1488 1.378 . S
C1486 C1490 1.350 . S
C1487 C1490 1.463 . S
C1487 C1492 1.350 . S
C1487 N1495 1.427 . S
C1488 H1479 0.930 . S
C1488 C1486 1.378 . S
C1488 C1489 1.367 . S
C1489 C1488 1.367 . S
C1489 C1491 1.433 . S
C1490 C1486 1.350 . S
C1490 C1487 1.463 . S
C1490 N1494 1.427 . S
C1491 H1481 0.929 . S
C1491 C1489 1.433 . S
C1491 N1494 1.384 . S
C1492 H1483 0.929 . S
C1492 C1484 1.378 . S
C1492 C1487 1.350 . S
C1493 H1480 0.929 . S
C1493 C1485 1.433 1_565 S
C1493 N1495 1.384 1_565 S
N1494 C1490 1.427 . S
N1494 C1491 1.384 . S
N1495 C1487 1.427 . S
N1495 C1493 1.384 1_545 S
H1496 C1502 0.930 . S
H1497 C1506 0.930 . S
H1498 C1511 0.929 . S
H1499 C1509 0.929 . S
H1500 C1504 0.929 . S
H1501 C1510 0.929 . S
C1502 H1496 0.930 . S
C1502 C1503 1.367 . S
C1502 C1510 1.378 . S
C1503 C1502 1.367 . S
C1503 C1511 1.433 . S
C1504 H1500 0.929 . S
C1504 C1506 1.378 . S
C1504 C1508 1.350 . S
C1505 C1508 1.463 . S
C1505 C1510 1.350 . S
C1505 N1513 1.427 . S
C1506 H1497 0.930 . S
C1506 C1504 1.378 . S
C1506 C1507 1.367 . S
C1507 C1506 1.367 . S
C1507 C1509 1.433 . S
C1508 C1504 1.350 . S
C1508 C1505 1.463 . S
C1508 N1512 1.427 . S
C1509 H1499 0.929 . S
C1509 C1507 1.433 . S
C1509 N1512 1.384 . S
C1510 H1501 0.929 . S
C1510 C1502 1.378 . S
C1510 C1505 1.350 . S
C1511 H1498 0.929 . S
C1511 C1503 1.433 . S
C1511 N1513 1.384 . S
N1512 C1508 1.427 . S
N1512 C1509 1.384 . S
N1513 C1505 1.427 . S
N1513 C1511 1.384 . S
H1514 C1520 0.930 . S
H1515 C1524 0.930 . S
H1516 C1529 0.929 . S
H1517 C1527 0.929 . S
H1518 C1522 0.929 . S
H1519 C1528 0.929 . S
C1520 H1514 0.930 . S
C1520 C1521 1.367 1_545 S
C1520 C1528 1.378 1_545 S
C1521 C1520 1.367 1_565 S
C1521 C1529 1.433 . S
C1522 H1518 0.929 . S
C1522 C1524 1.378 . S
C1522 C1526 1.350 . S
C1523 C1526 1.463 . S
C1523 C1528 1.350 . S
C1523 N1531 1.427 . S
C1524 H1515 0.930 . S
C1524 C1522 1.378 . S
C1524 C1525 1.367 . S
C1525 C1524 1.367 . S
C1525 C1527 1.433 . S
C1526 C1522 1.350 . S
C1526 C1523 1.463 . S
C1526 N1530 1.427 . S
C1527 H1517 0.929 . S
C1527 C1525 1.433 . S
C1527 N1530 1.384 . S
C1528 H1519 0.929 . S
C1528 C1520 1.378 1_565 S
C1528 C1523 1.350 . S
C1529 H1516 0.929 . S
C1529 C1521 1.433 . S
C1529 N1531 1.384 . S
N1530 C1526 1.427 . S
N1530 C1527 1.384 . S
N1531 C1523 1.427 . S
N1531 C1529 1.384 . S
H1532 C1538 0.930 . S
H1533 C1542 0.930 . S
H1534 C1547 0.929 . S
H1535 C1545 0.929 . S
H1536 C1540 0.929 . S
H1537 C1546 0.929 . S
C1538 H1532 0.930 . S
C1538 C1539 1.367 . S
C1538 C1546 1.378 . S
C1539 C1538 1.367 . S
C1539 C1547 1.433 . S
C1540 H1536 0.929 . S
C1540 C1542 1.378 . S
C1540 C1544 1.350 . S
C1541 C1544 1.463 . S
C1541 C1546 1.350 . S
C1541 N1549 1.427 . S
C1542 H1533 0.930 . S
C1542 C1540 1.378 . S
C1542 C1543 1.367 . S
C1543 C1542 1.367 . S
C1543 C1545 1.433 . S
C1544 C1540 1.350 . S
C1544 C1541 1.463 . S
C1544 N1548 1.427 . S
C1545 H1535 0.929 . S
C1545 C1543 1.433 . S
C1545 N1548 1.384 . S
C1546 H1537 0.929 . S
C1546 C1538 1.378 . S
C1546 C1541 1.350 . S
C1547 H1534 0.929 . S
C1547 C1539 1.433 . S
C1547 N1549 1.384 . S
N1548 C1544 1.427 . S
N1548 C1545 1.384 . S
N1549 C1541 1.427 . S
N1549 C1547 1.384 . S
H1550 C1556 0.930 . S
H1551 C1560 0.930 . S
H1552 C1565 0.929 . S
H1553 C1563 0.929 . S
H1554 C1558 0.929 . S
H1555 C1564 0.929 . S
C1556 H1550 0.930 . S
C1556 C1557 1.367 . S
C1556 C1564 1.378 . S
C1557 C1556 1.367 . S
C1557 C1565 1.433 . S
C1558 H1554 0.929 . S
C1558 C1560 1.378 1_545 S
C1558 C1562 1.350 . S
C1559 C1562 1.463 . S
C1559 C1564 1.350 . S
C1559 N1567 1.427 . S
C1560 H1551 0.930 . S
C1560 C1558 1.378 1_565 S
C1560 C1561 1.367 1_565 S
C1561 C1560 1.367 1_545 S
C1561 C1563 1.433 . S
C1562 C1558 1.350 . S
C1562 C1559 1.463 . S
C1562 N1566 1.427 . S
C1563 H1553 0.929 . S
C1563 C1561 1.433 . S
C1563 N1566 1.384 . S
C1564 H1555 0.929 . S
C1564 C1556 1.378 . S
C1564 C1559 1.350 . S
C1565 H1552 0.929 . S
C1565 C1557 1.433 . S
C1565 N1567 1.384 . S
N1566 C1562 1.427 . S
N1566 C1563 1.384 . S
N1567 C1559 1.427 . S
N1567 C1565 1.384 . S
H1568 C1574 0.930 . S
H1569 C1578 0.930 . S
H1570 C1583 0.929 . S
H1571 C1581 0.929 . S
H1572 C1576 0.929 . S
H1573 C1582 0.929 . S
C1574 H1568 0.930 . S
C1574 C1575 1.367 . S
C1574 C1582 1.378 . S
C1575 C1574 1.367 . S
C1575 C1583 1.433 . S
C1576 H1572 0.929 . S
C1576 C1578 1.378 . S
C1576 C1580 1.350 . S
C1577 C1580 1.463 . S
C1577 C1582 1.350 . S
C1577 N1585 1.427 . S
C1578 H1569 0.930 . S
C1578 C1576 1.378 . S
C1578 C1579 1.367 . S
C1579 C1578 1.367 . S
C1579 C1581 1.433 . S
C1580 C1576 1.350 . S
C1580 C1577 1.463 . S
C1580 N1584 1.427 . S
C1581 H1571 0.929 . S
C1581 C1579 1.433 . S
C1581 N1584 1.384 . S
C1582 H1573 0.929 . S
C1582 C1574 1.378 . S
C1582 C1577 1.350 . S
C1583 H1570 0.929 . S
C1583 C1575 1.433 . S
C1583 N1585 1.384 . S
N1584 C1580 1.427 . S
N1584 C1581 1.384 . S
N1585 C1577 1.427 . S
N1585 C1583 1.384 . S
H1586 C1592 0.930 . S
H1587 C1596 0.930 . S
H1588 C1601 0.929 . S
H1589 C1599 0.929 . S
H1590 C1594 0.929 . S
H1591 C1600 0.929 . S
C1592 H1586 0.930 . S
C1592 C1593 1.367 . S
C1592 C1600 1.378 . S
C1593 C1592 1.367 . S
C1593 C1601 1.433 . S
C1594 H1590 0.929 . S
C1594 C1596 1.378 . S
C1594 C1598 1.350 . S
C1595 C1598 1.463 . S
C1595 C1600 1.350 . S
C1595 N1603 1.427 . S
C1596 H1587 0.930 . S
C1596 C1594 1.378 . S
C1596 C1597 1.367 . S
C1597 C1596 1.367 . S
C1597 C1599 1.433 . S
C1598 C1594 1.350 . S
C1598 C1595 1.463 . S
C1598 N1602 1.427 . S
C1599 H1589 0.929 . S
C1599 C1597 1.433 . S
C1599 N1602 1.384 . S
C1600 H1591 0.929 . S
C1600 C1592 1.378 . S
C1600 C1595 1.350 . S
C1601 H1588 0.929 . S
C1601 C1593 1.433 . S
C1601 N1603 1.384 . S
N1602 C1598 1.427 . S
N1602 C1599 1.384 . S
N1603 C1595 1.427 . S
N1603 C1601 1.384 . S
H1604 C1610 0.930 . S
H1605 C1614 0.930 . S
H1606 C1619 0.929 . S
H1607 C1617 0.929 . S
H1608 C1612 0.929 . S
H1609 C1618 0.929 . S
C1610 H1604 0.930 . S
C1610 C1611 1.367 . S
C1610 C1618 1.378 . S
C1611 C1610 1.367 . S
C1611 C1619 1.433 . S
C1612 H1608 0.929 . S
C1612 C1614 1.378 . S
C1612 C1616 1.350 . S
C1613 C1616 1.463 . S
C1613 C1618 1.350 . S
C1613 N1621 1.427 . S
C1614 H1605 0.930 . S
C1614 C1612 1.378 . S
C1614 C1615 1.367 . S
C1615 C1614 1.367 . S
C1615 C1617 1.433 . S
C1616 C1612 1.350 . S
C1616 C1613 1.463 . S
C1616 N1620 1.427 . S
C1617 H1607 0.929 . S
C1617 C1615 1.433 . S
C1617 N1620 1.384 . S
C1618 H1609 0.929 . S
C1618 C1610 1.378 . S
C1618 C1613 1.350 . S
C1619 H1606 0.929 . S
C1619 C1611 1.433 . S
C1619 N1621 1.384 . S
N1620 C1616 1.427 . S
N1620 C1617 1.384 . S
N1621 C1613 1.427 . S
N1621 C1619 1.384 . S
H1622 C1628 0.930 . S
H1623 C1632 0.930 . S
H1624 C1637 0.929 . S
H1625 C1635 0.929 . S
H1626 C1630 0.929 . S
H1627 C1636 0.929 . S
C1628 H1622 0.930 . S
C1628 C1629 1.367 . S
C1628 C1636 1.378 . S
C1629 C1628 1.367 . S
C1629 C1637 1.433 . S
C1630 H1626 0.929 . S
C1630 C1632 1.378 . S
C1630 C1634 1.350 . S
C1631 C1634 1.463 . S
C1631 C1636 1.350 . S
C1631 N1639 1.427 . S
C1632 H1623 0.930 . S
C1632 C1630 1.378 . S
C1632 C1633 1.367 . S
C1633 C1632 1.367 . S
C1633 C1635 1.433 . S
C1634 C1630 1.350 . S
C1634 C1631 1.463 . S
C1634 N1638 1.427 . S
C1635 H1625 0.929 . S
C1635 C1633 1.433 . S
C1635 N1638 1.384 . S
C1636 H1627 0.929 . S
C1636 C1628 1.378 . S
C1636 C1631 1.350 . S
C1637 H1624 0.929 . S
C1637 C1629 1.433 . S
C1637 N1639 1.384 . S
N1638 C1634 1.427 . S
N1638 C1635 1.384 . S
N1639 C1631 1.427 . S
N1639 C1637 1.384 . S
H1640 C1646 0.930 . S
H1641 C1650 0.930 . S
H1642 C1655 0.929 . S
H1643 C1653 0.929 . S
H1644 C1648 0.929 . S
H1645 C1654 0.929 . S
C1646 H1640 0.930 . S
C1646 C1647 1.367 . S
C1646 C1654 1.378 . S
C1647 C1646 1.367 . S
C1647 C1655 1.433 . S
C1648 H1644 0.929 . S
C1648 C1650 1.378 . S
C1648 C1652 1.350 . S
C1649 C1652 1.463 . S
C1649 C1654 1.350 . S
C1649 N1657 1.427 . S
C1650 H1641 0.930 . S
C1650 C1648 1.378 . S
C1650 C1651 1.367 . S
C1651 C1650 1.367 . S
C1651 C1653 1.433 . S
C1652 C1648 1.350 . S
C1652 C1649 1.463 . S
C1652 N1656 1.427 . S
C1653 H1643 0.929 . S
C1653 C1651 1.433 . S
C1653 N1656 1.384 . S
C1654 H1645 0.929 . S
C1654 C1646 1.378 . S
C1654 C1649 1.350 . S
C1655 H1642 0.929 . S
C1655 C1647 1.433 . S
C1655 N1657 1.384 . S
N1656 C1652 1.427 . S
N1656 C1653 1.384 . S
N1657 C1649 1.427 . S
N1657 C1655 1.384 . S
H1658 C1664 0.930 . S
H1659 C1668 0.930 . S
H1660 C1673 0.929 . S
H1661 C1671 0.929 . S
H1662 C1666 0.929 . S
H1663 C1672 0.929 . S
C1664 H1658 0.930 . S
C1664 C1665 1.367 . S
C1664 C1672 1.378 . S
C1665 C1664 1.367 . S
C1665 C1673 1.433 . S
C1666 H1662 0.929 . S
C1666 C1668 1.378 . S
C1666 C1670 1.350 . S
C1667 C1670 1.463 . S
C1667 C1672 1.350 . S
C1667 N1675 1.427 . S
C1668 H1659 0.930 . S
C1668 C1666 1.378 . S
C1668 C1669 1.367 . S
C1669 C1668 1.367 . S
C1669 C1671 1.433 . S
C1670 C1666 1.350 . S
C1670 C1667 1.463 . S
C1670 N1674 1.427 . S
C1671 H1661 0.929 . S
C1671 C1669 1.433 . S
C1671 N1674 1.384 . S
C1672 H1663 0.929 . S
C1672 C1664 1.378 . S
C1672 C1667 1.350 . S
C1673 H1660 0.929 . S
C1673 C1665 1.433 . S
C1673 N1675 1.384 . S
N1674 C1670 1.427 . S
N1674 C1671 1.384 . S
N1675 C1667 1.427 . S
N1675 C1673 1.384 . S
H1676 C1682 0.930 . S
H1677 C1686 0.930 . S
H1678 C1691 0.929 . S
H1679 C1689 0.929 . S
H1680 C1684 0.929 . S
H1681 C1690 0.929 . S
C1682 H1676 0.930 . S
C1682 C1683 1.367 . S
C1682 C1690 1.378 . S
C1683 C1682 1.367 . S
C1683 C1691 1.433 . S
C1684 H1680 0.929 . S
C1684 C1686 1.378 . S
C1684 C1688 1.350 . S
C1685 C1688 1.463 . S
C1685 C1690 1.350 . S
C1685 N1693 1.427 . S
C1686 H1677 0.930 . S
C1686 C1684 1.378 . S
C1686 C1687 1.367 . S
C1687 C1686 1.367 . S
C1687 C1689 1.433 . S
C1688 C1684 1.350 . S
C1688 C1685 1.463 . S
C1688 N1692 1.427 . S
C1689 H1679 0.929 . S
C1689 C1687 1.433 . S
C1689 N1692 1.384 . S
C1690 H1681 0.929 . S
C1690 C1682 1.378 . S
C1690 C1685 1.350 . S
C1691 H1678 0.929 . S
C1691 C1683 1.433 . S
C1691 N1693 1.384 . S
N1692 C1688 1.427 . S
N1692 C1689 1.384 . S
N1693 C1685 1.427 . S
N1693 C1691 1.384 . S
H1694 C1700 0.930 . S
H1695 C1704 0.930 . S
H1696 C1709 0.929 . S
H1697 C1707 0.929 . S
H1698 C1702 0.929 . S
H1699 C1708 0.929 . S
C1700 H1694 0.930 . S
C1700 C1701 1.367 . S
C1700 C1708 1.378 . S
C1701 C1700 1.367 . S
C1701 C1709 1.433 . S
C1702 H1698 0.929 . S
C1702 C1704 1.378 . S
C1702 C1706 1.350 . S
C1703 C1706 1.463 . S
C1703 C1708 1.350 . S
C1703 N1711 1.427 . S
C1704 H1695 0.930 . S
C1704 C1702 1.378 . S
C1704 C1705 1.367 . S
C1705 C1704 1.367 . S
C1705 C1707 1.433 . S
C1706 C1702 1.350 . S
C1706 C1703 1.463 . S
C1706 N1710 1.427 . S
C1707 H1697 0.929 . S
C1707 C1705 1.433 . S
C1707 N1710 1.384 . S
C1708 H1699 0.929 . S
C1708 C1700 1.378 . S
C1708 C1703 1.350 . S
C1709 H1696 0.929 . S
C1709 C1701 1.433 . S
C1709 N1711 1.384 . S
N1710 C1706 1.427 . S
N1710 C1707 1.384 . S
N1711 C1703 1.427 . S
N1711 C1709 1.384 . S
H1712 C1718 0.930 . S
H1713 C1722 0.930 . S
H1714 C1727 0.929 . S
H1715 C1725 0.929 . S
H1716 C1720 0.929 . S
H1717 C1726 0.929 . S
C1718 H1712 0.930 . S
C1718 C1719 1.367 . S
C1718 C1726 1.378 . S
C1719 C1718 1.367 . S
C1719 C1727 1.433 . S
C1720 H1716 0.929 . S
C1720 C1722 1.378 . S
C1720 C1724 1.350 . S
C1721 C1724 1.463 . S
C1721 C1726 1.350 . S
C1721 N1729 1.427 . S
C1722 H1713 0.930 . S
C1722 C1720 1.378 . S
C1722 C1723 1.367 . S
C1723 C1722 1.367 . S
C1723 C1725 1.433 . S
C1724 C1720 1.350 . S
C1724 C1721 1.463 . S
C1724 N1728 1.427 . S
C1725 H1715 0.929 . S
C1725 C1723 1.433 . S
C1725 N1728 1.384 . S
C1726 H1717 0.929 . S
C1726 C1718 1.378 . S
C1726 C1721 1.350 . S
C1727 H1714 0.929 . S
C1727 C1719 1.433 . S
C1727 N1729 1.384 . S
N1728 C1724 1.427 . S
N1728 C1725 1.384 . S
N1729 C1721 1.427 . S
N1729 C1727 1.384 . S
H1730 C1736 0.930 . S
H1731 C1740 0.930 . S
H1732 C1745 0.929 . S
H1733 C1743 0.929 . S
H1734 C1738 0.929 . S
H1735 C1744 0.929 . S
C1736 H1730 0.930 . S
C1736 C1737 1.367 . S
C1736 C1744 1.378 . S
C1737 C1736 1.367 . S
C1737 C1745 1.433 . S
C1738 H1734 0.929 . S
C1738 C1740 1.378 . S
C1738 C1742 1.350 . S
C1739 C1742 1.463 . S
C1739 C1744 1.350 . S
C1739 N1747 1.427 . S
C1740 H1731 0.930 . S
C1740 C1738 1.378 . S
C1740 C1741 1.367 . S
C1741 C1740 1.367 . S
C1741 C1743 1.433 . S
C1742 C1738 1.350 . S
C1742 C1739 1.463 . S
C1742 N1746 1.427 . S
C1743 H1733 0.929 . S
C1743 C1741 1.433 . S
C1743 N1746 1.384 . S
C1744 H1735 0.929 . S
C1744 C1736 1.378 . S
C1744 C1739 1.350 . S
C1745 H1732 0.929 . S
C1745 C1737 1.433 . S
C1745 N1747 1.384 . S
N1746 C1742 1.427 . S
N1746 C1743 1.384 . S
N1747 C1739 1.427 . S
N1747 C1745 1.384 . S
H1748 C1754 0.930 . S
H1749 C1758 0.930 . S
H1750 C1763 0.929 . S
H1751 C1761 0.929 . S
H1752 C1756 0.929 . S
H1753 C1762 0.929 . S
C1754 H1748 0.930 . S
C1754 C1755 1.367 . S
C1754 C1762 1.378 . S
C1755 C1754 1.367 . S
C1755 C1763 1.433 . S
C1756 H1752 0.929 . S
C1756 C1758 1.378 . S
C1756 C1760 1.350 . S
C1757 C1760 1.463 . S
C1757 C1762 1.350 . S
C1757 N1765 1.427 . S
C1758 H1749 0.930 . S
C1758 C1756 1.378 . S
C1758 C1759 1.367 . S
C1759 C1758 1.367 . S
C1759 C1761 1.433 . S
C1760 C1756 1.350 . S
C1760 C1757 1.463 . S
C1760 N1764 1.427 . S
C1761 H1751 0.929 . S
C1761 C1759 1.433 . S
C1761 N1764 1.384 . S
C1762 H1753 0.929 . S
C1762 C1754 1.378 . S
C1762 C1757 1.350 . S
C1763 H1750 0.929 . S
C1763 C1755 1.433 . S
C1763 N1765 1.384 . S
N1764 C1760 1.427 . S
N1764 C1761 1.384 . S
N1765 C1757 1.427 . S
N1765 C1763 1.384 . S
H1766 C1772 0.930 . S
H1767 C1776 0.930 . S
H1768 C1781 0.929 . S
H1769 C1779 0.929 . S
H1770 C1774 0.929 . S
H1771 C1780 0.929 . S
C1772 H1766 0.930 . S
C1772 C1773 1.367 . S
C1772 C1780 1.378 . S
C1773 C1772 1.367 . S
C1773 C1781 1.433 . S
C1774 H1770 0.929 . S
C1774 C1776 1.378 . S
C1774 C1778 1.350 . S
C1775 C1778 1.463 . S
C1775 C1780 1.350 . S
C1775 N1783 1.427 . S
C1776 H1767 0.930 . S
C1776 C1774 1.378 . S
C1776 C1777 1.367 . S
C1777 C1776 1.367 . S
C1777 C1779 1.433 . S
C1778 C1774 1.350 . S
C1778 C1775 1.463 . S
C1778 N1782 1.427 . S
C1779 H1769 0.929 . S
C1779 C1777 1.433 . S
C1779 N1782 1.384 . S
C1780 H1771 0.929 . S
C1780 C1772 1.378 . S
C1780 C1775 1.350 . S
C1781 H1768 0.929 . S
C1781 C1773 1.433 . S
C1781 N1783 1.384 . S
N1782 C1778 1.427 . S
N1782 C1779 1.384 . S
N1783 C1775 1.427 . S
N1783 C1781 1.384 . S
H1784 C1790 0.930 . S
H1785 C1794 0.930 . S
H1786 C1799 0.929 . S
H1787 C1797 0.929 . S
H1788 C1792 0.929 . S
H1789 C1798 0.929 . S
C1790 H1784 0.930 . S
C1790 C1791 1.367 . S
C1790 C1798 1.378 . S
C1791 C1790 1.367 . S
C1791 C1799 1.433 . S
C1792 H1788 0.929 . S
C1792 C1794 1.378 . S
C1792 C1796 1.350 . S
C1793 C1796 1.463 . S
C1793 C1798 1.350 . S
C1793 N1801 1.427 . S
C1794 H1785 0.930 . S
C1794 C1792 1.378 . S
C1794 C1795 1.367 . S
C1795 C1794 1.367 . S
C1795 C1797 1.433 . S
C1796 C1792 1.350 . S
C1796 C1793 1.463 . S
C1796 N1800 1.427 . S
C1797 H1787 0.929 . S
C1797 C1795 1.433 . S
C1797 N1800 1.384 . S
C1798 H1789 0.929 . S
C1798 C1790 1.378 . S
C1798 C1793 1.350 . S
C1799 H1786 0.929 . S
C1799 C1791 1.433 . S
C1799 N1801 1.384 . S
N1800 C1796 1.427 . S
N1800 C1797 1.384 . S
N1801 C1793 1.427 . S
N1801 C1799 1.384 . S
H1802 C1808 0.930 . S
H1803 C1812 0.930 . S
H1804 C1817 0.929 . S
H1805 C1815 0.929 . S
H1806 C1810 0.929 . S
H1807 C1816 0.929 . S
C1808 H1802 0.930 . S
C1808 C1809 1.367 . S
C1808 C1816 1.378 . S
C1809 C1808 1.367 . S
C1809 C1817 1.433 . S
C1810 H1806 0.929 . S
C1810 C1812 1.378 . S
C1810 C1814 1.350 . S
C1811 C1814 1.463 . S
C1811 C1816 1.350 . S
C1811 N1819 1.427 . S
C1812 H1803 0.930 . S
C1812 C1810 1.378 . S
C1812 C1813 1.367 . S
C1813 C1812 1.367 . S
C1813 C1815 1.433 . S
C1814 C1810 1.350 . S
C1814 C1811 1.463 . S
C1814 N1818 1.427 . S
C1815 H1805 0.929 . S
C1815 C1813 1.433 . S
C1815 N1818 1.384 . S
C1816 H1807 0.929 . S
C1816 C1808 1.378 . S
C1816 C1811 1.350 . S
C1817 H1804 0.929 . S
C1817 C1809 1.433 . S
C1817 N1819 1.384 . S
N1818 C1814 1.427 . S
N1818 C1815 1.384 . S
N1819 C1811 1.427 . S
N1819 C1817 1.384 . S
H1820 C1826 0.930 . S
H1821 C1830 0.930 . S
H1822 C1835 0.929 . S
H1823 C1833 0.929 . S
H1824 C1828 0.929 . S
H1825 C1834 0.929 . S
C1826 H1820 0.930 . S
C1826 C1827 1.367 . S
C1826 C1834 1.378 . S
C1827 C1826 1.367 . S
C1827 C1835 1.433 . S
C1828 H1824 0.929 . S
C1828 C1830 1.378 . S
C1828 C1832 1.350 . S
C1829 C1832 1.463 . S
C1829 C1834 1.350 . S
C1829 N1837 1.427 . S
C1830 H1821 0.930 . S
C1830 C1828 1.378 . S
C1830 C1831 1.367 . S
C1831 C1830 1.367 . S
C1831 C1833 1.433 . S
C1832 C1828 1.350 . S
C1832 C1829 1.463 . S
C1832 N1836 1.427 . S
C1833 H1823 0.929 . S
C1833 C1831 1.433 . S
C1833 N1836 1.384 . S
C1834 H1825 0.929 . S
C1834 C1826 1.378 . S
C1834 C1829 1.350 . S
C1835 H1822 0.929 . S
C1835 C1827 1.433 . S
C1835 N1837 1.384 . S
N1836 C1832 1.427 . S
N1836 C1833 1.384 . S
N1837 C1829 1.427 . S
N1837 C1835 1.384 . S
H1838 C1844 0.930 . S
H1839 C1848 0.930 . S
H1840 C1853 0.929 . S
H1841 C1851 0.929 . S
H1842 C1846 0.929 . S
H1843 C1852 0.929 . S
C1844 H1838 0.930 . S
C1844 C1845 1.367 . S
C1844 C1852 1.378 . S
C1845 C1844 1.367 . S
C1845 C1853 1.433 . S
C1846 H1842 0.929 . S
C1846 C1848 1.378 . S
C1846 C1850 1.350 . S
C1847 C1850 1.463 . S
C1847 C1852 1.350 . S
C1847 N1855 1.427 . S
C1848 H1839 0.930 . S
C1848 C1846 1.378 . S
C1848 C1849 1.367 . S
C1849 C1848 1.367 . S
C1849 C1851 1.433 . S
C1850 C1846 1.350 . S
C1850 C1847 1.463 . S
C1850 N1854 1.427 . S
C1851 H1841 0.929 . S
C1851 C1849 1.433 . S
C1851 N1854 1.384 . S
C1852 H1843 0.929 . S
C1852 C1844 1.378 . S
C1852 C1847 1.350 . S
C1853 H1840 0.929 . S
C1853 C1845 1.433 . S
C1853 N1855 1.384 . S
N1854 C1850 1.427 . S
N1854 C1851 1.384 . S
N1855 C1847 1.427 . S
N1855 C1853 1.384 . S
H1856 C1862 0.930 . S
H1857 C1866 0.930 . S
H1858 C1871 0.929 . S
H1859 C1869 0.929 . S
H1860 C1864 0.929 . S
H1861 C1870 0.929 . S
C1862 H1856 0.930 . S
C1862 C1863 1.367 . S
C1862 C1870 1.378 . S
C1863 C1862 1.367 . S
C1863 C1871 1.433 . S
C1864 H1860 0.929 . S
C1864 C1866 1.378 . S
C1864 C1868 1.350 . S
C1865 C1868 1.463 . S
C1865 C1870 1.350 . S
C1865 N1873 1.427 . S
C1866 H1857 0.930 . S
C1866 C1864 1.378 . S
C1866 C1867 1.367 . S
C1867 C1866 1.367 . S
C1867 C1869 1.433 . S
C1868 C1864 1.350 . S
C1868 C1865 1.463 . S
C1868 N1872 1.427 . S
C1869 H1859 0.929 . S
C1869 C1867 1.433 . S
C1869 N1872 1.384 . S
C1870 H1861 0.929 . S
C1870 C1862 1.378 . S
C1870 C1865 1.350 . S
C1871 H1858 0.929 . S
C1871 C1863 1.433 . S
C1871 N1873 1.384 . S
N1872 C1868 1.427 . S
N1872 C1869 1.384 . S
N1873 C1865 1.427 . S
N1873 C1871 1.384 . S
H1874 C1880 0.930 . S
H1875 C1884 0.930 . S
H1876 C1889 0.929 . S
H1877 C1887 0.886 1_655 S
H1878 C1882 0.929 . S
H1879 C1888 0.929 . S
C1880 H1874 0.930 . S
C1880 C1881 1.367 . S
C1880 C1888 1.378 . S
C1881 C1880 1.367 . S
C1881 C1889 1.433 . S
C1882 H1878 0.929 . S
C1882 C1884 1.378 . S
C1882 C1886 1.350 . S
C1883 C1886 1.463 . S
C1883 C1888 1.350 . S
C1883 N1891 1.427 . S
C1884 H1875 0.930 . S
C1884 C1882 1.378 . S
C1884 C1885 1.397 . S
C1885 C1884 1.397 . S
C1885 C1887 1.433 . S
C1886 C1882 1.350 . S
C1886 C1883 1.463 . S
C1886 N1890 1.427 . S
C1887 H1877 0.886 1_455 S
C1887 C1885 1.433 . S
C1887 N1890 1.430 . S
C1888 H1879 0.929 . S
C1888 C1880 1.378 . S
C1888 C1883 1.350 . S
C1889 H1876 0.929 . S
C1889 C1881 1.433 . S
C1889 N1891 1.384 . S
N1890 C1886 1.427 . S
N1890 C1887 1.430 . S
N1891 C1883 1.427 . S
N1891 C1889 1.384 . S
H1892 C1898 0.930 . S
H1893 C1902 0.930 . S
H1894 C1907 0.929 . S
H1895 C1905 0.929 . S
H1896 C1900 0.929 . S
H1897 C1906 0.929 . S
C1898 H1892 0.930 . S
C1898 C1899 1.367 . S
C1898 C1906 1.378 . S
C1899 C1898 1.367 . S
C1899 C1907 1.433 . S
C1900 H1896 0.929 . S
C1900 C1902 1.378 . S
C1900 C1904 1.350 . S
C1901 C1904 1.463 . S
C1901 C1906 1.350 . S
C1901 N1909 1.427 . S
C1902 H1893 0.930 . S
C1902 C1900 1.378 . S
C1902 C1903 1.367 . S
C1903 C1902 1.367 . S
C1903 C1905 1.433 . S
C1904 C1900 1.350 . S
C1904 C1901 1.463 . S
C1904 N1908 1.427 . S
C1905 H1895 0.929 . S
C1905 C1903 1.433 . S
C1905 N1908 1.384 . S
C1906 H1897 0.929 . S
C1906 C1898 1.378 . S
C1906 C1901 1.350 . S
C1907 H1894 0.929 . S
C1907 C1899 1.433 . S
C1907 N1909 1.384 . S
N1908 C1904 1.427 . S
N1908 C1905 1.384 . S
N1909 C1901 1.427 . S
N1909 C1907 1.384 . S
H1910 C1916 0.930 . S
H1911 C1920 0.930 . S
H1912 C1925 0.929 . S
H1913 C1923 0.929 . S
H1914 C1918 0.929 . S
H1915 C1924 0.929 . S
C1916 H1910 0.930 . S
C1916 C1917 1.367 . S
C1916 C1924 1.378 . S
C1917 C1916 1.367 . S
C1917 C1925 1.433 . S
C1918 H1914 0.929 . S
C1918 C1920 1.378 . S
C1918 C1922 1.350 . S
C1919 C1922 1.463 . S
C1919 C1924 1.350 . S
C1919 N1927 1.427 . S
C1920 H1911 0.930 . S
C1920 C1918 1.378 . S
C1920 C1921 1.367 . S
C1921 C1920 1.367 . S
C1921 C1923 1.433 . S
C1922 C1918 1.350 . S
C1922 C1919 1.463 . S
C1922 N1926 1.427 . S
C1923 H1913 0.929 . S
C1923 C1921 1.433 . S
C1923 N1926 1.384 . S
C1924 H1915 0.929 . S
C1924 C1916 1.378 . S
C1924 C1919 1.350 . S
C1925 H1912 0.929 . S
C1925 C1917 1.433 . S
C1925 N1927 1.384 . S
N1926 C1922 1.427 . S
N1926 C1923 1.384 . S
N1927 C1919 1.427 . S
N1927 C1925 1.384 . S
H1928 C1934 0.930 . S
H1929 C1938 0.930 . S
H1930 C1943 0.929 . S
H1931 C1941 0.929 . S
H1932 C1936 0.929 . S
H1933 C1942 0.929 . S
C1934 H1928 0.930 . S
C1934 C1935 1.367 . S
C1934 C1942 1.378 . S
C1935 C1934 1.367 . S
C1935 C1943 1.433 . S
C1936 H1932 0.929 . S
C1936 C1938 1.378 . S
C1936 C1940 1.350 . S
C1937 C1940 1.463 . S
C1937 C1942 1.350 . S
C1937 N1945 1.427 . S
C1938 H1929 0.930 . S
C1938 C1936 1.378 . S
C1938 C1939 1.367 . S
C1939 C1938 1.367 . S
C1939 C1941 1.433 . S
C1940 C1936 1.350 . S
C1940 C1937 1.463 . S
C1940 N1944 1.427 . S
C1941 H1931 0.929 . S
C1941 C1939 1.433 . S
C1941 N1944 1.384 . S
C1942 H1933 0.929 . S
C1942 C1934 1.378 . S
C1942 C1937 1.350 . S
C1943 H1930 0.929 . S
C1943 C1935 1.433 . S
C1943 N1945 1.384 . S
N1944 C1940 1.427 . S
N1944 C1941 1.384 . S
N1945 C1937 1.427 . S
N1945 C1943 1.384 . S
H1946 C1952 0.930 . S
H1947 C1956 0.930 . S
H1948 C1961 0.929 . S
H1949 C1959 0.929 . S
H1950 C1954 0.929 . S
H1951 C1960 0.929 . S
C1952 H1946 0.930 . S
C1952 C1953 1.367 . S
C1952 C1960 1.378 . S
C1953 C1952 1.367 . S
C1953 C1961 1.433 . S
C1954 H1950 0.929 . S
C1954 C1956 1.378 . S
C1954 C1958 1.350 . S
C1955 C1958 1.463 . S
C1955 C1960 1.350 . S
C1955 N1963 1.427 . S
C1956 H1947 0.930 . S
C1956 C1954 1.378 . S
C1956 C1957 1.367 . S
C1957 C1956 1.367 . S
C1957 C1959 1.433 . S
C1958 C1954 1.350 . S
C1958 C1955 1.463 . S
C1958 N1962 1.427 . S
C1959 H1949 0.929 . S
C1959 C1957 1.433 . S
C1959 N1962 1.384 . S
C1960 H1951 0.929 . S
C1960 C1952 1.378 . S
C1960 C1955 1.350 . S
C1961 H1948 0.929 . S
C1961 C1953 1.433 . S
C1961 N1963 1.384 . S
N1962 C1958 1.427 . S
N1962 C1959 1.384 . S
N1963 C1955 1.427 . S
N1963 C1961 1.384 . S
H1964 C1970 0.930 . S
H1965 C1974 0.930 . S
H1966 C1979 0.929 . S
H1967 C1977 0.929 . S
H1968 C1972 0.929 . S
H1969 C1978 0.929 . S
C1970 H1964 0.930 . S
C1970 C1971 1.367 . S
C1970 C1978 1.378 . S
C1971 C1970 1.367 . S
C1971 C1979 1.433 . S
C1972 H1968 0.929 . S
C1972 C1974 1.378 . S
C1972 C1976 1.350 . S
C1973 C1976 1.463 . S
C1973 C1978 1.350 . S
C1973 N1981 1.427 . S
C1974 H1965 0.930 . S
C1974 C1972 1.378 . S
C1974 C1975 1.367 . S
C1975 C1974 1.367 . S
C1975 C1977 1.433 . S
C1976 C1972 1.350 . S
C1976 C1973 1.463 . S
C1976 N1980 1.427 . S
C1977 H1967 0.929 . S
C1977 C1975 1.433 . S
C1977 N1980 1.384 . S
C1978 H1969 0.929 . S
C1978 C1970 1.378 . S
C1978 C1973 1.350 . S
C1979 H1966 0.929 . S
C1979 C1971 1.433 . S
C1979 N1981 1.384 . S
N1980 C1976 1.427 . S
N1980 C1977 1.384 . S
N1981 C1973 1.427 . S
N1981 C1979 1.384 . S
H1982 C1988 0.930 . S
H1983 C1992 0.930 1_655 S
H1984 C1997 0.929 . S
H1985 C1995 0.929 . S
H1986 C1990 0.929 . S
H1987 C1996 0.929 . S
C1988 H1982 0.930 . S
C1988 C1989 1.367 . S
C1988 C1996 1.378 . S
C1989 C1988 1.367 . S
C1989 C1997 1.433 . S
C1990 H1986 0.929 . S
C1990 C1992 1.378 . S
C1990 C1994 1.350 . S
C1991 C1994 1.463 . S
C1991 C1996 1.350 . S
C1991 N1999 1.427 . S
C1992 H1983 0.930 1_455 S
C1992 C1990 1.378 . S
C1992 C1993 1.371 . S
C1993 C1992 1.371 . S
C1993 C1995 1.445 . S
C1994 C1990 1.350 . S
C1994 C1991 1.463 . S
C1994 N1998 1.427 . S
C1995 H1985 0.929 . S
C1995 C1993 1.445 . S
C1995 N1998 1.384 . S
C1996 H1987 0.929 . S
C1996 C1988 1.378 . S
C1996 C1991 1.350 . S
C1997 H1984 0.929 . S
C1997 C1989 1.433 . S
C1997 N1999 1.384 . S
N1998 C1994 1.427 . S
N1998 C1995 1.384 . S
N1999 C1991 1.427 . S
N1999 C1997 1.384 . S
H2000 C2006 0.930 . S
H2001 C2010 0.930 . S
H2002 C2015 0.929 . S
H2003 C2013 0.929 . S
H2004 C2008 0.929 . S
H2005 C2014 0.929 . S
C2006 H2000 0.930 . S
C2006 C2007 1.367 . S
C2006 C2014 1.378 . S
C2007 C2006 1.367 . S
C2007 C2015 1.433 . S
C2008 H2004 0.929 . S
C2008 C2010 1.378 . S
C2008 C2012 1.350 . S
C2009 C2012 1.463 . S
C2009 C2014 1.350 . S
C2009 N2017 1.427 . S
C2010 H2001 0.930 . S
C2010 C2008 1.378 . S
C2010 C2011 1.367 . S
C2011 C2010 1.367 . S
C2011 C2013 1.433 . S
C2012 C2008 1.350 . S
C2012 C2009 1.463 . S
C2012 N2016 1.427 . S
C2013 H2003 0.929 . S
C2013 C2011 1.433 . S
C2013 N2016 1.384 . S
C2014 H2005 0.929 . S
C2014 C2006 1.378 . S
C2014 C2009 1.350 . S
C2015 H2002 0.929 . S
C2015 C2007 1.433 . S
C2015 N2017 1.384 . S
N2016 C2012 1.427 . S
N2016 C2013 1.384 . S
N2017 C2009 1.427 . S
N2017 C2015 1.384 . S
H2018 C2024 0.930 . S
H2019 C2028 0.930 . S
H2020 C2033 0.929 1_455 S
H2021 C2031 0.929 . S
H2022 C2026 0.929 . S
H2023 C2032 0.929 . S
C2024 H2018 0.930 . S
C2024 C2025 1.392 . S
C2024 C2032 1.378 . S
C2025 C2024 1.392 . S
C2025 C2033 1.437 . S
C2026 H2022 0.929 . S
C2026 C2028 1.378 . S
C2026 C2030 1.350 . S
C2027 C2030 1.463 . S
C2027 C2032 1.350 . S
C2027 N2035 1.427 . S
C2028 H2019 0.930 . S
C2028 C2026 1.378 . S
C2028 C2029 1.367 . S
C2029 C2028 1.367 . S
C2029 C2031 1.433 . S
C2030 C2026 1.350 . S
C2030 C2027 1.463 . S
C2030 N2034 1.427 . S
C2031 H2021 0.929 . S
C2031 C2029 1.433 . S
C2031 N2034 1.384 . S
C2032 H2023 0.929 . S
C2032 C2024 1.378 . S
C2032 C2027 1.350 . S
C2033 H2020 0.929 1_655 S
C2033 C2025 1.437 . S
C2033 N2035 1.384 . S
N2034 C2030 1.427 . S
N2034 C2031 1.384 . S
N2035 C2027 1.427 . S
N2035 C2033 1.384 . S
H2036 C2042 0.930 . S
H2037 C2046 0.930 . S
H2038 C2051 0.929 . S
H2039 C2049 0.929 . S
H2040 C2044 0.929 . S
H2041 C2050 0.929 . S
C2042 H2036 0.930 . S
C2042 C2043 1.367 . S
C2042 C2050 1.378 . S
C2043 C2042 1.367 . S
C2043 C2051 1.433 . S
C2044 H2040 0.929 . S
C2044 C2046 1.378 . S
C2044 C2048 1.350 . S
C2045 C2048 1.463 . S
C2045 C2050 1.350 . S
C2045 N2053 1.427 . S
C2046 H2037 0.930 . S
C2046 C2044 1.378 . S
C2046 C2047 1.367 . S
C2047 C2046 1.367 . S
C2047 C2049 1.433 . S
C2048 C2044 1.350 . S
C2048 C2045 1.463 . S
C2048 N2052 1.427 . S
C2049 H2039 0.929 . S
C2049 C2047 1.433 . S
C2049 N2052 1.384 . S
C2050 H2041 0.929 . S
C2050 C2042 1.378 . S
C2050 C2045 1.350 . S
C2051 H2038 0.929 . S
C2051 C2043 1.433 . S
C2051 N2053 1.384 . S
N2052 C2048 1.427 . S
N2052 C2049 1.384 . S
N2053 C2045 1.427 . S
N2053 C2051 1.384 . S
H2054 C2060 0.930 . S
H2055 C2064 0.930 . S
H2056 C2069 0.929 . S
H2057 C2067 0.929 . S
H2058 C2062 0.929 . S
H2059 C2068 0.929 . S
C2060 H2054 0.930 . S
C2060 C2061 1.367 . S
C2060 C2068 1.378 . S
C2061 C2060 1.367 . S
C2061 C2069 1.433 . S
C2062 H2058 0.929 . S
C2062 C2064 1.378 . S
C2062 C2066 1.350 . S
C2063 C2066 1.463 . S
C2063 C2068 1.350 . S
C2063 N2071 1.427 . S
C2064 H2055 0.930 . S
C2064 C2062 1.378 . S
C2064 C2065 1.367 . S
C2065 C2064 1.367 . S
C2065 C2067 1.433 . S
C2066 C2062 1.350 . S
C2066 C2063 1.463 . S
C2066 N2070 1.427 . S
C2067 H2057 0.929 . S
C2067 C2065 1.433 . S
C2067 N2070 1.384 . S
C2068 H2059 0.929 . S
C2068 C2060 1.378 . S
C2068 C2063 1.350 . S
C2069 H2056 0.929 . S
C2069 C2061 1.433 . S
C2069 N2071 1.384 . S
N2070 C2066 1.427 . S
N2070 C2067 1.384 . S
N2071 C2063 1.427 . S
N2071 C2069 1.384 . S
H2072 C2078 0.930 . S
H2073 C2082 0.930 . S
H2074 C2087 0.929 . S
H2075 C2085 0.929 . S
H2076 C2080 0.929 . S
H2077 C2086 0.929 . S
C2078 H2072 0.930 . S
C2078 C2079 1.367 . S
C2078 C2086 1.378 . S
C2079 C2078 1.367 . S
C2079 C2087 1.433 . S
C2080 H2076 0.929 . S
C2080 C2082 1.378 . S
C2080 C2084 1.350 . S
C2081 C2084 1.463 . S
C2081 C2086 1.350 . S
C2081 N2089 1.427 . S
C2082 H2073 0.930 . S
C2082 C2080 1.378 . S
C2082 C2083 1.367 . S
C2083 C2082 1.367 . S
C2083 C2085 1.433 . S
C2084 C2080 1.350 . S
C2084 C2081 1.463 . S
C2084 N2088 1.427 . S
C2085 H2075 0.929 . S
C2085 C2083 1.433 . S
C2085 N2088 1.384 . S
C2086 H2077 0.929 . S
C2086 C2078 1.378 . S
C2086 C2081 1.350 . S
C2087 H2074 0.929 . S
C2087 C2079 1.433 . S
C2087 N2089 1.384 . S
N2088 C2084 1.427 . S
N2088 C2085 1.384 . S
N2089 C2081 1.427 . S
N2089 C2087 1.384 . S
H2090 C2096 0.930 . S
H2091 C2100 0.930 . S
H2092 C2105 0.929 . S
H2093 C2103 0.929 . S
H2094 C2098 0.929 . S
H2095 C2104 0.929 . S
C2096 H2090 0.930 . S
C2096 C2097 1.367 . S
C2096 C2104 1.378 . S
C2097 C2096 1.367 . S
C2097 C2105 1.433 . S
C2098 H2094 0.929 . S
C2098 C2100 1.378 . S
C2098 C2102 1.350 . S
C2099 C2102 1.463 . S
C2099 C2104 1.350 . S
C2099 N2107 1.427 . S
C2100 H2091 0.930 . S
C2100 C2098 1.378 . S
C2100 C2101 1.367 . S
C2101 C2100 1.367 . S
C2101 C2103 1.433 . S
C2102 C2098 1.350 . S
C2102 C2099 1.463 . S
C2102 N2106 1.427 . S
C2103 H2093 0.929 . S
C2103 C2101 1.433 . S
C2103 N2106 1.384 . S
C2104 H2095 0.929 . S
C2104 C2096 1.378 . S
C2104 C2099 1.350 . S
C2105 H2092 0.929 . S
C2105 C2097 1.433 . S
C2105 N2107 1.384 . S
N2106 C2102 1.427 . S
N2106 C2103 1.384 . S
N2107 C2099 1.427 . S
N2107 C2105 1.384 . S
H2108 C2114 0.930 . S
H2109 C2118 0.930 . S
H2110 C2123 0.929 . S
H2111 C2121 0.929 . S
H2112 C2116 0.929 . S
H2113 C2122 0.929 . S
C2114 H2108 0.930 . S
C2114 C2115 1.367 . S
C2114 C2122 1.378 . S
C2115 C2114 1.367 . S
C2115 C2123 1.433 . S
C2116 H2112 0.929 . S
C2116 C2118 1.378 . S
C2116 C2120 1.350 . S
C2117 C2120 1.463 . S
C2117 C2122 1.350 . S
C2117 N2125 1.427 . S
C2118 H2109 0.930 . S
C2118 C2116 1.378 . S
C2118 C2119 1.367 . S
C2119 C2118 1.367 . S
C2119 C2121 1.433 . S
C2120 C2116 1.350 . S
C2120 C2117 1.463 . S
C2120 N2124 1.427 . S
C2121 H2111 0.929 . S
C2121 C2119 1.433 . S
C2121 N2124 1.384 . S
C2122 H2113 0.929 . S
C2122 C2114 1.378 . S
C2122 C2117 1.350 . S
C2123 H2110 0.929 . S
C2123 C2115 1.433 . S
C2123 N2125 1.384 . S
N2124 C2120 1.427 . S
N2124 C2121 1.384 . S
N2125 C2117 1.427 . S
N2125 C2123 1.384 . S
H2126 C2132 0.930 . S
H2127 C2136 0.930 . S
H2128 C2141 0.929 . S
H2129 C2139 0.929 1_455 S
H2130 C2134 0.929 . S
H2131 C2140 0.929 . S
C2132 H2126 0.930 . S
C2132 C2133 1.367 . S
C2132 C2140 1.378 . S
C2133 C2132 1.367 . S
C2133 C2141 1.433 . S
C2134 H2130 0.929 . S
C2134 C2136 1.378 . S
C2134 C2138 1.350 . S
C2135 C2138 1.463 . S
C2135 C2140 1.350 . S
C2135 N2143 1.427 . S
C2136 H2127 0.930 . S
C2136 C2134 1.378 . S
C2136 C2137 1.392 . S
C2137 C2136 1.392 . S
C2137 C2139 1.437 . S
C2138 C2134 1.350 . S
C2138 C2135 1.463 . S
C2138 N2142 1.427 . S
C2139 H2129 0.929 1_655 S
C2139 C2137 1.437 . S
C2139 N2142 1.384 . S
C2140 H2131 0.929 . S
C2140 C2132 1.378 . S
C2140 C2135 1.350 . S
C2141 H2128 0.929 . S
C2141 C2133 1.433 . S
C2141 N2143 1.384 . S
N2142 C2138 1.427 . S
N2142 C2139 1.384 . S
N2143 C2135 1.427 . S
N2143 C2141 1.384 . S
H2144 C2150 0.930 . S
H2145 C2154 0.930 . S
H2146 C2159 0.929 . S
H2147 C2157 0.929 . S
H2148 C2152 0.929 . S
H2149 C2158 0.929 . S
C2150 H2144 0.930 . S
C2150 C2151 1.367 . S
C2150 C2158 1.378 . S
C2151 C2150 1.367 . S
C2151 C2159 1.433 . S
C2152 H2148 0.929 . S
C2152 C2154 1.378 . S
C2152 C2156 1.350 . S
C2153 C2156 1.463 . S
C2153 C2158 1.350 . S
C2153 N2161 1.427 . S
C2154 H2145 0.930 . S
C2154 C2152 1.378 . S
C2154 C2155 1.367 . S
C2155 C2154 1.367 . S
C2155 C2157 1.433 . S
C2156 C2152 1.350 . S
C2156 C2153 1.463 . S
C2156 N2160 1.427 . S
C2157 H2147 0.929 . S
C2157 C2155 1.433 . S
C2157 N2160 1.384 . S
C2158 H2149 0.929 . S
C2158 C2150 1.378 . S
C2158 C2153 1.350 . S
C2159 H2146 0.929 . S
C2159 C2151 1.433 . S
C2159 N2161 1.384 . S
N2160 C2156 1.427 . S
N2160 C2157 1.384 . S
N2161 C2153 1.427 . S
N2161 C2159 1.384 . S
H2162 C2168 0.930 . S
H2163 C2172 0.930 . S
H2164 C2177 0.929 . S
H2165 C2175 0.929 . S
H2166 C2170 0.929 . S
H2167 C2176 0.929 . S
C2168 H2162 0.930 . S
C2168 C2169 1.367 . S
C2168 C2176 1.378 . S
C2169 C2168 1.367 . S
C2169 C2177 1.433 . S
C2170 H2166 0.929 . S
C2170 C2172 1.378 . S
C2170 C2174 1.350 . S
C2171 C2174 1.463 . S
C2171 C2176 1.350 . S
C2171 N2179 1.427 . S
C2172 H2163 0.930 . S
C2172 C2170 1.378 . S
C2172 C2173 1.367 . S
C2173 C2172 1.367 . S
C2173 C2175 1.433 . S
C2174 C2170 1.350 . S
C2174 C2171 1.463 . S
C2174 N2178 1.427 . S
C2175 H2165 0.929 . S
C2175 C2173 1.433 . S
C2175 N2178 1.384 . S
C2176 H2167 0.929 . S
C2176 C2168 1.378 . S
C2176 C2171 1.350 . S
C2177 H2164 0.929 . S
C2177 C2169 1.433 . S
C2177 N2179 1.384 . S
N2178 C2174 1.427 . S
N2178 C2175 1.384 . S
N2179 C2171 1.427 . S
N2179 C2177 1.384 . S
H2180 C2186 0.930 . S
H2181 C2190 0.930 . S
H2182 C2195 0.929 . S
H2183 C2193 0.929 . S
H2184 C2188 0.929 . S
H2185 C2194 0.929 . S
C2186 H2180 0.930 . S
C2186 C2187 1.367 . S
C2186 C2194 1.378 . S
C2187 C2186 1.367 . S
C2187 C2195 1.433 . S
C2188 H2184 0.929 . S
C2188 C2190 1.378 . S
C2188 C2192 1.350 . S
C2189 C2192 1.463 . S
C2189 C2194 1.350 . S
C2189 N2197 1.427 . S
C2190 H2181 0.930 . S
C2190 C2188 1.378 . S
C2190 C2191 1.367 . S
C2191 C2190 1.367 . S
C2191 C2193 1.433 . S
C2192 C2188 1.350 . S
C2192 C2189 1.463 . S
C2192 N2196 1.427 . S
C2193 H2183 0.929 . S
C2193 C2191 1.433 . S
C2193 N2196 1.384 . S
C2194 H2185 0.929 . S
C2194 C2186 1.378 . S
C2194 C2189 1.350 . S
C2195 H2182 0.929 . S
C2195 C2187 1.433 . S
C2195 N2197 1.384 . S
N2196 C2192 1.427 . S
N2196 C2193 1.384 . S
N2197 C2189 1.427 . S
N2197 C2195 1.384 . S
H2198 C2204 0.930 . S
H2199 C2208 0.930 . S
H2200 C2213 0.929 . S
H2201 C2211 0.929 1_455 S
H2202 C2206 0.929 . S
H2203 C2212 0.929 . S
C2204 H2198 0.930 . S
C2204 C2205 1.367 . S
C2204 C2212 1.378 . S
C2205 C2204 1.367 . S
C2205 C2213 1.433 . S
C2206 H2202 0.929 . S
C2206 C2208 1.378 . S
C2206 C2210 1.350 . S
C2207 C2210 1.463 . S
C2207 C2212 1.350 . S
C2207 N2215 1.427 . S
C2208 H2199 0.930 . S
C2208 C2206 1.378 . S
C2208 C2209 1.395 . S
C2209 C2208 1.395 . S
C2209 C2211 1.436 . S
C2210 C2206 1.350 . S
C2210 C2207 1.463 . S
C2210 N2214 1.427 . S
C2211 H2201 0.929 1_655 S
C2211 C2209 1.436 . S
C2211 N2214 1.384 . S
C2212 H2203 0.929 . S
C2212 C2204 1.378 . S
C2212 C2207 1.350 . S
C2213 H2200 0.929 . S
C2213 C2205 1.433 . S
C2213 N2215 1.384 . S
N2214 C2210 1.427 . S
N2214 C2211 1.384 . S
N2215 C2207 1.427 . S
N2215 C2213 1.384 . S
H2216 C2222 0.930 . S
H2217 C2226 0.930 . S
H2218 C2231 0.929 . S
H2219 C2229 0.929 . S
H2220 C2224 0.929 . S
H2221 C2230 0.929 . S
C2222 H2216 0.930 . S
C2222 C2223 1.367 . S
C2222 C2230 1.378 . S
C2223 C2222 1.367 . S
C2223 C2231 1.433 . S
C2224 H2220 0.929 . S
C2224 C2226 1.378 . S
C2224 C2228 1.350 . S
C2225 C2228 1.463 . S
C2225 C2230 1.350 . S
C2225 N2233 1.427 . S
C2226 H2217 0.930 . S
C2226 C2224 1.378 . S
C2226 C2227 1.367 . S
C2227 C2226 1.367 . S
C2227 C2229 1.433 . S
C2228 C2224 1.350 . S
C2228 C2225 1.463 . S
C2228 N2232 1.427 . S
C2229 H2219 0.929 . S
C2229 C2227 1.433 . S
C2229 N2232 1.384 . S
C2230 H2221 0.929 . S
C2230 C2222 1.378 . S
C2230 C2225 1.350 . S
C2231 H2218 0.929 . S
C2231 C2223 1.433 . S
C2231 N2233 1.384 . S
N2232 C2228 1.427 . S
N2232 C2229 1.384 . S
N2233 C2225 1.427 . S
N2233 C2231 1.384 . S
H2234 C2240 0.930 . S
H2235 C2244 0.930 . S
H2236 C2249 0.929 . S
H2237 C2247 0.929 1_455 S
H2238 C2242 0.929 . S
H2239 C2248 0.929 . S
C2240 H2234 0.930 . S
C2240 C2241 1.367 . S
C2240 C2248 1.378 . S
C2241 C2240 1.367 . S
C2241 C2249 1.433 . S
C2242 H2238 0.929 . S
C2242 C2244 1.378 . S
C2242 C2246 1.350 . S
C2243 C2246 1.463 . S
C2243 C2248 1.350 . S
C2243 N2251 1.427 . S
C2244 H2235 0.930 . S
C2244 C2242 1.378 . S
C2244 C2245 1.384 . S
C2245 C2244 1.384 . S
C2245 C2247 1.441 . S
C2246 C2242 1.350 . S
C2246 C2243 1.463 . S
C2246 N2250 1.427 . S
C2247 H2237 0.929 1_655 S
C2247 C2245 1.441 . S
C2247 N2250 1.384 . S
C2248 H2239 0.929 . S
C2248 C2240 1.378 . S
C2248 C2243 1.350 . S
C2249 H2236 0.929 . S
C2249 C2241 1.433 . S
C2249 N2251 1.384 . S
N2250 C2246 1.427 . S
N2250 C2247 1.384 . S
N2251 C2243 1.427 . S
N2251 C2249 1.384 . S
H2252 C2258 0.930 . S
H2253 C2262 0.930 . S
H2254 C2267 0.929 . S
H2255 C2265 0.929 . S
H2256 C2260 0.929 . S
H2257 C2266 0.929 . S
C2258 H2252 0.930 . S
C2258 C2259 1.367 . S
C2258 C2266 1.378 . S
C2259 C2258 1.367 . S
C2259 C2267 1.433 . S
C2260 H2256 0.929 . S
C2260 C2262 1.378 . S
C2260 C2264 1.350 . S
C2261 C2264 1.463 . S
C2261 C2266 1.350 . S
C2261 N2269 1.427 . S
C2262 H2253 0.930 . S
C2262 C2260 1.378 . S
C2262 C2263 1.367 . S
C2263 C2262 1.367 . S
C2263 C2265 1.433 . S
C2264 C2260 1.350 . S
C2264 C2261 1.463 . S
C2264 N2268 1.427 . S
C2265 H2255 0.929 . S
C2265 C2263 1.433 . S
C2265 N2268 1.384 . S
C2266 H2257 0.929 . S
C2266 C2258 1.378 . S
C2266 C2261 1.350 . S
C2267 H2254 0.929 . S
C2267 C2259 1.433 . S
C2267 N2269 1.384 . S
N2268 C2264 1.427 . S
N2268 C2265 1.384 . S
N2269 C2261 1.427 . S
N2269 C2267 1.384 . S
H2270 C2276 0.930 . S
H2271 C2280 0.930 . S
H2272 C2285 0.929 . S
H2273 C2283 0.929 . S
H2274 C2278 0.929 . S
H2275 C2284 0.929 . S
C2276 H2270 0.930 . S
C2276 C2277 1.367 . S
C2276 C2284 1.378 . S
C2277 C2276 1.367 . S
C2277 C2285 1.433 . S
C2278 H2274 0.929 . S
C2278 C2280 1.378 . S
C2278 C2282 1.350 . S
C2279 C2282 1.463 . S
C2279 C2284 1.350 . S
C2279 N2287 1.427 . S
C2280 H2271 0.930 . S
C2280 C2278 1.378 . S
C2280 C2281 1.367 . S
C2281 C2280 1.367 . S
C2281 C2283 1.433 . S
C2282 C2278 1.350 . S
C2282 C2279 1.463 . S
C2282 N2286 1.427 . S
C2283 H2273 0.929 . S
C2283 C2281 1.433 . S
C2283 N2286 1.384 . S
C2284 H2275 0.929 . S
C2284 C2276 1.378 . S
C2284 C2279 1.350 . S
C2285 H2272 0.929 . S
C2285 C2277 1.433 . S
C2285 N2287 1.384 . S
N2286 C2282 1.427 . S
N2286 C2283 1.384 . S
N2287 C2279 1.427 . S
N2287 C2285 1.384 . S
H2288 C2294 0.930 . S
H2289 C2298 0.930 . S
H2290 C2303 0.929 . S
H2291 C2301 0.929 . S
H2292 C2296 0.929 . S
H2293 C2302 0.929 . S
C2294 H2288 0.930 . S
C2294 C2295 1.367 . S
C2294 C2302 1.378 . S
C2295 C2294 1.367 . S
C2295 C2303 1.433 . S
C2296 H2292 0.929 . S
C2296 C2298 1.378 . S
C2296 C2300 1.350 . S
C2297 C2300 1.463 . S
C2297 C2302 1.350 . S
C2297 N2305 1.427 . S
C2298 H2289 0.930 . S
C2298 C2296 1.378 . S
C2298 C2299 1.367 . S
C2299 C2298 1.367 . S
C2299 C2301 1.433 . S
C2300 C2296 1.350 . S
C2300 C2297 1.463 . S
C2300 N2304 1.427 . S
C2301 H2291 0.929 . S
C2301 C2299 1.433 . S
C2301 N2304 1.384 . S
C2302 H2293 0.929 . S
C2302 C2294 1.378 . S
C2302 C2297 1.350 . S
C2303 H2290 0.929 . S
C2303 C2295 1.433 . S
C2303 N2305 1.384 . S
N2304 C2300 1.427 . S
N2304 C2301 1.384 . S
N2305 C2297 1.427 . S
N2305 C2303 1.384 . S
H2306 C2312 0.930 . S
H2307 C2316 0.930 . S
H2308 C2321 0.929 . S
H2309 C2319 0.929 . S
H2310 C2314 0.929 . S
H2311 C2320 0.929 . S
C2312 H2306 0.930 . S
C2312 C2313 1.367 . S
C2312 C2320 1.378 . S
C2313 C2312 1.367 . S
C2313 C2321 1.433 . S
C2314 H2310 0.929 . S
C2314 C2316 1.378 . S
C2314 C2318 1.350 . S
C2315 C2318 1.463 . S
C2315 C2320 1.350 . S
C2315 N2323 1.427 . S
C2316 H2307 0.930 . S
C2316 C2314 1.378 . S
C2316 C2317 1.367 . S
C2317 C2316 1.367 . S
C2317 C2319 1.433 . S
C2318 C2314 1.350 . S
C2318 C2315 1.463 . S
C2318 N2322 1.427 . S
C2319 H2309 0.929 . S
C2319 C2317 1.433 . S
C2319 N2322 1.384 . S
C2320 H2311 0.929 . S
C2320 C2312 1.378 . S
C2320 C2315 1.350 . S
C2321 H2308 0.929 . S
C2321 C2313 1.433 . S
C2321 N2323 1.384 . S
N2322 C2318 1.427 . S
N2322 C2319 1.384 . S
N2323 C2315 1.427 . S
N2323 C2321 1.384 . S
H2324 C2330 0.930 . S
H2325 C2334 0.930 . S
H2326 C2339 0.929 . S
H2327 C2337 0.929 . S
H2328 C2332 0.929 . S
H2329 C2338 0.929 . S
C2330 H2324 0.930 . S
C2330 C2331 1.367 . S
C2330 C2338 1.378 . S
C2331 C2330 1.367 . S
C2331 C2339 1.433 . S
C2332 H2328 0.929 . S
C2332 C2334 1.378 . S
C2332 C2336 1.350 . S
C2333 C2336 1.463 . S
C2333 C2338 1.350 . S
C2333 N2341 1.427 . S
C2334 H2325 0.930 . S
C2334 C2332 1.378 . S
C2334 C2335 1.367 . S
C2335 C2334 1.367 . S
C2335 C2337 1.433 . S
C2336 C2332 1.350 . S
C2336 C2333 1.463 . S
C2336 N2340 1.427 . S
C2337 H2327 0.929 . S
C2337 C2335 1.433 . S
C2337 N2340 1.384 . S
C2338 H2329 0.929 . S
C2338 C2330 1.378 . S
C2338 C2333 1.350 . S
C2339 H2326 0.929 . S
C2339 C2331 1.433 . S
C2339 N2341 1.384 . S
N2340 C2336 1.427 . S
N2340 C2337 1.384 . S
N2341 C2333 1.427 . S
N2341 C2339 1.384 . S
H2342 C2348 0.930 1_655 S
H2343 C2352 0.930 . S
H2344 C2357 0.929 . S
H2345 C2355 0.929 . S
H2346 C2350 0.929 . S
H2347 C2356 0.929 . S
C2348 H2342 0.930 1_455 S
C2348 C2349 1.367 . S
C2348 C2356 1.378 . S
C2349 C2348 1.367 . S
C2349 C2357 1.445 . S
C2350 H2346 0.929 . S
C2350 C2352 1.378 . S
C2350 C2354 1.350 . S
C2351 C2354 1.463 . S
C2351 C2356 1.350 . S
C2351 N2359 1.427 . S
C2352 H2343 0.930 . S
C2352 C2350 1.378 . S
C2352 C2353 1.367 . S
C2353 C2352 1.367 . S
C2353 C2355 1.433 . S
C2354 C2350 1.350 . S
C2354 C2351 1.463 . S
C2354 N2358 1.427 . S
C2355 H2345 0.929 . S
C2355 C2353 1.433 . S
C2355 N2358 1.384 . S
C2356 H2347 0.929 . S
C2356 C2348 1.378 . S
C2356 C2351 1.350 . S
C2357 H2344 0.929 . S
C2357 C2349 1.445 . S
C2357 N2359 1.384 . S
N2358 C2354 1.427 . S
N2358 C2355 1.384 . S
N2359 C2351 1.427 . S
N2359 C2357 1.384 . S
H2360 C2366 0.930 . S
H2361 C2370 0.930 . S
H2362 C2375 0.929 . S
H2363 C2373 0.929 . S
H2364 C2368 0.929 . S
H2365 C2374 0.929 . S
C2366 H2360 0.930 . S
C2366 C2367 1.367 . S
C2366 C2374 1.378 . S
C2367 C2366 1.367 . S
C2367 C2375 1.433 . S
C2368 H2364 0.929 . S
C2368 C2370 1.378 . S
C2368 C2372 1.350 . S
C2369 C2372 1.463 . S
C2369 C2374 1.350 . S
C2369 N2377 1.427 . S
C2370 H2361 0.930 . S
C2370 C2368 1.378 . S
C2370 C2371 1.367 . S
C2371 C2370 1.367 . S
C2371 C2373 1.433 . S
C2372 C2368 1.350 . S
C2372 C2369 1.463 . S
C2372 N2376 1.427 . S
C2373 H2363 0.929 . S
C2373 C2371 1.433 . S
C2373 N2376 1.384 . S
C2374 H2365 0.929 . S
C2374 C2366 1.378 . S
C2374 C2369 1.350 . S
C2375 H2362 0.929 . S
C2375 C2367 1.433 . S
C2375 N2377 1.384 . S
N2376 C2372 1.427 . S
N2376 C2373 1.384 . S
N2377 C2369 1.427 . S
N2377 C2375 1.384 . S
H2378 C2384 0.930 . S
H2379 C2388 0.930 . S
H2380 C2393 0.929 . S
H2381 C2391 0.929 1_655 S
H2382 C2386 0.929 . S
H2383 C2392 0.929 . S
C2384 H2378 0.930 . S
C2384 C2385 1.367 . S
C2384 C2392 1.378 . S
C2385 C2384 1.367 . S
C2385 C2393 1.433 . S
C2386 H2382 0.929 . S
C2386 C2388 1.378 . S
C2386 C2390 1.350 . S
C2387 C2390 1.463 . S
C2387 C2392 1.350 . S
C2387 N2395 1.427 . S
C2388 H2379 0.930 . S
C2388 C2386 1.378 . S
C2388 C2389 1.384 . S
C2389 C2388 1.384 . S
C2389 C2391 1.441 . S
C2390 C2386 1.350 . S
C2390 C2387 1.463 . S
C2390 N2394 1.427 . S
C2391 H2381 0.929 1_455 S
C2391 C2389 1.441 . S
C2391 N2394 1.384 . S
C2392 H2383 0.929 . S
C2392 C2384 1.378 . S
C2392 C2387 1.350 . S
C2393 H2380 0.929 . S
C2393 C2385 1.433 . S
C2393 N2395 1.384 . S
N2394 C2390 1.427 . S
N2394 C2391 1.384 . S
N2395 C2387 1.427 . S
N2395 C2393 1.384 . S
H2396 C2402 0.930 . S
H2397 C2406 0.930 . S
H2398 C2411 0.929 . S
H2399 C2409 0.929 . S
H2400 C2404 0.929 . S
H2401 C2410 0.929 . S
C2402 H2396 0.930 . S
C2402 C2403 1.367 . S
C2402 C2410 1.378 . S
C2403 C2402 1.367 . S
C2403 C2411 1.433 . S
C2404 H2400 0.929 . S
C2404 C2406 1.378 . S
C2404 C2408 1.350 . S
C2405 C2408 1.463 . S
C2405 C2410 1.350 . S
C2405 N2413 1.427 . S
C2406 H2397 0.930 . S
C2406 C2404 1.378 . S
C2406 C2407 1.367 . S
C2407 C2406 1.367 . S
C2407 C2409 1.433 . S
C2408 C2404 1.350 . S
C2408 C2405 1.463 . S
C2408 N2412 1.427 . S
C2409 H2399 0.929 . S
C2409 C2407 1.433 . S
C2409 N2412 1.384 . S
C2410 H2401 0.929 . S
C2410 C2402 1.378 . S
C2410 C2405 1.350 . S
C2411 H2398 0.929 . S
C2411 C2403 1.433 . S
C2411 N2413 1.384 . S
N2412 C2408 1.427 . S
N2412 C2409 1.384 . S
N2413 C2405 1.427 . S
N2413 C2411 1.384 . S
H2414 C2420 0.930 . S
H2415 C2424 0.930 . S
H2416 C2429 0.929 . S
H2417 C2427 0.929 . S
H2418 C2422 0.929 . S
H2419 C2428 0.929 . S
C2420 H2414 0.930 . S
C2420 C2421 1.367 . S
C2420 C2428 1.378 . S
C2421 C2420 1.367 . S
C2421 C2429 1.433 . S
C2422 H2418 0.929 . S
C2422 C2424 1.378 . S
C2422 C2426 1.350 . S
C2423 C2426 1.463 . S
C2423 C2428 1.350 . S
C2423 N2431 1.427 . S
C2424 H2415 0.930 . S
C2424 C2422 1.378 . S
C2424 C2425 1.367 . S
C2425 C2424 1.367 . S
C2425 C2427 1.433 . S
C2426 C2422 1.350 . S
C2426 C2423 1.463 . S
C2426 N2430 1.427 . S
C2427 H2417 0.929 . S
C2427 C2425 1.433 . S
C2427 N2430 1.384 . S
C2428 H2419 0.929 . S
C2428 C2420 1.378 . S
C2428 C2423 1.350 . S
C2429 H2416 0.929 . S
C2429 C2421 1.433 . S
C2429 N2431 1.384 . S
N2430 C2426 1.427 . S
N2430 C2427 1.384 . S
N2431 C2423 1.427 . S
N2431 C2429 1.384 . S
H2432 C2438 0.930 . S
H2433 C2442 0.930 . S
H2434 C2447 0.929 . S
H2435 C2445 0.929 . S
H2436 C2440 0.929 . S
H2437 C2446 0.929 . S
C2438 H2432 0.930 . S
C2438 C2439 1.367 . S
C2438 C2446 1.378 . S
C2439 C2438 1.367 . S
C2439 C2447 1.433 . S
C2440 H2436 0.929 . S
C2440 C2442 1.378 . S
C2440 C2444 1.350 . S
C2441 C2444 1.463 1_545 S
C2441 C2446 1.350 . S
C2441 N2449 1.427 . S
C2442 H2433 0.930 . S
C2442 C2440 1.378 . S
C2442 C2443 1.367 . S
C2443 C2442 1.367 . S
C2443 C2445 1.433 . S
C2444 C2440 1.350 . S
C2444 C2441 1.463 1_565 S
C2444 N2448 1.427 . S
C2445 H2435 0.929 . S
C2445 C2443 1.433 . S
C2445 N2448 1.384 . S
C2446 H2437 0.929 . S
C2446 C2438 1.378 . S
C2446 C2441 1.350 . S
C2447 H2434 0.929 . S
C2447 C2439 1.433 . S
C2447 N2449 1.384 . S
N2448 C2444 1.427 . S
N2448 C2445 1.384 . S
N2449 C2441 1.427 . S
N2449 C2447 1.384 . S
H2450 C2456 0.930 . S
H2451 C2460 0.930 . S
H2452 C2465 0.929 . S
H2453 C2463 0.929 . S
H2454 C2458 0.929 . S
H2455 C2464 0.929 . S
C2456 H2450 0.930 . S
C2456 C2457 1.367 . S
C2456 C2464 1.378 . S
C2457 C2456 1.367 . S
C2457 C2465 1.433 . S
C2458 H2454 0.929 . S
C2458 C2460 1.378 . S
C2458 C2462 1.350 . S
C2459 C2462 1.463 . S
C2459 C2464 1.350 . S
C2459 N2467 1.427 . S
C2460 H2451 0.930 . S
C2460 C2458 1.378 . S
C2460 C2461 1.367 . S
C2461 C2460 1.367 . S
C2461 C2463 1.433 . S
C2462 C2458 1.350 . S
C2462 C2459 1.463 . S
C2462 N2466 1.427 . S
C2463 H2453 0.929 . S
C2463 C2461 1.433 . S
C2463 N2466 1.384 . S
C2464 H2455 0.929 . S
C2464 C2456 1.378 . S
C2464 C2459 1.350 . S
C2465 H2452 0.929 . S
C2465 C2457 1.433 . S
C2465 N2467 1.384 . S
N2466 C2462 1.427 . S
N2466 C2463 1.384 . S
N2467 C2459 1.427 . S
N2467 C2465 1.384 . S
H2468 C2474 0.930 . S
H2469 C2478 0.930 . S
H2470 C2483 0.929 . S
H2471 C2481 0.929 . S
H2472 C2476 0.929 . S
H2473 C2482 0.929 . S
C2474 H2468 0.930 . S
C2474 C2475 1.367 . S
C2474 C2482 1.378 . S
C2475 C2474 1.367 . S
C2475 C2483 1.433 . S
C2476 H2472 0.929 . S
C2476 C2478 1.378 . S
C2476 C2480 1.350 . S
C2477 C2480 1.463 1_565 S
C2477 C2482 1.350 . S
C2477 N2485 1.427 . S
C2478 H2469 0.930 . S
C2478 C2476 1.378 . S
C2478 C2479 1.367 . S
C2479 C2478 1.367 . S
C2479 C2481 1.433 . S
C2480 C2476 1.350 . S
C2480 C2477 1.463 1_545 S
C2480 N2484 1.427 . S
C2481 H2471 0.929 . S
C2481 C2479 1.433 . S
C2481 N2484 1.384 . S
C2482 H2473 0.929 . S
C2482 C2474 1.378 . S
C2482 C2477 1.350 . S
C2483 H2470 0.929 . S
C2483 C2475 1.433 . S
C2483 N2485 1.384 . S
N2484 C2480 1.427 . S
N2484 C2481 1.384 . S
N2485 C2477 1.427 . S
N2485 C2483 1.384 . S
H2486 C2492 0.930 . S
H2487 C2496 0.930 . S
H2488 C2501 0.929 . S
H2489 C2499 0.929 . S
H2490 C2494 0.929 . S
H2491 C2500 0.929 . S
C2492 H2486 0.930 . S
C2492 C2493 1.367 . S
C2492 C2500 1.378 . S
C2493 C2492 1.367 . S
C2493 C2501 1.433 . S
C2494 H2490 0.929 . S
C2494 C2496 1.378 . S
C2494 C2498 1.351 . S
C2495 C2498 1.461 1_556 S
C2495 C2500 1.351 . S
C2495 N2503 1.427 . S
C2496 H2487 0.930 . S
C2496 C2494 1.378 . S
C2496 C2497 1.367 . S
C2497 C2496 1.367 . S
C2497 C2499 1.433 . S
C2498 C2494 1.351 . S
C2498 C2495 1.461 1_554 S
C2498 N2502 1.427 . S
C2499 H2489 0.929 . S
C2499 C2497 1.433 . S
C2499 N2502 1.385 . S
C2500 H2491 0.929 . S
C2500 C2492 1.378 . S
C2500 C2495 1.351 . S
C2501 H2488 0.929 . S
C2501 C2493 1.433 . S
C2501 N2503 1.385 . S
N2502 C2498 1.427 . S
N2502 C2499 1.385 . S
N2503 C2495 1.427 . S
N2503 C2501 1.385 . S
H2504 C2510 0.930 . S
H2505 C2514 0.930 . S
H2506 C2519 0.929 . S
H2507 C2517 0.929 . S
H2508 C2512 0.929 . S
H2509 C2518 0.929 . S
C2510 H2504 0.930 . S
C2510 C2511 1.367 . S
C2510 C2518 1.378 . S
C2511 C2510 1.367 . S
C2511 C2519 1.433 . S
C2512 H2508 0.929 . S
C2512 C2514 1.378 . S
C2512 C2516 1.350 . S
C2513 C2516 1.463 1_545 S
C2513 C2518 1.350 . S
C2513 N2521 1.427 . S
C2514 H2505 0.930 . S
C2514 C2512 1.378 . S
C2514 C2515 1.367 . S
C2515 C2514 1.367 . S
C2515 C2517 1.433 . S
C2516 C2512 1.350 . S
C2516 C2513 1.463 1_565 S
C2516 N2520 1.427 . S
C2517 H2507 0.929 . S
C2517 C2515 1.433 . S
C2517 N2520 1.384 . S
C2518 H2509 0.929 . S
C2518 C2510 1.378 . S
C2518 C2513 1.350 . S
C2519 H2506 0.929 . S
C2519 C2511 1.433 . S
C2519 N2521 1.384 . S
N2520 C2516 1.427 . S
N2520 C2517 1.384 . S
N2521 C2513 1.427 . S
N2521 C2519 1.384 . S
H2522 C2528 0.930 . S
H2523 C2532 0.930 . S
H2524 C2537 0.929 . S
H2525 C2535 0.929 . S
H2526 C2530 0.929 . S
H2527 C2536 0.929 . S
C2528 H2522 0.930 . S
C2528 C2529 1.367 . S
C2528 C2536 1.378 . S
C2529 C2528 1.367 . S
C2529 C2537 1.433 . S
C2530 H2526 0.929 . S
C2530 C2532 1.378 . S
C2530 C2534 1.350 . S
C2531 C2534 1.463 . S
C2531 C2536 1.350 . S
C2531 N2539 1.427 . S
C2532 H2523 0.930 . S
C2532 C2530 1.378 . S
C2532 C2533 1.367 . S
C2533 C2532 1.367 . S
C2533 C2535 1.433 . S
C2534 C2530 1.350 . S
C2534 C2531 1.463 . S
C2534 N2538 1.427 . S
C2535 H2525 0.929 . S
C2535 C2533 1.433 . S
C2535 N2538 1.384 . S
C2536 H2527 0.929 . S
C2536 C2528 1.378 . S
C2536 C2531 1.350 . S
C2537 H2524 0.929 . S
C2537 C2529 1.433 . S
C2537 N2539 1.384 . S
N2538 C2534 1.427 . S
N2538 C2535 1.384 . S
N2539 C2531 1.427 . S
N2539 C2537 1.384 . S
H2540 C2546 0.930 . S
H2541 C2550 0.930 . S
H2542 C2555 0.929 . S
H2543 C2553 0.929 . S
H2544 C2548 0.929 . S
H2545 C2554 0.929 . S
C2546 H2540 0.930 . S
C2546 C2547 1.367 . S
C2546 C2554 1.378 . S
C2547 C2546 1.367 . S
C2547 C2555 1.433 . S
C2548 H2544 0.929 . S
C2548 C2550 1.378 . S
C2548 C2552 1.350 . S
C2549 C2552 1.463 1_545 S
C2549 C2554 1.350 . S
C2549 N2557 1.427 . S
C2550 H2541 0.930 . S
C2550 C2548 1.378 . S
C2550 C2551 1.367 . S
C2551 C2550 1.367 . S
C2551 C2553 1.433 . S
C2552 C2548 1.350 . S
C2552 C2549 1.463 1_565 S
C2552 N2556 1.427 . S
C2553 H2543 0.929 . S
C2553 C2551 1.433 . S
C2553 N2556 1.384 . S
C2554 H2545 0.929 . S
C2554 C2546 1.378 . S
C2554 C2549 1.350 . S
C2555 H2542 0.929 . S
C2555 C2547 1.433 . S
C2555 N2557 1.384 . S
N2556 C2552 1.427 . S
N2556 C2553 1.384 . S
N2557 C2549 1.427 . S
N2557 C2555 1.384 . S
H2558 C2564 0.930 . S
H2559 C2568 0.930 . S
H2560 C2573 0.929 . S
H2561 C2571 0.929 . S
H2562 C2566 0.929 . S
H2563 C2572 0.929 . S
C2564 H2558 0.930 . S
C2564 C2565 1.367 . S
C2564 C2572 1.378 . S
C2565 C2564 1.367 . S
C2565 C2573 1.433 . S
C2566 H2562 0.929 . S
C2566 C2568 1.378 . S
C2566 C2570 1.351 . S
C2567 C2570 1.461 1_556 S
C2567 C2572 1.351 . S
C2567 N2575 1.427 . S
C2568 H2559 0.930 . S
C2568 C2566 1.378 . S
C2568 C2569 1.367 . S
C2569 C2568 1.367 . S
C2569 C2571 1.433 . S
C2570 C2566 1.351 . S
C2570 C2567 1.461 1_554 S
C2570 N2574 1.427 . S
C2571 H2561 0.929 . S
C2571 C2569 1.433 . S
C2571 N2574 1.384 . S
C2572 H2563 0.929 . S
C2572 C2564 1.378 . S
C2572 C2567 1.351 . S
C2573 H2560 0.929 . S
C2573 C2565 1.433 . S
C2573 N2575 1.384 . S
N2574 C2570 1.427 . S
N2574 C2571 1.384 . S
N2575 C2567 1.427 . S
N2575 C2573 1.384 . S
H2576 C2582 0.930 . S
H2577 C2586 0.930 . S
H2578 C2591 0.929 . S
H2579 C2589 0.929 . S
H2580 C2584 0.929 . S
H2581 C2590 0.929 . S
C2582 H2576 0.930 . S
C2582 C2583 1.367 . S
C2582 C2590 1.378 . S
C2583 C2582 1.367 . S
C2583 C2591 1.433 . S
C2584 H2580 0.929 . S
C2584 C2586 1.378 . S
C2584 C2588 1.350 . S
C2585 C2588 1.463 . S
C2585 C2590 1.350 . S
C2585 N2593 1.427 . S
C2586 H2577 0.930 . S
C2586 C2584 1.378 . S
C2586 C2587 1.367 . S
C2587 C2586 1.367 . S
C2587 C2589 1.433 . S
C2588 C2584 1.350 . S
C2588 C2585 1.463 . S
C2588 N2592 1.427 . S
C2589 H2579 0.929 . S
C2589 C2587 1.433 . S
C2589 N2592 1.384 . S
C2590 H2581 0.929 . S
C2590 C2582 1.378 . S
C2590 C2585 1.350 . S
C2591 H2578 0.929 . S
C2591 C2583 1.433 . S
C2591 N2593 1.384 . S
N2592 C2588 1.427 . S
N2592 C2589 1.384 . S
N2593 C2585 1.427 . S
N2593 C2591 1.384 . S
H2594 C2600 0.930 . S
H2595 C2604 0.930 . S
H2596 C2609 0.929 . S
H2597 C2607 0.929 . S
H2598 C2602 0.929 . S
H2599 C2608 0.929 . S
C2600 H2594 0.930 . S
C2600 C2601 1.367 1_554 S
C2600 C2608 1.378 . S
C2601 C2600 1.367 1_556 S
C2601 C2609 1.433 . S
C2602 H2598 0.929 . S
C2602 C2604 1.378 . S
C2602 C2606 1.350 1_556 S
C2603 C2606 1.463 1_556 S
C2603 C2608 1.350 1_556 S
C2603 N2611 1.427 . S
C2604 H2595 0.930 . S
C2604 C2602 1.378 . S
C2604 C2605 1.367 1_556 S
C2605 C2604 1.367 1_554 S
C2605 C2607 1.433 . S
C2606 C2602 1.350 1_554 S
C2606 C2603 1.463 1_554 S
C2606 N2610 1.427 . S
C2607 H2597 0.929 . S
C2607 C2605 1.433 . S
C2607 N2610 1.384 . S
C2608 H2599 0.929 . S
C2608 C2600 1.378 . S
C2608 C2603 1.350 1_554 S
C2609 H2596 0.929 . S
C2609 C2601 1.433 . S
C2609 N2611 1.384 . S
N2610 C2606 1.427 . S
N2610 C2607 1.384 . S
N2611 C2603 1.427 . S
N2611 C2609 1.384 . S
H2612 C2618 0.930 . S
H2613 C2622 0.930 . S
H2614 C2627 0.929 . S
H2615 C2625 0.929 . S
H2616 C2620 0.929 . S
H2617 C2626 0.929 . S
C2618 H2612 0.930 . S
C2618 C2619 1.367 . S
C2618 C2626 1.378 . S
C2619 C2618 1.367 . S
C2619 C2627 1.433 . S
C2620 H2616 0.929 . S
C2620 C2622 1.378 . S
C2620 C2624 1.350 . S
C2621 C2624 1.463 . S
C2621 C2626 1.350 . S
C2621 N2629 1.427 . S
C2622 H2613 0.930 . S
C2622 C2620 1.378 . S
C2622 C2623 1.367 . S
C2623 C2622 1.367 . S
C2623 C2625 1.433 . S
C2624 C2620 1.350 . S
C2624 C2621 1.463 . S
C2624 N2628 1.427 . S
C2625 H2615 0.929 . S
C2625 C2623 1.433 . S
C2625 N2628 1.384 . S
C2626 H2617 0.929 . S
C2626 C2618 1.378 . S
C2626 C2621 1.350 . S
C2627 H2614 0.929 . S
C2627 C2619 1.433 . S
C2627 N2629 1.384 . S
N2628 C2624 1.427 . S
N2628 C2625 1.384 . S
N2629 C2621 1.427 . S
N2629 C2627 1.384 . S
H2630 C2636 0.930 . S
H2631 C2640 0.930 . S
H2632 C2645 0.929 . S
H2633 C2643 0.929 . S
H2634 C2638 0.929 . S
H2635 C2644 0.929 . S
C2636 H2630 0.930 . S
C2636 C2637 1.367 . S
C2636 C2644 1.378 . S
C2637 C2636 1.367 . S
C2637 C2645 1.433 . S
C2638 H2634 0.929 . S
C2638 C2640 1.378 . S
C2638 C2642 1.350 . S
C2639 C2642 1.463 . S
C2639 C2644 1.350 . S
C2639 N2647 1.427 . S
C2640 H2631 0.930 . S
C2640 C2638 1.378 . S
C2640 C2641 1.367 . S
C2641 C2640 1.367 . S
C2641 C2643 1.433 . S
C2642 C2638 1.350 . S
C2642 C2639 1.463 . S
C2642 N2646 1.427 . S
C2643 H2633 0.929 . S
C2643 C2641 1.433 . S
C2643 N2646 1.384 . S
C2644 H2635 0.929 . S
C2644 C2636 1.378 . S
C2644 C2639 1.350 . S
C2645 H2632 0.929 . S
C2645 C2637 1.433 . S
C2645 N2647 1.384 . S
N2646 C2642 1.427 . S
N2646 C2643 1.384 . S
N2647 C2639 1.427 . S
N2647 C2645 1.384 . S
H2648 C2654 0.930 . S
H2649 C2658 0.930 . S
H2650 C2663 0.929 . S
H2651 C2661 0.929 . S
H2652 C2656 0.929 . S
H2653 C2662 0.929 . S
C2654 H2648 0.930 . S
C2654 C2655 1.367 . S
C2654 C2662 1.378 . S
C2655 C2654 1.367 . S
C2655 C2663 1.433 . S
C2656 H2652 0.929 . S
C2656 C2658 1.378 . S
C2656 C2660 1.350 . S
C2657 C2660 1.463 . S
C2657 C2662 1.350 . S
C2657 N2665 1.427 . S
C2658 H2649 0.930 . S
C2658 C2656 1.378 . S
C2658 C2659 1.367 . S
C2659 C2658 1.367 . S
C2659 C2661 1.433 . S
C2660 C2656 1.350 . S
C2660 C2657 1.463 . S
C2660 N2664 1.427 . S
C2661 H2651 0.929 . S
C2661 C2659 1.433 . S
C2661 N2664 1.384 . S
C2662 H2653 0.929 . S
C2662 C2654 1.378 . S
C2662 C2657 1.350 . S
C2663 H2650 0.929 . S
C2663 C2655 1.433 . S
C2663 N2665 1.384 . S
N2664 C2660 1.427 . S
N2664 C2661 1.384 . S
N2665 C2657 1.427 . S
N2665 C2663 1.384 . S
H2666 C2672 0.930 . S
H2667 C2676 0.930 . S
H2668 C2681 0.929 . S
H2669 C2679 0.929 . S
H2670 C2674 0.929 . S
H2671 C2680 0.929 . S
C2672 H2666 0.930 . S
C2672 C2673 1.367 1_554 S
C2672 C2680 1.378 . S
C2673 C2672 1.367 1_556 S
C2673 C2681 1.433 . S
C2674 H2670 0.929 . S
C2674 C2676 1.378 . S
C2674 C2678 1.347 1_556 S
C2675 C2678 1.462 1_556 S
C2675 C2680 1.347 1_556 S
C2675 N2683 1.431 . S
C2676 H2667 0.930 . S
C2676 C2674 1.378 . S
C2676 C2677 1.367 1_556 S
C2677 C2676 1.367 1_554 S
C2677 C2679 1.433 . S
C2678 C2674 1.347 1_554 S
C2678 C2675 1.462 1_554 S
C2678 N2682 1.431 . S
C2679 H2669 0.929 . S
C2679 C2677 1.433 . S
C2679 N2682 1.384 . S
C2680 H2671 0.929 . S
C2680 C2672 1.378 . S
C2680 C2675 1.347 1_554 S
C2681 H2668 0.929 . S
C2681 C2673 1.433 . S
C2681 N2683 1.384 . S
N2682 C2678 1.431 . S
N2682 C2679 1.384 . S
N2683 C2675 1.431 . S
N2683 C2681 1.384 . S
H2684 C2690 0.930 . S
H2685 C2694 0.930 . S
H2686 C2699 0.929 . S
H2687 C2697 0.929 . S
H2688 C2692 0.929 . S
H2689 C2698 0.929 . S
C2690 H2684 0.930 . S
C2690 C2691 1.367 . S
C2690 C2698 1.378 . S
C2691 C2690 1.367 . S
C2691 C2699 1.433 . S
C2692 H2688 0.929 . S
C2692 C2694 1.378 . S
C2692 C2696 1.350 . S
C2693 C2696 1.463 . S
C2693 C2698 1.350 . S
C2693 N2701 1.427 . S
C2694 H2685 0.930 . S
C2694 C2692 1.378 . S
C2694 C2695 1.367 . S
C2695 C2694 1.367 . S
C2695 C2697 1.433 . S
C2696 C2692 1.350 . S
C2696 C2693 1.463 . S
C2696 N2700 1.427 . S
C2697 H2687 0.929 . S
C2697 C2695 1.433 . S
C2697 N2700 1.384 . S
C2698 H2689 0.929 . S
C2698 C2690 1.378 . S
C2698 C2693 1.350 . S
C2699 H2686 0.929 . S
C2699 C2691 1.433 . S
C2699 N2701 1.384 . S
N2700 C2696 1.427 . S
N2700 C2697 1.384 . S
N2701 C2693 1.427 . S
N2701 C2699 1.384 . S
H2702 C2708 0.930 . S
H2703 C2712 0.930 . S
H2704 C2717 0.929 . S
H2705 C2715 0.929 . S
H2706 C2710 0.929 . S
H2707 C2716 0.929 . S
C2708 H2702 0.930 . S
C2708 C2709 1.367 . S
C2708 C2716 1.378 . S
C2709 C2708 1.367 . S
C2709 C2717 1.433 . S
C2710 H2706 0.929 . S
C2710 C2712 1.378 . S
C2710 C2714 1.350 . S
C2711 C2714 1.463 . S
C2711 C2716 1.350 . S
C2711 N2719 1.427 . S
C2712 H2703 0.930 . S
C2712 C2710 1.378 . S
C2712 C2713 1.367 . S
C2713 C2712 1.367 . S
C2713 C2715 1.433 . S
C2714 C2710 1.350 . S
C2714 C2711 1.463 . S
C2714 N2718 1.427 . S
C2715 H2705 0.929 . S
C2715 C2713 1.433 . S
C2715 N2718 1.384 . S
C2716 H2707 0.929 . S
C2716 C2708 1.378 . S
C2716 C2711 1.350 . S
C2717 H2704 0.929 . S
C2717 C2709 1.433 . S
C2717 N2719 1.384 . S
N2718 C2714 1.427 . S
N2718 C2715 1.384 . S
N2719 C2711 1.427 . S
N2719 C2717 1.384 . S
H2720 C2726 0.930 . S
H2721 C2730 0.930 . S
H2722 C2735 0.929 . S
H2723 C2733 0.929 . S
H2724 C2728 0.929 . S
H2725 C2734 0.929 . S
C2726 H2720 0.930 . S
C2726 C2727 1.367 . S
C2726 C2734 1.378 . S
C2727 C2726 1.367 . S
C2727 C2735 1.433 . S
C2728 H2724 0.929 . S
C2728 C2730 1.378 . S
C2728 C2732 1.350 . S
C2729 C2732 1.463 . S
C2729 C2734 1.350 . S
C2729 N2737 1.427 . S
C2730 H2721 0.930 . S
C2730 C2728 1.378 . S
C2730 C2731 1.367 . S
C2731 C2730 1.367 . S
C2731 C2733 1.433 . S
C2732 C2728 1.350 . S
C2732 C2729 1.463 . S
C2732 N2736 1.427 . S
C2733 H2723 0.929 . S
C2733 C2731 1.433 . S
C2733 N2736 1.384 . S
C2734 H2725 0.929 . S
C2734 C2726 1.378 . S
C2734 C2729 1.350 . S
C2735 H2722 0.929 . S
C2735 C2727 1.433 . S
C2735 N2737 1.384 . S
N2736 C2732 1.427 . S
N2736 C2733 1.384 . S
N2737 C2729 1.427 . S
N2737 C2735 1.384 . S
H2738 C2744 0.930 . S
H2739 C2748 0.930 . S
H2740 C2753 0.929 . S
H2741 C2751 0.929 . S
H2742 C2746 0.929 . S
H2743 C2752 0.929 . S
C2744 H2738 0.930 . S
C2744 C2745 1.367 . S
C2744 C2752 1.378 . S
C2745 C2744 1.367 . S
C2745 C2753 1.433 . S
C2746 H2742 0.929 . S
C2746 C2748 1.378 . S
C2746 C2750 1.350 . S
C2747 C2750 1.463 . S
C2747 C2752 1.350 . S
C2747 N2755 1.427 . S
C2748 H2739 0.930 . S
C2748 C2746 1.378 . S
C2748 C2749 1.367 . S
C2749 C2748 1.367 . S
C2749 C2751 1.433 . S
C2750 C2746 1.350 . S
C2750 C2747 1.463 . S
C2750 N2754 1.427 . S
C2751 H2741 0.929 . S
C2751 C2749 1.433 . S
C2751 N2754 1.384 . S
C2752 H2743 0.929 . S
C2752 C2744 1.378 . S
C2752 C2747 1.350 . S
C2753 H2740 0.929 . S
C2753 C2745 1.433 . S
C2753 N2755 1.384 . S
N2754 C2750 1.427 . S
N2754 C2751 1.384 . S
N2755 C2747 1.427 . S
N2755 C2753 1.384 . S
H2756 C2762 0.930 . S
H2757 C2766 0.930 . S
H2758 C2771 0.929 . S
H2759 C2769 0.929 . S
H2760 C2764 0.929 . S
H2761 C2770 0.929 . S
C2762 H2756 0.930 . S
C2762 C2763 1.367 . S
C2762 C2770 1.378 . S
C2763 C2762 1.367 . S
C2763 C2771 1.433 . S
C2764 H2760 0.929 . S
C2764 C2766 1.378 . S
C2764 C2768 1.350 . S
C2765 C2768 1.463 . S
C2765 C2770 1.350 . S
C2765 N2773 1.427 . S
C2766 H2757 0.930 . S
C2766 C2764 1.378 . S
C2766 C2767 1.367 . S
C2767 C2766 1.367 . S
C2767 C2769 1.433 . S
C2768 C2764 1.350 . S
C2768 C2765 1.463 . S
C2768 N2772 1.427 . S
C2769 H2759 0.929 . S
C2769 C2767 1.433 . S
C2769 N2772 1.384 . S
C2770 H2761 0.929 . S
C2770 C2762 1.378 . S
C2770 C2765 1.350 . S
C2771 H2758 0.929 . S
C2771 C2763 1.433 . S
C2771 N2773 1.384 . S
N2772 C2768 1.427 . S
N2772 C2769 1.384 . S
N2773 C2765 1.427 . S
N2773 C2771 1.384 . S
H2774 C2780 0.930 . S
H2775 C2784 0.930 . S
H2776 C2789 0.929 . S
H2777 C2787 0.929 . S
H2778 C2782 0.929 . S
H2779 C2788 0.929 . S
C2780 H2774 0.930 . S
C2780 C2781 1.367 . S
C2780 C2788 1.378 . S
C2781 C2780 1.367 . S
C2781 C2789 1.433 . S
C2782 H2778 0.929 . S
C2782 C2784 1.378 . S
C2782 C2786 1.350 . S
C2783 C2786 1.463 . S
C2783 C2788 1.350 . S
C2783 N2791 1.427 . S
C2784 H2775 0.930 . S
C2784 C2782 1.378 . S
C2784 C2785 1.367 . S
C2785 C2784 1.367 . S
C2785 C2787 1.433 . S
C2786 C2782 1.350 . S
C2786 C2783 1.463 . S
C2786 N2790 1.427 . S
C2787 H2777 0.929 . S
C2787 C2785 1.433 . S
C2787 N2790 1.384 . S
C2788 H2779 0.929 . S
C2788 C2780 1.378 . S
C2788 C2783 1.350 . S
C2789 H2776 0.929 . S
C2789 C2781 1.433 . S
C2789 N2791 1.384 . S
N2790 C2786 1.427 . S
N2790 C2787 1.384 . S
N2791 C2783 1.427 . S
N2791 C2789 1.384 . S
H2792 C2798 0.930 . S
H2793 C2802 0.930 . S
H2794 C2807 0.929 . S
H2795 C2805 0.929 . S
H2796 C2800 0.929 . S
H2797 C2806 0.929 . S
C2798 H2792 0.930 . S
C2798 C2799 1.367 . S
C2798 C2806 1.378 . S
C2799 C2798 1.367 . S
C2799 C2807 1.433 . S
C2800 H2796 0.929 . S
C2800 C2802 1.378 . S
C2800 C2804 1.350 . S
C2801 C2804 1.463 . S
C2801 C2806 1.350 . S
C2801 N2809 1.427 . S
C2802 H2793 0.930 . S
C2802 C2800 1.378 . S
C2802 C2803 1.367 . S
C2803 C2802 1.367 . S
C2803 C2805 1.433 . S
C2804 C2800 1.350 . S
C2804 C2801 1.463 . S
C2804 N2808 1.427 . S
C2805 H2795 0.929 . S
C2805 C2803 1.433 . S
C2805 N2808 1.384 . S
C2806 H2797 0.929 . S
C2806 C2798 1.378 . S
C2806 C2801 1.350 . S
C2807 H2794 0.929 . S
C2807 C2799 1.433 . S
C2807 N2809 1.384 . S
N2808 C2804 1.427 . S
N2808 C2805 1.384 . S
N2809 C2801 1.427 . S
N2809 C2807 1.384 . S
H2810 C2816 0.930 . S
H2811 C2820 0.930 . S
H2812 C2825 0.929 . S
H2813 C2823 0.929 . S
H2814 C2818 0.929 . S
H2815 C2824 0.929 . S
C2816 H2810 0.930 . S
C2816 C2817 1.367 . S
C2816 C2824 1.378 . S
C2817 C2816 1.367 . S
C2817 C2825 1.433 . S
C2818 H2814 0.929 . S
C2818 C2820 1.378 . S
C2818 C2822 1.350 . S
C2819 C2822 1.463 . S
C2819 C2824 1.350 . S
C2819 N2827 1.427 . S
C2820 H2811 0.930 . S
C2820 C2818 1.378 . S
C2820 C2821 1.367 . S
C2821 C2820 1.367 . S
C2821 C2823 1.433 . S
C2822 C2818 1.350 . S
C2822 C2819 1.463 . S
C2822 N2826 1.427 . S
C2823 H2813 0.929 . S
C2823 C2821 1.433 . S
C2823 N2826 1.384 . S
C2824 H2815 0.929 . S
C2824 C2816 1.378 . S
C2824 C2819 1.350 . S
C2825 H2812 0.929 . S
C2825 C2817 1.433 . S
C2825 N2827 1.384 . S
N2826 C2822 1.427 . S
N2826 C2823 1.384 . S
N2827 C2819 1.427 . S
N2827 C2825 1.384 . S
H2828 C2834 0.930 . S
H2829 C2838 0.930 . S
H2830 C2843 0.929 . S
H2831 C2841 0.929 . S
H2832 C2836 0.929 . S
H2833 C2842 0.929 . S
C2834 H2828 0.930 . S
C2834 C2835 1.367 . S
C2834 C2842 1.378 . S
C2835 C2834 1.367 . S
C2835 C2843 1.433 . S
C2836 H2832 0.929 . S
C2836 C2838 1.378 . S
C2836 C2840 1.350 . S
C2837 C2840 1.463 . S
C2837 C2842 1.350 . S
C2837 N2845 1.427 . S
C2838 H2829 0.930 . S
C2838 C2836 1.378 . S
C2838 C2839 1.367 . S
C2839 C2838 1.367 . S
C2839 C2841 1.433 . S
C2840 C2836 1.350 . S
C2840 C2837 1.463 . S
C2840 N2844 1.427 . S
C2841 H2831 0.929 . S
C2841 C2839 1.433 . S
C2841 N2844 1.384 . S
C2842 H2833 0.929 . S
C2842 C2834 1.378 . S
C2842 C2837 1.350 . S
C2843 H2830 0.929 . S
C2843 C2835 1.433 . S
C2843 N2845 1.384 . S
N2844 C2840 1.427 . S
N2844 C2841 1.384 . S
N2845 C2837 1.427 . S
N2845 C2843 1.384 . S
H2846 C2852 0.930 . S
H2847 C2856 0.930 . S
H2848 C2861 0.929 . S
H2849 C2859 0.929 . S
H2850 C2854 0.929 . S
H2851 C2860 0.929 . S
C2852 H2846 0.930 . S
C2852 C2853 1.367 . S
C2852 C2860 1.378 . S
C2853 C2852 1.367 . S
C2853 C2861 1.433 . S
C2854 H2850 0.929 . S
C2854 C2856 1.378 . S
C2854 C2858 1.350 . S
C2855 C2858 1.463 . S
C2855 C2860 1.350 . S
C2855 N2863 1.427 . S
C2856 H2847 0.930 . S
C2856 C2854 1.378 . S
C2856 C2857 1.367 . S
C2857 C2856 1.367 . S
C2857 C2859 1.433 . S
C2858 C2854 1.350 . S
C2858 C2855 1.463 . S
C2858 N2862 1.427 . S
C2859 H2849 0.929 . S
C2859 C2857 1.433 . S
C2859 N2862 1.384 . S
C2860 H2851 0.929 . S
C2860 C2852 1.378 . S
C2860 C2855 1.350 . S
C2861 H2848 0.929 . S
C2861 C2853 1.433 . S
C2861 N2863 1.384 . S
N2862 C2858 1.427 . S
N2862 C2859 1.384 . S
N2863 C2855 1.427 . S
N2863 C2861 1.384 . S
H2864 C2870 0.930 . S
H2865 C2874 0.930 . S
H2866 C2879 0.929 . S
H2867 C2877 0.929 . S
H2868 C2872 0.929 . S
H2869 C2878 0.929 . S
C2870 H2864 0.930 . S
C2870 C2871 1.367 . S
C2870 C2878 1.378 . S
C2871 C2870 1.367 . S
C2871 C2879 1.433 . S
C2872 H2868 0.929 . S
C2872 C2874 1.378 . S
C2872 C2876 1.350 . S
C2873 C2876 1.463 . S
C2873 C2878 1.350 . S
C2873 N2881 1.427 . S
C2874 H2865 0.930 . S
C2874 C2872 1.378 . S
C2874 C2875 1.367 . S
C2875 C2874 1.367 . S
C2875 C2877 1.433 . S
C2876 C2872 1.350 . S
C2876 C2873 1.463 . S
C2876 N2880 1.427 . S
C2877 H2867 0.929 . S
C2877 C2875 1.433 . S
C2877 N2880 1.384 . S
C2878 H2869 0.929 . S
C2878 C2870 1.378 . S
C2878 C2873 1.350 . S
C2879 H2866 0.929 . S
C2879 C2871 1.433 . S
C2879 N2881 1.384 . S
N2880 C2876 1.427 . S
N2880 C2877 1.384 . S
N2881 C2873 1.427 . S
N2881 C2879 1.384 . S
H2882 C2888 0.930 . S
H2883 C2892 0.930 . S
H2884 C2897 0.929 . S
H2885 C2895 0.929 . S
H2886 C2890 0.929 . S
H2887 C2896 0.929 . S
C2888 H2882 0.930 . S
C2888 C2889 1.367 . S
C2888 C2896 1.378 . S
C2889 C2888 1.367 . S
C2889 C2897 1.433 . S
C2890 H2886 0.929 . S
C2890 C2892 1.378 . S
C2890 C2894 1.350 . S
C2891 C2894 1.463 . S
C2891 C2896 1.350 . S
C2891 N2899 1.427 . S
C2892 H2883 0.930 . S
C2892 C2890 1.378 . S
C2892 C2893 1.367 . S
C2893 C2892 1.367 . S
C2893 C2895 1.433 . S
C2894 C2890 1.350 . S
C2894 C2891 1.463 . S
C2894 N2898 1.427 . S
C2895 H2885 0.929 . S
C2895 C2893 1.433 . S
C2895 N2898 1.384 . S
C2896 H2887 0.929 . S
C2896 C2888 1.378 . S
C2896 C2891 1.350 . S
C2897 H2884 0.929 . S
C2897 C2889 1.433 . S
C2897 N2899 1.384 . S
N2898 C2894 1.427 . S
N2898 C2895 1.384 . S
N2899 C2891 1.427 . S
N2899 C2897 1.384 . S
H2900 C2906 0.930 . S
H2901 C2910 0.930 . S
H2902 C2915 0.929 . S
H2903 C2913 0.929 . S
H2904 C2908 0.929 . S
H2905 C2914 0.929 . S
C2906 H2900 0.930 . S
C2906 C2907 1.367 . S
C2906 C2914 1.378 . S
C2907 C2906 1.367 . S
C2907 C2915 1.433 . S
C2908 H2904 0.929 . S
C2908 C2910 1.378 . S
C2908 C2912 1.350 . S
C2909 C2912 1.463 . S
C2909 C2914 1.350 . S
C2909 N2917 1.427 . S
C2910 H2901 0.930 . S
C2910 C2908 1.378 . S
C2910 C2911 1.367 . S
C2911 C2910 1.367 . S
C2911 C2913 1.433 . S
C2912 C2908 1.350 . S
C2912 C2909 1.463 . S
C2912 N2916 1.427 . S
C2913 H2903 0.929 . S
C2913 C2911 1.433 . S
C2913 N2916 1.384 . S
C2914 H2905 0.929 . S
C2914 C2906 1.378 . S
C2914 C2909 1.350 . S
C2915 H2902 0.929 . S
C2915 C2907 1.433 . S
C2915 N2917 1.384 . S
N2916 C2912 1.427 . S
N2916 C2913 1.384 . S
N2917 C2909 1.427 . S
N2917 C2915 1.384 . S
H2918 C2924 0.930 . S
H2919 C2928 0.930 . S
H2920 C2933 0.929 . S
H2921 C2931 0.929 . S
H2922 C2926 0.929 . S
H2923 C2932 0.929 . S
C2924 H2918 0.930 . S
C2924 C2925 1.367 . S
C2924 C2932 1.378 . S
C2925 C2924 1.367 . S
C2925 C2933 1.433 . S
C2926 H2922 0.929 . S
C2926 C2928 1.378 . S
C2926 C2930 1.350 . S
C2927 C2930 1.463 . S
C2927 C2932 1.350 . S
C2927 N2935 1.427 . S
C2928 H2919 0.930 . S
C2928 C2926 1.378 . S
C2928 C2929 1.367 . S
C2929 C2928 1.367 . S
C2929 C2931 1.433 . S
C2930 C2926 1.350 . S
C2930 C2927 1.463 . S
C2930 N2934 1.427 . S
C2931 H2921 0.929 . S
C2931 C2929 1.433 . S
C2931 N2934 1.384 . S
C2932 H2923 0.929 . S
C2932 C2924 1.378 . S
C2932 C2927 1.350 . S
C2933 H2920 0.929 . S
C2933 C2925 1.433 . S
C2933 N2935 1.384 . S
N2934 C2930 1.427 . S
N2934 C2931 1.384 . S
N2935 C2927 1.427 . S
N2935 C2933 1.384 . S
H2936 C2942 0.930 . S
H2937 C2946 0.930 . S
H2938 C2951 0.929 . S
H2939 C2949 0.929 . S
H2940 C2944 0.929 . S
H2941 C2950 0.929 . S
C2942 H2936 0.930 . S
C2942 C2943 1.367 . S
C2942 C2950 1.378 . S
C2943 C2942 1.367 . S
C2943 C2951 1.433 . S
C2944 H2940 0.929 . S
C2944 C2946 1.378 . S
C2944 C2948 1.350 . S
C2945 C2948 1.463 . S
C2945 C2950 1.350 . S
C2945 N2953 1.427 . S
C2946 H2937 0.930 . S
C2946 C2944 1.378 . S
C2946 C2947 1.367 . S
C2947 C2946 1.367 . S
C2947 C2949 1.433 . S
C2948 C2944 1.350 . S
C2948 C2945 1.463 . S
C2948 N2952 1.427 . S
C2949 H2939 0.929 . S
C2949 C2947 1.433 . S
C2949 N2952 1.384 . S
C2950 H2941 0.929 . S
C2950 C2942 1.378 . S
C2950 C2945 1.350 . S
C2951 H2938 0.929 . S
C2951 C2943 1.433 . S
C2951 N2953 1.384 . S
N2952 C2948 1.427 . S
N2952 C2949 1.384 . S
N2953 C2945 1.427 . S
N2953 C2951 1.384 . S
H2954 C2960 0.930 . S
H2955 C2964 0.930 . S
H2956 C2969 0.929 . S
H2957 C2967 0.929 . S
H2958 C2962 0.929 . S
H2959 C2968 0.929 . S
C2960 H2954 0.930 . S
C2960 C2961 1.367 . S
C2960 C2968 1.378 . S
C2961 C2960 1.367 . S
C2961 C2969 1.433 . S
C2962 H2958 0.929 . S
C2962 C2964 1.378 . S
C2962 C2966 1.350 . S
C2963 C2966 1.463 . S
C2963 C2968 1.350 . S
C2963 N2971 1.427 . S
C2964 H2955 0.930 . S
C2964 C2962 1.378 . S
C2964 C2965 1.367 . S
C2965 C2964 1.367 . S
C2965 C2967 1.433 . S
C2966 C2962 1.350 . S
C2966 C2963 1.463 . S
C2966 N2970 1.427 . S
C2967 H2957 0.929 . S
C2967 C2965 1.433 . S
C2967 N2970 1.384 . S
C2968 H2959 0.929 . S
C2968 C2960 1.378 . S
C2968 C2963 1.350 . S
C2969 H2956 0.929 . S
C2969 C2961 1.433 . S
C2969 N2971 1.384 . S
N2970 C2966 1.427 . S
N2970 C2967 1.384 . S
N2971 C2963 1.427 . S
N2971 C2969 1.384 . S
H2972 C2978 0.930 . S
H2973 C2982 0.930 . S
H2974 C2987 0.929 . S
H2975 C2985 0.929 . S
H2976 C2980 0.929 . S
H2977 C2986 0.929 . S
C2978 H2972 0.930 . S
C2978 C2979 1.367 . S
C2978 C2986 1.378 . S
C2979 C2978 1.367 . S
C2979 C2987 1.433 . S
C2980 H2976 0.929 . S
C2980 C2982 1.378 . S
C2980 C2984 1.350 . S
C2981 C2984 1.463 . S
C2981 C2986 1.350 . S
C2981 N2989 1.427 . S
C2982 H2973 0.930 . S
C2982 C2980 1.378 . S
C2982 C2983 1.367 . S
C2983 C2982 1.367 . S
C2983 C2985 1.433 . S
C2984 C2980 1.350 . S
C2984 C2981 1.463 . S
C2984 N2988 1.427 . S
C2985 H2975 0.929 . S
C2985 C2983 1.433 . S
C2985 N2988 1.384 . S
C2986 H2977 0.929 . S
C2986 C2978 1.378 . S
C2986 C2981 1.350 . S
C2987 H2974 0.929 . S
C2987 C2979 1.433 . S
C2987 N2989 1.384 . S
N2988 C2984 1.427 . S
N2988 C2985 1.384 . S
N2989 C2981 1.427 . S
N2989 C2987 1.384 . S
H2990 C2996 0.930 . S
H2991 C3000 0.930 . S
H2992 C3005 0.929 . S
H2993 C3003 0.929 . S
H2994 C2998 0.929 . S
H2995 C3004 0.929 . S
C2996 H2990 0.930 . S
C2996 C2997 1.367 . S
C2996 C3004 1.378 . S
C2997 C2996 1.367 . S
C2997 C3005 1.433 . S
C2998 H2994 0.929 . S
C2998 C3000 1.378 . S
C2998 C3002 1.350 . S
C2999 C3002 1.463 . S
C2999 C3004 1.350 . S
C2999 N3007 1.427 . S
C3000 H2991 0.930 . S
C3000 C2998 1.378 . S
C3000 C3001 1.367 . S
C3001 C3000 1.367 . S
C3001 C3003 1.433 . S
C3002 C2998 1.350 . S
C3002 C2999 1.463 . S
C3002 N3006 1.427 . S
C3003 H2993 0.929 . S
C3003 C3001 1.433 . S
C3003 N3006 1.384 . S
C3004 H2995 0.929 . S
C3004 C2996 1.378 . S
C3004 C2999 1.350 . S
C3005 H2992 0.929 . S
C3005 C2997 1.433 . S
C3005 N3007 1.384 . S
N3006 C3002 1.427 . S
N3006 C3003 1.384 . S
N3007 C2999 1.427 . S
N3007 C3005 1.384 . S
C1287 C6 1.080 . S
C1291 C139 1.032 . S
C1305 C19 1.048 . S
C1309 C46 1.078 1_545 S
C1323 C86 1.078 . S
C1327 C59 1.046 . S
C1341 C99 1.041 . S
C1345 C126 1.079 1_565 S
C1359 C219 1.024 . S
C1363 C166 1.081 . S
C1377 C206 1.081 1_545 S
C1381 C259 1.024 . S
C1395 C299 1.027 . S
C1399 C246 1.081 . S
C1413 C179 1.025 . S
C1417 C286 1.081 1_565 S
C1431 C335 1.081 . S
C1435 C450 1.023 . S
C1449 C375 1.078 1_565 S
C1453 C330 1.044 . S
C1467 C415 1.081 . S
C1471 C370 1.027 . S
C1485 C455 1.081 1_545 S
C1489 C410 1.028 . S
C1503 C495 1.080 . S
C1507 C530 1.030 . S
C1521 C535 1.078 1_565 S
C1525 C570 1.046 . S
C1539 C610 1.036 . S
C1543 C575 1.079 . S
C1557 C490 1.044 . S
C1561 C615 1.078 1_545 S
C1575 C646 1.081 . S
C1579 C779 1.028 . S
C1593 C659 1.032 . S
C1597 C686 1.080 . S
C1611 C699 1.042 . S
C1615 C726 1.079 . S
C1629 C766 1.080 . S
C1633 C739 1.031 . S
C1647 C806 1.079 . S
C1651 C859 1.042 . S
C1665 C899 1.027 . S
C1669 C846 1.081 . S
C1683 C886 1.079 . S
C1687 C939 1.037 . S
C1701 C819 1.024 . S
C1705 C926 1.081 . S
C1719 C1090 1.034 . S
C1723 C975 1.080 . S
C1737 C970 1.042 . S
C1741 C1015 1.078 . S
C1755 C1055 1.080 . S
C1759 C1010 1.033 . S
C1773 C1050 1.046 . S
C1777 C1095 1.078 . S
C1791 C1170 1.047 . S
C1795 C1135 1.078 . S
C1809 C1210 1.048 . S
C1813 C1175 1.078 . S
C1827 C1250 1.029 . S
C1831 C1215 1.080 . S
C1845 C1255 1.079 . S
C1849 C1130 1.042 . S
C1863 C1086 1.598 . S
C1867 C9 1.548 . S
C1881 C49 1.540 . S
C1885 C326 1.560 1_455 S
C1899 C89 1.545 . S
C1903 C1006 1.593 . S
C1917 C129 1.538 . S
C1921 C406 1.595 . S
C1935 C169 1.535 . S
C1939 C1166 1.594 . S
C1953 C566 1.598 . S
C1957 C209 1.549 . S
C1971 C1246 1.592 . S
C1975 C249 1.534 . S
C1989 C289 1.546 . S
C1993 C486 1.582 1_455 S
C2007 C338 1.542 . S
C2011 C775 1.592 . S
C2025 C15 1.568 1_655 S
C2029 C378 1.549 . S
C2043 C695 1.595 . S
C2047 C418 1.536 . S
C2061 C95 1.598 . S
C2065 C458 1.549 . S
C2079 C855 1.594 . S
C2083 C498 1.546 . S
C2097 C255 1.593 . S
C2101 C538 1.534 . S
C2115 C578 1.541 . S
C2119 C935 1.591 . S
C2133 C618 1.549 . S
C2137 C175 1.568 1_655 S
C2151 C649 1.543 . S
C2155 C446 1.592 . S
C2169 C689 1.546 . S
C2173 C966 1.594 . S
C2187 C729 1.543 . S
C2191 C366 1.592 . S
C2205 C769 1.539 . S
C2209 C1046 1.560 1_655 S
C2223 C809 1.537 . S
C2227 C526 1.590 . S
C2241 C849 1.549 . S
C2245 C1206 1.573 1_655 S
C2259 C606 1.592 . S
C2263 C889 1.534 . S
C2277 C929 1.539 . S
C2281 C1126 1.591 . S
C2295 C135 1.598 . S
C2299 C978 1.549 . S
C2313 C655 1.592 . S
C2317 C1018 1.534 . S
C2331 C55 1.598 . S
C2335 C1058 1.549 . S
C2349 C735 1.586 1_455 S
C2353 C1098 1.543 . S
C2367 C215 1.594 . S
C2371 C1138 1.547 . S
C2385 C1178 1.549 . S
C2389 C895 1.573 1_455 S
C2403 C1218 1.548 . S
C2407 C295 1.598 . S
C2421 C815 1.598 . S
C2425 C1258 1.549 . S
C2439 C18 0.651 . S
C2443 C178 0.660 . S
C2457 C58 0.674 . S
C2461 C218 0.651 . S
C2475 C98 0.651 . S
C2479 C258 0.661 . S
C2493 C298 0.678 . S
C2497 C138 0.654 . S
C2511 C489 0.671 . S
C2515 C329 0.650 . S
C2529 C529 0.681 . S
C2533 C369 0.658 . S
C2547 C409 0.655 . S
C2551 C569 0.655 . S
C2565 C449 0.654 . S
C2569 C609 0.678 . S
C2583 C658 0.678 . S
C2587 C818 0.678 . S
C2601 C858 0.683 . S
C2605 C698 0.664 . S
C2619 C898 0.683 . S
C2623 C738 0.668 . S
C2637 C938 0.679 . S
C2641 C778 0.655 . S
C2655 C1129 0.674 . S
C2659 C969 0.651 . S
C2673 C1009 0.682 . S
C2677 C1169 0.659 . S
C2691 C1209 0.672 . S
C2695 C1049 0.682 . S
C2709 C1089 0.675 . S
C2713 C1249 0.680 . S
C2727 C290 2.735 . S
C2731 C10 2.736 . S
C2745 C50 2.735 . S
C2749 C170 2.734 . S
C2763 C90 2.735 . S
C2767 C210 2.736 . S
C2781 C250 2.734 . S
C2785 C130 2.735 . S
C2799 C339 2.735 . S
C2803 C619 2.736 . S
C2817 C499 2.735 . S
C2821 C379 2.735 . S
C2835 C539 2.735 . S
C2839 C419 2.736 . S
C2853 C459 2.735 . S
C2857 C579 2.736 . S
C2871 C650 2.735 . S
C2875 C930 2.736 . S
C2889 C810 2.734 . S
C2893 C690 2.735 . S
C2907 C850 2.734 . S
C2911 C730 2.734 . S
C2925 C890 2.734 . S
C2929 C770 2.734 . S
C2943 C979 2.736 . S
C2947 C1259 2.735 . S
C2961 C1139 2.735 . S
C2965 C1019 2.735 . S
C2979 C1059 2.734 . S
C2983 C1179 2.734 . S
C2997 C1219 2.734 . S
C3001 C1099 2.735 . S
