# Generated by pormake.
# Topology wlb, (5)-cn, num edge types: 1
# Building blocks:
#     Node 0, Type 0, BuildingBlock: BEQFEK_clean_sbu_0, # of connection points: 5
#     Node 1, Type 0, BuildingBlock: BEQFEK_clean_sbu_0, # of connection points: 5
#     Node 2, Type 0, BuildingBlock: BEQFEK_clean_sbu_0, # of connection points: 5
#     Node 3, Type 0, BuildingBlock: BEQFEK_clean_sbu_0, # of connection points: 5
#     Node 4, Type 0, BuildingBlock: BEQFEK_clean_sbu_0, # of connection points: 5
#     Node 5, Type 0, BuildingBlock: BEQFEK_clean_sbu_0, # of connection points: 5
#     Node 6, Type 0, BuildingBlock: BEQFEK_clean_sbu_0, # of connection points: 5
#     Node 7, Type 0, BuildingBlock: BEQFEK_clean_sbu_0, # of connection points: 5
#     Node 8, Type 0, BuildingBlock: BEQFEK_clean_sbu_0, # of connection points: 5
#     Node 9, Type 0, BuildingBlock: BEQFEK_clean_sbu_0, # of connection points: 5
#     Node 10, Type 0, BuildingBlock: BEQFEK_clean_sbu_0, # of connection points: 5
#     Node 11, Type 0, BuildingBlock: BEQFEK_clean_sbu_0, # of connection points: 5
#     Node 12, Type 0, BuildingBlock: BEQFEK_clean_sbu_0, # of connection points: 5
#     Node 13, Type 0, BuildingBlock: BEQFEK_clean_sbu_0, # of connection points: 5
#     Node 14, Type 0, BuildingBlock: BEQFEK_clean_sbu_0, # of connection points: 5
#     Node 15, Type 0, BuildingBlock: BEQFEK_clean_sbu_0, # of connection points: 5
#     Node 16, Type 0, BuildingBlock: BEQFEK_clean_sbu_0, # of connection points: 5
#     Node 17, Type 0, BuildingBlock: BEQFEK_clean_sbu_0, # of connection points: 5
#     Edge 18, Type (0, 0), BuildingBlock: OJICUG_clean_linker_0, # of connection points: 2
#     Edge 19, Type (0, 0), BuildingBlock: OJICUG_clean_linker_0, # of connection points: 2
#     Edge 20, Type (0, 0), BuildingBlock: OJICUG_clean_linker_0, # of connection points: 2
#     Edge 21, Type (0, 0), BuildingBlock: OJICUG_clean_linker_0, # of connection points: 2
#     Edge 22, Type (0, 0), BuildingBlock: OJICUG_clean_linker_0, # of connection points: 2
#     Edge 23, Type (0, 0), BuildingBlock: OJICUG_clean_linker_0, # of connection points: 2
#     Edge 24, Type (0, 0), BuildingBlock: OJICUG_clean_linker_0, # of connection points: 2
#     Edge 25, Type (0, 0), BuildingBlock: OJICUG_clean_linker_0, # of connection points: 2
#     Edge 26, Type (0, 0), BuildingBlock: OJICUG_clean_linker_0, # of connection points: 2
#     Edge 27, Type (0, 0), BuildingBlock: OJICUG_clean_linker_0, # of connection points: 2
#     Edge 28, Type (0, 0), BuildingBlock: OJICUG_clean_linker_0, # of connection points: 2
#     Edge 29, Type (0, 0), BuildingBlock: OJICUG_clean_linker_0, # of connection points: 2
#     Edge 30, Type (0, 0), BuildingBlock: OJICUG_clean_linker_0, # of connection points: 2
#     Edge 31, Type (0, 0), BuildingBlock: OJICUG_clean_linker_0, # of connection points: 2
#     Edge 32, Type (0, 0), BuildingBlock: OJICUG_clean_linker_0, # of connection points: 2
#     Edge 33, Type (0, 0), BuildingBlock: OJICUG_clean_linker_0, # of connection points: 2
#     Edge 34, Type (0, 0), BuildingBlock: OJICUG_clean_linker_0, # of connection points: 2
#     Edge 35, Type (0, 0), BuildingBlock: OJICUG_clean_linker_0, # of connection points: 2
#     Edge 36, Type (0, 0), BuildingBlock: OJICUG_clean_linker_0, # of connection points: 2
#     Edge 37, Type (0, 0), BuildingBlock: OJICUG_clean_linker_0, # of connection points: 2
#     Edge 38, Type (0, 0), BuildingBlock: OJICUG_clean_linker_0, # of connection points: 2
#     Edge 39, Type (0, 0), BuildingBlock: OJICUG_clean_linker_0, # of connection points: 2
#     Edge 40, Type (0, 0), BuildingBlock: OJICUG_clean_linker_0, # of connection points: 2
#     Edge 41, Type (0, 0), BuildingBlock: OJICUG_clean_linker_0, # of connection points: 2
#     Edge 42, Type (0, 0), BuildingBlock: OJICUG_clean_linker_0, # of connection points: 2
#     Edge 43, Type (0, 0), BuildingBlock: OJICUG_clean_linker_0, # of connection points: 2
#     Edge 44, Type (0, 0), BuildingBlock: OJICUG_clean_linker_0, # of connection points: 2
#     Edge 45, Type (0, 0), BuildingBlock: OJICUG_clean_linker_0, # of connection points: 2
#     Edge 46, Type (0, 0), BuildingBlock: OJICUG_clean_linker_0, # of connection points: 2
#     Edge 47, Type (0, 0), BuildingBlock: OJICUG_clean_linker_0, # of connection points: 2
#     Edge 48, Type (0, 0), BuildingBlock: OJICUG_clean_linker_0, # of connection points: 2
#     Edge 49, Type (0, 0), BuildingBlock: OJICUG_clean_linker_0, # of connection points: 2
#     Edge 50, Type (0, 0), BuildingBlock: OJICUG_clean_linker_0, # of connection points: 2
#     Edge 51, Type (0, 0), BuildingBlock: OJICUG_clean_linker_0, # of connection points: 2
#     Edge 52, Type (0, 0), BuildingBlock: OJICUG_clean_linker_0, # of connection points: 2
#     Edge 53, Type (0, 0), BuildingBlock: OJICUG_clean_linker_0, # of connection points: 2
#     Edge 54, Type (0, 0), BuildingBlock: OJICUG_clean_linker_0, # of connection points: 2
#     Edge 55, Type (0, 0), BuildingBlock: OJICUG_clean_linker_0, # of connection points: 2
#     Edge 56, Type (0, 0), BuildingBlock: OJICUG_clean_linker_0, # of connection points: 2
#     Edge 57, Type (0, 0), BuildingBlock: OJICUG_clean_linker_0, # of connection points: 2
#     Edge 58, Type (0, 0), BuildingBlock: OJICUG_clean_linker_0, # of connection points: 2
#     Edge 59, Type (0, 0), BuildingBlock: OJICUG_clean_linker_0, # of connection points: 2
#     Edge 60, Type (0, 0), BuildingBlock: OJICUG_clean_linker_0, # of connection points: 2
#     Edge 61, Type (0, 0), BuildingBlock: OJICUG_clean_linker_0, # of connection points: 2
#     Edge 62, Type (0, 0), BuildingBlock: OJICUG_clean_linker_0, # of connection points: 2
# Relax obj value: 0.430
# Max RMSD: 0.225
# Mean RMSD: 0.225
data_MOF--net-wlb--node1-BEQFEK_clean_sbu_0--edge1-OJICUG_clean_linker_0
_symmetry_space_group_name_H-M    P1
_symmetry_Int_Tables_number       1
_symmetry_cell_setting            triclinic
loop_
_symmetry_equiv_pos_as_xyz
'x, y, z'
_cell_length_a     41.490538
_cell_length_b     41.195385
_cell_length_c     25.687063
_cell_angle_alpha  89.387628
_cell_angle_beta   90.247118
_cell_angle_gamma 120.19901
loop_
_atom_site_label
_atom_site_type_symbol
_atom_site_fract_x
_atom_site_fract_y
_atom_site_fract_z
_atom_type_partial_charge
Co0 Co 0.04851 0.16924 0.2275 0.0
Co1 Co 0.04815 0.22529 0.15722 0.0
C2 C 0.03902 0.16543 0.10487 0.0
O3 O 0.03215 0.15027 0.15033 0.0
O4 O 0.05857 0.20083 0.10112 0.0
C5 C 0.03691 0.09978 0.26002 0.0
O6 O 0.00414 0.08987 0.23974 0.0
C7 C 0.03993 0.27262 0.07966 0.0
C8 C 0.03296 0.31148 0.13012 0.0
C9 C 0.03111 0.30086 0.07854 0.0
N10 N 0.04503 0.26593 0.12939 0.0
N11 N 0.04188 0.28999 0.1593 0.0
C12 C 0.041 0.25068 1.03434 0.0
H13 H 0.06794 0.25112 1.0342 0.0
H14 H 0.03808 0.2626 0.99685 0.0
H15 H 0.01814 0.22113 1.03834 0.0
C16 C 0.10751 0.24084 0.28289 0.0
N17 N 0.08537 0.22107 0.24239 0.0
N18 N 0.0871 0.24482 0.20708 0.0
C19 C 0.11283 0.28008 0.22068 0.0
C20 C 0.12607 0.27983 0.27118 0.0
C21 C 0.10702 0.22259 0.33373 0.0
H22 H 0.08428 0.19278 0.33438 0.0
H23 H 0.134 0.22349 0.33919 0.0
H24 H 0.10303 0.23771 0.3663 0.0
O25 O 0.0023 0.1605 0.25691 0.0
O26 O 0.99507 0.1847 0.18382 0.0
H27 H 0.11223 0.32758 0.18606 0.0
H28 H 0.15771 0.33202 0.18947 0.0
C29 C 0.12762 0.31222 0.18252 0.0
H30 H 0.12377 0.30155 0.14213 0.0
H31 H 0.04339 0.29006 0.19987 0.0
O32 O 0.06168 0.13439 0.26084 0.0
C33 C 0.9809 0.16229 0.22305 0.0
Co34 Co 0.83876 0.93255 0.22261 0.0
Co35 Co 0.81813 0.85206 0.25108 0.0
C36 C 0.84589 0.88923 0.14205 0.0
O37 O 0.84149 0.91764 0.14777 0.0
O38 O 0.83834 0.86602 0.17945 0.0
C39 C 0.86288 0.01182 0.19374 0.0
O40 O 0.85439 0.99986 0.14567 0.0
C41 C 0.77641 0.77501 0.22129 0.0
C42 C 0.79893 0.74842 0.27401 0.0
C43 C 0.77579 0.74174 0.23153 0.0
N44 N 0.79912 0.80032 0.25595 0.0
N45 N 0.81219 0.78431 0.28784 0.0
C46 C 0.7594 0.78409 0.17594 0.0
H47 H 0.76981 0.81465 0.17329 0.0
H48 H 0.72871 0.76951 0.18088 0.0
H49 H 0.7655 0.77415 0.1393 0.0
C50 C 0.76153 0.90305 0.27781 0.0
N51 N 0.79013 0.89967 0.25801 0.0
N52 N 0.78243 0.86506 0.26737 0.0
C53 C 0.74979 0.84567 0.29291 0.0
C54 C 0.73473 0.86863 0.30028 0.0
C55 C 0.76001 0.93849 0.27613 0.0
H56 H 0.77757 0.95699 0.24384 0.0
H57 H 0.73076 0.93208 0.27162 0.0
H58 H 0.77088 0.9535 0.31342 0.0
O59 O 0.882 0.92712 0.25043 0.0
O60 O 0.85973 0.87569 0.29819 0.0
H61 H 0.7583 0.80396 0.33096 0.0
H62 H 0.71393 0.7999 0.34526 0.0
C63 C 0.73509 0.80676 0.3144 0.0
H64 H 0.72218 0.78625 0.28244 0.0
H65 H 0.83169 0.7984 0.31712 0.0
O66 O 0.85651 0.98801 0.23017 0.0
C67 C 0.88733 0.90496 0.27959 0.0
Co68 Co 0.0835 0.92885 0.20924 0.0
Co69 Co 0.15423 0.98959 0.26168 0.0
C70 C 0.14223 0.98229 0.1404 0.0
O71 O 0.11132 0.9513 0.14359 0.0
O72 O 0.16037 0.99921 0.18163 0.0
C73 C 0.01428 0.88565 0.24719 0.0
O74 O 0.03475 0.89003 0.28857 0.0
C75 C 0.2271 0.01041 0.29777 0.0
C76 C 0.23399 0.04692 0.36455 0.0
C77 C 0.24858 0.02686 0.34157 0.0
N78 N 0.19965 0.01841 0.29675 0.0
N79 N 0.20419 0.04083 0.33603 0.0
C80 C 0.23152 0.98669 0.25779 0.0
H81 H 0.21672 0.98615 0.22143 0.0
H82 H 0.21931 0.95743 0.27241 0.0
H83 H 0.2615 0.99771 0.24937 0.0
C84 C 0.10707 0.87868 0.26621 0.0
N85 N 0.10939 0.9119 0.25401 0.0
N86 N 0.13479 0.93805 0.2836 0.0
C87 C 0.14615 0.9216 0.31942 0.0
C88 C 0.13049 0.88365 0.30839 0.0
C89 C 0.08299 0.84287 0.2381 0.0
H90 H 0.0614 0.84485 0.21494 0.0
H91 H 0.1006 0.83738 0.21134 0.0
H92 H 0.06976 0.81909 0.26628 0.0
O93 O 0.07548 0.96881 0.24042 0.0
O94 O 0.12351 0.00867 0.28678 0.0
H95 H 0.17152 0.96866 0.37163 0.0
H96 H 0.15366 0.9238 0.40208 0.0
C97 C 0.1683 0.94055 0.36699 0.0
H98 H 0.19562 0.94206 0.36546 0.0
H99 H 0.18554 0.04983 0.34555 0.0
O100 O 0.02979 0.8918 0.20257 0.0
C101 C 0.09092 0.99708 0.27013 0.0
Co102 Co 0.15183 0.08049 0.8474 0.0
Co103 Co 0.18715 0.03583 0.8144 0.0
C104 C 0.17276 0.04722 0.9307 0.0
O105 O 0.16284 0.07129 0.92039 0.0
O106 O 0.18156 0.03255 0.89377 0.0
C107 C 0.1046 0.0997 0.79948 0.0
O108 O 0.11928 0.09266 0.759 0.0
C109 C 0.26018 0.04799 0.81689 0.0
C110 C 0.25904 0.00771 0.76011 0.0
C111 C 0.2829 0.03734 0.79215 0.0
N112 N 0.22524 0.02628 0.79978 0.0
N113 N 0.22452 0.00232 0.76556 0.0
C114 C 0.27136 0.07958 0.85429 0.0
H115 H 0.25367 0.09245 0.84939 0.0
H116 H 0.30112 0.10138 0.84894 0.0
H117 H 0.26693 0.06832 0.89468 0.0
C118 C 0.22094 0.14175 0.78707 0.0
N119 N 0.19544 0.10661 0.80372 0.0
N120 N 0.20281 0.08283 0.78093 0.0
C121 C 0.2302 0.10116 0.74559 0.0
C122 C 0.24393 0.13933 0.74925 0.0
C123 C 0.22452 0.17694 0.80847 0.0
H124 H 0.22794 0.1965 0.7761 0.0
H125 H 0.19975 0.17057 0.83236 0.0
H126 H 0.24991 0.19098 0.83305 0.0
O127 O 0.11497 0.02914 0.81833 0.0
O128 O 0.14036 0.99763 0.78624 0.0
H129 H 0.22352 0.05266 0.705 0.0
H130 H 0.24921 0.09634 0.67005 0.0
C131 C 0.24419 0.08289 0.7091 0.0
H132 H 0.27131 0.08702 0.72311 0.0
H133 H 0.20079 0.98301 0.74532 0.0
O134 O 0.11915 0.10241 0.84417 0.0
C135 C 0.1118 1.00027 0.79559 0.0
Co136 Co 0.8864 0.05785 0.8504 0.0
Co137 Co 0.94213 0.13529 0.80912 0.0
C138 C 0.94104 0.10749 0.92367 0.0
O139 O 0.9086 0.07797 0.92231 0.0
O140 O 0.954 0.12797 0.88292 0.0
C141 C 0.83733 0.97865 0.88503 0.0
O142 O 0.84493 0.99066 0.93317 0.0
C143 C 0.97563 0.21201 0.83077 0.0
C144 C 0.02315 0.23775 0.77586 0.0
C145 C 0.00805 0.24491 0.81927 0.0
N146 N 0.9719 0.18636 0.79625 0.0
N147 N -0.0003 0.20189 0.76253 0.0
C148 C 0.95235 0.20285 0.87907 0.0
H149 H 0.92872 0.17353 0.87832 0.0
H150 H 0.94079 0.22184 0.88217 0.0
H151 H 0.96988 0.20699 0.91395 0.0
C152 C 0.83305 0.0808 0.79663 0.0
N153 N 0.86679 0.08658 0.81308 0.0
N154 N 0.89226 0.11999 0.79641 0.0
C155 C 0.87633 0.13622 0.76887 0.0
C156 C 0.83809 0.1122 0.76776 0.0
C157 C 0.79694 0.04543 0.80621 0.0
H158 H 0.799 0.03054 0.84121 0.0
H159 H 0.77404 0.05169 0.81091 0.0
H160 H 0.7904 0.02685 0.77207 0.0
O161 O 0.93266 0.06145 0.81758 0.0
O162 O 0.95924 0.10998 0.76414 0.0
H163 H 0.87994 0.17959 0.7162 0.0
H164 H 0.90912 0.19598 0.77309 0.0
C165 C 0.8977 0.17395 0.74288 0.0
H166 H 0.92146 0.17574 0.72077 0.0
H167 H 0.00445 0.1872 0.73357 0.0
O168 O 0.84996 0.00247 0.84777 0.0
C169 C 0.95793 0.08124 0.78428 0.0
Co170 Co 0.88975 0.83773 0.83546 0.0
Co171 Co 0.83889 0.77923 0.9104 0.0
C172 C 0.8898 0.8411 0.95835 0.0
O173 O 0.89482 0.85558 0.91267 0.0
O174 O 0.8757 0.80593 0.96321 0.0
C175 C 0.96462 0.87109 0.79622 0.0
O176 O 0.96169 0.83893 0.81014 0.0
C177 C 0.7848 0.73249 0.98924 0.0
C178 C 0.74049 0.68975 0.94006 0.0
C179 C 0.74823 0.70295 0.9907 0.0
N180 N 0.79723 0.7371 0.94003 0.0
N181 N 0.77087 0.71092 0.91101 0.0
C182 C 0.80658 0.75791 1.033 0.0
H183 H 0.83413 0.75975 1.03569 0.0
H184 H 0.79185 0.74733 0.07077 0.0
H185 H 0.81143 0.78655 1.02493 0.0
C186 C 0.87571 0.76659 0.77789 0.0
N187 N 0.87619 0.78641 0.82011 0.0
N188 N 0.85867 0.76267 0.85802 0.0
C189 C 0.84973 0.72781 0.84375 0.0
C190 C 0.85823 0.72811 0.79107 0.0
C191 C 0.8873 0.78364 0.72475 0.0
H192 H 0.89314 0.81307 0.72444 0.0
H193 H 0.91295 0.78349 0.71315 0.0
H194 H 0.86513 0.76688 0.69605 0.0
O195 O 0.84913 0.84431 0.8128 0.0
O196 O 0.82084 0.81564 0.88611 0.0
H197 H 0.80779 0.67863 0.88504 0.0
H198 H 0.84947 0.67777 0.86989 0.0
C199 C 0.83845 0.69612 0.88212 0.0
H200 H 0.8492 0.70747 0.92141 0.0
H201 H 0.77245 0.70947 0.87064 0.0
O202 O 0.93641 0.87523 0.80056 0.0
C203 C 0.82532 0.83808 0.84818 0.0
Co204 Co 0.74786 0.50326 0.55818 0.0
Co205 Co 0.68464 0.50737 0.60882 0.0
C206 C 0.69181 0.50253 0.48937 0.0
O207 O 0.72602 0.51075 0.49182 0.0
O208 O 0.67311 0.49828 0.53102 0.0
C209 C 0.76937 0.45603 0.52239 0.0
O210 O 0.74338 0.4522 0.48946 0.0
C211 C 0.62756 0.52617 0.62217 0.0
C212 C 0.62175 0.52515 0.70787 0.0
C213 C 0.60984 0.53355 0.66196 0.0
N214 N 0.64904 0.51421 0.6435 0.0
N215 N 0.64449 0.51212 0.69457 0.0
C216 C 0.62961 0.53649 0.56557 0.0
H217 H 0.65922 0.5528 0.55313 0.0
H218 H 0.61594 0.55307 0.55678 0.0
H219 H 0.6158 0.51037 0.5424 0.0
C220 C 0.79306 0.57423 0.62627 0.0
N221 N 0.76155 0.54481 0.60638 0.0
N222 N 0.73302 0.54788 0.62154 0.0
C223 C 0.74505 0.57946 0.64916 0.0
C224 C 0.78358 0.5971 0.655 0.0
C225 C 0.83126 0.57997 0.61882 0.0
H226 H 0.82974 0.55396 0.60428 0.0
H227 H 0.84649 0.60292 0.58994 0.0
H228 H 0.84697 0.58857 0.65601 0.0
O229 O 0.70474 0.45399 0.57899 0.0
O230 O 0.6777 0.46295 0.64463 0.0
H231 H 0.70631 0.58081 0.70268 0.0
H232 H 0.73649 0.62522 0.67092 0.0
C233 C 0.72033 0.59435 0.66551 0.0
H234 H 0.69883 0.58805 0.63544 0.0
H235 H 0.65904 0.5045 0.72048 0.0
O236 O 0.78401 0.48498 0.55126 0.0
C237 C 0.68046 0.44067 0.6146 0.0
Co238 Co 0.48696 0.24275 0.57511 0.0
Co239 Co 0.46024 0.16491 0.61384 0.0
C240 C 0.48371 0.19425 0.49824 0.0
O241 O 0.48106 0.22358 0.50293 0.0
O242 O 0.47738 0.17253 0.53756 0.0
C243 C 0.54613 0.3084 0.55353 0.0
O244 O 0.54861 0.28511 0.52149 0.0
C245 C 0.40833 0.09207 0.58601 0.0
C246 C 0.42545 0.0581 0.63297 0.0
C247 C 0.40427 0.05689 0.59027 0.0
N248 N 0.43181 0.11342 0.6231 0.0
N249 N 0.44096 0.09287 0.65259 0.0
C250 C 0.39716 0.10761 0.54084 0.0
H251 H 0.40477 0.13715 0.54786 0.0
H252 H 0.36658 0.09073 0.53497 0.0
H253 H 0.41094 0.10604 0.50475 0.0
C254 C 0.41588 0.22957 0.63117 0.0
N255 N 0.44153 0.22045 0.61564 0.0
N256 N 0.43159 0.18684 0.63385 0.0
C257 C 0.40011 0.17374 0.66227 0.0
C258 C 0.38879 0.20031 0.66179 0.0
C259 C 0.417 0.26535 0.61693 0.0
H260 H 0.44263 0.28422 0.59447 0.0
H261 H 0.39207 0.25893 0.59328 0.0
H262 H 0.41587 0.27952 0.65282 0.0
O263 O 0.52608 0.2316 0.60226 0.0
O264 O 0.50589 0.18239 0.65378 0.0
H265 H 0.40025 0.129 0.70559 0.0
H266 H 0.35875 0.13228 0.71513 0.0
C267 C 0.37995 0.13527 0.6864 0.0
H268 H 0.36563 0.1143 0.65533 0.0
H269 H 0.46102 0.10358 0.68196 0.0
O270 O 0.51554 0.29752 0.57741 0.0
C271 C 0.53268 0.21058 0.63161 0.0
Co272 Co 0.73642 0.23578 0.54406 0.0
Co273 Co 0.81508 0.28657 0.5782 0.0
C274 C 0.78987 0.26638 0.46136 0.0
O275 O 0.75664 0.24003 0.47155 0.0
O276 O 0.81216 0.28462 0.49852 0.0
C277 C 0.66941 0.20921 0.59703 0.0
O278 O 0.69249 0.21753 0.63636 0.0
C279 C 0.88469 0.29075 0.57774 0.0
C280 C 0.91853 0.33713 0.6315 0.0
C281 C 0.91958 0.31045 0.59996 0.0
N282 N 0.86426 0.30506 0.59522 0.0
N283 N 0.88417 0.33244 0.62795 0.0
C284 C 0.86992 0.25769 0.54217 0.0
H285 H 0.84064 0.23694 0.55236 0.0
H286 H 0.88718 0.24408 0.54435 0.0
H287 H 0.86989 0.26718 0.50159 0.0
C288 C 0.74656 0.18106 0.61659 0.0
N289 N 0.75654 0.21497 0.59444 0.0
N290 N 0.78865 0.2399 0.61405 0.0
C291 C 0.79908 0.2235 0.65117 0.0
C292 C 0.77327 0.18538 0.65375 0.0
C293 C 0.71257 0.1451 0.60209 0.0
H294 H 0.69755 0.14966 0.56954 0.0
H295 H 0.72065 0.12424 0.59074 0.0
H296 H 0.6939 0.13355 0.63646 0.0
O297 O 0.74922 0.28978 0.55628 0.0
O298 O 0.80176 0.3235 0.59871 0.0
H299 H 0.84238 0.27318 0.68768 0.0
H300 H 0.83062 0.23017 0.72136 0.0
C301 C 0.83423 0.24338 0.6824 0.0
H302 H 0.8568 0.24151 0.66223 0.0
H303 H 0.8744 0.34792 0.64737 0.0
O304 O 0.6814 0.21057 0.55093 0.0
C305 C 0.77295 0.32067 0.5773 0.0
Co306 Co 0.81428 0.37636 0.17609 0.0
Co307 Co 0.8325 0.31911 0.12901 0.0
C308 C 0.82465 0.32707 0.24898 0.0
O309 O 0.82162 0.35627 0.24325 0.0
O310 O 0.82862 0.31065 0.20929 0.0
C311 C 0.75998 0.39112 0.20468 0.0
O312 O 0.75108 0.3596 0.22941 0.0
C313 C 0.89088 0.30605 0.09714 0.0
C314 C 0.86456 0.26672 1.03173 0.0
C315 C 0.89859 0.2905 0.05474 0.0
N316 N 0.85432 0.29387 0.09715 0.0
N317 N 0.8385 0.26977 0.05874 0.0
C318 C 0.91742 0.33272 0.13663 0.0
H319 H 0.90209 0.33216 0.17225 0.0
H320 H 0.93167 0.36176 0.12071 0.0
H321 H 0.93894 0.32525 0.14668 0.0
C322 C 0.88718 0.43066 0.11833 0.0
N323 N 0.85797 0.3965 0.13189 0.0
N324 N 0.86008 0.37083 0.10474 0.0
C325 C 0.88759 0.38807 0.06894 0.0
C326 C 0.90718 0.4265 0.07762 0.0
C327 C 0.89605 0.4666 0.14388 0.0
H328 H 0.87247 0.46261 0.16871 0.0
H329 H 0.92127 0.47621 0.16842 0.0
H330 H 0.90244 0.48861 0.11385 0.0
O331 O 0.76928 0.33285 0.14335 0.0
O332 O 0.78237 0.29421 0.10286 0.0
H333 H 0.869 0.34021 1.01886 0.0
H334 H 0.89407 0.38478 0.98683 0.0
C335 C 0.89269 0.36915 1.02293 0.0
H336 H 0.91947 0.36958 1.02607 0.0
H337 H 0.81041 0.25748 0.04863 0.0
O338 O 0.79218 0.40939 0.18359 0.0
C339 C 0.75903 0.3036 0.11631 0.0
Co340 Co 0.56798 0.41313 0.20921 0.0
Co341 Co 0.63352 0.48885 0.16833 0.0
C342 C 0.61754 0.4677 0.28621 0.0
O343 O 0.58595 0.43756 0.27985 0.0
O344 O 0.63633 0.48747 0.24696 0.0
C345 C 0.51763 0.33357 0.2439 0.0
O346 O 0.53235 0.34444 0.29033 0.0
C347 C 0.67372 0.56989 0.16251 0.0
C348 C 0.71561 0.58162 0.10126 0.0
C349 C 0.70338 0.59864 0.13587 0.0
N350 N 0.66816 0.53727 0.14397 0.0
N351 N 0.6929 0.54431 0.10688 0.0
C352 C 0.65313 0.57308 0.20808 0.0
H353 H 0.63067 0.545 0.22113 0.0
H354 H 0.64045 0.59031 0.19725 0.0
H355 H 0.67292 0.58734 0.24051 0.0
C356 C 0.52505 0.4431 0.14472 0.0
N357 N 0.55667 0.44427 0.16209 0.0
N358 N 0.58533 0.47485 0.14289 0.0
C359 C 0.57314 0.49299 0.11145 0.0
C360 C 0.53444 0.4739 0.11153 0.0
C361 C 0.48656 0.41365 0.16032 0.0
H362 H 0.48741 0.39653 0.19338 0.0
H363 H 0.47001 0.42696 0.17112 0.0
H364 H 0.4726 0.39512 0.12665 0.0
O365 O 0.61241 0.40793 0.18872 0.0
O366 O 0.65259 0.45755 0.14346 0.0
H367 H 0.58354 0.53468 0.05153 0.0
H368 H 0.6073 0.55277 0.1119 0.0
C369 C 0.59809 0.52944 0.08396 0.0
H370 H 0.62286 0.52939 0.06818 0.0
H371 H 0.69501 0.52366 0.08656 0.0
O372 O 0.52645 0.35826 0.20791 0.0
C373 C 0.64294 0.42576 0.16342 0.0
Co374 Co 0.5332 0.16548 0.18291 0.0
Co375 Co 0.47386 0.10886 0.24762 0.0
C376 C 0.52909 0.15626 0.30595 0.0
O377 O 0.53851 0.17613 0.26399 0.0
O378 O 0.50946 0.12104 0.3024 0.0
C379 C 0.60567 0.19079 0.13656 0.0
O380 O 0.59793 0.15583 0.14178 0.0
C381 C 0.41459 0.06062 0.31948 0.0
C382 C 0.37016 0.02469 0.26465 0.0
C383 C 0.37779 0.03223 0.3172 0.0
N384 N 0.42781 0.06966 0.27071 0.0
N385 N 0.40128 0.04769 0.23809 0.0
C386 C 0.43603 0.08044 0.36708 0.0
H387 H 0.46081 0.07703 0.37036 0.0
H388 H 0.41909 0.06883 0.40301 0.0
H389 H 0.44565 0.11082 0.36326 0.0
C390 C 0.51093 0.09495 0.11479 0.0
N391 N 0.51129 0.11418 0.15772 0.0
N392 N 0.48853 0.08995 0.19181 0.0
C393 C 0.47659 0.05474 0.17564 0.0
C394 C 0.48844 0.05581 0.12424 0.0
C395 C 0.52878 0.11404 0.06452 0.0
H396 H 0.53797 0.1444 0.06609 0.0
H397 H 0.55348 0.11102 0.05721 0.0
H398 H 0.50885 0.10096 1.0319 0.0
O399 O 0.50066 0.18421 0.16287 0.0
O400 O 0.46848 0.15646 0.23396 0.0
H401 H 0.42978 0.00693 0.21209 0.0
H402 H 0.47001 0.00188 0.2025 0.0
C403 C 0.46062 0.02192 0.21282 0.0
H404 H 0.46953 0.03183 0.2532 0.0
H405 H 0.40391 0.04961 0.19763 0.0
O406 O 0.58191 0.19966 0.15078 0.0
C407 C 0.47898 0.18234 0.19891 0.0
Co408 Co 0.39014 0.84132 0.87345 0.0
Co409 Co 0.33066 0.86263 0.88537 0.0
C410 C 0.3587 0.85065 0.7789 0.0
O411 O 0.38739 0.84973 0.79531 0.0
O412 O 0.33765 0.85427 0.81117 0.0
C413 C 0.44868 0.81865 0.89876 0.0
O414 O 0.47807 0.85064 0.88511 0.0
C415 C 0.33235 0.92798 0.85495 0.0
C416 C 0.28655 0.9282 0.89816 0.0
C417 C 0.31749 0.95003 0.86696 0.0
N418 N 0.31206 0.89487 0.87927 0.0
N419 N 0.28422 0.89458 0.90438 0.0
C420 C 0.3681 0.93977 0.82638 0.0
H421 H 0.38146 0.92383 0.84013 0.0
H422 H 0.3879 0.97027 0.83104 0.0
H423 H 0.36193 0.93395 0.78433 0.0
C424 C 0.43223 0.90848 0.94823 0.0
N425 N 0.40306 0.88374 0.9185 0.0
N426 N 0.37485 0.88898 0.92685 0.0
C427 C 0.38458 0.91633 0.9624 0.0
C428 C 0.42157 0.93026 0.97718 0.0
C429 C 0.46871 0.90961 0.95151 0.0
H430 H 0.46392 0.88225 0.9668 0.0
H431 H 0.48085 0.91393 0.91192 0.0
H432 H 0.48858 0.93229 0.97745 0.0
O433 O 0.33839 0.79954 0.88971 0.0
O434 O 0.29484 0.81247 0.91215 0.0
H435 H 0.32996 0.90653 0.98065 0.0
H436 H 0.36588 0.94301 1.01856 0.0
C437 C 0.35911 0.93011 0.97975 0.0
H438 H 0.36166 0.95215 0.95227 0.0
H439 H 0.26523 0.87253 0.92808 0.0
O440 O 0.41626 0.81412 0.89382 0.0
C441 C 0.30506 0.78858 0.90413 0.0
Co442 Co 0.15431 0.55705 0.90108 0.0
Co443 Co 0.14093 0.4814 0.93999 0.0
C444 C 0.15565 0.50726 0.82319 0.0
O445 O 0.15132 0.53551 0.83035 0.0
O446 O 0.15337 0.48621 0.86168 0.0
C447 C 0.20183 0.62998 0.87676 0.0
O448 O 0.21483 0.61123 0.85194 0.0
C449 C 0.09259 0.40336 0.93316 0.0
C450 C 0.11602 0.37879 0.98781 0.0
C451 C 0.08793 0.36976 0.95164 0.0
N452 N 0.12166 0.43105 0.95756 0.0
N453 N 0.13539 0.41653 0.99096 0.0
C454 C 0.07275 0.40956 0.88862 0.0
H455 H 0.08429 0.43992 0.88075 0.0
H456 H 0.04272 0.39696 0.89795 0.0
H457 H 0.07516 0.39569 0.85322 0.0
C458 C 0.07969 0.53021 0.95768 0.0
N459 N 0.10945 0.52729 0.94234 0.0
N460 N 0.10545 0.4957 0.96112 0.0
C461 C 0.07416 0.47844 0.99069 0.0
C462 C 0.05625 0.49936 0.98934 0.0
C463 C 0.07356 0.56178 0.94248 0.0
H464 H 0.09665 0.58257 0.91753 0.0
H465 H 0.04677 0.55051 0.92117 0.0
H466 H 0.07137 0.57562 0.97805 0.0
O467 O 0.20088 0.55946 0.93051 0.0
O468 O 0.18819 0.50884 0.97605 0.0
H469 H 0.04239 0.43827 0.05172 0.0
H470 H 0.04399 0.41848 0.99089 0.0
C471 C 0.06061 0.44161 1.01829 0.0
H472 H 0.08451 0.43913 1.03258 0.0
H473 H 0.15885 0.43231 1.01407 0.0
O474 O 0.17005 0.61153 0.89854 0.0
C475 C 0.21157 0.5412 0.95907 0.0
Co476 Co 0.43713 0.61509 0.91542 0.0
Co477 Co 0.51851 0.66844 0.94972 0.0
C478 C 0.49461 0.65745 0.83406 0.0
O479 O 0.46105 0.63253 0.84547 0.0
O480 O 0.51974 0.67182 0.86957 0.0
C481 C 0.36498 0.57658 0.95538 0.0
O482 O 0.38423 0.58589 0.99885 0.0
C483 C 0.59323 0.68523 0.9762 0.0
C484 C 0.60651 0.72474 1.04143 0.0
C485 C 0.6184 0.70312 1.01626 0.0
N486 N 0.56651 0.69425 0.97949 0.0
N487 N 0.57489 0.7184 1.01782 0.0
C488 C 0.59418 0.66014 0.93517 0.0
H489 H 0.57816 0.66015 0.90048 0.0
H490 H 0.58121 0.63091 0.95014 0.0
H491 H 0.6234 0.6695 0.92388 0.0
C492 C 0.45071 0.55908 0.9771 0.0
N493 N 0.46042 0.59401 0.95919 0.0
N494 N 0.49283 0.6182 0.97931 0.0
C495 C 0.50294 0.59985 1.014 0.0
C496 C 0.47738 0.56157 1.01286 0.0
C497 C 0.41627 0.52403 0.96099 0.0
H498 H 0.40548 0.52864 0.9237 0.0
H499 H 0.42206 0.50063 0.95718 0.0
H500 H 0.39464 0.51603 0.99151 0.0
O501 O 0.43999 0.66197 0.94147 0.0
O502 O 0.4971 0.69884 0.96981 0.0
H503 H 0.5425 0.64767 0.05796 0.0
H504 H 0.52799 0.6034 0.08894 0.0
C505 C 0.5351 0.61831 0.05089 0.0
H506 H 0.55919 0.61701 1.03523 0.0
H507 H 0.55794 0.72889 1.0299 0.0
O508 O 0.38215 0.58247 0.91219 0.0
C509 C 0.46477 0.6931 0.96016 0.0
Co510 Co 0.50568 0.74115 0.51886 0.0
Co511 Co 0.5491 0.69866 0.5208 0.0
C512 C 0.5244 0.7175 0.62134 0.0
O513 O 0.5092 0.73409 0.59797 0.0
O514 O 0.54122 0.70435 0.59555 0.0
C515 C 0.443 0.74797 0.51218 0.0
O516 O 0.43142 0.71772 0.54136 0.0
C517 C 0.59536 0.67089 0.55726 0.0
C518 C 0.58111 0.6265 0.49924 0.0
C519 C 0.59584 0.63824 0.54852 0.0
N520 N 0.57902 0.67699 0.51626 0.0
N521 N 0.57228 0.65155 0.48051 0.0
C522 C 0.60355 0.69159 0.60754 0.0
H523 H 0.60692 0.7198 0.60111 0.0
H524 H 0.62968 0.69534 0.62487 0.0
H525 H 0.58059 0.67505 0.63553 0.0
C526 C 0.57329 0.79439 0.45043 0.0
N527 N 0.55314 0.76348 0.48103 0.0
N528 N 0.57048 0.74417 0.48223 0.0
C529 C 0.60182 0.76186 0.45319 0.0
C530 C 0.60501 0.79441 0.43166 0.0
C531 C 0.56143 0.82223 0.43728 0.0
H532 H 0.5503 0.82853 0.47259 0.0
H533 H 0.58497 0.84846 0.42081 0.0
H534 H 0.53861 0.80976 0.40818 0.0
O535 O 0.46949 0.68919 0.49478 0.0
O536 O 0.5001 0.65845 0.49556 0.0
H537 H 0.61408 0.72072 0.42464 0.0
H538 H 0.65362 0.76796 0.42386 0.0
C539 C 0.62837 0.74766 0.44592 0.0
H540 H 0.63696 0.74231 0.48452 0.0
H541 H 0.55721 0.64842 0.44647 0.0
O542 O 0.47758 0.76739 0.50114 0.0
C543 C 0.47002 0.65889 0.48904 0.0
Co544 Co 0.25573 0.7654 0.48945 0.0
Co545 Co 0.31626 0.8404 0.44634 0.0
C546 C 0.30199 0.81998 0.5653 0.0
O547 O 0.27048 0.7903 0.55827 0.0
O548 O 0.32139 0.83967 0.52633 0.0
C549 C 0.23662 0.69582 0.52123 0.0
O550 O 0.2653 0.71809 0.55038 0.0
C551 C 0.33928 0.91693 0.44712 0.0
C552 C 0.38933 0.94405 0.39709 0.0
C553 C 0.36749 0.95152 0.43015 0.0
N554 N 0.34413 0.89047 0.42549 0.0
N555 N 0.37342 0.90645 0.39433 0.0
C556 C 0.31115 0.90881 0.48918 0.0
H557 H 0.29243 0.87818 0.49471 0.0
H558 H 0.29373 0.92127 0.47863 0.0
H559 H 0.32564 0.92141 0.52632 0.0
C560 C 0.20623 0.78617 0.42646 0.0
N561 N 0.23948 0.79071 0.44218 0.0
N562 N 0.26631 0.8214 0.42046 0.0
C563 C 0.25107 0.83636 0.38836 0.0
C564 C 0.21233 0.81494 0.39144 0.0
C565 C 0.16937 0.75602 0.44658 0.0
H566 H 0.17127 0.73136 0.46003 0.0
H567 H 0.16115 0.76703 0.48013 0.0
H568 H 0.14765 0.74763 0.41604 0.0
O569 O 0.30223 0.76595 0.46687 0.0
O570 O 0.34156 0.8149 0.42019 0.0
H571 H 0.30057 0.87635 0.34708 0.0
H572 H 0.25827 0.87259 0.32243 0.0
C573 C 0.27304 0.87232 0.35827 0.0
H574 H 0.27698 0.89614 0.38252 0.0
H575 H 0.38382 0.89189 0.37393 0.0
O576 O 0.22129 0.71035 0.49408 0.0
C577 C 0.33252 0.78356 0.44131 0.0
Co578 Co 0.24302 0.4955 0.52331 0.0
Co579 Co 0.16173 0.47089 0.5039 0.0
C580 C 0.19631 0.48357 0.61405 0.0
O581 O 0.22719 0.48597 0.60066 0.0
O582 O 0.17248 0.47908 0.5795 0.0
C583 C 0.32767 0.52164 0.51156 0.0
O584 O 0.32554 0.48976 0.52497 0.0
C585 C 0.0919 0.41098 0.53003 0.0
C586 C 0.05295 0.41703 0.47726 0.0
C587 C 0.05533 0.39378 0.51473 0.0
N588 N 0.11069 0.44247 0.50188 0.0
N589 N 0.08753 0.44651 0.47074 0.0
C590 C 0.10991 0.39581 0.56588 0.0
H591 H 0.13885 0.40534 0.55319 0.0
H592 H 0.09375 0.36465 0.56732 0.0
H593 H 0.11116 0.40663 0.60566 0.0
C594 C 0.22213 0.42899 0.44677 0.0
N595 N 0.21556 0.45232 0.47654 0.0
N596 N 0.18085 0.4437 0.4687 0.0
C597 C 0.16443 0.41534 0.4343 0.0
C598 C 0.18973 0.40461 0.41873 0.0
C599 C 0.25917 0.4314 0.44293 0.0
H600 H 0.28069 0.4605 0.43203 0.0
H601 H 0.26674 0.42502 0.48163 0.0
H602 H 0.25875 0.41147 0.41381 0.0
O603 O 0.23332 0.53761 0.50557 0.0
O604 O 0.1775 0.51999 0.47398 0.0
H605 H 0.11828 0.42036 0.40655 0.0
H606 H 0.11709 0.37851 0.3846 0.0
C607 C 0.12448 0.398 0.4175 0.0
H608 H 0.10625 0.38109 0.45006 0.0
H609 H 0.09551 0.46859 0.44417 0.0
O610 O 0.29836 0.52421 0.51111 0.0
C611 C 0.2098 0.54581 0.48667 0.0
C612 C 0.96717 0.33278 1.04263 0.0
C613 C 0.93511 0.29726 1.0374 0.0
H614 H 0.02584 0.36232 0.05654 0.0
C615 C 0.93885 0.2667 1.02304 0.0
H616 H 0.96529 0.35746 0.05047 0.0
C617 C 0.97372 0.26971 1.02556 0.0
C618 C 0.00476 0.30336 1.04272 0.0
H619 H 0.91452 0.23932 1.0168 0.0
H620 H 0.97448 0.24398 1.02261 0.0
C621 C 0.00209 0.33587 0.04478 0.0
C622 C 0.70427 0.65752 0.15798 0.0
C623 C 0.72352 0.63807 0.15086 0.0
H624 H 0.70558 0.70559 0.19064 0.0
C625 C 0.76103 0.65455 0.1654 0.0
H626 H 0.67541 0.64533 0.14617 0.0
C627 C 0.77834 0.68898 0.19051 0.0
C628 C 0.75844 0.70748 0.20051 0.0
H629 H 0.77624 0.63978 0.16028 0.0
H630 H 0.80694 0.70068 0.20333 0.0
C631 C 0.72164 0.69209 0.18282 0.0
C632 C 0.31499 0.99148 0.35101 0.0
C633 C 0.34813 0.02608 0.35338 0.0
H634 H 0.25603 0.9643 0.34613 0.0
C635 C 0.34717 0.0578 0.37105 0.0
H636 H 0.31524 0.96651 0.33875 0.0
C637 C 0.31322 0.05679 0.3741 0.0
C638 C 0.28058 0.02408 0.35987 0.0
H639 H 0.3723 0.08495 0.37367 0.0
H640 H 0.3132 0.08275 0.38034 0.0
C641 C 0.28112 0.99048 0.35418 0.0
C642 C 0.33544 0.02814 0.77717 0.0
C643 C 0.31964 0.04386 0.80919 0.0
H644 H 0.34274 0.98074 0.77028 0.0
C645 C 0.32443 0.04273 0.86326 0.0
H646 H 0.33531 0.0313 0.73522 0.0
C647 C 0.32793 0.01335 0.8839 0.0
C648 C 0.33082 0.98863 0.84999 0.0
H649 H 0.31718 0.05809 0.88989 0.0
H650 H 0.32394 0.00743 0.92532 0.0
C651 C 0.33912 0.99865 0.79726 0.0
C652 C 0.08343 0.31572 0.905 0.0
C653 C 0.06564 0.33386 0.92596 0.0
H654 H 0.07889 0.2734 0.85304 0.0
C655 C 0.02839 0.32167 0.91347 0.0
H656 H 0.11235 0.32512 0.91387 0.0
C657 C 0.00973 0.29307 0.87782 0.0
C658 C 0.028 0.276 0.85507 0.0
H659 H 0.01422 0.33529 0.92965 0.0
H660 H 0.98147 0.28507 0.86701 0.0
C661 C 0.06469 0.28694 0.86946 0.0
C662 C 0.6849 0.73321 1.04064 0.0
C663 C 0.65131 0.70042 1.02986 0.0
H664 H 0.74368 0.75997 1.03799 0.0
C665 C 0.65068 0.66614 1.02626 0.0
H666 H 0.68581 0.75978 0.04517 0.0
C667 C 0.68406 0.66585 1.02384 0.0
C668 C 0.71806 0.69991 1.02398 0.0
H669 H 0.62476 0.64007 1.02088 0.0
H670 H 0.68319 0.63981 1.01458 0.0
C671 C 0.71826 0.73305 1.03755 0.0
C672 C 0.62687 0.59895 0.65708 0.0
C673 C 0.59829 0.56123 0.65595 0.0
H674 H 0.64994 0.65266 0.61979 0.0
C675 C 0.56575 0.55085 0.62762 0.0
H676 H 0.65239 0.60714 0.67841 0.0
C677 C 0.56432 0.57685 0.59421 0.0
C678 C 0.5954 0.61315 0.58934 0.0
H679 H 0.54373 0.52172 0.62604 0.0
H680 H 0.54006 0.56785 0.56962 0.0
C681 C 0.62578 0.62476 0.62293 0.0
C682 C 0.41503 1.00101 0.48489 0.0
C683 C 0.38029 0.98566 0.46026 0.0
H684 H 0.44921 0.03484 0.54723 0.0
C685 C 0.35451 0.99613 0.47605 0.0
H686 H 0.43523 0.99306 0.47358 0.0
C687 C 0.36189 0.01877 0.51928 0.0
C688 C 0.39545 0.03173 0.54631 0.0
H689 H 0.32759 0.98463 0.45741 0.0
H690 H 0.34094 0.0251 0.53254 0.0
C691 C 0.42251 0.02383 0.52791 0.0
C692 C 0.0206 0.35446 0.59068 0.0
C693 C 0.024 0.35988 0.53652 0.0
H694 H 0.98265 0.33107 0.65438 0.0
C695 C 0.99395 0.33731 0.50424 0.0
H696 H 0.04345 0.37163 0.6165 0.0
C697 C 0.95908 0.3144 0.52598 0.0
C698 C 0.95433 0.31439 0.58014 0.0
H699 H 0.99645 0.34065 0.46228 0.0
H700 H 0.93573 0.30187 0.49958 0.0
C701 C 0.98572 0.33121 0.61247 0.0
C702 C 0.16797 0.37888 0.32936 0.0
C703 C 0.18242 0.37588 0.37747 0.0
H704 H 0.13577 0.35161 0.26335 0.0
C705 C 0.1827 0.3424 0.38801 0.0
H706 H 0.16732 0.40422 0.31966 0.0
C707 C 0.16667 0.31204 0.35258 0.0
C708 C 0.14848 0.31364 0.30656 0.0
H709 H 0.19378 0.33901 0.42461 0.0
H710 H 0.16785 0.28714 0.3624 0.0
C711 C 0.15012 0.34816 0.29592 0.0
C712 C 0.63428 0.8065 0.3431 0.0
C713 C 0.63422 0.81983 0.39321 0.0
H714 H 0.66576 0.81226 0.27403 0.0
C715 C 0.66592 0.85341 0.40906 0.0
H716 H 0.61066 0.78037 0.33012 0.0
C717 C 0.69779 0.87185 0.3767 0.0
C718 C 0.69861 0.85694 0.32797 0.0
H719 H 0.66705 0.86393 0.44788 0.0
H720 H 0.72268 0.89603 0.39147 0.0
C721 C 0.66591 0.82482 0.31095 0.0
C722 C 0.1631 0.84674 0.29534 0.0
C723 C 0.14419 0.85846 0.32869 0.0
H724 H 0.19887 0.82317 0.2889 0.0
C725 C 0.14395 0.85104 0.3824 0.0
H726 H 0.16419 0.85233 0.2539 0.0
C727 C 0.16409 0.83458 0.40253 0.0
C728 C 0.18511 0.82529 0.36946 0.0
H729 H 0.12927 0.85919 0.40916 0.0
H730 H 0.1649 0.83106 0.44427 0.0
C731 C 0.18327 0.83036 0.31547 0.0
C732 C 0.34846 0.19096 0.73979 0.0
C733 C 0.35388 0.19576 0.6856 0.0
H734 H 0.30904 0.17055 0.80289 0.0
C735 C 0.32348 0.18943 0.65417 0.0
H736 H 0.37128 0.19522 0.76491 0.0
C737 C 0.28776 0.17537 0.67603 0.0
C738 C 0.28177 0.16774 0.7298 0.0
H739 H 0.32667 0.19235 0.61226 0.0
H740 H 0.26423 0.16734 0.6503 0.0
C741 C 0.31286 0.1772 0.76165 0.0
C742 C 0.79282 0.13653 0.65697 0.0
C743 C 0.77883 0.15679 0.68289 0.0
H744 H 0.82199 0.10577 0.66382 0.0
C745 C 0.77871 0.15617 0.73774 0.0
H746 H 0.79422 0.13722 0.61484 0.0
C747 C 0.79456 0.13808 0.76584 0.0
C748 C 0.81087 0.12004 0.73983 0.0
H749 H 0.76888 0.17215 0.75886 0.0
H750 H 0.79665 0.14071 0.8078 0.0
C751 C 0.80874 0.11849 0.68508 0.0
C752 C 0.80745 0.66266 0.76929 0.0
C753 C 0.84204 0.69416 0.75612 0.0
H754 H 0.76457 0.60722 0.75134 0.0
C755 C 0.85908 0.69252 0.70943 0.0
H756 H 0.79192 0.6627 0.80278 0.0
C757 C 0.84132 0.66068 0.67675 0.0
C758 C 0.80642 0.62961 0.69052 0.0
H759 H 0.88583 0.71586 0.69775 0.0
H760 H 0.85432 0.6609 0.6402 0.0
C761 C 0.79081 0.63076 0.73833 0.0
C762 C 0.95131 0.46057 1.00242 0.0
C763 C 0.9454 0.4533 0.05634 0.0
H764 H 0.99081 0.48127 0.93908 0.0
C765 C 0.97696 0.46591 0.08845 0.0
H766 H 0.92772 0.45131 0.97647 0.0
C767 C 0.01314 0.48311 0.06697 0.0
C768 C 0.01885 0.48829 1.01276 0.0
H769 H 0.97351 0.46027 0.12995 0.0
H770 H 0.03661 0.49071 0.09262 0.0
C771 C 0.98753 0.47795 0.98094 0.0
C772 C 0.49516 0.51141 1.0079 0.0
C773 C 0.48261 0.5313 1.03781 0.0
H774 H 0.52081 0.47714 1.00779 0.0
C775 C 0.482 0.52709 0.09239 0.0
H776 H 0.49662 0.5145 0.9659 0.0
C777 C 0.49578 0.50555 0.11646 0.0
C778 C 0.5106 0.48769 0.08659 0.0
H779 H 0.47285 0.54229 0.11662 0.0
H780 H 0.49717 0.50497 0.15855 0.0
C781 C 0.50903 0.48998 1.03194 0.0
C782 C 0.49288 0.02366 1.04049 0.0
C783 C 0.47453 0.0226 0.0874 0.0
H784 H 0.49057 0.99603 0.96826 0.0
C785 C 0.44092 0.98898 0.09841 0.0
H786 H 0.51923 0.04797 1.03021 0.0
C787 C 0.42653 0.95814 0.0652 0.0
C788 C 0.44285 0.96042 1.01671 0.0
H789 H 0.42413 0.98624 0.1317 0.0
H790 H 0.40105 0.93288 0.07645 0.0
C791 C 0.47688 0.99331 1.00518 0.0
C792 C 0.0278 0.16075 1.00844 0.0
C793 C 0.01602 0.14469 0.05822 0.0
H794 H 0.014 0.16247 0.92886 0.0
C795 C 0.97946 0.1136 0.06305 0.0
H796 H 0.0556 0.18456 1.00277 0.0
C797 C 0.95481 0.10072 1.01989 0.0
C798 C 0.96618 0.1186 0.97079 0.0
H799 H 0.96928 0.10039 0.1007 0.0
H800 H 0.92666 0.07754 1.02537 0.0
C801 C 0.00346 0.14817 0.96584 0.0
C802 C 0.88929 0.84775 0.05461 0.0
C803 C 0.88813 0.86161 1.00499 0.0
H804 H 0.87725 0.84553 0.13535 0.0
C805 C 0.8769 0.88876 1.00107 0.0
H806 H 0.8978 0.82697 0.05932 0.0
C807 C 0.86414 0.89923 0.04533 0.0
C808 C 0.86254 0.88277 0.09428 0.0
H809 H 0.87565 0.90004 0.96337 0.0
H810 H 0.85402 0.91873 1.04076 0.0
C811 C 0.87679 0.85811 0.0983 0.0
C812 C 0.15912 0.9944 0.99367 0.0
C813 C 0.16952 0.03232 0.98523 0.0
H814 H 0.14182 0.94888 0.04867 0.0
C815 C 0.17372 0.05435 1.02911 0.0
H816 H 0.15523 0.9764 0.96097 0.0
C817 C 0.16723 0.03873 0.07981 0.0
C818 C 0.15509 1.00036 0.08783 0.0
H819 H 0.18155 0.08355 1.02421 0.0
H820 H 0.16989 0.05625 0.11256 0.0
C821 C 0.15136 0.97852 0.04404 0.0
C822 C 0.67453 0.50234 0.34298 0.0
C823 C 0.63552 0.47841 0.33897 0.0
H824 H 0.72274 0.52818 0.39253 0.0
C825 C 0.61515 0.46359 0.38535 0.0
H826 H 0.69141 0.51417 0.30833 0.0
C827 C 0.63329 0.47237 0.43404 0.0
C828 C 0.67242 0.49545 0.43773 0.0
H829 H 0.58522 0.44501 0.38403 0.0
H830 H 0.61667 0.46014 0.46882 0.0
C831 C 0.69269 0.51034 0.39142 0.0
C832 C 0.50775 0.21075 0.40497 0.0
C833 C 0.4988 0.18724 0.44928 0.0
H834 H 0.52661 0.22082 0.32533 0.0
C835 C 0.50686 0.15787 0.44787 0.0
H836 H 0.50299 0.2343 0.40489 0.0
C837 C 0.5211 0.15074 0.40279 0.0
C838 C 0.52727 0.1723 0.35714 0.0
H839 H 0.50144 0.13966 0.4814 0.0
H840 H 0.52499 0.12663 0.40264 0.0
C841 C 0.52193 0.20343 0.35953 0.0
C842 C 0.83569 0.33338 0.34595 0.0
C843 C 0.8196 0.31021 0.30253 0.0
H844 H 0.83998 0.33763 0.42909 0.0
C845 C 0.79511 0.27153 0.31163 0.0
H846 H 0.85433 0.36328 0.34055 0.0
C847 C 0.78574 0.25682 0.36285 0.0
C848 C 0.80161 0.28019 0.40633 0.0
H849 H 0.78172 0.25294 0.27914 0.0
H850 H 0.76571 0.22726 0.36842 0.0
C851 C 0.82739 0.31853 0.39687 0.0
C852 C 0.30721 0.82572 0.71318 0.0
C853 C 0.34585 0.84365 0.72334 0.0
H854 H 0.26336 0.80414 0.65652 0.0
C855 C 0.3703 0.85479 0.68053 0.0
H856 H 0.28735 0.81647 0.74497 0.0
C857 C 0.35627 0.84846 0.62908 0.0
C858 C 0.31747 0.82996 0.61935 0.0
H859 H 0.40014 0.86876 0.68675 0.0
H860 H 0.37575 0.8572 0.59691 0.0
C861 C 0.29328 0.81859 0.66226 0.0
C862 C 0.19725 0.47645 0.71335 0.0
C863 C 0.18786 0.48994 0.66865 0.0
H864 H 0.19353 0.47026 0.79697 0.0
C865 C 0.16766 0.50878 0.67564 0.0
H866 H 0.2125 0.46164 0.70962 0.0
C867 C 0.1573 0.51421 0.7253 0.0
C868 C 0.16589 0.50019 0.77004 0.0
H869 H 0.15995 0.51974 0.6423 0.0
H870 H 0.14217 0.52919 0.72854 0.0
C871 C 0.18598 0.48111 0.76337 0.0
C872 C 0.47442 0.67315 0.74891 0.0
C873 C 0.50299 0.67379 0.77982 0.0
H874 H 0.45902 0.68786 0.67603 0.0
C875 C 0.53947 0.69246 0.75951 0.0
H876 H 0.44607 0.65972 0.76338 0.0
C877 C 0.54677 0.70844 0.70906 0.0
C878 C 0.5181 0.70739 0.67806 0.0
H879 H 0.56228 0.69405 0.78219 0.0
H880 H 0.57491 0.72127 0.69392 0.0
C881 C 0.48193 0.69 0.69909 0.0
C882 C 0.03769 0.00874 0.2585 0.0
C883 C 0.07335 0.02013 0.27847 0.0
H884 H 0.99779 0.02497 0.23774 0.0
C885 C 0.09421 0.05614 0.30003 0.0
H886 H 0.02085 0.98112 0.24205 0.0
C887 C 0.08124 0.08145 0.29701 0.0
C888 C 0.04701 0.07107 0.27294 0.0
H889 H 0.12167 0.06572 0.31621 0.0
H890 H 0.09891 0.10972 0.31114 0.0
C891 C 0.02452 0.03393 0.25601 0.0
C892 C 0.92492 0.11706 0.17087 0.0
C893 C 0.94259 0.12882 0.21953 0.0
H894 H 0.88612 0.0708 0.12428 0.0
C895 C 0.92825 0.10327 0.26171 0.0
H896 H 0.93501 0.13581 0.13744 0.0
C897 C 0.90026 0.06587 0.25414 0.0
C898 C 0.88576 0.05297 0.20417 0.0
H899 H 0.94088 0.11129 0.29989 0.0
H900 H 0.89193 0.04652 0.28687 0.0
C901 C 0.897 0.0795 0.1632 0.0
C902 C 0.93291 0.88655 0.3121 0.0
C903 C 0.92239 0.90412 0.27399 0.0
H904 H 0.96986 0.86642 0.33316 0.0
C905 C 0.94112 0.91372 0.22578 0.0
H906 H 0.91832 0.87792 0.34903 0.0
C907 C 0.96946 0.90562 0.21579 0.0
C908 C 0.98035 0.88853 0.2542 0.0
H909 H 0.93292 0.92619 0.19489 0.0
H910 H 0.9835 0.91374 0.17845 0.0
C911 C 0.96187 0.87928 0.30256 0.0
C912 C 0.01824 0.09565 0.74266 0.0
C913 C 0.99289 0.07993 0.78424 0.0
H914 H 0.07368 0.11433 0.71498 0.0
C915 C 0.00461 0.0705 0.83058 0.0
H916 H 0.01018 0.10379 0.70686 0.0
C917 C 0.04127 0.07809 0.836 0.0
C918 C 0.06679 0.09448 0.79483 0.0
H919 H 0.98608 0.05916 0.86381 0.0
H920 H 0.04953 0.07087 0.87239 0.0
C921 C 0.05469 0.10229 0.74763 0.0
C922 C 0.81228 0.91156 0.91423 0.0
C923 C 0.82222 0.93813 0.87364 0.0
H924 H 0.80341 0.8576 0.93755 0.0
C925 C 0.82294 0.92667 0.82244 0.0
H926 H 0.81084 0.91915 0.95404 0.0
C927 C 0.81891 0.89141 0.81299 0.0
C928 C 0.81378 0.86668 0.85446 0.0
H929 H 0.82978 0.94605 0.78997 0.0
H930 H 0.82325 0.88499 0.77375 0.0
C931 C 0.8077 0.87601 0.90464 0.0
C932 C 0.06903 0.93173 0.77934 0.0
C933 C 0.07416 0.9679 0.78575 0.0
H934 H 0.03019 0.87258 0.77754 0.0
C935 C 0.04266 0.97213 0.78844 0.0
H936 H 0.09274 0.92752 0.77703 0.0
C937 C 0.00683 0.94067 0.78813 0.0
C938 C 0.00177 0.90428 0.78588 0.0
H939 H 0.04568 0.99966 0.7929 0.0
H940 H 0.98323 0.94486 0.79264 0.0
C941 C 0.03318 0.9002 0.77975 0.0
C942 C 0.79657 0.38997 0.5891 0.0
C943 C 0.77066 0.35513 0.56728 0.0
H944 H 0.81688 0.44937 0.59199 0.0
C945 C 0.74528 0.35432 0.53022 0.0
H946 H 0.81682 0.39172 0.61736 0.0
C947 C 0.74613 0.38731 0.51463 0.0
C948 C 0.77192 0.42219 0.53624 0.0
H949 H 0.72523 0.32825 0.51199 0.0
H950 H 0.72602 0.3852 0.48587 0.0
C951 C 0.79698 0.42311 0.57407 0.0
C952 C 0.61325 0.39406 0.6299 0.0
C953 C 0.6475 0.40329 0.60661 0.0
H954 H 0.55405 0.35751 0.63017 0.0
C955 C 0.64811 0.38017 0.56736 0.0
H956 H 0.61175 0.41147 0.66002 0.0
C957 C 0.61503 0.34981 0.54962 0.0
C958 C 0.58062 0.34171 0.57103 0.0
H959 H 0.674 0.38655 0.54855 0.0
H960 H 0.6165 0.33295 0.51866 0.0
C961 C 0.58008 0.36361 0.61213 0.0
C962 C 0.62036 0.22338 0.56856 0.0
C963 C 0.63346 0.2076 0.60565 0.0
H964 H 0.57935 0.23808 0.5488 0.0
C965 C 0.61416 0.19428 0.65313 0.0
H966 H 0.63503 0.23455 0.53209 0.0
C967 C 0.58174 0.19592 0.66272 0.0
C968 C 0.56895 0.21221 0.62575 0.0
H969 H 0.62402 0.18238 0.68264 0.0
H970 H 0.5667 0.18449 0.69887 0.0
C971 C 0.58881 0.22609 0.57873 0.0
C972 C 0.69372 0.37637 0.21181 0.0
C973 C 0.73019 0.40015 0.19308 0.0
H974 H 0.63743 0.36493 0.21592 0.0
C975 C 0.73673 0.43037 0.1603 0.0
H976 H 0.6874 0.3524 0.23648 0.0
C977 C 0.70775 0.43725 0.14786 0.0
C978 C 0.67148 0.41408 0.1679 0.0
H979 H 0.76427 0.44884 0.14445 0.0
H980 H 0.71413 0.46152 0.1238 0.0
C981 C 0.66478 0.3832 0.19937 0.0
C982 C 0.47354 0.22739 0.25907 0.0
C983 C 0.4766 0.21691 0.20815 0.0
H984 H 0.48475 0.27261 0.31067 0.0
C985 C 0.48643 0.2439 0.16803 0.0
H986 H 0.46569 0.2074 0.29092 0.0
C987 C 0.49662 0.28115 0.17917 0.0
C988 C 0.49788 0.29266 0.23088 0.0
H989 H 0.4889 0.23692 0.12826 0.0
H990 H 0.50632 0.3015 0.14755 0.0
C991 C 0.48464 0.26494 0.27044 0.0
C992 C 0.69225 0.2863 0.12464 0.0
C993 C 0.71884 0.27667 0.10954 0.0
H994 H 0.63539 0.26663 0.14446 0.0
C995 C 0.70679 0.23926 0.09602 0.0
H996 H 0.70059 0.31491 0.13494 0.0
C997 C 0.66947 0.21145 0.10222 0.0
C998 C 0.64347 0.22063 0.12134 0.0
H999 H 0.72654 0.2309 0.084 0.0
H1000 H 0.66138 0.18255 0.0943 0.0
C1001 C 0.65487 0.25856 0.13021 0.0
C1002 C 0.48714 0.79288 0.93701 0.0
C1003 C 0.4524 0.78736 0.92098 0.0
H1004 H 0.51809 0.76752 0.96448 0.0
C1005 C 0.42073 0.7513 0.92623 0.0
H1006 H 0.51191 0.82041 0.93441 0.0
C1007 C 0.42416 0.72091 0.94353 0.0
C1008 C 0.45928 0.72593 0.95649 0.0
H1009 H 0.39337 0.74612 0.91491 0.0
H1010 H 0.39957 0.69316 0.94409 0.0
C1011 C 0.49051 0.76255 0.955 0.0
C1012 C 0.29063 0.72285 0.89125 0.0
C1013 C 0.27785 0.7476 0.9038 0.0
H1014 H 0.27687 0.6672 0.87218 0.0
C1015 C 0.23921 0.73296 0.90979 0.0
H1016 H 0.32011 0.73281 0.88657 0.0
C1017 C 0.21399 0.69453 0.90178 0.0
C1018 C 0.22709 0.67045 0.88676 0.0
H1019 H 0.22842 0.75128 0.91923 0.0
H1020 H 0.18436 0.68389 0.90599 0.0
C1021 C 0.26568 0.68505 0.88245 0.0
C1022 C 0.27525 0.57407 0.91998 0.0
C1023 C 0.25174 0.55343 0.96172 0.0
H1024 H 0.32893 0.59621 0.88432 0.0
C1025 C 0.26578 0.54016 1.00133 0.0
H1026 H 0.26513 0.58414 0.88835 0.0
C1027 C 0.3026 0.54748 0.99922 0.0
C1028 C 0.32557 0.56702 0.95656 0.0
H1029 H 0.24817 0.5238 1.03361 0.0
H1030 H 0.31292 0.53733 1.03049 0.0
C1031 C 0.31158 0.58037 0.9171 0.0
C1032 C 0.35024 0.7372 0.47258 0.0
C1033 C 0.36079 0.77197 0.44866 0.0
H1034 H 0.36767 0.70281 0.51195 0.0
C1035 C 0.39906 0.79792 0.44184 0.0
H1036 H 0.32109 0.71648 0.47823 0.0
C1037 C 0.42607 0.79012 0.46157 0.0
C1038 C 0.41525 0.75633 0.48865 0.0
H1039 H 0.40819 0.82511 0.42393 0.0
H1040 H 0.45529 0.81103 0.45719 0.0
C1041 C 0.37706 0.72957 0.49251 0.0
C1042 C 0.19197 0.59545 0.47248 0.0
C1043 C 0.21785 0.58511 0.48986 0.0
H1044 H 0.17736 0.63865 0.46893 0.0
C1045 C 0.2496 0.61156 0.517 0.0
H1046 H 0.16704 0.57562 0.45183 0.0
C1047 C 0.25481 0.64688 0.52807 0.0
C1048 C 0.22885 0.65719 0.51144 0.0
H1049 H 0.27004 0.60466 0.53137 0.0
H1050 H 0.27954 0.66623 0.54952 0.0
C1051 C 0.1976 0.63133 0.4828 0.0
C1052 C 0.4003 0.62297 0.47982 0.0
C1053 C 0.43397 0.62279 0.48503 0.0
H1054 H 0.34078 0.59159 0.48396 0.0
C1055 C 0.43223 0.58816 0.49448 0.0
H1056 H 0.4004 0.64897 0.47257 0.0
C1057 C 0.39778 0.55504 0.50157 0.0
C1058 C 0.36425 0.5557 0.4992 0.0
H1059 H 0.45754 0.58689 0.49902 0.0
H1060 H 0.39755 0.52918 0.51061 0.0
C1061 C 0.36598 0.58993 0.48672 0.0
loop_
_geom_bond_atom_site_label_1
_geom_bond_atom_site_label_2
_geom_bond_distance
_geom_bond_site_symmetry_2
_ccdc_geom_bond_type
Co0 O3 1.970 . S
Co0 N17 1.989 . S
Co0 O25 1.967 . S
Co0 O32 1.920 . S
Co1 O4 1.966 . S
Co1 N10 2.022 1_455 S
Co1 N18 1.993 . S
Co1 O26 1.941 1_455 S
C2 O3 1.258 . S
C2 O4 1.263 . S
O3 Co0 1.970 . S
O3 C2 1.258 . S
O4 Co1 1.966 . S
O4 C2 1.263 . S
C5 O6 1.235 . S
C5 O32 1.289 . S
O6 C5 1.235 . S
C7 C9 1.410 . S
C7 N10 1.347 . S
C7 C12 1.496 1_655 S
C8 C9 1.387 . S
C8 N11 1.341 . S
C9 C7 1.410 . S
C9 C8 1.387 . S
N10 Co1 2.022 1_655 S
N10 C7 1.347 . S
N10 N11 1.365 . S
N11 C8 1.341 . S
N11 N10 1.365 . S
N11 H31 0.862 . S
C12 C7 1.496 1_455 S
C12 H13 0.961 . S
C12 H14 0.961 . S
C12 H15 0.960 1_455 S
H13 C12 0.961 . S
H14 C12 0.961 . S
H15 C12 0.960 1_655 S
C16 N17 1.342 . S
C16 C20 1.401 . S
C16 C21 1.499 . S
N17 Co0 1.989 . S
N17 C16 1.342 . S
N17 N18 1.388 . S
N18 Co1 1.993 . S
N18 N17 1.388 . S
N18 C19 1.346 . S
C19 N18 1.346 . S
C19 C20 1.396 . S
C19 C29 1.510 . S
C20 C16 1.401 . S
C20 C19 1.396 . S
C21 C16 1.499 . S
C21 H22 0.959 . S
C21 H23 0.960 . S
C21 H24 0.961 . S
H22 C21 0.959 . S
H23 C21 0.960 . S
H24 C21 0.961 . S
O25 Co0 1.967 . S
O25 C33 1.258 1_455 S
O26 Co1 1.941 1_655 S
O26 C33 1.266 . S
H27 C29 0.959 . S
H28 C29 0.961 . S
C29 C19 1.510 . S
C29 H27 0.959 . S
C29 H28 0.961 . S
C29 H30 0.960 . S
H30 C29 0.960 . S
H31 N11 0.862 . S
O32 Co0 1.920 . S
O32 C5 1.289 . S
C33 O25 1.258 1_655 S
C33 O26 1.266 . S
Co34 O37 1.970 . S
Co34 N51 1.989 . S
Co34 O59 1.967 . S
Co34 O66 1.920 . S
Co35 O38 1.966 . S
Co35 N44 2.022 . S
Co35 N52 1.993 . S
Co35 O60 1.941 . S
C36 O37 1.258 . S
C36 O38 1.263 . S
O37 Co34 1.970 . S
O37 C36 1.258 . S
O38 Co35 1.966 . S
O38 C36 1.263 . S
C39 O40 1.235 . S
C39 O66 1.289 . S
O40 C39 1.235 . S
C41 C43 1.400 . S
C41 N44 1.351 . S
C41 C46 1.501 . S
C42 C43 1.387 . S
C42 N45 1.341 . S
C43 C41 1.400 . S
C43 C42 1.387 . S
N44 Co35 2.022 . S
N44 C41 1.351 . S
N44 N45 1.365 . S
N45 C42 1.341 . S
N45 N44 1.365 . S
N45 H65 0.862 . S
C46 C41 1.501 . S
C46 H47 0.961 . S
C46 H48 0.961 . S
C46 H49 0.960 . S
H47 C46 0.961 . S
H48 C46 0.961 . S
H49 C46 0.960 . S
C50 N51 1.342 . S
C50 C54 1.401 . S
C50 C55 1.499 . S
N51 Co34 1.989 . S
N51 C50 1.342 . S
N51 N52 1.388 . S
N52 Co35 1.993 . S
N52 N51 1.388 . S
N52 C53 1.346 . S
C53 N52 1.346 . S
C53 C54 1.396 . S
C53 C63 1.510 . S
C54 C50 1.401 . S
C54 C53 1.396 . S
C55 C50 1.499 . S
C55 H56 0.959 . S
C55 H57 0.960 . S
C55 H58 0.961 . S
H56 C55 0.959 . S
H57 C55 0.960 . S
H58 C55 0.961 . S
O59 Co34 1.967 . S
O59 C67 1.258 . S
O60 Co35 1.941 . S
O60 C67 1.266 . S
H61 C63 0.959 . S
H62 C63 0.961 . S
C63 C53 1.510 . S
C63 H61 0.959 . S
C63 H62 0.961 . S
C63 H64 0.960 . S
H64 C63 0.960 . S
H65 N45 0.862 . S
O66 Co34 1.920 . S
O66 C39 1.289 . S
C67 O59 1.258 . S
C67 O60 1.266 . S
Co68 O71 1.970 . S
Co68 N85 1.989 . S
Co68 O93 1.967 . S
Co68 O100 1.920 . S
Co69 O72 1.966 . S
Co69 N78 2.022 . S
Co69 N86 1.993 . S
Co69 O94 1.911 1_565 S
C70 O71 1.258 . S
C70 O72 1.263 . S
O71 Co68 1.970 . S
O71 C70 1.258 . S
O72 Co69 1.966 . S
O72 C70 1.263 . S
C73 O74 1.254 . S
C73 O100 1.291 . S
O74 C73 1.254 . S
C75 C77 1.404 1_565 S
C75 N78 1.351 . S
C75 C80 1.501 . S
C76 C77 1.398 . S
C76 N79 1.341 . S
C77 C75 1.404 1_545 S
C77 C76 1.398 . S
N78 Co69 2.022 . S
N78 C75 1.351 . S
N78 N79 1.365 1_565 S
N79 C76 1.341 . S
N79 N78 1.365 1_545 S
N79 H99 0.862 . S
C80 C75 1.501 . S
C80 H81 0.961 . S
C80 H82 0.961 . S
C80 H83 0.960 . S
H81 C80 0.961 . S
H82 C80 0.961 . S
H83 C80 0.960 . S
C84 N85 1.342 . S
C84 C88 1.401 . S
C84 C89 1.499 . S
N85 Co68 1.989 . S
N85 C84 1.342 . S
N85 N86 1.388 . S
N86 Co69 1.993 . S
N86 N85 1.388 . S
N86 C87 1.346 . S
C87 N86 1.346 . S
C87 C88 1.396 . S
C87 C97 1.510 . S
C88 C84 1.401 . S
C88 C87 1.396 . S
C89 C84 1.499 . S
C89 H90 0.959 . S
C89 H91 0.960 . S
C89 H92 0.961 . S
H90 C89 0.959 . S
H91 C89 0.960 . S
H92 C89 0.961 . S
O93 Co68 1.967 . S
O93 C101 1.258 . S
O94 Co69 1.911 1_545 S
O94 C101 1.277 1_545 S
H95 C97 0.959 . S
H96 C97 0.961 . S
C97 C87 1.510 . S
C97 H95 0.959 . S
C97 H96 0.961 . S
C97 H98 0.960 . S
H98 C97 0.960 . S
H99 N79 0.862 . S
O100 Co68 1.920 . S
O100 C73 1.291 . S
C101 O93 1.258 . S
C101 O94 1.277 1_565 S
Co102 O105 1.970 . S
Co102 N119 1.989 . S
Co102 O127 1.967 . S
Co102 O134 1.920 . S
Co103 O106 1.966 . S
Co103 N112 2.022 1_545 S
Co103 N120 1.993 . S
Co103 O128 1.941 1_545 S
C104 O105 1.258 . S
C104 O106 1.263 . S
O105 Co102 1.970 . S
O105 C104 1.258 . S
O106 Co103 1.966 . S
O106 C104 1.263 . S
C107 O108 1.235 . S
C107 O134 1.289 . S
O108 C107 1.235 . S
C109 C111 1.410 . S
C109 N112 1.347 . S
C109 C114 1.496 1_565 S
C110 C111 1.387 . S
C110 N113 1.341 . S
C111 C109 1.410 . S
C111 C110 1.387 . S
N112 Co103 2.022 1_565 S
N112 C109 1.347 . S
N112 N113 1.365 . S
N113 C110 1.341 . S
N113 N112 1.365 . S
N113 H133 0.862 . S
C114 C109 1.496 1_545 S
C114 H115 0.961 . S
C114 H116 0.961 . S
C114 H117 0.960 1_545 S
H115 C114 0.961 . S
H116 C114 0.961 . S
H117 C114 0.960 1_565 S
C118 N119 1.342 . S
C118 C122 1.401 . S
C118 C123 1.499 . S
N119 Co102 1.989 . S
N119 C118 1.342 . S
N119 N120 1.388 . S
N120 Co103 1.993 . S
N120 N119 1.388 . S
N120 C121 1.346 . S
C121 N120 1.346 . S
C121 C122 1.396 . S
C121 C131 1.510 . S
C122 C118 1.401 . S
C122 C121 1.396 . S
C123 C118 1.499 . S
C123 H124 0.959 . S
C123 H125 0.960 . S
C123 H126 0.961 . S
H124 C123 0.959 . S
H125 C123 0.960 . S
H126 C123 0.961 . S
O127 Co102 1.967 . S
O127 C135 1.258 1_545 S
O128 Co103 1.941 1_565 S
O128 C135 1.266 . S
H129 C131 0.959 . S
H130 C131 0.961 . S
C131 C121 1.510 . S
C131 H129 0.959 . S
C131 H130 0.961 . S
C131 H132 0.960 . S
H132 C131 0.960 . S
H133 N113 0.862 . S
O134 Co102 1.920 . S
O134 C107 1.289 . S
C135 O127 1.258 1_565 S
C135 O128 1.266 . S
Co136 O139 1.970 . S
Co136 N153 1.989 . S
Co136 O161 1.967 . S
Co136 O168 1.920 . S
Co137 O140 1.966 . S
Co137 N146 2.022 . S
Co137 N154 1.993 . S
Co137 O162 1.911 1_655 S
C138 O139 1.258 . S
C138 O140 1.263 . S
O139 Co136 1.970 . S
O139 C138 1.258 . S
O140 Co137 1.966 . S
O140 C138 1.263 . S
C141 O142 1.254 . S
C141 O168 1.291 . S
O142 C141 1.254 . S
C143 C145 1.404 1_655 S
C143 N146 1.351 . S
C143 C148 1.501 . S
C144 C145 1.398 . S
C144 N147 1.341 . S
C145 C143 1.404 1_455 S
C145 C144 1.398 . S
N146 Co137 2.022 . S
N146 C143 1.351 . S
N146 N147 1.365 1_655 S
N147 C144 1.341 . S
N147 N146 1.365 1_455 S
N147 H167 0.862 . S
C148 C143 1.501 . S
C148 H149 0.961 . S
C148 H150 0.961 . S
C148 H151 0.960 . S
H149 C148 0.961 . S
H150 C148 0.961 . S
H151 C148 0.960 . S
C152 N153 1.342 . S
C152 C156 1.401 . S
C152 C157 1.499 . S
N153 Co136 1.989 . S
N153 C152 1.342 . S
N153 N154 1.388 . S
N154 Co137 1.993 . S
N154 N153 1.388 . S
N154 C155 1.346 . S
C155 N154 1.346 . S
C155 C156 1.396 . S
C155 C165 1.510 . S
C156 C152 1.401 . S
C156 C155 1.396 . S
C157 C152 1.499 . S
C157 H158 0.959 . S
C157 H159 0.960 . S
C157 H160 0.961 . S
H158 C157 0.959 . S
H159 C157 0.960 . S
H160 C157 0.961 . S
O161 Co136 1.967 . S
O161 C169 1.258 . S
O162 Co137 1.911 1_455 S
O162 C169 1.277 1_455 S
H163 C165 0.959 . S
H164 C165 0.961 . S
C165 C155 1.510 . S
C165 H163 0.959 . S
C165 H164 0.961 . S
C165 H166 0.960 . S
H166 C165 0.960 . S
H167 N147 0.862 . S
O168 Co136 1.920 . S
O168 C141 1.291 . S
C169 O161 1.258 . S
C169 O162 1.277 1_655 S
Co170 O173 1.970 . S
Co170 N187 1.989 . S
Co170 O195 1.967 . S
Co170 O202 1.920 . S
Co171 O174 1.966 . S
Co171 N180 2.022 . S
Co171 N188 1.993 . S
Co171 O196 1.941 . S
C172 O173 1.258 . S
C172 O174 1.263 . S
O173 Co170 1.970 . S
O173 C172 1.258 . S
O174 Co171 1.966 . S
O174 C172 1.263 . S
C175 O176 1.235 . S
C175 O202 1.289 . S
O176 C175 1.235 . S
C177 C179 1.400 . S
C177 N180 1.351 . S
C177 C182 1.501 . S
C178 C179 1.387 . S
C178 N181 1.341 . S
C179 C177 1.400 . S
C179 C178 1.387 . S
N180 Co171 2.022 . S
N180 C177 1.351 . S
N180 N181 1.365 . S
N181 C178 1.341 . S
N181 N180 1.365 . S
N181 H201 0.862 . S
C182 C177 1.501 . S
C182 H183 0.961 . S
C182 H184 0.961 . S
C182 H185 0.960 . S
H183 C182 0.961 . S
H184 C182 0.961 . S
H185 C182 0.960 . S
C186 N187 1.342 . S
C186 C190 1.401 . S
C186 C191 1.499 . S
N187 Co170 1.989 . S
N187 C186 1.342 . S
N187 N188 1.388 . S
N188 Co171 1.993 . S
N188 N187 1.388 . S
N188 C189 1.346 . S
C189 N188 1.346 . S
C189 C190 1.396 . S
C189 C199 1.510 . S
C190 C186 1.401 . S
C190 C189 1.396 . S
C191 C186 1.499 . S
C191 H192 0.959 . S
C191 H193 0.960 . S
C191 H194 0.961 . S
H192 C191 0.959 . S
H193 C191 0.960 . S
H194 C191 0.961 . S
O195 Co170 1.967 . S
O195 C203 1.258 . S
O196 Co171 1.941 . S
O196 C203 1.266 . S
H197 C199 0.959 . S
H198 C199 0.961 . S
C199 C189 1.510 . S
C199 H197 0.959 . S
C199 H198 0.961 . S
C199 H200 0.960 . S
H200 C199 0.960 . S
H201 N181 0.862 . S
O202 Co170 1.920 . S
O202 C175 1.289 . S
C203 O195 1.258 . S
C203 O196 1.266 . S
Co204 O207 1.970 . S
Co204 N221 1.989 . S
Co204 O229 1.967 . S
Co204 O236 1.920 . S
Co205 O208 1.966 . S
Co205 N214 2.022 . S
Co205 N222 1.993 . S
Co205 O230 1.941 . S
C206 O207 1.258 . S
C206 O208 1.263 . S
O207 Co204 1.970 . S
O207 C206 1.258 . S
O208 Co205 1.966 . S
O208 C206 1.263 . S
C209 O210 1.235 . S
C209 O236 1.289 . S
O210 C209 1.235 . S
C211 C213 1.400 . S
C211 N214 1.351 . S
C211 C216 1.501 . S
C212 C213 1.387 . S
C212 N215 1.341 . S
C213 C211 1.400 . S
C213 C212 1.387 . S
N214 Co205 2.022 . S
N214 C211 1.351 . S
N214 N215 1.365 . S
N215 C212 1.341 . S
N215 N214 1.365 . S
N215 H235 0.862 . S
C216 C211 1.501 . S
C216 H217 0.961 . S
C216 H218 0.961 . S
C216 H219 0.960 . S
H217 C216 0.961 . S
H218 C216 0.961 . S
H219 C216 0.960 . S
C220 N221 1.342 . S
C220 C224 1.401 . S
C220 C225 1.499 . S
N221 Co204 1.989 . S
N221 C220 1.342 . S
N221 N222 1.388 . S
N222 Co205 1.993 . S
N222 N221 1.388 . S
N222 C223 1.346 . S
C223 N222 1.346 . S
C223 C224 1.396 . S
C223 C233 1.510 . S
C224 C220 1.401 . S
C224 C223 1.396 . S
C225 C220 1.499 . S
C225 H226 0.959 . S
C225 H227 0.960 . S
C225 H228 0.961 . S
H226 C225 0.959 . S
H227 C225 0.960 . S
H228 C225 0.961 . S
O229 Co204 1.967 . S
O229 C237 1.258 . S
O230 Co205 1.941 . S
O230 C237 1.266 . S
H231 C233 0.959 . S
H232 C233 0.961 . S
C233 C223 1.510 . S
C233 H231 0.959 . S
C233 H232 0.961 . S
C233 H234 0.960 . S
H234 C233 0.960 . S
H235 N215 0.862 . S
O236 Co204 1.920 . S
O236 C209 1.289 . S
C237 O229 1.258 . S
C237 O230 1.266 . S
Co238 O241 1.970 . S
Co238 N255 1.989 . S
Co238 O263 1.967 . S
Co238 O270 1.920 . S
Co239 O242 1.966 . S
Co239 N248 2.022 . S
Co239 N256 1.993 . S
Co239 O264 1.941 . S
C240 O241 1.258 . S
C240 O242 1.263 . S
O241 Co238 1.970 . S
O241 C240 1.258 . S
O242 Co239 1.966 . S
O242 C240 1.263 . S
C243 O244 1.235 . S
C243 O270 1.289 . S
O244 C243 1.235 . S
C245 C247 1.400 . S
C245 N248 1.351 . S
C245 C250 1.501 . S
C246 C247 1.387 . S
C246 N249 1.341 . S
C247 C245 1.400 . S
C247 C246 1.387 . S
N248 Co239 2.022 . S
N248 C245 1.351 . S
N248 N249 1.365 . S
N249 C246 1.341 . S
N249 N248 1.365 . S
N249 H269 0.862 . S
C250 C245 1.501 . S
C250 H251 0.961 . S
C250 H252 0.961 . S
C250 H253 0.960 . S
H251 C250 0.961 . S
H252 C250 0.961 . S
H253 C250 0.960 . S
C254 N255 1.342 . S
C254 C258 1.401 . S
C254 C259 1.499 . S
N255 Co238 1.989 . S
N255 C254 1.342 . S
N255 N256 1.388 . S
N256 Co239 1.993 . S
N256 N255 1.388 . S
N256 C257 1.346 . S
C257 N256 1.346 . S
C257 C258 1.396 . S
C257 C267 1.510 . S
C258 C254 1.401 . S
C258 C257 1.396 . S
C259 C254 1.499 . S
C259 H260 0.959 . S
C259 H261 0.960 . S
C259 H262 0.961 . S
H260 C259 0.959 . S
H261 C259 0.960 . S
H262 C259 0.961 . S
O263 Co238 1.967 . S
O263 C271 1.258 . S
O264 Co239 1.941 . S
O264 C271 1.266 . S
H265 C267 0.959 . S
H266 C267 0.961 . S
C267 C257 1.510 . S
C267 H265 0.959 . S
C267 H266 0.961 . S
C267 H268 0.960 . S
H268 C267 0.960 . S
H269 N249 0.862 . S
O270 Co238 1.920 . S
O270 C243 1.289 . S
C271 O263 1.258 . S
C271 O264 1.266 . S
Co272 O275 1.970 . S
Co272 N289 1.989 . S
Co272 O297 1.967 . S
Co272 O304 1.920 . S
Co273 O276 1.966 . S
Co273 N282 2.022 . S
Co273 N290 1.993 . S
Co273 O298 1.941 . S
C274 O275 1.258 . S
C274 O276 1.263 . S
O275 Co272 1.970 . S
O275 C274 1.258 . S
O276 Co273 1.966 . S
O276 C274 1.263 . S
C277 O278 1.235 . S
C277 O304 1.289 . S
O278 C277 1.235 . S
C279 C281 1.400 . S
C279 N282 1.351 . S
C279 C284 1.501 . S
C280 C281 1.387 . S
C280 N283 1.341 . S
C281 C279 1.400 . S
C281 C280 1.387 . S
N282 Co273 2.022 . S
N282 C279 1.351 . S
N282 N283 1.365 . S
N283 C280 1.341 . S
N283 N282 1.365 . S
N283 H303 0.862 . S
C284 C279 1.501 . S
C284 H285 0.961 . S
C284 H286 0.961 . S
C284 H287 0.960 . S
H285 C284 0.961 . S
H286 C284 0.961 . S
H287 C284 0.960 . S
C288 N289 1.342 . S
C288 C292 1.401 . S
C288 C293 1.499 . S
N289 Co272 1.989 . S
N289 C288 1.342 . S
N289 N290 1.388 . S
N290 Co273 1.993 . S
N290 N289 1.388 . S
N290 C291 1.346 . S
C291 N290 1.346 . S
C291 C292 1.396 . S
C291 C301 1.510 . S
C292 C288 1.401 . S
C292 C291 1.396 . S
C293 C288 1.499 . S
C293 H294 0.959 . S
C293 H295 0.960 . S
C293 H296 0.961 . S
H294 C293 0.959 . S
H295 C293 0.960 . S
H296 C293 0.961 . S
O297 Co272 1.967 . S
O297 C305 1.258 . S
O298 Co273 1.941 . S
O298 C305 1.266 . S
H299 C301 0.959 . S
H300 C301 0.961 . S
C301 C291 1.510 . S
C301 H299 0.959 . S
C301 H300 0.961 . S
C301 H302 0.960 . S
H302 C301 0.960 . S
H303 N283 0.862 . S
O304 Co272 1.920 . S
O304 C277 1.289 . S
C305 O297 1.258 . S
C305 O298 1.266 . S
Co306 O309 1.970 . S
Co306 N323 1.989 . S
Co306 O331 1.967 . S
Co306 O338 1.920 . S
Co307 O310 1.966 . S
Co307 N316 2.022 . S
Co307 N324 1.993 . S
Co307 O332 1.941 . S
C308 O309 1.258 . S
C308 O310 1.263 . S
O309 Co306 1.970 . S
O309 C308 1.258 . S
O310 Co307 1.966 . S
O310 C308 1.263 . S
C311 O312 1.235 . S
C311 O338 1.289 . S
O312 C311 1.235 . S
C313 C315 1.400 . S
C313 N316 1.351 . S
C313 C318 1.501 . S
C314 C315 1.387 . S
C314 N317 1.341 . S
C315 C313 1.400 . S
C315 C314 1.387 . S
N316 Co307 2.022 . S
N316 C313 1.351 . S
N316 N317 1.365 . S
N317 C314 1.341 . S
N317 N316 1.365 . S
N317 H337 0.862 . S
C318 C313 1.501 . S
C318 H319 0.961 . S
C318 H320 0.961 . S
C318 H321 0.960 . S
H319 C318 0.961 . S
H320 C318 0.961 . S
H321 C318 0.960 . S
C322 N323 1.342 . S
C322 C326 1.401 . S
C322 C327 1.499 . S
N323 Co306 1.989 . S
N323 C322 1.342 . S
N323 N324 1.388 . S
N324 Co307 1.993 . S
N324 N323 1.388 . S
N324 C325 1.346 . S
C325 N324 1.346 . S
C325 C326 1.396 . S
C325 C335 1.510 . S
C326 C322 1.401 . S
C326 C325 1.396 . S
C327 C322 1.499 . S
C327 H328 0.959 . S
C327 H329 0.960 . S
C327 H330 0.961 . S
H328 C327 0.959 . S
H329 C327 0.960 . S
H330 C327 0.961 . S
O331 Co306 1.967 . S
O331 C339 1.258 . S
O332 Co307 1.941 . S
O332 C339 1.266 . S
H333 C335 0.959 . S
H334 C335 0.961 . S
C335 C325 1.510 . S
C335 H333 0.959 . S
C335 H334 0.961 . S
C335 H336 0.960 . S
H336 C335 0.960 . S
H337 N317 0.862 . S
O338 Co306 1.920 . S
O338 C311 1.289 . S
C339 O331 1.258 . S
C339 O332 1.266 . S
Co340 O343 1.970 . S
Co340 N357 1.989 . S
Co340 O365 1.967 . S
Co340 O372 1.920 . S
Co341 O344 1.966 . S
Co341 N350 2.022 . S
Co341 N358 1.993 . S
Co341 O366 1.941 . S
C342 O343 1.258 . S
C342 O344 1.263 . S
O343 Co340 1.970 . S
O343 C342 1.258 . S
O344 Co341 1.966 . S
O344 C342 1.263 . S
C345 O346 1.235 . S
C345 O372 1.289 . S
O346 C345 1.235 . S
C347 C349 1.400 . S
C347 N350 1.351 . S
C347 C352 1.501 . S
C348 C349 1.387 . S
C348 N351 1.341 . S
C349 C347 1.400 . S
C349 C348 1.387 . S
N350 Co341 2.022 . S
N350 C347 1.351 . S
N350 N351 1.365 . S
N351 C348 1.341 . S
N351 N350 1.365 . S
N351 H371 0.862 . S
C352 C347 1.501 . S
C352 H353 0.961 . S
C352 H354 0.961 . S
C352 H355 0.960 . S
H353 C352 0.961 . S
H354 C352 0.961 . S
H355 C352 0.960 . S
C356 N357 1.342 . S
C356 C360 1.401 . S
C356 C361 1.499 . S
N357 Co340 1.989 . S
N357 C356 1.342 . S
N357 N358 1.388 . S
N358 Co341 1.993 . S
N358 N357 1.388 . S
N358 C359 1.346 . S
C359 N358 1.346 . S
C359 C360 1.396 . S
C359 C369 1.510 . S
C360 C356 1.401 . S
C360 C359 1.396 . S
C361 C356 1.499 . S
C361 H362 0.959 . S
C361 H363 0.960 . S
C361 H364 0.961 . S
H362 C361 0.959 . S
H363 C361 0.960 . S
H364 C361 0.961 . S
O365 Co340 1.967 . S
O365 C373 1.258 . S
O366 Co341 1.941 . S
O366 C373 1.266 . S
H367 C369 0.959 . S
H368 C369 0.961 . S
C369 C359 1.510 . S
C369 H367 0.959 . S
C369 H368 0.961 . S
C369 H370 0.960 . S
H370 C369 0.960 . S
H371 N351 0.862 . S
O372 Co340 1.920 . S
O372 C345 1.289 . S
C373 O365 1.258 . S
C373 O366 1.266 . S
Co374 O377 1.970 . S
Co374 N391 1.989 . S
Co374 O399 1.967 . S
Co374 O406 1.920 . S
Co375 O378 1.966 . S
Co375 N384 2.022 . S
Co375 N392 1.993 . S
Co375 O400 1.941 . S
C376 O377 1.258 . S
C376 O378 1.263 . S
O377 Co374 1.970 . S
O377 C376 1.258 . S
O378 Co375 1.966 . S
O378 C376 1.263 . S
C379 O380 1.235 . S
C379 O406 1.289 . S
O380 C379 1.235 . S
C381 C383 1.400 . S
C381 N384 1.351 . S
C381 C386 1.501 . S
C382 C383 1.387 . S
C382 N385 1.341 . S
C383 C381 1.400 . S
C383 C382 1.387 . S
N384 Co375 2.022 . S
N384 C381 1.351 . S
N384 N385 1.365 . S
N385 C382 1.341 . S
N385 N384 1.365 . S
N385 H405 0.862 . S
C386 C381 1.501 . S
C386 H387 0.961 . S
C386 H388 0.961 . S
C386 H389 0.960 . S
H387 C386 0.961 . S
H388 C386 0.961 . S
H389 C386 0.960 . S
C390 N391 1.342 . S
C390 C394 1.401 . S
C390 C395 1.499 . S
N391 Co374 1.989 . S
N391 C390 1.342 . S
N391 N392 1.388 . S
N392 Co375 1.993 . S
N392 N391 1.388 . S
N392 C393 1.346 . S
C393 N392 1.346 . S
C393 C394 1.396 . S
C393 C403 1.510 . S
C394 C390 1.401 . S
C394 C393 1.396 . S
C395 C390 1.499 . S
C395 H396 0.959 . S
C395 H397 0.960 . S
C395 H398 0.961 . S
H396 C395 0.959 . S
H397 C395 0.960 . S
H398 C395 0.961 . S
O399 Co374 1.967 . S
O399 C407 1.258 . S
O400 Co375 1.941 . S
O400 C407 1.266 . S
H401 C403 0.959 . S
H402 C403 0.961 . S
C403 C393 1.510 . S
C403 H401 0.959 . S
C403 H402 0.961 . S
C403 H404 0.960 . S
H404 C403 0.960 . S
H405 N385 0.862 . S
O406 Co374 1.920 . S
O406 C379 1.289 . S
C407 O399 1.258 . S
C407 O400 1.266 . S
Co408 O411 1.970 . S
Co408 N425 1.989 . S
Co408 O433 1.967 . S
Co408 O440 1.920 . S
Co409 O412 1.966 . S
Co409 N418 2.022 . S
Co409 N426 1.993 . S
Co409 O434 1.941 . S
C410 O411 1.258 . S
C410 O412 1.263 . S
O411 Co408 1.970 . S
O411 C410 1.258 . S
O412 Co409 1.966 . S
O412 C410 1.263 . S
C413 O414 1.235 . S
C413 O440 1.289 . S
O414 C413 1.235 . S
C415 C417 1.400 . S
C415 N418 1.351 . S
C415 C420 1.501 . S
C416 C417 1.387 . S
C416 N419 1.341 . S
C417 C415 1.400 . S
C417 C416 1.387 . S
N418 Co409 2.022 . S
N418 C415 1.351 . S
N418 N419 1.365 . S
N419 C416 1.341 . S
N419 N418 1.365 . S
N419 H439 0.862 . S
C420 C415 1.501 . S
C420 H421 0.961 . S
C420 H422 0.961 . S
C420 H423 0.960 . S
H421 C420 0.961 . S
H422 C420 0.961 . S
H423 C420 0.960 . S
C424 N425 1.342 . S
C424 C428 1.401 . S
C424 C429 1.499 . S
N425 Co408 1.989 . S
N425 C424 1.342 . S
N425 N426 1.388 . S
N426 Co409 1.993 . S
N426 N425 1.388 . S
N426 C427 1.346 . S
C427 N426 1.346 . S
C427 C428 1.396 . S
C427 C437 1.510 . S
C428 C424 1.401 . S
C428 C427 1.396 . S
C429 C424 1.499 . S
C429 H430 0.959 . S
C429 H431 0.960 . S
C429 H432 0.961 . S
H430 C429 0.959 . S
H431 C429 0.960 . S
H432 C429 0.961 . S
O433 Co408 1.967 . S
O433 C441 1.258 . S
O434 Co409 1.941 . S
O434 C441 1.266 . S
H435 C437 0.959 . S
H436 C437 0.961 . S
C437 C427 1.510 . S
C437 H435 0.959 . S
C437 H436 0.961 . S
C437 H438 0.960 . S
H438 C437 0.960 . S
H439 N419 0.862 . S
O440 Co408 1.920 . S
O440 C413 1.289 . S
C441 O433 1.258 . S
C441 O434 1.266 . S
Co442 O445 1.970 . S
Co442 N459 1.989 . S
Co442 O467 1.967 . S
Co442 O474 1.920 . S
Co443 O446 1.966 . S
Co443 N452 2.022 . S
Co443 N460 1.993 . S
Co443 O468 1.941 . S
C444 O445 1.258 . S
C444 O446 1.263 . S
O445 Co442 1.970 . S
O445 C444 1.258 . S
O446 Co443 1.966 . S
O446 C444 1.263 . S
C447 O448 1.235 . S
C447 O474 1.289 . S
O448 C447 1.235 . S
C449 C451 1.400 . S
C449 N452 1.351 . S
C449 C454 1.501 . S
C450 C451 1.387 . S
C450 N453 1.341 . S
C451 C449 1.400 . S
C451 C450 1.387 . S
N452 Co443 2.022 . S
N452 C449 1.351 . S
N452 N453 1.365 . S
N453 C450 1.341 . S
N453 N452 1.365 . S
N453 H473 0.862 . S
C454 C449 1.501 . S
C454 H455 0.961 . S
C454 H456 0.961 . S
C454 H457 0.960 . S
H455 C454 0.961 . S
H456 C454 0.961 . S
H457 C454 0.960 . S
C458 N459 1.342 . S
C458 C462 1.401 . S
C458 C463 1.499 . S
N459 Co442 1.989 . S
N459 C458 1.342 . S
N459 N460 1.388 . S
N460 Co443 1.993 . S
N460 N459 1.388 . S
N460 C461 1.346 . S
C461 N460 1.346 . S
C461 C462 1.396 . S
C461 C471 1.510 . S
C462 C458 1.401 . S
C462 C461 1.396 . S
C463 C458 1.499 . S
C463 H464 0.959 . S
C463 H465 0.960 . S
C463 H466 0.961 . S
H464 C463 0.959 . S
H465 C463 0.960 . S
H466 C463 0.961 . S
O467 Co442 1.967 . S
O467 C475 1.258 . S
O468 Co443 1.941 . S
O468 C475 1.266 . S
H469 C471 0.959 . S
H470 C471 0.961 . S
C471 C461 1.510 . S
C471 H469 0.959 . S
C471 H470 0.961 . S
C471 H472 0.960 . S
H472 C471 0.960 . S
H473 N453 0.862 . S
O474 Co442 1.920 . S
O474 C447 1.289 . S
C475 O467 1.258 . S
C475 O468 1.266 . S
Co476 O479 1.970 . S
Co476 N493 1.989 . S
Co476 O501 1.967 . S
Co476 O508 1.920 . S
Co477 O480 1.966 . S
Co477 N486 2.022 . S
Co477 N494 1.993 . S
Co477 O502 1.941 . S
C478 O479 1.258 . S
C478 O480 1.263 . S
O479 Co476 1.970 . S
O479 C478 1.258 . S
O480 Co477 1.966 . S
O480 C478 1.263 . S
C481 O482 1.235 . S
C481 O508 1.289 . S
O482 C481 1.235 . S
C483 C485 1.400 . S
C483 N486 1.351 . S
C483 C488 1.501 . S
C484 C485 1.387 . S
C484 N487 1.341 . S
C485 C483 1.400 . S
C485 C484 1.387 . S
N486 Co477 2.022 . S
N486 C483 1.351 . S
N486 N487 1.365 . S
N487 C484 1.341 . S
N487 N486 1.365 . S
N487 H507 0.862 . S
C488 C483 1.501 . S
C488 H489 0.961 . S
C488 H490 0.961 . S
C488 H491 0.960 . S
H489 C488 0.961 . S
H490 C488 0.961 . S
H491 C488 0.960 . S
C492 N493 1.342 . S
C492 C496 1.401 . S
C492 C497 1.499 . S
N493 Co476 1.989 . S
N493 C492 1.342 . S
N493 N494 1.388 . S
N494 Co477 1.993 . S
N494 N493 1.388 . S
N494 C495 1.346 . S
C495 N494 1.346 . S
C495 C496 1.396 . S
C495 C505 1.510 . S
C496 C492 1.401 . S
C496 C495 1.396 . S
C497 C492 1.499 . S
C497 H498 0.959 . S
C497 H499 0.960 . S
C497 H500 0.961 . S
H498 C497 0.959 . S
H499 C497 0.960 . S
H500 C497 0.961 . S
O501 Co476 1.967 . S
O501 C509 1.258 . S
O502 Co477 1.941 . S
O502 C509 1.266 . S
H503 C505 0.959 . S
H504 C505 0.961 . S
C505 C495 1.510 . S
C505 H503 0.959 . S
C505 H504 0.961 . S
C505 H506 0.960 . S
H506 C505 0.960 . S
H507 N487 0.862 . S
O508 Co476 1.920 . S
O508 C481 1.289 . S
C509 O501 1.258 . S
C509 O502 1.266 . S
Co510 O513 1.970 . S
Co510 N527 1.989 . S
Co510 O535 1.967 . S
Co510 O542 1.920 . S
Co511 O514 1.966 . S
Co511 N520 2.022 . S
Co511 N528 1.993 . S
Co511 O536 1.941 . S
C512 O513 1.258 . S
C512 O514 1.263 . S
O513 Co510 1.970 . S
O513 C512 1.258 . S
O514 Co511 1.966 . S
O514 C512 1.263 . S
C515 O516 1.235 . S
C515 O542 1.289 . S
O516 C515 1.235 . S
C517 C519 1.400 . S
C517 N520 1.351 . S
C517 C522 1.501 . S
C518 C519 1.387 . S
C518 N521 1.341 . S
C519 C517 1.400 . S
C519 C518 1.387 . S
N520 Co511 2.022 . S
N520 C517 1.351 . S
N520 N521 1.365 . S
N521 C518 1.341 . S
N521 N520 1.365 . S
N521 H541 0.862 . S
C522 C517 1.501 . S
C522 H523 0.961 . S
C522 H524 0.961 . S
C522 H525 0.960 . S
H523 C522 0.961 . S
H524 C522 0.961 . S
H525 C522 0.960 . S
C526 N527 1.342 . S
C526 C530 1.401 . S
C526 C531 1.499 . S
N527 Co510 1.989 . S
N527 C526 1.342 . S
N527 N528 1.388 . S
N528 Co511 1.993 . S
N528 N527 1.388 . S
N528 C529 1.346 . S
C529 N528 1.346 . S
C529 C530 1.396 . S
C529 C539 1.510 . S
C530 C526 1.401 . S
C530 C529 1.396 . S
C531 C526 1.499 . S
C531 H532 0.959 . S
C531 H533 0.960 . S
C531 H534 0.961 . S
H532 C531 0.959 . S
H533 C531 0.960 . S
H534 C531 0.961 . S
O535 Co510 1.967 . S
O535 C543 1.258 . S
O536 Co511 1.941 . S
O536 C543 1.266 . S
H537 C539 0.959 . S
H538 C539 0.961 . S
C539 C529 1.510 . S
C539 H537 0.959 . S
C539 H538 0.961 . S
C539 H540 0.960 . S
H540 C539 0.960 . S
H541 N521 0.862 . S
O542 Co510 1.920 . S
O542 C515 1.289 . S
C543 O535 1.258 . S
C543 O536 1.266 . S
Co544 O547 1.970 . S
Co544 N561 1.989 . S
Co544 O569 1.967 . S
Co544 O576 1.920 . S
Co545 O548 1.966 . S
Co545 N554 2.022 . S
Co545 N562 1.993 . S
Co545 O570 1.941 . S
C546 O547 1.258 . S
C546 O548 1.263 . S
O547 Co544 1.970 . S
O547 C546 1.258 . S
O548 Co545 1.966 . S
O548 C546 1.263 . S
C549 O550 1.235 . S
C549 O576 1.289 . S
O550 C549 1.235 . S
C551 C553 1.400 . S
C551 N554 1.351 . S
C551 C556 1.501 . S
C552 C553 1.387 . S
C552 N555 1.341 . S
C553 C551 1.400 . S
C553 C552 1.387 . S
N554 Co545 2.022 . S
N554 C551 1.351 . S
N554 N555 1.365 . S
N555 C552 1.341 . S
N555 N554 1.365 . S
N555 H575 0.862 . S
C556 C551 1.501 . S
C556 H557 0.961 . S
C556 H558 0.961 . S
C556 H559 0.960 . S
H557 C556 0.961 . S
H558 C556 0.961 . S
H559 C556 0.960 . S
C560 N561 1.342 . S
C560 C564 1.401 . S
C560 C565 1.499 . S
N561 Co544 1.989 . S
N561 C560 1.342 . S
N561 N562 1.388 . S
N562 Co545 1.993 . S
N562 N561 1.388 . S
N562 C563 1.346 . S
C563 N562 1.346 . S
C563 C564 1.396 . S
C563 C573 1.510 . S
C564 C560 1.401 . S
C564 C563 1.396 . S
C565 C560 1.499 . S
C565 H566 0.959 . S
C565 H567 0.960 . S
C565 H568 0.961 . S
H566 C565 0.959 . S
H567 C565 0.960 . S
H568 C565 0.961 . S
O569 Co544 1.967 . S
O569 C577 1.258 . S
O570 Co545 1.941 . S
O570 C577 1.266 . S
H571 C573 0.959 . S
H572 C573 0.961 . S
C573 C563 1.510 . S
C573 H571 0.959 . S
C573 H572 0.961 . S
C573 H574 0.960 . S
H574 C573 0.960 . S
H575 N555 0.862 . S
O576 Co544 1.920 . S
O576 C549 1.289 . S
C577 O569 1.258 . S
C577 O570 1.266 . S
Co578 O581 1.970 . S
Co578 N595 1.989 . S
Co578 O603 1.967 . S
Co578 O610 1.920 . S
Co579 O582 1.966 . S
Co579 N588 2.022 . S
Co579 N596 1.993 . S
Co579 O604 1.941 . S
C580 O581 1.258 . S
C580 O582 1.263 . S
O581 Co578 1.970 . S
O581 C580 1.258 . S
O582 Co579 1.966 . S
O582 C580 1.263 . S
C583 O584 1.235 . S
C583 O610 1.289 . S
O584 C583 1.235 . S
C585 C587 1.400 . S
C585 N588 1.351 . S
C585 C590 1.501 . S
C586 C587 1.387 . S
C586 N589 1.341 . S
C587 C585 1.400 . S
C587 C586 1.387 . S
N588 Co579 2.022 . S
N588 C585 1.351 . S
N588 N589 1.365 . S
N589 C586 1.341 . S
N589 N588 1.365 . S
N589 H609 0.862 . S
C590 C585 1.501 . S
C590 H591 0.961 . S
C590 H592 0.961 . S
C590 H593 0.960 . S
H591 C590 0.961 . S
H592 C590 0.961 . S
H593 C590 0.960 . S
C594 N595 1.342 . S
C594 C598 1.401 . S
C594 C599 1.499 . S
N595 Co578 1.989 . S
N595 C594 1.342 . S
N595 N596 1.388 . S
N596 Co579 1.993 . S
N596 N595 1.388 . S
N596 C597 1.346 . S
C597 N596 1.346 . S
C597 C598 1.396 . S
C597 C607 1.510 . S
C598 C594 1.401 . S
C598 C597 1.396 . S
C599 C594 1.499 . S
C599 H600 0.959 . S
C599 H601 0.960 . S
C599 H602 0.961 . S
H600 C599 0.959 . S
H601 C599 0.960 . S
H602 C599 0.961 . S
O603 Co578 1.967 . S
O603 C611 1.258 . S
O604 Co579 1.941 . S
O604 C611 1.266 . S
H605 C607 0.959 . S
H606 C607 0.961 . S
C607 C597 1.510 . S
C607 H605 0.959 . S
C607 H606 0.961 . S
C607 H608 0.960 . S
H608 C607 0.960 . S
H609 N589 0.862 . S
O610 Co578 1.920 . S
O610 C583 1.289 . S
C611 O603 1.258 . S
C611 O604 1.266 . S
C612 C613 1.387 . S
C612 H616 0.950 . S
C612 C621 1.390 . S
C613 C612 1.387 . S
C613 C615 1.387 . S
H614 C621 0.950 . S
C615 C613 1.387 . S
C615 C617 1.390 . S
C615 H619 0.950 . S
H616 C612 0.950 . S
C617 C615 1.390 . S
C617 C618 1.387 . S
C617 H620 0.950 . S
C618 C617 1.387 . S
C618 C621 1.387 . S
H619 C615 0.950 . S
H620 C617 0.950 . S
C621 C612 1.390 . S
C621 H614 0.950 . S
C621 C618 1.387 . S
C622 C623 1.387 . S
C622 H626 0.950 . S
C622 C631 1.390 . S
C623 C622 1.387 . S
C623 C625 1.387 . S
H624 C631 0.950 . S
C625 C623 1.387 . S
C625 C627 1.390 . S
C625 H629 0.950 . S
H626 C622 0.950 . S
C627 C625 1.390 . S
C627 C628 1.387 . S
C627 H630 0.950 . S
C628 C627 1.387 . S
C628 C631 1.387 . S
H629 C625 0.950 . S
H630 C627 0.950 . S
C631 C622 1.390 . S
C631 H624 0.950 . S
C631 C628 1.387 . S
C632 C633 1.387 . S
C632 H636 0.950 . S
C632 C641 1.390 . S
C633 C632 1.387 . S
C633 C635 1.387 . S
H634 C641 0.950 1_565 S
C635 C633 1.387 . S
C635 C637 1.390 . S
C635 H639 0.950 . S
H636 C632 0.950 . S
C637 C635 1.390 . S
C637 C638 1.387 1_545 S
C637 H640 0.950 . S
C638 C637 1.387 1_565 S
C638 C641 1.387 1_565 S
H639 C635 0.950 . S
H640 C637 0.950 . S
C641 C632 1.390 . S
C641 H634 0.950 1_545 S
C641 C638 1.387 1_545 S
C642 C643 1.387 . S
C642 H646 0.950 . S
C642 C651 1.390 . S
C643 C642 1.387 . S
C643 C645 1.387 . S
H644 C651 0.950 . S
C645 C643 1.387 . S
C645 C647 1.390 . S
C645 H649 0.950 . S
H646 C642 0.950 . S
C647 C645 1.390 . S
C647 C648 1.387 . S
C647 H650 0.950 . S
C648 C647 1.387 . S
C648 C651 1.387 . S
H649 C645 0.950 . S
H650 C647 0.950 . S
C651 C642 1.390 . S
C651 H644 0.950 . S
C651 C648 1.387 . S
C652 C653 1.387 . S
C652 H656 0.950 . S
C652 C661 1.390 . S
C653 C652 1.387 . S
C653 C655 1.387 1_455 S
H654 C661 0.950 . S
C655 C653 1.387 1_655 S
C655 C657 1.390 . S
C655 H659 0.950 . S
H656 C652 0.950 . S
C657 C655 1.390 . S
C657 C658 1.387 . S
C657 H660 0.950 . S
C658 C657 1.387 . S
C658 C661 1.387 1_655 S
H659 C655 0.950 . S
H660 C657 0.950 . S
C661 C652 1.390 . S
C661 H654 0.950 . S
C661 C658 1.387 1_455 S
C662 C663 1.387 . S
C662 H666 0.950 . S
C662 C671 1.390 . S
C663 C662 1.387 . S
C663 C665 1.387 . S
H664 C671 0.950 . S
C665 C663 1.387 . S
C665 C667 1.390 . S
C665 H669 0.950 . S
H666 C662 0.950 . S
C667 C665 1.390 . S
C667 C668 1.387 . S
C667 H670 0.950 . S
C668 C667 1.387 . S
C668 C671 1.387 . S
H669 C665 0.950 . S
H670 C667 0.950 . S
C671 C662 1.390 . S
C671 H664 0.950 . S
C671 C668 1.387 . S
C672 C673 1.387 . S
C672 H676 0.950 . S
C672 C681 1.390 . S
C673 C672 1.387 . S
C673 C675 1.387 . S
H674 C681 0.950 . S
C675 C673 1.387 . S
C675 C677 1.390 . S
C675 H679 0.950 . S
H676 C672 0.950 . S
C677 C675 1.390 . S
C677 C678 1.387 . S
C677 H680 0.950 . S
C678 C677 1.387 . S
C678 C681 1.387 . S
H679 C675 0.950 . S
H680 C677 0.950 . S
C681 C672 1.390 . S
C681 H674 0.950 . S
C681 C678 1.387 . S
C682 C683 1.387 . S
C682 H686 0.950 . S
C682 C691 1.390 1_565 S
C683 C682 1.387 . S
C683 C685 1.387 . S
H684 C691 0.950 . S
C685 C683 1.387 . S
C685 C687 1.390 1_565 S
C685 H689 0.950 . S
H686 C682 0.950 . S
C687 C685 1.390 1_545 S
C687 C688 1.387 . S
C687 H690 0.950 . S
C688 C687 1.387 . S
C688 C691 1.387 . S
H689 C685 0.950 . S
H690 C687 0.950 . S
C691 C682 1.390 1_545 S
C691 H684 0.950 . S
C691 C688 1.387 . S
C692 C693 1.387 . S
C692 H696 0.950 . S
C692 C701 1.390 1_455 S
C693 C692 1.387 . S
C693 C695 1.387 . S
H694 C701 0.950 . S
C695 C693 1.387 . S
C695 C697 1.390 1_455 S
C695 H699 0.950 . S
H696 C692 0.950 . S
C697 C695 1.390 1_655 S
C697 C698 1.387 . S
C697 H700 0.950 . S
C698 C697 1.387 . S
C698 C701 1.387 . S
H699 C695 0.950 . S
H700 C697 0.950 . S
C701 C692 1.390 1_655 S
C701 H694 0.950 . S
C701 C698 1.387 . S
C702 C703 1.387 . S
C702 H706 0.950 . S
C702 C711 1.390 . S
C703 C702 1.387 . S
C703 C705 1.387 . S
H704 C711 0.950 . S
C705 C703 1.387 . S
C705 C707 1.390 . S
C705 H709 0.950 . S
H706 C702 0.950 . S
C707 C705 1.390 . S
C707 C708 1.387 . S
C707 H710 0.950 . S
C708 C707 1.387 . S
C708 C711 1.387 . S
H709 C705 0.950 . S
H710 C707 0.950 . S
C711 C702 1.390 . S
C711 H704 0.950 . S
C711 C708 1.387 . S
C712 C713 1.387 . S
C712 H716 0.950 . S
C712 C721 1.390 . S
C713 C712 1.387 . S
C713 C715 1.387 . S
H714 C721 0.950 . S
C715 C713 1.387 . S
C715 C717 1.390 . S
C715 H719 0.950 . S
H716 C712 0.950 . S
C717 C715 1.390 . S
C717 C718 1.387 . S
C717 H720 0.950 . S
C718 C717 1.387 . S
C718 C721 1.387 . S
H719 C715 0.950 . S
H720 C717 0.950 . S
C721 C712 1.390 . S
C721 H714 0.950 . S
C721 C718 1.387 . S
C722 C723 1.387 . S
C722 H726 0.950 . S
C722 C731 1.390 . S
C723 C722 1.387 . S
C723 C725 1.387 . S
H724 C731 0.950 . S
C725 C723 1.387 . S
C725 C727 1.390 . S
C725 H729 0.950 . S
H726 C722 0.950 . S
C727 C725 1.390 . S
C727 C728 1.387 . S
C727 H730 0.950 . S
C728 C727 1.387 . S
C728 C731 1.387 . S
H729 C725 0.950 . S
H730 C727 0.950 . S
C731 C722 1.390 . S
C731 H724 0.950 . S
C731 C728 1.387 . S
C732 C733 1.387 . S
C732 H736 0.950 . S
C732 C741 1.390 . S
C733 C732 1.387 . S
C733 C735 1.387 . S
H734 C741 0.950 . S
C735 C733 1.387 . S
C735 C737 1.390 . S
C735 H739 0.950 . S
H736 C732 0.950 . S
C737 C735 1.390 . S
C737 C738 1.387 . S
C737 H740 0.950 . S
C738 C737 1.387 . S
C738 C741 1.387 . S
H739 C735 0.950 . S
H740 C737 0.950 . S
C741 C732 1.390 . S
C741 H734 0.950 . S
C741 C738 1.387 . S
C742 C743 1.387 . S
C742 H746 0.950 . S
C742 C751 1.390 . S
C743 C742 1.387 . S
C743 C745 1.387 . S
H744 C751 0.950 . S
C745 C743 1.387 . S
C745 C747 1.390 . S
C745 H749 0.950 . S
H746 C742 0.950 . S
C747 C745 1.390 . S
C747 C748 1.387 . S
C747 H750 0.950 . S
C748 C747 1.387 . S
C748 C751 1.387 . S
H749 C745 0.950 . S
H750 C747 0.950 . S
C751 C742 1.390 . S
C751 H744 0.950 . S
C751 C748 1.387 . S
C752 C753 1.387 . S
C752 H756 0.950 . S
C752 C761 1.390 . S
C753 C752 1.387 . S
C753 C755 1.387 . S
H754 C761 0.950 . S
C755 C753 1.387 . S
C755 C757 1.390 . S
C755 H759 0.950 . S
H756 C752 0.950 . S
C757 C755 1.390 . S
C757 C758 1.387 . S
C757 H760 0.950 . S
C758 C757 1.387 . S
C758 C761 1.387 . S
H759 C755 0.950 . S
H760 C757 0.950 . S
C761 C752 1.390 . S
C761 H754 0.950 . S
C761 C758 1.387 . S
C762 C763 1.387 1_556 S
C762 H766 0.950 . S
C762 C771 1.390 1_655 S
C763 C762 1.387 1_554 S
C763 C765 1.387 . S
H764 C771 0.950 . S
C765 C763 1.387 . S
C765 C767 1.390 1_655 S
C765 H769 0.950 . S
H766 C762 0.950 . S
C767 C765 1.390 1_455 S
C767 C768 1.387 1_554 S
C767 H770 0.950 . S
C768 C767 1.387 1_556 S
C768 C771 1.387 . S
H769 C765 0.950 . S
H770 C767 0.950 . S
C771 C762 1.390 1_455 S
C771 H764 0.950 . S
C771 C768 1.387 . S
C772 C773 1.387 . S
C772 H776 0.950 . S
C772 C781 1.390 . S
C773 C772 1.387 . S
C773 C775 1.387 1_556 S
H774 C781 0.950 . S
C775 C773 1.387 1_554 S
C775 C777 1.390 . S
C775 H779 0.950 . S
H776 C772 0.950 . S
C777 C775 1.390 . S
C777 C778 1.387 . S
C777 H780 0.950 . S
C778 C777 1.387 . S
C778 C781 1.387 1_554 S
H779 C775 0.950 . S
H780 C777 0.950 . S
C781 C772 1.390 . S
C781 H774 0.950 . S
C781 C778 1.387 1_556 S
C782 C783 1.387 . S
C782 H786 0.950 . S
C782 C791 1.390 1_544 S
C783 C782 1.387 . S
C783 C785 1.387 . S
H784 C791 0.950 . S
C785 C783 1.387 . S
C785 C787 1.390 1_544 S
C785 H789 0.950 . S
H786 C782 0.950 . S
C787 C785 1.390 1_566 S
C787 C788 1.387 . S
C787 H790 0.950 . S
C788 C787 1.387 . S
C788 C791 1.387 . S
H789 C785 0.950 . S
H790 C787 0.950 . S
C791 C782 1.390 1_566 S
C791 H784 0.950 . S
C791 C788 1.387 . S
C792 C793 1.387 1_556 S
C792 H796 0.950 . S
C792 C801 1.390 1_455 S
C793 C792 1.387 1_554 S
C793 C795 1.387 1_455 S
H794 C801 0.945 . S
C795 C793 1.387 1_655 S
C795 C797 1.390 . S
C795 H799 0.950 . S
H796 C792 0.950 . S
C797 C795 1.390 . S
C797 C798 1.387 1_554 S
C797 H800 0.950 . S
C798 C797 1.387 1_556 S
C798 C801 1.387 . S
H799 C795 0.950 . S
H800 C797 0.950 . S
C801 C792 1.390 1_655 S
C801 H794 0.945 . S
C801 C798 1.387 . S
C802 C803 1.387 1_554 S
C802 H806 0.950 . S
C802 C811 1.390 . S
C803 C802 1.387 1_556 S
C803 C805 1.387 . S
H804 C811 0.950 . S
C805 C803 1.387 . S
C805 C807 1.390 . S
C805 H809 0.950 . S
H806 C802 0.950 . S
C807 C805 1.390 . S
C807 C808 1.387 1_556 S
C807 H810 0.950 . S
C808 C807 1.387 1_554 S
C808 C811 1.387 . S
H809 C805 0.950 . S
H810 C807 0.950 . S
C811 C802 1.390 . S
C811 H804 0.950 . S
C811 C808 1.387 . S
C812 C813 1.387 . S
C812 H816 0.950 . S
C812 C821 1.390 1_546 S
C813 C812 1.387 . S
C813 C815 1.387 . S
H814 C821 0.950 . S
C815 C813 1.387 . S
C815 C817 1.390 1_546 S
C815 H819 0.950 . S
H816 C812 0.950 . S
C817 C815 1.390 1_564 S
C817 C818 1.387 . S
C817 H820 0.950 . S
C818 C817 1.387 . S
C818 C821 1.387 . S
H819 C815 0.950 . S
H820 C817 0.950 . S
C821 C812 1.390 1_564 S
C821 H814 0.950 . S
C821 C818 1.387 . S
C822 C823 1.387 . S
C822 H826 0.950 . S
C822 C831 1.390 . S
C823 C822 1.387 . S
C823 C825 1.387 . S
H824 C831 0.950 . S
C825 C823 1.387 . S
C825 C827 1.390 . S
C825 H829 0.950 . S
H826 C822 0.950 . S
C827 C825 1.390 . S
C827 C828 1.387 . S
C827 H830 0.950 . S
C828 C827 1.387 . S
C828 C831 1.387 . S
H829 C825 0.950 . S
H830 C827 0.950 . S
C831 C822 1.390 . S
C831 H824 0.950 . S
C831 C828 1.387 . S
C832 C833 1.387 . S
C832 H836 0.950 . S
C832 C841 1.390 . S
C833 C832 1.387 . S
C833 C835 1.387 . S
H834 C841 0.950 . S
C835 C833 1.387 . S
C835 C837 1.390 . S
C835 H839 0.950 . S
H836 C832 0.950 . S
C837 C835 1.390 . S
C837 C838 1.387 . S
C837 H840 0.950 . S
C838 C837 1.387 . S
C838 C841 1.387 . S
H839 C835 0.950 . S
H840 C837 0.950 . S
C841 C832 1.390 . S
C841 H834 0.950 . S
C841 C838 1.387 . S
C842 C843 1.387 . S
C842 H846 0.950 . S
C842 C851 1.390 . S
C843 C842 1.387 . S
C843 C845 1.387 . S
H844 C851 0.950 . S
C845 C843 1.387 . S
C845 C847 1.390 . S
C845 H849 0.950 . S
H846 C842 0.950 . S
C847 C845 1.390 . S
C847 C848 1.387 . S
C847 H850 0.950 . S
C848 C847 1.387 . S
C848 C851 1.387 . S
H849 C845 0.950 . S
H850 C847 0.950 . S
C851 C842 1.390 . S
C851 H844 0.950 . S
C851 C848 1.387 . S
C852 C853 1.387 . S
C852 H856 0.950 . S
C852 C861 1.390 . S
C853 C852 1.387 . S
C853 C855 1.387 . S
H854 C861 0.950 . S
C855 C853 1.387 . S
C855 C857 1.390 . S
C855 H859 0.950 . S
H856 C852 0.950 . S
C857 C855 1.390 . S
C857 C858 1.387 . S
C857 H860 0.950 . S
C858 C857 1.387 . S
C858 C861 1.387 . S
H859 C855 0.950 . S
H860 C857 0.950 . S
C861 C852 1.390 . S
C861 H854 0.950 . S
C861 C858 1.387 . S
C862 C863 1.387 . S
C862 H866 0.950 . S
C862 C871 1.390 . S
C863 C862 1.387 . S
C863 C865 1.387 . S
H864 C871 0.950 . S
C865 C863 1.387 . S
C865 C867 1.390 . S
C865 H869 0.950 . S
H866 C862 0.950 . S
C867 C865 1.390 . S
C867 C868 1.387 . S
C867 H870 0.950 . S
C868 C867 1.387 . S
C868 C871 1.387 . S
H869 C865 0.950 . S
H870 C867 0.950 . S
C871 C862 1.390 . S
C871 H864 0.950 . S
C871 C868 1.387 . S
C872 C873 1.387 . S
C872 H876 0.950 . S
C872 C881 1.390 . S
C873 C872 1.387 . S
C873 C875 1.387 . S
H874 C881 0.950 . S
C875 C873 1.387 . S
C875 C877 1.390 . S
C875 H879 0.950 . S
H876 C872 0.950 . S
C877 C875 1.390 . S
C877 C878 1.387 . S
C877 H880 0.950 . S
C878 C877 1.387 . S
C878 C881 1.387 . S
H879 C875 0.950 . S
H880 C877 0.950 . S
C881 C872 1.390 . S
C881 H874 0.950 . S
C881 C878 1.387 . S
C882 C883 1.387 . S
C882 H886 0.950 . S
C882 C891 1.390 . S
C883 C882 1.387 . S
C883 C885 1.387 . S
H884 C891 0.950 . S
C885 C883 1.387 . S
C885 C887 1.390 . S
C885 H889 0.950 . S
H886 C882 0.950 . S
C887 C885 1.390 . S
C887 C888 1.387 . S
C887 H890 0.950 . S
C888 C887 1.387 . S
C888 C891 1.387 . S
H889 C885 0.950 . S
H890 C887 0.950 . S
C891 C882 1.390 . S
C891 H884 0.950 . S
C891 C888 1.387 . S
C892 C893 1.387 . S
C892 H896 0.950 . S
C892 C901 1.390 . S
C893 C892 1.387 . S
C893 C895 1.387 . S
H894 C901 0.950 . S
C895 C893 1.387 . S
C895 C897 1.390 . S
C895 H899 0.950 . S
H896 C892 0.950 . S
C897 C895 1.390 . S
C897 C898 1.387 . S
C897 H900 0.950 . S
C898 C897 1.387 . S
C898 C901 1.387 . S
H899 C895 0.950 . S
H900 C897 0.950 . S
C901 C892 1.390 . S
C901 H894 0.950 . S
C901 C898 1.387 . S
C902 C903 1.387 . S
C902 H906 0.950 . S
C902 C911 1.390 . S
C903 C902 1.387 . S
C903 C905 1.387 . S
H904 C911 0.950 . S
C905 C903 1.387 . S
C905 C907 1.390 . S
C905 H909 0.950 . S
H906 C902 0.950 . S
C907 C905 1.390 . S
C907 C908 1.387 . S
C907 H910 0.966 . S
C908 C907 1.387 . S
C908 C911 1.387 . S
H909 C905 0.950 . S
H910 C907 0.966 . S
C911 C902 1.390 . S
C911 H904 0.950 . S
C911 C908 1.387 . S
C912 C913 1.387 . S
C912 H916 0.950 . S
C912 C921 1.390 . S
C913 C912 1.387 . S
C913 C915 1.387 . S
H914 C921 0.950 . S
C915 C913 1.387 . S
C915 C917 1.390 . S
C915 H919 0.950 . S
H916 C912 0.950 . S
C917 C915 1.390 . S
C917 C918 1.387 . S
C917 H920 0.950 . S
C918 C917 1.387 . S
C918 C921 1.387 . S
H919 C915 0.950 . S
H920 C917 0.950 . S
C921 C912 1.390 . S
C921 H914 0.950 . S
C921 C918 1.387 . S
C922 C923 1.387 . S
C922 H926 0.950 . S
C922 C931 1.390 . S
C923 C922 1.387 . S
C923 C925 1.387 . S
H924 C931 0.950 . S
C925 C923 1.387 . S
C925 C927 1.390 . S
C925 H929 0.968 . S
H926 C922 0.950 . S
C927 C925 1.390 . S
C927 C928 1.387 . S
C927 H930 0.950 . S
C928 C927 1.387 . S
C928 C931 1.387 . S
H929 C925 0.968 . S
H930 C927 0.950 . S
C931 C922 1.390 . S
C931 H924 0.950 . S
C931 C928 1.387 . S
C932 C933 1.387 . S
C932 H936 0.950 . S
C932 C941 1.390 . S
C933 C932 1.387 . S
C933 C935 1.387 . S
H934 C941 0.950 . S
C935 C933 1.387 . S
C935 C937 1.390 . S
C935 H939 0.950 . S
H936 C932 0.950 . S
C937 C935 1.390 . S
C937 C938 1.387 . S
C937 H940 0.950 . S
C938 C937 1.387 . S
C938 C941 1.387 . S
H939 C935 0.950 . S
H940 C937 0.950 . S
C941 C932 1.390 . S
C941 H934 0.950 . S
C941 C938 1.387 . S
C942 C943 1.387 . S
C942 H946 0.950 . S
C942 C951 1.390 . S
C943 C942 1.387 . S
C943 C945 1.387 . S
H944 C951 0.950 . S
C945 C943 1.387 . S
C945 C947 1.390 . S
C945 H949 0.950 . S
H946 C942 0.950 . S
C947 C945 1.390 . S
C947 C948 1.387 . S
C947 H950 0.950 . S
C948 C947 1.387 . S
C948 C951 1.387 . S
H949 C945 0.950 . S
H950 C947 0.950 . S
C951 C942 1.390 . S
C951 H944 0.950 . S
C951 C948 1.387 . S
C952 C953 1.387 . S
C952 H956 0.950 . S
C952 C961 1.390 . S
C953 C952 1.387 . S
C953 C955 1.387 . S
H954 C961 0.950 . S
C955 C953 1.387 . S
C955 C957 1.390 . S
C955 H959 0.950 . S
H956 C952 0.950 . S
C957 C955 1.390 . S
C957 C958 1.387 . S
C957 H960 0.950 . S
C958 C957 1.387 . S
C958 C961 1.387 . S
H959 C955 0.950 . S
H960 C957 0.950 . S
C961 C952 1.390 . S
C961 H954 0.950 . S
C961 C958 1.387 . S
C962 C963 1.387 . S
C962 H966 0.950 . S
C962 C971 1.390 . S
C963 C962 1.387 . S
C963 C965 1.387 . S
H964 C971 0.950 . S
C965 C963 1.387 . S
C965 C967 1.390 . S
C965 H969 0.950 . S
H966 C962 0.950 . S
C967 C965 1.390 . S
C967 C968 1.387 . S
C967 H970 0.950 . S
C968 C967 1.387 . S
C968 C971 1.387 . S
H969 C965 0.950 . S
H970 C967 0.950 . S
C971 C962 1.390 . S
C971 H964 0.950 . S
C971 C968 1.387 . S
C972 C973 1.387 . S
C972 H976 0.950 . S
C972 C981 1.390 . S
C973 C972 1.387 . S
C973 C975 1.387 . S
H974 C981 0.950 . S
C975 C973 1.387 . S
C975 C977 1.390 . S
C975 H979 0.950 . S
H976 C972 0.950 . S
C977 C975 1.390 . S
C977 C978 1.387 . S
C977 H980 0.950 . S
C978 C977 1.387 . S
C978 C981 1.387 . S
H979 C975 0.950 . S
H980 C977 0.950 . S
C981 C972 1.390 . S
C981 H974 0.950 . S
C981 C978 1.387 . S
C982 C983 1.387 . S
C982 H986 0.950 . S
C982 C991 1.390 . S
C983 C982 1.387 . S
C983 C985 1.387 . S
H984 C991 0.950 . S
C985 C983 1.387 . S
C985 C987 1.390 . S
C985 H989 0.950 . S
H986 C982 0.950 . S
C987 C985 1.390 . S
C987 C988 1.387 . S
C987 H990 0.950 . S
C988 C987 1.387 . S
C988 C991 1.387 . S
H989 C985 0.950 . S
H990 C987 0.950 . S
C991 C982 1.390 . S
C991 H984 0.950 . S
C991 C988 1.387 . S
C992 C993 1.387 . S
C992 H996 0.950 . S
C992 C1001 1.390 . S
C993 C992 1.387 . S
C993 C995 1.387 . S
H994 C1001 0.950 . S
C995 C993 1.387 . S
C995 C997 1.390 . S
C995 H999 0.950 . S
H996 C992 0.950 . S
C997 C995 1.390 . S
C997 C998 1.387 . S
C997 H1000 0.950 . S
C998 C997 1.387 . S
C998 C1001 1.387 . S
H999 C995 0.950 . S
H1000 C997 0.950 . S
C1001 C992 1.390 . S
C1001 H994 0.950 . S
C1001 C998 1.387 . S
C1002 C1003 1.387 . S
C1002 H1006 0.950 . S
C1002 C1011 1.390 . S
C1003 C1002 1.387 . S
C1003 C1005 1.387 . S
H1004 C1011 0.950 . S
C1005 C1003 1.387 . S
C1005 C1007 1.390 . S
C1005 H1009 0.950 . S
H1006 C1002 0.950 . S
C1007 C1005 1.390 . S
C1007 C1008 1.387 . S
C1007 H1010 0.950 . S
C1008 C1007 1.387 . S
C1008 C1011 1.387 . S
H1009 C1005 0.950 . S
H1010 C1007 0.950 . S
C1011 C1002 1.390 . S
C1011 H1004 0.950 . S
C1011 C1008 1.387 . S
C1012 C1013 1.387 . S
C1012 H1016 0.950 . S
C1012 C1021 1.390 . S
C1013 C1012 1.387 . S
C1013 C1015 1.387 . S
H1014 C1021 0.950 . S
C1015 C1013 1.387 . S
C1015 C1017 1.390 . S
C1015 H1019 0.950 . S
H1016 C1012 0.950 . S
C1017 C1015 1.390 . S
C1017 C1018 1.387 . S
C1017 H1020 0.950 . S
C1018 C1017 1.387 . S
C1018 C1021 1.387 . S
H1019 C1015 0.950 . S
H1020 C1017 0.950 . S
C1021 C1012 1.390 . S
C1021 H1014 0.950 . S
C1021 C1018 1.387 . S
C1022 C1023 1.387 . S
C1022 H1026 0.950 . S
C1022 C1031 1.390 . S
C1023 C1022 1.387 . S
C1023 C1025 1.387 . S
H1024 C1031 0.950 . S
C1025 C1023 1.387 . S
C1025 C1027 1.390 . S
C1025 H1029 0.950 . S
H1026 C1022 0.950 . S
C1027 C1025 1.390 . S
C1027 C1028 1.387 . S
C1027 H1030 0.950 . S
C1028 C1027 1.387 . S
C1028 C1031 1.387 . S
H1029 C1025 0.950 . S
H1030 C1027 0.950 . S
C1031 C1022 1.390 . S
C1031 H1024 0.950 . S
C1031 C1028 1.387 . S
C1032 C1033 1.387 . S
C1032 H1036 0.950 . S
C1032 C1041 1.390 . S
C1033 C1032 1.387 . S
C1033 C1035 1.387 . S
H1034 C1041 0.950 . S
C1035 C1033 1.387 . S
C1035 C1037 1.390 . S
C1035 H1039 0.950 . S
H1036 C1032 0.950 . S
C1037 C1035 1.390 . S
C1037 C1038 1.387 . S
C1037 H1040 0.950 . S
C1038 C1037 1.387 . S
C1038 C1041 1.387 . S
H1039 C1035 0.950 . S
H1040 C1037 0.950 . S
C1041 C1032 1.390 . S
C1041 H1034 0.950 . S
C1041 C1038 1.387 . S
C1042 C1043 1.387 . S
C1042 H1046 0.950 . S
C1042 C1051 1.390 . S
C1043 C1042 1.387 . S
C1043 C1045 1.387 . S
H1044 C1051 0.950 . S
C1045 C1043 1.387 . S
C1045 C1047 1.390 . S
C1045 H1049 0.950 . S
H1046 C1042 0.950 . S
C1047 C1045 1.390 . S
C1047 C1048 1.387 . S
C1047 H1050 0.950 . S
C1048 C1047 1.387 . S
C1048 C1051 1.387 . S
H1049 C1045 0.950 . S
H1050 C1047 0.950 . S
C1051 C1042 1.390 . S
C1051 H1044 0.950 . S
C1051 C1048 1.387 . S
C1052 C1053 1.387 . S
C1052 H1056 0.950 . S
C1052 C1061 1.390 . S
C1053 C1052 1.387 . S
C1053 C1055 1.387 . S
H1054 C1061 0.950 . S
C1055 C1053 1.387 . S
C1055 C1057 1.390 . S
C1055 H1059 0.950 . S
H1056 C1052 0.950 . S
C1057 C1055 1.390 . S
C1057 C1058 1.387 . S
C1057 H1060 0.950 . S
C1058 C1057 1.387 . S
C1058 C1061 1.387 . S
H1059 C1055 0.950 . S
H1060 C1057 0.950 . S
C1061 C1052 1.390 . S
C1061 H1054 0.950 . S
C1061 C1058 1.387 . S
C613 C315 0.628 . S
C618 C9 0.622 . S
C623 C349 0.623 . S
C628 C43 0.623 . S
C633 C383 0.622 . S
C638 C77 0.614 1_565 S
C643 C111 0.622 . S
C648 C417 0.629 . S
C653 C451 0.628 . S
C658 C145 0.614 1_655 S
C663 C485 0.623 . S
C668 C179 0.629 . S
C673 C213 0.621 . S
C678 C519 0.626 . S
C683 C553 0.628 . S
C688 C247 0.628 . S
C693 C587 0.629 . S
C698 C281 0.623 . S
C703 C598 1.961 . S
C708 C20 1.961 . S
C713 C530 1.962 . S
C718 C54 1.963 . S
C723 C88 1.963 . S
C728 C564 1.962 . S
C733 C258 1.962 . S
C738 C122 1.963 . S
C743 C292 1.964 . S
C748 C156 1.963 . S
C753 C190 1.961 . S
C758 C224 1.961 . S
C763 C326 1.961 . S
C768 C462 1.962 . S
C773 C496 1.964 . S
C778 C360 1.963 . S
C783 C394 1.964 . S
C788 C428 1.964 . S
C793 C2 1.901 . S
C798 C138 1.902 . S
C803 C172 1.901 . S
C808 C36 1.901 . S
C813 C104 1.901 . S
C818 C70 1.901 . S
C823 C342 1.902 . S
C828 C206 1.902 . S
C833 C240 1.904 . S
C838 C376 1.904 . S
C843 C308 1.901 . S
C848 C274 1.901 . S
C853 C410 1.903 . S
C858 C546 1.903 . S
C863 C580 1.902 . S
C868 C444 1.902 . S
C873 C478 1.904 . S
C878 C512 1.904 . S
C883 C101 1.600 1_545 S
C888 C5 1.588 . S
C893 C33 1.602 . S
C898 C39 1.592 1_545 S
C903 C67 1.602 . S
C908 C73 1.564 1_655 S
C913 C169 1.603 1_455 S
C918 C107 1.591 . S
C923 C141 1.565 1_565 S
C928 C203 1.603 . S
C933 C135 1.601 . S
C938 C175 1.588 1_455 S
C943 C305 1.603 . S
C948 C209 1.592 . S
C953 C237 1.602 . S
C958 C243 1.592 . S
C963 C277 1.591 . S
C968 C271 1.601 . S
C973 C311 1.588 . S
C978 C373 1.600 . S
C983 C407 1.601 . S
C988 C345 1.589 . S
C993 C339 1.600 . S
C998 C379 1.589 . S
C1003 C413 1.588 . S
C1008 C509 1.601 . S
C1013 C441 1.600 . S
C1018 C447 1.588 . S
C1023 C475 1.601 . S
C1028 C481 1.591 . S
C1033 C577 1.600 . S
C1038 C515 1.588 . S
C1043 C611 1.603 . S
C1048 C549 1.592 . S
C1053 C543 1.601 . S
C1058 C583 1.591 . S
