# Generated by pormake.
# Topology zfi, (5)-cn, num edge types: 1
# Building blocks:
#     Node 0, Type 0, BuildingBlock: XOMCOT_clean_sbu_1, # of connection points: 5
#     Node 1, Type 0, BuildingBlock: XOMCOT_clean_sbu_1, # of connection points: 5
#     Node 2, Type 0, BuildingBlock: XOMCOT_clean_sbu_1, # of connection points: 5
#     Node 3, Type 0, BuildingBlock: XOMCOT_clean_sbu_1, # of connection points: 5
#     Node 4, Type 0, BuildingBlock: XOMCOT_clean_sbu_1, # of connection points: 5
#     Node 5, Type 0, BuildingBlock: XOMCOT_clean_sbu_1, # of connection points: 5
#     Node 6, Type 0, BuildingBlock: XOMCOT_clean_sbu_1, # of connection points: 5
#     Node 7, Type 0, BuildingBlock: XOMCOT_clean_sbu_1, # of connection points: 5
#     Node 8, Type 0, BuildingBlock: XOMCOT_clean_sbu_1, # of connection points: 5
#     Node 9, Type 0, BuildingBlock: XOMCOT_clean_sbu_1, # of connection points: 5
#     Node 10, Type 0, BuildingBlock: XOMCOT_clean_sbu_1, # of connection points: 5
#     Node 11, Type 0, BuildingBlock: XOMCOT_clean_sbu_1, # of connection points: 5
#     Node 12, Type 0, BuildingBlock: XOMCOT_clean_sbu_1, # of connection points: 5
#     Node 13, Type 0, BuildingBlock: XOMCOT_clean_sbu_1, # of connection points: 5
#     Node 14, Type 0, BuildingBlock: XOMCOT_clean_sbu_1, # of connection points: 5
#     Node 15, Type 0, BuildingBlock: XOMCOT_clean_sbu_1, # of connection points: 5
#     Edge 16, Type (0, 0), BuildingBlock: TEMPAE_clean_linker_10, # of connection points: 2
#     Edge 17, Type (0, 0), BuildingBlock: TEMPAE_clean_linker_10, # of connection points: 2
#     Edge 18, Type (0, 0), BuildingBlock: TEMPAE_clean_linker_10, # of connection points: 2
#     Edge 19, Type (0, 0), BuildingBlock: TEMPAE_clean_linker_10, # of connection points: 2
#     Edge 20, Type (0, 0), BuildingBlock: TEMPAE_clean_linker_10, # of connection points: 2
#     Edge 21, Type (0, 0), BuildingBlock: TEMPAE_clean_linker_10, # of connection points: 2
#     Edge 22, Type (0, 0), BuildingBlock: TEMPAE_clean_linker_10, # of connection points: 2
#     Edge 23, Type (0, 0), BuildingBlock: TEMPAE_clean_linker_10, # of connection points: 2
#     Edge 24, Type (0, 0), BuildingBlock: TEMPAE_clean_linker_10, # of connection points: 2
#     Edge 25, Type (0, 0), BuildingBlock: TEMPAE_clean_linker_10, # of connection points: 2
#     Edge 26, Type (0, 0), BuildingBlock: TEMPAE_clean_linker_10, # of connection points: 2
#     Edge 27, Type (0, 0), BuildingBlock: TEMPAE_clean_linker_10, # of connection points: 2
#     Edge 28, Type (0, 0), BuildingBlock: TEMPAE_clean_linker_10, # of connection points: 2
#     Edge 29, Type (0, 0), BuildingBlock: TEMPAE_clean_linker_10, # of connection points: 2
#     Edge 30, Type (0, 0), BuildingBlock: TEMPAE_clean_linker_10, # of connection points: 2
#     Edge 31, Type (0, 0), BuildingBlock: TEMPAE_clean_linker_10, # of connection points: 2
#     Edge 32, Type (0, 0), BuildingBlock: TEMPAE_clean_linker_10, # of connection points: 2
#     Edge 33, Type (0, 0), BuildingBlock: TEMPAE_clean_linker_10, # of connection points: 2
#     Edge 34, Type (0, 0), BuildingBlock: TEMPAE_clean_linker_10, # of connection points: 2
#     Edge 35, Type (0, 0), BuildingBlock: TEMPAE_clean_linker_10, # of connection points: 2
#     Edge 36, Type (0, 0), BuildingBlock: TEMPAE_clean_linker_10, # of connection points: 2
#     Edge 37, Type (0, 0), BuildingBlock: TEMPAE_clean_linker_10, # of connection points: 2
#     Edge 38, Type (0, 0), BuildingBlock: TEMPAE_clean_linker_10, # of connection points: 2
#     Edge 39, Type (0, 0), BuildingBlock: TEMPAE_clean_linker_10, # of connection points: 2
#     Edge 40, Type (0, 0), BuildingBlock: TEMPAE_clean_linker_10, # of connection points: 2
#     Edge 41, Type (0, 0), BuildingBlock: TEMPAE_clean_linker_10, # of connection points: 2
#     Edge 42, Type (0, 0), BuildingBlock: TEMPAE_clean_linker_10, # of connection points: 2
#     Edge 43, Type (0, 0), BuildingBlock: TEMPAE_clean_linker_10, # of connection points: 2
#     Edge 44, Type (0, 0), BuildingBlock: TEMPAE_clean_linker_10, # of connection points: 2
#     Edge 45, Type (0, 0), BuildingBlock: TEMPAE_clean_linker_10, # of connection points: 2
#     Edge 46, Type (0, 0), BuildingBlock: TEMPAE_clean_linker_10, # of connection points: 2
#     Edge 47, Type (0, 0), BuildingBlock: TEMPAE_clean_linker_10, # of connection points: 2
#     Edge 48, Type (0, 0), BuildingBlock: TEMPAE_clean_linker_10, # of connection points: 2
#     Edge 49, Type (0, 0), BuildingBlock: TEMPAE_clean_linker_10, # of connection points: 2
#     Edge 50, Type (0, 0), BuildingBlock: TEMPAE_clean_linker_10, # of connection points: 2
#     Edge 51, Type (0, 0), BuildingBlock: TEMPAE_clean_linker_10, # of connection points: 2
#     Edge 52, Type (0, 0), BuildingBlock: TEMPAE_clean_linker_10, # of connection points: 2
#     Edge 53, Type (0, 0), BuildingBlock: TEMPAE_clean_linker_10, # of connection points: 2
#     Edge 54, Type (0, 0), BuildingBlock: TEMPAE_clean_linker_10, # of connection points: 2
#     Edge 55, Type (0, 0), BuildingBlock: TEMPAE_clean_linker_10, # of connection points: 2
# Relax obj value: 0.108
# Max RMSD: 0.125
# Mean RMSD: 0.125
data_MOF--net-zfi--node1-XOMCOT_clean_sbu_1--edge1-TEMPAE_clean_linker_10
_symmetry_space_group_name_H-M    P1
_symmetry_Int_Tables_number       1
_symmetry_cell_setting            triclinic
loop_
_symmetry_equiv_pos_as_xyz
'x, y, z'
_cell_length_a     39.208827
_cell_length_b     39.312147
_cell_length_c     49.158758
_cell_angle_alpha  90.154522
_cell_angle_beta   89.945755
_cell_angle_gamma 90.01456
loop_
_atom_site_label
_atom_site_type_symbol
_atom_site_fract_x
_atom_site_fract_y
_atom_site_fract_z
_atom_type_partial_charge
C0 C 0.62683 0.1338 0.13124 0.0
C1 C 0.64053 0.16612 0.13085 0.0
N2 N 0.67241 0.16417 0.12072 0.0
N3 N 0.64992 0.11153 0.12136 0.0
C4 C 0.67722 0.13094 0.11481 0.0
H5 H 0.60201 0.12684 0.13907 0.0
Co6 Co 0.64569 0.06399 0.12015 0.0
C7 C 0.63052 0.04448 0.17807 0.0
O8 O 0.64705 0.01562 0.1752 0.0
N9 N 0.64069 0.0163 0.11843 0.0
C10 C 0.64515 0.96123 0.10845 0.0
C11 C 0.6611 0.99229 0.10732 0.0
C12 C 0.61217 0.99904 0.1256 0.0
N13 N 0.61425 0.9655 0.11991 0.0
O14 O 0.6001 0.06743 0.10601 0.0
H15 H 0.68563 0.99657 0.09809 0.0
H16 H 0.58996 0.01115 0.13438 0.0
O17 O 0.62851 0.0651 0.15798 0.0
C18 C 0.5992 0.06879 0.08009 0.0
O19 O 0.62781 0.07454 0.06693 0.0
N20 N 0.6914 0.05987 0.13126 0.0
C21 C 0.76035 0.04582 0.13882 0.0
C22 C 0.7397 0.0552 0.16096 0.0
C23 C 0.70527 0.06299 0.15664 0.0
C24 C 0.71195 0.05432 0.10936 0.0
C25 C 0.74635 0.04683 0.11264 0.0
H26 H 0.69012 0.07115 0.17373 0.0
H27 H 0.70102 0.05423 0.08916 0.0
H28 H 0.70054 0.12097 0.10624 0.0
H29 H 0.62849 0.189 0.13851 0.0
H30 H 0.65561 0.93737 0.10126 0.0
H31 H 0.74993 0.05596 0.18141 0.0
H32 H 0.76129 0.04007 0.09489 0.0
C33 C 0.38444 0.63047 0.11254 0.0
C34 C 0.35189 0.64346 0.11219 0.0
N35 N 0.35071 0.67061 0.12891 0.0
N36 N 0.40411 0.64919 0.12945 0.0
C37 C 0.38246 0.67311 0.13947 0.0
H38 H 0.39327 0.60963 0.10005 0.0
Co39 Co 0.45223 0.6463 0.13295 0.0
C40 C 0.46634 0.62881 0.19177 0.0
O41 O 0.4971 0.64183 0.18991 0.0
N42 N 0.50015 0.64337 0.13534 0.0
C43 C 0.5557 0.65249 0.12967 0.0
C44 C 0.52382 0.66701 0.1289 0.0
C45 C 0.51842 0.61471 0.13978 0.0
N46 N 0.55218 0.61951 0.13643 0.0
O47 O 0.45216 0.60011 0.11862 0.0
H48 H 0.51853 0.69288 0.12299 0.0
H49 H 0.50698 0.59036 0.14447 0.0
O50 O 0.44634 0.62968 0.17107 0.0
C51 C 0.46309 0.6006 0.09406 0.0
O52 O 0.46826 0.63028 0.08254 0.0
N53 N 0.45385 0.69235 0.14339 0.0
C54 C 0.468 0.76167 0.14742 0.0
C55 C 0.46517 0.74158 0.17088 0.0
C56 C 0.45768 0.7069 0.16848 0.0
C57 C 0.4535 0.71212 0.12066 0.0
C58 C 0.4606 0.74679 0.12217 0.0
H59 H 0.45577 0.69218 0.18677 0.0
H60 H 0.44992 0.7003 0.10097 0.0
H61 H 0.39019 0.69348 0.1529 0.0
H62 H 0.33104 0.63429 0.09975 0.0
H63 H 0.57955 0.66515 0.12516 0.0
H64 H 0.46981 0.75236 0.19084 0.0
H65 H 0.46261 0.76121 0.10349 0.0
C66 C 0.8824 0.38923 0.09271 0.0
C67 C 0.8693 0.3569 0.09051 0.0
N68 N 0.84456 0.35321 0.10925 0.0
N69 N 0.86614 0.40624 0.11281 0.0
C70 C 0.8436 0.38318 0.1228 0.0
H71 H 0.9014 0.3999 0.07932 0.0
Co72 Co 0.86923 0.45363 0.11982 0.0
C73 C 0.88929 0.46206 0.17862 0.0
O74 O 0.87457 0.49205 0.17904 0.0
N75 N 0.87229 0.50111 0.12571 0.0
C76 C 0.86202 0.55674 0.12798 0.0
C77 C 0.84777 0.52518 0.12391 0.0
C78 C 0.90127 0.51893 0.13043 0.0
N79 N 0.89572 0.55272 0.13205 0.0
O80 O 0.91443 0.45534 0.10348 0.0
H81 H 0.82126 0.52057 0.1194 0.0
H82 H 0.92602 0.50721 0.13302 0.0
O83 O 0.88836 0.44393 0.1568 0.0
C84 C 0.9111 0.46874 0.07991 0.0
O85 O 0.88005 0.4746 0.071 0.0
N86 N 0.82383 0.45364 0.13216 0.0
C87 C 0.7548 0.46722 0.14005 0.0
C88 C 0.77613 0.4602 0.16228 0.0
C89 C 0.81066 0.45306 0.1579 0.0
C90 C 0.80275 0.45686 0.1103 0.0
C91 C 0.76821 0.46388 0.11374 0.0
H92 H 0.82635 0.44773 0.17526 0.0
H93 H 0.81346 0.45645 0.09002 0.0
H94 H 0.82513 0.38883 0.13848 0.0
H95 H 0.87662 0.33803 0.07553 0.0
H96 H 0.84874 0.58084 0.12714 0.0
H97 H 0.76646 0.4614 0.18291 0.0
H98 H 0.75283 0.4691 0.09595 0.0
C99 C 0.13306 0.88206 0.10272 0.0
C100 C 0.1655 0.86896 0.10452 0.0
N101 N 0.16655 0.84702 0.12552 0.0
N102 N 0.11344 0.86865 0.12253 0.0
C103 C 0.13483 0.84787 0.13638 0.0
H104 H 0.12406 0.89861 0.08677 0.0
Co105 Co 0.06554 0.87169 0.12548 0.0
C106 C 0.05137 0.89357 0.18376 0.0
O107 O 0.01948 0.88356 0.18231 0.0
N108 N 0.01762 0.87459 0.12747 0.0
C109 C 0.96211 0.86402 0.12341 0.0
C110 C 0.99429 0.85017 0.12215 0.0
C111 C 0.99893 0.90315 0.13122 0.0
N112 N 0.96514 0.89738 0.1292 0.0
O113 O 0.06585 0.9171 0.11003 0.0
H114 H 1.00007 0.82405 0.11709 0.0
H115 H 0.01 0.92789 0.13517 0.0
O116 O 0.07127 0.88963 0.16322 0.0
C117 C 0.05581 0.91367 0.08539 0.0
O118 O 0.05329 0.88264 0.07554 0.0
N119 N 0.06384 0.82613 0.13678 0.0
C120 C 0.04648 0.75755 0.13979 0.0
C121 C 0.04512 0.77832 0.16307 0.0
C122 C 0.05415 0.8127 0.16119 0.0
C123 C 0.06845 0.80555 0.11475 0.0
C124 C 0.06024 0.77116 0.11585 0.0
H125 H 0.05133 0.82838 0.17895 0.0
H126 H 0.07632 0.81652 0.09559 0.0
H127 H 0.12678 0.83219 0.15324 0.0
H128 H 0.18594 0.87334 0.09013 0.0
H129 H 0.93837 0.85051 0.12031 0.0
H130 H 0.03487 0.76881 0.18205 0.0
H131 H 0.06262 0.75587 0.09758 0.0
C132 C 0.1272 0.87687 0.42056 0.0
C133 C 0.14074 0.84451 0.42169 0.0
N134 N 0.17268 0.84667 0.43163 0.0
N135 N 0.15046 0.89939 0.4298 0.0
C136 C 0.17768 0.88009 0.43671 0.0
H137 H 0.10239 0.88366 0.41266 0.0
Co138 Co 0.14667 0.94698 0.4298 0.0
C139 C 0.13052 0.96503 0.3719 0.0
O140 O 0.14761 0.99363 0.3744 0.0
N141 N 0.14225 0.99491 0.43032 0.0
C142 C 0.14755 0.05019 0.43931 0.0
C143 C 0.16345 0.01911 0.44017 0.0
C144 C 0.11341 0.01215 0.424 0.0
N145 N 0.11597 0.04576 0.42924 0.0
O146 O 0.10133 0.94447 0.44518 0.0
H147 H 0.18843 0.01496 0.44859 0.0
H148 H 0.09045 0.99995 0.41663 0.0
O149 O 0.1284 0.9447 0.39221 0.0
C150 C 0.10194 0.95149 0.47057 0.0
O151 O 0.13177 0.95422 0.48252 0.0
N152 N 0.19211 0.95018 0.41765 0.0
C153 C 0.26078 0.96409 0.4084 0.0
C154 C 0.23955 0.95378 0.38691 0.0
C155 C 0.20527 0.94605 0.3921 0.0
C156 C 0.2133 0.95642 0.43901 0.0
C157 C 0.24755 0.96389 0.43487 0.0
H158 H 0.18963 0.93724 0.37551 0.0
H159 H 0.20293 0.95732 0.45941 0.0
H160 H 0.20109 0.89028 0.44493 0.0
H161 H 0.12854 0.82142 0.41463 0.0
H162 H 0.15835 0.07413 0.44599 0.0
H163 H 0.24917 0.95234 0.36628 0.0
H164 H 0.26294 0.97139 0.45217 0.0
C165 C 0.62812 0.12927 0.44561 0.0
C166 C 0.66086 0.14177 0.44593 0.0
N167 N 0.66305 0.16709 0.42764 0.0
N168 N 0.60934 0.14655 0.42721 0.0
C169 C 0.63174 0.16903 0.41626 0.0
H170 H 0.61858 0.10974 0.45901 0.0
Co171 Co 0.5614 0.14378 0.42236 0.0
C172 C 0.55021 0.1209 0.3644 0.0
O173 O 0.51962 0.13448 0.36424 0.0
N174 N 0.5136 0.14094 0.41846 0.0
C175 C 0.45777 0.1511 0.41958 0.0
C176 C 0.48969 0.16532 0.422 0.0
C177 C 0.49543 0.1121 0.41437 0.0
N178 N 0.46151 0.1176 0.41472 0.0
O179 O 0.56015 0.09942 0.43943 0.0
H180 H 0.49475 0.1917 0.42658 0.0
H181 H 0.50695 0.08734 0.41147 0.0
O182 O 0.56908 0.12358 0.38565 0.0
C183 C 0.54919 0.10461 0.46363 0.0
O184 O 0.54655 0.13626 0.47206 0.0
N185 N 0.56084 0.18859 0.40937 0.0
C186 C 0.54633 0.25734 0.40209 0.0
C187 C 0.55061 0.23566 0.37954 0.0
C188 C 0.55811 0.20121 0.3836 0.0
C189 C 0.56016 0.20995 0.43121 0.0
C190 C 0.55276 0.2443 0.4281 0.0
H191 H 0.56077 0.18508 0.36606 0.0
H192 H 0.56289 0.19961 0.45145 0.0
H193 H 0.62487 0.18803 0.40141 0.0
H194 H 0.68115 0.13358 0.45931 0.0
H195 H 0.43371 0.16441 0.42132 0.0
H196 H 0.5469 0.24493 0.35903 0.0
H197 H 0.5496 0.25977 0.44618 0.0
C198 C 0.38067 0.62013 0.46282 0.0
C199 C 0.36793 0.65265 0.46477 0.0
N200 N 0.34319 0.65635 0.44607 0.0
N201 N 0.36414 0.60299 0.44295 0.0
C202 C 0.34186 0.62618 0.43283 0.0
H203 H 0.39971 0.60949 0.47617 0.0
Co204 Co 0.3668 0.55544 0.43604 0.0
C205 C 0.38843 0.54713 0.37749 0.0
O206 O 0.3728 0.51759 0.37655 0.0
N207 N 0.36946 0.50809 0.43028 0.0
C208 C 0.35974 0.4523 0.43003 0.0
C209 C 0.3454 0.48389 0.43394 0.0
C210 C 0.39824 0.49043 0.42461 0.0
N211 N 0.39296 0.45659 0.42406 0.0
O212 O 0.41121 0.55267 0.45375 0.0
H213 H 0.31925 0.48848 0.43971 0.0
H214 H 0.42282 0.50226 0.42127 0.0
O215 O 0.38755 0.56492 0.39951 0.0
C216 C 0.40556 0.53993 0.47732 0.0
O217 O 0.37363 0.53678 0.48512 0.0
N218 N 0.32196 0.55605 0.42251 0.0
C219 C 0.25301 0.54378 0.41311 0.0
C220 C 0.27518 0.55078 0.39138 0.0
C221 C 0.30966 0.55732 0.39653 0.0
C222 C 0.3001 0.55282 0.44389 0.0
C223 C 0.2656 0.54643 0.4397 0.0
H224 H 0.32595 0.56292 0.37955 0.0
H225 H 0.31008 0.5528 0.46439 0.0
H226 H 0.32333 0.62059 0.4172 0.0
H227 H 0.37556 0.67169 0.47951 0.0
H228 H 0.34675 0.42808 0.43153 0.0
H229 H 0.26617 0.55011 0.37056 0.0
H230 H 0.24956 0.5412 0.45714 0.0
C231 C 0.8827 0.37861 0.44355 0.0
C232 C 0.85024 0.36553 0.44204 0.0
N233 N 0.84997 0.34041 0.42338 0.0
N234 N 0.90323 0.36194 0.42592 0.0
C235 C 0.8822 0.33925 0.41359 0.0
H236 H 0.8908 0.39786 0.45782 0.0
Co237 Co 0.95139 0.36492 0.42352 0.0
C238 C 0.96688 0.38233 0.36479 0.0
O239 O 0.99764 0.36935 0.36681 0.0
N240 N 0.99914 0.36797 0.42211 0.0
C241 C 0.05469 0.35922 0.42793 0.0
C242 C 0.02282 0.34468 0.42921 0.0
C243 C 0.01732 0.39647 0.41696 0.0
N244 N 0.05112 0.39187 0.42023 0.0
O245 O 0.95091 0.41107 0.43769 0.0
H246 H 0.01755 0.31899 0.43564 0.0
H247 H 1.0058 0.42038 0.4112 0.0
O248 O 0.94665 0.38146 0.38536 0.0
C249 C 0.95701 0.41097 0.46327 0.0
O250 O 0.9575 0.38159 0.47596 0.0
N251 N 0.95337 0.31881 0.41311 0.0
C252 C 0.96787 0.24958 0.40881 0.0
C253 C 0.96519 0.26984 0.38545 0.0
C254 C 0.95761 0.30446 0.38799 0.0
C255 C 0.95264 0.29883 0.43571 0.0
C256 C 0.95998 0.26419 0.43409 0.0
H257 H 0.95582 0.31927 0.36974 0.0
H258 H 0.94867 0.31046 0.45543 0.0
H259 H 0.89057 0.32119 0.3984 0.0
H260 H 0.8291 0.3725 0.45508 0.0
H261 H 0.07858 0.3467 0.43249 0.0
H262 H 0.97007 0.25927 0.36545 0.0
H263 H 0.96178 0.24962 0.45269 0.0
C264 C 0.38201 0.88647 0.95263 0.0
C265 C 0.36981 0.85368 0.95347 0.0
N266 N 0.348 0.8492 0.93259 0.0
N267 N 0.36815 0.90287 0.93125 0.0
C268 C 0.34812 0.87915 0.91911 0.0
H269 H 0.39842 0.89794 0.9677 0.0
Co270 Co 0.37008 0.95009 0.92451 0.0
C271 C 0.4195 0.94068 0.87854 0.0
O272 O 0.44577 0.94679 0.89436 0.0
N273 N 0.37172 0.997 0.91827 0.0
C274 C 0.35994 0.05208 0.92199 0.0
C275 C 0.34732 0.01972 0.92505 0.0
C276 C 0.3989 0.01616 0.91118 0.0
N277 N 0.39251 0.04975 0.91347 0.0
O278 O 0.41428 0.95341 0.94206 0.0
H279 H 0.32254 0.01327 0.93318 0.0
H280 H 0.42378 1.00582 0.90667 0.0
O281 O 0.38934 0.94093 0.88841 0.0
C282 C 0.41011 0.96739 0.96536 0.0
O283 O 0.37874 0.97256 0.97388 0.0
N284 N 0.32582 0.94914 0.91046 0.0
C285 C 0.25792 0.96502 0.8998 0.0
C286 C 0.28269 0.96729 0.87917 0.0
C287 C 0.31672 0.95931 0.88494 0.0
C288 C 0.3018 0.94447 0.93011 0.0
C289 C 0.26768 0.95201 0.92518 0.0
H290 H 0.33592 0.964 0.86962 0.0
H291 H 0.30964 0.93733 0.9504 0.0
H292 H 0.33178 0.88453 0.90194 0.0
H293 H 0.37545 0.83512 0.96904 0.0
H294 H 0.34661 0.07547 0.92674 0.0
H295 H 0.27622 0.97708 0.85926 0.0
H296 H 0.24973 0.9504 0.94188 0.0
C297 C 0.63035 0.37683 0.9624 0.0
C298 C 0.6624 0.36284 0.96359 0.0
N299 N 0.6641 0.33724 0.94545 0.0
N300 N 0.61142 0.36019 0.94362 0.0
C301 C 0.63319 0.33656 0.93329 0.0
H302 H 0.62152 0.3972 0.97533 0.0
Co303 Co 0.56391 0.36561 0.9371 0.0
C304 C 0.55922 0.39404 0.8793 0.0
O305 O 0.52584 0.3954 0.87948 0.0
N306 N 0.51641 0.37079 0.93183 0.0
C307 C 0.46031 0.36158 0.93101 0.0
C308 C 0.49188 0.34662 0.93302 0.0
C309 C 0.49878 0.40032 0.92984 0.0
N310 N 0.46481 0.39536 0.92884 0.0
O311 O 0.56453 0.41062 0.95356 0.0
H312 H 0.49622 0.31973 0.93572 0.0
H313 H 0.51063 0.42514 0.92885 0.0
O314 O 0.57548 0.38347 0.9003 0.0
C315 C 0.55518 0.40839 0.97847 0.0
O316 O 0.55092 0.37787 0.9888 0.0
N317 N 0.56148 0.32082 0.92388 0.0
C318 C 0.54413 0.25338 0.91291 0.0
C319 C 0.54791 0.27693 0.8917 0.0
C320 C 0.55639 0.31065 0.8976 0.0
C321 C 0.56073 0.29772 0.94448 0.0
C322 C 0.55199 0.26389 0.93949 0.0
H323 H 0.55705 0.32845 0.88107 0.0
H324 H 0.56463 0.30624 0.96519 0.0
H325 H 0.62609 0.31789 0.91812 0.0
H326 H 0.68264 0.37046 0.97727 0.0
H327 H 0.43595 0.34861 0.93094 0.0
H328 H 0.54279 0.26978 0.8708 0.0
H329 H 0.5491 0.24685 0.95661 0.0
C330 C 0.13118 0.6321 0.93834 0.0
C331 C 0.14509 0.66423 0.9377 0.0
N332 N 0.17321 0.66343 0.92198 0.0
N333 N 0.15034 0.61068 0.92315 0.0
C334 C 0.17534 0.63095 0.91303 0.0
H335 H 0.10922 0.62496 0.95027 0.0
Co336 Co 0.14647 0.56242 0.92063 0.0
C337 C 0.12875 0.54768 0.86188 0.0
O338 O 0.14106 0.51672 0.86379 0.0
N339 N 0.14257 0.51467 0.91899 0.0
C340 C 0.15158 0.45908 0.92332 0.0
C341 C 0.16619 0.49079 0.9249 0.0
C342 C 0.11372 0.49667 0.91426 0.0
N343 N 0.1185 0.46282 0.91667 0.0
O344 O 0.10044 0.56359 0.93499 0.0
H345 H 0.19232 0.49568 0.9305 0.0
H346 H 0.08953 0.50831 0.90932 0.0
O347 O 0.12991 0.56766 0.88258 0.0
C348 C 0.10142 0.5585 0.96069 0.0
O349 O 0.13131 0.55852 0.97276 0.0
N350 N 0.19248 0.55962 0.91021 0.0
C351 C 0.26183 0.54458 0.90646 0.0
C352 C 0.24188 0.5481 0.88289 0.0
C353 C 0.20714 0.55576 0.88517 0.0
C354 C 0.21214 0.5596 0.93303 0.0
C355 C 0.24672 0.55182 0.9317 0.0
H356 H 0.19249 0.55804 0.86682 0.0
H357 H 0.20022 0.56327 0.95267 0.0
H358 H 0.19551 0.62204 0.89989 0.0
H359 H 0.13624 0.68596 0.94927 0.0
H360 H 0.16446 0.43515 0.92682 0.0
H361 H 0.25275 0.54393 0.8629 0.0
H362 H 0.26077 0.54928 0.95053 0.0
C363 C 0.88625 0.12325 0.91787 0.0
C364 C 0.85363 0.13627 0.91875 0.0
N365 N 0.85525 0.16833 0.92841 0.0
N366 N 0.9084 0.14693 0.92699 0.0
C367 C 0.88862 0.17395 0.93353 0.0
H368 H 0.89349 0.09841 0.91031 0.0
Co369 Co 0.95607 0.14329 0.92755 0.0
C370 C 0.9744 0.12817 0.86928 0.0
O371 O 1.00292 0.14552 0.87152 0.0
N372 N 1.00388 0.13874 0.92861 0.0
C373 C 0.05895 0.1426 0.93919 0.0
C374 C 0.02773 0.1584 0.94077 0.0
C375 C 0.0213 0.11081 0.9204 0.0
N376 N 0.05481 0.11263 0.92634 0.0
O377 O 0.95341 0.09806 0.9422 0.0
H378 H 0.02312 0.1821 0.95119 0.0
H379 H 0.00935 0.08897 0.91094 0.0
O380 O 0.95438 0.12565 0.88981 0.0
C381 C 0.9516 0.09778 0.96813 0.0
O382 O 0.94487 0.12647 0.98081 0.0
N383 N 0.95953 0.18881 0.91603 0.0
C384 C 0.97166 0.25789 0.90785 0.0
C385 C 0.96191 0.23688 0.88606 0.0
C386 C 0.95505 0.20239 0.89071 0.0
C387 C 0.96566 0.20961 0.93767 0.0
C388 C 0.9722 0.24406 0.93407 0.0
H389 H 0.94636 0.187 0.87394 0.0
H390 H 0.96653 0.19894 0.95792 0.0
H391 H 0.89843 0.19759 0.9416 0.0
H392 H 0.8307 0.12361 0.91181 0.0
H393 H 0.08278 0.15231 0.94715 0.0
H394 H 0.96 0.24693 0.86562 0.0
H395 H 0.97926 0.2593 0.95157 0.0
C396 C 0.89102 0.13337 0.61023 0.0
C397 C 0.87826 0.16595 0.6102 0.0
N398 N 0.84797 0.1659 0.62311 0.0
N399 N 0.86896 0.11232 0.62299 0.0
C400 C 0.84328 0.1333 0.63101 0.0
H401 H 0.91458 0.12576 0.60061 0.0
Co402 Co 0.87204 0.06396 0.62561 0.0
C403 C 0.89614 0.04957 0.6829 0.0
O404 O 0.88397 0.01847 0.68196 0.0
N405 N 0.87527 0.01619 0.62731 0.0
C406 C 0.86513 0.96053 0.62536 0.0
C407 C 0.85073 0.99238 0.62405 0.0
C408 C 0.9044 0.99802 0.62996 0.0
N409 N 0.89894 0.96419 0.62909 0.0
O410 O 0.91672 0.06414 0.60876 0.0
H411 H 0.82406 0.99747 0.62051 0.0
H412 H 0.92916 0.00947 0.63323 0.0
O413 O 0.89225 0.06948 0.66247 0.0
C414 C 0.91406 0.058 0.58328 0.0
O415 O 0.88333 0.0576 0.57261 0.0
N416 N 0.82704 0.06207 0.63885 0.0
C417 C 0.75775 0.0501 0.64739 0.0
C418 C 0.78043 0.05171 0.66944 0.0
C419 C 0.81508 0.05818 0.66478 0.0
C420 C 0.80495 0.06266 0.61746 0.0
C421 C 0.77023 0.05687 0.62126 0.0
H422 H 0.83183 0.05927 0.68202 0.0
H423 H 0.81479 0.06604 0.59708 0.0
H424 H 0.82108 0.12498 0.64213 0.0
H425 H 0.88978 0.18762 0.60024 0.0
H426 H 0.85182 0.93657 0.62306 0.0
H427 H 0.7716 0.0471 0.68998 0.0
H428 H 0.75371 0.05558 0.60363 0.0
C429 C 0.38006 0.89463 0.63502 0.0
C430 C 0.34824 0.8796 0.63471 0.0
N431 N 0.35127 0.84834 0.62367 0.0
N432 N 0.40308 0.87301 0.62414 0.0
C433 C 0.38457 0.84527 0.61708 0.0
H434 H 0.38624 0.91928 0.64353 0.0
Co435 Co 0.45067 0.8787 0.6225 0.0
C436 C 0.47088 0.88798 0.68068 0.0
O437 O 0.49838 0.86966 0.67626 0.0
N438 N 0.49847 0.8851 0.62038 0.0
C439 C 0.55311 0.88319 0.60816 0.0
C440 C 0.52226 0.86693 0.60672 0.0
C441 C 0.51574 0.91282 0.6294 0.0
N442 N 0.54903 0.91226 0.62228 0.0
O443 O 0.44585 0.92454 0.61003 0.0
H444 H 0.518 0.84396 0.59527 0.0
H445 H 0.50371 0.93364 0.64018 0.0
O446 O 0.45016 0.89368 0.66106 0.0
C447 C 0.44282 0.92543 0.58419 0.0
O448 O 0.43575 0.89695 0.57132 0.0
N449 N 0.45611 0.83267 0.63156 0.0
C450 C 0.47104 0.76362 0.6355 0.0
C451 C 0.45939 0.78191 0.65833 0.0
C452 C 0.45136 0.81647 0.6558 0.0
C453 C 0.46306 0.81428 0.60874 0.0
C454 C 0.47157 0.78008 0.61027 0.0
H455 H 0.4414 0.82984 0.67326 0.0
H456 H 0.46316 0.82681 0.58917 0.0
H457 H 0.3953 0.82277 0.60777 0.0
H458 H 0.32503 0.89022 0.64311 0.0
H459 H 0.57667 0.8743 0.59913 0.0
H460 H 0.45671 0.76974 0.67795 0.0
H461 H 0.47976 0.76721 0.5919 0.0
C462 C 0.676 0.4156 0.59151 0.0
C463 C 0.69408 0.38629 0.58673 0.0
N464 N 0.69107 0.36595 0.60863 0.0
N465 N 0.66132 0.41394 0.61627 0.0
C466 C 0.67088 0.38329 0.62623 0.0
H467 H 0.67519 0.43754 0.57833 0.0
Co468 Co 0.63839 0.45076 0.63223 0.0
C469 C 0.64676 0.44111 0.69126 0.0
O470 O 0.65829 0.47251 0.69093 0.0
N471 N 0.61354 0.48749 0.64779 0.0
C472 C 0.57057 0.51091 0.67093 0.0
C473 C 0.5898 0.48241 0.6674 0.0
C474 C 0.60642 0.51923 0.63858 0.0
N475 N 0.58053 0.53404 0.65253 0.0
O476 O 0.59495 0.4332 0.6204 0.0
H477 H 0.58436 0.45846 0.67719 0.0
H478 H 0.61727 0.53002 0.62036 0.0
O479 O 0.63718 0.42722 0.66871 0.0
C480 C 0.59081 0.44661 0.59688 0.0
O481 O 0.61607 0.46419 0.58644 0.0
N482 N 0.68143 0.47042 0.63963 0.0
C483 C 0.74744 0.49737 0.63778 0.0
C484 C 0.7408 0.46712 0.6519 0.0
C485 C 0.70774 0.45371 0.65214 0.0
C486 C 0.6878 0.4994 0.6254 0.0
C487 C 0.72027 0.51371 0.62472 0.0
H488 H 0.70365 0.42924 0.66152 0.0
H489 H 0.66824 0.51038 0.61288 0.0
H490 H 0.66427 0.37441 0.64636 0.0
H491 H 0.70989 0.38129 0.56911 0.0
H492 H 0.54958 0.51355 0.68508 0.0
H493 H 0.7612 0.4531 0.66158 0.0
H494 H 0.72418 0.53692 0.61332 0.0
C495 C 0.13397 0.63119 0.59234 0.0
C496 C 0.16662 0.64398 0.59152 0.0
N497 N 0.16946 0.66844 0.6106 0.0
N498 N 0.11596 0.64739 0.61188 0.0
C499 C 0.13872 0.66938 0.62308 0.0
H500 H 0.12366 0.61289 0.57814 0.0
Co501 Co 0.06788 0.64663 0.61587 0.0
C502 C 0.05391 0.62637 0.67453 0.0
O503 O 0.02253 0.63787 0.67318 0.0
N504 N 0.01981 0.64627 0.61854 0.0
C505 C 0.9652 0.66091 0.615 0.0
C506 C 0.99824 0.67221 0.61322 0.0
C507 C 0.99906 0.61919 0.62261 0.0
N508 N 0.96573 0.62753 0.62101 0.0
O509 O 0.06555 0.60082 0.60098 0.0
H510 H 1.00573 0.69766 0.60761 0.0
H511 H 1.00832 0.59392 0.62718 0.0
O512 O 0.07372 0.62904 0.65378 0.0
C513 C 0.05434 0.60309 0.57659 0.0
O514 O 0.05105 0.6336 0.56602 0.0
N515 N 0.06865 0.69243 0.62694 0.0
C516 C 0.05276 0.76134 0.63038 0.0
C517 C 0.05184 0.74069 0.65366 0.0
C518 C 0.06025 0.70621 0.65157 0.0
C519 C 0.07322 0.71285 0.60488 0.0
C520 C 0.0658 0.74744 0.60621 0.0
H521 H 0.0578 0.69079 0.66941 0.0
H522 H 0.08019 0.70162 0.58554 0.0
H523 H 0.1321 0.68795 0.63847 0.0
H524 H 0.18615 0.63704 0.57695 0.0
H525 H 0.94255 0.67596 0.61135 0.0
H526 H 0.04226 0.7503 0.67286 0.0
H527 H 0.06808 0.76261 0.58794 0.0
C528 C 0.58853 0.90986 0.10893 0.0
C529 C 0.5888 0.93966 0.12468 0.0
C530 C 0.56541 0.88353 0.11428 0.0
C531 C 0.5416 0.88714 0.13576 0.0
C532 C 0.54078 0.91763 0.15112 0.0
C533 C 0.5645 0.94349 0.14548 0.0
C534 C 0.56708 0.85145 0.09733 0.0
C535 C 0.51551 0.92253 0.17397 0.0
C536 C 0.46998 0.82249 0.13195 0.0
C537 C 0.48275 0.79646 0.14856 0.0
C538 C 0.48769 0.85333 0.12901 0.0
C539 C 0.51903 0.85803 0.1428 0.0
C540 C 0.53084 0.83275 0.16096 0.0
C541 C 0.51251 0.80231 0.16367 0.0
C542 C 0.47397 0.87993 0.10982 0.0
C543 C 0.5642 0.8367 0.17597 0.0
H544 H 0.60656 0.90697 0.09241 0.0
H545 H 0.56458 0.96629 0.15788 0.0
H546 H 0.5733 0.82944 0.11052 0.0
H547 H 0.54192 0.84628 0.08789 0.0
H548 H 0.58656 0.85302 0.08095 0.0
H549 H 0.51613 0.9488 0.18234 0.0
H550 H 0.48928 0.91692 0.1668 0.0
H551 H 0.52124 0.90447 0.19066 0.0
H552 H 0.44676 0.81823 0.12048 0.0
H553 H 0.52275 0.7822 0.17629 0.0
H554 H 0.48977 0.88041 0.09108 0.0
H555 H 0.47542 0.90559 0.11919 0.0
H556 H 0.44712 0.87474 0.10392 0.0
H557 H 0.58563 0.83539 0.16124 0.0
H558 H 0.56792 0.81655 0.19149 0.0
H559 H 0.56551 0.86187 0.18616 0.0
C560 C 0.69334 0.47372 0.12659 0.0
C561 C 0.72041 0.48232 0.14397 0.0
C562 C 0.66296 0.49264 0.12662 0.0
C563 C 0.65973 0.52084 0.14441 0.0
C564 C 0.68601 0.52818 0.16325 0.0
C565 C 0.71602 0.50881 0.16282 0.0
C566 C 0.63525 0.48376 0.10649 0.0
C567 C 0.68354 0.55805 0.18254 0.0
C568 C 0.60797 0.59707 0.12185 0.0
C569 C 0.57856 0.59408 0.13788 0.0
C570 C 0.63417 0.57292 0.12336 0.0
C571 C 0.63086 0.545 0.14131 0.0
C572 C 0.60088 0.54132 0.15707 0.0
C573 C 0.57508 0.56597 0.1552 0.0
C574 C 0.66567 0.57763 0.10605 0.0
C575 C 0.5964 0.5118 0.17632 0.0
H576 H 0.69642 0.45297 0.11223 0.0
H577 H 0.73692 0.51592 0.17609 0.0
H578 H 0.60998 0.4833 0.11665 0.0
H579 H 0.63414 0.5035 0.09043 0.0
H580 H 0.63972 0.45871 0.09661 0.0
H581 H 0.70438 0.55808 0.19784 0.0
H582 H 0.68495 0.5821 0.17081 0.0
H583 H 0.65872 0.55787 0.19337 0.0
H584 H 0.61045 0.61826 0.10796 0.0
H585 H 0.5525 0.56362 0.16775 0.0
H586 H 0.66989 0.55481 0.09316 0.0
H587 H 0.68839 0.58058 0.11929 0.0
H588 H 0.66385 0.60026 0.09264 0.0
H589 H 0.60061 0.4874 0.16542 0.0
H590 H 0.57063 0.51136 0.18571 0.0
H591 H 0.6157 0.51335 0.19276 0.0
C592 C 0.03166 0.70134 0.16137 0.0
C593 C 0.0295 0.72373 0.13926 0.0
C594 C 0.01285 0.67086 0.16169 0.0
C595 C 0.99128 0.66282 0.13948 0.0
C596 C 0.98984 0.68482 0.1168 0.0
C597 C 0.00884 0.71496 0.11701 0.0
C598 C 0.01525 0.64779 0.1861 0.0
C599 C 0.96706 0.67729 0.09273 0.0
C600 C 0.95427 0.57498 0.12667 0.0
C601 C 0.92069 0.57916 0.136 0.0
C602 C 0.97817 0.60146 0.12885 0.0
C603 C 0.96815 0.63288 0.14051 0.0
C604 C 0.93465 0.6368 0.15083 0.0
C605 C 0.91136 0.60989 0.14846 0.0
C606 C 0.01363 0.5963 0.11758 0.0
C607 C 0.92294 0.6699 0.16341 0.0
H608 H 0.04774 0.70784 0.17854 0.0
H609 H 1.00638 0.73239 0.10008 0.0
H610 H 0.99041 0.64737 0.19692 0.0
H611 H 0.02081 0.62134 0.17953 0.0
H612 H 0.0353 0.65614 0.2006 0.0
H613 H 0.97046 0.69594 0.07601 0.0
H614 H 0.97236 0.65145 0.08465 0.0
H615 H 0.93997 0.67779 0.09927 0.0
H616 H 0.96157 0.55144 0.11676 0.0
H617 H 0.88565 0.61302 0.15613 0.0
H618 H 0.03307 0.60521 0.13236 0.0
H619 H 0.01675 0.61159 0.09881 0.0
H620 H 0.01875 0.56921 0.11255 0.0
H621 H 0.9408 0.67795 0.17968 0.0
H622 H 0.89689 0.66801 0.17218 0.0
H623 H 0.9229 0.69016 0.14773 0.0
C624 C 0.94218 0.95025 0.1494 0.0
C625 C 0.93808 0.92188 0.1323 0.0
C626 C 0.91583 0.97406 0.15283 0.0
C627 C 0.88467 0.96932 0.13885 0.0
C628 C 0.8805 0.94091 0.12139 0.0
C629 C 0.90725 0.91756 0.11834 0.0
C630 C 0.92118 1.00405 0.17159 0.0
C631 C 0.84769 0.93506 0.10597 0.0
C632 C 0.80043 1.00625 0.16225 0.0
C633 C 0.79505 0.03163 0.14274 0.0
C634 C 0.83063 0.98712 0.16237 0.0
C635 C 0.85599 0.99362 0.14253 0.0
C636 C 0.85185 0.02098 0.12418 0.0
C637 C 0.82139 0.03969 0.12451 0.0
C638 C 0.83418 0.95826 0.18237 0.0
C639 C 0.87848 0.02897 0.10293 0.0
H640 H 0.9658 0.95351 0.16051 0.0
H641 H 0.90413 0.89605 0.10477 0.0
H642 H 0.91687 0.02815 0.16042 0.0
H643 H 0.90238 1.00321 0.18845 0.0
H644 H 0.94725 1.00453 0.18042 0.0
H645 H 0.84863 0.91178 0.09313 0.0
H646 H 0.82611 0.93266 0.12046 0.0
H647 H 0.84224 0.95719 0.09271 0.0
H648 H 0.78009 0.99972 0.17625 0.0
H649 H 0.81752 0.05965 0.10966 0.0
H650 H 0.85976 0.95864 0.19198 0.0
H651 H 0.8316 0.93366 0.17145 0.0
H652 H 0.81448 0.95935 0.19861 0.0
H653 H 0.90428 0.02975 0.11216 0.0
H654 H 0.87354 0.05364 0.09269 0.0
H655 H 0.87865 0.0086 0.08725 0.0
C656 C 0.97048 0.18856 0.42392 0.0
C657 C 0.98296 0.21494 0.40748 0.0
C658 C 0.98826 0.15767 0.42625 0.0
C659 C 0.01935 0.15327 0.41199 0.0
C660 C 0.03096 0.17902 0.39416 0.0
C661 C 0.01259 0.20948 0.39208 0.0
C662 C 0.97479 0.13055 0.44512 0.0
C663 C 0.0641 0.17544 0.37872 0.0
C664 C 0.09 0.1003 0.44283 0.0
C665 C 0.08999 0.07138 0.42608 0.0
C666 C 0.06635 0.12654 0.43901 0.0
C667 C 0.04185 0.12378 0.41798 0.0
C668 C 0.0407 0.09404 0.40171 0.0
C669 C 0.06486 0.06819 0.40592 0.0
C670 C 0.06834 0.15775 0.45695 0.0
C671 C 0.01471 0.09004 0.37931 0.0
H672 H 0.94737 0.1925 0.43563 0.0
H673 H 0.02266 0.22986 0.37962 0.0
H674 H 0.97553 0.10525 0.43507 0.0
H675 H 0.99122 0.12906 0.46344 0.0
H676 H 0.94823 0.13586 0.45177 0.0
H677 H 0.06786 0.19625 0.36376 0.0
H678 H 0.08573 0.17582 0.39326 0.0
H679 H 0.06496 0.15075 0.36777 0.0
H680 H 0.10871 0.10255 0.45891 0.0
H681 H 0.06475 0.04596 0.39285 0.0
H682 H 0.04332 0.16257 0.46675 0.0
H683 H 0.07455 0.18035 0.4444 0.0
H684 H 0.08798 0.15527 0.4731 0.0
H685 H 0.98873 0.09563 0.3871 0.0
H686 H 0.01487 0.06402 0.37042 0.0
H687 H 0.02014 0.10855 0.36287 0.0
C688 C 0.29972 1.00324 0.38321 0.0
C689 C 0.29518 0.97861 0.40347 0.0
C690 C 0.32944 0.0231 0.38228 0.0
C691 C 0.35512 0.01819 0.40211 0.0
C692 C 0.35192 0.99145 0.42117 0.0
C693 C 0.32199 0.97192 0.42158 0.0
C694 C 0.33204 0.05115 0.36147 0.0
C695 C 0.37884 0.9852 0.44251 0.0
C696 C 0.44011 0.06392 0.39487 0.0
C697 C 0.43496 0.09262 0.41141 0.0
C698 C 0.4144 0.03937 0.39155 0.0
C699 C 0.38289 0.04365 0.40519 0.0
C700 C 0.37764 0.0725 0.422 0.0
C701 C 0.4037 0.09664 0.42485 0.0
C702 C 0.42086 0.009 0.37342 0.0
C703 C 0.34447 0.07785 0.43709 0.0
H704 H 0.27905 0.00871 0.36926 0.0
H705 H 0.31882 0.9525 0.43699 0.0
H706 H 0.32833 0.0761 0.37166 0.0
H707 H 0.35771 0.0514 0.35197 0.0
H708 H 0.31256 0.04852 0.3452 0.0
H709 H 0.37494 0.9606 0.45315 0.0
H710 H 0.40468 0.98534 0.43333 0.0
H711 H 0.37799 1.00594 0.45786 0.0
H712 H 0.46409 0.06091 0.38418 0.0
H713 H 0.39981 0.11846 0.43798 0.0
H714 H 0.40183 0.00836 0.35674 0.0
H715 H 0.41777 0.98516 0.38519 0.0
H716 H 0.44682 0.00936 0.36435 0.0
H717 H 0.32298 0.07894 0.42246 0.0
H718 H 0.3445 0.10164 0.44934 0.0
H719 H 0.33963 0.05609 0.4509 0.0
C720 C 0.503 0.29649 0.38183 0.0
C721 C 0.53089 0.29172 0.39929 0.0
C722 C 0.48317 0.32614 0.38323 0.0
C723 C 0.49121 0.35145 0.40272 0.0
C724 C 0.52081 0.34801 0.41893 0.0
C725 C 0.54045 0.31828 0.41686 0.0
C726 C 0.45206 0.32909 0.3653 0.0
C727 C 0.5303 0.37449 0.43992 0.0
C728 C 0.44448 0.43614 0.40029 0.0
C729 C 0.4179 0.43054 0.41887 0.0
C730 C 0.46872 0.41073 0.39481 0.0
C731 C 0.46642 0.37917 0.40847 0.0
C732 C 0.43987 0.37359 0.42751 0.0
C733 C 0.41584 0.39929 0.43236 0.0
C734 C 0.49646 0.41744 0.37419 0.0
C735 C 0.43677 0.34041 0.44275 0.0
H736 H 0.49515 0.27611 0.36834 0.0
H737 H 0.56239 0.31511 0.43001 0.0
H738 H 0.42876 0.32532 0.37777 0.0
H739 H 0.45049 0.35482 0.35618 0.0
H740 H 0.4521 0.30988 0.34868 0.0
H741 H 0.5562 0.37018 0.4484 0.0
H742 H 0.52929 0.40037 0.43103 0.0
H743 H 0.51165 0.37377 0.45691 0.0
H744 H 0.44588 0.46019 0.38963 0.0
H745 H 0.39563 0.39513 0.44701 0.0
H746 H 0.49438 0.39898 0.35716 0.0
H747 H 0.52188 0.41375 0.38361 0.0
H748 H 0.49511 0.44361 0.36578 0.0
H749 H 0.43316 0.31913 0.42817 0.0
H750 H 0.41507 0.34045 0.4573 0.0
H751 H 0.4606 0.33532 0.45419 0.0
C752 C 0.10771 0.41451 0.43241 0.0
C753 C 0.07754 0.41709 0.41731 0.0
C754 C 0.13377 0.43864 0.4297 0.0
C755 C 0.12958 0.46613 0.41145 0.0
C756 C 0.09902 0.46923 0.3964 0.0
C757 C 0.07336 0.44462 0.39948 0.0
C758 C 0.16595 0.43455 0.44627 0.0
C759 C 0.09366 0.49822 0.37679 0.0
C760 C 0.19121 0.5381 0.42559 0.0
C761 C 0.2185 0.52936 0.40845 0.0
C762 C 0.16087 0.51914 0.42547 0.0
C763 C 0.15787 0.49083 0.40778 0.0
C764 C 0.18419 0.48366 0.38889 0.0
C765 C 0.21421 0.50302 0.38945 0.0
C766 C 0.13316 0.52784 0.44567 0.0
C767 C 0.18188 0.45379 0.3696 0.0
H768 H 0.11085 0.39375 0.44661 0.0
H769 H 0.05027 0.44661 0.38753 0.0
H770 H 0.18825 0.43187 0.43252 0.0
H771 H 0.17024 0.45755 0.45894 0.0
H772 H 0.16496 0.41201 0.45983 0.0
H773 H 0.06782 0.49782 0.36754 0.0
H774 H 0.09729 0.52292 0.38737 0.0
H775 H 0.1129 0.49689 0.36027 0.0
H776 H 0.19419 0.55879 0.44001 0.0
H777 H 0.23525 0.49589 0.3763 0.0
H778 H 0.13273 0.50847 0.46205 0.0
H779 H 0.10776 0.52748 0.43575 0.0
H780 H 0.13718 0.55322 0.45514 0.0
H781 H 0.18441 0.42978 0.38125 0.0
H782 H 0.2022 0.45442 0.35384 0.0
H783 H 0.1567 0.45326 0.35933 0.0
C784 C 0.4439 0.07508 0.89269 0.0
C785 C 0.41693 0.07698 0.9114 0.0
C786 C 0.46798 0.10144 0.8907 0.0
C787 C 0.46505 0.13017 0.90797 0.0
C788 C 0.43819 0.1319 0.92719 0.0
C789 C 0.41444 0.10534 0.9286 0.0
C790 C 0.49623 0.09879 0.86993 0.0
C791 C 0.43438 0.16193 0.9462 0.0
C792 C 0.53765 0.19103 0.92314 0.0
C793 C 0.52788 0.21968 0.90805 0.0
C794 C 0.51854 0.16084 0.92214 0.0
C795 C 0.48911 0.15923 0.90553 0.0
C796 C 0.48049 0.1872 0.88885 0.0
C797 C 0.49984 0.21711 0.89041 0.0
C798 C 0.52857 0.13155 0.94024 0.0
C799 C 0.44941 0.18642 0.87072 0.0
H800 H 0.44582 0.0532 0.87934 0.0
H801 H 0.39414 0.10656 0.94353 0.0
H802 H 0.49401 0.11984 0.85504 0.0
H803 H 0.52138 0.10146 0.88002 0.0
H804 H 0.49565 0.07423 0.85871 0.0
H805 H 0.41257 0.15892 0.96043 0.0
H806 H 0.45802 0.16533 0.9583 0.0
H807 H 0.4305 0.18553 0.93427 0.0
H808 H 0.55959 0.19258 0.93648 0.0
H809 H 0.49169 0.23914 0.87893 0.0
H810 H 0.5274 0.10711 0.92896 0.0
H811 H 0.51032 0.12981 0.95745 0.0
H812 H 0.55465 0.13475 0.94869 0.0
H813 H 0.44878 0.16259 0.85859 0.0
H814 H 0.44863 0.20841 0.8566 0.0
H815 H 0.42604 0.18696 0.88346 0.0
C816 C 0.44438 0.44878 0.90839 0.0
C817 C 0.43878 0.42072 0.92537 0.0
C818 C 0.41842 0.47262 0.90357 0.0
C819 C 0.38635 0.46844 0.91637 0.0
C820 C 0.38097 0.44068 0.93419 0.0
C821 C 0.40718 0.41703 0.9383 0.0
C822 C 0.42495 0.5016 0.88417 0.0
C823 C 0.34731 0.43564 0.9486 0.0
C824 C 0.32179 0.53955 0.92416 0.0
C825 C 0.29669 0.5296 0.90537 0.0
C826 C 0.3521 0.52091 0.92704 0.0
C827 C 0.3577 0.49201 0.91042 0.0
C828 C 0.33381 0.48351 0.88994 0.0
C829 C 0.3035 0.50223 0.88779 0.0
C830 C 0.37698 0.5308 0.94913 0.0
C831 C 0.33912 0.45318 0.87149 0.0
H832 H 0.46873 0.45144 0.89817 0.0
H833 H 0.40305 0.3956 0.95171 0.0
H834 H 0.40812 0.49898 0.86615 0.0
H835 H 0.41869 0.52625 0.89401 0.0
H836 H 0.45187 0.50238 0.87712 0.0
H837 H 0.34788 0.41374 0.96283 0.0
H838 H 0.34046 0.45889 0.96022 0.0
H839 H 0.32682 0.43119 0.93344 0.0
H840 H 0.31714 0.56112 0.93742 0.0
H841 H 0.28428 0.49402 0.87337 0.0
H842 H 0.40343 0.53125 0.94111 0.0
H843 H 0.37615 0.51156 0.9656 0.0
H844 H 0.37102 0.55609 0.95807 0.0
H845 H 0.36533 0.45325 0.86298 0.0
H846 H 0.3206 0.45268 0.8544 0.0
H847 H 0.33608 0.42942 0.88338 0.0
C848 C 0.00925 0.29903 0.88348 0.0
C849 C 0.9845 0.29297 0.90348 0.0
C850 C 0.0276 0.32968 0.88304 0.0
C851 C 0.0209 0.35482 0.90303 0.0
C852 C 0.99387 0.35004 0.92174 0.0
C853 C 0.97601 0.31911 0.92177 0.0
C854 C 0.05613 0.33385 0.86267 0.0
C855 C 0.9856 0.37642 0.94314 0.0
C856 C 0.09737 0.40532 0.92736 0.0
C857 C 0.09339 0.43626 0.91361 0.0
C858 C 0.07378 0.37886 0.92419 0.0
C859 C 0.04527 0.38341 0.90693 0.0
C860 C 0.04065 0.41475 0.89333 0.0
C861 C 0.06482 0.44081 0.89679 0.0
C862 C 0.07955 0.34588 0.93923 0.0
C863 C 0.01046 0.42055 0.87489 0.0
H864 H 0.01607 0.27888 0.86939 0.0
H865 H 0.95649 0.3147 0.937 0.0
H866 H 0.05542 0.35953 0.85341 0.0
H867 H 0.08101 0.33123 0.87321 0.0
H868 H 0.05487 0.31449 0.84619 0.0
H869 H 0.96067 0.3714 0.95312 0.0
H870 H 1.00573 0.37627 0.95899 0.0
H871 H 0.98507 0.40228 0.93417 0.0
H872 H 0.1189 0.40181 0.94083 0.0
H873 H 0.06167 0.4645 0.8859 0.0
H874 H 0.08184 0.32456 0.9245 0.0
H875 H 0.0574 0.34032 0.95255 0.0
H876 H 0.10294 0.34652 0.95196 0.0
H877 H 0.01138 0.40243 0.85757 0.0
H878 H 0.00978 0.44686 0.86672 0.0
H879 H 0.98637 0.41566 0.88607 0.0
C880 C 0.22093 0.01331 0.88487 0.0
C881 C 0.22373 0.981 0.89673 0.0
C882 C 0.19069 0.03219 0.88692 0.0
C883 C 0.16256 0.01853 0.90129 0.0
C884 C 0.16431 0.98496 0.91156 0.0
C885 C 0.19487 0.96656 0.9091 0.0
C886 C 0.18982 0.06782 0.87554 0.0
C887 C 0.13476 0.96938 0.9268 0.0
C888 C 0.10857 0.08395 0.93827 0.0
C889 C 0.08066 0.08753 0.92074 0.0
C890 C 0.13486 0.06089 0.93249 0.0
C891 C 0.13329 0.04091 0.90849 0.0
C892 C 0.10472 0.04369 0.89105 0.0
C893 C 0.07868 0.06696 0.89742 0.0
C894 C 0.1647 0.05845 0.9518 0.0
C895 C 0.10216 0.02285 0.86531 0.0
H896 H 0.24312 0.02492 0.87555 0.0
H897 H 0.19666 0.94141 0.91797 0.0
H898 H 0.16599 0.07206 0.86389 0.0
H899 H 0.19018 0.08647 0.89253 0.0
H900 H 0.21194 0.07306 0.86205 0.0
H901 H 0.13836 0.94168 0.93016 0.0
H902 H 0.13211 0.98201 0.94691 0.0
H903 H 0.11054 0.97337 0.91562 0.0
H904 H 0.10986 0.09927 0.95658 0.0
H905 H 0.05724 0.0698 0.88373 0.0
H906 H 0.18847 0.06619 0.94123 0.0
H907 H 0.16813 0.03176 0.95854 0.0
H908 H 0.16139 0.07481 0.97008 0.0
H909 H 0.12266 0.03049 0.851 0.0
H910 H 0.07716 0.02612 0.85501 0.0
H911 H 0.10589 0.99548 0.86985 0.0
C912 C 0.0158 0.80477 0.60787 0.0
C913 C 0.03587 0.79526 0.63026 0.0
C914 C 0.9963 0.83458 0.60831 0.0
C915 C 0.99631 0.85524 0.63188 0.0
C916 C 0.01746 0.84668 0.65415 0.0
C917 C 0.03706 0.81677 0.65308 0.0
C918 C 0.97463 0.84328 0.5839 0.0
C919 C 0.01869 0.86871 0.67932 0.0
C920 C 0.95778 0.94306 0.62277 0.0
C921 C 0.92406 0.93759 0.63133 0.0
C922 C 0.98213 0.91695 0.62397 0.0
C923 C 0.9724 0.88449 0.63364 0.0
C924 C 0.93867 0.87911 0.64303 0.0
C925 C 0.91495 0.90572 0.64176 0.0
C926 C 0.0177 0.924 0.61368 0.0
C927 C 0.92736 0.84491 0.65368 0.0
H928 H 0.01408 0.78815 0.59031 0.0
H929 H 0.05287 0.80995 0.67029 0.0
H930 H 0.94724 0.84246 0.58959 0.0
H931 H 0.98034 0.86952 0.57698 0.0
H932 H 0.97885 0.8255 0.56662 0.0
H933 H 0.03777 0.85954 0.6943 0.0
H934 H 0.02502 0.89529 0.67369 0.0
H935 H 0.99324 0.86911 0.68921 0.0
H936 H 0.96499 0.96748 0.61438 0.0
H937 H 0.88915 0.90153 0.64889 0.0
H938 H 0.0187 0.91859 0.59153 0.0
H939 H 0.03714 0.90799 0.62386 0.0
H940 H 0.02461 0.95111 0.61682 0.0
H941 H 0.92863 0.82572 0.63711 0.0
H942 H 0.9009 0.8455 0.66177 0.0
H943 H 0.94475 0.83631 0.67008 0.0
C944 C 0.71668 1.00678 0.66465 0.0
C945 C 0.72238 0.03732 0.65073 0.0
C946 C 0.68514 0.99005 0.66299 0.0
C947 C 0.65856 1.00443 0.64727 0.0
C948 C 0.66322 0.03678 0.63521 0.0
C949 C 0.69522 0.05272 0.63688 0.0
C950 C 0.68137 0.9555 0.676 0.0
C951 C 0.63528 0.05336 0.61883 0.0
C952 C 0.6034 0.94009 0.61046 0.0
C953 C 0.57488 0.93759 0.62759 0.0
C954 C 0.63029 0.96231 0.61638 0.0
C955 C 0.62851 0.98321 0.63983 0.0
C956 C 0.59908 0.9822 0.65653 0.0
C957 C 0.57265 0.95922 0.65031 0.0
C958 C 0.66115 0.96259 0.59792 0.0
C959 C 0.59597 1.0046 0.68138 0.0
H960 H 0.73767 0.99463 0.67519 0.0
H961 H 0.69946 0.07656 0.62635 0.0
H962 H 0.65691 0.95371 0.68723 0.0
H963 H 0.68108 0.93564 0.65991 0.0
H964 H 0.70259 0.94984 0.69025 0.0
H965 H 0.64057 0.08073 0.61513 0.0
H966 H 0.63301 0.04037 0.59885 0.0
H967 H 0.61034 0.05096 0.62932 0.0
H968 H 0.60495 0.92434 0.59241 0.0
H969 H 0.55076 0.95752 0.66368 0.0
H970 H 0.68414 0.95495 0.60955 0.0
H971 H 0.66571 0.98865 0.59012 0.0
H972 H 0.65828 0.9451 0.58029 0.0
H973 H 0.6144 0.99614 0.69707 0.0
H974 H 0.56992 1.00383 0.69028 0.0
H975 H 0.60234 0.03132 0.67624 0.0
C976 C 0.58168 0.59315 0.63551 0.0
C977 C 0.56383 0.56599 0.64721 0.0
C978 C 0.56607 0.62504 0.63219 0.0
C979 C 0.53203 0.62982 0.64112 0.0
C980 C 0.5136 0.60224 0.65215 0.0
C981 C 0.52956 0.57063 0.65472 0.0
C982 C 0.58619 0.6538 0.61973 0.0
C983 C 0.4773 0.60633 0.66202 0.0
C984 C 0.50396 0.71892 0.66049 0.0
C985 C 0.48433 0.72832 0.63788 0.0
C986 C 0.51948 0.68685 0.66184 0.0
C987 C 0.51584 0.66386 0.63983 0.0
C988 C 0.49581 0.67293 0.61708 0.0
C989 C 0.47988 0.70484 0.61657 0.0
C990 C 0.54002 0.67767 0.68674 0.0
C991 C 0.4916 0.64913 0.59313 0.0
H992 H 0.6081 0.58975 0.62964 0.0
H993 H 0.51507 0.54956 0.66286 0.0
H994 H 0.5717 0.66521 0.60266 0.0
H995 H 0.59025 0.67411 0.6351 0.0
H996 H 0.61145 0.6453 0.61205 0.0
H997 H 0.46643 0.58215 0.66983 0.0
H998 H 0.47637 0.6256 0.67855 0.0
H999 H 0.46084 0.61567 0.64531 0.0
H1000 H 0.50802 0.73697 0.67687 0.0
H1001 H 0.4642 0.7115 0.59925 0.0
H1002 H 0.56689 0.67261 0.68091 0.0
H1003 H 0.52982 0.65401 0.69595 0.0
H1004 H 0.53968 0.69812 0.70238 0.0
H1005 H 0.51698 0.6425 0.58463 0.0
H1006 H 0.47583 0.6604 0.5767 0.0
H1007 H 0.47949 0.62505 0.59979 0.0
C1008 C 0.93871 0.57068 0.61907 0.0
C1009 C 0.93664 0.60562 0.62479 0.0
C1010 C 0.91008 0.54947 0.62196 0.0
C1011 C 0.87864 0.56367 0.6305 0.0
C1012 C 0.8766 0.59878 0.63672 0.0
C1013 C 0.90561 0.61924 0.6339 0.0
C1014 C 0.9133 0.51213 0.61519 0.0
C1015 C 0.84351 0.61496 0.64579 0.0
C1016 C 0.79397 0.5247 0.61062 0.0
C1017 C 0.78262 0.51118 0.63543 0.0
C1018 C 0.82587 0.54052 0.60845 0.0
C1019 C 0.8472 0.54257 0.63159 0.0
C1020 C 0.83678 0.52734 0.65631 0.0
C1021 C 0.80451 0.5119 0.65798 0.0
C1022 C 0.83604 0.55642 0.5817 0.0
C1023 C 0.8591 0.52859 0.68129 0.0
H1024 H 0.96248 0.56003 0.61172 0.0
H1025 H 0.90398 0.64604 0.63886 0.0
H1026 H 0.90197 0.49641 0.6316 0.0
H1027 H 0.89903 0.50649 0.59624 0.0
H1028 H 0.94028 0.50433 0.61221 0.0
H1029 H 0.84644 0.64246 0.65048 0.0
H1030 H 0.82402 0.61209 0.62958 0.0
H1031 H 0.83363 0.60192 0.66416 0.0
H1032 H 0.77762 0.52337 0.59288 0.0
H1033 H 0.79596 0.50148 0.6772 0.0
H1034 H 0.86167 0.54741 0.57541 0.0
H1035 H 0.83755 0.58446 0.58409 0.0
H1036 H 0.81764 0.55054 0.56517 0.0
H1037 H 0.8854 0.52028 0.67622 0.0
H1038 H 0.8491 0.51231 0.69793 0.0
H1039 H 0.86073 0.55515 0.68886 0.0
C1040 C 0.73209 0.18439 0.12269 0.0
C1041 C 0.69727 0.19123 0.11899 0.0
C1042 C 0.75654 0.21052 0.12167 0.0
C1043 C 0.74603 0.24438 0.1166 0.0
C1044 C 0.71092 0.25145 0.11275 0.0
C1045 C 0.68698 0.22485 0.11414 0.0
C1046 C 0.79364 0.20187 0.1261 0.0
C1047 C 0.69868 0.28711 0.10696 0.0
C1048 C 0.805 0.31762 0.13631 0.0
C1049 C 0.8206 0.32535 0.11139 0.0
C1050 C 0.78086 0.29124 0.13837 0.0
C1051 C 0.77184 0.27227 0.11489 0.0
C1052 C 0.78752 0.27994 0.08968 0.0
C1053 C 0.81168 0.30627 0.08826 0.0
C1054 C 0.765 0.28365 0.16568 0.0
C1055 C 0.77843 0.26064 0.06408 0.0
H1056 H 0.74022 0.15862 0.12692 0.0
H1057 H 0.66018 0.23025 0.11106 0.0
H1058 H 0.80876 0.20897 0.10789 0.0
H1059 H 0.80383 0.21674 0.1435 0.0
H1060 H 0.79759 0.17438 0.13021 0.0
H1061 H 0.67053 0.28844 0.1046 0.0
H1062 H 0.70638 0.30444 0.12371 0.0
H1063 H 0.71076 0.29669 0.08805 0.0
H1064 H 0.81191 0.33206 0.15428 0.0
H1065 H 0.82301 0.31244 0.0688 0.0
H1066 H 0.76996 0.2568 0.17133 0.0
H1067 H 0.73693 0.28689 0.16455 0.0
H1068 H 0.77502 0.30044 0.18204 0.0
H1069 H 0.78239 0.23297 0.06711 0.0
H1070 H 0.79383 0.2689 0.0463 0.0
H1071 H 0.75104 0.26443 0.05931 0.0
C1072 C 0.30084 0.70051 0.10958 0.0
C1073 C 0.3233 0.69508 0.13137 0.0
C1074 C 0.27528 0.72548 0.11092 0.0
C1075 C 0.27184 0.74562 0.13469 0.0
C1076 C 0.29402 0.73997 0.15697 0.0
C1077 C 0.31955 0.71487 0.15501 0.0
C1078 C 0.2524 0.73078 0.08658 0.0
C1079 C 0.29102 0.76069 0.18274 0.0
C1080 C 0.22745 0.83062 0.12398 0.0
C1081 C 0.19364 0.82304 0.13119 0.0
C1082 C 0.25341 0.80609 0.12604 0.0
C1083 C 0.24552 0.7731 0.1357 0.0
C1084 C 0.21181 0.76575 0.14426 0.0
C1085 C 0.18631 0.79073 0.14186 0.0
C1086 C 0.28899 0.81508 0.11673 0.0
C1087 C 0.2023 0.73097 0.15478 0.0
H1088 H 0.30383 0.68589 0.09105 0.0
H1089 H 0.33656 0.71068 0.17201 0.0
H1090 H 0.22528 0.72805 0.09264 0.0
H1091 H 0.25574 0.75698 0.07866 0.0
H1092 H 0.25784 0.71248 0.06988 0.0
H1093 H 0.30943 0.75243 0.19856 0.0
H1094 H 0.2956 0.78795 0.17823 0.0
H1095 H 0.26481 0.75861 0.1911 0.0
H1096 H 0.23352 0.85561 0.11613 0.0
H1097 H 0.16031 0.78431 0.14722 0.0
H1098 H 0.29562 0.79986 0.09843 0.0
H1099 H 0.30784 0.80872 0.13275 0.0
H1100 H 0.29155 0.84248 0.11164 0.0
H1101 H 0.20405 0.71211 0.138 0.0
H1102 H 0.17599 0.73031 0.16317 0.0
H1103 H 0.22037 0.72287 0.17086 0.0
C1104 C 0.30411 0.69187 0.41856 0.0
C1105 C 0.31967 0.68454 0.44356 0.0
C1106 C 0.28028 0.71849 0.41615 0.0
C1107 C 0.27153 0.73814 0.43935 0.0
C1108 C 0.28724 0.73093 0.46462 0.0
C1109 C 0.31109 0.70434 0.46639 0.0
C1110 C 0.26441 0.72554 0.38877 0.0
C1111 C 0.27846 0.75097 0.48993 0.0
C1112 C 0.23229 0.82606 0.43005 0.0
C1113 C 0.19741 0.81953 0.43392 0.0
C1114 C 0.25659 0.79983 0.43155 0.0
C1115 C 0.2459 0.76618 0.43727 0.0
C1116 C 0.21074 0.75944 0.44132 0.0
C1117 C 0.18695 0.78613 0.43945 0.0
C1118 C 0.29374 0.80813 0.42689 0.0
C1119 C 0.19828 0.72403 0.44779 0.0
H1120 H 0.31077 0.67691 0.4008 0.0
H1121 H 0.3224 0.69853 0.48591 0.0
H1122 H 0.23633 0.72249 0.39003 0.0
H1123 H 0.26953 0.75223 0.38272 0.0
H1124 H 0.27429 0.70832 0.37264 0.0
H1125 H 0.29402 0.74319 0.50773 0.0
H1126 H 0.28244 0.77854 0.48637 0.0
H1127 H 0.25112 0.74735 0.49499 0.0
H1128 H 0.24057 0.85165 0.4253 0.0
H1129 H 0.16012 0.78095 0.44267 0.0
H1130 H 0.30378 0.7928 0.40967 0.0
H1131 H 0.30886 0.80136 0.44515 0.0
H1132 H 0.29787 0.8355 0.42236 0.0
H1133 H 0.20575 0.70621 0.43129 0.0
H1134 H 0.17014 0.72295 0.45032 0.0
H1135 H 0.21042 0.71487 0.46679 0.0
C1136 C 0.78876 0.32514 0.42425 0.0
C1137 C 0.82276 0.31615 0.41889 0.0
C1138 C 0.76249 0.30085 0.4233 0.0
C1139 C 0.77027 0.26664 0.41665 0.0
C1140 C 0.80424 0.25768 0.40995 0.0
C1141 C 0.83005 0.28247 0.41122 0.0
C1142 C 0.72662 0.31153 0.43057 0.0
C1143 C 0.81362 0.22155 0.40264 0.0
C1144 C 0.7123 0.19862 0.44632 0.0
C1145 C 0.69096 0.19075 0.42427 0.0
C1146 C 0.73832 0.22297 0.44397 0.0
C1147 C 0.74341 0.23986 0.41888 0.0
C1148 C 0.72237 0.23167 0.39638 0.0
C1149 C 0.6963 0.20733 0.39938 0.0
C1150 C 0.75991 0.23115 0.46858 0.0
C1151 C 0.72719 0.24886 0.36923 0.0
H1152 H 0.78275 0.35115 0.42975 0.0
H1153 H 0.85618 0.27498 0.40734 0.0
H1154 H 0.70855 0.30342 0.41447 0.0
H1155 H 0.71869 0.29884 0.4497 0.0
H1156 H 0.72433 0.33948 0.43342 0.0
H1157 H 0.84036 0.21938 0.39535 0.0
H1158 H 0.81051 0.20504 0.42075 0.0
H1159 H 0.79633 0.21164 0.38662 0.0
H1160 H 0.70803 0.18647 0.46576 0.0
H1161 H 0.6801 0.20118 0.38222 0.0
H1162 H 0.75668 0.2583 0.47423 0.0
H1163 H 0.78728 0.2272 0.46379 0.0
H1164 H 0.75316 0.21525 0.48645 0.0
H1165 H 0.72291 0.27663 0.3714 0.0
H1166 H 0.70949 0.23884 0.3535 0.0
H1167 H 0.75378 0.24531 0.36204 0.0
C1168 C 0.23289 0.6822 0.91455 0.0
C1169 C 0.19839 0.69014 0.91908 0.0
C1170 C 0.25808 0.70767 0.91433 0.0
C1171 C 0.24871 0.742 0.91888 0.0
C1172 C 0.21386 0.75037 0.92251 0.0
C1173 C 0.18918 0.7244 0.9225 0.0
C1174 C 0.29491 0.69761 0.91034 0.0
C1175 C 0.20273 0.78664 0.92738 0.0
C1176 C 0.31379 0.80159 0.95096 0.0
C1177 C 0.32464 0.82109 0.92867 0.0
C1178 C 0.28947 0.77564 0.94794 0.0
C1179 C 0.27551 0.76878 0.92194 0.0
C1180 C 0.28669 0.78792 0.89923 0.0
C1181 C 0.31104 0.81388 0.90287 0.0
C1182 C 0.27817 0.75601 0.97275 0.0
C1183 C 0.27264 0.78122 0.87115 0.0
H1184 H 0.24055 0.6559 0.91225 0.0
H1185 H 0.16263 0.73092 0.92559 0.0
H1186 H 0.30686 0.71349 0.89432 0.0
H1187 H 0.30928 0.70213 0.92945 0.0
H1188 H 0.2977 0.6704 0.90459 0.0
H1189 H 0.17453 0.78925 0.92809 0.0
H1190 H 0.21337 0.79588 0.94697 0.0
H1191 H 0.2128 0.80342 0.91114 0.0
H1192 H 0.32352 0.80724 0.97106 0.0
H1193 H 0.31945 0.82857 0.88551 0.0
H1194 H 0.28227 0.72838 0.9695 0.0
H1195 H 0.25047 0.75989 0.97618 0.0
H1196 H 0.29208 0.7639 0.99141 0.0
H1197 H 0.27669 0.75419 0.86547 0.0
H1198 H 0.28469 0.79761 0.85547 0.0
H1199 H 0.24472 0.78582 0.87101 0.0
C1200 C 0.71201 0.30448 0.96479 0.0
C1201 C 0.69158 0.31304 0.94239 0.0
C1202 C 0.73849 0.28062 0.96244 0.0
C1203 C 0.74498 0.26496 0.937 0.0
C1204 C 0.72451 0.27349 0.91425 0.0
C1205 C 0.69793 0.29728 0.91726 0.0
C1206 C 0.75937 0.27201 0.9873 0.0
C1207 C 0.7308 0.25761 0.88672 0.0
C1208 C 0.83349 0.22729 0.92642 0.0
C1209 C 0.82761 0.19248 0.93063 0.0
C1210 C 0.80678 0.25105 0.92804 0.0
C1211 C 0.77335 0.23983 0.93426 0.0
C1212 C 0.76724 0.20472 0.93856 0.0
C1213 C 0.79439 0.18148 0.93654 0.0
C1214 C 0.81437 0.28818 0.92309 0.0
C1215 C 0.73208 0.19176 0.94558 0.0
H1216 H 0.70687 0.316 0.9844 0.0
H1217 H 0.68239 0.30393 0.89986 0.0
H1218 H 0.75716 0.24446 0.99181 0.0
H1219 H 0.78672 0.27743 0.98346 0.0
H1220 H 0.75115 0.28661 1.00555 0.0
H1221 H 0.71276 0.26705 0.87105 0.0
H1222 H 0.75722 0.26317 0.87994 0.0
H1223 H 0.72832 0.22955 0.88806 0.0
H1224 H 0.85894 0.23593 0.92137 0.0
H1225 H 0.78975 0.15468 0.94002 0.0
H1226 H 0.80808 0.30327 0.94152 0.0
H1227 H 0.79819 0.29786 0.9063 0.0
H1228 H 0.84155 0.29266 0.9178 0.0
H1229 H 0.72319 0.20366 0.96481 0.0
H1230 H 0.73146 0.16368 0.94798 0.0
H1231 H 0.7137 0.19902 0.92946 0.0
C1232 C 0.83536 0.22765 0.62298 0.0
C1233 C 0.82401 0.19387 0.62504 0.0
C1234 C 0.81224 0.25494 0.62231 0.0
C1235 C 0.77675 0.2485 0.624 0.0
C1236 C 0.76512 0.21464 0.62717 0.0
C1237 C 0.78881 0.18778 0.62753 0.0
C1238 C 0.82577 0.29065 0.61888 0.0
C1239 C 0.72754 0.20665 0.62922 0.0
C1240 C 0.71978 0.32489 0.63927 0.0
C1241 C 0.70952 0.33458 0.61306 0.0
C1242 C 0.7408 0.29631 0.6433 0.0
C1243 C 0.75194 0.277 0.62058 0.0
C1244 C 0.74064 0.28595 0.5942 0.0
C1245 C 0.71954 0.31447 0.59081 0.0
C1246 C 0.75203 0.28745 0.67177 0.0
C1247 C 0.75175 0.26605 0.56939 0.0
H1248 H 0.86242 0.23281 0.62155 0.0
H1249 H 0.7795 0.16191 0.62881 0.0
H1250 H 0.81683 0.30122 0.59923 0.0
H1251 H 0.81582 0.30739 0.63526 0.0
H1252 H 0.85409 0.29159 0.61923 0.0
H1253 H 0.72277 0.1795 0.63415 0.0
H1254 H 0.71538 0.22274 0.64507 0.0
H1255 H 0.71487 0.21255 0.60963 0.0
H1256 H 0.71247 0.34036 0.65658 0.0
H1257 H 0.71125 0.32135 0.57055 0.0
H1258 H 0.77994 0.29141 0.67371 0.0
H1259 H 0.74692 0.26022 0.67601 0.0
H1260 H 0.73894 0.30317 0.68742 0.0
H1261 H 0.77984 0.26785 0.56703 0.0
H1262 H 0.73959 0.27545 0.55044 0.0
H1263 H 0.74535 0.23875 0.57187 0.0
C1264 C 0.33389 0.78789 0.62527 0.0
C1265 C 0.32531 0.8223 0.62191 0.0
C1266 C 0.3089 0.76227 0.62417 0.0
C1267 C 0.27443 0.77111 0.61928 0.0
C1268 C 0.26561 0.8058 0.61578 0.0
C1269 C 0.2911 0.83096 0.61734 0.0
C1270 C 0.3194 0.7257 0.62833 0.0
C1271 C 0.22929 0.81631 0.61011 0.0
C1272 C 0.21558 0.703 0.59021 0.0
C1273 C 0.19669 0.6931 0.61316 0.0
C1274 C 0.24085 0.72828 0.59193 0.0
C1275 C 0.24775 0.74401 0.61728 0.0
C1276 C 0.22907 0.73388 0.64062 0.0
C1277 C 0.20364 0.70873 0.63824 0.0
C1278 C 0.25978 0.73853 0.56646 0.0
C1279 C 0.23589 0.74969 0.66809 0.0
H1280 H 0.36015 0.78103 0.6293 0.0
H1281 H 0.28437 0.85745 0.61455 0.0
H1282 H 0.30496 0.7146 0.64558 0.0
H1283 H 0.31314 0.71048 0.60996 0.0
H1284 H 0.34712 0.7231 0.63252 0.0
H1285 H 0.22658 0.8443 0.60793 0.0
H1286 H 0.2202 0.80395 0.59114 0.0
H1287 H 0.21238 0.80767 0.62683 0.0
H1288 H 0.20997 0.69165 0.57063 0.0
H1289 H 0.18928 0.70111 0.65604 0.0
H1290 H 0.28762 0.7351 0.56933 0.0
H1291 H 0.25534 0.76588 0.56222 0.0
H1292 H 0.25171 0.7235 0.54841 0.0
H1293 H 0.26308 0.74618 0.67367 0.0
H1294 H 0.21971 0.73853 0.68434 0.0
H1295 H 0.23107 0.77747 0.66727 0.0
C1296 C 0.54728 0.03183 0.07522 0.0
C1297 C 0.56911 0.05669 0.06447 0.0
C1298 C 0.52232 0.01603 0.0589 0.0
C1299 C 0.51836 0.02606 0.03138 0.0
C1300 C 0.53961 0.05198 1.02074 0.0
C1301 C 0.56495 0.06661 0.03728 0.0
C1302 C 0.50068 0.98811 0.07098 0.0
C1303 C 0.53571 0.06416 0.9918 0.0
C1304 C 0.47168 0.96839 0.98063 0.0
C1305 C 0.43869 0.98205 0.98138 0.0
C1306 C 0.49786 0.9821 0.99708 0.0
C1307 C 0.49102 0.01062 1.01405 0.0
C1308 C 0.45792 0.02489 1.01424 0.0
C1309 C 0.43222 0.01027 0.99819 0.0
C1310 C 0.53271 0.96586 0.99657 0.0
C1311 C 0.4496 0.0558 0.03133 0.0
H1312 H 0.55061 0.02365 0.09606 0.0
H1313 H 0.58184 0.08569 0.02881 0.0
H1314 H 0.47345 0.99577 0.07081 0.0
H1315 H 0.50292 0.96467 0.05847 0.0
H1316 H 0.50812 0.98201 0.09222 0.0
H1317 H 0.55413 0.08464 0.98668 0.0
H1318 H 0.53955 0.04269 0.97744 0.0
H1319 H 0.50946 0.07388 0.98855 0.0
H1320 H 0.4768 0.94658 0.96773 0.0
H1321 H 0.4069 0.02135 0.99858 0.0
H1322 H 0.53986 0.95763 1.01737 0.0
H1323 H 0.55205 0.98467 0.98988 0.0
H1324 H 0.53379 0.94348 0.98275 0.0
H1325 H 0.45398 0.05016 0.05315 0.0
H1326 H 0.42276 0.06424 0.02877 0.0
H1327 H 0.46671 0.07717 1.02577 0.0
C1328 C 0.45779 0.54246 0.07299 0.0
C1329 C 0.47793 0.57023 0.08072 0.0
C1330 C 0.47136 0.51635 0.05642 0.0
C1331 C 0.50595 0.5179 0.04782 0.0
C1332 C 0.52661 0.54533 0.05665 0.0
C1333 C 0.51223 0.57129 0.07264 0.0
C1334 C 0.44844 0.48759 0.04747 0.0
C1335 C 0.56377 0.54771 0.04874 0.0
C1336 C 0.54794 0.43557 1.02402 0.0
C1337 C 0.54644 0.43843 0.99556 0.0
C1338 C 0.53556 0.46145 0.04116 0.0
C1339 C 0.52062 0.49086 0.02968 0.0
C1340 C 0.51976 0.49432 1.00093 0.0
C1341 C 0.53296 0.46819 0.9842 0.0
C1342 C 0.53785 0.45694 0.07162 0.0
C1343 C 0.50399 0.5252 0.98782 0.0
H1344 H 0.43115 0.54192 0.0789 0.0
H1345 H 0.52779 0.59289 0.07857 0.0
H1346 H 0.44641 0.48739 1.02496 0.0
H1347 H 0.45958 0.46285 0.05363 0.0
H1348 H 0.4224 0.4897 0.05623 0.0
H1349 H 0.57679 0.56961 0.0586 0.0
H1350 H 0.57737 0.52405 0.05446 0.0
H1351 H 0.566 0.55045 0.02635 0.0
H1352 H 0.55843 0.41268 0.03298 0.0
H1353 H 0.53139 0.47044 0.96227 0.0
H1354 H 0.51184 0.4561 0.08049 0.0
H1355 H 0.55125 0.47891 0.08095 0.0
H1356 H 0.55152 0.43326 0.07732 0.0
H1357 H 0.47672 0.52708 0.99369 0.0
H1358 H 0.50573 0.52436 0.96527 0.0
H1359 H 0.51682 0.54862 0.9952 0.0
C1360 C 0.93529 0.51212 0.04875 0.0
C1361 C 0.94021 0.48233 0.06395 0.0
C1362 C 0.96096 0.5252 0.03186 0.0
C1363 C 0.99239 0.50779 0.02955 0.0
C1364 C 0.99776 0.47781 0.04508 0.0
C1365 C 0.9717 0.46562 0.0624 0.0
C1366 C 0.95436 0.55773 1.01645 0.0
C1367 C 0.03081 0.45833 0.04303 0.0
C1368 C 0.04606 0.52695 0.96633 0.0
C1369 C 0.071 0.54882 0.97692 0.0
C1370 C 0.02071 0.51286 0.98329 0.0
C1371 C 0.01971 0.52161 1.01133 0.0
C1372 C 0.04414 0.54471 1.0218 0.0
C1373 C 0.06969 0.55759 1.0046 0.0
C1374 C 0.9955 0.48795 0.97134 0.0
C1375 C 0.0435 0.55562 0.05129 0.0
H1376 H 0.91113 0.52545 0.05015 0.0
H1377 H 0.97553 0.44253 0.074 0.0
H1378 H 0.97392 0.57702 1.02178 0.0
H1379 H 0.95636 0.55299 0.99425 0.0
H1380 H 0.92876 0.56853 1.02086 0.0
H1381 H 0.03088 0.43528 0.05605 0.0
H1382 H 0.03529 0.4505 1.02162 0.0
H1383 H 0.05243 0.47488 0.04912 0.0
H1384 H 0.04727 0.51961 0.9451 0.0
H1385 H 0.08903 0.57436 1.01292 0.0
H1386 H 0.96919 0.4979 0.97368 0.0
H1387 H 0.99676 0.46349 0.98252 0.0
H1388 H 1.00034 0.48289 0.94943 0.0
H1389 H 0.01832 0.56685 0.05637 0.0
H1390 H 0.06365 0.57457 0.05608 0.0
H1391 H 0.04705 0.53318 0.06462 0.0
C1392 C 0.953 0.06419 1.01119 0.0
C1393 C 0.96423 0.06854 0.98431 0.0
C1394 C 0.96792 0.03979 0.02835 0.0
C1395 C 0.99546 0.01978 1.01868 0.0
C1396 C 1.00687 0.02402 0.99149 0.0
C1397 C 0.9908 0.04798 0.97453 0.0
C1398 C 0.9542 0.03548 0.05685 0.0
C1399 C 0.03649 1.00367 0.98044 0.0
C1400 C 0.05259 0.9754 0.071 0.0
C1401 C 0.04048 0.94192 0.06954 0.0
C1402 C 0.03844 1.00108 0.05439 0.0
C1403 C 0.01104 0.99318 0.03654 0.0
C1404 C 0.99819 0.95959 0.03575 0.0
C1405 C 0.01322 0.93446 0.05198 0.0
C1406 C 0.05312 0.03652 0.0556 0.0
C1407 C 0.96847 0.95008 1.01771 0.0
H1408 H 0.93261 0.08015 1.0189 0.0
H1409 H 1.00005 0.0516 0.95396 0.0
H1410 H 0.94448 0.00919 0.05953 0.0
H1411 H 0.97487 0.0393 0.07194 0.0
H1412 H 0.93323 0.05359 0.06147 0.0
H1413 H 0.05907 1.00689 0.99379 0.0
H1414 H 0.02995 0.97622 0.9803 0.0
H1415 H 0.04358 0.01137 0.95944 0.0
H1416 H 0.07362 0.98127 0.08451 0.0
H1417 H 1.00327 0.90875 0.05108 0.0
H1418 H 0.03302 0.05495 0.06152 0.0
H1419 H 0.06245 0.04404 0.03515 0.0
H1420 H 0.07454 0.03855 0.07029 0.0
H1421 H 0.94616 0.9664 1.02249 0.0
H1422 H 0.96083 0.92304 1.0201 0.0
H1423 H 0.9752 0.95451 0.99609 0.0
C1424 C 0.97385 0.03499 0.57809 0.0
C1425 C 0.94341 0.04652 0.56632 0.0
C1426 C 0.99964 0.02 0.56201 0.0
C1427 C 0.99499 0.01656 0.53349 0.0
C1428 C 0.96482 0.02926 0.52147 0.0
C1429 C 0.93949 0.04395 0.53797 0.0
C1430 C 0.03174 1.00743 0.57555 0.0
C1431 C 0.95895 0.02674 0.49116 0.0
C1432 C 0.07353 1.00286 0.48908 0.0
C1433 C 0.07243 0.96775 0.48408 0.0
C1434 C 0.04825 0.01914 0.50464 0.0
C1435 C 0.02156 0.99966 0.51619 0.0
C1436 C 0.02027 0.96407 0.51111 0.0
C1437 C 0.04565 0.94854 0.49492 0.0
C1438 C 0.0504 0.05714 0.50891 0.0
C1439 C 0.99246 0.94233 0.52329 0.0
H1440 H 0.97709 0.03669 0.59994 0.0
H1441 H 0.91616 0.05292 0.5286 0.0
H1442 H 0.03566 0.98009 0.57083 0.0
H1443 H 0.05411 0.02139 0.56743 0.0
H1444 H 0.03102 0.01082 0.59798 0.0
H1445 H 0.9345 0.03859 0.48486 0.0
H1446 H 0.98007 0.03934 0.48003 0.0
H1447 H 0.95876 0.99963 0.48482 0.0
H1448 H 0.09465 0.0176 0.48115 0.0
H1449 H 0.04522 0.92128 0.49151 0.0
H1450 H 0.05059 0.06318 0.53096 0.0
H1451 H 0.02762 0.06961 0.50003 0.0
H1452 H 0.07353 0.06834 0.49943 0.0
H1453 H 0.99277 0.94471 0.54579 0.0
H1454 H 0.99526 0.91504 0.51778 0.0
H1455 H 0.96717 0.95135 0.51622 0.0
C1456 C 0.54526 0.04369 0.47977 0.0
C1457 C 0.53384 0.07743 0.48059 0.0
C1458 C 0.53085 0.01892 0.49709 0.0
C1459 C 0.50388 0.02802 0.51502 0.0
C1460 C 0.49183 0.0619 0.5153 0.0
C1461 C 0.50713 0.08612 0.49836 0.0
C1462 C 0.54468 0.98312 0.49646 0.0
C1463 C 0.46259 0.07263 0.53343 0.0
C1464 C 0.44417 0.95901 0.54123 0.0
C1465 C 0.45549 0.95466 0.56806 0.0
C1466 C 0.45958 0.98281 0.52383 0.0
C1467 C 0.48763 1.00227 0.53324 0.0
C1468 C 0.49901 0.99821 0.56043 0.0
C1469 C 0.48248 0.97482 0.57763 0.0
C1470 C 0.44594 0.98696 0.49531 0.0
C1471 C 0.52916 0.01799 0.57117 0.0
H1472 H 0.56589 0.03688 0.46611 0.0
H1473 H 0.49773 0.11205 0.4988 0.0
H1474 H 0.55363 0.97581 0.51705 0.0
H1475 H 0.52418 0.96506 0.49069 0.0
H1476 H 0.56617 0.98025 0.48189 0.0
H1477 H 0.45581 0.09986 0.53083 0.0
H1478 H 0.43972 0.05696 0.52893 0.0
H1479 H 0.4693 0.0683 0.55506 0.0
H1480 H 0.42345 0.94335 0.5337 0.0
H1481 H 0.49174 0.97124 0.59817 0.0
H1482 H 0.46644 0.98212 0.48022 0.0
H1483 H 0.43709 0.01348 0.49227 0.0
H1484 H 0.42439 0.96942 0.49101 0.0
H1485 H 0.55169 0.01375 0.55791 0.0
H1486 H 0.53594 0.01065 0.59231 0.0
H1487 H 0.52346 0.04562 0.57082 0.0
C1488 C 0.42314 0.4988 0.51314 0.0
C1489 C 0.43257 0.52428 0.49455 0.0
C1490 C 0.44704 0.48345 0.53043 0.0
C1491 C 0.48146 0.49406 0.52965 0.0
C1492 C 0.49137 0.51963 0.51081 0.0
C1493 C 0.46686 0.53419 0.49324 0.0
C1494 C 0.43535 0.45585 0.54962 0.0
C1495 C 0.52777 0.53194 0.50952 0.0
C1496 C 0.53669 0.47834 0.59243 0.0
C1497 C 0.55723 0.45117 0.58387 0.0
C1498 C 0.51175 0.49234 0.57515 0.0
C1499 C 0.50683 0.47847 0.54876 0.0
C1500 C 0.52619 0.44967 0.54069 0.0
C1501 C 0.55155 0.4368 0.55815 0.0
C1502 C 0.49218 0.52329 0.58456 0.0
C1503 C 0.52129 0.43346 0.51308 0.0
H1504 H 0.39681 0.49047 0.51409 0.0
H1505 H 0.47436 0.5538 0.47897 0.0
H1506 H 0.45044 0.43235 0.54616 0.0
H1507 H 0.43975 0.46389 0.57098 0.0
H1508 H 0.40787 0.44969 0.54712 0.0
H1509 H 0.53142 0.55206 0.49396 0.0
H1510 H 0.53552 0.5422 0.52965 0.0
H1511 H 0.54504 0.51039 0.50474 0.0
H1512 H 0.54196 0.49039 0.61184 0.0
H1513 H 0.56824 0.41662 0.5511 0.0
H1514 H 0.46436 0.51899 0.58241 0.0
H1515 H 0.49891 0.54536 0.57158 0.0
H1516 H 0.49776 0.52997 0.60608 0.0
H1517 H 0.49393 0.42775 0.50958 0.0
H1518 H 0.53614 0.40954 0.51082 0.0
H1519 H 0.52948 0.45141 0.49698 0.0
C1520 C 0.00971 0.57931 0.54622 0.0
C1521 C 0.03931 0.57386 0.56165 0.0
C1522 C 0.99538 0.5534 0.53022 0.0
C1523 C 0.01136 0.52118 0.52904 0.0
C1524 C 0.04113 0.51531 0.54484 0.0
C1525 C 0.05455 0.54165 0.56128 0.0
C1526 C 0.96311 0.56062 0.5145 0.0
C1527 C 0.05913 0.48142 0.54395 0.0
C1528 C 0.95855 0.44486 0.50615 0.0
C1529 C 0.96746 0.44184 0.4786 0.0
C1530 C 0.97223 0.47077 0.52263 0.0
C1531 C 0.99641 0.49367 0.51157 0.0
C1532 C 1.00534 0.49091 0.48364 0.0
C1533 C 0.99033 0.46536 0.46738 0.0
C1534 C 0.96109 0.47336 0.55199 0.0
C1535 C 0.03145 0.51436 0.4711 0.0
H1536 H 0.99754 0.60407 0.54675 0.0
H1537 H 0.07749 0.53742 0.57307 0.0
H1538 H 0.96784 0.5574 0.49239 0.0
H1539 H 0.94295 0.5422 0.5203 0.0
H1540 H 0.95337 0.58678 0.51815 0.0
H1541 H 0.0821 0.48094 0.55716 0.0
H1542 H 0.04152 0.46094 0.55053 0.0
H1543 H 0.06696 0.47554 0.52275 0.0
H1544 H 0.94103 0.42658 0.51495 0.0
H1545 H 0.99778 0.46282 0.44626 0.0
H1546 H 0.95099 0.49919 0.55626 0.0
H1547 H 0.98329 0.46941 0.56559 0.0
H1548 H 0.94112 0.45441 0.55721 0.0
H1549 H 0.02257 0.54109 0.47254 0.0
H1550 H 0.03649 0.5082 0.44939 0.0
H1551 H 0.05582 0.51265 0.48248 0.0
C1552 C 0.59845 0.10523 0.33279 0.0
C1553 C 0.56342 0.1063 0.33854 0.0
C1554 C 0.61035 0.09469 0.30702 0.0
C1555 C 0.58671 0.08455 0.2867 0.0
C1556 C 0.55143 0.08454 0.29281 0.0
C1557 C 0.54026 0.09556 0.31851 0.0
C1558 C 0.64816 0.09527 0.30127 0.0
C1559 C 0.52532 0.07343 0.27202 0.0
C1560 C 0.61028 0.08879 0.21141 0.0
C1561 C 0.6184 0.05477 0.20559 0.0
C1562 C 0.60059 0.09892 0.23781 0.0
C1563 C 0.59855 0.07443 0.25888 0.0
C1564 C 0.60644 0.04003 0.25304 0.0
C1565 C 0.6164 0.03067 0.22657 0.0
C1566 C 0.59258 0.1359 0.24316 0.0
C1567 C 0.60409 0.013 0.27473 0.0
H1568 H 0.61647 0.11372 0.34807 0.0
H1569 H 0.51315 0.09605 0.32284 0.0
H1570 H 0.65685 0.06978 0.29446 0.0
H1571 H 0.65359 0.11333 0.2845 0.0
H1572 H 0.66328 0.10296 0.31938 0.0
H1573 H 0.49897 0.07351 0.28035 0.0
H1574 H 0.52618 0.09064 0.25419 0.0
H1575 H 0.5313 0.04743 0.26459 0.0
H1576 H 0.61201 0.10766 0.19544 0.0
H1577 H 0.62254 1.00431 0.22229 0.0
H1578 H 0.6089 0.14571 0.25986 0.0
H1579 H 0.56568 0.13856 0.24986 0.0
H1580 H 0.59654 0.15198 0.22489 0.0
H1581 H 0.62087 0.01967 0.2921 0.0
H1582 H 0.61147 0.98745 0.26701 0.0
H1583 H 0.57762 0.01163 0.28267 0.0
C1584 C 0.41064 0.53797 0.33047 0.0
C1585 C 0.40245 0.56075 0.35155 0.0
C1586 C 0.42064 0.54951 0.30465 0.0
C1587 C 0.42234 0.58486 0.29946 0.0
C1588 C 0.41464 0.60812 0.32077 0.0
C1589 C 0.40496 0.5958 0.34662 0.0
C1590 C 0.42915 0.52373 0.28283 0.0
C1591 C 0.41606 0.646 0.31608 0.0
C1592 C 0.47824 0.61234 0.23999 0.0
C1593 C 0.45442 0.61693 0.21896 0.0
C1594 C 0.46808 0.6025 0.26624 0.0
C1595 C 0.4331 0.59717 0.27191 0.0
C1596 C 0.40881 0.60182 0.25083 0.0
C1597 C 0.41975 0.61149 0.22459 0.0
C1598 C 0.49495 0.59741 0.28785 0.0
C1599 C 0.37126 0.59646 0.256 0.0
H1600 H 0.40896 0.51083 0.33409 0.0
H1601 H 0.39835 0.61357 0.36268 0.0
H1602 H 0.41183 0.52702 0.26519 0.0
H1603 H 0.45555 0.52782 0.2754 0.0
H1604 H 0.4269 0.49714 0.2902 0.0
H1605 H 0.40932 0.66075 0.33463 0.0
H1606 H 0.44204 0.6535 0.30944 0.0
H1607 H 0.39823 0.65307 0.29952 0.0
H1608 H 0.50512 0.61632 0.23595 0.0
H1609 H 0.40111 0.6152 0.2086 0.0
H1610 H 0.49459 0.57063 0.29492 0.0
H1611 H 0.48937 0.61374 0.30575 0.0
H1612 H 0.52101 0.60344 0.28039 0.0
H1613 H 0.36656 0.56964 0.26187 0.0
H1614 H 0.35547 0.60244 0.23788 0.0
H1615 H 0.36274 0.61268 0.27322 0.0
C1616 C 0.90592 0.41364 0.20972 0.0
C1617 C 0.90278 0.44864 0.20479 0.0
C1618 C 0.91566 0.40151 0.2356 0.0
C1619 C 0.92278 0.42491 0.25692 0.0
C1620 C 0.92033 0.46022 0.25177 0.0
C1621 C 0.9103 0.47156 0.22593 0.0
C1622 C 0.91788 0.36367 0.24027 0.0
C1623 C 0.92815 0.48615 0.27363 0.0
C1624 C 0.92027 0.3985 0.33179 0.0
C1625 C 0.95501 0.39386 0.33753 0.0
C1626 C 0.9093 0.40777 0.3055 0.0
C1627 C 0.93363 0.41285 0.28449 0.0
C1628 C 0.96869 0.40832 0.29027 0.0
C1629 C 0.97889 0.39883 0.31657 0.0
C1630 C 0.87167 0.41225 0.30021 0.0
C1631 C 0.99558 0.41393 0.26871 0.0
H1632 H 0.89988 0.39575 0.19362 0.0
H1633 H 0.90817 0.49867 0.22233 0.0
H1634 H 0.94401 0.35672 0.24686 0.0
H1635 H 0.90021 0.3562 0.25686 0.0
H1636 H 0.91143 0.34879 0.22173 0.0
H1637 H 0.92527 0.5127 0.2663 0.0
H1638 H 0.91088 0.48241 0.29126 0.0
H1639 H 0.95463 0.48271 0.28106 0.0
H1640 H 0.9016 0.39447 0.34773 0.0
H1641 H 1.00581 0.39545 0.32073 0.0
H1642 H 0.86365 0.39584 0.28296 0.0
H1643 H 0.8664 0.43896 0.29433 0.0
H1644 H 0.8559 0.4059 0.31828 0.0
H1645 H 0.99044 0.39748 0.25081 0.0
H1646 H 0.02171 0.40845 0.27624 0.0
H1647 H 0.99472 0.44069 0.26163 0.0
C1648 C 0.10947 0.92081 0.3387 0.0
C1649 C 0.11812 0.95471 0.34447 0.0
C1650 C 0.09986 0.91073 0.31225 0.0
C1651 C 0.09849 0.93516 0.29109 0.0
C1652 C 0.10686 0.96945 0.29691 0.0
C1653 C 0.11667 0.97875 0.32341 0.0
C1654 C 0.09127 0.87388 0.30693 0.0
C1655 C 0.10527 0.99644 0.27514 0.0
C1656 C 0.09919 0.90568 0.2168 0.0
C1657 C 0.0643 0.90599 0.21046 0.0
C1658 C 0.11075 0.91499 0.24296 0.0
C1659 C 0.08692 0.92522 0.26315 0.0
C1660 C 0.0518 0.92626 0.2566 0.0
C1661 C 0.04097 0.91654 0.23049 0.0
C1662 C 0.1484 0.9134 0.24914 0.0
C1663 C 0.02553 0.93744 0.27726 0.0
H1664 H 0.11078 0.90199 0.35473 0.0
H1665 H 0.12321 1.00503 0.32762 0.0
H1666 H 0.06449 0.87167 0.29989 0.0
H1667 H 0.10778 0.8637 0.29047 0.0
H1668 H 0.09454 0.85784 0.32531 0.0
H1669 H 0.1129 0.02191 0.28287 0.0
H1670 H 0.12226 0.98947 0.25795 0.0
H1671 H 0.07897 0.99817 0.26695 0.0
H1672 H 0.11737 0.89736 0.20155 0.0
H1673 H 0.01397 0.91711 0.22579 0.0
H1674 H 0.153 0.89549 0.26616 0.0
H1675 H 0.15766 0.93875 0.25578 0.0
H1676 H 0.16366 0.90502 0.23128 0.0
H1677 H 0.02616 0.9203 0.29513 0.0
H1678 H 0.99926 0.93744 0.26881 0.0
H1679 H 0.03153 0.96345 0.28466 0.0
C1680 C 0.45394 0.94798 0.83598 0.0
C1681 C 0.42494 0.93478 0.84895 0.0
C1682 C 0.45984 0.94244 0.80807 0.0
C1683 C 0.43668 0.92237 0.79279 0.0
C1684 C 0.40719 0.90917 0.80575 0.0
C1685 C 0.40143 0.91593 0.83356 0.0
C1686 C 0.49114 0.95774 0.79503 0.0
C1687 C 0.38227 0.88697 0.79048 0.0
C1688 C 0.44022 0.92483 0.71494 0.0
C1689 C 0.46169 0.89721 0.70913 0.0
C1690 C 0.43193 0.9335 0.74203 0.0
C1691 C 0.44457 0.91347 0.76378 0.0
C1692 C 0.46562 0.88511 0.75788 0.0
C1693 C 0.47425 0.87764 0.73076 0.0
C1694 C 0.41014 0.96443 0.74742 0.0
C1695 C 0.47901 0.8625 0.78025 0.0
H1696 H 0.472 0.96297 0.84763 0.0
H1697 H 0.37899 0.90562 0.84345 0.0
H1698 H 0.5088 0.93721 0.78856 0.0
H1699 H 0.48391 0.97215 0.77653 0.0
H1700 H 0.50501 0.97509 0.80906 0.0
H1701 H 0.36007 0.87954 0.8032 0.0
H1702 H 0.3728 0.90037 0.77216 0.0
H1703 H 0.39535 0.86353 0.78339 0.0
H1704 H 0.43046 0.94006 0.69833 0.0
H1705 H 0.49047 0.85595 0.72647 0.0
H1706 H 0.42437 0.98278 0.76032 0.0
H1707 H 0.38685 0.95707 0.7588 0.0
H1708 H 0.40237 0.9774 0.72836 0.0
H1709 H 0.49596 0.87732 0.7939 0.0
H1710 H 0.49355 0.8404 0.77219 0.0
H1711 H 0.45754 0.85288 0.79279 0.0
C1712 C 0.61621 0.39977 0.72235 0.0
C1713 C 0.64031 0.42565 0.71842 0.0
C1714 C 0.60584 0.39043 0.74885 0.0
C1715 C 0.61961 0.40765 0.77181 0.0
C1716 C 0.64554 0.43215 0.76785 0.0
C1717 C 0.65572 0.44054 0.74136 0.0
C1718 C 0.57873 0.36354 0.7522 0.0
C1719 C 0.66081 0.45149 0.7915 0.0
C1720 C 0.56271 0.42131 0.83368 0.0
C1721 C 0.57677 0.39898 0.85282 0.0
C1722 C 0.57632 0.42412 0.80734 0.0
C1723 C 0.60431 0.40346 0.79954 0.0
C1724 C 0.61863 0.38072 0.81877 0.0
C1725 C 0.60495 0.37904 0.84531 0.0
C1726 C 0.56077 0.44943 0.78789 0.0
C1727 C 0.64798 0.35777 0.81116 0.0
H1728 H 0.60421 0.38805 0.70482 0.0
H1729 H 0.67477 0.46023 0.73863 0.0
H1730 H 0.58567 0.34572 0.76876 0.0
H1731 H 0.55427 0.37579 0.75794 0.0
H1732 H 0.5747 0.34879 0.73316 0.0
H1733 H 0.68282 0.46747 0.78525 0.0
H1734 H 0.6411 0.46829 0.80062 0.0
H1735 H 0.66937 0.43373 0.80758 0.0
H1736 H 0.54085 0.43668 0.83935 0.0
H1737 H 0.61549 0.36122 0.85984 0.0
H1738 H 0.55132 0.43611 0.76946 0.0
H1739 H 0.58043 0.46792 0.78119 0.0
H1740 H 0.53924 0.46372 0.79715 0.0
H1741 H 0.64074 0.34168 0.79349 0.0
H1742 H 0.65575 0.34096 0.8282 0.0
H1743 H 0.6703 0.37319 0.80486 0.0
C1744 C 0.04284 0.60661 0.72204 0.0
C1745 C 0.06648 0.61396 0.70135 0.0
C1746 C 0.05341 0.59663 0.74811 0.0
C1747 C 0.08863 0.59398 0.75397 0.0
C1748 C 0.11274 0.60118 0.7332 0.0
C1749 C 0.1014 0.61094 0.70709 0.0
C1750 C 0.02674 0.58883 0.76941 0.0
C1751 C 0.15053 0.59875 0.73861 0.0
C1752 C 0.11343 0.59487 0.82928 0.0
C1753 C 0.11774 0.56008 0.83463 0.0
C1754 C 0.10471 0.60638 0.80302 0.0
C1755 C 0.09988 0.58255 0.78162 0.0
C1756 C 0.10404 0.54744 0.78699 0.0
C1757 C 0.11296 0.5367 0.81329 0.0
C1758 C 0.10059 0.64404 0.79818 0.0
C1759 C 0.09872 0.52108 0.76499 0.0
H1760 H 0.01577 0.60865 0.71788 0.0
H1761 H 0.11987 0.61677 0.69136 0.0
H1762 H 0.02957 0.56219 0.77646 0.0
H1763 H 0.03034 0.60558 0.78737 0.0
H1764 H 1.00036 0.59231 0.76167 0.0
H1765 H 0.16603 0.60575 0.72055 0.0
H1766 H 0.15755 0.61576 0.75576 0.0
H1767 H 0.15722 0.57244 0.74472 0.0
H1768 H 0.1173 0.61317 0.84552 0.0
H1769 H 0.1161 0.50975 0.81712 0.0
H1770 H 0.07403 0.64958 0.79182 0.0
H1771 H 0.1176 0.65228 0.78139 0.0
H1772 H 0.10649 0.65937 0.81659 0.0
H1773 H 0.0721 0.52234 0.75742 0.0
H1774 H 0.10374 0.49482 0.77228 0.0
H1775 H 0.11575 0.52635 0.74747 0.0
C1776 C 0.98746 0.11369 0.82068 0.0
C1777 C 0.96367 0.11568 0.842 0.0
C1778 C 0.97764 0.10366 0.79435 0.0
C1779 C 0.94305 0.09574 0.78898 0.0
C1780 C 0.91889 0.09766 0.81042 0.0
C1781 C 0.92951 0.10737 0.83668 0.0
C1782 C 1.00434 0.10143 0.77226 0.0
C1783 C 0.88173 0.08963 0.80557 0.0
C1784 C 0.91136 0.09694 0.71541 0.0
C1785 C 0.91034 0.06212 0.70912 0.0
C1786 C 0.92203 0.10832 0.74127 0.0
C1787 C 0.93236 0.08436 0.76118 0.0
C1788 C 0.93227 0.04929 0.7546 0.0
C1789 C 0.92111 0.03864 0.7288 0.0
C1790 C 0.92154 0.14592 0.74752 0.0
C1791 C 0.94357 0.02288 0.77495 0.0
H1792 H 0.01394 0.11995 0.82458 0.0
H1793 H 0.91087 0.1091 0.85293 0.0
H1794 H 1.00533 0.07516 0.76398 0.0
H1795 H 0.99752 0.11853 0.7552 0.0
H1796 H 0.03015 0.10845 0.77971 0.0
H1797 H 0.86599 0.09319 0.82417 0.0
H1798 H 0.87151 0.10622 0.78927 0.0
H1799 H 0.87898 0.06294 0.79854 0.0
H1800 H 0.90289 0.11524 0.70041 0.0
H1801 H 0.92065 0.01169 0.72409 0.0
H1802 H 0.94727 0.15451 0.7539 0.0
H1803 H 0.90391 0.151 0.76473 0.0
H1804 H 0.91332 0.16132 0.72978 0.0
H1805 H 0.96982 0.02856 0.78204 0.0
H1806 H 0.94313 0.99672 0.76635 0.0
H1807 H 0.92667 0.02362 0.79306 0.0
loop_
_geom_bond_atom_site_label_1
_geom_bond_atom_site_label_2
_geom_bond_distance
_geom_bond_site_symmetry_2
_ccdc_geom_bond_type
C0 C1 1.351 . S
C0 N3 1.368 . S
C0 H5 0.931 . S
C1 C0 1.351 . S
C1 N2 1.373 . S
C1 H29 0.930 . S
N2 C1 1.373 . S
N2 C4 1.340 . S
N3 C0 1.368 . S
N3 C4 1.321 . S
N3 Co6 2.135 . S
C4 N2 1.340 . S
C4 N3 1.321 . S
C4 H28 0.930 . S
H5 C0 0.931 . S
Co6 N3 2.135 . S
Co6 N9 2.121 1_545 S
Co6 O14 2.055 . S
Co6 O17 2.039 . S
Co6 N20 2.140 . S
C7 O8 1.227 . S
C7 O17 1.265 . S
O8 C7 1.227 . S
N9 Co6 2.121 1_565 S
N9 C11 1.375 . S
N9 C12 1.313 . S
C10 C11 1.338 . S
C10 N13 1.377 . S
C10 H30 0.930 . S
C11 N9 1.375 . S
C11 C10 1.338 . S
C11 H15 0.931 . S
C12 N9 1.313 . S
C12 N13 1.344 . S
C12 H16 0.930 . S
N13 C10 1.377 . S
N13 C12 1.344 . S
O14 Co6 2.055 . S
O14 C18 1.253 . S
H15 C11 0.931 . S
H16 C12 0.930 . S
O17 Co6 2.039 . S
O17 C7 1.265 . S
C18 O14 1.253 . S
C18 O19 1.227 . S
O19 C18 1.227 . S
N20 Co6 2.140 . S
N20 C23 1.346 . S
N20 C24 1.345 1_545 S
C21 C22 1.387 1_565 S
C21 C25 1.391 . S
C22 C21 1.387 1_545 S
C22 C23 1.369 . S
C22 H31 0.929 . S
C23 N20 1.346 . S
C23 C22 1.369 . S
C23 H26 0.928 . S
C24 N20 1.345 1_565 S
C24 C25 1.371 . S
C24 H27 0.931 . S
C25 C21 1.391 . S
C25 C24 1.371 . S
C25 H32 0.930 . S
H26 C23 0.928 . S
H27 C24 0.931 . S
H28 C4 0.930 . S
H29 C1 0.930 . S
H30 C10 0.930 . S
H31 C22 0.929 . S
H32 C25 0.930 . S
C33 C34 1.351 . S
C33 N36 1.368 . S
C33 H38 0.931 . S
C34 C33 1.351 . S
C34 N35 1.373 . S
C34 H62 0.930 . S
N35 C34 1.373 . S
N35 C37 1.340 . S
N36 C33 1.368 . S
N36 C37 1.321 . S
N36 Co39 2.135 . S
C37 N35 1.340 . S
C37 N36 1.321 . S
C37 H61 0.930 . S
H38 C33 0.931 . S
Co39 N36 2.135 . S
Co39 N42 2.121 . S
Co39 O47 2.055 . S
Co39 O50 2.039 . S
Co39 N53 2.140 . S
C40 O41 1.227 . S
C40 O50 1.265 . S
O41 C40 1.227 . S
N42 Co39 2.121 . S
N42 C44 1.375 . S
N42 C45 1.313 . S
C43 C44 1.338 . S
C43 N46 1.377 . S
C43 H63 0.930 . S
C44 N42 1.375 . S
C44 C43 1.338 . S
C44 H48 0.931 . S
C45 N42 1.313 . S
C45 N46 1.344 . S
C45 H49 0.930 . S
N46 C43 1.377 . S
N46 C45 1.344 . S
O47 Co39 2.055 . S
O47 C51 1.253 . S
H48 C44 0.931 . S
H49 C45 0.930 . S
O50 Co39 2.039 . S
O50 C40 1.265 . S
C51 O47 1.253 . S
C51 O52 1.227 . S
O52 C51 1.227 . S
N53 Co39 2.140 . S
N53 C56 1.346 . S
N53 C57 1.345 . S
C54 C55 1.387 . S
C54 C58 1.391 . S
C55 C54 1.387 . S
C55 C56 1.369 . S
C55 H64 0.929 . S
C56 N53 1.346 . S
C56 C55 1.369 . S
C56 H59 0.928 . S
C57 N53 1.345 . S
C57 C58 1.371 . S
C57 H60 0.931 . S
C58 C54 1.391 . S
C58 C57 1.371 . S
C58 H65 0.930 . S
H59 C56 0.928 . S
H60 C57 0.931 . S
H61 C37 0.930 . S
H62 C34 0.930 . S
H63 C43 0.930 . S
H64 C55 0.929 . S
H65 C58 0.930 . S
C66 C67 1.351 . S
C66 N69 1.368 . S
C66 H71 0.931 . S
C67 C66 1.351 . S
C67 N68 1.373 . S
C67 H95 0.930 . S
N68 C67 1.373 . S
N68 C70 1.340 . S
N69 C66 1.368 . S
N69 C70 1.321 . S
N69 Co72 2.135 . S
C70 N68 1.340 . S
C70 N69 1.321 . S
C70 H94 0.930 . S
H71 C66 0.931 . S
Co72 N69 2.135 . S
Co72 N75 2.121 . S
Co72 O80 2.055 . S
Co72 O83 2.039 . S
Co72 N86 2.140 . S
C73 O74 1.227 . S
C73 O83 1.265 . S
O74 C73 1.227 . S
N75 Co72 2.121 . S
N75 C77 1.375 . S
N75 C78 1.313 . S
C76 C77 1.338 . S
C76 N79 1.377 . S
C76 H96 0.930 . S
C77 N75 1.375 . S
C77 C76 1.338 . S
C77 H81 0.931 . S
C78 N75 1.313 . S
C78 N79 1.344 . S
C78 H82 0.930 . S
N79 C76 1.377 . S
N79 C78 1.344 . S
O80 Co72 2.055 . S
O80 C84 1.253 . S
H81 C77 0.931 . S
H82 C78 0.930 . S
O83 Co72 2.039 . S
O83 C73 1.265 . S
C84 O80 1.253 . S
C84 O85 1.227 . S
O85 C84 1.227 . S
N86 Co72 2.140 . S
N86 C89 1.346 . S
N86 C90 1.345 . S
C87 C88 1.387 . S
C87 C91 1.391 . S
C88 C87 1.387 . S
C88 C89 1.369 . S
C88 H97 0.929 . S
C89 N86 1.346 . S
C89 C88 1.369 . S
C89 H92 0.928 . S
C90 N86 1.345 . S
C90 C91 1.371 . S
C90 H93 0.931 . S
C91 C87 1.391 . S
C91 C90 1.371 . S
C91 H98 0.930 . S
H92 C89 0.928 . S
H93 C90 0.931 . S
H94 C70 0.930 . S
H95 C67 0.930 . S
H96 C76 0.930 . S
H97 C88 0.929 . S
H98 C91 0.930 . S
C99 C100 1.351 . S
C99 N102 1.368 . S
C99 H104 0.931 . S
C100 C99 1.351 . S
C100 N101 1.373 . S
C100 H128 0.930 . S
N101 C100 1.373 . S
N101 C103 1.340 . S
N102 C99 1.368 . S
N102 C103 1.321 . S
N102 Co105 2.135 . S
C103 N101 1.340 . S
C103 N102 1.321 . S
C103 H127 0.930 . S
H104 C99 0.931 . S
Co105 N102 2.135 . S
Co105 N108 2.121 1_455 S
Co105 O113 2.055 . S
Co105 O116 2.039 . S
Co105 N119 2.140 . S
C106 O107 1.227 . S
C106 O116 1.265 . S
O107 C106 1.227 . S
N108 Co105 2.121 1_655 S
N108 C110 1.375 . S
N108 C111 1.313 . S
C109 C110 1.338 . S
C109 N112 1.377 . S
C109 H129 0.930 . S
C110 N108 1.375 . S
C110 C109 1.338 . S
C110 H114 0.931 . S
C111 N108 1.313 . S
C111 N112 1.344 . S
C111 H115 0.930 . S
N112 C109 1.377 . S
N112 C111 1.344 . S
O113 Co105 2.055 . S
O113 C117 1.253 . S
H114 C110 0.931 . S
H115 C111 0.930 . S
O116 Co105 2.039 . S
O116 C106 1.265 . S
C117 O113 1.253 . S
C117 O118 1.227 . S
O118 C117 1.227 . S
N119 Co105 2.140 . S
N119 C122 1.346 . S
N119 C123 1.345 1_455 S
C120 C121 1.387 1_655 S
C120 C124 1.391 . S
C121 C120 1.387 1_455 S
C121 C122 1.369 . S
C121 H130 0.929 . S
C122 N119 1.346 . S
C122 C121 1.369 . S
C122 H125 0.928 . S
C123 N119 1.345 1_655 S
C123 C124 1.371 . S
C123 H126 0.931 . S
C124 C120 1.391 . S
C124 C123 1.371 . S
C124 H131 0.930 . S
H125 C122 0.928 . S
H126 C123 0.931 . S
H127 C103 0.930 . S
H128 C100 0.930 . S
H129 C109 0.930 . S
H130 C121 0.929 . S
H131 C124 0.930 . S
C132 C133 1.351 . S
C132 N135 1.368 . S
C132 H137 0.931 . S
C133 C132 1.351 . S
C133 N134 1.373 . S
C133 H161 0.930 . S
N134 C133 1.373 . S
N134 C136 1.340 . S
N135 C132 1.368 . S
N135 C136 1.321 . S
N135 Co138 2.135 . S
C136 N134 1.340 . S
C136 N135 1.321 . S
C136 H160 0.930 . S
H137 C132 0.931 . S
Co138 N135 2.135 . S
Co138 N141 2.121 1_565 S
Co138 O146 2.055 . S
Co138 O149 2.039 . S
Co138 N152 2.140 . S
C139 O140 1.227 . S
C139 O149 1.265 . S
O140 C139 1.227 . S
N141 Co138 2.121 1_545 S
N141 C143 1.375 . S
N141 C144 1.313 . S
C142 C143 1.338 . S
C142 N145 1.377 . S
C142 H162 0.930 . S
C143 N141 1.375 . S
C143 C142 1.338 . S
C143 H147 0.931 . S
C144 N141 1.313 . S
C144 N145 1.344 . S
C144 H148 0.930 . S
N145 C142 1.377 . S
N145 C144 1.344 . S
O146 Co138 2.055 . S
O146 C150 1.253 . S
H147 C143 0.931 . S
H148 C144 0.930 . S
O149 Co138 2.039 . S
O149 C139 1.265 . S
C150 O146 1.253 . S
C150 O151 1.227 . S
O151 C150 1.227 . S
N152 Co138 2.140 . S
N152 C155 1.346 . S
N152 C156 1.345 1_565 S
C153 C154 1.387 1_545 S
C153 C157 1.391 . S
C154 C153 1.387 1_565 S
C154 C155 1.369 . S
C154 H163 0.929 . S
C155 N152 1.346 . S
C155 C154 1.369 . S
C155 H158 0.928 . S
C156 N152 1.345 1_545 S
C156 C157 1.371 . S
C156 H159 0.931 . S
C157 C153 1.391 . S
C157 C156 1.371 . S
C157 H164 0.930 . S
H158 C155 0.928 . S
H159 C156 0.931 . S
H160 C136 0.930 . S
H161 C133 0.930 . S
H162 C142 0.930 . S
H163 C154 0.929 . S
H164 C157 0.930 . S
C165 C166 1.351 . S
C165 N168 1.368 . S
C165 H170 0.931 . S
C166 C165 1.351 . S
C166 N167 1.373 . S
C166 H194 0.930 . S
N167 C166 1.373 . S
N167 C169 1.340 . S
N168 C165 1.368 . S
N168 C169 1.321 . S
N168 Co171 2.135 . S
C169 N167 1.340 . S
C169 N168 1.321 . S
C169 H193 0.930 . S
H170 C165 0.931 . S
Co171 N168 2.135 . S
Co171 N174 2.121 . S
Co171 O179 2.055 . S
Co171 O182 2.039 . S
Co171 N185 2.140 . S
C172 O173 1.227 . S
C172 O182 1.265 . S
O173 C172 1.227 . S
N174 Co171 2.121 . S
N174 C176 1.375 . S
N174 C177 1.313 . S
C175 C176 1.338 . S
C175 N178 1.377 . S
C175 H195 0.930 . S
C176 N174 1.375 . S
C176 C175 1.338 . S
C176 H180 0.931 . S
C177 N174 1.313 . S
C177 N178 1.344 . S
C177 H181 0.930 . S
N178 C175 1.377 . S
N178 C177 1.344 . S
O179 Co171 2.055 . S
O179 C183 1.253 . S
H180 C176 0.931 . S
H181 C177 0.930 . S
O182 Co171 2.039 . S
O182 C172 1.265 . S
C183 O179 1.253 . S
C183 O184 1.227 . S
O184 C183 1.227 . S
N185 Co171 2.140 . S
N185 C188 1.346 . S
N185 C189 1.345 . S
C186 C187 1.387 . S
C186 C190 1.391 . S
C187 C186 1.387 . S
C187 C188 1.369 . S
C187 H196 0.929 . S
C188 N185 1.346 . S
C188 C187 1.369 . S
C188 H191 0.928 . S
C189 N185 1.345 . S
C189 C190 1.371 . S
C189 H192 0.931 . S
C190 C186 1.391 . S
C190 C189 1.371 . S
C190 H197 0.930 . S
H191 C188 0.928 . S
H192 C189 0.931 . S
H193 C169 0.930 . S
H194 C166 0.930 . S
H195 C175 0.930 . S
H196 C187 0.929 . S
H197 C190 0.930 . S
C198 C199 1.351 . S
C198 N201 1.368 . S
C198 H203 0.931 . S
C199 C198 1.351 . S
C199 N200 1.373 . S
C199 H227 0.930 . S
N200 C199 1.373 . S
N200 C202 1.340 . S
N201 C198 1.368 . S
N201 C202 1.321 . S
N201 Co204 2.135 . S
C202 N200 1.340 . S
C202 N201 1.321 . S
C202 H226 0.930 . S
H203 C198 0.931 . S
Co204 N201 2.135 . S
Co204 N207 2.121 . S
Co204 O212 2.055 . S
Co204 O215 2.039 . S
Co204 N218 2.140 . S
C205 O206 1.227 . S
C205 O215 1.265 . S
O206 C205 1.227 . S
N207 Co204 2.121 . S
N207 C209 1.375 . S
N207 C210 1.313 . S
C208 C209 1.338 . S
C208 N211 1.377 . S
C208 H228 0.930 . S
C209 N207 1.375 . S
C209 C208 1.338 . S
C209 H213 0.931 . S
C210 N207 1.313 . S
C210 N211 1.344 . S
C210 H214 0.930 . S
N211 C208 1.377 . S
N211 C210 1.344 . S
O212 Co204 2.055 . S
O212 C216 1.253 . S
H213 C209 0.931 . S
H214 C210 0.930 . S
O215 Co204 2.039 . S
O215 C205 1.265 . S
C216 O212 1.253 . S
C216 O217 1.227 . S
O217 C216 1.227 . S
N218 Co204 2.140 . S
N218 C221 1.346 . S
N218 C222 1.345 . S
C219 C220 1.387 . S
C219 C223 1.391 . S
C220 C219 1.387 . S
C220 C221 1.369 . S
C220 H229 0.929 . S
C221 N218 1.346 . S
C221 C220 1.369 . S
C221 H224 0.928 . S
C222 N218 1.345 . S
C222 C223 1.371 . S
C222 H225 0.931 . S
C223 C219 1.391 . S
C223 C222 1.371 . S
C223 H230 0.930 . S
H224 C221 0.928 . S
H225 C222 0.931 . S
H226 C202 0.930 . S
H227 C199 0.930 . S
H228 C208 0.930 . S
H229 C220 0.929 . S
H230 C223 0.930 . S
C231 C232 1.351 . S
C231 N234 1.368 . S
C231 H236 0.931 . S
C232 C231 1.351 . S
C232 N233 1.373 . S
C232 H260 0.930 . S
N233 C232 1.373 . S
N233 C235 1.340 . S
N234 C231 1.368 . S
N234 C235 1.321 . S
N234 Co237 2.135 . S
C235 N233 1.340 . S
C235 N234 1.321 . S
C235 H259 0.930 . S
H236 C231 0.931 . S
Co237 N234 2.135 . S
Co237 N240 2.121 1_655 S
Co237 O245 2.055 . S
Co237 O248 2.039 . S
Co237 N251 2.140 . S
C238 O239 1.227 . S
C238 O248 1.265 . S
O239 C238 1.227 . S
N240 Co237 2.121 1_455 S
N240 C242 1.375 . S
N240 C243 1.313 . S
C241 C242 1.338 . S
C241 N244 1.377 . S
C241 H261 0.930 . S
C242 N240 1.375 . S
C242 C241 1.338 . S
C242 H246 0.931 . S
C243 N240 1.313 . S
C243 N244 1.344 . S
C243 H247 0.930 . S
N244 C241 1.377 . S
N244 C243 1.344 . S
O245 Co237 2.055 . S
O245 C249 1.253 . S
H246 C242 0.931 . S
H247 C243 0.930 . S
O248 Co237 2.039 . S
O248 C238 1.265 . S
C249 O245 1.253 . S
C249 O250 1.227 . S
O250 C249 1.227 . S
N251 Co237 2.140 . S
N251 C254 1.346 . S
N251 C255 1.345 1_655 S
C252 C253 1.387 1_455 S
C252 C256 1.391 . S
C253 C252 1.387 1_655 S
C253 C254 1.369 . S
C253 H262 0.929 . S
C254 N251 1.346 . S
C254 C253 1.369 . S
C254 H257 0.928 . S
C255 N251 1.345 1_455 S
C255 C256 1.371 . S
C255 H258 0.931 . S
C256 C252 1.391 . S
C256 C255 1.371 . S
C256 H263 0.930 . S
H257 C254 0.928 . S
H258 C255 0.931 . S
H259 C235 0.930 . S
H260 C232 0.930 . S
H261 C241 0.930 . S
H262 C253 0.929 . S
H263 C256 0.930 . S
C264 C265 1.351 . S
C264 N267 1.368 . S
C264 H269 0.931 . S
C265 C264 1.351 . S
C265 N266 1.373 . S
C265 H293 0.930 . S
N266 C265 1.373 . S
N266 C268 1.340 . S
N267 C264 1.368 . S
N267 C268 1.321 . S
N267 Co270 2.135 . S
C268 N266 1.340 . S
C268 N267 1.321 . S
C268 H292 0.930 . S
H269 C264 0.931 . S
Co270 N267 2.135 . S
Co270 N273 2.121 1_565 S
Co270 O278 2.055 . S
Co270 O281 2.039 . S
Co270 N284 2.140 . S
C271 O272 1.227 . S
C271 O281 1.265 . S
O272 C271 1.227 . S
N273 Co270 2.121 1_545 S
N273 C275 1.375 . S
N273 C276 1.313 . S
C274 C275 1.338 . S
C274 N277 1.377 . S
C274 H294 0.930 . S
C275 N273 1.375 . S
C275 C274 1.338 . S
C275 H279 0.931 . S
C276 N273 1.313 . S
C276 N277 1.344 . S
C276 H280 0.930 . S
N277 C274 1.377 . S
N277 C276 1.344 . S
O278 Co270 2.055 . S
O278 C282 1.253 . S
H279 C275 0.931 . S
H280 C276 0.930 . S
O281 Co270 2.039 . S
O281 C271 1.265 . S
C282 O278 1.253 . S
C282 O283 1.227 . S
O283 C282 1.227 . S
N284 Co270 2.140 . S
N284 C287 1.346 . S
N284 C288 1.345 1_565 S
C285 C286 1.387 1_545 S
C285 C289 1.391 . S
C286 C285 1.387 1_565 S
C286 C287 1.369 . S
C286 H295 0.929 . S
C287 N284 1.346 . S
C287 C286 1.369 . S
C287 H290 0.928 . S
C288 N284 1.345 1_545 S
C288 C289 1.371 . S
C288 H291 0.931 . S
C289 C285 1.391 . S
C289 C288 1.371 . S
C289 H296 0.930 . S
H290 C287 0.928 . S
H291 C288 0.931 . S
H292 C268 0.930 . S
H293 C265 0.930 . S
H294 C274 0.930 . S
H295 C286 0.929 . S
H296 C289 0.930 . S
C297 C298 1.351 . S
C297 N300 1.368 . S
C297 H302 0.931 . S
C298 C297 1.351 . S
C298 N299 1.373 . S
C298 H326 0.930 . S
N299 C298 1.373 . S
N299 C301 1.340 . S
N300 C297 1.368 . S
N300 C301 1.321 . S
N300 Co303 2.135 . S
C301 N299 1.340 . S
C301 N300 1.321 . S
C301 H325 0.930 . S
H302 C297 0.931 . S
Co303 N300 2.135 . S
Co303 N306 2.121 . S
Co303 O311 2.055 . S
Co303 O314 2.039 . S
Co303 N317 2.140 . S
C304 O305 1.227 . S
C304 O314 1.265 . S
O305 C304 1.227 . S
N306 Co303 2.121 . S
N306 C308 1.375 . S
N306 C309 1.313 . S
C307 C308 1.338 . S
C307 N310 1.377 . S
C307 H327 0.930 . S
C308 N306 1.375 . S
C308 C307 1.338 . S
C308 H312 0.931 . S
C309 N306 1.313 . S
C309 N310 1.344 . S
C309 H313 0.930 . S
N310 C307 1.377 . S
N310 C309 1.344 . S
O311 Co303 2.055 . S
O311 C315 1.253 . S
H312 C308 0.931 . S
H313 C309 0.930 . S
O314 Co303 2.039 . S
O314 C304 1.265 . S
C315 O311 1.253 . S
C315 O316 1.227 . S
O316 C315 1.227 . S
N317 Co303 2.140 . S
N317 C320 1.346 . S
N317 C321 1.345 . S
C318 C319 1.387 . S
C318 C322 1.391 . S
C319 C318 1.387 . S
C319 C320 1.369 . S
C319 H328 0.929 . S
C320 N317 1.346 . S
C320 C319 1.369 . S
C320 H323 0.928 . S
C321 N317 1.345 . S
C321 C322 1.371 . S
C321 H324 0.931 . S
C322 C318 1.391 . S
C322 C321 1.371 . S
C322 H329 0.930 . S
H323 C320 0.928 . S
H324 C321 0.931 . S
H325 C301 0.930 . S
H326 C298 0.930 . S
H327 C307 0.930 . S
H328 C319 0.929 . S
H329 C322 0.930 . S
C330 C331 1.351 . S
C330 N333 1.368 . S
C330 H335 0.931 . S
C331 C330 1.351 . S
C331 N332 1.373 . S
C331 H359 0.930 . S
N332 C331 1.373 . S
N332 C334 1.340 . S
N333 C330 1.368 . S
N333 C334 1.321 . S
N333 Co336 2.135 . S
C334 N332 1.340 . S
C334 N333 1.321 . S
C334 H358 0.930 . S
H335 C330 0.931 . S
Co336 N333 2.135 . S
Co336 N339 2.121 . S
Co336 O344 2.055 . S
Co336 O347 2.039 . S
Co336 N350 2.140 . S
C337 O338 1.227 . S
C337 O347 1.265 . S
O338 C337 1.227 . S
N339 Co336 2.121 . S
N339 C341 1.375 . S
N339 C342 1.313 . S
C340 C341 1.338 . S
C340 N343 1.377 . S
C340 H360 0.930 . S
C341 N339 1.375 . S
C341 C340 1.338 . S
C341 H345 0.931 . S
C342 N339 1.313 . S
C342 N343 1.344 . S
C342 H346 0.930 . S
N343 C340 1.377 . S
N343 C342 1.344 . S
O344 Co336 2.055 . S
O344 C348 1.253 . S
H345 C341 0.931 . S
H346 C342 0.930 . S
O347 Co336 2.039 . S
O347 C337 1.265 . S
C348 O344 1.253 . S
C348 O349 1.227 . S
O349 C348 1.227 . S
N350 Co336 2.140 . S
N350 C353 1.346 . S
N350 C354 1.345 . S
C351 C352 1.387 . S
C351 C355 1.391 . S
C352 C351 1.387 . S
C352 C353 1.369 . S
C352 H361 0.929 . S
C353 N350 1.346 . S
C353 C352 1.369 . S
C353 H356 0.928 . S
C354 N350 1.345 . S
C354 C355 1.371 . S
C354 H357 0.931 . S
C355 C351 1.391 . S
C355 C354 1.371 . S
C355 H362 0.930 . S
H356 C353 0.928 . S
H357 C354 0.931 . S
H358 C334 0.930 . S
H359 C331 0.930 . S
H360 C340 0.930 . S
H361 C352 0.929 . S
H362 C355 0.930 . S
C363 C364 1.351 . S
C363 N366 1.368 . S
C363 H368 0.931 . S
C364 C363 1.351 . S
C364 N365 1.373 . S
C364 H392 0.930 . S
N365 C364 1.373 . S
N365 C367 1.340 . S
N366 C363 1.368 . S
N366 C367 1.321 . S
N366 Co369 2.135 . S
C367 N365 1.340 . S
C367 N366 1.321 . S
C367 H391 0.930 . S
H368 C363 0.931 . S
Co369 N366 2.135 . S
Co369 N372 2.121 1_655 S
Co369 O377 2.055 . S
Co369 O380 2.039 . S
Co369 N383 2.140 . S
C370 O371 1.227 . S
C370 O380 1.265 . S
O371 C370 1.227 . S
N372 Co369 2.121 1_455 S
N372 C374 1.375 . S
N372 C375 1.313 . S
C373 C374 1.338 . S
C373 N376 1.377 . S
C373 H393 0.930 . S
C374 N372 1.375 . S
C374 C373 1.338 . S
C374 H378 0.931 . S
C375 N372 1.313 . S
C375 N376 1.344 . S
C375 H379 0.930 . S
N376 C373 1.377 . S
N376 C375 1.344 . S
O377 Co369 2.055 . S
O377 C381 1.253 . S
H378 C374 0.931 . S
H379 C375 0.930 . S
O380 Co369 2.039 . S
O380 C370 1.265 . S
C381 O377 1.253 . S
C381 O382 1.227 . S
O382 C381 1.227 . S
N383 Co369 2.140 . S
N383 C386 1.346 . S
N383 C387 1.345 1_655 S
C384 C385 1.387 1_455 S
C384 C388 1.391 . S
C385 C384 1.387 1_655 S
C385 C386 1.369 . S
C385 H394 0.929 . S
C386 N383 1.346 . S
C386 C385 1.369 . S
C386 H389 0.928 . S
C387 N383 1.345 1_455 S
C387 C388 1.371 . S
C387 H390 0.931 . S
C388 C384 1.391 . S
C388 C387 1.371 . S
C388 H395 0.930 . S
H389 C386 0.928 . S
H390 C387 0.931 . S
H391 C367 0.930 . S
H392 C364 0.930 . S
H393 C373 0.930 . S
H394 C385 0.929 . S
H395 C388 0.930 . S
C396 C397 1.351 . S
C396 N399 1.368 . S
C396 H401 0.931 . S
C397 C396 1.351 . S
C397 N398 1.373 . S
C397 H425 0.930 . S
N398 C397 1.373 . S
N398 C400 1.340 . S
N399 C396 1.368 . S
N399 C400 1.321 . S
N399 Co402 2.135 . S
C400 N398 1.340 . S
C400 N399 1.321 . S
C400 H424 0.930 . S
H401 C396 0.931 . S
Co402 N399 2.135 . S
Co402 N405 2.121 1_545 S
Co402 O410 2.055 . S
Co402 O413 2.039 . S
Co402 N416 2.140 . S
C403 O404 1.227 . S
C403 O413 1.265 . S
O404 C403 1.227 . S
N405 Co402 2.121 1_565 S
N405 C407 1.375 . S
N405 C408 1.313 . S
C406 C407 1.338 . S
C406 N409 1.377 . S
C406 H426 0.930 . S
C407 N405 1.375 . S
C407 C406 1.338 . S
C407 H411 0.931 . S
C408 N405 1.313 . S
C408 N409 1.344 . S
C408 H412 0.930 . S
N409 C406 1.377 . S
N409 C408 1.344 . S
O410 Co402 2.055 . S
O410 C414 1.253 . S
H411 C407 0.931 . S
H412 C408 0.930 . S
O413 Co402 2.039 . S
O413 C403 1.265 . S
C414 O410 1.253 . S
C414 O415 1.227 . S
O415 C414 1.227 . S
N416 Co402 2.140 . S
N416 C419 1.346 . S
N416 C420 1.345 1_545 S
C417 C418 1.387 1_565 S
C417 C421 1.391 . S
C418 C417 1.387 1_545 S
C418 C419 1.369 . S
C418 H427 0.929 . S
C419 N416 1.346 . S
C419 C418 1.369 . S
C419 H422 0.928 . S
C420 N416 1.345 1_565 S
C420 C421 1.371 . S
C420 H423 0.931 . S
C421 C417 1.391 . S
C421 C420 1.371 . S
C421 H428 0.930 . S
H422 C419 0.928 . S
H423 C420 0.931 . S
H424 C400 0.930 . S
H425 C397 0.930 . S
H426 C406 0.930 . S
H427 C418 0.929 . S
H428 C421 0.930 . S
C429 C430 1.351 . S
C429 N432 1.368 . S
C429 H434 0.931 . S
C430 C429 1.351 . S
C430 N431 1.373 . S
C430 H458 0.930 . S
N431 C430 1.373 . S
N431 C433 1.340 . S
N432 C429 1.368 . S
N432 C433 1.321 . S
N432 Co435 2.135 . S
C433 N431 1.340 . S
C433 N432 1.321 . S
C433 H457 0.930 . S
H434 C429 0.931 . S
Co435 N432 2.135 . S
Co435 N438 2.121 . S
Co435 O443 2.055 . S
Co435 O446 2.039 . S
Co435 N449 2.140 . S
C436 O437 1.227 . S
C436 O446 1.265 . S
O437 C436 1.227 . S
N438 Co435 2.121 . S
N438 C440 1.375 . S
N438 C441 1.313 . S
C439 C440 1.338 . S
C439 N442 1.377 . S
C439 H459 0.930 . S
C440 N438 1.375 . S
C440 C439 1.338 . S
C440 H444 0.931 . S
C441 N438 1.313 . S
C441 N442 1.344 . S
C441 H445 0.930 . S
N442 C439 1.377 . S
N442 C441 1.344 . S
O443 Co435 2.055 . S
O443 C447 1.253 . S
H444 C440 0.931 . S
H445 C441 0.930 . S
O446 Co435 2.039 . S
O446 C436 1.265 . S
C447 O443 1.253 . S
C447 O448 1.227 . S
O448 C447 1.227 . S
N449 Co435 2.140 . S
N449 C452 1.346 . S
N449 C453 1.345 . S
C450 C451 1.387 . S
C450 C454 1.391 . S
C451 C450 1.387 . S
C451 C452 1.369 . S
C451 H460 0.929 . S
C452 N449 1.346 . S
C452 C451 1.369 . S
C452 H455 0.928 . S
C453 N449 1.345 . S
C453 C454 1.371 . S
C453 H456 0.931 . S
C454 C450 1.391 . S
C454 C453 1.371 . S
C454 H461 0.930 . S
H455 C452 0.928 . S
H456 C453 0.931 . S
H457 C433 0.930 . S
H458 C430 0.930 . S
H459 C439 0.930 . S
H460 C451 0.929 . S
H461 C454 0.930 . S
C462 C463 1.351 . S
C462 N465 1.368 . S
C462 H467 0.931 . S
C463 C462 1.351 . S
C463 N464 1.373 . S
C463 H491 0.930 . S
N464 C463 1.373 . S
N464 C466 1.340 . S
N465 C462 1.368 . S
N465 C466 1.321 . S
N465 Co468 2.135 . S
C466 N464 1.340 . S
C466 N465 1.321 . S
C466 H490 0.930 . S
H467 C462 0.931 . S
Co468 N465 2.135 . S
Co468 N471 2.121 . S
Co468 O476 2.055 . S
Co468 O479 2.039 . S
Co468 N482 2.140 . S
C469 O470 1.227 . S
C469 O479 1.265 . S
O470 C469 1.227 . S
N471 Co468 2.121 . S
N471 C473 1.375 . S
N471 C474 1.313 . S
C472 C473 1.338 . S
C472 N475 1.377 . S
C472 H492 0.930 . S
C473 N471 1.375 . S
C473 C472 1.338 . S
C473 H477 0.931 . S
C474 N471 1.313 . S
C474 N475 1.344 . S
C474 H478 0.930 . S
N475 C472 1.377 . S
N475 C474 1.344 . S
O476 Co468 2.055 . S
O476 C480 1.253 . S
H477 C473 0.931 . S
H478 C474 0.930 . S
O479 Co468 2.039 . S
O479 C469 1.265 . S
C480 O476 1.253 . S
C480 O481 1.227 . S
O481 C480 1.227 . S
N482 Co468 2.140 . S
N482 C485 1.346 . S
N482 C486 1.345 . S
C483 C484 1.387 . S
C483 C487 1.391 . S
C484 C483 1.387 . S
C484 C485 1.369 . S
C484 H493 0.929 . S
C485 N482 1.346 . S
C485 C484 1.369 . S
C485 H488 0.928 . S
C486 N482 1.345 . S
C486 C487 1.371 . S
C486 H489 0.931 . S
C487 C483 1.391 . S
C487 C486 1.371 . S
C487 H494 0.930 . S
H488 C485 0.928 . S
H489 C486 0.931 . S
H490 C466 0.930 . S
H491 C463 0.930 . S
H492 C472 0.930 . S
H493 C484 0.929 . S
H494 C487 0.930 . S
C495 C496 1.351 . S
C495 N498 1.368 . S
C495 H500 0.931 . S
C496 C495 1.351 . S
C496 N497 1.373 . S
C496 H524 0.930 . S
N497 C496 1.373 . S
N497 C499 1.340 . S
N498 C495 1.368 . S
N498 C499 1.321 . S
N498 Co501 2.135 . S
C499 N497 1.340 . S
C499 N498 1.321 . S
C499 H523 0.930 . S
H500 C495 0.931 . S
Co501 N498 2.135 . S
Co501 N504 2.121 1_455 S
Co501 O509 2.055 . S
Co501 O512 2.039 . S
Co501 N515 2.140 . S
C502 O503 1.227 . S
C502 O512 1.265 . S
O503 C502 1.227 . S
N504 Co501 2.121 1_655 S
N504 C506 1.375 . S
N504 C507 1.313 . S
C505 C506 1.338 . S
C505 N508 1.377 . S
C505 H525 0.930 . S
C506 N504 1.375 . S
C506 C505 1.338 . S
C506 H510 0.931 . S
C507 N504 1.313 . S
C507 N508 1.344 . S
C507 H511 0.930 . S
N508 C505 1.377 . S
N508 C507 1.344 . S
O509 Co501 2.055 . S
O509 C513 1.253 . S
H510 C506 0.931 . S
H511 C507 0.930 . S
O512 Co501 2.039 . S
O512 C502 1.265 . S
C513 O509 1.253 . S
C513 O514 1.227 . S
O514 C513 1.227 . S
N515 Co501 2.140 . S
N515 C518 1.346 . S
N515 C519 1.345 1_455 S
C516 C517 1.387 1_655 S
C516 C520 1.391 . S
C517 C516 1.387 1_455 S
C517 C518 1.369 . S
C517 H526 0.929 . S
C518 N515 1.346 . S
C518 C517 1.369 . S
C518 H521 0.928 . S
C519 N515 1.345 1_655 S
C519 C520 1.371 . S
C519 H522 0.931 . S
C520 C516 1.391 . S
C520 C519 1.371 . S
C520 H527 0.930 . S
H521 C518 0.928 . S
H522 C519 0.931 . S
H523 C499 0.930 . S
H524 C496 0.930 . S
H525 C505 0.930 . S
H526 C517 0.929 . S
H527 C520 0.930 . S
C528 C529 1.391 . S
C528 C530 1.394 . S
C528 H544 0.931 . S
C529 C528 1.391 . S
C529 C533 1.376 . S
C530 C528 1.394 . S
C530 C531 1.369 . S
C530 C534 1.531 . S
C531 C530 1.369 . S
C531 C532 1.410 . S
C531 C539 1.503 . S
C532 C531 1.410 . S
C532 C533 1.392 . S
C532 C535 1.511 . S
C533 C529 1.376 . S
C533 C532 1.392 . S
C533 H545 0.929 . S
C534 C530 1.531 . S
C534 H546 0.960 . S
C534 H547 0.962 . S
C534 H548 0.960 . S
C535 C532 1.511 . S
C535 H549 0.961 . S
C535 H550 0.961 . S
C535 H551 0.961 . S
C536 C537 1.370 . S
C536 C538 1.363 . S
C536 H552 0.931 . S
C537 C536 1.370 . S
C537 C541 1.408 . S
C538 C536 1.363 . S
C538 C539 1.370 . S
C538 C542 1.524 . S
C539 C531 1.503 . S
C539 C538 1.370 . S
C539 C540 1.403 . S
C540 C539 1.403 . S
C540 C541 1.404 . S
C540 C543 1.539 . S
C541 C537 1.408 . S
C541 C540 1.404 . S
C541 H553 0.930 . S
C542 C538 1.524 . S
C542 H554 0.956 . S
C542 H555 0.961 . S
C542 H556 0.961 . S
C543 C540 1.539 . S
C543 H557 0.958 . S
C543 H558 0.961 . S
C543 H559 0.960 . S
H544 C528 0.931 . S
H545 C533 0.929 . S
H546 C534 0.960 . S
H547 C534 0.962 . S
H548 C534 0.960 . S
H549 C535 0.961 . S
H550 C535 0.961 . S
H551 C535 0.961 . S
H552 C536 0.931 . S
H553 C541 0.930 . S
H554 C542 0.956 . S
H555 C542 0.961 . S
H556 C542 0.961 . S
H557 C543 0.958 . S
H558 C543 0.961 . S
H559 C543 0.960 . S
C560 C561 1.391 . S
C560 C562 1.394 . S
C560 H576 0.931 . S
C561 C560 1.391 . S
C561 C565 1.376 . S
C562 C560 1.394 . S
C562 C563 1.369 . S
C562 C566 1.531 . S
C563 C562 1.369 . S
C563 C564 1.410 . S
C563 C571 1.503 . S
C564 C563 1.410 . S
C564 C565 1.392 . S
C564 C567 1.511 . S
C565 C561 1.376 . S
C565 C564 1.392 . S
C565 H577 0.929 . S
C566 C562 1.531 . S
C566 H578 0.960 . S
C566 H579 0.962 . S
C566 H580 0.960 . S
C567 C564 1.511 . S
C567 H581 0.961 . S
C567 H582 0.961 . S
C567 H583 0.961 . S
C568 C569 1.370 . S
C568 C570 1.363 . S
C568 H584 0.931 . S
C569 C568 1.370 . S
C569 C573 1.408 . S
C570 C568 1.363 . S
C570 C571 1.370 . S
C570 C574 1.524 . S
C571 C563 1.503 . S
C571 C570 1.370 . S
C571 C572 1.403 . S
C572 C571 1.403 . S
C572 C573 1.404 . S
C572 C575 1.539 . S
C573 C569 1.408 . S
C573 C572 1.404 . S
C573 H585 0.930 . S
C574 C570 1.524 . S
C574 H586 0.956 . S
C574 H587 0.961 . S
C574 H588 0.961 . S
C575 C572 1.539 . S
C575 H589 0.958 . S
C575 H590 0.961 . S
C575 H591 0.960 . S
H576 C560 0.931 . S
H577 C565 0.929 . S
H578 C566 0.960 . S
H579 C566 0.962 . S
H580 C566 0.960 . S
H581 C567 0.961 . S
H582 C567 0.961 . S
H583 C567 0.961 . S
H584 C568 0.931 . S
H585 C573 0.930 . S
H586 C574 0.956 . S
H587 C574 0.961 . S
H588 C574 0.961 . S
H589 C575 0.958 . S
H590 C575 0.961 . S
H591 C575 0.960 . S
C592 C593 1.391 1_455 S
C592 C594 1.394 1_455 S
C592 H608 0.931 . S
C593 C592 1.391 1_655 S
C593 C597 1.376 . S
C594 C592 1.394 1_655 S
C594 C595 1.369 . S
C594 C598 1.531 1_655 S
C595 C594 1.369 . S
C595 C596 1.410 . S
C595 C603 1.503 . S
C596 C595 1.410 . S
C596 C597 1.392 . S
C596 C599 1.511 . S
C597 C593 1.376 . S
C597 C596 1.392 . S
C597 H609 0.929 . S
C598 C594 1.531 1_455 S
C598 H610 0.960 . S
C598 H611 0.962 . S
C598 H612 0.960 . S
C599 C596 1.511 . S
C599 H613 0.961 . S
C599 H614 0.961 . S
C599 H615 0.961 . S
C600 C601 1.370 . S
C600 C602 1.363 . S
C600 H616 0.931 . S
C601 C600 1.370 . S
C601 C605 1.408 . S
C602 C600 1.363 . S
C602 C603 1.370 . S
C602 C606 1.524 . S
C603 C595 1.503 . S
C603 C602 1.370 . S
C603 C604 1.403 . S
C604 C603 1.403 . S
C604 C605 1.404 . S
C604 C607 1.539 . S
C605 C601 1.408 . S
C605 C604 1.404 . S
C605 H617 0.930 . S
C606 C602 1.524 . S
C606 H618 0.956 . S
C606 H619 0.961 . S
C606 H620 0.961 . S
C607 C604 1.539 . S
C607 H621 0.958 . S
C607 H622 0.961 . S
C607 H623 0.960 . S
H608 C592 0.931 . S
H609 C597 0.929 . S
H610 C598 0.960 . S
H611 C598 0.962 . S
H612 C598 0.960 . S
H613 C599 0.961 . S
H614 C599 0.961 . S
H615 C599 0.961 . S
H616 C600 0.931 . S
H617 C605 0.930 . S
H618 C606 0.956 . S
H619 C606 0.961 . S
H620 C606 0.961 . S
H621 C607 0.958 . S
H622 C607 0.961 . S
H623 C607 0.960 . S
C624 C625 1.391 . S
C624 C626 1.394 . S
C624 H640 0.931 . S
C625 C624 1.391 . S
C625 C629 1.376 . S
C626 C624 1.394 . S
C626 C627 1.369 . S
C626 C630 1.531 1_565 S
C627 C626 1.369 . S
C627 C628 1.410 . S
C627 C635 1.503 . S
C628 C627 1.410 . S
C628 C629 1.392 . S
C628 C631 1.511 . S
C629 C625 1.376 . S
C629 C628 1.392 . S
C629 H641 0.929 . S
C630 C626 1.531 1_545 S
C630 H642 0.960 . S
C630 H643 0.962 . S
C630 H644 0.960 . S
C631 C628 1.511 . S
C631 H645 0.961 . S
C631 H646 0.961 . S
C631 H647 0.961 . S
C632 C633 1.370 . S
C632 C634 1.363 . S
C632 H648 0.931 . S
C633 C632 1.370 . S
C633 C637 1.408 . S
C634 C632 1.363 . S
C634 C635 1.370 . S
C634 C638 1.524 . S
C635 C627 1.503 . S
C635 C634 1.370 . S
C635 C636 1.403 . S
C636 C635 1.403 . S
C636 C637 1.404 . S
C636 C639 1.539 . S
C637 C633 1.408 . S
C637 C636 1.404 . S
C637 H649 0.930 1_565 S
C638 C634 1.524 . S
C638 H650 0.956 . S
C638 H651 0.961 . S
C638 H652 0.961 . S
C639 C636 1.539 . S
C639 H653 0.958 1_565 S
C639 H654 0.961 . S
C639 H655 0.960 . S
H640 C624 0.931 . S
H641 C629 0.929 . S
H642 C630 0.960 . S
H643 C630 0.962 . S
H644 C630 0.960 . S
H645 C631 0.961 . S
H646 C631 0.961 . S
H647 C631 0.961 . S
H648 C632 0.931 . S
H649 C637 0.930 1_545 S
H650 C638 0.956 . S
H651 C638 0.961 . S
H652 C638 0.961 . S
H653 C639 0.958 1_545 S
H654 C639 0.961 . S
H655 C639 0.960 . S
C656 C657 1.391 . S
C656 C658 1.394 . S
C656 H672 0.931 1_455 S
C657 C656 1.391 . S
C657 C661 1.376 . S
C658 C656 1.394 . S
C658 C659 1.369 . S
C658 C662 1.531 . S
C659 C658 1.369 . S
C659 C660 1.410 . S
C659 C667 1.503 . S
C660 C659 1.410 . S
C660 C661 1.392 . S
C660 C663 1.511 . S
C661 C657 1.376 . S
C661 C660 1.392 . S
C661 H673 0.929 . S
C662 C658 1.531 . S
C662 H674 0.960 . S
C662 H675 0.962 . S
C662 H676 0.960 1_455 S
C663 C660 1.511 . S
C663 H677 0.961 . S
C663 H678 0.961 . S
C663 H679 0.961 . S
C664 C665 1.370 . S
C664 C666 1.363 . S
C664 H680 0.931 . S
C665 C664 1.370 . S
C665 C669 1.408 . S
C666 C664 1.363 . S
C666 C667 1.370 . S
C666 C670 1.524 . S
C667 C659 1.503 . S
C667 C666 1.370 . S
C667 C668 1.403 . S
C668 C667 1.403 . S
C668 C669 1.404 . S
C668 C671 1.533 1_455 S
C669 C665 1.408 . S
C669 C668 1.404 . S
C669 H681 0.930 . S
C670 C666 1.524 . S
C670 H682 0.956 . S
C670 H683 0.961 . S
C670 H684 0.961 . S
C671 C668 1.533 1_655 S
C671 H685 0.964 . S
C671 H686 0.962 . S
C671 H687 0.960 . S
H672 C656 0.931 1_655 S
H673 C661 0.929 . S
H674 C662 0.960 . S
H675 C662 0.962 . S
H676 C662 0.960 1_655 S
H677 C663 0.961 . S
H678 C663 0.961 . S
H679 C663 0.961 . S
H680 C664 0.931 . S
H681 C669 0.930 . S
H682 C670 0.956 . S
H683 C670 0.961 . S
H684 C670 0.961 . S
H685 C671 0.964 . S
H686 C671 0.962 . S
H687 C671 0.960 . S
C688 C689 1.391 . S
C688 C690 1.394 . S
C688 H704 0.931 . S
C689 C688 1.391 . S
C689 C693 1.376 . S
C690 C688 1.394 . S
C690 C691 1.369 . S
C690 C694 1.531 . S
C691 C690 1.369 . S
C691 C692 1.410 . S
C691 C699 1.503 . S
C692 C691 1.410 . S
C692 C693 1.392 . S
C692 C695 1.511 . S
C693 C689 1.376 . S
C693 C692 1.392 . S
C693 H705 0.929 . S
C694 C690 1.531 . S
C694 H706 0.960 . S
C694 H707 0.962 . S
C694 H708 0.960 . S
C695 C692 1.511 . S
C695 H709 0.961 . S
C695 H710 0.961 . S
C695 H711 0.961 . S
C696 C697 1.370 . S
C696 C698 1.363 . S
C696 H712 0.931 . S
C697 C696 1.370 . S
C697 C701 1.408 . S
C698 C696 1.363 . S
C698 C699 1.370 . S
C698 C702 1.524 . S
C699 C691 1.503 . S
C699 C698 1.370 . S
C699 C700 1.403 . S
C700 C699 1.403 . S
C700 C701 1.404 . S
C700 C703 1.539 . S
C701 C697 1.408 . S
C701 C700 1.404 . S
C701 H713 0.930 . S
C702 C698 1.524 . S
C702 H714 0.956 1_545 S
C702 H715 0.961 1_545 S
C702 H716 0.961 1_545 S
C703 C700 1.539 . S
C703 H717 0.958 . S
C703 H718 0.961 . S
C703 H719 0.960 . S
H704 C688 0.931 . S
H705 C693 0.929 . S
H706 C694 0.960 . S
H707 C694 0.962 . S
H708 C694 0.960 . S
H709 C695 0.961 . S
H710 C695 0.961 . S
H711 C695 0.961 . S
H712 C696 0.931 . S
H713 C701 0.930 . S
H714 C702 0.956 1_565 S
H715 C702 0.961 1_565 S
H716 C702 0.961 1_565 S
H717 C703 0.958 . S
H718 C703 0.961 . S
H719 C703 0.960 . S
C720 C721 1.391 . S
C720 C722 1.394 . S
C720 H736 0.931 . S
C721 C720 1.391 . S
C721 C725 1.376 . S
C722 C720 1.394 . S
C722 C723 1.369 . S
C722 C726 1.531 . S
C723 C722 1.369 . S
C723 C724 1.410 . S
C723 C731 1.503 . S
C724 C723 1.410 . S
C724 C725 1.392 . S
C724 C727 1.511 . S
C725 C721 1.376 . S
C725 C724 1.392 . S
C725 H737 0.929 . S
C726 C722 1.531 . S
C726 H738 0.960 . S
C726 H739 0.962 . S
C726 H740 0.960 . S
C727 C724 1.511 . S
C727 H741 0.961 . S
C727 H742 0.961 . S
C727 H743 0.961 . S
C728 C729 1.370 . S
C728 C730 1.363 . S
C728 H744 0.931 . S
C729 C728 1.370 . S
C729 C733 1.408 . S
C730 C728 1.363 . S
C730 C731 1.370 . S
C730 C734 1.524 . S
C731 C723 1.503 . S
C731 C730 1.370 . S
C731 C732 1.403 . S
C732 C731 1.403 . S
C732 C733 1.404 . S
C732 C735 1.539 . S
C733 C729 1.408 . S
C733 C732 1.404 . S
C733 H745 0.930 . S
C734 C730 1.524 . S
C734 H746 0.956 . S
C734 H747 0.961 . S
C734 H748 0.961 . S
C735 C732 1.539 . S
C735 H749 0.958 . S
C735 H750 0.961 . S
C735 H751 0.960 . S
H736 C720 0.931 . S
H737 C725 0.929 . S
H738 C726 0.960 . S
H739 C726 0.962 . S
H740 C726 0.960 . S
H741 C727 0.961 . S
H742 C727 0.961 . S
H743 C727 0.961 . S
H744 C728 0.931 . S
H745 C733 0.930 . S
H746 C734 0.956 . S
H747 C734 0.961 . S
H748 C734 0.961 . S
H749 C735 0.958 . S
H750 C735 0.961 . S
H751 C735 0.960 . S
C752 C753 1.391 . S
C752 C754 1.394 . S
C752 H768 0.931 . S
C753 C752 1.391 . S
C753 C757 1.376 . S
C754 C752 1.394 . S
C754 C755 1.369 . S
C754 C758 1.531 . S
C755 C754 1.369 . S
C755 C756 1.410 . S
C755 C763 1.503 . S
C756 C755 1.410 . S
C756 C757 1.392 . S
C756 C759 1.511 . S
C757 C753 1.376 . S
C757 C756 1.392 . S
C757 H769 0.929 . S
C758 C754 1.531 . S
C758 H770 0.960 . S
C758 H771 0.962 . S
C758 H772 0.960 . S
C759 C756 1.511 . S
C759 H773 0.961 . S
C759 H774 0.961 . S
C759 H775 0.961 . S
C760 C761 1.370 . S
C760 C762 1.363 . S
C760 H776 0.931 . S
C761 C760 1.370 . S
C761 C765 1.408 . S
C762 C760 1.363 . S
C762 C763 1.370 . S
C762 C766 1.524 . S
C763 C755 1.503 . S
C763 C762 1.370 . S
C763 C764 1.403 . S
C764 C763 1.403 . S
C764 C765 1.404 . S
C764 C767 1.539 . S
C765 C761 1.408 . S
C765 C764 1.404 . S
C765 H777 0.930 . S
C766 C762 1.524 . S
C766 H778 0.956 . S
C766 H779 0.961 . S
C766 H780 0.961 . S
C767 C764 1.539 . S
C767 H781 0.958 . S
C767 H782 0.961 . S
C767 H783 0.960 . S
H768 C752 0.931 . S
H769 C757 0.929 . S
H770 C758 0.960 . S
H771 C758 0.962 . S
H772 C758 0.960 . S
H773 C759 0.961 . S
H774 C759 0.961 . S
H775 C759 0.961 . S
H776 C760 0.931 . S
H777 C765 0.930 . S
H778 C766 0.956 . S
H779 C766 0.961 . S
H780 C766 0.961 . S
H781 C767 0.958 . S
H782 C767 0.961 . S
H783 C767 0.960 . S
C784 C785 1.391 . S
C784 C786 1.394 . S
C784 H800 0.931 . S
C785 C784 1.391 . S
C785 C789 1.376 . S
C786 C784 1.394 . S
C786 C787 1.369 . S
C786 C790 1.531 . S
C787 C786 1.369 . S
C787 C788 1.410 . S
C787 C795 1.503 . S
C788 C787 1.410 . S
C788 C789 1.392 . S
C788 C791 1.511 . S
C789 C785 1.376 . S
C789 C788 1.392 . S
C789 H801 0.929 . S
C790 C786 1.531 . S
C790 H802 0.960 . S
C790 H803 0.962 . S
C790 H804 0.960 . S
C791 C788 1.511 . S
C791 H805 0.961 . S
C791 H806 0.961 . S
C791 H807 0.961 . S
C792 C793 1.370 . S
C792 C794 1.363 . S
C792 H808 0.931 . S
C793 C792 1.370 . S
C793 C797 1.408 . S
C794 C792 1.363 . S
C794 C795 1.370 . S
C794 C798 1.524 . S
C795 C787 1.503 . S
C795 C794 1.370 . S
C795 C796 1.403 . S
C796 C795 1.403 . S
C796 C797 1.404 . S
C796 C799 1.539 . S
C797 C793 1.408 . S
C797 C796 1.404 . S
C797 H809 0.930 . S
C798 C794 1.524 . S
C798 H810 0.956 . S
C798 H811 0.961 . S
C798 H812 0.961 . S
C799 C796 1.539 . S
C799 H813 0.958 . S
C799 H814 0.961 . S
C799 H815 0.960 . S
H800 C784 0.931 . S
H801 C789 0.929 . S
H802 C790 0.960 . S
H803 C790 0.962 . S
H804 C790 0.960 . S
H805 C791 0.961 . S
H806 C791 0.961 . S
H807 C791 0.961 . S
H808 C792 0.931 . S
H809 C797 0.930 . S
H810 C798 0.956 . S
H811 C798 0.961 . S
H812 C798 0.961 . S
H813 C799 0.958 . S
H814 C799 0.961 . S
H815 C799 0.960 . S
C816 C817 1.391 . S
C816 C818 1.394 . S
C816 H832 0.931 . S
C817 C816 1.391 . S
C817 C821 1.376 . S
C818 C816 1.394 . S
C818 C819 1.369 . S
C818 C822 1.531 . S
C819 C818 1.369 . S
C819 C820 1.410 . S
C819 C827 1.503 . S
C820 C819 1.410 . S
C820 C821 1.392 . S
C820 C823 1.511 . S
C821 C817 1.376 . S
C821 C820 1.392 . S
C821 H833 0.929 . S
C822 C818 1.531 . S
C822 H834 0.960 . S
C822 H835 0.962 . S
C822 H836 0.960 . S
C823 C820 1.511 . S
C823 H837 0.961 . S
C823 H838 0.961 . S
C823 H839 0.961 . S
C824 C825 1.370 . S
C824 C826 1.363 . S
C824 H840 0.931 . S
C825 C824 1.370 . S
C825 C829 1.408 . S
C826 C824 1.363 . S
C826 C827 1.370 . S
C826 C830 1.524 . S
C827 C819 1.503 . S
C827 C826 1.370 . S
C827 C828 1.403 . S
C828 C827 1.403 . S
C828 C829 1.404 . S
C828 C831 1.539 . S
C829 C825 1.408 . S
C829 C828 1.404 . S
C829 H841 0.930 . S
C830 C826 1.524 . S
C830 H842 0.956 . S
C830 H843 0.961 . S
C830 H844 0.961 . S
C831 C828 1.539 . S
C831 H845 0.958 . S
C831 H846 0.961 . S
C831 H847 0.960 . S
H832 C816 0.931 . S
H833 C821 0.929 . S
H834 C822 0.960 . S
H835 C822 0.962 . S
H836 C822 0.960 . S
H837 C823 0.961 . S
H838 C823 0.961 . S
H839 C823 0.961 . S
H840 C824 0.931 . S
H841 C829 0.930 . S
H842 C830 0.956 . S
H843 C830 0.961 . S
H844 C830 0.961 . S
H845 C831 0.958 . S
H846 C831 0.961 . S
H847 C831 0.960 . S
C848 C849 1.391 . S
C848 C850 1.394 . S
C848 H864 0.931 . S
C849 C848 1.391 . S
C849 C853 1.376 . S
C850 C848 1.394 . S
C850 C851 1.369 . S
C850 C854 1.531 . S
C851 C850 1.369 . S
C851 C852 1.410 . S
C851 C859 1.503 . S
C852 C851 1.410 . S
C852 C853 1.392 . S
C852 C855 1.511 . S
C853 C849 1.376 . S
C853 C852 1.392 . S
C853 H865 0.929 . S
C854 C850 1.531 . S
C854 H866 0.960 . S
C854 H867 0.962 . S
C854 H868 0.960 . S
C855 C852 1.511 . S
C855 H869 0.961 . S
C855 H870 0.961 . S
C855 H871 0.961 . S
C856 C857 1.370 . S
C856 C858 1.363 . S
C856 H872 0.931 . S
C857 C856 1.370 . S
C857 C861 1.408 . S
C858 C856 1.363 . S
C858 C859 1.370 . S
C858 C862 1.524 . S
C859 C851 1.503 . S
C859 C858 1.370 . S
C859 C860 1.403 . S
C860 C859 1.403 . S
C860 C861 1.404 . S
C860 C863 1.539 1_455 S
C861 C857 1.408 . S
C861 C860 1.404 . S
C861 H873 0.930 . S
C862 C858 1.524 . S
C862 H874 0.956 . S
C862 H875 0.961 . S
C862 H876 0.961 . S
C863 C860 1.539 1_655 S
C863 H877 0.958 . S
C863 H878 0.961 . S
C863 H879 0.960 . S
H864 C848 0.931 . S
H865 C853 0.929 . S
H866 C854 0.960 . S
H867 C854 0.962 . S
H868 C854 0.960 . S
H869 C855 0.961 . S
H870 C855 0.961 . S
H871 C855 0.961 . S
H872 C856 0.931 . S
H873 C861 0.930 . S
H874 C862 0.956 . S
H875 C862 0.961 . S
H876 C862 0.961 . S
H877 C863 0.958 . S
H878 C863 0.961 . S
H879 C863 0.960 . S
C880 C881 1.391 . S
C880 C882 1.394 . S
C880 H896 0.931 . S
C881 C880 1.391 . S
C881 C885 1.376 1_545 S
C882 C880 1.394 . S
C882 C883 1.369 . S
C882 C886 1.531 . S
C883 C882 1.369 . S
C883 C884 1.410 . S
C883 C891 1.503 . S
C884 C883 1.410 . S
C884 C885 1.392 1_545 S
C884 C887 1.511 1_545 S
C885 C881 1.376 1_565 S
C885 C884 1.392 1_565 S
C885 H897 0.929 . S
C886 C882 1.531 . S
C886 H898 0.960 . S
C886 H899 0.962 . S
C886 H900 0.960 . S
C887 C884 1.511 1_565 S
C887 H901 0.961 . S
C887 H902 0.961 . S
C887 H903 0.961 . S
C888 C889 1.370 . S
C888 C890 1.363 . S
C888 H904 0.931 . S
C889 C888 1.370 . S
C889 C893 1.408 . S
C890 C888 1.363 . S
C890 C891 1.370 . S
C890 C894 1.524 . S
C891 C883 1.503 . S
C891 C890 1.370 . S
C891 C892 1.403 . S
C892 C891 1.403 . S
C892 C893 1.404 . S
C892 C895 1.539 . S
C893 C889 1.408 . S
C893 C892 1.404 . S
C893 H905 0.930 . S
C894 C890 1.524 . S
C894 H906 0.956 . S
C894 H907 0.961 . S
C894 H908 0.961 . S
C895 C892 1.539 . S
C895 H909 0.958 . S
C895 H910 0.961 . S
C895 H911 0.960 . S
H896 C880 0.931 . S
H897 C885 0.929 . S
H898 C886 0.960 . S
H899 C886 0.962 . S
H900 C886 0.960 . S
H901 C887 0.961 . S
H902 C887 0.961 . S
H903 C887 0.961 . S
H904 C888 0.931 . S
H905 C893 0.930 . S
H906 C894 0.956 . S
H907 C894 0.961 . S
H908 C894 0.961 . S
H909 C895 0.958 . S
H910 C895 0.961 . S
H911 C895 0.960 . S
C912 C913 1.391 . S
C912 C914 1.394 . S
C912 H928 0.931 . S
C913 C912 1.391 . S
C913 C917 1.376 1_655 S
C914 C912 1.394 . S
C914 C915 1.369 . S
C914 C918 1.531 . S
C915 C914 1.369 . S
C915 C916 1.410 . S
C915 C923 1.503 . S
C916 C915 1.410 . S
C916 C917 1.392 1_655 S
C916 C919 1.511 1_655 S
C917 C913 1.376 1_455 S
C917 C916 1.392 1_455 S
C917 H929 0.929 . S
C918 C914 1.531 . S
C918 H930 0.960 . S
C918 H931 0.962 . S
C918 H932 0.960 . S
C919 C916 1.511 1_455 S
C919 H933 0.961 . S
C919 H934 0.961 . S
C919 H935 0.961 . S
C920 C921 1.370 . S
C920 C922 1.363 . S
C920 H936 0.931 . S
C921 C920 1.370 . S
C921 C925 1.408 . S
C922 C920 1.363 . S
C922 C923 1.370 . S
C922 C926 1.524 . S
C923 C915 1.503 . S
C923 C922 1.370 . S
C923 C924 1.403 . S
C924 C923 1.403 . S
C924 C925 1.404 . S
C924 C927 1.539 . S
C925 C921 1.408 . S
C925 C924 1.404 . S
C925 H937 0.930 . S
C926 C922 1.524 . S
C926 H938 0.956 . S
C926 H939 0.961 . S
C926 H940 0.961 . S
C927 C924 1.539 . S
C927 H941 0.958 . S
C927 H942 0.961 . S
C927 H943 0.960 . S
H928 C912 0.931 . S
H929 C917 0.929 . S
H930 C918 0.960 . S
H931 C918 0.962 . S
H932 C918 0.960 . S
H933 C919 0.961 . S
H934 C919 0.961 . S
H935 C919 0.961 . S
H936 C920 0.931 . S
H937 C925 0.930 . S
H938 C926 0.956 . S
H939 C926 0.961 . S
H940 C926 0.961 . S
H941 C927 0.958 . S
H942 C927 0.961 . S
H943 C927 0.960 . S
C944 C945 1.391 . S
C944 C946 1.394 . S
C944 H960 0.931 . S
C945 C944 1.391 . S
C945 C949 1.376 1_565 S
C946 C944 1.394 . S
C946 C947 1.369 . S
C946 C950 1.531 . S
C947 C946 1.369 . S
C947 C948 1.410 . S
C947 C955 1.503 . S
C948 C947 1.410 . S
C948 C949 1.392 1_565 S
C948 C951 1.511 1_565 S
C949 C945 1.376 1_545 S
C949 C948 1.392 1_545 S
C949 H961 0.929 . S
C950 C946 1.531 . S
C950 H962 0.960 . S
C950 H963 0.962 . S
C950 H964 0.960 . S
C951 C948 1.511 1_545 S
C951 H965 0.961 . S
C951 H966 0.961 1_545 S
C951 H967 0.961 . S
C952 C953 1.370 . S
C952 C954 1.363 . S
C952 H968 0.931 . S
C953 C952 1.370 . S
C953 C957 1.408 . S
C954 C952 1.363 . S
C954 C955 1.370 . S
C954 C958 1.524 . S
C955 C947 1.503 . S
C955 C954 1.370 . S
C955 C956 1.403 . S
C956 C955 1.403 . S
C956 C957 1.404 . S
C956 C959 1.539 . S
C957 C953 1.408 . S
C957 C956 1.404 . S
C957 H969 0.930 . S
C958 C954 1.524 . S
C958 H970 0.956 . S
C958 H971 0.961 . S
C958 H972 0.961 . S
C959 C956 1.539 . S
C959 H973 0.958 . S
C959 H974 0.961 1_565 S
C959 H975 0.960 1_565 S
H960 C944 0.931 . S
H961 C949 0.929 . S
H962 C950 0.960 . S
H963 C950 0.962 . S
H964 C950 0.960 . S
H965 C951 0.961 . S
H966 C951 0.961 1_565 S
H967 C951 0.961 . S
H968 C952 0.931 . S
H969 C957 0.930 . S
H970 C958 0.956 . S
H971 C958 0.961 . S
H972 C958 0.961 . S
H973 C959 0.958 . S
H974 C959 0.961 1_545 S
H975 C959 0.960 1_545 S
C976 C977 1.391 . S
C976 C978 1.394 . S
C976 H992 0.931 . S
C977 C976 1.391 . S
C977 C981 1.376 . S
C978 C976 1.394 . S
C978 C979 1.369 . S
C978 C982 1.531 . S
C979 C978 1.369 . S
C979 C980 1.410 . S
C979 C987 1.503 . S
C980 C979 1.410 . S
C980 C981 1.392 . S
C980 C983 1.511 . S
C981 C977 1.376 . S
C981 C980 1.392 . S
C981 H993 0.929 . S
C982 C978 1.531 . S
C982 H994 0.960 . S
C982 H995 0.962 . S
C982 H996 0.960 . S
C983 C980 1.511 . S
C983 H997 0.961 . S
C983 H998 0.961 . S
C983 H999 0.961 . S
C984 C985 1.370 . S
C984 C986 1.363 . S
C984 H1000 0.931 . S
C985 C984 1.370 . S
C985 C989 1.408 . S
C986 C984 1.363 . S
C986 C987 1.370 . S
C986 C990 1.524 . S
C987 C979 1.503 . S
C987 C986 1.370 . S
C987 C988 1.403 . S
C988 C987 1.403 . S
C988 C989 1.404 . S
C988 C991 1.539 . S
C989 C985 1.408 . S
C989 C988 1.404 . S
C989 H1001 0.930 . S
C990 C986 1.524 . S
C990 H1002 0.956 . S
C990 H1003 0.961 . S
C990 H1004 0.961 . S
C991 C988 1.539 . S
C991 H1005 0.958 . S
C991 H1006 0.961 . S
C991 H1007 0.960 . S
H992 C976 0.931 . S
H993 C981 0.929 . S
H994 C982 0.960 . S
H995 C982 0.962 . S
H996 C982 0.960 . S
H997 C983 0.961 . S
H998 C983 0.961 . S
H999 C983 0.961 . S
H1000 C984 0.931 . S
H1001 C989 0.930 . S
H1002 C990 0.956 . S
H1003 C990 0.961 . S
H1004 C990 0.961 . S
H1005 C991 0.958 . S
H1006 C991 0.961 . S
H1007 C991 0.960 . S
C1008 C1009 1.391 . S
C1008 C1010 1.394 . S
C1008 H1024 0.931 . S
C1009 C1008 1.391 . S
C1009 C1013 1.376 . S
C1010 C1008 1.394 . S
C1010 C1011 1.369 . S
C1010 C1014 1.531 . S
C1011 C1010 1.369 . S
C1011 C1012 1.410 . S
C1011 C1019 1.503 . S
C1012 C1011 1.410 . S
C1012 C1013 1.392 . S
C1012 C1015 1.511 . S
C1013 C1009 1.376 . S
C1013 C1012 1.392 . S
C1013 H1025 0.929 . S
C1014 C1010 1.531 . S
C1014 H1026 0.960 . S
C1014 H1027 0.962 . S
C1014 H1028 0.960 . S
C1015 C1012 1.511 . S
C1015 H1029 0.961 . S
C1015 H1030 0.961 . S
C1015 H1031 0.961 . S
C1016 C1017 1.370 . S
C1016 C1018 1.363 . S
C1016 H1032 0.931 . S
C1017 C1016 1.370 . S
C1017 C1021 1.408 . S
C1018 C1016 1.363 . S
C1018 C1019 1.370 . S
C1018 C1022 1.524 . S
C1019 C1011 1.503 . S
C1019 C1018 1.370 . S
C1019 C1020 1.403 . S
C1020 C1019 1.403 . S
C1020 C1021 1.404 . S
C1020 C1023 1.539 . S
C1021 C1017 1.408 . S
C1021 C1020 1.404 . S
C1021 H1033 0.930 . S
C1022 C1018 1.524 . S
C1022 H1034 0.956 . S
C1022 H1035 0.961 . S
C1022 H1036 0.961 . S
C1023 C1020 1.539 . S
C1023 H1037 0.958 . S
C1023 H1038 0.961 . S
C1023 H1039 0.960 . S
H1024 C1008 0.931 . S
H1025 C1013 0.929 . S
H1026 C1014 0.960 . S
H1027 C1014 0.962 . S
H1028 C1014 0.960 . S
H1029 C1015 0.961 . S
H1030 C1015 0.961 . S
H1031 C1015 0.961 . S
H1032 C1016 0.931 . S
H1033 C1021 0.930 . S
H1034 C1022 0.956 . S
H1035 C1022 0.961 . S
H1036 C1022 0.961 . S
H1037 C1023 0.958 . S
H1038 C1023 0.961 . S
H1039 C1023 0.960 . S
C1040 C1041 1.391 . S
C1040 C1042 1.394 . S
C1040 H1056 0.931 . S
C1041 C1040 1.391 . S
C1041 C1045 1.376 . S
C1042 C1040 1.394 . S
C1042 C1043 1.369 . S
C1042 C1046 1.531 . S
C1043 C1042 1.369 . S
C1043 C1044 1.410 . S
C1043 C1051 1.503 . S
C1044 C1043 1.410 . S
C1044 C1045 1.392 . S
C1044 C1047 1.511 . S
C1045 C1041 1.376 . S
C1045 C1044 1.392 . S
C1045 H1057 0.929 . S
C1046 C1042 1.531 . S
C1046 H1058 0.960 . S
C1046 H1059 0.962 . S
C1046 H1060 0.960 . S
C1047 C1044 1.511 . S
C1047 H1061 0.961 . S
C1047 H1062 0.961 . S
C1047 H1063 0.961 . S
C1048 C1049 1.370 . S
C1048 C1050 1.363 . S
C1048 H1064 0.931 . S
C1049 C1048 1.370 . S
C1049 C1053 1.408 . S
C1050 C1048 1.363 . S
C1050 C1051 1.370 . S
C1050 C1054 1.524 . S
C1051 C1043 1.503 . S
C1051 C1050 1.370 . S
C1051 C1052 1.403 . S
C1052 C1051 1.403 . S
C1052 C1053 1.404 . S
C1052 C1055 1.539 . S
C1053 C1049 1.408 . S
C1053 C1052 1.404 . S
C1053 H1065 0.930 . S
C1054 C1050 1.524 . S
C1054 H1066 0.956 . S
C1054 H1067 0.961 . S
C1054 H1068 0.961 . S
C1055 C1052 1.539 . S
C1055 H1069 0.958 . S
C1055 H1070 0.961 . S
C1055 H1071 0.960 . S
H1056 C1040 0.931 . S
H1057 C1045 0.929 . S
H1058 C1046 0.960 . S
H1059 C1046 0.962 . S
H1060 C1046 0.960 . S
H1061 C1047 0.961 . S
H1062 C1047 0.961 . S
H1063 C1047 0.961 . S
H1064 C1048 0.931 . S
H1065 C1053 0.930 . S
H1066 C1054 0.956 . S
H1067 C1054 0.961 . S
H1068 C1054 0.961 . S
H1069 C1055 0.958 . S
H1070 C1055 0.961 . S
H1071 C1055 0.960 . S
C1072 C1073 1.391 . S
C1072 C1074 1.394 . S
C1072 H1088 0.931 . S
C1073 C1072 1.391 . S
C1073 C1077 1.376 . S
C1074 C1072 1.394 . S
C1074 C1075 1.369 . S
C1074 C1078 1.531 . S
C1075 C1074 1.369 . S
C1075 C1076 1.410 . S
C1075 C1083 1.503 . S
C1076 C1075 1.410 . S
C1076 C1077 1.392 . S
C1076 C1079 1.511 . S
C1077 C1073 1.376 . S
C1077 C1076 1.392 . S
C1077 H1089 0.929 . S
C1078 C1074 1.531 . S
C1078 H1090 0.960 . S
C1078 H1091 0.962 . S
C1078 H1092 0.960 . S
C1079 C1076 1.511 . S
C1079 H1093 0.961 . S
C1079 H1094 0.961 . S
C1079 H1095 0.961 . S
C1080 C1081 1.370 . S
C1080 C1082 1.363 . S
C1080 H1096 0.931 . S
C1081 C1080 1.370 . S
C1081 C1085 1.408 . S
C1082 C1080 1.363 . S
C1082 C1083 1.370 . S
C1082 C1086 1.524 . S
C1083 C1075 1.503 . S
C1083 C1082 1.370 . S
C1083 C1084 1.403 . S
C1084 C1083 1.403 . S
C1084 C1085 1.404 . S
C1084 C1087 1.539 . S
C1085 C1081 1.408 . S
C1085 C1084 1.404 . S
C1085 H1097 0.930 . S
C1086 C1082 1.524 . S
C1086 H1098 0.956 . S
C1086 H1099 0.961 . S
C1086 H1100 0.961 . S
C1087 C1084 1.539 . S
C1087 H1101 0.958 . S
C1087 H1102 0.961 . S
C1087 H1103 0.960 . S
H1088 C1072 0.931 . S
H1089 C1077 0.929 . S
H1090 C1078 0.960 . S
H1091 C1078 0.962 . S
H1092 C1078 0.960 . S
H1093 C1079 0.961 . S
H1094 C1079 0.961 . S
H1095 C1079 0.961 . S
H1096 C1080 0.931 . S
H1097 C1085 0.930 . S
H1098 C1086 0.956 . S
H1099 C1086 0.961 . S
H1100 C1086 0.961 . S
H1101 C1087 0.958 . S
H1102 C1087 0.961 . S
H1103 C1087 0.960 . S
C1104 C1105 1.391 . S
C1104 C1106 1.394 . S
C1104 H1120 0.931 . S
C1105 C1104 1.391 . S
C1105 C1109 1.376 . S
C1106 C1104 1.394 . S
C1106 C1107 1.369 . S
C1106 C1110 1.531 . S
C1107 C1106 1.369 . S
C1107 C1108 1.410 . S
C1107 C1115 1.503 . S
C1108 C1107 1.410 . S
C1108 C1109 1.392 . S
C1108 C1111 1.511 . S
C1109 C1105 1.376 . S
C1109 C1108 1.392 . S
C1109 H1121 0.929 . S
C1110 C1106 1.531 . S
C1110 H1122 0.960 . S
C1110 H1123 0.962 . S
C1110 H1124 0.960 . S
C1111 C1108 1.511 . S
C1111 H1125 0.961 . S
C1111 H1126 0.961 . S
C1111 H1127 0.961 . S
C1112 C1113 1.370 . S
C1112 C1114 1.363 . S
C1112 H1128 0.931 . S
C1113 C1112 1.370 . S
C1113 C1117 1.408 . S
C1114 C1112 1.363 . S
C1114 C1115 1.370 . S
C1114 C1118 1.524 . S
C1115 C1107 1.503 . S
C1115 C1114 1.370 . S
C1115 C1116 1.403 . S
C1116 C1115 1.403 . S
C1116 C1117 1.404 . S
C1116 C1119 1.539 . S
C1117 C1113 1.408 . S
C1117 C1116 1.404 . S
C1117 H1129 0.930 . S
C1118 C1114 1.524 . S
C1118 H1130 0.956 . S
C1118 H1131 0.961 . S
C1118 H1132 0.961 . S
C1119 C1116 1.539 . S
C1119 H1133 0.958 . S
C1119 H1134 0.961 . S
C1119 H1135 0.960 . S
H1120 C1104 0.931 . S
H1121 C1109 0.929 . S
H1122 C1110 0.960 . S
H1123 C1110 0.962 . S
H1124 C1110 0.960 . S
H1125 C1111 0.961 . S
H1126 C1111 0.961 . S
H1127 C1111 0.961 . S
H1128 C1112 0.931 . S
H1129 C1117 0.930 . S
H1130 C1118 0.956 . S
H1131 C1118 0.961 . S
H1132 C1118 0.961 . S
H1133 C1119 0.958 . S
H1134 C1119 0.961 . S
H1135 C1119 0.960 . S
C1136 C1137 1.391 . S
C1136 C1138 1.394 . S
C1136 H1152 0.931 . S
C1137 C1136 1.391 . S
C1137 C1141 1.376 . S
C1138 C1136 1.394 . S
C1138 C1139 1.369 . S
C1138 C1142 1.531 . S
C1139 C1138 1.369 . S
C1139 C1140 1.410 . S
C1139 C1147 1.503 . S
C1140 C1139 1.410 . S
C1140 C1141 1.392 . S
C1140 C1143 1.511 . S
C1141 C1137 1.376 . S
C1141 C1140 1.392 . S
C1141 H1153 0.929 . S
C1142 C1138 1.531 . S
C1142 H1154 0.960 . S
C1142 H1155 0.962 . S
C1142 H1156 0.960 . S
C1143 C1140 1.511 . S
C1143 H1157 0.961 . S
C1143 H1158 0.961 . S
C1143 H1159 0.961 . S
C1144 C1145 1.370 . S
C1144 C1146 1.363 . S
C1144 H1160 0.931 . S
C1145 C1144 1.370 . S
C1145 C1149 1.408 . S
C1146 C1144 1.363 . S
C1146 C1147 1.370 . S
C1146 C1150 1.524 . S
C1147 C1139 1.503 . S
C1147 C1146 1.370 . S
C1147 C1148 1.403 . S
C1148 C1147 1.403 . S
C1148 C1149 1.404 . S
C1148 C1151 1.539 . S
C1149 C1145 1.408 . S
C1149 C1148 1.404 . S
C1149 H1161 0.930 . S
C1150 C1146 1.524 . S
C1150 H1162 0.956 . S
C1150 H1163 0.961 . S
C1150 H1164 0.961 . S
C1151 C1148 1.539 . S
C1151 H1165 0.958 . S
C1151 H1166 0.961 . S
C1151 H1167 0.960 . S
H1152 C1136 0.931 . S
H1153 C1141 0.929 . S
H1154 C1142 0.960 . S
H1155 C1142 0.962 . S
H1156 C1142 0.960 . S
H1157 C1143 0.961 . S
H1158 C1143 0.961 . S
H1159 C1143 0.961 . S
H1160 C1144 0.931 . S
H1161 C1149 0.930 . S
H1162 C1150 0.956 . S
H1163 C1150 0.961 . S
H1164 C1150 0.961 . S
H1165 C1151 0.958 . S
H1166 C1151 0.961 . S
H1167 C1151 0.960 . S
C1168 C1169 1.391 . S
C1168 C1170 1.394 . S
C1168 H1184 0.931 . S
C1169 C1168 1.391 . S
C1169 C1173 1.376 . S
C1170 C1168 1.394 . S
C1170 C1171 1.369 . S
C1170 C1174 1.531 . S
C1171 C1170 1.369 . S
C1171 C1172 1.410 . S
C1171 C1179 1.503 . S
C1172 C1171 1.410 . S
C1172 C1173 1.392 . S
C1172 C1175 1.511 . S
C1173 C1169 1.376 . S
C1173 C1172 1.392 . S
C1173 H1185 0.929 . S
C1174 C1170 1.531 . S
C1174 H1186 0.960 . S
C1174 H1187 0.962 . S
C1174 H1188 0.960 . S
C1175 C1172 1.511 . S
C1175 H1189 0.961 . S
C1175 H1190 0.961 . S
C1175 H1191 0.961 . S
C1176 C1177 1.370 . S
C1176 C1178 1.363 . S
C1176 H1192 0.931 . S
C1177 C1176 1.370 . S
C1177 C1181 1.408 . S
C1178 C1176 1.363 . S
C1178 C1179 1.370 . S
C1178 C1182 1.524 . S
C1179 C1171 1.503 . S
C1179 C1178 1.370 . S
C1179 C1180 1.403 . S
C1180 C1179 1.403 . S
C1180 C1181 1.404 . S
C1180 C1183 1.539 . S
C1181 C1177 1.408 . S
C1181 C1180 1.404 . S
C1181 H1193 0.930 . S
C1182 C1178 1.524 . S
C1182 H1194 0.956 . S
C1182 H1195 0.961 . S
C1182 H1196 0.961 . S
C1183 C1180 1.539 . S
C1183 H1197 0.958 . S
C1183 H1198 0.961 . S
C1183 H1199 0.960 . S
H1184 C1168 0.931 . S
H1185 C1173 0.929 . S
H1186 C1174 0.960 . S
H1187 C1174 0.962 . S
H1188 C1174 0.960 . S
H1189 C1175 0.961 . S
H1190 C1175 0.961 . S
H1191 C1175 0.961 . S
H1192 C1176 0.931 . S
H1193 C1181 0.930 . S
H1194 C1182 0.956 . S
H1195 C1182 0.961 . S
H1196 C1182 0.961 . S
H1197 C1183 0.958 . S
H1198 C1183 0.961 . S
H1199 C1183 0.960 . S
C1200 C1201 1.391 . S
C1200 C1202 1.394 . S
C1200 H1216 0.931 . S
C1201 C1200 1.391 . S
C1201 C1205 1.376 . S
C1202 C1200 1.394 . S
C1202 C1203 1.369 . S
C1202 C1206 1.531 . S
C1203 C1202 1.369 . S
C1203 C1204 1.410 . S
C1203 C1211 1.503 . S
C1204 C1203 1.410 . S
C1204 C1205 1.392 . S
C1204 C1207 1.511 . S
C1205 C1201 1.376 . S
C1205 C1204 1.392 . S
C1205 H1217 0.929 . S
C1206 C1202 1.531 . S
C1206 H1218 0.960 . S
C1206 H1219 0.962 . S
C1206 H1220 0.960 . S
C1207 C1204 1.511 . S
C1207 H1221 0.961 . S
C1207 H1222 0.961 . S
C1207 H1223 0.961 . S
C1208 C1209 1.370 . S
C1208 C1210 1.363 . S
C1208 H1224 0.931 . S
C1209 C1208 1.370 . S
C1209 C1213 1.408 . S
C1210 C1208 1.363 . S
C1210 C1211 1.370 . S
C1210 C1214 1.524 . S
C1211 C1203 1.503 . S
C1211 C1210 1.370 . S
C1211 C1212 1.403 . S
C1212 C1211 1.403 . S
C1212 C1213 1.404 . S
C1212 C1215 1.539 . S
C1213 C1209 1.408 . S
C1213 C1212 1.404 . S
C1213 H1225 0.930 . S
C1214 C1210 1.524 . S
C1214 H1226 0.956 . S
C1214 H1227 0.961 . S
C1214 H1228 0.961 . S
C1215 C1212 1.539 . S
C1215 H1229 0.958 . S
C1215 H1230 0.961 . S
C1215 H1231 0.960 . S
H1216 C1200 0.931 . S
H1217 C1205 0.929 . S
H1218 C1206 0.960 . S
H1219 C1206 0.962 . S
H1220 C1206 0.960 . S
H1221 C1207 0.961 . S
H1222 C1207 0.961 . S
H1223 C1207 0.961 . S
H1224 C1208 0.931 . S
H1225 C1213 0.930 . S
H1226 C1214 0.956 . S
H1227 C1214 0.961 . S
H1228 C1214 0.961 . S
H1229 C1215 0.958 . S
H1230 C1215 0.961 . S
H1231 C1215 0.960 . S
C1232 C1233 1.391 . S
C1232 C1234 1.394 . S
C1232 H1248 0.931 . S
C1233 C1232 1.391 . S
C1233 C1237 1.376 . S
C1234 C1232 1.394 . S
C1234 C1235 1.369 . S
C1234 C1238 1.531 . S
C1235 C1234 1.369 . S
C1235 C1236 1.410 . S
C1235 C1243 1.503 . S
C1236 C1235 1.410 . S
C1236 C1237 1.392 . S
C1236 C1239 1.511 . S
C1237 C1233 1.376 . S
C1237 C1236 1.392 . S
C1237 H1249 0.929 . S
C1238 C1234 1.531 . S
C1238 H1250 0.960 . S
C1238 H1251 0.962 . S
C1238 H1252 0.960 . S
C1239 C1236 1.511 . S
C1239 H1253 0.961 . S
C1239 H1254 0.961 . S
C1239 H1255 0.961 . S
C1240 C1241 1.370 . S
C1240 C1242 1.363 . S
C1240 H1256 0.931 . S
C1241 C1240 1.370 . S
C1241 C1245 1.408 . S
C1242 C1240 1.363 . S
C1242 C1243 1.370 . S
C1242 C1246 1.524 . S
C1243 C1235 1.503 . S
C1243 C1242 1.370 . S
C1243 C1244 1.403 . S
C1244 C1243 1.403 . S
C1244 C1245 1.404 . S
C1244 C1247 1.539 . S
C1245 C1241 1.408 . S
C1245 C1244 1.404 . S
C1245 H1257 0.930 . S
C1246 C1242 1.524 . S
C1246 H1258 0.956 . S
C1246 H1259 0.961 . S
C1246 H1260 0.961 . S
C1247 C1244 1.539 . S
C1247 H1261 0.958 . S
C1247 H1262 0.961 . S
C1247 H1263 0.960 . S
H1248 C1232 0.931 . S
H1249 C1237 0.929 . S
H1250 C1238 0.960 . S
H1251 C1238 0.962 . S
H1252 C1238 0.960 . S
H1253 C1239 0.961 . S
H1254 C1239 0.961 . S
H1255 C1239 0.961 . S
H1256 C1240 0.931 . S
H1257 C1245 0.930 . S
H1258 C1246 0.956 . S
H1259 C1246 0.961 . S
H1260 C1246 0.961 . S
H1261 C1247 0.958 . S
H1262 C1247 0.961 . S
H1263 C1247 0.960 . S
C1264 C1265 1.391 . S
C1264 C1266 1.394 . S
C1264 H1280 0.931 . S
C1265 C1264 1.391 . S
C1265 C1269 1.376 . S
C1266 C1264 1.394 . S
C1266 C1267 1.369 . S
C1266 C1270 1.531 . S
C1267 C1266 1.369 . S
C1267 C1268 1.410 . S
C1267 C1275 1.503 . S
C1268 C1267 1.410 . S
C1268 C1269 1.392 . S
C1268 C1271 1.511 . S
C1269 C1265 1.376 . S
C1269 C1268 1.392 . S
C1269 H1281 0.929 . S
C1270 C1266 1.531 . S
C1270 H1282 0.960 . S
C1270 H1283 0.962 . S
C1270 H1284 0.960 . S
C1271 C1268 1.511 . S
C1271 H1285 0.961 . S
C1271 H1286 0.961 . S
C1271 H1287 0.961 . S
C1272 C1273 1.370 . S
C1272 C1274 1.363 . S
C1272 H1288 0.931 . S
C1273 C1272 1.370 . S
C1273 C1277 1.408 . S
C1274 C1272 1.363 . S
C1274 C1275 1.370 . S
C1274 C1278 1.524 . S
C1275 C1267 1.503 . S
C1275 C1274 1.370 . S
C1275 C1276 1.403 . S
C1276 C1275 1.403 . S
C1276 C1277 1.404 . S
C1276 C1279 1.539 . S
C1277 C1273 1.408 . S
C1277 C1276 1.404 . S
C1277 H1289 0.930 . S
C1278 C1274 1.524 . S
C1278 H1290 0.956 . S
C1278 H1291 0.961 . S
C1278 H1292 0.961 . S
C1279 C1276 1.539 . S
C1279 H1293 0.958 . S
C1279 H1294 0.961 . S
C1279 H1295 0.960 . S
H1280 C1264 0.931 . S
H1281 C1269 0.929 . S
H1282 C1270 0.960 . S
H1283 C1270 0.962 . S
H1284 C1270 0.960 . S
H1285 C1271 0.961 . S
H1286 C1271 0.961 . S
H1287 C1271 0.961 . S
H1288 C1272 0.931 . S
H1289 C1277 0.930 . S
H1290 C1278 0.956 . S
H1291 C1278 0.961 . S
H1292 C1278 0.961 . S
H1293 C1279 0.958 . S
H1294 C1279 0.961 . S
H1295 C1279 0.960 . S
C1296 C1297 1.391 . S
C1296 C1298 1.394 . S
C1296 H1312 0.931 . S
C1297 C1296 1.391 . S
C1297 C1301 1.376 . S
C1298 C1296 1.394 . S
C1298 C1299 1.369 . S
C1298 C1302 1.531 1_545 S
C1299 C1298 1.369 . S
C1299 C1300 1.410 1_554 S
C1299 C1307 1.503 1_544 S
C1300 C1299 1.410 1_556 S
C1300 C1301 1.392 1_556 S
C1300 C1303 1.511 . S
C1301 C1297 1.376 . S
C1301 C1300 1.392 1_554 S
C1301 H1313 0.929 . S
C1302 C1298 1.531 1_565 S
C1302 H1314 0.960 . S
C1302 H1315 0.962 . S
C1302 H1316 0.960 . S
C1303 C1300 1.511 . S
C1303 H1317 0.961 . S
C1303 H1318 0.961 . S
C1303 H1319 0.961 . S
C1304 C1305 1.370 . S
C1304 C1306 1.363 . S
C1304 H1320 0.931 . S
C1305 C1304 1.370 . S
C1305 C1309 1.408 1_565 S
C1306 C1304 1.363 . S
C1306 C1307 1.370 . S
C1306 C1310 1.524 . S
C1307 C1299 1.503 1_566 S
C1307 C1306 1.370 . S
C1307 C1308 1.403 1_565 S
C1308 C1307 1.403 1_545 S
C1308 C1309 1.404 . S
C1308 C1311 1.539 1_556 S
C1309 C1305 1.408 1_545 S
C1309 C1308 1.404 . S
C1309 H1321 0.930 . S
C1310 C1306 1.524 . S
C1310 H1322 0.956 1_556 S
C1310 H1323 0.961 . S
C1310 H1324 0.961 . S
C1311 C1308 1.539 1_554 S
C1311 H1325 0.958 . S
C1311 H1326 0.961 1_554 S
C1311 H1327 0.960 . S
H1312 C1296 0.931 . S
H1313 C1301 0.929 . S
H1314 C1302 0.960 . S
H1315 C1302 0.962 . S
H1316 C1302 0.960 . S
H1317 C1303 0.961 . S
H1318 C1303 0.961 . S
H1319 C1303 0.961 . S
H1320 C1304 0.931 . S
H1321 C1309 0.930 . S
H1322 C1310 0.956 1_554 S
H1323 C1310 0.961 . S
H1324 C1310 0.961 . S
H1325 C1311 0.958 . S
H1326 C1311 0.961 1_556 S
H1327 C1311 0.960 . S
C1328 C1329 1.391 . S
C1328 C1330 1.394 . S
C1328 H1344 0.931 . S
C1329 C1328 1.391 . S
C1329 C1333 1.376 . S
C1330 C1328 1.394 . S
C1330 C1331 1.369 . S
C1330 C1334 1.531 1_554 S
C1331 C1330 1.369 . S
C1331 C1332 1.410 . S
C1331 C1339 1.503 1_554 S
C1332 C1331 1.410 . S
C1332 C1333 1.392 . S
C1332 C1335 1.511 . S
C1333 C1329 1.376 . S
C1333 C1332 1.392 . S
C1333 H1345 0.929 . S
C1334 C1330 1.531 1_556 S
C1334 H1346 0.960 . S
C1334 H1347 0.940 1_556 S
C1334 H1348 0.960 . S
C1335 C1332 1.511 . S
C1335 H1349 0.961 . S
C1335 H1350 0.961 . S
C1335 H1351 0.961 1_554 S
C1336 C1337 1.370 . S
C1336 C1338 1.345 1_556 S
C1336 H1352 0.931 . S
C1337 C1336 1.370 . S
C1337 C1341 1.408 . S
C1338 C1336 1.345 1_554 S
C1338 C1339 1.354 1_554 S
C1338 C1342 1.560 . S
C1339 C1331 1.503 1_556 S
C1339 C1338 1.354 1_556 S
C1339 C1340 1.403 . S
C1340 C1339 1.403 . S
C1340 C1341 1.404 . S
C1340 C1343 1.539 . S
C1341 C1337 1.408 . S
C1341 C1340 1.404 . S
C1341 H1353 0.930 . S
C1342 C1338 1.560 . S
C1342 H1354 0.956 . S
C1342 H1355 0.961 . S
C1342 H1356 0.961 . S
C1343 C1340 1.539 . S
C1343 H1357 0.958 . S
C1343 H1358 0.961 . S
C1343 H1359 0.960 . S
H1344 C1328 0.931 . S
H1345 C1333 0.929 . S
H1346 C1334 0.960 . S
H1347 C1334 0.940 1_554 S
H1348 C1334 0.960 . S
H1349 C1335 0.961 . S
H1350 C1335 0.961 . S
H1351 C1335 0.961 1_556 S
H1352 C1336 0.931 . S
H1353 C1341 0.930 . S
H1354 C1342 0.956 . S
H1355 C1342 0.961 . S
H1356 C1342 0.961 . S
H1357 C1343 0.958 . S
H1358 C1343 0.961 . S
H1359 C1343 0.960 . S
C1360 C1361 1.391 . S
C1360 C1362 1.394 . S
C1360 H1376 0.931 . S
C1361 C1360 1.391 . S
C1361 C1365 1.376 . S
C1362 C1360 1.394 . S
C1362 C1363 1.369 . S
C1362 C1366 1.531 . S
C1363 C1362 1.369 . S
C1363 C1364 1.410 . S
C1363 C1371 1.503 1_654 S
C1364 C1363 1.410 . S
C1364 C1365 1.392 . S
C1364 C1367 1.511 1_655 S
C1365 C1361 1.376 . S
C1365 C1364 1.392 . S
C1365 H1377 0.929 . S
C1366 C1362 1.531 . S
C1366 H1378 0.960 . S
C1366 H1379 0.962 . S
C1366 H1380 0.960 . S
C1367 C1364 1.511 1_455 S
C1367 H1381 0.961 1_455 S
C1367 H1382 0.961 1_554 S
C1367 H1383 0.961 . S
C1368 C1369 1.370 . S
C1368 C1370 1.363 . S
C1368 H1384 0.931 . S
C1369 C1368 1.370 . S
C1369 C1373 1.408 . S
C1370 C1368 1.363 . S
C1370 C1371 1.370 . S
C1370 C1374 1.524 1_455 S
C1371 C1363 1.503 1_456 S
C1371 C1370 1.370 . S
C1371 C1372 1.403 1_556 S
C1372 C1371 1.403 1_554 S
C1372 C1373 1.404 1_554 S
C1372 C1375 1.539 . S
C1373 C1369 1.408 . S
C1373 C1372 1.404 1_556 S
C1373 H1385 0.930 . S
C1374 C1370 1.524 1_655 S
C1374 H1386 0.956 . S
C1374 H1387 0.961 . S
C1374 H1388 0.961 . S
C1375 C1372 1.539 . S
C1375 H1389 0.958 . S
C1375 H1390 0.961 . S
C1375 H1391 0.960 . S
H1376 C1360 0.931 . S
H1377 C1365 0.929 . S
H1378 C1366 0.960 . S
H1379 C1366 0.962 . S
H1380 C1366 0.960 . S
H1381 C1367 0.961 1_655 S
H1382 C1367 0.961 1_556 S
H1383 C1367 0.961 . S
H1384 C1368 0.931 . S
H1385 C1373 0.930 . S
H1386 C1374 0.956 . S
H1387 C1374 0.961 . S
H1388 C1374 0.961 . S
H1389 C1375 0.958 . S
H1390 C1375 0.961 . S
H1391 C1375 0.960 . S
C1392 C1393 1.391 . S
C1392 C1394 1.394 . S
C1392 H1408 0.931 . S
C1393 C1392 1.391 . S
C1393 C1397 1.376 1_655 S
C1394 C1392 1.394 . S
C1394 C1395 1.369 . S
C1394 C1398 1.531 1_556 S
C1395 C1394 1.369 . S
C1395 C1396 1.410 1_655 S
C1395 C1403 1.503 1_646 S
C1396 C1395 1.410 1_455 S
C1396 C1397 1.392 . S
C1396 C1399 1.511 . S
C1397 C1393 1.376 1_455 S
C1397 C1396 1.392 . S
C1397 H1409 0.929 . S
C1398 C1394 1.531 1_554 S
C1398 H1410 0.960 1_545 S
C1398 H1411 0.962 . S
C1398 H1412 0.960 . S
C1399 C1396 1.511 . S
C1399 H1413 0.961 . S
C1399 H1414 0.961 . S
C1399 H1415 0.961 1_545 S
C1400 C1401 1.370 . S
C1400 C1402 1.363 . S
C1400 H1416 0.931 . S
C1401 C1400 1.370 . S
C1401 C1405 1.408 . S
C1402 C1400 1.363 . S
C1402 C1403 1.370 . S
C1402 C1406 1.524 1_565 S
C1403 C1395 1.503 1_464 S
C1403 C1402 1.370 . S
C1403 C1404 1.405 1_554 S
C1404 C1403 1.405 1_556 S
C1404 C1405 1.413 1_556 S
C1404 C1407 1.530 1_455 S
C1405 C1401 1.408 . S
C1405 C1404 1.413 1_554 S
C1405 H1417 0.930 . S
C1406 C1402 1.524 1_545 S
C1406 H1418 0.948 1_455 S
C1406 H1419 0.961 . S
C1406 H1420 0.961 . S
C1407 C1404 1.530 1_655 S
C1407 H1421 0.958 . S
C1407 H1422 0.961 . S
C1407 H1423 0.960 . S
H1408 C1392 0.931 . S
H1409 C1397 0.929 . S
H1410 C1398 0.960 1_565 S
H1411 C1398 0.962 . S
H1412 C1398 0.960 . S
H1413 C1399 0.961 . S
H1414 C1399 0.961 . S
H1415 C1399 0.961 1_565 S
H1416 C1400 0.931 . S
H1417 C1405 0.930 . S
H1418 C1406 0.948 1_655 S
H1419 C1406 0.961 . S
H1420 C1406 0.961 . S
H1421 C1407 0.958 . S
H1422 C1407 0.961 . S
H1423 C1407 0.960 . S
C1424 C1425 1.391 1_565 S
C1424 C1426 1.394 . S
C1424 H1440 0.931 . S
C1425 C1424 1.391 1_545 S
C1425 C1429 1.376 . S
C1426 C1424 1.394 . S
C1426 C1427 1.369 1_565 S
C1426 C1430 1.531 . S
C1427 C1426 1.369 1_545 S
C1427 C1428 1.409 . S
C1427 C1435 1.504 1_645 S
C1428 C1427 1.409 . S
C1428 C1429 1.392 . S
C1428 C1431 1.511 . S
C1429 C1425 1.376 . S
C1429 C1428 1.392 . S
C1429 H1441 0.929 . S
C1430 C1426 1.531 . S
C1430 H1442 0.960 1_655 S
C1430 H1443 0.962 1_655 S
C1430 H1444 0.960 . S
C1431 C1428 1.511 . S
C1431 H1445 0.961 . S
C1431 H1446 0.961 . S
C1431 H1447 0.961 . S
C1432 C1433 1.370 . S
C1432 C1434 1.363 1_565 S
C1432 H1448 0.931 1_565 S
C1433 C1432 1.370 . S
C1433 C1437 1.408 . S
C1434 C1432 1.363 1_545 S
C1434 C1435 1.370 1_545 S
C1434 C1438 1.524 . S
C1435 C1427 1.504 1_465 S
C1435 C1434 1.370 1_565 S
C1435 C1436 1.403 . S
C1436 C1435 1.403 . S
C1436 C1437 1.404 . S
C1436 C1439 1.539 1_455 S
C1437 C1433 1.408 . S
C1437 C1436 1.404 . S
C1437 H1449 0.930 . S
C1438 C1434 1.524 . S
C1438 H1450 0.956 . S
C1438 H1451 0.961 . S
C1438 H1452 0.961 . S
C1439 C1436 1.539 1_655 S
C1439 H1453 0.958 . S
C1439 H1454 0.961 . S
C1439 H1455 0.960 . S
H1440 C1424 0.931 . S
H1441 C1429 0.929 . S
H1442 C1430 0.960 1_455 S
H1443 C1430 0.962 1_455 S
H1444 C1430 0.960 . S
H1445 C1431 0.961 . S
H1446 C1431 0.961 . S
H1447 C1431 0.961 . S
H1448 C1432 0.931 1_545 S
H1449 C1437 0.930 . S
H1450 C1438 0.956 . S
H1451 C1438 0.961 . S
H1452 C1438 0.961 . S
H1453 C1439 0.958 . S
H1454 C1439 0.961 . S
H1455 C1439 0.960 . S
C1456 C1457 1.391 . S
C1456 C1458 1.394 . S
C1456 H1472 0.931 . S
C1457 C1456 1.391 . S
C1457 C1461 1.376 . S
C1458 C1456 1.394 . S
C1458 C1459 1.369 . S
C1458 C1462 1.531 . S
C1459 C1458 1.369 . S
C1459 C1460 1.410 . S
C1459 C1467 1.503 1_545 S
C1460 C1459 1.410 . S
C1460 C1461 1.392 . S
C1460 C1463 1.511 . S
C1461 C1457 1.376 . S
C1461 C1460 1.392 . S
C1461 H1473 0.929 . S
C1462 C1458 1.531 . S
C1462 H1474 0.960 . S
C1462 H1475 0.962 1_545 S
C1462 H1476 0.960 . S
C1463 C1460 1.511 . S
C1463 H1477 0.961 . S
C1463 H1478 0.958 . S
C1463 H1479 0.961 . S
C1464 C1465 1.370 . S
C1464 C1466 1.363 . S
C1464 H1480 0.931 . S
C1465 C1464 1.370 . S
C1465 C1469 1.408 . S
C1466 C1464 1.363 . S
C1466 C1467 1.370 . S
C1466 C1470 1.524 . S
C1467 C1459 1.503 1_565 S
C1467 C1466 1.370 . S
C1467 C1468 1.403 . S
C1468 C1467 1.403 . S
C1468 C1469 1.404 . S
C1468 C1471 1.539 1_565 S
C1469 C1465 1.408 . S
C1469 C1468 1.404 . S
C1469 H1481 0.930 . S
C1470 C1466 1.524 . S
C1470 H1482 0.956 . S
C1470 H1483 0.961 . S
C1470 H1484 0.961 . S
C1471 C1468 1.539 1_545 S
C1471 H1485 0.958 . S
C1471 H1486 0.961 . S
C1471 H1487 0.960 . S
H1472 C1456 0.931 . S
H1473 C1461 0.929 . S
H1474 C1462 0.960 . S
H1475 C1462 0.962 1_565 S
H1476 C1462 0.960 . S
H1477 C1463 0.961 . S
H1478 C1463 0.958 . S
H1479 C1463 0.961 . S
H1480 C1464 0.931 . S
H1481 C1469 0.930 . S
H1482 C1470 0.956 . S
H1483 C1470 0.961 . S
H1484 C1470 0.961 . S
H1485 C1471 0.958 . S
H1486 C1471 0.961 . S
H1487 C1471 0.960 . S
C1488 C1489 1.391 . S
C1488 C1490 1.394 . S
C1488 H1504 0.931 . S
C1489 C1488 1.391 . S
C1489 C1493 1.376 . S
C1490 C1488 1.394 . S
C1490 C1491 1.369 . S
C1490 C1494 1.531 . S
C1491 C1490 1.369 . S
C1491 C1492 1.410 . S
C1491 C1499 1.503 . S
C1492 C1491 1.410 . S
C1492 C1493 1.392 . S
C1492 C1495 1.511 . S
C1493 C1489 1.376 . S
C1493 C1492 1.392 . S
C1493 H1505 0.929 . S
C1494 C1490 1.531 . S
C1494 H1506 0.960 . S
C1494 H1507 0.962 . S
C1494 H1508 0.960 . S
C1495 C1492 1.511 . S
C1495 H1509 0.961 . S
C1495 H1510 0.961 . S
C1495 H1511 0.961 . S
C1496 C1497 1.370 . S
C1496 C1498 1.363 . S
C1496 H1512 0.931 . S
C1497 C1496 1.370 . S
C1497 C1501 1.408 . S
C1498 C1496 1.363 . S
C1498 C1499 1.370 . S
C1498 C1502 1.524 . S
C1499 C1491 1.503 . S
C1499 C1498 1.370 . S
C1499 C1500 1.403 . S
C1500 C1499 1.403 . S
C1500 C1501 1.404 . S
C1500 C1503 1.539 . S
C1501 C1497 1.408 . S
C1501 C1500 1.404 . S
C1501 H1513 0.930 . S
C1502 C1498 1.524 . S
C1502 H1514 0.956 . S
C1502 H1515 0.961 . S
C1502 H1516 0.961 . S
C1503 C1500 1.539 . S
C1503 H1517 0.958 . S
C1503 H1518 0.961 . S
C1503 H1519 0.960 . S
H1504 C1488 0.931 . S
H1505 C1493 0.929 . S
H1506 C1494 0.960 . S
H1507 C1494 0.962 . S
H1508 C1494 0.960 . S
H1509 C1495 0.961 . S
H1510 C1495 0.961 . S
H1511 C1495 0.961 . S
H1512 C1496 0.931 . S
H1513 C1501 0.930 . S
H1514 C1502 0.956 . S
H1515 C1502 0.961 . S
H1516 C1502 0.961 . S
H1517 C1503 0.958 . S
H1518 C1503 0.961 . S
H1519 C1503 0.960 . S
C1520 C1521 1.391 1_655 S
C1520 C1522 1.394 . S
C1520 H1536 0.931 . S
C1521 C1520 1.391 1_455 S
C1521 C1525 1.376 . S
C1522 C1520 1.394 . S
C1522 C1523 1.369 1_655 S
C1522 C1526 1.531 . S
C1523 C1522 1.369 1_455 S
C1523 C1524 1.410 . S
C1523 C1531 1.503 1_455 S
C1524 C1523 1.410 . S
C1524 C1525 1.392 . S
C1524 C1527 1.511 . S
C1525 C1521 1.376 . S
C1525 C1524 1.392 . S
C1525 H1537 0.929 . S
C1526 C1522 1.531 . S
C1526 H1538 0.960 . S
C1526 H1539 0.962 . S
C1526 H1540 0.960 . S
C1527 C1524 1.511 . S
C1527 H1541 0.961 . S
C1527 H1542 0.961 . S
C1527 H1543 0.961 . S
C1528 C1529 1.370 . S
C1528 C1530 1.363 . S
C1528 H1544 0.931 . S
C1529 C1528 1.370 . S
C1529 C1533 1.408 . S
C1530 C1528 1.363 . S
C1530 C1531 1.370 . S
C1530 C1534 1.524 . S
C1531 C1523 1.503 1_655 S
C1531 C1530 1.370 . S
C1531 C1532 1.404 . S
C1532 C1531 1.404 . S
C1532 C1533 1.409 . S
C1532 C1535 1.532 1_655 S
C1533 C1529 1.408 . S
C1533 C1532 1.409 . S
C1533 H1545 0.930 . S
C1534 C1530 1.524 . S
C1534 H1546 0.956 . S
C1534 H1547 0.961 . S
C1534 H1548 0.961 . S
C1535 C1532 1.532 1_455 S
C1535 H1549 0.958 . S
C1535 H1550 0.961 . S
C1535 H1551 0.960 . S
H1536 C1520 0.931 . S
H1537 C1525 0.929 . S
H1538 C1526 0.960 . S
H1539 C1526 0.962 . S
H1540 C1526 0.960 . S
H1541 C1527 0.961 . S
H1542 C1527 0.961 . S
H1543 C1527 0.961 . S
H1544 C1528 0.931 . S
H1545 C1533 0.930 . S
H1546 C1534 0.956 . S
H1547 C1534 0.961 . S
H1548 C1534 0.961 . S
H1549 C1535 0.958 . S
H1550 C1535 0.961 . S
H1551 C1535 0.960 . S
C1552 C1553 1.391 . S
C1552 C1554 1.394 . S
C1552 H1568 0.931 . S
C1553 C1552 1.391 . S
C1553 C1557 1.376 . S
C1554 C1552 1.394 . S
C1554 C1555 1.369 . S
C1554 C1558 1.531 . S
C1555 C1554 1.369 . S
C1555 C1556 1.410 . S
C1555 C1563 1.503 . S
C1556 C1555 1.410 . S
C1556 C1557 1.392 . S
C1556 C1559 1.511 . S
C1557 C1553 1.376 . S
C1557 C1556 1.392 . S
C1557 H1569 0.929 . S
C1558 C1554 1.531 . S
C1558 H1570 0.960 . S
C1558 H1571 0.962 . S
C1558 H1572 0.960 . S
C1559 C1556 1.511 . S
C1559 H1573 0.961 . S
C1559 H1574 0.961 . S
C1559 H1575 0.961 . S
C1560 C1561 1.370 . S
C1560 C1562 1.363 . S
C1560 H1576 0.931 . S
C1561 C1560 1.370 . S
C1561 C1565 1.408 . S
C1562 C1560 1.363 . S
C1562 C1563 1.370 . S
C1562 C1566 1.524 . S
C1563 C1555 1.503 . S
C1563 C1562 1.370 . S
C1563 C1564 1.403 . S
C1564 C1563 1.403 . S
C1564 C1565 1.404 . S
C1564 C1567 1.539 . S
C1565 C1561 1.408 . S
C1565 C1564 1.404 . S
C1565 H1577 0.930 . S
C1566 C1562 1.524 . S
C1566 H1578 0.956 . S
C1566 H1579 0.961 . S
C1566 H1580 0.961 . S
C1567 C1564 1.539 . S
C1567 H1581 0.958 . S
C1567 H1582 0.961 . S
C1567 H1583 0.960 . S
H1568 C1552 0.931 . S
H1569 C1557 0.929 . S
H1570 C1558 0.960 . S
H1571 C1558 0.962 . S
H1572 C1558 0.960 . S
H1573 C1559 0.961 . S
H1574 C1559 0.961 . S
H1575 C1559 0.961 . S
H1576 C1560 0.931 . S
H1577 C1565 0.930 . S
H1578 C1566 0.956 . S
H1579 C1566 0.961 . S
H1580 C1566 0.961 . S
H1581 C1567 0.958 . S
H1582 C1567 0.961 . S
H1583 C1567 0.960 . S
C1584 C1585 1.391 . S
C1584 C1586 1.394 . S
C1584 H1600 0.931 . S
C1585 C1584 1.391 . S
C1585 C1589 1.376 . S
C1586 C1584 1.394 . S
C1586 C1587 1.369 . S
C1586 C1590 1.531 . S
C1587 C1586 1.369 . S
C1587 C1588 1.410 . S
C1587 C1595 1.503 . S
C1588 C1587 1.410 . S
C1588 C1589 1.392 . S
C1588 C1591 1.511 . S
C1589 C1585 1.376 . S
C1589 C1588 1.392 . S
C1589 H1601 0.929 . S
C1590 C1586 1.531 . S
C1590 H1602 0.960 . S
C1590 H1603 0.962 . S
C1590 H1604 0.960 . S
C1591 C1588 1.511 . S
C1591 H1605 0.961 . S
C1591 H1606 0.961 . S
C1591 H1607 0.961 . S
C1592 C1593 1.370 . S
C1592 C1594 1.363 . S
C1592 H1608 0.931 . S
C1593 C1592 1.370 . S
C1593 C1597 1.408 . S
C1594 C1592 1.363 . S
C1594 C1595 1.370 . S
C1594 C1598 1.524 . S
C1595 C1587 1.503 . S
C1595 C1594 1.370 . S
C1595 C1596 1.403 . S
C1596 C1595 1.403 . S
C1596 C1597 1.404 . S
C1596 C1599 1.539 . S
C1597 C1593 1.408 . S
C1597 C1596 1.404 . S
C1597 H1609 0.930 . S
C1598 C1594 1.524 . S
C1598 H1610 0.956 . S
C1598 H1611 0.961 . S
C1598 H1612 0.961 . S
C1599 C1596 1.539 . S
C1599 H1613 0.958 . S
C1599 H1614 0.961 . S
C1599 H1615 0.960 . S
H1600 C1584 0.931 . S
H1601 C1589 0.929 . S
H1602 C1590 0.960 . S
H1603 C1590 0.962 . S
H1604 C1590 0.960 . S
H1605 C1591 0.961 . S
H1606 C1591 0.961 . S
H1607 C1591 0.961 . S
H1608 C1592 0.931 . S
H1609 C1597 0.930 . S
H1610 C1598 0.956 . S
H1611 C1598 0.961 . S
H1612 C1598 0.961 . S
H1613 C1599 0.958 . S
H1614 C1599 0.961 . S
H1615 C1599 0.960 . S
C1616 C1617 1.391 . S
C1616 C1618 1.394 . S
C1616 H1632 0.931 . S
C1617 C1616 1.391 . S
C1617 C1621 1.376 . S
C1618 C1616 1.394 . S
C1618 C1619 1.369 . S
C1618 C1622 1.531 . S
C1619 C1618 1.369 . S
C1619 C1620 1.410 . S
C1619 C1627 1.503 . S
C1620 C1619 1.410 . S
C1620 C1621 1.392 . S
C1620 C1623 1.511 . S
C1621 C1617 1.376 . S
C1621 C1620 1.392 . S
C1621 H1633 0.929 . S
C1622 C1618 1.531 . S
C1622 H1634 0.960 . S
C1622 H1635 0.962 . S
C1622 H1636 0.960 . S
C1623 C1620 1.511 . S
C1623 H1637 0.961 . S
C1623 H1638 0.961 . S
C1623 H1639 0.961 . S
C1624 C1625 1.370 . S
C1624 C1626 1.363 . S
C1624 H1640 0.931 . S
C1625 C1624 1.370 . S
C1625 C1629 1.408 . S
C1626 C1624 1.363 . S
C1626 C1627 1.370 . S
C1626 C1630 1.524 . S
C1627 C1619 1.503 . S
C1627 C1626 1.370 . S
C1627 C1628 1.403 . S
C1628 C1627 1.403 . S
C1628 C1629 1.404 . S
C1628 C1631 1.539 . S
C1629 C1625 1.408 . S
C1629 C1628 1.404 . S
C1629 H1641 0.930 . S
C1630 C1626 1.524 . S
C1630 H1642 0.956 . S
C1630 H1643 0.961 . S
C1630 H1644 0.961 . S
C1631 C1628 1.539 . S
C1631 H1645 0.958 . S
C1631 H1646 0.961 . S
C1631 H1647 0.960 . S
H1632 C1616 0.931 . S
H1633 C1621 0.929 . S
H1634 C1622 0.960 . S
H1635 C1622 0.962 . S
H1636 C1622 0.960 . S
H1637 C1623 0.961 . S
H1638 C1623 0.961 . S
H1639 C1623 0.961 . S
H1640 C1624 0.931 . S
H1641 C1629 0.930 . S
H1642 C1630 0.956 . S
H1643 C1630 0.961 . S
H1644 C1630 0.961 . S
H1645 C1631 0.958 . S
H1646 C1631 0.961 . S
H1647 C1631 0.960 . S
C1648 C1649 1.391 . S
C1648 C1650 1.394 . S
C1648 H1664 0.931 . S
C1649 C1648 1.391 . S
C1649 C1653 1.376 . S
C1650 C1648 1.394 . S
C1650 C1651 1.369 . S
C1650 C1654 1.531 . S
C1651 C1650 1.369 . S
C1651 C1652 1.410 . S
C1651 C1659 1.503 . S
C1652 C1651 1.410 . S
C1652 C1653 1.392 . S
C1652 C1655 1.511 . S
C1653 C1649 1.376 . S
C1653 C1652 1.392 . S
C1653 H1665 0.929 . S
C1654 C1650 1.531 . S
C1654 H1666 0.960 . S
C1654 H1667 0.962 . S
C1654 H1668 0.960 . S
C1655 C1652 1.511 . S
C1655 H1669 0.961 . S
C1655 H1670 0.961 . S
C1655 H1671 0.961 . S
C1656 C1657 1.370 . S
C1656 C1658 1.363 . S
C1656 H1672 0.931 . S
C1657 C1656 1.370 . S
C1657 C1661 1.408 . S
C1658 C1656 1.363 . S
C1658 C1659 1.370 . S
C1658 C1662 1.524 . S
C1659 C1651 1.503 . S
C1659 C1658 1.370 . S
C1659 C1660 1.403 . S
C1660 C1659 1.403 . S
C1660 C1661 1.404 . S
C1660 C1663 1.539 . S
C1661 C1657 1.408 . S
C1661 C1660 1.404 . S
C1661 H1673 0.930 . S
C1662 C1658 1.524 . S
C1662 H1674 0.956 . S
C1662 H1675 0.961 . S
C1662 H1676 0.961 . S
C1663 C1660 1.539 . S
C1663 H1677 0.958 . S
C1663 H1678 0.961 . S
C1663 H1679 0.960 . S
H1664 C1648 0.931 . S
H1665 C1653 0.929 . S
H1666 C1654 0.960 . S
H1667 C1654 0.962 . S
H1668 C1654 0.960 . S
H1669 C1655 0.961 . S
H1670 C1655 0.961 . S
H1671 C1655 0.961 . S
H1672 C1656 0.931 . S
H1673 C1661 0.930 . S
H1674 C1662 0.956 . S
H1675 C1662 0.961 . S
H1676 C1662 0.961 . S
H1677 C1663 0.958 . S
H1678 C1663 0.961 . S
H1679 C1663 0.960 . S
C1680 C1681 1.391 . S
C1680 C1682 1.394 . S
C1680 H1696 0.931 . S
C1681 C1680 1.391 . S
C1681 C1685 1.376 . S
C1682 C1680 1.394 . S
C1682 C1683 1.369 . S
C1682 C1686 1.531 . S
C1683 C1682 1.369 . S
C1683 C1684 1.410 . S
C1683 C1691 1.503 . S
C1684 C1683 1.410 . S
C1684 C1685 1.392 . S
C1684 C1687 1.511 . S
C1685 C1681 1.376 . S
C1685 C1684 1.392 . S
C1685 H1697 0.929 . S
C1686 C1682 1.531 . S
C1686 H1698 0.960 . S
C1686 H1699 0.962 . S
C1686 H1700 0.960 . S
C1687 C1684 1.511 . S
C1687 H1701 0.961 . S
C1687 H1702 0.961 . S
C1687 H1703 0.961 . S
C1688 C1689 1.370 . S
C1688 C1690 1.363 . S
C1688 H1704 0.931 . S
C1689 C1688 1.370 . S
C1689 C1693 1.408 . S
C1690 C1688 1.363 . S
C1690 C1691 1.370 . S
C1690 C1694 1.524 . S
C1691 C1683 1.503 . S
C1691 C1690 1.370 . S
C1691 C1692 1.403 . S
C1692 C1691 1.403 . S
C1692 C1693 1.404 . S
C1692 C1695 1.539 . S
C1693 C1689 1.408 . S
C1693 C1692 1.404 . S
C1693 H1705 0.930 . S
C1694 C1690 1.524 . S
C1694 H1706 0.956 . S
C1694 H1707 0.961 . S
C1694 H1708 0.961 . S
C1695 C1692 1.539 . S
C1695 H1709 0.958 . S
C1695 H1710 0.961 . S
C1695 H1711 0.960 . S
H1696 C1680 0.931 . S
H1697 C1685 0.929 . S
H1698 C1686 0.960 . S
H1699 C1686 0.962 . S
H1700 C1686 0.960 . S
H1701 C1687 0.961 . S
H1702 C1687 0.961 . S
H1703 C1687 0.961 . S
H1704 C1688 0.931 . S
H1705 C1693 0.930 . S
H1706 C1694 0.956 . S
H1707 C1694 0.961 . S
H1708 C1694 0.961 . S
H1709 C1695 0.958 . S
H1710 C1695 0.961 . S
H1711 C1695 0.960 . S
C1712 C1713 1.391 . S
C1712 C1714 1.394 . S
C1712 H1728 0.931 . S
C1713 C1712 1.391 . S
C1713 C1717 1.376 . S
C1714 C1712 1.394 . S
C1714 C1715 1.369 . S
C1714 C1718 1.531 . S
C1715 C1714 1.369 . S
C1715 C1716 1.410 . S
C1715 C1723 1.503 . S
C1716 C1715 1.410 . S
C1716 C1717 1.392 . S
C1716 C1719 1.511 . S
C1717 C1713 1.376 . S
C1717 C1716 1.392 . S
C1717 H1729 0.929 . S
C1718 C1714 1.531 . S
C1718 H1730 0.960 . S
C1718 H1731 0.962 . S
C1718 H1732 0.960 . S
C1719 C1716 1.511 . S
C1719 H1733 0.961 . S
C1719 H1734 0.961 . S
C1719 H1735 0.961 . S
C1720 C1721 1.370 . S
C1720 C1722 1.363 . S
C1720 H1736 0.931 . S
C1721 C1720 1.370 . S
C1721 C1725 1.408 . S
C1722 C1720 1.363 . S
C1722 C1723 1.370 . S
C1722 C1726 1.524 . S
C1723 C1715 1.503 . S
C1723 C1722 1.370 . S
C1723 C1724 1.403 . S
C1724 C1723 1.403 . S
C1724 C1725 1.404 . S
C1724 C1727 1.539 . S
C1725 C1721 1.408 . S
C1725 C1724 1.404 . S
C1725 H1737 0.930 . S
C1726 C1722 1.524 . S
C1726 H1738 0.956 . S
C1726 H1739 0.961 . S
C1726 H1740 0.961 . S
C1727 C1724 1.539 . S
C1727 H1741 0.958 . S
C1727 H1742 0.961 . S
C1727 H1743 0.960 . S
H1728 C1712 0.931 . S
H1729 C1717 0.929 . S
H1730 C1718 0.960 . S
H1731 C1718 0.962 . S
H1732 C1718 0.960 . S
H1733 C1719 0.961 . S
H1734 C1719 0.961 . S
H1735 C1719 0.961 . S
H1736 C1720 0.931 . S
H1737 C1725 0.930 . S
H1738 C1726 0.956 . S
H1739 C1726 0.961 . S
H1740 C1726 0.961 . S
H1741 C1727 0.958 . S
H1742 C1727 0.961 . S
H1743 C1727 0.960 . S
C1744 C1745 1.391 . S
C1744 C1746 1.394 . S
C1744 H1760 0.931 . S
C1745 C1744 1.391 . S
C1745 C1749 1.376 . S
C1746 C1744 1.394 . S
C1746 C1747 1.369 . S
C1746 C1750 1.531 . S
C1747 C1746 1.369 . S
C1747 C1748 1.410 . S
C1747 C1755 1.503 . S
C1748 C1747 1.410 . S
C1748 C1749 1.392 . S
C1748 C1751 1.511 . S
C1749 C1745 1.376 . S
C1749 C1748 1.392 . S
C1749 H1761 0.929 . S
C1750 C1746 1.531 . S
C1750 H1762 0.960 . S
C1750 H1763 0.962 . S
C1750 H1764 0.960 . S
C1751 C1748 1.511 . S
C1751 H1765 0.961 . S
C1751 H1766 0.961 . S
C1751 H1767 0.961 . S
C1752 C1753 1.370 . S
C1752 C1754 1.363 . S
C1752 H1768 0.931 . S
C1753 C1752 1.370 . S
C1753 C1757 1.408 . S
C1754 C1752 1.363 . S
C1754 C1755 1.370 . S
C1754 C1758 1.524 . S
C1755 C1747 1.503 . S
C1755 C1754 1.370 . S
C1755 C1756 1.403 . S
C1756 C1755 1.403 . S
C1756 C1757 1.404 . S
C1756 C1759 1.539 . S
C1757 C1753 1.408 . S
C1757 C1756 1.404 . S
C1757 H1769 0.930 . S
C1758 C1754 1.524 . S
C1758 H1770 0.956 . S
C1758 H1771 0.961 . S
C1758 H1772 0.961 . S
C1759 C1756 1.539 . S
C1759 H1773 0.958 . S
C1759 H1774 0.961 . S
C1759 H1775 0.960 . S
H1760 C1744 0.931 . S
H1761 C1749 0.929 . S
H1762 C1750 0.960 . S
H1763 C1750 0.962 . S
H1764 C1750 0.960 . S
H1765 C1751 0.961 . S
H1766 C1751 0.961 . S
H1767 C1751 0.961 . S
H1768 C1752 0.931 . S
H1769 C1757 0.930 . S
H1770 C1758 0.956 . S
H1771 C1758 0.961 . S
H1772 C1758 0.961 . S
H1773 C1759 0.958 . S
H1774 C1759 0.961 . S
H1775 C1759 0.960 . S
C1776 C1777 1.391 . S
C1776 C1778 1.394 . S
C1776 H1792 0.931 . S
C1777 C1776 1.391 . S
C1777 C1781 1.376 . S
C1778 C1776 1.394 . S
C1778 C1779 1.369 . S
C1778 C1782 1.531 . S
C1779 C1778 1.369 . S
C1779 C1780 1.410 . S
C1779 C1787 1.503 . S
C1780 C1779 1.410 . S
C1780 C1781 1.392 . S
C1780 C1783 1.511 . S
C1781 C1777 1.376 . S
C1781 C1780 1.392 . S
C1781 H1793 0.929 . S
C1782 C1778 1.531 . S
C1782 H1794 0.960 . S
C1782 H1795 0.962 . S
C1782 H1796 0.960 . S
C1783 C1780 1.511 . S
C1783 H1797 0.961 . S
C1783 H1798 0.961 . S
C1783 H1799 0.961 . S
C1784 C1785 1.370 . S
C1784 C1786 1.363 . S
C1784 H1800 0.931 . S
C1785 C1784 1.370 . S
C1785 C1789 1.408 . S
C1786 C1784 1.363 . S
C1786 C1787 1.370 . S
C1786 C1790 1.524 . S
C1787 C1779 1.503 . S
C1787 C1786 1.370 . S
C1787 C1788 1.403 . S
C1788 C1787 1.403 . S
C1788 C1789 1.404 . S
C1788 C1791 1.539 . S
C1789 C1785 1.408 . S
C1789 C1788 1.404 . S
C1789 H1801 0.930 . S
C1790 C1786 1.524 . S
C1790 H1802 0.956 . S
C1790 H1803 0.961 . S
C1790 H1804 0.961 . S
C1791 C1788 1.539 . S
C1791 H1805 0.958 . S
C1791 H1806 0.961 . S
C1791 H1807 0.960 . S
H1792 C1776 0.931 . S
H1793 C1781 0.929 . S
H1794 C1782 0.960 . S
H1795 C1782 0.962 . S
H1796 C1782 0.960 . S
H1797 C1783 0.961 . S
H1798 C1783 0.961 . S
H1799 C1783 0.961 . S
H1800 C1784 0.931 . S
H1801 C1789 0.930 . S
H1802 C1790 0.956 . S
H1803 C1790 0.961 . S
H1804 C1790 0.961 . S
H1805 C1791 0.958 . S
H1806 C1791 0.961 . S
H1807 C1791 0.960 . S
C529 N13 0.792 . S
C537 C54 0.808 . S
C561 C87 0.799 . S
C569 N46 0.804 . S
C593 C120 0.795 . S
C601 N79 0.801 . S
C625 N112 0.840 . S
C633 C21 0.822 . S
C657 C252 0.808 . S
C665 N145 0.809 . S
C689 C153 0.809 . S
C697 N178 0.811 . S
C721 C186 0.802 . S
C729 N211 0.806 . S
C753 N244 0.788 . S
C761 C219 0.808 . S
C785 N277 0.784 . S
C793 C318 0.807 . S
C817 N310 0.794 . S
C825 C351 0.811 . S
C849 C384 0.817 . S
C857 N343 0.819 . S
C881 C285 0.795 . S
C889 N376 0.801 . S
C913 C516 0.795 . S
C921 N409 0.802 . S
C945 C417 0.803 . S
C953 N442 0.810 . S
C977 N475 0.840 . S
C985 C450 0.821 . S
C1009 N508 0.784 . S
C1017 C483 0.807 . S
C1041 N2 1.879 . S
C1049 N68 1.890 . S
C1073 N35 1.899 . S
C1081 N101 1.897 . S
C1105 N200 1.902 . S
C1113 N134 1.902 . S
C1137 N233 1.909 . S
C1145 N167 1.903 . S
C1169 N332 1.908 . S
C1177 N266 1.901 . S
C1201 N299 1.881 . S
C1209 N365 1.896 . S
C1233 N398 1.878 . S
C1241 N464 1.895 . S
C1265 N431 1.907 . S
C1273 N497 1.903 . S
C1297 C18 1.817 . S
C1305 C282 1.808 . S
C1329 C51 1.822 . S
C1337 C315 1.809 . S
C1361 C84 1.794 . S
C1369 C348 1.818 . S
C1393 C381 1.800 . S
C1401 C117 1.818 . S
C1425 C414 1.806 . S
C1433 C150 1.812 . S
C1457 C183 1.816 . S
C1465 C447 1.811 . S
C1489 C216 1.786 . S
C1497 C480 1.822 . S
C1521 C513 1.828 . S
C1529 C249 1.804 . S
C1553 C172 1.601 . S
C1561 C7 1.599 . S
C1585 C205 1.596 . S
C1593 C40 1.600 . S
C1617 C73 1.597 . S
C1625 C238 1.597 . S
C1649 C139 1.596 . S
C1657 C106 1.597 . S
C1681 C271 1.595 . S
C1689 C436 1.595 . S
C1713 C469 1.587 . S
C1721 C304 1.594 . S
C1745 C502 1.600 . S
C1753 C337 1.598 . S
C1777 C370 1.599 . S
C1785 C403 1.597 . S
