# Generated by pormake.
# Topology umg, (4)-cn, num edge types: 1
# Building blocks:
#     Node 0, Type 0, BuildingBlock: CEKHIL_clean_sbu_0, # of connection points: 4
#     Node 1, Type 0, BuildingBlock: CEKHIL_clean_sbu_0, # of connection points: 4
#     Node 2, Type 0, BuildingBlock: CEKHIL_clean_sbu_0, # of connection points: 4
#     Node 3, Type 0, BuildingBlock: CEKHIL_clean_sbu_0, # of connection points: 4
#     Node 4, Type 0, BuildingBlock: CEKHIL_clean_sbu_0, # of connection points: 4
#     Node 5, Type 0, BuildingBlock: CEKHIL_clean_sbu_0, # of connection points: 4
#     Node 6, Type 0, BuildingBlock: CEKHIL_clean_sbu_0, # of connection points: 4
#     Node 7, Type 0, BuildingBlock: CEKHIL_clean_sbu_0, # of connection points: 4
#     Node 8, Type 0, BuildingBlock: CEKHIL_clean_sbu_0, # of connection points: 4
#     Node 9, Type 0, BuildingBlock: CEKHIL_clean_sbu_0, # of connection points: 4
#     Node 10, Type 0, BuildingBlock: CEKHIL_clean_sbu_0, # of connection points: 4
#     Node 11, Type 0, BuildingBlock: CEKHIL_clean_sbu_0, # of connection points: 4
#     Edge 12, Type (0, 0), BuildingBlock: AJUNOK_clean_linker_0, # of connection points: 2
#     Edge 13, Type (0, 0), BuildingBlock: AJUNOK_clean_linker_0, # of connection points: 2
#     Edge 14, Type (0, 0), BuildingBlock: AJUNOK_clean_linker_0, # of connection points: 2
#     Edge 15, Type (0, 0), BuildingBlock: AJUNOK_clean_linker_0, # of connection points: 2
#     Edge 16, Type (0, 0), BuildingBlock: AJUNOK_clean_linker_0, # of connection points: 2
#     Edge 17, Type (0, 0), BuildingBlock: AJUNOK_clean_linker_0, # of connection points: 2
#     Edge 18, Type (0, 0), BuildingBlock: AJUNOK_clean_linker_0, # of connection points: 2
#     Edge 19, Type (0, 0), BuildingBlock: AJUNOK_clean_linker_0, # of connection points: 2
#     Edge 20, Type (0, 0), BuildingBlock: AJUNOK_clean_linker_0, # of connection points: 2
#     Edge 21, Type (0, 0), BuildingBlock: AJUNOK_clean_linker_0, # of connection points: 2
#     Edge 22, Type (0, 0), BuildingBlock: AJUNOK_clean_linker_0, # of connection points: 2
#     Edge 23, Type (0, 0), BuildingBlock: AJUNOK_clean_linker_0, # of connection points: 2
#     Edge 24, Type (0, 0), BuildingBlock: AJUNOK_clean_linker_0, # of connection points: 2
#     Edge 25, Type (0, 0), BuildingBlock: AJUNOK_clean_linker_0, # of connection points: 2
#     Edge 26, Type (0, 0), BuildingBlock: AJUNOK_clean_linker_0, # of connection points: 2
#     Edge 27, Type (0, 0), BuildingBlock: AJUNOK_clean_linker_0, # of connection points: 2
#     Edge 28, Type (0, 0), BuildingBlock: AJUNOK_clean_linker_0, # of connection points: 2
#     Edge 29, Type (0, 0), BuildingBlock: AJUNOK_clean_linker_0, # of connection points: 2
#     Edge 30, Type (0, 0), BuildingBlock: AJUNOK_clean_linker_0, # of connection points: 2
#     Edge 31, Type (0, 0), BuildingBlock: AJUNOK_clean_linker_0, # of connection points: 2
#     Edge 32, Type (0, 0), BuildingBlock: AJUNOK_clean_linker_0, # of connection points: 2
#     Edge 33, Type (0, 0), BuildingBlock: AJUNOK_clean_linker_0, # of connection points: 2
#     Edge 34, Type (0, 0), BuildingBlock: AJUNOK_clean_linker_0, # of connection points: 2
#     Edge 35, Type (0, 0), BuildingBlock: AJUNOK_clean_linker_0, # of connection points: 2
# Relax obj value: 0.085
# Max RMSD: 0.196
# Mean RMSD: 0.196
data_MOF--net-umg--node1-CEKHIL_clean_sbu_0--edge1-AJUNOK_clean_linker_0
_symmetry_space_group_name_H-M    P1
_symmetry_Int_Tables_number       1
_symmetry_cell_setting            triclinic
loop_
_symmetry_equiv_pos_as_xyz
'x, y, z'
_cell_length_a     20.909008
_cell_length_b     20.92298
_cell_length_c     60.633162
_cell_angle_alpha  90.070841
_cell_angle_beta   89.939027
_cell_angle_gamma 119.97381
loop_
_atom_site_label
_atom_site_type_symbol
_atom_site_fract_x
_atom_site_fract_y
_atom_site_fract_z
_atom_type_partial_charge
Co0 Co 0.321 0.59934 0.08542 0.0
O1 O 0.4213 0.61933 0.08656 0.0
O2 O 0.33034 0.52022 0.07116 0.0
C3 C 0.31496 0.62361 0.12136 0.0
O4 O 0.20887 0.5627 0.08252 0.0
Co5 Co 0.29755 0.73096 0.09276 0.0
O6 O 0.19233 0.65487 0.09499 0.0
C7 C 0.34827 0.71389 0.04945 0.0
C8 C 0.40021 0.55778 0.07639 0.0
C9 C 0.1664 0.58887 0.08821 0.0
O10 O 0.34301 0.6537 0.05654 0.0
O11 O 0.3347 0.75594 0.06149 0.0
O12 O 0.30301 0.55954 0.11494 0.0
O13 O 0.33791 0.67392 0.10609 0.0
Co14 Co 0.72686 0.31198 0.42072 0.0
O15 O 0.80861 0.41125 0.42213 0.0
O16 O 0.81482 0.31928 0.40664 0.0
C17 C 0.69588 0.30634 0.45667 0.0
O18 O 0.64949 0.20068 0.41743 0.0
Co19 Co 0.57429 0.29409 0.42712 0.0
O20 O 0.54058 0.18767 0.42833 0.0
C21 C 0.64466 0.34473 0.38426 0.0
C22 C 0.84815 0.38917 0.41187 0.0
C23 C 0.57966 0.16008 0.42198 0.0
O24 O 0.69702 0.33578 0.3917 0.0
O25 O 0.58932 0.33369 0.39606 0.0
O26 O 0.74667 0.29234 0.45024 0.0
O27 O 0.67009 0.33095 0.44138 0.0
Co28 Co 0.41369 0.72336 0.75523 0.0
O29 O 0.39693 0.80562 0.7563 0.0
O30 O 0.49674 0.8115 0.7421 0.0
C31 C 0.38238 0.68891 0.79053 0.0
O32 O 0.44637 0.64506 0.75227 0.0
Co33 Co 0.2756 0.57163 0.7592 0.0
O34 O 0.34691 0.53582 0.76084 0.0
C35 C 0.30501 0.64566 0.71686 0.0
C36 C 0.45975 0.84501 0.74664 0.0
C37 C 0.41491 0.57446 0.75575 0.0
O38 O 0.36507 0.69569 0.72562 0.0
O39 O 0.25645 0.59071 0.7279 0.0
O40 O 0.44829 0.7406 0.78532 0.0
O41 O 0.33462 0.66543 0.77452 0.0
Co42 Co 0.69068 0.41406 0.08898 0.0
O43 O 0.59083 0.39531 0.08906 0.0
O44 O 0.68487 0.4963 0.07553 0.0
C45 C 0.69154 0.38254 0.12448 0.0
O46 O 0.80215 0.44829 0.08689 0.0
Co47 Co 0.70581 0.27618 0.09398 0.0
O48 O 0.81298 0.34875 0.0947 0.0
C49 C 0.66453 0.30544 0.05109 0.0
C50 C 0.614 0.45796 0.07938 0.0
C51 C 0.84168 0.41693 0.08991 0.0
O52 O 0.67404 0.36603 0.05933 0.0
O53 O 0.66847 0.25633 0.06258 0.0
O54 O 0.70452 0.44801 0.11926 0.0
O55 O 0.66967 0.33547 0.10831 0.0
Co56 Co 0.28234 0.68206 0.42164 0.0
O57 O 0.20306 0.58135 0.42174 0.0
O58 O 0.19265 0.67401 0.40872 0.0
C59 C 0.31687 0.68387 0.45683 0.0
O60 O 0.35687 0.7941 0.41969 0.0
Co61 Co 0.43804 0.70305 0.42583 0.0
O62 O 0.46865 0.80908 0.42793 0.0
C63 C 0.36601 0.66066 0.38312 0.0
C64 C 0.16178 0.60328 0.41252 0.0
C65 C 0.42718 0.83575 0.42332 0.0
O66 O 0.31352 0.66708 0.39177 0.0
O67 O 0.42079 0.66709 0.39428 0.0
O68 O 0.26264 0.69466 0.452 0.0
O69 O 0.34262 0.66325 0.44048 0.0
Co70 Co 0.59824 0.27828 0.75322 0.0
O71 O 0.61937 0.19888 0.75453 0.0
O72 O 0.5194 0.18917 0.73919 0.0
C73 C 0.62288 0.31004 0.78906 0.0
O74 O 0.56073 0.35285 0.75004 0.0
Co75 Co 0.72958 0.43368 0.75979 0.0
O76 O 0.65347 0.463 0.76136 0.0
C77 C 0.71215 0.36388 0.71686 0.0
C78 C 0.55816 0.15802 0.74426 0.0
C79 C 0.58708 0.422 0.755 0.0
O80 O 0.65187 0.30976 0.72421 0.0
O81 O 0.75474 0.4199 0.72866 0.0
O82 O 0.55891 0.25728 0.78281 0.0
O83 O 0.67303 0.33712 0.7737 0.0
Co84 Co 0.42231 0.68859 0.58508 0.0
O85 O 0.40277 0.58851 0.58542 0.0
O86 O 0.503 0.68201 0.59947 0.0
C87 C 0.39487 0.68877 0.54914 0.0
O88 O 0.45703 0.80021 0.58669 0.0
Co89 Co 0.28534 0.7046 0.57758 0.0
O90 O 0.35871 0.81156 0.57731 0.0
C91 C 0.30867 0.66279 0.62127 0.0
C92 C 0.46486 0.61129 0.59542 0.0
C93 C 0.4263 0.83991 0.58288 0.0
O94 O 0.37079 0.67268 0.61417 0.0
O95 O 0.26129 0.66656 0.60884 0.0
O96 O 0.45967 0.70184 0.55522 0.0
O97 O 0.34613 0.66775 0.56481 0.0
Co98 Co 0.72747 0.41704 0.91707 0.0
O99 O 0.80831 0.39787 0.91643 0.0
O100 O 0.81615 0.49906 0.93026 0.0
C101 C 0.69294 0.38539 0.88177 0.0
O102 O 0.65136 0.45252 0.91969 0.0
Co103 Co 0.57333 0.28176 0.91295 0.0
O104 O 0.54037 0.3554 0.91116 0.0
C105 C 0.64686 0.30945 0.95537 0.0
C106 C 0.84827 0.46048 0.92615 0.0
C107 C 0.581 0.42333 0.91607 0.0
O108 O 0.69804 0.36906 0.94672 0.0
O109 O 0.59172 0.26157 0.94422 0.0
O110 O 0.74599 0.45079 0.88684 0.0
O111 O 0.66813 0.33823 0.89792 0.0
Co112 Co 0.31555 0.72697 0.24957 0.0
O113 O 0.41502 0.80887 0.24888 0.0
O114 O 0.32118 0.8148 0.26312 0.0
C115 C 0.31246 0.6934 0.21417 0.0
O116 O 0.20429 0.64935 0.25224 0.0
Co117 Co 0.30045 0.57416 0.24477 0.0
O118 O 0.19324 0.53901 0.2442 0.0
C119 C 0.34508 0.64659 0.28737 0.0
C120 C 0.39175 0.84816 0.25873 0.0
C121 C 0.16468 0.57853 0.24917 0.0
O122 O 0.33521 0.69725 0.27901 0.0
O123 O 0.33946 0.59253 0.27597 0.0
O124 O 0.2993 0.74579 0.21947 0.0
O125 O 0.33587 0.66899 0.23013 0.0
Co126 Co 0.60714 0.31907 0.58598 0.0
O127 O 0.62741 0.41957 0.58562 0.0
O128 O 0.5272 0.32739 0.60011 0.0
C129 C 0.63417 0.31573 0.55006 0.0
O130 O 0.57015 0.20676 0.58818 0.0
Co131 Co 0.73969 0.2959 0.57862 0.0
O132 O 0.66348 0.19064 0.57649 0.0
C133 C 0.71893 0.34143 0.62238 0.0
C134 C 0.5652 0.3977 0.59552 0.0
C135 C 0.59699 0.16453 0.58289 0.0
O136 O 0.65934 0.33761 0.61525 0.0
O137 O 0.76188 0.32946 0.61023 0.0
O138 O 0.56976 0.30426 0.55602 0.0
O139 O 0.68295 0.33704 0.56572 0.0
Co140 Co 0.28213 0.60223 0.91972 0.0
O141 O 0.20173 0.62203 0.91886 0.0
O142 O 0.19459 0.52367 0.93445 0.0
C143 C 0.31006 0.62463 0.88355 0.0
O144 O 0.35805 0.56619 0.9225 0.0
Co145 Co 0.43661 0.73477 0.911 0.0
O146 O 0.46741 0.6597 0.91075 0.0
C147 C 0.37287 0.71807 0.95502 0.0
C148 C 0.16185 0.56079 0.92921 0.0
C149 C 0.42754 0.59391 0.91769 0.0
O150 O 0.31666 0.658 0.9484 0.0
O151 O 0.42722 0.75963 0.94251 0.0
O152 O 0.25843 0.56085 0.89031 0.0
O153 O 0.33823 0.67556 0.89862 0.0
Co154 Co 0.68524 0.28134 0.25342 0.0
O155 O 0.5844 0.20225 0.25322 0.0
O156 O 0.67595 0.19273 0.26758 0.0
C157 C 0.68782 0.30958 0.21735 0.0
O158 O 0.79773 0.35605 0.25536 0.0
Co159 Co 0.70841 0.43641 0.24557 0.0
O160 O 0.81363 0.46492 0.24333 0.0
C161 C 0.66389 0.37221 0.28959 0.0
C162 C 0.6056 0.16143 0.26306 0.0
C163 C 0.83989 0.42481 0.24983 0.0
O164 O 0.66786 0.31637 0.28262 0.0
O165 O 0.6752 0.4264 0.27725 0.0
O166 O 0.69952 0.25727 0.22368 0.0
O167 O 0.66704 0.33828 0.23283 0.0
C168 C 0.32445 0.74556 0.98928 0.0
C169 C 0.37775 0.73367 0.97887 0.0
C170 C 0.31919 0.7455 0.01242 0.0
C171 C 0.36541 0.73091 0.02577 0.0
H172 H 0.28475 0.75199 0.97947 0.0
H173 H 0.27541 0.75173 0.0198 0.0
S174 S 0.51523 0.69857 0.00644 0.0
N175 N 0.4798 0.71076 0.98356 0.0
N176 N 0.46806 0.70747 0.02692 0.0
C177 C 0.42047 0.72147 0.01551 0.0
C178 C 0.42707 0.72358 0.99206 0.0
C179 C 0.58375 0.32983 0.34738 0.0
C180 C 0.64781 0.36378 0.36054 0.0
C181 C 0.58833 0.33588 0.32422 0.0
C182 C 0.6568 0.37776 0.31361 0.0
H183 H 0.53039 0.29457 0.35489 0.0
H184 H 0.53852 0.30528 0.31453 0.0
S185 S 0.83975 0.4823 0.34047 0.0
N186 N 0.7812 0.44421 0.36113 0.0
N187 N 0.78907 0.45655 0.31783 0.0
C188 C 0.72047 0.41518 0.32659 0.0
C189 C 0.71614 0.4081 0.35002 0.0
C190 C 0.35806 0.70737 0.681 0.0
C191 C 0.29753 0.65109 0.69256 0.0
C192 C 0.35911 0.71093 0.65807 0.0
C193 C 0.29935 0.65939 0.64545 0.0
H194 H 0.40687 0.74831 0.68959 0.0
H195 H 0.40811 0.75416 0.65009 0.0
S196 S 0.12413 0.50532 0.66697 0.0
N197 N 0.17357 0.54481 0.68932 0.0
N198 N 0.17552 0.55322 0.64578 0.0
C199 C 0.23654 0.60507 0.65648 0.0
C200 C 0.23571 0.60049 0.68012 0.0
C201 C 0.70325 0.36452 0.01465 0.0
C202 C 0.65977 0.29981 0.02675 0.0
C203 C 0.69936 0.36552 0.99177 0.0
C204 C 0.65101 0.30193 0.97967 0.0
H205 H 0.7409 0.4156 0.02297 0.0
H206 H 0.73385 0.41782 0.98362 0.0
S207 S 0.52703 0.11674 0.00351 0.0
N208 N 0.56878 0.1692 0.02518 0.0
N209 N 0.56002 0.17097 0.98168 0.0
C210 C 0.60787 0.23594 0.9915 0.0
C211 C 0.6128 0.23482 0.01511 0.0
C212 C 0.33236 0.69092 0.32412 0.0
C213 C 0.35545 0.64925 0.31167 0.0
C214 C 0.33703 0.69392 0.347 0.0
C215 C 0.36573 0.65607 0.35876 0.0
H216 H 0.30878 0.72085 0.31623 0.0
H217 H 0.31786 0.72672 0.35557 0.0
S218 S 0.43676 0.541 0.33441 0.0
N219 N 0.40976 0.56998 0.31289 0.0
N220 N 0.41981 0.57698 0.35641 0.0
C221 C 0.39089 0.61538 0.34673 0.0
C222 C 0.38511 0.61136 0.32311 0.0
C223 C 0.7493 0.42391 0.6797 0.0
C224 C 0.72874 0.3619 0.69319 0.0
C225 C 0.74992 0.41826 0.65658 0.0
C226 C 0.73238 0.35112 0.64633 0.0
H227 H 0.76015 0.47573 0.68695 0.0
H228 H 0.76145 0.46584 0.64663 0.0
S229 S 0.68047 0.17438 0.67424 0.0
N230 N 0.69386 0.23235 0.69458 0.0
N231 N 0.69756 0.22272 0.65128 0.0
C232 C 0.71594 0.29006 0.65965 0.0
C233 C 0.71361 0.29524 0.68307 0.0
C234 C 0.31519 0.72165 0.17409 0.0
C235 C 0.31122 0.6728 0.19076 0.0
C236 C 0.3161 0.70541 0.1517 0.0
C237 C 0.31188 0.63913 0.14508 0.0
H238 H 0.3189 0.7737 0.17835 0.0
H239 H 0.32015 0.74509 0.13951 0.0
S240 S 0.29714 0.49092 0.18229 0.0
N241 N 0.30124 0.55486 0.19915 0.0
N242 N 0.30148 0.52303 0.15714 0.0
C243 C 0.30638 0.58902 0.16161 0.0
C244 C 0.30653 0.60621 0.18443 0.0
C245 C 0.6189 0.31239 0.48752 0.0
C246 C 0.67982 0.30656 0.48054 0.0
C247 C 0.60433 0.31434 0.51005 0.0
C248 C 0.6508 0.31183 0.52648 0.0
H249 H 0.58212 0.31533 0.47552 0.0
H250 H 0.55671 0.31901 0.51459 0.0
S251 S 0.81711 0.2955 0.51704 0.0
N252 N 0.78649 0.29687 0.49206 0.0
N253 N 0.7594 0.3021 0.53421 0.0
C254 C 0.71172 0.30584 0.51976 0.0
C255 C 0.72607 0.30272 0.49686 0.0
C256 C 0.40951 0.71745 0.83055 0.0
C257 C 0.36256 0.66955 0.81399 0.0
C258 C 0.39227 0.70272 0.85298 0.0
C259 C 0.32801 0.63887 0.85977 0.0
H260 H 0.45973 0.76764 0.82619 0.0
H261 H 0.42973 0.74154 0.86506 0.0
S262 S 0.18771 0.49437 0.823 0.0
N263 N 0.24971 0.55533 0.80594 0.0
N264 N 0.21739 0.52636 0.84806 0.0
C265 C 0.28103 0.58979 0.84338 0.0
C266 C 0.29822 0.60548 0.82051 0.0
C267 C 0.6926 0.40989 0.16465 0.0
C268 C 0.69203 0.36267 0.14791 0.0
C269 C 0.69105 0.39248 0.18706 0.0
C270 C 0.69002 0.3277 0.19361 0.0
H271 H 0.69323 0.46052 0.16047 0.0
H272 H 0.69099 0.43021 0.19929 0.0
S273 S 0.68979 0.18623 0.15627 0.0
N274 N 0.69105 0.24883 0.13946 0.0
N275 N 0.68932 0.21614 0.18144 0.0
C276 C 0.69042 0.28037 0.17702 0.0
C277 C 0.69105 0.29778 0.15421 0.0
C278 C 0.31133 0.68686 0.51935 0.0
C279 C 0.37714 0.6893 0.52551 0.0
C280 C 0.29318 0.68604 0.49708 0.0
C281 C 0.33956 0.6865 0.48008 0.0
H282 H 0.2736 0.68577 0.5318 0.0
H283 H 0.24162 0.684 0.4932 0.0
S284 S 0.51874 0.69339 0.48738 0.0
N285 N 0.48973 0.6932 0.51273 0.0
N286 N 0.45446 0.69043 0.47094 0.0
C287 C 0.40557 0.68907 0.48598 0.0
C288 C 0.42467 0.69086 0.50867 0.0
C289 C 0.7199 0.4108 0.84158 0.0
C290 C 0.67217 0.36525 0.85838 0.0
C291 C 0.70371 0.39285 0.81921 0.0
C292 C 0.63857 0.32926 0.81276 0.0
H293 H 0.77106 0.46036 0.84569 0.0
H294 H 0.74249 0.42913 0.80693 0.0
S295 S 0.49373 0.193 0.85032 0.0
N296 N 0.55658 0.25469 0.86703 0.0
N297 N 0.5249 0.22107 0.8251 0.0
C298 C 0.58961 0.28384 0.82942 0.0
C299 C 0.60674 0.30174 0.85219 0.0
C300 C 0.96289 0.53717 0.08999 0.0
C301 C 0.92424 0.46006 0.08786 0.0
C302 C 0.04053 0.57758 0.08965 0.0
C303 C 0.08371 0.54311 0.08701 0.0
H304 H 0.9331 0.56661 0.09248 0.0
H305 H 0.06682 0.63679 0.09174 0.0
S306 S 1.00964 0.34263 0.07881 0.0
N307 N 0.9355 0.35082 0.08156 0.0
N308 N 0.08079 0.42701 0.08102 0.0
C309 C 0.04575 0.46626 0.08409 0.0
C310 C 0.9665 0.42485 0.08452 0.0
C311 C 0.57945 0.03931 0.42331 0.0
C312 C 0.54099 0.07764 0.42031 0.0
C313 C 0.54206 0.96169 0.42412 0.0
C314 C 0.46429 0.91839 0.4218 0.0
H315 H 0.63872 0.06944 0.42573 0.0
H316 H 0.57492 0.93562 0.42683 0.0
S317 S 0.3382 0.9919 0.41151 0.0
N318 N 0.42071 0.06608 0.41351 0.0
N319 N 0.35117 0.92101 0.41505 0.0
C320 C 0.42551 0.95612 0.41804 0.0
C321 C 0.46352 0.03524 0.41729 0.0
C322 C 0.57574 0.53639 0.75394 0.0
C323 C 0.54096 0.45837 0.75347 0.0
C324 C 0.53518 0.57348 0.75411 0.0
C325 C 0.45767 0.53451 0.75397 0.0
H326 H 0.63536 0.56974 0.75441 0.0
H327 H 0.56502 0.63319 0.75487 0.0
S328 S 0.339 0.3297 0.75131 0.0
N329 N 0.42399 0.34378 0.75184 0.0
N330 N 0.34738 0.41241 0.75207 0.0
C331 C 0.422 0.45634 0.75284 0.0
C332 C 0.46357 0.41867 0.75258 0.0
C333 C 0.58615 0.03886 0.58122 0.0
C334 C 0.55162 0.08183 0.58434 0.0
C335 C 0.5462 0.96124 0.5815 0.0
C336 C 0.4695 0.92241 0.5847 0.0
H337 H 0.64503 0.06525 0.57831 0.0
H338 H 0.57551 0.93155 0.57854 0.0
S339 S 0.35233 0.00698 0.59553 0.0
N340 N 0.43601 0.07835 0.59207 0.0
N341 N 0.36078 0.93309 0.5926 0.0
C342 C 0.43433 0.9644 0.58853 0.0
C343 C 0.47525 0.04363 0.58836 0.0
C344 C 0.42798 0.47377 0.91498 0.0
C345 C 0.46527 0.54948 0.91975 0.0
C346 C 0.46596 0.43407 0.91399 0.0
C347 C 0.54303 0.46804 0.91789 0.0
H348 H 0.36955 0.44544 0.91118 0.0
H349 H 0.43424 0.37609 0.90979 0.0
S350 S 0.6648 0.66415 0.93349 0.0
N351 N 0.58277 0.65613 0.93014 0.0
N352 N 0.65356 0.58168 0.9283 0.0
C353 C 0.58027 0.54326 0.92354 0.0
C354 C 0.54166 0.58376 0.92447 0.0
C355 C 0.04324 0.57693 0.24768 0.0
C356 C 0.08217 0.53929 0.25112 0.0
C357 C 0.96558 0.53932 0.24758 0.0
C358 C 0.92266 0.46209 0.25109 0.0
H359 H 0.07287 0.6357 0.24443 0.0
H360 H 0.93915 0.57163 0.24447 0.0
S361 S 0.99777 0.3384 0.26298 0.0
N362 N 0.07165 0.42047 0.25965 0.0
N363 N 0.92629 0.35053 0.25942 0.0
C364 C 0.96096 0.42419 0.25533 0.0
C365 C 0.04024 0.46243 0.25534 0.0
C366 C 0.58292 0.55897 0.07518 0.0
C367 C 0.56086 0.48371 0.07429 0.0
C368 C 0.53048 0.5824 0.07461 0.0
C369 C 0.45401 0.53166 0.07282 0.0
H370 H 0.64052 0.59974 0.07761 0.0
H371 H 0.55002 0.64081 0.07642 0.0
S372 S 0.36883 0.32909 0.06664 0.0
N373 N 0.45801 0.35892 0.06917 0.0
N374 N 0.36016 0.40326 0.06787 0.0
C375 C 0.43188 0.45677 0.07026 0.0
C376 C 0.48511 0.43278 0.07109 0.0
C377 C 0.95351 0.5189 0.40893 0.0
C378 C 0.92784 0.44235 0.40785 0.0
C379 C 0.02931 0.57134 0.40891 0.0
C380 C 0.0826 0.5493 0.40813 0.0
H381 H 0.91468 0.5386 0.4106 0.0
H382 H 0.04612 0.62913 0.41078 0.0
S383 S 0.04504 0.35662 0.40229 0.0
N384 N 0.96223 0.34807 0.40371 0.0
N385 N 0.10444 0.44599 0.40391 0.0
C386 C 0.05773 0.47326 0.40566 0.0
C387 C 0.98048 0.41997 0.40542 0.0
C388 C 0.45811 0.02551 0.74151 0.0
C389 C 0.53331 0.07876 0.74041 0.0
C390 C 0.43511 0.94991 0.74248 0.0
C391 C 0.48623 0.92437 0.74207 0.0
H392 H 0.41699 0.04236 0.74295 0.0
H393 H 0.37664 0.91124 0.74432 0.0
S394 S 0.68898 0.04143 0.736 0.0
N395 N 0.6586 0.10067 0.73665 0.0
N396 N 0.61505 0.95873 0.73816 0.0
C397 C 0.56116 0.97685 0.73933 0.0
C398 C 0.58472 0.05395 0.73861 0.0
C399 C 0.56624 0.58027 0.59853 0.0
C400 C 0.491 0.55818 0.60004 0.0
C401 C 0.58973 0.52785 0.59821 0.0
C402 C 0.5391 0.45129 0.59969 0.0
H403 H 0.60686 0.63796 0.59625 0.0
H404 H 0.64806 0.54756 0.59597 0.0
S405 S 0.33672 0.36576 0.60706 0.0
N406 N 0.36646 0.45504 0.60527 0.0
N407 N 0.41085 0.3572 0.60495 0.0
C408 C 0.4643 0.42902 0.60282 0.0
C409 C 0.44026 0.48226 0.60289 0.0
C410 C 0.05605 0.58495 0.93125 0.0
C411 C 0.08194 0.5343 0.93281 0.0
C412 C 0.98019 0.56134 0.93059 0.0
C413 C 0.92715 0.48599 0.93111 0.0
H414 H 0.09482 0.64347 0.92969 0.0
H415 H 0.96326 0.60212 0.9284 0.0
S416 S 0.96498 0.33137 0.93792 0.0
N417 N 0.04771 0.40576 0.93707 0.0
N418 N 0.90547 0.36107 0.93557 0.0
C419 C 0.95208 0.43505 0.93403 0.0
C420 C 0.02933 0.45923 0.93498 0.0
C421 C 0.52146 0.95323 0.263 0.0
C422 C 0.44474 0.92731 0.26372 0.0
C423 C 0.57389 0.02883 0.26455 0.0
C424 C 0.55171 0.08176 0.26658 0.0
H425 H 0.54143 0.91494 0.26047 0.0
H426 H 0.63186 0.04606 0.26281 0.0
S427 S 0.35848 0.0431 0.27195 0.0
N428 N 0.35005 0.96082 0.26881 0.0
N429 N 0.44802 0.10266 0.2714 0.0
C430 C 0.47544 0.05641 0.26864 0.0
C431 C 0.42212 0.97933 0.26732 0.0
loop_
_geom_bond_atom_site_label_1
_geom_bond_atom_site_label_2
_geom_bond_distance
_geom_bond_site_symmetry_2
_ccdc_geom_bond_type
Co0 O1 2.216 . S
Co0 O2 2.091 . S
Co0 O4 2.004 . S
Co0 O10 2.021 . S
Co0 O12 2.137 . S
Co0 O13 2.244 . S
O1 Co0 2.216 . S
O1 C8 1.247 . S
O2 Co0 2.091 . S
O2 C8 1.261 . S
C3 O12 1.247 . S
C3 O13 1.272 . S
O4 Co0 2.004 . S
O4 C9 1.259 . S
Co5 O6 2.061 . S
Co5 O11 2.052 . S
Co5 O13 2.135 . S
O6 Co5 2.061 . S
O6 C9 1.235 . S
C7 O10 1.238 . S
C7 O11 1.241 . S
C8 O1 1.247 . S
C8 O2 1.261 . S
C9 O4 1.259 . S
C9 O6 1.235 . S
O10 Co0 2.021 . S
O10 C7 1.238 . S
O11 Co5 2.052 . S
O11 C7 1.241 . S
O12 Co0 2.137 . S
O12 C3 1.247 . S
O13 Co0 2.244 . S
O13 C3 1.272 . S
O13 Co5 2.135 . S
Co14 O15 2.216 . S
Co14 O16 2.091 . S
Co14 O18 2.004 . S
Co14 O24 2.021 . S
Co14 O26 2.137 . S
Co14 O27 2.244 . S
O15 Co14 2.216 . S
O15 C22 1.247 . S
O16 Co14 2.091 . S
O16 C22 1.261 . S
C17 O26 1.247 . S
C17 O27 1.272 . S
O18 Co14 2.004 . S
O18 C23 1.259 . S
Co19 O20 2.061 . S
Co19 O25 2.052 . S
Co19 O27 2.135 . S
O20 Co19 2.061 . S
O20 C23 1.235 . S
C21 O24 1.238 . S
C21 O25 1.241 . S
C22 O15 1.247 . S
C22 O16 1.261 . S
C23 O18 1.259 . S
C23 O20 1.235 . S
O24 Co14 2.021 . S
O24 C21 1.238 . S
O25 Co19 2.052 . S
O25 C21 1.241 . S
O26 Co14 2.137 . S
O26 C17 1.247 . S
O27 Co14 2.244 . S
O27 C17 1.272 . S
O27 Co19 2.135 . S
Co28 O29 2.216 . S
Co28 O30 2.091 . S
Co28 O32 2.004 . S
Co28 O38 2.021 . S
Co28 O40 2.137 . S
Co28 O41 2.244 . S
O29 Co28 2.216 . S
O29 C36 1.247 . S
O30 Co28 2.091 . S
O30 C36 1.261 . S
C31 O40 1.247 . S
C31 O41 1.272 . S
O32 Co28 2.004 . S
O32 C37 1.259 . S
Co33 O34 2.061 . S
Co33 O39 2.052 . S
Co33 O41 2.135 . S
O34 Co33 2.061 . S
O34 C37 1.235 . S
C35 O38 1.238 . S
C35 O39 1.241 . S
C36 O29 1.247 . S
C36 O30 1.261 . S
C37 O32 1.259 . S
C37 O34 1.235 . S
O38 Co28 2.021 . S
O38 C35 1.238 . S
O39 Co33 2.052 . S
O39 C35 1.241 . S
O40 Co28 2.137 . S
O40 C31 1.247 . S
O41 Co28 2.244 . S
O41 C31 1.272 . S
O41 Co33 2.135 . S
Co42 O43 2.216 . S
Co42 O44 2.091 . S
Co42 O46 2.004 . S
Co42 O52 2.021 . S
Co42 O54 2.137 . S
Co42 O55 2.244 . S
O43 Co42 2.216 . S
O43 C50 1.247 . S
O44 Co42 2.091 . S
O44 C50 1.261 . S
C45 O54 1.247 . S
C45 O55 1.272 . S
O46 Co42 2.004 . S
O46 C51 1.259 . S
Co47 O48 2.061 . S
Co47 O53 2.052 . S
Co47 O55 2.135 . S
O48 Co47 2.061 . S
O48 C51 1.235 . S
C49 O52 1.238 . S
C49 O53 1.241 . S
C50 O43 1.247 . S
C50 O44 1.261 . S
C51 O46 1.259 . S
C51 O48 1.235 . S
O52 Co42 2.021 . S
O52 C49 1.238 . S
O53 Co47 2.052 . S
O53 C49 1.241 . S
O54 Co42 2.137 . S
O54 C45 1.247 . S
O55 Co42 2.244 . S
O55 C45 1.272 . S
O55 Co47 2.135 . S
Co56 O57 2.216 . S
Co56 O58 2.091 . S
Co56 O60 2.004 . S
Co56 O66 2.021 . S
Co56 O68 2.137 . S
Co56 O69 2.244 . S
O57 Co56 2.216 . S
O57 C64 1.247 . S
O58 Co56 2.091 . S
O58 C64 1.261 . S
C59 O68 1.247 . S
C59 O69 1.272 . S
O60 Co56 2.004 . S
O60 C65 1.259 . S
Co61 O62 2.061 . S
Co61 O67 2.052 . S
Co61 O69 2.135 . S
O62 Co61 2.061 . S
O62 C65 1.235 . S
C63 O66 1.238 . S
C63 O67 1.241 . S
C64 O57 1.247 . S
C64 O58 1.261 . S
C65 O60 1.259 . S
C65 O62 1.235 . S
O66 Co56 2.021 . S
O66 C63 1.238 . S
O67 Co61 2.052 . S
O67 C63 1.241 . S
O68 Co56 2.137 . S
O68 C59 1.247 . S
O69 Co56 2.244 . S
O69 C59 1.272 . S
O69 Co61 2.135 . S
Co70 O71 2.216 . S
Co70 O72 2.091 . S
Co70 O74 2.004 . S
Co70 O80 2.021 . S
Co70 O82 2.137 . S
Co70 O83 2.244 . S
O71 Co70 2.216 . S
O71 C78 1.247 . S
O72 Co70 2.091 . S
O72 C78 1.261 . S
C73 O82 1.247 . S
C73 O83 1.272 . S
O74 Co70 2.004 . S
O74 C79 1.259 . S
Co75 O76 2.061 . S
Co75 O81 2.052 . S
Co75 O83 2.135 . S
O76 Co75 2.061 . S
O76 C79 1.235 . S
C77 O80 1.238 . S
C77 O81 1.241 . S
C78 O71 1.247 . S
C78 O72 1.261 . S
C79 O74 1.259 . S
C79 O76 1.235 . S
O80 Co70 2.021 . S
O80 C77 1.238 . S
O81 Co75 2.052 . S
O81 C77 1.241 . S
O82 Co70 2.137 . S
O82 C73 1.247 . S
O83 Co70 2.244 . S
O83 C73 1.272 . S
O83 Co75 2.135 . S
Co84 O85 2.216 . S
Co84 O86 2.091 . S
Co84 O88 2.004 . S
Co84 O94 2.021 . S
Co84 O96 2.137 . S
Co84 O97 2.244 . S
O85 Co84 2.216 . S
O85 C92 1.247 . S
O86 Co84 2.091 . S
O86 C92 1.261 . S
C87 O96 1.247 . S
C87 O97 1.272 . S
O88 Co84 2.004 . S
O88 C93 1.259 . S
Co89 O90 2.061 . S
Co89 O95 2.052 . S
Co89 O97 2.135 . S
O90 Co89 2.061 . S
O90 C93 1.235 . S
C91 O94 1.238 . S
C91 O95 1.241 . S
C92 O85 1.247 . S
C92 O86 1.261 . S
C93 O88 1.259 . S
C93 O90 1.235 . S
O94 Co84 2.021 . S
O94 C91 1.238 . S
O95 Co89 2.052 . S
O95 C91 1.241 . S
O96 Co84 2.137 . S
O96 C87 1.247 . S
O97 Co84 2.244 . S
O97 C87 1.272 . S
O97 Co89 2.135 . S
Co98 O99 2.216 . S
Co98 O100 2.091 . S
Co98 O102 2.004 . S
Co98 O108 2.021 . S
Co98 O110 2.137 . S
Co98 O111 2.244 . S
O99 Co98 2.216 . S
O99 C106 1.247 . S
O100 Co98 2.091 . S
O100 C106 1.261 . S
C101 O110 1.247 . S
C101 O111 1.272 . S
O102 Co98 2.004 . S
O102 C107 1.259 . S
Co103 O104 2.061 . S
Co103 O109 2.052 . S
Co103 O111 2.135 . S
O104 Co103 2.061 . S
O104 C107 1.235 . S
C105 O108 1.238 . S
C105 O109 1.241 . S
C106 O99 1.247 . S
C106 O100 1.261 . S
C107 O102 1.259 . S
C107 O104 1.235 . S
O108 Co98 2.021 . S
O108 C105 1.238 . S
O109 Co103 2.052 . S
O109 C105 1.241 . S
O110 Co98 2.137 . S
O110 C101 1.247 . S
O111 Co98 2.244 . S
O111 C101 1.272 . S
O111 Co103 2.135 . S
Co112 O113 2.216 . S
Co112 O114 2.091 . S
Co112 O116 2.004 . S
Co112 O122 2.021 . S
Co112 O124 2.137 . S
Co112 O125 2.244 . S
O113 Co112 2.216 . S
O113 C120 1.247 . S
O114 Co112 2.091 . S
O114 C120 1.261 . S
C115 O124 1.247 . S
C115 O125 1.272 . S
O116 Co112 2.004 . S
O116 C121 1.259 . S
Co117 O118 2.061 . S
Co117 O123 2.052 . S
Co117 O125 2.135 . S
O118 Co117 2.061 . S
O118 C121 1.235 . S
C119 O122 1.238 . S
C119 O123 1.241 . S
C120 O113 1.247 . S
C120 O114 1.261 . S
C121 O116 1.259 . S
C121 O118 1.235 . S
O122 Co112 2.021 . S
O122 C119 1.238 . S
O123 Co117 2.052 . S
O123 C119 1.241 . S
O124 Co112 2.137 . S
O124 C115 1.247 . S
O125 Co112 2.244 . S
O125 C115 1.272 . S
O125 Co117 2.135 . S
Co126 O127 2.216 . S
Co126 O128 2.091 . S
Co126 O130 2.004 . S
Co126 O136 2.021 . S
Co126 O138 2.137 . S
Co126 O139 2.244 . S
O127 Co126 2.216 . S
O127 C134 1.247 . S
O128 Co126 2.091 . S
O128 C134 1.261 . S
C129 O138 1.247 . S
C129 O139 1.272 . S
O130 Co126 2.004 . S
O130 C135 1.259 . S
Co131 O132 2.061 . S
Co131 O137 2.052 . S
Co131 O139 2.135 . S
O132 Co131 2.061 . S
O132 C135 1.235 . S
C133 O136 1.238 . S
C133 O137 1.241 . S
C134 O127 1.247 . S
C134 O128 1.261 . S
C135 O130 1.259 . S
C135 O132 1.235 . S
O136 Co126 2.021 . S
O136 C133 1.238 . S
O137 Co131 2.052 . S
O137 C133 1.241 . S
O138 Co126 2.137 . S
O138 C129 1.247 . S
O139 Co126 2.244 . S
O139 C129 1.272 . S
O139 Co131 2.135 . S
Co140 O141 2.216 . S
Co140 O142 2.091 . S
Co140 O144 2.004 . S
Co140 O150 2.021 . S
Co140 O152 2.137 . S
Co140 O153 2.244 . S
O141 Co140 2.216 . S
O141 C148 1.247 . S
O142 Co140 2.091 . S
O142 C148 1.261 . S
C143 O152 1.247 . S
C143 O153 1.272 . S
O144 Co140 2.004 . S
O144 C149 1.259 . S
Co145 O146 2.061 . S
Co145 O151 2.052 . S
Co145 O153 2.135 . S
O146 Co145 2.061 . S
O146 C149 1.235 . S
C147 O150 1.238 . S
C147 O151 1.241 . S
C148 O141 1.247 . S
C148 O142 1.261 . S
C149 O144 1.259 . S
C149 O146 1.235 . S
O150 Co140 2.021 . S
O150 C147 1.238 . S
O151 Co145 2.052 . S
O151 C147 1.241 . S
O152 Co140 2.137 . S
O152 C143 1.247 . S
O153 Co140 2.244 . S
O153 C143 1.272 . S
O153 Co145 2.135 . S
Co154 O155 2.216 . S
Co154 O156 2.091 . S
Co154 O158 2.004 . S
Co154 O164 2.021 . S
Co154 O166 2.137 . S
Co154 O167 2.244 . S
O155 Co154 2.216 . S
O155 C162 1.247 . S
O156 Co154 2.091 . S
O156 C162 1.261 . S
C157 O166 1.247 . S
C157 O167 1.272 . S
O158 Co154 2.004 . S
O158 C163 1.259 . S
Co159 O160 2.061 . S
Co159 O165 2.052 . S
Co159 O167 2.135 . S
O160 Co159 2.061 . S
O160 C163 1.235 . S
C161 O164 1.238 . S
C161 O165 1.241 . S
C162 O155 1.247 . S
C162 O156 1.261 . S
C163 O158 1.259 . S
C163 O160 1.235 . S
O164 Co154 2.021 . S
O164 C161 1.238 . S
O165 Co159 2.052 . S
O165 C161 1.241 . S
O166 Co154 2.137 . S
O166 C157 1.247 . S
O167 Co154 2.244 . S
O167 C157 1.272 . S
O167 Co159 2.135 . S
C168 C169 1.369 . S
C168 C170 1.419 1_556 S
C168 H172 0.930 . S
C169 C168 1.369 . S
C169 C178 1.429 . S
C170 C168 1.419 1_554 S
C170 C171 1.363 . S
C170 H173 0.929 . S
C171 C170 1.363 . S
C171 C177 1.428 . S
H172 C168 0.930 . S
H173 C170 0.929 . S
S174 N175 1.623 . S
S174 N176 1.600 1_556 S
N175 S174 1.623 . S
N175 C178 1.350 . S
N176 S174 1.600 1_554 S
N176 C177 1.351 . S
C177 C171 1.428 . S
C177 N176 1.351 . S
C177 C178 1.434 1_554 S
C178 C169 1.429 . S
C178 N175 1.350 . S
C178 C177 1.434 1_556 S
C179 C180 1.369 . S
C179 C181 1.419 . S
C179 H183 0.930 . S
C180 C179 1.369 . S
C180 C189 1.429 . S
C181 C179 1.419 . S
C181 C182 1.363 . S
C181 H184 0.929 . S
C182 C181 1.363 . S
C182 C188 1.428 . S
H183 C179 0.930 . S
H184 C181 0.929 . S
S185 N186 1.613 . S
S185 N187 1.610 . S
N186 S185 1.613 . S
N186 C189 1.350 . S
N187 S185 1.610 . S
N187 C188 1.351 . S
C188 C182 1.428 . S
C188 N187 1.351 . S
C188 C189 1.434 . S
C189 C180 1.429 . S
C189 N186 1.350 . S
C189 C188 1.434 . S
C190 C191 1.369 . S
C190 C192 1.419 . S
C190 H194 0.930 . S
C191 C190 1.369 . S
C191 C200 1.429 . S
C192 C190 1.419 . S
C192 C193 1.363 . S
C192 H195 0.929 . S
C193 C192 1.363 . S
C193 C199 1.428 . S
H194 C190 0.930 . S
H195 C192 0.929 . S
S196 N197 1.613 . S
S196 N198 1.610 . S
N197 S196 1.613 . S
N197 C200 1.350 . S
N198 S196 1.610 . S
N198 C199 1.351 . S
C199 C193 1.428 . S
C199 N198 1.351 . S
C199 C200 1.434 . S
C200 C191 1.429 . S
C200 N197 1.350 . S
C200 C199 1.434 . S
C201 C202 1.369 . S
C201 C203 1.419 1_554 S
C201 H205 0.930 . S
C202 C201 1.369 . S
C202 C211 1.429 . S
C203 C201 1.419 1_556 S
C203 C204 1.363 . S
C203 H206 0.929 . S
C204 C203 1.363 . S
C204 C210 1.428 . S
H205 C201 0.930 . S
H206 C203 0.929 . S
S207 N208 1.611 1_556 S
S207 N209 1.612 . S
N208 S207 1.611 1_554 S
N208 C211 1.350 . S
N209 S207 1.612 . S
N209 C210 1.351 . S
C210 C204 1.428 . S
C210 N209 1.351 . S
C210 C211 1.434 1_556 S
C211 C202 1.429 . S
C211 N208 1.350 . S
C211 C210 1.434 1_554 S
C212 C213 1.369 . S
C212 C214 1.419 . S
C212 H216 0.930 . S
C213 C212 1.369 . S
C213 C222 1.429 . S
C214 C212 1.419 . S
C214 C215 1.363 . S
C214 H217 0.929 . S
C215 C214 1.363 . S
C215 C221 1.428 . S
H216 C212 0.930 . S
H217 C214 0.929 . S
S218 N219 1.613 . S
S218 N220 1.610 . S
N219 S218 1.613 . S
N219 C222 1.350 . S
N220 S218 1.610 . S
N220 C221 1.351 . S
C221 C215 1.428 . S
C221 N220 1.351 . S
C221 C222 1.434 . S
C222 C213 1.429 . S
C222 N219 1.350 . S
C222 C221 1.434 . S
C223 C224 1.369 . S
C223 C225 1.419 . S
C223 H227 0.930 . S
C224 C223 1.369 . S
C224 C233 1.429 . S
C225 C223 1.419 . S
C225 C226 1.363 . S
C225 H228 0.929 . S
C226 C225 1.363 . S
C226 C232 1.428 . S
H227 C223 0.930 . S
H228 C225 0.929 . S
S229 N230 1.613 . S
S229 N231 1.610 . S
N230 S229 1.613 . S
N230 C233 1.350 . S
N231 S229 1.610 . S
N231 C232 1.351 . S
C232 C226 1.428 . S
C232 N231 1.351 . S
C232 C233 1.434 . S
C233 C224 1.429 . S
C233 N230 1.350 . S
C233 C232 1.434 . S
C234 C235 1.369 . S
C234 C236 1.419 . S
C234 H238 0.930 . S
C235 C234 1.369 . S
C235 C244 1.429 . S
C236 C234 1.419 . S
C236 C237 1.363 . S
C236 H239 0.929 . S
C237 C236 1.363 . S
C237 C243 1.428 . S
H238 C234 0.930 . S
H239 C236 0.929 . S
S240 N241 1.613 . S
S240 N242 1.610 . S
N241 S240 1.613 . S
N241 C244 1.350 . S
N242 S240 1.610 . S
N242 C243 1.351 . S
C243 C237 1.428 . S
C243 N242 1.351 . S
C243 C244 1.434 . S
C244 C235 1.429 . S
C244 N241 1.350 . S
C244 C243 1.434 . S
C245 C246 1.369 . S
C245 C247 1.419 . S
C245 H249 0.930 . S
C246 C245 1.369 . S
C246 C255 1.429 . S
C247 C245 1.419 . S
C247 C248 1.363 . S
C247 H250 0.929 . S
C248 C247 1.363 . S
C248 C254 1.428 . S
H249 C245 0.930 . S
H250 C247 0.929 . S
S251 N252 1.613 . S
S251 N253 1.610 . S
N252 S251 1.613 . S
N252 C255 1.350 . S
N253 S251 1.610 . S
N253 C254 1.351 . S
C254 C248 1.428 . S
C254 N253 1.351 . S
C254 C255 1.434 . S
C255 C246 1.429 . S
C255 N252 1.350 . S
C255 C254 1.434 . S
C256 C257 1.369 . S
C256 C258 1.419 . S
C256 H260 0.930 . S
C257 C256 1.369 . S
C257 C266 1.429 . S
C258 C256 1.419 . S
C258 C259 1.363 . S
C258 H261 0.929 . S
C259 C258 1.363 . S
C259 C265 1.428 . S
H260 C256 0.930 . S
H261 C258 0.929 . S
S262 N263 1.613 . S
S262 N264 1.610 . S
N263 S262 1.613 . S
N263 C266 1.350 . S
N264 S262 1.610 . S
N264 C265 1.351 . S
C265 C259 1.428 . S
C265 N264 1.351 . S
C265 C266 1.434 . S
C266 C257 1.429 . S
C266 N263 1.350 . S
C266 C265 1.434 . S
C267 C268 1.369 . S
C267 C269 1.419 . S
C267 H271 0.930 . S
C268 C267 1.369 . S
C268 C277 1.429 . S
C269 C267 1.419 . S
C269 C270 1.363 . S
C269 H272 0.929 . S
C270 C269 1.363 . S
C270 C276 1.428 . S
H271 C267 0.930 . S
H272 C269 0.929 . S
S273 N274 1.613 . S
S273 N275 1.610 . S
N274 S273 1.613 . S
N274 C277 1.350 . S
N275 S273 1.610 . S
N275 C276 1.351 . S
C276 C270 1.428 . S
C276 N275 1.351 . S
C276 C277 1.434 . S
C277 C268 1.429 . S
C277 N274 1.350 . S
C277 C276 1.434 . S
C278 C279 1.369 . S
C278 C280 1.419 . S
C278 H282 0.930 . S
C279 C278 1.369 . S
C279 C288 1.429 . S
C280 C278 1.419 . S
C280 C281 1.363 . S
C280 H283 0.929 . S
C281 C280 1.363 . S
C281 C287 1.428 . S
H282 C278 0.930 . S
H283 C280 0.929 . S
S284 N285 1.613 . S
S284 N286 1.610 . S
N285 S284 1.613 . S
N285 C288 1.350 . S
N286 S284 1.610 . S
N286 C287 1.351 . S
C287 C281 1.428 . S
C287 N286 1.351 . S
C287 C288 1.434 . S
C288 C279 1.429 . S
C288 N285 1.350 . S
C288 C287 1.434 . S
C289 C290 1.369 . S
C289 C291 1.419 . S
C289 H293 0.930 . S
C290 C289 1.369 . S
C290 C299 1.429 . S
C291 C289 1.419 . S
C291 C292 1.363 . S
C291 H294 0.929 . S
C292 C291 1.363 . S
C292 C298 1.428 . S
H293 C289 0.930 . S
H294 C291 0.929 . S
S295 N296 1.613 . S
S295 N297 1.610 . S
N296 S295 1.613 . S
N296 C299 1.350 . S
N297 S295 1.610 . S
N297 C298 1.351 . S
C298 C292 1.428 . S
C298 N297 1.351 . S
C298 C299 1.434 . S
C299 C290 1.429 . S
C299 N296 1.350 . S
C299 C298 1.434 . S
C300 C301 1.369 . S
C300 C302 1.419 1_655 S
C300 H304 0.930 . S
C301 C300 1.369 . S
C301 C310 1.429 . S
C302 C300 1.419 1_455 S
C302 C303 1.363 . S
C302 H305 0.929 . S
C303 C302 1.363 . S
C303 C309 1.428 . S
H304 C300 0.930 . S
H305 C302 0.929 . S
S306 N307 1.613 . S
S306 N308 1.610 1_655 S
N307 S306 1.613 . S
N307 C310 1.350 . S
N308 S306 1.610 1_455 S
N308 C309 1.351 . S
C309 C303 1.428 . S
C309 N308 1.351 . S
C309 C310 1.434 1_455 S
C310 C301 1.429 . S
C310 N307 1.350 . S
C310 C309 1.434 1_655 S
C311 C312 1.369 . S
C311 C313 1.419 1_545 S
C311 H315 0.930 . S
C312 C311 1.369 . S
C312 C321 1.429 . S
C313 C311 1.419 1_565 S
C313 C314 1.363 . S
C313 H316 0.929 . S
C314 C313 1.363 . S
C314 C320 1.428 . S
H315 C311 0.930 . S
H316 C313 0.929 . S
S317 N318 1.613 . S
S317 N319 1.610 1_545 S
N318 S317 1.613 . S
N318 C321 1.350 . S
N319 S317 1.610 1_565 S
N319 C320 1.351 . S
C320 C314 1.428 . S
C320 N319 1.351 . S
C320 C321 1.434 1_565 S
C321 C312 1.429 . S
C321 N318 1.350 . S
C321 C320 1.434 1_545 S
C322 C323 1.369 . S
C322 C324 1.419 . S
C322 H326 0.930 . S
C323 C322 1.369 . S
C323 C332 1.429 . S
C324 C322 1.419 . S
C324 C325 1.363 . S
C324 H327 0.929 . S
C325 C324 1.363 . S
C325 C331 1.428 . S
H326 C322 0.930 . S
H327 C324 0.929 . S
S328 N329 1.613 . S
S328 N330 1.610 . S
N329 S328 1.613 . S
N329 C332 1.350 . S
N330 S328 1.610 . S
N330 C331 1.351 . S
C331 C325 1.428 . S
C331 N330 1.351 . S
C331 C332 1.434 . S
C332 C323 1.429 . S
C332 N329 1.350 . S
C332 C331 1.434 . S
C333 C334 1.369 . S
C333 C335 1.419 1_545 S
C333 H337 0.930 . S
C334 C333 1.369 . S
C334 C343 1.429 . S
C335 C333 1.419 1_565 S
C335 C336 1.363 . S
C335 H338 0.929 . S
C336 C335 1.363 . S
C336 C342 1.428 . S
H337 C333 0.930 . S
H338 C335 0.929 . S
S339 N340 1.613 1_565 S
S339 N341 1.610 . S
N340 S339 1.613 1_545 S
N340 C343 1.350 . S
N341 S339 1.610 . S
N341 C342 1.351 . S
C342 C336 1.428 . S
C342 N341 1.351 . S
C342 C343 1.434 1_565 S
C343 C334 1.429 . S
C343 N340 1.350 . S
C343 C342 1.434 1_545 S
C344 C345 1.369 . S
C344 C346 1.419 . S
C344 H348 0.930 . S
C345 C344 1.369 . S
C345 C354 1.429 . S
C346 C344 1.419 . S
C346 C347 1.363 . S
C346 H349 0.929 . S
C347 C346 1.363 . S
C347 C353 1.428 . S
H348 C344 0.930 . S
H349 C346 0.929 . S
S350 N351 1.613 . S
S350 N352 1.610 . S
N351 S350 1.613 . S
N351 C354 1.350 . S
N352 S350 1.610 . S
N352 C353 1.351 . S
C353 C347 1.428 . S
C353 N352 1.351 . S
C353 C354 1.434 . S
C354 C345 1.429 . S
C354 N351 1.350 . S
C354 C353 1.434 . S
C355 C356 1.369 . S
C355 C357 1.419 1_455 S
C355 H359 0.930 . S
C356 C355 1.369 . S
C356 C365 1.429 . S
C357 C355 1.419 1_655 S
C357 C358 1.363 . S
C357 H360 0.929 . S
C358 C357 1.363 . S
C358 C364 1.428 . S
H359 C355 0.930 . S
H360 C357 0.929 . S
S361 N362 1.613 . S
S361 N363 1.610 1_455 S
N362 S361 1.613 . S
N362 C365 1.350 . S
N363 S361 1.610 1_655 S
N363 C364 1.351 . S
C364 C358 1.428 . S
C364 N363 1.351 . S
C364 C365 1.434 1_655 S
C365 C356 1.429 . S
C365 N362 1.350 . S
C365 C364 1.434 1_455 S
C366 C367 1.369 . S
C366 C368 1.419 . S
C366 H370 0.930 . S
C367 C366 1.369 . S
C367 C376 1.429 . S
C368 C366 1.419 . S
C368 C369 1.363 . S
C368 H371 0.929 . S
C369 C368 1.363 . S
C369 C375 1.428 . S
H370 C366 0.930 . S
H371 C368 0.929 . S
S372 N373 1.613 . S
S372 N374 1.610 . S
N373 S372 1.613 . S
N373 C376 1.350 . S
N374 S372 1.610 . S
N374 C375 1.351 . S
C375 C369 1.428 . S
C375 N374 1.351 . S
C375 C376 1.434 . S
C376 C367 1.429 . S
C376 N373 1.350 . S
C376 C375 1.434 . S
C377 C378 1.369 . S
C377 C379 1.419 1_655 S
C377 H381 0.930 . S
C378 C377 1.369 . S
C378 C387 1.429 . S
C379 C377 1.419 1_455 S
C379 C380 1.363 . S
C379 H382 0.929 . S
C380 C379 1.363 . S
C380 C386 1.428 . S
H381 C377 0.930 . S
H382 C379 0.929 . S
S383 N384 1.613 1_455 S
S383 N385 1.610 . S
N384 S383 1.613 1_655 S
N384 C387 1.350 . S
N385 S383 1.610 . S
N385 C386 1.351 . S
C386 C380 1.428 . S
C386 N385 1.351 . S
C386 C387 1.434 1_455 S
C387 C378 1.429 . S
C387 N384 1.350 . S
C387 C386 1.434 1_655 S
C388 C389 1.369 . S
C388 C390 1.419 1_545 S
C388 H392 0.930 . S
C389 C388 1.369 . S
C389 C398 1.429 . S
C390 C388 1.419 1_565 S
C390 C391 1.363 . S
C390 H393 0.929 . S
C391 C390 1.363 . S
C391 C397 1.428 . S
H392 C388 0.930 . S
H393 C390 0.929 . S
S394 N395 1.613 . S
S394 N396 1.610 1_545 S
N395 S394 1.613 . S
N395 C398 1.350 . S
N396 S394 1.610 1_565 S
N396 C397 1.351 . S
C397 C391 1.428 . S
C397 N396 1.351 . S
C397 C398 1.434 1_565 S
C398 C389 1.429 . S
C398 N395 1.350 . S
C398 C397 1.434 1_545 S
C399 C400 1.369 . S
C399 C401 1.419 . S
C399 H403 0.930 . S
C400 C399 1.369 . S
C400 C409 1.429 . S
C401 C399 1.419 . S
C401 C402 1.363 . S
C401 H404 0.929 . S
C402 C401 1.363 . S
C402 C408 1.428 . S
H403 C399 0.930 . S
H404 C401 0.929 . S
S405 N406 1.613 . S
S405 N407 1.610 . S
N406 S405 1.613 . S
N406 C409 1.350 . S
N407 S405 1.610 . S
N407 C408 1.351 . S
C408 C402 1.428 . S
C408 N407 1.351 . S
C408 C409 1.434 . S
C409 C400 1.429 . S
C409 N406 1.350 . S
C409 C408 1.434 . S
C410 C411 1.369 . S
C410 C412 1.419 1_455 S
C410 H414 0.930 . S
C411 C410 1.369 . S
C411 C420 1.429 . S
C412 C410 1.419 1_655 S
C412 C413 1.363 . S
C412 H415 0.929 . S
C413 C412 1.363 . S
C413 C419 1.428 . S
H414 C410 0.930 . S
H415 C412 0.929 . S
S416 N417 1.613 1_655 S
S416 N418 1.610 . S
N417 S416 1.613 1_455 S
N417 C420 1.350 . S
N418 S416 1.610 . S
N418 C419 1.351 . S
C419 C413 1.428 . S
C419 N418 1.351 . S
C419 C420 1.434 1_655 S
C420 C411 1.429 . S
C420 N417 1.350 . S
C420 C419 1.434 1_455 S
C421 C422 1.369 . S
C421 C423 1.419 1_565 S
C421 H425 0.930 . S
C422 C421 1.369 . S
C422 C431 1.429 . S
C423 C421 1.419 1_545 S
C423 C424 1.363 . S
C423 H426 0.929 . S
C424 C423 1.363 . S
C424 C430 1.428 . S
H425 C421 0.930 . S
H426 C423 0.929 . S
S427 N428 1.613 1_545 S
S427 N429 1.610 . S
N428 S427 1.613 1_565 S
N428 C431 1.350 . S
N429 S427 1.610 . S
N429 C430 1.351 . S
C430 C424 1.428 . S
C430 N429 1.351 . S
C430 C431 1.434 1_545 S
C431 C422 1.429 . S
C431 N428 1.350 . S
C431 C430 1.434 1_565 S
C169 C147 1.373 . S
C171 C7 1.378 . S
C180 C21 1.377 . S
C182 C161 1.375 . S
C191 C35 1.375 . S
C193 C91 1.379 . S
C202 C49 1.378 . S
C204 C105 1.377 . S
C213 C119 1.375 . S
C215 C63 1.379 . S
C224 C77 1.378 . S
C226 C133 1.374 . S
C235 C115 1.443 . S
C237 C3 1.439 . S
C246 C17 1.440 . S
C248 C129 1.440 . S
C257 C31 1.445 . S
C259 C143 1.437 . S
C268 C45 1.448 . S
C270 C157 1.439 . S
C279 C87 1.435 . S
C281 C59 1.447 . S
C290 C101 1.449 . S
C292 C73 1.437 . S
C301 C51 1.479 . S
C303 C9 1.484 . S
C312 C23 1.479 . S
C314 C65 1.484 . S
C323 C79 1.485 . S
C325 C37 1.480 . S
C334 C135 1.481 . S
C336 C93 1.482 . S
C345 C149 1.479 . S
C347 C107 1.484 . S
C356 C121 1.480 . S
C358 C163 1.484 . S
C367 C50 1.451 . S
C369 C8 1.451 . S
C378 C22 1.451 . S
C380 C64 1.451 . S
C389 C78 1.451 . S
C391 C36 1.451 . S
C400 C92 1.451 . S
C402 C134 1.451 . S
C411 C148 1.451 . S
C413 C106 1.451 . S
C422 C120 1.451 . S
C424 C162 1.451 . S
