# Generated by pormake.
# Topology wiu, (6)-cn, num edge types: 1
# Building blocks:
#     Node 0, Type 0, BuildingBlock: KUMJIN_clean_sbu_1, # of connection points: 6
#     Node 1, Type 0, BuildingBlock: KUMJIN_clean_sbu_1, # of connection points: 6
#     Node 2, Type 0, BuildingBlock: KUMJIN_clean_sbu_1, # of connection points: 6
#     Node 3, Type 0, BuildingBlock: KUMJIN_clean_sbu_1, # of connection points: 6
#     Node 4, Type 0, BuildingBlock: KUMJIN_clean_sbu_1, # of connection points: 6
#     Node 5, Type 0, BuildingBlock: KUMJIN_clean_sbu_1, # of connection points: 6
#     Node 6, Type 0, BuildingBlock: KUMJIN_clean_sbu_1, # of connection points: 6
#     Node 7, Type 0, BuildingBlock: KUMJIN_clean_sbu_1, # of connection points: 6
#     Node 8, Type 0, BuildingBlock: KUMJIN_clean_sbu_1, # of connection points: 6
#     Node 9, Type 0, BuildingBlock: KUMJIN_clean_sbu_1, # of connection points: 6
#     Node 10, Type 0, BuildingBlock: KUMJIN_clean_sbu_1, # of connection points: 6
#     Node 11, Type 0, BuildingBlock: KUMJIN_clean_sbu_1, # of connection points: 6
#     Node 12, Type 0, BuildingBlock: KUMJIN_clean_sbu_1, # of connection points: 6
#     Node 13, Type 0, BuildingBlock: KUMJIN_clean_sbu_1, # of connection points: 6
#     Node 14, Type 0, BuildingBlock: KUMJIN_clean_sbu_1, # of connection points: 6
#     Node 15, Type 0, BuildingBlock: KUMJIN_clean_sbu_1, # of connection points: 6
#     Edge 16, Type (0, 0), BuildingBlock: TEMPAE_clean_linker_10, # of connection points: 2
#     Edge 17, Type (0, 0), BuildingBlock: TEMPAE_clean_linker_10, # of connection points: 2
#     Edge 18, Type (0, 0), BuildingBlock: TEMPAE_clean_linker_10, # of connection points: 2
#     Edge 19, Type (0, 0), BuildingBlock: TEMPAE_clean_linker_10, # of connection points: 2
#     Edge 20, Type (0, 0), BuildingBlock: TEMPAE_clean_linker_10, # of connection points: 2
#     Edge 21, Type (0, 0), BuildingBlock: TEMPAE_clean_linker_10, # of connection points: 2
#     Edge 22, Type (0, 0), BuildingBlock: TEMPAE_clean_linker_10, # of connection points: 2
#     Edge 23, Type (0, 0), BuildingBlock: TEMPAE_clean_linker_10, # of connection points: 2
#     Edge 24, Type (0, 0), BuildingBlock: TEMPAE_clean_linker_10, # of connection points: 2
#     Edge 25, Type (0, 0), BuildingBlock: TEMPAE_clean_linker_10, # of connection points: 2
#     Edge 26, Type (0, 0), BuildingBlock: TEMPAE_clean_linker_10, # of connection points: 2
#     Edge 27, Type (0, 0), BuildingBlock: TEMPAE_clean_linker_10, # of connection points: 2
#     Edge 28, Type (0, 0), BuildingBlock: TEMPAE_clean_linker_10, # of connection points: 2
#     Edge 29, Type (0, 0), BuildingBlock: TEMPAE_clean_linker_10, # of connection points: 2
#     Edge 30, Type (0, 0), BuildingBlock: TEMPAE_clean_linker_10, # of connection points: 2
#     Edge 31, Type (0, 0), BuildingBlock: TEMPAE_clean_linker_10, # of connection points: 2
#     Edge 32, Type (0, 0), BuildingBlock: TEMPAE_clean_linker_10, # of connection points: 2
#     Edge 33, Type (0, 0), BuildingBlock: TEMPAE_clean_linker_10, # of connection points: 2
#     Edge 34, Type (0, 0), BuildingBlock: TEMPAE_clean_linker_10, # of connection points: 2
#     Edge 35, Type (0, 0), BuildingBlock: TEMPAE_clean_linker_10, # of connection points: 2
#     Edge 36, Type (0, 0), BuildingBlock: TEMPAE_clean_linker_10, # of connection points: 2
#     Edge 37, Type (0, 0), BuildingBlock: TEMPAE_clean_linker_10, # of connection points: 2
#     Edge 38, Type (0, 0), BuildingBlock: TEMPAE_clean_linker_10, # of connection points: 2
#     Edge 39, Type (0, 0), BuildingBlock: TEMPAE_clean_linker_10, # of connection points: 2
#     Edge 40, Type (0, 0), BuildingBlock: TEMPAE_clean_linker_10, # of connection points: 2
#     Edge 41, Type (0, 0), BuildingBlock: TEMPAE_clean_linker_10, # of connection points: 2
#     Edge 42, Type (0, 0), BuildingBlock: TEMPAE_clean_linker_10, # of connection points: 2
#     Edge 43, Type (0, 0), BuildingBlock: TEMPAE_clean_linker_10, # of connection points: 2
#     Edge 44, Type (0, 0), BuildingBlock: TEMPAE_clean_linker_10, # of connection points: 2
#     Edge 45, Type (0, 0), BuildingBlock: TEMPAE_clean_linker_10, # of connection points: 2
#     Edge 46, Type (0, 0), BuildingBlock: TEMPAE_clean_linker_10, # of connection points: 2
#     Edge 47, Type (0, 0), BuildingBlock: TEMPAE_clean_linker_10, # of connection points: 2
#     Edge 48, Type (0, 0), BuildingBlock: TEMPAE_clean_linker_10, # of connection points: 2
#     Edge 49, Type (0, 0), BuildingBlock: TEMPAE_clean_linker_10, # of connection points: 2
#     Edge 50, Type (0, 0), BuildingBlock: TEMPAE_clean_linker_10, # of connection points: 2
#     Edge 51, Type (0, 0), BuildingBlock: TEMPAE_clean_linker_10, # of connection points: 2
#     Edge 52, Type (0, 0), BuildingBlock: TEMPAE_clean_linker_10, # of connection points: 2
#     Edge 53, Type (0, 0), BuildingBlock: TEMPAE_clean_linker_10, # of connection points: 2
#     Edge 54, Type (0, 0), BuildingBlock: TEMPAE_clean_linker_10, # of connection points: 2
#     Edge 55, Type (0, 0), BuildingBlock: TEMPAE_clean_linker_10, # of connection points: 2
#     Edge 56, Type (0, 0), BuildingBlock: TEMPAE_clean_linker_10, # of connection points: 2
#     Edge 57, Type (0, 0), BuildingBlock: TEMPAE_clean_linker_10, # of connection points: 2
#     Edge 58, Type (0, 0), BuildingBlock: TEMPAE_clean_linker_10, # of connection points: 2
#     Edge 59, Type (0, 0), BuildingBlock: TEMPAE_clean_linker_10, # of connection points: 2
#     Edge 60, Type (0, 0), BuildingBlock: TEMPAE_clean_linker_10, # of connection points: 2
#     Edge 61, Type (0, 0), BuildingBlock: TEMPAE_clean_linker_10, # of connection points: 2
#     Edge 62, Type (0, 0), BuildingBlock: TEMPAE_clean_linker_10, # of connection points: 2
#     Edge 63, Type (0, 0), BuildingBlock: TEMPAE_clean_linker_10, # of connection points: 2
# Relax obj value: 0.343
# Max RMSD: 0.281
# Mean RMSD: 0.281
data_MOF--net-wiu--node1-KUMJIN_clean_sbu_1--edge1-TEMPAE_clean_linker_10
_symmetry_space_group_name_H-M    P1
_symmetry_Int_Tables_number       1
_symmetry_cell_setting            triclinic
loop_
_symmetry_equiv_pos_as_xyz
'x, y, z'
_cell_length_a     38.416015
_cell_length_b     38.406183
_cell_length_c     56.178291
_cell_angle_alpha  89.985818
_cell_angle_beta   89.796128
_cell_angle_gamma 90.127796
loop_
_atom_site_label
_atom_site_type_symbol
_atom_site_fract_x
_atom_site_fract_y
_atom_site_fract_z
_atom_type_partial_charge
Eu0 Eu 0.38694 0.09588 0.20121 0.0
C1 C 0.30651 0.21793 0.17944 0.0
N2 N 0.33559 0.19961 0.18582 0.0
C3 C 0.36703 0.22414 0.15284 0.0
C4 C 0.30703 0.2402 0.15947 0.0
C5 C 0.36528 0.20184 0.17245 0.0
C6 C 0.338 0.24378 0.14653 0.0
C7 C 0.24373 0.22577 0.18278 0.0
C8 C 0.27498 0.21115 0.19121 0.0
C9 C 0.24476 0.24957 0.16384 0.0
C10 C 0.27631 0.25691 0.15231 0.0
Eu11 Eu 0.3295 0.16895 0.22241 0.0
N12 N 0.27441 0.18726 0.20916 0.0
C13 C 0.21216 0.2146 0.1928 0.0
C14 C 0.2437 0.17499 0.21819 0.0
C15 C 0.21212 0.18865 0.21025 0.0
H16 H 0.38782 0.18674 0.17672 0.0
H17 H 0.1878 0.17935 0.2177 0.0
H18 H 0.34007 0.04258 0.16603 0.0
H19 H 0.49895 0.06198 0.25581 0.0
H20 H 0.24383 0.15568 0.23215 0.0
H21 H 0.18761 0.22502 0.18663 0.0
H22 H 0.46015 0.10067 0.2331 0.0
H23 H 0.3908 0.22605 0.14252 0.0
H24 H 0.22105 0.26145 0.15735 0.0
H25 H 0.2764 0.27441 0.13718 0.0
H26 H 0.32767 0.98007 0.16168 0.0
H27 H 0.33943 0.26071 0.13112 0.0
H28 H 0.48709 0.99866 0.25733 0.0
N29 N 0.37566 0.03583 0.19462 0.0
C30 C 0.39384 1.01268 0.20781 0.0
C31 C 0.34615 0.98886 0.1749 0.0
C32 C 0.38831 0.97652 0.20549 0.0
C33 C 0.35314 0.02439 0.17753 0.0
C34 C 0.36351 0.96479 0.18915 0.0
N35 N 0.42601 0.0599 0.22244 0.0
C36 C 0.45468 0.07311 0.23363 0.0
C37 C 0.4416 1.00199 0.23478 0.0
C38 C 0.41998 0.02516 0.22222 0.0
C39 C 0.46987 0.01557 0.24742 0.0
C40 C 0.47674 0.05126 0.24653 0.0
H41 H 0.35843 0.93724 0.18686 0.0
H42 H 0.40461 0.92543 0.21742 0.0
H43 H 0.45135 0.94779 0.24316 0.0
O44 O 0.40286 0.12508 0.16958 0.0
O45 O 0.3894 0.102 0.24214 0.0
O46 O 0.3376 0.12734 0.2529 0.0
O47 O 0.42898 0.07681 0.1793 0.0
O48 O 0.42218 0.1422 0.21197 0.0
O49 O 0.38607 0.18791 0.2203 0.0
O50 O 0.29631 0.20663 0.24148 0.0
O51 O 0.30852 0.14874 0.18578 0.0
O52 O 0.34443 0.10504 0.17246 0.0
O53 O 0.35121 0.20564 0.24809 0.0
O54 O 0.30455 0.11809 0.23275 0.0
O55 O 0.32936 0.08031 0.20554 0.0
C56 C 0.3644 0.10656 0.25808 0.0
C57 C 0.41662 0.08476 0.13876 0.0
C58 C 0.41698 0.03358 0.11314 0.0
C59 C 0.40001 0.05249 1.09529 0.0
C60 C 0.39933 0.10352 0.12088 0.0
C61 C 0.39114 0.08738 1.09924 0.0
C62 C 0.42561 0.04998 0.1345 0.0
C63 C 0.41753 0.17531 0.21728 0.0
C64 C 0.42327 0.09972 0.16252 0.0
C65 C 0.40858 0.95329 0.21885 0.0
C66 C 0.43519 0.96602 0.23351 0.0
C67 C 0.31743 0.1259 0.16917 0.0
C68 C 0.3264 0.26027 0.24024 0.0
C69 C 0.30972 0.32152 0.2394 0.0
C70 C 0.33305 0.32703 0.22041 0.0
C71 C 0.34997 0.26699 0.22149 0.0
C72 C 0.30584 0.28775 0.24905 0.0
C73 C 0.35301 0.29992 0.21157 0.0
C74 C 0.30327 0.08984 0.21951 0.0
C75 C 0.32287 0.22414 0.24919 0.0
H76 H 0.39365 0.04033 1.07847 0.0
H77 H 0.39174 0.13035 0.12374 0.0
H78 H 0.37769 0.10189 1.08557 0.0
H79 H 0.43961 0.03528 0.14789 0.0
H80 H 0.33582 0.35251 0.21232 0.0
H81 H 0.36612 0.24681 0.21415 0.0
H82 H 0.28748 0.28308 0.26339 0.0
H83 H 0.37096 0.30444 0.19699 0.0
Eu84 Eu 0.67122 0.63492 0.44269 0.0
C85 C 0.55726 0.53862 0.42787 0.0
N86 N 0.56593 0.57165 0.43476 0.0
C87 C 0.52277 0.59496 0.40837 0.0
C88 C 0.53183 0.53286 0.41021 0.0
C89 C 0.54807 0.59953 0.4259 0.0
C90 C 0.51475 0.56155 0.40039 0.0
C91 C 0.56811 0.47622 0.42975 0.0
C92 C 0.575 0.51037 0.43773 0.0
C93 C 0.5424 0.47057 0.41249 0.0
C94 C 0.52434 0.49877 0.40277 0.0
Eu95 Eu 0.60639 0.57486 0.46666 0.0
N96 N 0.60056 0.51653 0.45394 0.0
C97 C 0.58792 0.44876 0.43888 0.0
C98 C 0.61985 0.4898 0.46297 0.0
C99 C 0.61397 0.45562 0.45548 0.0
H100 H 0.55289 0.62557 0.43214 0.0
H101 H 0.62934 0.43454 0.46269 0.0
H102 H 0.68414 0.62464 0.3843 0.0
H103 H 0.73146 0.73352 0.49982 0.0
H104 H 0.63925 0.49454 0.47642 0.0
H105 H 0.58348 0.42221 0.43309 0.0
H106 H 0.68605 0.6926 0.48708 0.0
H107 H 0.50925 0.61727 0.40115 0.0
H108 H 0.5367 0.4445 0.40623 0.0
H109 H 0.50485 0.49395 0.38926 0.0
H110 H 0.72926 0.63648 0.35403 0.0
H111 H 0.49512 0.55816 0.38678 0.0
H112 H 0.78283 0.74433 0.47415 0.0
N113 N 0.71165 0.64981 0.41228 0.0
C114 C 0.73896 0.67034 0.418 0.0
C115 C 0.7326 0.64584 0.37205 0.0
C116 C 0.76509 0.67855 0.40121 0.0
C117 C 0.70728 0.6388 0.38937 0.0
C118 C 0.762 0.66533 0.37811 0.0
N119 N 0.71165 0.67883 0.45465 0.0
C120 C 0.70826 0.69673 0.47559 0.0
C121 C 0.76547 0.7091 0.44651 0.0
C122 C 0.73901 0.68542 0.44009 0.0
C123 C 0.76303 0.726 0.4685 0.0
C124 C 0.73403 0.72009 0.48297 0.0
H125 H 0.78144 0.67106 0.36464 0.0
H126 H 0.81309 0.70712 0.39524 0.0
H127 H 0.81351 0.73385 0.43512 0.0
O128 O 0.61993 0.62343 0.42845 0.0
O129 O 0.6859 0.62838 0.48218 0.0
O130 O 0.64212 0.59455 0.49847 0.0
O131 O 0.6442 0.67368 0.42194 0.0
O132 O 0.63473 0.66686 0.46729 0.0
O133 O 0.58628 0.63196 0.46704 0.0
O134 O 0.58919 0.53938 0.49501 0.0
O135 O 0.62608 0.55726 0.42802 0.0
O136 O 0.67685 0.58638 0.41836 0.0
O137 O 0.55423 0.58016 0.48241 0.0
O138 O 0.65969 0.55468 0.47573 0.0
O139 O 0.69632 0.58184 0.44865 0.0
C140 C 0.67144 0.61329 0.50093 0.0
C141 C 0.60743 0.65279 0.39194 0.0
C142 C 0.60393 0.68672 0.35552 0.0
C143 C 0.59788 0.65611 0.34251 0.0
C144 C 0.60071 0.62224 0.37899 0.0
C145 C 0.59538 0.62407 0.35437 0.0
C146 C 0.60719 0.68479 0.38024 0.0
C147 C 0.60039 0.66331 0.46897 0.0
C148 C 0.61811 0.65294 0.41702 0.0
C149 C 0.79254 0.70074 0.40778 0.0
C150 C 0.79277 0.71598 0.43046 0.0
C151 C 0.65321 0.56208 0.41333 0.0
C152 C 0.53155 0.54119 0.51281 0.0
C153 C 0.47221 0.52142 0.52117 0.0
C154 C 0.4822 0.51459 0.54479 0.0
C155 C 0.54091 0.53366 0.53631 0.0
C156 C 0.49702 0.5355 0.50525 0.0
C157 C 0.51622 0.52079 0.55227 0.0
C158 C 0.68862 0.55602 0.46328 0.0
C159 C 0.5585 0.55333 0.49616 0.0
H160 H 0.5961 0.6569 0.32329 0.0
H161 H 0.60036 0.59707 0.38762 0.0
H162 H 0.5908 0.60045 0.34435 0.0
H163 H 0.61305 0.70823 0.39028 0.0
H164 H 0.46359 0.50434 0.55754 0.0
H165 H 0.56736 0.53783 0.54234 0.0
H166 H 0.48993 0.5406 0.48691 0.0
H167 H 0.52357 0.51525 0.57045 0.0
Eu168 Eu 0.15105 0.93469 0.69711 0.0
C169 C 0.23882 0.81994 0.67708 0.0
N170 N 0.20653 0.82874 0.68561 0.0
C171 C 0.17994 0.79578 0.65415 0.0
C172 C 0.24247 0.79972 0.65621 0.0
C173 C 0.17744 0.81588 0.6748 0.0
C174 C 0.21252 0.78785 0.64472 0.0
C175 C 0.30203 0.82522 0.67934 0.0
C176 C 0.2686 0.83241 0.68861 0.0
C177 C 0.30541 0.80484 0.65876 0.0
C178 C 0.27577 0.79214 0.64726 0.0
Eu179 Eu 0.20746 0.86163 0.72169 0.0
N180 N 0.26484 0.85339 0.70798 0.0
C181 C 0.33117 0.8395 0.69067 0.0
C182 C 0.29317 0.86687 0.71932 0.0
C183 C 0.3267 0.86038 0.71076 0.0
H184 H 0.15215 0.81998 0.68196 0.0
H185 H 0.34907 0.87128 0.71977 0.0
H186 H 0.17916 1.00914 0.72125 0.0
H187 H 0.01584 0.89519 0.68009 0.0
H188 H 0.28997 0.88194 0.73535 0.0
H189 H 0.35721 0.83467 0.684 0.0
H190 H 0.0786 0.89884 0.67144 0.0
H191 H 0.15661 0.78606 0.64566 0.0
H192 H 0.33087 0.79911 0.65141 0.0
H193 H 0.27888 0.77667 0.63127 0.0
H194 H 0.15548 0.05748 0.7455 0.0
H195 H 0.21427 0.77227 0.62869 0.0
H196 H 0.99009 0.93229 0.71148 0.0
N197 N 0.13156 0.98081 0.72114 0.0
C198 C 0.09703 0.98057 0.72668 0.0
C199 C 0.1389 0.03588 0.74052 0.0
C200 C 0.08246 1.00767 0.7404 0.0
C201 C 0.15225 1.00851 0.72692 0.0
C202 C 0.10396 0.0353 0.7475 0.0
N203 N 0.08955 0.93189 0.70097 0.0
C204 C 0.06813 0.91303 0.68644 0.0
C205 C 0.03941 0.95573 0.72109 0.0
C206 C 0.07566 0.95488 0.71686 0.0
C207 C 0.01799 0.93262 0.70859 0.0
C208 C 0.03236 0.91173 0.69081 0.0
H209 H 0.09366 0.05666 0.75794 0.0
H210 H 0.03533 0.02725 0.75683 0.0
H211 H 0.99769 0.98168 0.74008 0.0
O212 O 0.12255 0.97439 0.67786 0.0
O213 O 0.15746 0.9398 0.73831 0.0
O214 O 0.19054 0.89541 0.75454 0.0
O215 O 0.17387 0.96137 0.66603 0.0
O216 O 0.1273 0.87917 0.69411 0.0
O217 O 0.14821 0.85185 0.72681 0.0
O218 O 0.23973 0.83864 0.74947 0.0
O219 O 0.22835 0.89008 0.68752 0.0
O220 O 0.17844 0.90198 0.66793 0.0
O221 O 0.20298 0.80619 0.73024 0.0
O222 O 0.23196 0.91267 0.7323 0.0
O223 O 0.20626 0.95181 0.70626 0.0
C224 C 0.17175 0.92442 0.75708 0.0
C225 C 0.13121 0.97178 0.6366 0.0
C226 C 0.08147 0.96068 0.61079 0.0
C227 C 0.10377 0.96111 0.59092 0.0
C228 C 0.15316 0.97264 0.61661 0.0
C229 C 0.13945 0.96703 0.59389 0.0
C230 C 0.09548 0.96582 0.63345 0.0
C231 C 0.12281 0.8561 0.71136 0.0
C232 C 0.14502 0.97703 0.66076 0.0
C233 C 0.04682 1.00702 0.74592 0.0
C234 C 0.0254 0.98098 0.73642 0.0
C235 C 0.21261 0.89766 0.66728 0.0
C236 C 0.22949 0.78134 0.76459 0.0
C237 C 0.24486 0.72229 0.77633 0.0
C238 C 0.23901 0.73138 0.80024 0.0
C239 C 0.22337 0.79006 0.78844 0.0
C240 C 0.2397 0.74739 0.75857 0.0
C241 C 0.228 0.765 0.80619 0.0
C242 C 0.2316 0.94249 0.72073 0.0
C243 C 0.2282 0.80729 0.74559 0.0
H244 H 0.09348 0.95778 0.57315 0.0
H245 H 0.18078 0.97757 0.61857 0.0
H246 H 0.1564 0.96792 0.57849 0.0
H247 H 0.07801 0.96676 0.64863 0.0
H248 H 0.24282 0.71244 0.81427 0.0
H249 H 0.21556 0.81621 0.79331 0.0
H250 H 0.24491 0.74087 0.7401 0.0
H251 H 0.22347 0.77176 0.82464 0.0
Eu252 Eu 0.86768 0.40505 0.94492 0.0
C253 C 0.98465 0.49193 0.92615 0.0
N254 N 0.97494 0.46066 0.93582 0.0
C255 C 0.01866 0.43177 0.91231 0.0
C256 C 1.01093 0.49378 0.90853 0.0
C257 C 0.99293 0.43112 0.92992 0.0
C258 C 0.0275 0.46314 0.90141 0.0
C259 C 0.9775 0.5549 0.92371 0.0
C260 C 0.96829 0.52244 0.93378 0.0
C261 C 1.00363 0.55654 0.90626 0.0
C262 C 0.02023 0.52611 0.89867 0.0
Eu263 Eu 0.93286 0.46484 0.96719 0.0
N264 N 0.94196 0.52018 0.95001 0.0
C265 C 0.95936 0.5847 0.93092 0.0
C266 C 0.92445 0.54922 0.95726 0.0
C267 C 0.9327 0.58181 0.94774 0.0
H268 H 0.98794 0.40663 0.93853 0.0
H269 H 0.91876 0.60474 0.95358 0.0
H270 H 0.85969 0.4123 0.886 0.0
H271 H 0.8026 0.31039 1.00296 0.0
H272 H 0.90474 0.54747 0.97087 0.0
H273 H 0.96559 0.61001 0.9235 0.0
H274 H 0.84823 0.3516 0.99094 0.0
H275 H 0.03205 0.40805 0.90739 0.0
H276 H 1.01094 0.58121 0.89831 0.0
H277 H 0.04031 0.52786 0.88513 0.0
H278 H 0.81851 0.39688 0.8542 0.0
H279 H 0.04768 0.46352 0.88789 0.0
H280 H 0.75523 0.29527 0.97506 0.0
N281 N 0.83041 0.3876 0.91342 0.0
C282 C 0.80331 0.36637 0.91853 0.0
C283 C 0.81362 0.38842 0.87228 0.0
C284 C 0.7794 0.3561 0.90086 0.0
C285 C 0.83674 0.39742 0.89044 0.0
C286 C 0.78439 0.36817 0.87759 0.0
N287 N 0.82645 0.36167 0.95671 0.0
C288 C 0.8276 0.3459 0.97854 0.0
C289 C 0.77485 0.32876 0.94703 0.0
C290 C 0.80122 0.35289 0.94107 0.0
C291 C 0.77503 0.31387 0.96974 0.0
C292 C 0.80175 0.32225 0.98549 0.0
H293 H 0.76663 0.36096 0.86349 0.0
H294 H 0.73348 0.32504 0.89353 0.0
H295 H 0.72935 0.30116 0.93416 0.0
O296 O 0.91931 0.41801 0.93159 0.0
O297 O 0.85303 0.4142 0.98411 0.0
O298 O 0.89916 0.445 0.99994 0.0
O299 O 0.89841 0.36613 0.92674 0.0
O300 O 0.90205 0.3727 0.9703 0.0
O301 O 0.95102 0.40722 0.97132 0.0
O302 O 0.94775 0.50281 0.99436 0.0
O303 O 0.9108 0.48297 0.9293 0.0
O304 O 0.86112 0.45207 0.9196 0.0
O305 O 0.98569 0.46554 0.98161 0.0
O306 O 0.88026 0.48772 0.97569 0.0
O307 O 0.84174 0.4578 0.95147 0.0
C308 C 0.86887 0.42806 1.00269 0.0
C309 C 0.93744 0.38481 0.89764 0.0
C310 C 0.93538 0.34022 0.86758 0.0
C311 C 0.92936 0.36609 0.85019 0.0
C312 C 0.93188 0.41074 0.88055 0.0
C313 C 0.92961 0.40139 0.85656 0.0
C314 C 0.94576 0.35121 0.89023 0.0
C315 C 0.93618 0.37611 0.97333 0.0
C316 C 0.92405 0.3875 0.92201 0.0
C317 C 0.75222 0.33315 0.90681 0.0
C318 C 0.7499 0.31952 0.92991 0.0
C319 C 0.88391 0.47721 0.91466 0.0
C320 C 1.00136 0.4987 1.01581 0.0
C321 C 0.05803 0.51545 1.03139 0.0
C322 C 0.04335 0.51809 1.05425 0.0
C323 C 0.98698 0.50096 1.03871 0.0
C324 C 0.03691 0.50542 1.01231 0.0
C325 C 1.00807 0.51047 1.05789 0.0
C326 C 0.8502 0.485 0.96472 0.0
C327 C 0.97998 0.49274 0.99471 0.0
H328 H 0.92176 0.35938 0.83225 0.0
H329 H 0.92688 0.43735 0.88576 0.0
H330 H 0.92419 0.4211 0.84331 0.0
H331 H 0.95264 0.33219 0.90368 0.0
H332 H 0.0592 0.52592 1.06924 0.0
H333 H 0.95953 0.49599 1.04166 0.0
H334 H 0.04788 0.50424 0.99449 0.0
H335 H 0.99694 0.51247 1.07555 0.0
Eu336 Eu 0.70823 0.85681 0.99737 0.0
C337 C 0.61632 0.99228 1.04485 0.0
N338 N 0.63543 0.96408 1.05066 0.0
C339 C 0.63926 0.98433 1.09101 0.0
C340 C 0.60885 0.01851 1.06165 0.0
C341 C 0.64558 0.95895 1.07367 0.0
C342 C 0.62131 0.0146 1.08487 0.0
C343 C 0.57921 0.02042 1.01615 0.0
C344 C 0.60171 0.99308 1.02267 0.0
C345 C 0.57321 0.04785 1.0322 0.0
C346 C 0.58799 0.04686 1.05497 0.0
Eu347 Eu 0.6493 0.92337 1.02029 0.0
N348 N 0.60734 0.96554 1.00817 0.0
C349 C 0.56246 0.01864 0.99413 0.0
C350 C 0.58941 0.96275 0.98726 0.0
C351 C 0.56723 0.9894 0.97976 0.0
H352 H 0.65853 0.93517 1.07878 0.0
H353 H 0.55379 0.9873 0.96292 0.0
H354 H 0.65536 0.80561 1.03231 0.0
H355 H 0.849 0.87734 1.00233 0.0
H356 H 0.59256 0.9403 0.97591 0.0
H357 H 0.54501 0.03911 0.9884 0.0
H358 H 0.78955 0.88868 0.98824 0.0
H359 H 0.64796 0.98037 0.10911 0.0
H360 H 0.55627 0.06926 1.02747 0.0
H361 H 0.58221 0.0675 1.06752 0.0
H362 H 0.66197 0.76195 1.06358 0.0
H363 H 0.6161 0.03409 1.09835 0.0
H364 H 0.85956 0.83088 1.03188 0.0
N365 N 0.70964 0.81737 1.02993 0.0
C366 C 0.74234 0.80773 1.03683 0.0
C367 C 0.68475 0.77488 1.05638 0.0
C368 C 0.74714 0.78214 1.05454 0.0
C369 C 0.68113 0.80026 1.03876 0.0
C370 C 0.71783 0.76591 1.06441 0.0
N371 N 0.7661 0.85049 1.01068 0.0
C372 C 0.7935 0.86921 1.00179 0.0
C373 C 0.8051 0.81684 1.035 0.0
C374 C 0.77126 0.82469 1.02694 0.0
C375 C 0.83324 0.83604 1.02601 0.0
C376 C 0.82737 0.86245 1.00944 0.0
H377 H 0.72047 0.74618 1.07807 0.0
H378 H 0.78498 0.75394 1.07552 0.0
H379 H 0.83557 0.78438 1.05855 0.0
O380 O 0.74477 0.83577 0.97115 0.0
O381 O 0.72486 0.87626 1.03602 0.0
O382 O 0.69752 0.92806 1.04491 0.0
O383 O 0.70052 0.80453 0.98248 0.0
O384 O 0.72971 0.90946 0.98738 0.0
O385 O 0.70338 0.94665 1.01439 0.0
O386 O 0.65838 0.8721 1.0354 0.0
O387 O 0.65658 0.9365 0.98061 0.0
O388 O 0.68976 0.8918 0.96491 0.0
O389 O 0.60844 0.89758 1.04011 0.0
O390 O 0.61753 0.88775 0.99512 0.0
O391 O 0.65068 0.83832 0.99673 0.0
C392 C 0.72076 0.90371 1.05037 0.0
C393 C 0.73551 0.78192 0.95062 0.0
C394 C 0.75273 0.72409 0.93709 0.0
C395 C 0.75164 0.73615 0.91346 0.0
C396 C 0.73433 0.79355 0.92704 0.0
C397 C 0.74225 0.77059 0.90851 0.0
C398 C 0.74428 0.74718 0.95559 0.0
C399 C 0.72915 0.93836 0.99985 0.0
C400 C 0.72956 0.80555 0.97061 0.0
C401 C 0.78091 0.7736 1.06199 0.0
C402 C 0.80976 0.79085 1.05225 0.0
C403 C 0.67143 0.92124 0.96208 0.0
C404 C 0.62577 0.86026 1.07081 0.0
C405 C 0.58851 0.85654 1.10576 0.0
C406 C 0.61781 0.84993 0.11994 0.0
C407 C 0.65501 0.85316 1.08492 0.0
C408 C 0.59276 0.86016 1.08119 0.0
C409 C 0.65084 0.8474 0.10939 0.0
C410 C 0.61999 0.85331 0.9939 0.0
C411 C 0.62799 0.87101 1.04579 0.0
H412 H 0.75791 0.71889 0.89883 0.0
H413 H 0.72764 0.82029 0.92301 0.0
H414 H 0.74144 0.77958 0.89027 0.0
H415 H 0.74565 0.73846 0.97394 0.0
H416 H 0.61524 0.84777 0.13908 0.0
H417 H 0.68091 0.85287 1.07731 0.0
H418 H 0.57037 0.86636 1.07023 0.0
H419 H 0.67343 0.84246 0.12033 0.0
Eu420 Eu 0.42195 0.45853 0.74286 0.0
C421 C 0.26526 0.38398 0.76265 0.0
N422 N 0.28794 0.40601 0.7733 0.0
C423 C 0.23994 0.4358 0.7919 0.0
C424 C 0.22894 0.38717 0.76597 0.0
C425 C 0.27564 0.431 0.78853 0.0
C426 C 0.21641 0.41399 0.78039 0.0
C427 C 0.2561 0.33296 0.73827 0.0
C428 C 0.27853 0.35748 0.749 0.0
C429 C 0.21994 0.33624 0.74115 0.0
C430 C 0.20636 0.36334 0.75499 0.0
Eu431 Eu 0.34819 0.40071 0.76276 0.0
N432 N 0.31352 0.35499 0.74683 0.0
C433 C 0.27072 0.30564 0.72523 0.0
C434 C 0.32792 0.32765 0.73475 0.0
C435 C 0.30683 0.30284 0.72364 0.0
H436 H 0.2928 0.44803 0.79806 0.0
H437 H 0.31848 0.28154 0.71385 0.0
H438 H 0.45732 0.42031 0.79275 0.0
H439 H 0.41693 0.59587 0.71822 0.0
H440 H 0.35571 0.32473 0.73338 0.0
H441 H 0.25442 0.28635 0.71665 0.0
H442 H 0.40601 0.53271 0.71345 0.0
H443 H 0.23062 0.45625 0.80353 0.0
H444 H 0.2023 0.31775 0.73299 0.0
H445 H 0.17843 0.36541 0.75732 0.0
H446 H 0.49438 0.43744 0.82609 0.0
H447 H 0.18873 0.41756 0.78321 0.0
H448 H 0.45264 0.61696 0.75182 0.0
N449 N 0.45487 0.47138 0.7777 0.0
C450 C 0.4652 0.50533 0.7798 0.0
C451 C 0.48642 0.45673 0.81317 0.0
C452 C 0.48599 0.51616 0.7991 0.0
C453 C 0.46547 0.44708 0.794 0.0
C454 C 0.4968 0.49133 0.81571 0.0
N455 N 0.43249 0.51893 0.74512 0.0
C456 C 0.42014 0.54202 0.72876 0.0
C457 C 0.46072 0.56542 0.76644 0.0
C458 C 0.45269 0.52981 0.76357 0.0
C459 C 0.44724 0.58937 0.7501 0.0
C460 C 0.42694 0.5776 0.73116 0.0
H461 H 0.51275 0.4987 0.83077 0.0
H462 H 0.51043 0.56026 0.8164 0.0
H463 H 0.48824 0.60331 0.78792 0.0
O464 O 0.46399 0.48491 0.72311 0.0
O465 O 0.40284 0.47476 0.7809 0.0
O466 O 0.35107 0.44707 0.78915 0.0
O467 O 0.4587 0.42934 0.7208 0.0
O468 O 0.37076 0.48255 0.7318 0.0
O469 O 0.33108 0.4571 0.75758 0.0
O470 O 0.38974 0.39537 0.78898 0.0
O471 O 0.34638 0.4021 0.72219 0.0
O472 O 0.38333 0.44701 0.71063 0.0
O473 O 0.34585 0.35925 0.78885 0.0
O474 O 0.39185 0.37244 0.74175 0.0
O475 O 0.43737 0.40355 0.75499 0.0
C476 C 0.37543 0.47 0.79494 0.0
C477 C 0.51517 0.45196 0.72747 0.0
C478 C 0.57664 0.46867 0.72919 0.0
C479 C 0.58079 0.44667 0.74901 0.0
C480 C 0.52053 0.4301 0.74723 0.0
C481 C 0.55296 0.42751 0.75786 0.0
C482 C 0.54343 0.47166 0.71859 0.0
C483 C 0.34144 0.48326 0.74403 0.0
C484 C 0.47949 0.45593 0.71788 0.0
C485 C 0.49452 0.55152 0.80166 0.0
C486 C 0.48178 0.57607 0.78548 0.0
C487 C 0.35812 0.42369 0.70572 0.0
C488 C 0.36359 0.38205 0.8259 0.0
C489 C 0.32 0.39074 0.85695 0.0
C490 C 0.34555 0.40466 0.87194 0.0
C491 C 0.38896 0.39665 0.84084 0.0
C492 C 0.32916 0.37965 0.83409 0.0
C493 C 0.37987 0.408 0.86373 0.0
C494 C 0.42511 0.37376 0.74729 0.0
C495 C 0.37177 0.37236 0.80109 0.0
H496 H 0.60565 0.44454 0.75793 0.0
H497 H 0.4996 0.41514 0.75488 0.0
H498 H 0.55646 0.41078 0.77317 0.0
H499 H 0.53964 0.48897 0.70359 0.0
H500 H 0.33898 0.41272 0.88987 0.0
H501 H 0.41558 0.39962 0.83472 0.0
H502 H 0.30912 0.36845 0.82287 0.0
H503 H 0.39951 0.41924 0.87518 0.0
Eu504 Eu 0.82116 0.17676 0.4971 0.0
C505 C 0.90256 0.02422 0.52107 0.0
N506 N 0.87761 0.0456 0.52981 0.0
C507 C 0.84947 0.9963 0.54823 0.0
C508 C 0.90174 0.98795 0.52526 0.0
C509 C 0.85184 0.03207 0.54401 0.0
C510 C 0.87427 0.97403 0.53854 0.0
C511 C 0.95732 0.01804 0.50023 0.0
C512 C 0.92972 0.0389 0.5087 0.0
C513 C 0.95641 0.9819 0.50391 0.0
C514 C 0.92861 0.96685 0.51639 0.0
Eu515 Eu 0.87996 0.10574 0.51822 0.0
N516 N 0.92987 0.07387 0.50579 0.0
C517 C 0.98528 0.03422 0.48867 0.0
C518 C 0.95778 0.08986 0.49525 0.0
C519 C 0.98563 0.07035 0.48638 0.0
H520 H 0.83244 0.04819 0.55212 0.0
H521 H 1.00743 0.08326 0.47785 0.0
H522 H 0.85398 0.21971 0.54535 0.0
H523 H 0.68695 0.16481 0.46662 0.0
H524 H 0.9591 0.11774 0.49362 0.0
H525 H 1.00695 0.01915 0.48187 0.0
H526 H 0.75093 0.15779 0.46424 0.0
H527 H 0.82856 0.98598 0.55913 0.0
H528 H 0.9773 0.96544 0.49746 0.0
H529 H 0.9284 0.93899 0.51943 0.0
H530 H 0.83224 0.25684 0.57774 0.0
H531 H 0.87257 0.94633 0.54204 0.0
H532 H 0.66089 0.19823 0.4998 0.0
N533 N 0.80379 0.21089 0.53035 0.0
C534 C 0.76907 0.21827 0.53156 0.0
C535 C 0.81424 0.24614 0.56488 0.0
C536 C 0.75563 0.23916 0.55007 0.0
C537 C 0.8265 0.22514 0.54637 0.0
C538 C 0.7787 0.25311 0.56679 0.0
N539 N 0.76028 0.18417 0.49677 0.0
C540 C 0.73948 0.17107 0.47928 0.0
C541 C 0.7105 0.20931 0.5164 0.0
C542 C 0.74668 0.20353 0.51484 0.0
C543 C 0.68883 0.19455 0.49911 0.0
C544 C 0.70342 0.17558 0.48038 0.0
H545 H 0.76933 0.26918 0.58129 0.0
H546 H 0.70883 0.26072 0.56581 0.0
H547 H 0.66938 0.23452 0.53645 0.0
O548 O 0.79564 0.21928 0.47755 0.0
O549 O 0.80616 0.15921 0.53601 0.0
O550 O 0.83174 0.10627 0.54331 0.0
O551 O 0.85086 0.2121 0.47424 0.0
O552 O 0.79834 0.12469 0.48648 0.0
O553 O 0.82465 0.08574 0.51217 0.0
O554 O 0.88004 0.14977 0.54289 0.0
O555 O 0.87967 0.10249 0.47751 0.0
O556 O 0.83379 0.13752 0.4654 0.0
O557 O 0.91917 0.10921 0.54582 0.0
O558 O 0.90705 0.14871 0.49574 0.0
O559 O 0.87576 0.19381 0.50922 0.0
C560 C 0.80946 0.13101 0.54954 0.0
C561 C 0.83068 0.26961 0.48021 0.0
C562 C 0.81725 0.33181 0.48015 0.0
C563 C 0.83979 0.33638 0.49959 0.0
C564 C 0.85313 0.27537 0.49958 0.0
C565 C 0.85763 0.30837 0.50913 0.0
C566 C 0.81237 0.29809 0.47063 0.0
C567 C 0.79842 0.09526 0.49852 0.0
C568 C 0.82498 0.23361 0.47148 0.0
C569 C 0.71961 0.24491 0.55162 0.0
C570 C 0.69712 0.22987 0.53495 0.0
C571 C 0.85801 0.11313 0.46077 0.0
C572 C 0.89189 0.12838 0.58119 0.0
C573 C 0.88307 0.08689 0.61351 0.0
C574 C 0.86661 0.11274 0.62704 0.0
C575 C 0.8747 0.15399 0.59462 0.0
C576 C 0.89538 0.09488 0.59071 0.0
C577 C 0.86197 0.14607 0.61741 0.0
C578 C 0.90558 0.18205 0.50112 0.0
C579 C 0.90321 0.13503 0.55648 0.0
H580 H 0.84332 0.36172 0.50772 0.0
H581 H 0.86721 0.2545 0.50774 0.0
H582 H 0.87484 0.31217 0.52413 0.0
H583 H 0.79467 0.29407 0.4559 0.0
H584 H 0.85773 0.10724 0.64497 0.0
H585 H 0.87079 0.17984 0.5874 0.0
H586 H 0.90869 0.07479 0.58064 0.0
H587 H 0.84878 0.1659 0.62771 0.0
Eu588 Eu 0.11251 0.57478 0.24229 0.0
C589 C 0.24237 0.67112 0.2327 0.0
N590 N 0.23396 0.63778 0.23879 0.0
C591 C 0.28408 0.6164 0.21784 0.0
C592 C 0.27195 0.6781 0.21848 0.0
C593 C 0.25459 0.61059 0.2319 0.0
C594 C 0.29278 0.65025 0.21106 0.0
C595 C 0.22889 0.73294 0.23359 0.0
C596 C 0.2209 0.69836 0.24024 0.0
C597 C 0.25808 0.73974 0.21922 0.0
C598 C 0.27964 0.71247 0.21183 0.0
Eu599 Eu 0.18605 0.63211 0.26499 0.0
N600 N 0.19292 0.69134 0.25449 0.0
C601 C 0.20778 0.75992 0.24203 0.0
C602 C 0.17398 0.71792 0.26417 0.0
C603 C 0.18048 0.75239 0.25762 0.0
H604 H 0.24899 0.58444 0.23759 0.0
H605 H 0.16495 0.77322 0.26508 0.0
H606 H 0.07809 0.62857 0.28559 0.0
H607 H 0.12244 0.43307 0.24286 0.0
H608 H 0.15462 0.71301 0.27767 0.0
H609 H 0.21304 0.78676 0.23725 0.0
H610 H 0.13722 0.49275 0.22978 0.0
H611 H 0.30029 0.59477 0.21243 0.0
H612 H 0.26448 0.76613 0.21394 0.0
H613 H 0.30215 0.71823 0.20083 0.0
H614 H 0.03847 0.62338 0.31947 0.0
H615 H 0.31566 0.65462 0.20012 0.0
H616 H 0.07853 0.42399 0.27458 0.0
N617 N 0.07895 0.57442 0.2779 0.0
C618 C 0.06649 0.54222 0.28413 0.0
C619 C 0.04621 0.60036 0.3097 0.0
C620 C 0.04377 0.53815 0.30373 0.0
C621 C 0.06895 0.60325 0.29032 0.0
C622 C 0.03341 0.56777 0.31635 0.0
N623 N 0.10302 0.51697 0.25452 0.0
C624 C 0.11869 0.48901 0.24406 0.0
C625 C 0.06942 0.4791 0.27989 0.0
C626 C 0.07899 0.51274 0.27218 0.0
C627 C 0.08507 0.45023 0.26903 0.0
C628 C 0.11004 0.45523 0.25121 0.0
H629 H 0.01596 0.5657 0.33148 0.0
H630 H 0.01524 0.50119 0.32551 0.0
H631 H 0.03787 0.44963 0.3048 0.0
O632 O 0.08793 0.54143 0.21573 0.0
O633 O 0.13514 0.5546 0.27855 0.0
O634 O 0.16111 0.60134 0.29649 0.0
O635 O 0.05896 0.58477 0.23083 0.0
O636 O 0.16466 0.55359 0.23157 0.0
O637 O 0.19722 0.57394 0.26284 0.0
O638 O 0.19946 0.66195 0.29682 0.0
O639 O 0.1818 0.63475 0.22357 0.0
O640 O 0.15036 0.58709 0.2105 0.0
O641 O 0.2375 0.62799 0.28053 0.0
O642 O 0.13162 0.65782 0.26858 0.0
O643 O 0.10226 0.63378 0.23749 0.0
C644 C 0.14893 0.5691 0.29774 0.0
C645 C 0.03315 0.55469 0.19798 0.0
C646 C 0.97444 0.53954 0.18527 0.0
C647 C 0.985 0.54385 0.16146 0.0
C648 C 0.04332 0.55917 0.17423 0.0
C649 C 0.01917 0.5539 0.15603 0.0
C650 C 0.99869 0.54535 0.20346 0.0
C651 C 0.19037 0.55025 0.2466 0.0
C652 C 0.05808 0.55711 0.21748 0.0
C653 C 0.03288 0.50468 0.3106 0.0
C654 C 0.04572 0.47528 0.29877 0.0
C655 C 0.17297 0.61284 0.2063 0.0
C656 C 0.23771 0.63149 0.32227 0.0
C657 C 0.23853 0.63757 0.36517 0.0
C658 C 0.25398 0.60478 0.36741 0.0
C659 C 0.25222 0.59798 0.32454 0.0
C660 C 0.23078 0.65091 0.34268 0.0
C661 C 0.26032 0.5848 0.34706 0.0
C662 C 0.10693 0.66007 0.25225 0.0
C663 C 0.22966 0.6468 0.29895 0.0
H664 H 0.96678 0.53957 0.14708 0.0
H665 H 0.06988 0.56626 0.1698 0.0
H666 H 0.02704 0.5572 0.13765 0.0
H667 H 0.9911 0.54136 0.22189 0.0
H668 H 0.26063 0.59459 0.38478 0.0
H669 H 0.25744 0.58204 0.30904 0.0
H670 H 0.21957 0.67674 0.34112 0.0
H671 H 0.27162 0.55912 0.34873 0.0
Eu672 Eu 0.88407 0.60288 0.69428 0.0
C673 C 0.76999 0.71576 0.68228 0.0
N674 N 0.80492 0.70942 0.68196 0.0
C675 C 0.81136 0.74476 0.64692 0.0
C676 C 0.75441 0.73636 0.66448 0.0
C677 C 0.82572 0.72389 0.66472 0.0
C678 C 0.77561 0.75104 0.6468 0.0
C679 C 0.71303 0.70437 0.69965 0.0
C680 C 0.74949 0.70005 0.69979 0.0
C681 C 0.69753 0.72482 0.68189 0.0
C682 C 0.71817 0.74094 0.66447 0.0
Eu683 Eu 0.82635 0.67637 0.71457 0.0
N684 N 0.76514 0.68081 0.71706 0.0
C685 C 0.69318 0.68812 0.71743 0.0
C686 C 0.74602 0.66599 0.73494 0.0
C687 C 0.70976 0.66894 0.73518 0.0
H688 H 0.85333 0.71878 0.66437 0.0
H689 H 0.69466 0.65672 0.74919 0.0
H690 H 0.83349 0.54892 0.66025 0.0
H691 H 0.99838 0.56907 0.74634 0.0
H692 H 0.75876 0.65217 0.74921 0.0
H693 H 0.66509 0.69058 0.71778 0.0
H694 H 0.95793 0.60779 0.72515 0.0
H695 H 0.82789 0.75585 0.63324 0.0
H696 H 0.66957 0.72841 0.68151 0.0
H697 H 0.70577 0.75653 0.65086 0.0
H698 H 0.82183 0.48677 0.65597 0.0
H699 H 0.76456 0.76696 0.63282 0.0
H700 H 0.98968 0.50524 0.74507 0.0
N701 N 0.87432 0.54262 0.68566 0.0
C702 C 0.8945 0.51926 0.69727 0.0
C703 C 0.84229 0.49553 0.66776 0.0
C704 C 0.88911 0.48307 0.69486 0.0
C705 C 0.84914 0.53108 0.67033 0.0
C706 C 0.86211 0.4714 0.68029 0.0
N707 N 0.92606 0.5665 0.71235 0.0
C708 C 0.95376 0.58003 0.72444 0.0
C709 C 0.94402 0.50844 0.7227 0.0
C710 C 0.92137 0.53165 0.71101 0.0
C711 C 0.97177 0.52217 0.73577 0.0
C712 C 0.97679 0.55816 0.73649 0.0
H713 H 0.85688 0.44384 0.67817 0.0
H714 H 0.90733 0.43187 0.70515 0.0
H715 H 0.95558 0.45415 0.72958 0.0
O716 O 0.89576 0.6397 0.66549 0.0
O717 O 0.88337 0.60102 0.73501 0.0
O718 O 0.84008 0.6391 0.74727 0.0
O719 O 0.92839 0.59415 0.67133 0.0
O720 O 0.912 0.64795 0.71404 0.0
O721 O 0.88029 0.69177 0.69932 0.0
O722 O 0.80125 0.71829 0.73493 0.0
O723 O 0.80969 0.65817 0.67625 0.0
O724 O 0.84032 0.60896 0.66599 0.0
O725 O 0.85705 0.71392 0.7349 0.0
O726 O 0.80639 0.62421 0.72677 0.0
O727 O 0.82679 0.588 0.69752 0.0
C728 C 0.86335 0.61383 0.75201 0.0
C729 C 0.912 0.60597 0.63188 0.0
C730 C 0.90861 0.55717 0.60421 0.0
C731 C 0.89399 0.57901 0.58697 0.0
C732 C 0.89687 0.62763 0.61465 0.0
C733 C 0.88793 0.61413 0.5923 0.0
C734 C 0.91772 0.57082 0.62636 0.0
C735 C 0.91044 0.68079 0.70745 0.0
C736 C 0.91878 0.61834 0.65633 0.0
C737 C 0.91107 0.45973 0.70681 0.0
C738 C 0.93852 0.47241 0.72069 0.0
C739 C 0.81617 0.63251 0.66101 0.0
C740 C 0.83319 0.76992 0.7295 0.0
C741 C 0.81848 0.83168 0.73031 0.0
C742 C 0.83652 0.83623 0.70867 0.0
C743 C 0.85072 0.77544 0.70783 0.0
C744 C 0.81657 0.7982 0.74064 0.0
C745 C 0.85254 0.80826 0.69758 0.0
C746 C 0.80267 0.59714 0.7129 0.0
C747 C 0.83048 0.73415 0.73906 0.0
H748 H 0.8873 0.56894 0.56958 0.0
H749 H 0.89152 0.65471 0.61857 0.0
H750 H 0.87618 0.6309 0.57911 0.0
H751 H 0.9296 0.5536 0.63929 0.0
H752 H 0.83768 0.86143 0.70003 0.0
H753 H 0.86314 0.75432 0.69861 0.0
H754 H 0.80235 0.79422 0.75711 0.0
H755 H 0.86615 0.81193 0.68086 0.0
Eu756 Eu 0.18118 0.13505 0.95093 0.0
C757 C 0.06793 0.02639 0.93704 0.0
N758 N 0.07584 0.06099 0.93896 0.0
C759 C 0.04093 0.07358 0.90471 0.0
C760 C 0.0469 1.01414 0.91829 0.0
C761 C 0.06231 0.08463 0.92332 0.0
C762 C 0.03319 0.03825 0.90218 0.0
C763 C 0.07763 0.96677 0.9501 0.0
C764 C 0.08313 1.00286 0.95288 0.0
C765 C 0.05635 0.95466 0.93158 0.0
C766 C 0.04092 0.97825 0.91582 0.0
Eu767 Eu 0.10987 0.07617 0.97256 0.0
N768 N 0.1036 0.01517 0.9708 0.0
C769 C 0.09393 0.94385 0.96591 0.0
C770 C 0.11904 0.99299 0.98653 0.0
C771 C 0.11472 0.95702 0.98417 0.0
H772 H 0.06835 0.11196 0.92484 0.0
H773 H 0.12724 0.93947 0.99654 0.0
H774 H 0.23317 0.08403 0.91513 0.0
H775 H 0.21759 0.25135 1.00058 0.0
H776 H 0.13438 1.00305 1.00109 0.0
H777 H 0.09054 0.91594 0.96421 0.0
H778 H 0.17927 0.20459 0.98671 0.0
H779 H 0.03055 0.09234 0.89225 0.0
H780 H 0.05181 0.92702 0.9292 0.0
H781 H 0.02486 0.9684 0.90149 0.0
H782 H 0.29201 0.08349 0.89941 0.0
H783 H 0.0169 0.02982 0.88756 0.0
H784 H 0.27848 0.2546 0.98635 0.0
N785 N 0.23913 0.13153 0.93484 0.0
C786 C 0.26208 0.15665 0.94133 0.0
C787 C 0.28391 0.10443 0.91106 0.0
C788 C 0.29667 0.15699 0.93268 0.0
C789 C 0.24996 0.10522 0.92005 0.0
C790 C 0.30735 0.13053 0.91727 0.0
N791 N 0.21783 0.18046 0.96492 0.0
C792 C 0.20571 0.2052 0.98034 0.0
C793 C 0.27395 0.20858 0.96431 0.0
C794 C 0.25105 0.18191 0.95691 0.0
C795 C 0.26172 0.23374 0.98023 0.0
C796 C 0.22741 0.232 0.98829 0.0
H797 H 0.33367 0.12982 0.91029 0.0
H798 H 0.34615 0.18425 0.93327 0.0
H799 H 0.32614 0.22962 0.96099 0.0
O800 O 0.13598 0.14038 0.92782 0.0
O801 O 0.18805 0.13105 0.99139 0.0
O802 O 0.14879 0.08899 1.00449 0.0
O803 O 0.17644 0.18057 0.92859 0.0
O804 O 0.13954 0.16097 0.97525 0.0
O805 O 0.09318 0.13143 0.96189 0.0
O806 O 0.06827 0.04839 0.99197 0.0
O807 O 0.12805 0.06019 0.93387 0.0
O808 O 0.17504 0.09303 0.92167 0.0
O809 O 0.07355 0.10376 0.99584 0.0
O810 O 0.16206 0.05502 0.98302 0.0
O811 O 0.1979 0.0783 0.9541 0.0
C812 C 0.17525 0.11131 1.00865 0.0
C813 C 0.14035 0.17924 0.89481 0.0
C814 C 0.14047 0.22505 0.86503 0.0
C815 C 0.13081 0.20062 0.84763 0.0
C816 C 0.13016 0.15488 0.87758 0.0
C817 C 0.12525 0.16572 0.85402 0.0
C818 C 0.14468 0.21404 0.88852 0.0
C819 C 0.10595 0.1606 0.97035 0.0
C820 C 0.1466 0.17047 0.91971 0.0
C821 C 0.31958 0.18352 0.93979 0.0
C822 C 0.30822 0.2093 0.95559 0.0
C823 C 0.15238 0.06763 0.91772 0.0
C824 C 0.01696 0.08197 0.98894 0.0
C825 C 0.95511 0.06685 0.98753 0.0
C826 C 0.95089 0.09026 0.96849 0.0
C827 C 1.01141 0.10552 0.97011 0.0
C828 C 0.98853 0.06228 0.99753 0.0
C829 C 0.97881 0.10949 0.95997 0.0
C830 C 0.18927 0.05321 0.96895 0.0
C831 C 0.05281 0.07706 0.99812 0.0
H832 H 0.12806 0.2084 0.82921 0.0
H833 H 0.12633 0.12775 0.8822 0.0
H834 H 0.11775 0.14694 0.84061 0.0
H835 H 0.15314 0.23248 0.90199 0.0
H836 H 0.92585 0.09355 0.95997 0.0
H837 H 0.03223 0.12089 0.96281 0.0
H838 H 0.99232 0.04389 1.01192 0.0
H839 H 0.97524 0.12748 0.94534 0.0
Eu840 Eu 0.65699 0.42363 0.19406 0.0
C841 C 0.7422 0.3055 0.17581 0.0
N842 N 0.71083 0.31578 0.18502 0.0
C843 C 0.68166 0.27315 0.16081 0.0
C844 C 0.744 0.27943 0.1581 0.0
C845 C 0.68096 0.29884 0.17839 0.0
C846 C 0.71322 0.26358 0.1505 0.0
C847 C 0.80532 0.31196 0.17387 0.0
C848 C 0.77283 0.32139 0.18375 0.0
C849 C 0.80691 0.28589 0.15643 0.0
C850 C 0.77639 0.26975 0.14855 0.0
Eu851 Eu 0.71517 0.35702 0.21676 0.0
N852 N 0.77068 0.34756 0.20004 0.0
C853 C 0.83523 0.32974 0.18129 0.0
C854 C 0.79983 0.36456 0.20762 0.0
C855 C 0.83244 0.35618 0.19822 0.0
H856 H 0.65613 0.30488 0.18618 0.0
H857 H 0.85546 0.36984 0.20424 0.0
H858 H 0.66884 0.43971 0.13595 0.0
H859 H 0.55845 0.48203 0.25229 0.0
H860 H 0.79811 0.38395 0.22138 0.0
H861 H 0.86057 0.32335 0.174 0.0
H862 H 0.59941 0.43717 0.23887 0.0
H863 H 0.65777 0.26054 0.15534 0.0
H864 H 0.83162 0.27835 0.14866 0.0
H865 H 0.77811 0.24981 0.13496 0.0
H866 H 0.6594 0.48723 1.10725 0.0
H867 H 0.71358 0.24357 0.13691 0.0
H868 H 0.54805 0.53425 0.22755 0.0
N869 N 0.64319 0.46563 0.16453 0.0
C870 C 0.62285 0.49277 0.17086 0.0
C871 C 0.64927 0.48938 0.12518 0.0
C872 C 0.61582 0.52017 0.15488 0.0
C873 C 0.65494 0.46267 0.14164 0.0
C874 C 0.63019 0.51866 0.13198 0.0
N875 N 0.61314 0.46358 0.20672 0.0
C876 C 0.5953 0.45963 0.22768 0.0
C877 C 0.58356 0.51794 0.1997 0.0
C878 C 0.60706 0.49163 0.19277 0.0
C879 C 0.56628 0.51461 0.22153 0.0
C880 C 0.57197 0.48513 0.23549 0.0
H881 H 0.6255 0.53918 0.11917 0.0
H882 H 0.58797 0.56867 0.14999 0.0
H883 H 0.55965 0.56675 0.1894 0.0
O884 O 0.66879 0.37217 0.18046 0.0
O885 O 0.66376 0.4362 0.2337 0.0
O886 O 0.69531 0.39066 0.24955 0.0
O887 O 0.62024 0.39717 0.17119 0.0
O888 O 0.62202 0.38705 0.2164 0.0
O889 O 0.65751 0.3391 0.22014 0.0
O890 O 0.75178 0.34022 0.24441 0.0
O891 O 0.73412 0.37915 0.17904 0.0
O892 O 0.70577 0.43048 0.17018 0.0
O893 O 0.71462 0.30362 0.2299 0.0
O894 O 0.73879 0.40921 0.22586 0.0
O895 O 0.70976 0.4486 0.20179 0.0
C896 C 0.67772 0.42054 0.25229 0.0
C897 C 0.64721 0.36449 0.14097 0.0
C898 C 0.62613 0.37613 1.10103 0.0
C899 C 0.6589 0.36774 1.0916 0.0
C900 C 0.67969 0.35497 0.13137 0.0
C901 C 0.68527 0.35609 1.10675 0.0
C902 C 0.62015 0.37267 0.12546 0.0
C903 C 0.62605 0.35319 0.22027 0.0
C904 C 0.64165 0.37153 0.16656 0.0
C905 C 0.59362 0.5473 0.16196 0.0
C906 C 0.57745 0.54617 0.18436 0.0
C907 C 0.72982 0.40685 0.16486 0.0
C908 C 0.74503 0.28521 0.26425 0.0
C909 C 0.75892 0.22714 0.27901 0.0
C910 C 0.75573 0.23971 0.30243 0.0
C911 C 0.74169 0.29738 0.28762 0.0
C912 C 0.75334 0.25017 0.26002 0.0
C913 C 0.74698 0.27456 0.30665 0.0
C914 C 0.7365 0.43965 0.21523 0.0
C915 C 0.74134 0.30804 0.2436 0.0
H916 H 0.66427 0.37112 1.07281 0.0
H917 H 0.70116 0.34805 0.14271 0.0
H918 H 0.71063 0.34966 1.09954 0.0
H919 H 0.59512 0.38039 0.13275 0.0
H920 H 0.75974 0.22254 0.31746 0.0
H921 H 0.73523 0.32436 0.2911 0.0
H922 H 0.75637 0.24106 0.24185 0.0
H923 H 0.74448 0.28394 0.32473 0.0
Eu924 Eu 0.34797 0.90399 0.44913 0.0
C925 C 0.46457 0.99296 0.43058 0.0
N926 N 0.45466 0.96036 0.43786 0.0
C927 C 0.48895 0.9349 0.40663 0.0
C928 C 0.48634 0.99742 0.41051 0.0
C929 C 0.46726 0.9316 0.42652 0.0
C930 C 0.49848 0.96789 0.39856 0.0
C931 C 0.45893 0.056 0.43394 0.0
C932 C 0.45115 0.02221 0.44231 0.0
C933 C 0.48126 0.06025 0.41434 0.0
C934 C 0.49492 0.0311 0.40269 0.0
Eu935 Eu 0.42098 0.95957 0.4734 0.0
N936 N 0.42841 0.01755 0.4607 0.0
C937 C 0.44305 0.08457 0.445 0.0
C938 C 0.41289 0.04529 0.47157 0.0
C939 C 0.4198 0.07916 0.46379 0.0
H940 H 0.46138 0.90599 0.43268 0.0
H941 H 0.40739 0.10109 0.47242 0.0
H942 H 0.2815 0.9366 0.48066 0.0
H943 H 0.37459 0.76829 0.42524 0.0
H944 H 0.39576 0.04145 0.48662 0.0
H945 H 0.44824 0.11088 0.43897 0.0
H946 H 0.37857 0.83211 0.42089 0.0
H947 H 0.49857 0.9119 0.39766 0.0
H948 H 0.48758 0.08602 0.40774 0.0
H949 H 0.51169 0.03489 0.38735 0.0
H950 H 0.23462 0.91515 0.50732 0.0
H951 H 0.51524 0.97028 0.38309 0.0
H952 H 0.33536 0.74266 0.45556 0.0
N953 N 0.30336 0.88637 0.47539 0.0
C954 C 0.29972 0.85147 0.47856 0.0
C955 C 0.25298 0.89705 0.49956 0.0
C956 C 0.27358 0.83815 0.49371 0.0
C957 C 0.27949 0.90911 0.48456 0.0
C958 C 0.25036 0.86147 0.50448 0.0
N959 N 0.3446 0.84252 0.45003 0.0
C960 C 0.36248 0.82121 0.43485 0.0
C961 C 0.31746 0.79267 0.46846 0.0
C962 C 0.32136 0.82901 0.46591 0.0
C963 C 0.33766 0.77071 0.45414 0.0
C964 C 0.35984 0.78506 0.437 0.0
H965 H 0.22983 0.8522 0.51615 0.0
H966 H 0.25133 0.79135 0.50905 0.0
H967 H 0.28991 0.75157 0.48711 0.0
O968 O 0.31657 0.87879 0.42169 0.0
O969 O 0.34892 0.90158 0.49062 0.0
O970 O 0.38424 0.94535 0.50543 0.0
O971 O 0.30871 0.93322 0.4297 0.0
O972 O 0.40272 0.87885 0.44515 0.0
O973 O 0.42932 0.90025 0.4781 0.0
O974 O 0.44661 0.99311 0.49932 0.0
O975 O 0.3954 0.97875 0.43767 0.0
O976 O 0.38076 0.92847 0.41905 0.0
O977 O 0.4748 0.9493 0.48418 0.0
O978 O 0.37057 0.98187 0.48632 0.0
O979 O 0.33568 0.9611 0.45634 0.0
C980 C 0.3598 0.921 0.50866 0.0
C981 C 0.25833 0.89961 0.4237 0.0
C982 C 0.21003 0.8599 0.43091 0.0
C983 C 0.18718 0.88805 0.433 0.0
C984 C 0.23526 0.92784 0.42605 0.0
C985 C 0.19993 0.92201 0.43082 0.0
C986 C 0.24542 0.86573 0.42643 0.0
C987 C 0.42567 0.87485 0.46251 0.0
C988 C 0.29591 0.90554 0.41963 0.0
C989 C 0.27091 0.80205 0.49718 0.0
C990 C 0.29285 0.7794 0.48465 0.0
C991 C 0.38622 0.96242 0.41786 0.0
C992 C 0.50146 0.9795 0.51665 0.0
C993 C 0.55998 0.99573 0.529 0.0
C994 C 0.54992 0.991 0.55287 0.0
C995 C 0.49174 0.97457 0.54045 0.0
C996 C 0.53561 0.98956 0.51096 0.0
C997 C 0.51607 0.98016 0.5585 0.0
C998 C 0.34304 0.98423 0.47281 0.0
C999 C 0.47626 0.97715 0.49734 0.0
H1000 H 0.15961 0.8837 0.43585 0.0
H1001 H 0.24453 0.95438 0.42428 0.0
H1002 H 0.18233 0.94385 0.43247 0.0
H1003 H 0.26265 0.84355 0.42445 0.0
H1004 H 0.56829 0.99559 0.56711 0.0
H1005 H 0.46538 0.96695 0.54503 0.0
H1006 H 0.54284 0.9939 0.4925 0.0
H1007 H 0.50856 0.97654 0.57692 0.0
Eu1008 Eu 0.20259 0.36134 0.49306 0.0
C1009 C 0.11836 0.50437 0.53631 0.0
N1010 N 0.13597 0.47591 0.5435 0.0
C1011 C 0.14384 0.50153 0.58208 0.0
C1012 C 0.11377 0.53337 0.55136 0.0
C1013 C 0.14709 0.47332 0.56647 0.0
C1014 C 0.1277 0.53204 0.57433 0.0
C1015 C 0.07982 0.52979 0.50738 0.0
C1016 C 0.10172 0.50254 0.5149 0.0
C1017 C 0.07695 0.55998 0.52138 0.0
C1018 C 0.09392 0.56176 0.54342 0.0
Eu1019 Eu 0.14546 0.43016 0.51583 0.0
N1020 N 0.10421 0.47238 0.50264 0.0
C1021 C 0.06024 0.52508 0.48669 0.0
C1022 C 0.08319 0.46673 0.48343 0.0
C1023 C 0.06148 0.49311 0.4749 0.0
H1024 H 0.15823 0.4493 0.57286 0.0
H1025 H 0.04564 0.4887 0.45929 0.0
H1026 H 0.16256 0.3159 0.5376 0.0
H1027 H 0.34087 0.37426 0.47168 0.0
H1028 H 0.08355 0.44208 0.47422 0.0
H1029 H 0.04311 0.54534 0.48023 0.0
H1030 H 0.2778 0.3828 0.46562 0.0
H1031 H 0.15338 0.49954 0.60014 0.0
H1032 H 0.06057 0.58139 0.51581 0.0
H1033 H 0.09037 0.58451 0.55456 0.0
H1034 H 0.17917 0.27666 0.57011 0.0
H1035 H 0.12474 0.55371 0.58651 0.0
H1036 H 0.36153 0.33701 0.50462 0.0
N1037 N 0.21473 0.32512 0.52613 0.0
C1038 C 0.249 0.31658 0.52891 0.0
C1039 C 0.19904 0.28788 0.55874 0.0
C1040 C 0.25951 0.29423 0.54746 0.0
C1041 C 0.18973 0.3104 0.5403 0.0
C1042 C 0.23404 0.27989 0.56241 0.0
N1043 N 0.2632 0.35292 0.49589 0.0
C1044 C 0.28666 0.36759 0.48057 0.0
C1045 C 0.30959 0.32526 0.5175 0.0
C1046 C 0.27388 0.33182 0.51394 0.0
C1047 C 0.33386 0.34118 0.50232 0.0
C1048 C 0.32232 0.36231 0.48372 0.0
H1049 H 0.24111 0.26263 0.57686 0.0
H1050 H 0.30358 0.27044 0.56504 0.0
H1051 H 0.34733 0.29775 0.539 0.0
O1052 O 0.2303 0.3199 0.47361 0.0
O1053 O 0.21803 0.37857 0.53221 0.0
O1054 O 0.19542 0.43317 0.53899 0.0
O1055 O 0.1753 0.32681 0.46854 0.0
O1056 O 0.22636 0.41314 0.48295 0.0
O1057 O 0.20033 0.45204 0.50905 0.0
O1058 O 0.15092 0.38188 0.536 0.0
O1059 O 0.14891 0.43815 0.47519 0.0
O1060 O 0.1914 0.40041 0.46141 0.0
O1061 O 0.1025 0.41086 0.53693 0.0
O1062 O 0.11446 0.39167 0.49207 0.0
O1063 O 0.1461 0.34363 0.50072 0.0
C1064 C 0.2168 0.40759 0.54527 0.0
C1065 C 0.19505 0.26925 0.47459 0.0
C1066 C 0.21162 0.20795 0.47719 0.0
C1067 C 0.18362 0.20212 0.49291 0.0
C1068 C 0.16703 0.26219 0.49015 0.0
C1069 C 0.16148 0.22904 0.49922 0.0
C1070 C 0.21762 0.24186 0.46828 0.0
C1071 C 0.22628 0.44269 0.49483 0.0
C1072 C 0.20152 0.30551 0.46652 0.0
C1073 C 0.29506 0.28743 0.55081 0.0
C1074 C 0.32 0.30306 0.53601 0.0
C1075 C 0.16852 0.42613 0.4576 0.0
C1076 C 0.11446 0.37623 0.57028 0.0
C1077 C 0.07307 0.3753 0.60308 0.0
C1078 C 0.10031 0.36816 0.61895 0.0
C1079 C 0.14163 0.36843 0.58603 0.0
C1080 C 0.08043 0.37818 0.5788 0.0
C1081 C 0.13438 0.36403 0.61031 0.0
C1082 C 0.11614 0.35739 0.49441 0.0
C1083 C 0.11975 0.38407 0.54503 0.0
H1084 H 0.17896 0.17662 0.50055 0.0
H1085 H 0.14933 0.28218 0.49577 0.0
H1086 H 0.13999 0.22426 0.51133 0.0
H1087 H 0.23943 0.24682 0.45646 0.0
H1088 H 0.09538 0.36657 0.6379 0.0
H1089 H 0.16824 0.36642 0.57976 0.0
H1090 H 0.05972 0.38476 0.5665 0.0
H1091 H 0.15536 0.35854 0.62255 0.0
Eu1092 Eu 0.92448 0.95855 0.24837 0.0
C1093 C 0.76906 0.89201 0.26232 0.0
N1094 N 0.79189 0.91013 0.27593 0.0
C1095 C 0.74457 0.93831 0.29609 0.0
C1096 C 0.73286 0.89695 0.26471 0.0
C1097 C 0.78019 0.93203 0.29334 0.0
C1098 C 0.72078 0.92102 0.28151 0.0
C1099 C 0.75901 0.84618 0.23347 0.0
C1100 C 0.78193 0.86699 0.24694 0.0
C1101 C 0.72297 0.85178 0.23517 0.0
C1102 C 0.70992 0.8771 0.25077 0.0
Eu1103 Eu 0.85177 0.90013 0.26878 0.0
N1104 N 0.81684 0.86187 0.246 0.0
C1105 C 0.77299 0.81987 0.21911 0.0
C1106 C 0.83052 0.83518 0.23288 0.0
C1107 C 0.80888 0.81417 0.21898 0.0
H1108 H 0.79832 0.94526 0.30485 0.0
H1109 H 0.8199 0.7936 0.20817 0.0
H1110 H 0.93687 0.89343 0.2906 0.0
H1111 H 0.93943 0.09842 0.26163 0.0
H1112 H 0.85826 0.83075 0.2326 0.0
H1113 H 0.75627 0.80344 0.2084 0.0
H1114 H 0.91404 0.04527 0.24374 0.0
H1115 H 0.73548 0.95631 0.30956 0.0
H1116 H 0.70496 0.8362 0.22486 0.0
H1117 H 0.68202 0.8806 0.2523 0.0
H1118 H 0.97129 0.88527 0.32651 0.0
H1119 H 0.69317 0.92566 0.28384 0.0
H1120 H 0.98147 0.09333 0.29471 0.0
N1121 N 0.95042 0.94662 0.28595 0.0
C1122 C 0.96818 0.97438 0.29528 0.0
C1123 C 0.97079 0.91043 0.31783 0.0
C1124 C 0.98824 0.97076 0.31613 0.0
C1125 C 0.95114 0.91516 0.2972 0.0
C1126 C 0.9898 0.93816 0.32715 0.0
N1127 N 0.94125 1.01094 0.2667 0.0
C1128 C 0.93203 0.043 0.25839 0.0
C1129 C 0.97886 0.037 0.29587 0.0
C1130 C 0.96372 1.00741 0.28523 0.0
C1131 C 0.97046 0.06999 0.28693 0.0
C1132 C 0.94655 0.07301 0.26835 0.0
H1133 H 1.00487 0.93436 0.3432 0.0
H1134 H 0.02096 0.99744 0.34168 0.0
H1135 H 1.01262 0.05533 0.32402 0.0
O1136 O 0.94577 0.99479 0.22189 0.0
O1137 O 0.89883 0.98299 0.28251 0.0
O1138 O 0.86224 0.94139 0.29828 0.0
O1139 O 0.97926 0.95628 0.23785 0.0
O1140 O 0.87299 0.98105 0.23724 0.0
O1141 O 0.83494 0.95704 0.26457 0.0
O1142 O 0.87694 0.88259 0.30148 0.0
O1143 O 0.8488 0.90359 0.2282 0.0
O1144 O 0.89035 0.94269 0.21489 0.0
O1145 O 0.83104 0.85601 0.28804 0.0
O1146 O 0.89913 0.86683 0.25683 0.0
O1147 O 0.9444 0.90228 0.24533 0.0
C1148 C 0.87917 0.97137 0.30032 0.0
C1149 C 1.00159 0.98588 0.20399 0.0
C1150 C 0.06016 1.00047 0.19032 0.0
C1151 C 0.04893 0.99654 0.16668 0.0
C1152 C 0.99078 0.98167 0.18039 0.0
C1153 C 0.01451 0.9869 0.16181 0.0
C1154 C 0.0363 0.99481 0.20889 0.0
C1155 C 0.84424 0.98237 0.24992 0.0
C1156 C 0.97735 0.98327 0.22405 0.0
C1157 C 1.00512 0.99993 0.32585 0.0
C1158 C 1.00043 0.03293 0.31577 0.0
C1159 C 0.86301 0.92177 0.21079 0.0
C1160 C 0.83323 0.86551 0.32923 0.0
C1161 C 0.77917 0.86097 0.35181 0.0
C1162 C 0.79492 0.87788 0.37111 0.0
C1163 C 0.84881 0.88268 0.34856 0.0
C1164 C 0.79857 0.85448 0.33124 0.0
C1165 C 0.82966 0.88875 0.3694 0.0
C1166 C 0.9316 0.87093 0.24935 0.0
C1167 C 0.85141 0.86102 0.30628 0.0
H1168 H 0.06683 1.00072 0.15202 0.0
H1169 H 0.96408 0.97477 0.17637 0.0
H1170 H 1.00615 0.98381 0.14356 0.0
H1171 H 0.04446 0.99847 0.2272 0.0
H1172 H 0.78042 0.88262 0.38734 0.0
H1173 H 0.87547 0.89178 0.34746 0.0
H1174 H 0.78636 0.84053 0.31667 0.0
H1175 H 0.84173 0.90207 0.38421 0.0
Eu1176 Eu 0.32336 0.67605 0.99217 0.0
C1177 C 0.40408 0.52413 1.01547 0.0
N1178 N 0.38518 0.54823 1.02744 0.0
C1179 C 0.36677 0.50434 1.05532 0.0
C1180 C 0.40452 0.48891 1.02262 0.0
C1181 C 0.36721 0.53892 1.04752 0.0
C1182 C 0.38526 0.47912 1.0427 0.0
C1183 C 0.4461 0.51156 0.9845 0.0
C1184 C 0.42456 0.5352 0.99683 0.0
C1185 C 0.44555 0.47617 0.9908 0.0
C1186 C 0.42485 0.46487 1.0099 0.0
Eu1187 Eu 0.38544 0.60621 1.0123 0.0
N1188 N 0.4248 0.56955 0.99158 0.0
C1189 C 0.46819 0.52439 0.96668 0.0
C1190 C 0.44752 0.58249 0.97499 0.0
C1191 C 0.46915 0.56011 0.96207 0.0
H1192 H 0.35317 0.55783 1.05784 0.0
H1193 H 0.48652 0.57042 0.94858 0.0
H1194 H 0.34077 0.73269 1.03639 0.0
H1195 H 0.19936 0.64779 0.94923 0.0
H1196 H 0.44831 0.61007 0.97128 0.0
H1197 H 0.48509 0.5071 0.95675 0.0
H1198 H 0.26363 0.65021 0.95253 0.0
H1199 H 0.35226 0.49721 1.07115 0.0
H1200 H 0.46179 0.45756 0.98149 0.0
H1201 H 0.42543 0.43769 1.01505 0.0
H1202 H 0.30838 0.76607 1.06691 0.0
H1203 H 0.38506 0.45239 1.04887 0.0
H1204 H 0.16255 0.67313 0.98102 0.0
N1205 N 0.29516 0.7103 1.0214 0.0
C1206 C 0.25975 0.7099 1.02098 0.0
C1207 C 0.29443 0.75018 1.0542 0.0
C1208 C 0.24026 0.72839 1.03808 0.0
C1209 C 0.31269 0.73136 1.03691 0.0
C1210 C 0.2581 0.74828 1.05502 0.0
N1211 N 0.2627 0.67564 0.98607 0.0
C1212 C 0.2476 0.66122 0.96647 0.0
C1213 C 0.20644 0.69091 1.00188 0.0
C1214 C 0.24308 0.69142 1.00308 0.0
C1215 C 0.19064 0.67422 0.98255 0.0
C1216 C 0.21133 0.65989 0.96456 0.0
H1217 H 0.24406 0.7628 1.0685 0.0
H1218 H 0.18829 0.74033 1.05075 0.0
H1219 H 0.15868 0.70744 1.01909 0.0
O1220 O 0.30049 0.72059 0.97343 0.0
O1221 O 0.31058 0.66148 1.03164 0.0
O1222 O 0.34191 0.61229 1.04117 0.0
O1223 O 0.35508 0.70943 0.9691 0.0
O1224 O 0.30392 0.62159 0.98424 0.0
O1225 O 0.32955 0.58691 1.01267 0.0
O1226 O 0.39693 0.64266 1.04144 0.0
O1227 O 0.37773 0.59894 0.97225 0.0
O1228 O 0.33578 0.63814 0.9597 0.0
O1229 O 0.43611 0.60679 1.02852 0.0
O1230 O 0.40607 0.65218 0.99004 0.0
O1231 O 0.37557 0.69176 1.00972 0.0
C1232 C 0.31772 0.63575 1.04659 0.0
C1233 C 0.33888 0.76852 0.97471 0.0
C1234 C 0.32447 0.83049 0.97751 0.0
C1235 C 0.35206 0.83486 0.99369 0.0
C1236 C 0.3665 0.77416 0.99062 0.0
C1237 C 0.373 0.80696 0.99999 0.0
C1238 C 0.31776 0.79694 0.96821 0.0
C1239 C 0.30311 0.59488 0.99885 0.0
C1240 C 0.33059 0.73266 0.96671 0.0
C1241 C 0.20373 0.72671 1.03755 0.0
C1242 C 0.18687 0.70791 1.01954 0.0
C1243 C 0.35777 0.61167 0.95529 0.0
C1244 C 0.43205 0.61284 1.06966 0.0
C1245 C 0.4554 0.56321 1.09115 0.0
C1246 C 0.43221 0.5697 0.11 0.0
C1247 C 0.40893 0.61934 1.08856 0.0
C1248 C 0.45677 0.5864 1.07205 0.0
C1249 C 0.40962 0.59823 0.10888 0.0
C1250 C 0.4053 0.68324 0.99962 0.0
C1251 C 0.42676 0.62759 1.04573 0.0
H1252 H 0.35728 0.85989 1.00182 0.0
H1253 H 0.38284 0.75319 0.99636 0.0
H1254 H 0.39414 0.81068 1.01245 0.0
H1255 H 0.29632 0.7929 0.95603 0.0
H1256 H 0.43079 0.55225 0.12511 0.0
H1257 H 0.38951 0.63965 1.08726 0.0
H1258 H 0.47545 0.58191 1.05785 0.0
H1259 H 0.39146 0.60298 0.12328 0.0
Eu1260 Eu 0.60663 0.0751 0.74845 0.0
C1261 C 0.76025 0.14489 0.76264 0.0
N1262 N 0.73802 0.12595 0.7763 0.0
C1263 C 0.78626 0.09895 0.79602 0.0
C1264 C 0.79661 0.141 0.76478 0.0
C1265 C 0.75045 0.1039 0.79334 0.0
C1266 C 0.80947 0.11732 0.78151 0.0
C1267 C 0.76887 0.19118 0.73387 0.0
C1268 C 0.74661 0.16966 0.74744 0.0
C1269 C 0.80505 0.18647 0.73519 0.0
C1270 C 0.8189 0.16145 0.75064 0.0
Eu1271 Eu 0.6778 0.13429 0.76951 0.0
N1272 N 0.71157 0.17384 0.74678 0.0
C1273 C 0.75411 0.2173 0.71977 0.0
C1274 C 0.6971 0.20033 0.73394 0.0
C1275 C 0.71808 0.22208 0.71998 0.0
H1276 H 0.73282 0.08969 0.80473 0.0
H1277 H 0.70645 0.24249 0.70939 0.0
H1278 H 0.59034 0.14006 0.79018 0.0
H1279 H 0.59434 0.93507 0.76198 0.0
H1280 H 0.66925 0.20401 0.73388 0.0
H1281 H 0.77031 0.23427 0.709 0.0
H1282 H 0.62044 0.98872 0.74496 0.0
H1283 H 0.79593 0.08105 0.80932 0.0
H1284 H 0.82257 0.20255 0.72474 0.0
H1285 H 0.84689 0.15866 0.7519 0.0
H1286 H 0.5532 0.14764 0.82506 0.0
H1287 H 0.83723 0.11361 0.78372 0.0
H1288 H 0.54902 0.93944 0.79324 0.0
N1289 N 0.57811 0.08663 0.78527 0.0
C1290 C 0.56002 0.05861 0.79402 0.0
C1291 C 0.55477 0.12249 0.81643 0.0
C1292 C 0.53832 0.0619 0.8142 0.0
C1293 C 0.57601 0.11809 0.79642 0.0
C1294 C 0.53549 0.09445 0.82517 0.0
N1295 N 0.58996 0.02249 0.76649 0.0
C1296 C 0.60085 0.99062 0.75879 0.0
C1297 C 0.55031 0.99582 0.79429 0.0
C1298 C 0.56579 0.02566 0.78413 0.0
C1299 C 0.56023 0.96298 0.7858 0.0
C1300 C 0.58602 0.96037 0.76826 0.0
H1301 H 0.51916 0.09801 0.84074 0.0
H1302 H 0.50404 0.03468 0.83868 0.0
H1303 H 0.51464 0.97695 0.82132 0.0
O1304 O 0.58683 0.03806 0.72211 0.0
O1305 O 0.63016 0.05213 0.78378 0.0
O1306 O 0.66928 0.09189 0.79866 0.0
O1307 O 0.55241 0.07701 0.73695 0.0
O1308 O 0.65852 0.05278 0.73809 0.0
O1309 O 0.69521 0.07788 0.76576 0.0
O1310 O 0.6502 0.15142 0.80146 0.0
O1311 O 0.68151 0.13136 0.72874 0.0
O1312 O 0.64201 0.09036 0.71545 0.0
O1313 O 0.69759 0.17765 0.7898 0.0
O1314 O 0.6298 0.16664 0.75831 0.0
O1315 O 0.58681 0.13117 0.74354 0.0
C1316 C 0.65089 0.06284 0.8012 0.0
C1317 C 0.53161 0.04583 0.7034 0.0
C1318 C 0.47329 0.03099 0.68984 0.0
C1319 C 0.48518 0.03275 0.66618 0.0
C1320 C 0.54318 0.04788 0.67978 0.0
C1321 C 0.51988 0.04144 0.66122 0.0
C1322 C 0.4967 0.03781 0.70834 0.0
C1323 C 0.68715 0.05283 0.75074 0.0
C1324 C 0.55516 0.04961 0.72359 0.0
C1325 C 0.52112 0.03246 0.82336 0.0
C1326 C 0.52707 0.99955 0.81343 0.0
C1327 C 0.66859 0.11221 0.71137 0.0
C1328 C 0.69214 0.16749 0.83056 0.0
C1329 C 0.74451 0.17542 0.85406 0.0
C1330 C 0.73298 0.14993 0.87013 0.0
C1331 C 0.68015 0.14261 0.84704 0.0
C1332 C 0.72369 0.18449 0.83474 0.0
C1333 C 0.70047 0.13414 0.86685 0.0
C1334 C 0.59853 0.16243 0.749 0.0
C1335 C 0.67557 0.17262 0.80726 0.0
H1336 H 0.46761 0.02759 0.65156 0.0
H1337 H 0.5701 0.05401 0.67575 0.0
H1338 H 0.5288 0.04284 0.64296 0.0
H1339 H 0.48802 0.03574 0.7267 0.0
H1340 H 0.74881 0.14265 0.88524 0.0
H1341 H 0.65583 0.12891 0.84426 0.0
H1342 H 0.7332 0.20369 0.82209 0.0
H1343 H 0.69135 0.11473 0.87937 0.0
C1344 C 0.44745 0.2313 0.23244 0.0
C1345 C 0.44871 0.20072 0.21847 0.0
C1346 C 0.47561 0.25573 0.23343 0.0
C1347 C 0.50621 0.25124 0.21927 0.0
C1348 C 0.50724 0.22078 0.20464 0.0
C1349 C 0.47929 0.19595 0.20481 0.0
C1350 C 0.47259 0.28642 0.25002 0.0
C1351 C 0.53774 0.21463 0.18822 0.0
C1352 C 0.56424 0.33416 0.20751 0.0
C1353 C 0.5942 0.32863 0.22155 0.0
C1354 C 0.53637 0.30933 0.20616 0.0
C1355 C 0.53678 0.27804 0.21993 0.0
C1356 C 0.56667 0.27278 0.23453 0.0
C1357 C 0.59489 0.29724 0.23466 0.0
C1358 C 0.5068 0.31625 0.18924 0.0
C1359 C 0.56899 0.2411 0.25029 0.0
H1360 H 0.42437 0.23601 0.24309 0.0
H1361 H 0.48099 0.17312 0.19353 0.0
H1362 H 0.49649 0.28889 0.26096 0.0
H1363 H 0.46994 0.31073 0.23956 0.0
H1364 H 0.44973 0.28417 0.2621 0.0
H1365 H 0.53304 0.19261 0.17582 0.0
H1366 H 0.54332 0.23844 0.17765 0.0
H1367 H 0.56129 0.20875 0.19881 0.0
H1368 H 0.56315 0.35746 0.19666 0.0
H1369 H 0.61766 0.2918 0.24536 0.0
H1370 H 0.4825 0.32099 0.19941 0.0
H1371 H 0.50226 0.29315 0.17777 0.0
H1372 H 0.51189 0.33919 0.17768 0.0
H1373 H 0.54444 0.23765 0.26051 0.0
H1374 H 0.59102 0.24285 0.26299 0.0
H1375 H 0.57265 0.21752 0.23919 0.0
C1376 C 0.5401 0.69188 0.47505 0.0
C1377 C 0.57588 0.69534 0.46938 0.0
C1378 C 0.5161 0.72034 0.47389 0.0
C1379 C 0.52697 0.75412 0.46625 0.0
C1380 C 0.56299 0.75772 0.46017 0.0
C1381 C 0.58666 0.72891 0.462 0.0
C1382 C 0.47869 0.71406 0.4809 0.0
C1383 C 0.5766 0.79213 0.45115 0.0
C1384 C 0.45591 0.8205 0.44388 0.0
C1385 C 0.45123 0.84359 0.46324 0.0
C1386 C 0.48016 0.79208 0.44447 0.0
C1387 C 0.50096 0.78533 0.46501 0.0
C1388 C 0.49625 0.80852 0.4846 0.0
C1389 C 0.47214 0.83691 0.48344 0.0
C1390 C 0.48374 0.76934 0.42274 0.0
C1391 C 0.5167 0.80317 0.50716 0.0
H1392 H 0.53058 0.6665 0.48049 0.0
H1393 H 0.61366 0.73258 0.45695 0.0
H1394 H 0.47107 0.73233 0.4953 0.0
H1395 H 0.46142 0.71922 0.46553 0.0
H1396 H 0.4741 0.68698 0.48713 0.0
H1397 H 0.60472 0.79105 0.44654 0.0
H1398 H 0.56184 0.80011 0.43511 0.0
H1399 H 0.5726 0.81257 0.46483 0.0
H1400 H 0.44094 0.82493 0.42788 0.0
H1401 H 0.46952 0.85395 0.49871 0.0
H1402 H 0.47716 0.74201 0.42732 0.0
H1403 H 0.51113 0.76963 0.41641 0.0
H1404 H 0.4666 0.77791 0.40798 0.0
H1405 H 0.51164 0.77669 0.51431 0.0
H1406 H 0.51005 0.8226 0.52108 0.0
H1407 H 0.54499 0.80499 0.50329 0.0
C1408 C 0.07216 0.82362 0.69008 0.0
C1409 C 0.09192 0.82986 0.71088 0.0
C1410 C 0.04378 0.79929 0.68932 0.0
C1411 C 0.03372 0.77968 0.70984 0.0
C1412 C 0.05366 0.78572 0.73087 0.0
C1413 C 0.08212 0.81005 0.73108 0.0
C1414 C 0.02451 0.79448 0.66623 0.0
C1415 C 0.04464 0.76658 0.7535 0.0
C1416 C 0.93889 0.7413 0.71397 0.0
C1417 C 0.94245 0.70551 0.70864 0.0
C1418 C 0.96761 0.76512 0.71434 0.0
C1419 C 1.00223 0.75378 0.70945 0.0
C1420 C 1.00623 0.71748 0.70436 0.0
C1421 C 0.97686 0.69415 0.70421 0.0
C1422 C 0.9607 0.80278 0.72027 0.0
C1423 C 0.04179 0.70316 0.69874 0.0
H1424 H 0.07927 0.83742 0.67398 0.0
H1425 H 0.0966 0.81381 0.7474 0.0
H1426 H 0.02529 0.76669 0.66084 0.0
H1427 H 0.99676 0.80159 0.66864 0.0
H1428 H 0.03562 0.81058 0.65162 0.0
H1429 H 0.06187 0.77401 0.76851 0.0
H1430 H 0.01726 0.77208 0.7586 0.0
H1431 H 0.04674 0.73809 0.7506 0.0
H1432 H 0.9135 0.75082 0.71866 0.0
H1433 H 0.98089 0.66688 0.70011 0.0
H1434 H 0.96986 0.81973 0.70552 0.0
H1435 H 0.97552 0.81027 0.7364 0.0
H1436 H 0.93263 0.80799 0.72346 0.0
H1437 H 0.0531 0.71721 0.68326 0.0
H1438 H 0.04107 0.67487 0.69464 0.0
H1439 H 0.05945 0.70746 0.71404 0.0
C1440 C 0.09117 0.22513 0.96097 0.0
C1441 C 0.08253 0.1932 0.97199 0.0
C1442 C 0.06769 0.25419 0.96041 0.0
C1443 C 0.03447 0.25294 0.9722 0.0
C1444 C 0.02622 0.22079 0.98384 0.0
C1445 C 0.04954 0.19178 0.9831 0.0
C1446 C 0.07896 0.28584 0.94646 0.0
C1447 C 0.99245 0.21618 0.99725 0.0
C1448 C 0.99253 0.34448 0.98612 0.0
C1449 C 0.95997 0.3437 0.97454 0.0
C1450 C 0.01609 0.31557 0.98598 0.0
C1451 C 1.00882 0.28462 0.97265 0.0
C1452 C 0.97628 0.2843 0.96019 0.0
C1453 C 0.95239 0.31286 0.96183 0.0
C1454 C 0.04901 0.31895 1.00032 0.0
C1455 C 0.96617 0.25426 0.94435 0.0
H1456 H 0.11603 0.22715 0.95188 0.0
H1457 H 0.04192 0.1678 0.99183 0.0
H1458 H 0.05686 0.30287 0.94151 0.0
H1459 H 0.09771 0.30109 0.95724 0.0
H1460 H 0.09279 0.27791 0.92993 0.0
H1461 H 0.9958 0.19817 1.01255 0.0
H1462 H 0.98198 0.24119 1.00404 0.0
H1463 H 0.97294 0.20425 0.98522 0.0
H1464 H 0.99966 0.3679 0.99573 0.0
H1465 H 0.9281 0.31144 0.95212 0.0
H1466 H 0.0691 0.33223 0.98935 0.0
H1467 H 0.05928 0.29334 1.00608 0.0
H1468 H 0.0446 0.33526 1.01638 0.0
H1469 H 0.98851 0.23743 0.93949 0.0
H1470 H 0.95417 0.26409 0.92769 0.0
H1471 H 0.94615 0.23825 0.95354 0.0
C1472 C 0.59025 0.79346 0.98909 0.0
C1473 C 0.58731 0.8297 0.99314 0.0
C1474 C 0.56112 0.77023 0.99015 0.0
C1475 C 0.52706 0.78252 0.99576 0.0
C1476 C 0.52385 0.81908 1.00002 0.0
C1477 C 0.55348 0.84189 0.99857 0.0
C1478 C 0.56703 0.73203 0.98547 0.0
C1479 C 0.48892 0.83423 1.00652 0.0
C1480 C 0.44699 0.72477 0.97735 0.0
C1481 C 0.43664 0.70829 0.99869 0.0
C1482 C 0.4752 0.74919 0.97633 0.0
C1483 C 0.49527 0.75727 0.99696 0.0
C1484 C 0.48509 0.74029 1.01854 0.0
C1485 C 0.456 0.71685 1.0192 0.0
C1486 C 0.48342 0.76666 0.95296 0.0
C1487 C 0.50523 0.74668 1.0411 0.0
H1488 H 0.61577 0.78291 0.98516 0.0
H1489 H 0.55016 0.86936 1.00231 0.0
H1490 H 0.55923 0.71661 1.00133 0.0
H1491 H 0.55053 0.72329 0.97043 0.0
H1492 H 0.59464 0.72617 0.98117 0.0
H1493 H 0.48993 0.86298 1.00854 0.0
H1494 H 0.46946 0.82755 0.99269 0.0
H1495 H 0.47965 0.82272 1.02352 0.0
H1496 H 0.43237 0.71912 0.96134 0.0
H1497 H 0.44868 0.70471 1.03591 0.0
H1498 H 0.51027 0.75999 0.94727 0.0
H1499 H 0.48234 0.79537 0.95512 0.0
H1500 H 0.46506 0.75891 0.93867 0.0
H1501 H 0.53302 0.73991 1.03833 0.0
H1502 H 0.49499 0.73121 1.05632 0.0
H1503 H 0.5042 0.77469 1.04583 0.0
C1504 C 0.57527 0.22126 0.76451 0.0
C1505 C 0.57349 0.19376 0.74783 0.0
C1506 C 0.55075 0.24931 0.76489 0.0
C1507 C 0.52375 0.2517 0.74756 0.0
C1508 C 0.52231 0.22432 0.73037 0.0
C1509 C 0.54624 0.19575 0.73106 0.0
C1510 C 0.5534 0.27613 0.78441 0.0
C1511 C 0.49549 0.22526 0.71087 0.0
C1512 C 0.4402 0.30953 0.75696 0.0
C1513 C 0.44914 0.34165 0.74631 0.0
C1514 C 0.46395 0.28074 0.75788 0.0
C1515 C 0.49772 0.28278 0.74714 0.0
C1516 C 0.50641 0.31498 0.73591 0.0
C1517 C 0.48265 0.3436 0.73596 0.0
C1518 C 0.45303 0.24823 0.77098 0.0
C1519 C 0.54101 0.31931 0.72349 0.0
H1520 H 0.59541 0.22034 0.77795 0.0
H1521 H 0.54389 0.17505 0.71806 0.0
H1522 H 0.56042 0.30179 0.77672 0.0
H1523 H 0.52782 0.27912 0.79343 0.0
H1524 H 0.57323 0.26912 0.79792 0.0
H1525 H 0.50009 0.20487 0.6972 0.0
H1526 H 0.46919 0.22123 0.71858 0.0
H1527 H 0.49562 0.25113 0.70205 0.0
H1528 H 0.41487 0.30721 0.76537 0.0
H1529 H 0.49028 0.36761 0.72733 0.0
H1530 H 0.47333 0.24073 0.78402 0.0
H1531 H 0.45023 0.22639 0.75823 0.0
H1532 H 0.42791 0.25161 0.78055 0.0
H1533 H 0.56236 0.31833 0.73669 0.0
H1534 H 0.54291 0.3444 0.71372 0.0
H1535 H 0.5452 0.29763 0.71074 0.0
C1536 C 0.08221 0.30372 0.47958 0.0
C1537 C 0.08355 0.33378 0.49404 0.0
C1538 C 0.05393 0.27939 0.48045 0.0
C1539 C 0.0258 0.28358 0.49687 0.0
C1540 C 0.02723 0.31376 0.51177 0.0
C1541 C 0.0553 0.33837 0.50991 0.0
C1542 C 0.05434 0.24891 0.46355 0.0
C1543 C 0.99959 0.31956 0.53048 0.0
C1544 C 0.93542 0.23821 0.48621 0.0
C1545 C 0.93723 0.20675 0.49918 0.0
C1546 C 0.96349 0.26273 0.48523 0.0
C1547 C 0.995 0.25703 0.49802 0.0
C1548 C 0.99688 0.22536 0.51139 0.0
C1549 C 0.96864 0.20075 0.5115 0.0
C1550 C 0.95942 0.29485 0.47007 0.0
C1551 C 0.02862 0.21764 0.52615 0.0
H1552 H 0.10349 0.29921 0.46727 0.0
H1553 H 0.05566 0.36073 0.52162 0.0
H1554 H 0.05881 0.22451 0.47362 0.0
H1555 H 0.02882 0.2464 0.45449 0.0
H1556 H 0.07511 0.2514 0.44984 0.0
H1557 H 1.00407 0.34382 0.5408 0.0
H1558 H 0.97353 0.32098 0.52214 0.0
H1559 H 0.99915 0.29718 0.54299 0.0
H1560 H 0.91197 0.24358 0.47629 0.0
H1561 H 0.97082 0.17711 0.52192 0.0
H1562 H 0.98111 0.29647 0.457 0.0
H1563 H 0.96074 0.31849 0.48135 0.0
H1564 H 0.93434 0.29509 0.46029 0.0
H1565 H 0.05136 0.21321 0.51435 0.0
H1566 H 0.025 0.19426 0.53755 0.0
H1567 H 0.03488 0.24026 0.53768 0.0
C1568 C 0.07828 0.71519 0.27077 0.0
C1569 C 0.08107 0.69105 0.25184 0.0
C1570 C 0.05428 0.74376 0.27047 0.0
C1571 C 0.03151 0.74935 0.2508 0.0
C1572 C 0.03401 0.72491 0.23173 0.0
C1573 C 0.05817 0.69654 0.23252 0.0
C1574 C 0.05318 0.76801 0.29155 0.0
C1575 C 1.01106 0.72883 0.21019 0.0
C1576 C 0.9468 0.80616 0.25757 0.0
C1577 C 0.95648 0.83923 0.24857 0.0
C1578 C 0.97048 0.77736 0.25852 0.0
C1579 C 1.00547 0.78048 0.25006 0.0
C1580 C 0.01527 0.8137 0.24078 0.0
C1581 C 0.99122 0.84217 0.2403 0.0
C1582 C 0.95799 0.74342 0.26902 0.0
C1583 C 0.05161 0.81936 0.2313 0.0
H1584 H 0.09462 0.71154 0.28622 0.0
H1585 H 0.05923 0.67858 0.21766 0.0
H1586 H 0.05906 0.795 0.28573 0.0
H1587 H 0.02662 0.76814 0.29938 0.0
H1588 H 0.07205 0.76052 0.30558 0.0
H1589 H 0.01599 0.70836 0.19663 0.0
H1590 H 0.98329 0.72755 0.21561 0.0
H1591 H 0.01542 0.75472 0.20191 0.0
H1592 H 0.92059 0.80281 0.26439 0.0
H1593 H 0.9999 0.8671 0.23343 0.0
H1594 H 0.97463 0.73616 0.28434 0.0
H1595 H 0.96032 0.72233 0.25563 0.0
H1596 H 0.93051 0.74477 0.27516 0.0
H1597 H 0.07085 0.81486 0.24564 0.0
H1598 H 0.05544 0.84608 0.22416 0.0
H1599 H 0.05719 0.80032 0.21694 0.0
C1600 C 0.42091 0.97229 0.12689 0.0
C1601 C 0.4289 0.99754 0.10966 0.0
C1602 C 0.44045 0.94166 0.12861 0.0
C1603 C 0.4688 0.93665 0.11288 0.0
C1604 C 0.47489 0.96067 1.0941 0.0
C1605 C 0.45461 0.99085 1.09265 0.0
C1606 C 0.43273 0.91661 0.14866 0.0
C1607 C 0.50498 0.95631 1.07695 0.0
C1608 C 0.55441 0.89728 0.13039 0.0
C1609 C 0.55483 0.86772 0.11586 0.0
C1610 C 0.52481 0.91844 0.13153 0.0
C1611 C 0.49521 0.90956 0.11782 0.0
C1612 C 0.49394 0.8773 1.10577 0.0
C1613 C 0.52384 0.8565 1.10509 0.0
C1614 C 0.52683 0.95235 0.14506 0.0
C1615 C 0.46259 0.86667 1.09136 0.0
H1616 H 0.40106 0.97773 0.14012 0.0
H1617 H 0.46098 1.01068 1.07958 0.0
H1618 H 0.43899 0.88938 0.14365 0.0
H1619 H 0.4488 0.92366 0.16432 0.0
H1620 H 0.40495 0.91794 0.15411 0.0
H1621 H 0.50413 0.97548 1.06215 0.0
H1622 H 0.52992 0.95982 1.0866 0.0
H1623 H 0.50497 0.92969 1.0693 0.0
H1624 H 0.57837 0.90613 0.13858 0.0
H1625 H 0.52421 0.8335 1.09388 0.0
H1626 H 0.50295 0.95628 0.15587 0.0
H1627 H 0.52876 0.97432 0.13227 0.0
H1628 H 0.54978 0.95336 0.15703 0.0
H1629 H 0.43814 0.87265 1.10109 0.0
H1630 H 0.46303 0.83847 1.08694 0.0
H1631 H 0.46231 0.88161 1.07445 0.0
C1632 C 0.64557 0.71918 0.33053 0.0
C1633 C 0.61506 0.71956 0.34419 0.0
C1634 C 0.66677 0.74882 0.32915 0.0
C1635 C 0.65695 0.77922 0.34175 0.0
C1636 C 0.62378 0.78117 0.35261 0.0
C1637 C 0.60295 0.75123 0.35351 0.0
C1638 C 0.70167 0.74609 0.31684 0.0
C1639 C 0.61219 0.81337 0.36579 0.0
C1640 C 0.73541 0.82155 0.36984 0.0
C1641 C 0.74346 0.84708 0.353 0.0
C1642 C 0.70586 0.80055 0.36713 0.0
C1643 C 0.68379 0.80573 0.34722 0.0
C1644 C 0.69019 0.83361 0.33137 0.0
C1645 C 0.7202 0.85386 0.33438 0.0
C1646 C 0.70001 0.77093 0.38444 0.0
C1647 C 0.66727 0.8403 0.31009 0.0
H1648 H 0.65507 0.6947 0.32343 0.0
H1649 H 0.57923 0.75144 0.36404 0.0
H1650 H 0.70673 0.76954 0.30583 0.0
H1651 H 0.72255 0.74449 0.33041 0.0
H1652 H 0.70332 0.72267 0.30529 0.0
H1653 H 0.58371 0.81311 0.3693 0.0
H1654 H 0.62585 0.81476 0.38315 0.0
H1655 H 0.61896 0.83722 0.35561 0.0
H1656 H 0.75374 0.81609 0.384 0.0
H1657 H 0.72671 0.87355 0.3213 0.0
H1658 H 0.70423 0.7457 0.37523 0.0
H1659 H 0.67281 0.77113 0.39112 0.0
H1660 H 0.71791 0.77223 0.39991 0.0
H1661 H 0.67609 0.82376 0.29504 0.0
H1662 H 0.66896 0.8679 0.30429 0.0
H1663 H 0.63964 0.83385 0.31389 0.0
C1664 C 0.02207 0.94269 0.62457 0.0
C1665 C 0.04316 0.96101 0.60833 0.0
C1666 C 0.98712 0.95199 0.62803 0.0
C1667 C 0.97347 0.98039 0.61514 0.0
C1668 C 0.99337 0.99575 0.59655 0.0
C1669 C 0.02805 0.98574 0.59335 0.0
C1670 C 0.96616 0.93349 0.64695 0.0
C1671 C 0.97943 0.02544 0.5817 0.0
C1672 C 0.88656 0.02258 0.61096 0.0
C1673 C 0.89383 0.05326 0.62361 0.0
C1674 C 0.91029 0.99486 0.61109 0.0
C1675 C 0.94187 0.9988 0.62357 0.0
C1676 C 0.946 0.02689 0.63967 0.0
C1677 C 0.92149 0.05381 0.63968 0.0
C1678 C 0.90394 0.96362 0.59547 0.0
C1679 C 0.97883 0.03137 0.65405 0.0
H1680 H 0.03359 0.92293 0.63584 0.0
H1681 H 0.04424 0.99985 0.58076 0.0
H1682 H 0.9719 0.94524 0.66454 0.0
H1683 H 0.93775 0.93552 0.64382 0.0
H1684 H 0.97335 0.90552 0.64777 0.0
H1685 H 0.99759 0.03302 0.56715 0.0
H1686 H 0.95414 0.01816 0.57363 0.0
H1687 H 0.97495 0.04853 0.59318 0.0
H1688 H 0.86477 0.02205 0.59874 0.0
H1689 H 0.92689 0.07748 0.64954 0.0
H1690 H 0.9134 0.93951 0.60417 0.0
H1691 H 0.91865 0.96668 0.57858 0.0
H1692 H 0.87587 0.96051 0.59132 0.0
H1693 H 0.98563 1.00672 0.66318 0.0
H1694 H 0.97621 0.05224 0.66763 0.0
H1695 H 1.00075 0.03825 0.64199 0.0
C1696 C 0.91613 0.28937 0.84226 0.0
C1697 C 0.921 0.30422 0.86483 0.0
C1698 C 0.89303 0.26136 0.83911 0.0
C1699 C 0.87539 0.24736 0.85911 0.0
C1700 C 0.88402 0.25874 0.88219 0.0
C1701 C 0.90604 0.28734 0.88475 0.0
C1702 C 0.88449 0.24967 0.81418 0.0
C1703 C 0.86616 0.24417 0.9041 0.0
C1704 C 0.77936 0.22933 0.85577 0.0
C1705 C 0.77832 0.19297 0.85653 0.0
C1706 C 0.811 0.24713 0.85542 0.0
C1707 C 0.84245 0.22798 0.85605 0.0
C1708 C 0.84165 0.19114 0.85657 0.0
C1709 C 0.80935 0.17393 0.85685 0.0
C1710 C 0.8106 0.2865 0.85504 0.0
C1711 C 0.8747 0.17005 0.85742 0.0
H1712 H 0.92826 0.30115 0.82679 0.0
H1713 H 0.90833 0.29808 0.90246 0.0
H1714 H 0.88009 0.22114 0.81347 0.0
H1715 H 0.86014 0.26259 0.80836 0.0
H1716 H 0.90549 0.25674 0.80141 0.0
H1717 H 0.88102 0.25003 0.92056 0.0
H1718 H 0.83995 0.25603 0.90589 0.0
H1719 H 0.86272 0.21557 0.90272 0.0
H1720 H 0.75519 0.24388 0.85534 0.0
H1721 H 0.80832 0.14571 0.85688 0.0
H1722 H 0.82765 0.29653 0.8406 0.0
H1723 H 0.82078 0.2967 0.87214 0.0
H1724 H 0.78399 0.29706 0.8524 0.0
H1725 H 0.89427 0.18042 0.84468 0.0
H1726 H 0.86992 0.14215 0.85336 0.0
H1727 H 0.88611 0.1719 0.8755 0.0
C1728 C 0.28026 0.35457 0.88081 0.0
C1729 C 0.28456 0.38264 0.86527 0.0
C1730 C 0.24891 0.33595 0.88135 0.0
C1731 C 0.22135 0.34619 0.86618 0.0
C1732 C 0.22397 0.37746 0.85307 0.0
C1733 C 0.25589 0.39526 0.85253 0.0
C1734 C 0.24687 0.30299 0.89597 0.0
C1735 C 0.1944 0.38991 0.83771 0.0
C1736 C 0.17859 0.26532 0.84246 0.0
C1737 C 0.15184 0.26077 0.8591 0.0
C1738 C 0.19951 0.29521 0.84303 0.0
C1739 C 0.19341 0.32079 0.86076 0.0
C1740 C 0.16364 0.31837 0.87551 0.0
C1741 C 0.14296 0.28835 0.87437 0.0
C1742 C 0.23044 0.29745 0.82639 0.0
C1743 C 0.15569 0.34538 0.89424 0.0
H1744 H 0.3026 0.34477 0.89046 0.0
H1745 H 0.25939 0.41715 0.84058 0.0
H1746 H 0.22202 0.30188 0.90604 0.0
H1747 H 0.24762 0.28006 0.88394 0.0
H1748 H 0.26879 0.30086 0.90874 0.0
H1749 H 0.19703 0.41799 0.83339 0.0
H1750 H 0.19418 0.37479 0.82089 0.0
H1751 H 0.16893 0.38563 0.84661 0.0
H1752 H 0.18551 0.24405 0.83069 0.0
H1753 H 0.1219 0.28494 0.88708 0.0
H1754 H 0.25481 0.29396 0.83667 0.0
H1755 H 0.23164 0.32343 0.8178 0.0
H1756 H 0.22951 0.27725 0.81225 0.0
H1757 H 0.17096 0.33958 0.91049 0.0
H1758 H 0.12766 0.34512 0.89919 0.0
H1759 H 0.16294 0.37192 0.88816 0.0
C1760 C 0.20499 0.80045 0.44769 0.0
C1761 C 0.19739 0.82403 0.42945 0.0
C1762 C 0.20544 0.76458 0.44309 0.0
C1763 C 0.1996 0.75284 0.41961 0.0
C1764 C 0.1884 0.77645 0.40184 0.0
C1765 C 0.187 0.81193 0.40716 0.0
C1766 C 0.21533 0.73956 0.46262 0.0
C1767 C 0.18216 0.76499 0.37647 0.0
C1768 C 0.25644 0.68491 0.39159 0.0
C1769 C 0.23165 0.65979 0.38573 0.0
C1770 C 0.24689 0.71441 0.40458 0.0
C1771 C 0.21186 0.71807 0.41223 0.0
C1772 C 0.18777 0.69075 0.40863 0.0
C1773 C 0.19774 0.66219 0.39477 0.0
C1774 C 0.27328 0.74333 0.4076 0.0
C1775 C 0.15062 0.69306 0.4173 0.0
H1776 H 0.21298 0.81019 0.46492 0.0
H1777 H 0.18156 0.83053 0.39313 0.0
H1778 H 0.21361 0.75181 0.48048 0.0
H1779 H 0.19817 0.71628 0.46223 0.0
H1780 H 0.24237 0.73036 0.45975 0.0
H1781 H 0.17155 0.78631 0.36528 0.0
H1782 H 0.20704 0.75609 0.36842 0.0
H1783 H 0.16373 0.74279 0.37598 0.0
H1784 H 0.28238 0.68314 0.38399 0.0
H1785 H 0.17827 0.64334 0.38949 0.0
H1786 H 0.27391 0.75232 0.42632 0.0
H1787 H 0.26575 0.76592 0.39642 0.0
H1788 H 0.29995 0.73513 0.40236 0.0
H1789 H 0.14874 0.70795 0.43418 0.0
H1790 H 0.13932 0.66671 0.42008 0.0
H1791 H 0.13461 0.70653 0.40375 0.0
C1792 C 1.00884 0.37658 0.59804 0.0
C1793 C 0.0383 0.38693 0.61102 0.0
C1794 C 0.97953 0.3981 0.59673 0.0
C1795 C 0.97957 0.42996 0.60928 0.0
C1796 C 1.00688 0.43761 0.62537 0.0
C1797 C 0.03616 0.41597 0.62596 0.0
C1798 C 0.95047 0.38863 0.57991 0.0
C1799 C 1.00702 0.47068 0.63991 0.0
C1800 C 0.94585 0.51408 0.5839 0.0
C1801 C 0.9181 0.52074 0.59934 0.0
C1802 C 0.96445 0.48283 0.58554 0.0
C1803 C 0.95465 0.45784 0.60294 0.0
C1804 C 0.9241 0.4628 0.61656 0.0
C1805 C 0.90624 0.49445 0.61471 0.0
C1806 C 0.99672 0.4783 0.57041 0.0
C1807 C 0.91217 0.43651 0.63481 0.0
H1808 H 1.01039 0.35376 0.58671 0.0
H1809 H 0.05883 0.42402 0.63602 0.0
H1810 H 0.92474 0.39482 0.58786 0.0
H1811 H 0.95317 0.40415 0.56333 0.0
H1812 H 0.95107 0.36059 0.57507 0.0
H1813 H 0.02809 0.4708 0.6534 0.0
H1814 H 1.01082 0.4934 0.62795 0.0
H1815 H 0.98167 0.47404 0.64915 0.0
H1816 H 0.95516 0.53464 0.57226 0.0
H1817 H 0.88475 0.49982 0.62667 0.0
H1818 H 0.99722 0.45197 0.56232 0.0
H1819 H 0.02019 0.48087 0.58176 0.0
H1820 H 0.99841 0.49802 0.55597 0.0
H1821 H 0.92044 0.40967 0.63026 0.0
H1822 H 0.88339 0.43686 0.63658 0.0
H1823 H 0.92354 0.44333 0.65233 0.0
C1824 C 0.56495 0.38684 1.0898 0.0
C1825 C 0.60015 0.39603 1.08757 0.0
C1826 C 0.53891 0.41201 1.08752 0.0
C1827 C 0.54854 0.44674 1.08243 0.0
C1828 C 0.58362 0.45509 1.07713 0.0
C1829 C 0.6092 0.42949 1.0798 0.0
C1830 C 0.50163 0.40218 1.09285 0.0
C1831 C 0.5944 0.49174 1.0707 0.0
C1832 C 0.47929 0.5131 1.06821 0.0
C1833 C 0.47669 0.53125 1.08988 0.0
C1834 C 0.50263 0.48555 1.06543 0.0
C1835 C 0.52273 0.47496 1.0851 0.0
C1836 C 0.51891 0.49193 1.10739 0.0
C1837 C 0.49599 0.52012 0.10948 0.0
C1838 C 0.5057 0.46814 1.04141 0.0
C1839 C 0.53932 0.48057 0.12895 0.0
H1840 H 0.55815 0.36092 1.09594 0.0
H1841 H 0.63645 0.43664 1.07831 0.0
H1842 H 0.49338 0.41438 0.10986 0.0
H1843 H 0.4842 0.41212 1.07871 0.0
H1844 H 0.49808 0.37355 1.09439 0.0
H1845 H 0.6224 0.49352 1.06583 0.0
H1846 H 0.57859 0.50127 1.05555 0.0
H1847 H 0.58938 0.50935 1.08598 0.0
H1848 H 0.46358 0.52101 1.05316 0.0
H1849 H 0.49394 0.53406 0.1262 0.0
H1850 H 0.48854 0.44487 1.04107 0.0
H1851 H 0.53268 0.45944 1.03763 0.0
H1852 H 0.49752 0.48591 1.0269 0.0
H1853 H 0.53118 0.45392 0.1342 0.0
H1854 H 0.53543 0.49821 0.14439 0.0
H1855 H 0.56746 0.47946 0.12466 0.0
C1856 C 0.25362 0.35164 0.24921 0.0
C1857 C 0.29007 0.35185 0.24845 0.0
C1858 C 0.23506 0.38289 0.25227 0.0
C1859 C 0.25359 0.41474 0.25421 0.0
C1860 C 0.29036 0.41451 0.25524 0.0
C1861 C 0.30808 0.383 0.25267 0.0
C1862 C 0.19579 0.38211 0.25182 0.0
C1863 C 0.31118 0.44783 0.257 0.0
C1864 C 0.21487 0.49688 0.22803 0.0
C1865 C 0.20705 0.51596 0.24853 0.0
C1866 C 0.22943 0.46354 0.22968 0.0
C1867 C 0.23522 0.44861 0.25241 0.0
C1868 C 0.22621 0.4674 0.27319 0.0
C1869 C 0.21284 0.5012 0.271 0.0
C1870 C 0.23941 0.44465 0.20709 0.0
C1871 C 0.2309 0.45197 0.2977 0.0
H1872 H 0.23968 0.32755 0.24595 0.0
H1873 H 0.33632 0.38298 0.25241 0.0
H1874 H 0.18488 0.39918 0.26592 0.0
H1875 H 0.18649 0.39216 0.23446 0.0
H1876 H 0.18541 0.35532 0.25427 0.0
H1877 H 0.33947 0.44289 0.25919 0.0
H1878 H 0.30742 0.46347 0.24059 0.0
H1879 H 0.30199 0.46375 0.27222 0.0
H1880 H 0.21008 0.50833 0.2107 0.0
H1881 H 0.20613 0.51577 0.28688 0.0
H1882 H 0.22594 0.41911 0.20625 0.0
H1883 H 0.26782 0.43947 0.20699 0.0
H1884 H 0.2328 0.45975 0.19086 0.0
H1885 H 0.21963 0.42536 0.29844 0.0
H1886 H 0.2185 0.4681 0.31178 0.0
H1887 H 0.25905 0.44966 0.30172 0.0
C1888 C 0.42191 0.48014 0.51995 0.0
C1889 C 0.43621 0.51246 0.51351 0.0
C1890 C 0.38701 0.472 0.51523 0.0
C1891 C 0.36565 0.49675 0.50367 0.0
C1892 C 0.38018 0.52904 0.49638 0.0
C1893 C 0.4154 0.53647 0.50128 0.0
C1894 C 0.37285 0.43707 0.52307 0.0
C1895 C 0.35823 0.55607 0.48404 0.0
C1896 C 0.28355 0.45866 0.47639 0.0
C1897 C 0.2592 0.46312 0.49482 0.0
C1898 C 0.31793 0.47076 0.47858 0.0
C1899 C 0.32812 0.48854 0.49951 0.0
C1900 C 0.30299 0.49534 0.51746 0.0
C1901 C 0.26885 0.48251 0.51493 0.0
C1902 C 0.3439 0.46244 0.45918 0.0
C1903 C 0.31272 0.51418 0.54008 0.0
H1904 H 0.43808 0.46125 0.52901 0.0
H1905 H 0.42631 0.5615 0.4963 0.0
H1906 H 0.35168 0.44085 0.5363 0.0
H1907 H 0.36151 0.42308 0.50766 0.0
H1908 H 0.39318 0.42034 0.53118 0.0
H1909 H 0.37363 0.57932 0.4787 0.0
H1910 H 0.34596 0.54474 0.46795 0.0
H1911 H 0.33687 0.56451 0.49606 0.0
H1912 H 0.27613 0.44427 0.46061 0.0
H1913 H 0.25037 0.48588 0.52937 0.0
H1914 H 0.36333 0.4436 0.46599 0.0
H1915 H 0.35828 0.48626 0.45378 0.0
H1916 H 0.33131 0.45098 0.44322 0.0
H1917 H 0.32991 0.49737 0.55096 0.0
H1918 H 0.28952 0.52107 0.55094 0.0
H1919 H 0.32743 0.53833 0.5359 0.0
C1920 C 0.23992 0.66699 0.75293 0.0
C1921 C 0.25749 0.68705 0.76994 0.0
C1922 C 0.25128 0.63324 0.74718 0.0
C1923 C 0.28139 0.61967 0.7583 0.0
C1924 C 0.2997 0.64027 0.77505 0.0
C1925 C 0.28731 0.67359 0.78082 0.0
C1926 C 0.23068 0.61184 0.72961 0.0
C1927 C 0.33232 0.62709 0.78696 0.0
C1928 C 0.2975 0.52238 0.76347 0.0
C1929 C 0.32177 0.51659 0.74514 0.0
C1930 C 0.28296 0.55545 0.76727 0.0
C1931 C 0.29356 0.58374 0.75278 0.0
C1932 C 0.31701 0.57787 0.73371 0.0
C1933 C 0.33009 0.54421 0.72978 0.0
C1934 C 0.25737 0.56037 0.78745 0.0
C1935 C 0.32965 0.60745 0.71819 0.0
H1936 H 0.21684 0.67745 0.74451 0.0
H1937 H 0.30119 0.68938 0.79369 0.0
H1938 H 0.24753 0.60394 0.71449 0.0
H1939 H 0.22129 0.58762 0.73832 0.0
H1940 H 0.20789 0.62619 0.7225 0.0
H1941 H 0.34449 0.64707 0.79858 0.0
H1942 H 0.32611 0.60389 0.79795 0.0
H1943 H 0.35162 0.61892 0.77333 0.0
H1944 H 0.29073 0.50145 0.77549 0.0
H1945 H 0.34764 0.53983 0.71503 0.0
H1946 H 0.23414 0.57483 0.78121 0.0
H1947 H 0.2696 0.57606 0.80174 0.0
H1948 H 0.24871 0.53516 0.7952 0.0
H1949 H 0.30726 0.62146 0.71031 0.0
H1950 H 0.34695 0.59836 0.70358 0.0
H1951 H 0.34426 0.62647 0.72919 0.0
C1952 C 0.10741 0.55769 1.03297 0.0
C1953 C 0.09496 0.52451 1.02709 0.0
C1954 C 0.14198 0.56725 1.02802 0.0
C1955 C 0.16474 0.5427 1.01741 0.0
C1956 C 0.15233 0.50897 1.01172 0.0
C1957 C 0.11739 0.50044 1.01632 0.0
C1958 C 0.15399 0.60377 1.03378 0.0
C1959 C 0.17596 0.48196 1.00077 0.0
C1960 C 0.24387 0.57802 0.98463 0.0
C1961 C 0.26952 0.57655 1.00227 0.0
C1962 C 0.20975 0.56669 0.98921 0.0
C1963 C 0.20133 0.55264 1.01181 0.0
C1964 C 0.22762 0.54918 1.02926 0.0
C1965 C 0.2614 0.56129 1.02431 0.0
C1966 C 0.18237 0.57133 0.97025 0.0
C1967 C 0.21974 0.53396 1.05348 0.0
H1968 H 0.08979 0.57643 1.04093 0.0
H1969 H 0.1076 0.47481 1.01173 0.0
H1970 H 0.17591 0.60294 1.04657 0.0
H1971 H 0.16373 0.61675 1.01741 0.0
H1972 H 0.13285 0.61991 1.04156 0.0
H1973 H 0.16261 0.45655 0.9982 0.0
H1974 H 0.18567 0.4912 0.98325 0.0
H1975 H 0.19901 0.47791 1.01229 0.0
H1976 H 0.25025 0.58891 0.96738 0.0
H1977 H 0.28104 0.56016 1.0381 0.0
H1978 H 0.16318 0.59108 0.97623 0.0
H1979 H 0.16795 0.54668 0.96731 0.0
H1980 H 0.19371 0.57999 0.95301 0.0
H1981 H 0.20201 0.55156 1.06337 0.0
H1982 H 0.24364 0.53017 1.06425 0.0
H1983 H 0.20623 0.50854 1.0516 0.0
C1984 C 0.8042 0.52208 0.94578 0.0
C1985 C 0.82775 0.51651 0.96445 0.0
C1986 C 0.78874 0.55488 0.94229 0.0
C1987 C 0.79737 0.58287 0.95762 0.0
C1988 C 0.81961 0.57689 0.97722 0.0
C1989 C 0.834 0.54369 0.98062 0.0
C1990 C 0.76475 0.56005 0.92137 0.0
C1991 C 0.83015 0.60612 0.9937 0.0
C1992 C 0.79431 0.67458 0.93211 0.0
C1993 C 0.76386 0.68788 0.94243 0.0
C1994 C 0.80544 0.64051 0.93691 0.0
C1995 C 0.78537 0.61895 0.9522 0.0
C1996 C 0.75449 0.63221 0.96263 0.0
C1997 C 0.74427 0.66666 0.95781 0.0
C1998 C 0.83888 0.62769 0.92576 0.0
C1999 C 0.73215 0.6099 0.97872 0.0
H2000 H 0.79928 0.50141 0.93309 0.0
H2001 H 0.85182 0.53959 0.99527 0.0
H2002 H 0.74095 0.57424 0.92696 0.0
H2003 H 0.77803 0.5761 0.90764 0.0
H2004 H 0.75696 0.53494 0.91313 0.0
H2005 H 0.84588 0.59676 1.00896 0.0
H2006 H 0.84577 0.62558 0.98365 0.0
H2007 H 0.80682 0.61971 1.00069 0.0
H2008 H 0.80978 0.69112 0.92053 0.0
H2009 H 0.72064 0.67685 0.96576 0.0
H2010 H 0.83352 0.60484 0.91426 0.0
H2011 H 0.85711 0.61908 0.93983 0.0
H2012 H 0.85193 0.64803 0.91482 0.0
H2013 H 0.72409 0.58592 0.96917 0.0
H2014 H 0.70845 0.62375 0.98494 0.0
H2015 H 0.74733 0.60162 0.99448 0.0
C2016 C 0.6061 0.5243 0.71633 0.0
C2017 C 0.60752 0.48831 0.72046 0.0
C2018 C 0.63682 0.54362 0.71241 0.0
C2019 C 0.6695 0.52652 0.71302 0.0
C2020 C 0.67073 0.48995 0.71584 0.0
C2021 C 0.63975 0.47132 0.71912 0.0
C2022 C 0.63446 0.58248 0.70874 0.0
C2023 C 0.70492 0.47065 0.71698 0.0
C2024 C 0.75461 0.56656 0.69157 0.0
C2025 C 0.76891 0.57868 0.71297 0.0
C2026 C 0.72143 0.55111 0.69109 0.0
C2027 C 0.70266 0.5467 0.71263 0.0
C2028 C 0.71706 0.55898 0.73427 0.0
C2029 C 0.74984 0.57521 0.73411 0.0
C2030 C 0.70656 0.53934 0.66757 0.0
C2031 C 0.69826 0.55417 0.7577 0.0
H2032 H 0.58127 0.53758 0.71736 0.0
H2033 H 0.64088 0.44338 0.72179 0.0
H2034 H 0.64454 0.59618 0.72468 0.0
H2035 H 0.65081 0.59059 0.69337 0.0
H2036 H 0.60726 0.59109 0.70562 0.0
H2037 H 0.70126 0.44202 0.71841 0.0
H2038 H 0.72086 0.47624 0.70093 0.0
H2039 H 0.71994 0.47968 0.73266 0.0
H2040 H 0.76903 0.56987 0.6751 0.0
H2041 H 0.76086 0.58469 0.75063 0.0
H2042 H 0.6797 0.54941 0.66541 0.0
H2043 H 0.70499 0.51051 0.66715 0.0
H2044 H 0.72261 0.54818 0.65221 0.0
H2045 H 0.67215 0.56635 0.75693 0.0
H2046 H 0.71278 0.5657 0.77286 0.0
H2047 H 0.69434 0.52599 0.76122 0.0
C2048 C 0.81699 0.39431 0.46853 0.0
C2049 C 0.79878 0.36278 0.4708 0.0
C2050 C 0.79946 0.42575 0.46507 0.0
C2051 C 0.7628 0.4256 0.46295 0.0
C2052 C 0.74446 0.39351 0.46305 0.0
C2053 C 0.76269 0.36236 0.46721 0.0
C2054 C 0.82 0.45933 0.46547 0.0
C2055 C 0.70543 0.39227 0.46011 0.0
C2056 C 0.71548 0.50622 0.48471 0.0
C2057 C 0.71069 0.52471 0.46351 0.0
C2058 C 0.73244 0.47392 0.48474 0.0
C2059 C 0.74377 0.45926 0.4629 0.0
C2060 C 0.73857 0.47766 0.44137 0.0
C2061 C 0.72266 0.51053 0.442 0.0
C2062 C 0.73828 0.45553 0.50815 0.0
C2063 C 0.74917 0.46233 0.41768 0.0
H2064 H 0.84502 0.39459 0.47078 0.0
H2065 H 0.74849 0.33806 0.46893 0.0
H2066 H 0.81395 0.47534 0.4496 0.0
H2067 H 0.81254 0.47471 0.48141 0.0
H2068 H 0.84854 0.45478 0.46598 0.0
H2069 H 0.69584 0.36535 0.45702 0.0
H2070 H 0.69269 0.40254 0.47641 0.0
H2071 H 0.69724 0.40898 0.44503 0.0
H2072 H 0.70577 0.51703 0.50128 0.0
H2073 H 0.71823 0.52444 0.42551 0.0
H2074 H 0.76647 0.45048 0.51065 0.0
H2075 H 0.72485 0.42993 0.50811 0.0
H2076 H 0.72861 0.47087 0.52357 0.0
H2077 H 0.74152 0.47912 0.40246 0.0
H2078 H 0.73699 0.43632 0.41539 0.0
H2079 H 0.77777 0.45855 0.4171 0.0
C2080 C 0.79589 0.45454 0.23054 0.0
C2081 C 0.76822 0.46195 0.21508 0.0
C2082 C 0.82911 0.46893 0.22684 0.0
C2083 C 0.83454 0.4925 0.20781 0.0
C2084 C 0.80607 0.50235 0.19335 0.0
C2085 C 0.77332 0.48676 0.19703 0.0
C2086 C 0.85889 0.45705 0.24231 0.0
C2087 C 0.81062 0.52789 0.17314 0.0
C2088 C 0.91827 0.54587 0.20775 0.0
C2089 C 0.9386 0.52774 0.1911 0.0
C2090 C 0.88415 0.53503 0.21314 0.0
C2091 C 0.87042 0.50489 0.20203 0.0
C2092 C 0.89115 0.48619 0.18551 0.0
C2093 C 0.92487 0.49802 0.18012 0.0
C2094 C 0.86266 0.55598 0.23051 0.0
C2095 C 0.87781 0.45353 0.17361 0.0
H2096 H 0.79212 0.43589 0.2448 0.0
H2097 H 0.75225 0.49271 0.18492 0.0
H2098 H 0.87781 0.44219 0.23136 0.0
H2099 H 0.87293 0.47979 0.24979 0.0
H2100 H 0.85001 0.44018 0.25722 0.0
H2101 H 0.78527 0.53629 0.16564 0.0
H2102 H 0.82513 0.55125 0.17921 0.0
H2103 H 0.82609 0.51565 0.15869 0.0
H2104 H 0.92888 0.5689 0.21623 0.0
H2105 H 0.9408 0.48369 0.16754 0.0
H2106 H 0.85496 0.53951 0.24588 0.0
H2107 H 0.83834 0.56482 0.2218 0.0
H2108 H 0.87689 0.57915 0.23727 0.0
H2109 H 0.8698 0.4342 0.18727 0.0
H2110 H 0.89764 0.44141 0.16181 0.0
H2111 H 0.85448 0.45962 0.16282 0.0
C2112 C 0.8182 0.89441 0.74117 0.0
C2113 C 0.8009 0.86224 0.74095 0.0
C2114 C 0.80018 0.92534 0.74559 0.0
C2115 C 0.76412 0.92395 0.75066 0.0
C2116 C 0.74716 0.89127 0.75272 0.0
C2117 C 0.76575 0.86065 0.74763 0.0
C2118 C 0.81919 0.95959 0.74285 0.0
C2119 C 0.70891 0.88877 0.75874 0.0
C2120 C 0.7234 1.00864 0.77163 0.0
C2121 C 0.70826 0.02086 0.75054 0.0
C2122 C 0.74069 0.97648 0.7722 0.0
C2123 C 0.74374 0.95676 0.75102 0.0
C2124 C 0.72882 0.96926 0.72964 0.0
C2125 C 0.71079 1.00094 0.72976 0.0
C2126 C 0.75537 0.96347 0.79545 0.0
C2127 C 0.73222 0.94938 0.70654 0.0
H2128 H 0.84558 0.89556 0.73646 0.0
H2129 H 0.75229 0.83582 0.74748 0.0
H2130 H 0.80928 0.97342 0.72691 0.0
H2131 H 0.81436 0.97658 0.75845 0.0
H2132 H 0.84774 0.95604 0.74076 0.0
H2133 H 0.70102 0.86172 0.7633 0.0
H2134 H 0.70242 0.90611 0.77391 0.0
H2135 H 0.69331 0.89746 0.74327 0.0
H2136 H 0.72077 0.02368 0.78786 0.0
H2137 H 0.69889 1.01034 0.71351 0.0
H2138 H 0.78408 0.96113 0.79406 0.0
H2139 H 0.74498 0.93711 0.79943 0.0
H2140 H 0.74904 0.98099 0.81059 0.0
H2141 H 0.76015 0.94568 0.7021 0.0
H2142 H 0.71946 0.96294 0.69145 0.0
H2143 H 0.72042 0.92314 0.70843 0.0
C2144 C 0.78049 0.96441 0.97918 0.0
C2145 C 0.76129 0.95941 1.00012 0.0
C2146 C 0.8131 0.98096 0.97968 0.0
C2147 C 0.82737 0.99149 1.00179 0.0
C2148 C 0.80835 0.98578 1.02306 0.0
C2149 C 0.77517 0.97049 1.0219 0.0
C2150 C 0.83212 0.98746 0.95652 0.0
C2151 C 0.8232 0.9954 1.04704 0.0
C2152 C 0.9244 1.01132 0.99894 0.0
C2153 C 0.92396 0.04758 0.99609 0.0
C2154 C 0.89318 0.99264 1.0023 0.0
C2155 C 0.86101 1.01072 1.00231 0.0
C2156 C 0.8608 0.04747 1.00091 0.0
C2157 C 0.89228 0.06541 0.99829 0.0
C2158 C 0.89445 0.95351 1.0046 0.0
C2159 C 0.82717 0.06779 1.00043 0.0
H2160 H 0.76991 0.95539 0.9624 0.0
H2161 H 0.76069 0.96598 1.03819 0.0
H2162 H 0.83722 0.01575 0.95436 0.0
H2163 H 0.85771 0.97416 0.9567 0.0
H2164 H 0.8172 0.97814 0.94086 0.0
H2165 H 0.80639 0.9865 1.062 0.0
H2166 H 0.84942 0.98374 1.04917 0.0
H2167 H 0.82636 0.02404 1.04831 0.0
H2168 H 0.94882 0.99741 0.99729 0.0
H2169 H 0.89196 0.09354 0.99664 0.0
H2170 H 0.88469 0.94136 0.988 0.0
H2171 H 0.87735 0.94459 1.01937 0.0
H2172 H 0.92132 0.944 1.00783 0.0
H2173 H 0.81211 0.06059 0.98433 0.0
H2174 H 0.83164 0.09638 1.0002 0.0
H2175 H 0.81089 0.06126 1.01614 0.0
C2176 C 0.83749 0.04461 0.23722 0.0
C2177 C 0.82606 0.01655 0.25131 0.0
C2178 C 0.82532 0.07858 0.24119 0.0
C2179 C 0.80031 0.08468 0.25925 0.0
C2180 C 0.78723 0.05629 0.27269 0.0
C2181 C 0.80043 0.02266 0.26869 0.0
C2182 C 0.84042 0.10819 0.22673 0.0
C2183 C 0.76027 0.06163 0.29197 0.0
C2184 C 0.7968 0.17529 0.28652 0.0
C2185 C 0.76891 0.19038 0.27428 0.0
C2186 C 0.80717 0.14089 0.28189 0.0
C2187 C 0.789 0.12095 0.2647 0.0
C2188 C 0.76064 0.13596 0.25238 0.0
C2189 C 0.75107 0.17057 0.2572 0.0
C2190 C 0.83784 0.12604 0.29521 0.0
C2191 C 0.74041 0.11544 0.23413 0.0
H2192 H 0.85707 0.04035 0.22361 0.0
H2193 H 0.79148 1.00145 0.2798 0.0
H2194 H 0.81929 0.12299 0.21794 0.0
H2195 H 0.85431 0.12654 0.23865 0.0
H2196 H 0.85895 0.099 0.21288 0.0
H2197 H 0.75024 0.03657 0.29915 0.0
H2198 H 0.77185 0.07669 0.30682 0.0
H2199 H 0.73806 0.07695 0.28503 0.0
H2200 H 0.81101 0.19069 0.29943 0.0
H2201 H 0.72936 0.18206 0.24778 0.0
H2202 H 0.85838 0.11792 0.28245 0.0
H2203 H 0.82971 0.1025 0.30526 0.0
H2204 H 0.84925 0.14502 0.30792 0.0
H2205 H 0.75791 0.10742 0.21938 0.0
H2206 H 0.71846 0.13056 0.22655 0.0
H2207 H 0.72989 0.0913 0.24232 0.0
C2208 C 0.73849 0.08164 0.48339 0.0
C2209 C 0.76571 0.07443 0.49922 0.0
C2210 C 0.70499 0.06782 0.48699 0.0
C2211 C 0.6989 0.04488 0.50629 0.0
C2212 C 0.72689 0.0353 0.52123 0.0
C2213 C 0.7598 0.05045 0.51767 0.0
C2214 C 0.67575 0.07932 0.47093 0.0
C2215 C 0.72172 1.01028 0.54169 0.0
C2216 C 0.60836 0.03872 0.53346 0.0
C2217 C 0.5954 1.00833 0.52292 0.0
C2218 C 0.64177 0.0512 0.52788 0.0
C2219 C 0.66296 0.03244 0.51167 0.0
C2220 C 0.64992 1.00174 0.50091 0.0
C2221 C 0.61608 0.99026 0.50645 0.0
C2222 C 0.65439 0.08445 0.53937 0.0
C2223 C 0.67194 0.98072 0.48389 0.0
H2224 H 0.743 0.099 0.46856 0.0
H2225 H 0.78044 0.04453 0.53004 0.0
H2226 H 0.66156 0.05643 0.4638 0.0
H2227 H 0.65679 0.09493 0.48135 0.0
H2228 H 0.6852 0.09538 0.45577 0.0
H2229 H 0.74681 1.00233 0.54982 0.0
H2230 H 0.70548 0.02273 0.55565 0.0
H2231 H 0.70773 0.98661 0.53562 0.0
H2232 H 0.59209 0.05297 0.54589 0.0
H2233 H 0.60599 0.96675 0.49829 0.0
H2234 H 0.66258 0.10338 0.5255 0.0
H2235 H 0.67747 0.079 0.55057 0.0
H2236 H 0.63409 0.09674 0.55071 0.0
H2237 H 0.68002 0.99707 0.46855 0.0
H2238 H 0.65798 0.95744 0.47705 0.0
H2239 H 0.69604 0.97205 0.49295 0.0
C2240 C 0.27038 0.18009 0.47233 0.0
C2241 C 0.23402 0.178 0.47076 0.0
C2242 C 0.29091 0.14989 0.4705 0.0
C2243 C 0.27446 0.11712 0.46748 0.0
C2244 C 0.23798 0.11531 0.46452 0.0
C2245 C 0.21833 0.14583 0.46579 0.0
C2246 C 0.32992 0.15282 0.47292 0.0
C2247 C 0.21934 0.08091 0.46148 0.0
C2248 C 0.32082 0.03423 0.44961 0.0
C2249 C 0.32538 0.01802 0.47173 0.0
C2250 C 0.30616 0.06751 0.44803 0.0
C2251 C 0.29465 0.08429 0.46904 0.0
C2252 C 0.29948 0.06804 0.49146 0.0
C2253 C 0.31544 0.03525 0.49256 0.0
C2254 C 0.30259 0.08444 0.4239 0.0
C2255 C 0.28682 0.08478 0.51421 0.0
H2256 H 0.28261 0.20492 0.47614 0.0
H2257 H 0.19027 0.1443 0.46402 0.0
H2258 H 0.33805 0.14197 0.49033 0.0
H2259 H 0.34317 0.13743 0.45885 0.0
H2260 H 0.33898 0.18027 0.47182 0.0
H2261 H 0.1909 0.08419 0.45877 0.0
H2262 H 0.23019 0.06652 0.44605 0.0
H2263 H 0.22337 0.06454 0.47752 0.0
H2264 H 0.32946 0.02116 0.43354 0.0
H2265 H 0.31948 0.0227 0.50963 0.0
H2266 H 0.31244 0.11161 0.42444 0.0
H2267 H 0.27472 0.08556 0.41887 0.0
H2268 H 0.31695 0.07001 0.40981 0.0
H2269 H 0.29849 0.11105 0.51621 0.0
H2270 H 0.29329 0.06907 0.53019 0.0
H2271 H 0.25815 0.08814 0.51349 0.0
C2272 C 0.11053 0.04094 0.18442 0.0
C2273 C 0.09636 1.01152 0.19562 0.0
C2274 C 0.14462 0.05201 0.18931 0.0
C2275 C 0.16526 0.03283 0.20553 0.0
C2276 C 0.15109 1.00302 0.21687 0.0
C2277 C 0.11664 0.99294 0.21197 0.0
C2278 C 0.15848 0.08434 0.17719 0.0
C2279 C 0.17245 0.9816 0.23395 0.0
C2280 C 0.26296 0.04718 0.19971 0.0
C2281 C 0.26943 0.07104 0.2181 0.0
C2282 C 0.22948 0.03337 0.19603 0.0
C2283 C 0.20155 0.0443 0.21074 0.0
C2284 C 0.20806 0.06754 0.22976 0.0
C2285 C 0.24198 0.08006 0.23347 0.0
C2286 C 0.22378 1.00817 0.17579 0.0
C2287 C 0.1789 0.08052 0.24551 0.0
H2288 H 0.09466 0.05564 0.17208 0.0
H2289 H 0.10572 0.97013 0.22061 0.0
H2290 H 0.1672 0.10351 0.19071 0.0
H2291 H 0.18146 0.07768 0.16609 0.0
H2292 H 0.13872 0.09688 0.16564 0.0
H2293 H 0.15783 0.9588 0.24096 0.0
H2294 H 0.19636 0.97217 0.2249 0.0
H2295 H 0.18087 0.99793 0.24917 0.0
H2296 H 0.28367 0.04019 0.18757 0.0
H2297 H 0.24667 0.09802 0.24798 0.0
H2298 H 0.20825 0.02092 0.16166 0.0
H2299 H 0.20882 0.98514 0.18203 0.0
H2300 H 0.2487 0.99914 0.16784 0.0
H2301 H 0.15985 0.0952 0.23463 0.0
H2302 H 0.18843 0.09783 0.25994 0.0
H2303 H 0.1648 0.05826 0.25365 0.0
C2304 C 0.21878 1.0059 0.94641 0.0
C2305 C 0.20876 0.02028 0.9683 0.0
C2306 C 0.23483 0.97314 0.9453 0.0
C2307 C 0.2422 0.95508 0.96667 0.0
C2308 C 0.23215 0.96966 0.98883 0.0
C2309 C 0.21494 1.00183 0.98933 0.0
C2310 C 0.24392 0.95791 0.92129 0.0
C2311 C 0.24036 0.95172 1.01206 0.0
C2312 C 0.26655 0.85918 0.96972 0.0
C2313 C 0.30298 0.8613 0.97111 0.0
C2314 C 0.2463 0.88942 0.96694 0.0
C2315 C 0.26289 0.92241 0.96614 0.0
C2316 C 0.29963 0.92445 0.96647 0.0
C2317 C 0.31914 0.89389 0.96841 0.0
C2318 C 0.20716 0.88621 0.96576 0.0
C2319 C 0.31841 0.95906 0.96612 0.0
H2320 H 0.2132 0.01985 0.93009 0.0
H2321 H 0.20685 1.01291 1.00621 0.0
H2322 H 0.2726 0.95694 0.91911 0.0
H2323 H 0.2341 0.93078 0.91999 0.0
H2324 H 0.2329 0.97335 0.90638 0.0
H2325 H 0.23084 0.96661 1.02773 0.0
H2326 H 0.22838 0.92543 1.01245 0.0
H2327 H 0.26893 0.94826 1.01373 0.0
H2328 H 0.25378 0.83416 0.97175 0.0
H2329 H 0.3473 0.89568 0.9687 0.0
H2330 H 0.19683 0.90204 0.95084 0.0
H2331 H 0.19541 0.89641 0.98241 0.0
H2332 H 0.19861 0.85878 0.96341 0.0
H2333 H 0.31095 0.97422 0.95014 0.0
H2334 H 0.34716 0.95605 0.96617 0.0
H2335 H 0.31072 0.97456 0.98196 0.0
C2336 C 0.42246 0.99088 0.68532 0.0
C2337 C 0.43689 0.02094 0.69541 0.0
C2338 C 0.38834 0.98047 0.69086 0.0
C2339 C 0.36806 1.00093 0.70664 0.0
C2340 C 0.38247 0.03143 0.7168 0.0
C2341 C 0.41688 0.04089 0.71125 0.0
C2342 C 0.37409 0.94745 0.67994 0.0
C2343 C 0.36141 0.05418 0.73335 0.0
C2344 C 0.27065 0.98651 0.70146 0.0
C2345 C 0.26431 0.9631 0.7202 0.0
C2346 C 0.30401 1.00038 0.69752 0.0
C2347 C 0.33178 0.99023 0.71246 0.0
C2348 C 0.32515 0.96821 0.73218 0.0
C2349 C 0.29132 0.95555 0.7361 0.0
C2350 C 0.3099 0.02435 0.67656 0.0
C2351 C 0.35418 0.95623 0.74825 0.0
H2352 H 0.43815 0.97515 0.6734 0.0
H2353 H 0.42805 0.06419 0.71904 0.0
H2354 H 0.36555 0.92926 0.69416 0.0
H2355 H 0.35093 0.95347 0.66896 0.0
H2356 H 0.39357 0.93403 0.66853 0.0
H2357 H 0.37629 0.07728 0.73954 0.0
H2358 H 0.33754 0.06324 0.72418 0.0
H2359 H 0.35291 0.03896 0.74913 0.0
H2360 H 0.25002 0.99268 0.68905 0.0
H2361 H 0.28645 0.93827 0.751 0.0
H2362 H 0.32533 1.01065 0.66273 0.0
H2363 H 0.32501 0.04763 0.68207 0.0
H2364 H 0.28505 0.03306 0.66848 0.0
H2365 H 0.37279 0.94011 0.73789 0.0
H2366 H 0.34443 0.94053 0.7635 0.0
H2367 H 0.36884 0.97891 0.75524 0.0
C2368 C 0.30353 0.09835 0.12792 0.0
C2369 C 0.29544 0.12266 0.14606 0.0
C2370 C 0.28388 0.09552 1.10631 0.0
C2371 C 0.25459 0.11741 1.10182 0.0
C2372 C 0.24616 0.14184 0.12012 0.0
C2373 C 0.26619 0.14402 0.14159 0.0
C2374 C 0.295 0.06911 1.08797 0.0
C2375 C 0.21581 0.16619 0.11696 0.0
C2376 C 0.22379 0.13466 1.0362 0.0
C2377 C 0.19446 0.11266 1.03297 0.0
C2378 C 0.2431 0.13628 1.05793 0.0
C2379 C 0.23367 0.11555 1.07801 0.0
C2380 C 0.20409 0.09324 1.07498 0.0
C2381 C 0.18524 0.09198 1.05288 0.0
C2382 C 0.27404 0.16043 1.0593 0.0
C2383 C 0.19225 0.07041 1.09528 0.0
H2384 H 0.3256 0.0813 0.13052 0.0
H2385 H 0.25874 0.16281 0.15496 0.0
H2386 H 0.27251 0.05277 1.08259 0.0
H2387 H 0.30453 0.08277 1.0718 0.0
H2388 H 0.31603 0.05186 1.09458 0.0
H2389 H 0.21197 0.18351 0.13259 0.0
H2390 H 0.21997 0.1826 1.10094 0.0
H2391 H 0.19161 0.15097 0.11405 0.0
H2392 H 0.23213 0.15089 1.02146 0.0
H2393 H 0.16316 0.07456 1.05124 0.0
H2394 H 0.29784 0.14534 1.06347 0.0
H2395 H 0.27022 0.17949 1.07391 0.0
H2396 H 0.27843 0.17494 1.04243 0.0
H2397 H 0.21366 0.05275 1.10063 0.0
H2398 H 0.16912 0.05447 1.09058 0.0
H2399 H 0.18576 0.08673 0.11097 0.0
C2400 C 0.68833 0.42642 0.29833 0.0
C2401 C 0.67461 0.43951 0.27676 0.0
C2402 C 0.68542 0.4449 0.32058 0.0
C2403 C 0.66841 0.47799 0.32216 0.0
C2404 C 0.65465 0.49126 0.30044 0.0
C2405 C 0.6579 0.47235 0.27855 0.0
C2406 C 0.70066 0.42879 0.34265 0.0
C2407 C 0.63639 0.526 0.30018 0.0
C2408 C 0.63208 0.51527 0.38286 0.0
C2409 C 0.65751 0.53959 0.3904 0.0
C2410 C 0.63547 0.4951 0.36143 0.0
C2411 C 0.66504 0.49871 0.3461 0.0
C2412 C 0.69077 0.52327 0.35357 0.0
C2413 C 0.68687 0.54283 0.37521 0.0
C2414 C 0.60685 0.46992 0.35504 0.0
C2415 C 0.72266 0.52933 0.33841 0.0
H2416 H 0.70153 0.40153 0.2979 0.0
H2417 H 0.64726 0.48382 0.26256 0.0
H2418 H 0.72058 0.44644 0.35033 0.0
H2419 H 0.67999 0.42534 0.35631 0.0
H2420 H 0.71285 0.40313 0.33902 0.0
H2421 H 0.62675 0.53304 0.2822 0.0
H2422 H 0.61397 0.52554 0.31269 0.0
H2423 H 0.65441 0.54669 0.30636 0.0
H2424 H 0.60897 0.5121 0.39361 0.0
H2425 H 0.70714 0.56105 0.38015 0.0
H2426 H 0.61782 0.4435 0.35234 0.0
H2427 H 0.59468 0.47791 0.33802 0.0
H2428 H 0.5863 0.46851 0.36895 0.0
H2429 H 0.74044 0.54906 0.34623 0.0
H2430 H 0.71481 0.5382 0.32042 0.0
H2431 H 0.73711 0.50457 0.33614 0.0
C2432 C 0.27098 0.89795 0.64383 0.0
C2433 C 0.23422 0.9009 0.64391 0.0
C2434 C 0.29164 0.90044 0.62257 0.0
C2435 C 0.27619 0.90761 0.60001 0.0
C2436 C 0.2391 0.91097 0.59998 0.0
C2437 C 0.21896 0.90728 0.62146 0.0
C2438 C 0.3304 0.89499 0.62438 0.0
C2439 C 0.22027 0.91957 0.57724 0.0
C2440 C 0.33566 0.94566 0.54863 0.0
C2441 C 0.34052 0.91731 0.53288 0.0
C2442 C 0.31493 0.94309 0.56994 0.0
C2443 C 0.29858 0.91109 0.57677 0.0
C2444 C 0.30385 0.88233 0.56105 0.0
C2445 C 0.32404 0.88583 0.53966 0.0
C2446 C 0.3098 0.97519 0.58495 0.0
C2447 C 0.28781 0.84745 0.56675 0.0
H2448 H 0.28401 0.89365 0.66062 0.0
H2449 H 0.19092 0.90958 0.62061 0.0
H2450 H 0.3392 0.87596 0.61077 0.0
H2451 H 0.34415 0.91989 0.62086 0.0
H2452 H 0.33822 0.88542 0.64224 0.0
H2453 H 0.19224 0.91261 0.57836 0.0
H2454 H 0.22245 0.94798 0.57393 0.0
H2455 H 0.23183 0.90601 0.5617 0.0
H2456 H 0.34723 0.97049 0.54393 0.0
H2457 H 0.32704 0.86345 0.52812 0.0
H2458 H 0.3214 0.97119 0.60279 0.0
H2459 H 0.28157 0.98002 0.58762 0.0
H2460 H 0.32182 0.99868 0.57678 0.0
H2461 H 0.29551 0.82705 0.55375 0.0
H2462 H 0.25901 0.84961 0.56672 0.0
H2463 H 0.29567 0.83905 0.58486 0.0
C2464 C 0.88603 0.56537 0.77983 0.0
C2465 C 0.86542 0.59565 0.77672 0.0
C2466 C 0.88831 0.54693 0.80191 0.0
C2467 C 0.86984 0.55836 0.82252 0.0
C2468 C 0.849 0.58893 0.81964 0.0
C2469 C 0.84685 0.60676 0.79714 0.0
C2470 C 0.91067 0.51472 0.80306 0.0
C2471 C 0.82889 0.60305 0.84058 0.0
C2472 C 0.85245 0.49238 0.87503 0.0
C2473 C 0.87935 0.49917 0.89159 0.0
C2474 C 0.84904 0.51106 0.85303 0.0
C2475 C 0.87253 0.53846 0.84672 0.0
C2476 C 0.89933 0.54586 0.86354 0.0
C2477 C 0.90243 0.52636 0.8852 0.0
C2478 C 0.82027 0.50092 0.83621 0.0
C2479 C 0.92536 0.57439 0.85853 0.0
H2480 H 0.9005 0.55549 0.76471 0.0
H2481 H 0.83057 0.62964 0.79562 0.0
H2482 H 0.93169 0.51847 0.8163 0.0
H2483 H 0.89482 0.49216 0.80906 0.0
H2484 H 0.92272 0.50829 0.7856 0.0
H2485 H 0.81443 0.62716 0.83607 0.0
H2486 H 0.81009 0.58319 0.84705 0.0
H2487 H 0.84695 0.60875 0.85547 0.0
H2488 H 0.83392 0.47194 0.87909 0.0
H2489 H 0.92334 0.53251 0.89715 0.0
H2490 H 0.8315 0.49318 0.81877 0.0
H2491 H 0.80305 0.52357 0.83297 0.0
H2492 H 0.80427 0.47901 0.84316 0.0
H2493 H 0.94173 0.56706 0.84302 0.0
H2494 H 0.94265 0.57946 0.87395 0.0
H2495 H 0.91168 0.59887 0.85386 0.0
C2496 C 0.81133 0.90337 0.18424 0.0
C2497 C 0.84419 0.92007 0.18627 0.0
C2498 C 0.79214 0.90147 0.16251 0.0
C2499 C 0.80528 0.91648 0.14109 0.0
C2500 C 0.83838 0.93355 0.14284 0.0
C2501 C 0.85703 0.93535 0.16505 0.0
C2502 C 0.7573 0.88323 0.1626 0.0
C2503 C 0.85435 0.94992 0.12101 0.0
C2504 C 0.76741 0.88189 1.08043 0.0
C2505 C 0.7432 0.90752 1.07325 0.0
C2506 C 0.78787 0.8848 1.10166 0.0
C2507 C 0.78452 0.91397 0.11723 0.0
C2508 C 0.75998 0.93989 0.11021 0.0
C2509 C 0.74025 0.93657 1.08865 0.0
C2510 C 0.81307 0.85606 1.10757 0.0
C2511 C 0.75403 0.97126 0.1258 0.0
H2512 H 0.79992 0.89185 0.19999 0.0
H2513 H 0.88188 0.94868 0.16568 0.0
H2514 H 0.7369 0.90084 0.15558 0.0
H2515 H 0.75829 0.86019 0.15071 0.0
H2516 H 0.74942 0.87445 0.18067 0.0
H2517 H 0.8801 0.9619 0.12473 0.0
H2518 H 0.85756 0.92994 1.10689 0.0
H2519 H 0.83673 0.97022 0.11387 0.0
H2520 H 0.77033 0.85901 1.06954 0.0
H2521 H 0.72213 0.95698 1.08397 0.0
H2522 H 0.80439 0.84246 0.12398 0.0
H2523 H 0.83926 0.8671 0.11114 0.0
H2524 H 0.81529 0.83664 1.09303 0.0
H2525 H 0.74547 0.96278 0.14378 0.0
H2526 H 0.7341 0.9891 0.11837 0.0
H2527 H 0.77875 0.98586 0.128 0.0
C2528 C 0.33971 0.60258 0.91075 0.0
C2529 C 0.35879 0.59227 0.93104 0.0
C2530 C 0.34121 0.58374 0.88863 0.0
C2531 C 0.36218 0.5532 0.88602 0.0
C2532 C 0.38117 0.54261 0.90649 0.0
C2533 C 0.37922 0.5618 0.92824 0.0
C2534 C 0.32019 0.59667 0.86785 0.0
C2535 C 0.40392 0.51065 0.90551 0.0
C2536 C 0.34558 0.48446 0.83531 0.0
C2537 C 0.37139 0.4919 0.81799 0.0
C2538 C 0.34201 0.50404 0.85692 0.0
C2539 C 0.36467 0.53254 0.86216 0.0
C2540 C 0.39061 0.54031 0.84469 0.0
C2541 C 0.39348 0.52039 0.82321 0.0
C2542 C 0.314 0.49369 0.87441 0.0
C2543 C 0.41592 0.56975 0.8488 0.0
H2544 H 0.3235 0.62555 0.91209 0.0
H2545 H 0.39391 0.55242 0.94332 0.0
H2546 H 0.33775 0.60285 0.85269 0.0
H2547 H 0.3021 0.57596 0.86178 0.0
H2548 H 0.30486 0.62027 0.87235 0.0
H2549 H 0.41697 0.50533 0.92274 0.0
H2550 H 0.3881 0.48756 0.90057 0.0
H2551 H 0.42418 0.51393 0.89155 0.0
H2552 H 0.32815 0.46278 0.83219 0.0
H2553 H 0.41321 0.52748 0.81037 0.0
H2554 H 0.29783 0.51661 0.8791 0.0
H2555 H 0.32616 0.48422 0.89108 0.0
H2556 H 0.2968 0.47286 0.86734 0.0
H2557 H 0.40156 0.59426 0.8523 0.0
H2558 H 0.43364 0.57387 0.83339 0.0
H2559 H 0.43187 0.56416 0.86477 0.0
C2560 C 0.71895 0.13339 0.68417 0.0
C2561 C 0.68765 0.11405 0.68683 0.0
C2562 C 0.73819 0.13534 0.66233 0.0
C2563 C 0.72672 0.11761 0.64148 0.0
C2564 C 0.69529 0.09777 0.64393 0.0
C2565 C 0.67654 0.09611 0.66619 0.0
C2566 C 0.77122 0.15665 0.66165 0.0
C2567 C 0.68129 0.07809 0.62283 0.0
C2568 C 0.76045 0.15015 0.57894 0.0
C2569 C 0.78763 0.12699 0.57281 0.0
C2570 C 0.74071 0.14728 0.60059 0.0
C2571 C 0.74733 0.12027 0.61745 0.0
C2572 C 0.77457 0.09658 0.61133 0.0
C2573 C 0.79389 0.10009 0.58951 0.0
C2574 C 0.71263 0.17368 0.60553 0.0
C2575 C 0.78381 0.06743 0.62811 0.0
H2576 H 0.72902 0.14707 0.69947 0.0
H2577 H 0.65299 0.08062 0.66734 0.0
H2578 H 0.79331 0.1403 0.65559 0.0
H2579 H 0.76847 0.17821 0.64865 0.0
H2580 H 0.77779 0.16791 0.67928 0.0
H2581 H 0.6569 0.06379 0.62712 0.0
H2582 H 0.67611 0.09642 0.60799 0.0
H2583 H 0.70101 0.0592 0.6164 0.0
H2584 H 0.75424 0.17077 0.56666 0.0
H2585 H 0.81452 0.08175 0.58577 0.0
H2586 H 0.719 0.18842 0.62193 0.0
H2587 H 0.68743 0.16026 0.6087 0.0
H2588 H 0.70943 0.19243 0.59066 0.0
H2589 H 0.79236 0.07837 0.64541 0.0
H2590 H 0.8049 0.05063 0.62096 0.0
H2591 H 0.76054 0.05107 0.63167 0.0
C2592 C 0.13734 0.46643 0.42772 0.0
C2593 C 0.1661 0.44493 0.43319 0.0
C2594 C 0.13432 0.48528 0.40589 0.0
C2595 C 0.16098 0.48394 0.38822 0.0
C2596 C 0.19034 0.46249 0.39357 0.0
C2597 C 0.19239 0.44328 0.41552 0.0
C2598 C 0.10221 0.50701 0.40182 0.0
C2599 C 0.22015 0.46027 0.37614 0.0
C2600 C 0.14105 0.51225 0.32231 0.0
C2601 C 0.15186 0.54752 0.32108 0.0
C2602 C 0.14362 0.49171 0.34355 0.0
C2603 C 0.15834 0.50563 0.3648 0.0
C2604 C 0.16952 0.54104 0.36369 0.0
C2605 C 0.16623 0.56122 0.34228 0.0
C2606 C 0.13014 0.45482 0.34323 0.0
C2607 C 0.1855 0.55762 0.38532 0.0
H2608 H 0.11659 0.46858 0.44062 0.0
H2609 H 0.21514 0.42749 0.41902 0.0
H2610 H 0.08946 0.49906 0.38498 0.0
H2611 H 0.08307 0.50459 0.4166 0.0
H2612 H 0.10956 0.53483 0.39996 0.0
H2613 H 0.24151 0.4434 0.3827 0.0
H2614 H 0.21076 0.44982 0.35891 0.0
H2615 H 0.23073 0.48671 0.37265 0.0
H2616 H 0.13058 0.50029 0.30646 0.0
H2617 H 0.17512 0.588 0.34223 0.0
H2618 H 0.11111 0.45093 0.35792 0.0
H2619 H 0.15194 0.43647 0.34624 0.0
H2620 H 0.11737 0.44813 0.32612 0.0
H2621 H 0.18808 0.58608 0.38322 0.0
H2622 H 0.21166 0.54628 0.38835 0.0
H2623 H 0.16967 0.55243 0.40148 0.0
C2624 C 0.68155 0.59669 0.54579 0.0
C2625 C 0.69133 0.61548 0.5251 0.0
C2626 C 0.70104 0.5983 0.56767 0.0
C2627 C 0.73164 0.61944 0.56987 0.0
C2628 C 0.74152 0.63839 0.54905 0.0
C2629 C 0.72191 0.63599 0.52743 0.0
C2630 C 0.68884 0.57696 0.58862 0.0
C2631 C 0.77322 0.66162 0.54955 0.0
C2632 C 0.76525 0.65029 0.63283 0.0
C2633 C 0.79423 0.6288 0.63778 0.0
C2634 C 0.74514 0.64755 0.61139 0.0
C2635 C 0.75297 0.62212 0.5936 0.0
C2636 C 0.78195 0.59997 0.59859 0.0
C2637 C 0.80182 0.60355 0.62012 0.0
C2638 C 0.71536 0.67243 0.60768 0.0
C2639 C 0.7924 0.57235 0.58093 0.0
H2640 H 0.65863 0.58027 0.5449 0.0
H2641 H 0.73092 0.65049 0.51209 0.0
H2642 H 0.70996 0.5593 0.5945 0.0
H2643 H 0.68264 0.59436 0.60381 0.0
H2644 H 0.66543 0.56113 0.58439 0.0
H2645 H 0.77741 0.67548 0.53241 0.0
H2646 H 0.77052 0.68121 0.56395 0.0
H2647 H 0.79669 0.64593 0.55353 0.0
H2648 H 0.75789 0.66949 0.64589 0.0
H2649 H 0.82372 0.58635 0.62301 0.0
H2650 H 0.69075 0.65767 0.60535 0.0
H2651 H 0.71975 0.68772 0.59117 0.0
H2652 H 0.71215 0.69078 0.6228 0.0
H2653 H 0.76956 0.55605 0.57621 0.0
H2654 H 0.81331 0.55522 0.58787 0.0
H2655 H 0.80184 0.58487 0.56431 0.0
C2656 C 0.19199 0.9374 0.80078 0.0
C2657 C 0.1687 0.94309 0.78167 0.0
C2658 C 0.19003 0.95657 0.82282 0.0
C2659 C 0.16421 0.98284 0.82667 0.0
C2660 C 0.14044 0.98821 0.80758 0.0
C2661 C 0.14291 0.9686 0.78594 0.0
C2662 C 0.21596 0.9487 0.84213 0.0
C2663 C 0.11242 0.0155 0.80965 0.0
C2664 C 0.13738 1.01394 0.89116 0.0
C2665 C 0.15544 0.04574 0.89447 0.0
C2666 C 0.14016 0.99357 0.86979 0.0
C2667 C 0.16177 1.00431 0.85035 0.0
C2668 C 0.1801 0.03638 0.85358 0.0
C2669 C 0.17691 0.05619 0.87517 0.0
C2670 C 0.11945 0.96032 0.86795 0.0
C2671 C 0.203 0.05023 0.83389 0.0
H2672 H 0.21231 0.91818 0.79845 0.0
H2673 H 0.124 0.97319 0.77222 0.0
H2674 H 0.23141 0.97239 0.84621 0.0
H2675 H 0.20205 0.94116 0.85871 0.0
H2676 H 0.23406 0.92742 0.83707 0.0
H2677 H 0.10018 0.01516 0.82756 0.0
H2678 H 0.12427 0.0416 0.80701 0.0
H2679 H 0.09171 1.01185 0.79615 0.0
H2680 H 0.12108 1.0045 0.9055 0.0
H2681 H 0.19123 0.0804 0.87679 0.0
H2682 H 0.10064 0.96237 0.85306 0.0
H2683 H 0.10484 0.95439 0.88456 0.0
H2684 H 0.13705 0.93823 0.86387 0.0
H2685 H 0.21622 0.07491 0.8389 0.0
H2686 H 0.18711 0.05492 0.81775 0.0
H2687 H 0.22306 0.03067 0.82913 0.0
C2688 C 0.8167 0.40972 1.02924 0.0
C2689 C 0.84994 0.42566 1.02719 0.0
C2690 C 0.79802 0.40708 1.05129 0.0
C2691 C 0.81201 0.4207 1.07284 0.0
C2692 C 0.84551 0.43691 1.071 0.0
C2693 C 0.86372 0.43924 1.0486 0.0
C2694 C 0.76283 0.38953 1.05141 0.0
C2695 C 0.86238 0.45181 1.09293 0.0
C2696 C 0.74919 0.44064 0.12683 0.0
C2697 C 0.75205 0.41113 0.14181 0.0
C2698 C 0.76816 0.44408 1.10487 0.0
C2699 C 0.79177 0.41777 1.09698 0.0
C2700 C 0.79502 0.38811 0.11212 0.0
C2701 C 0.7753 0.38513 0.13376 0.0
C2702 C 0.76243 0.47603 1.08982 0.0
C2703 C 0.81918 0.35888 1.10529 0.0
H2704 H 0.80479 0.3992 1.01335 0.0
H2705 H 0.88898 0.45181 1.04795 0.0
H2706 H 0.75504 0.38036 1.03344 0.0
H2707 H 0.76311 0.36688 1.06366 0.0
H2708 H 0.74275 0.40783 1.05813 0.0
H2709 H 0.84544 0.47218 1.10079 0.0
H2710 H 0.86543 0.4311 1.10655 0.0
H2711 H 0.88833 0.46336 1.08907 0.0
H2712 H 0.73171 0.46132 0.13214 0.0
H2713 H 0.77785 0.36181 0.14422 0.0
H2714 H 0.75288 0.46828 1.07197 0.0
H2715 H 0.78745 0.49001 1.08718 0.0
H2716 H 0.74332 0.4942 1.09795 0.0
H2717 H 0.80918 0.34564 1.08915 0.0
H2718 H 0.82182 0.33927 0.11968 0.0
H2719 H 0.84539 0.36931 1.10088 0.0
C2720 C 0.36932 0.96843 0.37307 0.0
C2721 C 0.38213 0.98336 0.39434 0.0
C2722 C 0.36495 0.98815 0.35152 0.0
C2723 C 0.37415 0.02422 0.35021 0.0
C2724 C 0.38714 0.03933 0.37164 0.0
C2725 C 0.39019 0.01932 0.39306 0.0
C2726 C 0.35017 0.97015 0.32997 0.0
C2727 C 0.3983 0.07699 0.37197 0.0
C2728 C 0.39612 0.06638 0.28809 0.0
C2729 C 0.36654 0.08652 0.28216 0.0
C2730 C 0.39882 0.0466 0.30962 0.0
C2731 C 0.37118 0.04571 0.32662 0.0
C2732 C 0.34106 0.06586 0.32084 0.0
C2733 C 0.33915 0.08572 0.29912 0.0
C2734 C 0.43182 0.02651 0.3142 0.0
C2735 C 0.31042 0.06627 0.33766 0.0
H2736 H 0.36224 0.94111 0.37326 0.0
H2737 H 0.39902 0.03223 0.40901 0.0
H2738 H 0.32732 0.98476 0.32326 0.0
H2739 H 0.36988 0.96977 0.31549 0.0
H2740 H 0.34208 0.94294 0.33385 0.0
H2741 H 0.40926 0.08487 0.38944 0.0
H2742 H 0.41823 0.08166 0.35797 0.0
H2743 H 0.37576 0.09394 0.36793 0.0
H2744 H 0.41771 0.06604 0.27578 0.0
H2745 H 0.31578 0.10042 0.29533 0.0
H2746 H 0.42594 0.99824 0.31495 0.0
H2747 H 0.44286 0.034 0.3317 0.0
H2748 H 0.45183 0.03102 0.30022 0.0
H2749 H 0.30127 0.03926 0.34098 0.0
H2750 H 0.28839 0.08186 0.33067 0.0
H2751 H 0.31842 0.07726 0.35507 0.0
C2752 C 0.3073 0.4041 0.67895 0.0
C2753 C 0.3391 0.42263 0.68138 0.0
C2754 C 0.28821 0.40248 0.65717 0.0
C2755 C 0.30065 0.41924 0.63616 0.0
C2756 C 0.33277 0.43794 0.63834 0.0
C2757 C 0.35112 0.43973 0.66061 0.0
C2758 C 0.25419 0.38278 0.65679 0.0
C2759 C 0.34813 0.45593 0.61689 0.0
C2760 C 0.2643 0.38606 0.57475 0.0
C2761 C 0.23932 0.41123 0.56809 0.0
C2762 C 0.28456 0.38868 0.59607 0.0
C2763 C 0.28013 0.41701 0.61225 0.0
C2764 C 0.25509 0.44262 0.60561 0.0
C2765 C 0.23587 0.43979 0.58385 0.0
C2766 C 0.31083 0.36065 0.60135 0.0
C2767 C 0.24801 0.47309 0.62182 0.0
H2768 H 0.29673 0.39086 0.69441 0.0
H2769 H 0.37524 0.45431 0.66163 0.0
H2770 H 0.23297 0.40012 0.65062 0.0
H2771 H 0.25588 0.36084 0.64401 0.0
H2772 H 0.24703 0.37221 0.67457 0.0
H2773 H 0.3737 0.46816 0.6208 0.0
H2774 H 0.3515 0.43695 0.60217 0.0
H2775 H 0.33006 0.47636 0.6105 0.0
H2776 H 0.26838 0.36407 0.56315 0.0
H2777 H 0.21777 0.46022 0.57934 0.0
H2778 H 0.30216 0.34536 0.61705 0.0
H2779 H 0.33638 0.37247 0.60581 0.0
H2780 H 0.31441 0.34255 0.58614 0.0
H2781 H 0.24038 0.46357 0.63976 0.0
H2782 H 0.22703 0.49018 0.61495 0.0
H2783 H 0.27202 0.48884 0.62397 0.0
C2784 C 0.83744 0.10085 0.4171 0.0
C2785 C 0.86016 0.09417 0.43634 0.0
C2786 C 0.83939 0.08206 0.39497 0.0
C2787 C 0.86461 0.05522 0.39121 0.0
C2788 C 0.88746 0.04838 0.41058 0.0
C2789 C 0.88501 0.06749 0.43239 0.0
C2790 C 0.81407 0.09089 0.37546 0.0
C2791 C 0.91487 0.0205 0.40833 0.0
C2792 C 0.85288 0.98265 0.3423 0.0
C2793 C 0.87452 0.99354 0.32324 0.0
C2794 C 0.84891 1.00236 0.36382 0.0
C2795 C 0.86723 0.03435 0.36739 0.0
C2796 C 0.88895 0.04558 0.34816 0.0
C2797 C 0.89192 0.02565 0.32666 0.0
C2798 C 0.82519 0.98843 0.38303 0.0
C2799 C 0.90956 0.07886 0.35033 0.0
H2800 H 0.81779 0.12079 0.41934 0.0
H2801 H 0.90288 0.06114 0.44662 0.0
H2802 H 0.82849 0.09944 0.35932 0.0
H2803 H 0.7989 0.06738 0.3705 0.0
H2804 H 0.7957 0.1118 0.38078 0.0
H2805 H 0.93102 0.01816 0.42462 0.0
H2806 H 0.90232 0.99498 0.4048 0.0
H2807 H 0.9322 0.0263 0.39299 0.0
H2808 H 0.8388 0.95836 0.34048 0.0
H2809 H 0.9082 0.03544 0.31244 0.0
H2810 H 0.80754 1.00918 0.38958 0.0
H2811 H 0.84103 0.97959 0.39836 0.0
H2812 H 0.80919 0.96616 0.37672 0.0
H2813 H 0.89159 0.10114 0.35284 0.0
H2814 H 0.92606 0.08392 0.33442 0.0
H2815 H 0.92655 0.07768 0.36625 0.0
C2816 C 0.19039 0.58983 0.16407 0.0
C2817 C 0.1918 0.61603 0.18179 0.0
C2818 C 0.2097 0.59206 0.1421 0.0
C2819 C 0.23235 0.62081 0.13715 0.0
C2820 C 0.23365 0.64732 0.15491 0.0
C2821 C 0.2133 0.64492 0.17628 0.0
C2822 C 0.20563 0.56343 0.12397 0.0
C2823 C 0.25743 0.67826 0.15171 0.0
C2824 C 0.30783 0.61238 1.08964 0.0
C2825 C 0.29584 0.63151 1.06975 0.0
C2826 C 0.28792 0.60869 0.1112 0.0
C2827 C 0.25403 0.62363 0.11358 0.0
C2828 C 0.24147 0.64221 1.09334 0.0
C2829 C 0.26218 0.646 1.07219 0.0
C2830 C 0.30368 0.58918 0.13178 0.0
C2831 C 0.20574 0.65832 1.09397 0.0
H2832 H 0.17421 0.56718 0.16738 0.0
H2833 H 0.21434 0.66618 0.18881 0.0
H2834 H 0.19686 0.57463 1.1068 0.0
H2835 H 0.2311 0.55075 0.12066 0.0
H2836 H 0.1866 0.54329 0.12974 0.0
H2837 H 0.25191 0.69916 0.16482 0.0
H2838 H 0.28481 0.66972 0.15399 0.0
H2839 H 0.25507 0.6893 0.13355 0.0
H2840 H 0.33333 0.60057 1.08857 0.0
H2841 H 0.25146 0.65997 1.05722 0.0
H2842 H 0.2859 0.5681 0.13775 0.0
H2843 H 0.30722 0.60717 0.14704 0.0
H2844 H 0.32927 0.57755 0.12715 0.0
H2845 H 0.186 0.63823 1.09853 0.0
H2846 H 0.1986 0.67043 1.07671 0.0
H2847 H 0.20465 0.67856 0.10804 0.0
C2848 C 0.64919 0.97106 0.93507 0.0
C2849 C 0.66916 0.94028 0.93765 0.0
C2850 C 0.64651 0.98986 0.91314 0.0
C2851 C 0.66473 0.97889 0.89231 0.0
C2852 C 0.68538 0.94811 0.89475 0.0
C2853 C 0.68719 0.92939 0.91693 0.0
C2854 C 0.62386 0.02186 0.91235 0.0
C2855 C 0.706 0.93494 0.87375 0.0
C2856 C 0.63359 1.01161 0.82938 0.0
C2857 C 0.65527 0.04047 0.82414 0.0
C2858 C 0.6363 0.99179 0.85095 0.0
C2859 C 0.66213 0.9996 0.86839 0.0
C2860 C 0.68475 0.02812 0.86297 0.0
C2861 C 0.68095 0.04793 0.84145 0.0
C2862 C 0.61087 0.96248 0.85522 0.0
C2863 C 0.71308 0.03817 0.88015 0.0
H2864 H 0.63539 0.98092 0.95044 0.0
H2865 H 0.70316 0.90624 0.91805 0.0
H2866 H 0.63996 0.04502 0.90798 0.0
H2867 H 0.6041 0.01913 0.89811 0.0
H2868 H 0.61023 0.02665 0.92952 0.0
H2869 H 0.72157 0.91151 0.87821 0.0
H2870 H 0.68814 0.92842 0.85893 0.0
H2871 H 0.72384 0.95565 0.86723 0.0
H2872 H 0.61397 1.00444 0.81663 0.0
H2873 H 0.69852 0.06945 0.83819 0.0
H2874 H 0.59592 0.96744 0.87181 0.0
H2875 H 0.62514 0.93768 0.85772 0.0
H2876 H 0.59223 0.95929 0.8403 0.0
H2877 H 0.70122 0.04931 0.89648 0.0
H2878 H 0.7313 0.05769 0.87245 0.0
H2879 H 0.72816 0.01488 0.88557 0.0
loop_
_geom_bond_atom_site_label_1
_geom_bond_atom_site_label_2
_geom_bond_distance
_geom_bond_site_symmetry_2
_ccdc_geom_bond_type
Eu0 N29 2.600 . S
Eu0 N35 2.562 . S
Eu0 O44 2.462 . S
Eu0 O45 2.373 . S
Eu0 O47 2.432 . S
Eu0 O48 2.291 . S
Eu0 O52 2.335 . S
Eu0 O55 2.372 . S
Eu0 C64 2.787 . S
C1 N2 1.365 . S
C1 C4 1.405 . S
C1 C8 1.448 . S
N2 C1 1.365 . S
N2 C5 1.319 . S
N2 Eu11 2.600 . S
C3 C5 1.397 . S
C3 C6 1.367 . S
C3 H23 0.931 . S
C4 C1 1.405 . S
C4 C6 1.403 . S
C4 C10 1.439 . S
C5 N2 1.319 . S
C5 C3 1.397 . S
C5 H16 0.930 . S
C6 C3 1.367 . S
C6 C4 1.403 . S
C6 H27 0.929 . S
C7 C8 1.430 . S
C7 C9 1.387 . S
C7 C13 1.404 . S
C8 C1 1.448 . S
C8 C7 1.430 . S
C8 N12 1.351 . S
C9 C7 1.387 . S
C9 C10 1.374 . S
C9 H24 0.931 . S
C10 C4 1.439 . S
C10 C9 1.374 . S
C10 H25 0.931 . S
Eu11 N2 2.600 . S
Eu11 N12 2.562 . S
Eu11 O46 2.335 . S
Eu11 O49 2.372 . S
Eu11 O50 2.462 . S
Eu11 O51 2.373 . S
Eu11 O53 2.432 . S
Eu11 O54 2.291 . S
Eu11 C75 2.787 . S
N12 C8 1.351 . S
N12 Eu11 2.562 . S
N12 C14 1.325 . S
C13 C7 1.404 . S
C13 C15 1.366 . S
C13 H21 0.930 . S
C14 N12 1.325 . S
C14 C15 1.416 . S
C14 H20 0.929 . S
C15 C13 1.366 . S
C15 C14 1.416 . S
C15 H17 0.930 . S
H16 C5 0.930 . S
H17 C15 0.930 . S
H18 C33 0.930 . S
H19 C40 0.930 . S
H20 C14 0.929 . S
H21 C13 0.930 . S
H22 C36 0.929 . S
H23 C3 0.931 . S
H24 C9 0.931 . S
H25 C10 0.931 . S
H26 C31 0.931 1_565 S
H27 C6 0.929 . S
H28 C39 0.930 . S
N29 Eu0 2.600 . S
N29 C30 1.365 . S
N29 C33 1.319 . S
C30 N29 1.365 . S
C30 C32 1.405 . S
C30 C38 1.448 . S
C31 H26 0.931 1_545 S
C31 C33 1.397 . S
C31 C34 1.367 1_545 S
C32 C30 1.405 . S
C32 C34 1.403 1_545 S
C32 C65 1.439 . S
C33 H18 0.930 . S
C33 N29 1.319 . S
C33 C31 1.397 . S
C34 C31 1.367 1_565 S
C34 C32 1.403 1_565 S
C34 H41 0.929 . S
N35 Eu0 2.562 . S
N35 C36 1.325 . S
N35 C38 1.351 . S
C36 H22 0.929 . S
C36 N35 1.325 . S
C36 C40 1.416 . S
C37 C38 1.430 . S
C37 C39 1.404 . S
C37 C66 1.387 . S
C38 C30 1.448 . S
C38 N35 1.351 . S
C38 C37 1.430 . S
C39 H28 0.930 . S
C39 C37 1.404 . S
C39 C40 1.366 . S
C40 H19 0.930 . S
C40 C36 1.416 . S
C40 C39 1.366 . S
H41 C34 0.929 . S
H42 C65 0.931 1_565 S
H43 C66 0.931 . S
O44 Eu0 2.462 . S
O44 C64 1.252 . S
O45 Eu0 2.373 . S
O45 C56 1.249 . S
O46 Eu11 2.335 . S
O46 C56 1.264 . S
O47 Eu0 2.432 . S
O47 C64 1.268 . S
O48 Eu0 2.291 . S
O48 C63 1.255 . S
O49 Eu11 2.372 . S
O49 C63 1.257 . S
O50 Eu11 2.462 . S
O50 C75 1.252 . S
O51 Eu11 2.373 . S
O51 C67 1.249 . S
O52 Eu0 2.335 . S
O52 C67 1.264 . S
O53 Eu11 2.432 . S
O53 C75 1.268 . S
O54 Eu11 2.291 . S
O54 C74 1.255 . S
O55 Eu0 2.372 . S
O55 C74 1.257 . S
C56 O45 1.249 . S
C56 O46 1.264 . S
C57 C60 1.382 . S
C57 C62 1.390 . S
C57 C64 1.506 . S
C58 C59 1.398 1_545 S
C58 C62 1.392 . S
C59 C58 1.398 1_565 S
C59 C61 1.372 . S
C59 H76 0.913 1_554 S
C60 C57 1.382 . S
C60 C61 1.390 1_545 S
C60 H77 0.931 1_545 S
C61 C59 1.372 . S
C61 C60 1.390 1_565 S
C61 H78 0.929 . S
C62 C57 1.390 . S
C62 C58 1.392 . S
C62 H79 0.930 . S
C63 O48 1.255 . S
C63 O49 1.257 . S
C64 Eu0 2.787 . S
C64 O44 1.252 . S
C64 O47 1.268 . S
C64 C57 1.506 . S
C65 C32 1.439 . S
C65 H42 0.931 1_545 S
C65 C66 1.374 . S
C66 C37 1.387 . S
C66 H43 0.931 . S
C66 C65 1.374 . S
C67 O51 1.249 . S
C67 O52 1.264 . S
C68 C71 1.382 . S
C68 C72 1.390 . S
C68 C75 1.506 . S
C69 C70 1.398 . S
C69 C72 1.392 . S
C70 C69 1.398 . S
C70 C73 1.372 . S
C70 H80 0.931 . S
C71 C68 1.382 . S
C71 C73 1.390 . S
C71 H81 0.931 . S
C72 C68 1.390 . S
C72 C69 1.392 . S
C72 H82 0.930 . S
C73 C70 1.372 . S
C73 C71 1.390 . S
C73 H83 0.929 . S
C74 O54 1.255 . S
C74 O55 1.257 . S
C75 Eu11 2.787 . S
C75 O50 1.252 . S
C75 O53 1.268 . S
C75 C68 1.506 . S
H76 C59 0.913 1_556 S
H77 C60 0.931 1_565 S
H78 C61 0.929 . S
H79 C62 0.930 . S
H80 C70 0.931 . S
H81 C71 0.931 . S
H82 C72 0.930 . S
H83 C73 0.929 . S
Eu84 N113 2.600 . S
Eu84 N119 2.562 . S
Eu84 O128 2.462 . S
Eu84 O129 2.373 . S
Eu84 O131 2.432 . S
Eu84 O132 2.291 . S
Eu84 O136 2.335 . S
Eu84 O139 2.372 . S
Eu84 C148 2.787 . S
C85 N86 1.365 . S
C85 C88 1.405 . S
C85 C92 1.448 . S
N86 C85 1.365 . S
N86 C89 1.319 . S
N86 Eu95 2.600 . S
C87 C89 1.397 . S
C87 C90 1.367 . S
C87 H107 0.931 . S
C88 C85 1.405 . S
C88 C90 1.403 . S
C88 C94 1.439 . S
C89 N86 1.319 . S
C89 C87 1.397 . S
C89 H100 0.930 . S
C90 C87 1.367 . S
C90 C88 1.403 . S
C90 H111 0.929 . S
C91 C92 1.430 . S
C91 C93 1.387 . S
C91 C97 1.404 . S
C92 C85 1.448 . S
C92 C91 1.430 . S
C92 N96 1.351 . S
C93 C91 1.387 . S
C93 C94 1.374 . S
C93 H108 0.931 . S
C94 C88 1.439 . S
C94 C93 1.374 . S
C94 H109 0.931 . S
Eu95 N86 2.600 . S
Eu95 N96 2.562 . S
Eu95 O130 2.335 . S
Eu95 O133 2.372 . S
Eu95 O134 2.462 . S
Eu95 O135 2.373 . S
Eu95 O137 2.432 . S
Eu95 O138 2.291 . S
Eu95 C159 2.787 . S
N96 C92 1.351 . S
N96 Eu95 2.562 . S
N96 C98 1.325 . S
C97 C91 1.404 . S
C97 C99 1.366 . S
C97 H105 0.930 . S
C98 N96 1.325 . S
C98 C99 1.416 . S
C98 H104 0.929 . S
C99 C97 1.366 . S
C99 C98 1.416 . S
C99 H101 0.930 . S
H100 C89 0.930 . S
H101 C99 0.930 . S
H102 C117 0.930 . S
H103 C124 0.930 . S
H104 C98 0.929 . S
H105 C97 0.930 . S
H106 C120 0.929 . S
H107 C87 0.931 . S
H108 C93 0.931 . S
H109 C94 0.931 . S
H110 C115 0.931 . S
H111 C90 0.929 . S
H112 C123 0.930 . S
N113 Eu84 2.600 . S
N113 C114 1.365 . S
N113 C117 1.319 . S
C114 N113 1.365 . S
C114 C116 1.405 . S
C114 C122 1.448 . S
C115 H110 0.931 . S
C115 C117 1.397 . S
C115 C118 1.367 . S
C116 C114 1.405 . S
C116 C118 1.403 . S
C116 C149 1.439 . S
C117 H102 0.930 . S
C117 N113 1.319 . S
C117 C115 1.397 . S
C118 C115 1.367 . S
C118 C116 1.403 . S
C118 H125 0.929 . S
N119 Eu84 2.562 . S
N119 C120 1.325 . S
N119 C122 1.351 . S
C120 H106 0.929 . S
C120 N119 1.325 . S
C120 C124 1.416 . S
C121 C122 1.430 . S
C121 C123 1.404 . S
C121 C150 1.387 . S
C122 C114 1.448 . S
C122 N119 1.351 . S
C122 C121 1.430 . S
C123 H112 0.930 . S
C123 C121 1.404 . S
C123 C124 1.366 . S
C124 H103 0.930 . S
C124 C120 1.416 . S
C124 C123 1.366 . S
H125 C118 0.929 . S
H126 C149 0.931 . S
H127 C150 0.931 . S
O128 Eu84 2.462 . S
O128 C148 1.252 . S
O129 Eu84 2.373 . S
O129 C140 1.249 . S
O130 Eu95 2.335 . S
O130 C140 1.264 . S
O131 Eu84 2.432 . S
O131 C148 1.268 . S
O132 Eu84 2.291 . S
O132 C147 1.255 . S
O133 Eu95 2.372 . S
O133 C147 1.257 . S
O134 Eu95 2.462 . S
O134 C159 1.252 . S
O135 Eu95 2.373 . S
O135 C151 1.249 . S
O136 Eu84 2.335 . S
O136 C151 1.264 . S
O137 Eu95 2.432 . S
O137 C159 1.268 . S
O138 Eu95 2.291 . S
O138 C158 1.255 . S
O139 Eu84 2.372 . S
O139 C158 1.257 . S
C140 O129 1.249 . S
C140 O130 1.264 . S
C141 C144 1.382 . S
C141 C146 1.390 . S
C141 C148 1.506 . S
C142 C143 1.398 . S
C142 C146 1.392 . S
C143 C142 1.398 . S
C143 C145 1.372 . S
C143 H160 0.931 . S
C144 C141 1.382 . S
C144 C145 1.390 . S
C144 H161 0.931 . S
C145 C143 1.372 . S
C145 C144 1.390 . S
C145 H162 0.929 . S
C146 C141 1.390 . S
C146 C142 1.392 . S
C146 H163 0.930 . S
C147 O132 1.255 . S
C147 O133 1.257 . S
C148 Eu84 2.787 . S
C148 O128 1.252 . S
C148 O131 1.268 . S
C148 C141 1.506 . S
C149 C116 1.439 . S
C149 H126 0.931 . S
C149 C150 1.374 . S
C150 C121 1.387 . S
C150 H127 0.931 . S
C150 C149 1.374 . S
C151 O135 1.249 . S
C151 O136 1.264 . S
C152 C155 1.382 . S
C152 C156 1.390 . S
C152 C159 1.506 . S
C153 C154 1.398 . S
C153 C156 1.392 . S
C154 C153 1.398 . S
C154 C157 1.372 . S
C154 H164 0.931 . S
C155 C152 1.382 . S
C155 C157 1.390 . S
C155 H165 0.931 . S
C156 C152 1.390 . S
C156 C153 1.392 . S
C156 H166 0.930 . S
C157 C154 1.372 . S
C157 C155 1.390 . S
C157 H167 0.929 . S
C158 O138 1.255 . S
C158 O139 1.257 . S
C159 Eu95 2.787 . S
C159 O134 1.252 . S
C159 O137 1.268 . S
C159 C152 1.506 . S
H160 C143 0.931 . S
H161 C144 0.931 . S
H162 C145 0.929 . S
H163 C146 0.930 . S
H164 C154 0.931 . S
H165 C155 0.931 . S
H166 C156 0.930 . S
H167 C157 0.929 . S
Eu168 N197 2.600 . S
Eu168 N203 2.562 . S
Eu168 O212 2.462 . S
Eu168 O213 2.373 . S
Eu168 O215 2.432 . S
Eu168 O216 2.291 . S
Eu168 O220 2.335 . S
Eu168 O223 2.372 . S
Eu168 C232 2.787 . S
C169 N170 1.365 . S
C169 C172 1.405 . S
C169 C176 1.448 . S
N170 C169 1.365 . S
N170 C173 1.319 . S
N170 Eu179 2.600 . S
C171 C173 1.397 . S
C171 C174 1.367 . S
C171 H191 0.931 . S
C172 C169 1.405 . S
C172 C174 1.403 . S
C172 C178 1.439 . S
C173 N170 1.319 . S
C173 C171 1.397 . S
C173 H184 0.930 . S
C174 C171 1.367 . S
C174 C172 1.403 . S
C174 H195 0.929 . S
C175 C176 1.430 . S
C175 C177 1.387 . S
C175 C181 1.404 . S
C176 C169 1.448 . S
C176 C175 1.430 . S
C176 N180 1.351 . S
C177 C175 1.387 . S
C177 C178 1.374 . S
C177 H192 0.931 . S
C178 C172 1.439 . S
C178 C177 1.374 . S
C178 H193 0.931 . S
Eu179 N170 2.600 . S
Eu179 N180 2.562 . S
Eu179 O214 2.335 . S
Eu179 O217 2.372 . S
Eu179 O218 2.462 . S
Eu179 O219 2.373 . S
Eu179 O221 2.432 . S
Eu179 O222 2.291 . S
Eu179 C243 2.787 . S
N180 C176 1.351 . S
N180 Eu179 2.562 . S
N180 C182 1.325 . S
C181 C175 1.404 . S
C181 C183 1.366 . S
C181 H189 0.930 . S
C182 N180 1.325 . S
C182 C183 1.416 . S
C182 H188 0.929 . S
C183 C181 1.366 . S
C183 C182 1.416 . S
C183 H185 0.930 . S
H184 C173 0.930 . S
H185 C183 0.930 . S
H186 C201 0.930 . S
H187 C208 0.930 . S
H188 C182 0.929 . S
H189 C181 0.930 . S
H190 C204 0.929 . S
H191 C171 0.931 . S
H192 C177 0.931 . S
H193 C178 0.931 . S
H194 C199 0.931 1_545 S
H195 C174 0.929 . S
H196 C207 0.930 . S
N197 Eu168 2.600 . S
N197 C198 1.365 . S
N197 C201 1.319 . S
C198 N197 1.365 . S
C198 C200 1.405 . S
C198 C206 1.448 . S
C199 H194 0.931 1_565 S
C199 C201 1.397 . S
C199 C202 1.367 1_565 S
C200 C198 1.405 . S
C200 C202 1.403 1_565 S
C200 C233 1.439 . S
C201 H186 0.930 . S
C201 N197 1.319 . S
C201 C199 1.397 . S
C202 C199 1.367 1_545 S
C202 C200 1.403 1_545 S
C202 H209 0.929 . S
N203 Eu168 2.562 . S
N203 C204 1.325 . S
N203 C206 1.351 . S
C204 H190 0.929 . S
C204 N203 1.325 . S
C204 C208 1.416 . S
C205 C206 1.430 . S
C205 C207 1.404 . S
C205 C234 1.387 . S
C206 C198 1.448 . S
C206 N203 1.351 . S
C206 C205 1.430 . S
C207 H196 0.930 . S
C207 C205 1.404 . S
C207 C208 1.366 . S
C208 H187 0.930 . S
C208 C204 1.416 . S
C208 C207 1.366 . S
H209 C202 0.929 . S
H210 C233 0.931 1_545 S
H211 C234 0.931 . S
O212 Eu168 2.462 . S
O212 C232 1.252 . S
O213 Eu168 2.373 . S
O213 C224 1.249 . S
O214 Eu179 2.335 . S
O214 C224 1.264 . S
O215 Eu168 2.432 . S
O215 C232 1.268 . S
O216 Eu168 2.291 . S
O216 C231 1.255 . S
O217 Eu179 2.372 . S
O217 C231 1.257 . S
O218 Eu179 2.462 . S
O218 C243 1.252 . S
O219 Eu179 2.373 . S
O219 C235 1.249 . S
O220 Eu168 2.335 . S
O220 C235 1.264 . S
O221 Eu179 2.432 . S
O221 C243 1.268 . S
O222 Eu179 2.291 . S
O222 C242 1.255 . S
O223 Eu168 2.372 . S
O223 C242 1.257 . S
C224 O213 1.249 . S
C224 O214 1.264 . S
C225 C228 1.382 . S
C225 C230 1.390 . S
C225 C232 1.506 . S
C226 C227 1.398 1_565 S
C226 C230 1.392 . S
C227 C226 1.398 1_545 S
C227 C229 1.372 . S
C227 H244 0.931 . S
C228 C225 1.382 . S
C228 C229 1.390 1_565 S
C228 H245 0.931 1_565 S
C229 C227 1.372 . S
C229 C228 1.390 1_545 S
C229 H246 0.929 . S
C230 C225 1.390 . S
C230 C226 1.392 . S
C230 H247 0.930 . S
C231 O216 1.255 . S
C231 O217 1.257 . S
C232 Eu168 2.787 . S
C232 O212 1.252 . S
C232 O215 1.268 . S
C232 C225 1.506 . S
C233 C200 1.439 . S
C233 H210 0.931 1_565 S
C233 C234 1.374 . S
C234 C205 1.387 . S
C234 H211 0.931 . S
C234 C233 1.374 . S
C235 O219 1.249 . S
C235 O220 1.264 . S
C236 C239 1.382 . S
C236 C240 1.390 . S
C236 C243 1.506 . S
C237 C238 1.398 . S
C237 C240 1.392 . S
C238 C237 1.398 . S
C238 C241 1.372 . S
C238 H248 0.931 . S
C239 C236 1.382 . S
C239 C241 1.390 . S
C239 H249 0.931 . S
C240 C236 1.390 . S
C240 C237 1.392 . S
C240 H250 0.930 . S
C241 C238 1.372 . S
C241 C239 1.390 . S
C241 H251 0.929 . S
C242 O222 1.255 . S
C242 O223 1.257 . S
C243 Eu179 2.787 . S
C243 O218 1.252 . S
C243 O221 1.268 . S
C243 C236 1.506 . S
H244 C227 0.931 . S
H245 C228 0.931 1_545 S
H246 C229 0.929 . S
H247 C230 0.930 . S
H248 C238 0.931 . S
H249 C239 0.931 . S
H250 C240 0.930 . S
H251 C241 0.929 . S
Eu252 N281 2.600 . S
Eu252 N287 2.562 . S
Eu252 O296 2.462 . S
Eu252 O297 2.373 . S
Eu252 O299 2.432 . S
Eu252 O300 2.291 . S
Eu252 O304 2.335 . S
Eu252 O307 2.372 . S
Eu252 C316 2.787 . S
C253 N254 1.365 . S
C253 C256 1.405 . S
C253 C260 1.448 1_455 S
N254 C253 1.365 . S
N254 C257 1.319 . S
N254 Eu263 2.600 1_455 S
C255 C257 1.397 . S
C255 C258 1.367 . S
C255 H275 0.931 . S
C256 C253 1.405 . S
C256 C258 1.403 . S
C256 C262 1.439 . S
C257 N254 1.319 . S
C257 C255 1.397 . S
C257 H268 0.930 . S
C258 C255 1.367 . S
C258 C256 1.403 . S
C258 H279 0.929 . S
C259 C260 1.430 1_455 S
C259 C261 1.387 . S
C259 C265 1.404 1_455 S
C260 C253 1.448 1_655 S
C260 C259 1.430 1_655 S
C260 N264 1.351 . S
C261 C259 1.387 . S
C261 C262 1.374 . S
C261 H276 0.931 . S
C262 C256 1.439 . S
C262 C261 1.374 . S
C262 H277 0.931 . S
Eu263 N254 2.600 1_655 S
Eu263 N264 2.562 . S
Eu263 O298 2.335 . S
Eu263 O301 2.372 . S
Eu263 O302 2.462 . S
Eu263 O303 2.373 . S
Eu263 O305 2.418 1_655 S
Eu263 O306 2.291 . S
Eu263 C327 2.787 . S
N264 C260 1.351 . S
N264 Eu263 2.562 . S
N264 C266 1.325 . S
C265 C259 1.404 1_655 S
C265 C267 1.366 . S
C265 H273 0.930 . S
C266 N264 1.325 . S
C266 C267 1.416 . S
C266 H272 0.929 . S
C267 C265 1.366 . S
C267 C266 1.416 . S
C267 H269 0.930 . S
H268 C257 0.930 . S
H269 C267 0.930 . S
H270 C285 0.930 . S
H271 C292 0.930 . S
H272 C266 0.929 . S
H273 C265 0.930 . S
H274 C288 0.929 . S
H275 C255 0.931 . S
H276 C261 0.931 . S
H277 C262 0.931 . S
H278 C283 0.931 . S
H279 C258 0.929 . S
H280 C291 0.930 . S
N281 Eu252 2.600 . S
N281 C282 1.365 . S
N281 C285 1.319 . S
C282 N281 1.365 . S
C282 C284 1.405 . S
C282 C290 1.448 . S
C283 H278 0.931 . S
C283 C285 1.397 . S
C283 C286 1.367 . S
C284 C282 1.405 . S
C284 C286 1.403 . S
C284 C317 1.439 . S
C285 H270 0.930 . S
C285 N281 1.319 . S
C285 C283 1.397 . S
C286 C283 1.367 . S
C286 C284 1.403 . S
C286 H293 0.929 . S
N287 Eu252 2.562 . S
N287 C288 1.325 . S
N287 C290 1.351 . S
C288 H274 0.929 . S
C288 N287 1.325 . S
C288 C292 1.416 . S
C289 C290 1.430 . S
C289 C291 1.404 . S
C289 C318 1.387 . S
C290 C282 1.448 . S
C290 N287 1.351 . S
C290 C289 1.430 . S
C291 H280 0.930 . S
C291 C289 1.404 . S
C291 C292 1.366 . S
C292 H271 0.930 . S
C292 C288 1.416 . S
C292 C291 1.366 . S
H293 C286 0.929 . S
H294 C317 0.931 . S
H295 C318 0.931 . S
O296 Eu252 2.462 . S
O296 C316 1.252 . S
O297 Eu252 2.373 . S
O297 C308 1.249 . S
O298 Eu263 2.335 . S
O298 C308 1.264 . S
O299 Eu252 2.432 . S
O299 C316 1.268 . S
O300 Eu252 2.291 . S
O300 C315 1.255 . S
O301 Eu263 2.372 . S
O301 C315 1.257 . S
O302 Eu263 2.462 . S
O302 C327 1.252 . S
O303 Eu263 2.373 . S
O303 C319 1.249 . S
O304 Eu252 2.335 . S
O304 C319 1.264 . S
O305 Eu263 2.418 1_455 S
O305 C327 1.265 1_455 S
O306 Eu263 2.291 . S
O306 C326 1.255 . S
O307 Eu252 2.372 . S
O307 C326 1.257 . S
C308 O297 1.249 . S
C308 O298 1.264 . S
C309 C312 1.382 . S
C309 C314 1.390 . S
C309 C316 1.506 . S
C310 C311 1.398 . S
C310 C314 1.392 . S
C311 C310 1.398 . S
C311 C313 1.372 . S
C311 H328 0.931 . S
C312 C309 1.382 . S
C312 C313 1.390 . S
C312 H329 0.931 . S
C313 C311 1.372 . S
C313 C312 1.390 . S
C313 H330 0.929 . S
C314 C309 1.390 . S
C314 C310 1.392 . S
C314 H331 0.930 . S
C315 O300 1.255 . S
C315 O301 1.257 . S
C316 Eu252 2.787 . S
C316 O296 1.252 . S
C316 O299 1.268 . S
C316 C309 1.506 . S
C317 C284 1.439 . S
C317 H294 0.931 . S
C317 C318 1.374 . S
C318 C289 1.387 . S
C318 H295 0.931 . S
C318 C317 1.374 . S
C319 O303 1.249 . S
C319 O304 1.264 . S
C320 C323 1.382 . S
C320 C324 1.390 . S
C320 C327 1.506 1_455 S
C321 C322 1.398 . S
C321 C324 1.392 . S
C322 C321 1.398 . S
C322 C325 1.372 . S
C322 H332 0.931 . S
C323 C320 1.382 . S
C323 C325 1.390 . S
C323 H333 0.931 . S
C324 C320 1.390 . S
C324 C321 1.392 . S
C324 H334 0.930 1_455 S
C325 C322 1.372 . S
C325 C323 1.390 . S
C325 H335 0.929 . S
C326 O306 1.255 . S
C326 O307 1.257 . S
C327 Eu263 2.787 . S
C327 O302 1.252 . S
C327 O305 1.265 1_655 S
C327 C320 1.506 1_655 S
H328 C311 0.931 . S
H329 C312 0.931 . S
H330 C313 0.929 . S
H331 C314 0.930 . S
H332 C322 0.931 . S
H333 C323 0.931 . S
H334 C324 0.930 1_655 S
H335 C325 0.929 . S
Eu336 N365 2.600 . S
Eu336 N371 2.562 . S
Eu336 O380 2.462 . S
Eu336 O381 2.373 . S
Eu336 O383 2.432 . S
Eu336 O384 2.291 . S
Eu336 O388 2.335 . S
Eu336 O391 2.372 . S
Eu336 C400 2.787 . S
C337 N338 1.365 . S
C337 C340 1.405 . S
C337 C344 1.448 . S
N338 C337 1.365 . S
N338 C341 1.319 . S
N338 Eu347 2.600 . S
C339 C341 1.397 . S
C339 C342 1.367 1_565 S
C339 H359 0.931 1_565 S
C340 C337 1.405 . S
C340 C342 1.403 1_565 S
C340 C346 1.439 . S
C341 N338 1.319 . S
C341 C339 1.397 . S
C341 H352 0.930 . S
C342 C339 1.367 1_545 S
C342 C340 1.403 1_545 S
C342 H363 0.929 . S
C343 C344 1.430 . S
C343 C345 1.387 . S
C343 C349 1.404 . S
C344 C337 1.448 . S
C344 C343 1.430 . S
C344 N348 1.351 . S
C345 C343 1.387 . S
C345 C346 1.374 . S
C345 H360 0.931 . S
C346 C340 1.439 . S
C346 C345 1.374 . S
C346 H361 0.931 1_565 S
Eu347 N338 2.600 . S
Eu347 N348 2.562 . S
Eu347 O382 2.335 . S
Eu347 O385 2.372 . S
Eu347 O386 2.462 . S
Eu347 O387 2.373 . S
Eu347 O389 2.432 . S
Eu347 O390 2.291 . S
Eu347 C411 2.787 . S
N348 C344 1.351 . S
N348 Eu347 2.562 . S
N348 C350 1.325 . S
C349 C343 1.404 . S
C349 C351 1.366 . S
C349 H357 0.930 . S
C350 N348 1.325 . S
C350 C351 1.416 . S
C350 H356 0.929 . S
C351 C349 1.366 . S
C351 C350 1.416 . S
C351 H353 0.930 . S
H352 C341 0.930 . S
H353 C351 0.930 . S
H354 C369 0.930 . S
H355 C376 0.930 . S
H356 C350 0.929 . S
H357 C349 0.930 . S
H358 C372 0.929 . S
H359 C339 0.931 1_545 S
H360 C345 0.931 . S
H361 C346 0.931 1_545 S
H362 C367 0.931 . S
H363 C342 0.929 . S
H364 C375 0.930 . S
N365 Eu336 2.600 . S
N365 C366 1.365 . S
N365 C369 1.319 . S
C366 N365 1.365 . S
C366 C368 1.405 . S
C366 C374 1.448 . S
C367 H362 0.931 . S
C367 C369 1.397 . S
C367 C370 1.367 . S
C368 C366 1.405 . S
C368 C370 1.403 . S
C368 C401 1.439 . S
C369 H354 0.930 . S
C369 N365 1.319 . S
C369 C367 1.397 . S
C370 C367 1.367 . S
C370 C368 1.403 . S
C370 H377 0.929 . S
N371 Eu336 2.562 . S
N371 C372 1.325 . S
N371 C374 1.351 . S
C372 H358 0.929 . S
C372 N371 1.325 . S
C372 C376 1.416 . S
C373 C374 1.430 . S
C373 C375 1.404 . S
C373 C402 1.387 . S
C374 C366 1.448 . S
C374 N371 1.351 . S
C374 C373 1.430 . S
C375 H364 0.930 . S
C375 C373 1.404 . S
C375 C376 1.366 . S
C376 H355 0.930 . S
C376 C372 1.416 . S
C376 C375 1.366 . S
H377 C370 0.929 . S
H378 C401 0.931 . S
H379 C402 0.931 . S
O380 Eu336 2.462 . S
O380 C400 1.252 . S
O381 Eu336 2.373 . S
O381 C392 1.249 . S
O382 Eu347 2.335 . S
O382 C392 1.264 . S
O383 Eu336 2.432 . S
O383 C400 1.268 . S
O384 Eu336 2.291 . S
O384 C399 1.255 . S
O385 Eu347 2.372 . S
O385 C399 1.257 . S
O386 Eu347 2.462 . S
O386 C411 1.252 . S
O387 Eu347 2.373 . S
O387 C403 1.249 . S
O388 Eu336 2.335 . S
O388 C403 1.264 . S
O389 Eu347 2.432 . S
O389 C411 1.268 . S
O390 Eu347 2.291 . S
O390 C410 1.255 . S
O391 Eu336 2.372 . S
O391 C410 1.257 . S
C392 O381 1.249 . S
C392 O382 1.264 . S
C393 C396 1.382 . S
C393 C398 1.390 . S
C393 C400 1.506 . S
C394 C395 1.398 . S
C394 C398 1.392 . S
C395 C394 1.398 . S
C395 C397 1.372 . S
C395 H412 0.931 . S
C396 C393 1.382 . S
C396 C397 1.390 . S
C396 H413 0.931 . S
C397 C395 1.372 . S
C397 C396 1.390 . S
C397 H414 0.929 . S
C398 C393 1.390 . S
C398 C394 1.392 . S
C398 H415 0.930 . S
C399 O384 1.255 . S
C399 O385 1.257 . S
C400 Eu336 2.787 . S
C400 O380 1.252 . S
C400 O383 1.268 . S
C400 C393 1.506 . S
C401 C368 1.439 . S
C401 H378 0.931 . S
C401 C402 1.374 . S
C402 C373 1.387 . S
C402 H379 0.931 . S
C402 C401 1.374 . S
C403 O387 1.249 . S
C403 O388 1.264 . S
C404 C407 1.382 . S
C404 C408 1.390 . S
C404 C411 1.506 . S
C405 C406 1.398 1_565 S
C405 C408 1.392 . S
C406 C405 1.398 1_545 S
C406 C409 1.372 . S
C406 H416 0.913 1_556 S
C407 C404 1.382 . S
C407 C409 1.390 1_565 S
C407 H417 0.931 1_565 S
C408 C404 1.390 . S
C408 C405 1.392 . S
C408 H418 0.930 . S
C409 C406 1.372 . S
C409 C407 1.390 1_545 S
C409 H419 0.929 . S
C410 O390 1.255 . S
C410 O391 1.257 . S
C411 Eu347 2.787 . S
C411 O386 1.252 . S
C411 O389 1.268 . S
C411 C404 1.506 . S
H412 C395 0.931 . S
H413 C396 0.931 . S
H414 C397 0.929 . S
H415 C398 0.930 . S
H416 C406 0.913 1_554 S
H417 C407 0.931 1_545 S
H418 C408 0.930 . S
H419 C409 0.929 . S
Eu420 N449 2.600 . S
Eu420 N455 2.562 . S
Eu420 O464 2.462 . S
Eu420 O465 2.373 . S
Eu420 O467 2.432 . S
Eu420 O468 2.291 . S
Eu420 O472 2.335 . S
Eu420 O475 2.372 . S
Eu420 C484 2.787 . S
C421 N422 1.365 . S
C421 C424 1.405 . S
C421 C428 1.448 . S
N422 C421 1.365 . S
N422 C425 1.319 . S
N422 Eu431 2.600 . S
C423 C425 1.397 . S
C423 C426 1.367 . S
C423 H443 0.931 . S
C424 C421 1.405 . S
C424 C426 1.403 . S
C424 C430 1.439 . S
C425 N422 1.319 . S
C425 C423 1.397 . S
C425 H436 0.930 . S
C426 C423 1.367 . S
C426 C424 1.403 . S
C426 H447 0.929 . S
C427 C428 1.430 . S
C427 C429 1.387 . S
C427 C433 1.404 . S
C428 C421 1.448 . S
C428 C427 1.430 . S
C428 N432 1.351 . S
C429 C427 1.387 . S
C429 C430 1.374 . S
C429 H444 0.931 . S
C430 C424 1.439 . S
C430 C429 1.374 . S
C430 H445 0.931 . S
Eu431 N422 2.600 . S
Eu431 N432 2.562 . S
Eu431 O466 2.335 . S
Eu431 O469 2.372 . S
Eu431 O470 2.462 . S
Eu431 O471 2.373 . S
Eu431 O473 2.432 . S
Eu431 O474 2.291 . S
Eu431 C495 2.787 . S
N432 C428 1.351 . S
N432 Eu431 2.562 . S
N432 C434 1.325 . S
C433 C427 1.404 . S
C433 C435 1.366 . S
C433 H441 0.930 . S
C434 N432 1.325 . S
C434 C435 1.416 . S
C434 H440 0.929 . S
C435 C433 1.366 . S
C435 C434 1.416 . S
C435 H437 0.930 . S
H436 C425 0.930 . S
H437 C435 0.930 . S
H438 C453 0.930 . S
H439 C460 0.930 . S
H440 C434 0.929 . S
H441 C433 0.930 . S
H442 C456 0.929 . S
H443 C423 0.931 . S
H444 C429 0.931 . S
H445 C430 0.931 . S
H446 C451 0.931 . S
H447 C426 0.929 . S
H448 C459 0.930 . S
N449 Eu420 2.600 . S
N449 C450 1.365 . S
N449 C453 1.319 . S
C450 N449 1.365 . S
C450 C452 1.405 . S
C450 C458 1.448 . S
C451 H446 0.931 . S
C451 C453 1.397 . S
C451 C454 1.367 . S
C452 C450 1.405 . S
C452 C454 1.403 . S
C452 C485 1.439 . S
C453 H438 0.930 . S
C453 N449 1.319 . S
C453 C451 1.397 . S
C454 C451 1.367 . S
C454 C452 1.403 . S
C454 H461 0.929 . S
N455 Eu420 2.562 . S
N455 C456 1.325 . S
N455 C458 1.351 . S
C456 H442 0.929 . S
C456 N455 1.325 . S
C456 C460 1.416 . S
C457 C458 1.430 . S
C457 C459 1.404 . S
C457 C486 1.387 . S
C458 C450 1.448 . S
C458 N455 1.351 . S
C458 C457 1.430 . S
C459 H448 0.930 . S
C459 C457 1.404 . S
C459 C460 1.366 . S
C460 H439 0.930 . S
C460 C456 1.416 . S
C460 C459 1.366 . S
H461 C454 0.929 . S
H462 C485 0.931 . S
H463 C486 0.931 . S
O464 Eu420 2.462 . S
O464 C484 1.252 . S
O465 Eu420 2.373 . S
O465 C476 1.249 . S
O466 Eu431 2.335 . S
O466 C476 1.264 . S
O467 Eu420 2.432 . S
O467 C484 1.268 . S
O468 Eu420 2.291 . S
O468 C483 1.255 . S
O469 Eu431 2.372 . S
O469 C483 1.257 . S
O470 Eu431 2.462 . S
O470 C495 1.252 . S
O471 Eu431 2.373 . S
O471 C487 1.249 . S
O472 Eu420 2.335 . S
O472 C487 1.264 . S
O473 Eu431 2.432 . S
O473 C495 1.268 . S
O474 Eu431 2.291 . S
O474 C494 1.255 . S
O475 Eu420 2.372 . S
O475 C494 1.257 . S
C476 O465 1.249 . S
C476 O466 1.264 . S
C477 C480 1.382 . S
C477 C482 1.390 . S
C477 C484 1.506 . S
C478 C479 1.398 . S
C478 C482 1.392 . S
C479 C478 1.398 . S
C479 C481 1.372 . S
C479 H496 0.931 . S
C480 C477 1.382 . S
C480 C481 1.390 . S
C480 H497 0.931 . S
C481 C479 1.372 . S
C481 C480 1.390 . S
C481 H498 0.929 . S
C482 C477 1.390 . S
C482 C478 1.392 . S
C482 H499 0.930 . S
C483 O468 1.255 . S
C483 O469 1.257 . S
C484 Eu420 2.787 . S
C484 O464 1.252 . S
C484 O467 1.268 . S
C484 C477 1.506 . S
C485 C452 1.439 . S
C485 H462 0.931 . S
C485 C486 1.374 . S
C486 C457 1.387 . S
C486 H463 0.931 . S
C486 C485 1.374 . S
C487 O471 1.249 . S
C487 O472 1.264 . S
C488 C491 1.382 . S
C488 C492 1.390 . S
C488 C495 1.506 . S
C489 C490 1.398 . S
C489 C492 1.392 . S
C490 C489 1.398 . S
C490 C493 1.372 . S
C490 H500 0.931 . S
C491 C488 1.382 . S
C491 C493 1.390 . S
C491 H501 0.931 . S
C492 C488 1.390 . S
C492 C489 1.392 . S
C492 H502 0.930 . S
C493 C490 1.372 . S
C493 C491 1.390 . S
C493 H503 0.929 . S
C494 O474 1.255 . S
C494 O475 1.257 . S
C495 Eu431 2.787 . S
C495 O470 1.252 . S
C495 O473 1.268 . S
C495 C488 1.506 . S
H496 C479 0.931 . S
H497 C480 0.931 . S
H498 C481 0.929 . S
H499 C482 0.930 . S
H500 C490 0.931 . S
H501 C491 0.931 . S
H502 C492 0.930 . S
H503 C493 0.929 . S
Eu504 N533 2.600 . S
Eu504 N539 2.562 . S
Eu504 O548 2.462 . S
Eu504 O549 2.373 . S
Eu504 O551 2.432 . S
Eu504 O552 2.291 . S
Eu504 O556 2.335 . S
Eu504 O559 2.372 . S
Eu504 C568 2.787 . S
C505 N506 1.365 . S
C505 C508 1.405 . S
C505 C512 1.448 . S
N506 C505 1.365 . S
N506 C509 1.319 . S
N506 Eu515 2.600 . S
C507 C509 1.397 . S
C507 C510 1.367 1_545 S
C507 H527 0.931 1_545 S
C508 C505 1.405 . S
C508 C510 1.403 1_545 S
C508 C514 1.439 . S
C509 N506 1.319 . S
C509 C507 1.397 . S
C509 H520 0.930 . S
C510 C507 1.367 1_565 S
C510 C508 1.403 1_565 S
C510 H531 0.929 . S
C511 C512 1.430 . S
C511 C513 1.387 . S
C511 C517 1.404 . S
C512 C505 1.448 . S
C512 C511 1.430 . S
C512 N516 1.351 . S
C513 C511 1.387 . S
C513 C514 1.374 . S
C513 H528 0.931 . S
C514 C508 1.439 . S
C514 C513 1.374 . S
C514 H529 0.931 1_545 S
Eu515 N506 2.600 . S
Eu515 N516 2.562 . S
Eu515 O550 2.335 . S
Eu515 O553 2.372 . S
Eu515 O554 2.462 . S
Eu515 O555 2.373 . S
Eu515 O557 2.432 . S
Eu515 O558 2.291 . S
Eu515 C579 2.787 . S
N516 C512 1.351 . S
N516 Eu515 2.562 . S
N516 C518 1.325 . S
C517 C511 1.404 . S
C517 C519 1.366 . S
C517 H525 0.930 . S
C518 N516 1.325 . S
C518 C519 1.416 . S
C518 H524 0.929 . S
C519 C517 1.366 . S
C519 C518 1.416 . S
C519 H521 0.930 . S
H520 C509 0.930 . S
H521 C519 0.930 . S
H522 C537 0.930 . S
H523 C544 0.930 . S
H524 C518 0.929 . S
H525 C517 0.930 . S
H526 C540 0.929 . S
H527 C507 0.931 1_565 S
H528 C513 0.931 . S
H529 C514 0.931 1_565 S
H530 C535 0.931 . S
H531 C510 0.929 . S
H532 C543 0.930 . S
N533 Eu504 2.600 . S
N533 C534 1.365 . S
N533 C537 1.319 . S
C534 N533 1.365 . S
C534 C536 1.405 . S
C534 C542 1.448 . S
C535 H530 0.931 . S
C535 C537 1.397 . S
C535 C538 1.367 . S
C536 C534 1.405 . S
C536 C538 1.403 . S
C536 C569 1.439 . S
C537 H522 0.930 . S
C537 N533 1.319 . S
C537 C535 1.397 . S
C538 C535 1.367 . S
C538 C536 1.403 . S
C538 H545 0.929 . S
N539 Eu504 2.562 . S
N539 C540 1.325 . S
N539 C542 1.351 . S
C540 H526 0.929 . S
C540 N539 1.325 . S
C540 C544 1.416 . S
C541 C542 1.430 . S
C541 C543 1.404 . S
C541 C570 1.387 . S
C542 C534 1.448 . S
C542 N539 1.351 . S
C542 C541 1.430 . S
C543 H532 0.930 . S
C543 C541 1.404 . S
C543 C544 1.366 . S
C544 H523 0.930 . S
C544 C540 1.416 . S
C544 C543 1.366 . S
H545 C538 0.929 . S
H546 C569 0.931 . S
H547 C570 0.931 . S
O548 Eu504 2.462 . S
O548 C568 1.252 . S
O549 Eu504 2.373 . S
O549 C560 1.249 . S
O550 Eu515 2.335 . S
O550 C560 1.264 . S
O551 Eu504 2.432 . S
O551 C568 1.268 . S
O552 Eu504 2.291 . S
O552 C567 1.255 . S
O553 Eu515 2.372 . S
O553 C567 1.257 . S
O554 Eu515 2.462 . S
O554 C579 1.252 . S
O555 Eu515 2.373 . S
O555 C571 1.249 . S
O556 Eu504 2.335 . S
O556 C571 1.264 . S
O557 Eu515 2.432 . S
O557 C579 1.268 . S
O558 Eu515 2.291 . S
O558 C578 1.255 . S
O559 Eu504 2.372 . S
O559 C578 1.257 . S
C560 O549 1.249 . S
C560 O550 1.264 . S
C561 C564 1.382 . S
C561 C566 1.390 . S
C561 C568 1.506 . S
C562 C563 1.398 . S
C562 C566 1.392 . S
C563 C562 1.398 . S
C563 C565 1.372 . S
C563 H580 0.931 . S
C564 C561 1.382 . S
C564 C565 1.390 . S
C564 H581 0.931 . S
C565 C563 1.372 . S
C565 C564 1.390 . S
C565 H582 0.929 . S
C566 C561 1.390 . S
C566 C562 1.392 . S
C566 H583 0.930 . S
C567 O552 1.255 . S
C567 O553 1.257 . S
C568 Eu504 2.787 . S
C568 O548 1.252 . S
C568 O551 1.268 . S
C568 C561 1.506 . S
C569 C536 1.439 . S
C569 H546 0.931 . S
C569 C570 1.374 . S
C570 C541 1.387 . S
C570 H547 0.931 . S
C570 C569 1.374 . S
C571 O555 1.249 . S
C571 O556 1.264 . S
C572 C575 1.382 . S
C572 C576 1.390 . S
C572 C579 1.506 . S
C573 C574 1.398 1_545 S
C573 C576 1.392 . S
C574 C573 1.398 1_565 S
C574 C577 1.372 . S
C574 H584 0.931 . S
C575 C572 1.382 . S
C575 C577 1.390 1_545 S
C575 H585 0.931 1_545 S
C576 C572 1.390 . S
C576 C573 1.392 . S
C576 H586 0.930 . S
C577 C574 1.372 . S
C577 C575 1.390 1_565 S
C577 H587 0.929 . S
C578 O558 1.255 . S
C578 O559 1.257 . S
C579 Eu515 2.787 . S
C579 O554 1.252 . S
C579 O557 1.268 . S
C579 C572 1.506 . S
H580 C563 0.931 . S
H581 C564 0.931 . S
H582 C565 0.929 . S
H583 C566 0.930 . S
H584 C574 0.931 . S
H585 C575 0.931 1_565 S
H586 C576 0.930 . S
H587 C577 0.929 . S
Eu588 N617 2.600 1_455 S
Eu588 N623 2.562 . S
Eu588 O632 2.462 . S
Eu588 O633 2.373 . S
Eu588 O635 2.418 1_455 S
Eu588 O636 2.291 . S
Eu588 O640 2.335 . S
Eu588 O643 2.372 . S
Eu588 C652 2.787 . S
C589 N590 1.365 . S
C589 C592 1.405 . S
C589 C596 1.448 . S
N590 C589 1.365 . S
N590 C593 1.319 . S
N590 Eu599 2.600 . S
C591 C593 1.397 . S
C591 C594 1.367 . S
C591 H611 0.931 . S
C592 C589 1.405 . S
C592 C594 1.403 . S
C592 C598 1.439 . S
C593 N590 1.319 . S
C593 C591 1.397 . S
C593 H604 0.930 . S
C594 C591 1.367 . S
C594 C592 1.403 . S
C594 H615 0.929 . S
C595 C596 1.430 . S
C595 C597 1.387 . S
C595 C601 1.404 . S
C596 C589 1.448 . S
C596 C595 1.430 . S
C596 N600 1.351 . S
C597 C595 1.387 . S
C597 C598 1.374 . S
C597 H612 0.931 . S
C598 C592 1.439 . S
C598 C597 1.374 . S
C598 H613 0.931 . S
Eu599 N590 2.600 . S
Eu599 N600 2.562 . S
Eu599 O634 2.335 . S
Eu599 O637 2.372 . S
Eu599 O638 2.462 . S
Eu599 O639 2.373 . S
Eu599 O641 2.432 . S
Eu599 O642 2.291 . S
Eu599 C663 2.787 . S
N600 C596 1.351 . S
N600 Eu599 2.562 . S
N600 C602 1.325 . S
C601 C595 1.404 . S
C601 C603 1.366 . S
C601 H609 0.930 . S
C602 N600 1.325 . S
C602 C603 1.416 . S
C602 H608 0.929 . S
C603 C601 1.366 . S
C603 C602 1.416 . S
C603 H605 0.930 . S
H604 C593 0.930 . S
H605 C603 0.930 . S
H606 C621 0.930 . S
H607 C628 0.930 . S
H608 C602 0.929 . S
H609 C601 0.930 . S
H610 C624 0.929 . S
H611 C591 0.931 . S
H612 C597 0.931 . S
H613 C598 0.931 . S
H614 C619 0.931 . S
H615 C594 0.929 . S
H616 C627 0.930 . S
N617 Eu588 2.600 1_655 S
N617 C618 1.365 . S
N617 C621 1.319 . S
C618 N617 1.365 . S
C618 C620 1.405 . S
C618 C626 1.448 1_655 S
C619 H614 0.931 . S
C619 C621 1.397 . S
C619 C622 1.367 . S
C620 C618 1.405 . S
C620 C622 1.403 . S
C620 C653 1.439 . S
C621 H606 0.930 . S
C621 N617 1.319 . S
C621 C619 1.397 . S
C622 C619 1.367 . S
C622 C620 1.403 . S
C622 H629 0.929 . S
N623 Eu588 2.562 . S
N623 C624 1.325 . S
N623 C626 1.351 . S
C624 H610 0.929 . S
C624 N623 1.325 . S
C624 C628 1.416 . S
C625 C626 1.430 1_655 S
C625 C627 1.404 1_655 S
C625 C654 1.387 . S
C626 C618 1.448 1_455 S
C626 N623 1.351 . S
C626 C625 1.430 1_455 S
C627 H616 0.930 . S
C627 C625 1.404 1_455 S
C627 C628 1.366 . S
C628 H607 0.930 . S
C628 C624 1.416 . S
C628 C627 1.366 . S
H629 C622 0.929 . S
H630 C653 0.931 . S
H631 C654 0.931 . S
O632 Eu588 2.462 . S
O632 C652 1.252 . S
O633 Eu588 2.373 . S
O633 C644 1.249 . S
O634 Eu599 2.335 . S
O634 C644 1.264 . S
O635 Eu588 2.418 1_655 S
O635 C652 1.265 1_655 S
O636 Eu588 2.291 . S
O636 C651 1.255 . S
O637 Eu599 2.372 . S
O637 C651 1.257 . S
O638 Eu599 2.462 . S
O638 C663 1.252 . S
O639 Eu599 2.373 . S
O639 C655 1.249 . S
O640 Eu588 2.335 . S
O640 C655 1.264 . S
O641 Eu599 2.432 . S
O641 C663 1.268 . S
O642 Eu599 2.291 . S
O642 C662 1.255 . S
O643 Eu588 2.372 . S
O643 C662 1.257 . S
C644 O633 1.249 . S
C644 O634 1.264 . S
C645 C648 1.382 . S
C645 C650 1.390 . S
C645 C652 1.506 1_655 S
C646 C647 1.398 . S
C646 C650 1.392 . S
C647 C646 1.398 . S
C647 C649 1.372 . S
C647 H664 0.931 . S
C648 C645 1.382 . S
C648 C649 1.390 . S
C648 H665 0.931 . S
C649 C647 1.372 . S
C649 C648 1.390 . S
C649 H666 0.929 . S
C650 C645 1.390 . S
C650 C646 1.392 . S
C650 H667 0.930 1_655 S
C651 O636 1.255 . S
C651 O637 1.257 . S
C652 Eu588 2.787 . S
C652 O632 1.252 . S
C652 O635 1.265 1_455 S
C652 C645 1.506 1_455 S
C653 C620 1.439 . S
C653 H630 0.931 . S
C653 C654 1.374 . S
C654 C625 1.387 . S
C654 H631 0.931 . S
C654 C653 1.374 . S
C655 O639 1.249 . S
C655 O640 1.264 . S
C656 C659 1.382 . S
C656 C660 1.390 . S
C656 C663 1.506 . S
C657 C658 1.398 . S
C657 C660 1.392 . S
C658 C657 1.398 . S
C658 C661 1.372 . S
C658 H668 0.931 . S
C659 C656 1.382 . S
C659 C661 1.390 . S
C659 H669 0.931 . S
C660 C656 1.390 . S
C660 C657 1.392 . S
C660 H670 0.930 . S
C661 C658 1.372 . S
C661 C659 1.390 . S
C661 H671 0.929 . S
C662 O642 1.255 . S
C662 O643 1.257 . S
C663 Eu599 2.787 . S
C663 O638 1.252 . S
C663 O641 1.268 . S
C663 C656 1.506 . S
H664 C647 0.931 . S
H665 C648 0.931 . S
H666 C649 0.929 . S
H667 C650 0.930 1_455 S
H668 C658 0.931 . S
H669 C659 0.931 . S
H670 C660 0.930 . S
H671 C661 0.929 . S
Eu672 N701 2.600 . S
Eu672 N707 2.562 . S
Eu672 O716 2.462 . S
Eu672 O717 2.373 . S
Eu672 O719 2.432 . S
Eu672 O720 2.291 . S
Eu672 O724 2.335 . S
Eu672 O727 2.372 . S
Eu672 C736 2.787 . S
C673 N674 1.365 . S
C673 C676 1.405 . S
C673 C680 1.448 . S
N674 C673 1.365 . S
N674 C677 1.319 . S
N674 Eu683 2.600 . S
C675 C677 1.397 . S
C675 C678 1.367 . S
C675 H695 0.931 . S
C676 C673 1.405 . S
C676 C678 1.403 . S
C676 C682 1.439 . S
C677 N674 1.319 . S
C677 C675 1.397 . S
C677 H688 0.930 . S
C678 C675 1.367 . S
C678 C676 1.403 . S
C678 H699 0.929 . S
C679 C680 1.430 . S
C679 C681 1.387 . S
C679 C685 1.404 . S
C680 C673 1.448 . S
C680 C679 1.430 . S
C680 N684 1.351 . S
C681 C679 1.387 . S
C681 C682 1.374 . S
C681 H696 0.931 . S
C682 C676 1.439 . S
C682 C681 1.374 . S
C682 H697 0.931 . S
Eu683 N674 2.600 . S
Eu683 N684 2.562 . S
Eu683 O718 2.335 . S
Eu683 O721 2.372 . S
Eu683 O722 2.462 . S
Eu683 O723 2.373 . S
Eu683 O725 2.432 . S
Eu683 O726 2.291 . S
Eu683 C747 2.787 . S
N684 C680 1.351 . S
N684 Eu683 2.562 . S
N684 C686 1.325 . S
C685 C679 1.404 . S
C685 C687 1.366 . S
C685 H693 0.930 . S
C686 N684 1.325 . S
C686 C687 1.416 . S
C686 H692 0.929 . S
C687 C685 1.366 . S
C687 C686 1.416 . S
C687 H689 0.930 . S
H688 C677 0.930 . S
H689 C687 0.930 . S
H690 C705 0.930 . S
H691 C712 0.930 . S
H692 C686 0.929 . S
H693 C685 0.930 . S
H694 C708 0.929 . S
H695 C675 0.931 . S
H696 C681 0.931 . S
H697 C682 0.931 . S
H698 C703 0.931 . S
H699 C678 0.929 . S
H700 C711 0.930 . S
N701 Eu672 2.600 . S
N701 C702 1.365 . S
N701 C705 1.319 . S
C702 N701 1.365 . S
C702 C704 1.405 . S
C702 C710 1.448 . S
C703 H698 0.931 . S
C703 C705 1.397 . S
C703 C706 1.367 . S
C704 C702 1.405 . S
C704 C706 1.403 . S
C704 C737 1.439 . S
C705 H690 0.930 . S
C705 N701 1.319 . S
C705 C703 1.397 . S
C706 C703 1.367 . S
C706 C704 1.403 . S
C706 H713 0.929 . S
N707 Eu672 2.562 . S
N707 C708 1.325 . S
N707 C710 1.351 . S
C708 H694 0.929 . S
C708 N707 1.325 . S
C708 C712 1.416 . S
C709 C710 1.430 . S
C709 C711 1.404 . S
C709 C738 1.387 . S
C710 C702 1.448 . S
C710 N707 1.351 . S
C710 C709 1.430 . S
C711 H700 0.930 . S
C711 C709 1.404 . S
C711 C712 1.366 . S
C712 H691 0.930 . S
C712 C708 1.416 . S
C712 C711 1.366 . S
H713 C706 0.929 . S
H714 C737 0.931 . S
H715 C738 0.931 . S
O716 Eu672 2.462 . S
O716 C736 1.252 . S
O717 Eu672 2.373 . S
O717 C728 1.249 . S
O718 Eu683 2.335 . S
O718 C728 1.264 . S
O719 Eu672 2.432 . S
O719 C736 1.268 . S
O720 Eu672 2.291 . S
O720 C735 1.255 . S
O721 Eu683 2.372 . S
O721 C735 1.257 . S
O722 Eu683 2.462 . S
O722 C747 1.252 . S
O723 Eu683 2.373 . S
O723 C739 1.249 . S
O724 Eu672 2.335 . S
O724 C739 1.264 . S
O725 Eu683 2.432 . S
O725 C747 1.268 . S
O726 Eu683 2.291 . S
O726 C746 1.255 . S
O727 Eu672 2.372 . S
O727 C746 1.257 . S
C728 O717 1.249 . S
C728 O718 1.264 . S
C729 C732 1.382 . S
C729 C734 1.390 . S
C729 C736 1.506 . S
C730 C731 1.398 . S
C730 C734 1.392 . S
C731 C730 1.398 . S
C731 C733 1.372 . S
C731 H748 0.931 . S
C732 C729 1.382 . S
C732 C733 1.390 . S
C732 H749 0.931 . S
C733 C731 1.372 . S
C733 C732 1.390 . S
C733 H750 0.929 . S
C734 C729 1.390 . S
C734 C730 1.392 . S
C734 H751 0.930 . S
C735 O720 1.255 . S
C735 O721 1.257 . S
C736 Eu672 2.787 . S
C736 O716 1.252 . S
C736 O719 1.268 . S
C736 C729 1.506 . S
C737 C704 1.439 . S
C737 H714 0.931 . S
C737 C738 1.374 . S
C738 C709 1.387 . S
C738 H715 0.931 . S
C738 C737 1.374 . S
C739 O723 1.249 . S
C739 O724 1.264 . S
C740 C743 1.382 . S
C740 C744 1.390 . S
C740 C747 1.506 . S
C741 C742 1.398 . S
C741 C744 1.392 . S
C742 C741 1.398 . S
C742 C745 1.372 . S
C742 H752 0.931 . S
C743 C740 1.382 . S
C743 C745 1.390 . S
C743 H753 0.931 . S
C744 C740 1.390 . S
C744 C741 1.392 . S
C744 H754 0.930 . S
C745 C742 1.372 . S
C745 C743 1.390 . S
C745 H755 0.929 . S
C746 O726 1.255 . S
C746 O727 1.257 . S
C747 Eu683 2.787 . S
C747 O722 1.252 . S
C747 O725 1.268 . S
C747 C740 1.506 . S
H748 C731 0.931 . S
H749 C732 0.931 . S
H750 C733 0.929 . S
H751 C734 0.930 . S
H752 C742 0.931 . S
H753 C743 0.931 . S
H754 C744 0.930 . S
H755 C745 0.929 . S
Eu756 N785 2.600 . S
Eu756 N791 2.562 . S
Eu756 O800 2.462 . S
Eu756 O801 2.373 . S
Eu756 O803 2.432 . S
Eu756 O804 2.291 . S
Eu756 O808 2.335 . S
Eu756 O811 2.406 . S
Eu756 C820 2.787 . S
C757 N758 1.365 . S
C757 C760 1.405 . S
C757 C764 1.448 1_645 S
N758 C757 1.365 . S
N758 C761 1.319 . S
N758 Eu767 2.600 1_655 S
C759 C761 1.397 . S
C759 C762 1.367 . S
C759 H779 0.931 . S
C760 C757 1.405 . S
C760 C762 1.403 . S
C760 C766 1.439 1_545 S
C761 N758 1.319 . S
C761 C759 1.397 . S
C761 H772 0.930 . S
C762 C759 1.367 . S
C762 C760 1.403 . S
C762 H783 0.929 . S
C763 C764 1.430 1_655 S
C763 C765 1.387 . S
C763 C769 1.404 1_655 S
C764 C757 1.448 1_465 S
C764 C763 1.430 1_455 S
C764 N768 1.351 . S
C765 C763 1.387 . S
C765 C766 1.374 . S
C765 H780 0.931 . S
C766 C760 1.439 1_565 S
C766 C765 1.374 . S
C766 H781 0.931 . S
Eu767 N758 2.600 1_455 S
Eu767 N768 2.562 1_545 S
Eu767 O802 2.335 . S
Eu767 O805 2.372 . S
Eu767 O806 2.462 1_545 S
Eu767 O807 2.373 . S
Eu767 O809 2.418 1_455 S
Eu767 O810 2.291 1_545 S
Eu767 C831 2.787 1_545 S
N768 C764 1.351 . S
N768 Eu767 2.562 1_565 S
N768 C770 1.325 . S
C769 C763 1.404 1_455 S
C769 C771 1.366 . S
C769 H777 0.930 . S
C770 N768 1.325 . S
C770 C771 1.416 . S
C770 H776 0.929 . S
C771 C769 1.366 . S
C771 C770 1.416 . S
C771 H773 0.930 . S
H772 C761 0.930 . S
H773 C771 0.930 . S
H774 C789 0.930 . S
H775 C796 0.930 . S
H776 C770 0.929 . S
H777 C769 0.930 . S
H778 C792 0.929 . S
H779 C759 0.931 . S
H780 C765 0.931 . S
H781 C766 0.931 . S
H782 C787 0.931 1_565 S
H783 C762 0.929 . S
H784 C795 0.930 . S
N785 Eu756 2.600 . S
N785 C786 1.365 . S
N785 C789 1.319 . S
C786 N785 1.365 . S
C786 C788 1.405 . S
C786 C794 1.448 . S
C787 H782 0.931 1_545 S
C787 C789 1.397 . S
C787 C790 1.367 . S
C788 C786 1.405 . S
C788 C790 1.403 . S
C788 C821 1.439 . S
C789 H774 0.930 . S
C789 N785 1.319 . S
C789 C787 1.397 . S
C790 C787 1.367 . S
C790 C788 1.403 . S
C790 H797 0.929 . S
N791 Eu756 2.562 . S
N791 C792 1.325 . S
N791 C794 1.351 . S
C792 H778 0.929 . S
C792 N791 1.325 . S
C792 C796 1.416 . S
C793 C794 1.430 . S
C793 C795 1.404 . S
C793 C822 1.387 . S
C794 C786 1.448 . S
C794 N791 1.351 . S
C794 C793 1.430 . S
C795 H784 0.930 . S
C795 C793 1.404 . S
C795 C796 1.366 . S
C796 H775 0.930 . S
C796 C792 1.416 . S
C796 C795 1.366 . S
H797 C790 0.929 . S
H798 C821 0.931 . S
H799 C822 0.931 . S
O800 Eu756 2.462 . S
O800 C820 1.252 . S
O801 Eu756 2.373 . S
O801 C812 1.249 . S
O802 Eu767 2.335 . S
O802 C812 1.264 . S
O803 Eu756 2.432 . S
O803 C820 1.268 . S
O804 Eu756 2.291 . S
O804 C819 1.255 . S
O805 Eu767 2.372 . S
O805 C819 1.257 . S
O806 Eu767 2.462 1_565 S
O806 C831 1.252 . S
O807 Eu767 2.373 . S
O807 C823 1.249 . S
O808 Eu756 2.335 . S
O808 C823 1.264 . S
O809 Eu767 2.418 1_655 S
O809 C831 1.265 1_645 S
O810 Eu767 2.291 1_565 S
O810 C830 1.255 . S
O811 Eu756 2.406 . S
O811 C830 1.238 1_545 S
C812 O801 1.249 . S
C812 O802 1.264 . S
C813 C816 1.382 . S
C813 C818 1.390 . S
C813 C820 1.506 . S
C814 C815 1.398 . S
C814 C818 1.392 . S
C815 C814 1.398 . S
C815 C817 1.372 . S
C815 H832 0.931 . S
C816 C813 1.382 . S
C816 C817 1.390 . S
C816 H833 0.931 . S
C817 C815 1.372 . S
C817 C816 1.390 . S
C817 H834 0.929 . S
C818 C813 1.390 . S
C818 C814 1.392 . S
C818 H835 0.930 . S
C819 O804 1.255 . S
C819 O805 1.257 . S
C820 Eu756 2.787 . S
C820 O800 1.252 . S
C820 O803 1.268 . S
C820 C813 1.506 . S
C821 C788 1.439 . S
C821 H798 0.931 . S
C821 C822 1.374 . S
C822 C793 1.387 . S
C822 H799 0.931 . S
C822 C821 1.374 . S
C823 O807 1.249 . S
C823 O808 1.264 . S
C824 C827 1.382 . S
C824 C828 1.390 . S
C824 C831 1.506 1_655 S
C825 C826 1.398 . S
C825 C828 1.392 . S
C826 C825 1.398 . S
C826 C829 1.372 . S
C826 H836 0.931 . S
C827 C824 1.382 . S
C827 C829 1.390 . S
C827 H837 0.931 1_565 S
C828 C824 1.390 . S
C828 C825 1.392 . S
C828 H838 0.930 1_655 S
C829 C826 1.372 . S
C829 C827 1.390 . S
C829 H839 0.929 . S
C830 O810 1.255 . S
C830 O811 1.238 1_565 S
C831 Eu767 2.787 1_565 S
C831 O806 1.252 . S
C831 O809 1.265 1_465 S
C831 C824 1.506 1_455 S
H832 C815 0.931 . S
H833 C816 0.931 . S
H834 C817 0.929 . S
H835 C818 0.930 . S
H836 C826 0.931 . S
H837 C827 0.931 1_545 S
H838 C828 0.930 1_455 S
H839 C829 0.929 . S
Eu840 N869 2.600 . S
Eu840 N875 2.562 . S
Eu840 O884 2.462 . S
Eu840 O885 2.373 . S
Eu840 O887 2.432 . S
Eu840 O888 2.291 . S
Eu840 O892 2.335 . S
Eu840 O895 2.372 . S
Eu840 C904 2.787 . S
C841 N842 1.365 . S
C841 C844 1.405 . S
C841 C848 1.448 . S
N842 C841 1.365 . S
N842 C845 1.319 . S
N842 Eu851 2.600 . S
C843 C845 1.397 . S
C843 C846 1.367 . S
C843 H863 0.931 . S
C844 C841 1.405 . S
C844 C846 1.403 . S
C844 C850 1.439 . S
C845 N842 1.319 . S
C845 C843 1.397 . S
C845 H856 0.930 . S
C846 C843 1.367 . S
C846 C844 1.403 . S
C846 H867 0.929 . S
C847 C848 1.430 . S
C847 C849 1.387 . S
C847 C853 1.404 . S
C848 C841 1.448 . S
C848 C847 1.430 . S
C848 N852 1.351 . S
C849 C847 1.387 . S
C849 C850 1.374 . S
C849 H864 0.931 . S
C850 C844 1.439 . S
C850 C849 1.374 . S
C850 H865 0.931 . S
Eu851 N842 2.600 . S
Eu851 N852 2.562 . S
Eu851 O886 2.335 . S
Eu851 O889 2.372 . S
Eu851 O890 2.462 . S
Eu851 O891 2.373 . S
Eu851 O893 2.432 . S
Eu851 O894 2.291 . S
Eu851 C915 2.787 . S
N852 C848 1.351 . S
N852 Eu851 2.562 . S
N852 C854 1.325 . S
C853 C847 1.404 . S
C853 C855 1.366 . S
C853 H861 0.930 . S
C854 N852 1.325 . S
C854 C855 1.416 . S
C854 H860 0.929 . S
C855 C853 1.366 . S
C855 C854 1.416 . S
C855 H857 0.930 . S
H856 C845 0.930 . S
H857 C855 0.930 . S
H858 C873 0.930 . S
H859 C880 0.930 . S
H860 C854 0.929 . S
H861 C853 0.930 . S
H862 C876 0.929 . S
H863 C843 0.931 . S
H864 C849 0.931 . S
H865 C850 0.931 . S
H866 C871 0.931 . S
H867 C846 0.929 . S
H868 C879 0.930 . S
N869 Eu840 2.600 . S
N869 C870 1.365 . S
N869 C873 1.319 . S
C870 N869 1.365 . S
C870 C872 1.405 . S
C870 C878 1.448 . S
C871 H866 0.931 . S
C871 C873 1.397 . S
C871 C874 1.367 . S
C872 C870 1.405 . S
C872 C874 1.403 . S
C872 C905 1.439 . S
C873 H858 0.930 . S
C873 N869 1.319 . S
C873 C871 1.397 . S
C874 C871 1.367 . S
C874 C872 1.403 . S
C874 H881 0.929 . S
N875 Eu840 2.562 . S
N875 C876 1.325 . S
N875 C878 1.351 . S
C876 H862 0.929 . S
C876 N875 1.325 . S
C876 C880 1.416 . S
C877 C878 1.430 . S
C877 C879 1.404 . S
C877 C906 1.387 . S
C878 C870 1.448 . S
C878 N875 1.351 . S
C878 C877 1.430 . S
C879 H868 0.930 . S
C879 C877 1.404 . S
C879 C880 1.366 . S
C880 H859 0.930 . S
C880 C876 1.416 . S
C880 C879 1.366 . S
H881 C874 0.929 . S
H882 C905 0.931 . S
H883 C906 0.931 . S
O884 Eu840 2.462 . S
O884 C904 1.252 . S
O885 Eu840 2.373 . S
O885 C896 1.249 . S
O886 Eu851 2.335 . S
O886 C896 1.264 . S
O887 Eu840 2.432 . S
O887 C904 1.268 . S
O888 Eu840 2.291 . S
O888 C903 1.255 . S
O889 Eu851 2.372 . S
O889 C903 1.257 . S
O890 Eu851 2.462 . S
O890 C915 1.252 . S
O891 Eu851 2.373 . S
O891 C907 1.249 . S
O892 Eu840 2.335 . S
O892 C907 1.264 . S
O893 Eu851 2.432 . S
O893 C915 1.268 . S
O894 Eu851 2.291 . S
O894 C914 1.255 . S
O895 Eu840 2.372 . S
O895 C914 1.257 . S
C896 O885 1.249 . S
C896 O886 1.264 . S
C897 C900 1.382 . S
C897 C902 1.390 . S
C897 C904 1.506 . S
C898 C899 1.398 . S
C898 C902 1.392 . S
C899 C898 1.398 . S
C899 C901 1.372 . S
C899 H916 0.913 1_554 S
C900 C897 1.382 . S
C900 C901 1.390 . S
C900 H917 0.931 . S
C901 C899 1.372 . S
C901 C900 1.390 . S
C901 H918 0.929 . S
C902 C897 1.390 . S
C902 C898 1.392 . S
C902 H919 0.930 . S
C903 O888 1.255 . S
C903 O889 1.257 . S
C904 Eu840 2.787 . S
C904 O884 1.252 . S
C904 O887 1.268 . S
C904 C897 1.506 . S
C905 C872 1.439 . S
C905 H882 0.931 . S
C905 C906 1.374 . S
C906 C877 1.387 . S
C906 H883 0.931 . S
C906 C905 1.374 . S
C907 O891 1.249 . S
C907 O892 1.264 . S
C908 C911 1.382 . S
C908 C912 1.390 . S
C908 C915 1.506 . S
C909 C910 1.398 . S
C909 C912 1.392 . S
C910 C909 1.398 . S
C910 C913 1.372 . S
C910 H920 0.931 . S
C911 C908 1.382 . S
C911 C913 1.390 . S
C911 H921 0.931 . S
C912 C908 1.390 . S
C912 C909 1.392 . S
C912 H922 0.930 . S
C913 C910 1.372 . S
C913 C911 1.390 . S
C913 H923 0.929 . S
C914 O894 1.255 . S
C914 O895 1.257 . S
C915 Eu851 2.787 . S
C915 O890 1.252 . S
C915 O893 1.268 . S
C915 C908 1.506 . S
H916 C899 0.913 1_556 S
H917 C900 0.931 . S
H918 C901 0.929 . S
H919 C902 0.930 . S
H920 C910 0.931 . S
H921 C911 0.931 . S
H922 C912 0.930 . S
H923 C913 0.929 . S
Eu924 N953 2.600 . S
Eu924 N959 2.562 . S
Eu924 O968 2.462 . S
Eu924 O969 2.373 . S
Eu924 O971 2.432 . S
Eu924 O972 2.291 . S
Eu924 O976 2.335 . S
Eu924 O979 2.406 . S
Eu924 C988 2.787 . S
C925 N926 1.365 . S
C925 C928 1.405 . S
C925 C932 1.448 1_565 S
N926 C925 1.365 . S
N926 C929 1.319 . S
N926 Eu935 2.600 . S
C927 C929 1.397 . S
C927 C930 1.367 . S
C927 H947 0.931 . S
C928 C925 1.405 . S
C928 C930 1.403 . S
C928 C934 1.439 1_565 S
C929 N926 1.319 . S
C929 C927 1.397 . S
C929 H940 0.930 . S
C930 C927 1.367 . S
C930 C928 1.403 . S
C930 H951 0.929 . S
C931 C932 1.430 . S
C931 C933 1.387 . S
C931 C937 1.404 . S
C932 C925 1.448 1_545 S
C932 C931 1.430 . S
C932 N936 1.351 . S
C933 C931 1.387 . S
C933 C934 1.374 . S
C933 H948 0.931 . S
C934 C928 1.439 1_545 S
C934 C933 1.374 . S
C934 H949 0.931 . S
Eu935 N926 2.600 . S
Eu935 N936 2.562 1_565 S
Eu935 O970 2.335 . S
Eu935 O973 2.372 . S
Eu935 O974 2.462 1_565 S
Eu935 O975 2.373 . S
Eu935 O977 2.432 . S
Eu935 O978 2.291 1_565 S
Eu935 C999 2.787 1_565 S
N936 C932 1.351 . S
N936 Eu935 2.562 1_545 S
N936 C938 1.325 . S
C937 C931 1.404 . S
C937 C939 1.366 . S
C937 H945 0.930 . S
C938 N936 1.325 . S
C938 C939 1.416 . S
C938 H944 0.929 . S
C939 C937 1.366 . S
C939 C938 1.416 . S
C939 H941 0.930 . S
H940 C929 0.930 . S
H941 C939 0.930 . S
H942 C957 0.930 . S
H943 C964 0.930 . S
H944 C938 0.929 . S
H945 C937 0.930 . S
H946 C960 0.929 . S
H947 C927 0.931 . S
H948 C933 0.931 . S
H949 C934 0.931 . S
H950 C955 0.931 1_545 S
H951 C930 0.929 . S
H952 C963 0.930 . S
N953 Eu924 2.600 . S
N953 C954 1.365 . S
N953 C957 1.319 . S
C954 N953 1.365 . S
C954 C956 1.405 . S
C954 C962 1.448 . S
C955 H950 0.931 1_565 S
C955 C957 1.397 . S
C955 C958 1.367 . S
C956 C954 1.405 . S
C956 C958 1.403 . S
C956 C989 1.439 . S
C957 H942 0.930 . S
C957 N953 1.319 . S
C957 C955 1.397 . S
C958 C955 1.367 . S
C958 C956 1.403 . S
C958 H965 0.929 . S
N959 Eu924 2.562 . S
N959 C960 1.325 . S
N959 C962 1.351 . S
C960 H946 0.929 . S
C960 N959 1.325 . S
C960 C964 1.416 . S
C961 C962 1.430 . S
C961 C963 1.404 . S
C961 C990 1.387 . S
C962 C954 1.448 . S
C962 N959 1.351 . S
C962 C961 1.430 . S
C963 H952 0.930 . S
C963 C961 1.404 . S
C963 C964 1.366 . S
C964 H943 0.930 . S
C964 C960 1.416 . S
C964 C963 1.366 . S
H965 C958 0.929 . S
H966 C989 0.931 . S
H967 C990 0.931 . S
O968 Eu924 2.462 . S
O968 C988 1.252 . S
O969 Eu924 2.373 . S
O969 C980 1.249 . S
O970 Eu935 2.335 . S
O970 C980 1.264 . S
O971 Eu924 2.432 . S
O971 C988 1.268 . S
O972 Eu924 2.291 . S
O972 C987 1.255 . S
O973 Eu935 2.372 . S
O973 C987 1.257 . S
O974 Eu935 2.462 1_545 S
O974 C999 1.252 . S
O975 Eu935 2.373 . S
O975 C991 1.249 . S
O976 Eu924 2.335 . S
O976 C991 1.264 . S
O977 Eu935 2.432 . S
O977 C999 1.268 1_565 S
O978 Eu935 2.291 1_545 S
O978 C998 1.255 . S
O979 Eu924 2.406 . S
O979 C998 1.238 1_565 S
C980 O969 1.249 . S
C980 O970 1.264 . S
C981 C984 1.382 . S
C981 C986 1.390 . S
C981 C988 1.506 . S
C982 C983 1.398 . S
C982 C986 1.392 . S
C983 C982 1.398 . S
C983 C985 1.372 . S
C983 H1000 0.931 . S
C984 C981 1.382 . S
C984 C985 1.390 . S
C984 H1001 0.931 . S
C985 C983 1.372 . S
C985 C984 1.390 . S
C985 H1002 0.929 . S
C986 C981 1.390 . S
C986 C982 1.392 . S
C986 H1003 0.930 . S
C987 O972 1.255 . S
C987 O973 1.257 . S
C988 Eu924 2.787 . S
C988 O968 1.252 . S
C988 O971 1.268 . S
C988 C981 1.506 . S
C989 C956 1.439 . S
C989 H966 0.931 . S
C989 C990 1.374 . S
C990 C961 1.387 . S
C990 H967 0.931 . S
C990 C989 1.374 . S
C991 O975 1.249 . S
C991 O976 1.264 . S
C992 C995 1.382 . S
C992 C996 1.390 . S
C992 C999 1.506 . S
C993 C994 1.398 . S
C993 C996 1.392 . S
C994 C993 1.398 . S
C994 C997 1.372 . S
C994 H1004 0.931 . S
C995 C992 1.382 . S
C995 C997 1.390 . S
C995 H1005 0.931 1_545 S
C996 C992 1.390 . S
C996 C993 1.392 . S
C996 H1006 0.930 . S
C997 C994 1.372 . S
C997 C995 1.390 . S
C997 H1007 0.929 . S
C998 O978 1.255 . S
C998 O979 1.238 1_545 S
C999 Eu935 2.787 1_545 S
C999 O974 1.252 . S
C999 O977 1.268 1_545 S
C999 C992 1.506 . S
H1000 C983 0.931 . S
H1001 C984 0.931 . S
H1002 C985 0.929 . S
H1003 C986 0.930 . S
H1004 C994 0.931 . S
H1005 C995 0.931 1_565 S
H1006 C996 0.930 . S
H1007 C997 0.929 . S
Eu1008 N1037 2.600 . S
Eu1008 N1043 2.562 . S
Eu1008 O1052 2.462 . S
Eu1008 O1053 2.373 . S
Eu1008 O1055 2.432 . S
Eu1008 O1056 2.291 . S
Eu1008 O1060 2.335 . S
Eu1008 O1063 2.372 . S
Eu1008 C1072 2.787 . S
C1009 N1010 1.365 . S
C1009 C1012 1.405 . S
C1009 C1016 1.448 . S
N1010 C1009 1.365 . S
N1010 C1013 1.319 . S
N1010 Eu1019 2.600 . S
C1011 C1013 1.397 . S
C1011 C1014 1.367 . S
C1011 H1031 0.931 . S
C1012 C1009 1.405 . S
C1012 C1014 1.403 . S
C1012 C1018 1.439 . S
C1013 N1010 1.319 . S
C1013 C1011 1.397 . S
C1013 H1024 0.930 . S
C1014 C1011 1.367 . S
C1014 C1012 1.403 . S
C1014 H1035 0.929 . S
C1015 C1016 1.430 . S
C1015 C1017 1.387 . S
C1015 C1021 1.404 . S
C1016 C1009 1.448 . S
C1016 C1015 1.430 . S
C1016 N1020 1.351 . S
C1017 C1015 1.387 . S
C1017 C1018 1.374 . S
C1017 H1032 0.931 . S
C1018 C1012 1.439 . S
C1018 C1017 1.374 . S
C1018 H1033 0.931 . S
Eu1019 N1010 2.600 . S
Eu1019 N1020 2.562 . S
Eu1019 O1054 2.335 . S
Eu1019 O1057 2.372 . S
Eu1019 O1058 2.462 . S
Eu1019 O1059 2.373 . S
Eu1019 O1061 2.432 . S
Eu1019 O1062 2.291 . S
Eu1019 C1083 2.787 . S
N1020 C1016 1.351 . S
N1020 Eu1019 2.562 . S
N1020 C1022 1.325 . S
C1021 C1015 1.404 . S
C1021 C1023 1.366 . S
C1021 H1029 0.930 . S
C1022 N1020 1.325 . S
C1022 C1023 1.416 . S
C1022 H1028 0.929 . S
C1023 C1021 1.366 . S
C1023 C1022 1.416 . S
C1023 H1025 0.930 . S
H1024 C1013 0.930 . S
H1025 C1023 0.930 . S
H1026 C1041 0.930 . S
H1027 C1048 0.930 . S
H1028 C1022 0.929 . S
H1029 C1021 0.930 . S
H1030 C1044 0.929 . S
H1031 C1011 0.931 . S
H1032 C1017 0.931 . S
H1033 C1018 0.931 . S
H1034 C1039 0.931 . S
H1035 C1014 0.929 . S
H1036 C1047 0.930 . S
N1037 Eu1008 2.600 . S
N1037 C1038 1.365 . S
N1037 C1041 1.319 . S
C1038 N1037 1.365 . S
C1038 C1040 1.405 . S
C1038 C1046 1.448 . S
C1039 H1034 0.931 . S
C1039 C1041 1.397 . S
C1039 C1042 1.367 . S
C1040 C1038 1.405 . S
C1040 C1042 1.403 . S
C1040 C1073 1.439 . S
C1041 H1026 0.930 . S
C1041 N1037 1.319 . S
C1041 C1039 1.397 . S
C1042 C1039 1.367 . S
C1042 C1040 1.403 . S
C1042 H1049 0.929 . S
N1043 Eu1008 2.562 . S
N1043 C1044 1.325 . S
N1043 C1046 1.351 . S
C1044 H1030 0.929 . S
C1044 N1043 1.325 . S
C1044 C1048 1.416 . S
C1045 C1046 1.430 . S
C1045 C1047 1.404 . S
C1045 C1074 1.387 . S
C1046 C1038 1.448 . S
C1046 N1043 1.351 . S
C1046 C1045 1.430 . S
C1047 H1036 0.930 . S
C1047 C1045 1.404 . S
C1047 C1048 1.366 . S
C1048 H1027 0.930 . S
C1048 C1044 1.416 . S
C1048 C1047 1.366 . S
H1049 C1042 0.929 . S
H1050 C1073 0.931 . S
H1051 C1074 0.931 . S
O1052 Eu1008 2.462 . S
O1052 C1072 1.252 . S
O1053 Eu1008 2.373 . S
O1053 C1064 1.249 . S
O1054 Eu1019 2.335 . S
O1054 C1064 1.264 . S
O1055 Eu1008 2.432 . S
O1055 C1072 1.268 . S
O1056 Eu1008 2.291 . S
O1056 C1071 1.255 . S
O1057 Eu1019 2.372 . S
O1057 C1071 1.257 . S
O1058 Eu1019 2.462 . S
O1058 C1083 1.252 . S
O1059 Eu1019 2.373 . S
O1059 C1075 1.249 . S
O1060 Eu1008 2.335 . S
O1060 C1075 1.264 . S
O1061 Eu1019 2.432 . S
O1061 C1083 1.268 . S
O1062 Eu1019 2.291 . S
O1062 C1082 1.255 . S
O1063 Eu1008 2.372 . S
O1063 C1082 1.257 . S
C1064 O1053 1.249 . S
C1064 O1054 1.264 . S
C1065 C1068 1.382 . S
C1065 C1070 1.390 . S
C1065 C1072 1.506 . S
C1066 C1067 1.398 . S
C1066 C1070 1.392 . S
C1067 C1066 1.398 . S
C1067 C1069 1.372 . S
C1067 H1084 0.931 . S
C1068 C1065 1.382 . S
C1068 C1069 1.390 . S
C1068 H1085 0.931 . S
C1069 C1067 1.372 . S
C1069 C1068 1.390 . S
C1069 H1086 0.929 . S
C1070 C1065 1.390 . S
C1070 C1066 1.392 . S
C1070 H1087 0.930 . S
C1071 O1056 1.255 . S
C1071 O1057 1.257 . S
C1072 Eu1008 2.787 . S
C1072 O1052 1.252 . S
C1072 O1055 1.268 . S
C1072 C1065 1.506 . S
C1073 C1040 1.439 . S
C1073 H1050 0.931 . S
C1073 C1074 1.374 . S
C1074 C1045 1.387 . S
C1074 H1051 0.931 . S
C1074 C1073 1.374 . S
C1075 O1059 1.249 . S
C1075 O1060 1.264 . S
C1076 C1079 1.382 . S
C1076 C1080 1.390 . S
C1076 C1083 1.506 . S
C1077 C1078 1.398 . S
C1077 C1080 1.392 . S
C1078 C1077 1.398 . S
C1078 C1081 1.372 . S
C1078 H1088 0.931 . S
C1079 C1076 1.382 . S
C1079 C1081 1.390 . S
C1079 H1089 0.931 . S
C1080 C1076 1.390 . S
C1080 C1077 1.392 . S
C1080 H1090 0.930 . S
C1081 C1078 1.372 . S
C1081 C1079 1.390 . S
C1081 H1091 0.929 . S
C1082 O1062 1.255 . S
C1082 O1063 1.257 . S
C1083 Eu1019 2.787 . S
C1083 O1058 1.252 . S
C1083 O1061 1.268 . S
C1083 C1076 1.506 . S
H1084 C1067 0.931 . S
H1085 C1068 0.931 . S
H1086 C1069 0.929 . S
H1087 C1070 0.930 . S
H1088 C1078 0.931 . S
H1089 C1079 0.931 . S
H1090 C1080 0.930 . S
H1091 C1081 0.929 . S
Eu1092 N1121 2.600 1_655 S
Eu1092 N1127 2.562 1_565 S
Eu1092 O1136 2.462 1_565 S
Eu1092 O1137 2.373 . S
Eu1092 O1139 2.418 1_655 S
Eu1092 O1140 2.291 1_565 S
Eu1092 O1144 2.335 . S
Eu1092 O1147 2.372 . S
Eu1092 C1156 2.787 1_565 S
C1093 N1094 1.365 . S
C1093 C1096 1.405 . S
C1093 C1100 1.448 . S
N1094 C1093 1.365 . S
N1094 C1097 1.319 . S
N1094 Eu1103 2.600 . S
C1095 C1097 1.397 . S
C1095 C1098 1.367 . S
C1095 H1115 0.931 1_565 S
C1096 C1093 1.405 . S
C1096 C1098 1.403 . S
C1096 C1102 1.439 . S
C1097 N1094 1.319 . S
C1097 C1095 1.397 . S
C1097 H1108 0.930 . S
C1098 C1095 1.367 . S
C1098 C1096 1.403 . S
C1098 H1119 0.929 . S
C1099 C1100 1.430 . S
C1099 C1101 1.387 . S
C1099 C1105 1.404 . S
C1100 C1093 1.448 . S
C1100 C1099 1.430 . S
C1100 N1104 1.351 . S
C1101 C1099 1.387 . S
C1101 C1102 1.374 . S
C1101 H1116 0.931 . S
C1102 C1096 1.439 . S
C1102 C1101 1.374 . S
C1102 H1117 0.931 . S
Eu1103 N1094 2.600 . S
Eu1103 N1104 2.562 . S
Eu1103 O1138 2.335 . S
Eu1103 O1141 2.406 . S
Eu1103 O1142 2.462 . S
Eu1103 O1143 2.373 . S
Eu1103 O1145 2.432 . S
Eu1103 O1146 2.291 . S
Eu1103 C1167 2.787 . S
N1104 C1100 1.351 . S
N1104 Eu1103 2.562 . S
N1104 C1106 1.325 . S
C1105 C1099 1.404 . S
C1105 C1107 1.366 . S
C1105 H1113 0.930 . S
C1106 N1104 1.325 . S
C1106 C1107 1.416 . S
C1106 H1112 0.929 . S
C1107 C1105 1.366 . S
C1107 C1106 1.416 . S
C1107 H1109 0.930 . S
H1108 C1097 0.930 . S
H1109 C1107 0.930 . S
H1110 C1125 0.930 . S
H1111 C1132 0.930 . S
H1112 C1106 0.929 . S
H1113 C1105 0.930 . S
H1114 C1128 0.929 . S
H1115 C1095 0.931 1_545 S
H1116 C1101 0.931 . S
H1117 C1102 0.931 . S
H1118 C1123 0.931 . S
H1119 C1098 0.929 . S
H1120 C1131 0.930 . S
N1121 Eu1092 2.600 1_455 S
N1121 C1122 1.365 . S
N1121 C1125 1.319 . S
C1122 N1121 1.365 . S
C1122 C1124 1.405 . S
C1122 C1130 1.448 1_465 S
C1123 H1118 0.931 . S
C1123 C1125 1.397 . S
C1123 C1126 1.367 . S
C1124 C1122 1.405 . S
C1124 C1126 1.403 . S
C1124 C1157 1.439 1_565 S
C1125 H1110 0.930 . S
C1125 N1121 1.319 . S
C1125 C1123 1.397 . S
C1126 C1123 1.367 . S
C1126 C1124 1.403 . S
C1126 H1133 0.929 . S
N1127 Eu1092 2.562 1_545 S
N1127 C1128 1.325 . S
N1127 C1130 1.351 . S
C1128 H1114 0.929 . S
C1128 N1127 1.325 . S
C1128 C1132 1.416 . S
C1129 C1130 1.430 1_455 S
C1129 C1131 1.404 1_455 S
C1129 C1158 1.387 . S
C1130 C1122 1.448 1_645 S
C1130 N1127 1.351 . S
C1130 C1129 1.430 1_655 S
C1131 H1120 0.930 . S
C1131 C1129 1.404 1_655 S
C1131 C1132 1.366 . S
C1132 H1111 0.930 . S
C1132 C1128 1.416 . S
C1132 C1131 1.366 . S
H1133 C1126 0.929 . S
H1134 C1157 0.931 . S
H1135 C1158 0.931 . S
O1136 Eu1092 2.462 1_545 S
O1136 C1156 1.252 . S
O1137 Eu1092 2.373 . S
O1137 C1148 1.249 . S
O1138 Eu1103 2.335 . S
O1138 C1148 1.264 . S
O1139 Eu1092 2.418 1_455 S
O1139 C1156 1.265 1_465 S
O1140 Eu1092 2.291 1_545 S
O1140 C1155 1.255 . S
O1141 Eu1103 2.406 . S
O1141 C1155 1.238 1_565 S
O1142 Eu1103 2.462 . S
O1142 C1167 1.252 . S
O1143 Eu1103 2.373 . S
O1143 C1159 1.249 . S
O1144 Eu1092 2.335 . S
O1144 C1159 1.264 . S
O1145 Eu1103 2.432 . S
O1145 C1167 1.268 . S
O1146 Eu1103 2.291 . S
O1146 C1166 1.255 . S
O1147 Eu1092 2.372 . S
O1147 C1166 1.257 . S
C1148 O1137 1.249 . S
C1148 O1138 1.264 . S
C1149 C1152 1.382 . S
C1149 C1154 1.390 . S
C1149 C1156 1.506 1_455 S
C1150 C1151 1.398 . S
C1150 C1154 1.392 . S
C1151 C1150 1.398 . S
C1151 C1153 1.372 . S
C1151 H1168 0.931 . S
C1152 C1149 1.382 . S
C1152 C1153 1.390 . S
C1152 H1169 0.931 1_545 S
C1153 C1151 1.372 . S
C1153 C1152 1.390 . S
C1153 H1170 0.929 . S
C1154 C1149 1.390 . S
C1154 C1150 1.392 . S
C1154 H1171 0.930 1_455 S
C1155 O1140 1.255 . S
C1155 O1141 1.238 1_545 S
C1156 Eu1092 2.787 1_545 S
C1156 O1136 1.252 . S
C1156 O1139 1.265 1_645 S
C1156 C1149 1.506 1_655 S
C1157 C1124 1.439 1_545 S
C1157 H1134 0.931 . S
C1157 C1158 1.374 . S
C1158 C1129 1.387 . S
C1158 H1135 0.931 . S
C1158 C1157 1.374 . S
C1159 O1143 1.249 . S
C1159 O1144 1.264 . S
C1160 C1163 1.382 . S
C1160 C1164 1.390 . S
C1160 C1167 1.506 . S
C1161 C1162 1.398 . S
C1161 C1164 1.392 . S
C1162 C1161 1.398 . S
C1162 C1165 1.372 . S
C1162 H1172 0.931 . S
C1163 C1160 1.382 . S
C1163 C1165 1.390 . S
C1163 H1173 0.931 . S
C1164 C1160 1.390 . S
C1164 C1161 1.392 . S
C1164 H1174 0.930 . S
C1165 C1162 1.372 . S
C1165 C1163 1.390 . S
C1165 H1175 0.929 . S
C1166 O1146 1.255 . S
C1166 O1147 1.257 . S
C1167 Eu1103 2.787 . S
C1167 O1142 1.252 . S
C1167 O1145 1.268 . S
C1167 C1160 1.506 . S
H1168 C1151 0.931 . S
H1169 C1152 0.931 1_565 S
H1170 C1153 0.929 . S
H1171 C1154 0.930 1_655 S
H1172 C1162 0.931 . S
H1173 C1163 0.931 . S
H1174 C1164 0.930 . S
H1175 C1165 0.929 . S
Eu1176 N1205 2.600 . S
Eu1176 N1211 2.562 . S
Eu1176 O1220 2.462 . S
Eu1176 O1221 2.373 . S
Eu1176 O1223 2.432 . S
Eu1176 O1224 2.291 . S
Eu1176 O1228 2.335 . S
Eu1176 O1231 2.372 . S
Eu1176 C1240 2.787 . S
C1177 N1178 1.365 . S
C1177 C1180 1.405 . S
C1177 C1184 1.448 . S
N1178 C1177 1.365 . S
N1178 C1181 1.319 . S
N1178 Eu1187 2.600 . S
C1179 C1181 1.397 . S
C1179 C1182 1.367 . S
C1179 H1199 0.931 . S
C1180 C1177 1.405 . S
C1180 C1182 1.403 . S
C1180 C1186 1.439 . S
C1181 N1178 1.319 . S
C1181 C1179 1.397 . S
C1181 H1192 0.930 . S
C1182 C1179 1.367 . S
C1182 C1180 1.403 . S
C1182 H1203 0.929 . S
C1183 C1184 1.430 . S
C1183 C1185 1.387 . S
C1183 C1189 1.404 . S
C1184 C1177 1.448 . S
C1184 C1183 1.430 . S
C1184 N1188 1.351 . S
C1185 C1183 1.387 . S
C1185 C1186 1.374 . S
C1185 H1200 0.931 . S
C1186 C1180 1.439 . S
C1186 C1185 1.374 . S
C1186 H1201 0.931 . S
Eu1187 N1178 2.600 . S
Eu1187 N1188 2.562 . S
Eu1187 O1222 2.335 . S
Eu1187 O1225 2.372 . S
Eu1187 O1226 2.462 . S
Eu1187 O1227 2.373 . S
Eu1187 O1229 2.432 . S
Eu1187 O1230 2.291 . S
Eu1187 C1251 2.787 . S
N1188 C1184 1.351 . S
N1188 Eu1187 2.562 . S
N1188 C1190 1.325 . S
C1189 C1183 1.404 . S
C1189 C1191 1.366 . S
C1189 H1197 0.930 . S
C1190 N1188 1.325 . S
C1190 C1191 1.416 . S
C1190 H1196 0.929 . S
C1191 C1189 1.366 . S
C1191 C1190 1.416 . S
C1191 H1193 0.930 . S
H1192 C1181 0.930 . S
H1193 C1191 0.930 . S
H1194 C1209 0.930 . S
H1195 C1216 0.930 . S
H1196 C1190 0.929 . S
H1197 C1189 0.930 . S
H1198 C1212 0.929 . S
H1199 C1179 0.931 . S
H1200 C1185 0.931 . S
H1201 C1186 0.931 . S
H1202 C1207 0.931 . S
H1203 C1182 0.929 . S
H1204 C1215 0.930 . S
N1205 Eu1176 2.600 . S
N1205 C1206 1.365 . S
N1205 C1209 1.319 . S
C1206 N1205 1.365 . S
C1206 C1208 1.405 . S
C1206 C1214 1.448 . S
C1207 H1202 0.931 . S
C1207 C1209 1.397 . S
C1207 C1210 1.367 . S
C1208 C1206 1.405 . S
C1208 C1210 1.403 . S
C1208 C1241 1.439 . S
C1209 H1194 0.930 . S
C1209 N1205 1.319 . S
C1209 C1207 1.397 . S
C1210 C1207 1.367 . S
C1210 C1208 1.403 . S
C1210 H1217 0.929 . S
N1211 Eu1176 2.562 . S
N1211 C1212 1.325 . S
N1211 C1214 1.351 . S
C1212 H1198 0.929 . S
C1212 N1211 1.325 . S
C1212 C1216 1.416 . S
C1213 C1214 1.430 . S
C1213 C1215 1.404 . S
C1213 C1242 1.387 . S
C1214 C1206 1.448 . S
C1214 N1211 1.351 . S
C1214 C1213 1.430 . S
C1215 H1204 0.930 . S
C1215 C1213 1.404 . S
C1215 C1216 1.366 . S
C1216 H1195 0.930 . S
C1216 C1212 1.416 . S
C1216 C1215 1.366 . S
H1217 C1210 0.929 . S
H1218 C1241 0.931 . S
H1219 C1242 0.931 . S
O1220 Eu1176 2.462 . S
O1220 C1240 1.252 . S
O1221 Eu1176 2.373 . S
O1221 C1232 1.249 . S
O1222 Eu1187 2.335 . S
O1222 C1232 1.264 . S
O1223 Eu1176 2.432 . S
O1223 C1240 1.268 . S
O1224 Eu1176 2.291 . S
O1224 C1239 1.255 . S
O1225 Eu1187 2.372 . S
O1225 C1239 1.257 . S
O1226 Eu1187 2.462 . S
O1226 C1251 1.252 . S
O1227 Eu1187 2.373 . S
O1227 C1243 1.249 . S
O1228 Eu1176 2.335 . S
O1228 C1243 1.264 . S
O1229 Eu1187 2.432 . S
O1229 C1251 1.268 . S
O1230 Eu1187 2.291 . S
O1230 C1250 1.255 . S
O1231 Eu1176 2.372 . S
O1231 C1250 1.257 . S
C1232 O1221 1.249 . S
C1232 O1222 1.264 . S
C1233 C1236 1.382 . S
C1233 C1238 1.390 . S
C1233 C1240 1.506 . S
C1234 C1235 1.398 . S
C1234 C1238 1.392 . S
C1235 C1234 1.398 . S
C1235 C1237 1.372 . S
C1235 H1252 0.931 . S
C1236 C1233 1.382 . S
C1236 C1237 1.390 . S
C1236 H1253 0.931 . S
C1237 C1235 1.372 . S
C1237 C1236 1.390 . S
C1237 H1254 0.929 . S
C1238 C1233 1.390 . S
C1238 C1234 1.392 . S
C1238 H1255 0.930 . S
C1239 O1224 1.255 . S
C1239 O1225 1.257 . S
C1240 Eu1176 2.787 . S
C1240 O1220 1.252 . S
C1240 O1223 1.268 . S
C1240 C1233 1.506 . S
C1241 C1208 1.439 . S
C1241 H1218 0.931 . S
C1241 C1242 1.374 . S
C1242 C1213 1.387 . S
C1242 H1219 0.931 . S
C1242 C1241 1.374 . S
C1243 O1227 1.249 . S
C1243 O1228 1.264 . S
C1244 C1247 1.382 . S
C1244 C1248 1.390 . S
C1244 C1251 1.506 . S
C1245 C1246 1.398 . S
C1245 C1248 1.392 . S
C1246 C1245 1.398 . S
C1246 C1249 1.372 . S
C1246 H1256 0.913 1_556 S
C1247 C1244 1.382 . S
C1247 C1249 1.390 . S
C1247 H1257 0.931 . S
C1248 C1244 1.390 . S
C1248 C1245 1.392 . S
C1248 H1258 0.930 . S
C1249 C1246 1.372 . S
C1249 C1247 1.390 . S
C1249 H1259 0.929 . S
C1250 O1230 1.255 . S
C1250 O1231 1.257 . S
C1251 Eu1187 2.787 . S
C1251 O1226 1.252 . S
C1251 O1229 1.268 . S
C1251 C1244 1.506 . S
H1252 C1235 0.931 . S
H1253 C1236 0.931 . S
H1254 C1237 0.929 . S
H1255 C1238 0.930 . S
H1256 C1246 0.913 1_554 S
H1257 C1247 0.931 . S
H1258 C1248 0.930 . S
H1259 C1249 0.929 . S
Eu1260 N1289 2.600 . S
Eu1260 N1295 2.562 1_545 S
Eu1260 O1304 2.462 1_545 S
Eu1260 O1305 2.373 . S
Eu1260 O1307 2.432 . S
Eu1260 O1308 2.291 1_545 S
Eu1260 O1312 2.335 . S
Eu1260 O1315 2.372 . S
Eu1260 C1324 2.787 1_545 S
C1261 N1262 1.365 . S
C1261 C1264 1.405 . S
C1261 C1268 1.448 . S
N1262 C1261 1.365 . S
N1262 C1265 1.319 . S
N1262 Eu1271 2.600 . S
C1263 C1265 1.397 . S
C1263 C1266 1.367 . S
C1263 H1283 0.931 1_545 S
C1264 C1261 1.405 . S
C1264 C1266 1.403 . S
C1264 C1270 1.439 . S
C1265 N1262 1.319 . S
C1265 C1263 1.397 . S
C1265 H1276 0.930 . S
C1266 C1263 1.367 . S
C1266 C1264 1.403 . S
C1266 H1287 0.929 . S
C1267 C1268 1.430 . S
C1267 C1269 1.387 . S
C1267 C1273 1.404 . S
C1268 C1261 1.448 . S
C1268 C1267 1.430 . S
C1268 N1272 1.351 . S
C1269 C1267 1.387 . S
C1269 C1270 1.374 . S
C1269 H1284 0.931 . S
C1270 C1264 1.439 . S
C1270 C1269 1.374 . S
C1270 H1285 0.931 . S
Eu1271 N1262 2.600 . S
Eu1271 N1272 2.562 . S
Eu1271 O1306 2.335 . S
Eu1271 O1309 2.406 . S
Eu1271 O1310 2.462 . S
Eu1271 O1311 2.373 . S
Eu1271 O1313 2.432 . S
Eu1271 O1314 2.291 . S
Eu1271 C1335 2.787 . S
N1272 C1268 1.351 . S
N1272 Eu1271 2.562 . S
N1272 C1274 1.325 . S
C1273 C1267 1.404 . S
C1273 C1275 1.366 . S
C1273 H1281 0.930 . S
C1274 N1272 1.325 . S
C1274 C1275 1.416 . S
C1274 H1280 0.929 . S
C1275 C1273 1.366 . S
C1275 C1274 1.416 . S
C1275 H1277 0.930 . S
H1276 C1265 0.930 . S
H1277 C1275 0.930 . S
H1278 C1293 0.930 . S
H1279 C1300 0.930 . S
H1280 C1274 0.929 . S
H1281 C1273 0.930 . S
H1282 C1296 0.929 . S
H1283 C1263 0.931 1_565 S
H1284 C1269 0.931 . S
H1285 C1270 0.931 . S
H1286 C1291 0.931 . S
H1287 C1266 0.929 . S
H1288 C1299 0.930 . S
N1289 Eu1260 2.600 . S
N1289 C1290 1.365 . S
N1289 C1293 1.319 . S
C1290 N1289 1.365 . S
C1290 C1292 1.405 . S
C1290 C1298 1.448 1_545 S
C1291 H1286 0.931 . S
C1291 C1293 1.397 . S
C1291 C1294 1.367 . S
C1292 C1290 1.405 . S
C1292 C1294 1.403 . S
C1292 C1325 1.439 1_545 S
C1293 H1278 0.930 . S
C1293 N1289 1.319 . S
C1293 C1291 1.397 . S
C1294 C1291 1.367 . S
C1294 C1292 1.403 . S
C1294 H1301 0.929 . S
N1295 Eu1260 2.562 1_565 S
N1295 C1296 1.325 . S
N1295 C1298 1.351 . S
C1296 H1282 0.929 . S
C1296 N1295 1.325 . S
C1296 C1300 1.416 . S
C1297 C1298 1.430 . S
C1297 C1299 1.404 . S
C1297 C1326 1.387 . S
C1298 C1290 1.448 1_565 S
C1298 N1295 1.351 . S
C1298 C1297 1.430 . S
C1299 H1288 0.930 . S
C1299 C1297 1.404 . S
C1299 C1300 1.366 . S
C1300 H1279 0.930 . S
C1300 C1296 1.416 . S
C1300 C1299 1.366 . S
H1301 C1294 0.929 . S
H1302 C1325 0.931 . S
H1303 C1326 0.931 . S
O1304 Eu1260 2.462 1_565 S
O1304 C1324 1.252 . S
O1305 Eu1260 2.373 . S
O1305 C1316 1.249 . S
O1306 Eu1271 2.335 . S
O1306 C1316 1.264 . S
O1307 Eu1260 2.432 . S
O1307 C1324 1.268 1_545 S
O1308 Eu1260 2.291 1_565 S
O1308 C1323 1.255 . S
O1309 Eu1271 2.406 . S
O1309 C1323 1.238 1_545 S
O1310 Eu1271 2.462 . S
O1310 C1335 1.252 . S
O1311 Eu1271 2.373 . S
O1311 C1327 1.249 . S
O1312 Eu1260 2.335 . S
O1312 C1327 1.264 . S
O1313 Eu1271 2.432 . S
O1313 C1335 1.268 . S
O1314 Eu1271 2.291 . S
O1314 C1334 1.255 . S
O1315 Eu1260 2.372 . S
O1315 C1334 1.257 . S
C1316 O1305 1.249 . S
C1316 O1306 1.264 . S
C1317 C1320 1.382 . S
C1317 C1322 1.390 . S
C1317 C1324 1.506 . S
C1318 C1319 1.398 . S
C1318 C1322 1.392 . S
C1319 C1318 1.398 . S
C1319 C1321 1.372 . S
C1319 H1336 0.931 . S
C1320 C1317 1.382 . S
C1320 C1321 1.390 . S
C1320 H1337 0.931 1_565 S
C1321 C1319 1.372 . S
C1321 C1320 1.390 . S
C1321 H1338 0.929 . S
C1322 C1317 1.390 . S
C1322 C1318 1.392 . S
C1322 H1339 0.930 . S
C1323 O1308 1.255 . S
C1323 O1309 1.238 1_565 S
C1324 Eu1260 2.787 1_565 S
C1324 O1304 1.252 . S
C1324 O1307 1.268 1_565 S
C1324 C1317 1.506 . S
C1325 C1292 1.439 1_565 S
C1325 H1302 0.931 . S
C1325 C1326 1.374 . S
C1326 C1297 1.387 . S
C1326 H1303 0.931 . S
C1326 C1325 1.374 . S
C1327 O1311 1.249 . S
C1327 O1312 1.264 . S
C1328 C1331 1.382 . S
C1328 C1332 1.390 . S
C1328 C1335 1.506 . S
C1329 C1330 1.398 . S
C1329 C1332 1.392 . S
C1330 C1329 1.398 . S
C1330 C1333 1.372 . S
C1330 H1340 0.931 . S
C1331 C1328 1.382 . S
C1331 C1333 1.390 . S
C1331 H1341 0.931 . S
C1332 C1328 1.390 . S
C1332 C1329 1.392 . S
C1332 H1342 0.930 . S
C1333 C1330 1.372 . S
C1333 C1331 1.390 . S
C1333 H1343 0.929 . S
C1334 O1314 1.255 . S
C1334 O1315 1.257 . S
C1335 Eu1271 2.787 . S
C1335 O1310 1.252 . S
C1335 O1313 1.268 . S
C1335 C1328 1.506 . S
H1336 C1319 0.931 . S
H1337 C1320 0.931 1_545 S
H1338 C1321 0.929 . S
H1339 C1322 0.930 . S
H1340 C1330 0.931 . S
H1341 C1331 0.931 . S
H1342 C1332 0.930 . S
H1343 C1333 0.929 . S
C1344 C1345 1.391 . S
C1344 C1346 1.394 . S
C1344 H1360 0.931 . S
C1345 C1344 1.391 . S
C1345 C1349 1.376 . S
C1346 C1344 1.394 . S
C1346 C1347 1.369 . S
C1346 C1350 1.531 . S
C1347 C1346 1.369 . S
C1347 C1348 1.410 . S
C1347 C1355 1.503 . S
C1348 C1347 1.410 . S
C1348 C1349 1.392 . S
C1348 C1351 1.511 . S
C1349 C1345 1.376 . S
C1349 C1348 1.392 . S
C1349 H1361 0.929 . S
C1350 C1346 1.531 . S
C1350 H1362 0.960 . S
C1350 H1363 0.962 . S
C1350 H1364 0.960 . S
C1351 C1348 1.511 . S
C1351 H1365 0.961 . S
C1351 H1366 0.961 . S
C1351 H1367 0.961 . S
C1352 C1353 1.370 . S
C1352 C1354 1.363 . S
C1352 H1368 0.931 . S
C1353 C1352 1.370 . S
C1353 C1357 1.408 . S
C1354 C1352 1.363 . S
C1354 C1355 1.370 . S
C1354 C1358 1.524 . S
C1355 C1347 1.503 . S
C1355 C1354 1.370 . S
C1355 C1356 1.403 . S
C1356 C1355 1.403 . S
C1356 C1357 1.404 . S
C1356 C1359 1.539 . S
C1357 C1353 1.408 . S
C1357 C1356 1.404 . S
C1357 H1369 0.930 . S
C1358 C1354 1.524 . S
C1358 H1370 0.956 . S
C1358 H1371 0.961 . S
C1358 H1372 0.961 . S
C1359 C1356 1.539 . S
C1359 H1373 0.958 . S
C1359 H1374 0.961 . S
C1359 H1375 0.960 . S
H1360 C1344 0.931 . S
H1361 C1349 0.929 . S
H1362 C1350 0.960 . S
H1363 C1350 0.962 . S
H1364 C1350 0.960 . S
H1365 C1351 0.961 . S
H1366 C1351 0.961 . S
H1367 C1351 0.961 . S
H1368 C1352 0.931 . S
H1369 C1357 0.930 . S
H1370 C1358 0.956 . S
H1371 C1358 0.961 . S
H1372 C1358 0.961 . S
H1373 C1359 0.958 . S
H1374 C1359 0.961 . S
H1375 C1359 0.960 . S
C1376 C1377 1.391 . S
C1376 C1378 1.394 . S
C1376 H1392 0.931 . S
C1377 C1376 1.391 . S
C1377 C1381 1.376 . S
C1378 C1376 1.394 . S
C1378 C1379 1.369 . S
C1378 C1382 1.531 . S
C1379 C1378 1.369 . S
C1379 C1380 1.410 . S
C1379 C1387 1.503 . S
C1380 C1379 1.410 . S
C1380 C1381 1.392 . S
C1380 C1383 1.511 . S
C1381 C1377 1.376 . S
C1381 C1380 1.392 . S
C1381 H1393 0.929 . S
C1382 C1378 1.531 . S
C1382 H1394 0.960 . S
C1382 H1395 0.962 . S
C1382 H1396 0.960 . S
C1383 C1380 1.511 . S
C1383 H1397 0.961 . S
C1383 H1398 0.961 . S
C1383 H1399 0.961 . S
C1384 C1385 1.370 . S
C1384 C1386 1.363 . S
C1384 H1400 0.931 . S
C1385 C1384 1.370 . S
C1385 C1389 1.408 . S
C1386 C1384 1.363 . S
C1386 C1387 1.370 . S
C1386 C1390 1.524 . S
C1387 C1379 1.503 . S
C1387 C1386 1.370 . S
C1387 C1388 1.403 . S
C1388 C1387 1.403 . S
C1388 C1389 1.404 . S
C1388 C1391 1.539 . S
C1389 C1385 1.408 . S
C1389 C1388 1.404 . S
C1389 H1401 0.930 . S
C1390 C1386 1.524 . S
C1390 H1402 0.956 . S
C1390 H1403 0.961 . S
C1390 H1404 0.961 . S
C1391 C1388 1.539 . S
C1391 H1405 0.958 . S
C1391 H1406 0.961 . S
C1391 H1407 0.960 . S
H1392 C1376 0.931 . S
H1393 C1381 0.929 . S
H1394 C1382 0.960 . S
H1395 C1382 0.962 . S
H1396 C1382 0.960 . S
H1397 C1383 0.961 . S
H1398 C1383 0.961 . S
H1399 C1383 0.961 . S
H1400 C1384 0.931 . S
H1401 C1389 0.930 . S
H1402 C1390 0.956 . S
H1403 C1390 0.961 . S
H1404 C1390 0.961 . S
H1405 C1391 0.958 . S
H1406 C1391 0.961 . S
H1407 C1391 0.960 . S
C1408 C1409 1.391 . S
C1408 C1410 1.394 . S
C1408 H1424 0.931 . S
C1409 C1408 1.391 . S
C1409 C1413 1.376 . S
C1410 C1408 1.394 . S
C1410 C1411 1.369 . S
C1410 C1414 1.531 1_455 S
C1411 C1410 1.369 . S
C1411 C1412 1.410 . S
C1411 C1419 1.503 1_455 S
C1412 C1411 1.410 . S
C1412 C1413 1.392 . S
C1412 C1415 1.511 . S
C1413 C1409 1.376 . S
C1413 C1412 1.392 . S
C1413 H1425 0.929 . S
C1414 C1410 1.531 1_655 S
C1414 H1426 0.960 . S
C1414 H1427 0.962 . S
C1414 H1428 0.960 . S
C1415 C1412 1.511 . S
C1415 H1429 0.961 . S
C1415 H1430 0.961 . S
C1415 H1431 0.961 . S
C1416 C1417 1.370 . S
C1416 C1418 1.363 . S
C1416 H1432 0.931 . S
C1417 C1416 1.370 . S
C1417 C1421 1.408 . S
C1418 C1416 1.363 . S
C1418 C1419 1.370 . S
C1418 C1422 1.524 . S
C1419 C1411 1.503 1_655 S
C1419 C1418 1.370 . S
C1419 C1420 1.403 . S
C1420 C1419 1.403 . S
C1420 C1421 1.404 . S
C1420 C1423 1.539 . S
C1421 C1417 1.408 . S
C1421 C1420 1.404 . S
C1421 H1433 0.930 . S
C1422 C1418 1.524 . S
C1422 H1434 0.956 . S
C1422 H1435 0.961 . S
C1422 H1436 0.961 . S
C1423 C1420 1.539 . S
C1423 H1437 0.958 . S
C1423 H1438 0.961 . S
C1423 H1439 0.960 1_655 S
H1424 C1408 0.931 . S
H1425 C1413 0.929 . S
H1426 C1414 0.960 . S
H1427 C1414 0.962 . S
H1428 C1414 0.960 . S
H1429 C1415 0.961 . S
H1430 C1415 0.961 . S
H1431 C1415 0.961 . S
H1432 C1416 0.931 . S
H1433 C1421 0.930 . S
H1434 C1422 0.956 . S
H1435 C1422 0.961 . S
H1436 C1422 0.961 . S
H1437 C1423 0.958 . S
H1438 C1423 0.961 . S
H1439 C1423 0.960 1_455 S
C1440 C1441 1.391 . S
C1440 C1442 1.394 . S
C1440 H1456 0.931 . S
C1441 C1440 1.391 . S
C1441 C1445 1.376 . S
C1442 C1440 1.394 . S
C1442 C1443 1.369 . S
C1442 C1446 1.531 . S
C1443 C1442 1.369 . S
C1443 C1444 1.410 . S
C1443 C1451 1.503 1_455 S
C1444 C1443 1.410 . S
C1444 C1445 1.392 . S
C1444 C1447 1.511 1_455 S
C1445 C1441 1.376 . S
C1445 C1444 1.392 . S
C1445 H1457 0.929 . S
C1446 C1442 1.531 . S
C1446 H1458 0.960 1_455 S
C1446 H1459 0.962 . S
C1446 H1460 0.960 . S
C1447 C1444 1.511 1_655 S
C1447 H1461 0.961 1_655 S
C1447 H1462 0.961 . S
C1447 H1463 0.961 . S
C1448 C1449 1.370 . S
C1448 C1450 1.363 1_655 S
C1448 H1464 0.931 1_655 S
C1449 C1448 1.370 . S
C1449 C1453 1.408 . S
C1450 C1448 1.363 1_455 S
C1450 C1451 1.370 1_455 S
C1450 C1454 1.524 . S
C1451 C1443 1.503 1_655 S
C1451 C1450 1.370 1_655 S
C1451 C1452 1.403 . S
C1452 C1451 1.403 . S
C1452 C1453 1.404 . S
C1452 C1455 1.539 . S
C1453 C1449 1.408 . S
C1453 C1452 1.404 . S
C1453 H1465 0.930 . S
C1454 C1450 1.524 . S
C1454 H1466 0.956 . S
C1454 H1467 0.961 . S
C1454 H1468 0.961 . S
C1455 C1452 1.539 . S
C1455 H1469 0.958 . S
C1455 H1470 0.961 . S
C1455 H1471 0.960 . S
H1456 C1440 0.931 . S
H1457 C1445 0.929 . S
H1458 C1446 0.960 1_655 S
H1459 C1446 0.962 . S
H1460 C1446 0.960 . S
H1461 C1447 0.961 1_455 S
H1462 C1447 0.961 . S
H1463 C1447 0.961 . S
H1464 C1448 0.931 1_455 S
H1465 C1453 0.930 . S
H1466 C1454 0.956 . S
H1467 C1454 0.961 . S
H1468 C1454 0.961 . S
H1469 C1455 0.958 . S
H1470 C1455 0.961 . S
H1471 C1455 0.960 . S
C1472 C1473 1.391 . S
C1472 C1474 1.394 . S
C1472 H1488 0.931 . S
C1473 C1472 1.391 . S
C1473 C1477 1.376 . S
C1474 C1472 1.394 . S
C1474 C1475 1.369 . S
C1474 C1478 1.531 . S
C1475 C1474 1.369 . S
C1475 C1476 1.410 . S
C1475 C1483 1.503 . S
C1476 C1475 1.410 . S
C1476 C1477 1.392 . S
C1476 C1479 1.511 . S
C1477 C1473 1.376 . S
C1477 C1476 1.392 . S
C1477 H1489 0.929 . S
C1478 C1474 1.531 . S
C1478 H1490 0.960 . S
C1478 H1491 0.962 . S
C1478 H1492 0.960 . S
C1479 C1476 1.511 . S
C1479 H1493 0.961 . S
C1479 H1494 0.961 . S
C1479 H1495 0.961 . S
C1480 C1481 1.370 . S
C1480 C1482 1.363 . S
C1480 H1496 0.931 . S
C1481 C1480 1.370 . S
C1481 C1485 1.408 . S
C1482 C1480 1.363 . S
C1482 C1483 1.370 . S
C1482 C1486 1.524 . S
C1483 C1475 1.503 . S
C1483 C1482 1.370 . S
C1483 C1484 1.403 . S
C1484 C1483 1.403 . S
C1484 C1485 1.404 . S
C1484 C1487 1.539 . S
C1485 C1481 1.408 . S
C1485 C1484 1.404 . S
C1485 H1497 0.930 . S
C1486 C1482 1.524 . S
C1486 H1498 0.956 . S
C1486 H1499 0.961 . S
C1486 H1500 0.961 . S
C1487 C1484 1.539 . S
C1487 H1501 0.958 . S
C1487 H1502 0.961 . S
C1487 H1503 0.960 . S
H1488 C1472 0.931 . S
H1489 C1477 0.929 . S
H1490 C1478 0.960 . S
H1491 C1478 0.962 . S
H1492 C1478 0.960 . S
H1493 C1479 0.961 . S
H1494 C1479 0.961 . S
H1495 C1479 0.961 . S
H1496 C1480 0.931 . S
H1497 C1485 0.930 . S
H1498 C1486 0.956 . S
H1499 C1486 0.961 . S
H1500 C1486 0.961 . S
H1501 C1487 0.958 . S
H1502 C1487 0.961 . S
H1503 C1487 0.960 . S
C1504 C1505 1.391 . S
C1504 C1506 1.394 . S
C1504 H1520 0.931 . S
C1505 C1504 1.391 . S
C1505 C1509 1.376 . S
C1506 C1504 1.394 . S
C1506 C1507 1.369 . S
C1506 C1510 1.531 . S
C1507 C1506 1.369 . S
C1507 C1508 1.410 . S
C1507 C1515 1.503 . S
C1508 C1507 1.410 . S
C1508 C1509 1.392 . S
C1508 C1511 1.511 . S
C1509 C1505 1.376 . S
C1509 C1508 1.392 . S
C1509 H1521 0.929 . S
C1510 C1506 1.531 . S
C1510 H1522 0.960 . S
C1510 H1523 0.962 . S
C1510 H1524 0.960 . S
C1511 C1508 1.511 . S
C1511 H1525 0.961 . S
C1511 H1526 0.961 . S
C1511 H1527 0.961 . S
C1512 C1513 1.370 . S
C1512 C1514 1.363 . S
C1512 H1528 0.931 . S
C1513 C1512 1.370 . S
C1513 C1517 1.408 . S
C1514 C1512 1.363 . S
C1514 C1515 1.370 . S
C1514 C1518 1.524 . S
C1515 C1507 1.503 . S
C1515 C1514 1.370 . S
C1515 C1516 1.403 . S
C1516 C1515 1.403 . S
C1516 C1517 1.404 . S
C1516 C1519 1.539 . S
C1517 C1513 1.408 . S
C1517 C1516 1.404 . S
C1517 H1529 0.930 . S
C1518 C1514 1.524 . S
C1518 H1530 0.956 . S
C1518 H1531 0.961 . S
C1518 H1532 0.961 . S
C1519 C1516 1.539 . S
C1519 H1533 0.958 . S
C1519 H1534 0.961 . S
C1519 H1535 0.960 . S
H1520 C1504 0.931 . S
H1521 C1509 0.929 . S
H1522 C1510 0.960 . S
H1523 C1510 0.962 . S
H1524 C1510 0.960 . S
H1525 C1511 0.961 . S
H1526 C1511 0.961 . S
H1527 C1511 0.961 . S
H1528 C1512 0.931 . S
H1529 C1517 0.930 . S
H1530 C1518 0.956 . S
H1531 C1518 0.961 . S
H1532 C1518 0.961 . S
H1533 C1519 0.958 . S
H1534 C1519 0.961 . S
H1535 C1519 0.960 . S
C1536 C1537 1.391 . S
C1536 C1538 1.394 . S
C1536 H1552 0.931 . S
C1537 C1536 1.391 . S
C1537 C1541 1.376 . S
C1538 C1536 1.394 . S
C1538 C1539 1.369 . S
C1538 C1542 1.531 . S
C1539 C1538 1.369 . S
C1539 C1540 1.410 . S
C1539 C1547 1.503 1_455 S
C1540 C1539 1.410 . S
C1540 C1541 1.392 . S
C1540 C1543 1.511 1_455 S
C1541 C1537 1.376 . S
C1541 C1540 1.392 . S
C1541 H1553 0.929 . S
C1542 C1538 1.531 . S
C1542 H1554 0.960 . S
C1542 H1555 0.962 . S
C1542 H1556 0.960 . S
C1543 C1540 1.511 1_655 S
C1543 H1557 0.961 . S
C1543 H1558 0.961 . S
C1543 H1559 0.961 . S
C1544 C1545 1.370 . S
C1544 C1546 1.363 . S
C1544 H1560 0.931 . S
C1545 C1544 1.370 . S
C1545 C1549 1.408 . S
C1546 C1544 1.363 . S
C1546 C1547 1.370 . S
C1546 C1550 1.524 . S
C1547 C1539 1.503 1_655 S
C1547 C1546 1.370 . S
C1547 C1548 1.403 . S
C1548 C1547 1.403 . S
C1548 C1549 1.404 . S
C1548 C1551 1.539 . S
C1549 C1545 1.408 . S
C1549 C1548 1.404 . S
C1549 H1561 0.930 . S
C1550 C1546 1.524 . S
C1550 H1562 0.956 1_655 S
C1550 H1563 0.961 1_655 S
C1550 H1564 0.961 . S
C1551 C1548 1.539 . S
C1551 H1565 0.958 . S
C1551 H1566 0.961 . S
C1551 H1567 0.960 . S
H1552 C1536 0.931 . S
H1553 C1541 0.929 . S
H1554 C1542 0.960 . S
H1555 C1542 0.962 . S
H1556 C1542 0.960 . S
H1557 C1543 0.961 . S
H1558 C1543 0.961 . S
H1559 C1543 0.961 . S
H1560 C1544 0.931 . S
H1561 C1549 0.930 . S
H1562 C1550 0.956 1_455 S
H1563 C1550 0.961 1_455 S
H1564 C1550 0.961 . S
H1565 C1551 0.958 . S
H1566 C1551 0.961 . S
H1567 C1551 0.960 . S
C1568 C1569 1.391 . S
C1568 C1570 1.394 . S
C1568 H1584 0.931 . S
C1569 C1568 1.391 . S
C1569 C1573 1.376 . S
C1570 C1568 1.394 . S
C1570 C1571 1.369 . S
C1570 C1574 1.531 . S
C1571 C1570 1.369 . S
C1571 C1572 1.410 . S
C1571 C1579 1.503 1_455 S
C1572 C1571 1.410 . S
C1572 C1573 1.392 . S
C1572 C1575 1.511 . S
C1573 C1569 1.376 . S
C1573 C1572 1.392 . S
C1573 H1585 0.929 . S
C1574 C1570 1.531 . S
C1574 H1586 0.960 . S
C1574 H1587 0.962 1_455 S
C1574 H1588 0.960 . S
C1575 C1572 1.511 . S
C1575 H1589 0.961 . S
C1575 H1590 0.961 . S
C1575 H1591 0.961 . S
C1576 C1577 1.370 . S
C1576 C1578 1.363 . S
C1576 H1592 0.931 . S
C1577 C1576 1.370 . S
C1577 C1581 1.408 . S
C1578 C1576 1.363 . S
C1578 C1579 1.370 . S
C1578 C1582 1.524 . S
C1579 C1571 1.503 1_655 S
C1579 C1578 1.370 . S
C1579 C1580 1.403 1_655 S
C1580 C1579 1.403 1_455 S
C1580 C1581 1.404 1_455 S
C1580 C1583 1.539 . S
C1581 C1577 1.408 . S
C1581 C1580 1.404 1_655 S
C1581 H1593 0.930 1_655 S
C1582 C1578 1.524 . S
C1582 H1594 0.956 . S
C1582 H1595 0.961 . S
C1582 H1596 0.961 . S
C1583 C1580 1.539 . S
C1583 H1597 0.958 . S
C1583 H1598 0.961 . S
C1583 H1599 0.960 . S
H1584 C1568 0.931 . S
H1585 C1573 0.929 . S
H1586 C1574 0.960 . S
H1587 C1574 0.962 1_655 S
H1588 C1574 0.960 . S
H1589 C1575 0.961 . S
H1590 C1575 0.961 . S
H1591 C1575 0.961 . S
H1592 C1576 0.931 . S
H1593 C1581 0.930 1_455 S
H1594 C1582 0.956 . S
H1595 C1582 0.961 . S
H1596 C1582 0.961 . S
H1597 C1583 0.958 . S
H1598 C1583 0.961 . S
H1599 C1583 0.960 . S
C1600 C1601 1.391 . S
C1600 C1602 1.394 . S
C1600 H1616 0.931 . S
C1601 C1600 1.391 . S
C1601 C1605 1.376 1_544 S
C1602 C1600 1.394 . S
C1602 C1603 1.369 1_545 S
C1602 C1606 1.531 . S
C1603 C1602 1.369 1_565 S
C1603 C1604 1.410 1_554 S
C1603 C1611 1.512 . S
C1604 C1603 1.410 1_556 S
C1604 C1605 1.392 . S
C1604 C1607 1.511 . S
C1605 C1601 1.376 1_566 S
C1605 C1604 1.392 . S
C1605 H1617 0.929 . S
C1606 C1602 1.531 . S
C1606 H1618 0.960 . S
C1606 H1619 0.962 . S
C1606 H1620 0.960 . S
C1607 C1604 1.511 . S
C1607 H1621 0.961 . S
C1607 H1622 0.961 . S
C1607 H1623 0.961 . S
C1608 C1609 1.370 1_545 S
C1608 C1610 1.363 . S
C1608 H1624 0.931 . S
C1609 C1608 1.370 1_565 S
C1609 C1613 1.408 1_556 S
C1610 C1608 1.363 . S
C1610 C1611 1.342 1_546 S
C1610 C1614 1.524 . S
C1611 C1603 1.512 . S
C1611 C1610 1.342 1_564 S
C1611 C1612 1.424 . S
C1612 C1611 1.424 . S
C1612 C1613 1.404 . S
C1612 C1615 1.539 . S
C1613 C1609 1.408 1_554 S
C1613 C1612 1.404 . S
C1613 H1625 0.930 . S
C1614 C1610 1.524 . S
C1614 H1626 0.956 . S
C1614 H1627 0.961 . S
C1614 H1628 0.961 . S
C1615 C1612 1.539 . S
C1615 H1629 0.958 . S
C1615 H1630 0.961 . S
C1615 H1631 0.960 . S
H1616 C1600 0.931 . S
H1617 C1605 0.929 . S
H1618 C1606 0.960 . S
H1619 C1606 0.962 . S
H1620 C1606 0.960 . S
H1621 C1607 0.961 . S
H1622 C1607 0.961 . S
H1623 C1607 0.961 . S
H1624 C1608 0.931 . S
H1625 C1613 0.930 . S
H1626 C1614 0.956 . S
H1627 C1614 0.961 . S
H1628 C1614 0.961 . S
H1629 C1615 0.958 . S
H1630 C1615 0.961 . S
H1631 C1615 0.960 . S
C1632 C1633 1.391 . S
C1632 C1634 1.394 . S
C1632 H1648 0.931 . S
C1633 C1632 1.391 . S
C1633 C1637 1.376 . S
C1634 C1632 1.394 . S
C1634 C1635 1.369 . S
C1634 C1638 1.531 . S
C1635 C1634 1.369 . S
C1635 C1636 1.410 . S
C1635 C1643 1.503 . S
C1636 C1635 1.410 . S
C1636 C1637 1.392 . S
C1636 C1639 1.511 . S
C1637 C1633 1.376 . S
C1637 C1636 1.392 . S
C1637 H1649 0.929 . S
C1638 C1634 1.531 . S
C1638 H1650 0.960 . S
C1638 H1651 0.962 . S
C1638 H1652 0.960 . S
C1639 C1636 1.511 . S
C1639 H1653 0.961 . S
C1639 H1654 0.961 . S
C1639 H1655 0.961 . S
C1640 C1641 1.370 . S
C1640 C1642 1.363 . S
C1640 H1656 0.931 . S
C1641 C1640 1.370 . S
C1641 C1645 1.408 . S
C1642 C1640 1.363 . S
C1642 C1643 1.370 . S
C1642 C1646 1.524 . S
C1643 C1635 1.503 . S
C1643 C1642 1.370 . S
C1643 C1644 1.403 . S
C1644 C1643 1.403 . S
C1644 C1645 1.404 . S
C1644 C1647 1.539 . S
C1645 C1641 1.408 . S
C1645 C1644 1.404 . S
C1645 H1657 0.930 . S
C1646 C1642 1.524 . S
C1646 H1658 0.956 . S
C1646 H1659 0.961 . S
C1646 H1660 0.961 . S
C1647 C1644 1.539 . S
C1647 H1661 0.958 . S
C1647 H1662 0.961 . S
C1647 H1663 0.960 . S
H1648 C1632 0.931 . S
H1649 C1637 0.929 . S
H1650 C1638 0.960 . S
H1651 C1638 0.962 . S
H1652 C1638 0.960 . S
H1653 C1639 0.961 . S
H1654 C1639 0.961 . S
H1655 C1639 0.961 . S
H1656 C1640 0.931 . S
H1657 C1645 0.930 . S
H1658 C1646 0.956 . S
H1659 C1646 0.961 . S
H1660 C1646 0.961 . S
H1661 C1647 0.958 . S
H1662 C1647 0.961 . S
H1663 C1647 0.960 . S
C1664 C1665 1.391 . S
C1664 C1666 1.394 . S
C1664 H1680 0.931 . S
C1665 C1664 1.391 . S
C1665 C1669 1.376 1_565 S
C1666 C1664 1.394 . S
C1666 C1667 1.375 . S
C1666 C1670 1.533 1_455 S
C1667 C1666 1.375 . S
C1667 C1668 1.405 1_565 S
C1667 C1675 1.502 1_465 S
C1668 C1667 1.405 1_545 S
C1668 C1669 1.392 . S
C1668 C1671 1.511 . S
C1669 C1665 1.376 1_545 S
C1669 C1668 1.392 . S
C1669 H1681 0.929 . S
C1670 C1666 1.533 1_655 S
C1670 H1682 0.958 . S
C1670 H1683 0.961 . S
C1670 H1684 0.962 1_655 S
C1671 C1668 1.511 . S
C1671 H1685 0.961 . S
C1671 H1686 0.961 . S
C1671 H1687 0.961 . S
C1672 C1673 1.374 . S
C1672 C1674 1.362 1_545 S
C1672 H1688 0.928 1_545 S
C1673 C1672 1.374 . S
C1673 C1677 1.408 . S
C1674 C1672 1.362 1_565 S
C1674 C1675 1.370 1_565 S
C1674 C1678 1.524 . S
C1675 C1667 1.502 1_645 S
C1675 C1674 1.370 1_545 S
C1675 C1676 1.403 . S
C1676 C1675 1.403 . S
C1676 C1677 1.404 . S
C1676 C1679 1.539 . S
C1677 C1673 1.408 . S
C1677 C1676 1.404 . S
C1677 H1689 0.930 . S
C1678 C1674 1.524 . S
C1678 H1690 0.956 . S
C1678 H1691 0.961 1_655 S
C1678 H1692 0.961 . S
C1679 C1676 1.539 . S
C1679 H1693 0.958 . S
C1679 H1694 0.961 . S
C1679 H1695 0.960 1_655 S
H1680 C1664 0.931 . S
H1681 C1669 0.929 . S
H1682 C1670 0.958 . S
H1683 C1670 0.961 . S
H1684 C1670 0.962 1_455 S
H1685 C1671 0.961 . S
H1686 C1671 0.961 . S
H1687 C1671 0.961 . S
H1688 C1672 0.928 1_565 S
H1689 C1677 0.930 . S
H1690 C1678 0.956 . S
H1691 C1678 0.961 1_455 S
H1692 C1678 0.961 . S
H1693 C1679 0.958 . S
H1694 C1679 0.961 . S
H1695 C1679 0.960 1_455 S
C1696 C1697 1.391 . S
C1696 C1698 1.394 . S
C1696 H1712 0.931 . S
C1697 C1696 1.391 . S
C1697 C1701 1.376 . S
C1698 C1696 1.394 . S
C1698 C1699 1.369 . S
C1698 C1702 1.531 . S
C1699 C1698 1.369 . S
C1699 C1700 1.410 . S
C1699 C1707 1.503 . S
C1700 C1699 1.410 . S
C1700 C1701 1.392 . S
C1700 C1703 1.511 . S
C1701 C1697 1.376 . S
C1701 C1700 1.392 . S
C1701 H1713 0.929 . S
C1702 C1698 1.531 . S
C1702 H1714 0.960 . S
C1702 H1715 0.962 . S
C1702 H1716 0.960 . S
C1703 C1700 1.511 . S
C1703 H1717 0.961 . S
C1703 H1718 0.961 . S
C1703 H1719 0.961 . S
C1704 C1705 1.370 . S
C1704 C1706 1.363 . S
C1704 H1720 0.931 . S
C1705 C1704 1.370 . S
C1705 C1709 1.408 . S
C1706 C1704 1.363 . S
C1706 C1707 1.370 . S
C1706 C1710 1.524 . S
C1707 C1699 1.503 . S
C1707 C1706 1.370 . S
C1707 C1708 1.403 . S
C1708 C1707 1.403 . S
C1708 C1709 1.404 . S
C1708 C1711 1.539 . S
C1709 C1705 1.408 . S
C1709 C1708 1.404 . S
C1709 H1721 0.930 . S
C1710 C1706 1.524 . S
C1710 H1722 0.956 . S
C1710 H1723 0.961 . S
C1710 H1724 0.961 . S
C1711 C1708 1.539 . S
C1711 H1725 0.958 . S
C1711 H1726 0.961 . S
C1711 H1727 0.960 . S
H1712 C1696 0.931 . S
H1713 C1701 0.929 . S
H1714 C1702 0.960 . S
H1715 C1702 0.962 . S
H1716 C1702 0.960 . S
H1717 C1703 0.961 . S
H1718 C1703 0.961 . S
H1719 C1703 0.961 . S
H1720 C1704 0.931 . S
H1721 C1709 0.930 . S
H1722 C1710 0.956 . S
H1723 C1710 0.961 . S
H1724 C1710 0.961 . S
H1725 C1711 0.958 . S
H1726 C1711 0.961 . S
H1727 C1711 0.960 . S
C1728 C1729 1.391 . S
C1728 C1730 1.394 . S
C1728 H1744 0.931 . S
C1729 C1728 1.391 . S
C1729 C1733 1.376 . S
C1730 C1728 1.394 . S
C1730 C1731 1.369 . S
C1730 C1734 1.531 . S
C1731 C1730 1.369 . S
C1731 C1732 1.410 . S
C1731 C1739 1.503 . S
C1732 C1731 1.410 . S
C1732 C1733 1.392 . S
C1732 C1735 1.511 . S
C1733 C1729 1.376 . S
C1733 C1732 1.392 . S
C1733 H1745 0.929 . S
C1734 C1730 1.531 . S
C1734 H1746 0.960 . S
C1734 H1747 0.962 . S
C1734 H1748 0.960 . S
C1735 C1732 1.511 . S
C1735 H1749 0.961 . S
C1735 H1750 0.961 . S
C1735 H1751 0.961 . S
C1736 C1737 1.370 . S
C1736 C1738 1.363 . S
C1736 H1752 0.931 . S
C1737 C1736 1.370 . S
C1737 C1741 1.408 . S
C1738 C1736 1.363 . S
C1738 C1739 1.370 . S
C1738 C1742 1.524 . S
C1739 C1731 1.503 . S
C1739 C1738 1.370 . S
C1739 C1740 1.403 . S
C1740 C1739 1.403 . S
C1740 C1741 1.404 . S
C1740 C1743 1.539 . S
C1741 C1737 1.408 . S
C1741 C1740 1.404 . S
C1741 H1753 0.930 . S
C1742 C1738 1.524 . S
C1742 H1754 0.956 . S
C1742 H1755 0.961 . S
C1742 H1756 0.961 . S
C1743 C1740 1.539 . S
C1743 H1757 0.958 . S
C1743 H1758 0.961 . S
C1743 H1759 0.960 . S
H1744 C1728 0.931 . S
H1745 C1733 0.929 . S
H1746 C1734 0.960 . S
H1747 C1734 0.962 . S
H1748 C1734 0.960 . S
H1749 C1735 0.961 . S
H1750 C1735 0.961 . S
H1751 C1735 0.961 . S
H1752 C1736 0.931 . S
H1753 C1741 0.930 . S
H1754 C1742 0.956 . S
H1755 C1742 0.961 . S
H1756 C1742 0.961 . S
H1757 C1743 0.958 . S
H1758 C1743 0.961 . S
H1759 C1743 0.960 . S
C1760 C1761 1.391 . S
C1760 C1762 1.394 . S
C1760 H1776 0.931 . S
C1761 C1760 1.391 . S
C1761 C1765 1.376 . S
C1762 C1760 1.394 . S
C1762 C1763 1.369 . S
C1762 C1766 1.531 . S
C1763 C1762 1.369 . S
C1763 C1764 1.410 . S
C1763 C1771 1.503 . S
C1764 C1763 1.410 . S
C1764 C1765 1.392 . S
C1764 C1767 1.511 . S
C1765 C1761 1.376 . S
C1765 C1764 1.392 . S
C1765 H1777 0.929 . S
C1766 C1762 1.531 . S
C1766 H1778 0.960 . S
C1766 H1779 0.962 . S
C1766 H1780 0.960 . S
C1767 C1764 1.511 . S
C1767 H1781 0.961 . S
C1767 H1782 0.961 . S
C1767 H1783 0.961 . S
C1768 C1769 1.370 . S
C1768 C1770 1.363 . S
C1768 H1784 0.931 . S
C1769 C1768 1.370 . S
C1769 C1773 1.408 . S
C1770 C1768 1.363 . S
C1770 C1771 1.370 . S
C1770 C1774 1.524 . S
C1771 C1763 1.503 . S
C1771 C1770 1.370 . S
C1771 C1772 1.403 . S
C1772 C1771 1.403 . S
C1772 C1773 1.404 . S
C1772 C1775 1.539 . S
C1773 C1769 1.408 . S
C1773 C1772 1.404 . S
C1773 H1785 0.930 . S
C1774 C1770 1.524 . S
C1774 H1786 0.956 . S
C1774 H1787 0.961 . S
C1774 H1788 0.961 . S
C1775 C1772 1.539 . S
C1775 H1789 0.958 . S
C1775 H1790 0.961 . S
C1775 H1791 0.960 . S
H1776 C1760 0.931 . S
H1777 C1765 0.929 . S
H1778 C1766 0.960 . S
H1779 C1766 0.962 . S
H1780 C1766 0.960 . S
H1781 C1767 0.961 . S
H1782 C1767 0.961 . S
H1783 C1767 0.961 . S
H1784 C1768 0.931 . S
H1785 C1773 0.930 . S
H1786 C1774 0.956 . S
H1787 C1774 0.961 . S
H1788 C1774 0.961 . S
H1789 C1775 0.958 . S
H1790 C1775 0.961 . S
H1791 C1775 0.960 . S
C1792 C1793 1.391 . S
C1792 C1794 1.394 . S
C1792 H1808 0.931 . S
C1793 C1792 1.391 . S
C1793 C1797 1.376 . S
C1794 C1792 1.394 . S
C1794 C1795 1.369 . S
C1794 C1798 1.513 1_455 S
C1795 C1794 1.369 . S
C1795 C1796 1.410 . S
C1795 C1803 1.503 1_455 S
C1796 C1795 1.410 . S
C1796 C1797 1.392 . S
C1796 C1799 1.511 . S
C1797 C1793 1.376 . S
C1797 C1796 1.392 . S
C1797 H1809 0.929 . S
C1798 C1794 1.513 1_655 S
C1798 H1810 0.980 . S
C1798 H1811 0.968 . S
C1798 H1812 0.952 1_655 S
C1799 C1796 1.511 . S
C1799 H1813 0.961 . S
C1799 H1814 0.961 . S
C1799 H1815 0.961 . S
C1800 C1801 1.370 . S
C1800 C1802 1.363 . S
C1800 H1816 0.931 . S
C1801 C1800 1.370 . S
C1801 C1805 1.408 . S
C1802 C1800 1.363 . S
C1802 C1803 1.370 . S
C1802 C1806 1.524 . S
C1803 C1795 1.503 1_655 S
C1803 C1802 1.370 . S
C1803 C1804 1.403 . S
C1804 C1803 1.403 . S
C1804 C1805 1.404 . S
C1804 C1807 1.539 . S
C1805 C1801 1.408 . S
C1805 C1804 1.404 . S
C1805 H1817 0.930 . S
C1806 C1802 1.524 . S
C1806 H1818 0.956 . S
C1806 H1819 0.961 1_655 S
C1806 H1820 0.961 . S
C1807 C1804 1.539 . S
C1807 H1821 0.958 . S
C1807 H1822 0.961 . S
C1807 H1823 0.957 . S
H1808 C1792 0.931 . S
H1809 C1797 0.929 . S
H1810 C1798 0.980 . S
H1811 C1798 0.968 . S
H1812 C1798 0.952 1_455 S
H1813 C1799 0.961 . S
H1814 C1799 0.961 . S
H1815 C1799 0.961 . S
H1816 C1800 0.931 . S
H1817 C1805 0.930 . S
H1818 C1806 0.956 . S
H1819 C1806 0.961 1_455 S
H1820 C1806 0.961 . S
H1821 C1807 0.958 . S
H1822 C1807 0.961 . S
H1823 C1807 0.957 . S
C1824 C1825 1.391 1_556 S
C1824 C1826 1.394 . S
C1824 H1840 0.931 . S
C1825 C1824 1.391 1_554 S
C1825 C1829 1.376 . S
C1826 C1824 1.394 . S
C1826 C1827 1.369 1_556 S
C1826 C1830 1.531 . S
C1827 C1826 1.369 1_554 S
C1827 C1828 1.410 . S
C1827 C1835 1.503 . S
C1828 C1827 1.410 . S
C1828 C1829 1.392 . S
C1828 C1831 1.511 . S
C1829 C1825 1.376 . S
C1829 C1828 1.392 . S
C1829 H1841 0.929 . S
C1830 C1826 1.531 . S
C1830 H1842 0.960 . S
C1830 H1843 0.962 . S
C1830 H1844 0.960 . S
C1831 C1828 1.511 . S
C1831 H1845 0.961 . S
C1831 H1846 0.961 . S
C1831 H1847 0.961 . S
C1832 C1833 1.370 . S
C1832 C1834 1.363 . S
C1832 H1848 0.931 . S
C1833 C1832 1.370 . S
C1833 C1837 1.408 1_556 S
C1834 C1832 1.363 . S
C1834 C1835 1.370 1_556 S
C1834 C1838 1.524 . S
C1835 C1827 1.503 . S
C1835 C1834 1.370 1_554 S
C1835 C1836 1.403 . S
C1836 C1835 1.403 . S
C1836 C1837 1.404 . S
C1836 C1839 1.539 . S
C1837 C1833 1.408 1_554 S
C1837 C1836 1.404 . S
C1837 H1849 0.930 . S
C1838 C1834 1.524 . S
C1838 H1850 0.956 . S
C1838 H1851 0.961 . S
C1838 H1852 0.961 . S
C1839 C1836 1.539 . S
C1839 H1853 0.958 . S
C1839 H1854 0.961 . S
C1839 H1855 0.960 . S
H1840 C1824 0.931 . S
H1841 C1829 0.929 . S
H1842 C1830 0.960 . S
H1843 C1830 0.962 . S
H1844 C1830 0.960 . S
H1845 C1831 0.961 . S
H1846 C1831 0.961 . S
H1847 C1831 0.961 . S
H1848 C1832 0.931 . S
H1849 C1837 0.930 . S
H1850 C1838 0.956 . S
H1851 C1838 0.961 . S
H1852 C1838 0.961 . S
H1853 C1839 0.958 . S
H1854 C1839 0.961 . S
H1855 C1839 0.960 . S
C1856 C1857 1.391 . S
C1856 C1858 1.394 . S
C1856 H1872 0.931 . S
C1857 C1856 1.391 . S
C1857 C1861 1.376 . S
C1858 C1856 1.394 . S
C1858 C1859 1.369 . S
C1858 C1862 1.531 . S
C1859 C1858 1.369 . S
C1859 C1860 1.410 . S
C1859 C1867 1.503 . S
C1860 C1859 1.410 . S
C1860 C1861 1.392 . S
C1860 C1863 1.511 . S
C1861 C1857 1.376 . S
C1861 C1860 1.392 . S
C1861 H1873 0.929 . S
C1862 C1858 1.531 . S
C1862 H1874 0.960 . S
C1862 H1875 0.962 . S
C1862 H1876 0.960 . S
C1863 C1860 1.511 . S
C1863 H1877 0.961 . S
C1863 H1878 0.961 . S
C1863 H1879 0.961 . S
C1864 C1865 1.370 . S
C1864 C1866 1.363 . S
C1864 H1880 0.931 . S
C1865 C1864 1.370 . S
C1865 C1869 1.408 . S
C1866 C1864 1.363 . S
C1866 C1867 1.370 . S
C1866 C1870 1.524 . S
C1867 C1859 1.503 . S
C1867 C1866 1.370 . S
C1867 C1868 1.403 . S
C1868 C1867 1.403 . S
C1868 C1869 1.404 . S
C1868 C1871 1.539 . S
C1869 C1865 1.408 . S
C1869 C1868 1.404 . S
C1869 H1881 0.930 . S
C1870 C1866 1.524 . S
C1870 H1882 0.956 . S
C1870 H1883 0.961 . S
C1870 H1884 0.961 . S
C1871 C1868 1.539 . S
C1871 H1885 0.958 . S
C1871 H1886 0.961 . S
C1871 H1887 0.960 . S
H1872 C1856 0.931 . S
H1873 C1861 0.929 . S
H1874 C1862 0.960 . S
H1875 C1862 0.962 . S
H1876 C1862 0.960 . S
H1877 C1863 0.961 . S
H1878 C1863 0.961 . S
H1879 C1863 0.961 . S
H1880 C1864 0.931 . S
H1881 C1869 0.930 . S
H1882 C1870 0.956 . S
H1883 C1870 0.961 . S
H1884 C1870 0.961 . S
H1885 C1871 0.958 . S
H1886 C1871 0.961 . S
H1887 C1871 0.960 . S
C1888 C1889 1.391 . S
C1888 C1890 1.394 . S
C1888 H1904 0.931 . S
C1889 C1888 1.391 . S
C1889 C1893 1.376 . S
C1890 C1888 1.394 . S
C1890 C1891 1.369 . S
C1890 C1894 1.531 . S
C1891 C1890 1.369 . S
C1891 C1892 1.410 . S
C1891 C1899 1.503 . S
C1892 C1891 1.410 . S
C1892 C1893 1.392 . S
C1892 C1895 1.511 . S
C1893 C1889 1.376 . S
C1893 C1892 1.392 . S
C1893 H1905 0.929 . S
C1894 C1890 1.531 . S
C1894 H1906 0.960 . S
C1894 H1907 0.962 . S
C1894 H1908 0.960 . S
C1895 C1892 1.511 . S
C1895 H1909 0.961 . S
C1895 H1910 0.961 . S
C1895 H1911 0.961 . S
C1896 C1897 1.370 . S
C1896 C1898 1.363 . S
C1896 H1912 0.931 . S
C1897 C1896 1.370 . S
C1897 C1901 1.408 . S
C1898 C1896 1.363 . S
C1898 C1899 1.370 . S
C1898 C1902 1.524 . S
C1899 C1891 1.503 . S
C1899 C1898 1.370 . S
C1899 C1900 1.403 . S
C1900 C1899 1.403 . S
C1900 C1901 1.404 . S
C1900 C1903 1.539 . S
C1901 C1897 1.408 . S
C1901 C1900 1.404 . S
C1901 H1913 0.930 . S
C1902 C1898 1.524 . S
C1902 H1914 0.956 . S
C1902 H1915 0.961 . S
C1902 H1916 0.961 . S
C1903 C1900 1.539 . S
C1903 H1917 0.958 . S
C1903 H1918 0.961 . S
C1903 H1919 0.960 . S
H1904 C1888 0.931 . S
H1905 C1893 0.929 . S
H1906 C1894 0.960 . S
H1907 C1894 0.962 . S
H1908 C1894 0.960 . S
H1909 C1895 0.961 . S
H1910 C1895 0.961 . S
H1911 C1895 0.961 . S
H1912 C1896 0.931 . S
H1913 C1901 0.930 . S
H1914 C1902 0.956 . S
H1915 C1902 0.961 . S
H1916 C1902 0.961 . S
H1917 C1903 0.958 . S
H1918 C1903 0.961 . S
H1919 C1903 0.960 . S
C1920 C1921 1.391 . S
C1920 C1922 1.394 . S
C1920 H1936 0.931 . S
C1921 C1920 1.391 . S
C1921 C1925 1.376 . S
C1922 C1920 1.394 . S
C1922 C1923 1.369 . S
C1922 C1926 1.531 . S
C1923 C1922 1.369 . S
C1923 C1924 1.410 . S
C1923 C1931 1.503 . S
C1924 C1923 1.410 . S
C1924 C1925 1.392 . S
C1924 C1927 1.511 . S
C1925 C1921 1.376 . S
C1925 C1924 1.392 . S
C1925 H1937 0.929 . S
C1926 C1922 1.531 . S
C1926 H1938 0.960 . S
C1926 H1939 0.962 . S
C1926 H1940 0.960 . S
C1927 C1924 1.511 . S
C1927 H1941 0.961 . S
C1927 H1942 0.961 . S
C1927 H1943 0.961 . S
C1928 C1929 1.370 . S
C1928 C1930 1.363 . S
C1928 H1944 0.931 . S
C1929 C1928 1.370 . S
C1929 C1933 1.408 . S
C1930 C1928 1.363 . S
C1930 C1931 1.370 . S
C1930 C1934 1.524 . S
C1931 C1923 1.503 . S
C1931 C1930 1.370 . S
C1931 C1932 1.403 . S
C1932 C1931 1.403 . S
C1932 C1933 1.404 . S
C1932 C1935 1.539 . S
C1933 C1929 1.408 . S
C1933 C1932 1.404 . S
C1933 H1945 0.930 . S
C1934 C1930 1.524 . S
C1934 H1946 0.956 . S
C1934 H1947 0.961 . S
C1934 H1948 0.961 . S
C1935 C1932 1.539 . S
C1935 H1949 0.958 . S
C1935 H1950 0.961 . S
C1935 H1951 0.960 . S
H1936 C1920 0.931 . S
H1937 C1925 0.929 . S
H1938 C1926 0.960 . S
H1939 C1926 0.962 . S
H1940 C1926 0.960 . S
H1941 C1927 0.961 . S
H1942 C1927 0.961 . S
H1943 C1927 0.961 . S
H1944 C1928 0.931 . S
H1945 C1933 0.930 . S
H1946 C1934 0.956 . S
H1947 C1934 0.961 . S
H1948 C1934 0.961 . S
H1949 C1935 0.958 . S
H1950 C1935 0.961 . S
H1951 C1935 0.960 . S
C1952 C1953 1.391 . S
C1952 C1954 1.394 . S
C1952 H1968 0.931 . S
C1953 C1952 1.391 . S
C1953 C1957 1.376 . S
C1954 C1952 1.394 . S
C1954 C1955 1.369 . S
C1954 C1958 1.531 . S
C1955 C1954 1.369 . S
C1955 C1956 1.410 . S
C1955 C1963 1.503 . S
C1956 C1955 1.410 . S
C1956 C1957 1.392 . S
C1956 C1959 1.511 . S
C1957 C1953 1.376 . S
C1957 C1956 1.392 . S
C1957 H1969 0.929 . S
C1958 C1954 1.531 . S
C1958 H1970 0.960 . S
C1958 H1971 0.962 . S
C1958 H1972 0.960 . S
C1959 C1956 1.511 . S
C1959 H1973 0.961 . S
C1959 H1974 0.961 . S
C1959 H1975 0.961 . S
C1960 C1961 1.370 . S
C1960 C1962 1.363 . S
C1960 H1976 0.931 . S
C1961 C1960 1.370 . S
C1961 C1965 1.408 . S
C1962 C1960 1.363 . S
C1962 C1963 1.370 . S
C1962 C1966 1.524 . S
C1963 C1955 1.503 . S
C1963 C1962 1.370 . S
C1963 C1964 1.403 . S
C1964 C1963 1.403 . S
C1964 C1965 1.404 . S
C1964 C1967 1.539 . S
C1965 C1961 1.408 . S
C1965 C1964 1.404 . S
C1965 H1977 0.930 . S
C1966 C1962 1.524 . S
C1966 H1978 0.956 . S
C1966 H1979 0.961 . S
C1966 H1980 0.961 . S
C1967 C1964 1.539 . S
C1967 H1981 0.958 . S
C1967 H1982 0.961 . S
C1967 H1983 0.960 . S
H1968 C1952 0.931 . S
H1969 C1957 0.929 . S
H1970 C1958 0.960 . S
H1971 C1958 0.962 . S
H1972 C1958 0.960 . S
H1973 C1959 0.961 . S
H1974 C1959 0.961 . S
H1975 C1959 0.961 . S
H1976 C1960 0.931 . S
H1977 C1965 0.930 . S
H1978 C1966 0.956 . S
H1979 C1966 0.961 . S
H1980 C1966 0.961 . S
H1981 C1967 0.958 . S
H1982 C1967 0.961 . S
H1983 C1967 0.960 . S
C1984 C1985 1.391 . S
C1984 C1986 1.394 . S
C1984 H2000 0.931 . S
C1985 C1984 1.391 . S
C1985 C1989 1.376 . S
C1986 C1984 1.394 . S
C1986 C1987 1.369 . S
C1986 C1990 1.531 . S
C1987 C1986 1.369 . S
C1987 C1988 1.410 . S
C1987 C1995 1.503 . S
C1988 C1987 1.410 . S
C1988 C1989 1.392 . S
C1988 C1991 1.511 . S
C1989 C1985 1.376 . S
C1989 C1988 1.392 . S
C1989 H2001 0.929 . S
C1990 C1986 1.531 . S
C1990 H2002 0.960 . S
C1990 H2003 0.962 . S
C1990 H2004 0.960 . S
C1991 C1988 1.511 . S
C1991 H2005 0.961 . S
C1991 H2006 0.961 . S
C1991 H2007 0.961 . S
C1992 C1993 1.370 . S
C1992 C1994 1.363 . S
C1992 H2008 0.931 . S
C1993 C1992 1.370 . S
C1993 C1997 1.408 . S
C1994 C1992 1.363 . S
C1994 C1995 1.370 . S
C1994 C1998 1.524 . S
C1995 C1987 1.503 . S
C1995 C1994 1.370 . S
C1995 C1996 1.403 . S
C1996 C1995 1.403 . S
C1996 C1997 1.404 . S
C1996 C1999 1.539 . S
C1997 C1993 1.408 . S
C1997 C1996 1.404 . S
C1997 H2009 0.930 . S
C1998 C1994 1.524 . S
C1998 H2010 0.956 . S
C1998 H2011 0.961 . S
C1998 H2012 0.961 . S
C1999 C1996 1.539 . S
C1999 H2013 0.958 . S
C1999 H2014 0.961 . S
C1999 H2015 0.960 . S
H2000 C1984 0.931 . S
H2001 C1989 0.929 . S
H2002 C1990 0.960 . S
H2003 C1990 0.962 . S
H2004 C1990 0.960 . S
H2005 C1991 0.961 . S
H2006 C1991 0.961 . S
H2007 C1991 0.961 . S
H2008 C1992 0.931 . S
H2009 C1997 0.930 . S
H2010 C1998 0.956 . S
H2011 C1998 0.961 . S
H2012 C1998 0.961 . S
H2013 C1999 0.958 . S
H2014 C1999 0.961 . S
H2015 C1999 0.960 . S
C2016 C2017 1.391 . S
C2016 C2018 1.394 . S
C2016 H2032 0.931 . S
C2017 C2016 1.391 . S
C2017 C2021 1.376 . S
C2018 C2016 1.394 . S
C2018 C2019 1.369 . S
C2018 C2022 1.531 . S
C2019 C2018 1.369 . S
C2019 C2020 1.410 . S
C2019 C2027 1.503 . S
C2020 C2019 1.410 . S
C2020 C2021 1.392 . S
C2020 C2023 1.511 . S
C2021 C2017 1.376 . S
C2021 C2020 1.392 . S
C2021 H2033 0.929 . S
C2022 C2018 1.531 . S
C2022 H2034 0.960 . S
C2022 H2035 0.962 . S
C2022 H2036 0.960 . S
C2023 C2020 1.511 . S
C2023 H2037 0.961 . S
C2023 H2038 0.961 . S
C2023 H2039 0.961 . S
C2024 C2025 1.370 . S
C2024 C2026 1.363 . S
C2024 H2040 0.931 . S
C2025 C2024 1.370 . S
C2025 C2029 1.408 . S
C2026 C2024 1.363 . S
C2026 C2027 1.370 . S
C2026 C2030 1.524 . S
C2027 C2019 1.503 . S
C2027 C2026 1.370 . S
C2027 C2028 1.403 . S
C2028 C2027 1.403 . S
C2028 C2029 1.404 . S
C2028 C2031 1.539 . S
C2029 C2025 1.408 . S
C2029 C2028 1.404 . S
C2029 H2041 0.930 . S
C2030 C2026 1.524 . S
C2030 H2042 0.956 . S
C2030 H2043 0.961 . S
C2030 H2044 0.961 . S
C2031 C2028 1.539 . S
C2031 H2045 0.958 . S
C2031 H2046 0.961 . S
C2031 H2047 0.960 . S
H2032 C2016 0.931 . S
H2033 C2021 0.929 . S
H2034 C2022 0.960 . S
H2035 C2022 0.962 . S
H2036 C2022 0.960 . S
H2037 C2023 0.961 . S
H2038 C2023 0.961 . S
H2039 C2023 0.961 . S
H2040 C2024 0.931 . S
H2041 C2029 0.930 . S
H2042 C2030 0.956 . S
H2043 C2030 0.961 . S
H2044 C2030 0.961 . S
H2045 C2031 0.958 . S
H2046 C2031 0.961 . S
H2047 C2031 0.960 . S
C2048 C2049 1.391 . S
C2048 C2050 1.394 . S
C2048 H2064 0.931 . S
C2049 C2048 1.391 . S
C2049 C2053 1.376 . S
C2050 C2048 1.394 . S
C2050 C2051 1.369 . S
C2050 C2054 1.531 . S
C2051 C2050 1.369 . S
C2051 C2052 1.410 . S
C2051 C2059 1.503 . S
C2052 C2051 1.410 . S
C2052 C2053 1.392 . S
C2052 C2055 1.511 . S
C2053 C2049 1.376 . S
C2053 C2052 1.392 . S
C2053 H2065 0.929 . S
C2054 C2050 1.531 . S
C2054 H2066 0.960 . S
C2054 H2067 0.962 . S
C2054 H2068 0.960 . S
C2055 C2052 1.511 . S
C2055 H2069 0.961 . S
C2055 H2070 0.961 . S
C2055 H2071 0.961 . S
C2056 C2057 1.370 . S
C2056 C2058 1.363 . S
C2056 H2072 0.931 . S
C2057 C2056 1.370 . S
C2057 C2061 1.408 . S
C2058 C2056 1.363 . S
C2058 C2059 1.370 . S
C2058 C2062 1.524 . S
C2059 C2051 1.503 . S
C2059 C2058 1.370 . S
C2059 C2060 1.403 . S
C2060 C2059 1.403 . S
C2060 C2061 1.404 . S
C2060 C2063 1.539 . S
C2061 C2057 1.408 . S
C2061 C2060 1.404 . S
C2061 H2073 0.930 . S
C2062 C2058 1.524 . S
C2062 H2074 0.956 . S
C2062 H2075 0.961 . S
C2062 H2076 0.961 . S
C2063 C2060 1.539 . S
C2063 H2077 0.958 . S
C2063 H2078 0.961 . S
C2063 H2079 0.960 . S
H2064 C2048 0.931 . S
H2065 C2053 0.929 . S
H2066 C2054 0.960 . S
H2067 C2054 0.962 . S
H2068 C2054 0.960 . S
H2069 C2055 0.961 . S
H2070 C2055 0.961 . S
H2071 C2055 0.961 . S
H2072 C2056 0.931 . S
H2073 C2061 0.930 . S
H2074 C2062 0.956 . S
H2075 C2062 0.961 . S
H2076 C2062 0.961 . S
H2077 C2063 0.958 . S
H2078 C2063 0.961 . S
H2079 C2063 0.960 . S
C2080 C2081 1.391 . S
C2080 C2082 1.394 . S
C2080 H2096 0.931 . S
C2081 C2080 1.391 . S
C2081 C2085 1.376 . S
C2082 C2080 1.394 . S
C2082 C2083 1.369 . S
C2082 C2086 1.531 . S
C2083 C2082 1.369 . S
C2083 C2084 1.410 . S
C2083 C2091 1.503 . S
C2084 C2083 1.410 . S
C2084 C2085 1.392 . S
C2084 C2087 1.511 . S
C2085 C2081 1.376 . S
C2085 C2084 1.392 . S
C2085 H2097 0.929 . S
C2086 C2082 1.531 . S
C2086 H2098 0.960 . S
C2086 H2099 0.962 . S
C2086 H2100 0.960 . S
C2087 C2084 1.511 . S
C2087 H2101 0.961 . S
C2087 H2102 0.961 . S
C2087 H2103 0.961 . S
C2088 C2089 1.370 . S
C2088 C2090 1.363 . S
C2088 H2104 0.931 . S
C2089 C2088 1.370 . S
C2089 C2093 1.408 . S
C2090 C2088 1.363 . S
C2090 C2091 1.370 . S
C2090 C2094 1.524 . S
C2091 C2083 1.503 . S
C2091 C2090 1.370 . S
C2091 C2092 1.403 . S
C2092 C2091 1.403 . S
C2092 C2093 1.404 . S
C2092 C2095 1.539 . S
C2093 C2089 1.408 . S
C2093 C2092 1.404 . S
C2093 H2105 0.930 . S
C2094 C2090 1.524 . S
C2094 H2106 0.956 . S
C2094 H2107 0.961 . S
C2094 H2108 0.961 . S
C2095 C2092 1.539 . S
C2095 H2109 0.958 . S
C2095 H2110 0.961 . S
C2095 H2111 0.960 . S
H2096 C2080 0.931 . S
H2097 C2085 0.929 . S
H2098 C2086 0.960 . S
H2099 C2086 0.962 . S
H2100 C2086 0.960 . S
H2101 C2087 0.961 . S
H2102 C2087 0.961 . S
H2103 C2087 0.961 . S
H2104 C2088 0.931 . S
H2105 C2093 0.930 . S
H2106 C2094 0.956 . S
H2107 C2094 0.961 . S
H2108 C2094 0.961 . S
H2109 C2095 0.958 . S
H2110 C2095 0.961 . S
H2111 C2095 0.960 . S
C2112 C2113 1.391 . S
C2112 C2114 1.394 . S
C2112 H2128 0.931 . S
C2113 C2112 1.391 . S
C2113 C2117 1.376 . S
C2114 C2112 1.394 . S
C2114 C2115 1.369 . S
C2114 C2118 1.531 . S
C2115 C2114 1.369 . S
C2115 C2116 1.410 . S
C2115 C2123 1.503 . S
C2116 C2115 1.410 . S
C2116 C2117 1.392 . S
C2116 C2119 1.511 . S
C2117 C2113 1.376 . S
C2117 C2116 1.392 . S
C2117 H2129 0.929 . S
C2118 C2114 1.531 . S
C2118 H2130 0.960 . S
C2118 H2131 0.962 . S
C2118 H2132 0.960 . S
C2119 C2116 1.511 . S
C2119 H2133 0.961 . S
C2119 H2134 0.961 . S
C2119 H2135 0.961 . S
C2120 C2121 1.370 . S
C2120 C2122 1.363 . S
C2120 H2136 0.931 . S
C2121 C2120 1.370 . S
C2121 C2125 1.408 . S
C2122 C2120 1.363 . S
C2122 C2123 1.370 . S
C2122 C2126 1.524 . S
C2123 C2115 1.503 . S
C2123 C2122 1.370 . S
C2123 C2124 1.403 . S
C2124 C2123 1.403 . S
C2124 C2125 1.404 . S
C2124 C2127 1.539 . S
C2125 C2121 1.408 . S
C2125 C2124 1.404 . S
C2125 H2137 0.930 . S
C2126 C2122 1.524 . S
C2126 H2138 0.956 . S
C2126 H2139 0.961 . S
C2126 H2140 0.961 . S
C2127 C2124 1.539 . S
C2127 H2141 0.958 . S
C2127 H2142 0.961 . S
C2127 H2143 0.960 . S
H2128 C2112 0.931 . S
H2129 C2117 0.929 . S
H2130 C2118 0.960 . S
H2131 C2118 0.962 . S
H2132 C2118 0.960 . S
H2133 C2119 0.961 . S
H2134 C2119 0.961 . S
H2135 C2119 0.961 . S
H2136 C2120 0.931 . S
H2137 C2125 0.930 . S
H2138 C2126 0.956 . S
H2139 C2126 0.961 . S
H2140 C2126 0.961 . S
H2141 C2127 0.958 . S
H2142 C2127 0.961 . S
H2143 C2127 0.960 . S
C2144 C2145 1.391 . S
C2144 C2146 1.394 . S
C2144 H2160 0.931 . S
C2145 C2144 1.391 . S
C2145 C2149 1.376 . S
C2146 C2144 1.394 . S
C2146 C2147 1.369 . S
C2146 C2150 1.531 . S
C2147 C2146 1.369 . S
C2147 C2148 1.410 . S
C2147 C2155 1.503 . S
C2148 C2147 1.410 . S
C2148 C2149 1.392 . S
C2148 C2151 1.511 . S
C2149 C2145 1.376 . S
C2149 C2148 1.392 . S
C2149 H2161 0.929 . S
C2150 C2146 1.531 . S
C2150 H2162 0.960 . S
C2150 H2163 0.962 . S
C2150 H2164 0.960 . S
C2151 C2148 1.511 . S
C2151 H2165 0.961 . S
C2151 H2166 0.961 . S
C2151 H2167 0.961 . S
C2152 C2153 1.370 . S
C2152 C2154 1.363 . S
C2152 H2168 0.931 . S
C2153 C2152 1.370 . S
C2153 C2157 1.408 . S
C2154 C2152 1.363 . S
C2154 C2155 1.370 . S
C2154 C2158 1.524 . S
C2155 C2147 1.503 . S
C2155 C2154 1.370 . S
C2155 C2156 1.403 . S
C2156 C2155 1.403 . S
C2156 C2157 1.404 . S
C2156 C2159 1.539 . S
C2157 C2153 1.408 . S
C2157 C2156 1.404 . S
C2157 H2169 0.930 . S
C2158 C2154 1.524 . S
C2158 H2170 0.956 . S
C2158 H2171 0.961 . S
C2158 H2172 0.961 . S
C2159 C2156 1.539 . S
C2159 H2173 0.958 . S
C2159 H2174 0.961 . S
C2159 H2175 0.960 . S
H2160 C2144 0.931 . S
H2161 C2149 0.929 . S
H2162 C2150 0.960 . S
H2163 C2150 0.962 . S
H2164 C2150 0.960 . S
H2165 C2151 0.961 . S
H2166 C2151 0.961 . S
H2167 C2151 0.961 . S
H2168 C2152 0.931 . S
H2169 C2157 0.930 . S
H2170 C2158 0.956 . S
H2171 C2158 0.961 . S
H2172 C2158 0.961 . S
H2173 C2159 0.958 . S
H2174 C2159 0.961 . S
H2175 C2159 0.960 . S
C2176 C2177 1.391 . S
C2176 C2178 1.394 . S
C2176 H2192 0.931 . S
C2177 C2176 1.391 . S
C2177 C2181 1.376 . S
C2178 C2176 1.394 . S
C2178 C2179 1.369 . S
C2178 C2182 1.531 . S
C2179 C2178 1.369 . S
C2179 C2180 1.410 . S
C2179 C2187 1.503 . S
C2180 C2179 1.410 . S
C2180 C2181 1.392 . S
C2180 C2183 1.511 . S
C2181 C2177 1.376 . S
C2181 C2180 1.392 . S
C2181 H2193 0.929 . S
C2182 C2178 1.531 . S
C2182 H2194 0.960 . S
C2182 H2195 0.962 . S
C2182 H2196 0.960 . S
C2183 C2180 1.511 . S
C2183 H2197 0.961 . S
C2183 H2198 0.961 . S
C2183 H2199 0.961 . S
C2184 C2185 1.370 . S
C2184 C2186 1.363 . S
C2184 H2200 0.931 . S
C2185 C2184 1.370 . S
C2185 C2189 1.408 . S
C2186 C2184 1.363 . S
C2186 C2187 1.370 . S
C2186 C2190 1.524 . S
C2187 C2179 1.503 . S
C2187 C2186 1.370 . S
C2187 C2188 1.403 . S
C2188 C2187 1.403 . S
C2188 C2189 1.404 . S
C2188 C2191 1.539 . S
C2189 C2185 1.408 . S
C2189 C2188 1.404 . S
C2189 H2201 0.930 . S
C2190 C2186 1.524 . S
C2190 H2202 0.956 . S
C2190 H2203 0.961 . S
C2190 H2204 0.961 . S
C2191 C2188 1.539 . S
C2191 H2205 0.958 . S
C2191 H2206 0.961 . S
C2191 H2207 0.960 . S
H2192 C2176 0.931 . S
H2193 C2181 0.929 . S
H2194 C2182 0.960 . S
H2195 C2182 0.962 . S
H2196 C2182 0.960 . S
H2197 C2183 0.961 . S
H2198 C2183 0.961 . S
H2199 C2183 0.961 . S
H2200 C2184 0.931 . S
H2201 C2189 0.930 . S
H2202 C2190 0.956 . S
H2203 C2190 0.961 . S
H2204 C2190 0.961 . S
H2205 C2191 0.958 . S
H2206 C2191 0.961 . S
H2207 C2191 0.960 . S
C2208 C2209 1.391 . S
C2208 C2210 1.394 . S
C2208 H2224 0.931 . S
C2209 C2208 1.391 . S
C2209 C2213 1.376 . S
C2210 C2208 1.394 . S
C2210 C2211 1.369 . S
C2210 C2214 1.531 . S
C2211 C2210 1.369 . S
C2211 C2212 1.410 . S
C2211 C2219 1.503 . S
C2212 C2211 1.410 . S
C2212 C2213 1.392 . S
C2212 C2215 1.511 . S
C2213 C2209 1.376 . S
C2213 C2212 1.392 . S
C2213 H2225 0.929 . S
C2214 C2210 1.531 . S
C2214 H2226 0.960 . S
C2214 H2227 0.962 . S
C2214 H2228 0.960 . S
C2215 C2212 1.511 . S
C2215 H2229 0.961 . S
C2215 H2230 0.961 . S
C2215 H2231 0.961 . S
C2216 C2217 1.370 . S
C2216 C2218 1.363 . S
C2216 H2232 0.931 . S
C2217 C2216 1.370 . S
C2217 C2221 1.408 . S
C2218 C2216 1.363 . S
C2218 C2219 1.370 . S
C2218 C2222 1.524 . S
C2219 C2211 1.503 . S
C2219 C2218 1.370 . S
C2219 C2220 1.403 . S
C2220 C2219 1.403 . S
C2220 C2221 1.404 . S
C2220 C2223 1.539 . S
C2221 C2217 1.408 . S
C2221 C2220 1.404 . S
C2221 H2233 0.930 . S
C2222 C2218 1.524 . S
C2222 H2234 0.956 . S
C2222 H2235 0.961 . S
C2222 H2236 0.961 . S
C2223 C2220 1.539 . S
C2223 H2237 0.958 . S
C2223 H2238 0.961 . S
C2223 H2239 0.960 . S
H2224 C2208 0.931 . S
H2225 C2213 0.929 . S
H2226 C2214 0.960 . S
H2227 C2214 0.962 . S
H2228 C2214 0.960 . S
H2229 C2215 0.961 . S
H2230 C2215 0.961 . S
H2231 C2215 0.961 . S
H2232 C2216 0.931 . S
H2233 C2221 0.930 . S
H2234 C2222 0.956 . S
H2235 C2222 0.961 . S
H2236 C2222 0.961 . S
H2237 C2223 0.958 . S
H2238 C2223 0.961 . S
H2239 C2223 0.960 . S
C2240 C2241 1.391 . S
C2240 C2242 1.394 . S
C2240 H2256 0.931 . S
C2241 C2240 1.391 . S
C2241 C2245 1.376 . S
C2242 C2240 1.394 . S
C2242 C2243 1.369 . S
C2242 C2246 1.531 . S
C2243 C2242 1.369 . S
C2243 C2244 1.410 . S
C2243 C2251 1.503 . S
C2244 C2243 1.410 . S
C2244 C2245 1.392 . S
C2244 C2247 1.511 . S
C2245 C2241 1.376 . S
C2245 C2244 1.392 . S
C2245 H2257 0.929 . S
C2246 C2242 1.531 . S
C2246 H2258 0.960 . S
C2246 H2259 0.962 . S
C2246 H2260 0.960 . S
C2247 C2244 1.511 . S
C2247 H2261 0.961 . S
C2247 H2262 0.961 . S
C2247 H2263 0.961 . S
C2248 C2249 1.370 . S
C2248 C2250 1.363 . S
C2248 H2264 0.931 . S
C2249 C2248 1.370 . S
C2249 C2253 1.408 . S
C2250 C2248 1.363 . S
C2250 C2251 1.370 . S
C2250 C2254 1.524 . S
C2251 C2243 1.503 . S
C2251 C2250 1.370 . S
C2251 C2252 1.403 . S
C2252 C2251 1.403 . S
C2252 C2253 1.404 . S
C2252 C2255 1.539 . S
C2253 C2249 1.408 . S
C2253 C2252 1.404 . S
C2253 H2265 0.930 . S
C2254 C2250 1.524 . S
C2254 H2266 0.956 . S
C2254 H2267 0.961 . S
C2254 H2268 0.961 . S
C2255 C2252 1.539 . S
C2255 H2269 0.958 . S
C2255 H2270 0.961 . S
C2255 H2271 0.960 . S
H2256 C2240 0.931 . S
H2257 C2245 0.929 . S
H2258 C2246 0.960 . S
H2259 C2246 0.962 . S
H2260 C2246 0.960 . S
H2261 C2247 0.961 . S
H2262 C2247 0.961 . S
H2263 C2247 0.961 . S
H2264 C2248 0.931 . S
H2265 C2253 0.930 . S
H2266 C2254 0.956 . S
H2267 C2254 0.961 . S
H2268 C2254 0.961 . S
H2269 C2255 0.958 . S
H2270 C2255 0.961 . S
H2271 C2255 0.960 . S
C2272 C2273 1.391 . S
C2272 C2274 1.394 . S
C2272 H2288 0.931 . S
C2273 C2272 1.391 . S
C2273 C2277 1.376 . S
C2274 C2272 1.394 . S
C2274 C2275 1.369 . S
C2274 C2278 1.531 . S
C2275 C2274 1.369 . S
C2275 C2276 1.410 . S
C2275 C2283 1.503 . S
C2276 C2275 1.410 . S
C2276 C2277 1.392 . S
C2276 C2279 1.511 . S
C2277 C2273 1.376 . S
C2277 C2276 1.392 . S
C2277 H2289 0.929 . S
C2278 C2274 1.531 . S
C2278 H2290 0.960 . S
C2278 H2291 0.962 . S
C2278 H2292 0.960 . S
C2279 C2276 1.511 . S
C2279 H2293 0.961 . S
C2279 H2294 0.961 . S
C2279 H2295 0.961 . S
C2280 C2281 1.370 . S
C2280 C2282 1.363 . S
C2280 H2296 0.931 . S
C2281 C2280 1.370 . S
C2281 C2285 1.408 . S
C2282 C2280 1.363 . S
C2282 C2283 1.370 . S
C2282 C2286 1.524 . S
C2283 C2275 1.503 . S
C2283 C2282 1.370 . S
C2283 C2284 1.403 . S
C2284 C2283 1.403 . S
C2284 C2285 1.404 . S
C2284 C2287 1.539 . S
C2285 C2281 1.408 . S
C2285 C2284 1.404 . S
C2285 H2297 0.930 . S
C2286 C2282 1.524 . S
C2286 H2298 0.956 . S
C2286 H2299 0.961 . S
C2286 H2300 0.961 . S
C2287 C2284 1.539 . S
C2287 H2301 0.958 . S
C2287 H2302 0.961 . S
C2287 H2303 0.960 . S
H2288 C2272 0.931 . S
H2289 C2277 0.929 . S
H2290 C2278 0.960 . S
H2291 C2278 0.962 . S
H2292 C2278 0.960 . S
H2293 C2279 0.961 . S
H2294 C2279 0.961 . S
H2295 C2279 0.961 . S
H2296 C2280 0.931 . S
H2297 C2285 0.930 . S
H2298 C2286 0.956 . S
H2299 C2286 0.961 . S
H2300 C2286 0.961 . S
H2301 C2287 0.958 . S
H2302 C2287 0.961 . S
H2303 C2287 0.960 . S
C2304 C2305 1.391 . S
C2304 C2306 1.394 . S
C2304 H2320 0.931 . S
C2305 C2304 1.391 . S
C2305 C2309 1.376 . S
C2306 C2304 1.394 . S
C2306 C2307 1.369 . S
C2306 C2310 1.531 . S
C2307 C2306 1.369 . S
C2307 C2308 1.410 . S
C2307 C2315 1.503 . S
C2308 C2307 1.410 . S
C2308 C2309 1.392 . S
C2308 C2311 1.511 . S
C2309 C2305 1.376 . S
C2309 C2308 1.392 . S
C2309 H2321 0.929 . S
C2310 C2306 1.531 . S
C2310 H2322 0.960 . S
C2310 H2323 0.962 . S
C2310 H2324 0.960 . S
C2311 C2308 1.511 . S
C2311 H2325 0.961 . S
C2311 H2326 0.961 . S
C2311 H2327 0.961 . S
C2312 C2313 1.370 . S
C2312 C2314 1.363 . S
C2312 H2328 0.931 . S
C2313 C2312 1.370 . S
C2313 C2317 1.408 . S
C2314 C2312 1.363 . S
C2314 C2315 1.370 . S
C2314 C2318 1.524 . S
C2315 C2307 1.503 . S
C2315 C2314 1.370 . S
C2315 C2316 1.403 . S
C2316 C2315 1.403 . S
C2316 C2317 1.404 . S
C2316 C2319 1.539 . S
C2317 C2313 1.408 . S
C2317 C2316 1.404 . S
C2317 H2329 0.930 . S
C2318 C2314 1.524 . S
C2318 H2330 0.956 . S
C2318 H2331 0.961 . S
C2318 H2332 0.961 . S
C2319 C2316 1.539 . S
C2319 H2333 0.958 . S
C2319 H2334 0.961 . S
C2319 H2335 0.960 . S
H2320 C2304 0.931 . S
H2321 C2309 0.929 . S
H2322 C2310 0.960 . S
H2323 C2310 0.962 . S
H2324 C2310 0.960 . S
H2325 C2311 0.961 . S
H2326 C2311 0.961 . S
H2327 C2311 0.961 . S
H2328 C2312 0.931 . S
H2329 C2317 0.930 . S
H2330 C2318 0.956 . S
H2331 C2318 0.961 . S
H2332 C2318 0.961 . S
H2333 C2319 0.958 . S
H2334 C2319 0.961 . S
H2335 C2319 0.960 . S
C2336 C2337 1.391 . S
C2336 C2338 1.394 . S
C2336 H2352 0.931 . S
C2337 C2336 1.391 . S
C2337 C2341 1.376 . S
C2338 C2336 1.394 . S
C2338 C2339 1.369 . S
C2338 C2342 1.531 . S
C2339 C2338 1.369 . S
C2339 C2340 1.410 . S
C2339 C2347 1.503 . S
C2340 C2339 1.410 . S
C2340 C2341 1.392 . S
C2340 C2343 1.511 . S
C2341 C2337 1.376 . S
C2341 C2340 1.392 . S
C2341 H2353 0.929 . S
C2342 C2338 1.531 . S
C2342 H2354 0.960 . S
C2342 H2355 0.962 . S
C2342 H2356 0.960 . S
C2343 C2340 1.511 . S
C2343 H2357 0.961 . S
C2343 H2358 0.961 . S
C2343 H2359 0.961 . S
C2344 C2345 1.370 . S
C2344 C2346 1.363 . S
C2344 H2360 0.931 . S
C2345 C2344 1.370 . S
C2345 C2349 1.408 . S
C2346 C2344 1.363 . S
C2346 C2347 1.370 . S
C2346 C2350 1.524 . S
C2347 C2339 1.503 . S
C2347 C2346 1.370 . S
C2347 C2348 1.403 . S
C2348 C2347 1.403 . S
C2348 C2349 1.404 . S
C2348 C2351 1.539 . S
C2349 C2345 1.408 . S
C2349 C2348 1.404 . S
C2349 H2361 0.930 . S
C2350 C2346 1.524 . S
C2350 H2362 0.956 . S
C2350 H2363 0.961 . S
C2350 H2364 0.961 . S
C2351 C2348 1.539 . S
C2351 H2365 0.958 . S
C2351 H2366 0.961 . S
C2351 H2367 0.960 . S
H2352 C2336 0.931 . S
H2353 C2341 0.929 . S
H2354 C2342 0.960 . S
H2355 C2342 0.962 . S
H2356 C2342 0.960 . S
H2357 C2343 0.961 . S
H2358 C2343 0.961 . S
H2359 C2343 0.961 . S
H2360 C2344 0.931 . S
H2361 C2349 0.930 . S
H2362 C2350 0.956 . S
H2363 C2350 0.961 . S
H2364 C2350 0.961 . S
H2365 C2351 0.958 . S
H2366 C2351 0.961 . S
H2367 C2351 0.960 . S
C2368 C2369 1.391 . S
C2368 C2370 1.394 . S
C2368 H2384 0.931 . S
C2369 C2368 1.391 . S
C2369 C2373 1.376 . S
C2370 C2368 1.394 . S
C2370 C2371 1.369 . S
C2370 C2374 1.531 . S
C2371 C2370 1.369 . S
C2371 C2372 1.410 . S
C2371 C2379 1.503 . S
C2372 C2371 1.410 . S
C2372 C2373 1.392 . S
C2372 C2375 1.511 . S
C2373 C2369 1.376 . S
C2373 C2372 1.392 . S
C2373 H2385 0.905 1_556 S
C2374 C2370 1.531 . S
C2374 H2386 0.960 . S
C2374 H2387 0.962 . S
C2374 H2388 0.960 . S
C2375 C2372 1.511 . S
C2375 H2389 0.961 . S
C2375 H2390 0.961 . S
C2375 H2391 0.961 . S
C2376 C2377 1.370 . S
C2376 C2378 1.363 . S
C2376 H2392 0.931 . S
C2377 C2376 1.370 . S
C2377 C2381 1.408 . S
C2378 C2376 1.363 . S
C2378 C2379 1.370 . S
C2378 C2382 1.524 . S
C2379 C2371 1.503 . S
C2379 C2378 1.370 . S
C2379 C2380 1.403 . S
C2380 C2379 1.403 . S
C2380 C2381 1.404 . S
C2380 C2383 1.539 . S
C2381 C2377 1.408 . S
C2381 C2380 1.404 . S
C2381 H2393 0.930 . S
C2382 C2378 1.524 . S
C2382 H2394 0.956 . S
C2382 H2395 0.961 . S
C2382 H2396 0.961 . S
C2383 C2380 1.539 . S
C2383 H2397 0.958 . S
C2383 H2398 0.961 . S
C2383 H2399 0.960 . S
H2384 C2368 0.931 . S
H2385 C2373 0.905 1_554 S
H2386 C2374 0.960 . S
H2387 C2374 0.962 . S
H2388 C2374 0.960 . S
H2389 C2375 0.961 . S
H2390 C2375 0.961 . S
H2391 C2375 0.961 . S
H2392 C2376 0.931 . S
H2393 C2381 0.930 . S
H2394 C2382 0.956 . S
H2395 C2382 0.961 . S
H2396 C2382 0.961 . S
H2397 C2383 0.958 . S
H2398 C2383 0.961 . S
H2399 C2383 0.960 . S
C2400 C2401 1.391 . S
C2400 C2402 1.394 . S
C2400 H2416 0.931 . S
C2401 C2400 1.391 . S
C2401 C2405 1.376 . S
C2402 C2400 1.394 . S
C2402 C2403 1.369 . S
C2402 C2406 1.531 . S
C2403 C2402 1.369 . S
C2403 C2404 1.410 . S
C2403 C2411 1.503 . S
C2404 C2403 1.410 . S
C2404 C2405 1.392 . S
C2404 C2407 1.511 . S
C2405 C2401 1.376 . S
C2405 C2404 1.392 . S
C2405 H2417 0.929 . S
C2406 C2402 1.531 . S
C2406 H2418 0.960 . S
C2406 H2419 0.962 . S
C2406 H2420 0.960 . S
C2407 C2404 1.511 . S
C2407 H2421 0.961 . S
C2407 H2422 0.961 . S
C2407 H2423 0.961 . S
C2408 C2409 1.370 . S
C2408 C2410 1.363 . S
C2408 H2424 0.931 . S
C2409 C2408 1.370 . S
C2409 C2413 1.408 . S
C2410 C2408 1.363 . S
C2410 C2411 1.370 . S
C2410 C2414 1.524 . S
C2411 C2403 1.503 . S
C2411 C2410 1.370 . S
C2411 C2412 1.403 . S
C2412 C2411 1.403 . S
C2412 C2413 1.404 . S
C2412 C2415 1.539 . S
C2413 C2409 1.408 . S
C2413 C2412 1.404 . S
C2413 H2425 0.930 . S
C2414 C2410 1.524 . S
C2414 H2426 0.956 . S
C2414 H2427 0.961 . S
C2414 H2428 0.961 . S
C2415 C2412 1.539 . S
C2415 H2429 0.958 . S
C2415 H2430 0.961 . S
C2415 H2431 0.960 . S
H2416 C2400 0.931 . S
H2417 C2405 0.929 . S
H2418 C2406 0.960 . S
H2419 C2406 0.962 . S
H2420 C2406 0.960 . S
H2421 C2407 0.961 . S
H2422 C2407 0.961 . S
H2423 C2407 0.961 . S
H2424 C2408 0.931 . S
H2425 C2413 0.930 . S
H2426 C2414 0.956 . S
H2427 C2414 0.961 . S
H2428 C2414 0.961 . S
H2429 C2415 0.958 . S
H2430 C2415 0.961 . S
H2431 C2415 0.960 . S
C2432 C2433 1.391 . S
C2432 C2434 1.394 . S
C2432 H2448 0.931 . S
C2433 C2432 1.391 . S
C2433 C2437 1.376 . S
C2434 C2432 1.394 . S
C2434 C2435 1.369 . S
C2434 C2438 1.531 . S
C2435 C2434 1.369 . S
C2435 C2436 1.410 . S
C2435 C2443 1.503 . S
C2436 C2435 1.410 . S
C2436 C2437 1.392 . S
C2436 C2439 1.511 . S
C2437 C2433 1.376 . S
C2437 C2436 1.392 . S
C2437 H2449 0.929 . S
C2438 C2434 1.531 . S
C2438 H2450 0.960 . S
C2438 H2451 0.962 . S
C2438 H2452 0.960 . S
C2439 C2436 1.511 . S
C2439 H2453 0.961 . S
C2439 H2454 0.961 . S
C2439 H2455 0.961 . S
C2440 C2441 1.370 . S
C2440 C2442 1.363 . S
C2440 H2456 0.931 . S
C2441 C2440 1.370 . S
C2441 C2445 1.408 . S
C2442 C2440 1.363 . S
C2442 C2443 1.370 . S
C2442 C2446 1.524 . S
C2443 C2435 1.503 . S
C2443 C2442 1.370 . S
C2443 C2444 1.403 . S
C2444 C2443 1.403 . S
C2444 C2445 1.404 . S
C2444 C2447 1.539 . S
C2445 C2441 1.408 . S
C2445 C2444 1.404 . S
C2445 H2457 0.930 . S
C2446 C2442 1.524 . S
C2446 H2458 0.956 . S
C2446 H2459 0.961 . S
C2446 H2460 0.961 . S
C2447 C2444 1.539 . S
C2447 H2461 0.958 . S
C2447 H2462 0.961 . S
C2447 H2463 0.960 . S
H2448 C2432 0.931 . S
H2449 C2437 0.929 . S
H2450 C2438 0.960 . S
H2451 C2438 0.962 . S
H2452 C2438 0.960 . S
H2453 C2439 0.961 . S
H2454 C2439 0.961 . S
H2455 C2439 0.961 . S
H2456 C2440 0.931 . S
H2457 C2445 0.930 . S
H2458 C2446 0.956 . S
H2459 C2446 0.961 . S
H2460 C2446 0.961 . S
H2461 C2447 0.958 . S
H2462 C2447 0.961 . S
H2463 C2447 0.960 . S
C2464 C2465 1.391 . S
C2464 C2466 1.394 . S
C2464 H2480 0.931 . S
C2465 C2464 1.391 . S
C2465 C2469 1.376 . S
C2466 C2464 1.394 . S
C2466 C2467 1.369 . S
C2466 C2470 1.531 . S
C2467 C2466 1.369 . S
C2467 C2468 1.410 . S
C2467 C2475 1.503 . S
C2468 C2467 1.410 . S
C2468 C2469 1.392 . S
C2468 C2471 1.511 . S
C2469 C2465 1.376 . S
C2469 C2468 1.392 . S
C2469 H2481 0.929 . S
C2470 C2466 1.531 . S
C2470 H2482 0.960 . S
C2470 H2483 0.962 . S
C2470 H2484 0.960 . S
C2471 C2468 1.511 . S
C2471 H2485 0.961 . S
C2471 H2486 0.961 . S
C2471 H2487 0.961 . S
C2472 C2473 1.370 . S
C2472 C2474 1.363 . S
C2472 H2488 0.931 . S
C2473 C2472 1.370 . S
C2473 C2477 1.408 . S
C2474 C2472 1.363 . S
C2474 C2475 1.370 . S
C2474 C2478 1.524 . S
C2475 C2467 1.503 . S
C2475 C2474 1.370 . S
C2475 C2476 1.403 . S
C2476 C2475 1.403 . S
C2476 C2477 1.404 . S
C2476 C2479 1.539 . S
C2477 C2473 1.408 . S
C2477 C2476 1.404 . S
C2477 H2489 0.930 . S
C2478 C2474 1.524 . S
C2478 H2490 0.956 . S
C2478 H2491 0.961 . S
C2478 H2492 0.961 . S
C2479 C2476 1.539 . S
C2479 H2493 0.958 . S
C2479 H2494 0.961 . S
C2479 H2495 0.960 . S
H2480 C2464 0.931 . S
H2481 C2469 0.929 . S
H2482 C2470 0.960 . S
H2483 C2470 0.962 . S
H2484 C2470 0.960 . S
H2485 C2471 0.961 . S
H2486 C2471 0.961 . S
H2487 C2471 0.961 . S
H2488 C2472 0.931 . S
H2489 C2477 0.930 . S
H2490 C2478 0.956 . S
H2491 C2478 0.961 . S
H2492 C2478 0.961 . S
H2493 C2479 0.958 . S
H2494 C2479 0.961 . S
H2495 C2479 0.960 . S
C2496 C2497 1.391 . S
C2496 C2498 1.394 . S
C2496 H2512 0.931 . S
C2497 C2496 1.391 . S
C2497 C2501 1.376 . S
C2498 C2496 1.394 . S
C2498 C2499 1.369 . S
C2498 C2502 1.531 . S
C2499 C2498 1.369 . S
C2499 C2500 1.410 . S
C2499 C2507 1.503 . S
C2500 C2499 1.410 . S
C2500 C2501 1.392 . S
C2500 C2503 1.511 . S
C2501 C2497 1.376 . S
C2501 C2500 1.392 . S
C2501 H2513 0.929 . S
C2502 C2498 1.531 . S
C2502 H2514 0.960 . S
C2502 H2515 0.962 . S
C2502 H2516 0.960 . S
C2503 C2500 1.511 . S
C2503 H2517 0.961 . S
C2503 H2518 0.961 . S
C2503 H2519 0.961 . S
C2504 C2505 1.370 . S
C2504 C2506 1.363 . S
C2504 H2520 0.931 . S
C2505 C2504 1.370 . S
C2505 C2509 1.408 . S
C2506 C2504 1.363 . S
C2506 C2507 1.370 . S
C2506 C2510 1.524 . S
C2507 C2499 1.503 . S
C2507 C2506 1.370 . S
C2507 C2508 1.403 . S
C2508 C2507 1.403 . S
C2508 C2509 1.404 . S
C2508 C2511 1.539 . S
C2509 C2505 1.408 . S
C2509 C2508 1.404 . S
C2509 H2521 0.930 1_554 S
C2510 C2506 1.524 . S
C2510 H2522 0.956 . S
C2510 H2523 0.961 . S
C2510 H2524 0.961 . S
C2511 C2508 1.539 . S
C2511 H2525 0.958 . S
C2511 H2526 0.961 . S
C2511 H2527 0.960 . S
H2512 C2496 0.931 . S
H2513 C2501 0.929 . S
H2514 C2502 0.960 . S
H2515 C2502 0.962 . S
H2516 C2502 0.960 . S
H2517 C2503 0.961 . S
H2518 C2503 0.961 . S
H2519 C2503 0.961 . S
H2520 C2504 0.931 . S
H2521 C2509 0.930 1_556 S
H2522 C2510 0.956 . S
H2523 C2510 0.961 . S
H2524 C2510 0.961 . S
H2525 C2511 0.958 . S
H2526 C2511 0.961 . S
H2527 C2511 0.960 . S
C2528 C2529 1.391 . S
C2528 C2530 1.394 . S
C2528 H2544 0.931 . S
C2529 C2528 1.391 . S
C2529 C2533 1.376 . S
C2530 C2528 1.394 . S
C2530 C2531 1.369 . S
C2530 C2534 1.531 . S
C2531 C2530 1.369 . S
C2531 C2532 1.410 . S
C2531 C2539 1.503 . S
C2532 C2531 1.410 . S
C2532 C2533 1.392 . S
C2532 C2535 1.511 . S
C2533 C2529 1.376 . S
C2533 C2532 1.392 . S
C2533 H2545 0.929 . S
C2534 C2530 1.531 . S
C2534 H2546 0.960 . S
C2534 H2547 0.962 . S
C2534 H2548 0.960 . S
C2535 C2532 1.511 . S
C2535 H2549 0.961 . S
C2535 H2550 0.961 . S
C2535 H2551 0.961 . S
C2536 C2537 1.370 . S
C2536 C2538 1.363 . S
C2536 H2552 0.931 . S
C2537 C2536 1.370 . S
C2537 C2541 1.408 . S
C2538 C2536 1.363 . S
C2538 C2539 1.370 . S
C2538 C2542 1.524 . S
C2539 C2531 1.503 . S
C2539 C2538 1.370 . S
C2539 C2540 1.403 . S
C2540 C2539 1.403 . S
C2540 C2541 1.404 . S
C2540 C2543 1.539 . S
C2541 C2537 1.408 . S
C2541 C2540 1.404 . S
C2541 H2553 0.930 . S
C2542 C2538 1.524 . S
C2542 H2554 0.956 . S
C2542 H2555 0.961 . S
C2542 H2556 0.961 . S
C2543 C2540 1.539 . S
C2543 H2557 0.958 . S
C2543 H2558 0.961 . S
C2543 H2559 0.960 . S
H2544 C2528 0.931 . S
H2545 C2533 0.929 . S
H2546 C2534 0.960 . S
H2547 C2534 0.962 . S
H2548 C2534 0.960 . S
H2549 C2535 0.961 . S
H2550 C2535 0.961 . S
H2551 C2535 0.961 . S
H2552 C2536 0.931 . S
H2553 C2541 0.930 . S
H2554 C2542 0.956 . S
H2555 C2542 0.961 . S
H2556 C2542 0.961 . S
H2557 C2543 0.958 . S
H2558 C2543 0.961 . S
H2559 C2543 0.960 . S
C2560 C2561 1.391 . S
C2560 C2562 1.394 . S
C2560 H2576 0.931 . S
C2561 C2560 1.391 . S
C2561 C2565 1.376 . S
C2562 C2560 1.394 . S
C2562 C2563 1.369 . S
C2562 C2566 1.531 . S
C2563 C2562 1.369 . S
C2563 C2564 1.410 . S
C2563 C2571 1.503 . S
C2564 C2563 1.410 . S
C2564 C2565 1.392 . S
C2564 C2567 1.511 . S
C2565 C2561 1.376 . S
C2565 C2564 1.392 . S
C2565 H2577 0.929 . S
C2566 C2562 1.531 . S
C2566 H2578 0.960 . S
C2566 H2579 0.962 . S
C2566 H2580 0.960 . S
C2567 C2564 1.511 . S
C2567 H2581 0.961 . S
C2567 H2582 0.961 . S
C2567 H2583 0.961 . S
C2568 C2569 1.370 . S
C2568 C2570 1.363 . S
C2568 H2584 0.931 . S
C2569 C2568 1.370 . S
C2569 C2573 1.408 . S
C2570 C2568 1.363 . S
C2570 C2571 1.370 . S
C2570 C2574 1.524 . S
C2571 C2563 1.503 . S
C2571 C2570 1.370 . S
C2571 C2572 1.403 . S
C2572 C2571 1.403 . S
C2572 C2573 1.404 . S
C2572 C2575 1.539 . S
C2573 C2569 1.408 . S
C2573 C2572 1.404 . S
C2573 H2585 0.930 . S
C2574 C2570 1.524 . S
C2574 H2586 0.956 . S
C2574 H2587 0.961 . S
C2574 H2588 0.961 . S
C2575 C2572 1.539 . S
C2575 H2589 0.958 . S
C2575 H2590 0.961 . S
C2575 H2591 0.960 . S
H2576 C2560 0.931 . S
H2577 C2565 0.929 . S
H2578 C2566 0.960 . S
H2579 C2566 0.962 . S
H2580 C2566 0.960 . S
H2581 C2567 0.961 . S
H2582 C2567 0.961 . S
H2583 C2567 0.961 . S
H2584 C2568 0.931 . S
H2585 C2573 0.930 . S
H2586 C2574 0.956 . S
H2587 C2574 0.961 . S
H2588 C2574 0.961 . S
H2589 C2575 0.958 . S
H2590 C2575 0.961 . S
H2591 C2575 0.960 . S
C2592 C2593 1.391 . S
C2592 C2594 1.394 . S
C2592 H2608 0.931 . S
C2593 C2592 1.391 . S
C2593 C2597 1.376 . S
C2594 C2592 1.394 . S
C2594 C2595 1.369 . S
C2594 C2598 1.531 . S
C2595 C2594 1.369 . S
C2595 C2596 1.410 . S
C2595 C2603 1.503 . S
C2596 C2595 1.410 . S
C2596 C2597 1.392 . S
C2596 C2599 1.511 . S
C2597 C2593 1.376 . S
C2597 C2596 1.392 . S
C2597 H2609 0.929 . S
C2598 C2594 1.531 . S
C2598 H2610 0.960 . S
C2598 H2611 0.962 . S
C2598 H2612 0.960 . S
C2599 C2596 1.511 . S
C2599 H2613 0.961 . S
C2599 H2614 0.961 . S
C2599 H2615 0.961 . S
C2600 C2601 1.370 . S
C2600 C2602 1.363 . S
C2600 H2616 0.931 . S
C2601 C2600 1.370 . S
C2601 C2605 1.408 . S
C2602 C2600 1.363 . S
C2602 C2603 1.370 . S
C2602 C2606 1.524 . S
C2603 C2595 1.503 . S
C2603 C2602 1.370 . S
C2603 C2604 1.403 . S
C2604 C2603 1.403 . S
C2604 C2605 1.404 . S
C2604 C2607 1.539 . S
C2605 C2601 1.408 . S
C2605 C2604 1.404 . S
C2605 H2617 0.930 . S
C2606 C2602 1.524 . S
C2606 H2618 0.956 . S
C2606 H2619 0.961 . S
C2606 H2620 0.961 . S
C2607 C2604 1.539 . S
C2607 H2621 0.958 . S
C2607 H2622 0.961 . S
C2607 H2623 0.960 . S
H2608 C2592 0.931 . S
H2609 C2597 0.929 . S
H2610 C2598 0.960 . S
H2611 C2598 0.962 . S
H2612 C2598 0.960 . S
H2613 C2599 0.961 . S
H2614 C2599 0.961 . S
H2615 C2599 0.961 . S
H2616 C2600 0.931 . S
H2617 C2605 0.930 . S
H2618 C2606 0.956 . S
H2619 C2606 0.961 . S
H2620 C2606 0.961 . S
H2621 C2607 0.958 . S
H2622 C2607 0.961 . S
H2623 C2607 0.960 . S
C2624 C2625 1.391 . S
C2624 C2626 1.394 . S
C2624 H2640 0.931 . S
C2625 C2624 1.391 . S
C2625 C2629 1.376 . S
C2626 C2624 1.394 . S
C2626 C2627 1.369 . S
C2626 C2630 1.531 . S
C2627 C2626 1.369 . S
C2627 C2628 1.410 . S
C2627 C2635 1.503 . S
C2628 C2627 1.410 . S
C2628 C2629 1.392 . S
C2628 C2631 1.511 . S
C2629 C2625 1.376 . S
C2629 C2628 1.392 . S
C2629 H2641 0.929 . S
C2630 C2626 1.531 . S
C2630 H2642 0.960 . S
C2630 H2643 0.962 . S
C2630 H2644 0.960 . S
C2631 C2628 1.511 . S
C2631 H2645 0.961 . S
C2631 H2646 0.961 . S
C2631 H2647 0.961 . S
C2632 C2633 1.370 . S
C2632 C2634 1.363 . S
C2632 H2648 0.931 . S
C2633 C2632 1.370 . S
C2633 C2637 1.408 . S
C2634 C2632 1.363 . S
C2634 C2635 1.370 . S
C2634 C2638 1.524 . S
C2635 C2627 1.503 . S
C2635 C2634 1.370 . S
C2635 C2636 1.403 . S
C2636 C2635 1.403 . S
C2636 C2637 1.404 . S
C2636 C2639 1.539 . S
C2637 C2633 1.408 . S
C2637 C2636 1.404 . S
C2637 H2649 0.930 . S
C2638 C2634 1.524 . S
C2638 H2650 0.956 . S
C2638 H2651 0.961 . S
C2638 H2652 0.961 . S
C2639 C2636 1.539 . S
C2639 H2653 0.958 . S
C2639 H2654 0.961 . S
C2639 H2655 0.960 . S
H2640 C2624 0.931 . S
H2641 C2629 0.929 . S
H2642 C2630 0.960 . S
H2643 C2630 0.962 . S
H2644 C2630 0.960 . S
H2645 C2631 0.961 . S
H2646 C2631 0.961 . S
H2647 C2631 0.961 . S
H2648 C2632 0.931 . S
H2649 C2637 0.930 . S
H2650 C2638 0.956 . S
H2651 C2638 0.961 . S
H2652 C2638 0.961 . S
H2653 C2639 0.958 . S
H2654 C2639 0.961 . S
H2655 C2639 0.960 . S
C2656 C2657 1.391 . S
C2656 C2658 1.394 . S
C2656 H2672 0.931 . S
C2657 C2656 1.391 . S
C2657 C2661 1.376 . S
C2658 C2656 1.394 . S
C2658 C2659 1.369 . S
C2658 C2662 1.531 . S
C2659 C2658 1.369 . S
C2659 C2660 1.410 . S
C2659 C2667 1.503 . S
C2660 C2659 1.410 . S
C2660 C2661 1.392 . S
C2660 C2663 1.511 . S
C2661 C2657 1.376 . S
C2661 C2660 1.392 . S
C2661 H2673 0.929 . S
C2662 C2658 1.531 . S
C2662 H2674 0.960 . S
C2662 H2675 0.962 . S
C2662 H2676 0.960 . S
C2663 C2660 1.511 . S
C2663 H2677 0.961 . S
C2663 H2678 0.961 . S
C2663 H2679 0.961 . S
C2664 C2665 1.370 . S
C2664 C2666 1.363 . S
C2664 H2680 0.931 . S
C2665 C2664 1.370 . S
C2665 C2669 1.409 1_565 S
C2666 C2664 1.363 . S
C2666 C2667 1.370 . S
C2666 C2670 1.524 . S
C2667 C2659 1.503 . S
C2667 C2666 1.370 . S
C2667 C2668 1.403 . S
C2668 C2667 1.403 . S
C2668 C2669 1.404 1_565 S
C2668 C2671 1.539 . S
C2669 C2665 1.409 1_545 S
C2669 C2668 1.404 1_545 S
C2669 H2681 0.929 . S
C2670 C2666 1.524 . S
C2670 H2682 0.956 . S
C2670 H2683 0.961 . S
C2670 H2684 0.961 . S
C2671 C2668 1.539 . S
C2671 H2685 0.958 1_565 S
C2671 H2686 0.961 1_565 S
C2671 H2687 0.960 . S
H2672 C2656 0.931 . S
H2673 C2661 0.929 . S
H2674 C2662 0.960 . S
H2675 C2662 0.962 . S
H2676 C2662 0.960 . S
H2677 C2663 0.961 . S
H2678 C2663 0.961 . S
H2679 C2663 0.961 . S
H2680 C2664 0.931 . S
H2681 C2669 0.929 . S
H2682 C2670 0.956 . S
H2683 C2670 0.961 . S
H2684 C2670 0.961 . S
H2685 C2671 0.958 1_545 S
H2686 C2671 0.961 1_545 S
H2687 C2671 0.960 . S
C2688 C2689 1.391 . S
C2688 C2690 1.394 . S
C2688 H2704 0.931 . S
C2689 C2688 1.391 . S
C2689 C2693 1.376 . S
C2690 C2688 1.394 . S
C2690 C2691 1.369 . S
C2690 C2694 1.531 . S
C2691 C2690 1.369 . S
C2691 C2692 1.410 . S
C2691 C2699 1.503 . S
C2692 C2691 1.410 . S
C2692 C2693 1.392 . S
C2692 C2695 1.511 . S
C2693 C2689 1.376 . S
C2693 C2692 1.392 . S
C2693 H2705 0.929 . S
C2694 C2690 1.531 . S
C2694 H2706 0.960 . S
C2694 H2707 0.962 . S
C2694 H2708 0.960 . S
C2695 C2692 1.511 . S
C2695 H2709 0.961 . S
C2695 H2710 0.961 . S
C2695 H2711 0.961 . S
C2696 C2697 1.370 . S
C2696 C2698 1.363 . S
C2696 H2712 0.931 1_556 S
C2697 C2696 1.370 . S
C2697 C2701 1.408 . S
C2698 C2696 1.363 . S
C2698 C2699 1.370 . S
C2698 C2702 1.524 . S
C2699 C2691 1.503 . S
C2699 C2698 1.370 . S
C2699 C2700 1.403 . S
C2700 C2699 1.403 . S
C2700 C2701 1.404 . S
C2700 C2703 1.539 . S
C2701 C2697 1.408 . S
C2701 C2700 1.404 . S
C2701 H2713 0.930 . S
C2702 C2698 1.524 . S
C2702 H2714 0.956 . S
C2702 H2715 0.961 . S
C2702 H2716 0.961 . S
C2703 C2700 1.539 . S
C2703 H2717 0.958 . S
C2703 H2718 0.961 . S
C2703 H2719 0.960 . S
H2704 C2688 0.931 . S
H2705 C2693 0.929 . S
H2706 C2694 0.960 . S
H2707 C2694 0.962 . S
H2708 C2694 0.960 . S
H2709 C2695 0.961 . S
H2710 C2695 0.961 . S
H2711 C2695 0.961 . S
H2712 C2696 0.931 1_554 S
H2713 C2701 0.930 . S
H2714 C2702 0.956 . S
H2715 C2702 0.961 . S
H2716 C2702 0.961 . S
H2717 C2703 0.958 . S
H2718 C2703 0.961 . S
H2719 C2703 0.960 . S
C2720 C2721 1.391 . S
C2720 C2722 1.394 . S
C2720 H2736 0.931 . S
C2721 C2720 1.391 . S
C2721 C2725 1.376 . S
C2722 C2720 1.394 . S
C2722 C2723 1.369 . S
C2722 C2726 1.531 . S
C2723 C2722 1.369 . S
C2723 C2724 1.410 . S
C2723 C2731 1.503 . S
C2724 C2723 1.410 . S
C2724 C2725 1.392 . S
C2724 C2727 1.511 . S
C2725 C2721 1.376 . S
C2725 C2724 1.392 . S
C2725 H2737 0.929 . S
C2726 C2722 1.531 . S
C2726 H2738 0.960 . S
C2726 H2739 0.962 . S
C2726 H2740 0.960 . S
C2727 C2724 1.511 . S
C2727 H2741 0.961 . S
C2727 H2742 0.961 . S
C2727 H2743 0.961 . S
C2728 C2729 1.370 . S
C2728 C2730 1.363 . S
C2728 H2744 0.931 . S
C2729 C2728 1.370 . S
C2729 C2733 1.408 . S
C2730 C2728 1.363 . S
C2730 C2731 1.370 . S
C2730 C2734 1.524 . S
C2731 C2723 1.503 . S
C2731 C2730 1.370 . S
C2731 C2732 1.403 . S
C2732 C2731 1.403 . S
C2732 C2733 1.404 . S
C2732 C2735 1.539 . S
C2733 C2729 1.408 . S
C2733 C2732 1.404 . S
C2733 H2745 0.930 . S
C2734 C2730 1.524 . S
C2734 H2746 0.956 . S
C2734 H2747 0.961 . S
C2734 H2748 0.961 . S
C2735 C2732 1.539 . S
C2735 H2749 0.958 . S
C2735 H2750 0.961 . S
C2735 H2751 0.960 . S
H2736 C2720 0.931 . S
H2737 C2725 0.929 . S
H2738 C2726 0.960 . S
H2739 C2726 0.962 . S
H2740 C2726 0.960 . S
H2741 C2727 0.961 . S
H2742 C2727 0.961 . S
H2743 C2727 0.961 . S
H2744 C2728 0.931 . S
H2745 C2733 0.930 . S
H2746 C2734 0.956 . S
H2747 C2734 0.961 . S
H2748 C2734 0.961 . S
H2749 C2735 0.958 . S
H2750 C2735 0.961 . S
H2751 C2735 0.960 . S
C2752 C2753 1.391 . S
C2752 C2754 1.394 . S
C2752 H2768 0.931 . S
C2753 C2752 1.391 . S
C2753 C2757 1.376 . S
C2754 C2752 1.394 . S
C2754 C2755 1.369 . S
C2754 C2758 1.531 . S
C2755 C2754 1.369 . S
C2755 C2756 1.410 . S
C2755 C2763 1.503 . S
C2756 C2755 1.410 . S
C2756 C2757 1.392 . S
C2756 C2759 1.511 . S
C2757 C2753 1.376 . S
C2757 C2756 1.392 . S
C2757 H2769 0.929 . S
C2758 C2754 1.531 . S
C2758 H2770 0.960 . S
C2758 H2771 0.962 . S
C2758 H2772 0.960 . S
C2759 C2756 1.511 . S
C2759 H2773 0.961 . S
C2759 H2774 0.961 . S
C2759 H2775 0.961 . S
C2760 C2761 1.370 . S
C2760 C2762 1.363 . S
C2760 H2776 0.931 . S
C2761 C2760 1.370 . S
C2761 C2765 1.408 . S
C2762 C2760 1.363 . S
C2762 C2763 1.370 . S
C2762 C2766 1.524 . S
C2763 C2755 1.503 . S
C2763 C2762 1.370 . S
C2763 C2764 1.403 . S
C2764 C2763 1.403 . S
C2764 C2765 1.404 . S
C2764 C2767 1.539 . S
C2765 C2761 1.408 . S
C2765 C2764 1.404 . S
C2765 H2777 0.930 . S
C2766 C2762 1.524 . S
C2766 H2778 0.956 . S
C2766 H2779 0.961 . S
C2766 H2780 0.961 . S
C2767 C2764 1.539 . S
C2767 H2781 0.958 . S
C2767 H2782 0.961 . S
C2767 H2783 0.960 . S
H2768 C2752 0.931 . S
H2769 C2757 0.929 . S
H2770 C2758 0.960 . S
H2771 C2758 0.962 . S
H2772 C2758 0.960 . S
H2773 C2759 0.961 . S
H2774 C2759 0.961 . S
H2775 C2759 0.961 . S
H2776 C2760 0.931 . S
H2777 C2765 0.930 . S
H2778 C2766 0.956 . S
H2779 C2766 0.961 . S
H2780 C2766 0.961 . S
H2781 C2767 0.958 . S
H2782 C2767 0.961 . S
H2783 C2767 0.960 . S
C2784 C2785 1.391 . S
C2784 C2786 1.394 . S
C2784 H2800 0.931 . S
C2785 C2784 1.391 . S
C2785 C2789 1.376 . S
C2786 C2784 1.394 . S
C2786 C2787 1.369 . S
C2786 C2790 1.531 . S
C2787 C2786 1.369 . S
C2787 C2788 1.410 . S
C2787 C2795 1.503 . S
C2788 C2787 1.410 . S
C2788 C2789 1.392 . S
C2788 C2791 1.511 . S
C2789 C2785 1.376 . S
C2789 C2788 1.392 . S
C2789 H2801 0.929 . S
C2790 C2786 1.531 . S
C2790 H2802 0.960 . S
C2790 H2803 0.962 . S
C2790 H2804 0.960 . S
C2791 C2788 1.511 . S
C2791 H2805 0.961 . S
C2791 H2806 0.961 . S
C2791 H2807 0.961 . S
C2792 C2793 1.370 . S
C2792 C2794 1.363 . S
C2792 H2808 0.931 1_545 S
C2793 C2792 1.370 . S
C2793 C2797 1.408 . S
C2794 C2792 1.363 . S
C2794 C2795 1.370 . S
C2794 C2798 1.524 . S
C2795 C2787 1.503 . S
C2795 C2794 1.370 . S
C2795 C2796 1.403 . S
C2796 C2795 1.403 . S
C2796 C2797 1.404 . S
C2796 C2799 1.539 . S
C2797 C2793 1.408 . S
C2797 C2796 1.404 . S
C2797 H2809 0.930 . S
C2798 C2794 1.524 . S
C2798 H2810 0.956 . S
C2798 H2811 0.961 . S
C2798 H2812 0.961 1_545 S
C2799 C2796 1.539 . S
C2799 H2813 0.958 . S
C2799 H2814 0.961 . S
C2799 H2815 0.960 . S
H2800 C2784 0.931 . S
H2801 C2789 0.929 . S
H2802 C2790 0.960 . S
H2803 C2790 0.962 . S
H2804 C2790 0.960 . S
H2805 C2791 0.961 . S
H2806 C2791 0.961 . S
H2807 C2791 0.961 . S
H2808 C2792 0.931 1_565 S
H2809 C2797 0.930 . S
H2810 C2798 0.956 . S
H2811 C2798 0.961 . S
H2812 C2798 0.961 1_565 S
H2813 C2799 0.958 . S
H2814 C2799 0.961 . S
H2815 C2799 0.960 . S
C2816 C2817 1.391 . S
C2816 C2818 1.394 . S
C2816 H2832 0.931 . S
C2817 C2816 1.391 . S
C2817 C2821 1.376 . S
C2818 C2816 1.394 . S
C2818 C2819 1.369 . S
C2818 C2822 1.531 . S
C2819 C2818 1.369 . S
C2819 C2820 1.410 . S
C2819 C2827 1.503 . S
C2820 C2819 1.410 . S
C2820 C2821 1.392 . S
C2820 C2823 1.511 . S
C2821 C2817 1.376 . S
C2821 C2820 1.392 . S
C2821 H2833 0.929 . S
C2822 C2818 1.531 . S
C2822 H2834 0.960 . S
C2822 H2835 0.962 . S
C2822 H2836 0.960 . S
C2823 C2820 1.511 . S
C2823 H2837 0.961 . S
C2823 H2838 0.961 . S
C2823 H2839 0.961 . S
C2824 C2825 1.370 . S
C2824 C2826 1.363 . S
C2824 H2840 0.931 . S
C2825 C2824 1.370 . S
C2825 C2829 1.408 . S
C2826 C2824 1.363 . S
C2826 C2827 1.370 . S
C2826 C2830 1.524 . S
C2827 C2819 1.503 . S
C2827 C2826 1.370 . S
C2827 C2828 1.403 . S
C2828 C2827 1.403 . S
C2828 C2829 1.404 . S
C2828 C2831 1.539 . S
C2829 C2825 1.408 . S
C2829 C2828 1.404 . S
C2829 H2841 0.930 1_554 S
C2830 C2826 1.524 . S
C2830 H2842 0.956 . S
C2830 H2843 0.961 . S
C2830 H2844 0.961 . S
C2831 C2828 1.539 . S
C2831 H2845 0.958 . S
C2831 H2846 0.961 . S
C2831 H2847 0.960 . S
H2832 C2816 0.931 . S
H2833 C2821 0.929 . S
H2834 C2822 0.960 . S
H2835 C2822 0.962 . S
H2836 C2822 0.960 . S
H2837 C2823 0.961 . S
H2838 C2823 0.961 . S
H2839 C2823 0.961 . S
H2840 C2824 0.931 . S
H2841 C2829 0.930 1_556 S
H2842 C2830 0.956 . S
H2843 C2830 0.961 . S
H2844 C2830 0.961 . S
H2845 C2831 0.958 . S
H2846 C2831 0.961 . S
H2847 C2831 0.960 . S
C2848 C2849 1.391 . S
C2848 C2850 1.394 . S
C2848 H2864 0.931 . S
C2849 C2848 1.391 . S
C2849 C2853 1.376 . S
C2850 C2848 1.394 . S
C2850 C2851 1.369 . S
C2850 C2854 1.531 . S
C2851 C2850 1.369 . S
C2851 C2852 1.410 . S
C2851 C2859 1.503 . S
C2852 C2851 1.410 . S
C2852 C2853 1.392 . S
C2852 C2855 1.511 . S
C2853 C2849 1.376 . S
C2853 C2852 1.392 . S
C2853 H2865 0.929 . S
C2854 C2850 1.531 . S
C2854 H2866 0.960 . S
C2854 H2867 0.962 . S
C2854 H2868 0.960 . S
C2855 C2852 1.511 . S
C2855 H2869 0.961 . S
C2855 H2870 0.961 . S
C2855 H2871 0.961 . S
C2856 C2857 1.370 . S
C2856 C2858 1.363 . S
C2856 H2872 0.931 . S
C2857 C2856 1.370 . S
C2857 C2861 1.408 1_565 S
C2858 C2856 1.363 . S
C2858 C2859 1.370 . S
C2858 C2862 1.524 . S
C2859 C2851 1.503 . S
C2859 C2858 1.370 . S
C2859 C2860 1.403 . S
C2860 C2859 1.403 . S
C2860 C2861 1.404 1_565 S
C2860 C2863 1.539 1_565 S
C2861 C2857 1.408 1_545 S
C2861 C2860 1.404 1_545 S
C2861 H2873 0.930 . S
C2862 C2858 1.524 . S
C2862 H2874 0.956 . S
C2862 H2875 0.961 . S
C2862 H2876 0.961 . S
C2863 C2860 1.539 1_545 S
C2863 H2877 0.958 . S
C2863 H2878 0.961 . S
C2863 H2879 0.960 1_545 S
H2864 C2848 0.931 . S
H2865 C2853 0.929 . S
H2866 C2854 0.960 . S
H2867 C2854 0.962 . S
H2868 C2854 0.960 . S
H2869 C2855 0.961 . S
H2870 C2855 0.961 . S
H2871 C2855 0.961 . S
H2872 C2856 0.931 . S
H2873 C2861 0.930 . S
H2874 C2862 0.956 . S
H2875 C2862 0.961 . S
H2876 C2862 0.961 . S
H2877 C2863 0.958 . S
H2878 C2863 0.961 . S
H2879 C2863 0.960 1_565 S
C1345 C63 3.022 . S
C1353 C903 3.030 . S
C1377 C147 3.021 . S
C1385 C987 3.031 . S
C1409 C231 3.039 . S
C1417 C735 3.043 . S
C1441 C819 3.024 . S
C1449 C315 3.040 . S
C1473 C410 3.031 . S
C1481 C1250 3.043 . S
C1505 C1334 3.016 . S
C1513 C494 3.035 . S
C1537 C1082 3.046 . S
C1545 C578 3.040 . S
C1569 C662 3.042 . S
C1577 C1166 3.034 . S
C1601 C58 0.589 . S
C1609 C405 0.689 . S
C1633 C142 0.691 . S
C1641 C1161 0.644 . S
C1665 C226 0.591 . S
C1673 C573 0.689 . S
C1697 C310 0.730 . S
C1705 C1329 0.631 . S
C1729 C489 0.624 . S
C1737 C814 0.680 . S
C1761 C982 0.591 . S
C1769 C657 0.689 . S
C1793 C1077 0.728 . S
C1801 C730 0.633 . S
C1825 C898 0.660 . S
C1833 C1245 0.667 . S
C1857 C69 0.918 . S
C1865 C651 1.040 . S
C1889 C153 0.825 . S
C1897 C1071 1.040 . S
C1921 C237 0.855 . S
C1929 C483 1.058 . S
C1953 C321 0.740 . S
C1961 C1239 1.048 . S
C1985 C326 1.075 . S
C1993 C394 0.807 . S
C2017 C478 0.785 . S
C2025 C746 1.061 . S
C2049 C562 0.924 . S
C2057 C158 1.044 . S
C2081 C914 1.020 . S
C2089 C646 0.834 . S
C2113 C741 0.756 . S
C2121 C1323 1.061 . S
C2145 C399 1.052 . S
C2153 C825 0.782 . S
C2177 C1155 1.065 . S
C2185 C909 0.779 . S
C2209 C567 1.075 . S
C2217 C993 0.805 . S
C2241 C1066 0.773 . S
C2249 C998 1.061 . S
C2273 C1150 0.843 . S
C2281 C74 1.061 . S
C2305 C830 1.022 . S
C2313 C1234 0.815 . S
C2337 C1318 0.809 . S
C2345 C242 1.061 . S
C2369 C67 3.692 1_556 S
C2377 C812 3.615 . S
C2401 C896 3.595 . S
C2409 C151 3.706 . S
C2433 C235 3.706 . S
C2441 C980 3.606 . S
C2465 C728 3.594 . S
C2473 C319 3.709 . S
C2497 C1159 3.610 . S
C2505 C392 3.703 1_554 S
C2529 C1243 3.615 . S
C2537 C476 3.707 . S
C2561 C1327 3.604 . S
C2569 C560 3.703 . S
C2593 C1075 3.600 . S
C2601 C644 3.704 . S
C2625 C140 3.592 . S
C2633 C739 3.706 . S
C2657 C224 3.594 . S
C2665 C823 3.709 1_565 S
C2689 C308 3.602 . S
C2697 C907 3.708 1_556 S
C2721 C991 3.698 1_545 S
C2729 C56 3.617 . S
C2753 C487 3.612 . S
C2761 C1064 3.703 . S
C2785 C571 3.619 . S
C2793 C1148 3.703 1_545 S
C2817 C655 3.619 . S
C2825 C1232 3.703 1_554 S
C2849 C403 3.591 . S
C2857 C1316 3.708 1_565 S
