# Generated by pormake.
# Topology sst, (4)-cn, num edge types: 1
# Building blocks:
#     Node 0, Type 0, BuildingBlock: NAWXER_clean_sbu_0, # of connection points: 4
#     Node 1, Type 0, BuildingBlock: NAWXER_clean_sbu_0, # of connection points: 4
#     Node 2, Type 0, BuildingBlock: NAWXER_clean_sbu_0, # of connection points: 4
#     Node 3, Type 0, BuildingBlock: NAWXER_clean_sbu_0, # of connection points: 4
#     Node 4, Type 0, BuildingBlock: NAWXER_clean_sbu_0, # of connection points: 4
#     Node 5, Type 0, BuildingBlock: NAWXER_clean_sbu_0, # of connection points: 4
#     Node 6, Type 0, BuildingBlock: NAWXER_clean_sbu_0, # of connection points: 4
#     Node 7, Type 0, BuildingBlock: NAWXER_clean_sbu_0, # of connection points: 4
#     Node 8, Type 0, BuildingBlock: NAWXER_clean_sbu_0, # of connection points: 4
#     Node 9, Type 0, BuildingBlock: NAWXER_clean_sbu_0, # of connection points: 4
#     Node 10, Type 0, BuildingBlock: NAWXER_clean_sbu_0, # of connection points: 4
#     Node 11, Type 0, BuildingBlock: NAWXER_clean_sbu_0, # of connection points: 4
#     Node 12, Type 0, BuildingBlock: NAWXER_clean_sbu_0, # of connection points: 4
#     Node 13, Type 0, BuildingBlock: NAWXER_clean_sbu_0, # of connection points: 4
#     Node 14, Type 0, BuildingBlock: NAWXER_clean_sbu_0, # of connection points: 4
#     Node 15, Type 0, BuildingBlock: NAWXER_clean_sbu_0, # of connection points: 4
#     Node 16, Type 0, BuildingBlock: NAWXER_clean_sbu_0, # of connection points: 4
#     Node 17, Type 0, BuildingBlock: NAWXER_clean_sbu_0, # of connection points: 4
#     Node 18, Type 0, BuildingBlock: NAWXER_clean_sbu_0, # of connection points: 4
#     Node 19, Type 0, BuildingBlock: NAWXER_clean_sbu_0, # of connection points: 4
#     Node 20, Type 0, BuildingBlock: NAWXER_clean_sbu_0, # of connection points: 4
#     Node 21, Type 0, BuildingBlock: NAWXER_clean_sbu_0, # of connection points: 4
#     Node 22, Type 0, BuildingBlock: NAWXER_clean_sbu_0, # of connection points: 4
#     Node 23, Type 0, BuildingBlock: NAWXER_clean_sbu_0, # of connection points: 4
#     Node 24, Type 0, BuildingBlock: NAWXER_clean_sbu_0, # of connection points: 4
#     Node 25, Type 0, BuildingBlock: NAWXER_clean_sbu_0, # of connection points: 4
#     Node 26, Type 0, BuildingBlock: NAWXER_clean_sbu_0, # of connection points: 4
#     Node 27, Type 0, BuildingBlock: NAWXER_clean_sbu_0, # of connection points: 4
#     Node 28, Type 0, BuildingBlock: NAWXER_clean_sbu_0, # of connection points: 4
#     Node 29, Type 0, BuildingBlock: NAWXER_clean_sbu_0, # of connection points: 4
#     Node 30, Type 0, BuildingBlock: NAWXER_clean_sbu_0, # of connection points: 4
#     Node 31, Type 0, BuildingBlock: NAWXER_clean_sbu_0, # of connection points: 4
#     Node 32, Type 0, BuildingBlock: NAWXER_clean_sbu_0, # of connection points: 4
#     Node 33, Type 0, BuildingBlock: NAWXER_clean_sbu_0, # of connection points: 4
#     Node 34, Type 0, BuildingBlock: NAWXER_clean_sbu_0, # of connection points: 4
#     Node 35, Type 0, BuildingBlock: NAWXER_clean_sbu_0, # of connection points: 4
#     Node 36, Type 0, BuildingBlock: NAWXER_clean_sbu_0, # of connection points: 4
#     Node 37, Type 0, BuildingBlock: NAWXER_clean_sbu_0, # of connection points: 4
#     Node 38, Type 0, BuildingBlock: NAWXER_clean_sbu_0, # of connection points: 4
#     Node 39, Type 0, BuildingBlock: NAWXER_clean_sbu_0, # of connection points: 4
#     Node 40, Type 0, BuildingBlock: NAWXER_clean_sbu_0, # of connection points: 4
#     Node 41, Type 0, BuildingBlock: NAWXER_clean_sbu_0, # of connection points: 4
#     Node 42, Type 0, BuildingBlock: NAWXER_clean_sbu_0, # of connection points: 4
#     Node 43, Type 0, BuildingBlock: NAWXER_clean_sbu_0, # of connection points: 4
#     Node 44, Type 0, BuildingBlock: NAWXER_clean_sbu_0, # of connection points: 4
#     Node 45, Type 0, BuildingBlock: NAWXER_clean_sbu_0, # of connection points: 4
#     Node 46, Type 0, BuildingBlock: NAWXER_clean_sbu_0, # of connection points: 4
#     Node 47, Type 0, BuildingBlock: NAWXER_clean_sbu_0, # of connection points: 4
#     Edge 48, Type (0, 0), BuildingBlock: AJUNOK_clean_linker_0, # of connection points: 2
#     Edge 49, Type (0, 0), BuildingBlock: AJUNOK_clean_linker_0, # of connection points: 2
#     Edge 50, Type (0, 0), BuildingBlock: AJUNOK_clean_linker_0, # of connection points: 2
#     Edge 51, Type (0, 0), BuildingBlock: AJUNOK_clean_linker_0, # of connection points: 2
#     Edge 52, Type (0, 0), BuildingBlock: AJUNOK_clean_linker_0, # of connection points: 2
#     Edge 53, Type (0, 0), BuildingBlock: AJUNOK_clean_linker_0, # of connection points: 2
#     Edge 54, Type (0, 0), BuildingBlock: AJUNOK_clean_linker_0, # of connection points: 2
#     Edge 55, Type (0, 0), BuildingBlock: AJUNOK_clean_linker_0, # of connection points: 2
#     Edge 56, Type (0, 0), BuildingBlock: AJUNOK_clean_linker_0, # of connection points: 2
#     Edge 57, Type (0, 0), BuildingBlock: AJUNOK_clean_linker_0, # of connection points: 2
#     Edge 58, Type (0, 0), BuildingBlock: AJUNOK_clean_linker_0, # of connection points: 2
#     Edge 59, Type (0, 0), BuildingBlock: AJUNOK_clean_linker_0, # of connection points: 2
#     Edge 60, Type (0, 0), BuildingBlock: AJUNOK_clean_linker_0, # of connection points: 2
#     Edge 61, Type (0, 0), BuildingBlock: AJUNOK_clean_linker_0, # of connection points: 2
#     Edge 62, Type (0, 0), BuildingBlock: AJUNOK_clean_linker_0, # of connection points: 2
#     Edge 63, Type (0, 0), BuildingBlock: AJUNOK_clean_linker_0, # of connection points: 2
#     Edge 64, Type (0, 0), BuildingBlock: AJUNOK_clean_linker_0, # of connection points: 2
#     Edge 65, Type (0, 0), BuildingBlock: AJUNOK_clean_linker_0, # of connection points: 2
#     Edge 66, Type (0, 0), BuildingBlock: AJUNOK_clean_linker_0, # of connection points: 2
#     Edge 67, Type (0, 0), BuildingBlock: AJUNOK_clean_linker_0, # of connection points: 2
#     Edge 68, Type (0, 0), BuildingBlock: AJUNOK_clean_linker_0, # of connection points: 2
#     Edge 69, Type (0, 0), BuildingBlock: AJUNOK_clean_linker_0, # of connection points: 2
#     Edge 70, Type (0, 0), BuildingBlock: AJUNOK_clean_linker_0, # of connection points: 2
#     Edge 71, Type (0, 0), BuildingBlock: AJUNOK_clean_linker_0, # of connection points: 2
#     Edge 72, Type (0, 0), BuildingBlock: AJUNOK_clean_linker_0, # of connection points: 2
#     Edge 73, Type (0, 0), BuildingBlock: AJUNOK_clean_linker_0, # of connection points: 2
#     Edge 74, Type (0, 0), BuildingBlock: AJUNOK_clean_linker_0, # of connection points: 2
#     Edge 75, Type (0, 0), BuildingBlock: AJUNOK_clean_linker_0, # of connection points: 2
#     Edge 76, Type (0, 0), BuildingBlock: AJUNOK_clean_linker_0, # of connection points: 2
#     Edge 77, Type (0, 0), BuildingBlock: AJUNOK_clean_linker_0, # of connection points: 2
#     Edge 78, Type (0, 0), BuildingBlock: AJUNOK_clean_linker_0, # of connection points: 2
#     Edge 79, Type (0, 0), BuildingBlock: AJUNOK_clean_linker_0, # of connection points: 2
#     Edge 80, Type (0, 0), BuildingBlock: AJUNOK_clean_linker_0, # of connection points: 2
#     Edge 81, Type (0, 0), BuildingBlock: AJUNOK_clean_linker_0, # of connection points: 2
#     Edge 82, Type (0, 0), BuildingBlock: AJUNOK_clean_linker_0, # of connection points: 2
#     Edge 83, Type (0, 0), BuildingBlock: AJUNOK_clean_linker_0, # of connection points: 2
#     Edge 84, Type (0, 0), BuildingBlock: AJUNOK_clean_linker_0, # of connection points: 2
#     Edge 85, Type (0, 0), BuildingBlock: AJUNOK_clean_linker_0, # of connection points: 2
#     Edge 86, Type (0, 0), BuildingBlock: AJUNOK_clean_linker_0, # of connection points: 2
#     Edge 87, Type (0, 0), BuildingBlock: AJUNOK_clean_linker_0, # of connection points: 2
#     Edge 88, Type (0, 0), BuildingBlock: AJUNOK_clean_linker_0, # of connection points: 2
#     Edge 89, Type (0, 0), BuildingBlock: AJUNOK_clean_linker_0, # of connection points: 2
#     Edge 90, Type (0, 0), BuildingBlock: AJUNOK_clean_linker_0, # of connection points: 2
#     Edge 91, Type (0, 0), BuildingBlock: AJUNOK_clean_linker_0, # of connection points: 2
#     Edge 92, Type (0, 0), BuildingBlock: AJUNOK_clean_linker_0, # of connection points: 2
#     Edge 93, Type (0, 0), BuildingBlock: AJUNOK_clean_linker_0, # of connection points: 2
#     Edge 94, Type (0, 0), BuildingBlock: AJUNOK_clean_linker_0, # of connection points: 2
#     Edge 95, Type (0, 0), BuildingBlock: AJUNOK_clean_linker_0, # of connection points: 2
#     Edge 96, Type (0, 0), BuildingBlock: AJUNOK_clean_linker_0, # of connection points: 2
#     Edge 97, Type (0, 0), BuildingBlock: AJUNOK_clean_linker_0, # of connection points: 2
#     Edge 98, Type (0, 0), BuildingBlock: AJUNOK_clean_linker_0, # of connection points: 2
#     Edge 99, Type (0, 0), BuildingBlock: AJUNOK_clean_linker_0, # of connection points: 2
#     Edge 100, Type (0, 0), BuildingBlock: AJUNOK_clean_linker_0, # of connection points: 2
#     Edge 101, Type (0, 0), BuildingBlock: AJUNOK_clean_linker_0, # of connection points: 2
#     Edge 102, Type (0, 0), BuildingBlock: AJUNOK_clean_linker_0, # of connection points: 2
#     Edge 103, Type (0, 0), BuildingBlock: AJUNOK_clean_linker_0, # of connection points: 2
#     Edge 104, Type (0, 0), BuildingBlock: AJUNOK_clean_linker_0, # of connection points: 2
#     Edge 105, Type (0, 0), BuildingBlock: AJUNOK_clean_linker_0, # of connection points: 2
#     Edge 106, Type (0, 0), BuildingBlock: AJUNOK_clean_linker_0, # of connection points: 2
#     Edge 107, Type (0, 0), BuildingBlock: AJUNOK_clean_linker_0, # of connection points: 2
#     Edge 108, Type (0, 0), BuildingBlock: AJUNOK_clean_linker_0, # of connection points: 2
#     Edge 109, Type (0, 0), BuildingBlock: AJUNOK_clean_linker_0, # of connection points: 2
#     Edge 110, Type (0, 0), BuildingBlock: AJUNOK_clean_linker_0, # of connection points: 2
#     Edge 111, Type (0, 0), BuildingBlock: AJUNOK_clean_linker_0, # of connection points: 2
#     Edge 112, Type (0, 0), BuildingBlock: AJUNOK_clean_linker_0, # of connection points: 2
#     Edge 113, Type (0, 0), BuildingBlock: AJUNOK_clean_linker_0, # of connection points: 2
#     Edge 114, Type (0, 0), BuildingBlock: AJUNOK_clean_linker_0, # of connection points: 2
#     Edge 115, Type (0, 0), BuildingBlock: AJUNOK_clean_linker_0, # of connection points: 2
#     Edge 116, Type (0, 0), BuildingBlock: AJUNOK_clean_linker_0, # of connection points: 2
#     Edge 117, Type (0, 0), BuildingBlock: AJUNOK_clean_linker_0, # of connection points: 2
#     Edge 118, Type (0, 0), BuildingBlock: AJUNOK_clean_linker_0, # of connection points: 2
#     Edge 119, Type (0, 0), BuildingBlock: AJUNOK_clean_linker_0, # of connection points: 2
#     Edge 120, Type (0, 0), BuildingBlock: AJUNOK_clean_linker_0, # of connection points: 2
#     Edge 121, Type (0, 0), BuildingBlock: AJUNOK_clean_linker_0, # of connection points: 2
#     Edge 122, Type (0, 0), BuildingBlock: AJUNOK_clean_linker_0, # of connection points: 2
#     Edge 123, Type (0, 0), BuildingBlock: AJUNOK_clean_linker_0, # of connection points: 2
#     Edge 124, Type (0, 0), BuildingBlock: AJUNOK_clean_linker_0, # of connection points: 2
#     Edge 125, Type (0, 0), BuildingBlock: AJUNOK_clean_linker_0, # of connection points: 2
#     Edge 126, Type (0, 0), BuildingBlock: AJUNOK_clean_linker_0, # of connection points: 2
#     Edge 127, Type (0, 0), BuildingBlock: AJUNOK_clean_linker_0, # of connection points: 2
#     Edge 128, Type (0, 0), BuildingBlock: AJUNOK_clean_linker_0, # of connection points: 2
#     Edge 129, Type (0, 0), BuildingBlock: AJUNOK_clean_linker_0, # of connection points: 2
#     Edge 130, Type (0, 0), BuildingBlock: AJUNOK_clean_linker_0, # of connection points: 2
#     Edge 131, Type (0, 0), BuildingBlock: AJUNOK_clean_linker_0, # of connection points: 2
#     Edge 132, Type (0, 0), BuildingBlock: AJUNOK_clean_linker_0, # of connection points: 2
#     Edge 133, Type (0, 0), BuildingBlock: AJUNOK_clean_linker_0, # of connection points: 2
#     Edge 134, Type (0, 0), BuildingBlock: AJUNOK_clean_linker_0, # of connection points: 2
#     Edge 135, Type (0, 0), BuildingBlock: AJUNOK_clean_linker_0, # of connection points: 2
#     Edge 136, Type (0, 0), BuildingBlock: AJUNOK_clean_linker_0, # of connection points: 2
#     Edge 137, Type (0, 0), BuildingBlock: AJUNOK_clean_linker_0, # of connection points: 2
#     Edge 138, Type (0, 0), BuildingBlock: AJUNOK_clean_linker_0, # of connection points: 2
#     Edge 139, Type (0, 0), BuildingBlock: AJUNOK_clean_linker_0, # of connection points: 2
#     Edge 140, Type (0, 0), BuildingBlock: AJUNOK_clean_linker_0, # of connection points: 2
#     Edge 141, Type (0, 0), BuildingBlock: AJUNOK_clean_linker_0, # of connection points: 2
#     Edge 142, Type (0, 0), BuildingBlock: AJUNOK_clean_linker_0, # of connection points: 2
#     Edge 143, Type (0, 0), BuildingBlock: AJUNOK_clean_linker_0, # of connection points: 2
# Relax obj value: 0.000
# Max RMSD: 0.000
# Mean RMSD: 0.000
data_MOF--net-sst--node1-NAWXER_clean_sbu_0--edge1-AJUNOK_clean_linker_0
_symmetry_space_group_name_H-M    P1
_symmetry_Int_Tables_number       1
_symmetry_cell_setting            triclinic
loop_
_symmetry_equiv_pos_as_xyz
'x, y, z'
_cell_length_a     42.672079
_cell_length_b     42.599724
_cell_length_c     42.572818
_cell_angle_alpha  96.841011
_cell_angle_beta   96.854289
_cell_angle_gamma 96.886541
loop_
_atom_site_label
_atom_site_type_symbol
_atom_site_fract_x
_atom_site_fract_y
_atom_site_fract_z
_atom_type_partial_charge
C0 C 0.13713 0.19062 0.41299 0.0
C1 C 0.12613 0.07751 0.42897 0.0
O2 O 0.13165 0.17137 0.38684 0.0
Zn3 Zn 0.12605 0.12115 0.37162 0.0
O4 O 0.14152 0.17955 0.4394 0.0
Zn5 Zn 0.13388 0.13407 0.42278 0.0
O6 O 0.1753 0.12516 0.40216 0.0
O7 O 0.1631 0.11341 0.35005 0.0
O8 O 0.13271 0.10103 0.45123 0.0
O9 O 0.12298 0.08255 0.39971 0.0
O10 O 0.08314 0.11514 0.34817 0.0
O11 O 0.08536 0.12797 0.40038 0.0
C12 C 0.18371 0.11693 0.37484 0.0
C13 C 0.06906 0.12108 0.37252 0.0
C14 C 0.90753 0.20911 0.42767 0.0
C15 C 0.88226 0.09383 0.43063 0.0
O16 O 0.89879 0.19292 0.39999 0.0
Zn17 Zn 0.88141 0.14443 0.37976 0.0
O18 O 0.90607 0.19532 0.45247 0.0
Zn19 Zn 0.891 0.15225 0.43068 0.0
O20 O 0.93023 0.14266 0.40534 0.0
O21 O 0.91464 0.1357 0.3533 0.0
O22 O 0.88937 0.11549 0.4546 0.0
O23 O 0.87799 0.10186 0.40249 0.0
O24 O 0.83823 0.14611 0.3601 0.0
O25 O 0.84228 0.1555 0.41248 0.0
C26 C 0.93646 0.13649 0.37669 0.0
C27 C 0.82535 0.15281 0.38502 0.0
C28 C 0.8974 0.95952 0.42607 0.0
C29 C 0.90468 0.8429 0.41643 0.0
O30 O 0.89025 0.94388 0.39797 0.0
Zn31 Zn 0.88611 0.89649 0.37334 0.0
O32 O 0.90745 0.94516 0.44916 0.0
Zn33 Zn 0.90158 0.9019 0.42432 0.0
O34 O 0.93836 0.90624 0.39504 0.0
O35 O 0.91857 0.89943 0.34403 0.0
O36 O 0.91095 0.86239 0.44221 0.0
O37 O 0.8945 0.85311 0.39055 0.0
O38 O 0.84043 0.89013 0.35874 0.0
O39 O 0.85083 0.89664 0.4113 0.0
C40 C 0.94264 0.90437 0.36565 0.0
C41 C 0.8306 0.89328 0.38592 0.0
C42 C 0.132 0.94369 0.42585 0.0
C43 C 0.12921 0.82687 0.39996 0.0
O44 O 0.13216 0.93338 0.39633 0.0
Zn45 Zn 0.13251 0.88971 0.36529 0.0
O46 O 0.13328 0.92446 0.44664 0.0
Zn47 Zn 0.1331 0.8863 0.41544 0.0
O48 O 0.17943 0.89714 0.4015 0.0
O49 O 0.17346 0.89805 0.34944 0.0
O50 O 0.13028 0.84285 0.42737 0.0
O51 O 0.13035 0.84177 0.37562 0.0
O52 O 0.09154 0.88939 0.33811 0.0
O53 O 0.08728 0.887 0.38901 0.0
C54 C 0.19157 0.90147 0.37597 0.0
C55 C 0.07441 0.88893 0.36066 0.0
C56 C 0.12587 0.95886 0.59801 0.0
C57 C 0.12132 0.84061 0.59828 0.0
O58 O 0.12695 0.93958 0.57287 0.0
Zn59 Zn 0.12403 0.89912 0.59312 0.0
O60 O 0.12449 0.9478 0.62446 0.0
Zn61 Zn 0.12276 0.90564 0.64531 0.0
O62 O 0.16446 0.91293 0.67293 0.0
O63 O 0.16851 0.90529 0.62139 0.0
O64 O 0.12068 0.85765 0.62494 0.0
O65 O 0.12366 0.85413 0.57325 0.0
O66 O 0.07782 0.89668 0.60691 0.0
O67 O 0.08057 0.90412 0.65939 0.0
C68 C 0.1816 0.91045 0.65041 0.0
C69 C 0.06382 0.89868 0.63187 0.0
C70 C 0.14289 0.21424 0.62677 0.0
C71 C 0.14342 0.09826 0.61541 0.0
O72 O 0.13726 0.19473 0.60105 0.0
Zn73 Zn 0.14618 0.15705 0.62036 0.0
O74 O 0.15133 0.20415 0.65328 0.0
Zn75 Zn 0.15804 0.15952 0.67045 0.0
O76 O 0.20312 0.16636 0.68835 0.0
O77 O 0.19686 0.1681 0.63661 0.0
O78 O 0.14952 0.11164 0.64457 0.0
O79 O 0.14113 0.11564 0.59321 0.0
O80 O 0.10629 0.15256 0.64773 0.0
O81 O 0.12519 0.15821 0.69899 0.0
C82 C 0.21534 0.17096 0.6632 0.0
C83 C 0.10145 0.15397 0.67706 0.0
C84 C 0.9159 0.21582 0.63819 0.0
C85 C 0.89702 0.09973 0.64483 0.0
O86 O 0.90907 0.19384 0.61442 0.0
Zn87 Zn 0.90526 0.15687 0.63822 0.0
O88 O 0.91717 0.20839 0.6665 0.0
Zn89 Zn 0.91111 0.16756 0.69027 0.0
O90 O 0.95496 0.1689 0.71345 0.0
O91 O 0.95202 0.15724 0.66122 0.0
O92 O 0.9017 0.11803 0.6716 0.0
O93 O 0.89708 0.11212 0.61896 0.0
O94 O 0.86212 0.16033 0.65689 0.0
O95 O 0.87108 0.17329 0.70916 0.0
C96 C 0.9684 0.1613 0.68891 0.0
C97 C 0.85151 0.16658 0.68341 0.0
C98 C 0.87898 0.96211 0.65085 0.0
C99 C 0.85677 0.84668 0.66093 0.0
O100 O 0.87523 0.94262 0.625 0.0
Zn101 Zn 0.86633 0.89314 0.60811 0.0
O102 O 0.87763 0.95107 0.67734 0.0
Zn103 Zn 0.86935 0.90538 0.65998 0.0
O104 O 0.91315 0.89902 0.64396 0.0
O105 O 0.90662 0.88633 0.59173 0.0
O106 O 0.86268 0.86902 0.68446 0.0
O107 O 0.85768 0.85344 0.63259 0.0
O108 O 0.82456 0.89078 0.5822 0.0
O109 O 0.82393 0.9043 0.63398 0.0
C110 C 0.925 0.89203 0.61827 0.0
C111 C 0.80956 0.89895 0.6054 0.0
C112 C 0.43471 0.23393 0.17118 0.0
C113 C 0.43539 0.11596 0.16246 0.0
O114 O 0.4596 0.22081 0.17799 0.0
Zn115 Zn 0.43955 0.17571 0.16448 0.0
O116 O 0.40881 0.21634 0.15847 0.0
Zn117 Zn 0.3892 0.16758 0.14588 0.0
O118 O 0.35743 0.16611 0.17601 0.0
O119 O 0.40746 0.17534 0.19923 0.0
O120 O 0.40886 0.12519 0.15296 0.0
O121 O 0.45993 0.13681 0.17114 0.0
O122 O 0.43069 0.17174 0.1133 0.0
O123 O 0.37881 0.16344 0.09925 0.0
C124 C 0.37762 0.17235 0.20132 0.0
C125 C 0.40673 0.16683 0.09123 0.0
C126 C 0.97543 0.42174 0.16304 0.0
C127 C 0.85975 0.41423 0.15936 0.0
O128 O 0.96144 0.39288 0.16048 0.0
Zn129 Zn 0.91342 0.36774 0.15522 0.0
O130 O 0.95859 0.44439 0.16242 0.0
Zn131 Zn 0.91718 0.41843 0.15781 0.0
O132 O 0.91826 0.39995 0.20296 0.0
O133 O 0.91328 0.34728 0.19387 0.0
O134 O 0.87888 0.43917 0.15802 0.0
O135 O 0.86968 0.38699 0.1577 0.0
O136 O 0.90704 0.34192 0.11267 0.0
O137 O 0.91232 0.39352 0.11015 0.0
C138 C 0.91576 0.37285 0.21339 0.0
C139 C 0.90844 0.36473 0.09595 0.0
C140 C 0.61872 0.93814 0.13334 0.0
C141 C 0.61253 0.82263 0.14167 0.0
O142 O 0.64526 0.92698 0.1355 0.0
Zn143 Zn 0.66349 0.88354 0.13936 0.0
O144 O 0.59285 0.91969 0.13342 0.0
Zn145 Zn 0.61105 0.8796 0.13563 0.0
O146 O 0.63503 0.8881 0.18234 0.0
O147 O 0.68721 0.89069 0.18313 0.0
O148 O 0.58785 0.83661 0.13701 0.0
O149 O 0.64014 0.83798 0.14194 0.0
O150 O 0.68093 0.87721 0.09841 0.0
O151 O 0.62858 0.8735 0.09145 0.0
C152 C 0.6629 0.8913 0.19793 0.0
C153 C 0.65468 0.87299 0.07961 0.0
C154 C 0.21675 0.65793 0.12418 0.0
C155 C 0.0998 0.65831 0.12531 0.0
O156 O 0.20114 0.63031 0.12434 0.0
Zn157 Zn 0.15222 0.60884 0.12138 0.0
O158 O 0.20165 0.68189 0.12269 0.0
Zn159 Zn 0.15842 0.65925 0.12219 0.0
O160 O 0.16254 0.6427 0.16858 0.0
O161 O 0.15391 0.59001 0.16092 0.0
O162 O 0.12045 0.68208 0.12376 0.0
O163 O 0.1088 0.63049 0.12383 0.0
O164 O 0.14675 0.58141 0.07978 0.0
O165 O 0.15142 0.63258 0.07501 0.0
C166 C 0.16001 0.61606 0.17996 0.0
C167 C 0.14805 0.60338 0.06204 0.0
C168 C 0.40794 0.93846 0.89307 0.0
C169 C 0.42592 0.82784 0.90293 0.0
O170 O 0.43488 0.92857 0.8983 0.0
Zn171 Zn 0.41934 0.88379 0.89843 0.0
O172 O 0.38242 0.91847 0.88956 0.0
Zn173 Zn 0.36811 0.86872 0.89029 0.0
O174 O 0.34522 0.87023 0.92827 0.0
O175 O 0.39657 0.88766 0.93957 0.0
O176 O 0.39667 0.83185 0.89669 0.0
O177 O 0.44766 0.85171 0.90673 0.0
O178 O 0.39954 0.87008 0.84977 0.0
O179 O 0.34775 0.85514 0.84583 0.0
C180 C 0.36916 0.88267 0.94865 0.0
C181 C 0.3728 0.85977 0.83244 0.0
C182 C 0.19395 0.37097 0.90039 0.0
C183 C 0.08073 0.38957 0.88795 0.0
O184 O 0.17045 0.34897 0.89143 0.0
Zn185 Zn 0.13659 0.3769 0.89029 0.0
O186 O 0.18927 0.40015 0.90408 0.0
Zn187 Zn 0.1517 0.42832 0.90135 0.0
O188 O 0.15761 0.44725 0.94673 0.0
O189 O 0.14228 0.39533 0.9391 0.0
O190 O 0.10133 0.4147 0.8941 0.0
O191 O 0.09045 0.36239 0.88349 0.0
O192 O 0.14347 0.3999 0.84986 0.0
O193 O 0.16008 0.45114 0.8645 0.0
C194 C 0.15026 0.42133 0.95814 0.0
C195 C 0.15253 0.42747 0.84245 0.0
C196 C 0.64384 0.18742 0.8932 0.0
C197 C 0.65798 0.07418 0.89562 0.0
O198 O 0.66955 0.17645 0.9017 0.0
Zn199 Zn 0.65192 0.1313 0.89589 0.0
O200 O 0.61787 0.16813 0.88518 0.0
Zn201 Zn 0.60207 0.11759 0.88065 0.0
O202 O 0.57272 0.11446 0.91287 0.0
O203 O 0.62273 0.13068 0.93359 0.0
O204 O 0.62914 0.0787 0.8871 0.0
O205 O 0.67932 0.09832 0.90347 0.0
O206 O 0.63842 0.12163 0.84498 0.0
O207 O 0.58607 0.10917 0.83521 0.0
C208 C 0.59336 0.12416 0.93726 0.0
C209 C 0.6129 0.11371 0.82504 0.0
C210 C 0.97345 0.62443 0.88034 0.0
C211 C 0.85657 0.61865 0.85305 0.0
O212 O 0.95428 0.59913 0.8692 0.0
Zn213 Zn 0.91437 0.61733 0.86959 0.0
O214 O 0.96222 0.65015 0.88886 0.0
Zn215 Zn 0.91755 0.66739 0.88781 0.0
O216 O 0.91279 0.67745 0.93233 0.0
O217 O 0.90947 0.62545 0.91913 0.0
O218 O 0.87144 0.64545 0.86707 0.0
O219 O 0.87194 0.59488 0.84942 0.0
O220 O 0.92344 0.6502 0.83686 0.0
O221 O 0.92456 0.69996 0.85961 0.0
C222 C 0.90893 0.64947 0.94015 0.0
C223 C 0.92738 0.68019 0.83548 0.0
C224 C 0.22935 0.44159 0.15933 0.0
C225 C 0.11391 0.4371 0.1671 0.0
O226 O 0.21255 0.41428 0.15141 0.0
Zn227 Zn 0.16534 0.39186 0.14832 0.0
O228 O 0.21654 0.46556 0.17002 0.0
Zn229 Zn 0.17261 0.44321 0.16535 0.0
O230 O 0.1777 0.41348 0.20168 0.0
O231 O 0.16867 0.36269 0.18077 0.0
O232 O 0.13376 0.4626 0.17407 0.0
O233 O 0.12391 0.41097 0.15764 0.0
O234 O 0.15632 0.37887 0.10215 0.0
O235 O 0.16402 0.43116 0.11499 0.0
C236 C 0.17575 0.38393 0.20519 0.0
C237 C 0.15853 0.4067 0.09361 0.0
C238 C 0.22764 0.64336 0.87702 0.0
C239 C 0.11016 0.63814 0.87423 0.0
O240 O 0.21131 0.61569 0.87125 0.0
Zn241 Zn 0.16456 0.5928 0.86764 0.0
O242 O 0.21393 0.66762 0.88479 0.0
Zn243 Zn 0.16929 0.64566 0.8793 0.0
O244 O 0.16663 0.62136 0.91901 0.0
O245 O 0.1633 0.56937 0.90614 0.0
O246 O 0.12905 0.66442 0.88131 0.0
O247 O 0.12162 0.61199 0.869 0.0
O248 O 0.15918 0.57616 0.82114 0.0
O249 O 0.16306 0.62878 0.83018 0.0
C250 C 0.16349 0.59343 0.92722 0.0
C251 C 0.15973 0.60312 0.81062 0.0
C252 C 0.3727 0.1831 0.87975 0.0
C253 C 0.39248 0.0728 0.89055 0.0
O254 O 0.40178 0.17928 0.88692 0.0
Zn255 Zn 0.43016 0.14355 0.89663 0.0
O256 O 0.35067 0.1596 0.87765 0.0
Zn257 Zn 0.37886 0.12725 0.88625 0.0
O258 O 0.39538 0.14102 0.93551 0.0
O259 O 0.44703 0.15663 0.94269 0.0
O260 O 0.36497 0.0814 0.88475 0.0
O261 O 0.4171 0.09393 0.89511 0.0
O262 O 0.45429 0.14463 0.85958 0.0
O263 O 0.40323 0.12661 0.8456 0.0
C264 C 0.42103 0.15159 0.95447 0.0
C265 C 0.43101 0.13348 0.83783 0.0
C266 C 0.94631 0.39937 0.89938 0.0
C267 C 0.83537 0.41056 0.9184 0.0
O268 O 0.92707 0.37325 0.89553 0.0
Zn269 Zn 0.87812 0.35658 0.89763 0.0
O270 O 0.93582 0.42566 0.90706 0.0
Zn271 Zn 0.89123 0.40863 0.90839 0.0
O272 O 0.89653 0.38385 0.94802 0.0
O273 O 0.88184 0.33218 0.93535 0.0
O274 O 0.85758 0.43394 0.92089 0.0
O275 O 0.8408 0.38224 0.90946 0.0
O276 O 0.86226 0.33989 0.85164 0.0
O277 O 0.87609 0.39202 0.8594 0.0
C278 C 0.89246 0.3561 0.95661 0.0
C279 C 0.8657 0.36636 0.84031 0.0
C280 C 0.68042 0.94034 0.89004 0.0
C281 C 0.69662 0.82626 0.88108 0.0
O282 O 0.70745 0.93029 0.8909 0.0
Zn283 Zn 0.69195 0.88396 0.88597 0.0
O284 O 0.65523 0.91995 0.88684 0.0
Zn285 Zn 0.64078 0.86992 0.88214 0.0
O286 O 0.62288 0.86489 0.92185 0.0
O287 O 0.6748 0.87926 0.93036 0.0
O288 O 0.66782 0.83179 0.87987 0.0
O289 O 0.71923 0.84939 0.8845 0.0
O290 O 0.66716 0.87574 0.83828 0.0
O291 O 0.61601 0.86056 0.83934 0.0
C292 C 0.64864 0.87169 0.94127 0.0
C293 C 0.63899 0.86664 0.82344 0.0
C294 C 0.96581 0.67189 0.14098 0.0
C295 C 0.84814 0.68066 0.12584 0.0
O296 O 0.94641 0.64587 0.13657 0.0
Zn297 Zn 0.89661 0.62856 0.1298 0.0
O298 O 0.95439 0.69833 0.14398 0.0
Zn299 Zn 0.90779 0.68097 0.13889 0.0
O300 O 0.90262 0.65973 0.18094 0.0
O301 O 0.88955 0.60776 0.16849 0.0
O302 O 0.86972 0.70463 0.13489 0.0
O303 O 0.85599 0.65257 0.12388 0.0
O304 O 0.89293 0.60775 0.08467 0.0
O305 O 0.90328 0.66029 0.09096 0.0
C306 C 0.8952 0.63234 0.18962 0.0
C307 C 0.89753 0.63376 0.07259 0.0
C308 C 0.42836 0.97668 0.15562 0.0
C309 C 0.42935 0.85992 0.13977 0.0
O310 O 0.45224 0.96148 0.15617 0.0
Zn311 Zn 0.42962 0.91769 0.14837 0.0
O312 O 0.40031 0.96069 0.15137 0.0
Zn313 Zn 0.37914 0.9111 0.1437 0.0
O314 O 0.35786 0.9055 0.18076 0.0
O315 O 0.41013 0.90964 0.19162 0.0
O316 O 0.40131 0.86807 0.13868 0.0
O317 O 0.45357 0.88137 0.14493 0.0
O318 O 0.40504 0.91374 0.10024 0.0
O319 O 0.35321 0.90613 0.10229 0.0
C320 C 0.38248 0.9048 0.20051 0.0
C321 C 0.37624 0.90906 0.08603 0.0
C322 C 0.64203 0.19254 0.13077 0.0
C323 C 0.62772 0.07438 0.12565 0.0
O324 O 0.66402 0.17478 0.13047 0.0
Zn325 Zn 0.63771 0.13303 0.1291 0.0
O326 O 0.61338 0.17987 0.13167 0.0
Zn327 Zn 0.58697 0.1333 0.12997 0.0
O328 O 0.57163 0.13362 0.17208 0.0
O329 O 0.62329 0.13156 0.17541 0.0
O330 O 0.60236 0.0874 0.12711 0.0
O331 O 0.654 0.09163 0.12421 0.0
O332 O 0.61043 0.13101 0.08405 0.0
O333 O 0.55924 0.12957 0.08816 0.0
C334 C 0.59786 0.13086 0.18871 0.0
C335 C 0.58174 0.12996 0.07093 0.0
C336 C 0.68202 0.68899 0.8717 0.0
C337 C 0.65869 0.5744 0.88027 0.0
O338 O 0.67527 0.67112 0.84466 0.0
Zn339 Zn 0.6624 0.62131 0.82626 0.0
O340 O 0.68125 0.67621 0.89719 0.0
Zn341 Zn 0.67008 0.63191 0.87762 0.0
O342 O 0.71142 0.62399 0.85648 0.0
O343 O 0.69919 0.61207 0.80418 0.0
O344 O 0.66643 0.59717 0.90318 0.0
O345 O 0.65668 0.58071 0.85145 0.0
O346 O 0.6185 0.61956 0.80401 0.0
O347 O 0.6219 0.62889 0.85646 0.0
C348 C 0.71983 0.61639 0.82907 0.0
C349 C 0.60494 0.62377 0.82899 0.0
C350 C 0.43738 0.69288 0.89631 0.0
C351 C 0.41722 0.57563 0.89436 0.0
O352 O 0.42747 0.67649 0.86898 0.0
Zn353 Zn 0.4143 0.62866 0.84667 0.0
O354 O 0.44274 0.6785 0.92062 0.0
Zn355 Zn 0.42861 0.63497 0.8979 0.0
O356 O 0.46581 0.62836 0.86952 0.0
O357 O 0.4475 0.6242 0.8183 0.0
O358 O 0.42652 0.59629 0.91893 0.0
O359 O 0.41214 0.5852 0.86702 0.0
O360 O 0.36915 0.63004 0.83143 0.0
O361 O 0.3795 0.63853 0.88398 0.0
C362 C 0.47065 0.62454 0.84027 0.0
C363 C 0.35979 0.63674 0.85849 0.0
C364 C 0.39796 0.43712 0.89703 0.0
C365 C 0.38267 0.31903 0.88521 0.0
O366 O 0.39601 0.4181 0.87117 0.0
Zn367 Zn 0.39167 0.37777 0.88888 0.0
O368 O 0.39587 0.42547 0.92325 0.0
Zn369 Zn 0.39004 0.37969 0.93988 0.0
O370 O 0.4315 0.38076 0.96788 0.0
O371 O 0.43667 0.38089 0.91705 0.0
O372 O 0.38383 0.33298 0.91376 0.0
O373 O 0.38755 0.33576 0.86291 0.0
O374 O 0.34528 0.3755 0.90208 0.0
O375 O 0.34727 0.37814 0.95423 0.0
C376 C 0.44944 0.38195 0.94601 0.0
C377 C 0.33081 0.37513 0.92668 0.0
C378 C 0.63633 0.43993 0.89818 0.0
C379 C 0.6366 0.3242 0.89985 0.0
O380 O 0.62945 0.41835 0.874 0.0
Zn381 Zn 0.63335 0.38182 0.89712 0.0
O382 O 0.64212 0.43169 0.92604 0.0
Zn383 Zn 0.64602 0.38966 0.94864 0.0
O384 O 0.69217 0.39978 0.96598 0.0
O385 O 0.68281 0.39141 0.91345 0.0
O386 O 0.64351 0.34088 0.92752 0.0
O387 O 0.62844 0.33794 0.87579 0.0
O388 O 0.59397 0.38325 0.92254 0.0
O389 O 0.60946 0.38936 0.97434 0.0
C390 C 0.70268 0.39839 0.93903 0.0
C391 C 0.58705 0.38624 0.95106 0.0
C392 C 0.66686 0.44655 0.11152 0.0
C393 C 0.65854 0.32909 0.11873 0.0
O394 O 0.66385 0.42548 0.08686 0.0
Zn395 Zn 0.66331 0.38768 0.11055 0.0
O396 O 0.66816 0.43764 0.13918 0.0
Zn397 Zn 0.66631 0.39649 0.16263 0.0
O398 O 0.70901 0.40391 0.18735 0.0
O399 O 0.70997 0.39765 0.1352 0.0
O400 O 0.66022 0.34742 0.14508 0.0
O401 O 0.65993 0.34146 0.09299 0.0
O402 O 0.6194 0.39199 0.12789 0.0
O403 O 0.62688 0.40111 0.18056 0.0
C404 C 0.72467 0.40368 0.16365 0.0
C405 C 0.60833 0.39807 0.15421 0.0
C406 C 0.63703 0.69437 0.14148 0.0
C407 C 0.65853 0.58305 0.11866 0.0
O408 O 0.64024 0.68503 0.11252 0.0
Zn409 Zn 0.65034 0.6445 0.08324 0.0
O410 O 0.64336 0.67684 0.16308 0.0
Zn411 Zn 0.65233 0.64045 0.13392 0.0
O412 O 0.69727 0.6579 0.12204 0.0
O413 O 0.69262 0.65968 0.07037 0.0
O414 O 0.65875 0.59868 0.14617 0.0
O415 O 0.65549 0.59751 0.09399 0.0
O416 O 0.60753 0.63697 0.05645 0.0
O417 O 0.60638 0.63006 0.10683 0.0
C418 C 0.71008 0.6641 0.09745 0.0
C419 C 0.59155 0.63023 0.07894 0.0
C420 C 0.4309 0.72393 0.14181 0.0
C421 C 0.42099 0.6156 0.1706 0.0
O422 O 0.41883 0.70297 0.11796 0.0
Zn423 Zn 0.40748 0.65197 0.10809 0.0
O424 O 0.43959 0.71482 0.16842 0.0
Zn425 Zn 0.42613 0.66929 0.15595 0.0
O426 O 0.46074 0.65505 0.12577 0.0
O427 O 0.43603 0.64031 0.07684 0.0
O428 O 0.43217 0.64154 0.18846 0.0
O429 O 0.41089 0.61621 0.14095 0.0
O430 O 0.36211 0.64816 0.09367 0.0
O431 O 0.37408 0.66542 0.14519 0.0
C432 C 0.4616 0.64476 0.09634 0.0
C433 C 0.35317 0.65753 0.12022 0.0
C434 C 0.42935 0.48787 0.19968 0.0
C435 C 0.42279 0.36953 0.19627 0.0
O436 O 0.42467 0.47082 0.17239 0.0
Zn437 Zn 0.41881 0.42352 0.15031 0.0
O438 O 0.43365 0.47457 0.22494 0.0
Zn439 Zn 0.42667 0.42951 0.20308 0.0
O440 O 0.46777 0.4273 0.18106 0.0
O441 O 0.45691 0.42194 0.1286 0.0
O442 O 0.42765 0.38884 0.22229 0.0
O443 O 0.41836 0.38051 0.1697 0.0
O444 O 0.37486 0.42136 0.1297 0.0
O445 O 0.37863 0.42803 0.18234 0.0
C446 C 0.4771 0.42372 0.15363 0.0
C447 C 0.36177 0.42599 0.15501 0.0
C448 C 0.85525 0.71069 0.6524 0.0
C449 C 0.87014 0.59657 0.65175 0.0
O450 O 0.88336 0.70435 0.64924 0.0
Zn451 Zn 0.90885 0.66415 0.64439 0.0
O452 O 0.83262 0.68793 0.65125 0.0
Zn453 Zn 0.85904 0.65287 0.6477 0.0
O454 O 0.89002 0.66722 0.69186 0.0
O455 O 0.94007 0.67675 0.68273 0.0
O456 O 0.84387 0.608 0.6518 0.0
O457 O 0.8952 0.61517 0.64879 0.0
O458 O 0.92058 0.66343 0.6016 0.0
O459 O 0.86879 0.65118 0.59941 0.0
C460 C 0.91956 0.67616 0.70221 0.0
C461 C 0.89329 0.65582 0.585 0.0
C462 C 0.43256 0.9092 0.65075 0.0
C463 C 0.31685 0.90885 0.64805 0.0
O464 O 0.41585 0.88154 0.64481 0.0
Zn465 Zn 0.36721 0.85973 0.63754 0.0
O466 O 0.41873 0.93395 0.65526 0.0
Zn467 Zn 0.37523 0.9113 0.64871 0.0
O468 O 0.37562 0.88591 0.68896 0.0
O469 O 0.36547 0.83398 0.67291 0.0
O470 O 0.33779 0.93347 0.65291 0.0
O471 O 0.32545 0.88133 0.64143 0.0
O472 O 0.36297 0.84094 0.59219 0.0
O473 O 0.37211 0.89345 0.59919 0.0
C474 C 0.37114 0.85727 0.69546 0.0
C475 C 0.36846 0.86695 0.58057 0.0
C476 C 0.11149 0.46009 0.63085 0.0
C477 C 0.12873 0.34908 0.63515 0.0
O478 O 0.14055 0.45624 0.6388 0.0
Zn479 Zn 0.16862 0.41945 0.64883 0.0
O480 O 0.08952 0.43653 0.6281 0.0
Zn481 Zn 0.11813 0.40472 0.63604 0.0
O482 O 0.13331 0.41478 0.68646 0.0
O483 O 0.18488 0.43141 0.69443 0.0
O484 O 0.10224 0.35939 0.6288 0.0
O485 O 0.15426 0.36897 0.64341 0.0
O486 O 0.19634 0.4226 0.61505 0.0
O487 O 0.14521 0.40862 0.59708 0.0
C488 C 0.15891 0.42514 0.70575 0.0
C489 C 0.17392 0.4158 0.59169 0.0
C490 C 0.71326 0.16204 0.66059 0.0
C491 C 0.59989 0.17539 0.63883 0.0
O492 O 0.69536 0.13515 0.65221 0.0
Zn493 Zn 0.64494 0.11874 0.63861 0.0
O494 O 0.70061 0.18754 0.66064 0.0
Zn495 Zn 0.65627 0.16878 0.64687 0.0
O496 O 0.64388 0.14657 0.68767 0.0
O497 O 0.63519 0.09444 0.67306 0.0
O498 O 0.62372 0.19721 0.64499 0.0
O499 O 0.6047 0.146 0.63524 0.0
O500 O 0.64172 0.09571 0.59566 0.0
O501 O 0.65381 0.14754 0.59702 0.0
C502 C 0.6362 0.11833 0.6943 0.0
C503 C 0.64781 0.11942 0.58087 0.0
C504 C 0.93324 0.45891 0.41325 0.0
C505 C 0.92924 0.34464 0.42409 0.0
O506 O 0.95654 0.44462 0.42236 0.0
Zn507 Zn 0.93273 0.40182 0.41871 0.0
O508 O 0.90522 0.443 0.40579 0.0
Zn509 Zn 0.88269 0.39398 0.40168 0.0
O510 O 0.85137 0.39572 0.43172 0.0
O511 O 0.90132 0.40565 0.45495 0.0
O512 O 0.90231 0.35265 0.41396 0.0
O513 O 0.95404 0.36532 0.42931 0.0
O514 O 0.92155 0.39114 0.36816 0.0
O515 O 0.86934 0.38207 0.35564 0.0
C516 C 0.87133 0.40219 0.45709 0.0
C517 C 0.89697 0.38377 0.34703 0.0
C518 C 0.69798 0.9062 0.40006 0.0
C519 C 0.5834 0.92136 0.39004 0.0
O520 O 0.67812 0.88114 0.38997 0.0
Zn521 Zn 0.62866 0.86611 0.37977 0.0
O522 O 0.68773 0.9322 0.40936 0.0
Zn523 Zn 0.6415 0.91678 0.39735 0.0
O524 O 0.63057 0.88726 0.43238 0.0
O525 O 0.62017 0.83662 0.41135 0.0
O526 O 0.60654 0.94357 0.39993 0.0
O527 O 0.58954 0.89304 0.3817 0.0
O528 O 0.62772 0.85247 0.33399 0.0
O529 O 0.64091 0.90451 0.3472 0.0
C530 C 0.62249 0.85798 0.43547 0.0
C531 C 0.63641 0.87981 0.32605 0.0
C532 C 0.12392 0.68803 0.3798 0.0
C533 C 0.12055 0.57053 0.37302 0.0
O534 O 0.15119 0.67845 0.37938 0.0
Zn535 Zn 0.17107 0.63472 0.37733 0.0
O536 O 0.09912 0.66758 0.37732 0.0
Zn537 Zn 0.11971 0.62843 0.37411 0.0
O538 O 0.14478 0.63264 0.42054 0.0
O539 O 0.19674 0.63974 0.42001 0.0
O540 O 0.09637 0.58549 0.37284 0.0
O541 O 0.14837 0.58616 0.37399 0.0
O542 O 0.19007 0.63382 0.33776 0.0
O543 O 0.13749 0.62494 0.32885 0.0
C544 C 0.17305 0.63653 0.43553 0.0
C545 C 0.16444 0.62727 0.3182 0.0
C546 C 0.43473 0.1361 0.38521 0.0
C547 C 0.31783 0.11191 0.37679 0.0
O548 O 0.41849 0.10844 0.37876 0.0
Zn549 Zn 0.37596 0.12078 0.38118 0.0
O550 O 0.42031 0.16036 0.39079 0.0
Zn551 Zn 0.37354 0.17142 0.39276 0.0
O552 O 0.37514 0.18784 0.43822 0.0
O553 O 0.37778 0.13626 0.43092 0.0
O554 O 0.32927 0.14133 0.38447 0.0
O555 O 0.33628 0.09081 0.37253 0.0
O556 O 0.36951 0.14574 0.34116 0.0
O557 O 0.36853 0.19682 0.35703 0.0
C558 C 0.37721 0.16182 0.44989 0.0
C559 C 0.36683 0.17384 0.33446 0.0
C560 C 0.67768 0.90035 0.62063 0.0
C561 C 0.56556 0.90435 0.63438 0.0
O562 O 0.66181 0.87288 0.62084 0.0
Zn563 Zn 0.61439 0.85269 0.62521 0.0
O564 O 0.66435 0.92528 0.62596 0.0
Zn565 Zn 0.62213 0.90394 0.62904 0.0
O566 O 0.62805 0.88569 0.67377 0.0
O567 O 0.61854 0.83315 0.66479 0.0
O568 O 0.58648 0.92816 0.63383 0.0
O569 O 0.5734 0.87611 0.6309 0.0
O570 O 0.60366 0.82712 0.58268 0.0
O571 O 0.61021 0.87915 0.58162 0.0
C572 C 0.62545 0.85874 0.68444 0.0
C573 C 0.60451 0.85065 0.56676 0.0
C574 C 0.68978 0.15891 0.38409 0.0
C575 C 0.57349 0.15069 0.39015 0.0
O576 O 0.67462 0.1307 0.3805 0.0
Zn577 Zn 0.62854 0.10659 0.38078 0.0
O578 O 0.67504 0.18284 0.38994 0.0
Zn579 Zn 0.63193 0.15901 0.38876 0.0
O580 O 0.63789 0.13786 0.431 0.0
O581 O 0.63381 0.08562 0.42053 0.0
O582 O 0.59201 0.17714 0.39376 0.0
O583 O 0.58519 0.12455 0.38557 0.0
O584 O 0.61895 0.08632 0.33539 0.0
O585 O 0.62058 0.1387 0.34023 0.0
C586 C 0.63817 0.11077 0.44101 0.0
C587 C 0.61595 0.11166 0.32261 0.0
C588 C 0.92599 0.70894 0.39881 0.0
C589 C 0.93681 0.59325 0.39715 0.0
O590 O 0.95266 0.6981 0.40227 0.0
Zn591 Zn 0.93589 0.65174 0.39456 0.0
O592 O 0.90021 0.68929 0.39207 0.0
Zn593 Zn 0.88363 0.63957 0.38616 0.0
O594 O 0.86113 0.63827 0.42475 0.0
O595 O 0.91322 0.6504 0.43583 0.0
O596 O 0.90862 0.60051 0.39214 0.0
O597 O 0.96057 0.61501 0.399 0.0
O598 O 0.91667 0.64408 0.34538 0.0
O599 O 0.86479 0.62987 0.34024 0.0
C600 C 0.88607 0.64538 0.44547 0.0
C601 C 0.89001 0.63554 0.32735 0.0
C602 C 0.44759 0.92535 0.39839 0.0
C603 C 0.32972 0.92149 0.39036 0.0
O604 O 0.43115 0.89758 0.39304 0.0
Zn605 Zn 0.38339 0.8747 0.38795 0.0
O606 O 0.43333 0.94967 0.40394 0.0
Zn607 Zn 0.38895 0.92664 0.3983 0.0
O608 O 0.38766 0.90259 0.43908 0.0
O609 O 0.38128 0.8506 0.42485 0.0
O610 O 0.34951 0.9469 0.39883 0.0
O611 O 0.34 0.89453 0.38605 0.0
O612 O 0.37947 0.85486 0.34337 0.0
O613 O 0.38331 0.90762 0.34902 0.0
C614 C 0.38444 0.87433 0.44675 0.0
C615 C 0.37996 0.88079 0.33109 0.0
C616 C 0.12698 0.43681 0.38518 0.0
C617 C 0.13549 0.32517 0.40086 0.0
O618 O 0.15572 0.43051 0.38953 0.0
Zn619 Zn 0.18073 0.39068 0.39836 0.0
O620 O 0.10398 0.41484 0.38528 0.0
Zn621 Zn 0.12975 0.38049 0.39196 0.0
O622 O 0.15195 0.39577 0.43999 0.0
O623 O 0.20417 0.40461 0.44133 0.0
O624 O 0.11002 0.33718 0.39415 0.0
O625 O 0.16254 0.34248 0.40281 0.0
O626 O 0.20276 0.38589 0.36078 0.0
O627 O 0.15062 0.37447 0.3487 0.0
C628 C 0.17976 0.40421 0.45587 0.0
C629 C 0.17839 0.37712 0.33987 0.0
C630 C 0.46705 0.19055 0.64753 0.0
C631 C 0.35267 0.19015 0.66231 0.0
O632 O 0.4493 0.16357 0.64285 0.0
Zn633 Zn 0.40208 0.14242 0.64388 0.0
O634 O 0.45504 0.21573 0.65622 0.0
Zn635 Zn 0.41089 0.19429 0.65635 0.0
O636 O 0.41886 0.16835 0.69572 0.0
O637 O 0.4087 0.11668 0.67912 0.0
O638 O 0.37313 0.21516 0.66564 0.0
O639 O 0.3612 0.16284 0.65466 0.0
O640 O 0.38999 0.12571 0.59806 0.0
O641 O 0.39801 0.1782 0.60682 0.0
C642 C 0.41763 0.13956 0.70184 0.0
C643 C 0.39068 0.15244 0.58722 0.0
C644 C 0.8843 0.4621 0.6612 0.0
C645 C 0.9072 0.35011 0.64205 0.0
O646 O 0.91184 0.45309 0.66397 0.0
Zn647 Zn 0.89879 0.40671 0.65487 0.0
O648 O 0.85964 0.44081 0.65529 0.0
Zn649 Zn 0.84775 0.38972 0.6458 0.0
O650 O 0.8281 0.37762 0.68407 0.0
O651 O 0.87914 0.39551 0.696 0.0
O652 O 0.87768 0.35358 0.63965 0.0
O653 O 0.92824 0.37449 0.65072 0.0
O654 O 0.87753 0.40396 0.60704 0.0
O655 O 0.82628 0.38577 0.60077 0.0
C656 C 0.85292 0.38432 0.70484 0.0
C657 C 0.85094 0.39634 0.58886 0.0
C658 C 0.12349 0.70772 0.61851 0.0
C659 C 0.10943 0.59099 0.61267 0.0
O660 O 0.15023 0.69692 0.62303 0.0
Zn661 Zn 0.16576 0.65122 0.62848 0.0
O662 O 0.0979 0.689 0.61822 0.0
Zn663 Zn 0.1154 0.64873 0.61982 0.0
O664 O 0.1326 0.64485 0.66852 0.0
O665 O 0.18482 0.64993 0.67254 0.0
O666 O 0.08697 0.60818 0.61077 0.0
O667 O 0.13852 0.60424 0.61853 0.0
O668 O 0.19215 0.64826 0.59426 0.0
O669 O 0.1404 0.64506 0.57823 0.0
C670 C 0.15955 0.64419 0.68514 0.0
C671 C 0.16906 0.64512 0.57171 0.0
C672 C 0.10421 0.98869 0.41224 0.0
C673 C 0.12651 0.97719 0.43348 0.0
C674 C 0.10246 0.02125 0.41317 0.0
C675 C 0.12315 0.04388 0.4352 0.0
H676 H 0.08909 0.97246 0.39342 0.0
H677 H 0.08598 0.02885 0.39511 0.0
S678 S 0.18368 0.02611 0.49831 0.0
N679 N 0.16781 0.99062 0.47922 0.0
N680 N 0.16482 0.05247 0.48084 0.0
C681 C 0.14395 0.03274 0.45832 0.0
C682 C 0.14561 0.99919 0.45746 0.0
C683 C 1.01923 0.1155 0.39693 0.0
C684 C 0.03412 0.12092 0.37 0.0
C685 C 0.98744 0.11955 0.39803 0.0
C686 C 0.96892 0.12929 0.37227 0.0
H687 H 0.0325 0.10878 0.41785 0.0
H688 H 0.97752 0.11558 0.41973 0.0
S689 S 0.99579 0.14442 0.29507 0.0
N690 N 0.02753 0.13474 0.316 0.0
N691 N 0.96722 0.14239 0.31808 0.0
C692 C 0.98289 0.13325 0.34442 0.0
C693 C 1.01561 0.12906 0.34328 0.0
C694 C 0.90942 1.01658 0.45418 0.0
C695 C 0.89095 0.99333 0.43077 0.0
C696 C 0.90516 0.04912 0.45565 0.0
C697 C 0.88222 0.0594 0.43384 0.0
H698 H 0.92819 1.00985 0.47044 0.0
H699 H 0.92106 0.06649 0.47279 0.0
S700 S 0.82383 1.00731 0.37218 0.0
N701 N 0.84583 0.9826 0.38839 0.0
N702 N 0.83832 0.04317 0.39102 0.0
C703 C 0.86227 0.03606 0.41194 0.0
C704 C 0.86648 1.00322 0.41045 0.0
C705 C 1.00032 0.92124 0.38223 0.0
C706 C 0.97596 0.90525 0.35857 0.0
C707 C 0.03202 0.91657 0.38151 0.0
C708 C 0.04112 0.89608 0.35684 0.0
H709 H 0.99465 0.93628 0.40259 0.0
H710 H 0.04947 0.92831 0.40128 0.0
S711 S 0.98737 0.85104 0.2871 0.0
N712 N 0.96341 0.86975 0.30825 0.0
N713 N 0.02374 0.86168 0.30653 0.0
C714 C 1.01757 0.88173 0.33161 0.0
C715 C 0.98481 0.8862 0.33253 0.0
C716 C 0.143 1.01151 0.57802 0.0
C717 C 0.12655 0.99414 0.59865 0.0
C718 C 0.14771 0.04533 0.5827 0.0
C719 C 0.1365 0.0628 0.60839 0.0
H720 H 0.1534 0.99899 0.55906 0.0
H721 H 0.16125 0.05783 0.56691 0.0
S722 S 0.0872 0.02898 0.66552 0.0
N723 N 0.09528 0.99751 0.64295 0.0
N724 N 0.10501 0.0602 0.65204 0.0
C725 C 0.11857 0.04569 0.62789 0.0
C726 C 0.11336 1.01164 0.62292 0.0
C727 C 0.02688 0.17522 0.71181 0.0
C728 C 1.00237 0.15568 0.69068 0.0
C729 C 0.0593 0.17332 0.70879 0.0
C730 C 0.06812 0.15193 0.68448 0.0
H731 H 1.02104 0.19325 0.72952 0.0
H732 H 0.07745 0.18993 0.72434 0.0
S733 S 1.01325 0.09169 0.62707 0.0
N734 N 0.98954 0.11121 0.64768 0.0
N735 N 0.04982 0.10826 0.64179 0.0
C736 C 0.04386 0.13088 0.66483 0.0
C737 C 1.01118 0.13258 0.66802 0.0
C738 C 0.88918 0.05235 0.67437 0.0
C739 C 0.89215 0.06452 0.64526 0.0
C740 C 0.8852 0.01943 0.67614 0.0
C741 C 0.88403 0.99708 0.64879 0.0
H742 H 0.88986 0.06843 0.69631 0.0
H743 H 0.88287 1.01151 0.69903 0.0
S744 S 0.89134 1.01627 0.56658 0.0
N745 N 0.89405 0.05139 0.58849 0.0
N746 N 0.88667 0.98969 0.59143 0.0
C747 C 0.88711 1.00892 0.61946 0.0
C748 C 0.89111 0.04249 0.6177 0.0
C749 C 1.01238 0.90279 0.65421 0.0
C750 C 0.02832 0.89523 0.6279 0.0
C751 C 0.97911 0.90123 0.65068 0.0
C752 C 0.96015 0.892 0.62066 0.0
H753 H 0.02568 0.9105 0.67772 0.0
H754 H 0.96829 0.90777 0.67183 0.0
S755 S 0.98989 0.86764 0.5443 0.0
N756 N 0.02231 0.87655 0.57074 0.0
N757 N 0.9599 0.87385 0.56435 0.0
C758 C 0.97567 0.88368 0.59422 0.0
C759 C 1.00964 0.88522 0.59778 0.0
C760 C 0.38527 0.16051 0.0327 0.0
C761 C 0.41168 0.16437 0.05667 0.0
C762 C 0.38886 0.15703 1.00013 0.0
C763 C 0.41908 0.15724 0.98964 0.0
H764 H 0.36139 0.15991 0.03905 0.0
H765 H 0.36748 0.15394 0.98297 0.0
S766 S 0.49632 0.16662 0.04243 0.0
N767 N 0.46955 0.16833 0.06737 0.0
N768 N 0.47609 0.1618 1.00622 0.0
C769 C 0.44584 0.16148 1.01327 0.0
C770 C 0.4422 0.165 0.04663 0.0
C771 C 0.91663 0.38111 1.01145 0.0
C772 C 0.89917 0.35421 0.99166 0.0
C773 C 0.91995 0.38358 0.04476 0.0
C774 C 0.90638 0.35913 0.06035 0.0
H775 H 0.92729 0.4012 1.00117 0.0
H776 H 0.93302 0.40526 0.05844 0.0
S777 S 0.86032 0.28234 0.02031 0.0
N778 N 0.86942 0.30163 0.99044 0.0
N779 N 0.87623 0.30598 0.05344 0.0
C780 C 0.89019 0.33124 0.04113 0.0
C781 C 0.88649 0.32884 1.00678 0.0
C782 C 0.67843 0.88024 0.99696 0.0
C783 C 0.64949 0.87056 0.97631 0.0
C784 C 0.68032 0.87984 0.0301 0.0
C785 C 0.65334 0.86981 0.04415 0.0
H786 H 0.69993 0.88865 0.98756 0.0
H787 H 0.70292 0.88831 0.04486 0.0
S788 S 0.57232 0.83956 1.00074 0.0
N789 N 0.59362 0.84894 0.97247 0.0
N790 N 0.59701 0.848 0.03445 0.0
C791 C 0.62442 0.85916 0.02371 0.0
C792 C 0.62252 0.85961 0.98995 0.0
C793 C 0.16992 0.57139 0.9805 0.0
C794 C 0.15548 0.59089 0.96018 0.0
C795 C 0.16603 0.57408 1.01329 0.0
C796 C 0.14759 0.59626 0.02676 0.0
H797 H 0.18563 0.55533 0.9715 0.0
H798 H 0.17903 0.5601 0.02854 0.0
S799 S 0.10073 0.64891 0.98264 0.0
N800 N 0.11881 0.63016 0.95535 0.0
N801 N 0.11213 0.63533 0.01631 0.0
C802 C 0.13158 0.61429 1.00619 0.0
C803 C 0.13531 0.6115 0.97312 0.0
C804 C 0.34722 0.88198 0.0329 0.0
C805 C 0.37058 0.90576 0.05072 0.0
C806 C 0.34537 0.87542 0.9994 0.0
C807 C 0.36676 0.89258 0.98284 0.0
H808 H 0.33145 0.86724 0.04505 0.0
H809 H 0.32829 0.85583 0.98669 0.0
S810 S 0.42813 0.96116 0.01814 0.0
N811 N 0.41264 0.94895 0.04901 0.0
N812 N 0.40892 0.93736 0.98653 0.0
C813 C 0.38852 0.91798 1.00035 0.0
C814 C 0.39053 0.92436 0.03417 0.0
C815 C 0.14261 0.38955 1.00307 0.0
C816 C 0.15165 0.41939 0.993 0.0
C817 C 0.14479 0.38568 0.03543 0.0
C818 C 0.15593 0.41149 0.05936 0.0
H819 H 0.13393 0.36861 0.98581 0.0
H820 H 0.13765 0.3622 0.04166 0.0
S821 S 0.18303 0.49471 0.0462 0.0
N822 N 0.17238 0.47523 1.00986 0.0
N823 N 0.17646 0.46822 0.07078 0.0
C824 C 0.1649 0.44162 0.04977 0.0
C825 C 0.16275 0.44551 0.01664 0.0
C826 C 0.55953 0.1078 1.01383 0.0
C827 C 0.57705 0.13252 0.03631 0.0
C828 C 0.56302 0.10612 0.98105 0.0
C829 C 0.58444 0.12887 0.97005 0.0
H830 H 0.54486 0.08858 0.02184 0.0
H831 H 0.55057 0.08583 0.96468 0.0
S832 S 0.6315 0.20092 0.01876 0.0
N833 N 0.61319 0.1822 0.04463 0.0
N834 N 0.61996 0.17893 0.98373 0.0
C835 C 0.60004 0.15486 0.99207 0.0
C836 C 0.59628 0.1567 0.02501 0.0
C837 C 0.90991 0.61593 0.98525 0.0
C838 C 0.90354 0.64436 0.97318 0.0
C839 C 0.90643 0.61149 0.01703 0.0
C840 C 0.89633 0.6353 0.03775 0.0
H841 H 0.9186 0.59735 0.97035 0.0
H842 H 0.91292 0.58996 0.02574 0.0
S843 S 0.87181 0.71187 0.01641 0.0
N844 N 0.88338 0.695 0.98362 0.0
N845 N 0.87668 0.68684 0.04274 0.0
C846 C 0.8882 0.663 0.02531 0.0
C847 C 0.89188 0.66752 0.99324 0.0
C848 C 0.0614 0.40579 0.1697 0.0
C849 C 0.07918 0.43581 0.16926 0.0
C850 C 0.02827 0.40193 0.16828 0.0
C851 C 1.01097 0.42787 0.16636 0.0
H852 H 0.07311 0.38466 0.17068 0.0
H853 H 1.01615 0.37807 0.16824 0.0
S854 S 0.04604 0.51213 0.16655 0.0
N855 N 0.07713 0.49241 0.16833 0.0
N856 N 1.01447 0.48532 0.16575 0.0
C857 C 0.02842 0.45839 0.16704 0.0
C858 C 0.06253 0.46232 0.16854 0.0
C859 C 0.0617 0.65778 0.89383 0.0
C860 C 0.0751 0.63588 0.87395 0.0
C861 C 0.029 0.65316 0.89659 0.0
C862 C 1.00841 0.62644 0.87966 0.0
H863 H 0.07665 0.67816 0.90795 0.0
H864 H 1.01979 0.6708 0.91217 0.0
S865 S 0.03145 0.56323 0.82266 0.0
N866 N 0.06495 0.58723 0.83575 0.0
N867 N 1.00389 0.57862 0.84124 0.0
C868 C 0.02153 0.6046 0.85944 0.0
C869 C 0.05469 0.60936 0.85646 0.0
C870 C 0.37498 0.98218 0.88315 0.0
C871 C 0.4051 0.97284 0.89201 0.0
C872 C 0.371 1.01439 0.88291 0.0
C873 C 0.39694 0.03874 0.89155 0.0
H874 H 0.35411 0.96446 0.87629 0.0
H875 H 0.34737 0.02016 0.87577 0.0
S876 S 0.48087 0.02726 0.91744 0.0
N877 N 0.46128 0.99078 0.91006 0.0
N878 N 0.45405 0.05115 0.90976 0.0
C879 C 0.42726 0.02975 0.90056 0.0
C880 C 0.43128 0.99691 0.90073 0.0
C881 C 0.02375 0.36544 0.88771 0.0
C882 C 0.0462 0.39266 0.88858 0.0
C883 C 0.99171 0.36801 0.89092 0.0
C884 C 0.98049 0.39792 0.89521 0.0
H885 H 0.03105 0.34188 0.88516 0.0
H886 H 0.97569 0.34617 0.89048 0.0
S887 S 0.02893 0.47668 0.89698 0.0
N888 N 0.05436 0.45072 0.89244 0.0
N889 N 0.99437 0.45533 0.89858 0.0
C890 C 1.00248 0.42533 0.89537 0.0
C891 C 0.03516 0.42275 0.89201 0.0
C892 C 0.64025 1.01549 0.89079 0.0
C893 C 0.66553 0.04074 0.8955 0.0
C894 C 0.64565 0.98362 0.8893 0.0
C895 C 0.67667 0.97504 0.89231 0.0
H896 H 0.61576 0.02023 0.88811 0.0
H897 H 0.62497 0.96551 0.8855 0.0
S898 S 0.7516 0.03185 0.90532 0.0
N899 N 0.72317 0.05497 0.90351 0.0
N900 N 0.73332 0.99482 0.9006 0.0
C901 C 0.70238 0.99997 0.89726 0.0
C902 C 0.69683 0.03277 0.89892 0.0
C903 C 0.05348 0.69126 0.12699 0.0
C904 C 0.06598 0.66238 0.13051 0.0
C905 C 0.02161 0.6949 0.13155 0.0
C906 C 1.00079 0.66986 0.13997 0.0
H907 H 0.06824 0.71111 0.12013 0.0
H908 H 1.01301 0.71719 0.12757 0.0
S909 S 0.02246 0.59064 0.15574 0.0
N910 N 0.05508 0.60916 0.14541 0.0
N911 N 0.9962 0.616 0.15404 0.0
C912 C 1.01344 0.64136 0.14469 0.0
C913 C 0.04562 0.63763 0.13995 0.0
C914 C 0.40775 0.0617 0.1668 0.0
C915 C 0.436 0.08102 0.16327 0.0
C916 C 0.40594 0.02838 0.16494 0.0
C917 C 0.43224 1.0125 0.15929 0.0
H918 H 0.38653 0.0724 0.17078 0.0
H919 H 0.38343 1.01495 0.16764 0.0
S920 S 0.5116 0.05188 0.14695 0.0
N921 N 0.49086 0.08178 0.15338 0.0
N922 N 0.48763 1.01909 0.14961 0.0
C923 C 0.46089 0.03155 0.15605 0.0
C924 C 0.46273 0.06572 0.15813 0.0
C925 C 0.64336 0.02012 0.11028 0.0
C926 C 0.62581 0.03977 0.12808 0.0
C927 C 0.64023 0.98708 0.1116 0.0
C928 C 0.61934 0.97252 0.13061 0.0
H929 H 0.65926 0.03025 0.09498 0.0
H930 H 0.65425 0.97274 0.09756 0.0
S931 S 0.5723 1.01416 0.18578 0.0
N932 N 0.58956 0.04274 0.16806 0.0
N933 N 0.58351 0.9807 0.16997 0.0
C934 C 0.60232 0.99198 0.14908 0.0
C935 C 0.60565 0.02559 0.14798 0.0
C936 C 0.63532 0.4842 0.8641 0.0
C937 C 0.64009 0.47453 0.89455 0.0
C938 C 0.64104 0.51647 0.85993 0.0
C939 C 0.65183 0.54059 0.886 0.0
H940 H 0.62756 0.46669 0.84316 0.0
H941 H 0.63722 0.52243 0.83585 0.0
S942 S 0.66729 0.52832 0.971 0.0
N943 N 0.65559 0.49213 0.95158 0.0
N944 N 0.66633 0.55253 0.94351 0.0
C945 C 0.65611 0.53139 0.91668 0.0
C946 C 0.65025 0.4985 0.92099 0.0
C947 C 0.54983 0.63382 0.80609 0.0
C948 C 0.56969 0.62001 0.82789 0.0
C949 C 0.51709 0.63389 0.80882 0.0
C950 C 0.50337 0.62012 0.83339 0.0
H951 H 0.55991 0.64594 0.7879 0.0
H952 H 0.5029 0.64614 0.79268 0.0
S953 S 0.54403 0.5759 0.89262 0.0
N954 N 0.57222 0.58868 0.87201 0.0
N955 N 0.51144 0.58876 0.87706 0.0
C956 C 0.52266 0.6044 0.85376 0.0
C957 C 0.5556 0.60436 0.85103 0.0
C958 C 0.40035 0.48558 0.86837 0.0
C959 C 0.40298 0.47254 0.89726 0.0
C960 C 0.40489 0.51873 0.8679 0.0
C961 C 0.4125 0.54055 0.89627 0.0
H962 H 0.39457 0.47009 0.84581 0.0
H963 H 0.40248 0.52724 0.84486 0.0
S964 S 0.42291 0.51898 0.97847 0.0
N965 N 0.41416 0.48435 0.95525 0.0
N966 N 0.42278 0.54644 0.9542 0.0
C967 C 0.41541 0.52789 0.92538 0.0
C968 C 0.41063 0.49404 0.9259 0.0
C969 C 0.502 0.40136 0.93072 0.0
C970 C 0.48505 0.38619 0.95239 0.0
C971 C 0.53498 0.40246 0.932 0.0
C972 C 0.55305 0.38851 0.95505 0.0
H973 H 0.48952 0.41189 0.91179 0.0
H974 H 0.54636 0.41371 0.91397 0.0
S975 S 0.52108 0.34786 0.01918 0.0
N976 N 0.48928 0.35854 0.99921 0.0
N977 N 0.55181 0.36068 1.00162 0.0
C978 C 0.53694 0.37481 0.9782 0.0
C979 C 0.50287 0.37363 0.97687 0.0
C980 C 0.6772 0.53544 0.1404 0.0
C981 C 0.66195 0.54841 0.1149 0.0
C982 C 0.68008 0.50285 0.13803 0.0
C983 C 0.66753 0.48146 0.11018 0.0
H984 H 0.68693 0.55056 0.16255 0.0
H985 H 0.69173 0.49424 0.15873 0.0
S986 S 0.62497 0.50313 0.03649 0.0
N987 N 0.63433 0.53732 0.06046 0.0
N988 N 0.6393 0.47583 0.05643 0.0
C989 C 0.6528 0.49413 0.08416 0.0
C990 C 0.65006 0.52759 0.08645 0.0
C991 C 0.54142 0.61441 0.10089 0.0
C992 C 0.55603 0.62735 0.07635 0.0
C993 C 0.51047 0.61916 0.1061 0.0
C994 C 0.49213 0.63627 0.0865 0.0
H995 H 0.55475 0.60209 0.11769 0.0
H996 H 0.50117 0.61018 0.12641 0.0
S997 S 0.51669 0.67127 0.01606 0.0
N998 N 0.54822 0.65566 0.03027 0.0
N999 N 0.48923 0.66341 0.03939 0.0
C1000 C 0.50506 0.64697 0.0601 0.0
C1001 C 0.53714 0.64268 0.0551 0.0
C1002 C 0.44847 0.54709 0.21234 0.0
C1003 C 0.42433 0.52175 0.19981 0.0
C1004 C 0.44648 0.57815 0.20437 0.0
C1005 C 0.42058 0.58454 0.18325 0.0
H1006 H 0.46981 0.54254 0.22659 0.0
H1007 H 0.46623 0.59677 0.21319 0.0
S1008 S 0.3492 0.52724 0.14811 0.0
N1009 N 0.37212 0.50605 0.16855 0.0
N1010 N 0.36881 0.56371 0.15321 0.0
C1011 C 0.3955 0.5598 0.17243 0.0
C1012 C 0.39728 0.52861 0.18083 0.0
C1013 C 0.55973 0.40419 0.18064 0.0
C1014 C 0.57474 0.40427 0.15312 0.0
C1015 C 0.5284 0.41086 0.18032 0.0
C1016 C 0.51064 0.41807 0.1525 0.0
H1017 H 0.57219 0.39875 0.20261 0.0
H1018 H 0.51796 0.40996 0.20223 0.0
S1019 S 0.53971 0.42368 0.07451 0.0
N1020 N 0.56996 0.41368 0.09736 0.0
N1021 N 0.51092 0.42603 0.09703 0.0
C1022 C 0.52541 0.41857 0.12484 0.0
C1023 C 0.55745 0.41175 0.1251 0.0
C1024 C 0.91494 0.65745 0.50109 0.0
C1025 C 0.88575 0.64798 0.48081 0.0
C1026 C 0.91692 0.65976 0.53434 0.0
C1027 C 0.88983 0.65281 0.54933 0.0
H1028 H 0.9369 0.6632 0.49132 0.0
H1029 H 0.9401 0.66715 0.54836 0.0
S1030 S 0.80733 0.62708 0.50775 0.0
N1031 N 0.82892 0.63166 0.47847 0.0
N1032 N 0.83244 0.63607 0.5412 0.0
C1033 C 0.86029 0.64343 0.52954 0.0
C1034 C 0.8583 0.64102 0.49535 0.0
C1035 C 0.36089 0.84219 0.5223 0.0
C1036 C 0.37388 0.8675 0.54655 0.0
C1037 C 0.36533 0.84369 0.49008 0.0
C1038 C 0.38306 0.87047 0.481 0.0
H1039 H 0.34653 0.82149 0.52811 0.0
H1040 H 0.35393 0.82425 0.47208 0.0
S1041 S 0.42631 0.94072 0.53592 0.0
N1042 N 0.40821 0.91853 0.55935 0.0
N1043 N 0.41644 0.9212 0.49955 0.0
C1044 C 0.39744 0.89508 0.5053 0.0
C1045 C 0.39289 0.89364 0.53781 0.0
C1046 C 0.20625 0.40283 0.51197 0.0
C1047 C 0.18226 0.41257 0.491 0.0
C1048 C 0.20481 0.40552 0.54516 0.0
C1049 C 0.17928 0.41789 0.55816 0.0
H1050 H 0.22518 0.39146 0.50253 0.0
H1051 H 0.2227 0.39625 0.56037 0.0
S1052 S 0.11387 0.45199 0.51409 0.0
N1053 N 0.13485 0.43899 0.4863 0.0
N1054 N 0.13195 0.44369 0.54797 0.0
C1055 C 0.15657 0.42973 0.53761 0.0
C1056 C 0.1581 0.42716 0.5042 0.0
C1057 C 0.65628 0.14165 0.52998 0.0
C1058 C 0.64709 0.11514 0.54522 0.0
C1059 C 0.65423 0.13934 0.49662 0.0
C1060 C 0.64284 0.11042 0.47648 0.0
H1061 H 0.6648 0.16472 0.54389 0.0
H1062 H 0.6613 0.16087 0.48655 0.0
S1063 S 0.61664 0.03324 0.50389 0.0
N1064 N 0.62697 0.05834 0.53726 0.0
N1065 N 0.62306 0.05424 0.47451 0.0
C1066 C 0.63437 0.08337 0.49126 0.0
C1067 C 0.63646 0.08569 0.52551 0.0
C1068 C 0.88092 0.42329 0.51491 0.0
C1069 C 0.86113 0.40395 0.48944 0.0
C1070 C 0.87583 0.42181 0.54658 0.0
C1071 C 0.85089 0.40061 0.55454 0.0
H1072 H 0.90131 0.43907 0.51045 0.0
H1073 H 0.89253 0.43676 0.56513 0.0
S1074 S 0.79052 0.34649 0.49655 0.0
N1075 N 0.81399 0.36445 0.47398 0.0
N1076 N 0.80466 0.36137 0.5339 0.0
C1077 C 0.82966 0.3824 0.52926 0.0
C1078 C 0.83475 0.38411 0.49666 0.0
C1079 C 0.59296 0.87171 0.51539 0.0
C1080 C 0.60264 0.84674 0.53138 0.0
C1081 C 0.59809 0.87382 0.48387 0.0
C1082 C 0.61303 0.85099 0.46666 0.0
H1083 H 0.58272 0.89083 0.5279 0.0
H1084 H 0.59127 0.89432 0.47325 0.0
S1085 S 0.63997 0.77894 0.49607 0.0
N1086 N 0.62567 0.7971 0.5267 0.0
N1087 N 0.63496 0.80097 0.46688 0.0
C1088 C 0.62073 0.82453 0.48133 0.0
C1089 C 0.6156 0.82241 0.51383 0.0
C1090 C 0.14962 0.62209 0.5157 0.0
C1091 C 0.17399 0.64043 0.53773 0.0
C1092 C 0.15081 0.61983 0.48295 0.0
C1093 C 0.17632 0.63601 0.47054 0.0
H1094 H 0.12894 0.60983 0.52379 0.0
H1095 H 0.13091 0.60586 0.46714 0.0
S1096 S 0.24737 0.68559 0.51817 0.0
N1097 N 0.22552 0.67362 0.54518 0.0
N1098 N 0.22761 0.66959 0.48301 0.0
C1099 C 0.20178 0.65317 0.49225 0.0
C1100 C 0.20063 0.65536 0.52599 0.0
C1101 C 0.38584 0.12826 0.52949 0.0
C1102 C 0.38483 0.15474 0.55225 0.0
C1103 C 0.38311 0.13087 0.49666 0.0
C1104 C 0.37915 0.16008 0.48499 0.0
H1105 H 0.38953 0.10544 0.53707 0.0
H1106 H 0.38453 0.10972 0.48034 0.0
S1107 S 0.37237 0.23618 0.53444 0.0
N1108 N 0.37765 0.21092 0.5605 0.0
N1109 N 0.3727 0.21566 0.49909 0.0
C1110 C 0.37722 0.18655 0.50743 0.0
C1111 C 0.37999 0.18392 0.54089 0.0
C1112 C 0.48166 0.88316 0.65297 0.0
C1113 C 0.46748 0.91102 0.65012 0.0
C1114 C 0.51328 0.88175 0.64825 0.0
C1115 C 0.53251 0.90817 0.64049 0.0
H1116 H 0.468 0.86178 0.6583 0.0
H1117 H 0.52255 0.85941 0.65045 0.0
S1118 S 0.50766 0.98765 0.63191 0.0
N1119 N 0.4755 0.96632 0.6403 0.0
N1120 N 0.53547 0.96379 0.63166 0.0
C1121 C 0.51917 0.93672 0.63873 0.0
C1122 C 0.48659 0.93814 0.64352 0.0
C1123 C 0.48692 0.11443 0.38647 0.0
C1124 C 0.47011 0.14079 0.38665 0.0
C1125 C 0.52017 0.11823 0.38817 0.0
C1126 C 0.53832 0.14858 0.38999 0.0
H1127 H 0.47435 0.09055 0.38515 0.0
H1128 H 0.53167 0.09689 0.38791 0.0
S1129 S 0.50589 0.22555 0.39057 0.0
N1130 N 0.47421 0.19863 0.38848 0.0
N1131 N 0.53671 0.20552 0.39154 0.0
C1132 C 0.52189 0.17523 0.39022 0.0
C1133 C 0.48787 0.1714 0.38855 0.0
C1134 C 0.91631 0.54453 0.41928 0.0
C1135 C 0.93985 0.56007 0.4037 0.0
C1136 C 0.91512 0.51219 0.42296 0.0
C1137 C 0.93759 0.49381 0.41155 0.0
H1138 H 0.89807 0.55739 0.42825 0.0
H1139 H 0.89609 0.50133 0.43452 0.0
S1140 S 1.00299 0.5221 0.36734 0.0
N1141 N 0.98571 0.55418 0.37594 0.0
N1142 N 0.9837 0.49316 0.38312 0.0
C1143 C 0.96174 0.50899 0.39646 0.0
C1144 C 0.96285 0.54217 0.39253 0.0
C1145 C 0.49326 0.90145 0.37849 0.0
C1146 C 0.48242 0.92764 0.39532 0.0
C1147 C 0.52553 0.90074 0.3759 0.0
C1148 C 0.54911 0.92609 0.39014 0.0
H1149 H 0.47664 0.88083 0.36724 0.0
H1150 H 0.53199 0.87949 0.36302 0.0
S1151 S 0.53369 1.00161 0.43527 0.0
N1152 N 0.49791 0.98074 0.42504 0.0
N1153 N 0.55902 0.97925 0.42057 0.0
C1154 C 0.53872 0.95315 0.40613 0.0
C1155 C 0.50538 0.95396 0.40861 0.0
C1156 C 0.13926 0.51832 0.35776 0.0
C1157 C 0.11791 0.53542 0.37321 0.0
C1158 C 0.14108 0.48618 0.36095 0.0
C1159 C 0.12149 0.4696 0.37959 0.0
H1160 H 0.15538 0.53015 0.34366 0.0
H1161 H 0.15846 0.47435 0.34916 0.0
S1162 S 0.06296 0.50364 0.4267 0.0
N1163 N 0.07753 0.53354 0.40892 0.0
N1164 N 0.08053 0.47279 0.41438 0.0
C1165 C 0.09947 0.48606 0.39464 0.0
C1166 C 0.09777 0.51904 0.39158 0.0
C1167 C 0.50963 0.16356 0.62478 0.0
C1168 C 0.50114 0.19059 0.64263 0.0
C1169 C 0.54145 0.15977 0.62264 0.0
C1170 C 0.56656 0.18289 0.63801 0.0
H1171 H 0.49149 0.14448 0.61289 0.0
H1172 H 0.54638 0.13799 0.60937 0.0
S1173 S 0.55769 0.25918 0.68621 0.0
N1174 N 0.52068 0.24177 0.67476 0.0
N1175 N 0.58079 0.2348 0.67057 0.0
C1176 C 0.55859 0.21087 0.65471 0.0
C1177 C 0.52587 0.21469 0.65703 0.0
C1178 C 0.90658 0.51955 0.66007 0.0
C1179 C 0.88028 0.49667 0.6615 0.0
C1180 C 0.90292 0.55152 0.65712 0.0
C1181 C 0.8728 0.56234 0.65555 0.0
H1182 H 0.93022 0.51263 0.66047 0.0
H1183 H 0.92408 0.56783 0.65576 0.0
S1184 S 0.79628 0.5126 0.66018 0.0
N1185 N 0.82295 0.48763 0.66248 0.0
N1186 N 0.81627 0.54748 0.657 0.0
C1187 C 0.84637 0.53992 0.65776 0.0
C1188 C 0.85006 0.50727 0.66071 0.0
C1189 C 0.12709 0.53854 0.59973 0.0
C1190 C 0.10359 0.55585 0.61064 0.0
C1191 C 0.1281 0.50704 0.60509 0.0
C1192 C 0.10543 0.49124 0.62124 0.0
H1193 H 0.14608 0.55004 0.58855 0.0
H1194 H 0.14774 0.49538 0.59765 0.0
S1195 S 0.03657 0.52444 0.65118 0.0
N1196 N 0.05528 0.55408 0.63588 0.0
N1197 N 0.05686 0.49401 0.64535 0.0
C1198 C 0.08015 0.50719 0.62995 0.0
C1199 C 0.07927 0.53974 0.62473 0.0
C1200 C 0.1151 0.23492 0.38785 0.0
C1201 C 0.13618 0.2252 0.41179 0.0
C1202 C 0.11399 0.26736 0.38527 0.0
C1203 C 0.13457 0.29127 0.40596 0.0
H1204 H 0.09923 0.21728 0.37095 0.0
H1205 H 0.0977 0.2737 0.36626 0.0
S1206 S 0.1934 0.27876 0.4733 0.0
N1207 N 0.17707 0.24232 0.45742 0.0
N1208 N 0.17593 0.30322 0.45181 0.0
C1209 C 0.15548 0.28196 0.43022 0.0
C1210 C 0.15602 0.24895 0.43337 0.0
C1211 C 0.77955 0.17558 0.40758 0.0
C1212 C 0.79097 0.1571 0.3827 0.0
C1213 C 0.74687 0.1783 0.4069 0.0
C1214 C 0.72437 0.16216 0.38157 0.0
H1215 H 0.79593 0.18764 0.42805 0.0
H1216 H 0.73902 0.19169 0.42708 0.0
S1217 S 0.74153 0.11188 0.31001 0.0
N1218 N 0.77684 0.12374 0.33127 0.0
N1219 N 0.71569 0.12812 0.33053 0.0
C1220 C 0.73551 0.14442 0.3562 0.0
C1221 C 0.7687 0.1421 0.35658 0.0
C1222 C 0.8912 0.78615 0.39112 0.0
C1223 C 0.91038 0.80882 0.41451 0.0
C1224 C 0.89716 0.75441 0.38594 0.0
C1225 C 0.92307 0.74375 0.40336 0.0
H1226 H 0.87119 0.79298 0.37655 0.0
H1227 H 0.88121 0.738 0.36791 0.0
S1228 S 0.98124 0.79351 0.46709 0.0
N1229 N 0.95674 0.81837 0.45529 0.0
N1230 N 0.96829 0.75864 0.44516 0.0
C1231 C 0.9428 0.76615 0.42668 0.0
C1232 C 0.93632 0.7986 0.43241 0.0
C1233 C 0.24331 0.89607 0.3549 0.0
C1234 C 0.22656 0.91034 0.37792 0.0
C1235 C 0.27676 0.90117 0.35853 0.0
C1236 C 0.29473 0.92155 0.38472 0.0
H1237 H 0.2306 0.87959 0.33481 0.0
H1238 H 0.28873 0.88826 0.34112 0.0
S1239 S 0.26203 0.96727 0.44984 0.0
N1240 N 0.23025 0.9473 0.42683 0.0
N1241 N 0.29309 0.95768 0.43288 0.0
C1242 C 0.27821 0.93746 0.40688 0.0
C1243 C 0.24413 0.93161 0.40368 0.0
C1244 C 0.09748 0.79008 0.61548 0.0
C1245 C 0.11971 0.80553 0.59841 0.0
C1246 C 0.09844 0.75837 0.62133 0.0
C1247 C 0.12239 0.74108 0.61134 0.0
H1248 H 0.07948 0.80291 0.62499 0.0
H1249 H 0.08089 0.74767 0.63469 0.0
S1250 S 0.18562 0.77006 0.56468 0.0
N1251 N 0.16555 0.80063 0.57045 0.0
N1252 N 0.16807 0.74139 0.5821 0.0
C1253 C 0.14444 0.75604 0.5937 0.0
C1254 C 0.14292 0.78813 0.58705 0.0
C1255 C 0.27165 0.17016 0.68872 0.0
C1256 C 0.2506 0.17932 0.66443 0.0
C1257 C 0.30491 0.17554 0.68896 0.0
C1258 C 0.31857 0.19128 0.6656 0.0
H1259 H 0.26237 0.15749 0.70696 0.0
H1260 H 0.32007 0.16642 0.70704 0.0
S1261 S 0.27456 0.22184 0.5979 0.0
N1262 N 0.24632 0.20607 0.61694 0.0
N1263 N 0.30869 0.21671 0.61808 0.0
C1264 C 0.29801 0.20174 0.64198 0.0
C1265 C 0.26411 0.19567 0.64125 0.0
C1266 C 0.89783 0.26151 0.61219 0.0
C1267 C 0.91942 0.25022 0.6343 0.0
C1268 C 0.89559 0.29431 0.61356 0.0
C1269 C 0.91536 0.3171 0.63655 0.0
H1270 H 0.88095 0.24482 0.59529 0.0
H1271 H 0.87717 0.30176 0.59741 0.0
S1272 S 0.97884 0.30003 0.69691 0.0
N1273 N 0.963 0.26455 0.6779 0.0
N1274 N 0.95934 0.32613 0.67978 0.0
C1275 C 0.93881 0.3063 0.657 0.0
C1276 C 0.94066 0.27287 0.65607 0.0
C1277 C 0.72138 0.87429 0.59837 0.0
C1278 C 0.71077 0.90208 0.61264 0.0
C1279 C 0.7531 0.87414 0.59271 0.0
C1280 C 0.77535 0.90172 0.60121 0.0
H1281 H 0.70531 0.85212 0.59236 0.0
H1282 H 0.76071 0.85181 0.5837 0.0
S1283 S 0.75974 0.9813 0.63627 0.0
N1284 N 0.72494 0.95859 0.63255 0.0
N1285 N 0.78466 0.95795 0.6225 0.0
C1286 C 0.76484 0.93001 0.61383 0.0
C1287 C 0.73251 0.93032 0.61935 0.0
C1288 C 0.34831 0.15327 0.24454 0.0
C1289 C 0.36819 0.17716 0.23371 0.0
C1290 C 0.34621 0.15373 0.27731 0.0
C1291 C 0.36343 0.17838 0.30026 0.0
H1292 H 0.33627 0.13291 0.22798 0.0
H1293 H 0.33225 0.13375 0.28491 0.0
S1294 S 0.41563 0.24856 0.28332 0.0
N1295 N 0.40313 0.22759 0.24791 0.0
N1296 N 0.39859 0.22872 0.30928 0.0
C1297 C 0.38127 0.20372 0.28937 0.0
C1298 C 0.38383 0.20298 0.25612 0.0
C1299 C 0.92518 0.3999 0.30237 0.0
C1300 C 0.9016 0.37923 0.31292 0.0
C1301 C 0.93031 0.39684 0.27031 0.0
C1302 C 0.91282 0.37233 0.24767 0.0
H1303 H 0.93924 0.4192 0.31891 0.0
H1304 H 0.94791 0.41408 0.26309 0.0
S1305 S 0.84983 0.31056 0.26352 0.0
N1306 N 0.86127 0.33277 0.29851 0.0
N1307 N 0.87174 0.32621 0.2383 0.0
C1308 C 0.88995 0.35073 0.2581 0.0
C1309 C 0.88408 0.35443 0.29069 0.0
C1310 C 0.6667 0.86309 0.24573 0.0
C1311 C 0.66442 0.89173 0.23272 0.0
C1312 C 0.65701 0.85905 0.27565 0.0
C1313 C 0.64488 0.8836 0.29368 0.0
H1314 H 0.67427 0.84305 0.23188 0.0
H1315 H 0.65895 0.83652 0.28464 0.0
S1316 S 0.6344 0.96326 0.26998 0.0
N1317 N 0.64916 0.94481 0.23989 0.0
N1318 N 0.63191 0.93789 0.29634 0.0
C1319 C 0.64347 0.91269 0.28122 0.0
C1320 C 0.65297 0.91656 0.25072 0.0
C1321 C 0.18423 0.64024 0.23546 0.0
C1322 C 0.16297 0.61635 0.21515 0.0
C1323 C 0.18565 0.64282 0.26888 0.0
C1324 C 0.16514 0.62223 0.28318 0.0
H1325 H 0.19973 0.65729 0.22541 0.0
H1326 H 0.20203 0.66183 0.28354 0.0
S1327 S 0.10582 0.55509 0.24092 0.0
N1328 N 0.12192 0.5709 0.21201 0.0
N1329 N 0.12373 0.57646 0.27459 0.0
C1330 C 0.14415 0.59795 0.2632 0.0
C1331 C 0.1433 0.59479 0.22926 0.0
C1332 C 0.39743 0.87174 0.78423 0.0
C1333 C 0.37205 0.85575 0.79707 0.0
C1334 C 0.3975 0.87055 0.75127 0.0
C1335 C 0.37259 0.85275 0.7295 0.0
H1336 H 0.41712 0.88635 0.79975 0.0
H1337 H 0.41694 0.8844 0.74272 0.0
S1338 S 0.3012 0.80507 0.74999 0.0
N1339 N 0.32163 0.82055 0.785 0.0
N1340 N 0.3222 0.81788 0.7227 0.0
C1341 C 0.34757 0.83558 0.74168 0.0
C1342 C 0.34716 0.83725 0.77551 0.0
C1343 C 0.13237 0.40899 0.78504 0.0
C1344 C 0.15364 0.43031 0.80801 0.0
C1345 C 0.13414 0.40809 0.7523 0.0
C1346 C 0.15769 0.428 0.74085 0.0
H1347 H 0.1142 0.39249 0.79243 0.0
H1348 H 0.11726 0.39094 0.73585 0.0
S1349 S 0.21845 0.48929 0.79073 0.0
N1350 N 0.19829 0.47294 0.81687 0.0
N1351 N 0.20213 0.47077 0.75515 0.0
C1352 C 0.1789 0.4499 0.76343 0.0
C1353 C 0.17668 0.45124 0.79699 0.0
C1354 C 0.64381 0.0955 0.74579 0.0
C1355 C 0.62743 0.11426 0.72626 0.0
C1356 C 0.63824 0.09466 0.7776 0.0
C1357 C 0.6153 0.11162 0.7905 0.0
H1358 H 0.66204 0.08259 0.7369 0.0
H1359 H 0.65234 0.08107 0.79241 0.0
S1360 S 0.56483 0.16278 0.7484 0.0
N1361 N 0.58687 0.14953 0.72164 0.0
N1362 N 0.5754 0.14676 0.78089 0.0
C1363 C 0.5978 0.12931 0.77072 0.0
C1364 C 0.60415 0.13094 0.73871 0.0
C1365 C 0.90942 0.70371 0.78732 0.0
C1366 C 0.93304 0.69002 0.80452 0.0
C1367 C 0.90691 0.70129 0.754 0.0
C1368 C 0.92831 0.68573 0.73692 0.0
H1369 H 0.89084 0.71327 0.7992 0.0
H1370 H 0.88663 0.70963 0.74135 0.0
S1371 S 0.99721 0.65026 0.7719 0.0
N1372 N 0.98024 0.66343 0.8029 0.0
N1373 N 0.97607 0.65985 0.74018 0.0
C1374 C 0.95401 0.67497 0.75422 0.0
C1375 C 0.95622 0.6769 0.78812 0.0
C1376 C 0.28661 0.45345 0.18274 0.0
C1377 C 0.26353 0.44351 0.15603 0.0
C1378 C 0.31826 0.4478 0.18189 0.0
C1379 C 0.32814 0.43234 0.15416 0.0
H1380 H 0.27983 0.46398 0.20495 0.0
H1381 H 0.33504 0.45527 0.20342 0.0
S1382 S 0.27682 0.40444 0.07707 0.0
N1383 N 0.25258 0.41924 0.10062 0.0
N1384 N 0.31226 0.40939 0.09872 0.0
C1385 C 0.30548 0.42388 0.12681 0.0
C1386 C 0.27316 0.42924 0.12785 0.0
C1387 C 0.2693 0.62539 0.84534 0.0
C1388 C 0.26142 0.64582 0.87101 0.0
C1389 C 0.30104 0.62378 0.84038 0.0
C1390 C 0.32633 0.64197 0.86138 0.0
H1391 H 0.25068 0.60994 0.8292 0.0
H1392 H 0.3058 0.60708 0.82083 0.0
S1393 S 0.31874 0.70107 0.93078 0.0
N1394 N 0.28154 0.68632 0.91624 0.0
N1395 N 0.34137 0.6828 0.90766 0.0
C1396 C 0.31881 0.66339 0.88649 0.0
C1397 C 0.28635 0.66551 0.89109 0.0
C1398 C 0.35573 0.23441 0.90008 0.0
C1399 C 0.36636 0.2156 0.8753 0.0
C1400 C 0.35988 0.2678 0.90208 0.0
C1401 C 0.37479 0.28365 0.87933 0.0
H1402 H 0.34635 0.22345 0.91933 0.0
H1403 H 0.35247 0.28132 0.92244 0.0
S1404 S 0.40363 0.24438 0.80784 0.0
N1405 N 0.39018 0.21455 0.82626 0.0
N1406 N 0.39736 0.27732 0.8295 0.0
C1407 C 0.38338 0.26484 0.85313 0.0
C1408 C 0.37942 0.23081 0.85133 0.0
C1409 C 0.77788 0.40363 0.89916 0.0
C1410 C 0.80253 0.41448 0.92428 0.0
C1411 C 0.74606 0.39921 0.9045 0.0
C1412 C 0.73722 0.4049 0.93542 0.0
H1413 H 0.78337 0.39729 0.87519 0.0
H1414 H 0.72833 0.39027 0.88401 0.0
S1415 S 0.79323 0.4344 1.00953 0.0
N1416 N 0.81651 0.43155 0.98122 0.0
N1417 N 0.75635 0.42325 0.99155 0.0
C1418 C 0.76171 0.41662 0.96082 0.0
C1419 C 0.79441 0.4214 0.95519 0.0
C1420 C 0.70296 0.74359 0.90197 0.0
C1421 C 0.69026 0.72425 0.8729 0.0
C1422 C 0.70845 0.7771 0.90401 0.0
C1423 C 0.70162 0.79245 0.87704 0.0
H1424 H 0.7077 0.73288 0.92357 0.0
H1425 H 0.71614 0.79113 0.92719 0.0
S1426 S 0.66912 0.75356 0.79526 0.0
N1427 N 0.67225 0.72361 0.81624 0.0
N1428 N 0.68226 0.78626 0.82053 0.0
C1429 C 0.69017 0.77353 0.84773 0.0
C1430 C 0.68463 0.73954 0.84552 0.0
C1431 C 0.7949 0.69535 0.13799 0.0
C1432 C 0.81398 0.68357 0.11582 0.0
C1433 C 0.76132 0.69048 0.13106 0.0
C1434 C 0.74542 0.67413 0.10148 0.0
H1435 H 0.80583 0.70648 0.16159 0.0
H1436 H 0.74763 0.69853 0.14957 0.0
S1437 S 0.78486 0.64077 0.03445 0.0
N1438 N 0.81463 0.65611 0.0626 0.0
N1439 N 0.75199 0.64809 0.04923 0.0
C1440 C 0.76441 0.66408 0.07845 0.0
C1441 C 0.7985 0.66843 0.08575 0.0
C1442 C 0.45519 0.7812 0.15891 0.0
C1443 C 0.43256 0.75849 0.13873 0.0
C1444 C 0.45546 0.81413 0.15777 0.0
C1445 C 0.43262 0.82549 0.13694 0.0
H1446 H 0.47255 0.7735 0.17603 0.0
H1447 H 0.47264 0.83081 0.17437 0.0
S1448 S 0.36907 0.77614 0.07835 0.0
N1449 N 0.38763 0.74994 0.09626 0.0
N1450 N 0.38769 0.81155 0.09479 0.0
C1451 C 0.41044 0.80305 0.11611 0.0
C1452 C 0.41053 0.76964 0.11681 0.0
C1453 C 0.63321 0.28105 0.1394 0.0
C1454 C 0.65415 0.29388 0.11953 0.0
C1455 C 0.62987 0.24851 0.14308 0.0
C1456 C 0.64813 0.22736 0.12797 0.0
H1457 H 0.61904 0.29636 0.15215 0.0
H1458 H 0.61294 0.23987 0.15818 0.0
S1459 S 0.70696 0.24883 0.07379 0.0
N1460 N 0.69342 0.28275 0.08439 0.0
N1461 N 0.68807 0.22178 0.09218 0.0
C1462 C 0.6695 0.23989 0.10828 0.0
C1463 C 0.67223 0.27302 0.10381 0.0
C1464 C 0.8279 0.75802 0.64097 0.0
C1465 C 0.85095 0.74473 0.65958 0.0
C1466 C 0.82848 0.79136 0.6433 0.0
C1467 C 0.85147 0.81244 0.66497 0.0
H1468 H 0.81082 0.74279 0.62299 0.0
H1469 H 0.81175 0.80081 0.62693 0.0
S1470 S 0.91488 0.78921 0.72127 0.0
N1471 N 0.8961 0.75502 0.70174 0.0
N1472 N 0.89621 0.81732 0.70692 0.0
C1473 C 0.87305 0.79926 0.68532 0.0
C1474 C 0.87304 0.76548 0.68236 0.0
C1475 C 0.22789 0.88321 0.64105 0.0
C1476 C 0.21626 0.90981 0.65589 0.0
C1477 C 0.26029 0.88345 0.63884 0.0
C1478 C 0.28265 0.91053 0.651 0.0
H1479 H 0.21153 0.86226 0.63004 0.0
H1480 H 0.26767 0.86228 0.62675 0.0
S1481 S 0.2643 0.9863 0.69299 0.0
N1482 N 0.22927 0.96383 0.68361 0.0
N1483 N 0.29071 0.96451 0.67964 0.0
C1484 C 0.27143 0.93723 0.66659 0.0
C1485 C 0.23813 0.9368 0.66906 0.0
C1486 C 0.15511 0.30362 0.65229 0.0
C1487 C 0.13098 0.31443 0.63255 0.0
C1488 C 0.15887 0.27124 0.6499 0.0
C1489 C 0.13919 0.24841 0.6271 0.0
H1490 H 0.1711 0.32029 0.67005 0.0
H1491 H 0.17753 0.26406 0.66597 0.0
S1492 S 0.07279 0.26427 0.56916 0.0
N1493 N 0.08708 0.2997 0.58929 0.0
N1494 N 0.09471 0.2388 0.58424 0.0
C1495 C 0.11521 0.25886 0.60685 0.0
C1496 C 0.11091 0.29185 0.60977 0.0
C1497 C 0.76368 0.13775 0.65687 0.0
C1498 C 0.74841 0.16302 0.66936 0.0
C1499 C 0.79689 0.13867 0.66294 0.0
C1500 C 0.81634 0.16444 0.68251 0.0
H1501 H 0.75002 0.11753 0.64128 0.0
H1502 H 0.80758 0.11923 0.6516 0.0
S1503 S 0.78832 0.23552 0.72314 0.0
N1504 N 0.75542 0.21407 0.70356 0.0
N1505 N 0.8178 0.21519 0.71552 0.0
C1506 C 0.8014 0.18921 0.69635 0.0
C1507 C 0.76751 0.18867 0.6896 0.0
C1508 C 0.91341 0.29847 0.45219 0.0
C1509 C 0.93032 0.31111 0.42908 0.0
C1510 C 0.90791 0.26539 0.45303 0.0
C1511 C 0.9182 0.24384 0.43007 0.0
H1512 H 0.90326 0.31422 0.46892 0.0
H1513 H 0.89384 0.25659 0.47051 0.0
S1514 S 0.96496 0.26511 0.36567 0.0
N1515 N 0.95887 0.29984 0.384 0.0
N1516 N 0.94777 0.23765 0.38478 0.0
C1517 C 0.93615 0.25633 0.40758 0.0
C1518 C 0.94237 0.29 0.40726 0.0
C1519 C 0.78858 0.91307 0.41703 0.0
C1520 C 0.79662 0.89645 0.38894 0.0
C1521 C 0.75685 0.91737 0.42039 0.0
C1522 C 0.7319 0.90465 0.396 0.0
H1523 H 0.80703 0.92315 0.43657 0.0
H1524 H 0.75175 0.92996 0.44244 0.0
S1525 S 0.73993 0.86066 0.31719 0.0
N1526 N 0.77675 0.86856 0.33587 0.0
N1527 N 0.71736 0.87593 0.34232 0.0
C1528 C 0.73963 0.88842 0.36768 0.0
C1529 C 0.77187 0.88451 0.36408 0.0
C1530 C 0.13835 0.74237 0.36487 0.0
C1531 C 0.12239 0.72294 0.38408 0.0
C1532 C 0.14005 0.77578 0.37008 0.0
C1533 C 0.12682 0.79131 0.39544 0.0
H1534 H 0.14973 0.73163 0.34564 0.0
H1535 H 0.15248 0.7896 0.35444 0.0
S1536 S 0.08311 0.75122 0.45325 0.0
N1537 N 0.09302 0.72151 0.42945 0.0
N1538 N 0.09716 0.78435 0.44005 0.0
C1539 C 0.11096 0.77211 0.41503 0.0
C1540 C 0.10848 0.73796 0.40913 0.0
C1541 C 0.26949 0.10769 0.4029 0.0
C1542 C 0.28313 0.10399 0.37458 0.0
C1543 C 0.23718 0.11073 0.40239 0.0
C1544 C 0.21715 0.11066 0.37347 0.0
H1545 H 0.28435 0.11011 0.4258 0.0
H1546 H 0.2282 0.11434 0.42511 0.0
S1547 S 0.24148 0.09973 0.29244 0.0
N1548 N 0.2745 0.09893 0.31677 0.0
N1549 N 0.21336 0.10439 0.31547 0.0
C1550 C 0.23027 0.10534 0.34477 0.0
C1551 C 0.26338 0.10216 0.34541 0.0
C1552 C 0.65031 0.8829 0.73944 0.0
C1553 C 0.62932 0.8585 0.71964 0.0
C1554 C 0.65303 0.88519 0.77282 0.0
C1555 C 0.63424 0.86375 0.78797 0.0
H1556 H 0.66487 0.90044 0.72904 0.0
H1557 H 0.66977 0.90429 0.78692 0.0
S1558 S 0.57557 0.79546 0.74725 0.0
N1559 N 0.58963 0.81208 0.71771 0.0
N1560 N 0.59417 0.81696 0.7806 0.0
C1561 C 0.61305 0.83925 0.76856 0.0
C1562 C 0.6108 0.83644 0.7344 0.0
C1563 C 0.13267 0.62213 0.76296 0.0
C1564 C 0.15755 0.60692 0.77633 0.0
C1565 C 0.13369 0.63421 0.73372 0.0
C1566 C 0.16016 0.63256 0.71699 0.0
H1567 H 0.11264 0.62567 0.77581 0.0
H1568 H 0.11381 0.64561 0.72453 0.0
S1569 S 0.23154 0.59466 0.74186 0.0
N1570 N 0.20914 0.59031 0.77054 0.0
N1571 N 0.2116 0.61337 0.71587 0.0
C1572 C 0.18511 0.61701 0.73 0.0
C1573 C 0.18368 0.60413 0.75954 0.0
C1574 C 0.44967 0.15641 0.7906 0.0
C1575 C 0.43383 0.13091 0.80316 0.0
C1576 C 0.44545 0.15811 0.75756 0.0
C1577 C 0.42564 0.13415 0.73572 0.0
H1578 H 0.46358 0.17626 0.8065 0.0
H1579 H 0.45691 0.17904 0.74919 0.0
S1580 S 0.38193 0.0605 0.75641 0.0
N1581 N 0.3997 0.07986 0.79109 0.0
N1582 N 0.39239 0.08277 0.72916 0.0
C1583 C 0.41157 0.10743 0.74785 0.0
C1584 C 0.41548 0.10593 0.7815 0.0
C1585 C 0.87832 0.39642 0.76169 0.0
C1586 C 0.85335 0.37931 0.7392 0.0
C1587 C 0.88187 0.39148 0.79379 0.0
C1588 C 0.86097 0.3688 0.80532 0.0
H1589 H 0.89556 0.41402 0.75449 0.0
H1590 H 0.90156 0.40557 0.80978 0.0
S1591 S 0.79074 0.31824 0.75719 0.0
N1592 N 0.80654 0.33911 0.73123 0.0
N1593 N 0.8136 0.32953 0.79184 0.0
C1594 C 0.83572 0.35143 0.78337 0.0
C1595 C 0.83176 0.35684 0.75038 0.0
C1596 C 0.62696 0.09969 0.26609 0.0
C1597 C 0.6074 0.1115 0.28768 0.0
C1598 C 0.62324 0.10581 0.23415 0.0
C1599 C 0.59952 0.12358 0.22234 0.0
H1600 H 0.64633 0.08713 0.27431 0.0
H1601 H 0.63948 0.09685 0.21864 0.0
S1602 S 0.54042 0.15735 0.26888 0.0
N1603 N 0.56247 0.14043 0.29483 0.0
N1604 N 0.55482 0.15089 0.23468 0.0
C1605 C 0.57875 0.13401 0.24335 0.0
C1606 C 0.58294 0.12832 0.27602 0.0
C1607 C 0.91275 0.65385 0.28 0.0
C1608 C 0.88972 0.63361 0.2919 0.0
C1609 C 0.9144 0.65268 0.24714 0.0
C1610 C 0.89366 0.63065 0.22437 0.0
H1611 H 0.92956 0.67122 0.29628 0.0
H1612 H 0.93231 0.66928 0.2395 0.0
S1613 S 0.82935 0.57158 0.24258 0.0
N1614 N 0.8456 0.59054 0.27801 0.0
N1615 N 0.84931 0.58774 0.21618 0.0
C1616 C 0.87076 0.6098 0.2358 0.0
C1617 C 0.86859 0.61149 0.26948 0.0
C1618 C 0.40275 0.87998 0.24806 0.0
C1619 C 0.37961 0.8963 0.23294 0.0
C1620 C 0.40136 0.87247 0.27917 0.0
C1621 C 0.37703 0.88144 0.29635 0.0
H1622 H 0.42234 0.87328 0.23589 0.0
H1623 H 0.42031 0.86112 0.29043 0.0
S1624 S 0.31026 0.92354 0.26767 0.0
N1625 N 0.33089 0.91982 0.23727 0.0
N1626 N 0.32902 0.90676 0.29609 0.0
C1627 C 0.3534 0.89703 0.28132 0.0
C1628 C 0.35443 0.90413 0.2495 0.0
C1629 C 0.20493 0.39277 0.29362 0.0
C1630 C 0.18116 0.37326 0.30519 0.0
C1631 C 0.20416 0.39438 0.26079 0.0
C1632 C 0.18013 0.37591 0.23821 0.0
H1633 H 0.22302 0.40853 0.31011 0.0
H1634 H 0.22173 0.4113 0.25309 0.0
S1635 S 0.11463 0.31816 0.25578 0.0
N1636 N 0.13439 0.33307 0.29121 0.0
N1637 N 0.13359 0.33561 0.22949 0.0
C1638 C 0.15766 0.35455 0.24922 0.0
C1639 C 0.158 0.35338 0.28272 0.0
C1640 C 0.77456 0.6447 0.83946 0.0
C1641 C 0.75424 0.61636 0.82765 0.0
C1642 C 0.80746 0.645 0.84621 0.0
C1643 C 0.82171 0.61681 0.84199 0.0
H1644 H 0.76474 0.66674 0.84486 0.0
H1645 H 0.82165 0.66764 0.85596 0.0
S1646 S 0.77866 0.5363 0.80972 0.0
N1647 N 0.75027 0.55949 0.81039 0.0
N1648 N 0.8125 0.55978 0.82319 0.0
C1649 C 0.80169 0.58835 0.82878 0.0
C1650 C 0.76788 0.58818 0.82165 0.0
C1651 C 0.7739 0.42877 0.14575 0.0
C1652 C 0.75971 0.4109 0.16746 0.0
C1653 C 0.80679 0.43159 0.14451 0.0
C1654 C 0.8264 0.41593 0.16442 0.0
H1655 H 0.75925 0.4398 0.12881 0.0
H1656 H 0.81659 0.44452 0.12669 0.0
S1657 S 0.80168 0.36899 0.22749 0.0
N1658 N 0.76825 0.37983 0.21115 0.0
N1659 N 0.83005 0.38425 0.2083 0.0
C1660 C 0.81282 0.39934 0.1873 0.0
C1661 C 0.77944 0.39709 0.18902 0.0
C1662 C 0.64175 0.74964 0.17035 0.0
C1663 C 0.62449 0.725 0.148 0.0
C1664 C 0.6354 0.78119 0.16999 0.0
C1665 C 0.61135 0.78904 0.14761 0.0
H1666 H 0.66193 0.74503 0.18629 0.0
H1667 H 0.65091 0.79992 0.18596 0.0
S1668 S 0.55584 0.73199 0.08802 0.0
N1669 N 0.57966 0.70962 0.10574 0.0
N1670 N 0.56765 0.76896 0.10551 0.0
C1671 C 0.59186 0.76415 0.12741 0.0
C1672 C 0.59855 0.73208 0.12746 0.0
C1673 C 0.27018 0.64396 0.14511 0.0
C1674 C 0.25201 0.66085 0.12478 0.0
C1675 C 0.30309 0.64385 0.14427 0.0
C1676 C 0.31887 0.65963 0.12223 0.0
H1677 H 0.2588 0.63056 0.16172 0.0
H1678 H 0.31605 0.63045 0.16026 0.0
S1679 S 0.28252 0.70746 0.06395 0.0
N1680 N 0.2527 0.69454 0.08262 0.0
N1681 N 0.31405 0.69308 0.08002 0.0
C1682 C 0.30108 0.6767 0.1019 0.0
C1683 C 0.26781 0.67766 0.10344 0.0
C1684 C 0.40916 0.28228 0.162 0.0
C1685 C 0.43341 0.26887 0.17905 0.0
C1686 C 0.40491 0.31426 0.16939 0.0
C1687 C 0.42439 0.33461 0.19448 0.0
H1688 H 0.39333 0.268 0.14231 0.0
H1689 H 0.38645 0.32336 0.1547 0.0
S1690 S 0.49062 0.31151 0.24774 0.0
N1691 N 0.47666 0.27841 0.22319 0.0
N1692 N 0.4687 0.33892 0.23699 0.0
C1693 C 0.44834 0.32157 0.21239 0.0
C1694 C 0.45291 0.28872 0.20463 0.0
C1695 C 0.27913 0.3635 0.88978 0.0
C1696 C 0.29515 0.37016 0.92144 0.0
C1697 C 0.24582 0.3608 0.8831 0.0
C1698 C 0.22702 0.3644 0.90774 0.0
H1699 H 0.29242 0.36125 0.86968 0.0
H1700 H 0.23486 0.35762 0.85842 0.0
S1701 S 0.2558 0.37952 0.99445 0.0
N1702 N 0.28869 0.37814 0.9777 0.0
N1703 N 0.22605 0.3735 0.96487 0.0
C1704 C 0.24228 0.36971 0.93942 0.0
C1705 C 0.27629 0.37237 0.94635 0.0
C1706 C 0.66209 0.24444 0.91715 0.0
C1707 C 0.6432 0.22226 0.89316 0.0
C1708 C 0.65976 0.27725 0.91899 0.0
C1709 C 0.639 0.28934 0.89648 0.0
H1710 H 0.6781 0.2363 0.93522 0.0
H1711 H 0.67441 0.2933 0.93828 0.0
S1712 S 0.58584 0.24126 0.82775 0.0
N1713 N 0.60377 0.21471 0.84578 0.0
N1714 N 0.60008 0.27631 0.84868 0.0
C1715 C 0.62073 0.26746 0.87177 0.0
C1716 C 0.62262 0.23398 0.87029 0.0
C1717 C 0.4201 0.74027 0.87417 0.0
C1718 C 0.43812 0.7281 0.89874 0.0
C1719 C 0.41751 0.77269 0.87562 0.0
C1720 C 0.43323 0.79473 0.90139 0.0
H1721 H 0.4068 0.7245 0.85385 0.0
H1722 H 0.40251 0.78053 0.85649 0.0
S1723 S 0.48494 0.77631 0.97126 0.0
N1724 N 0.47294 0.74119 0.94943 0.0
N1725 N 0.46854 0.80284 0.95168 0.0
C1726 C 0.45235 0.78349 0.92571 0.0
C1727 C 0.45459 0.75 0.92455 0.0
loop_
_geom_bond_atom_site_label_1
_geom_bond_atom_site_label_2
_geom_bond_distance
_geom_bond_site_symmetry_2
_ccdc_geom_bond_type
C0 O2 1.247 . S
C0 O4 1.258 . S
C1 O8 1.247 . S
C1 O9 1.258 . S
O2 C0 1.247 . S
O2 Zn3 2.028 . S
Zn3 O2 2.028 . S
Zn3 O7 2.035 . S
Zn3 O9 2.035 . S
Zn3 O10 2.028 . S
O4 C0 1.258 . S
O4 Zn5 2.035 . S
Zn5 O4 2.035 . S
Zn5 O6 2.028 . S
Zn5 O8 2.028 . S
Zn5 O11 2.035 . S
O6 Zn5 2.028 . S
O6 C12 1.247 . S
O7 Zn3 2.035 . S
O7 C12 1.258 . S
O8 C1 1.247 . S
O8 Zn5 2.028 . S
O9 C1 1.258 . S
O9 Zn3 2.035 . S
O10 Zn3 2.028 . S
O10 C13 1.247 . S
O11 Zn5 2.035 . S
O11 C13 1.258 . S
C12 O6 1.247 . S
C12 O7 1.258 . S
C13 O10 1.247 . S
C13 O11 1.258 . S
C14 O16 1.247 . S
C14 O18 1.258 . S
C15 O22 1.247 . S
C15 O23 1.258 . S
O16 C14 1.247 . S
O16 Zn17 2.028 . S
Zn17 O16 2.028 . S
Zn17 O21 2.035 . S
Zn17 O23 2.035 . S
Zn17 O24 2.028 . S
O18 C14 1.258 . S
O18 Zn19 2.035 . S
Zn19 O18 2.035 . S
Zn19 O20 2.028 . S
Zn19 O22 2.028 . S
Zn19 O25 2.035 . S
O20 Zn19 2.028 . S
O20 C26 1.247 . S
O21 Zn17 2.035 . S
O21 C26 1.258 . S
O22 C15 1.247 . S
O22 Zn19 2.028 . S
O23 C15 1.258 . S
O23 Zn17 2.035 . S
O24 Zn17 2.028 . S
O24 C27 1.247 . S
O25 Zn19 2.035 . S
O25 C27 1.258 . S
C26 O20 1.247 . S
C26 O21 1.258 . S
C27 O24 1.247 . S
C27 O25 1.258 . S
C28 O30 1.247 . S
C28 O32 1.258 . S
C29 O36 1.247 . S
C29 O37 1.258 . S
O30 C28 1.247 . S
O30 Zn31 2.028 . S
Zn31 O30 2.028 . S
Zn31 O35 2.035 . S
Zn31 O37 2.035 . S
Zn31 O38 2.028 . S
O32 C28 1.258 . S
O32 Zn33 2.035 . S
Zn33 O32 2.035 . S
Zn33 O34 2.028 . S
Zn33 O36 2.028 . S
Zn33 O39 2.035 . S
O34 Zn33 2.028 . S
O34 C40 1.247 . S
O35 Zn31 2.035 . S
O35 C40 1.258 . S
O36 C29 1.247 . S
O36 Zn33 2.028 . S
O37 C29 1.258 . S
O37 Zn31 2.035 . S
O38 Zn31 2.028 . S
O38 C41 1.247 . S
O39 Zn33 2.035 . S
O39 C41 1.258 . S
C40 O34 1.247 . S
C40 O35 1.258 . S
C41 O38 1.247 . S
C41 O39 1.258 . S
C42 O44 1.247 . S
C42 O46 1.258 . S
C43 O50 1.247 . S
C43 O51 1.258 . S
O44 C42 1.247 . S
O44 Zn45 2.028 . S
Zn45 O44 2.028 . S
Zn45 O49 2.035 . S
Zn45 O51 2.035 . S
Zn45 O52 2.028 . S
O46 C42 1.258 . S
O46 Zn47 2.035 . S
Zn47 O46 2.035 . S
Zn47 O48 2.028 . S
Zn47 O50 2.028 . S
Zn47 O53 2.035 . S
O48 Zn47 2.028 . S
O48 C54 1.247 . S
O49 Zn45 2.035 . S
O49 C54 1.258 . S
O50 C43 1.247 . S
O50 Zn47 2.028 . S
O51 C43 1.258 . S
O51 Zn45 2.035 . S
O52 Zn45 2.028 . S
O52 C55 1.247 . S
O53 Zn47 2.035 . S
O53 C55 1.258 . S
C54 O48 1.247 . S
C54 O49 1.258 . S
C55 O52 1.247 . S
C55 O53 1.258 . S
C56 O58 1.247 . S
C56 O60 1.258 . S
C57 O64 1.247 . S
C57 O65 1.258 . S
O58 C56 1.247 . S
O58 Zn59 2.028 . S
Zn59 O58 2.028 . S
Zn59 O63 2.035 . S
Zn59 O65 2.035 . S
Zn59 O66 2.028 . S
O60 C56 1.258 . S
O60 Zn61 2.035 . S
Zn61 O60 2.035 . S
Zn61 O62 2.028 . S
Zn61 O64 2.028 . S
Zn61 O67 2.035 . S
O62 Zn61 2.028 . S
O62 C68 1.247 . S
O63 Zn59 2.035 . S
O63 C68 1.258 . S
O64 C57 1.247 . S
O64 Zn61 2.028 . S
O65 C57 1.258 . S
O65 Zn59 2.035 . S
O66 Zn59 2.028 . S
O66 C69 1.247 . S
O67 Zn61 2.035 . S
O67 C69 1.258 . S
C68 O62 1.247 . S
C68 O63 1.258 . S
C69 O66 1.247 . S
C69 O67 1.258 . S
C70 O72 1.247 . S
C70 O74 1.258 . S
C71 O78 1.247 . S
C71 O79 1.258 . S
O72 C70 1.247 . S
O72 Zn73 2.028 . S
Zn73 O72 2.028 . S
Zn73 O77 2.035 . S
Zn73 O79 2.035 . S
Zn73 O80 2.028 . S
O74 C70 1.258 . S
O74 Zn75 2.035 . S
Zn75 O74 2.035 . S
Zn75 O76 2.028 . S
Zn75 O78 2.028 . S
Zn75 O81 2.035 . S
O76 Zn75 2.028 . S
O76 C82 1.247 . S
O77 Zn73 2.035 . S
O77 C82 1.258 . S
O78 C71 1.247 . S
O78 Zn75 2.028 . S
O79 C71 1.258 . S
O79 Zn73 2.035 . S
O80 Zn73 2.028 . S
O80 C83 1.247 . S
O81 Zn75 2.035 . S
O81 C83 1.258 . S
C82 O76 1.247 . S
C82 O77 1.258 . S
C83 O80 1.247 . S
C83 O81 1.258 . S
C84 O86 1.247 . S
C84 O88 1.258 . S
C85 O92 1.247 . S
C85 O93 1.258 . S
O86 C84 1.247 . S
O86 Zn87 2.028 . S
Zn87 O86 2.028 . S
Zn87 O91 2.035 . S
Zn87 O93 2.035 . S
Zn87 O94 2.028 . S
O88 C84 1.258 . S
O88 Zn89 2.035 . S
Zn89 O88 2.035 . S
Zn89 O90 2.028 . S
Zn89 O92 2.028 . S
Zn89 O95 2.035 . S
O90 Zn89 2.028 . S
O90 C96 1.247 . S
O91 Zn87 2.035 . S
O91 C96 1.258 . S
O92 C85 1.247 . S
O92 Zn89 2.028 . S
O93 C85 1.258 . S
O93 Zn87 2.035 . S
O94 Zn87 2.028 . S
O94 C97 1.247 . S
O95 Zn89 2.035 . S
O95 C97 1.258 . S
C96 O90 1.247 . S
C96 O91 1.258 . S
C97 O94 1.247 . S
C97 O95 1.258 . S
C98 O100 1.247 . S
C98 O102 1.258 . S
C99 O106 1.247 . S
C99 O107 1.258 . S
O100 C98 1.247 . S
O100 Zn101 2.028 . S
Zn101 O100 2.028 . S
Zn101 O105 2.035 . S
Zn101 O107 2.035 . S
Zn101 O108 2.028 . S
O102 C98 1.258 . S
O102 Zn103 2.035 . S
Zn103 O102 2.035 . S
Zn103 O104 2.028 . S
Zn103 O106 2.028 . S
Zn103 O109 2.035 . S
O104 Zn103 2.028 . S
O104 C110 1.247 . S
O105 Zn101 2.035 . S
O105 C110 1.258 . S
O106 C99 1.247 . S
O106 Zn103 2.028 . S
O107 C99 1.258 . S
O107 Zn101 2.035 . S
O108 Zn101 2.028 . S
O108 C111 1.247 . S
O109 Zn103 2.035 . S
O109 C111 1.258 . S
C110 O104 1.247 . S
C110 O105 1.258 . S
C111 O108 1.247 . S
C111 O109 1.258 . S
C112 O114 1.247 . S
C112 O116 1.258 . S
C113 O120 1.247 . S
C113 O121 1.258 . S
O114 C112 1.247 . S
O114 Zn115 2.028 . S
Zn115 O114 2.028 . S
Zn115 O119 2.035 . S
Zn115 O121 2.035 . S
Zn115 O122 2.028 . S
O116 C112 1.258 . S
O116 Zn117 2.035 . S
Zn117 O116 2.035 . S
Zn117 O118 2.028 . S
Zn117 O120 2.028 . S
Zn117 O123 2.035 . S
O118 Zn117 2.028 . S
O118 C124 1.247 . S
O119 Zn115 2.035 . S
O119 C124 1.258 . S
O120 C113 1.247 . S
O120 Zn117 2.028 . S
O121 C113 1.258 . S
O121 Zn115 2.035 . S
O122 Zn115 2.028 . S
O122 C125 1.247 . S
O123 Zn117 2.035 . S
O123 C125 1.258 . S
C124 O118 1.247 . S
C124 O119 1.258 . S
C125 O122 1.247 . S
C125 O123 1.258 . S
C126 O128 1.247 . S
C126 O130 1.258 . S
C127 O134 1.247 . S
C127 O135 1.258 . S
O128 C126 1.247 . S
O128 Zn129 2.028 . S
Zn129 O128 2.028 . S
Zn129 O133 2.035 . S
Zn129 O135 2.035 . S
Zn129 O136 2.028 . S
O130 C126 1.258 . S
O130 Zn131 2.035 . S
Zn131 O130 2.035 . S
Zn131 O132 2.028 . S
Zn131 O134 2.028 . S
Zn131 O137 2.035 . S
O132 Zn131 2.028 . S
O132 C138 1.247 . S
O133 Zn129 2.035 . S
O133 C138 1.258 . S
O134 C127 1.247 . S
O134 Zn131 2.028 . S
O135 C127 1.258 . S
O135 Zn129 2.035 . S
O136 Zn129 2.028 . S
O136 C139 1.247 . S
O137 Zn131 2.035 . S
O137 C139 1.258 . S
C138 O132 1.247 . S
C138 O133 1.258 . S
C139 O136 1.247 . S
C139 O137 1.258 . S
C140 O142 1.247 . S
C140 O144 1.258 . S
C141 O148 1.247 . S
C141 O149 1.258 . S
O142 C140 1.247 . S
O142 Zn143 2.028 . S
Zn143 O142 2.028 . S
Zn143 O147 2.035 . S
Zn143 O149 2.035 . S
Zn143 O150 2.028 . S
O144 C140 1.258 . S
O144 Zn145 2.035 . S
Zn145 O144 2.035 . S
Zn145 O146 2.028 . S
Zn145 O148 2.028 . S
Zn145 O151 2.035 . S
O146 Zn145 2.028 . S
O146 C152 1.247 . S
O147 Zn143 2.035 . S
O147 C152 1.258 . S
O148 C141 1.247 . S
O148 Zn145 2.028 . S
O149 C141 1.258 . S
O149 Zn143 2.035 . S
O150 Zn143 2.028 . S
O150 C153 1.247 . S
O151 Zn145 2.035 . S
O151 C153 1.258 . S
C152 O146 1.247 . S
C152 O147 1.258 . S
C153 O150 1.247 . S
C153 O151 1.258 . S
C154 O156 1.247 . S
C154 O158 1.258 . S
C155 O162 1.247 . S
C155 O163 1.258 . S
O156 C154 1.247 . S
O156 Zn157 2.028 . S
Zn157 O156 2.028 . S
Zn157 O161 2.035 . S
Zn157 O163 2.035 . S
Zn157 O164 2.028 . S
O158 C154 1.258 . S
O158 Zn159 2.035 . S
Zn159 O158 2.035 . S
Zn159 O160 2.028 . S
Zn159 O162 2.028 . S
Zn159 O165 2.035 . S
O160 Zn159 2.028 . S
O160 C166 1.247 . S
O161 Zn157 2.035 . S
O161 C166 1.258 . S
O162 C155 1.247 . S
O162 Zn159 2.028 . S
O163 C155 1.258 . S
O163 Zn157 2.035 . S
O164 Zn157 2.028 . S
O164 C167 1.247 . S
O165 Zn159 2.035 . S
O165 C167 1.258 . S
C166 O160 1.247 . S
C166 O161 1.258 . S
C167 O164 1.247 . S
C167 O165 1.258 . S
C168 O170 1.247 . S
C168 O172 1.258 . S
C169 O176 1.247 . S
C169 O177 1.258 . S
O170 C168 1.247 . S
O170 Zn171 2.028 . S
Zn171 O170 2.028 . S
Zn171 O175 2.035 . S
Zn171 O177 2.035 . S
Zn171 O178 2.028 . S
O172 C168 1.258 . S
O172 Zn173 2.035 . S
Zn173 O172 2.035 . S
Zn173 O174 2.028 . S
Zn173 O176 2.028 . S
Zn173 O179 2.035 . S
O174 Zn173 2.028 . S
O174 C180 1.247 . S
O175 Zn171 2.035 . S
O175 C180 1.258 . S
O176 C169 1.247 . S
O176 Zn173 2.028 . S
O177 C169 1.258 . S
O177 Zn171 2.035 . S
O178 Zn171 2.028 . S
O178 C181 1.247 . S
O179 Zn173 2.035 . S
O179 C181 1.258 . S
C180 O174 1.247 . S
C180 O175 1.258 . S
C181 O178 1.247 . S
C181 O179 1.258 . S
C182 O184 1.247 . S
C182 O186 1.258 . S
C183 O190 1.247 . S
C183 O191 1.258 . S
O184 C182 1.247 . S
O184 Zn185 2.028 . S
Zn185 O184 2.028 . S
Zn185 O189 2.035 . S
Zn185 O191 2.035 . S
Zn185 O192 2.028 . S
O186 C182 1.258 . S
O186 Zn187 2.035 . S
Zn187 O186 2.035 . S
Zn187 O188 2.028 . S
Zn187 O190 2.028 . S
Zn187 O193 2.035 . S
O188 Zn187 2.028 . S
O188 C194 1.247 . S
O189 Zn185 2.035 . S
O189 C194 1.258 . S
O190 C183 1.247 . S
O190 Zn187 2.028 . S
O191 C183 1.258 . S
O191 Zn185 2.035 . S
O192 Zn185 2.028 . S
O192 C195 1.247 . S
O193 Zn187 2.035 . S
O193 C195 1.258 . S
C194 O188 1.247 . S
C194 O189 1.258 . S
C195 O192 1.247 . S
C195 O193 1.258 . S
C196 O198 1.247 . S
C196 O200 1.258 . S
C197 O204 1.247 . S
C197 O205 1.258 . S
O198 C196 1.247 . S
O198 Zn199 2.028 . S
Zn199 O198 2.028 . S
Zn199 O203 2.035 . S
Zn199 O205 2.035 . S
Zn199 O206 2.028 . S
O200 C196 1.258 . S
O200 Zn201 2.035 . S
Zn201 O200 2.035 . S
Zn201 O202 2.028 . S
Zn201 O204 2.028 . S
Zn201 O207 2.035 . S
O202 Zn201 2.028 . S
O202 C208 1.247 . S
O203 Zn199 2.035 . S
O203 C208 1.258 . S
O204 C197 1.247 . S
O204 Zn201 2.028 . S
O205 C197 1.258 . S
O205 Zn199 2.035 . S
O206 Zn199 2.028 . S
O206 C209 1.247 . S
O207 Zn201 2.035 . S
O207 C209 1.258 . S
C208 O202 1.247 . S
C208 O203 1.258 . S
C209 O206 1.247 . S
C209 O207 1.258 . S
C210 O212 1.247 . S
C210 O214 1.258 . S
C211 O218 1.247 . S
C211 O219 1.258 . S
O212 C210 1.247 . S
O212 Zn213 2.028 . S
Zn213 O212 2.028 . S
Zn213 O217 2.035 . S
Zn213 O219 2.035 . S
Zn213 O220 2.028 . S
O214 C210 1.258 . S
O214 Zn215 2.035 . S
Zn215 O214 2.035 . S
Zn215 O216 2.028 . S
Zn215 O218 2.028 . S
Zn215 O221 2.035 . S
O216 Zn215 2.028 . S
O216 C222 1.247 . S
O217 Zn213 2.035 . S
O217 C222 1.258 . S
O218 C211 1.247 . S
O218 Zn215 2.028 . S
O219 C211 1.258 . S
O219 Zn213 2.035 . S
O220 Zn213 2.028 . S
O220 C223 1.247 . S
O221 Zn215 2.035 . S
O221 C223 1.258 . S
C222 O216 1.247 . S
C222 O217 1.258 . S
C223 O220 1.247 . S
C223 O221 1.258 . S
C224 O226 1.247 . S
C224 O228 1.258 . S
C225 O232 1.247 . S
C225 O233 1.258 . S
O226 C224 1.247 . S
O226 Zn227 2.028 . S
Zn227 O226 2.028 . S
Zn227 O231 2.035 . S
Zn227 O233 2.035 . S
Zn227 O234 2.028 . S
O228 C224 1.258 . S
O228 Zn229 2.035 . S
Zn229 O228 2.035 . S
Zn229 O230 2.028 . S
Zn229 O232 2.028 . S
Zn229 O235 2.035 . S
O230 Zn229 2.028 . S
O230 C236 1.247 . S
O231 Zn227 2.035 . S
O231 C236 1.258 . S
O232 C225 1.247 . S
O232 Zn229 2.028 . S
O233 C225 1.258 . S
O233 Zn227 2.035 . S
O234 Zn227 2.028 . S
O234 C237 1.247 . S
O235 Zn229 2.035 . S
O235 C237 1.258 . S
C236 O230 1.247 . S
C236 O231 1.258 . S
C237 O234 1.247 . S
C237 O235 1.258 . S
C238 O240 1.247 . S
C238 O242 1.258 . S
C239 O246 1.247 . S
C239 O247 1.258 . S
O240 C238 1.247 . S
O240 Zn241 2.028 . S
Zn241 O240 2.028 . S
Zn241 O245 2.035 . S
Zn241 O247 2.035 . S
Zn241 O248 2.028 . S
O242 C238 1.258 . S
O242 Zn243 2.035 . S
Zn243 O242 2.035 . S
Zn243 O244 2.028 . S
Zn243 O246 2.028 . S
Zn243 O249 2.035 . S
O244 Zn243 2.028 . S
O244 C250 1.247 . S
O245 Zn241 2.035 . S
O245 C250 1.258 . S
O246 C239 1.247 . S
O246 Zn243 2.028 . S
O247 C239 1.258 . S
O247 Zn241 2.035 . S
O248 Zn241 2.028 . S
O248 C251 1.247 . S
O249 Zn243 2.035 . S
O249 C251 1.258 . S
C250 O244 1.247 . S
C250 O245 1.258 . S
C251 O248 1.247 . S
C251 O249 1.258 . S
C252 O254 1.247 . S
C252 O256 1.258 . S
C253 O260 1.247 . S
C253 O261 1.258 . S
O254 C252 1.247 . S
O254 Zn255 2.028 . S
Zn255 O254 2.028 . S
Zn255 O259 2.035 . S
Zn255 O261 2.035 . S
Zn255 O262 2.028 . S
O256 C252 1.258 . S
O256 Zn257 2.035 . S
Zn257 O256 2.035 . S
Zn257 O258 2.028 . S
Zn257 O260 2.028 . S
Zn257 O263 2.035 . S
O258 Zn257 2.028 . S
O258 C264 1.247 . S
O259 Zn255 2.035 . S
O259 C264 1.258 . S
O260 C253 1.247 . S
O260 Zn257 2.028 . S
O261 C253 1.258 . S
O261 Zn255 2.035 . S
O262 Zn255 2.028 . S
O262 C265 1.247 . S
O263 Zn257 2.035 . S
O263 C265 1.258 . S
C264 O258 1.247 . S
C264 O259 1.258 . S
C265 O262 1.247 . S
C265 O263 1.258 . S
C266 O268 1.247 . S
C266 O270 1.258 . S
C267 O274 1.247 . S
C267 O275 1.258 . S
O268 C266 1.247 . S
O268 Zn269 2.028 . S
Zn269 O268 2.028 . S
Zn269 O273 2.035 . S
Zn269 O275 2.035 . S
Zn269 O276 2.028 . S
O270 C266 1.258 . S
O270 Zn271 2.035 . S
Zn271 O270 2.035 . S
Zn271 O272 2.028 . S
Zn271 O274 2.028 . S
Zn271 O277 2.035 . S
O272 Zn271 2.028 . S
O272 C278 1.247 . S
O273 Zn269 2.035 . S
O273 C278 1.258 . S
O274 C267 1.247 . S
O274 Zn271 2.028 . S
O275 C267 1.258 . S
O275 Zn269 2.035 . S
O276 Zn269 2.028 . S
O276 C279 1.247 . S
O277 Zn271 2.035 . S
O277 C279 1.258 . S
C278 O272 1.247 . S
C278 O273 1.258 . S
C279 O276 1.247 . S
C279 O277 1.258 . S
C280 O282 1.247 . S
C280 O284 1.258 . S
C281 O288 1.247 . S
C281 O289 1.258 . S
O282 C280 1.247 . S
O282 Zn283 2.028 . S
Zn283 O282 2.028 . S
Zn283 O287 2.035 . S
Zn283 O289 2.035 . S
Zn283 O290 2.028 . S
O284 C280 1.258 . S
O284 Zn285 2.035 . S
Zn285 O284 2.035 . S
Zn285 O286 2.028 . S
Zn285 O288 2.028 . S
Zn285 O291 2.035 . S
O286 Zn285 2.028 . S
O286 C292 1.247 . S
O287 Zn283 2.035 . S
O287 C292 1.258 . S
O288 C281 1.247 . S
O288 Zn285 2.028 . S
O289 C281 1.258 . S
O289 Zn283 2.035 . S
O290 Zn283 2.028 . S
O290 C293 1.247 . S
O291 Zn285 2.035 . S
O291 C293 1.258 . S
C292 O286 1.247 . S
C292 O287 1.258 . S
C293 O290 1.247 . S
C293 O291 1.258 . S
C294 O296 1.247 . S
C294 O298 1.258 . S
C295 O302 1.247 . S
C295 O303 1.258 . S
O296 C294 1.247 . S
O296 Zn297 2.028 . S
Zn297 O296 2.028 . S
Zn297 O301 2.035 . S
Zn297 O303 2.035 . S
Zn297 O304 2.028 . S
O298 C294 1.258 . S
O298 Zn299 2.035 . S
Zn299 O298 2.035 . S
Zn299 O300 2.028 . S
Zn299 O302 2.028 . S
Zn299 O305 2.035 . S
O300 Zn299 2.028 . S
O300 C306 1.247 . S
O301 Zn297 2.035 . S
O301 C306 1.258 . S
O302 C295 1.247 . S
O302 Zn299 2.028 . S
O303 C295 1.258 . S
O303 Zn297 2.035 . S
O304 Zn297 2.028 . S
O304 C307 1.247 . S
O305 Zn299 2.035 . S
O305 C307 1.258 . S
C306 O300 1.247 . S
C306 O301 1.258 . S
C307 O304 1.247 . S
C307 O305 1.258 . S
C308 O310 1.247 . S
C308 O312 1.258 . S
C309 O316 1.247 . S
C309 O317 1.258 . S
O310 C308 1.247 . S
O310 Zn311 2.028 . S
Zn311 O310 2.028 . S
Zn311 O315 2.035 . S
Zn311 O317 2.035 . S
Zn311 O318 2.028 . S
O312 C308 1.258 . S
O312 Zn313 2.035 . S
Zn313 O312 2.035 . S
Zn313 O314 2.028 . S
Zn313 O316 2.028 . S
Zn313 O319 2.035 . S
O314 Zn313 2.028 . S
O314 C320 1.247 . S
O315 Zn311 2.035 . S
O315 C320 1.258 . S
O316 C309 1.247 . S
O316 Zn313 2.028 . S
O317 C309 1.258 . S
O317 Zn311 2.035 . S
O318 Zn311 2.028 . S
O318 C321 1.247 . S
O319 Zn313 2.035 . S
O319 C321 1.258 . S
C320 O314 1.247 . S
C320 O315 1.258 . S
C321 O318 1.247 . S
C321 O319 1.258 . S
C322 O324 1.247 . S
C322 O326 1.258 . S
C323 O330 1.247 . S
C323 O331 1.258 . S
O324 C322 1.247 . S
O324 Zn325 2.028 . S
Zn325 O324 2.028 . S
Zn325 O329 2.035 . S
Zn325 O331 2.035 . S
Zn325 O332 2.028 . S
O326 C322 1.258 . S
O326 Zn327 2.035 . S
Zn327 O326 2.035 . S
Zn327 O328 2.028 . S
Zn327 O330 2.028 . S
Zn327 O333 2.035 . S
O328 Zn327 2.028 . S
O328 C334 1.247 . S
O329 Zn325 2.035 . S
O329 C334 1.258 . S
O330 C323 1.247 . S
O330 Zn327 2.028 . S
O331 C323 1.258 . S
O331 Zn325 2.035 . S
O332 Zn325 2.028 . S
O332 C335 1.247 . S
O333 Zn327 2.035 . S
O333 C335 1.258 . S
C334 O328 1.247 . S
C334 O329 1.258 . S
C335 O332 1.247 . S
C335 O333 1.258 . S
C336 O338 1.247 . S
C336 O340 1.258 . S
C337 O344 1.247 . S
C337 O345 1.258 . S
O338 C336 1.247 . S
O338 Zn339 2.028 . S
Zn339 O338 2.028 . S
Zn339 O343 2.035 . S
Zn339 O345 2.035 . S
Zn339 O346 2.028 . S
O340 C336 1.258 . S
O340 Zn341 2.035 . S
Zn341 O340 2.035 . S
Zn341 O342 2.028 . S
Zn341 O344 2.028 . S
Zn341 O347 2.035 . S
O342 Zn341 2.028 . S
O342 C348 1.247 . S
O343 Zn339 2.035 . S
O343 C348 1.258 . S
O344 C337 1.247 . S
O344 Zn341 2.028 . S
O345 C337 1.258 . S
O345 Zn339 2.035 . S
O346 Zn339 2.028 . S
O346 C349 1.247 . S
O347 Zn341 2.035 . S
O347 C349 1.258 . S
C348 O342 1.247 . S
C348 O343 1.258 . S
C349 O346 1.247 . S
C349 O347 1.258 . S
C350 O352 1.247 . S
C350 O354 1.258 . S
C351 O358 1.247 . S
C351 O359 1.258 . S
O352 C350 1.247 . S
O352 Zn353 2.028 . S
Zn353 O352 2.028 . S
Zn353 O357 2.035 . S
Zn353 O359 2.035 . S
Zn353 O360 2.028 . S
O354 C350 1.258 . S
O354 Zn355 2.035 . S
Zn355 O354 2.035 . S
Zn355 O356 2.028 . S
Zn355 O358 2.028 . S
Zn355 O361 2.035 . S
O356 Zn355 2.028 . S
O356 C362 1.247 . S
O357 Zn353 2.035 . S
O357 C362 1.258 . S
O358 C351 1.247 . S
O358 Zn355 2.028 . S
O359 C351 1.258 . S
O359 Zn353 2.035 . S
O360 Zn353 2.028 . S
O360 C363 1.247 . S
O361 Zn355 2.035 . S
O361 C363 1.258 . S
C362 O356 1.247 . S
C362 O357 1.258 . S
C363 O360 1.247 . S
C363 O361 1.258 . S
C364 O366 1.247 . S
C364 O368 1.258 . S
C365 O372 1.247 . S
C365 O373 1.258 . S
O366 C364 1.247 . S
O366 Zn367 2.028 . S
Zn367 O366 2.028 . S
Zn367 O371 2.035 . S
Zn367 O373 2.035 . S
Zn367 O374 2.028 . S
O368 C364 1.258 . S
O368 Zn369 2.035 . S
Zn369 O368 2.035 . S
Zn369 O370 2.028 . S
Zn369 O372 2.028 . S
Zn369 O375 2.035 . S
O370 Zn369 2.028 . S
O370 C376 1.247 . S
O371 Zn367 2.035 . S
O371 C376 1.258 . S
O372 C365 1.247 . S
O372 Zn369 2.028 . S
O373 C365 1.258 . S
O373 Zn367 2.035 . S
O374 Zn367 2.028 . S
O374 C377 1.247 . S
O375 Zn369 2.035 . S
O375 C377 1.258 . S
C376 O370 1.247 . S
C376 O371 1.258 . S
C377 O374 1.247 . S
C377 O375 1.258 . S
C378 O380 1.247 . S
C378 O382 1.258 . S
C379 O386 1.247 . S
C379 O387 1.258 . S
O380 C378 1.247 . S
O380 Zn381 2.028 . S
Zn381 O380 2.028 . S
Zn381 O385 2.035 . S
Zn381 O387 2.035 . S
Zn381 O388 2.028 . S
O382 C378 1.258 . S
O382 Zn383 2.035 . S
Zn383 O382 2.035 . S
Zn383 O384 2.028 . S
Zn383 O386 2.028 . S
Zn383 O389 2.035 . S
O384 Zn383 2.028 . S
O384 C390 1.247 . S
O385 Zn381 2.035 . S
O385 C390 1.258 . S
O386 C379 1.247 . S
O386 Zn383 2.028 . S
O387 C379 1.258 . S
O387 Zn381 2.035 . S
O388 Zn381 2.028 . S
O388 C391 1.247 . S
O389 Zn383 2.035 . S
O389 C391 1.258 . S
C390 O384 1.247 . S
C390 O385 1.258 . S
C391 O388 1.247 . S
C391 O389 1.258 . S
C392 O394 1.247 . S
C392 O396 1.258 . S
C393 O400 1.247 . S
C393 O401 1.258 . S
O394 C392 1.247 . S
O394 Zn395 2.028 . S
Zn395 O394 2.028 . S
Zn395 O399 2.035 . S
Zn395 O401 2.035 . S
Zn395 O402 2.028 . S
O396 C392 1.258 . S
O396 Zn397 2.035 . S
Zn397 O396 2.035 . S
Zn397 O398 2.028 . S
Zn397 O400 2.028 . S
Zn397 O403 2.035 . S
O398 Zn397 2.028 . S
O398 C404 1.247 . S
O399 Zn395 2.035 . S
O399 C404 1.258 . S
O400 C393 1.247 . S
O400 Zn397 2.028 . S
O401 C393 1.258 . S
O401 Zn395 2.035 . S
O402 Zn395 2.028 . S
O402 C405 1.247 . S
O403 Zn397 2.035 . S
O403 C405 1.258 . S
C404 O398 1.247 . S
C404 O399 1.258 . S
C405 O402 1.247 . S
C405 O403 1.258 . S
C406 O408 1.247 . S
C406 O410 1.258 . S
C407 O414 1.247 . S
C407 O415 1.258 . S
O408 C406 1.247 . S
O408 Zn409 2.028 . S
Zn409 O408 2.028 . S
Zn409 O413 2.035 . S
Zn409 O415 2.035 . S
Zn409 O416 2.028 . S
O410 C406 1.258 . S
O410 Zn411 2.035 . S
Zn411 O410 2.035 . S
Zn411 O412 2.028 . S
Zn411 O414 2.028 . S
Zn411 O417 2.035 . S
O412 Zn411 2.028 . S
O412 C418 1.247 . S
O413 Zn409 2.035 . S
O413 C418 1.258 . S
O414 C407 1.247 . S
O414 Zn411 2.028 . S
O415 C407 1.258 . S
O415 Zn409 2.035 . S
O416 Zn409 2.028 . S
O416 C419 1.247 . S
O417 Zn411 2.035 . S
O417 C419 1.258 . S
C418 O412 1.247 . S
C418 O413 1.258 . S
C419 O416 1.247 . S
C419 O417 1.258 . S
C420 O422 1.247 . S
C420 O424 1.258 . S
C421 O428 1.247 . S
C421 O429 1.258 . S
O422 C420 1.247 . S
O422 Zn423 2.028 . S
Zn423 O422 2.028 . S
Zn423 O427 2.035 . S
Zn423 O429 2.035 . S
Zn423 O430 2.028 . S
O424 C420 1.258 . S
O424 Zn425 2.035 . S
Zn425 O424 2.035 . S
Zn425 O426 2.028 . S
Zn425 O428 2.028 . S
Zn425 O431 2.035 . S
O426 Zn425 2.028 . S
O426 C432 1.247 . S
O427 Zn423 2.035 . S
O427 C432 1.258 . S
O428 C421 1.247 . S
O428 Zn425 2.028 . S
O429 C421 1.258 . S
O429 Zn423 2.035 . S
O430 Zn423 2.028 . S
O430 C433 1.247 . S
O431 Zn425 2.035 . S
O431 C433 1.258 . S
C432 O426 1.247 . S
C432 O427 1.258 . S
C433 O430 1.247 . S
C433 O431 1.258 . S
C434 O436 1.247 . S
C434 O438 1.258 . S
C435 O442 1.247 . S
C435 O443 1.258 . S
O436 C434 1.247 . S
O436 Zn437 2.028 . S
Zn437 O436 2.028 . S
Zn437 O441 2.035 . S
Zn437 O443 2.035 . S
Zn437 O444 2.028 . S
O438 C434 1.258 . S
O438 Zn439 2.035 . S
Zn439 O438 2.035 . S
Zn439 O440 2.028 . S
Zn439 O442 2.028 . S
Zn439 O445 2.035 . S
O440 Zn439 2.028 . S
O440 C446 1.247 . S
O441 Zn437 2.035 . S
O441 C446 1.258 . S
O442 C435 1.247 . S
O442 Zn439 2.028 . S
O443 C435 1.258 . S
O443 Zn437 2.035 . S
O444 Zn437 2.028 . S
O444 C447 1.247 . S
O445 Zn439 2.035 . S
O445 C447 1.258 . S
C446 O440 1.247 . S
C446 O441 1.258 . S
C447 O444 1.247 . S
C447 O445 1.258 . S
C448 O450 1.247 . S
C448 O452 1.258 . S
C449 O456 1.247 . S
C449 O457 1.258 . S
O450 C448 1.247 . S
O450 Zn451 2.028 . S
Zn451 O450 2.028 . S
Zn451 O455 2.035 . S
Zn451 O457 2.035 . S
Zn451 O458 2.028 . S
O452 C448 1.258 . S
O452 Zn453 2.035 . S
Zn453 O452 2.035 . S
Zn453 O454 2.028 . S
Zn453 O456 2.028 . S
Zn453 O459 2.035 . S
O454 Zn453 2.028 . S
O454 C460 1.247 . S
O455 Zn451 2.035 . S
O455 C460 1.258 . S
O456 C449 1.247 . S
O456 Zn453 2.028 . S
O457 C449 1.258 . S
O457 Zn451 2.035 . S
O458 Zn451 2.028 . S
O458 C461 1.247 . S
O459 Zn453 2.035 . S
O459 C461 1.258 . S
C460 O454 1.247 . S
C460 O455 1.258 . S
C461 O458 1.247 . S
C461 O459 1.258 . S
C462 O464 1.247 . S
C462 O466 1.258 . S
C463 O470 1.247 . S
C463 O471 1.258 . S
O464 C462 1.247 . S
O464 Zn465 2.028 . S
Zn465 O464 2.028 . S
Zn465 O469 2.035 . S
Zn465 O471 2.035 . S
Zn465 O472 2.028 . S
O466 C462 1.258 . S
O466 Zn467 2.035 . S
Zn467 O466 2.035 . S
Zn467 O468 2.028 . S
Zn467 O470 2.028 . S
Zn467 O473 2.035 . S
O468 Zn467 2.028 . S
O468 C474 1.247 . S
O469 Zn465 2.035 . S
O469 C474 1.258 . S
O470 C463 1.247 . S
O470 Zn467 2.028 . S
O471 C463 1.258 . S
O471 Zn465 2.035 . S
O472 Zn465 2.028 . S
O472 C475 1.247 . S
O473 Zn467 2.035 . S
O473 C475 1.258 . S
C474 O468 1.247 . S
C474 O469 1.258 . S
C475 O472 1.247 . S
C475 O473 1.258 . S
C476 O478 1.247 . S
C476 O480 1.258 . S
C477 O484 1.247 . S
C477 O485 1.258 . S
O478 C476 1.247 . S
O478 Zn479 2.028 . S
Zn479 O478 2.028 . S
Zn479 O483 2.035 . S
Zn479 O485 2.035 . S
Zn479 O486 2.028 . S
O480 C476 1.258 . S
O480 Zn481 2.035 . S
Zn481 O480 2.035 . S
Zn481 O482 2.028 . S
Zn481 O484 2.028 . S
Zn481 O487 2.035 . S
O482 Zn481 2.028 . S
O482 C488 1.247 . S
O483 Zn479 2.035 . S
O483 C488 1.258 . S
O484 C477 1.247 . S
O484 Zn481 2.028 . S
O485 C477 1.258 . S
O485 Zn479 2.035 . S
O486 Zn479 2.028 . S
O486 C489 1.247 . S
O487 Zn481 2.035 . S
O487 C489 1.258 . S
C488 O482 1.247 . S
C488 O483 1.258 . S
C489 O486 1.247 . S
C489 O487 1.258 . S
C490 O492 1.247 . S
C490 O494 1.258 . S
C491 O498 1.247 . S
C491 O499 1.258 . S
O492 C490 1.247 . S
O492 Zn493 2.028 . S
Zn493 O492 2.028 . S
Zn493 O497 2.035 . S
Zn493 O499 2.035 . S
Zn493 O500 2.028 . S
O494 C490 1.258 . S
O494 Zn495 2.035 . S
Zn495 O494 2.035 . S
Zn495 O496 2.028 . S
Zn495 O498 2.028 . S
Zn495 O501 2.035 . S
O496 Zn495 2.028 . S
O496 C502 1.247 . S
O497 Zn493 2.035 . S
O497 C502 1.258 . S
O498 C491 1.247 . S
O498 Zn495 2.028 . S
O499 C491 1.258 . S
O499 Zn493 2.035 . S
O500 Zn493 2.028 . S
O500 C503 1.247 . S
O501 Zn495 2.035 . S
O501 C503 1.258 . S
C502 O496 1.247 . S
C502 O497 1.258 . S
C503 O500 1.247 . S
C503 O501 1.258 . S
C504 O506 1.247 . S
C504 O508 1.258 . S
C505 O512 1.247 . S
C505 O513 1.258 . S
O506 C504 1.247 . S
O506 Zn507 2.028 . S
Zn507 O506 2.028 . S
Zn507 O511 2.035 . S
Zn507 O513 2.035 . S
Zn507 O514 2.028 . S
O508 C504 1.258 . S
O508 Zn509 2.035 . S
Zn509 O508 2.035 . S
Zn509 O510 2.028 . S
Zn509 O512 2.028 . S
Zn509 O515 2.035 . S
O510 Zn509 2.028 . S
O510 C516 1.247 . S
O511 Zn507 2.035 . S
O511 C516 1.258 . S
O512 C505 1.247 . S
O512 Zn509 2.028 . S
O513 C505 1.258 . S
O513 Zn507 2.035 . S
O514 Zn507 2.028 . S
O514 C517 1.247 . S
O515 Zn509 2.035 . S
O515 C517 1.258 . S
C516 O510 1.247 . S
C516 O511 1.258 . S
C517 O514 1.247 . S
C517 O515 1.258 . S
C518 O520 1.247 . S
C518 O522 1.258 . S
C519 O526 1.247 . S
C519 O527 1.258 . S
O520 C518 1.247 . S
O520 Zn521 2.028 . S
Zn521 O520 2.028 . S
Zn521 O525 2.035 . S
Zn521 O527 2.035 . S
Zn521 O528 2.028 . S
O522 C518 1.258 . S
O522 Zn523 2.035 . S
Zn523 O522 2.035 . S
Zn523 O524 2.028 . S
Zn523 O526 2.028 . S
Zn523 O529 2.035 . S
O524 Zn523 2.028 . S
O524 C530 1.247 . S
O525 Zn521 2.035 . S
O525 C530 1.258 . S
O526 C519 1.247 . S
O526 Zn523 2.028 . S
O527 C519 1.258 . S
O527 Zn521 2.035 . S
O528 Zn521 2.028 . S
O528 C531 1.247 . S
O529 Zn523 2.035 . S
O529 C531 1.258 . S
C530 O524 1.247 . S
C530 O525 1.258 . S
C531 O528 1.247 . S
C531 O529 1.258 . S
C532 O534 1.247 . S
C532 O536 1.258 . S
C533 O540 1.247 . S
C533 O541 1.258 . S
O534 C532 1.247 . S
O534 Zn535 2.028 . S
Zn535 O534 2.028 . S
Zn535 O539 2.035 . S
Zn535 O541 2.035 . S
Zn535 O542 2.028 . S
O536 C532 1.258 . S
O536 Zn537 2.035 . S
Zn537 O536 2.035 . S
Zn537 O538 2.028 . S
Zn537 O540 2.028 . S
Zn537 O543 2.035 . S
O538 Zn537 2.028 . S
O538 C544 1.247 . S
O539 Zn535 2.035 . S
O539 C544 1.258 . S
O540 C533 1.247 . S
O540 Zn537 2.028 . S
O541 C533 1.258 . S
O541 Zn535 2.035 . S
O542 Zn535 2.028 . S
O542 C545 1.247 . S
O543 Zn537 2.035 . S
O543 C545 1.258 . S
C544 O538 1.247 . S
C544 O539 1.258 . S
C545 O542 1.247 . S
C545 O543 1.258 . S
C546 O548 1.247 . S
C546 O550 1.258 . S
C547 O554 1.247 . S
C547 O555 1.258 . S
O548 C546 1.247 . S
O548 Zn549 2.028 . S
Zn549 O548 2.028 . S
Zn549 O553 2.035 . S
Zn549 O555 2.035 . S
Zn549 O556 2.028 . S
O550 C546 1.258 . S
O550 Zn551 2.035 . S
Zn551 O550 2.035 . S
Zn551 O552 2.028 . S
Zn551 O554 2.028 . S
Zn551 O557 2.035 . S
O552 Zn551 2.028 . S
O552 C558 1.247 . S
O553 Zn549 2.035 . S
O553 C558 1.258 . S
O554 C547 1.247 . S
O554 Zn551 2.028 . S
O555 C547 1.258 . S
O555 Zn549 2.035 . S
O556 Zn549 2.028 . S
O556 C559 1.247 . S
O557 Zn551 2.035 . S
O557 C559 1.258 . S
C558 O552 1.247 . S
C558 O553 1.258 . S
C559 O556 1.247 . S
C559 O557 1.258 . S
C560 O562 1.247 . S
C560 O564 1.258 . S
C561 O568 1.247 . S
C561 O569 1.258 . S
O562 C560 1.247 . S
O562 Zn563 2.028 . S
Zn563 O562 2.028 . S
Zn563 O567 2.035 . S
Zn563 O569 2.035 . S
Zn563 O570 2.028 . S
O564 C560 1.258 . S
O564 Zn565 2.035 . S
Zn565 O564 2.035 . S
Zn565 O566 2.028 . S
Zn565 O568 2.028 . S
Zn565 O571 2.035 . S
O566 Zn565 2.028 . S
O566 C572 1.247 . S
O567 Zn563 2.035 . S
O567 C572 1.258 . S
O568 C561 1.247 . S
O568 Zn565 2.028 . S
O569 C561 1.258 . S
O569 Zn563 2.035 . S
O570 Zn563 2.028 . S
O570 C573 1.247 . S
O571 Zn565 2.035 . S
O571 C573 1.258 . S
C572 O566 1.247 . S
C572 O567 1.258 . S
C573 O570 1.247 . S
C573 O571 1.258 . S
C574 O576 1.247 . S
C574 O578 1.258 . S
C575 O582 1.247 . S
C575 O583 1.258 . S
O576 C574 1.247 . S
O576 Zn577 2.028 . S
Zn577 O576 2.028 . S
Zn577 O581 2.035 . S
Zn577 O583 2.035 . S
Zn577 O584 2.028 . S
O578 C574 1.258 . S
O578 Zn579 2.035 . S
Zn579 O578 2.035 . S
Zn579 O580 2.028 . S
Zn579 O582 2.028 . S
Zn579 O585 2.035 . S
O580 Zn579 2.028 . S
O580 C586 1.247 . S
O581 Zn577 2.035 . S
O581 C586 1.258 . S
O582 C575 1.247 . S
O582 Zn579 2.028 . S
O583 C575 1.258 . S
O583 Zn577 2.035 . S
O584 Zn577 2.028 . S
O584 C587 1.247 . S
O585 Zn579 2.035 . S
O585 C587 1.258 . S
C586 O580 1.247 . S
C586 O581 1.258 . S
C587 O584 1.247 . S
C587 O585 1.258 . S
C588 O590 1.247 . S
C588 O592 1.258 . S
C589 O596 1.247 . S
C589 O597 1.258 . S
O590 C588 1.247 . S
O590 Zn591 2.028 . S
Zn591 O590 2.028 . S
Zn591 O595 2.035 . S
Zn591 O597 2.035 . S
Zn591 O598 2.028 . S
O592 C588 1.258 . S
O592 Zn593 2.035 . S
Zn593 O592 2.035 . S
Zn593 O594 2.028 . S
Zn593 O596 2.028 . S
Zn593 O599 2.035 . S
O594 Zn593 2.028 . S
O594 C600 1.247 . S
O595 Zn591 2.035 . S
O595 C600 1.258 . S
O596 C589 1.247 . S
O596 Zn593 2.028 . S
O597 C589 1.258 . S
O597 Zn591 2.035 . S
O598 Zn591 2.028 . S
O598 C601 1.247 . S
O599 Zn593 2.035 . S
O599 C601 1.258 . S
C600 O594 1.247 . S
C600 O595 1.258 . S
C601 O598 1.247 . S
C601 O599 1.258 . S
C602 O604 1.247 . S
C602 O606 1.258 . S
C603 O610 1.247 . S
C603 O611 1.258 . S
O604 C602 1.247 . S
O604 Zn605 2.028 . S
Zn605 O604 2.028 . S
Zn605 O609 2.035 . S
Zn605 O611 2.035 . S
Zn605 O612 2.028 . S
O606 C602 1.258 . S
O606 Zn607 2.035 . S
Zn607 O606 2.035 . S
Zn607 O608 2.028 . S
Zn607 O610 2.028 . S
Zn607 O613 2.035 . S
O608 Zn607 2.028 . S
O608 C614 1.247 . S
O609 Zn605 2.035 . S
O609 C614 1.258 . S
O610 C603 1.247 . S
O610 Zn607 2.028 . S
O611 C603 1.258 . S
O611 Zn605 2.035 . S
O612 Zn605 2.028 . S
O612 C615 1.247 . S
O613 Zn607 2.035 . S
O613 C615 1.258 . S
C614 O608 1.247 . S
C614 O609 1.258 . S
C615 O612 1.247 . S
C615 O613 1.258 . S
C616 O618 1.247 . S
C616 O620 1.258 . S
C617 O624 1.247 . S
C617 O625 1.258 . S
O618 C616 1.247 . S
O618 Zn619 2.028 . S
Zn619 O618 2.028 . S
Zn619 O623 2.035 . S
Zn619 O625 2.035 . S
Zn619 O626 2.028 . S
O620 C616 1.258 . S
O620 Zn621 2.035 . S
Zn621 O620 2.035 . S
Zn621 O622 2.028 . S
Zn621 O624 2.028 . S
Zn621 O627 2.035 . S
O622 Zn621 2.028 . S
O622 C628 1.247 . S
O623 Zn619 2.035 . S
O623 C628 1.258 . S
O624 C617 1.247 . S
O624 Zn621 2.028 . S
O625 C617 1.258 . S
O625 Zn619 2.035 . S
O626 Zn619 2.028 . S
O626 C629 1.247 . S
O627 Zn621 2.035 . S
O627 C629 1.258 . S
C628 O622 1.247 . S
C628 O623 1.258 . S
C629 O626 1.247 . S
C629 O627 1.258 . S
C630 O632 1.247 . S
C630 O634 1.258 . S
C631 O638 1.247 . S
C631 O639 1.258 . S
O632 C630 1.247 . S
O632 Zn633 2.028 . S
Zn633 O632 2.028 . S
Zn633 O637 2.035 . S
Zn633 O639 2.035 . S
Zn633 O640 2.028 . S
O634 C630 1.258 . S
O634 Zn635 2.035 . S
Zn635 O634 2.035 . S
Zn635 O636 2.028 . S
Zn635 O638 2.028 . S
Zn635 O641 2.035 . S
O636 Zn635 2.028 . S
O636 C642 1.247 . S
O637 Zn633 2.035 . S
O637 C642 1.258 . S
O638 C631 1.247 . S
O638 Zn635 2.028 . S
O639 C631 1.258 . S
O639 Zn633 2.035 . S
O640 Zn633 2.028 . S
O640 C643 1.247 . S
O641 Zn635 2.035 . S
O641 C643 1.258 . S
C642 O636 1.247 . S
C642 O637 1.258 . S
C643 O640 1.247 . S
C643 O641 1.258 . S
C644 O646 1.247 . S
C644 O648 1.258 . S
C645 O652 1.247 . S
C645 O653 1.258 . S
O646 C644 1.247 . S
O646 Zn647 2.028 . S
Zn647 O646 2.028 . S
Zn647 O651 2.035 . S
Zn647 O653 2.035 . S
Zn647 O654 2.028 . S
O648 C644 1.258 . S
O648 Zn649 2.035 . S
Zn649 O648 2.035 . S
Zn649 O650 2.028 . S
Zn649 O652 2.028 . S
Zn649 O655 2.035 . S
O650 Zn649 2.028 . S
O650 C656 1.247 . S
O651 Zn647 2.035 . S
O651 C656 1.258 . S
O652 C645 1.247 . S
O652 Zn649 2.028 . S
O653 C645 1.258 . S
O653 Zn647 2.035 . S
O654 Zn647 2.028 . S
O654 C657 1.247 . S
O655 Zn649 2.035 . S
O655 C657 1.258 . S
C656 O650 1.247 . S
C656 O651 1.258 . S
C657 O654 1.247 . S
C657 O655 1.258 . S
C658 O660 1.247 . S
C658 O662 1.258 . S
C659 O666 1.247 . S
C659 O667 1.258 . S
O660 C658 1.247 . S
O660 Zn661 2.028 . S
Zn661 O660 2.028 . S
Zn661 O665 2.035 . S
Zn661 O667 2.035 . S
Zn661 O668 2.028 . S
O662 C658 1.258 . S
O662 Zn663 2.035 . S
Zn663 O662 2.035 . S
Zn663 O664 2.028 . S
Zn663 O666 2.028 . S
Zn663 O669 2.035 . S
O664 Zn663 2.028 . S
O664 C670 1.247 . S
O665 Zn661 2.035 . S
O665 C670 1.258 . S
O666 C659 1.247 . S
O666 Zn663 2.028 . S
O667 C659 1.258 . S
O667 Zn661 2.035 . S
O668 Zn661 2.028 . S
O668 C671 1.247 . S
O669 Zn663 2.035 . S
O669 C671 1.258 . S
C670 O664 1.247 . S
C670 O665 1.258 . S
C671 O668 1.247 . S
C671 O669 1.258 . S
C672 C673 1.369 . S
C672 C674 1.419 1_565 S
C672 H676 0.930 . S
C673 C672 1.369 . S
C673 C682 1.429 . S
C674 C672 1.419 1_545 S
C674 C675 1.363 . S
C674 H677 0.929 . S
C675 C674 1.363 . S
C675 C681 1.428 . S
H676 C672 0.930 . S
H677 C674 0.929 . S
S678 N679 1.613 1_545 S
S678 N680 1.610 . S
N679 S678 1.613 1_565 S
N679 C682 1.350 . S
N680 S678 1.610 . S
N680 C681 1.351 . S
C681 C675 1.428 . S
C681 N680 1.351 . S
C681 C682 1.434 1_545 S
C682 C673 1.429 . S
C682 N679 1.350 . S
C682 C681 1.434 1_565 S
C683 C684 1.369 . S
C683 C685 1.419 1_455 S
C683 H687 0.930 . S
C684 C683 1.369 . S
C684 C693 1.429 . S
C685 C683 1.419 1_655 S
C685 C686 1.363 . S
C685 H688 0.929 . S
C686 C685 1.363 . S
C686 C692 1.428 . S
H687 C683 0.930 . S
H688 C685 0.929 . S
S689 N690 1.613 1_655 S
S689 N691 1.610 . S
N690 S689 1.613 1_455 S
N690 C693 1.350 . S
N691 S689 1.610 . S
N691 C692 1.351 . S
C692 C686 1.428 . S
C692 N691 1.351 . S
C692 C693 1.434 1_655 S
C693 C684 1.429 . S
C693 N690 1.350 . S
C693 C692 1.434 1_455 S
C694 C695 1.369 . S
C694 C696 1.419 1_565 S
C694 H698 0.930 . S
C695 C694 1.369 . S
C695 C704 1.429 . S
C696 C694 1.419 1_545 S
C696 C697 1.363 . S
C696 H699 0.929 . S
C697 C696 1.363 . S
C697 C703 1.428 . S
H698 C694 0.930 . S
H699 C696 0.929 . S
S700 N701 1.613 . S
S700 N702 1.610 1_565 S
N701 S700 1.613 . S
N701 C704 1.350 . S
N702 S700 1.610 1_545 S
N702 C703 1.351 . S
C703 C697 1.428 . S
C703 N702 1.351 . S
C703 C704 1.434 1_545 S
C704 C695 1.429 . S
C704 N701 1.350 . S
C704 C703 1.434 1_565 S
C705 C706 1.369 . S
C705 C707 1.419 1_655 S
C705 H709 0.930 . S
C706 C705 1.369 . S
C706 C715 1.429 . S
C707 C705 1.419 1_455 S
C707 C708 1.363 . S
C707 H710 0.929 . S
C708 C707 1.363 . S
C708 C714 1.428 . S
H709 C705 0.930 . S
H710 C707 0.929 . S
S711 N712 1.613 . S
S711 N713 1.610 1_655 S
N712 S711 1.613 . S
N712 C715 1.350 . S
N713 S711 1.610 1_455 S
N713 C714 1.351 . S
C714 C708 1.428 . S
C714 N713 1.351 . S
C714 C715 1.434 1_455 S
C715 C706 1.429 . S
C715 N712 1.350 . S
C715 C714 1.434 1_655 S
C716 C717 1.369 . S
C716 C718 1.419 1_565 S
C716 H720 0.930 . S
C717 C716 1.369 . S
C717 C726 1.429 . S
C718 C716 1.419 1_545 S
C718 C719 1.363 . S
C718 H721 0.929 . S
C719 C718 1.363 . S
C719 C725 1.428 . S
H720 C716 0.930 . S
H721 C718 0.929 . S
S722 N723 1.613 . S
S722 N724 1.610 1_565 S
N723 S722 1.613 . S
N723 C726 1.350 . S
N724 S722 1.610 1_545 S
N724 C725 1.351 . S
C725 C719 1.428 . S
C725 N724 1.351 . S
C725 C726 1.434 1_545 S
C726 C717 1.429 . S
C726 N723 1.350 . S
C726 C725 1.434 1_565 S
C727 C728 1.369 . S
C727 C729 1.419 1_655 S
C727 H731 0.930 . S
C728 C727 1.369 . S
C728 C737 1.429 . S
C729 C727 1.419 1_455 S
C729 C730 1.363 . S
C729 H732 0.929 . S
C730 C729 1.363 . S
C730 C736 1.428 . S
H731 C727 0.930 . S
H732 C729 0.929 . S
S733 N734 1.613 . S
S733 N735 1.610 1_655 S
N734 S733 1.613 . S
N734 C737 1.350 . S
N735 S733 1.610 1_455 S
N735 C736 1.351 . S
C736 C730 1.428 . S
C736 N735 1.351 . S
C736 C737 1.434 1_455 S
C737 C728 1.429 . S
C737 N734 1.350 . S
C737 C736 1.434 1_655 S
C738 C739 1.369 . S
C738 C740 1.419 1_545 S
C738 H742 0.930 . S
C739 C738 1.369 . S
C739 C748 1.429 . S
C740 C738 1.419 1_565 S
C740 C741 1.363 . S
C740 H743 0.929 . S
C741 C740 1.363 . S
C741 C747 1.428 . S
H742 C738 0.930 . S
H743 C740 0.929 . S
S744 N745 1.613 . S
S744 N746 1.610 1_545 S
N745 S744 1.613 . S
N745 C748 1.350 . S
N746 S744 1.610 1_565 S
N746 C747 1.351 . S
C747 C741 1.428 . S
C747 N746 1.351 . S
C747 C748 1.434 1_565 S
C748 C739 1.429 . S
C748 N745 1.350 . S
C748 C747 1.434 1_545 S
C749 C750 1.369 . S
C749 C751 1.419 1_455 S
C749 H753 0.930 . S
C750 C749 1.369 . S
C750 C759 1.429 . S
C751 C749 1.419 1_655 S
C751 C752 1.363 . S
C751 H754 0.929 . S
C752 C751 1.363 . S
C752 C758 1.428 . S
H753 C749 0.930 . S
H754 C751 0.929 . S
S755 N756 1.613 1_655 S
S755 N757 1.610 . S
N756 S755 1.613 1_455 S
N756 C759 1.350 . S
N757 S755 1.610 . S
N757 C758 1.351 . S
C758 C752 1.428 . S
C758 N757 1.351 . S
C758 C759 1.434 1_655 S
C759 C750 1.429 . S
C759 N756 1.350 . S
C759 C758 1.434 1_455 S
C760 C761 1.369 . S
C760 C762 1.419 1_554 S
C760 H764 0.930 . S
C761 C760 1.369 . S
C761 C770 1.429 . S
C762 C760 1.419 1_556 S
C762 C763 1.363 . S
C762 H765 0.929 . S
C763 C762 1.363 . S
C763 C769 1.428 . S
H764 C760 0.930 . S
H765 C762 0.929 . S
S766 N767 1.613 1_556 S
S766 N768 1.610 . S
N767 S766 1.613 1_554 S
N767 C770 1.350 . S
N768 S766 1.610 . S
N768 C769 1.351 . S
C769 C763 1.428 . S
C769 N768 1.351 . S
C769 C770 1.434 1_556 S
C770 C761 1.429 . S
C770 N767 1.350 . S
C770 C769 1.434 1_554 S
C771 C772 1.369 . S
C771 C773 1.419 1_556 S
C771 H775 0.930 . S
C772 C771 1.369 . S
C772 C781 1.429 . S
C773 C771 1.419 1_554 S
C773 C774 1.363 . S
C773 H776 0.929 . S
C774 C773 1.363 . S
C774 C780 1.428 . S
H775 C771 0.930 . S
H776 C773 0.929 . S
S777 N778 1.613 . S
S777 N779 1.610 1_556 S
N778 S777 1.613 . S
N778 C781 1.350 . S
N779 S777 1.610 1_554 S
N779 C780 1.351 . S
C780 C774 1.428 . S
C780 N779 1.351 . S
C780 C781 1.434 1_554 S
C781 C772 1.429 . S
C781 N778 1.350 . S
C781 C780 1.434 1_556 S
C782 C783 1.369 . S
C782 C784 1.419 1_556 S
C782 H786 0.930 . S
C783 C782 1.369 . S
C783 C792 1.429 . S
C784 C782 1.419 1_554 S
C784 C785 1.363 . S
C784 H787 0.929 . S
C785 C784 1.363 . S
C785 C791 1.428 . S
H786 C782 0.930 . S
H787 C784 0.929 . S
S788 N789 1.613 . S
S788 N790 1.610 1_556 S
N789 S788 1.613 . S
N789 C792 1.350 . S
N790 S788 1.610 1_554 S
N790 C791 1.351 . S
C791 C785 1.428 . S
C791 N790 1.351 . S
C791 C792 1.434 1_554 S
C792 C783 1.429 . S
C792 N789 1.350 . S
C792 C791 1.434 1_556 S
C793 C794 1.369 . S
C793 C795 1.419 1_556 S
C793 H797 0.930 . S
C794 C793 1.369 . S
C794 C803 1.429 . S
C795 C793 1.419 1_554 S
C795 C796 1.363 . S
C795 H798 0.929 . S
C796 C795 1.363 . S
C796 C802 1.428 . S
H797 C793 0.930 . S
H798 C795 0.929 . S
S799 N800 1.613 1_554 S
S799 N801 1.610 . S
N800 S799 1.613 1_556 S
N800 C803 1.350 . S
N801 S799 1.610 . S
N801 C802 1.351 . S
C802 C796 1.428 . S
C802 N801 1.351 . S
C802 C803 1.434 1_554 S
C803 C794 1.429 . S
C803 N800 1.350 . S
C803 C802 1.434 1_556 S
C804 C805 1.369 . S
C804 C806 1.419 1_554 S
C804 H808 0.930 . S
C805 C804 1.369 . S
C805 C814 1.429 . S
C806 C804 1.419 1_556 S
C806 C807 1.363 . S
C806 H809 0.929 . S
C807 C806 1.363 . S
C807 C813 1.428 . S
H808 C804 0.930 . S
H809 C806 0.929 . S
S810 N811 1.613 . S
S810 N812 1.610 1_554 S
N811 S810 1.613 . S
N811 C814 1.350 . S
N812 S810 1.610 1_556 S
N812 C813 1.351 . S
C813 C807 1.428 . S
C813 N812 1.351 . S
C813 C814 1.434 1_556 S
C814 C805 1.429 . S
C814 N811 1.350 . S
C814 C813 1.434 1_554 S
C815 C816 1.369 . S
C815 C817 1.419 1_556 S
C815 H819 0.930 . S
C816 C815 1.369 . S
C816 C825 1.429 . S
C817 C815 1.419 1_554 S
C817 C818 1.363 . S
C817 H820 0.929 . S
C818 C817 1.363 . S
C818 C824 1.428 . S
H819 C815 0.930 . S
H820 C817 0.929 . S
S821 N822 1.613 . S
S821 N823 1.610 1_556 S
N822 S821 1.613 . S
N822 C825 1.350 . S
N823 S821 1.610 1_554 S
N823 C824 1.351 . S
C824 C818 1.428 . S
C824 N823 1.351 . S
C824 C825 1.434 1_554 S
C825 C816 1.429 . S
C825 N822 1.350 . S
C825 C824 1.434 1_556 S
C826 C827 1.369 . S
C826 C828 1.419 1_554 S
C826 H830 0.930 . S
C827 C826 1.369 . S
C827 C836 1.429 . S
C828 C826 1.419 1_556 S
C828 C829 1.363 . S
C828 H831 0.929 . S
C829 C828 1.363 . S
C829 C835 1.428 . S
H830 C826 0.930 . S
H831 C828 0.929 . S
S832 N833 1.613 . S
S832 N834 1.610 1_554 S
N833 S832 1.613 . S
N833 C836 1.350 . S
N834 S832 1.610 1_556 S
N834 C835 1.351 . S
C835 C829 1.428 . S
C835 N834 1.351 . S
C835 C836 1.434 1_556 S
C836 C827 1.429 . S
C836 N833 1.350 . S
C836 C835 1.434 1_554 S
C837 C838 1.369 . S
C837 C839 1.419 1_556 S
C837 H841 0.930 . S
C838 C837 1.369 . S
C838 C847 1.429 . S
C839 C837 1.419 1_554 S
C839 C840 1.363 . S
C839 H842 0.929 . S
C840 C839 1.363 . S
C840 C846 1.428 . S
H841 C837 0.930 . S
H842 C839 0.929 . S
S843 N844 1.613 . S
S843 N845 1.610 1_556 S
N844 S843 1.613 . S
N844 C847 1.350 . S
N845 S843 1.610 1_554 S
N845 C846 1.351 . S
C846 C840 1.428 . S
C846 N845 1.351 . S
C846 C847 1.434 1_554 S
C847 C838 1.429 . S
C847 N844 1.350 . S
C847 C846 1.434 1_556 S
C848 C849 1.369 . S
C848 C850 1.419 1_455 S
C848 H852 0.930 . S
C849 C848 1.369 . S
C849 C858 1.429 . S
C850 C848 1.419 1_655 S
C850 C851 1.363 . S
C850 H853 0.929 . S
C851 C850 1.363 . S
C851 C857 1.428 . S
H852 C848 0.930 . S
H853 C850 0.929 . S
S854 N855 1.613 . S
S854 N856 1.610 1_455 S
N855 S854 1.613 . S
N855 C858 1.350 . S
N856 S854 1.610 1_655 S
N856 C857 1.351 . S
C857 C851 1.428 . S
C857 N856 1.351 . S
C857 C858 1.434 1_655 S
C858 C849 1.429 . S
C858 N855 1.350 . S
C858 C857 1.434 1_455 S
C859 C860 1.369 . S
C859 C861 1.419 1_455 S
C859 H863 0.930 . S
C860 C859 1.369 . S
C860 C869 1.429 . S
C861 C859 1.419 1_655 S
C861 C862 1.363 . S
C861 H864 0.929 . S
C862 C861 1.363 . S
C862 C868 1.428 . S
H863 C859 0.930 . S
H864 C861 0.929 . S
S865 N866 1.613 1_655 S
S865 N867 1.610 . S
N866 S865 1.613 1_455 S
N866 C869 1.350 . S
N867 S865 1.610 . S
N867 C868 1.351 . S
C868 C862 1.428 . S
C868 N867 1.351 . S
C868 C869 1.434 1_655 S
C869 C860 1.429 . S
C869 N866 1.350 . S
C869 C868 1.434 1_455 S
C870 C871 1.369 . S
C870 C872 1.419 1_565 S
C870 H874 0.930 . S
C871 C870 1.369 . S
C871 C880 1.429 . S
C872 C870 1.419 1_545 S
C872 C873 1.363 . S
C872 H875 0.929 . S
C873 C872 1.363 . S
C873 C879 1.428 . S
H874 C870 0.930 . S
H875 C872 0.929 . S
S876 N877 1.613 1_545 S
S876 N878 1.610 . S
N877 S876 1.613 1_565 S
N877 C880 1.350 . S
N878 S876 1.610 . S
N878 C879 1.351 . S
C879 C873 1.428 . S
C879 N878 1.351 . S
C879 C880 1.434 1_545 S
C880 C871 1.429 . S
C880 N877 1.350 . S
C880 C879 1.434 1_565 S
C881 C882 1.369 . S
C881 C883 1.419 1_455 S
C881 H885 0.930 . S
C882 C881 1.369 . S
C882 C891 1.429 . S
C883 C881 1.419 1_655 S
C883 C884 1.363 . S
C883 H886 0.929 . S
C884 C883 1.363 . S
C884 C890 1.428 . S
H885 C881 0.930 . S
H886 C883 0.929 . S
S887 N888 1.613 . S
S887 N889 1.610 1_455 S
N888 S887 1.613 . S
N888 C891 1.350 . S
N889 S887 1.610 1_655 S
N889 C890 1.351 . S
C890 C884 1.428 . S
C890 N889 1.351 . S
C890 C891 1.434 1_655 S
C891 C882 1.429 . S
C891 N888 1.350 . S
C891 C890 1.434 1_455 S
C892 C893 1.369 . S
C892 C894 1.419 1_545 S
C892 H896 0.930 . S
C893 C892 1.369 . S
C893 C902 1.429 . S
C894 C892 1.419 1_565 S
C894 C895 1.363 . S
C894 H897 0.929 . S
C895 C894 1.363 . S
C895 C901 1.428 . S
H896 C892 0.930 . S
H897 C894 0.929 . S
S898 N899 1.613 . S
S898 N900 1.610 1_545 S
N899 S898 1.613 . S
N899 C902 1.350 . S
N900 S898 1.610 1_565 S
N900 C901 1.351 . S
C901 C895 1.428 . S
C901 N900 1.351 . S
C901 C902 1.434 1_565 S
C902 C893 1.429 . S
C902 N899 1.350 . S
C902 C901 1.434 1_545 S
C903 C904 1.369 . S
C903 C905 1.419 1_455 S
C903 H907 0.930 . S
C904 C903 1.369 . S
C904 C913 1.429 . S
C905 C903 1.419 1_655 S
C905 C906 1.363 . S
C905 H908 0.929 . S
C906 C905 1.363 . S
C906 C912 1.428 . S
H907 C903 0.930 . S
H908 C905 0.929 . S
S909 N910 1.613 1_655 S
S909 N911 1.610 . S
N910 S909 1.613 1_455 S
N910 C913 1.350 . S
N911 S909 1.610 . S
N911 C912 1.351 . S
C912 C906 1.428 . S
C912 N911 1.351 . S
C912 C913 1.434 1_655 S
C913 C904 1.429 . S
C913 N910 1.350 . S
C913 C912 1.434 1_455 S
C914 C915 1.369 . S
C914 C916 1.419 1_545 S
C914 H918 0.930 . S
C915 C914 1.369 . S
C915 C924 1.429 . S
C916 C914 1.419 1_565 S
C916 C917 1.363 . S
C916 H919 0.929 . S
C917 C916 1.363 . S
C917 C923 1.428 . S
H918 C914 0.930 . S
H919 C916 0.929 . S
S920 N921 1.613 . S
S920 N922 1.610 1_545 S
N921 S920 1.613 . S
N921 C924 1.350 . S
N922 S920 1.610 1_565 S
N922 C923 1.351 . S
C923 C917 1.428 . S
C923 N922 1.351 . S
C923 C924 1.434 1_565 S
C924 C915 1.429 . S
C924 N921 1.350 . S
C924 C923 1.434 1_545 S
C925 C926 1.369 . S
C925 C927 1.419 1_545 S
C925 H929 0.930 . S
C926 C925 1.369 . S
C926 C935 1.429 . S
C927 C925 1.419 1_565 S
C927 C928 1.363 . S
C927 H930 0.929 . S
C928 C927 1.363 . S
C928 C934 1.428 . S
H929 C925 0.930 . S
H930 C927 0.929 . S
S931 N932 1.587 1_565 S
S931 N933 1.637 . S
N932 S931 1.587 1_545 S
N932 C935 1.350 . S
N933 S931 1.637 . S
N933 C934 1.351 . S
C934 C928 1.428 . S
C934 N933 1.351 . S
C934 C935 1.434 1_565 S
C935 C926 1.429 . S
C935 N932 1.350 . S
C935 C934 1.434 1_545 S
C936 C937 1.369 . S
C936 C938 1.419 . S
C936 H940 0.930 . S
C937 C936 1.369 . S
C937 C946 1.429 . S
C938 C936 1.419 . S
C938 C939 1.363 . S
C938 H941 0.929 . S
C939 C938 1.363 . S
C939 C945 1.428 . S
H940 C936 0.930 . S
H941 C938 0.929 . S
S942 N943 1.613 . S
S942 N944 1.610 . S
N943 S942 1.613 . S
N943 C946 1.350 . S
N944 S942 1.610 . S
N944 C945 1.351 . S
C945 C939 1.428 . S
C945 N944 1.351 . S
C945 C946 1.434 . S
C946 C937 1.429 . S
C946 N943 1.350 . S
C946 C945 1.434 . S
C947 C948 1.369 . S
C947 C949 1.419 . S
C947 H951 0.930 . S
C948 C947 1.369 . S
C948 C957 1.429 . S
C949 C947 1.419 . S
C949 C950 1.363 . S
C949 H952 0.929 . S
C950 C949 1.363 . S
C950 C956 1.428 . S
H951 C947 0.930 . S
H952 C949 0.929 . S
S953 N954 1.613 . S
S953 N955 1.610 . S
N954 S953 1.613 . S
N954 C957 1.350 . S
N955 S953 1.610 . S
N955 C956 1.351 . S
C956 C950 1.428 . S
C956 N955 1.351 . S
C956 C957 1.434 . S
C957 C948 1.429 . S
C957 N954 1.350 . S
C957 C956 1.434 . S
C958 C959 1.369 . S
C958 C960 1.419 . S
C958 H962 0.930 . S
C959 C958 1.369 . S
C959 C968 1.429 . S
C960 C958 1.419 . S
C960 C961 1.363 . S
C960 H963 0.929 . S
C961 C960 1.363 . S
C961 C967 1.428 . S
H962 C958 0.930 . S
H963 C960 0.929 . S
S964 N965 1.613 . S
S964 N966 1.610 . S
N965 S964 1.613 . S
N965 C968 1.350 . S
N966 S964 1.610 . S
N966 C967 1.351 . S
C967 C961 1.428 . S
C967 N966 1.351 . S
C967 C968 1.434 . S
C968 C959 1.429 . S
C968 N965 1.350 . S
C968 C967 1.434 . S
C969 C970 1.369 . S
C969 C971 1.419 . S
C969 H973 0.930 . S
C970 C969 1.369 . S
C970 C979 1.429 . S
C971 C969 1.419 . S
C971 C972 1.363 . S
C971 H974 0.929 . S
C972 C971 1.363 . S
C972 C978 1.428 . S
H973 C969 0.930 . S
H974 C971 0.929 . S
S975 N976 1.613 . S
S975 N977 1.610 . S
N976 S975 1.613 . S
N976 C979 1.350 . S
N977 S975 1.610 . S
N977 C978 1.351 . S
C978 C972 1.428 . S
C978 N977 1.351 . S
C978 C979 1.434 . S
C979 C970 1.429 . S
C979 N976 1.350 . S
C979 C978 1.434 . S
C980 C981 1.369 . S
C980 C982 1.419 . S
C980 H984 0.930 . S
C981 C980 1.369 . S
C981 C990 1.429 . S
C982 C980 1.419 . S
C982 C983 1.363 . S
C982 H985 0.929 . S
C983 C982 1.363 . S
C983 C989 1.428 . S
H984 C980 0.930 . S
H985 C982 0.929 . S
S986 N987 1.613 . S
S986 N988 1.610 . S
N987 S986 1.613 . S
N987 C990 1.350 . S
N988 S986 1.610 . S
N988 C989 1.351 . S
C989 C983 1.428 . S
C989 N988 1.351 . S
C989 C990 1.434 . S
C990 C981 1.429 . S
C990 N987 1.350 . S
C990 C989 1.434 . S
C991 C992 1.369 . S
C991 C993 1.419 . S
C991 H995 0.930 . S
C992 C991 1.369 . S
C992 C1001 1.429 . S
C993 C991 1.419 . S
C993 C994 1.363 . S
C993 H996 0.929 . S
C994 C993 1.363 . S
C994 C1000 1.428 . S
H995 C991 0.930 . S
H996 C993 0.929 . S
S997 N998 1.613 . S
S997 N999 1.610 . S
N998 S997 1.613 . S
N998 C1001 1.350 . S
N999 S997 1.610 . S
N999 C1000 1.351 . S
C1000 C994 1.428 . S
C1000 N999 1.351 . S
C1000 C1001 1.434 . S
C1001 C992 1.429 . S
C1001 N998 1.350 . S
C1001 C1000 1.434 . S
C1002 C1003 1.369 . S
C1002 C1004 1.419 . S
C1002 H1006 0.930 . S
C1003 C1002 1.369 . S
C1003 C1012 1.429 . S
C1004 C1002 1.419 . S
C1004 C1005 1.363 . S
C1004 H1007 0.929 . S
C1005 C1004 1.363 . S
C1005 C1011 1.428 . S
H1006 C1002 0.930 . S
H1007 C1004 0.929 . S
S1008 N1009 1.613 . S
S1008 N1010 1.610 . S
N1009 S1008 1.613 . S
N1009 C1012 1.350 . S
N1010 S1008 1.610 . S
N1010 C1011 1.351 . S
C1011 C1005 1.428 . S
C1011 N1010 1.351 . S
C1011 C1012 1.434 . S
C1012 C1003 1.429 . S
C1012 N1009 1.350 . S
C1012 C1011 1.434 . S
C1013 C1014 1.369 . S
C1013 C1015 1.419 . S
C1013 H1017 0.930 . S
C1014 C1013 1.369 . S
C1014 C1023 1.429 . S
C1015 C1013 1.419 . S
C1015 C1016 1.363 . S
C1015 H1018 0.929 . S
C1016 C1015 1.363 . S
C1016 C1022 1.428 . S
H1017 C1013 0.930 . S
H1018 C1015 0.929 . S
S1019 N1020 1.613 . S
S1019 N1021 1.610 . S
N1020 S1019 1.613 . S
N1020 C1023 1.350 . S
N1021 S1019 1.610 . S
N1021 C1022 1.351 . S
C1022 C1016 1.428 . S
C1022 N1021 1.351 . S
C1022 C1023 1.434 . S
C1023 C1014 1.429 . S
C1023 N1020 1.350 . S
C1023 C1022 1.434 . S
C1024 C1025 1.369 . S
C1024 C1026 1.419 . S
C1024 H1028 0.930 . S
C1025 C1024 1.369 . S
C1025 C1034 1.429 . S
C1026 C1024 1.419 . S
C1026 C1027 1.363 . S
C1026 H1029 0.929 . S
C1027 C1026 1.363 . S
C1027 C1033 1.428 . S
H1028 C1024 0.930 . S
H1029 C1026 0.929 . S
S1030 N1031 1.613 . S
S1030 N1032 1.610 . S
N1031 S1030 1.613 . S
N1031 C1034 1.350 . S
N1032 S1030 1.610 . S
N1032 C1033 1.351 . S
C1033 C1027 1.428 . S
C1033 N1032 1.351 . S
C1033 C1034 1.434 . S
C1034 C1025 1.429 . S
C1034 N1031 1.350 . S
C1034 C1033 1.434 . S
C1035 C1036 1.369 . S
C1035 C1037 1.419 . S
C1035 H1039 0.930 . S
C1036 C1035 1.369 . S
C1036 C1045 1.429 . S
C1037 C1035 1.419 . S
C1037 C1038 1.363 . S
C1037 H1040 0.929 . S
C1038 C1037 1.363 . S
C1038 C1044 1.428 . S
H1039 C1035 0.930 . S
H1040 C1037 0.929 . S
S1041 N1042 1.613 . S
S1041 N1043 1.610 . S
N1042 S1041 1.613 . S
N1042 C1045 1.350 . S
N1043 S1041 1.610 . S
N1043 C1044 1.351 . S
C1044 C1038 1.428 . S
C1044 N1043 1.351 . S
C1044 C1045 1.434 . S
C1045 C1036 1.429 . S
C1045 N1042 1.350 . S
C1045 C1044 1.434 . S
C1046 C1047 1.369 . S
C1046 C1048 1.419 . S
C1046 H1050 0.930 . S
C1047 C1046 1.369 . S
C1047 C1056 1.429 . S
C1048 C1046 1.419 . S
C1048 C1049 1.363 . S
C1048 H1051 0.929 . S
C1049 C1048 1.363 . S
C1049 C1055 1.428 . S
H1050 C1046 0.930 . S
H1051 C1048 0.929 . S
S1052 N1053 1.613 . S
S1052 N1054 1.610 . S
N1053 S1052 1.613 . S
N1053 C1056 1.350 . S
N1054 S1052 1.610 . S
N1054 C1055 1.351 . S
C1055 C1049 1.428 . S
C1055 N1054 1.351 . S
C1055 C1056 1.434 . S
C1056 C1047 1.429 . S
C1056 N1053 1.350 . S
C1056 C1055 1.434 . S
C1057 C1058 1.369 . S
C1057 C1059 1.419 . S
C1057 H1061 0.930 . S
C1058 C1057 1.369 . S
C1058 C1067 1.429 . S
C1059 C1057 1.419 . S
C1059 C1060 1.363 . S
C1059 H1062 0.929 . S
C1060 C1059 1.363 . S
C1060 C1066 1.428 . S
H1061 C1057 0.930 . S
H1062 C1059 0.929 . S
S1063 N1064 1.613 . S
S1063 N1065 1.610 . S
N1064 S1063 1.613 . S
N1064 C1067 1.350 . S
N1065 S1063 1.610 . S
N1065 C1066 1.351 . S
C1066 C1060 1.428 . S
C1066 N1065 1.351 . S
C1066 C1067 1.434 . S
C1067 C1058 1.429 . S
C1067 N1064 1.350 . S
C1067 C1066 1.434 . S
C1068 C1069 1.369 . S
C1068 C1070 1.419 . S
C1068 H1072 0.930 . S
C1069 C1068 1.369 . S
C1069 C1078 1.429 . S
C1070 C1068 1.419 . S
C1070 C1071 1.363 . S
C1070 H1073 0.929 . S
C1071 C1070 1.363 . S
C1071 C1077 1.428 . S
H1072 C1068 0.930 . S
H1073 C1070 0.929 . S
S1074 N1075 1.613 . S
S1074 N1076 1.610 . S
N1075 S1074 1.613 . S
N1075 C1078 1.350 . S
N1076 S1074 1.610 . S
N1076 C1077 1.351 . S
C1077 C1071 1.428 . S
C1077 N1076 1.351 . S
C1077 C1078 1.434 . S
C1078 C1069 1.429 . S
C1078 N1075 1.350 . S
C1078 C1077 1.434 . S
C1079 C1080 1.369 . S
C1079 C1081 1.419 . S
C1079 H1083 0.930 . S
C1080 C1079 1.369 . S
C1080 C1089 1.429 . S
C1081 C1079 1.419 . S
C1081 C1082 1.363 . S
C1081 H1084 0.929 . S
C1082 C1081 1.363 . S
C1082 C1088 1.428 . S
H1083 C1079 0.930 . S
H1084 C1081 0.929 . S
S1085 N1086 1.613 . S
S1085 N1087 1.610 . S
N1086 S1085 1.613 . S
N1086 C1089 1.350 . S
N1087 S1085 1.610 . S
N1087 C1088 1.351 . S
C1088 C1082 1.428 . S
C1088 N1087 1.351 . S
C1088 C1089 1.434 . S
C1089 C1080 1.429 . S
C1089 N1086 1.350 . S
C1089 C1088 1.434 . S
C1090 C1091 1.369 . S
C1090 C1092 1.419 . S
C1090 H1094 0.930 . S
C1091 C1090 1.369 . S
C1091 C1100 1.429 . S
C1092 C1090 1.419 . S
C1092 C1093 1.363 . S
C1092 H1095 0.929 . S
C1093 C1092 1.363 . S
C1093 C1099 1.428 . S
H1094 C1090 0.930 . S
H1095 C1092 0.929 . S
S1096 N1097 1.613 . S
S1096 N1098 1.610 . S
N1097 S1096 1.613 . S
N1097 C1100 1.350 . S
N1098 S1096 1.610 . S
N1098 C1099 1.351 . S
C1099 C1093 1.428 . S
C1099 N1098 1.351 . S
C1099 C1100 1.434 . S
C1100 C1091 1.429 . S
C1100 N1097 1.350 . S
C1100 C1099 1.434 . S
C1101 C1102 1.369 . S
C1101 C1103 1.419 . S
C1101 H1105 0.930 . S
C1102 C1101 1.369 . S
C1102 C1111 1.429 . S
C1103 C1101 1.419 . S
C1103 C1104 1.363 . S
C1103 H1106 0.929 . S
C1104 C1103 1.363 . S
C1104 C1110 1.428 . S
H1105 C1101 0.930 . S
H1106 C1103 0.929 . S
S1107 N1108 1.613 . S
S1107 N1109 1.610 . S
N1108 S1107 1.613 . S
N1108 C1111 1.350 . S
N1109 S1107 1.610 . S
N1109 C1110 1.351 . S
C1110 C1104 1.428 . S
C1110 N1109 1.351 . S
C1110 C1111 1.434 . S
C1111 C1102 1.429 . S
C1111 N1108 1.350 . S
C1111 C1110 1.434 . S
C1112 C1113 1.369 . S
C1112 C1114 1.419 . S
C1112 H1116 0.930 . S
C1113 C1112 1.369 . S
C1113 C1122 1.429 . S
C1114 C1112 1.419 . S
C1114 C1115 1.363 . S
C1114 H1117 0.929 . S
C1115 C1114 1.363 . S
C1115 C1121 1.428 . S
H1116 C1112 0.930 . S
H1117 C1114 0.929 . S
S1118 N1119 1.613 . S
S1118 N1120 1.610 . S
N1119 S1118 1.613 . S
N1119 C1122 1.350 . S
N1120 S1118 1.610 . S
N1120 C1121 1.351 . S
C1121 C1115 1.428 . S
C1121 N1120 1.351 . S
C1121 C1122 1.434 . S
C1122 C1113 1.429 . S
C1122 N1119 1.350 . S
C1122 C1121 1.434 . S
C1123 C1124 1.369 . S
C1123 C1125 1.419 . S
C1123 H1127 0.930 . S
C1124 C1123 1.369 . S
C1124 C1133 1.429 . S
C1125 C1123 1.419 . S
C1125 C1126 1.363 . S
C1125 H1128 0.929 . S
C1126 C1125 1.363 . S
C1126 C1132 1.428 . S
H1127 C1123 0.930 . S
H1128 C1125 0.929 . S
S1129 N1130 1.613 . S
S1129 N1131 1.610 . S
N1130 S1129 1.613 . S
N1130 C1133 1.350 . S
N1131 S1129 1.610 . S
N1131 C1132 1.351 . S
C1132 C1126 1.428 . S
C1132 N1131 1.351 . S
C1132 C1133 1.434 . S
C1133 C1124 1.429 . S
C1133 N1130 1.350 . S
C1133 C1132 1.434 . S
C1134 C1135 1.369 . S
C1134 C1136 1.419 . S
C1134 H1138 0.930 . S
C1135 C1134 1.369 . S
C1135 C1144 1.429 . S
C1136 C1134 1.419 . S
C1136 C1137 1.363 . S
C1136 H1139 0.929 . S
C1137 C1136 1.363 . S
C1137 C1143 1.428 . S
H1138 C1134 0.930 . S
H1139 C1136 0.929 . S
S1140 N1141 1.613 . S
S1140 N1142 1.610 . S
N1141 S1140 1.613 . S
N1141 C1144 1.350 . S
N1142 S1140 1.610 . S
N1142 C1143 1.351 . S
C1143 C1137 1.428 . S
C1143 N1142 1.351 . S
C1143 C1144 1.434 . S
C1144 C1135 1.429 . S
C1144 N1141 1.350 . S
C1144 C1143 1.434 . S
C1145 C1146 1.369 . S
C1145 C1147 1.419 . S
C1145 H1149 0.930 . S
C1146 C1145 1.369 . S
C1146 C1155 1.429 . S
C1147 C1145 1.419 . S
C1147 C1148 1.363 . S
C1147 H1150 0.929 . S
C1148 C1147 1.363 . S
C1148 C1154 1.428 . S
H1149 C1145 0.930 . S
H1150 C1147 0.929 . S
S1151 N1152 1.613 . S
S1151 N1153 1.610 . S
N1152 S1151 1.613 . S
N1152 C1155 1.350 . S
N1153 S1151 1.610 . S
N1153 C1154 1.351 . S
C1154 C1148 1.428 . S
C1154 N1153 1.351 . S
C1154 C1155 1.434 . S
C1155 C1146 1.429 . S
C1155 N1152 1.350 . S
C1155 C1154 1.434 . S
C1156 C1157 1.369 . S
C1156 C1158 1.419 . S
C1156 H1160 0.930 . S
C1157 C1156 1.369 . S
C1157 C1166 1.429 . S
C1158 C1156 1.419 . S
C1158 C1159 1.363 . S
C1158 H1161 0.929 . S
C1159 C1158 1.363 . S
C1159 C1165 1.428 . S
H1160 C1156 0.930 . S
H1161 C1158 0.929 . S
S1162 N1163 1.613 . S
S1162 N1164 1.610 . S
N1163 S1162 1.613 . S
N1163 C1166 1.350 . S
N1164 S1162 1.610 . S
N1164 C1165 1.351 . S
C1165 C1159 1.428 . S
C1165 N1164 1.351 . S
C1165 C1166 1.434 . S
C1166 C1157 1.429 . S
C1166 N1163 1.350 . S
C1166 C1165 1.434 . S
C1167 C1168 1.369 . S
C1167 C1169 1.419 . S
C1167 H1171 0.930 . S
C1168 C1167 1.369 . S
C1168 C1177 1.429 . S
C1169 C1167 1.419 . S
C1169 C1170 1.363 . S
C1169 H1172 0.929 . S
C1170 C1169 1.363 . S
C1170 C1176 1.428 . S
H1171 C1167 0.930 . S
H1172 C1169 0.929 . S
S1173 N1174 1.613 . S
S1173 N1175 1.610 . S
N1174 S1173 1.613 . S
N1174 C1177 1.350 . S
N1175 S1173 1.610 . S
N1175 C1176 1.351 . S
C1176 C1170 1.428 . S
C1176 N1175 1.351 . S
C1176 C1177 1.434 . S
C1177 C1168 1.429 . S
C1177 N1174 1.350 . S
C1177 C1176 1.434 . S
C1178 C1179 1.369 . S
C1178 C1180 1.419 . S
C1178 H1182 0.930 . S
C1179 C1178 1.369 . S
C1179 C1188 1.429 . S
C1180 C1178 1.419 . S
C1180 C1181 1.363 . S
C1180 H1183 0.929 . S
C1181 C1180 1.363 . S
C1181 C1187 1.428 . S
H1182 C1178 0.930 . S
H1183 C1180 0.929 . S
S1184 N1185 1.613 . S
S1184 N1186 1.610 . S
N1185 S1184 1.613 . S
N1185 C1188 1.350 . S
N1186 S1184 1.610 . S
N1186 C1187 1.351 . S
C1187 C1181 1.428 . S
C1187 N1186 1.351 . S
C1187 C1188 1.434 . S
C1188 C1179 1.429 . S
C1188 N1185 1.350 . S
C1188 C1187 1.434 . S
C1189 C1190 1.369 . S
C1189 C1191 1.419 . S
C1189 H1193 0.930 . S
C1190 C1189 1.369 . S
C1190 C1199 1.429 . S
C1191 C1189 1.419 . S
C1191 C1192 1.363 . S
C1191 H1194 0.929 . S
C1192 C1191 1.363 . S
C1192 C1198 1.428 . S
H1193 C1189 0.930 . S
H1194 C1191 0.929 . S
S1195 N1196 1.613 . S
S1195 N1197 1.610 . S
N1196 S1195 1.613 . S
N1196 C1199 1.350 . S
N1197 S1195 1.610 . S
N1197 C1198 1.351 . S
C1198 C1192 1.428 . S
C1198 N1197 1.351 . S
C1198 C1199 1.434 . S
C1199 C1190 1.429 . S
C1199 N1196 1.350 . S
C1199 C1198 1.434 . S
C1200 C1201 1.369 . S
C1200 C1202 1.419 . S
C1200 H1204 0.930 . S
C1201 C1200 1.369 . S
C1201 C1210 1.429 . S
C1202 C1200 1.419 . S
C1202 C1203 1.363 . S
C1202 H1205 0.929 . S
C1203 C1202 1.363 . S
C1203 C1209 1.428 . S
H1204 C1200 0.930 . S
H1205 C1202 0.929 . S
S1206 N1207 1.613 . S
S1206 N1208 1.610 . S
N1207 S1206 1.613 . S
N1207 C1210 1.350 . S
N1208 S1206 1.610 . S
N1208 C1209 1.351 . S
C1209 C1203 1.428 . S
C1209 N1208 1.351 . S
C1209 C1210 1.434 . S
C1210 C1201 1.429 . S
C1210 N1207 1.350 . S
C1210 C1209 1.434 . S
C1211 C1212 1.369 . S
C1211 C1213 1.419 . S
C1211 H1215 0.930 . S
C1212 C1211 1.369 . S
C1212 C1221 1.429 . S
C1213 C1211 1.419 . S
C1213 C1214 1.363 . S
C1213 H1216 0.929 . S
C1214 C1213 1.363 . S
C1214 C1220 1.428 . S
H1215 C1211 0.930 . S
H1216 C1213 0.929 . S
S1217 N1218 1.613 . S
S1217 N1219 1.610 . S
N1218 S1217 1.613 . S
N1218 C1221 1.350 . S
N1219 S1217 1.610 . S
N1219 C1220 1.351 . S
C1220 C1214 1.428 . S
C1220 N1219 1.351 . S
C1220 C1221 1.434 . S
C1221 C1212 1.429 . S
C1221 N1218 1.350 . S
C1221 C1220 1.434 . S
C1222 C1223 1.369 . S
C1222 C1224 1.419 . S
C1222 H1226 0.930 . S
C1223 C1222 1.369 . S
C1223 C1232 1.429 . S
C1224 C1222 1.419 . S
C1224 C1225 1.363 . S
C1224 H1227 0.929 . S
C1225 C1224 1.363 . S
C1225 C1231 1.428 . S
H1226 C1222 0.930 . S
H1227 C1224 0.929 . S
S1228 N1229 1.613 . S
S1228 N1230 1.610 . S
N1229 S1228 1.613 . S
N1229 C1232 1.350 . S
N1230 S1228 1.610 . S
N1230 C1231 1.351 . S
C1231 C1225 1.428 . S
C1231 N1230 1.351 . S
C1231 C1232 1.434 . S
C1232 C1223 1.429 . S
C1232 N1229 1.350 . S
C1232 C1231 1.434 . S
C1233 C1234 1.369 . S
C1233 C1235 1.419 . S
C1233 H1237 0.930 . S
C1234 C1233 1.369 . S
C1234 C1243 1.429 . S
C1235 C1233 1.419 . S
C1235 C1236 1.363 . S
C1235 H1238 0.929 . S
C1236 C1235 1.363 . S
C1236 C1242 1.428 . S
H1237 C1233 0.930 . S
H1238 C1235 0.929 . S
S1239 N1240 1.613 . S
S1239 N1241 1.610 . S
N1240 S1239 1.613 . S
N1240 C1243 1.350 . S
N1241 S1239 1.610 . S
N1241 C1242 1.351 . S
C1242 C1236 1.428 . S
C1242 N1241 1.351 . S
C1242 C1243 1.434 . S
C1243 C1234 1.429 . S
C1243 N1240 1.350 . S
C1243 C1242 1.434 . S
C1244 C1245 1.369 . S
C1244 C1246 1.419 . S
C1244 H1248 0.930 . S
C1245 C1244 1.369 . S
C1245 C1254 1.429 . S
C1246 C1244 1.419 . S
C1246 C1247 1.363 . S
C1246 H1249 0.929 . S
C1247 C1246 1.363 . S
C1247 C1253 1.428 . S
H1248 C1244 0.930 . S
H1249 C1246 0.929 . S
S1250 N1251 1.613 . S
S1250 N1252 1.610 . S
N1251 S1250 1.613 . S
N1251 C1254 1.350 . S
N1252 S1250 1.610 . S
N1252 C1253 1.351 . S
C1253 C1247 1.428 . S
C1253 N1252 1.351 . S
C1253 C1254 1.434 . S
C1254 C1245 1.429 . S
C1254 N1251 1.350 . S
C1254 C1253 1.434 . S
C1255 C1256 1.369 . S
C1255 C1257 1.419 . S
C1255 H1259 0.930 . S
C1256 C1255 1.369 . S
C1256 C1265 1.429 . S
C1257 C1255 1.419 . S
C1257 C1258 1.363 . S
C1257 H1260 0.929 . S
C1258 C1257 1.363 . S
C1258 C1264 1.428 . S
H1259 C1255 0.930 . S
H1260 C1257 0.929 . S
S1261 N1262 1.613 . S
S1261 N1263 1.610 . S
N1262 S1261 1.613 . S
N1262 C1265 1.350 . S
N1263 S1261 1.610 . S
N1263 C1264 1.351 . S
C1264 C1258 1.428 . S
C1264 N1263 1.351 . S
C1264 C1265 1.434 . S
C1265 C1256 1.429 . S
C1265 N1262 1.350 . S
C1265 C1264 1.434 . S
C1266 C1267 1.369 . S
C1266 C1268 1.419 . S
C1266 H1270 0.930 . S
C1267 C1266 1.369 . S
C1267 C1276 1.429 . S
C1268 C1266 1.419 . S
C1268 C1269 1.363 . S
C1268 H1271 0.929 . S
C1269 C1268 1.363 . S
C1269 C1275 1.428 . S
H1270 C1266 0.930 . S
H1271 C1268 0.929 . S
S1272 N1273 1.613 . S
S1272 N1274 1.610 . S
N1273 S1272 1.613 . S
N1273 C1276 1.350 . S
N1274 S1272 1.610 . S
N1274 C1275 1.351 . S
C1275 C1269 1.428 . S
C1275 N1274 1.351 . S
C1275 C1276 1.434 . S
C1276 C1267 1.429 . S
C1276 N1273 1.350 . S
C1276 C1275 1.434 . S
C1277 C1278 1.369 . S
C1277 C1279 1.419 . S
C1277 H1281 0.930 . S
C1278 C1277 1.369 . S
C1278 C1287 1.429 . S
C1279 C1277 1.419 . S
C1279 C1280 1.363 . S
C1279 H1282 0.929 . S
C1280 C1279 1.363 . S
C1280 C1286 1.428 . S
H1281 C1277 0.930 . S
H1282 C1279 0.929 . S
S1283 N1284 1.613 . S
S1283 N1285 1.610 . S
N1284 S1283 1.613 . S
N1284 C1287 1.350 . S
N1285 S1283 1.610 . S
N1285 C1286 1.351 . S
C1286 C1280 1.428 . S
C1286 N1285 1.351 . S
C1286 C1287 1.434 . S
C1287 C1278 1.429 . S
C1287 N1284 1.350 . S
C1287 C1286 1.434 . S
C1288 C1289 1.369 . S
C1288 C1290 1.419 . S
C1288 H1292 0.930 . S
C1289 C1288 1.369 . S
C1289 C1298 1.429 . S
C1290 C1288 1.419 . S
C1290 C1291 1.363 . S
C1290 H1293 0.929 . S
C1291 C1290 1.363 . S
C1291 C1297 1.428 . S
H1292 C1288 0.930 . S
H1293 C1290 0.929 . S
S1294 N1295 1.613 . S
S1294 N1296 1.610 . S
N1295 S1294 1.613 . S
N1295 C1298 1.350 . S
N1296 S1294 1.610 . S
N1296 C1297 1.351 . S
C1297 C1291 1.428 . S
C1297 N1296 1.351 . S
C1297 C1298 1.434 . S
C1298 C1289 1.429 . S
C1298 N1295 1.350 . S
C1298 C1297 1.434 . S
C1299 C1300 1.369 . S
C1299 C1301 1.419 . S
C1299 H1303 0.930 . S
C1300 C1299 1.369 . S
C1300 C1309 1.429 . S
C1301 C1299 1.419 . S
C1301 C1302 1.363 . S
C1301 H1304 0.929 . S
C1302 C1301 1.363 . S
C1302 C1308 1.428 . S
H1303 C1299 0.930 . S
H1304 C1301 0.929 . S
S1305 N1306 1.613 . S
S1305 N1307 1.610 . S
N1306 S1305 1.613 . S
N1306 C1309 1.350 . S
N1307 S1305 1.610 . S
N1307 C1308 1.351 . S
C1308 C1302 1.428 . S
C1308 N1307 1.351 . S
C1308 C1309 1.434 . S
C1309 C1300 1.429 . S
C1309 N1306 1.350 . S
C1309 C1308 1.434 . S
C1310 C1311 1.369 . S
C1310 C1312 1.419 . S
C1310 H1314 0.930 . S
C1311 C1310 1.369 . S
C1311 C1320 1.429 . S
C1312 C1310 1.419 . S
C1312 C1313 1.363 . S
C1312 H1315 0.929 . S
C1313 C1312 1.363 . S
C1313 C1319 1.428 . S
H1314 C1310 0.930 . S
H1315 C1312 0.929 . S
S1316 N1317 1.613 . S
S1316 N1318 1.610 . S
N1317 S1316 1.613 . S
N1317 C1320 1.350 . S
N1318 S1316 1.610 . S
N1318 C1319 1.351 . S
C1319 C1313 1.428 . S
C1319 N1318 1.351 . S
C1319 C1320 1.434 . S
C1320 C1311 1.429 . S
C1320 N1317 1.350 . S
C1320 C1319 1.434 . S
C1321 C1322 1.369 . S
C1321 C1323 1.419 . S
C1321 H1325 0.930 . S
C1322 C1321 1.369 . S
C1322 C1331 1.429 . S
C1323 C1321 1.419 . S
C1323 C1324 1.363 . S
C1323 H1326 0.929 . S
C1324 C1323 1.363 . S
C1324 C1330 1.428 . S
H1325 C1321 0.930 . S
H1326 C1323 0.929 . S
S1327 N1328 1.613 . S
S1327 N1329 1.610 . S
N1328 S1327 1.613 . S
N1328 C1331 1.350 . S
N1329 S1327 1.610 . S
N1329 C1330 1.351 . S
C1330 C1324 1.428 . S
C1330 N1329 1.351 . S
C1330 C1331 1.434 . S
C1331 C1322 1.429 . S
C1331 N1328 1.350 . S
C1331 C1330 1.434 . S
C1332 C1333 1.369 . S
C1332 C1334 1.419 . S
C1332 H1336 0.930 . S
C1333 C1332 1.369 . S
C1333 C1342 1.429 . S
C1334 C1332 1.419 . S
C1334 C1335 1.363 . S
C1334 H1337 0.929 . S
C1335 C1334 1.363 . S
C1335 C1341 1.428 . S
H1336 C1332 0.930 . S
H1337 C1334 0.929 . S
S1338 N1339 1.613 . S
S1338 N1340 1.610 . S
N1339 S1338 1.613 . S
N1339 C1342 1.350 . S
N1340 S1338 1.610 . S
N1340 C1341 1.351 . S
C1341 C1335 1.428 . S
C1341 N1340 1.351 . S
C1341 C1342 1.434 . S
C1342 C1333 1.429 . S
C1342 N1339 1.350 . S
C1342 C1341 1.434 . S
C1343 C1344 1.369 . S
C1343 C1345 1.419 . S
C1343 H1347 0.930 . S
C1344 C1343 1.369 . S
C1344 C1353 1.429 . S
C1345 C1343 1.419 . S
C1345 C1346 1.363 . S
C1345 H1348 0.929 . S
C1346 C1345 1.363 . S
C1346 C1352 1.428 . S
H1347 C1343 0.930 . S
H1348 C1345 0.929 . S
S1349 N1350 1.613 . S
S1349 N1351 1.610 . S
N1350 S1349 1.613 . S
N1350 C1353 1.350 . S
N1351 S1349 1.610 . S
N1351 C1352 1.351 . S
C1352 C1346 1.428 . S
C1352 N1351 1.351 . S
C1352 C1353 1.434 . S
C1353 C1344 1.429 . S
C1353 N1350 1.350 . S
C1353 C1352 1.434 . S
C1354 C1355 1.369 . S
C1354 C1356 1.419 . S
C1354 H1358 0.930 . S
C1355 C1354 1.369 . S
C1355 C1364 1.429 . S
C1356 C1354 1.419 . S
C1356 C1357 1.363 . S
C1356 H1359 0.929 . S
C1357 C1356 1.363 . S
C1357 C1363 1.428 . S
H1358 C1354 0.930 . S
H1359 C1356 0.929 . S
S1360 N1361 1.613 . S
S1360 N1362 1.610 . S
N1361 S1360 1.613 . S
N1361 C1364 1.350 . S
N1362 S1360 1.610 . S
N1362 C1363 1.351 . S
C1363 C1357 1.428 . S
C1363 N1362 1.351 . S
C1363 C1364 1.434 . S
C1364 C1355 1.429 . S
C1364 N1361 1.350 . S
C1364 C1363 1.434 . S
C1365 C1366 1.369 . S
C1365 C1367 1.419 . S
C1365 H1369 0.930 . S
C1366 C1365 1.369 . S
C1366 C1375 1.429 . S
C1367 C1365 1.419 . S
C1367 C1368 1.363 . S
C1367 H1370 0.929 . S
C1368 C1367 1.363 . S
C1368 C1374 1.428 . S
H1369 C1365 0.930 . S
H1370 C1367 0.929 . S
S1371 N1372 1.613 . S
S1371 N1373 1.610 . S
N1372 S1371 1.613 . S
N1372 C1375 1.350 . S
N1373 S1371 1.610 . S
N1373 C1374 1.351 . S
C1374 C1368 1.428 . S
C1374 N1373 1.351 . S
C1374 C1375 1.434 . S
C1375 C1366 1.429 . S
C1375 N1372 1.350 . S
C1375 C1374 1.434 . S
C1376 C1377 1.369 . S
C1376 C1378 1.419 . S
C1376 H1380 0.930 . S
C1377 C1376 1.369 . S
C1377 C1386 1.429 . S
C1378 C1376 1.419 . S
C1378 C1379 1.363 . S
C1378 H1381 0.929 . S
C1379 C1378 1.363 . S
C1379 C1385 1.428 . S
H1380 C1376 0.930 . S
H1381 C1378 0.929 . S
S1382 N1383 1.613 . S
S1382 N1384 1.610 . S
N1383 S1382 1.613 . S
N1383 C1386 1.350 . S
N1384 S1382 1.610 . S
N1384 C1385 1.351 . S
C1385 C1379 1.428 . S
C1385 N1384 1.351 . S
C1385 C1386 1.434 . S
C1386 C1377 1.429 . S
C1386 N1383 1.350 . S
C1386 C1385 1.434 . S
C1387 C1388 1.369 . S
C1387 C1389 1.419 . S
C1387 H1391 0.930 . S
C1388 C1387 1.369 . S
C1388 C1397 1.429 . S
C1389 C1387 1.419 . S
C1389 C1390 1.363 . S
C1389 H1392 0.929 . S
C1390 C1389 1.363 . S
C1390 C1396 1.428 . S
H1391 C1387 0.930 . S
H1392 C1389 0.929 . S
S1393 N1394 1.613 . S
S1393 N1395 1.610 . S
N1394 S1393 1.613 . S
N1394 C1397 1.350 . S
N1395 S1393 1.610 . S
N1395 C1396 1.351 . S
C1396 C1390 1.428 . S
C1396 N1395 1.351 . S
C1396 C1397 1.434 . S
C1397 C1388 1.429 . S
C1397 N1394 1.350 . S
C1397 C1396 1.434 . S
C1398 C1399 1.369 . S
C1398 C1400 1.419 . S
C1398 H1402 0.930 . S
C1399 C1398 1.369 . S
C1399 C1408 1.429 . S
C1400 C1398 1.419 . S
C1400 C1401 1.363 . S
C1400 H1403 0.929 . S
C1401 C1400 1.363 . S
C1401 C1407 1.428 . S
H1402 C1398 0.930 . S
H1403 C1400 0.929 . S
S1404 N1405 1.613 . S
S1404 N1406 1.610 . S
N1405 S1404 1.613 . S
N1405 C1408 1.350 . S
N1406 S1404 1.610 . S
N1406 C1407 1.351 . S
C1407 C1401 1.428 . S
C1407 N1406 1.351 . S
C1407 C1408 1.434 . S
C1408 C1399 1.429 . S
C1408 N1405 1.350 . S
C1408 C1407 1.434 . S
C1409 C1410 1.369 . S
C1409 C1411 1.419 . S
C1409 H1413 0.930 . S
C1410 C1409 1.369 . S
C1410 C1419 1.429 . S
C1411 C1409 1.419 . S
C1411 C1412 1.363 . S
C1411 H1414 0.929 . S
C1412 C1411 1.363 . S
C1412 C1418 1.428 . S
H1413 C1409 0.930 . S
H1414 C1411 0.929 . S
S1415 N1416 1.613 . S
S1415 N1417 1.610 . S
N1416 S1415 1.613 . S
N1416 C1419 1.350 . S
N1417 S1415 1.610 . S
N1417 C1418 1.351 . S
C1418 C1412 1.428 . S
C1418 N1417 1.351 . S
C1418 C1419 1.434 . S
C1419 C1410 1.429 . S
C1419 N1416 1.350 . S
C1419 C1418 1.434 . S
C1420 C1421 1.369 . S
C1420 C1422 1.419 . S
C1420 H1424 0.930 . S
C1421 C1420 1.369 . S
C1421 C1430 1.429 . S
C1422 C1420 1.419 . S
C1422 C1423 1.363 . S
C1422 H1425 0.929 . S
C1423 C1422 1.363 . S
C1423 C1429 1.428 . S
H1424 C1420 0.930 . S
H1425 C1422 0.929 . S
S1426 N1427 1.613 . S
S1426 N1428 1.610 . S
N1427 S1426 1.613 . S
N1427 C1430 1.350 . S
N1428 S1426 1.610 . S
N1428 C1429 1.351 . S
C1429 C1423 1.428 . S
C1429 N1428 1.351 . S
C1429 C1430 1.434 . S
C1430 C1421 1.429 . S
C1430 N1427 1.350 . S
C1430 C1429 1.434 . S
C1431 C1432 1.369 . S
C1431 C1433 1.419 . S
C1431 H1435 0.930 . S
C1432 C1431 1.369 . S
C1432 C1441 1.429 . S
C1433 C1431 1.419 . S
C1433 C1434 1.363 . S
C1433 H1436 0.929 . S
C1434 C1433 1.363 . S
C1434 C1440 1.428 . S
H1435 C1431 0.930 . S
H1436 C1433 0.929 . S
S1437 N1438 1.613 . S
S1437 N1439 1.610 . S
N1438 S1437 1.613 . S
N1438 C1441 1.350 . S
N1439 S1437 1.610 . S
N1439 C1440 1.351 . S
C1440 C1434 1.428 . S
C1440 N1439 1.351 . S
C1440 C1441 1.434 . S
C1441 C1432 1.429 . S
C1441 N1438 1.350 . S
C1441 C1440 1.434 . S
C1442 C1443 1.369 . S
C1442 C1444 1.419 . S
C1442 H1446 0.930 . S
C1443 C1442 1.369 . S
C1443 C1452 1.429 . S
C1444 C1442 1.419 . S
C1444 C1445 1.363 . S
C1444 H1447 0.929 . S
C1445 C1444 1.363 . S
C1445 C1451 1.428 . S
H1446 C1442 0.930 . S
H1447 C1444 0.929 . S
S1448 N1449 1.613 . S
S1448 N1450 1.610 . S
N1449 S1448 1.613 . S
N1449 C1452 1.350 . S
N1450 S1448 1.610 . S
N1450 C1451 1.351 . S
C1451 C1445 1.428 . S
C1451 N1450 1.351 . S
C1451 C1452 1.434 . S
C1452 C1443 1.429 . S
C1452 N1449 1.350 . S
C1452 C1451 1.434 . S
C1453 C1454 1.369 . S
C1453 C1455 1.419 . S
C1453 H1457 0.930 . S
C1454 C1453 1.369 . S
C1454 C1463 1.429 . S
C1455 C1453 1.419 . S
C1455 C1456 1.363 . S
C1455 H1458 0.929 . S
C1456 C1455 1.363 . S
C1456 C1462 1.428 . S
H1457 C1453 0.930 . S
H1458 C1455 0.929 . S
S1459 N1460 1.613 . S
S1459 N1461 1.610 . S
N1460 S1459 1.613 . S
N1460 C1463 1.350 . S
N1461 S1459 1.610 . S
N1461 C1462 1.351 . S
C1462 C1456 1.428 . S
C1462 N1461 1.351 . S
C1462 C1463 1.434 . S
C1463 C1454 1.429 . S
C1463 N1460 1.350 . S
C1463 C1462 1.434 . S
C1464 C1465 1.369 . S
C1464 C1466 1.419 . S
C1464 H1468 0.930 . S
C1465 C1464 1.369 . S
C1465 C1474 1.429 . S
C1466 C1464 1.419 . S
C1466 C1467 1.363 . S
C1466 H1469 0.929 . S
C1467 C1466 1.363 . S
C1467 C1473 1.428 . S
H1468 C1464 0.930 . S
H1469 C1466 0.929 . S
S1470 N1471 1.613 . S
S1470 N1472 1.610 . S
N1471 S1470 1.613 . S
N1471 C1474 1.350 . S
N1472 S1470 1.610 . S
N1472 C1473 1.351 . S
C1473 C1467 1.428 . S
C1473 N1472 1.351 . S
C1473 C1474 1.434 . S
C1474 C1465 1.429 . S
C1474 N1471 1.350 . S
C1474 C1473 1.434 . S
C1475 C1476 1.369 . S
C1475 C1477 1.419 . S
C1475 H1479 0.930 . S
C1476 C1475 1.369 . S
C1476 C1485 1.429 . S
C1477 C1475 1.419 . S
C1477 C1478 1.363 . S
C1477 H1480 0.929 . S
C1478 C1477 1.363 . S
C1478 C1484 1.428 . S
H1479 C1475 0.930 . S
H1480 C1477 0.929 . S
S1481 N1482 1.613 . S
S1481 N1483 1.610 . S
N1482 S1481 1.613 . S
N1482 C1485 1.350 . S
N1483 S1481 1.610 . S
N1483 C1484 1.351 . S
C1484 C1478 1.428 . S
C1484 N1483 1.351 . S
C1484 C1485 1.434 . S
C1485 C1476 1.429 . S
C1485 N1482 1.350 . S
C1485 C1484 1.434 . S
C1486 C1487 1.369 . S
C1486 C1488 1.419 . S
C1486 H1490 0.930 . S
C1487 C1486 1.369 . S
C1487 C1496 1.429 . S
C1488 C1486 1.419 . S
C1488 C1489 1.363 . S
C1488 H1491 0.929 . S
C1489 C1488 1.363 . S
C1489 C1495 1.428 . S
H1490 C1486 0.930 . S
H1491 C1488 0.929 . S
S1492 N1493 1.613 . S
S1492 N1494 1.610 . S
N1493 S1492 1.613 . S
N1493 C1496 1.350 . S
N1494 S1492 1.610 . S
N1494 C1495 1.351 . S
C1495 C1489 1.428 . S
C1495 N1494 1.351 . S
C1495 C1496 1.434 . S
C1496 C1487 1.429 . S
C1496 N1493 1.350 . S
C1496 C1495 1.434 . S
C1497 C1498 1.369 . S
C1497 C1499 1.419 . S
C1497 H1501 0.930 . S
C1498 C1497 1.369 . S
C1498 C1507 1.429 . S
C1499 C1497 1.419 . S
C1499 C1500 1.363 . S
C1499 H1502 0.929 . S
C1500 C1499 1.363 . S
C1500 C1506 1.428 . S
H1501 C1497 0.930 . S
H1502 C1499 0.929 . S
S1503 N1504 1.613 . S
S1503 N1505 1.610 . S
N1504 S1503 1.613 . S
N1504 C1507 1.350 . S
N1505 S1503 1.610 . S
N1505 C1506 1.351 . S
C1506 C1500 1.428 . S
C1506 N1505 1.351 . S
C1506 C1507 1.434 . S
C1507 C1498 1.429 . S
C1507 N1504 1.350 . S
C1507 C1506 1.434 . S
C1508 C1509 1.369 . S
C1508 C1510 1.419 . S
C1508 H1512 0.930 . S
C1509 C1508 1.369 . S
C1509 C1518 1.429 . S
C1510 C1508 1.419 . S
C1510 C1511 1.363 . S
C1510 H1513 0.929 . S
C1511 C1510 1.363 . S
C1511 C1517 1.428 . S
H1512 C1508 0.930 . S
H1513 C1510 0.929 . S
S1514 N1515 1.613 . S
S1514 N1516 1.610 . S
N1515 S1514 1.613 . S
N1515 C1518 1.350 . S
N1516 S1514 1.610 . S
N1516 C1517 1.351 . S
C1517 C1511 1.428 . S
C1517 N1516 1.351 . S
C1517 C1518 1.434 . S
C1518 C1509 1.429 . S
C1518 N1515 1.350 . S
C1518 C1517 1.434 . S
C1519 C1520 1.369 . S
C1519 C1521 1.419 . S
C1519 H1523 0.930 . S
C1520 C1519 1.369 . S
C1520 C1529 1.429 . S
C1521 C1519 1.419 . S
C1521 C1522 1.363 . S
C1521 H1524 0.929 . S
C1522 C1521 1.363 . S
C1522 C1528 1.428 . S
H1523 C1519 0.930 . S
H1524 C1521 0.929 . S
S1525 N1526 1.613 . S
S1525 N1527 1.610 . S
N1526 S1525 1.613 . S
N1526 C1529 1.350 . S
N1527 S1525 1.610 . S
N1527 C1528 1.351 . S
C1528 C1522 1.428 . S
C1528 N1527 1.351 . S
C1528 C1529 1.434 . S
C1529 C1520 1.429 . S
C1529 N1526 1.350 . S
C1529 C1528 1.434 . S
C1530 C1531 1.369 . S
C1530 C1532 1.419 . S
C1530 H1534 0.930 . S
C1531 C1530 1.369 . S
C1531 C1540 1.429 . S
C1532 C1530 1.419 . S
C1532 C1533 1.363 . S
C1532 H1535 0.929 . S
C1533 C1532 1.363 . S
C1533 C1539 1.428 . S
H1534 C1530 0.930 . S
H1535 C1532 0.929 . S
S1536 N1537 1.613 . S
S1536 N1538 1.610 . S
N1537 S1536 1.613 . S
N1537 C1540 1.350 . S
N1538 S1536 1.610 . S
N1538 C1539 1.351 . S
C1539 C1533 1.428 . S
C1539 N1538 1.351 . S
C1539 C1540 1.434 . S
C1540 C1531 1.429 . S
C1540 N1537 1.350 . S
C1540 C1539 1.434 . S
C1541 C1542 1.369 . S
C1541 C1543 1.419 . S
C1541 H1545 0.930 . S
C1542 C1541 1.369 . S
C1542 C1551 1.429 . S
C1543 C1541 1.419 . S
C1543 C1544 1.363 . S
C1543 H1546 0.929 . S
C1544 C1543 1.363 . S
C1544 C1550 1.428 . S
H1545 C1541 0.930 . S
H1546 C1543 0.929 . S
S1547 N1548 1.613 . S
S1547 N1549 1.610 . S
N1548 S1547 1.613 . S
N1548 C1551 1.350 . S
N1549 S1547 1.610 . S
N1549 C1550 1.351 . S
C1550 C1544 1.428 . S
C1550 N1549 1.351 . S
C1550 C1551 1.434 . S
C1551 C1542 1.429 . S
C1551 N1548 1.350 . S
C1551 C1550 1.434 . S
C1552 C1553 1.369 . S
C1552 C1554 1.419 . S
C1552 H1556 0.930 . S
C1553 C1552 1.369 . S
C1553 C1562 1.429 . S
C1554 C1552 1.419 . S
C1554 C1555 1.363 . S
C1554 H1557 0.929 . S
C1555 C1554 1.363 . S
C1555 C1561 1.428 . S
H1556 C1552 0.930 . S
H1557 C1554 0.929 . S
S1558 N1559 1.613 . S
S1558 N1560 1.610 . S
N1559 S1558 1.613 . S
N1559 C1562 1.350 . S
N1560 S1558 1.610 . S
N1560 C1561 1.351 . S
C1561 C1555 1.428 . S
C1561 N1560 1.351 . S
C1561 C1562 1.434 . S
C1562 C1553 1.429 . S
C1562 N1559 1.350 . S
C1562 C1561 1.434 . S
C1563 C1564 1.369 . S
C1563 C1565 1.419 . S
C1563 H1567 0.930 . S
C1564 C1563 1.369 . S
C1564 C1573 1.429 . S
C1565 C1563 1.419 . S
C1565 C1566 1.363 . S
C1565 H1568 0.929 . S
C1566 C1565 1.363 . S
C1566 C1572 1.428 . S
H1567 C1563 0.930 . S
H1568 C1565 0.929 . S
S1569 N1570 1.613 . S
S1569 N1571 1.610 . S
N1570 S1569 1.613 . S
N1570 C1573 1.350 . S
N1571 S1569 1.610 . S
N1571 C1572 1.351 . S
C1572 C1566 1.428 . S
C1572 N1571 1.351 . S
C1572 C1573 1.434 . S
C1573 C1564 1.429 . S
C1573 N1570 1.350 . S
C1573 C1572 1.434 . S
C1574 C1575 1.369 . S
C1574 C1576 1.419 . S
C1574 H1578 0.930 . S
C1575 C1574 1.369 . S
C1575 C1584 1.429 . S
C1576 C1574 1.419 . S
C1576 C1577 1.363 . S
C1576 H1579 0.929 . S
C1577 C1576 1.363 . S
C1577 C1583 1.428 . S
H1578 C1574 0.930 . S
H1579 C1576 0.929 . S
S1580 N1581 1.613 . S
S1580 N1582 1.610 . S
N1581 S1580 1.613 . S
N1581 C1584 1.350 . S
N1582 S1580 1.610 . S
N1582 C1583 1.351 . S
C1583 C1577 1.428 . S
C1583 N1582 1.351 . S
C1583 C1584 1.434 . S
C1584 C1575 1.429 . S
C1584 N1581 1.350 . S
C1584 C1583 1.434 . S
C1585 C1586 1.369 . S
C1585 C1587 1.419 . S
C1585 H1589 0.930 . S
C1586 C1585 1.369 . S
C1586 C1595 1.429 . S
C1587 C1585 1.419 . S
C1587 C1588 1.363 . S
C1587 H1590 0.929 . S
C1588 C1587 1.363 . S
C1588 C1594 1.428 . S
H1589 C1585 0.930 . S
H1590 C1587 0.929 . S
S1591 N1592 1.613 . S
S1591 N1593 1.610 . S
N1592 S1591 1.613 . S
N1592 C1595 1.350 . S
N1593 S1591 1.610 . S
N1593 C1594 1.351 . S
C1594 C1588 1.428 . S
C1594 N1593 1.351 . S
C1594 C1595 1.434 . S
C1595 C1586 1.429 . S
C1595 N1592 1.350 . S
C1595 C1594 1.434 . S
C1596 C1597 1.369 . S
C1596 C1598 1.419 . S
C1596 H1600 0.930 . S
C1597 C1596 1.369 . S
C1597 C1606 1.429 . S
C1598 C1596 1.419 . S
C1598 C1599 1.363 . S
C1598 H1601 0.929 . S
C1599 C1598 1.363 . S
C1599 C1605 1.428 . S
H1600 C1596 0.930 . S
H1601 C1598 0.929 . S
S1602 N1603 1.613 . S
S1602 N1604 1.610 . S
N1603 S1602 1.613 . S
N1603 C1606 1.350 . S
N1604 S1602 1.610 . S
N1604 C1605 1.351 . S
C1605 C1599 1.428 . S
C1605 N1604 1.351 . S
C1605 C1606 1.434 . S
C1606 C1597 1.429 . S
C1606 N1603 1.350 . S
C1606 C1605 1.434 . S
C1607 C1608 1.369 . S
C1607 C1609 1.419 . S
C1607 H1611 0.930 . S
C1608 C1607 1.369 . S
C1608 C1617 1.429 . S
C1609 C1607 1.419 . S
C1609 C1610 1.363 . S
C1609 H1612 0.929 . S
C1610 C1609 1.363 . S
C1610 C1616 1.428 . S
H1611 C1607 0.930 . S
H1612 C1609 0.929 . S
S1613 N1614 1.613 . S
S1613 N1615 1.610 . S
N1614 S1613 1.613 . S
N1614 C1617 1.350 . S
N1615 S1613 1.610 . S
N1615 C1616 1.351 . S
C1616 C1610 1.428 . S
C1616 N1615 1.351 . S
C1616 C1617 1.434 . S
C1617 C1608 1.429 . S
C1617 N1614 1.350 . S
C1617 C1616 1.434 . S
C1618 C1619 1.369 . S
C1618 C1620 1.419 . S
C1618 H1622 0.930 . S
C1619 C1618 1.369 . S
C1619 C1628 1.429 . S
C1620 C1618 1.419 . S
C1620 C1621 1.363 . S
C1620 H1623 0.929 . S
C1621 C1620 1.363 . S
C1621 C1627 1.428 . S
H1622 C1618 0.930 . S
H1623 C1620 0.929 . S
S1624 N1625 1.613 . S
S1624 N1626 1.610 . S
N1625 S1624 1.613 . S
N1625 C1628 1.350 . S
N1626 S1624 1.610 . S
N1626 C1627 1.351 . S
C1627 C1621 1.428 . S
C1627 N1626 1.351 . S
C1627 C1628 1.434 . S
C1628 C1619 1.429 . S
C1628 N1625 1.350 . S
C1628 C1627 1.434 . S
C1629 C1630 1.369 . S
C1629 C1631 1.419 . S
C1629 H1633 0.930 . S
C1630 C1629 1.369 . S
C1630 C1639 1.429 . S
C1631 C1629 1.419 . S
C1631 C1632 1.363 . S
C1631 H1634 0.929 . S
C1632 C1631 1.363 . S
C1632 C1638 1.428 . S
H1633 C1629 0.930 . S
H1634 C1631 0.929 . S
S1635 N1636 1.613 . S
S1635 N1637 1.610 . S
N1636 S1635 1.613 . S
N1636 C1639 1.350 . S
N1637 S1635 1.610 . S
N1637 C1638 1.351 . S
C1638 C1632 1.428 . S
C1638 N1637 1.351 . S
C1638 C1639 1.434 . S
C1639 C1630 1.429 . S
C1639 N1636 1.350 . S
C1639 C1638 1.434 . S
C1640 C1641 1.369 . S
C1640 C1642 1.419 . S
C1640 H1644 0.930 . S
C1641 C1640 1.369 . S
C1641 C1650 1.429 . S
C1642 C1640 1.419 . S
C1642 C1643 1.363 . S
C1642 H1645 0.929 . S
C1643 C1642 1.363 . S
C1643 C1649 1.428 . S
H1644 C1640 0.930 . S
H1645 C1642 0.929 . S
S1646 N1647 1.613 . S
S1646 N1648 1.610 . S
N1647 S1646 1.613 . S
N1647 C1650 1.350 . S
N1648 S1646 1.610 . S
N1648 C1649 1.351 . S
C1649 C1643 1.428 . S
C1649 N1648 1.351 . S
C1649 C1650 1.434 . S
C1650 C1641 1.429 . S
C1650 N1647 1.350 . S
C1650 C1649 1.434 . S
C1651 C1652 1.369 . S
C1651 C1653 1.419 . S
C1651 H1655 0.930 . S
C1652 C1651 1.369 . S
C1652 C1661 1.429 . S
C1653 C1651 1.419 . S
C1653 C1654 1.363 . S
C1653 H1656 0.929 . S
C1654 C1653 1.363 . S
C1654 C1660 1.428 . S
H1655 C1651 0.930 . S
H1656 C1653 0.929 . S
S1657 N1658 1.613 . S
S1657 N1659 1.610 . S
N1658 S1657 1.613 . S
N1658 C1661 1.350 . S
N1659 S1657 1.610 . S
N1659 C1660 1.351 . S
C1660 C1654 1.428 . S
C1660 N1659 1.351 . S
C1660 C1661 1.434 . S
C1661 C1652 1.429 . S
C1661 N1658 1.350 . S
C1661 C1660 1.434 . S
C1662 C1663 1.369 . S
C1662 C1664 1.419 . S
C1662 H1666 0.930 . S
C1663 C1662 1.369 . S
C1663 C1672 1.429 . S
C1664 C1662 1.419 . S
C1664 C1665 1.363 . S
C1664 H1667 0.929 . S
C1665 C1664 1.363 . S
C1665 C1671 1.428 . S
H1666 C1662 0.930 . S
H1667 C1664 0.929 . S
S1668 N1669 1.613 . S
S1668 N1670 1.610 . S
N1669 S1668 1.613 . S
N1669 C1672 1.350 . S
N1670 S1668 1.610 . S
N1670 C1671 1.351 . S
C1671 C1665 1.428 . S
C1671 N1670 1.351 . S
C1671 C1672 1.434 . S
C1672 C1663 1.429 . S
C1672 N1669 1.350 . S
C1672 C1671 1.434 . S
C1673 C1674 1.369 . S
C1673 C1675 1.419 . S
C1673 H1677 0.930 . S
C1674 C1673 1.369 . S
C1674 C1683 1.429 . S
C1675 C1673 1.419 . S
C1675 C1676 1.363 . S
C1675 H1678 0.929 . S
C1676 C1675 1.363 . S
C1676 C1682 1.428 . S
H1677 C1673 0.930 . S
H1678 C1675 0.929 . S
S1679 N1680 1.613 . S
S1679 N1681 1.610 . S
N1680 S1679 1.613 . S
N1680 C1683 1.350 . S
N1681 S1679 1.610 . S
N1681 C1682 1.351 . S
C1682 C1676 1.428 . S
C1682 N1681 1.351 . S
C1682 C1683 1.434 . S
C1683 C1674 1.429 . S
C1683 N1680 1.350 . S
C1683 C1682 1.434 . S
C1684 C1685 1.369 . S
C1684 C1686 1.419 . S
C1684 H1688 0.930 . S
C1685 C1684 1.369 . S
C1685 C1694 1.429 . S
C1686 C1684 1.419 . S
C1686 C1687 1.363 . S
C1686 H1689 0.929 . S
C1687 C1686 1.363 . S
C1687 C1693 1.428 . S
H1688 C1684 0.930 . S
H1689 C1686 0.929 . S
S1690 N1691 1.613 . S
S1690 N1692 1.610 . S
N1691 S1690 1.613 . S
N1691 C1694 1.350 . S
N1692 S1690 1.610 . S
N1692 C1693 1.351 . S
C1693 C1687 1.428 . S
C1693 N1692 1.351 . S
C1693 C1694 1.434 . S
C1694 C1685 1.429 . S
C1694 N1691 1.350 . S
C1694 C1693 1.434 . S
C1695 C1696 1.369 . S
C1695 C1697 1.419 . S
C1695 H1699 0.930 . S
C1696 C1695 1.369 . S
C1696 C1705 1.429 . S
C1697 C1695 1.419 . S
C1697 C1698 1.363 . S
C1697 H1700 0.929 . S
C1698 C1697 1.363 . S
C1698 C1704 1.428 . S
H1699 C1695 0.930 . S
H1700 C1697 0.929 . S
S1701 N1702 1.613 . S
S1701 N1703 1.610 . S
N1702 S1701 1.613 . S
N1702 C1705 1.350 . S
N1703 S1701 1.610 . S
N1703 C1704 1.351 . S
C1704 C1698 1.428 . S
C1704 N1703 1.351 . S
C1704 C1705 1.434 . S
C1705 C1696 1.429 . S
C1705 N1702 1.350 . S
C1705 C1704 1.434 . S
C1706 C1707 1.369 . S
C1706 C1708 1.419 . S
C1706 H1710 0.930 . S
C1707 C1706 1.369 . S
C1707 C1716 1.429 . S
C1708 C1706 1.419 . S
C1708 C1709 1.363 . S
C1708 H1711 0.929 . S
C1709 C1708 1.363 . S
C1709 C1715 1.428 . S
H1710 C1706 0.930 . S
H1711 C1708 0.929 . S
S1712 N1713 1.613 . S
S1712 N1714 1.610 . S
N1713 S1712 1.613 . S
N1713 C1716 1.350 . S
N1714 S1712 1.610 . S
N1714 C1715 1.351 . S
C1715 C1709 1.428 . S
C1715 N1714 1.351 . S
C1715 C1716 1.434 . S
C1716 C1707 1.429 . S
C1716 N1713 1.350 . S
C1716 C1715 1.434 . S
C1717 C1718 1.369 . S
C1717 C1719 1.419 . S
C1717 H1721 0.930 . S
C1718 C1717 1.369 . S
C1718 C1727 1.429 . S
C1719 C1717 1.419 . S
C1719 C1720 1.363 . S
C1719 H1722 0.929 . S
C1720 C1719 1.363 . S
C1720 C1726 1.428 . S
H1721 C1717 0.930 . S
H1722 C1719 0.929 . S
S1723 N1724 1.613 . S
S1723 N1725 1.610 . S
N1724 S1723 1.613 . S
N1724 C1727 1.350 . S
N1725 S1723 1.610 . S
N1725 C1726 1.351 . S
C1726 C1720 1.428 . S
C1726 N1725 1.351 . S
C1726 C1727 1.434 . S
C1727 C1718 1.429 . S
C1727 N1724 1.350 . S
C1727 C1726 1.434 . S
C673 C42 1.498 . S
C675 C1 1.499 . S
C684 C13 1.498 . S
C686 C26 1.499 . S
C695 C28 1.499 . S
C697 C15 1.498 . S
C706 C40 1.499 . S
C708 C55 1.498 . S
C717 C56 1.499 . S
C719 C71 1.498 . S
C728 C96 1.499 . S
C730 C83 1.498 . S
C739 C85 1.499 . S
C741 C98 1.498 . S
C750 C69 1.498 . S
C752 C110 1.499 . S
C761 C125 1.498 . S
C763 C264 1.499 . S
C772 C278 1.498 . S
C774 C139 1.499 . S
C783 C292 1.498 . S
C785 C153 1.499 . S
C794 C250 1.498 . S
C796 C167 1.499 . S
C805 C321 1.499 . S
C807 C180 1.498 . S
C816 C194 1.499 . S
C818 C237 1.498 . S
C827 C335 1.499 . S
C829 C208 1.498 . S
C838 C222 1.499 . S
C840 C307 1.498 . S
C849 C225 1.499 . S
C851 C126 1.498 . S
C860 C239 1.498 . S
C862 C210 1.499 . S
C871 C168 1.498 . S
C873 C253 1.499 . S
C882 C183 1.498 . S
C884 C266 1.498 . S
C893 C197 1.498 . S
C895 C280 1.499 . S
C904 C155 1.498 . S
C906 C294 1.499 . S
C915 C113 1.498 . S
C917 C308 1.499 . S
C926 C323 1.499 . S
C928 C140 1.498 . S
C937 C378 1.499 . S
C939 C337 1.498 . S
C948 C349 1.498 . S
C950 C362 1.499 . S
C959 C364 1.498 . S
C961 C351 1.499 . S
C970 C376 1.498 . S
C972 C391 1.499 . S
C981 C407 1.498 . S
C983 C392 1.499 . S
C992 C419 1.499 . S
C994 C432 1.498 . S
C1003 C434 1.499 . S
C1005 C421 1.498 . S
C1014 C405 1.499 . S
C1016 C446 1.498 . S
C1025 C600 1.499 . S
C1027 C461 1.498 . S
C1036 C475 1.499 . S
C1038 C614 1.498 . S
C1047 C628 1.498 . S
C1049 C489 1.499 . S
C1058 C503 1.498 . S
C1060 C586 1.499 . S
C1069 C516 1.498 . S
C1071 C657 1.499 . S
C1080 C573 1.498 . S
C1082 C530 1.499 . S
C1091 C671 1.499 . S
C1093 C544 1.498 . S
C1102 C643 1.498 . S
C1104 C558 1.499 . S
C1113 C462 1.498 . S
C1115 C561 1.499 . S
C1124 C546 1.499 . S
C1126 C575 1.498 . S
C1135 C589 1.498 . S
C1137 C504 1.499 . S
C1146 C602 1.499 . S
C1148 C519 1.498 . S
C1157 C533 1.499 . S
C1159 C616 1.498 . S
C1168 C630 1.499 . S
C1170 C491 1.498 . S
C1179 C644 1.498 . S
C1181 C449 1.499 . S
C1190 C659 1.499 . S
C1192 C476 1.498 . S
C1201 C0 1.499 . S
C1203 C617 1.499 . S
C1212 C27 1.498 . S
C1214 C574 1.499 . S
C1223 C29 1.499 . S
C1225 C588 1.498 . S
C1234 C54 1.498 . S
C1236 C603 1.499 . S
C1245 C57 1.499 . S
C1247 C658 1.499 . S
C1256 C82 1.498 . S
C1258 C631 1.498 . S
C1267 C84 1.499 . S
C1269 C645 1.499 . S
C1278 C560 1.499 . S
C1280 C111 1.499 . S
C1289 C124 1.499 . S
C1291 C559 1.499 . S
C1300 C517 1.498 . S
C1302 C138 1.498 . S
C1311 C152 1.497 . S
C1313 C531 1.498 . S
C1322 C166 1.499 . S
C1324 C545 1.498 . S
C1333 C181 1.498 . S
C1335 C474 1.498 . S
C1344 C195 1.499 . S
C1346 C488 1.498 . S
C1355 C502 1.499 . S
C1357 C209 1.499 . S
C1366 C223 1.499 . S
C1368 C460 1.499 . S
C1377 C224 1.499 . S
C1379 C447 1.499 . S
C1388 C238 1.498 . S
C1390 C363 1.499 . S
C1399 C252 1.499 . S
C1401 C365 1.498 . S
C1410 C267 1.499 . S
C1412 C390 1.498 . S
C1421 C336 1.499 . S
C1423 C281 1.498 . S
C1432 C295 1.498 . S
C1434 C418 1.498 . S
C1443 C420 1.499 . S
C1445 C309 1.498 . S
C1454 C393 1.499 . S
C1456 C322 1.499 . S
C1465 C448 1.498 . S
C1467 C99 1.498 . S
C1476 C68 1.498 . S
C1478 C463 1.499 . S
C1487 C477 1.498 . S
C1489 C70 1.499 . S
C1498 C490 1.498 . S
C1500 C97 1.499 . S
C1509 C505 1.498 . S
C1511 C14 1.498 . S
C1520 C41 1.498 . S
C1522 C518 1.499 . S
C1531 C532 1.498 . S
C1533 C43 1.498 . S
C1542 C547 1.498 . S
C1544 C12 1.499 . S
C1553 C572 1.499 . S
C1555 C293 1.499 . S
C1564 C251 1.499 . S
C1566 C670 1.499 . S
C1575 C265 1.498 . S
C1577 C642 1.499 . S
C1586 C656 1.498 . S
C1588 C279 1.498 . S
C1597 C587 1.498 . S
C1599 C334 1.498 . S
C1608 C601 1.497 . S
C1610 C306 1.498 . S
C1619 C320 1.498 . S
C1621 C615 1.498 . S
C1630 C629 1.498 . S
C1632 C236 1.498 . S
C1641 C348 1.499 . S
C1643 C211 1.498 . S
C1652 C404 1.498 . S
C1654 C127 1.499 . S
C1663 C406 1.499 . S
C1665 C141 1.498 . S
C1674 C154 1.499 . S
C1676 C433 1.499 . S
C1685 C112 1.498 . S
C1687 C435 1.499 . S
C1696 C377 1.498 . S
C1698 C182 1.498 . S
C1707 C196 1.499 . S
C1709 C379 1.498 . S
C1718 C350 1.498 . S
C1720 C169 1.499 . S
