# Generated by pormake.
# Topology umo, (4)-cn, num edge types: 1
# Building blocks:
#     Node 0, Type 0, BuildingBlock: KOZSID_clean_sbu_0, # of connection points: 4
#     Node 1, Type 0, BuildingBlock: KOZSID_clean_sbu_0, # of connection points: 4
#     Node 2, Type 0, BuildingBlock: KOZSID_clean_sbu_0, # of connection points: 4
#     Node 3, Type 0, BuildingBlock: KOZSID_clean_sbu_0, # of connection points: 4
#     Node 4, Type 0, BuildingBlock: KOZSID_clean_sbu_0, # of connection points: 4
#     Node 5, Type 0, BuildingBlock: KOZSID_clean_sbu_0, # of connection points: 4
#     Node 6, Type 0, BuildingBlock: KOZSID_clean_sbu_0, # of connection points: 4
#     Node 7, Type 0, BuildingBlock: KOZSID_clean_sbu_0, # of connection points: 4
#     Node 8, Type 0, BuildingBlock: KOZSID_clean_sbu_0, # of connection points: 4
#     Node 9, Type 0, BuildingBlock: KOZSID_clean_sbu_0, # of connection points: 4
#     Node 10, Type 0, BuildingBlock: KOZSID_clean_sbu_0, # of connection points: 4
#     Node 11, Type 0, BuildingBlock: KOZSID_clean_sbu_0, # of connection points: 4
#     Edge 12, Type (0, 0), None
#     Edge 13, Type (0, 0), None
#     Edge 14, Type (0, 0), None
#     Edge 15, Type (0, 0), None
#     Edge 16, Type (0, 0), None
#     Edge 17, Type (0, 0), None
#     Edge 18, Type (0, 0), None
#     Edge 19, Type (0, 0), None
#     Edge 20, Type (0, 0), None
#     Edge 21, Type (0, 0), None
#     Edge 22, Type (0, 0), None
#     Edge 23, Type (0, 0), None
#     Edge 24, Type (0, 0), None
#     Edge 25, Type (0, 0), None
#     Edge 26, Type (0, 0), None
#     Edge 27, Type (0, 0), None
#     Edge 28, Type (0, 0), None
#     Edge 29, Type (0, 0), None
#     Edge 30, Type (0, 0), None
#     Edge 31, Type (0, 0), None
#     Edge 32, Type (0, 0), None
#     Edge 33, Type (0, 0), None
#     Edge 34, Type (0, 0), None
#     Edge 35, Type (0, 0), None
# Relax obj value: 0.196
# Max RMSD: 0.232
# Mean RMSD: 0.232
data_MOF--net-umo--node1-KOZSID_clean_sbu_0--edge1-none
_symmetry_space_group_name_H-M    P1
_symmetry_Int_Tables_number       1
_symmetry_cell_setting            triclinic
loop_
_symmetry_equiv_pos_as_xyz
'x, y, z'
_cell_length_a     34.722788
_cell_length_b     34.721889
_cell_length_c     18.193985
_cell_angle_alpha  90.004525
_cell_angle_beta   89.990944
_cell_angle_gamma 119.99573
loop_
_atom_site_label
_atom_site_type_symbol
_atom_site_fract_x
_atom_site_fract_y
_atom_site_fract_z
_atom_type_partial_charge
C0 C 0.28351 0.51531 0.33118 0.0
C1 C 0.29531 0.48277 0.34108 0.0
C2 C 0.27683 0.46198 0.40639 0.0
C3 C 0.25411 0.48217 0.43201 0.0
N4 N 0.25702 0.51396 0.38646 0.0
Co5 Co 0.22733 0.54909 0.39978 0.0
N6 N 0.2236 0.53976 0.50749 0.0
C7 C 0.22958 0.50918 0.54323 0.0
C8 C 0.23481 0.51674 0.61744 0.0
C9 C 0.23121 0.55381 0.62893 0.0
C10 C 0.22145 0.5657 0.56122 0.0
N11 N 0.19643 0.58295 0.41315 0.0
C12 C 0.18862 0.59894 0.47572 0.0
C13 C 0.15611 0.61052 0.46325 0.0
C14 C 0.14601 0.60426 0.38947 0.0
C15 C 0.17136 0.58752 0.36137 0.0
N16 N 0.23234 0.55907 0.29284 0.0
C17 C 0.20742 0.5706 0.2521 0.0
C18 C 0.22116 0.57844 0.18003 0.0
C19 C 0.25665 0.57113 0.17599 0.0
C20 C 0.26233 0.55846 0.24587 0.0
N21 N 0.16837 0.49494 0.38572 0.0
C22 C 0.0797 0.43719 0.34063 0.0
C23 C 0.11578 0.44242 0.2982 0.0
C24 C 0.15965 0.47042 0.32255 0.0
C25 C 0.08921 0.45822 0.40954 0.0
C26 C 0.13354 0.48687 0.43095 0.0
N27 N 0.28526 0.60401 0.41033 0.0
C28 C 0.33207 0.68066 0.37466 0.0
C29 C 0.3689 0.68214 0.40836 0.0
C30 C 0.36302 0.64378 0.44437 0.0
C31 C 0.32071 0.60506 0.44533 0.0
C32 C 0.29098 0.64156 0.37582 0.0
H33 H 0.31677 0.57586 0.47324 0.0
H34 H 0.26392 0.64163 0.34707 0.0
H35 H 0.18656 0.47475 0.28735 0.0
H36 H 0.13937 0.50511 0.48165 0.0
C37 C 0.24071 0.48112 0.5048 0.0
C38 C 0.29556 0.54533 0.26726 0.0
C39 C 0.2092 0.60054 0.54813 0.0
C40 C 0.17746 0.58121 0.28652 0.0
H41 H 0.31574 0.47529 0.30566 0.0
H42 H 0.28189 0.43725 0.43401 0.0
H43 H 0.24383 0.49964 0.65766 0.0
H44 H 0.23635 0.57029 0.68133 0.0
H45 H 0.14179 0.62289 0.50313 0.0
H46 H 0.12361 0.61189 0.35989 0.0
H47 H 0.20851 0.59028 0.13645 0.0
H48 H 0.27607 0.57488 0.1273 0.0
H49 H 0.11019 0.42616 0.24531 0.0
H50 H 0.06257 0.45508 0.44458 0.0
H51 H 0.33511 0.70965 0.3468 0.0
H52 H 0.39063 0.64391 0.47229 0.0
C53 C 0.80578 0.26473 0.49782 0.0
C54 C 0.85013 0.27653 0.50772 0.0
C55 C 0.85243 0.25805 0.57303 0.0
C56 C 0.80953 0.23533 0.59865 0.0
N57 N 0.78065 0.23824 0.55309 0.0
Co58 Co 0.71584 0.20856 0.56641 0.0
N59 N 0.72142 0.20483 0.67412 0.0
C60 C 0.75799 0.21081 0.70986 0.0
C61 C 0.75565 0.21604 0.78408 0.0
C62 C 0.71499 0.21244 0.79556 0.0
C63 C 0.69334 0.20268 0.72785 0.0
N64 N 0.65108 0.17766 0.57977 0.0
C65 C 0.62728 0.16985 0.64234 0.0
C66 C 0.58319 0.13734 0.62987 0.0
C67 C 0.57936 0.12724 0.55609 0.0
C68 C 0.62144 0.15259 0.52799 0.0
N69 N 0.71087 0.21357 0.45947 0.0
C70 C 0.67442 0.18865 0.41873 0.0
C71 C 0.68031 0.20238 0.34666 0.0
C72 C 0.72312 0.23787 0.34262 0.0
C73 C 0.74146 0.24355 0.4125 0.0
N74 N 0.71102 0.14959 0.55235 0.0
C75 C 0.68009 0.06091 0.50725 0.0
C76 C 0.71093 0.09698 0.46482 0.0
C77 C 0.72682 0.14086 0.48917 0.0
C78 C 0.66858 0.07043 0.57617 0.0
C79 C 0.68427 0.11477 0.59758 0.0
N80 N 0.71885 0.26649 0.57697 0.0
C81 C 0.689 0.3133 0.54131 0.0
C82 C 0.72435 0.35013 0.57502 0.0
C83 C 0.75683 0.34425 0.61103 0.0
C84 C 0.75323 0.30194 0.61198 0.0
C85 C 0.68701 0.27221 0.54246 0.0
H86 H 0.7785 0.298 0.63989 0.0
H87 H 0.65989 0.24515 0.5137 0.0
H88 H 0.74939 0.16776 0.45396 0.0
H89 H 0.67187 0.12061 0.64828 0.0
C90 C 0.79718 0.22194 0.67144 0.0
C91 C 0.78782 0.27678 0.43391 0.0
C92 C 0.64626 0.19043 0.71475 0.0
C93 C 0.63385 0.15869 0.45315 0.0
H94 H 0.87803 0.29696 0.47231 0.0
H95 H 0.88221 0.26311 0.60064 0.0
H96 H 0.78176 0.22505 0.82429 0.0
H97 H 0.70364 0.21758 0.84797 0.0
H98 H 0.55651 0.12301 0.66975 0.0
H99 H 0.54933 0.10483 0.5265 0.0
H100 H 0.65583 0.18973 0.30308 0.0
H101 H 0.73878 0.25729 0.29394 0.0
H102 H 0.7216 0.09139 0.41192 0.0
H103 H 0.64508 0.04379 0.61122 0.0
H104 H 0.66306 0.31634 0.51345 0.0
H105 H 0.78431 0.37187 0.63896 0.0
C106 C 0.5786 0.78701 0.66449 0.0
C107 C 0.61113 0.83136 0.67439 0.0
C108 C 0.63191 0.83366 0.73971 0.0
C109 C 0.61172 0.79076 0.76533 0.0
N110 N 0.57995 0.76188 0.71977 0.0
Co111 Co 0.54483 0.69707 0.73309 0.0
N112 N 0.55414 0.70266 0.8408 0.0
C113 C 0.58471 0.73923 0.87654 0.0
C114 C 0.57714 0.7369 0.95076 0.0
C115 C 0.54009 0.69623 0.96224 0.0
C116 C 0.52821 0.67458 0.89453 0.0
N117 N 0.51098 0.63231 0.74645 0.0
C118 C 0.495 0.60851 0.80901 0.0
C119 C 0.48343 0.56442 0.79654 0.0
C120 C 0.4897 0.56058 0.72276 0.0
C121 C 0.50642 0.60267 0.69466 0.0
N122 N 0.53486 0.69209 0.62614 0.0
C123 C 0.52334 0.65564 0.5854 0.0
C124 C 0.51549 0.66152 0.51334 0.0
C125 C 0.5228 0.70433 0.50929 0.0
C126 C 0.53546 0.72268 0.57917 0.0
N127 N 0.59898 0.69225 0.71903 0.0
C128 C 0.65675 0.66133 0.67395 0.0
C129 C 0.65151 0.69217 0.63152 0.0
C130 C 0.62351 0.70805 0.65586 0.0
C131 C 0.63572 0.64983 0.74287 0.0
C132 C 0.60706 0.66551 0.76427 0.0
N133 N 0.4899 0.70007 0.74364 0.0
C134 C 0.41325 0.67022 0.70798 0.0
C135 C 0.41177 0.70558 0.74168 0.0
C136 C 0.45012 0.73806 0.77769 0.0
C137 C 0.48884 0.73446 0.77864 0.0
C138 C 0.45235 0.66823 0.70913 0.0
H139 H 0.51804 0.75973 0.80655 0.0
H140 H 0.4523 0.64111 0.68037 0.0
H141 H 0.61917 0.73062 0.62065 0.0
H142 H 0.58882 0.65311 0.81497 0.0
C143 C 0.61277 0.77842 0.83812 0.0
C144 C 0.54859 0.76904 0.60057 0.0
C145 C 0.49338 0.62749 0.88143 0.0
C146 C 0.51274 0.61508 0.61982 0.0
H147 H 0.61861 0.85926 0.63897 0.0
H148 H 0.65663 0.86345 0.76733 0.0
H149 H 0.59423 0.76301 0.99098 0.0
H150 H 0.52361 0.68488 0.01464 0.0
H151 H 0.47108 0.53774 0.83642 0.0
H152 H 0.48209 0.53056 0.69317 0.0
H153 H 0.50367 0.63704 0.46975 0.0
H154 H 0.51904 0.71999 0.46061 0.0
H155 H 0.66778 0.70284 0.57863 0.0
H156 H 0.63885 0.62633 0.77791 0.0
H157 H 0.38427 0.64428 0.68011 0.0
H158 H 0.44998 0.76554 0.80561 0.0
C159 C 0.82917 0.55984 0.83119 0.0
C160 C 0.81736 0.59238 0.8411 0.0
C161 C 0.83582 0.61315 0.90642 0.0
C162 C 0.85853 0.59296 0.93204 0.0
N163 N 0.85564 0.56118 0.88647 0.0
Co164 Co 0.88533 0.52606 0.89978 0.0
N165 N 0.88905 0.53537 0.00749 0.0
C166 C 0.88305 0.56594 0.04324 0.0
C167 C 0.87781 0.55838 0.11745 0.0
C168 C 0.88142 0.52132 0.12893 0.0
C169 C 0.8912 0.50944 0.06121 0.0
N170 N 0.91624 0.4922 0.91313 0.0
C171 C 0.92406 0.47622 0.97569 0.0
C172 C 0.95657 0.46465 0.96321 0.0
C173 C 0.96668 0.47092 0.88943 0.0
C174 C 0.94132 0.48764 0.86134 0.0
N175 N 0.88034 0.51609 0.79283 0.0
C176 C 0.90527 0.50456 0.75208 0.0
C177 C 0.89155 0.49672 0.68001 0.0
C178 C 0.85605 0.50403 0.67598 0.0
C179 C 0.85037 0.5167 0.74586 0.0
N180 N 0.9443 0.58021 0.88573 0.0
C181 C 1.03298 0.63798 0.84066 0.0
C182 C 0.99691 0.63274 0.79823 0.0
C183 C 0.95303 0.60474 0.82257 0.0
C184 C 1.02345 0.61694 0.90957 0.0
C185 C 0.97911 0.58828 0.93097 0.0
N186 N 0.82741 0.47114 0.91031 0.0
C187 C 0.78061 0.39448 0.87463 0.0
C188 C 0.74377 0.393 0.90834 0.0
C189 C 0.74964 0.43136 0.94435 0.0
C190 C 0.79195 0.47007 0.94531 0.0
C191 C 0.8217 0.43359 0.8758 0.0
H192 H 0.79588 0.49927 0.97323 0.0
H193 H 0.84877 0.43352 0.84704 0.0
H194 H 0.92613 0.60041 0.78736 0.0
H195 H 0.97327 0.57005 0.98166 0.0
C196 C 0.87192 0.594 0.00483 0.0
C197 C 0.81713 0.52983 0.76726 0.0
C198 C 0.90346 0.47461 0.0481 0.0
C199 C 0.93523 0.49396 0.7865 0.0
H200 H 0.79694 0.59986 0.80568 0.0
H201 H 0.83076 0.63788 0.93405 0.0
H202 H 0.86879 0.57547 0.15768 0.0
H203 H 0.87629 0.50484 0.18133 0.0
H204 H 0.97091 0.4523 0.00308 0.0
H205 H 0.9891 0.4633 0.85983 0.0
H206 H 0.90421 0.48489 0.63643 0.0
H207 H 0.83664 0.50028 0.6273 0.0
H208 H 1.0025 0.64901 0.74534 0.0
H209 H 1.05008 0.62008 0.94462 0.0
H210 H 0.77758 0.3655 0.84677 0.0
H211 H 0.72202 0.43122 0.97228 0.0
C212 C 0.3069 0.81041 -0.00213 0.0
C213 C 0.26255 0.79862 0.00779 0.0
C214 C 0.26025 0.81709 0.07312 0.0
C215 C 0.30315 0.8398 0.09872 0.0
N216 N 0.33203 0.8369 0.05315 0.0
Co217 Co 0.39684 0.86657 0.06645 0.0
N218 N 0.39125 0.8703 0.17416 0.0
C219 C 0.35469 0.86432 0.20992 0.0
C220 C 0.35702 0.85908 0.28413 0.0
C221 C 0.39768 0.86268 0.29559 0.0
C222 C 0.41933 0.87244 0.22788 0.0
N223 N 0.4616 0.89747 0.07979 0.0
C224 C 0.48539 0.90528 0.14234 0.0
C225 C 0.52948 0.93778 0.12986 0.0
C226 C 0.53332 0.94789 0.05608 0.0
C227 C 0.49124 0.92254 0.028 0.0
N228 N 0.40181 0.86157 0.9595 0.0
C229 C 0.43826 0.88649 0.91875 0.0
C230 C 0.43237 0.87277 0.84668 0.0
C231 C 0.38957 0.83728 0.84265 0.0
C232 C 0.37123 0.83159 0.91253 0.0
N233 N 0.40166 0.92554 0.0524 0.0
C234 C 0.43259 1.01423 0.00733 0.0
C235 C 0.40175 0.97815 0.9649 0.0
C236 C 0.38586 0.93427 0.98924 0.0
C237 C 0.4441 1.0047 0.07623 0.0
C238 C 0.42841 0.96037 0.09764 0.0
N239 N 0.39383 0.80864 0.07698 0.0
C240 C 0.42367 0.76183 0.04128 0.0
C241 C 0.38832 0.725 0.075 0.0
C242 C 0.35585 0.73088 0.11103 0.0
C243 C 0.35944 0.77319 0.11199 0.0
C244 C 0.42566 0.80292 0.04245 0.0
H245 H 0.33417 0.77713 0.13992 0.0
H246 H 0.45279 0.82998 0.01368 0.0
H247 H 0.36329 0.90737 0.95404 0.0
H248 H 0.44081 0.95452 0.14832 0.0
C249 C 0.3155 0.85319 0.17151 0.0
C250 C 0.32486 0.79836 0.93394 0.0
C251 C 0.46642 0.88469 0.21476 0.0
C252 C 0.47883 0.91645 0.95316 0.0
H253 H 0.23465 0.77819 0.97239 0.0
H254 H 0.23047 0.81204 0.10075 0.0
H255 H 0.33091 0.85006 0.32436 0.0
H256 H 0.40903 0.85754 0.34799 0.0
H257 H 0.55617 0.95211 0.16973 0.0
H258 H 0.56335 0.97029 0.02648 0.0
H259 H 0.45686 0.88542 0.80308 0.0
H260 H 0.37391 0.81786 0.79396 0.0
H261 H 0.39108 0.98375 0.91202 0.0
H262 H 0.4676 1.03134 0.11127 0.0
H263 H 0.44962 0.75879 0.01341 0.0
H264 H 0.32837 0.70326 0.13897 0.0
C265 C 0.53409 0.28815 0.16454 0.0
C266 C 0.50155 0.2438 0.17445 0.0
C267 C 0.48077 0.2415 0.23977 0.0
C268 C 0.50096 0.2844 0.26538 0.0
N269 N 0.53274 0.31328 0.21982 0.0
Co270 Co 0.56787 0.37809 0.23313 0.0
N271 N 0.55854 0.3725 0.34084 0.0
C272 C 0.52796 0.33594 0.37659 0.0
C273 C 0.53552 0.33827 0.4508 0.0
C274 C 0.57259 0.37893 0.46227 0.0
C275 C 0.58448 0.40058 0.39457 0.0
N276 N 0.60173 0.44285 0.24648 0.0
C277 C 0.61771 0.46665 0.30904 0.0
C278 C 0.6293 0.51074 0.29657 0.0
C279 C 0.62303 0.51458 0.2228 0.0
C280 C 0.60629 0.47249 0.1947 0.0
N281 N 0.57785 0.38306 0.12618 0.0
C282 C 0.58937 0.41952 0.08544 0.0
C283 C 0.59721 0.41363 0.01337 0.0
C284 C 0.5899 0.37082 0.00933 0.0
C285 C 0.57724 0.35248 0.07921 0.0
N286 N 0.51372 0.38291 0.21908 0.0
C287 C 0.45596 0.41384 0.174 0.0
C288 C 0.4612 0.38299 0.13157 0.0
C289 C 0.48919 0.36711 0.15592 0.0
C290 C 0.47699 0.42535 0.2429 0.0
C291 C 0.50565 0.40967 0.26431 0.0
N292 N 0.62278 0.37508 0.24366 0.0
C293 C 0.69943 0.40492 0.20797 0.0
C294 C 0.70092 0.36956 0.24168 0.0
C295 C 0.66256 0.33709 0.2777 0.0
C296 C 0.62384 0.34069 0.27867 0.0
C297 C 0.66034 0.40691 0.20914 0.0
H298 H 0.59464 0.31542 0.30659 0.0
H299 H 0.6604 0.43404 0.18038 0.0
H300 H 0.49352 0.34453 0.12072 0.0
H301 H 0.52388 0.42208 0.315 0.0
C302 C 0.49991 0.29675 0.33817 0.0
C303 C 0.5641 0.30611 0.10061 0.0
C304 C 0.61932 0.44767 0.38146 0.0
C305 C 0.59998 0.46008 0.11986 0.0
H306 H 0.49407 0.2159 0.13903 0.0
H307 H 0.45604 0.21172 0.26739 0.0
H308 H 0.51843 0.31216 0.49103 0.0
H309 H 0.58907 0.39027 0.51467 0.0
H310 H 0.64166 0.53743 0.33645 0.0
H311 H 0.63066 0.54461 0.19321 0.0
H312 H 0.60905 0.43811 0.96978 0.0
H313 H 0.59365 0.35516 0.96064 0.0
H314 H 0.44493 0.37231 0.07869 0.0
H315 H 0.47386 0.44886 0.27794 0.0
H316 H 0.72842 0.43086 0.1801 0.0
H317 H 0.66269 0.30961 0.30563 0.0
C318 C 0.57859 0.81039 0.48701 0.0
C319 C 0.61114 0.79859 0.47711 0.0
C320 C 0.63192 0.81705 0.41179 0.0
C321 C 0.61173 0.83976 0.38617 0.0
N322 N 0.57994 0.83687 0.43173 0.0
Co323 Co 0.54482 0.86656 0.41842 0.0
N324 N 0.55415 0.87029 0.31071 0.0
C325 C 0.58473 0.86429 0.27496 0.0
C326 C 0.57717 0.85907 0.20075 0.0
C327 C 0.54011 0.86267 0.18927 0.0
C328 C 0.52822 0.87244 0.25697 0.0
N329 N 0.51097 0.89747 0.40506 0.0
C330 C 0.49499 0.90529 0.34249 0.0
C331 C 0.4834 0.9378 0.35496 0.0
C332 C 0.48966 0.9479 0.42874 0.0
C333 C 0.50639 0.92255 0.45684 0.0
N334 N 0.53483 0.86157 0.52537 0.0
C335 C 0.52329 0.88649 0.56611 0.0
C336 C 0.51545 0.87277 0.63818 0.0
C337 C 0.52276 0.83727 0.64223 0.0
C338 C 0.53543 0.83159 0.57235 0.0
N339 N 0.59897 0.92553 0.43248 0.0
C340 C 0.65672 1.0142 0.47756 0.0
C341 C 0.65149 0.97812 0.51999 0.0
C342 C 0.62349 0.93425 0.49564 0.0
C343 C 0.6357 1.00469 0.40865 0.0
C344 C 0.60705 0.96035 0.38724 0.0
N345 N 0.4899 0.80864 0.40788 0.0
C346 C 0.41324 0.76184 0.44354 0.0
C347 C 0.41177 0.725 0.40984 0.0
C348 C 0.45013 0.73087 0.37384 0.0
C349 C 0.48884 0.77319 0.37288 0.0
C350 C 0.45234 0.80293 0.44238 0.0
H351 H 0.51805 0.77711 0.34497 0.0
H352 H 0.45228 0.82999 0.47114 0.0
H353 H 0.61915 0.90734 0.53084 0.0
H354 H 0.58882 0.95452 0.33655 0.0
C355 C 0.61278 0.85316 0.31338 0.0
C356 C 0.54861 0.79839 0.55096 0.0
C357 C 0.4934 0.88471 0.27008 0.0
C358 C 0.5127 0.91646 0.53168 0.0
H359 H 0.61862 0.77817 0.51254 0.0
H360 H 0.65665 0.81199 0.38417 0.0
H361 H 0.59427 0.85004 0.16052 0.0
H362 H 0.52364 0.85755 0.13686 0.0
H363 H 0.47105 0.95213 0.31508 0.0
H364 H 0.48203 0.97031 0.45833 0.0
H365 H 0.50361 0.88543 0.68176 0.0
H366 H 0.51902 0.81787 0.69092 0.0
H367 H 0.66775 0.98371 0.57288 0.0
H368 H 0.63885 1.03133 0.37361 0.0
H369 H 0.38426 0.75881 0.4714 0.0
H370 H 0.44999 0.70325 0.34592 0.0
C371 C 0.80579 0.55984 0.65371 0.0
C372 C 0.85013 0.59238 0.64381 0.0
C373 C 0.85244 0.61315 0.57849 0.0
C374 C 0.80954 0.59297 0.55287 0.0
N375 N 0.78066 0.56119 0.59843 0.0
Co376 Co 0.71585 0.52607 0.58512 0.0
N377 N 0.72145 0.53539 0.47741 0.0
C378 C 0.75802 0.56597 0.44167 0.0
C379 C 0.75569 0.55841 0.36745 0.0
C380 C 0.71503 0.52135 0.35596 0.0
C381 C 0.69338 0.50946 0.42367 0.0
N382 N 0.65109 0.49221 0.57176 0.0
C383 C 0.6273 0.47624 0.50919 0.0
C384 C 0.58321 0.46466 0.52167 0.0
C385 C 0.57936 0.47092 0.59545 0.0
C386 C 0.62144 0.48765 0.62354 0.0
N387 N 0.71085 0.51608 0.69207 0.0
C388 C 0.67439 0.50455 0.73281 0.0
C389 C 0.68027 0.4967 0.80488 0.0
C390 C 0.72308 0.50401 0.80893 0.0
C391 C 0.74143 0.51668 0.73905 0.0
N392 N 0.71103 0.58022 0.59918 0.0
C393 C 0.6801 0.63797 0.64427 0.0
C394 C 0.71094 0.63274 0.6867 0.0
C395 C 0.72682 0.60474 0.66235 0.0
C396 C 0.66861 0.61696 0.57535 0.0
C397 C 0.68429 0.5883 0.55394 0.0
N398 N 0.71885 0.47114 0.57457 0.0
C399 C 0.689 0.39449 0.61022 0.0
C400 C 0.72435 0.393 0.57651 0.0
C401 C 0.75684 0.43136 0.54052 0.0
C402 C 0.75324 0.47008 0.53957 0.0
C403 C 0.68701 0.43359 0.60907 0.0
H404 H 0.77852 0.49928 0.51166 0.0
H405 H 0.65988 0.43353 0.63783 0.0
H406 H 0.74938 0.6004 0.69756 0.0
H407 H 0.6719 0.57007 0.50324 0.0
C408 C 0.79721 0.59402 0.48008 0.0
C409 C 0.78781 0.52985 0.71765 0.0
C410 C 0.64628 0.47465 0.43678 0.0
C411 C 0.63384 0.49395 0.69839 0.0
H412 H 0.87803 0.59986 0.67924 0.0
H413 H 0.88223 0.63788 0.55087 0.0
H414 H 0.78181 0.5755 0.32722 0.0
H415 H 0.70368 0.50488 0.30356 0.0
H416 H 0.55653 0.45231 0.48179 0.0
H417 H 0.54933 0.4633 0.62504 0.0
H418 H 0.65579 0.48487 0.84846 0.0
H419 H 0.73874 0.50027 0.85761 0.0
H420 H 0.7216 0.649 0.73959 0.0
H421 H 0.64511 0.6201 0.54031 0.0
H422 H 0.66305 0.3655 0.63808 0.0
H423 H 0.78433 0.43123 0.51259 0.0
C424 C 0.2835 0.78702 0.82041 0.0
C425 C 0.29531 0.83137 0.81052 0.0
C426 C 0.27684 0.83368 0.7452 0.0
C427 C 0.25412 0.79078 0.71958 0.0
N428 N 0.25702 0.76189 0.76513 0.0
Co429 Co 0.22733 0.69708 0.75181 0.0
N430 N 0.22361 0.70268 0.6441 0.0
C431 C 0.2296 0.73925 0.60837 0.0
C432 C 0.23483 0.73692 0.53415 0.0
C433 C 0.23122 0.69625 0.52265 0.0
C434 C 0.22146 0.6746 0.59036 0.0
N435 N 0.19643 0.63232 0.73844 0.0
C436 C 0.18861 0.60852 0.67587 0.0
C437 C 0.1561 0.56443 0.68834 0.0
C438 C 0.146 0.56059 0.76212 0.0
C439 C 0.17136 0.60267 0.79022 0.0
N440 N 0.23233 0.69209 0.85876 0.0
C441 C 0.20741 0.65563 0.89949 0.0
C442 C 0.22114 0.66151 0.97156 0.0
C443 C 0.25663 0.70432 0.97561 0.0
C444 C 0.26231 0.72267 0.90573 0.0
N445 N 0.16837 0.69226 0.76589 0.0
C446 C 0.07969 0.66133 0.81098 0.0
C447 C 0.11576 0.69217 0.85342 0.0
C448 C 0.15964 0.70805 0.82907 0.0
C449 C 0.08921 0.64984 0.74206 0.0
C450 C 0.13355 0.66552 0.72064 0.0
N451 N 0.28526 0.70008 0.74124 0.0
C452 C 0.33206 0.67022 0.77688 0.0
C453 C 0.3689 0.70558 0.74317 0.0
C454 C 0.36302 0.73807 0.70719 0.0
C455 C 0.32071 0.73447 0.70624 0.0
C456 C 0.29097 0.66824 0.77574 0.0
H457 H 0.31678 0.75975 0.67835 0.0
H458 H 0.26391 0.64111 0.80449 0.0
H459 H 0.18653 0.73061 0.86428 0.0
H460 H 0.13939 0.65313 0.66994 0.0
C461 C 0.24073 0.77844 0.64679 0.0
C462 C 0.29551 0.76904 0.88434 0.0
C463 C 0.20918 0.6275 0.60345 0.0
C464 C 0.17745 0.61507 0.86507 0.0
H465 H 0.31572 0.85927 0.84594 0.0
H466 H 0.28189 0.86347 0.71759 0.0
H467 H 0.24385 0.76304 0.49393 0.0
H468 H 0.23635 0.68491 0.47024 0.0
H469 H 0.14177 0.53775 0.64846 0.0
H470 H 0.1236 0.53056 0.79171 0.0
H471 H 0.20848 0.63702 0.01514 0.0
H472 H 0.27603 0.71998 0.02429 0.0
H473 H 0.11016 0.70283 0.90632 0.0
H474 H 0.06258 0.62634 0.707 0.0
H475 H 0.3351 0.64427 0.80473 0.0
H476 H 0.39064 0.76555 0.67927 0.0
C477 C 0.53409 0.26475 0.98707 0.0
C478 C 0.50155 0.27656 0.97719 0.0
C479 C 0.48077 0.25809 0.91187 0.0
C480 C 0.50095 0.23537 0.88624 0.0
N481 N 0.53273 0.23826 0.93179 0.0
Co482 Co 0.56786 0.20857 0.91845 0.0
N483 N 0.55852 0.20484 0.81075 0.0
C484 C 0.52794 0.21083 0.77502 0.0
C485 C 0.5355 0.21605 0.7008 0.0
C486 C 0.57256 0.21245 0.6893 0.0
C487 C 0.58445 0.20269 0.757 0.0
N488 N 0.60171 0.17766 0.90507 0.0
C489 C 0.61768 0.16984 0.8425 0.0
C490 C 0.62926 0.13733 0.85495 0.0
C491 C 0.62301 0.12723 0.92873 0.0
C492 C 0.60628 0.15258 0.95685 0.0
N493 N 0.57785 0.21357 0.0254 0.0
C494 C 0.58938 0.18865 0.06612 0.0
C495 C 0.59723 0.20238 0.13819 0.0
C496 C 0.58992 0.23787 0.14225 0.0
C497 C 0.57725 0.24356 0.07238 0.0
N498 N 0.51371 0.14961 0.93253 0.0
C499 C 0.45595 0.06093 0.97764 0.0
C500 C 0.46119 0.09701 0.02007 0.0
C501 C 0.48919 0.14089 -0.00428 0.0
C502 C 0.47697 0.07045 0.90871 0.0
C503 C 0.50563 0.11478 0.8873 0.0
N504 N 0.62278 0.26649 0.90788 0.0
C505 C 0.69943 0.31329 0.94351 0.0
C506 C 0.70091 0.35013 0.90982 0.0
C507 C 0.66255 0.34426 0.87384 0.0
C508 C 0.62383 0.30194 0.8729 0.0
C509 C 0.66033 0.2722 0.94237 0.0
H510 H 0.59463 0.29802 0.84501 0.0
H511 H 0.6604 0.24514 0.97112 0.0
H512 H 0.49353 0.16779 0.03092 0.0
H513 H 0.52385 0.12061 0.83659 0.0
C514 C 0.49989 0.22197 0.81345 0.0
C515 C 0.56408 0.27676 0.051 0.0
C516 C 0.61927 0.19041 0.77008 0.0
C517 C 0.59998 0.15868 0.03169 0.0
H518 H 0.49407 0.29698 0.01262 0.0
H519 H 0.45603 0.26315 0.88427 0.0
H520 H 0.5184 0.22507 0.66059 0.0
H521 H 0.58903 0.21757 0.63689 0.0
H522 H 0.64162 0.12299 0.81506 0.0
H523 H 0.63064 0.10482 0.95831 0.0
H524 H 0.60907 0.18972 0.18177 0.0
H525 H 0.59366 0.25728 0.19094 0.0
H526 H 0.44493 0.09142 0.07297 0.0
H527 H 0.47382 0.0438 0.87367 0.0
H528 H 0.72842 0.31633 0.97136 0.0
H529 H 0.66268 0.37188 0.84593 0.0
C530 C 0.30691 0.51531 0.15372 0.0
C531 C 0.26257 0.48277 0.14383 0.0
C532 C 0.26026 0.46198 0.07852 0.0
C533 C 0.30316 0.48217 0.05289 0.0
N534 N 0.33204 0.51395 0.09844 0.0
Co535 Co 0.39686 0.54908 0.08511 0.0
N536 N 0.39126 0.53974 0.97741 0.0
C537 C 0.3547 0.50916 0.94168 0.0
C538 C 0.35703 0.51671 0.86746 0.0
C539 C 0.39768 0.55378 0.85596 0.0
C540 C 0.41933 0.56567 0.92366 0.0
N541 N 0.46162 0.58294 0.07173 0.0
C542 C 0.48541 0.59892 0.00916 0.0
C543 C 0.5295 0.61051 0.02162 0.0
C544 C 0.53335 0.60426 0.0954 0.0
C545 C 0.49126 0.58752 0.12351 0.0
N546 N 0.40184 0.55908 0.19206 0.0
C547 C 0.4383 0.57062 0.23279 0.0
C548 C 0.43241 0.57846 0.30486 0.0
C549 C 0.38961 0.57115 0.30891 0.0
C550 C 0.37126 0.55848 0.23904 0.0
N551 N 0.40168 0.49493 0.09919 0.0
C552 C 0.43261 0.43719 0.1443 0.0
C553 C 0.40177 0.44243 0.18673 0.0
C554 C 0.38588 0.47042 0.16237 0.0
C555 C 0.44412 0.45821 0.07538 0.0
C556 C 0.42843 0.48686 0.05396 0.0
N557 N 0.39384 0.604 0.07455 0.0
C558 C 0.42369 0.68066 0.1102 0.0
C559 C 0.38833 0.68213 0.07649 0.0
C560 C 0.35585 0.64377 0.0405 0.0
C561 C 0.35945 0.60505 0.03955 0.0
C562 C 0.42568 0.64156 0.10905 0.0
H563 H 0.33418 0.57585 0.01165 0.0
H564 H 0.45281 0.64163 0.1378 0.0
H565 H 0.36331 0.47476 0.19757 0.0
H566 H 0.44083 0.50508 0.00326 0.0
C567 C 0.31551 0.48111 0.9801 0.0
C568 C 0.32489 0.54531 0.21765 0.0
C569 C 0.46642 0.6005 0.93675 0.0
C570 C 0.47886 0.58122 0.19836 0.0
H571 H 0.23466 0.47529 0.17926 0.0
H572 H 0.23048 0.43725 0.05091 0.0
H573 H 0.33091 0.49961 0.82724 0.0
H574 H 0.40903 0.57025 0.80355 0.0
H575 H 0.55619 0.62287 0.98174 0.0
H576 H 0.56338 0.61189 0.12499 0.0
H577 H 0.45689 0.5903 0.34844 0.0
H578 H 0.37394 0.57489 0.3576 0.0
H579 H 0.39109 0.42617 0.23962 0.0
H580 H 0.46762 0.45506 0.04034 0.0
H581 H 0.44963 0.70965 0.13805 0.0
H582 H 0.32837 0.6439 0.01258 0.0
C583 C 0.82919 0.28813 0.32036 0.0
C584 C 0.81739 0.24379 0.31046 0.0
C585 C 0.83587 0.24149 0.24514 0.0
C586 C 0.85858 0.28439 0.21953 0.0
N587 N 0.85568 0.31327 0.26509 0.0
Co588 Co 0.88535 0.37808 0.25177 0.0
N589 N 0.88909 0.37249 0.14406 0.0
C590 C 0.88312 0.33592 0.10832 0.0
C591 C 0.87789 0.33825 0.0341 0.0
C592 C 0.88148 0.37891 0.02262 0.0
C593 C 0.89124 0.40056 0.09032 0.0
N594 N 0.91625 0.44284 0.2384 0.0
C595 C 0.92406 0.46664 0.17584 0.0
C596 C 0.95655 0.51073 0.18831 0.0
C597 C 0.96665 0.51458 0.26208 0.0
C598 C 0.94131 0.47249 0.29018 0.0
N599 N 0.88034 0.38307 0.35872 0.0
C600 C 0.90526 0.41953 0.39945 0.0
C601 C 0.89152 0.41364 0.47153 0.0
C602 C 0.85604 0.37083 0.47558 0.0
C603 C 0.85036 0.35249 0.4057 0.0
N604 N 0.94432 0.38291 0.26584 0.0
C605 C 1.03299 0.41384 0.31094 0.0
C606 C 0.99692 0.38299 0.35336 0.0
C607 C 0.95304 0.36711 0.32901 0.0
C608 C 1.02348 0.42534 0.24202 0.0
C609 C 0.97915 0.40966 0.22061 0.0
N610 N 0.82743 0.37507 0.24122 0.0
C611 C 0.78061 0.40492 0.27688 0.0
C612 C 0.74378 0.36956 0.24317 0.0
C613 C 0.74967 0.33708 0.20717 0.0
C614 C 0.79198 0.34068 0.20622 0.0
C615 C 0.8217 0.40691 0.27572 0.0
H616 H 0.79592 0.31541 0.17831 0.0
H617 H 0.84876 0.43404 0.30448 0.0
H618 H 0.92614 0.34454 0.36421 0.0
H619 H 0.97332 0.42206 0.16991 0.0
C620 C 0.87199 0.29673 0.14674 0.0
C621 C 0.81717 0.30611 0.3843 0.0
C622 C 0.90349 0.44765 0.10342 0.0
C623 C 0.93521 0.46009 0.36503 0.0
H624 H 0.79697 0.21589 0.34589 0.0
H625 H 0.83082 0.2117 0.21753 0.0
H626 H 0.86888 0.31213 -0.00612 0.0
H627 H 0.87635 0.39025 0.97021 0.0
H628 H 0.97088 0.53742 0.14843 0.0
H629 H 0.98905 0.54461 0.29167 0.0
H630 H 0.90417 0.43812 0.51511 0.0
H631 H 0.83663 0.35516 0.52426 0.0
H632 H 1.0025 0.37232 0.40625 0.0
H633 H 1.05012 0.44885 0.20698 0.0
H634 H 0.77757 0.43086 0.30474 0.0
H635 H 0.72205 0.3096 0.17924 0.0
loop_
_geom_bond_atom_site_label_1
_geom_bond_atom_site_label_2
_geom_bond_distance
_geom_bond_site_symmetry_2
_ccdc_geom_bond_type
C0 C1 1.443 . S
C0 N4 1.376 . S
C0 C38 1.389 . S
C1 C0 1.443 . S
C1 C2 1.340 . S
C1 H41 0.951 . S
C2 C1 1.340 . S
C2 C3 1.439 . S
C2 H42 0.950 . S
C3 C2 1.439 . S
C3 N4 1.374 . S
C3 C37 1.395 . S
N4 C0 1.376 . S
N4 C3 1.374 . S
N4 Co5 2.008 . S
Co5 N4 2.008 . S
Co5 N6 1.995 . S
Co5 N11 2.008 . S
Co5 N16 1.995 . S
Co5 N21 2.282 . S
Co5 N27 2.282 . S
N6 Co5 1.995 . S
N6 C7 1.376 . S
N6 C10 1.383 . S
C7 N6 1.376 . S
C7 C8 1.446 . S
C7 C37 1.391 . S
C8 C7 1.446 . S
C8 C9 1.339 . S
C8 H43 0.949 . S
C9 C8 1.339 . S
C9 C10 1.439 . S
C9 H44 0.950 . S
C10 N6 1.383 . S
C10 C9 1.439 . S
C10 C39 1.392 . S
N11 Co5 2.008 . S
N11 C12 1.376 . S
N11 C15 1.374 . S
C12 N11 1.376 . S
C12 C13 1.443 . S
C12 C39 1.389 . S
C13 C12 1.443 . S
C13 C14 1.340 . S
C13 H45 0.951 . S
C14 C13 1.340 . S
C14 C15 1.439 . S
C14 H46 0.950 . S
C15 N11 1.374 . S
C15 C14 1.439 . S
C15 C40 1.395 . S
N16 Co5 1.995 . S
N16 C17 1.376 . S
N16 C20 1.383 . S
C17 N16 1.376 . S
C17 C18 1.446 . S
C17 C40 1.391 . S
C18 C17 1.446 . S
C18 C19 1.339 . S
C18 H47 0.949 . S
C19 C18 1.339 . S
C19 C20 1.439 . S
C19 H48 0.950 . S
C20 N16 1.383 . S
C20 C19 1.439 . S
C20 C38 1.392 . S
N21 Co5 2.282 . S
N21 C24 1.332 . S
N21 C26 1.332 . S
C22 C23 1.386 . S
C22 C25 1.388 . S
C23 C22 1.386 . S
C23 C24 1.382 . S
C23 H49 0.950 . S
C24 N21 1.332 . S
C24 C23 1.382 . S
C24 H35 0.952 . S
C25 C22 1.388 . S
C25 C26 1.382 . S
C25 H50 0.950 . S
C26 N21 1.332 . S
C26 C25 1.382 . S
C26 H36 0.948 . S
N27 Co5 2.282 . S
N27 C31 1.332 . S
N27 C32 1.332 . S
C28 C29 1.388 . S
C28 C32 1.382 . S
C28 H51 0.950 . S
C29 C28 1.388 . S
C29 C30 1.386 . S
C30 C29 1.386 . S
C30 C31 1.382 . S
C30 H52 0.950 . S
C31 N27 1.332 . S
C31 C30 1.382 . S
C31 H33 0.952 . S
C32 N27 1.332 . S
C32 C28 1.382 . S
C32 H34 0.948 . S
H33 C31 0.952 . S
H34 C32 0.948 . S
H35 C24 0.952 . S
H36 C26 0.948 . S
C37 C3 1.395 . S
C37 C7 1.391 . S
C38 C0 1.389 . S
C38 C20 1.392 . S
C39 C10 1.392 . S
C39 C12 1.389 . S
C40 C15 1.395 . S
C40 C17 1.391 . S
H41 C1 0.951 . S
H42 C2 0.950 . S
H43 C8 0.949 . S
H44 C9 0.950 . S
H45 C13 0.951 . S
H46 C14 0.950 . S
H47 C18 0.949 . S
H48 C19 0.950 . S
H49 C23 0.950 . S
H50 C25 0.950 . S
H51 C28 0.950 . S
H52 C30 0.950 . S
C53 C54 1.443 . S
C53 N57 1.376 . S
C53 C91 1.389 . S
C54 C53 1.443 . S
C54 C55 1.340 . S
C54 H94 0.951 . S
C55 C54 1.340 . S
C55 C56 1.439 . S
C55 H95 0.950 . S
C56 C55 1.439 . S
C56 N57 1.374 . S
C56 C90 1.395 . S
N57 C53 1.376 . S
N57 C56 1.374 . S
N57 Co58 2.008 . S
Co58 N57 2.008 . S
Co58 N59 1.995 . S
Co58 N64 2.008 . S
Co58 N69 1.995 . S
Co58 N74 2.282 . S
Co58 N80 2.282 . S
N59 Co58 1.995 . S
N59 C60 1.376 . S
N59 C63 1.383 . S
C60 N59 1.376 . S
C60 C61 1.446 . S
C60 C90 1.391 . S
C61 C60 1.446 . S
C61 C62 1.339 . S
C61 H96 0.949 . S
C62 C61 1.339 . S
C62 C63 1.439 . S
C62 H97 0.950 . S
C63 N59 1.383 . S
C63 C62 1.439 . S
C63 C92 1.392 . S
N64 Co58 2.008 . S
N64 C65 1.376 . S
N64 C68 1.374 . S
C65 N64 1.376 . S
C65 C66 1.443 . S
C65 C92 1.389 . S
C66 C65 1.443 . S
C66 C67 1.340 . S
C66 H98 0.951 . S
C67 C66 1.340 . S
C67 C68 1.439 . S
C67 H99 0.950 . S
C68 N64 1.374 . S
C68 C67 1.439 . S
C68 C93 1.395 . S
N69 Co58 1.995 . S
N69 C70 1.376 . S
N69 C73 1.383 . S
C70 N69 1.376 . S
C70 C71 1.446 . S
C70 C93 1.391 . S
C71 C70 1.446 . S
C71 C72 1.339 . S
C71 H100 0.949 . S
C72 C71 1.339 . S
C72 C73 1.439 . S
C72 H101 0.950 . S
C73 N69 1.383 . S
C73 C72 1.439 . S
C73 C91 1.392 . S
N74 Co58 2.282 . S
N74 C77 1.332 . S
N74 C79 1.332 . S
C75 C76 1.386 . S
C75 C78 1.388 . S
C76 C75 1.386 . S
C76 C77 1.382 . S
C76 H102 0.950 . S
C77 N74 1.332 . S
C77 C76 1.382 . S
C77 H88 0.952 . S
C78 C75 1.388 . S
C78 C79 1.382 . S
C78 H103 0.950 . S
C79 N74 1.332 . S
C79 C78 1.382 . S
C79 H89 0.948 . S
N80 Co58 2.282 . S
N80 C84 1.332 . S
N80 C85 1.332 . S
C81 C82 1.388 . S
C81 C85 1.382 . S
C81 H104 0.950 . S
C82 C81 1.388 . S
C82 C83 1.386 . S
C83 C82 1.386 . S
C83 C84 1.382 . S
C83 H105 0.950 . S
C84 N80 1.332 . S
C84 C83 1.382 . S
C84 H86 0.952 . S
C85 N80 1.332 . S
C85 C81 1.382 . S
C85 H87 0.948 . S
H86 C84 0.952 . S
H87 C85 0.948 . S
H88 C77 0.952 . S
H89 C79 0.948 . S
C90 C56 1.395 . S
C90 C60 1.391 . S
C91 C53 1.389 . S
C91 C73 1.392 . S
C92 C63 1.392 . S
C92 C65 1.389 . S
C93 C68 1.395 . S
C93 C70 1.391 . S
H94 C54 0.951 . S
H95 C55 0.950 . S
H96 C61 0.949 . S
H97 C62 0.950 . S
H98 C66 0.951 . S
H99 C67 0.950 . S
H100 C71 0.949 . S
H101 C72 0.950 . S
H102 C76 0.950 . S
H103 C78 0.950 . S
H104 C81 0.950 . S
H105 C83 0.950 . S
C106 C107 1.443 . S
C106 N110 1.376 . S
C106 C144 1.389 . S
C107 C106 1.443 . S
C107 C108 1.340 . S
C107 H147 0.951 . S
C108 C107 1.340 . S
C108 C109 1.439 . S
C108 H148 0.950 . S
C109 C108 1.439 . S
C109 N110 1.374 . S
C109 C143 1.395 . S
N110 C106 1.376 . S
N110 C109 1.374 . S
N110 Co111 2.008 . S
Co111 N110 2.008 . S
Co111 N112 1.995 . S
Co111 N117 2.008 . S
Co111 N122 1.995 . S
Co111 N127 2.282 . S
Co111 N133 2.282 . S
N112 Co111 1.995 . S
N112 C113 1.376 . S
N112 C116 1.383 . S
C113 N112 1.376 . S
C113 C114 1.446 . S
C113 C143 1.391 . S
C114 C113 1.446 . S
C114 C115 1.339 . S
C114 H149 0.949 1_556 S
C115 C114 1.339 . S
C115 C116 1.439 . S
C115 H150 0.950 1_556 S
C116 N112 1.383 . S
C116 C115 1.439 . S
C116 C145 1.392 . S
N117 Co111 2.008 . S
N117 C118 1.376 . S
N117 C121 1.374 . S
C118 N117 1.376 . S
C118 C119 1.443 . S
C118 C145 1.389 . S
C119 C118 1.443 . S
C119 C120 1.340 . S
C119 H151 0.951 . S
C120 C119 1.340 . S
C120 C121 1.439 . S
C120 H152 0.950 . S
C121 N117 1.374 . S
C121 C120 1.439 . S
C121 C146 1.395 . S
N122 Co111 1.995 . S
N122 C123 1.376 . S
N122 C126 1.383 . S
C123 N122 1.376 . S
C123 C124 1.446 . S
C123 C146 1.391 . S
C124 C123 1.446 . S
C124 C125 1.339 . S
C124 H153 0.949 . S
C125 C124 1.339 . S
C125 C126 1.439 . S
C125 H154 0.950 . S
C126 N122 1.383 . S
C126 C125 1.439 . S
C126 C144 1.392 . S
N127 Co111 2.282 . S
N127 C130 1.332 . S
N127 C132 1.332 . S
C128 C129 1.386 . S
C128 C131 1.388 . S
C129 C128 1.386 . S
C129 C130 1.382 . S
C129 H155 0.950 . S
C130 N127 1.332 . S
C130 C129 1.382 . S
C130 H141 0.952 . S
C131 C128 1.388 . S
C131 C132 1.382 . S
C131 H156 0.950 . S
C132 N127 1.332 . S
C132 C131 1.382 . S
C132 H142 0.948 . S
N133 Co111 2.282 . S
N133 C137 1.332 . S
N133 C138 1.332 . S
C134 C135 1.388 . S
C134 C138 1.382 . S
C134 H157 0.950 . S
C135 C134 1.388 . S
C135 C136 1.386 . S
C136 C135 1.386 . S
C136 C137 1.382 . S
C136 H158 0.950 . S
C137 N133 1.332 . S
C137 C136 1.382 . S
C137 H139 0.952 . S
C138 N133 1.332 . S
C138 C134 1.382 . S
C138 H140 0.948 . S
H139 C137 0.952 . S
H140 C138 0.948 . S
H141 C130 0.952 . S
H142 C132 0.948 . S
C143 C109 1.395 . S
C143 C113 1.391 . S
C144 C106 1.389 . S
C144 C126 1.392 . S
C145 C116 1.392 . S
C145 C118 1.389 . S
C146 C121 1.395 . S
C146 C123 1.391 . S
H147 C107 0.951 . S
H148 C108 0.950 . S
H149 C114 0.949 1_554 S
H150 C115 0.950 1_554 S
H151 C119 0.951 . S
H152 C120 0.950 . S
H153 C124 0.949 . S
H154 C125 0.950 . S
H155 C129 0.950 . S
H156 C131 0.950 . S
H157 C134 0.950 . S
H158 C136 0.950 . S
C159 C160 1.443 . S
C159 N163 1.376 . S
C159 C197 1.389 . S
C160 C159 1.443 . S
C160 C161 1.340 . S
C160 H200 0.951 . S
C161 C160 1.340 . S
C161 C162 1.439 . S
C161 H201 0.950 . S
C162 C161 1.439 . S
C162 N163 1.374 . S
C162 C196 1.395 1_556 S
N163 C159 1.376 . S
N163 C162 1.374 . S
N163 Co164 2.008 . S
Co164 N163 2.008 . S
Co164 N165 1.995 1_556 S
Co164 N170 2.008 . S
Co164 N175 1.995 . S
Co164 N180 2.282 . S
Co164 N186 2.282 . S
N165 Co164 1.995 1_554 S
N165 C166 1.376 . S
N165 C169 1.383 . S
C166 N165 1.376 . S
C166 C167 1.446 . S
C166 C196 1.391 . S
C167 C166 1.446 . S
C167 C168 1.339 . S
C167 H202 0.949 . S
C168 C167 1.339 . S
C168 C169 1.439 . S
C168 H203 0.950 . S
C169 N165 1.383 . S
C169 C168 1.439 . S
C169 C198 1.392 . S
N170 Co164 2.008 . S
N170 C171 1.376 . S
N170 C174 1.374 . S
C171 N170 1.376 . S
C171 C172 1.443 . S
C171 C198 1.389 1_556 S
C172 C171 1.443 . S
C172 C173 1.340 . S
C172 H204 0.951 1_556 S
C173 C172 1.340 . S
C173 C174 1.439 . S
C173 H205 0.950 . S
C174 N170 1.374 . S
C174 C173 1.439 . S
C174 C199 1.395 . S
N175 Co164 1.995 . S
N175 C176 1.376 . S
N175 C179 1.383 . S
C176 N175 1.376 . S
C176 C177 1.446 . S
C176 C199 1.391 . S
C177 C176 1.446 . S
C177 C178 1.339 . S
C177 H206 0.949 . S
C178 C177 1.339 . S
C178 C179 1.439 . S
C178 H207 0.950 . S
C179 N175 1.383 . S
C179 C178 1.439 . S
C179 C197 1.392 . S
N180 Co164 2.282 . S
N180 C183 1.332 . S
N180 C185 1.332 . S
C181 C182 1.386 . S
C181 C184 1.388 . S
C182 C181 1.386 . S
C182 C183 1.382 . S
C182 H208 0.950 . S
C183 N180 1.332 . S
C183 C182 1.382 . S
C183 H194 0.952 . S
C184 C181 1.388 . S
C184 C185 1.382 . S
C184 H209 0.950 . S
C185 N180 1.332 . S
C185 C184 1.382 . S
C185 H195 0.948 . S
N186 Co164 2.282 . S
N186 C190 1.332 . S
N186 C191 1.332 . S
C187 C188 1.388 . S
C187 C191 1.382 . S
C187 H210 0.950 . S
C188 C187 1.388 . S
C188 C189 1.386 . S
C189 C188 1.386 . S
C189 C190 1.382 . S
C189 H211 0.950 1_556 S
C190 N186 1.332 . S
C190 C189 1.382 . S
C190 H192 0.952 1_556 S
C191 N186 1.332 . S
C191 C187 1.382 . S
C191 H193 0.948 . S
H192 C190 0.952 1_554 S
H193 C191 0.948 . S
H194 C183 0.952 . S
H195 C185 0.948 . S
C196 C162 1.395 1_554 S
C196 C166 1.391 . S
C197 C159 1.389 . S
C197 C179 1.392 . S
C198 C169 1.392 . S
C198 C171 1.389 1_554 S
C199 C174 1.395 . S
C199 C176 1.391 . S
H200 C160 0.951 . S
H201 C161 0.950 . S
H202 C167 0.949 . S
H203 C168 0.950 . S
H204 C172 0.951 1_554 S
H205 C173 0.950 . S
H206 C177 0.949 . S
H207 C178 0.950 . S
H208 C182 0.950 . S
H209 C184 0.950 . S
H210 C187 0.950 . S
H211 C189 0.950 1_554 S
C212 C213 1.443 . S
C212 N216 1.376 . S
C212 C250 1.389 1_554 S
C213 C212 1.443 . S
C213 C214 1.340 . S
C213 H253 0.951 1_554 S
C214 C213 1.340 . S
C214 C215 1.439 . S
C214 H254 0.950 . S
C215 C214 1.439 . S
C215 N216 1.374 . S
C215 C249 1.395 . S
N216 C212 1.376 . S
N216 C215 1.374 . S
N216 Co217 2.008 . S
Co217 N216 2.008 . S
Co217 N218 1.995 . S
Co217 N223 2.008 . S
Co217 N228 1.995 1_554 S
Co217 N233 2.282 . S
Co217 N239 2.282 . S
N218 Co217 1.995 . S
N218 C219 1.376 . S
N218 C222 1.383 . S
C219 N218 1.376 . S
C219 C220 1.446 . S
C219 C249 1.391 . S
C220 C219 1.446 . S
C220 C221 1.339 . S
C220 H255 0.949 . S
C221 C220 1.339 . S
C221 C222 1.439 . S
C221 H256 0.950 . S
C222 N218 1.383 . S
C222 C221 1.439 . S
C222 C251 1.392 . S
N223 Co217 2.008 . S
N223 C224 1.376 . S
N223 C227 1.374 . S
C224 N223 1.376 . S
C224 C225 1.443 . S
C224 C251 1.389 . S
C225 C224 1.443 . S
C225 C226 1.340 . S
C225 H257 0.951 . S
C226 C225 1.340 . S
C226 C227 1.439 . S
C226 H258 0.950 . S
C227 N223 1.374 . S
C227 C226 1.439 . S
C227 C252 1.395 1_554 S
N228 Co217 1.995 1_556 S
N228 C229 1.376 . S
N228 C232 1.383 . S
C229 N228 1.376 . S
C229 C230 1.446 . S
C229 C252 1.391 . S
C230 C229 1.446 . S
C230 C231 1.339 . S
C230 H259 0.949 . S
C231 C230 1.339 . S
C231 C232 1.439 . S
C231 H260 0.950 . S
C232 N228 1.383 . S
C232 C231 1.439 . S
C232 C250 1.392 . S
N233 Co217 2.282 . S
N233 C236 1.332 . S
N233 C238 1.332 . S
C234 C235 1.386 . S
C234 C237 1.388 . S
C235 C234 1.386 . S
C235 C236 1.382 . S
C235 H261 0.950 1_554 S
C236 N233 1.332 . S
C236 C235 1.382 . S
C236 H247 0.952 1_554 S
C237 C234 1.388 . S
C237 C238 1.382 . S
C237 H262 0.950 . S
C238 N233 1.332 . S
C238 C237 1.382 . S
C238 H248 0.948 . S
N239 Co217 2.282 . S
N239 C243 1.332 . S
N239 C244 1.332 . S
C240 C241 1.388 . S
C240 C244 1.382 . S
C240 H263 0.950 . S
C241 C240 1.388 . S
C241 C242 1.386 . S
C242 C241 1.386 . S
C242 C243 1.382 . S
C242 H264 0.950 . S
C243 N239 1.332 . S
C243 C242 1.382 . S
C243 H245 0.952 . S
C244 N239 1.332 . S
C244 C240 1.382 . S
C244 H246 0.948 . S
H245 C243 0.952 . S
H246 C244 0.948 . S
H247 C236 0.952 1_556 S
H248 C238 0.948 . S
C249 C215 1.395 . S
C249 C219 1.391 . S
C250 C212 1.389 1_556 S
C250 C232 1.392 . S
C251 C222 1.392 . S
C251 C224 1.389 . S
C252 C227 1.395 1_556 S
C252 C229 1.391 . S
H253 C213 0.951 1_556 S
H254 C214 0.950 . S
H255 C220 0.949 . S
H256 C221 0.950 . S
H257 C225 0.951 . S
H258 C226 0.950 . S
H259 C230 0.949 . S
H260 C231 0.950 . S
H261 C235 0.950 1_556 S
H262 C237 0.950 . S
H263 C240 0.950 . S
H264 C242 0.950 . S
C265 C266 1.443 . S
C265 N269 1.376 . S
C265 C303 1.389 . S
C266 C265 1.443 . S
C266 C267 1.340 . S
C266 H306 0.951 . S
C267 C266 1.340 . S
C267 C268 1.439 . S
C267 H307 0.950 . S
C268 C267 1.439 . S
C268 N269 1.374 . S
C268 C302 1.395 . S
N269 C265 1.376 . S
N269 C268 1.374 . S
N269 Co270 2.008 . S
Co270 N269 2.008 . S
Co270 N271 1.995 . S
Co270 N276 2.008 . S
Co270 N281 1.995 . S
Co270 N286 2.282 . S
Co270 N292 2.282 . S
N271 Co270 1.995 . S
N271 C272 1.376 . S
N271 C275 1.383 . S
C272 N271 1.376 . S
C272 C273 1.446 . S
C272 C302 1.391 . S
C273 C272 1.446 . S
C273 C274 1.339 . S
C273 H308 0.949 . S
C274 C273 1.339 . S
C274 C275 1.439 . S
C274 H309 0.950 . S
C275 N271 1.383 . S
C275 C274 1.439 . S
C275 C304 1.392 . S
N276 Co270 2.008 . S
N276 C277 1.376 . S
N276 C280 1.374 . S
C277 N276 1.376 . S
C277 C278 1.443 . S
C277 C304 1.389 . S
C278 C277 1.443 . S
C278 C279 1.340 . S
C278 H310 0.951 . S
C279 C278 1.340 . S
C279 C280 1.439 . S
C279 H311 0.950 . S
C280 N276 1.374 . S
C280 C279 1.439 . S
C280 C305 1.395 . S
N281 Co270 1.995 . S
N281 C282 1.376 . S
N281 C285 1.383 . S
C282 N281 1.376 . S
C282 C283 1.446 . S
C282 C305 1.391 . S
C283 C282 1.446 . S
C283 C284 1.339 . S
C283 H312 0.949 1_554 S
C284 C283 1.339 . S
C284 C285 1.439 . S
C284 H313 0.950 1_554 S
C285 N281 1.383 . S
C285 C284 1.439 . S
C285 C303 1.392 . S
N286 Co270 2.282 . S
N286 C289 1.332 . S
N286 C291 1.332 . S
C287 C288 1.386 . S
C287 C290 1.388 . S
C288 C287 1.386 . S
C288 C289 1.382 . S
C288 H314 0.950 . S
C289 N286 1.332 . S
C289 C288 1.382 . S
C289 H300 0.952 . S
C290 C287 1.388 . S
C290 C291 1.382 . S
C290 H315 0.950 . S
C291 N286 1.332 . S
C291 C290 1.382 . S
C291 H301 0.948 . S
N292 Co270 2.282 . S
N292 C296 1.332 . S
N292 C297 1.332 . S
C293 C294 1.388 . S
C293 C297 1.382 . S
C293 H316 0.950 . S
C294 C293 1.388 . S
C294 C295 1.386 . S
C295 C294 1.386 . S
C295 C296 1.382 . S
C295 H317 0.950 . S
C296 N292 1.332 . S
C296 C295 1.382 . S
C296 H298 0.952 . S
C297 N292 1.332 . S
C297 C293 1.382 . S
C297 H299 0.948 . S
H298 C296 0.952 . S
H299 C297 0.948 . S
H300 C289 0.952 . S
H301 C291 0.948 . S
C302 C268 1.395 . S
C302 C272 1.391 . S
C303 C265 1.389 . S
C303 C285 1.392 . S
C304 C275 1.392 . S
C304 C277 1.389 . S
C305 C280 1.395 . S
C305 C282 1.391 . S
H306 C266 0.951 . S
H307 C267 0.950 . S
H308 C273 0.949 . S
H309 C274 0.950 . S
H310 C278 0.951 . S
H311 C279 0.950 . S
H312 C283 0.949 1_556 S
H313 C284 0.950 1_556 S
H314 C288 0.950 . S
H315 C290 0.950 . S
H316 C293 0.950 . S
H317 C295 0.950 . S
C318 C319 1.443 . S
C318 N322 1.376 . S
C318 C356 1.389 . S
C319 C318 1.443 . S
C319 C320 1.340 . S
C319 H359 0.951 . S
C320 C319 1.340 . S
C320 C321 1.439 . S
C320 H360 0.950 . S
C321 C320 1.439 . S
C321 N322 1.374 . S
C321 C355 1.395 . S
N322 C318 1.376 . S
N322 C321 1.374 . S
N322 Co323 2.008 . S
Co323 N322 2.008 . S
Co323 N324 1.995 . S
Co323 N329 2.008 . S
Co323 N334 1.995 . S
Co323 N339 2.282 . S
Co323 N345 2.282 . S
N324 Co323 1.995 . S
N324 C325 1.376 . S
N324 C328 1.383 . S
C325 N324 1.376 . S
C325 C326 1.446 . S
C325 C355 1.391 . S
C326 C325 1.446 . S
C326 C327 1.339 . S
C326 H361 0.949 . S
C327 C326 1.339 . S
C327 C328 1.439 . S
C327 H362 0.950 . S
C328 N324 1.383 . S
C328 C327 1.439 . S
C328 C357 1.392 . S
N329 Co323 2.008 . S
N329 C330 1.376 . S
N329 C333 1.374 . S
C330 N329 1.376 . S
C330 C331 1.443 . S
C330 C357 1.389 . S
C331 C330 1.443 . S
C331 C332 1.340 . S
C331 H363 0.951 . S
C332 C331 1.340 . S
C332 C333 1.439 . S
C332 H364 0.950 . S
C333 N329 1.374 . S
C333 C332 1.439 . S
C333 C358 1.395 . S
N334 Co323 1.995 . S
N334 C335 1.376 . S
N334 C338 1.383 . S
C335 N334 1.376 . S
C335 C336 1.446 . S
C335 C358 1.391 . S
C336 C335 1.446 . S
C336 C337 1.339 . S
C336 H365 0.949 . S
C337 C336 1.339 . S
C337 C338 1.439 . S
C337 H366 0.950 . S
C338 N334 1.383 . S
C338 C337 1.439 . S
C338 C356 1.392 . S
N339 Co323 2.282 . S
N339 C342 1.332 . S
N339 C344 1.332 . S
C340 C341 1.386 . S
C340 C343 1.388 . S
C341 C340 1.386 . S
C341 C342 1.382 . S
C341 H367 0.950 . S
C342 N339 1.332 . S
C342 C341 1.382 . S
C342 H353 0.952 . S
C343 C340 1.388 . S
C343 C344 1.382 . S
C343 H368 0.950 . S
C344 N339 1.332 . S
C344 C343 1.382 . S
C344 H354 0.948 . S
N345 Co323 2.282 . S
N345 C349 1.332 . S
N345 C350 1.332 . S
C346 C347 1.388 . S
C346 C350 1.382 . S
C346 H369 0.950 . S
C347 C346 1.388 . S
C347 C348 1.386 . S
C348 C347 1.386 . S
C348 C349 1.382 . S
C348 H370 0.950 . S
C349 N345 1.332 . S
C349 C348 1.382 . S
C349 H351 0.952 . S
C350 N345 1.332 . S
C350 C346 1.382 . S
C350 H352 0.948 . S
H351 C349 0.952 . S
H352 C350 0.948 . S
H353 C342 0.952 . S
H354 C344 0.948 . S
C355 C321 1.395 . S
C355 C325 1.391 . S
C356 C318 1.389 . S
C356 C338 1.392 . S
C357 C328 1.392 . S
C357 C330 1.389 . S
C358 C333 1.395 . S
C358 C335 1.391 . S
H359 C319 0.951 . S
H360 C320 0.950 . S
H361 C326 0.949 . S
H362 C327 0.950 . S
H363 C331 0.951 . S
H364 C332 0.950 . S
H365 C336 0.949 . S
H366 C337 0.950 . S
H367 C341 0.950 . S
H368 C343 0.950 . S
H369 C346 0.950 . S
H370 C348 0.950 . S
C371 C372 1.443 . S
C371 N375 1.376 . S
C371 C409 1.389 . S
C372 C371 1.443 . S
C372 C373 1.340 . S
C372 H412 0.951 . S
C373 C372 1.340 . S
C373 C374 1.439 . S
C373 H413 0.950 . S
C374 C373 1.439 . S
C374 N375 1.374 . S
C374 C408 1.395 . S
N375 C371 1.376 . S
N375 C374 1.374 . S
N375 Co376 2.008 . S
Co376 N375 2.008 . S
Co376 N377 1.995 . S
Co376 N382 2.008 . S
Co376 N387 1.995 . S
Co376 N392 2.282 . S
Co376 N398 2.282 . S
N377 Co376 1.995 . S
N377 C378 1.376 . S
N377 C381 1.383 . S
C378 N377 1.376 . S
C378 C379 1.446 . S
C378 C408 1.391 . S
C379 C378 1.446 . S
C379 C380 1.339 . S
C379 H414 0.949 . S
C380 C379 1.339 . S
C380 C381 1.439 . S
C380 H415 0.950 . S
C381 N377 1.383 . S
C381 C380 1.439 . S
C381 C410 1.392 . S
N382 Co376 2.008 . S
N382 C383 1.376 . S
N382 C386 1.374 . S
C383 N382 1.376 . S
C383 C384 1.443 . S
C383 C410 1.389 . S
C384 C383 1.443 . S
C384 C385 1.340 . S
C384 H416 0.951 . S
C385 C384 1.340 . S
C385 C386 1.439 . S
C385 H417 0.950 . S
C386 N382 1.374 . S
C386 C385 1.439 . S
C386 C411 1.395 . S
N387 Co376 1.995 . S
N387 C388 1.376 . S
N387 C391 1.383 . S
C388 N387 1.376 . S
C388 C389 1.446 . S
C388 C411 1.391 . S
C389 C388 1.446 . S
C389 C390 1.339 . S
C389 H418 0.949 . S
C390 C389 1.339 . S
C390 C391 1.439 . S
C390 H419 0.950 . S
C391 N387 1.383 . S
C391 C390 1.439 . S
C391 C409 1.392 . S
N392 Co376 2.282 . S
N392 C395 1.332 . S
N392 C397 1.332 . S
C393 C394 1.386 . S
C393 C396 1.388 . S
C394 C393 1.386 . S
C394 C395 1.382 . S
C394 H420 0.950 . S
C395 N392 1.332 . S
C395 C394 1.382 . S
C395 H406 0.952 . S
C396 C393 1.388 . S
C396 C397 1.382 . S
C396 H421 0.950 . S
C397 N392 1.332 . S
C397 C396 1.382 . S
C397 H407 0.948 . S
N398 Co376 2.282 . S
N398 C402 1.332 . S
N398 C403 1.332 . S
C399 C400 1.388 . S
C399 C403 1.382 . S
C399 H422 0.950 . S
C400 C399 1.388 . S
C400 C401 1.386 . S
C401 C400 1.386 . S
C401 C402 1.382 . S
C401 H423 0.950 . S
C402 N398 1.332 . S
C402 C401 1.382 . S
C402 H404 0.952 . S
C403 N398 1.332 . S
C403 C399 1.382 . S
C403 H405 0.948 . S
H404 C402 0.952 . S
H405 C403 0.948 . S
H406 C395 0.952 . S
H407 C397 0.948 . S
C408 C374 1.395 . S
C408 C378 1.391 . S
C409 C371 1.389 . S
C409 C391 1.392 . S
C410 C381 1.392 . S
C410 C383 1.389 . S
C411 C386 1.395 . S
C411 C388 1.391 . S
H412 C372 0.951 . S
H413 C373 0.950 . S
H414 C379 0.949 . S
H415 C380 0.950 . S
H416 C384 0.951 . S
H417 C385 0.950 . S
H418 C389 0.949 . S
H419 C390 0.950 . S
H420 C394 0.950 . S
H421 C396 0.950 . S
H422 C399 0.950 . S
H423 C401 0.950 . S
C424 C425 1.443 . S
C424 N428 1.376 . S
C424 C462 1.389 . S
C425 C424 1.443 . S
C425 C426 1.340 . S
C425 H465 0.951 . S
C426 C425 1.340 . S
C426 C427 1.439 . S
C426 H466 0.950 . S
C427 C426 1.439 . S
C427 N428 1.374 . S
C427 C461 1.395 . S
N428 C424 1.376 . S
N428 C427 1.374 . S
N428 Co429 2.008 . S
Co429 N428 2.008 . S
Co429 N430 1.995 . S
Co429 N435 2.008 . S
Co429 N440 1.995 . S
Co429 N445 2.282 . S
Co429 N451 2.282 . S
N430 Co429 1.995 . S
N430 C431 1.376 . S
N430 C434 1.383 . S
C431 N430 1.376 . S
C431 C432 1.446 . S
C431 C461 1.391 . S
C432 C431 1.446 . S
C432 C433 1.339 . S
C432 H467 0.949 . S
C433 C432 1.339 . S
C433 C434 1.439 . S
C433 H468 0.950 . S
C434 N430 1.383 . S
C434 C433 1.439 . S
C434 C463 1.392 . S
N435 Co429 2.008 . S
N435 C436 1.376 . S
N435 C439 1.374 . S
C436 N435 1.376 . S
C436 C437 1.443 . S
C436 C463 1.389 . S
C437 C436 1.443 . S
C437 C438 1.340 . S
C437 H469 0.951 . S
C438 C437 1.340 . S
C438 C439 1.439 . S
C438 H470 0.950 . S
C439 N435 1.374 . S
C439 C438 1.439 . S
C439 C464 1.395 . S
N440 Co429 1.995 . S
N440 C441 1.376 . S
N440 C444 1.383 . S
C441 N440 1.376 . S
C441 C442 1.446 . S
C441 C464 1.391 . S
C442 C441 1.446 . S
C442 C443 1.339 . S
C442 H471 0.949 1_556 S
C443 C442 1.339 . S
C443 C444 1.439 . S
C443 H472 0.950 1_556 S
C444 N440 1.383 . S
C444 C443 1.439 . S
C444 C462 1.392 . S
N445 Co429 2.282 . S
N445 C448 1.332 . S
N445 C450 1.332 . S
C446 C447 1.386 . S
C446 C449 1.388 . S
C447 C446 1.386 . S
C447 C448 1.382 . S
C447 H473 0.950 . S
C448 N445 1.332 . S
C448 C447 1.382 . S
C448 H459 0.952 . S
C449 C446 1.388 . S
C449 C450 1.382 . S
C449 H474 0.950 . S
C450 N445 1.332 . S
C450 C449 1.382 . S
C450 H460 0.948 . S
N451 Co429 2.282 . S
N451 C455 1.332 . S
N451 C456 1.332 . S
C452 C453 1.388 . S
C452 C456 1.382 . S
C452 H475 0.950 . S
C453 C452 1.388 . S
C453 C454 1.386 . S
C454 C453 1.386 . S
C454 C455 1.382 . S
C454 H476 0.950 . S
C455 N451 1.332 . S
C455 C454 1.382 . S
C455 H457 0.952 . S
C456 N451 1.332 . S
C456 C452 1.382 . S
C456 H458 0.948 . S
H457 C455 0.952 . S
H458 C456 0.948 . S
H459 C448 0.952 . S
H460 C450 0.948 . S
C461 C427 1.395 . S
C461 C431 1.391 . S
C462 C424 1.389 . S
C462 C444 1.392 . S
C463 C434 1.392 . S
C463 C436 1.389 . S
C464 C439 1.395 . S
C464 C441 1.391 . S
H465 C425 0.951 . S
H466 C426 0.950 . S
H467 C432 0.949 . S
H468 C433 0.950 . S
H469 C437 0.951 . S
H470 C438 0.950 . S
H471 C442 0.949 1_554 S
H472 C443 0.950 1_554 S
H473 C447 0.950 . S
H474 C449 0.950 . S
H475 C452 0.950 . S
H476 C454 0.950 . S
C477 C478 1.443 . S
C477 N481 1.376 . S
C477 C515 1.389 1_556 S
C478 C477 1.443 . S
C478 C479 1.340 . S
C478 H518 0.951 1_556 S
C479 C478 1.340 . S
C479 C480 1.439 . S
C479 H519 0.950 . S
C480 C479 1.439 . S
C480 N481 1.374 . S
C480 C514 1.395 . S
N481 C477 1.376 . S
N481 C480 1.374 . S
N481 Co482 2.008 . S
Co482 N481 2.008 . S
Co482 N483 1.995 . S
Co482 N488 2.008 . S
Co482 N493 1.995 1_556 S
Co482 N498 2.282 . S
Co482 N504 2.282 . S
N483 Co482 1.995 . S
N483 C484 1.376 . S
N483 C487 1.383 . S
C484 N483 1.376 . S
C484 C485 1.446 . S
C484 C514 1.391 . S
C485 C484 1.446 . S
C485 C486 1.339 . S
C485 H520 0.949 . S
C486 C485 1.339 . S
C486 C487 1.439 . S
C486 H521 0.950 . S
C487 N483 1.383 . S
C487 C486 1.439 . S
C487 C516 1.392 . S
N488 Co482 2.008 . S
N488 C489 1.376 . S
N488 C492 1.374 . S
C489 N488 1.376 . S
C489 C490 1.443 . S
C489 C516 1.389 . S
C490 C489 1.443 . S
C490 C491 1.340 . S
C490 H522 0.951 . S
C491 C490 1.340 . S
C491 C492 1.439 . S
C491 H523 0.950 . S
C492 N488 1.374 . S
C492 C491 1.439 . S
C492 C517 1.395 1_556 S
N493 Co482 1.995 1_554 S
N493 C494 1.376 . S
N493 C497 1.383 . S
C494 N493 1.376 . S
C494 C495 1.446 . S
C494 C517 1.391 . S
C495 C494 1.446 . S
C495 C496 1.339 . S
C495 H524 0.949 . S
C496 C495 1.339 . S
C496 C497 1.439 . S
C496 H525 0.950 . S
C497 N493 1.383 . S
C497 C496 1.439 . S
C497 C515 1.392 . S
N498 Co482 2.282 . S
N498 C501 1.332 . S
N498 C503 1.332 . S
C499 C500 1.386 . S
C499 C502 1.388 . S
C500 C499 1.386 . S
C500 C501 1.382 . S
C500 H526 0.950 1_556 S
C501 N498 1.332 . S
C501 C500 1.382 . S
C501 H512 0.952 1_556 S
C502 C499 1.388 . S
C502 C503 1.382 . S
C502 H527 0.950 . S
C503 N498 1.332 . S
C503 C502 1.382 . S
C503 H513 0.948 . S
N504 Co482 2.282 . S
N504 C508 1.332 . S
N504 C509 1.332 . S
C505 C506 1.388 . S
C505 C509 1.382 . S
C505 H528 0.950 . S
C506 C505 1.388 . S
C506 C507 1.386 . S
C507 C506 1.386 . S
C507 C508 1.382 . S
C507 H529 0.950 . S
C508 N504 1.332 . S
C508 C507 1.382 . S
C508 H510 0.952 . S
C509 N504 1.332 . S
C509 C505 1.382 . S
C509 H511 0.948 . S
H510 C508 0.952 . S
H511 C509 0.948 . S
H512 C501 0.952 1_554 S
H513 C503 0.948 . S
C514 C480 1.395 . S
C514 C484 1.391 . S
C515 C477 1.389 1_554 S
C515 C497 1.392 . S
C516 C487 1.392 . S
C516 C489 1.389 . S
C517 C492 1.395 1_554 S
C517 C494 1.391 . S
H518 C478 0.951 1_554 S
H519 C479 0.950 . S
H520 C485 0.949 . S
H521 C486 0.950 . S
H522 C490 0.951 . S
H523 C491 0.950 . S
H524 C495 0.949 . S
H525 C496 0.950 . S
H526 C500 0.950 1_554 S
H527 C502 0.950 . S
H528 C505 0.950 . S
H529 C507 0.950 . S
C530 C531 1.443 . S
C530 N534 1.376 . S
C530 C568 1.389 . S
C531 C530 1.443 . S
C531 C532 1.340 . S
C531 H571 0.951 . S
C532 C531 1.340 . S
C532 C533 1.439 . S
C532 H572 0.950 . S
C533 C532 1.439 . S
C533 N534 1.374 . S
C533 C567 1.395 1_554 S
N534 C530 1.376 . S
N534 C533 1.374 . S
N534 Co535 2.008 . S
Co535 N534 2.008 . S
Co535 N536 1.995 1_554 S
Co535 N541 2.008 . S
Co535 N546 1.995 . S
Co535 N551 2.282 . S
Co535 N557 2.282 . S
N536 Co535 1.995 1_556 S
N536 C537 1.376 . S
N536 C540 1.383 . S
C537 N536 1.376 . S
C537 C538 1.446 . S
C537 C567 1.391 . S
C538 C537 1.446 . S
C538 C539 1.339 . S
C538 H573 0.949 . S
C539 C538 1.339 . S
C539 C540 1.439 . S
C539 H574 0.950 . S
C540 N536 1.383 . S
C540 C539 1.439 . S
C540 C569 1.392 . S
N541 Co535 2.008 . S
N541 C542 1.376 . S
N541 C545 1.374 . S
C542 N541 1.376 . S
C542 C543 1.443 . S
C542 C569 1.389 1_554 S
C543 C542 1.443 . S
C543 C544 1.340 . S
C543 H575 0.951 1_554 S
C544 C543 1.340 . S
C544 C545 1.439 . S
C544 H576 0.950 . S
C545 N541 1.374 . S
C545 C544 1.439 . S
C545 C570 1.395 . S
N546 Co535 1.995 . S
N546 C547 1.376 . S
N546 C550 1.383 . S
C547 N546 1.376 . S
C547 C548 1.446 . S
C547 C570 1.391 . S
C548 C547 1.446 . S
C548 C549 1.339 . S
C548 H577 0.949 . S
C549 C548 1.339 . S
C549 C550 1.439 . S
C549 H578 0.950 . S
C550 N546 1.383 . S
C550 C549 1.439 . S
C550 C568 1.392 . S
N551 Co535 2.282 . S
N551 C554 1.332 . S
N551 C556 1.332 . S
C552 C553 1.386 . S
C552 C555 1.388 . S
C553 C552 1.386 . S
C553 C554 1.382 . S
C553 H579 0.950 . S
C554 N551 1.332 . S
C554 C553 1.382 . S
C554 H565 0.952 . S
C555 C552 1.388 . S
C555 C556 1.382 . S
C555 H580 0.950 . S
C556 N551 1.332 . S
C556 C555 1.382 . S
C556 H566 0.948 . S
N557 Co535 2.282 . S
N557 C561 1.332 . S
N557 C562 1.332 . S
C558 C559 1.388 . S
C558 C562 1.382 . S
C558 H581 0.950 . S
C559 C558 1.388 . S
C559 C560 1.386 . S
C560 C559 1.386 . S
C560 C561 1.382 . S
C560 H582 0.950 1_554 S
C561 N557 1.332 . S
C561 C560 1.382 . S
C561 H563 0.952 1_554 S
C562 N557 1.332 . S
C562 C558 1.382 . S
C562 H564 0.948 . S
H563 C561 0.952 1_556 S
H564 C562 0.948 . S
H565 C554 0.952 . S
H566 C556 0.948 . S
C567 C533 1.395 1_556 S
C567 C537 1.391 . S
C568 C530 1.389 . S
C568 C550 1.392 . S
C569 C540 1.392 . S
C569 C542 1.389 1_556 S
C570 C545 1.395 . S
C570 C547 1.391 . S
H571 C531 0.951 . S
H572 C532 0.950 . S
H573 C538 0.949 . S
H574 C539 0.950 . S
H575 C543 0.951 1_556 S
H576 C544 0.950 . S
H577 C548 0.949 . S
H578 C549 0.950 . S
H579 C553 0.950 . S
H580 C555 0.950 . S
H581 C558 0.950 . S
H582 C560 0.950 1_556 S
C583 C584 1.443 . S
C583 N587 1.376 . S
C583 C621 1.389 . S
C584 C583 1.443 . S
C584 C585 1.340 . S
C584 H624 0.951 . S
C585 C584 1.340 . S
C585 C586 1.439 . S
C585 H625 0.950 . S
C586 C585 1.439 . S
C586 N587 1.374 . S
C586 C620 1.395 . S
N587 C583 1.376 . S
N587 C586 1.374 . S
N587 Co588 2.008 . S
Co588 N587 2.008 . S
Co588 N589 1.995 . S
Co588 N594 2.008 . S
Co588 N599 1.995 . S
Co588 N604 2.282 . S
Co588 N610 2.282 . S
N589 Co588 1.995 . S
N589 C590 1.376 . S
N589 C593 1.383 . S
C590 N589 1.376 . S
C590 C591 1.446 . S
C590 C620 1.391 . S
C591 C590 1.446 . S
C591 C592 1.339 . S
C591 H626 0.949 1_554 S
C592 C591 1.339 . S
C592 C593 1.439 . S
C592 H627 0.950 1_554 S
C593 N589 1.383 . S
C593 C592 1.439 . S
C593 C622 1.392 . S
N594 Co588 2.008 . S
N594 C595 1.376 . S
N594 C598 1.374 . S
C595 N594 1.376 . S
C595 C596 1.443 . S
C595 C622 1.389 . S
C596 C595 1.443 . S
C596 C597 1.340 . S
C596 H628 0.951 . S
C597 C596 1.340 . S
C597 C598 1.439 . S
C597 H629 0.950 . S
C598 N594 1.374 . S
C598 C597 1.439 . S
C598 C623 1.395 . S
N599 Co588 1.995 . S
N599 C600 1.376 . S
N599 C603 1.383 . S
C600 N599 1.376 . S
C600 C601 1.446 . S
C600 C623 1.391 . S
C601 C600 1.446 . S
C601 C602 1.339 . S
C601 H630 0.949 . S
C602 C601 1.339 . S
C602 C603 1.439 . S
C602 H631 0.950 . S
C603 N599 1.383 . S
C603 C602 1.439 . S
C603 C621 1.392 . S
N604 Co588 2.282 . S
N604 C607 1.332 . S
N604 C609 1.332 . S
C605 C606 1.386 . S
C605 C608 1.388 . S
C606 C605 1.386 . S
C606 C607 1.382 . S
C606 H632 0.950 . S
C607 N604 1.332 . S
C607 C606 1.382 . S
C607 H618 0.952 . S
C608 C605 1.388 . S
C608 C609 1.382 . S
C608 H633 0.950 . S
C609 N604 1.332 . S
C609 C608 1.382 . S
C609 H619 0.948 . S
N610 Co588 2.282 . S
N610 C614 1.332 . S
N610 C615 1.332 . S
C611 C612 1.388 . S
C611 C615 1.382 . S
C611 H634 0.950 . S
C612 C611 1.388 . S
C612 C613 1.386 . S
C613 C612 1.386 . S
C613 C614 1.382 . S
C613 H635 0.950 . S
C614 N610 1.332 . S
C614 C613 1.382 . S
C614 H616 0.952 . S
C615 N610 1.332 . S
C615 C611 1.382 . S
C615 H617 0.948 . S
H616 C614 0.952 . S
H617 C615 0.948 . S
H618 C607 0.952 . S
H619 C609 0.948 . S
C620 C586 1.395 . S
C620 C590 1.391 . S
C621 C583 1.389 . S
C621 C603 1.392 . S
C622 C593 1.392 . S
C622 C595 1.389 . S
C623 C598 1.395 . S
C623 C600 1.391 . S
H624 C584 0.951 . S
H625 C585 0.950 . S
H626 C591 0.949 1_556 S
H627 C592 0.950 1_556 S
H628 C596 0.951 . S
H629 C597 0.950 . S
H630 C601 0.949 . S
H631 C602 0.950 . S
H632 C606 0.950 . S
H633 C608 0.950 . S
H634 C611 0.950 . S
H635 C613 0.950 . S
C29 C347 1.800 . S
C82 C400 1.800 . S
C453 C135 1.800 . S
C188 C506 1.800 . S
C241 C559 1.800 . S
C612 C294 1.800 . S
C463 C39 1.972 . S
C92 C516 1.972 . S
C569 C145 1.972 . S
C622 C198 1.972 . S
C251 C357 1.972 . S
C304 C410 1.972 . S
C605 C22 3.156 1_655 S
C340 C75 3.156 1_565 S
C128 C393 3.156 . S
C446 C181 3.156 1_455 S
C499 C234 3.156 1_546 S
C552 C287 3.156 . S
C38 C568 2.144 . S
C621 C91 2.144 . S
C144 C356 2.145 . S
C197 C409 2.144 . S
C250 C462 2.144 . S
C303 C515 2.145 . S
