# Generated by pormake.
# Topology sxb, (6)-cn, num edge types: 1
# Building blocks:
#     Node 0, Type 0, BuildingBlock: UKALOJ_clean_sbu_0, # of connection points: 6
#     Node 1, Type 0, BuildingBlock: UKALOJ_clean_sbu_0, # of connection points: 6
#     Node 2, Type 0, BuildingBlock: UKALOJ_clean_sbu_0, # of connection points: 6
#     Node 3, Type 0, BuildingBlock: UKALOJ_clean_sbu_0, # of connection points: 6
#     Edge 4, Type (0, 0), BuildingBlock: AJUNOK_clean_linker_0, # of connection points: 2
#     Edge 5, Type (0, 0), BuildingBlock: AJUNOK_clean_linker_0, # of connection points: 2
#     Edge 6, Type (0, 0), BuildingBlock: AJUNOK_clean_linker_0, # of connection points: 2
#     Edge 7, Type (0, 0), BuildingBlock: AJUNOK_clean_linker_0, # of connection points: 2
#     Edge 8, Type (0, 0), BuildingBlock: AJUNOK_clean_linker_0, # of connection points: 2
#     Edge 9, Type (0, 0), BuildingBlock: AJUNOK_clean_linker_0, # of connection points: 2
#     Edge 10, Type (0, 0), BuildingBlock: AJUNOK_clean_linker_0, # of connection points: 2
#     Edge 11, Type (0, 0), BuildingBlock: AJUNOK_clean_linker_0, # of connection points: 2
#     Edge 12, Type (0, 0), BuildingBlock: AJUNOK_clean_linker_0, # of connection points: 2
#     Edge 13, Type (0, 0), BuildingBlock: AJUNOK_clean_linker_0, # of connection points: 2
#     Edge 14, Type (0, 0), BuildingBlock: AJUNOK_clean_linker_0, # of connection points: 2
#     Edge 15, Type (0, 0), BuildingBlock: AJUNOK_clean_linker_0, # of connection points: 2
# Relax obj value: 0.082
# Max RMSD: 0.145
# Mean RMSD: 0.145
data_MOF--net-sxb--node1-UKALOJ_clean_sbu_0--edge1-AJUNOK_clean_linker_0
_symmetry_space_group_name_H-M    P1
_symmetry_Int_Tables_number       1
_symmetry_cell_setting            triclinic
loop_
_symmetry_equiv_pos_as_xyz
'x, y, z'
_cell_length_a     11.002853
_cell_length_b     19.564021
_cell_length_c     32.391777
_cell_angle_alpha  98.294458
_cell_angle_beta   91.611515
_cell_angle_gamma 90.068876
loop_
_atom_site_label
_atom_site_type_symbol
_atom_site_fract_x
_atom_site_fract_y
_atom_site_fract_z
_atom_type_partial_charge
Zn0 Zn -0.02371 0.04844 0.08576 0.0
O1 O 0.03818 0.94609 0.08905 0.0
C2 C 0.2136 0.07057 0.05282 0.0
Zn3 Zn -0.03341 0.02993 1.01645 0.0
C4 C 0.0605 0.90763 0.05493 0.0
O5 O 0.02893 0.92767 1.02057 0.0
C6 C 0.88663 0.17163 0.04779 0.0
O7 O 0.78424 1.00072 1.01434 0.0
O8 O 0.79012 0.01996 0.08266 0.0
N9 N -0.02386 0.00798 0.95281 0.0
C10 C 0.9175 0.03099 0.92038 0.0
C11 C 0.05018 0.95873 0.89512 0.0
N12 N 0.05816 0.96296 0.93691 0.0
N13 N -0.03769 1.00074 0.88377 0.0
C14 C 0.01787 0.05214 0.18297 0.0
C15 C 0.87378 0.11925 0.20475 0.0
N16 N -0.03833 0.07186 0.14913 0.0
N17 N 0.87262 0.11382 0.16291 0.0
N18 N -0.03569 0.08114 0.21827 0.0
H19 H 0.0974 0.95223 0.17555 0.0
H20 H 0.18069 0.01599 0.21126 0.0
H21 H 0.18548 0.01743 0.15559 0.0
C22 C 0.12737 1.007 0.18137 0.0
C23 C 0.81431 0.08109 0.92463 0.0
H24 H 0.75177 0.07199 0.89689 0.0
H25 H 0.85134 0.13433 0.92728 0.0
H26 H 0.76322 0.07677 0.9531 0.0
O27 O 0.90517 0.13294 1.01349 0.0
O28 O 0.91737 0.15009 0.08166 0.0
C29 C 0.72905 1.00661 0.04855 0.0
O30 O 0.16141 0.07639 0.08771 0.0
O31 O 0.14963 0.05887 1.01929 0.0
Zn32 Zn 0.94705 0.04592 0.58496 0.0
O33 O 0.76174 0.07349 0.58582 0.0
C34 C 0.85654 0.90722 0.54901 0.0
Zn35 Zn 0.94396 0.03387 0.5158 0.0
C36 C 0.7035 0.07093 0.55114 0.0
O37 O 0.76165 0.06272 0.51752 0.0
C38 C 0.18731 0.00758 0.54881 0.0
O39 O 0.00548 0.1368 0.51646 0.0
O40 O 0.00813 0.14941 0.58472 0.0
N41 N 0.93052 0.018 0.45211 0.0
C42 C -0.00964 0.04399 0.42203 0.0
C43 C 0.85222 0.97652 0.39187 0.0
N44 N 0.84517 0.97593 0.43322 0.0
N45 N 0.94231 0.019 0.38403 0.0
C46 C 0.90524 0.03598 0.67945 0.0
C47 C 0.04442 0.10409 0.70822 0.0
N48 N -0.03793 0.06203 0.64873 0.0
N49 N 0.04806 0.10446 0.66679 0.0
N50 N 0.95596 0.06135 0.71707 0.0
H51 H 0.73772 1.00262 0.64677 0.0
H52 H 0.7436 0.9916 0.70137 0.0
H53 H 0.82773 0.93505 0.66361 0.0
C54 C 0.79678 0.9889 0.67258 0.0
C55 C 0.09862 0.09112 0.42974 0.0
H56 H 0.15316 0.07986 0.45716 0.0
H57 H 0.06714 0.14524 0.43633 0.0
H58 H 0.15651 0.08607 0.40196 0.0
O59 O 0.12638 1.0045 0.51472 0.0
O60 O 0.13219 0.01825 0.58307 0.0
C61 C 0.03291 0.1729 0.55131 0.0
O62 O 0.88636 0.94205 0.58411 0.0
O63 O 0.8808 0.93151 0.51585 0.0
Zn64 Zn 0.4827 0.55125 0.0829 0.0
O65 O 0.53883 0.44797 0.08472 0.0
C66 C 0.72022 0.57179 0.04745 0.0
Zn67 Zn 0.47375 0.53227 1.0136 0.0
C68 C 0.56323 0.40935 0.05097 0.0
O69 O 0.53701 0.43023 1.01645 0.0
C70 C 0.39422 0.67453 0.0464 0.0
O71 O 0.29218 0.50289 1.01374 0.0
O72 O 0.29598 0.52704 0.08212 0.0
N73 N 0.47717 0.51152 0.9498 0.0
C74 C 0.42281 0.53929 0.9183 0.0
C75 C 0.54697 0.46336 0.8911 0.0
N76 N 0.5537 0.46416 0.93269 0.0
N77 N 0.46581 0.51019 0.8812 0.0
C78 C 0.46249 0.53505 0.17715 0.0
C79 C 0.53799 0.6307 0.20675 0.0
N80 N 0.49172 0.57203 0.14674 0.0
N81 N 0.5386 0.63137 0.16525 0.0
N82 N 0.49189 0.57056 0.21513 0.0
H83 H 0.33915 0.46212 0.14133 0.0
H84 H 0.34533 0.45771 0.19671 0.0
H85 H 0.46827 0.42482 0.16404 0.0
C86 C 0.39943 0.46621 0.16949 0.0
C87 C 0.32371 0.59191 0.92376 0.0
H88 H 0.2638 0.58156 0.94913 0.0
H89 H 0.2689 0.59138 0.89443 0.0
H90 H 0.36449 0.64401 0.9326 0.0
O91 O 0.40983 0.63482 1.01227 0.0
O92 O 0.42768 0.65447 0.08055 0.0
C93 C 0.23611 0.51146 0.04785 0.0
O94 O 0.66792 0.57559 0.08212 0.0
O95 O 0.65647 0.56166 1.01388 0.0
Zn96 Zn 0.45112 0.54547 0.58211 0.0
O97 O 0.26476 0.57052 0.58475 0.0
C98 C 0.36537 0.40566 0.55003 0.0
Zn99 Zn 0.43848 0.53268 0.51249 0.0
C100 C 0.20189 0.56693 0.55089 0.0
O101 O 0.25424 0.55827 0.51612 0.0
C102 C 0.68689 0.5087 0.54294 0.0
O103 O 0.49246 0.63705 0.51135 0.0
O104 O 0.50737 0.64881 0.57964 0.0
N105 N 0.41844 0.51226 0.44853 0.0
C106 C 0.47086 0.53751 0.41667 0.0
C107 C 0.34125 0.46165 0.38983 0.0
N108 N 0.33827 0.46498 0.43164 0.0
N109 N 0.42398 0.50661 0.37975 0.0
C110 C 0.41377 0.54908 0.67874 0.0
C111 C 0.57732 0.60015 0.70292 0.0
N112 N 0.47597 0.56424 0.64586 0.0
N113 N 0.57722 0.59619 0.66112 0.0
N114 N 0.47555 0.57118 0.71488 0.0
H115 H 0.22668 0.55246 0.66078 0.0
H116 H 0.25319 0.51205 0.7064 0.0
H117 H 0.28996 0.46714 0.65551 0.0
C118 C 0.28897 0.51802 0.67548 0.0
C119 C 0.56988 0.59074 0.42129 0.0
H120 H 0.62257 0.59063 0.45089 0.0
H121 H 0.52834 0.64218 0.42087 0.0
H122 H 0.63196 0.5812 0.39467 0.0
O123 O 0.6241 0.50753 0.50934 0.0
O124 O 0.63513 0.51835 0.5778 0.0
C125 C 0.52386 0.6732 0.5459 0.0
O126 O 0.3967 0.4429 0.58411 0.0
O127 O 0.38234 0.42859 0.51577 0.0
C128 C 0.2249 0.74001 1.01659 0.0
C129 C 0.31717 0.73708 0.04738 0.0
C130 C 0.1398 0.794 1.0199 0.0
C131 C 0.14267 0.84698 0.05431 0.0
H132 H 0.21595 0.6993 0.99025 0.0
H133 H 0.07097 0.7941 0.99532 0.0
S134 S 0.37474 0.86742 0.1409 0.0
N135 N 0.41108 0.79432 0.11188 0.0
N136 N 0.25345 0.89593 0.11772 0.0
C137 C 0.23657 0.84543 0.08468 0.0
C138 C 0.32305 0.79056 0.08132 0.0
C139 C 0.667 0.30474 1.01379 0.0
C140 C 0.64027 0.34678 0.05152 0.0
C141 C 0.75028 0.25016 1.01258 0.0
C142 C 0.81124 0.23522 0.04901 0.0
H143 H 0.62388 0.31426 0.9847 0.0
H144 H 0.76523 0.21882 0.98283 0.0
S145 S 0.7774 0.331 0.15591 0.0
N146 N 0.68421 0.37029 0.1263 0.0
N147 N 0.84035 0.26838 0.12407 0.0
C148 C 0.78624 0.27728 0.08697 0.0
C149 C 0.70087 0.33262 0.08823 0.0
C150 C 0.12892 0.26511 0.51633 0.0
C151 C 0.11253 0.23496 0.55271 0.0
C152 C 0.21466 0.318 0.51527 0.0
C153 C 0.28822 0.34316 0.55054 0.0
H154 H 0.0751 0.24774 0.4883 0.0
H155 H 0.22117 0.34031 0.48668 0.0
S156 S 0.28532 0.28019 0.6533 0.0
N157 N 0.17999 0.23345 0.62485 0.0
N158 N 0.34091 0.33234 0.62269 0.0
C159 C 0.27353 0.31318 0.58707 0.0
C160 C 0.18573 0.25949 0.58824 0.0
C161 C 0.76216 0.81195 0.58195 0.0
C162 C 0.77491 0.84585 0.54685 0.0
C163 C 0.67715 0.75828 0.58188 0.0
C164 C 0.60036 0.73636 0.5468 0.0
H165 H 0.8186 0.82678 0.60973 0.0
H166 H 0.67384 0.73273 0.60936 0.0
S167 S 0.58861 0.8124 0.44831 0.0
N168 N 0.69762 0.856 0.47674 0.0
N169 N 0.53767 0.75604 0.47708 0.0
C170 C 0.61001 0.77092 0.5119 0.0
C171 C 0.69722 0.82523 0.51178 0.0
C172 C 0.41573 0.05664 0.08789 0.0
C173 C 0.34686 0.05954 0.05091 0.0
C174 C 0.53722 0.03526 0.08681 0.0
C175 C 0.59513 0.01552 0.0487 0.0
H176 H 0.37521 0.06997 0.11806 0.0
H177 H 0.58667 0.03562 0.11623 0.0
S178 S 0.45428 0.01143 0.94272 0.0
N179 N 0.34591 0.03998 0.97483 0.0
N180 N 0.57239 0.998 0.97292 0.0
C181 C 0.52668 0.01689 1.01145 0.0
C182 C 0.40353 0.03968 1.01252 0.0
C183 C 0.38375 0.04342 0.58631 0.0
C184 C 0.32113 0.01652 0.54892 0.0
C185 C 0.50559 0.06432 0.58649 0.0
C186 C 0.57002 0.05956 0.5493 0.0
H187 H 0.33771 0.0501 0.61573 0.0
H188 H 0.54983 0.08371 0.61618 0.0
S189 S 0.44917 0.99038 0.44297 0.0
N190 N 0.33423 0.98404 0.47381 0.0
N191 N 0.56192 0.02442 0.47387 0.0
C192 C 0.50858 0.03242 0.51163 0.0
C193 C 0.38492 0.01035 0.51155 0.0
C194 C 0.92201 0.56567 0.08375 0.0
C195 C 0.85349 0.56179 0.04614 0.0
C196 C 0.04379 0.54531 0.08419 0.0
C197 C 0.10244 0.52012 0.04703 0.0
H198 H 0.88093 0.58363 0.11334 0.0
H199 H 0.09277 0.55076 0.11398 0.0
S200 S -0.03683 0.49802 0.94002 0.0
N201 N 0.85343 0.5301 0.97055 0.0
N202 N 0.08156 0.49097 0.97147 0.0
C203 C 0.03473 0.51525 1.00915 0.0
C204 C 0.9109 0.53665 1.00865 0.0
C205 C -0.00648 0.57919 0.52075 0.0
C206 C 0.06982 0.55467 0.55079 0.0
C207 C 0.87023 0.56069 0.51682 0.0
C208 C 0.81959 0.51663 0.54258 0.0
H209 H 0.02936 0.61294 0.50023 0.0
H210 H 0.81343 0.58295 0.49441 0.0
S211 S -0.01539 0.42964 0.62127 0.0
N212 N 0.08891 0.4771 0.60296 0.0
N213 N 0.85616 0.44472 0.59663 0.0
C214 C 0.89545 0.49011 0.57178 0.0
C215 C 0.02095 0.50847 0.57559 0.0
C216 C -0.0168 0.98394 0.30987 0.0
C217 C -0.03198 0.03664 0.34365 0.0
C218 C -0.01042 0.99901 0.26896 0.0
C219 C -0.0194 0.06739 0.26052 0.0
H220 H -0.01447 0.93051 0.31509 0.0
H221 H -0.0058 0.95655 0.24367 0.0
S222 S 0.93859 0.22375 0.33803 0.0
N223 N 0.94236 0.15952 0.36599 0.0
N224 N 0.95774 0.18815 0.28925 0.0
C225 C -0.03139 0.12062 0.2942 0.0
C226 C -0.03829 0.10524 0.33577 0.0
C227 C 0.9316 0.08297 0.83326 0.0
C228 C 0.93859 0.01458 0.8418 0.0
C229 C 0.92981 0.09749 0.79211 0.0
C230 C 0.93504 0.04431 0.75803 0.0
H231 H 0.93513 0.12576 0.85844 0.0
H232 H 0.92961 0.1509 0.78681 0.0
S233 S 0.95464 0.85674 0.7637 0.0
N234 N 0.94779 0.8932 0.81285 0.0
N235 N 0.949 0.92073 0.73558 0.0
C236 C 0.93908 0.9757 0.76606 0.0
C237 C 0.94005 0.96087 0.80793 0.0
C238 C 0.40938 0.58639 0.32779 0.0
C239 C 0.44485 0.52231 0.33865 0.0
C240 C 0.42435 0.60142 0.2872 0.0
C241 C 0.47543 0.55289 0.25625 0.0
H242 H 0.36827 0.62449 0.35074 0.0
H243 H 0.39481 0.6511 0.27974 0.0
S244 S 0.59644 0.38102 0.27114 0.0
N245 N 0.53946 0.4118 0.31672 0.0
N246 N 0.57302 0.44102 0.24078 0.0
C247 C 0.51505 0.4895 0.26732 0.0
C248 C 0.49812 0.47393 0.30848 0.0
C249 C 0.42839 0.49173 0.76491 0.0
C250 C 0.45293 0.55897 0.75672 0.0
C251 C 0.42595 0.47695 0.80597 0.0
C252 C 0.44768 0.52885 0.84018 0.0
H253 H 0.41739 0.44969 0.73938 0.0
H254 H 0.41159 0.4241 0.81112 0.0
S255 S 0.51881 0.71265 0.83522 0.0
N256 N 0.49873 0.67772 0.78594 0.0
N257 N 0.49697 0.64963 0.86313 0.0
C258 C 0.47002 0.59645 0.83242 0.0
C259 C 0.47232 0.61149 0.79066 0.0
loop_
_geom_bond_atom_site_label_1
_geom_bond_atom_site_label_2
_geom_bond_distance
_geom_bond_site_symmetry_2
_ccdc_geom_bond_type
Zn0 O1 2.055 1_645 S
Zn0 O8 2.046 1_545 S
Zn0 N16 2.036 . S
Zn0 O28 2.053 . S
Zn0 O30 2.066 1_655 S
O1 Zn0 2.055 1_465 S
O1 C4 1.259 . S
C2 O30 1.256 . S
C2 O31 1.244 1_554 S
Zn3 O5 2.046 1_655 S
Zn3 O7 2.055 . S
Zn3 N9 2.036 1_655 S
Zn3 O27 2.066 1_565 S
Zn3 O31 2.053 1_665 S
C4 O1 1.259 . S
C4 O5 1.254 1_554 S
O5 Zn3 2.046 1_455 S
O5 C4 1.254 1_556 S
C6 O27 1.256 1_554 S
C6 O28 1.244 . S
O7 Zn3 2.055 . S
O7 C29 1.259 1_556 S
O8 Zn0 2.046 1_565 S
O8 C29 1.254 . S
N9 Zn3 2.036 1_455 S
N9 C10 1.298 1_465 S
N9 N12 1.398 . S
C10 N9 1.298 1_645 S
C10 N13 1.367 1_655 S
C10 C23 1.481 . S
C11 N12 1.299 . S
C11 N13 1.379 1_565 S
N12 N9 1.398 . S
N12 C11 1.299 . S
N13 C10 1.367 1_455 S
N13 C11 1.379 1_545 S
C14 N16 1.298 1_465 S
C14 N18 1.367 1_565 S
C14 C22 1.481 . S
C15 N17 1.299 . S
C15 N18 1.379 1_655 S
N16 Zn0 2.036 . S
N16 C14 1.298 1_645 S
N16 N17 1.398 . S
N17 C15 1.299 . S
N17 N16 1.398 . S
N18 C14 1.367 1_545 S
N18 C15 1.379 1_455 S
H19 C22 0.980 . S
H20 C22 0.981 . S
H21 C22 0.981 . S
C22 C14 1.481 . S
C22 H19 0.980 . S
C22 H20 0.981 . S
C22 H21 0.981 . S
C23 C10 1.481 . S
C23 H24 0.980 1_545 S
C23 H25 0.981 1_545 S
C23 H26 0.981 . S
H24 C23 0.980 1_565 S
H25 C23 0.981 1_565 S
H26 C23 0.981 . S
O27 Zn3 2.066 1_545 S
O27 C6 1.256 1_556 S
O28 Zn0 2.053 . S
O28 C6 1.244 . S
C29 O7 1.259 1_554 S
C29 O8 1.254 . S
O30 Zn0 2.066 1_455 S
O30 C2 1.256 . S
O31 C2 1.244 1_556 S
O31 Zn3 2.053 1_445 S
Zn32 O33 2.055 . S
Zn32 O40 2.046 1_655 S
Zn32 N48 2.036 1_655 S
Zn32 O60 2.053 1_655 S
Zn32 O62 2.066 1_545 S
O33 Zn32 2.055 . S
O33 C36 1.259 . S
C34 O62 1.256 . S
C34 O63 1.244 . S
Zn35 O37 2.046 . S
Zn35 O39 2.055 1_655 S
Zn35 N41 2.036 . S
Zn35 O59 2.066 1_655 S
Zn35 O63 2.053 1_545 S
C36 O33 1.259 . S
C36 O37 1.254 . S
O37 Zn35 2.046 . S
O37 C36 1.254 . S
C38 O59 1.256 . S
C38 O60 1.244 . S
O39 Zn35 2.055 1_455 S
O39 C61 1.259 . S
O40 Zn32 2.046 1_455 S
O40 C61 1.254 . S
N41 Zn35 2.036 . S
N41 C42 1.298 1_655 S
N41 N44 1.398 1_545 S
C42 N41 1.298 1_455 S
C42 N45 1.367 . S
C42 C55 1.481 . S
C43 N44 1.299 . S
C43 N45 1.379 1_665 S
N44 N41 1.398 1_565 S
N44 C43 1.299 . S
N45 C42 1.367 . S
N45 C43 1.379 1_445 S
C46 N48 1.298 1_655 S
C46 N50 1.367 1_655 S
C46 C54 1.481 . S
C47 N49 1.299 . S
C47 N50 1.379 . S
N48 Zn32 2.036 1_455 S
N48 C46 1.298 1_455 S
N48 N49 1.398 . S
N49 C47 1.299 . S
N49 N48 1.398 . S
N50 C46 1.367 1_455 S
N50 C47 1.379 . S
H51 C54 0.980 . S
H52 C54 0.981 . S
H53 C54 0.981 1_565 S
C54 C46 1.481 . S
C54 H51 0.980 . S
C54 H52 0.981 . S
C54 H53 0.981 1_545 S
C55 C42 1.481 . S
C55 H56 0.980 . S
C55 H57 0.981 . S
C55 H58 0.981 . S
H56 C55 0.980 . S
H57 C55 0.981 . S
H58 C55 0.981 . S
O59 Zn35 2.066 1_455 S
O59 C38 1.256 . S
O60 Zn32 2.053 1_455 S
O60 C38 1.244 . S
C61 O39 1.259 . S
C61 O40 1.254 . S
O62 Zn32 2.066 1_565 S
O62 C34 1.256 . S
O63 C34 1.244 . S
O63 Zn35 2.053 1_565 S
Zn64 O65 2.055 . S
Zn64 O72 2.046 . S
Zn64 N80 2.036 . S
Zn64 O92 2.053 . S
Zn64 O94 2.066 . S
O65 Zn64 2.055 . S
O65 C68 1.259 . S
C66 O94 1.256 . S
C66 O95 1.244 1_554 S
Zn67 O69 2.046 . S
Zn67 O71 2.055 . S
Zn67 N73 2.036 . S
Zn67 O91 2.066 . S
Zn67 O95 2.053 . S
C68 O65 1.259 . S
C68 O69 1.254 1_554 S
O69 Zn67 2.046 . S
O69 C68 1.254 1_556 S
C70 O91 1.256 1_554 S
C70 O92 1.244 . S
O71 Zn67 2.055 . S
O71 C93 1.259 1_556 S
O72 Zn64 2.046 . S
O72 C93 1.254 . S
N73 Zn67 2.036 . S
N73 C74 1.298 . S
N73 N76 1.398 . S
C74 N73 1.298 . S
C74 N77 1.367 . S
C74 C87 1.481 . S
C75 N76 1.299 . S
C75 N77 1.379 . S
N76 N73 1.398 . S
N76 C75 1.299 . S
N77 C74 1.367 . S
N77 C75 1.379 . S
C78 N80 1.298 . S
C78 N82 1.367 . S
C78 C86 1.481 . S
C79 N81 1.299 . S
C79 N82 1.379 . S
N80 Zn64 2.036 . S
N80 C78 1.298 . S
N80 N81 1.398 . S
N81 C79 1.299 . S
N81 N80 1.398 . S
N82 C78 1.367 . S
N82 C79 1.379 . S
H83 C86 0.980 . S
H84 C86 0.981 . S
H85 C86 0.981 . S
C86 C78 1.481 . S
C86 H83 0.980 . S
C86 H84 0.981 . S
C86 H85 0.981 . S
C87 C74 1.481 . S
C87 H88 0.980 . S
C87 H89 0.981 . S
C87 H90 0.981 . S
H88 C87 0.980 . S
H89 C87 0.981 . S
H90 C87 0.981 . S
O91 Zn67 2.066 . S
O91 C70 1.256 1_556 S
O92 Zn64 2.053 . S
O92 C70 1.244 . S
C93 O71 1.259 1_554 S
C93 O72 1.254 . S
O94 Zn64 2.066 . S
O94 C66 1.256 . S
O95 C66 1.244 1_556 S
O95 Zn67 2.053 . S
Zn96 O97 2.055 . S
Zn96 O104 2.046 . S
Zn96 N112 2.036 . S
Zn96 O124 2.053 . S
Zn96 O126 2.066 . S
O97 Zn96 2.055 . S
O97 C100 1.259 . S
C98 O126 1.256 . S
C98 O127 1.244 . S
Zn99 O101 2.046 . S
Zn99 O103 2.055 . S
Zn99 N105 2.036 . S
Zn99 O123 2.066 . S
Zn99 O127 2.053 . S
C100 O97 1.259 . S
C100 O101 1.254 . S
O101 Zn99 2.046 . S
O101 C100 1.254 . S
C102 O123 1.256 . S
C102 O124 1.244 . S
O103 Zn99 2.055 . S
O103 C125 1.259 . S
O104 Zn96 2.046 . S
O104 C125 1.254 . S
N105 Zn99 2.036 . S
N105 C106 1.298 . S
N105 N108 1.398 . S
C106 N105 1.298 . S
C106 N109 1.367 . S
C106 C119 1.481 . S
C107 N108 1.299 . S
C107 N109 1.379 . S
N108 N105 1.398 . S
N108 C107 1.299 . S
N109 C106 1.367 . S
N109 C107 1.379 . S
C110 N112 1.298 . S
C110 N114 1.367 . S
C110 C118 1.481 . S
C111 N113 1.299 . S
C111 N114 1.379 . S
N112 Zn96 2.036 . S
N112 C110 1.298 . S
N112 N113 1.398 . S
N113 C111 1.299 . S
N113 N112 1.398 . S
N114 C110 1.367 . S
N114 C111 1.379 . S
H115 C118 0.980 . S
H116 C118 0.981 . S
H117 C118 0.981 . S
C118 C110 1.481 . S
C118 H115 0.980 . S
C118 H116 0.981 . S
C118 H117 0.981 . S
C119 C106 1.481 . S
C119 H120 0.980 . S
C119 H121 0.981 . S
C119 H122 0.981 . S
H120 C119 0.980 . S
H121 C119 0.981 . S
H122 C119 0.981 . S
O123 Zn99 2.066 . S
O123 C102 1.256 . S
O124 Zn96 2.053 . S
O124 C102 1.244 . S
C125 O103 1.259 . S
C125 O104 1.254 . S
O126 Zn96 2.066 . S
O126 C98 1.256 . S
O127 C98 1.244 . S
O127 Zn99 2.053 . S
C128 C129 1.369 1_556 S
C128 C130 1.419 . S
C128 H132 0.930 . S
C129 C128 1.369 1_554 S
C129 C138 1.429 . S
C130 C128 1.419 . S
C130 C131 1.363 1_556 S
C130 H133 0.929 . S
C131 C130 1.363 1_554 S
C131 C137 1.428 . S
H132 C128 0.930 . S
H133 C130 0.929 . S
S134 N135 1.613 . S
S134 N136 1.610 . S
N135 S134 1.613 . S
N135 C138 1.350 . S
N136 S134 1.610 . S
N136 C137 1.351 . S
C137 C131 1.428 . S
C137 N136 1.351 . S
C137 C138 1.434 . S
C138 C129 1.429 . S
C138 N135 1.350 . S
C138 C137 1.434 . S
C139 C140 1.369 1_556 S
C139 C141 1.419 . S
C139 H143 0.930 . S
C140 C139 1.369 1_554 S
C140 C149 1.429 . S
C141 C139 1.419 . S
C141 C142 1.363 1_556 S
C141 H144 0.929 . S
C142 C141 1.363 1_554 S
C142 C148 1.428 . S
H143 C139 0.930 . S
H144 C141 0.929 . S
S145 N146 1.613 . S
S145 N147 1.610 . S
N146 S145 1.613 . S
N146 C149 1.350 . S
N147 S145 1.610 . S
N147 C148 1.351 . S
C148 C142 1.428 . S
C148 N147 1.351 . S
C148 C149 1.434 . S
C149 C140 1.429 . S
C149 N146 1.350 . S
C149 C148 1.434 . S
C150 C151 1.369 . S
C150 C152 1.419 . S
C150 H154 0.930 . S
C151 C150 1.369 . S
C151 C160 1.429 . S
C152 C150 1.419 . S
C152 C153 1.363 . S
C152 H155 0.929 . S
C153 C152 1.363 . S
C153 C159 1.428 . S
H154 C150 0.930 . S
H155 C152 0.929 . S
S156 N157 1.613 . S
S156 N158 1.610 . S
N157 S156 1.613 . S
N157 C160 1.350 . S
N158 S156 1.610 . S
N158 C159 1.351 . S
C159 C153 1.428 . S
C159 N158 1.351 . S
C159 C160 1.434 . S
C160 C151 1.429 . S
C160 N157 1.350 . S
C160 C159 1.434 . S
C161 C162 1.369 . S
C161 C163 1.419 . S
C161 H165 0.930 . S
C162 C161 1.369 . S
C162 C171 1.429 . S
C163 C161 1.419 . S
C163 C164 1.363 . S
C163 H166 0.929 . S
C164 C163 1.363 . S
C164 C170 1.428 . S
H165 C161 0.930 . S
H166 C163 0.929 . S
S167 N168 1.613 . S
S167 N169 1.610 . S
N168 S167 1.613 . S
N168 C171 1.350 . S
N169 S167 1.610 . S
N169 C170 1.351 . S
C170 C164 1.428 . S
C170 N169 1.351 . S
C170 C171 1.434 . S
C171 C162 1.429 . S
C171 N168 1.350 . S
C171 C170 1.434 . S
C172 C173 1.369 1_565 S
C172 C174 1.419 . S
C172 H176 0.930 . S
C173 C172 1.369 1_545 S
C173 C182 1.429 1_554 S
C174 C172 1.419 . S
C174 C175 1.363 . S
C174 H177 0.929 . S
C175 C174 1.363 . S
C175 C181 1.428 1_564 S
H176 C172 0.930 . S
H177 C174 0.929 . S
S178 N179 1.613 . S
S178 N180 1.610 . S
N179 S178 1.613 . S
N179 C182 1.350 . S
N180 S178 1.610 . S
N180 C181 1.351 . S
C181 C175 1.428 1_546 S
C181 N180 1.351 . S
C181 C182 1.434 . S
C182 C173 1.429 1_556 S
C182 N179 1.350 . S
C182 C181 1.434 . S
C183 C184 1.369 . S
C183 C185 1.419 . S
C183 H187 0.930 1_545 S
C184 C183 1.369 . S
C184 C193 1.429 . S
C185 C183 1.419 . S
C185 C186 1.363 . S
C185 H188 0.929 . S
C186 C185 1.363 . S
C186 C192 1.428 . S
H187 C183 0.930 1_565 S
H188 C185 0.929 . S
S189 N190 1.613 . S
S189 N191 1.610 . S
N190 S189 1.613 . S
N190 C193 1.350 . S
N191 S189 1.610 . S
N191 C192 1.351 . S
C192 C186 1.428 . S
C192 N191 1.351 . S
C192 C193 1.434 . S
C193 C184 1.429 . S
C193 N190 1.350 . S
C193 C192 1.434 . S
C194 C195 1.369 . S
C194 C196 1.419 1_655 S
C194 H198 0.930 . S
C195 C194 1.369 . S
C195 C204 1.429 . S
C196 C194 1.419 1_455 S
C196 C197 1.363 . S
C196 H199 0.929 . S
C197 C196 1.363 . S
C197 C203 1.428 . S
H198 C194 0.930 . S
H199 C196 0.929 . S
S200 N201 1.613 1_556 S
S200 N202 1.610 1_655 S
N201 S200 1.613 1_554 S
N201 C204 1.350 . S
N202 S200 1.610 1_455 S
N202 C203 1.351 1_556 S
C203 C197 1.428 . S
C203 N202 1.351 1_554 S
C203 C204 1.434 1_455 S
C204 C195 1.429 . S
C204 N201 1.350 . S
C204 C203 1.434 1_655 S
C205 C206 1.369 . S
C205 C207 1.419 1_455 S
C205 H209 0.930 . S
C206 C205 1.369 . S
C206 C215 1.429 . S
C207 C205 1.419 1_655 S
C207 C208 1.363 . S
C207 H210 0.929 . S
C208 C207 1.363 . S
C208 C214 1.428 . S
H209 C205 0.930 . S
H210 C207 0.929 . S
S211 N212 1.613 1_655 S
S211 N213 1.610 . S
N212 S211 1.613 1_455 S
N212 C215 1.350 . S
N213 S211 1.610 . S
N213 C214 1.351 . S
C214 C208 1.428 . S
C214 N213 1.351 . S
C214 C215 1.434 1_655 S
C215 C206 1.429 . S
C215 N212 1.350 . S
C215 C214 1.434 1_455 S
C216 C217 1.369 1_565 S
C216 C218 1.419 . S
C216 H220 0.930 1_455 S
C217 C216 1.369 1_545 S
C217 C226 1.429 . S
C218 C216 1.419 . S
C218 C219 1.363 1_565 S
C218 H221 0.929 1_455 S
C219 C218 1.363 1_545 S
C219 C225 1.428 . S
H220 C216 0.930 1_655 S
H221 C218 0.929 1_655 S
S222 N223 1.613 . S
S222 N224 1.610 . S
N223 S222 1.613 . S
N223 C226 1.350 . S
N224 S222 1.610 . S
N224 C225 1.351 . S
C225 C219 1.428 . S
C225 N224 1.351 . S
C225 C226 1.434 . S
C226 C217 1.429 . S
C226 N223 1.350 . S
C226 C225 1.434 . S
C227 C228 1.369 1_455 S
C227 C229 1.419 . S
C227 H231 0.930 . S
C228 C227 1.369 1_655 S
C228 C237 1.429 1_545 S
C229 C227 1.419 . S
C229 C230 1.363 1_455 S
C229 H232 0.929 . S
C230 C229 1.363 1_655 S
C230 C236 1.428 1_545 S
H231 C227 0.930 . S
H232 C229 0.929 . S
S233 N234 1.613 . S
S233 N235 1.610 . S
N234 S233 1.613 . S
N234 C237 1.350 . S
N235 S233 1.610 . S
N235 C236 1.351 . S
C236 C230 1.428 1_565 S
C236 N235 1.351 . S
C236 C237 1.434 . S
C237 C228 1.429 1_565 S
C237 N234 1.350 . S
C237 C236 1.434 . S
C238 C239 1.369 . S
C238 C240 1.419 . S
C238 H242 0.930 . S
C239 C238 1.369 . S
C239 C248 1.429 . S
C240 C238 1.419 . S
C240 C241 1.363 . S
C240 H243 0.929 . S
C241 C240 1.363 . S
C241 C247 1.428 . S
H242 C238 0.930 . S
H243 C240 0.929 . S
S244 N245 1.613 . S
S244 N246 1.610 . S
N245 S244 1.613 . S
N245 C248 1.350 . S
N246 S244 1.610 . S
N246 C247 1.351 . S
C247 C241 1.428 . S
C247 N246 1.351 . S
C247 C248 1.434 . S
C248 C239 1.429 . S
C248 N245 1.350 . S
C248 C247 1.434 . S
C249 C250 1.369 . S
C249 C251 1.419 . S
C249 H253 0.930 . S
C250 C249 1.369 . S
C250 C259 1.429 . S
C251 C249 1.419 . S
C251 C252 1.363 . S
C251 H254 0.929 . S
C252 C251 1.363 . S
C252 C258 1.428 . S
H253 C249 0.930 . S
H254 C251 0.929 . S
S255 N256 1.613 . S
S255 N257 1.610 . S
N256 S255 1.613 . S
N256 C259 1.350 . S
N257 S255 1.610 . S
N257 C258 1.351 . S
C258 C252 1.428 . S
C258 N257 1.351 . S
C258 C259 1.434 . S
C259 C250 1.429 . S
C259 N256 1.350 . S
C259 C258 1.434 . S
C129 C70 1.582 . S
C131 C4 1.592 . S
C140 C68 1.591 . S
C142 C6 1.583 . S
C151 C61 1.591 . S
C153 C98 1.582 . S
C162 C34 1.578 . S
C164 C125 1.594 . S
C173 C2 1.122 . S
C175 C29 1.130 . S
C184 C38 1.122 . S
C186 C36 1.130 . S
C195 C66 1.118 . S
C197 C93 1.132 . S
C206 C100 1.129 . S
C208 C102 1.123 . S
C217 N45 1.483 . S
C219 N18 1.482 . S
C228 N13 1.459 1_655 S
C230 N50 1.462 1_655 S
C239 N109 1.486 . S
C241 N82 1.485 . S
C250 N114 1.456 . S
C252 N77 1.456 . S
