# Generated by pormake.
# Topology snl, (6)-cn, num edge types: 1
# Building blocks:
#     Node 0, Type 0, BuildingBlock: MIFKUJ_clean_sbu_0, # of connection points: 6
#     Node 1, Type 0, BuildingBlock: MIFKUJ_clean_sbu_0, # of connection points: 6
#     Node 2, Type 0, BuildingBlock: MIFKUJ_clean_sbu_0, # of connection points: 6
#     Node 3, Type 0, BuildingBlock: MIFKUJ_clean_sbu_0, # of connection points: 6
#     Node 4, Type 0, BuildingBlock: MIFKUJ_clean_sbu_0, # of connection points: 6
#     Node 5, Type 0, BuildingBlock: MIFKUJ_clean_sbu_0, # of connection points: 6
#     Node 6, Type 0, BuildingBlock: MIFKUJ_clean_sbu_0, # of connection points: 6
#     Node 7, Type 0, BuildingBlock: MIFKUJ_clean_sbu_0, # of connection points: 6
#     Node 8, Type 0, BuildingBlock: MIFKUJ_clean_sbu_0, # of connection points: 6
#     Node 9, Type 0, BuildingBlock: MIFKUJ_clean_sbu_0, # of connection points: 6
#     Node 10, Type 0, BuildingBlock: MIFKUJ_clean_sbu_0, # of connection points: 6
#     Node 11, Type 0, BuildingBlock: MIFKUJ_clean_sbu_0, # of connection points: 6
#     Node 12, Type 0, BuildingBlock: MIFKUJ_clean_sbu_0, # of connection points: 6
#     Node 13, Type 0, BuildingBlock: MIFKUJ_clean_sbu_0, # of connection points: 6
#     Node 14, Type 0, BuildingBlock: MIFKUJ_clean_sbu_0, # of connection points: 6
#     Node 15, Type 0, BuildingBlock: MIFKUJ_clean_sbu_0, # of connection points: 6
#     Edge 16, Type (0, 0), BuildingBlock: XIVTED_clean_linker_0, # of connection points: 2
#     Edge 17, Type (0, 0), BuildingBlock: XIVTED_clean_linker_0, # of connection points: 2
#     Edge 18, Type (0, 0), BuildingBlock: XIVTED_clean_linker_0, # of connection points: 2
#     Edge 19, Type (0, 0), BuildingBlock: XIVTED_clean_linker_0, # of connection points: 2
#     Edge 20, Type (0, 0), BuildingBlock: XIVTED_clean_linker_0, # of connection points: 2
#     Edge 21, Type (0, 0), BuildingBlock: XIVTED_clean_linker_0, # of connection points: 2
#     Edge 22, Type (0, 0), BuildingBlock: XIVTED_clean_linker_0, # of connection points: 2
#     Edge 23, Type (0, 0), BuildingBlock: XIVTED_clean_linker_0, # of connection points: 2
#     Edge 24, Type (0, 0), BuildingBlock: XIVTED_clean_linker_0, # of connection points: 2
#     Edge 25, Type (0, 0), BuildingBlock: XIVTED_clean_linker_0, # of connection points: 2
#     Edge 26, Type (0, 0), BuildingBlock: XIVTED_clean_linker_0, # of connection points: 2
#     Edge 27, Type (0, 0), BuildingBlock: XIVTED_clean_linker_0, # of connection points: 2
#     Edge 28, Type (0, 0), BuildingBlock: XIVTED_clean_linker_0, # of connection points: 2
#     Edge 29, Type (0, 0), BuildingBlock: XIVTED_clean_linker_0, # of connection points: 2
#     Edge 30, Type (0, 0), BuildingBlock: XIVTED_clean_linker_0, # of connection points: 2
#     Edge 31, Type (0, 0), BuildingBlock: XIVTED_clean_linker_0, # of connection points: 2
#     Edge 32, Type (0, 0), BuildingBlock: XIVTED_clean_linker_0, # of connection points: 2
#     Edge 33, Type (0, 0), BuildingBlock: XIVTED_clean_linker_0, # of connection points: 2
#     Edge 34, Type (0, 0), BuildingBlock: XIVTED_clean_linker_0, # of connection points: 2
#     Edge 35, Type (0, 0), BuildingBlock: XIVTED_clean_linker_0, # of connection points: 2
#     Edge 36, Type (0, 0), BuildingBlock: XIVTED_clean_linker_0, # of connection points: 2
#     Edge 37, Type (0, 0), BuildingBlock: XIVTED_clean_linker_0, # of connection points: 2
#     Edge 38, Type (0, 0), BuildingBlock: XIVTED_clean_linker_0, # of connection points: 2
#     Edge 39, Type (0, 0), BuildingBlock: XIVTED_clean_linker_0, # of connection points: 2
#     Edge 40, Type (0, 0), BuildingBlock: XIVTED_clean_linker_0, # of connection points: 2
#     Edge 41, Type (0, 0), BuildingBlock: XIVTED_clean_linker_0, # of connection points: 2
#     Edge 42, Type (0, 0), BuildingBlock: XIVTED_clean_linker_0, # of connection points: 2
#     Edge 43, Type (0, 0), BuildingBlock: XIVTED_clean_linker_0, # of connection points: 2
#     Edge 44, Type (0, 0), BuildingBlock: XIVTED_clean_linker_0, # of connection points: 2
#     Edge 45, Type (0, 0), BuildingBlock: XIVTED_clean_linker_0, # of connection points: 2
#     Edge 46, Type (0, 0), BuildingBlock: XIVTED_clean_linker_0, # of connection points: 2
#     Edge 47, Type (0, 0), BuildingBlock: XIVTED_clean_linker_0, # of connection points: 2
#     Edge 48, Type (0, 0), BuildingBlock: XIVTED_clean_linker_0, # of connection points: 2
#     Edge 49, Type (0, 0), BuildingBlock: XIVTED_clean_linker_0, # of connection points: 2
#     Edge 50, Type (0, 0), BuildingBlock: XIVTED_clean_linker_0, # of connection points: 2
#     Edge 51, Type (0, 0), BuildingBlock: XIVTED_clean_linker_0, # of connection points: 2
#     Edge 52, Type (0, 0), BuildingBlock: XIVTED_clean_linker_0, # of connection points: 2
#     Edge 53, Type (0, 0), BuildingBlock: XIVTED_clean_linker_0, # of connection points: 2
#     Edge 54, Type (0, 0), BuildingBlock: XIVTED_clean_linker_0, # of connection points: 2
#     Edge 55, Type (0, 0), BuildingBlock: XIVTED_clean_linker_0, # of connection points: 2
#     Edge 56, Type (0, 0), BuildingBlock: XIVTED_clean_linker_0, # of connection points: 2
#     Edge 57, Type (0, 0), BuildingBlock: XIVTED_clean_linker_0, # of connection points: 2
#     Edge 58, Type (0, 0), BuildingBlock: XIVTED_clean_linker_0, # of connection points: 2
#     Edge 59, Type (0, 0), BuildingBlock: XIVTED_clean_linker_0, # of connection points: 2
#     Edge 60, Type (0, 0), BuildingBlock: XIVTED_clean_linker_0, # of connection points: 2
#     Edge 61, Type (0, 0), BuildingBlock: XIVTED_clean_linker_0, # of connection points: 2
#     Edge 62, Type (0, 0), BuildingBlock: XIVTED_clean_linker_0, # of connection points: 2
#     Edge 63, Type (0, 0), BuildingBlock: XIVTED_clean_linker_0, # of connection points: 2
# Relax obj value: 0.125
# Max RMSD: 0.180
# Mean RMSD: 0.162
data_MOF--net-snl--node1-MIFKUJ_clean_sbu_0--edge1-XIVTED_clean_linker_0
_symmetry_space_group_name_H-M    P1
_symmetry_Int_Tables_number       1
_symmetry_cell_setting            triclinic
loop_
_symmetry_equiv_pos_as_xyz
'x, y, z'
_cell_length_a     61.095433
_cell_length_b     62.62043
_cell_length_c     18.632778
_cell_angle_alpha  88.951455
_cell_angle_beta   90.953006
_cell_angle_gamma 90.070949
loop_
_atom_site_label
_atom_site_type_symbol
_atom_site_fract_x
_atom_site_fract_y
_atom_site_fract_z
_atom_type_partial_charge
Zn0 Zn 0.13238 0.6122 0.21387 0.0
Zn1 Zn 0.12835 0.62122 0.04591 0.0
C2 C 0.17743 0.59866 0.22367 0.0
O3 O 0.16815 0.58004 0.23593 0.0
C4 C 0.08326 0.63365 0.05708 0.0
O5 O 0.09153 0.65217 0.03728 0.0
O6 O 0.12636 0.60749 0.31941 0.0
O7 O 0.11935 0.64113 0.18909 0.0
O8 O 0.13942 0.64778 0.09429 0.0
C9 C 0.13361 0.6219 0.36089 0.0
O10 O 0.14387 0.6384 0.33267 0.0
O11 O 0.16541 0.61484 0.2099 0.0
C12 C 0.1227 0.61127 0.89825 0.0
O13 O 0.1134 0.59443 0.92792 0.0
O14 O 0.13065 0.6256 0.93862 0.0
O15 O 0.14395 0.59366 0.06879 0.0
O16 O 0.12258 0.58586 0.15932 0.0
O17 O 0.09593 0.61765 0.06529 0.0
C18 C 0.12926 0.65439 0.14855 0.0
C19 C 0.13383 0.57988 0.10648 0.0
Zn20 Zn 0.61641 0.89625 0.43741 0.0
Zn21 Zn 0.61205 0.85578 0.25901 0.0
C22 C 0.63124 0.93659 0.49177 0.0
O23 O 0.64491 0.92411 0.52798 0.0
C24 C 0.62147 0.81496 0.32943 0.0
O25 O 0.62986 0.82699 0.37998 0.0
O26 O 0.61873 0.88354 0.5378 0.0
O27 O 0.58631 0.8894 0.39698 0.0
O28 O 0.58524 0.86779 0.3037 0.0
C29 C 0.60438 0.88913 0.58242 0.0
O30 O 0.58855 0.90196 0.5603 0.0
O31 O 0.6174 0.92826 0.44886 0.0
C32 C 0.62234 0.85389 0.10841 0.0
O33 O 0.63901 0.8426 0.13335 0.0
O34 O 0.60864 0.86123 0.15229 0.0
O35 O 0.64116 0.86776 0.28814 0.0
O36 O 0.64359 0.88895 0.38238 0.0
O37 O 0.61274 0.82382 0.27412 0.0
C38 C 0.57568 0.87912 0.34953 0.0
C39 C 0.65231 0.87921 0.33081 0.0
Zn40 Zn 0.35994 0.38162 0.68881 0.0
Zn41 Zn 0.38374 0.37642 0.50576 0.0
C42 C 0.31894 0.39148 0.75855 0.0
O43 O 0.33216 0.39922 0.80791 0.0
C44 C 0.42251 0.38259 0.5965 0.0
O45 O 0.41051 0.37351 0.64633 0.0
O46 O 0.37375 0.3831 0.78719 0.0
O47 O 0.36571 0.35162 0.65439 0.0
O48 O 0.37903 0.34719 0.54576 0.0
C49 C 0.37173 0.36722 0.83001 0.0
O50 O 0.36163 0.35 0.80746 0.0
O51 O 0.32699 0.38376 0.70199 0.0
C52 C 0.39046 0.38785 0.35757 0.0
O53 O 0.39673 0.40615 0.38459 0.0
O54 O 0.38414 0.37294 0.39946 0.0
O55 O 0.36034 0.39802 0.52467 0.0
O56 O 0.37004 0.40799 0.63314 0.0
O57 O 0.41406 0.38633 0.53475 0.0
C58 C 0.37218 0.3396 0.6048 0.0
C59 C 0.3654 0.41263 0.56802 0.0
Zn60 Zn 0.87856 0.11639 0.96985 0.0
Zn61 Zn 0.88237 0.13794 0.78718 0.0
C62 C 0.86013 0.0749 0.98611 0.0
O63 O 0.8458 0.0861 0.02135 0.0
C64 C 0.87739 0.17832 0.86269 0.0
O65 O 0.88331 0.16715 0.9201 0.0
O66 O 0.87796 0.12024 0.07643 0.0
O67 O 0.90872 0.12538 0.94187 0.0
O68 O 0.91274 0.13253 0.82578 0.0
C69 C 0.89163 0.10936 0.11397 0.0
O70 O 0.90514 0.09656 0.08149 0.0
O71 O 0.8758 0.08462 0.95548 0.0
C72 C 0.89383 0.12034 0.65035 0.0
O73 O 0.9045 0.10617 0.69029 0.0
O74 O 0.88346 0.13519 0.68038 0.0
O75 O 0.85745 0.11905 0.81833 0.0
O76 O 0.85195 0.13082 0.92706 0.0
O77 O 0.87541 0.16904 0.80283 0.0
C78 C 0.92071 0.12978 0.88862 0.0
C79 C 0.84451 0.12531 0.86618 0.0
Zn80 Zn 0.12368 0.38193 0.96645 0.0
Zn81 Zn 0.11711 0.37274 0.79339 0.0
C82 C 0.1394 0.42504 0.97983 0.0
O83 O 0.15821 0.41515 0.98905 0.0
C84 C 0.10678 0.32874 0.8011 0.0
O85 O 0.09042 0.33608 0.76121 0.0
O86 O 0.12776 0.37409 0.0709 0.0
O87 O 0.09326 0.37098 0.94074 0.0
O88 O 0.0886 0.38336 0.82973 0.0
C89 C 0.11327 0.38117 0.11245 0.0
O90 O 0.09699 0.39245 0.08475 0.0
O91 O 0.1223 0.41417 0.96593 0.0
C92 C 0.12837 0.36471 0.64725 0.0
O93 O 0.1456 0.35572 0.67816 0.0
O94 O 0.11387 0.373 0.68611 0.0
O95 O 0.14449 0.38931 0.8133 0.0
O96 O 0.1514 0.37272 0.91626 0.0
O97 O 0.12101 0.34185 0.82441 0.0
C98 C 0.08076 0.37684 0.88882 0.0
C99 C 0.15814 0.38183 0.85916 0.0
Zn100 Zn 0.85499 0.8823 0.17913 0.0
Zn101 Zn 0.89412 0.87645 0.999 0.0
C102 C 0.81315 0.89305 0.23709 0.0
O103 O 0.82488 0.90758 0.2702 0.0
C104 C 0.93464 0.87501 0.08134 0.0
O105 O 0.92167 0.86897 0.13348 0.0
O106 O 0.86885 0.88522 0.27754 0.0
O107 O 0.86373 0.85403 0.13968 0.0
O108 O 0.88362 0.84858 0.04324 0.0
C109 C 0.8638 0.87083 0.32339 0.0
O110 O 0.85098 0.85512 0.30307 0.0
O111 O 0.82252 0.88047 0.19451 0.0
C112 C 0.89761 0.88734 0.8482 0.0
O113 O 0.90793 0.90414 0.87306 0.0
O114 O 0.89033 0.8734 0.89219 0.0
O115 O 0.88023 0.9046 0.02376 0.0
O116 O 0.85975 0.90894 0.1198 0.0
O117 O 0.92645 0.87906 0.01945 0.0
C118 C 0.8727 0.84152 0.0961 0.0
C119 C 0.86875 0.9163 0.06355 0.0
Zn120 Zn 0.37414 0.61151 0.42246 0.0
Zn121 Zn 0.38147 0.61168 0.25685 0.0
C122 C 0.35987 0.56775 0.43322 0.0
O123 O 0.3408 0.57688 0.44237 0.0
C124 C 0.3953 0.65464 0.2471 0.0
O125 O 0.4118 0.64486 0.21749 0.0
O126 O 0.37023 0.61774 0.52782 0.0
O127 O 0.40355 0.624 0.39546 0.0
O128 O 0.40915 0.6017 0.30777 0.0
C129 C 0.38449 0.60975 0.57108 0.0
O130 O 0.40084 0.59893 0.54481 0.0
O131 O 0.37656 0.57932 0.42098 0.0
C132 C 0.37108 0.6166 0.10763 0.0
O133 O 0.35469 0.62712 0.13494 0.0
O134 O 0.38514 0.60793 0.15003 0.0
O135 O 0.35266 0.59805 0.28154 0.0
O136 O 0.34654 0.62077 0.36747 0.0
O137 O 0.37938 0.64354 0.27017 0.0
C138 C 0.41669 0.6138 0.35642 0.0
C139 C 0.33933 0.60896 0.31746 0.0
Zn140 Zn 0.64267 0.1283 0.694 0.0
Zn141 Zn 0.60783 0.13526 0.50574 0.0
C142 C 0.68249 0.11948 0.7778 0.0
O143 O 0.66918 0.11089 0.82488 0.0
C144 C 0.56325 0.14844 0.51282 0.0
O145 O 0.5702 0.16359 0.46907 0.0
O146 O 0.6264 0.12651 0.78778 0.0
O147 O 0.63839 0.15756 0.64899 0.0
O148 O 0.62096 0.16218 0.54455 0.0
C149 C 0.6287 0.14215 0.82988 0.0
O150 O 0.64006 0.15883 0.80827 0.0
O151 O 0.67474 0.12753 0.71967 0.0
C152 C 0.60039 0.12464 0.35586 0.0
O153 O 0.59127 0.10739 0.38328 0.0
O154 O 0.60833 0.13855 0.3978 0.0
O155 O 0.62053 0.10648 0.53068 0.0
O156 O 0.6379 0.10178 0.6355 0.0
O157 O 0.57663 0.13434 0.53595 0.0
C158 C 0.63146 0.1696 0.59794 0.0
C159 C 0.63049 0.09458 0.57649 0.0
Zn160 Zn 0.87453 0.37327 0.99353 0.0
Zn161 Zn 0.86714 0.37938 0.82148 0.0
C162 C 0.91963 0.36133 0.96189 0.0
O163 O 0.91246 0.34176 0.97217 0.0
C164 C 0.82184 0.39411 0.81163 0.0
O165 O 0.83075 0.41319 0.80778 0.0
O166 O 0.87399 0.36984 0.10092 0.0
O167 O 0.85816 0.40023 0.97051 0.0
O168 O 0.8771 0.40641 0.87302 0.0
C169 C 0.88217 0.38413 0.14085 0.0
O170 O 0.89111 0.40112 0.11097 0.0
O171 O 0.90652 0.37697 0.96728 0.0
C172 C 0.8675 0.36893 0.67517 0.0
O173 O 0.85635 0.35282 0.70225 0.0
O174 O 0.87468 0.38321 0.71715 0.0
O175 O 0.87804 0.34961 0.84936 0.0
O176 O 0.86198 0.34633 0.95394 0.0
O177 O 0.83406 0.37781 0.82029 0.0
C178 C 0.86698 0.41333 0.92705 0.0
C179 C 0.86943 0.33794 0.89791 0.0
Zn180 Zn 0.3706 0.13889 0.73128 0.0
Zn181 Zn 0.36144 0.13458 0.56236 0.0
C182 C 0.38347 0.18287 0.71334 0.0
O183 O 0.40263 0.17522 0.73386 0.0
C184 C 0.34708 0.09189 0.55241 0.0
O185 O 0.32919 0.10226 0.53302 0.0
O186 O 0.37557 0.13666 0.83837 0.0
O187 O 0.34177 0.12472 0.71195 0.0
O188 O 0.33425 0.14349 0.6132 0.0
C189 C 0.36144 0.14522 0.87812 0.0
O190 O 0.34462 0.15508 0.84779 0.0
O191 O 0.36721 0.1703 0.70784 0.0
C192 C 0.37206 0.13354 0.41603 0.0
O193 O 0.38891 0.12354 0.44568 0.0
O194 O 0.35715 0.14049 0.45631 0.0
O195 O 0.39019 0.14818 0.58772 0.0
O196 O 0.39744 0.12781 0.68242 0.0
O197 O 0.36396 0.1025 0.57075 0.0
C198 C 0.32793 0.13334 0.66884 0.0
C199 C 0.40397 0.13843 0.6281 0.0
Zn200 Zn 0.62276 0.62196 0.45354 0.0
Zn201 Zn 0.63998 0.61543 0.27424 0.0
C202 C 0.57821 0.63584 0.43546 0.0
O203 O 0.58517 0.65048 0.48007 0.0
C204 C 0.68755 0.61722 0.30297 0.0
O205 O 0.68258 0.61056 0.36796 0.0
O206 O 0.62067 0.62688 0.55935 0.0
O207 O 0.6348 0.59274 0.44607 0.0
O208 O 0.63791 0.58703 0.32958 0.0
C209 C 0.61176 0.61305 0.60021 0.0
O210 O 0.60356 0.5956 0.57224 0.0
O211 O 0.59177 0.62216 0.41323 0.0
C212 C 0.63019 0.62673 0.13158 0.0
O213 O 0.63953 0.64421 0.15539 0.0
O214 O 0.62773 0.61099 0.17478 0.0
O215 O 0.62645 0.64347 0.30598 0.0
O216 O 0.64064 0.64613 0.41449 0.0
O217 O 0.67226 0.62069 0.25714 0.0
C218 C 0.63783 0.58023 0.39443 0.0
C219 C 0.6336 0.65492 0.35688 0.0
Zn220 Zn 0.13391 0.85592 0.24355 0.0
Zn221 Zn 0.13949 0.89503 0.05947 0.0
C222 C 0.12308 0.81142 0.24868 0.0
O223 O 0.10844 0.81842 0.29339 0.0
C224 C 0.14294 0.93584 0.97968 0.0
O225 O 0.14904 0.92393 0.92634 0.0
O226 O 0.13014 0.85811 0.35081 0.0
O227 O 0.16245 0.87017 0.22011 0.0
O228 O 0.16664 0.8902 0.12133 0.0
C229 C 0.14507 0.8526 0.39579 0.0
O230 O 0.16362 0.84508 0.37213 0.0
O231 O 0.13615 0.8247 0.2197 0.0
C232 C 0.12649 0.88056 0.9201 0.0
O233 O 0.10798 0.88908 0.94013 0.0
O234 O 0.14272 0.88045 0.96381 0.0
O235 O 0.1099 0.88751 0.09972 0.0
O236 O 0.10621 0.86728 0.19798 0.0
O237 O 0.13841 0.92706 0.03979 0.0
C238 C 0.17421 0.88165 0.17904 0.0
C239 C 0.098 0.87834 0.14643 0.0
Zn240 Zn 0.88344 0.64072 0.22173 0.0
Zn241 Zn 0.87785 0.61348 0.0409 0.0
C242 C 0.88247 0.68588 0.22217 0.0
O243 O 0.89567 0.6817 0.27697 0.0
C244 C 0.86051 0.56939 0.04214 0.0
O245 O 0.843 0.57765 0.07065 0.0
O246 O 0.88713 0.64091 0.32886 0.0
O247 O 0.86049 0.61831 0.20463 0.0
O248 O 0.85026 0.62308 0.09185 0.0
C249 C 0.87167 0.64624 0.36961 0.0
O250 O 0.8528 0.65218 0.341 0.0
O251 O 0.87436 0.67043 0.18704 0.0
C252 C 0.89137 0.62193 0.89855 0.0
O253 O 0.90833 0.6109 0.92259 0.0
O254 O 0.87585 0.62577 0.94094 0.0
O255 O 0.90872 0.61991 0.07816 0.0
O256 O 0.91308 0.63484 0.18448 0.0
O257 O 0.87667 0.58142 0.02739 0.0
C258 C 0.8455 0.62146 0.15788 0.0
C259 C 0.92097 0.62713 0.12802 0.0
Zn260 Zn 0.12762 0.13482 0.96562 0.0
Zn261 Zn 0.12555 0.12971 0.80004 0.0
C262 C 0.082 0.14426 0.97643 0.0
O263 O 0.08935 0.15752 0.02509 0.0
C264 C 0.16813 0.11823 0.76238 0.0
O265 O 0.15655 0.10444 0.72537 0.0
O266 O 0.13073 0.13784 0.07357 0.0
O267 O 0.14104 0.10675 0.94002 0.0
O268 O 0.11755 0.102 0.85057 0.0
C269 C 0.12189 0.12414 0.1153 0.0
O270 O 0.11145 0.10786 0.08726 0.0
O271 O 0.09545 0.13267 0.94359 0.0
C272 C 0.12516 0.14142 0.65133 0.0
O273 O 0.13644 0.15737 0.6781 0.0
O274 O 0.11756 0.12728 0.69414 0.0
O275 O 0.11376 0.15811 0.83192 0.0
O276 O 0.13824 0.16211 0.91855 0.0
O277 O 0.15836 0.1312 0.80256 0.0
C278 C 0.13013 0.09432 0.89974 0.0
C279 C 0.12533 0.17026 0.87132 0.0
Zn280 Zn 0.62344 0.36464 0.75803 0.0
Zn281 Zn 0.62928 0.38411 0.5749 0.0
C282 C 0.62691 0.32775 0.66355 0.0
O283 O 0.61712 0.34019 0.61554 0.0
C284 C 0.64481 0.42273 0.50196 0.0
O285 O 0.65373 0.4092 0.45808 0.0
O286 O 0.62044 0.36274 0.86494 0.0
O287 O 0.64746 0.3859 0.73979 0.0
O288 O 0.65581 0.37359 0.63378 0.0
C289 C 0.63539 0.35577 0.90734 0.0
O290 O 0.65399 0.34927 0.88093 0.0
O291 O 0.63146 0.33502 0.72533 0.0
C292 C 0.61486 0.37468 0.43339 0.0
O293 O 0.59873 0.38697 0.45332 0.0
O294 O 0.63014 0.37024 0.47827 0.0
O295 O 0.59774 0.38246 0.60899 0.0
O296 O 0.59368 0.37276 0.72271 0.0
O297 O 0.63427 0.41562 0.55569 0.0
C298 C 0.66168 0.38124 0.69386 0.0
C299 C 0.58562 0.37887 0.66271 0.0
Zn300 Zn 0.37511 0.85687 0.23169 0.0
Zn301 Zn 0.37003 0.89511 0.41137 0.0
C302 C 0.39131 0.81472 0.23705 0.0
O303 O 0.40813 0.82501 0.21007 0.0
C304 C 0.35264 0.93493 0.45812 0.0
O305 O 0.33524 0.92298 0.46835 0.0
O306 O 0.37918 0.86052 0.12513 0.0
O307 O 0.34615 0.86983 0.25327 0.0
O308 O 0.34283 0.88982 0.34998 0.0
C309 C 0.36537 0.85315 0.08018 0.0
O310 O 0.34804 0.84295 0.10387 0.0
O311 O 0.37434 0.82524 0.25283 0.0
C312 C 0.38188 0.88493 0.5543 0.0
O313 O 0.39806 0.89753 0.53508 0.0
O314 O 0.36715 0.88041 0.50797 0.0
O315 O 0.40037 0.88935 0.37417 0.0
O316 O 0.40193 0.86896 0.27825 0.0
O317 O 0.36972 0.92652 0.43281 0.0
C318 C 0.33473 0.88115 0.29426 0.0
C319 C 0.41124 0.87997 0.32646 0.0
H320 H 0.14062 0.6439 0.81827 0.0
H321 H 0.11431 0.58962 0.43964 0.0
H322 H 0.10767 0.58325 0.79754 0.0
H323 H 0.14726 0.65021 0.46213 0.0
H324 H 0.11119 0.58712 0.57041 0.0
H325 H 0.14274 0.64663 0.68755 0.0
C326 C 0.13381 0.63116 0.78628 0.0
C327 C 0.12397 0.61331 0.81905 0.0
C328 C 0.11907 0.60097 0.54666 0.0
C329 C 0.12634 0.61632 0.6691 0.0
C330 C 0.12085 0.60241 0.47198 0.0
C331 C 0.13109 0.62013 0.43976 0.0
C332 C 0.1276 0.61737 0.58948 0.0
C333 C 0.13926 0.63623 0.48446 0.0
C334 C 0.13502 0.63273 0.71156 0.0
C335 C 0.11542 0.5973 0.77471 0.0
N336 N 0.13736 0.63444 0.55687 0.0
N337 N 0.11682 0.59918 0.70211 0.0
H338 H 0.64887 0.84119 0.9998 0.0
H339 H 0.57643 0.89862 0.69032 0.0
H340 H 0.58949 0.87614 0.03862 0.0
H341 H 0.6364 0.86487 0.64966 0.0
H342 H 0.58037 0.88931 0.81752 0.0
H343 H 0.64411 0.84863 0.87119 0.0
C344 C 0.63481 0.85041 0.98135 0.0
C345 C 0.61958 0.85808 0.03023 0.0
C346 C 0.59265 0.88387 0.78085 0.0
C347 C 0.61403 0.86665 0.88287 0.0
C348 C 0.5904 0.88916 0.70804 0.0
C349 C 0.60614 0.88257 0.65911 0.0
C350 C 0.61081 0.87189 0.80527 0.0
C351 C 0.62388 0.87031 0.6854 0.0
C352 C 0.63211 0.85464 0.90784 0.0
C353 C 0.60168 0.86992 0.00305 0.0
N354 N 0.62576 0.86543 0.75671 0.0
N355 N 0.59943 0.87385 0.93133 0.0
H356 H 0.40109 0.41662 0.25089 0.0
H357 H 0.36902 0.33664 0.93598 0.0
H358 H 0.37963 0.35158 0.28581 0.0
H359 H 0.38868 0.4021 0.89839 0.0
H360 H 0.37601 0.34106 0.06405 0.0
H361 H 0.39948 0.41095 0.12133 0.0
C362 C 0.39612 0.40114 0.23137 0.0
C363 C 0.39034 0.3846 0.27925 0.0
C364 C 0.37894 0.35443 0.02779 0.0
C365 C 0.38849 0.378 0.13127 0.0
C366 C 0.37499 0.3519 0.95456 0.0
C367 C 0.3781 0.36908 0.90645 0.0
C368 C 0.38599 0.3743 0.05324 0.0
C369 C 0.38596 0.38845 0.93362 0.0
C370 C 0.39522 0.39791 0.15742 0.0
C371 C 0.3841 0.36484 0.25094 0.0
N372 N 0.38948 0.39059 0.00533 0.0
N373 N 0.38327 0.36213 0.17887 0.0
H374 H 0.87142 0.14567 0.55332 0.0
H375 H 0.9171 0.08649 0.20975 0.0
H376 H 0.91567 0.09198 0.56702 0.0
H377 H 0.86766 0.1357 0.19826 0.0
H378 H 0.9179 0.08915 0.34033 0.0
H379 H 0.87098 0.14314 0.42287 0.0
C380 C 0.88108 0.13334 0.52892 0.0
C381 C 0.8936 0.11899 0.57123 0.0
C382 C 0.90687 0.09935 0.30926 0.0
C383 C 0.89316 0.11603 0.42165 0.0
C384 C 0.90642 0.09787 0.23465 0.0
C385 C 0.89228 0.11089 0.19299 0.0
C386 C 0.89314 0.11402 0.34251 0.0
C387 C 0.8788 0.12533 0.22824 0.0
C388 C 0.88078 0.1319 0.45436 0.0
C389 C 0.90576 0.10335 0.53655 0.0
N390 N 0.87958 0.12652 0.30096 0.0
N391 N 0.90525 0.1023 0.46374 0.0
H392 H 0.08427 0.39324 0.2138 0.0
H393 H 0.15674 0.3498 0.54718 0.0
H394 H 0.14594 0.36073 0.19001 0.0
H395 H 0.09468 0.3819 0.56702 0.0
H396 H 0.15282 0.3526 0.41643 0.0
H397 H 0.08753 0.38816 0.34341 0.0
C398 C 0.0985 0.38497 0.23581 0.0
C399 C 0.1149 0.37746 0.19093 0.0
C400 C 0.14005 0.35898 0.44945 0.0
C401 C 0.11877 0.37161 0.33978 0.0
C402 C 0.14227 0.35738 0.5241 0.0
C403 C 0.12605 0.36569 0.56816 0.0
C404 C 0.12148 0.36897 0.41869 0.0
C405 C 0.10764 0.37532 0.53526 0.0
C406 C 0.10035 0.38208 0.30997 0.0
C407 C 0.13292 0.36681 0.22261 0.0
N408 N 0.1059 0.37673 0.46261 0.0
N409 N 0.13442 0.36426 0.29518 0.0
H410 H 0.90977 0.91455 0.73875 0.0
H411 H 0.85625 0.84217 0.43229 0.0
H412 H 0.87762 0.85419 0.77925 0.0
H413 H 0.88701 0.90302 0.38841 0.0
H414 H 0.86571 0.8457 0.55901 0.0
H415 H 0.90316 0.91011 0.60998 0.0
C416 C 0.90138 0.90034 0.72063 0.0
C417 C 0.89418 0.88475 0.76998 0.0
C418 C 0.87048 0.85827 0.52176 0.0
C419 C 0.88658 0.87958 0.62267 0.0
C420 C 0.8651 0.85626 0.44922 0.0
C421 C 0.87076 0.87237 0.39958 0.0
C422 C 0.88159 0.87658 0.54522 0.0
C423 C 0.88229 0.89022 0.42481 0.0
C424 C 0.89761 0.89782 0.64707 0.0
C425 C 0.88341 0.86666 0.74331 0.0
N426 N 0.88724 0.89189 0.49597 0.0
N427 N 0.87991 0.86461 0.6716 0.0
H428 H 0.35216 0.62973 0.64594 0.0
H429 H 0.40343 0.59713 0.03195 0.0
H430 H 0.41207 0.59396 0.67615 0.0
H431 H 0.34381 0.63344 0.00312 0.0
H432 H 0.40683 0.59588 0.90153 0.0
H433 H 0.34886 0.63154 0.77651 0.0
C434 C 0.36465 0.62232 0.67994 0.0
C435 C 0.38241 0.61167 0.6499 0.0
C436 C 0.393 0.60412 0.92371 0.0
C437 C 0.3787 0.61361 0.79948 0.0
C438 C 0.39103 0.60482 0.99825 0.0
C439 C 0.3733 0.61539 0.02866 0.0
C440 C 0.37712 0.61406 0.87904 0.0
C441 C 0.35776 0.62509 0.98217 0.0
C442 C 0.36274 0.62333 0.75452 0.0
C443 C 0.39808 0.60234 0.69673 0.0
N444 N 0.36003 0.62419 0.90981 0.0
N445 N 0.39584 0.6035 0.769 0.0
H446 H 0.63153 0.17274 0.93224 0.0
H447 H 0.58848 0.09668 0.25026 0.0
H448 H 0.60918 0.10817 0.89945 0.0
H449 H 0.61613 0.15936 0.28164 0.0
H450 H 0.59283 0.10152 0.1206 0.0
H451 H 0.62258 0.16913 0.05883 0.0
C452 C 0.62457 0.15783 0.95149 0.0
C453 C 0.62123 0.14068 0.90507 0.0
C454 C 0.59786 0.11424 0.15588 0.0
C455 C 0.61104 0.13638 0.05068 0.0
C456 C 0.59537 0.1115 0.22994 0.0
C457 C 0.60206 0.12759 0.27704 0.0
C458 C 0.60705 0.13324 0.12864 0.0
C459 C 0.61085 0.14646 0.24753 0.0
C460 C 0.6195 0.15576 0.02399 0.0
C461 C 0.61207 0.12179 0.93326 0.0
N462 N 0.61313 0.14872 0.17538 0.0
N463 N 0.60742 0.1201 0.00435 0.0
H464 H 0.89745 0.41187 0.24236 0.0
H465 H 0.85475 0.34062 0.57284 0.0
H466 H 0.86469 0.35118 0.21971 0.0
H467 H 0.88777 0.40106 0.59868 0.0
H468 H 0.85919 0.34398 0.44342 0.0
H469 H 0.89496 0.40798 0.37283 0.0
C470 C 0.88977 0.39771 0.26476 0.0
C471 C 0.88122 0.38185 0.21994 0.0
C472 C 0.86553 0.3565 0.47729 0.0
C473 C 0.8783 0.37731 0.36927 0.0
C474 C 0.863 0.3546 0.55135 0.0
C475 C 0.87085 0.37062 0.59678 0.0
C476 C 0.87596 0.37459 0.4481 0.0
C477 C 0.88144 0.38833 0.5657 0.0
C478 C 0.88836 0.3955 0.33929 0.0
C479 C 0.87147 0.36383 0.25206 0.0
N480 N 0.88364 0.38987 0.49324 0.0
N481 N 0.87025 0.36209 0.32465 0.0
H482 H 0.33943 0.15297 0.33544 0.0
H483 H 0.39432 0.12654 0.95932 0.0
H484 H 0.40101 0.11997 0.31635 0.0
H485 H 0.33349 0.16088 0.97761 0.0
H486 H 0.39716 0.12423 0.09023 0.0
H487 H 0.33705 0.15633 0.20449 0.0
C488 C 0.35247 0.14647 0.30378 0.0
C489 C 0.37043 0.13615 0.33699 0.0
C490 C 0.3832 0.1323 0.06562 0.0
C491 C 0.3678 0.1399 0.18706 0.0
C492 C 0.38157 0.13362 0.99082 0.0
C493 C 0.36362 0.1439 0.95735 0.0
C494 C 0.36676 0.1413 0.1074 0.0
C495 C 0.34761 0.15279 0.00101 0.0
C496 C 0.3511 0.14838 0.22899 0.0
C497 C 0.38684 0.12804 0.29318 0.0
N498 N 0.34954 0.15126 0.0737 0.0
N499 N 0.38511 0.13006 0.22059 0.0
H500 H 0.61282 0.59233 0.0608 0.0
H501 H 0.62458 0.64836 0.67416 0.0
H502 H 0.6342 0.65743 0.02683 0.0
H503 H 0.59895 0.58463 0.70512 0.0
H504 H 0.6265 0.65235 0.80399 0.0
H505 H 0.60583 0.58955 0.93151 0.0
C506 C 0.61589 0.60607 0.02629 0.0
C507 C 0.62426 0.62509 0.05463 0.0
C508 C 0.62034 0.63752 0.7825 0.0
C509 C 0.6164 0.62199 0.90683 0.0
C510 C 0.61926 0.63522 0.70827 0.0
C511 C 0.61173 0.61607 0.6787 0.0
C512 C 0.61397 0.62051 0.82774 0.0
C513 C 0.60493 0.59965 0.7256 0.0
C514 C 0.61191 0.60447 0.9525 0.0
C515 C 0.62788 0.6424 0.00741 0.0
N516 N 0.60636 0.60219 0.79785 0.0
N517 N 0.62406 0.64039 0.9359 0.0
H518 H 0.10798 0.86557 0.46317 0.0
H519 H 0.16321 0.86474 0.85625 0.0
H520 H 0.17447 0.84525 0.50648 0.0
H521 H 0.09562 0.88104 0.81215 0.0
H522 H 0.1675 0.85638 0.7294 0.0
H523 H 0.10305 0.87044 0.59154 0.0
C524 C 0.12155 0.86208 0.49966 0.0
C525 C 0.14171 0.85505 0.47384 0.0
C526 C 0.1517 0.86166 0.74761 0.0
C527 C 0.13616 0.86064 0.62136 0.0
C528 C 0.14922 0.8664 0.8201 0.0
C529 C 0.12904 0.87369 0.84496 0.0
C530 C 0.13389 0.8643 0.69954 0.0
C531 C 0.11151 0.87554 0.79553 0.0
C532 C 0.11871 0.86484 0.57309 0.0
C533 C 0.15865 0.85073 0.52388 0.0
N534 N 0.11438 0.871 0.72528 0.0
N535 N 0.15553 0.85367 0.59516 0.0
H536 H 0.92205 0.61722 0.79498 0.0
H537 H 0.84207 0.65545 0.4737 0.0
H538 H 0.85665 0.64085 0.82732 0.0
H539 H 0.90861 0.63448 0.44493 0.0
H540 H 0.84748 0.65186 0.60374 0.0
H541 H 0.9179 0.62523 0.66694 0.0
C542 C 0.90685 0.62421 0.77523 0.0
C543 C 0.88962 0.62824 0.82189 0.0
C544 C 0.86092 0.64815 0.56893 0.0
C545 C 0.8847 0.63735 0.67508 0.0
C546 C 0.85784 0.65019 0.49469 0.0
C547 C 0.87487 0.64513 0.44835 0.0
C548 C 0.88116 0.64097 0.59692 0.0
C549 C 0.89497 0.63845 0.47855 0.0
C550 C 0.90449 0.62879 0.70203 0.0
C551 C 0.87034 0.63742 0.79325 0.0
N552 N 0.89752 0.63647 0.55085 0.0
N553 N 0.86834 0.64153 0.72158 0.0
H554 H 0.10549 0.10906 0.57579 0.0
H555 H 0.14047 0.15678 0.19168 0.0
H556 H 0.14055 0.1684 0.54661 0.0
H557 H 0.10446 0.09793 0.21908 0.0
H558 H 0.14047 0.16132 0.3217 0.0
H559 H 0.10441 0.10487 0.44535 0.0
C560 C 0.11284 0.12128 0.54202 0.0
C561 C 0.12314 0.13911 0.57236 0.0
C562 C 0.13256 0.1474 0.29932 0.0
C563 C 0.12208 0.13434 0.42289 0.0
C564 C 0.1326 0.14478 0.22499 0.0
C565 C 0.12247 0.12693 0.19424 0.0
C566 C 0.12234 0.13207 0.34351 0.0
C567 C 0.11249 0.11194 0.24027 0.0
C568 C 0.11227 0.11885 0.46751 0.0
C569 C 0.13244 0.15438 0.5258 0.0
N570 N 0.11268 0.11484 0.31247 0.0
N571 N 0.13174 0.15161 0.4536 0.0
H572 H 0.58437 0.38039 0.32601 0.0
H573 H 0.66416 0.34362 0.01539 0.0
H574 H 0.64911 0.35501 0.36768 0.0
H575 H 0.59875 0.36789 0.97807 0.0
H576 H 0.65836 0.34541 0.14487 0.0
H577 H 0.58861 0.37339 0.1988 0.0
C578 C 0.59943 0.37317 0.3085 0.0
C579 C 0.61647 0.36842 0.35755 0.0
C580 C 0.64525 0.35023 0.10827 0.0
C581 C 0.62153 0.36051 0.2115 0.0
C582 C 0.64855 0.34923 0.03435 0.0
C583 C 0.63197 0.35575 0.98576 0.0
C584 C 0.62524 0.35783 0.13369 0.0
C585 C 0.61206 0.36281 0.01342 0.0
C586 C 0.60186 0.3692 0.23572 0.0
C587 C 0.63557 0.35899 0.33171 0.0
N588 N 0.60931 0.36375 0.08541 0.0
N589 N 0.63766 0.3555 0.26032 0.0
H590 H 0.40002 0.87227 0.01343 0.0
H591 H 0.34878 0.86177 0.61699 0.0
H592 H 0.3382 0.84134 0.96897 0.0
H593 H 0.41077 0.89195 0.66474 0.0
H594 H 0.34522 0.85254 0.74458 0.0
H595 H 0.40477 0.87821 0.88492 0.0
C596 C 0.38744 0.86669 0.97665 0.0
C597 C 0.36863 0.85636 0.00215 0.0
C598 C 0.35965 0.86108 0.727 0.0
C599 C 0.37397 0.86315 0.85448 0.0
C600 C 0.36171 0.86632 0.65414 0.0
C601 C 0.38006 0.87774 0.63012 0.0
C602 C 0.37603 0.86733 0.77615 0.0
C603 C 0.39629 0.88322 0.68073 0.0
C604 C 0.39018 0.87007 0.90314 0.0
C605 C 0.35294 0.84942 0.95178 0.0
N606 N 0.39385 0.87805 0.75124 0.0
N607 N 0.35592 0.853 0.88037 0.0
H608 H 0.10642 0.67418 0.25354 0.0
H609 H 0.1493 0.79163 0.15182 0.0
H610 H 0.14973 0.68741 0.07738 0.0
H611 H 0.09966 0.77865 0.30901 0.0
H612 H 0.15089 0.75344 0.1267 0.0
H613 H 0.10495 0.71231 0.27752 0.0
C614 C 0.11562 0.68509 0.21981 0.0
C615 C 0.12821 0.67754 0.16325 0.0
C616 C 0.13964 0.75897 0.16662 0.0
C617 C 0.12663 0.72134 0.19069 0.0
C618 C 0.13874 0.78077 0.18109 0.0
C619 C 0.12432 0.78838 0.23262 0.0
C620 C 0.12609 0.74464 0.2042 0.0
C621 C 0.11101 0.77354 0.26878 0.0
C622 C 0.11475 0.7069 0.23353 0.0
C623 C 0.13979 0.69249 0.12147 0.0
N624 N 0.11226 0.75241 0.25398 0.0
N625 N 0.13875 0.71367 0.13611 0.0
H626 H 0.54827 0.89995 0.44105 0.0
H627 H 0.43963 0.86269 0.23169 0.0
H628 H 0.54768 0.86103 0.25197 0.0
H629 H 0.43826 0.89967 0.42503 0.0
H630 H 0.4794 0.86329 0.23698 0.0
H631 H 0.50821 0.90123 0.43502 0.0
C632 C 0.53977 0.8917 0.39824 0.0
C633 C 0.55143 0.88033 0.347 0.0
C634 C 0.47046 0.87133 0.27826 0.0
C635 C 0.5056 0.88177 0.33985 0.0
C636 C 0.44767 0.87101 0.27527 0.0
C637 C 0.43549 0.88111 0.32813 0.0
C638 C 0.48132 0.88179 0.33456 0.0
C639 C 0.44695 0.89166 0.38311 0.0
C640 C 0.51689 0.89244 0.39488 0.0
C641 C 0.53948 0.86996 0.29281 0.0
N642 N 0.46923 0.89169 0.385 0.0
N643 N 0.51729 0.87093 0.29075 0.0
H644 H 0.39871 0.31074 0.54137 0.0
H645 H 0.34633 0.20706 0.71918 0.0
H646 H 0.34763 0.3154 0.69763 0.0
H647 H 0.41487 0.21072 0.66798 0.0
H648 H 0.34283 0.24543 0.69151 0.0
H649 H 0.40105 0.27232 0.56673 0.0
C650 C 0.38785 0.30365 0.58055 0.0
C651 C 0.37296 0.31626 0.61755 0.0
C652 C 0.3586 0.23776 0.68644 0.0
C653 C 0.37546 0.27239 0.64611 0.0
C654 C 0.36059 0.21593 0.70182 0.0
C655 C 0.38094 0.20581 0.69604 0.0
C656 C 0.37695 0.24933 0.66345 0.0
C657 C 0.39893 0.21799 0.6736 0.0
C658 C 0.38931 0.28179 0.59523 0.0
C659 C 0.3594 0.30625 0.66818 0.0
N660 N 0.39648 0.23911 0.65753 0.0
N661 N 0.36087 0.28483 0.6807 0.0
H662 H 0.94222 0.13546 0.01628 0.0
H663 H 0.06193 0.12658 0.85944 0.0
H664 H 0.95341 0.12912 0.78938 0.0
H665 H 0.04833 0.15795 0.0582 0.0
H666 H 0.02249 0.12329 0.83626 0.0
H667 H 0.98155 0.13941 0.03645 0.0
C668 C 0.95295 0.13483 0.97067 0.0
C669 C 0.94452 0.13196 0.90097 0.0
C670 C 0.02819 0.13095 0.88475 0.0
C671 C 0.98955 0.13639 0.92393 0.0
C672 C 0.05064 0.13277 0.89817 0.0
C673 C 0.05835 0.14253 0.96091 0.0
C674 C 0.01343 0.13864 0.93502 0.0
C675 C 0.04306 0.15037 0.0091 0.0
C676 C 0.97538 0.1372 0.98225 0.0
C677 C 0.95922 0.13139 0.84392 0.0
N678 N 0.0213 0.1481 0.99541 0.0
N679 N 0.98109 0.13345 0.85672 0.0
H680 H 0.08048 0.29685 0.75115 0.0
H681 H 0.14861 0.20161 0.94076 0.0
H682 H 0.13823 0.30754 0.88234 0.0
H683 H 0.09666 0.19251 0.78434 0.0
H684 H 0.14403 0.24036 0.92659 0.0
H685 H 0.08495 0.25851 0.77006 0.0
C686 C 0.09409 0.29115 0.7842 0.0
C687 C 0.10904 0.30548 0.81503 0.0
C688 C 0.13366 0.22985 0.89541 0.0
C689 C 0.11429 0.26139 0.83688 0.0
C690 C 0.13625 0.20773 0.90349 0.0
C691 C 0.12301 0.19375 0.86364 0.0
C692 C 0.11764 0.23803 0.84746 0.0
C693 C 0.10727 0.20262 0.81614 0.0
C694 C 0.09666 0.2692 0.79484 0.0
C695 C 0.12634 0.29708 0.8574 0.0
N696 N 0.10501 0.22414 0.80953 0.0
N697 N 0.1285 0.27558 0.86706 0.0
H698 H 0.07374 0.89751 0.03784 0.0
H699 H 0.95818 0.86393 0.20286 0.0
H700 H 0.06703 0.86232 0.23784 0.0
H701 H 0.96564 0.89002 0.98854 0.0
H702 H 0.99783 0.8661 0.22118 0.0
H703 H 0.03393 0.89788 0.02373 0.0
C704 C 0.06394 0.88993 0.07898 0.0
C705 C 0.07384 0.87975 0.13894 0.0
C706 C 0.99078 0.87138 0.17019 0.0
C707 C 0.02816 0.88016 0.12305 0.0
C708 C 0.96813 0.87018 0.15971 0.0
C709 C 0.95856 0.87672 0.09395 0.0
C710 C 0.00398 0.87929 0.11465 0.0
C711 C 0.9723 0.8847 0.04001 0.0
C712 C 0.04118 0.89012 0.07078 0.0
C713 C 0.0602 0.87028 0.19055 0.0
N714 N 0.9943 0.88574 0.05156 0.0
N715 N 0.03809 0.87069 0.18134 0.0
H716 H 0.42806 0.68223 0.21096 0.0
H717 H 0.35888 0.78784 0.28517 0.0
H718 H 0.36245 0.68072 0.29348 0.0
H719 H 0.42512 0.78793 0.20791 0.0
H720 H 0.36004 0.74876 0.2931 0.0
H721 H 0.42745 0.72108 0.21395 0.0
C722 C 0.41351 0.69007 0.22988 0.0
C723 C 0.39523 0.67819 0.25163 0.0
C724 C 0.37433 0.75736 0.27471 0.0
C725 C 0.3944 0.72284 0.25508 0.0
C726 C 0.3737 0.77967 0.2702 0.0
C727 C 0.39191 0.79119 0.24553 0.0
C728 C 0.3933 0.74652 0.25432 0.0
C729 C 0.41066 0.77975 0.22695 0.0
C730 C 0.41318 0.7123 0.23164 0.0
C731 C 0.3769 0.68926 0.27603 0.0
N732 N 0.41083 0.7581 0.23149 0.0
N733 N 0.3769 0.71098 0.27679 0.0
H734 H 0.54423 0.12097 0.60935 0.0
H735 H 0.42323 0.16393 0.52698 0.0
H736 H 0.52944 0.17362 0.4637 0.0
H737 H 0.43845 0.11781 0.69559 0.0
H738 H 0.46207 0.16703 0.50162 0.0
H739 H 0.50558 0.11898 0.64037 0.0
C740 C 0.53286 0.13214 0.58397 0.0
C741 C 0.54006 0.14745 0.53363 0.0
C742 C 0.45695 0.15627 0.54432 0.0
C743 C 0.49582 0.1452 0.5688 0.0
C744 C 0.43474 0.15444 0.55878 0.0
C745 C 0.42756 0.14053 0.61344 0.0
C746 C 0.47216 0.14401 0.58443 0.0
C747 C 0.44327 0.12872 0.65295 0.0
C748 C 0.51081 0.13101 0.60183 0.0
C749 C 0.52462 0.16155 0.50269 0.0
N750 N 0.46485 0.13066 0.63746 0.0
N751 N 0.50322 0.16002 0.52056 0.0
H752 H 0.8734 0.20728 0.75115 0.0
H753 H 0.86102 0.30826 0.00345 0.0
H754 H 0.87519 0.20284 0.98265 0.0
H755 H 0.8782 0.31383 0.78005 0.0
H756 H 0.86183 0.26944 0.99442 0.0
H757 H 0.87071 0.24615 0.75862 0.0
C758 C 0.87308 0.21445 0.80358 0.0
C759 C 0.87457 0.20176 0.86644 0.0
C760 C 0.86542 0.27915 0.94737 0.0
C761 C 0.87147 0.24626 0.87521 0.0
C762 C 0.86489 0.30134 0.95235 0.0
C763 C 0.86959 0.31437 0.89239 0.0
C764 C 0.87045 0.26982 0.88177 0.0
C765 C 0.87456 0.30443 0.82771 0.0
C766 C 0.87165 0.23665 0.80774 0.0
C767 C 0.87416 0.21198 0.93282 0.0
N768 N 0.8748 0.28274 0.82405 0.0
N769 N 0.87261 0.23361 0.93546 0.0
H770 H 0.63861 0.79062 0.4405 0.0
H771 H 0.61738 0.67939 0.2446 0.0
H772 H 0.60764 0.7855 0.23154 0.0
H773 H 0.64571 0.68428 0.45754 0.0
H774 H 0.61409 0.71826 0.23827 0.0
H775 H 0.64158 0.75171 0.44744 0.0
C776 C 0.63239 0.78133 0.39612 0.0
C777 C 0.62287 0.79137 0.33533 0.0
C778 C 0.62103 0.71084 0.28639 0.0
C779 C 0.62629 0.74677 0.34283 0.0
C780 C 0.62294 0.68862 0.29002 0.0
C781 C 0.63183 0.6785 0.35173 0.0
C782 C 0.62808 0.7231 0.34481 0.0
C783 C 0.63875 0.69134 0.40887 0.0
C784 C 0.6341 0.75909 0.40011 0.0
C785 C 0.61509 0.77847 0.27949 0.0
N786 N 0.63673 0.71294 0.404 0.0
N787 N 0.61702 0.75687 0.28455 0.0
H788 H 0.88244 0.71982 0.31033 0.0
H789 H 0.88159 0.80881 0.00412 0.0
H790 H 0.87221 0.70306 0.08877 0.0
H791 H 0.8608 0.82091 0.21991 0.0
H792 H 0.88118 0.77032 0.03216 0.0
H793 H 0.87758 0.75741 0.2771 0.0
C794 C 0.87905 0.72408 0.25463 0.0
C795 C 0.87775 0.70835 0.20217 0.0
C796 C 0.87651 0.78146 0.07294 0.0
C797 C 0.87251 0.75141 0.16355 0.0
C798 C 0.87684 0.80341 0.05718 0.0
C799 C 0.87131 0.81816 0.10985 0.0
C800 C 0.87106 0.7743 0.14222 0.0
C801 C 0.86518 0.81021 0.17757 0.0
C802 C 0.8762 0.74553 0.23575 0.0
C803 C 0.87323 0.71474 0.13083 0.0
N804 N 0.86547 0.78888 0.192 0.0
N805 N 0.87107 0.73588 0.11331 0.0
H806 H 0.65136 0.19206 0.7063 0.0
H807 H 0.61699 0.30629 0.5403 0.0
H808 H 0.61803 0.20081 0.50164 0.0
H809 H 0.64575 0.29717 0.75184 0.0
H810 H 0.62085 0.26806 0.51986 0.0
H811 H 0.65302 0.2308 0.71838 0.0
C812 C 0.64452 0.20209 0.66361 0.0
C813 C 0.63436 0.19307 0.60311 0.0
C814 C 0.62644 0.27443 0.5706 0.0
C815 C 0.63619 0.23755 0.61678 0.0
C816 C 0.62427 0.29629 0.5823 0.0
C817 C 0.63088 0.30496 0.64816 0.0
C818 C 0.6353 0.26109 0.62513 0.0
C819 C 0.64029 0.2912 0.70041 0.0
C820 C 0.64546 0.22424 0.67062 0.0
C821 C 0.62592 0.20697 0.54944 0.0
N822 N 0.6421 0.26995 0.68792 0.0
N823 N 0.62691 0.22847 0.55776 0.0
H824 H 0.94532 0.39455 0.00571 0.0
H825 H 0.05041 0.36526 0.78767 0.0
H826 H 0.94699 0.33642 0.88531 0.0
H827 H 0.05676 0.38513 0.00744 0.0
H828 H 0.0106 0.3621 0.80281 0.0
H829 H 0.98484 0.39906 0.9867 0.0
C830 C 0.95397 0.3829 0.97462 0.0
C831 C 0.943 0.36505 0.94717 0.0
C832 C 0.02078 0.36723 0.84742 0.0
C833 C 0.98776 0.37034 0.92429 0.0
C834 C 0.04338 0.36911 0.83884 0.0
C835 C 0.0568 0.37539 0.89654 0.0
C836 C 0.01156 0.37232 0.91336 0.0
C837 C 0.04695 0.3801 0.96188 0.0
C838 C 0.97644 0.38542 0.96424 0.0
C839 C 0.95494 0.35032 0.90767 0.0
N840 N 0.02484 0.37869 0.96839 0.0
N841 N 0.97669 0.35338 0.89679 0.0
H842 H 0.44994 0.59376 0.28635 0.0
H843 H 0.54471 0.66045 0.48347 0.0
H844 H 0.43811 0.64153 0.44527 0.0
H845 H 0.55763 0.60693 0.3477 0.0
H846 H 0.50557 0.65557 0.46159 0.0
H847 H 0.48934 0.5999 0.30088 0.0
C848 C 0.4556 0.60553 0.32431 0.0
C849 C 0.44064 0.61709 0.36481 0.0
C850 C 0.51694 0.64493 0.43634 0.0
C851 C 0.48575 0.62428 0.38134 0.0
C852 C 0.53935 0.64775 0.44861 0.0
C853 C 0.55454 0.63402 0.41765 0.0
C854 C 0.50956 0.62827 0.39259 0.0
C855 C 0.54654 0.61786 0.37288 0.0
C856 C 0.47811 0.60902 0.33254 0.0
C857 C 0.44898 0.63217 0.41305 0.0
N858 N 0.5246 0.6154 0.36187 0.0
N859 N 0.47092 0.63532 0.41988 0.0
H860 H 0.45292 0.3975 0.50112 0.0
H861 H 0.55464 0.3722 0.76542 0.0
H862 H 0.4465 0.37439 0.71949 0.0
H863 H 0.56154 0.39181 0.54353 0.0
H864 H 0.51505 0.3757 0.75199 0.0
H865 H 0.49264 0.39864 0.51861 0.0
C866 C 0.45983 0.39287 0.55301 0.0
C867 C 0.44632 0.38569 0.60879 0.0
C868 C 0.52521 0.37931 0.70625 0.0
C869 C 0.49186 0.38683 0.62895 0.0
C870 C 0.54788 0.3773 0.71383 0.0
C871 C 0.56154 0.3816 0.65538 0.0
C872 C 0.516 0.38566 0.63971 0.0
C873 C 0.55171 0.38823 0.59 0.0
C874 C 0.48254 0.39346 0.56285 0.0
C875 C 0.45624 0.37993 0.67484 0.0
N876 N 0.52955 0.38998 0.58389 0.0
N877 N 0.47839 0.3805 0.68291 0.0
H878 H 0.05762 0.59773 0.04883 0.0
H879 H 0.95061 0.65335 0.193 0.0
H880 H 0.0549 0.66504 0.09332 0.0
H881 H 0.94613 0.60162 0.04348 0.0
H882 H 0.99024 0.65434 0.17698 0.0
H883 H 0.01784 0.59542 0.06624 0.0
C884 C 0.04868 0.61196 0.06267 0.0
C885 C 0.05951 0.63163 0.06949 0.0
C886 C 0.98056 0.64276 0.14781 0.0
C887 C 0.01434 0.62901 0.09029 0.0
C888 C 0.95798 0.6421 0.15712 0.0
C889 C 0.94503 0.62739 0.11942 0.0
C890 C 0.99041 0.62834 0.1016 0.0
C891 C 0.95549 0.61328 0.0733 0.0
C892 C 0.02604 0.61065 0.07214 0.0
C893 C 0.04716 0.6496 0.08713 0.0
N894 N 0.97763 0.61399 0.06603 0.0
N895 N 0.02527 0.64783 0.09747 0.0
H896 H 0.16441 0.56035 0.0251 0.0
H897 H 0.10293 0.44815 0.01198 0.0
H898 H 0.10557 0.54759 0.14357 0.0
H899 H 0.17239 0.45456 0.97882 0.0
H900 H 0.10137 0.48603 0.04261 0.0
H901 H 0.16548 0.52282 0.99103 0.0
C902 C 0.15171 0.54965 0.04395 0.0
C903 C 0.1349 0.55708 0.08743 0.0
C904 C 0.11691 0.47912 0.02839 0.0
C905 C 0.13589 0.51423 0.04774 0.0
C906 C 0.1178 0.45758 0.01038 0.0
C907 C 0.13783 0.44821 0.99288 0.0
C908 C 0.13612 0.49144 0.02768 0.0
C909 C 0.15662 0.46112 0.99224 0.0
C910 C 0.15237 0.52824 0.0246 0.0
C911 C 0.1189 0.54249 0.11039 0.0
N912 N 0.1553 0.48211 0.00914 0.0
N913 N 0.1197 0.52177 0.08984 0.0
H914 H 0.68194 0.90445 0.40291 0.0
H915 H 0.78389 0.8658 0.17387 0.0
H916 H 0.67714 0.85892 0.23193 0.0
H917 H 0.78837 0.91552 0.33098 0.0
H918 H 0.74489 0.86235 0.1976 0.0
H919 H 0.72114 0.90795 0.38073 0.0
C920 C 0.68909 0.89516 0.36083 0.0
C921 C 0.67616 0.88138 0.3192 0.0
C922 C 0.75438 0.87404 0.22686 0.0
C923 C 0.72103 0.88533 0.29358 0.0
C924 C 0.77668 0.87602 0.21334 0.0
C925 C 0.78944 0.89099 0.25043 0.0
C926 C 0.74471 0.88708 0.27805 0.0
C927 C 0.77917 0.90379 0.30101 0.0
C928 C 0.71148 0.8972 0.34812 0.0
C929 C 0.68638 0.86977 0.26535 0.0
N930 N 0.75741 0.90152 0.31341 0.0
N931 N 0.70817 0.87201 0.25418 0.0
H932 H 0.34243 0.43032 0.45479 0.0
H933 H 0.39603 0.5457 0.48072 0.0
H934 H 0.38846 0.44608 0.62391 0.0
H935 H 0.3288 0.53701 0.41284 0.0
H936 H 0.39831 0.50737 0.51012 0.0
H937 H 0.34197 0.46797 0.41594 0.0
C938 C 0.35252 0.44168 0.48347 0.0
C939 C 0.36537 0.43515 0.54301 0.0
C940 C 0.38315 0.5139 0.48828 0.0
C941 C 0.36522 0.47795 0.498 0.0
C942 C 0.38187 0.53567 0.47103 0.0
C943 C 0.36217 0.54447 0.44451 0.0
C944 C 0.36476 0.50084 0.47729 0.0
C945 C 0.34424 0.53083 0.43355 0.0
C946 C 0.35219 0.4631 0.4614 0.0
C947 C 0.37815 0.45052 0.57822 0.0
N948 N 0.34598 0.50963 0.4497 0.0
N949 N 0.37786 0.47122 0.55491 0.0
H950 H 0.82302 0.12237 0.73717 0.0
H951 H 0.7042 0.11153 0.90528 0.0
H952 H 0.81173 0.12637 0.96467 0.0
H953 H 0.71499 0.12861 0.6831 0.0
H954 H 0.74378 0.11294 0.92764 0.0
H955 H 0.78349 0.1207 0.71583 0.0
C956 C 0.81222 0.12288 0.78264 0.0
C957 C 0.82066 0.12454 0.85279 0.0
C958 C 0.73744 0.1164 0.87408 0.0
C959 C 0.77547 0.12252 0.82875 0.0
C960 C 0.71488 0.11552 0.8612 0.0
C961 C 0.70631 0.11998 0.79224 0.0
C962 C 0.75148 0.12151 0.81738 0.0
C963 C 0.72089 0.12513 0.73715 0.0
C964 C 0.78968 0.122 0.77039 0.0
C965 C 0.80591 0.1252 0.90969 0.0
N966 N 0.74278 0.12567 0.75086 0.0
N967 N 0.784 0.12408 0.89645 0.0
H968 H 0.83164 0.53802 0.08209 0.0
H969 H 0.88969 0.44598 0.86145 0.0
H970 H 0.89087 0.54828 0.96306 0.0
H971 H 0.84165 0.4336 0.02439 0.0
H972 H 0.88807 0.4841 0.88847 0.0
H973 H 0.83286 0.50018 0.05228 0.0
C974 C 0.84491 0.53233 0.04971 0.0
C975 C 0.86121 0.54636 0.02525 0.0
C976 C 0.87789 0.47301 0.91824 0.0
C977 C 0.86262 0.50304 0.99047 0.0
C978 C 0.87875 0.45126 0.90267 0.0
C979 C 0.86583 0.43654 0.94083 0.0
C980 C 0.86385 0.48012 0.9718 0.0
C981 C 0.85198 0.44433 0.99378 0.0
C982 C 0.84562 0.51071 0.0328 0.0
C983 C 0.87801 0.53804 0.9834 0.0
N984 N 0.85133 0.46555 0.00754 0.0
N985 N 0.87824 0.51695 0.96714 0.0
H986 H 0.19907 0.13461 0.85405 0.0
H987 H 0.29418 0.13462 0.57119 0.0
H988 H 0.19105 0.10583 0.64652 0.0
H989 H 0.30825 0.12712 0.79804 0.0
H990 H 0.2551 0.13046 0.59551 0.0
H991 H 0.2385 0.13812 0.83243 0.0
C992 C 0.20563 0.12902 0.80411 0.0
C993 C 0.1919 0.11986 0.75205 0.0
C994 C 0.2668 0.12972 0.63981 0.0
C995 C 0.23653 0.12419 0.7267 0.0
C996 C 0.28901 0.13219 0.62609 0.0
C997 C 0.30438 0.13115 0.68273 0.0
C998 C 0.25993 0.12669 0.71075 0.0
C999 C 0.29688 0.12789 0.75288 0.0
C1000 C 0.22804 0.13096 0.79198 0.0
C1001 C 0.20114 0.11284 0.68824 0.0
N1002 N 0.2751 0.12595 0.76508 0.0
N1003 N 0.22288 0.11535 0.67699 0.0
H1004 H 0.63403 0.5599 0.52468 0.0
H1005 H 0.65956 0.44316 0.38058 0.0
H1006 H 0.64792 0.54778 0.30255 0.0
H1007 H 0.63215 0.45532 0.58793 0.0
H1008 H 0.65929 0.4816 0.35416 0.0
H1009 H 0.63725 0.52187 0.55152 0.0
C1010 C 0.63785 0.54927 0.48142 0.0
C1011 C 0.64062 0.55713 0.41102 0.0
C1012 C 0.6534 0.47583 0.40547 0.0
C1013 C 0.64433 0.51332 0.44181 0.0
C1014 C 0.65362 0.4539 0.42076 0.0
C1015 C 0.64581 0.44598 0.48656 0.0
C1016 C 0.64548 0.48997 0.45657 0.0
C1017 C 0.63825 0.46067 0.53643 0.0
C1018 C 0.63963 0.52749 0.49689 0.0
C1019 C 0.64555 0.54246 0.35748 0.0
N1020 N 0.63828 0.48192 0.52039 0.0
N1021 N 0.64724 0.52125 0.37398 0.0
H1022 H 0.31453 0.87722 0.16342 0.0
H1023 H 0.19398 0.87713 0.31134 0.0
H1024 H 0.30133 0.89121 0.38453 0.0
H1025 H 0.2079 0.89214 0.08969 0.0
H1026 H 0.23315 0.87945 0.34009 0.0
H1027 H 0.27539 0.8798 0.13562 0.0
C1028 C 0.3034 0.8809 0.20612 0.0
C1029 C 0.3112 0.88391 0.27652 0.0
C1030 C 0.22758 0.88241 0.28532 0.0
C1031 C 0.26636 0.88666 0.24505 0.0
C1032 C 0.20526 0.88099 0.26876 0.0
C1033 C 0.19767 0.88435 0.19789 0.0
C1034 C 0.24246 0.8868 0.23041 0.0
C1035 C 0.21302 0.88946 0.14502 0.0
C1036 C 0.28108 0.88246 0.19009 0.0
C1037 C 0.29602 0.88879 0.32956 0.0
N1038 N 0.23472 0.89027 0.16219 0.0
N1039 N 0.27427 0.88975 0.31292 0.0
H1040 H 0.60809 0.96743 0.417 0.0
H1041 H 0.65205 0.06366 0.65698 0.0
H1042 H 0.65559 0.95912 0.58935 0.0
H1043 H 0.61289 0.07253 0.4636 0.0
H1044 H 0.65303 0.02529 0.63501 0.0
H1045 H 0.60893 0.00594 0.43554 0.0
C1046 C 0.61872 0.97369 0.45872 0.0
C1047 C 0.63178 0.96 0.50171 0.0
C1048 C 0.64432 0.03566 0.59725 0.0
C1049 C 0.63278 0.00414 0.52339 0.0
C1050 C 0.64374 0.05759 0.60976 0.0
C1051 C 0.63232 0.07142 0.56221 0.0
C1052 C 0.63328 0.02743 0.53704 0.0
C1053 C 0.62189 0.06256 0.50185 0.0
C1054 C 0.61922 0.99571 0.46918 0.0
C1055 C 0.64526 0.96906 0.55486 0.0
N1056 N 0.62253 0.04117 0.49126 0.0
N1057 N 0.64534 0.99054 0.56438 0.0
H1058 H 0.19234 0.37766 0.9555 0.0
H1059 H 0.28566 0.38406 0.66108 0.0
H1060 H 0.17804 0.38947 0.73065 0.0
H1061 H 0.29787 0.39669 0.88516 0.0
H1062 H 0.24635 0.38188 0.68518 0.0
H1063 H 0.2315 0.38034 0.93048 0.0
C1064 C 0.19743 0.38076 0.90088 0.0
C1065 C 0.18189 0.38338 0.84512 0.0
C1066 C 0.25767 0.3852 0.72892 0.0
C1067 C 0.22664 0.38629 0.81607 0.0
C1068 C 0.28008 0.3864 0.71526 0.0
C1069 C 0.29507 0.39062 0.77114 0.0
C1070 C 0.25024 0.38789 0.79915 0.0
C1071 C 0.28692 0.39352 0.84034 0.0
C1072 C 0.21976 0.38238 0.8867 0.0
C1073 C 0.18944 0.38746 0.77535 0.0
N1074 N 0.26509 0.39196 0.85246 0.0
N1075 N 0.21127 0.38866 0.76273 0.0
H1076 H 0.88998 0.93981 0.95976 0.0
H1077 H 0.83113 0.04944 0.05809 0.0
H1078 H 0.84174 0.94541 0.1252 0.0
H1079 H 0.88742 0.04642 0.92161 0.0
H1080 H 0.8319 0.01062 0.07135 0.0
H1081 H 0.88649 0.97813 0.9341 0.0
C1082 C 0.87858 0.94903 0.99048 0.0
C1083 C 0.86623 0.93933 0.04508 0.0
C1084 C 0.84403 0.01842 0.0382 0.0
C1085 C 0.86214 0.98321 0.01571 0.0
C1086 C 0.84356 0.04062 0.03037 0.0
C1087 C 0.85933 0.05126 0.98902 0.0
C1088 C 0.86033 0.00669 0.00428 0.0
C1089 C 0.875 0.03891 0.95429 0.0
C1090 C 0.87664 0.97093 0.97584 0.0
C1091 C 0.85172 0.95216 0.08297 0.0
N1092 N 0.87516 0.01729 0.96293 0.0
N1093 N 0.8501 0.9734 0.06763 0.0
H1094 H 0.20108 0.63523 0.24657 0.0
H1095 H 0.31757 0.57776 0.24445 0.0
H1096 H 0.20845 0.5673 0.22034 0.0
H1097 H 0.30692 0.63683 0.35433 0.0
H1098 H 0.27828 0.5756 0.21805 0.0
H1099 H 0.24068 0.6381 0.26825 0.0
C1100 C 0.21105 0.62096 0.24467 0.0
C1101 C 0.20146 0.60097 0.23175 0.0
C1102 C 0.28456 0.58902 0.24797 0.0
C1103 C 0.24668 0.60419 0.25624 0.0
C1104 C 0.30698 0.59031 0.2629 0.0
C1105 C 0.31554 0.60748 0.30182 0.0
C1106 C 0.27059 0.60521 0.27102 0.0
C1107 C 0.301 0.62325 0.32454 0.0
C1108 C 0.2336 0.6226 0.25753 0.0
C1109 C 0.21514 0.583 0.2304 0.0
N1110 N 0.27924 0.6218 0.30844 0.0
N1111 N 0.23706 0.58504 0.24225 0.0
H1112 H 0.38717 0.96293 0.46233 0.0
H1113 H 0.31268 0.06447 0.53675 0.0
H1114 H 0.3175 0.95912 0.49551 0.0
H1115 H 0.38319 0.06581 0.55458 0.0
H1116 H 0.31416 0.02602 0.51818 0.0
H1117 H 0.38614 1.00085 0.4916 0.0
C1118 C 0.37166 0.97006 0.47574 0.0
C1119 C 0.35237 0.95784 0.47622 0.0
C1120 C 0.32932 0.03468 0.52664 0.0
C1121 C 0.35109 0.00122 0.50966 0.0
C1122 C 0.32849 0.05665 0.53717 0.0
C1123 C 0.34785 0.06838 0.54699 0.0
C1124 C 0.34968 0.02434 0.52504 0.0
C1125 C 0.36786 0.05737 0.54732 0.0
C1126 C 0.37111 0.99168 0.49275 0.0
C1127 C 0.33277 0.96791 0.4944 0.0
N1128 N 0.36827 0.03598 0.53585 0.0
N1129 N 0.33262 0.98902 0.50999 0.0
H1130 H 0.82933 0.61496 0.29287 0.0
H1131 H 0.7036 0.62821 0.17063 0.0
H1132 H 0.80856 0.62791 0.07378 0.0
H1133 H 0.72451 0.61087 0.38633 0.0
H1134 H 0.74192 0.6299 0.13526 0.0
H1135 H 0.79112 0.61498 0.32879 0.0
C1136 C 0.81676 0.61784 0.2522 0.0
C1137 C 0.82225 0.62143 0.18005 0.0
C1138 C 0.73814 0.62577 0.19037 0.0
C1139 C 0.77827 0.62144 0.22111 0.0
C1140 C 0.71624 0.62485 0.21071 0.0
C1141 C 0.71077 0.61933 0.28164 0.0
C1142 C 0.75478 0.6212 0.24124 0.0
C1143 C 0.7279 0.61515 0.33107 0.0
C1144 C 0.79489 0.61782 0.27284 0.0
C1145 C 0.80515 0.62503 0.12995 0.0
N1146 N 0.74909 0.61614 0.30992 0.0
N1147 N 0.78396 0.62494 0.15142 0.0
H1148 H 0.11959 0.06295 0.80474 0.0
H1149 H 0.14035 0.96644 0.08264 0.0
H1150 H 0.14456 0.07244 0.01986 0.0
H1151 H 0.14113 0.95857 0.85304 0.0
H1152 H 0.13722 0.00515 0.06346 0.0
H1153 H 0.12269 0.02427 0.8243 0.0
C1154 C 0.12567 0.05689 0.85613 0.0
C1155 C 0.13187 0.07092 0.91071 0.0
C1156 C 0.13812 0.99492 0.01738 0.0
C1157 C 0.13526 0.02676 0.93358 0.0
C1158 C 0.13982 0.97284 0.02824 0.0
C1159 C 0.14105 0.95926 0.96934 0.0
C1160 C 0.13727 0.00344 0.94714 0.0
C1161 C 0.14034 0.96844 0.90001 0.0
C1162 C 0.12751 0.03485 0.86712 0.0
C1163 C 0.13972 0.0622 0.97617 0.0
N1164 N 0.13837 0.98994 0.89081 0.0
N1165 N 0.14107 0.04067 0.98595 0.0
H1166 H 0.68049 0.40712 0.79413 0.0
H1167 H 0.80014 0.35864 0.76486 0.0
H1168 H 0.69633 0.35996 0.63722 0.0
H1169 H 0.78945 0.42365 0.82877 0.0
H1170 H 0.76095 0.35536 0.73679 0.0
H1171 H 0.71948 0.41007 0.82567 0.0
C1172 C 0.69217 0.39736 0.76643 0.0
C1173 C 0.68518 0.38332 0.71279 0.0
C1174 C 0.76722 0.3703 0.75718 0.0
C1175 C 0.72965 0.38639 0.74947 0.0
C1176 C 0.78951 0.37215 0.7737 0.0
C1177 C 0.79803 0.39147 0.79914 0.0
C1178 C 0.75329 0.38773 0.76757 0.0
C1179 C 0.78355 0.40851 0.80901 0.0
C1180 C 0.71437 0.39912 0.78431 0.0
C1181 C 0.70102 0.37109 0.67853 0.0
N1182 N 0.76184 0.40621 0.79358 0.0
N1183 N 0.72252 0.37277 0.69785 0.0
loop_
_geom_bond_atom_site_label_1
_geom_bond_atom_site_label_2
_geom_bond_distance
_geom_bond_site_symmetry_2
_ccdc_geom_bond_type
Zn0 O6 1.969 . S
Zn0 O7 1.965 . S
Zn0 O11 2.024 . S
Zn0 O16 1.969 . S
Zn1 O8 1.969 . S
Zn1 O14 1.969 1_554 S
Zn1 O15 1.965 . S
Zn1 O17 2.024 . S
C2 O3 1.229 . S
C2 O11 1.058 . S
O3 C2 1.229 . S
C4 O5 1.229 . S
C4 O17 1.058 . S
O5 C4 1.229 . S
O6 Zn0 1.969 . S
O6 C9 1.267 . S
O7 Zn0 1.965 . S
O7 C18 1.260 . S
O8 Zn1 1.969 . S
O8 C18 1.258 . S
C9 O6 1.267 . S
C9 O10 1.228 . S
O10 C9 1.228 . S
O11 Zn0 2.024 . S
O11 C2 1.058 . S
C12 O13 1.228 . S
C12 O14 1.267 . S
O13 C12 1.228 . S
O14 Zn1 1.969 1_556 S
O14 C12 1.267 . S
O15 Zn1 1.965 . S
O15 C19 1.260 . S
O16 Zn0 1.969 . S
O16 C19 1.258 . S
O17 Zn1 2.024 . S
O17 C4 1.058 . S
C18 O7 1.260 . S
C18 O8 1.258 . S
C19 O15 1.260 . S
C19 O16 1.258 . S
Zn20 O26 1.969 . S
Zn20 O27 1.965 . S
Zn20 O31 2.024 . S
Zn20 O36 1.969 . S
Zn21 O28 1.969 . S
Zn21 O34 1.969 . S
Zn21 O35 1.965 . S
Zn21 O37 2.024 . S
C22 O23 1.229 . S
C22 O31 1.058 . S
O23 C22 1.229 . S
C24 O25 1.229 . S
C24 O37 1.058 . S
O25 C24 1.229 . S
O26 Zn20 1.969 . S
O26 C29 1.267 . S
O27 Zn20 1.965 . S
O27 C38 1.260 . S
O28 Zn21 1.969 . S
O28 C38 1.258 . S
C29 O26 1.267 . S
C29 O30 1.228 . S
O30 C29 1.228 . S
O31 Zn20 2.024 . S
O31 C22 1.058 . S
C32 O33 1.228 . S
C32 O34 1.267 . S
O33 C32 1.228 . S
O34 Zn21 1.969 . S
O34 C32 1.267 . S
O35 Zn21 1.965 . S
O35 C39 1.260 . S
O36 Zn20 1.969 . S
O36 C39 1.258 . S
O37 Zn21 2.024 . S
O37 C24 1.058 . S
C38 O27 1.260 . S
C38 O28 1.258 . S
C39 O35 1.260 . S
C39 O36 1.258 . S
Zn40 O46 1.969 . S
Zn40 O47 1.965 . S
Zn40 O51 2.024 . S
Zn40 O56 1.969 . S
Zn41 O48 1.969 . S
Zn41 O54 1.969 . S
Zn41 O55 1.965 . S
Zn41 O57 2.024 . S
C42 O43 1.229 . S
C42 O51 1.058 . S
O43 C42 1.229 . S
C44 O45 1.229 . S
C44 O57 1.058 . S
O45 C44 1.229 . S
O46 Zn40 1.969 . S
O46 C49 1.267 . S
O47 Zn40 1.965 . S
O47 C58 1.260 . S
O48 Zn41 1.969 . S
O48 C58 1.258 . S
C49 O46 1.267 . S
C49 O50 1.228 . S
O50 C49 1.228 . S
O51 Zn40 2.024 . S
O51 C42 1.058 . S
C52 O53 1.228 . S
C52 O54 1.267 . S
O53 C52 1.228 . S
O54 Zn41 1.969 . S
O54 C52 1.267 . S
O55 Zn41 1.965 . S
O55 C59 1.260 . S
O56 Zn40 1.969 . S
O56 C59 1.258 . S
O57 Zn41 2.024 . S
O57 C44 1.058 . S
C58 O47 1.260 . S
C58 O48 1.258 . S
C59 O55 1.260 . S
C59 O56 1.258 . S
Zn60 O66 1.969 . S
Zn60 O67 1.965 1_554 S
Zn60 O71 2.024 1_554 S
Zn60 O76 1.969 1_554 S
Zn61 O68 1.969 . S
Zn61 O74 1.969 . S
Zn61 O75 1.965 . S
Zn61 O77 2.024 . S
C62 O63 1.229 . S
C62 O71 1.058 1_554 S
O63 C62 1.229 . S
C64 O65 1.229 . S
C64 O77 1.058 . S
O65 C64 1.229 . S
O66 Zn60 1.969 . S
O66 C69 1.267 . S
O67 Zn60 1.965 1_556 S
O67 C78 1.260 . S
O68 Zn61 1.969 . S
O68 C78 1.258 . S
C69 O66 1.267 . S
C69 O70 1.228 . S
O70 C69 1.228 . S
O71 Zn60 2.024 1_556 S
O71 C62 1.058 1_556 S
C72 O73 1.228 . S
C72 O74 1.267 . S
O73 C72 1.228 . S
O74 Zn61 1.969 . S
O74 C72 1.267 . S
O75 Zn61 1.965 . S
O75 C79 1.260 . S
O76 Zn60 1.969 1_556 S
O76 C79 1.258 . S
O77 Zn61 2.024 . S
O77 C64 1.058 . S
C78 O67 1.260 . S
C78 O68 1.258 . S
C79 O75 1.260 . S
C79 O76 1.258 . S
Zn80 O86 1.969 . S
Zn80 O87 1.965 1_554 S
Zn80 O91 2.024 1_554 S
Zn80 O96 1.969 1_554 S
Zn81 O88 1.969 . S
Zn81 O94 1.969 . S
Zn81 O95 1.965 . S
Zn81 O97 2.024 . S
C82 O83 1.229 . S
C82 O91 1.058 1_554 S
O83 C82 1.229 . S
C84 O85 1.229 . S
C84 O97 1.058 . S
O85 C84 1.229 . S
O86 Zn80 1.969 . S
O86 C89 1.267 . S
O87 Zn80 1.965 1_556 S
O87 C98 1.260 . S
O88 Zn81 1.969 . S
O88 C98 1.258 . S
C89 O86 1.267 . S
C89 O90 1.228 . S
O90 C89 1.228 . S
O91 Zn80 2.024 1_556 S
O91 C82 1.058 1_556 S
C92 O93 1.228 . S
C92 O94 1.267 . S
O93 C92 1.228 . S
O94 Zn81 1.969 . S
O94 C92 1.267 . S
O95 Zn81 1.965 . S
O95 C99 1.260 . S
O96 Zn80 1.969 1_556 S
O96 C99 1.258 . S
O97 Zn81 2.024 . S
O97 C84 1.058 . S
C98 O87 1.260 . S
C98 O88 1.258 . S
C99 O95 1.260 . S
C99 O96 1.258 . S
Zn100 O106 1.969 . S
Zn100 O107 1.965 . S
Zn100 O111 2.024 . S
Zn100 O116 1.969 . S
Zn101 O108 1.969 . S
Zn101 O114 1.969 1_554 S
Zn101 O115 1.965 . S
Zn101 O117 2.024 . S
C102 O103 1.229 . S
C102 O111 1.058 . S
O103 C102 1.229 . S
C104 O105 1.229 . S
C104 O117 1.058 . S
O105 C104 1.229 . S
O106 Zn100 1.969 . S
O106 C109 1.267 . S
O107 Zn100 1.965 . S
O107 C118 1.260 . S
O108 Zn101 1.969 . S
O108 C118 1.258 . S
C109 O106 1.267 . S
C109 O110 1.228 . S
O110 C109 1.228 . S
O111 Zn100 2.024 . S
O111 C102 1.058 . S
C112 O113 1.228 . S
C112 O114 1.267 . S
O113 C112 1.228 . S
O114 Zn101 1.969 1_556 S
O114 C112 1.267 . S
O115 Zn101 1.965 . S
O115 C119 1.260 . S
O116 Zn100 1.969 . S
O116 C119 1.258 . S
O117 Zn101 2.024 . S
O117 C104 1.058 . S
C118 O107 1.260 . S
C118 O108 1.258 . S
C119 O115 1.260 . S
C119 O116 1.258 . S
Zn120 O126 1.969 . S
Zn120 O127 1.965 . S
Zn120 O131 2.024 . S
Zn120 O136 1.969 . S
Zn121 O128 1.969 . S
Zn121 O134 1.969 . S
Zn121 O135 1.965 . S
Zn121 O137 2.024 . S
C122 O123 1.229 . S
C122 O131 1.058 . S
O123 C122 1.229 . S
C124 O125 1.229 . S
C124 O137 1.058 . S
O125 C124 1.229 . S
O126 Zn120 1.969 . S
O126 C129 1.267 . S
O127 Zn120 1.965 . S
O127 C138 1.260 . S
O128 Zn121 1.969 . S
O128 C138 1.258 . S
C129 O126 1.267 . S
C129 O130 1.228 . S
O130 C129 1.228 . S
O131 Zn120 2.024 . S
O131 C122 1.058 . S
C132 O133 1.228 . S
C132 O134 1.267 . S
O133 C132 1.228 . S
O134 Zn121 1.969 . S
O134 C132 1.267 . S
O135 Zn121 1.965 . S
O135 C139 1.260 . S
O136 Zn120 1.969 . S
O136 C139 1.258 . S
O137 Zn121 2.024 . S
O137 C124 1.058 . S
C138 O127 1.260 . S
C138 O128 1.258 . S
C139 O135 1.260 . S
C139 O136 1.258 . S
Zn140 O146 1.969 . S
Zn140 O147 1.965 . S
Zn140 O151 2.024 . S
Zn140 O156 1.969 . S
Zn141 O148 1.969 . S
Zn141 O154 1.969 . S
Zn141 O155 1.965 . S
Zn141 O157 2.024 . S
C142 O143 1.229 . S
C142 O151 1.058 . S
O143 C142 1.229 . S
C144 O145 1.229 . S
C144 O157 1.058 . S
O145 C144 1.229 . S
O146 Zn140 1.969 . S
O146 C149 1.267 . S
O147 Zn140 1.965 . S
O147 C158 1.260 . S
O148 Zn141 1.969 . S
O148 C158 1.258 . S
C149 O146 1.267 . S
C149 O150 1.228 . S
O150 C149 1.228 . S
O151 Zn140 2.024 . S
O151 C142 1.058 . S
C152 O153 1.228 . S
C152 O154 1.267 . S
O153 C152 1.228 . S
O154 Zn141 1.969 . S
O154 C152 1.267 . S
O155 Zn141 1.965 . S
O155 C159 1.260 . S
O156 Zn140 1.969 . S
O156 C159 1.258 . S
O157 Zn141 2.024 . S
O157 C144 1.058 . S
C158 O147 1.260 . S
C158 O148 1.258 . S
C159 O155 1.260 . S
C159 O156 1.258 . S
Zn160 O166 1.969 1_556 S
Zn160 O167 1.965 . S
Zn160 O171 2.024 . S
Zn160 O176 1.969 . S
Zn161 O168 1.969 . S
Zn161 O174 1.969 . S
Zn161 O175 1.965 . S
Zn161 O177 2.024 . S
C162 O163 1.229 . S
C162 O171 1.058 . S
O163 C162 1.229 . S
C164 O165 1.229 . S
C164 O177 1.058 . S
O165 C164 1.229 . S
O166 Zn160 1.969 1_554 S
O166 C169 1.267 . S
O167 Zn160 1.965 . S
O167 C178 1.260 . S
O168 Zn161 1.969 . S
O168 C178 1.258 . S
C169 O166 1.267 . S
C169 O170 1.228 . S
O170 C169 1.228 . S
O171 Zn160 2.024 . S
O171 C162 1.058 . S
C172 O173 1.228 . S
C172 O174 1.267 . S
O173 C172 1.228 . S
O174 Zn161 1.969 . S
O174 C172 1.267 . S
O175 Zn161 1.965 . S
O175 C179 1.260 . S
O176 Zn160 1.969 . S
O176 C179 1.258 . S
O177 Zn161 2.024 . S
O177 C164 1.058 . S
C178 O167 1.260 . S
C178 O168 1.258 . S
C179 O175 1.260 . S
C179 O176 1.258 . S
Zn180 O186 1.969 . S
Zn180 O187 1.965 . S
Zn180 O191 2.024 . S
Zn180 O196 1.969 . S
Zn181 O188 1.969 . S
Zn181 O194 1.969 . S
Zn181 O195 1.965 . S
Zn181 O197 2.024 . S
C182 O183 1.229 . S
C182 O191 1.058 . S
O183 C182 1.229 . S
C184 O185 1.229 . S
C184 O197 1.058 . S
O185 C184 1.229 . S
O186 Zn180 1.969 . S
O186 C189 1.267 . S
O187 Zn180 1.965 . S
O187 C198 1.260 . S
O188 Zn181 1.969 . S
O188 C198 1.258 . S
C189 O186 1.267 . S
C189 O190 1.228 . S
O190 C189 1.228 . S
O191 Zn180 2.024 . S
O191 C182 1.058 . S
C192 O193 1.228 . S
C192 O194 1.267 . S
O193 C192 1.228 . S
O194 Zn181 1.969 . S
O194 C192 1.267 . S
O195 Zn181 1.965 . S
O195 C199 1.260 . S
O196 Zn180 1.969 . S
O196 C199 1.258 . S
O197 Zn181 2.024 . S
O197 C184 1.058 . S
C198 O187 1.260 . S
C198 O188 1.258 . S
C199 O195 1.260 . S
C199 O196 1.258 . S
Zn200 O206 1.969 . S
Zn200 O207 1.965 . S
Zn200 O211 2.024 . S
Zn200 O216 1.969 . S
Zn201 O208 1.969 . S
Zn201 O214 1.969 . S
Zn201 O215 1.965 . S
Zn201 O217 2.024 . S
C202 O203 1.229 . S
C202 O211 1.058 . S
O203 C202 1.229 . S
C204 O205 1.229 . S
C204 O217 1.058 . S
O205 C204 1.229 . S
O206 Zn200 1.969 . S
O206 C209 1.267 . S
O207 Zn200 1.965 . S
O207 C218 1.260 . S
O208 Zn201 1.969 . S
O208 C218 1.258 . S
C209 O206 1.267 . S
C209 O210 1.228 . S
O210 C209 1.228 . S
O211 Zn200 2.024 . S
O211 C202 1.058 . S
C212 O213 1.228 . S
C212 O214 1.267 . S
O213 C212 1.228 . S
O214 Zn201 1.969 . S
O214 C212 1.267 . S
O215 Zn201 1.965 . S
O215 C219 1.260 . S
O216 Zn200 1.969 . S
O216 C219 1.258 . S
O217 Zn201 2.024 . S
O217 C204 1.058 . S
C218 O207 1.260 . S
C218 O208 1.258 . S
C219 O215 1.260 . S
C219 O216 1.258 . S
Zn220 O226 1.969 . S
Zn220 O227 1.965 . S
Zn220 O231 2.024 . S
Zn220 O236 1.969 . S
Zn221 O228 1.969 . S
Zn221 O234 1.969 1_554 S
Zn221 O235 1.965 . S
Zn221 O237 2.024 . S
C222 O223 1.229 . S
C222 O231 1.058 . S
O223 C222 1.229 . S
C224 O225 1.229 1_554 S
C224 O237 1.058 . S
O225 C224 1.229 1_556 S
O226 Zn220 1.969 . S
O226 C229 1.267 . S
O227 Zn220 1.965 . S
O227 C238 1.260 . S
O228 Zn221 1.969 . S
O228 C238 1.258 . S
C229 O226 1.267 . S
C229 O230 1.228 . S
O230 C229 1.228 . S
O231 Zn220 2.024 . S
O231 C222 1.058 . S
C232 O233 1.228 . S
C232 O234 1.267 . S
O233 C232 1.228 . S
O234 Zn221 1.969 1_556 S
O234 C232 1.267 . S
O235 Zn221 1.965 . S
O235 C239 1.260 . S
O236 Zn220 1.969 . S
O236 C239 1.258 . S
O237 Zn221 2.024 . S
O237 C224 1.058 . S
C238 O227 1.260 . S
C238 O228 1.258 . S
C239 O235 1.260 . S
C239 O236 1.258 . S
Zn240 O246 1.969 . S
Zn240 O247 1.965 . S
Zn240 O251 2.024 . S
Zn240 O256 1.969 . S
Zn241 O248 1.969 1_556 S
Zn241 O254 1.969 . S
Zn241 O255 1.965 1_556 S
Zn241 O257 2.024 1_556 S
C242 O243 1.229 . S
C242 O251 1.058 . S
O243 C242 1.229 . S
C244 O245 1.229 . S
C244 O257 1.058 1_556 S
O245 C244 1.229 . S
O246 Zn240 1.969 . S
O246 C249 1.267 . S
O247 Zn240 1.965 . S
O247 C258 1.260 . S
O248 Zn241 1.969 1_554 S
O248 C258 1.258 . S
C249 O246 1.267 . S
C249 O250 1.228 . S
O250 C249 1.228 . S
O251 Zn240 2.024 . S
O251 C242 1.058 . S
C252 O253 1.228 . S
C252 O254 1.267 . S
O253 C252 1.228 . S
O254 Zn241 1.969 . S
O254 C252 1.267 . S
O255 Zn241 1.965 1_554 S
O255 C259 1.260 . S
O256 Zn240 1.969 . S
O256 C259 1.258 . S
O257 Zn241 2.024 1_554 S
O257 C244 1.058 1_554 S
C258 O247 1.260 . S
C258 O248 1.258 . S
C259 O255 1.260 . S
C259 O256 1.258 . S
Zn260 O266 1.969 1_556 S
Zn260 O267 1.965 . S
Zn260 O271 2.024 . S
Zn260 O276 1.969 . S
Zn261 O268 1.969 . S
Zn261 O274 1.969 . S
Zn261 O275 1.965 . S
Zn261 O277 2.024 . S
C262 O263 1.229 . S
C262 O271 1.058 . S
O263 C262 1.229 . S
C264 O265 1.229 . S
C264 O277 1.058 . S
O265 C264 1.229 . S
O266 Zn260 1.969 1_554 S
O266 C269 1.267 . S
O267 Zn260 1.965 . S
O267 C278 1.260 . S
O268 Zn261 1.969 . S
O268 C278 1.258 . S
C269 O266 1.267 . S
C269 O270 1.228 . S
O270 C269 1.228 . S
O271 Zn260 2.024 . S
O271 C262 1.058 . S
C272 O273 1.228 . S
C272 O274 1.267 . S
O273 C272 1.228 . S
O274 Zn261 1.969 . S
O274 C272 1.267 . S
O275 Zn261 1.965 . S
O275 C279 1.260 . S
O276 Zn260 1.969 . S
O276 C279 1.258 . S
O277 Zn261 2.024 . S
O277 C264 1.058 . S
C278 O267 1.260 . S
C278 O268 1.258 . S
C279 O275 1.260 . S
C279 O276 1.258 . S
Zn280 O286 1.969 . S
Zn280 O287 1.965 . S
Zn280 O291 2.024 . S
Zn280 O296 1.969 . S
Zn281 O288 1.969 . S
Zn281 O294 1.969 . S
Zn281 O295 1.965 . S
Zn281 O297 2.024 . S
C282 O283 1.229 . S
C282 O291 1.058 . S
O283 C282 1.229 . S
C284 O285 1.229 . S
C284 O297 1.058 . S
O285 C284 1.229 . S
O286 Zn280 1.969 . S
O286 C289 1.267 . S
O287 Zn280 1.965 . S
O287 C298 1.260 . S
O288 Zn281 1.969 . S
O288 C298 1.258 . S
C289 O286 1.267 . S
C289 O290 1.228 . S
O290 C289 1.228 . S
O291 Zn280 2.024 . S
O291 C282 1.058 . S
C292 O293 1.228 . S
C292 O294 1.267 . S
O293 C292 1.228 . S
O294 Zn281 1.969 . S
O294 C292 1.267 . S
O295 Zn281 1.965 . S
O295 C299 1.260 . S
O296 Zn280 1.969 . S
O296 C299 1.258 . S
O297 Zn281 2.024 . S
O297 C284 1.058 . S
C298 O287 1.260 . S
C298 O288 1.258 . S
C299 O295 1.260 . S
C299 O296 1.258 . S
Zn300 O306 1.969 . S
Zn300 O307 1.965 . S
Zn300 O311 2.024 . S
Zn300 O316 1.969 . S
Zn301 O308 1.969 . S
Zn301 O314 1.969 . S
Zn301 O315 1.965 . S
Zn301 O317 2.024 . S
C302 O303 1.229 . S
C302 O311 1.058 . S
O303 C302 1.229 . S
C304 O305 1.229 . S
C304 O317 1.058 . S
O305 C304 1.229 . S
O306 Zn300 1.969 . S
O306 C309 1.267 . S
O307 Zn300 1.965 . S
O307 C318 1.260 . S
O308 Zn301 1.969 . S
O308 C318 1.258 . S
C309 O306 1.267 . S
C309 O310 1.228 . S
O310 C309 1.228 . S
O311 Zn300 2.024 . S
O311 C302 1.058 . S
C312 O313 1.228 . S
C312 O314 1.267 . S
O313 C312 1.228 . S
O314 Zn301 1.969 . S
O314 C312 1.267 . S
O315 Zn301 1.965 . S
O315 C319 1.260 . S
O316 Zn300 1.969 . S
O316 C319 1.258 . S
O317 Zn301 2.024 . S
O317 C304 1.058 . S
C318 O307 1.260 . S
C318 O308 1.258 . S
C319 O315 1.260 . S
C319 O316 1.258 . S
H320 C326 0.930 . S
H321 C330 0.930 . S
H322 C335 0.929 . S
H323 C333 0.929 . S
H324 C328 0.929 . S
H325 C334 0.929 . S
C326 H320 0.930 . S
C326 C327 1.367 . S
C326 C334 1.378 . S
C327 C326 1.367 . S
C327 C335 1.433 . S
C328 H324 0.929 . S
C328 C330 1.378 . S
C328 C332 1.350 . S
C329 C332 1.463 . S
C329 C334 1.350 . S
C329 N337 1.427 . S
C330 H321 0.930 . S
C330 C328 1.378 . S
C330 C331 1.367 . S
C331 C330 1.367 . S
C331 C333 1.433 . S
C332 C328 1.350 . S
C332 C329 1.463 . S
C332 N336 1.427 . S
C333 H323 0.929 . S
C333 C331 1.433 . S
C333 N336 1.384 . S
C334 H325 0.929 . S
C334 C326 1.378 . S
C334 C329 1.350 . S
C335 H322 0.929 . S
C335 C327 1.433 . S
C335 N337 1.384 . S
N336 C332 1.427 . S
N336 C333 1.384 . S
N337 C329 1.427 . S
N337 C335 1.384 . S
H338 C344 0.930 . S
H339 C348 0.930 . S
H340 C353 0.929 . S
H341 C351 0.929 . S
H342 C346 0.929 . S
H343 C352 0.929 . S
C344 H338 0.930 . S
C344 C345 1.367 . S
C344 C352 1.378 1_554 S
C345 C344 1.367 . S
C345 C353 1.433 . S
C346 H342 0.929 . S
C346 C348 1.378 . S
C346 C350 1.350 . S
C347 C350 1.463 . S
C347 C352 1.350 . S
C347 N355 1.427 . S
C348 H339 0.930 . S
C348 C346 1.378 . S
C348 C349 1.367 . S
C349 C348 1.367 . S
C349 C351 1.433 . S
C350 C346 1.350 . S
C350 C347 1.463 . S
C350 N354 1.427 . S
C351 H341 0.929 . S
C351 C349 1.433 . S
C351 N354 1.384 . S
C352 H343 0.929 . S
C352 C344 1.378 1_556 S
C352 C347 1.350 . S
C353 H340 0.929 . S
C353 C345 1.433 . S
C353 N355 1.384 1_554 S
N354 C350 1.427 . S
N354 C351 1.384 . S
N355 C347 1.427 . S
N355 C353 1.384 1_556 S
H356 C362 0.930 . S
H357 C366 0.930 . S
H358 C371 0.929 . S
H359 C369 0.929 1_556 S
H360 C364 0.929 . S
H361 C370 0.929 . S
C362 H356 0.930 . S
C362 C363 1.367 . S
C362 C370 1.378 . S
C363 C362 1.367 . S
C363 C371 1.433 . S
C364 H360 0.929 . S
C364 C366 1.378 . S
C364 C368 1.350 . S
C365 C368 1.463 . S
C365 C370 1.350 . S
C365 N373 1.427 . S
C366 H357 0.930 . S
C366 C364 1.378 . S
C366 C367 1.367 1_554 S
C367 C366 1.367 1_556 S
C367 C369 1.433 1_556 S
C368 C364 1.350 . S
C368 C365 1.463 . S
C368 N372 1.427 . S
C369 H359 0.929 1_554 S
C369 C367 1.433 1_554 S
C369 N372 1.384 . S
C370 H361 0.929 . S
C370 C362 1.378 . S
C370 C365 1.350 . S
C371 H358 0.929 . S
C371 C363 1.433 . S
C371 N373 1.384 . S
N372 C368 1.427 . S
N372 C369 1.384 . S
N373 C365 1.427 . S
N373 C371 1.384 . S
H374 C380 0.930 . S
H375 C384 0.930 . S
H376 C389 0.929 . S
H377 C387 0.929 . S
H378 C382 0.929 . S
H379 C388 0.929 . S
C380 H374 0.930 . S
C380 C381 1.367 . S
C380 C388 1.378 . S
C381 C380 1.367 . S
C381 C389 1.433 . S
C382 H378 0.929 . S
C382 C384 1.378 . S
C382 C386 1.350 . S
C383 C386 1.463 . S
C383 C388 1.350 . S
C383 N391 1.427 . S
C384 H375 0.930 . S
C384 C382 1.378 . S
C384 C385 1.367 . S
C385 C384 1.367 . S
C385 C387 1.433 . S
C386 C382 1.350 . S
C386 C383 1.463 . S
C386 N390 1.427 . S
C387 H377 0.929 . S
C387 C385 1.433 . S
C387 N390 1.384 . S
C388 H379 0.929 . S
C388 C380 1.378 . S
C388 C383 1.350 . S
C389 H376 0.929 . S
C389 C381 1.433 . S
C389 N391 1.384 . S
N390 C386 1.427 . S
N390 C387 1.384 . S
N391 C383 1.427 . S
N391 C389 1.384 . S
H392 C398 0.930 . S
H393 C402 0.930 . S
H394 C407 0.929 . S
H395 C405 0.929 . S
H396 C400 0.929 . S
H397 C406 0.929 . S
C398 H392 0.930 . S
C398 C399 1.367 . S
C398 C406 1.378 . S
C399 C398 1.367 . S
C399 C407 1.433 . S
C400 H396 0.929 . S
C400 C402 1.378 . S
C400 C404 1.350 . S
C401 C404 1.463 . S
C401 C406 1.350 . S
C401 N409 1.427 . S
C402 H393 0.930 . S
C402 C400 1.378 . S
C402 C403 1.367 . S
C403 C402 1.367 . S
C403 C405 1.433 . S
C404 C400 1.350 . S
C404 C401 1.463 . S
C404 N408 1.427 . S
C405 H395 0.929 . S
C405 C403 1.433 . S
C405 N408 1.384 . S
C406 H397 0.929 . S
C406 C398 1.378 . S
C406 C401 1.350 . S
C407 H394 0.929 . S
C407 C399 1.433 . S
C407 N409 1.384 . S
N408 C404 1.427 . S
N408 C405 1.384 . S
N409 C401 1.427 . S
N409 C407 1.384 . S
H410 C416 0.930 . S
H411 C420 0.930 . S
H412 C425 0.929 . S
H413 C423 0.929 . S
H414 C418 0.929 . S
H415 C424 0.929 . S
C416 H410 0.930 . S
C416 C417 1.367 . S
C416 C424 1.378 . S
C417 C416 1.367 . S
C417 C425 1.433 . S
C418 H414 0.929 . S
C418 C420 1.378 . S
C418 C422 1.350 . S
C419 C422 1.463 . S
C419 C424 1.350 . S
C419 N427 1.427 . S
C420 H411 0.930 . S
C420 C418 1.378 . S
C420 C421 1.367 . S
C421 C420 1.367 . S
C421 C423 1.433 . S
C422 C418 1.350 . S
C422 C419 1.463 . S
C422 N426 1.427 . S
C423 H413 0.929 . S
C423 C421 1.433 . S
C423 N426 1.384 . S
C424 H415 0.929 . S
C424 C416 1.378 . S
C424 C419 1.350 . S
C425 H412 0.929 . S
C425 C417 1.433 . S
C425 N427 1.384 . S
N426 C422 1.427 . S
N426 C423 1.384 . S
N427 C419 1.427 . S
N427 C425 1.384 . S
H428 C434 0.930 . S
H429 C438 0.930 . S
H430 C443 0.929 . S
H431 C441 0.929 . S
H432 C436 0.929 . S
H433 C442 0.929 . S
C434 H428 0.930 . S
C434 C435 1.367 . S
C434 C442 1.378 . S
C435 C434 1.367 . S
C435 C443 1.433 . S
C436 H432 0.929 . S
C436 C438 1.378 1_556 S
C436 C440 1.350 . S
C437 C440 1.463 . S
C437 C442 1.350 . S
C437 N445 1.427 . S
C438 H429 0.930 . S
C438 C436 1.378 1_554 S
C438 C439 1.367 . S
C439 C438 1.367 . S
C439 C441 1.433 . S
C440 C436 1.350 . S
C440 C437 1.463 . S
C440 N444 1.427 . S
C441 H431 0.929 . S
C441 C439 1.433 . S
C441 N444 1.384 1_554 S
C442 H433 0.929 . S
C442 C434 1.378 . S
C442 C437 1.350 . S
C443 H430 0.929 . S
C443 C435 1.433 . S
C443 N445 1.384 . S
N444 C440 1.427 . S
N444 C441 1.384 1_556 S
N445 C437 1.427 . S
N445 C443 1.384 . S
H446 C452 0.930 1_556 S
H447 C456 0.930 . S
H448 C461 0.929 . S
H449 C459 0.929 . S
H450 C454 0.929 . S
H451 C460 0.929 . S
C452 H446 0.930 1_554 S
C452 C453 1.367 1_554 S
C452 C460 1.378 . S
C453 C452 1.367 1_556 S
C453 C461 1.433 1_556 S
C454 H450 0.929 . S
C454 C456 1.378 . S
C454 C458 1.350 . S
C455 C458 1.463 . S
C455 C460 1.350 . S
C455 N463 1.427 . S
C456 H447 0.930 . S
C456 C454 1.378 . S
C456 C457 1.367 . S
C457 C456 1.367 . S
C457 C459 1.433 . S
C458 C454 1.350 . S
C458 C455 1.463 . S
C458 N462 1.427 . S
C459 H449 0.929 . S
C459 C457 1.433 . S
C459 N462 1.384 . S
C460 H451 0.929 . S
C460 C452 1.378 . S
C460 C455 1.350 . S
C461 H448 0.929 . S
C461 C453 1.433 1_554 S
C461 N463 1.384 . S
N462 C458 1.427 . S
N462 C459 1.384 . S
N463 C455 1.427 . S
N463 C461 1.384 . S
H464 C470 0.930 . S
H465 C474 0.930 . S
H466 C479 0.929 . S
H467 C477 0.929 . S
H468 C472 0.929 . S
H469 C478 0.929 . S
C470 H464 0.930 . S
C470 C471 1.367 . S
C470 C478 1.378 . S
C471 C470 1.367 . S
C471 C479 1.433 . S
C472 H468 0.929 . S
C472 C474 1.378 . S
C472 C476 1.350 . S
C473 C476 1.463 . S
C473 C478 1.350 . S
C473 N481 1.427 . S
C474 H465 0.930 . S
C474 C472 1.378 . S
C474 C475 1.367 . S
C475 C474 1.367 . S
C475 C477 1.433 . S
C476 C472 1.350 . S
C476 C473 1.463 . S
C476 N480 1.427 . S
C477 H467 0.929 . S
C477 C475 1.433 . S
C477 N480 1.384 . S
C478 H469 0.929 . S
C478 C470 1.378 . S
C478 C473 1.350 . S
C479 H466 0.929 . S
C479 C471 1.433 . S
C479 N481 1.384 . S
N480 C476 1.427 . S
N480 C477 1.384 . S
N481 C473 1.427 . S
N481 C479 1.384 . S
H482 C488 0.930 . S
H483 C492 0.930 . S
H484 C497 0.929 . S
H485 C495 0.929 . S
H486 C490 0.929 . S
H487 C496 0.929 . S
C488 H482 0.930 . S
C488 C489 1.367 . S
C488 C496 1.378 . S
C489 C488 1.367 . S
C489 C497 1.433 . S
C490 H486 0.929 . S
C490 C492 1.378 1_554 S
C490 C494 1.350 . S
C491 C494 1.463 . S
C491 C496 1.350 . S
C491 N499 1.427 . S
C492 H483 0.930 . S
C492 C490 1.378 1_556 S
C492 C493 1.367 . S
C493 C492 1.367 . S
C493 C495 1.433 . S
C494 C490 1.350 . S
C494 C491 1.463 . S
C494 N498 1.427 . S
C495 H485 0.929 . S
C495 C493 1.433 . S
C495 N498 1.384 1_556 S
C496 H487 0.929 . S
C496 C488 1.378 . S
C496 C491 1.350 . S
C497 H484 0.929 . S
C497 C489 1.433 . S
C497 N499 1.384 . S
N498 C494 1.427 . S
N498 C495 1.384 1_554 S
N499 C491 1.427 . S
N499 C497 1.384 . S
H500 C506 0.930 . S
H501 C510 0.930 . S
H502 C515 0.929 . S
H503 C513 0.929 . S
H504 C508 0.929 . S
H505 C514 0.929 . S
C506 H500 0.930 . S
C506 C507 1.367 . S
C506 C514 1.378 . S
C507 C506 1.367 . S
C507 C515 1.433 . S
C508 H504 0.929 . S
C508 C510 1.378 . S
C508 C512 1.350 . S
C509 C512 1.463 . S
C509 C514 1.350 . S
C509 N517 1.427 . S
C510 H501 0.930 . S
C510 C508 1.378 . S
C510 C511 1.367 . S
C511 C510 1.367 . S
C511 C513 1.433 . S
C512 C508 1.350 . S
C512 C509 1.463 . S
C512 N516 1.427 . S
C513 H503 0.929 . S
C513 C511 1.433 . S
C513 N516 1.384 . S
C514 H505 0.929 . S
C514 C506 1.378 . S
C514 C509 1.350 . S
C515 H502 0.929 . S
C515 C507 1.433 . S
C515 N517 1.384 . S
N516 C512 1.427 . S
N516 C513 1.384 . S
N517 C509 1.427 . S
N517 C515 1.384 . S
H518 C524 0.930 . S
H519 C528 0.930 . S
H520 C533 0.929 . S
H521 C531 0.929 . S
H522 C526 0.929 . S
H523 C532 0.929 . S
C524 H518 0.930 . S
C524 C525 1.367 . S
C524 C532 1.378 . S
C525 C524 1.367 . S
C525 C533 1.433 . S
C526 H522 0.929 . S
C526 C528 1.378 . S
C526 C530 1.350 . S
C527 C530 1.463 . S
C527 C532 1.350 . S
C527 N535 1.427 . S
C528 H519 0.930 . S
C528 C526 1.378 . S
C528 C529 1.367 . S
C529 C528 1.367 . S
C529 C531 1.433 . S
C530 C526 1.350 . S
C530 C527 1.463 . S
C530 N534 1.427 . S
C531 H521 0.929 . S
C531 C529 1.433 . S
C531 N534 1.384 . S
C532 H523 0.929 . S
C532 C524 1.378 . S
C532 C527 1.350 . S
C533 H520 0.929 . S
C533 C525 1.433 . S
C533 N535 1.384 . S
N534 C530 1.427 . S
N534 C531 1.384 . S
N535 C527 1.427 . S
N535 C533 1.384 . S
H536 C542 0.930 . S
H537 C546 0.930 . S
H538 C551 0.929 . S
H539 C549 0.929 . S
H540 C544 0.929 . S
H541 C550 0.929 . S
C542 H536 0.930 . S
C542 C543 1.367 . S
C542 C550 1.378 . S
C543 C542 1.367 . S
C543 C551 1.433 . S
C544 H540 0.929 . S
C544 C546 1.378 . S
C544 C548 1.350 . S
C545 C548 1.463 . S
C545 C550 1.350 . S
C545 N553 1.427 . S
C546 H537 0.930 . S
C546 C544 1.378 . S
C546 C547 1.367 . S
C547 C546 1.367 . S
C547 C549 1.433 . S
C548 C544 1.350 . S
C548 C545 1.463 . S
C548 N552 1.427 . S
C549 H539 0.929 . S
C549 C547 1.433 . S
C549 N552 1.384 . S
C550 H541 0.929 . S
C550 C542 1.378 . S
C550 C545 1.350 . S
C551 H538 0.929 . S
C551 C543 1.433 . S
C551 N553 1.384 . S
N552 C548 1.427 . S
N552 C549 1.384 . S
N553 C545 1.427 . S
N553 C551 1.384 . S
H554 C560 0.930 . S
H555 C564 0.930 . S
H556 C569 0.929 . S
H557 C567 0.929 . S
H558 C562 0.929 . S
H559 C568 0.929 . S
C560 H554 0.930 . S
C560 C561 1.367 . S
C560 C568 1.378 . S
C561 C560 1.367 . S
C561 C569 1.433 . S
C562 H558 0.929 . S
C562 C564 1.378 . S
C562 C566 1.350 . S
C563 C566 1.463 . S
C563 C568 1.350 . S
C563 N571 1.427 . S
C564 H555 0.930 . S
C564 C562 1.378 . S
C564 C565 1.367 . S
C565 C564 1.367 . S
C565 C567 1.433 . S
C566 C562 1.350 . S
C566 C563 1.463 . S
C566 N570 1.427 . S
C567 H557 0.929 . S
C567 C565 1.433 . S
C567 N570 1.384 . S
C568 H559 0.929 . S
C568 C560 1.378 . S
C568 C563 1.350 . S
C569 H556 0.929 . S
C569 C561 1.433 . S
C569 N571 1.384 . S
N570 C566 1.427 . S
N570 C567 1.384 . S
N571 C563 1.427 . S
N571 C569 1.384 . S
H572 C578 0.930 . S
H573 C582 0.930 . S
H574 C587 0.929 . S
H575 C585 0.929 . S
H576 C580 0.929 . S
H577 C586 0.929 . S
C578 H572 0.930 . S
C578 C579 1.367 . S
C578 C586 1.378 . S
C579 C578 1.367 . S
C579 C587 1.433 . S
C580 H576 0.929 . S
C580 C582 1.378 1_554 S
C580 C584 1.350 . S
C581 C584 1.463 . S
C581 C586 1.350 . S
C581 N589 1.427 . S
C582 H573 0.930 . S
C582 C580 1.378 1_556 S
C582 C583 1.367 . S
C583 C582 1.367 . S
C583 C585 1.433 . S
C584 C580 1.350 . S
C584 C581 1.463 . S
C584 N588 1.427 1_554 S
C585 H575 0.929 . S
C585 C583 1.433 . S
C585 N588 1.384 . S
C586 H577 0.929 . S
C586 C578 1.378 . S
C586 C581 1.350 . S
C587 H574 0.929 . S
C587 C579 1.433 . S
C587 N589 1.384 . S
N588 C584 1.427 1_556 S
N588 C585 1.384 . S
N589 C581 1.427 . S
N589 C587 1.384 . S
H590 C596 0.930 . S
H591 C600 0.930 . S
H592 C605 0.929 . S
H593 C603 0.929 . S
H594 C598 0.929 . S
H595 C604 0.929 . S
C596 H590 0.930 . S
C596 C597 1.367 . S
C596 C604 1.378 . S
C597 C596 1.367 . S
C597 C605 1.433 . S
C598 H594 0.929 . S
C598 C600 1.378 . S
C598 C602 1.350 . S
C599 C602 1.463 . S
C599 C604 1.350 . S
C599 N607 1.427 . S
C600 H591 0.930 . S
C600 C598 1.378 . S
C600 C601 1.367 . S
C601 C600 1.367 . S
C601 C603 1.433 . S
C602 C598 1.350 . S
C602 C599 1.463 . S
C602 N606 1.427 . S
C603 H593 0.929 . S
C603 C601 1.433 . S
C603 N606 1.384 . S
C604 H595 0.929 . S
C604 C596 1.378 . S
C604 C599 1.350 . S
C605 H592 0.929 . S
C605 C597 1.433 . S
C605 N607 1.384 . S
N606 C602 1.427 . S
N606 C603 1.384 . S
N607 C599 1.427 . S
N607 C605 1.384 . S
H608 C614 0.930 . S
H609 C618 0.930 . S
H610 C623 0.929 . S
H611 C621 0.929 . S
H612 C616 0.929 . S
H613 C622 0.929 . S
C614 H608 0.930 . S
C614 C615 1.367 . S
C614 C622 1.378 . S
C615 C614 1.367 . S
C615 C623 1.433 . S
C616 H612 0.929 . S
C616 C618 1.378 . S
C616 C620 1.350 . S
C617 C620 1.463 . S
C617 C622 1.350 . S
C617 N625 1.427 . S
C618 H609 0.930 . S
C618 C616 1.378 . S
C618 C619 1.367 . S
C619 C618 1.367 . S
C619 C621 1.433 . S
C620 C616 1.350 . S
C620 C617 1.463 . S
C620 N624 1.427 . S
C621 H611 0.929 . S
C621 C619 1.433 . S
C621 N624 1.384 . S
C622 H613 0.929 . S
C622 C614 1.378 . S
C622 C617 1.350 . S
C623 H610 0.929 . S
C623 C615 1.433 . S
C623 N625 1.384 . S
N624 C620 1.427 . S
N624 C621 1.384 . S
N625 C617 1.427 . S
N625 C623 1.384 . S
H626 C632 0.930 . S
H627 C636 0.930 . S
H628 C641 0.929 . S
H629 C639 0.929 . S
H630 C634 0.929 . S
H631 C640 0.929 . S
C632 H626 0.930 . S
C632 C633 1.367 . S
C632 C640 1.378 . S
C633 C632 1.367 . S
C633 C641 1.433 . S
C634 H630 0.929 . S
C634 C636 1.378 . S
C634 C638 1.350 . S
C635 C638 1.463 . S
C635 C640 1.350 . S
C635 N643 1.427 . S
C636 H627 0.930 . S
C636 C634 1.378 . S
C636 C637 1.367 . S
C637 C636 1.367 . S
C637 C639 1.433 . S
C638 C634 1.350 . S
C638 C635 1.463 . S
C638 N642 1.427 . S
C639 H629 0.929 . S
C639 C637 1.433 . S
C639 N642 1.384 . S
C640 H631 0.929 . S
C640 C632 1.378 . S
C640 C635 1.350 . S
C641 H628 0.929 . S
C641 C633 1.433 . S
C641 N643 1.384 . S
N642 C638 1.427 . S
N642 C639 1.384 . S
N643 C635 1.427 . S
N643 C641 1.384 . S
H644 C650 0.930 . S
H645 C654 0.930 . S
H646 C659 0.929 . S
H647 C657 0.929 . S
H648 C652 0.929 . S
H649 C658 0.929 . S
C650 H644 0.930 . S
C650 C651 1.367 . S
C650 C658 1.378 . S
C651 C650 1.367 . S
C651 C659 1.433 . S
C652 H648 0.929 . S
C652 C654 1.378 . S
C652 C656 1.350 . S
C653 C656 1.463 . S
C653 C658 1.350 . S
C653 N661 1.427 . S
C654 H645 0.930 . S
C654 C652 1.378 . S
C654 C655 1.367 . S
C655 C654 1.367 . S
C655 C657 1.433 . S
C656 C652 1.350 . S
C656 C653 1.463 . S
C656 N660 1.427 . S
C657 H647 0.929 . S
C657 C655 1.433 . S
C657 N660 1.384 . S
C658 H649 0.929 . S
C658 C650 1.378 . S
C658 C653 1.350 . S
C659 H646 0.929 . S
C659 C651 1.433 . S
C659 N661 1.384 . S
N660 C656 1.427 . S
N660 C657 1.384 . S
N661 C653 1.427 . S
N661 C659 1.384 . S
H662 C668 0.930 . S
H663 C672 0.930 . S
H664 C677 0.929 . S
H665 C675 0.929 1_554 S
H666 C670 0.929 1_655 S
H667 C676 0.933 . S
C668 H662 0.930 . S
C668 C669 1.367 1_554 S
C668 C676 1.378 . S
C669 C668 1.367 1_556 S
C669 C677 1.433 . S
C670 H666 0.929 1_455 S
C670 C672 1.378 . S
C670 C674 1.350 1_455 S
C671 C674 1.463 . S
C671 C676 1.345 1_556 S
C671 N679 1.427 . S
C672 H663 0.930 . S
C672 C670 1.378 . S
C672 C673 1.367 . S
C673 C672 1.367 . S
C673 C675 1.433 . S
C674 C670 1.350 1_655 S
C674 C671 1.463 . S
C674 N678 1.427 1_655 S
C675 H665 0.929 1_556 S
C675 C673 1.433 . S
C675 N678 1.384 . S
C676 H667 0.933 . S
C676 C668 1.378 . S
C676 C671 1.345 1_554 S
C677 H664 0.929 . S
C677 C669 1.433 . S
C677 N679 1.384 . S
N678 C674 1.427 1_455 S
N678 C675 1.384 . S
N679 C671 1.427 . S
N679 C677 1.384 . S
H680 C686 0.930 . S
H681 C690 0.930 . S
H682 C695 0.929 . S
H683 C693 0.929 . S
H684 C688 0.929 . S
H685 C694 0.929 . S
C686 H680 0.930 . S
C686 C687 1.367 . S
C686 C694 1.378 . S
C687 C686 1.367 . S
C687 C695 1.433 . S
C688 H684 0.929 . S
C688 C690 1.378 . S
C688 C692 1.350 . S
C689 C692 1.463 . S
C689 C694 1.350 . S
C689 N697 1.427 . S
C690 H681 0.930 . S
C690 C688 1.378 . S
C690 C691 1.367 . S
C691 C690 1.367 . S
C691 C693 1.433 . S
C692 C688 1.350 . S
C692 C689 1.463 . S
C692 N696 1.427 . S
C693 H683 0.929 . S
C693 C691 1.433 . S
C693 N696 1.384 . S
C694 H685 0.929 . S
C694 C686 1.378 . S
C694 C689 1.350 . S
C695 H682 0.929 . S
C695 C687 1.433 . S
C695 N697 1.384 . S
N696 C692 1.427 . S
N696 C693 1.384 . S
N697 C689 1.427 . S
N697 C695 1.384 . S
H698 C704 0.930 . S
H699 C708 0.930 . S
H700 C713 0.929 . S
H701 C711 0.929 . S
H702 C706 0.929 1_455 S
H703 C712 0.929 . S
C704 H698 0.930 . S
C704 C705 1.367 . S
C704 C712 1.378 . S
C705 C704 1.367 . S
C705 C713 1.433 . S
C706 H702 0.929 1_655 S
C706 C708 1.378 . S
C706 C710 1.350 1_655 S
C707 C710 1.463 . S
C707 C712 1.350 . S
C707 N715 1.427 . S
C708 H699 0.930 . S
C708 C706 1.378 . S
C708 C709 1.367 . S
C709 C708 1.367 . S
C709 C711 1.433 . S
C710 C706 1.350 1_455 S
C710 C707 1.463 . S
C710 N714 1.427 1_455 S
C711 H701 0.929 . S
C711 C709 1.433 . S
C711 N714 1.384 . S
C712 H703 0.929 . S
C712 C704 1.378 . S
C712 C707 1.350 . S
C713 H700 0.929 . S
C713 C705 1.433 . S
C713 N715 1.384 . S
N714 C710 1.427 1_655 S
N714 C711 1.384 . S
N715 C707 1.427 . S
N715 C713 1.384 . S
H716 C722 0.930 . S
H717 C726 0.930 . S
H718 C731 0.929 . S
H719 C729 0.929 . S
H720 C724 0.929 . S
H721 C730 0.929 . S
C722 H716 0.930 . S
C722 C723 1.367 . S
C722 C730 1.378 . S
C723 C722 1.367 . S
C723 C731 1.433 . S
C724 H720 0.929 . S
C724 C726 1.378 . S
C724 C728 1.350 . S
C725 C728 1.463 . S
C725 C730 1.350 . S
C725 N733 1.427 . S
C726 H717 0.930 . S
C726 C724 1.378 . S
C726 C727 1.367 . S
C727 C726 1.367 . S
C727 C729 1.433 . S
C728 C724 1.350 . S
C728 C725 1.463 . S
C728 N732 1.427 . S
C729 H719 0.929 . S
C729 C727 1.433 . S
C729 N732 1.384 . S
C730 H721 0.929 . S
C730 C722 1.378 . S
C730 C725 1.350 . S
C731 H718 0.929 . S
C731 C723 1.433 . S
C731 N733 1.384 . S
N732 C728 1.427 . S
N732 C729 1.384 . S
N733 C725 1.427 . S
N733 C731 1.384 . S
H734 C740 0.930 . S
H735 C744 0.930 . S
H736 C749 0.929 . S
H737 C747 0.929 . S
H738 C742 0.929 . S
H739 C748 0.929 . S
C740 H734 0.930 . S
C740 C741 1.367 . S
C740 C748 1.378 . S
C741 C740 1.367 . S
C741 C749 1.433 . S
C742 H738 0.929 . S
C742 C744 1.378 . S
C742 C746 1.350 . S
C743 C746 1.463 . S
C743 C748 1.350 . S
C743 N751 1.427 . S
C744 H735 0.930 . S
C744 C742 1.378 . S
C744 C745 1.367 . S
C745 C744 1.367 . S
C745 C747 1.433 . S
C746 C742 1.350 . S
C746 C743 1.463 . S
C746 N750 1.427 . S
C747 H737 0.929 . S
C747 C745 1.433 . S
C747 N750 1.384 . S
C748 H739 0.929 . S
C748 C740 1.378 . S
C748 C743 1.350 . S
C749 H736 0.929 . S
C749 C741 1.433 . S
C749 N751 1.384 . S
N750 C746 1.427 . S
N750 C747 1.384 . S
N751 C743 1.427 . S
N751 C749 1.384 . S
H752 C758 0.930 . S
H753 C762 0.930 . S
H754 C767 0.929 . S
H755 C765 0.929 . S
H756 C760 0.929 . S
H757 C766 0.929 . S
C758 H752 0.930 . S
C758 C759 1.367 . S
C758 C766 1.378 . S
C759 C758 1.367 . S
C759 C767 1.433 . S
C760 H756 0.929 . S
C760 C762 1.378 . S
C760 C764 1.350 . S
C761 C764 1.463 . S
C761 C766 1.350 . S
C761 N769 1.427 . S
C762 H753 0.930 . S
C762 C760 1.378 . S
C762 C763 1.367 . S
C763 C762 1.367 . S
C763 C765 1.433 . S
C764 C760 1.350 . S
C764 C761 1.463 . S
C764 N768 1.427 . S
C765 H755 0.929 . S
C765 C763 1.433 . S
C765 N768 1.384 . S
C766 H757 0.929 . S
C766 C758 1.378 . S
C766 C761 1.350 . S
C767 H754 0.929 . S
C767 C759 1.433 . S
C767 N769 1.384 . S
N768 C764 1.427 . S
N768 C765 1.384 . S
N769 C761 1.427 . S
N769 C767 1.384 . S
H770 C776 0.930 . S
H771 C780 0.930 . S
H772 C785 0.929 . S
H773 C783 0.929 . S
H774 C778 0.929 . S
H775 C784 0.929 . S
C776 H770 0.930 . S
C776 C777 1.367 . S
C776 C784 1.378 . S
C777 C776 1.367 . S
C777 C785 1.433 . S
C778 H774 0.929 . S
C778 C780 1.378 . S
C778 C782 1.350 . S
C779 C782 1.463 . S
C779 C784 1.350 . S
C779 N787 1.427 . S
C780 H771 0.930 . S
C780 C778 1.378 . S
C780 C781 1.367 . S
C781 C780 1.367 . S
C781 C783 1.433 . S
C782 C778 1.350 . S
C782 C779 1.463 . S
C782 N786 1.427 . S
C783 H773 0.929 . S
C783 C781 1.433 . S
C783 N786 1.384 . S
C784 H775 0.929 . S
C784 C776 1.378 . S
C784 C779 1.350 . S
C785 H772 0.929 . S
C785 C777 1.433 . S
C785 N787 1.384 . S
N786 C782 1.427 . S
N786 C783 1.384 . S
N787 C779 1.427 . S
N787 C785 1.384 . S
H788 C794 0.930 . S
H789 C798 0.930 . S
H790 C803 0.929 . S
H791 C801 0.929 . S
H792 C796 0.929 . S
H793 C802 0.929 . S
C794 H788 0.930 . S
C794 C795 1.367 . S
C794 C802 1.378 . S
C795 C794 1.367 . S
C795 C803 1.433 . S
C796 H792 0.929 . S
C796 C798 1.378 . S
C796 C800 1.350 . S
C797 C800 1.463 . S
C797 C802 1.350 . S
C797 N805 1.427 . S
C798 H789 0.930 . S
C798 C796 1.378 . S
C798 C799 1.367 . S
C799 C798 1.367 . S
C799 C801 1.433 . S
C800 C796 1.350 . S
C800 C797 1.463 . S
C800 N804 1.427 . S
C801 H791 0.929 . S
C801 C799 1.433 . S
C801 N804 1.384 . S
C802 H793 0.929 . S
C802 C794 1.378 . S
C802 C797 1.350 . S
C803 H790 0.929 . S
C803 C795 1.433 . S
C803 N805 1.384 . S
N804 C800 1.427 . S
N804 C801 1.384 . S
N805 C797 1.427 . S
N805 C803 1.384 . S
H806 C812 0.930 . S
H807 C816 0.930 . S
H808 C821 0.929 . S
H809 C819 0.929 . S
H810 C814 0.929 . S
H811 C820 0.929 . S
C812 H806 0.930 . S
C812 C813 1.367 . S
C812 C820 1.378 . S
C813 C812 1.367 . S
C813 C821 1.433 . S
C814 H810 0.929 . S
C814 C816 1.378 . S
C814 C818 1.350 . S
C815 C818 1.463 . S
C815 C820 1.350 . S
C815 N823 1.427 . S
C816 H807 0.930 . S
C816 C814 1.378 . S
C816 C817 1.367 . S
C817 C816 1.367 . S
C817 C819 1.433 . S
C818 C814 1.350 . S
C818 C815 1.463 . S
C818 N822 1.427 . S
C819 H809 0.929 . S
C819 C817 1.433 . S
C819 N822 1.384 . S
C820 H811 0.929 . S
C820 C812 1.378 . S
C820 C815 1.350 . S
C821 H808 0.929 . S
C821 C813 1.433 . S
C821 N823 1.384 . S
N822 C818 1.427 . S
N822 C819 1.384 . S
N823 C815 1.427 . S
N823 C821 1.384 . S
H824 C830 0.930 . S
H825 C834 0.930 . S
H826 C839 0.929 . S
H827 C837 0.929 1_554 S
H828 C832 0.929 . S
H829 C838 0.941 1_554 S
C830 H824 0.930 . S
C830 C831 1.367 . S
C830 C838 1.378 . S
C831 C830 1.367 . S
C831 C839 1.433 . S
C832 H828 0.929 . S
C832 C834 1.378 . S
C832 C836 1.350 . S
C833 C836 1.463 . S
C833 C838 1.350 1_455 S
C833 N841 1.427 1_455 S
C834 H825 0.930 . S
C834 C832 1.378 . S
C834 C835 1.367 . S
C835 C834 1.367 . S
C835 C837 1.433 . S
C836 C832 1.350 . S
C836 C833 1.463 . S
C836 N840 1.427 . S
C837 H827 0.929 1_556 S
C837 C835 1.433 . S
C837 N840 1.384 . S
C838 H829 0.941 1_556 S
C838 C830 1.378 . S
C838 C833 1.350 1_655 S
C839 H826 0.929 . S
C839 C831 1.433 . S
C839 N841 1.384 . S
N840 C836 1.427 . S
N840 C837 1.384 . S
N841 C833 1.427 1_655 S
N841 C839 1.384 . S
H842 C848 0.930 . S
H843 C852 0.930 . S
H844 C857 0.929 . S
H845 C855 0.929 . S
H846 C850 0.929 . S
H847 C856 0.929 . S
C848 H842 0.930 . S
C848 C849 1.367 . S
C848 C856 1.378 . S
C849 C848 1.367 . S
C849 C857 1.433 . S
C850 H846 0.929 . S
C850 C852 1.378 . S
C850 C854 1.350 . S
C851 C854 1.463 . S
C851 C856 1.350 . S
C851 N859 1.427 . S
C852 H843 0.930 . S
C852 C850 1.378 . S
C852 C853 1.367 . S
C853 C852 1.367 . S
C853 C855 1.433 . S
C854 C850 1.350 . S
C854 C851 1.463 . S
C854 N858 1.427 . S
C855 H845 0.929 . S
C855 C853 1.433 . S
C855 N858 1.384 . S
C856 H847 0.929 . S
C856 C848 1.378 . S
C856 C851 1.350 . S
C857 H844 0.929 . S
C857 C849 1.433 . S
C857 N859 1.384 . S
N858 C854 1.427 . S
N858 C855 1.384 . S
N859 C851 1.427 . S
N859 C857 1.384 . S
H860 C866 0.930 . S
H861 C870 0.930 . S
H862 C875 0.929 . S
H863 C873 0.929 . S
H864 C868 0.929 . S
H865 C874 0.929 . S
C866 H860 0.930 . S
C866 C867 1.367 . S
C866 C874 1.378 . S
C867 C866 1.367 . S
C867 C875 1.433 . S
C868 H864 0.929 . S
C868 C870 1.378 . S
C868 C872 1.350 . S
C869 C872 1.463 . S
C869 C874 1.350 . S
C869 N877 1.427 . S
C870 H861 0.930 . S
C870 C868 1.378 . S
C870 C871 1.367 . S
C871 C870 1.367 . S
C871 C873 1.433 . S
C872 C868 1.350 . S
C872 C869 1.463 . S
C872 N876 1.427 . S
C873 H863 0.929 . S
C873 C871 1.433 . S
C873 N876 1.384 . S
C874 H865 0.929 . S
C874 C866 1.378 . S
C874 C869 1.350 . S
C875 H862 0.929 . S
C875 C867 1.433 . S
C875 N877 1.384 . S
N876 C872 1.427 . S
N876 C873 1.384 . S
N877 C869 1.427 . S
N877 C875 1.384 . S
H878 C884 0.930 . S
H879 C888 0.930 . S
H880 C893 0.929 . S
H881 C891 0.929 1_556 S
H882 C886 0.929 . S
H883 C892 0.929 1_556 S
C884 H878 0.930 . S
C884 C885 1.367 . S
C884 C892 1.378 . S
C885 C884 1.367 . S
C885 C893 1.433 . S
C886 H882 0.929 . S
C886 C888 1.378 . S
C886 C890 1.350 . S
C887 C890 1.463 . S
C887 C892 1.350 1_655 S
C887 N895 1.427 1_655 S
C888 H879 0.930 . S
C888 C886 1.378 . S
C888 C889 1.367 . S
C889 C888 1.367 . S
C889 C891 1.433 . S
C890 C886 1.350 . S
C890 C887 1.463 . S
C890 N894 1.427 . S
C891 H881 0.929 1_554 S
C891 C889 1.433 . S
C891 N894 1.384 . S
C892 H883 0.929 1_554 S
C892 C884 1.378 . S
C892 C887 1.350 1_455 S
C893 H880 0.929 . S
C893 C885 1.433 . S
C893 N895 1.384 . S
N894 C890 1.427 . S
N894 C891 1.384 . S
N895 C887 1.427 1_455 S
N895 C893 1.384 . S
H896 C902 0.930 . S
H897 C906 0.930 . S
H898 C911 0.929 . S
H899 C909 0.929 . S
H900 C904 0.929 . S
H901 C910 0.929 . S
C902 H896 0.930 . S
C902 C903 1.367 . S
C902 C910 1.378 . S
C903 C902 1.367 . S
C903 C911 1.433 . S
C904 H900 0.929 . S
C904 C906 1.378 . S
C904 C908 1.350 . S
C905 C908 1.463 . S
C905 C910 1.350 . S
C905 N913 1.427 . S
C906 H897 0.930 . S
C906 C904 1.378 . S
C906 C907 1.367 . S
C907 C906 1.367 . S
C907 C909 1.433 1_554 S
C908 C904 1.350 . S
C908 C905 1.463 . S
C908 N912 1.427 . S
C909 H899 0.929 . S
C909 C907 1.433 1_556 S
C909 N912 1.384 1_556 S
C910 H901 0.929 . S
C910 C902 1.378 . S
C910 C905 1.350 . S
C911 H898 0.929 . S
C911 C903 1.433 . S
C911 N913 1.384 . S
N912 C908 1.427 . S
N912 C909 1.384 1_554 S
N913 C905 1.427 . S
N913 C911 1.384 . S
H914 C920 0.930 . S
H915 C924 0.930 . S
H916 C929 0.929 . S
H917 C927 0.929 . S
H918 C922 0.929 . S
H919 C928 0.929 . S
C920 H914 0.930 . S
C920 C921 1.367 . S
C920 C928 1.378 . S
C921 C920 1.367 . S
C921 C929 1.433 . S
C922 H918 0.929 . S
C922 C924 1.378 . S
C922 C926 1.350 . S
C923 C926 1.463 . S
C923 C928 1.350 . S
C923 N931 1.427 . S
C924 H915 0.930 . S
C924 C922 1.378 . S
C924 C925 1.367 . S
C925 C924 1.367 . S
C925 C927 1.433 . S
C926 C922 1.350 . S
C926 C923 1.463 . S
C926 N930 1.427 . S
C927 H917 0.929 . S
C927 C925 1.433 . S
C927 N930 1.384 . S
C928 H919 0.929 . S
C928 C920 1.378 . S
C928 C923 1.350 . S
C929 H916 0.929 . S
C929 C921 1.433 . S
C929 N931 1.384 . S
N930 C926 1.427 . S
N930 C927 1.384 . S
N931 C923 1.427 . S
N931 C929 1.384 . S
H932 C938 0.930 . S
H933 C942 0.930 . S
H934 C947 0.929 . S
H935 C945 0.929 . S
H936 C940 0.929 . S
H937 C946 0.929 . S
C938 H932 0.930 . S
C938 C939 1.367 . S
C938 C946 1.378 . S
C939 C938 1.367 . S
C939 C947 1.433 . S
C940 H936 0.929 . S
C940 C942 1.378 . S
C940 C944 1.350 . S
C941 C944 1.463 . S
C941 C946 1.350 . S
C941 N949 1.427 . S
C942 H933 0.930 . S
C942 C940 1.378 . S
C942 C943 1.367 . S
C943 C942 1.367 . S
C943 C945 1.433 . S
C944 C940 1.350 . S
C944 C941 1.463 . S
C944 N948 1.427 . S
C945 H935 0.929 . S
C945 C943 1.433 . S
C945 N948 1.384 . S
C946 H937 0.929 . S
C946 C938 1.378 . S
C946 C941 1.350 . S
C947 H934 0.929 . S
C947 C939 1.433 . S
C947 N949 1.384 . S
N948 C944 1.427 . S
N948 C945 1.384 . S
N949 C941 1.427 . S
N949 C947 1.384 . S
H950 C956 0.930 . S
H951 C960 0.930 . S
H952 C965 0.929 . S
H953 C963 0.929 . S
H954 C958 0.929 . S
H955 C964 0.929 . S
C956 H950 0.930 . S
C956 C957 1.367 . S
C956 C964 1.378 . S
C957 C956 1.367 . S
C957 C965 1.433 . S
C958 H954 0.929 . S
C958 C960 1.378 . S
C958 C962 1.350 . S
C959 C962 1.463 . S
C959 C964 1.350 . S
C959 N967 1.427 . S
C960 H951 0.930 . S
C960 C958 1.378 . S
C960 C961 1.367 . S
C961 C960 1.367 . S
C961 C963 1.433 . S
C962 C958 1.350 . S
C962 C959 1.463 . S
C962 N966 1.427 . S
C963 H953 0.929 . S
C963 C961 1.433 . S
C963 N966 1.384 . S
C964 H955 0.929 . S
C964 C956 1.378 . S
C964 C959 1.350 . S
C965 H952 0.929 . S
C965 C957 1.433 . S
C965 N967 1.384 . S
N966 C962 1.427 . S
N966 C963 1.384 . S
N967 C959 1.427 . S
N967 C965 1.384 . S
H968 C974 0.930 1_554 S
H969 C978 0.930 . S
H970 C983 0.929 . S
H971 C981 0.929 . S
H972 C976 0.929 . S
H973 C982 0.929 . S
C974 H968 0.930 1_556 S
C974 C975 1.367 . S
C974 C982 1.378 . S
C975 C974 1.367 . S
C975 C983 1.433 . S
C976 H972 0.929 . S
C976 C978 1.378 . S
C976 C980 1.350 . S
C977 C980 1.463 . S
C977 C982 1.350 . S
C977 N985 1.427 . S
C978 H969 0.930 . S
C978 C976 1.378 . S
C978 C979 1.367 . S
C979 C978 1.367 . S
C979 C981 1.433 . S
C980 C976 1.350 . S
C980 C977 1.463 . S
C980 N984 1.427 . S
C981 H971 0.929 . S
C981 C979 1.433 . S
C981 N984 1.384 . S
C982 H973 0.929 . S
C982 C974 1.378 . S
C982 C977 1.350 . S
C983 H970 0.929 . S
C983 C975 1.433 . S
C983 N985 1.384 . S
N984 C980 1.427 . S
N984 C981 1.384 . S
N985 C977 1.427 . S
N985 C983 1.384 . S
H986 C992 0.930 . S
H987 C996 0.930 . S
H988 C1001 0.929 . S
H989 C999 0.929 . S
H990 C994 0.929 . S
H991 C1000 0.929 . S
C992 H986 0.930 . S
C992 C993 1.367 . S
C992 C1000 1.378 . S
C993 C992 1.367 . S
C993 C1001 1.433 . S
C994 H990 0.929 . S
C994 C996 1.378 . S
C994 C998 1.350 . S
C995 C998 1.463 . S
C995 C1000 1.350 . S
C995 N1003 1.427 . S
C996 H987 0.930 . S
C996 C994 1.378 . S
C996 C997 1.367 . S
C997 C996 1.367 . S
C997 C999 1.433 . S
C998 C994 1.350 . S
C998 C995 1.463 . S
C998 N1002 1.427 . S
C999 H989 0.929 . S
C999 C997 1.433 . S
C999 N1002 1.384 . S
C1000 H991 0.929 . S
C1000 C992 1.378 . S
C1000 C995 1.350 . S
C1001 H988 0.929 . S
C1001 C993 1.433 . S
C1001 N1003 1.384 . S
N1002 C998 1.427 . S
N1002 C999 1.384 . S
N1003 C995 1.427 . S
N1003 C1001 1.384 . S
H1004 C1010 0.930 . S
H1005 C1014 0.930 . S
H1006 C1019 0.929 . S
H1007 C1017 0.929 . S
H1008 C1012 0.929 . S
H1009 C1018 0.929 . S
C1010 H1004 0.930 . S
C1010 C1011 1.367 . S
C1010 C1018 1.378 . S
C1011 C1010 1.367 . S
C1011 C1019 1.433 . S
C1012 H1008 0.929 . S
C1012 C1014 1.378 . S
C1012 C1016 1.350 . S
C1013 C1016 1.463 . S
C1013 C1018 1.350 . S
C1013 N1021 1.427 . S
C1014 H1005 0.930 . S
C1014 C1012 1.378 . S
C1014 C1015 1.367 . S
C1015 C1014 1.367 . S
C1015 C1017 1.433 . S
C1016 C1012 1.350 . S
C1016 C1013 1.463 . S
C1016 N1020 1.427 . S
C1017 H1007 0.929 . S
C1017 C1015 1.433 . S
C1017 N1020 1.384 . S
C1018 H1009 0.929 . S
C1018 C1010 1.378 . S
C1018 C1013 1.350 . S
C1019 H1006 0.929 . S
C1019 C1011 1.433 . S
C1019 N1021 1.384 . S
N1020 C1016 1.427 . S
N1020 C1017 1.384 . S
N1021 C1013 1.427 . S
N1021 C1019 1.384 . S
H1022 C1028 0.930 . S
H1023 C1032 0.930 . S
H1024 C1037 0.929 . S
H1025 C1035 0.929 . S
H1026 C1030 0.929 . S
H1027 C1036 0.929 . S
C1028 H1022 0.930 . S
C1028 C1029 1.367 . S
C1028 C1036 1.378 . S
C1029 C1028 1.367 . S
C1029 C1037 1.433 . S
C1030 H1026 0.929 . S
C1030 C1032 1.378 . S
C1030 C1034 1.350 . S
C1031 C1034 1.463 . S
C1031 C1036 1.350 . S
C1031 N1039 1.427 . S
C1032 H1023 0.930 . S
C1032 C1030 1.378 . S
C1032 C1033 1.367 . S
C1033 C1032 1.367 . S
C1033 C1035 1.433 . S
C1034 C1030 1.350 . S
C1034 C1031 1.463 . S
C1034 N1038 1.427 . S
C1035 H1025 0.929 . S
C1035 C1033 1.433 . S
C1035 N1038 1.384 . S
C1036 H1027 0.929 . S
C1036 C1028 1.378 . S
C1036 C1031 1.350 . S
C1037 H1024 0.929 . S
C1037 C1029 1.433 . S
C1037 N1039 1.384 . S
N1038 C1034 1.427 . S
N1038 C1035 1.384 . S
N1039 C1031 1.427 . S
N1039 C1037 1.384 . S
H1040 C1046 0.930 . S
H1041 C1050 0.930 . S
H1042 C1055 0.929 . S
H1043 C1053 0.929 . S
H1044 C1048 0.929 . S
H1045 C1054 0.929 1_545 S
C1046 H1040 0.930 . S
C1046 C1047 1.367 . S
C1046 C1054 1.378 . S
C1047 C1046 1.367 . S
C1047 C1055 1.433 . S
C1048 H1044 0.929 . S
C1048 C1050 1.378 . S
C1048 C1052 1.350 . S
C1049 C1052 1.463 . S
C1049 C1054 1.350 1_545 S
C1049 N1057 1.427 1_545 S
C1050 H1041 0.930 . S
C1050 C1048 1.378 . S
C1050 C1051 1.367 . S
C1051 C1050 1.367 . S
C1051 C1053 1.433 . S
C1052 C1048 1.350 . S
C1052 C1049 1.463 . S
C1052 N1056 1.427 . S
C1053 H1043 0.929 . S
C1053 C1051 1.433 . S
C1053 N1056 1.384 . S
C1054 H1045 0.929 1_565 S
C1054 C1046 1.378 . S
C1054 C1049 1.350 1_565 S
C1055 H1042 0.929 . S
C1055 C1047 1.433 . S
C1055 N1057 1.384 . S
N1056 C1052 1.427 . S
N1056 C1053 1.384 . S
N1057 C1049 1.427 1_565 S
N1057 C1055 1.384 . S
H1058 C1064 0.930 . S
H1059 C1068 0.930 . S
H1060 C1073 0.929 . S
H1061 C1071 0.929 . S
H1062 C1066 0.929 . S
H1063 C1072 0.929 . S
C1064 H1058 0.930 . S
C1064 C1065 1.367 . S
C1064 C1072 1.378 . S
C1065 C1064 1.367 . S
C1065 C1073 1.433 . S
C1066 H1062 0.929 . S
C1066 C1068 1.378 . S
C1066 C1070 1.350 . S
C1067 C1070 1.463 . S
C1067 C1072 1.350 . S
C1067 N1075 1.427 . S
C1068 H1059 0.930 . S
C1068 C1066 1.378 . S
C1068 C1069 1.367 . S
C1069 C1068 1.367 . S
C1069 C1071 1.433 . S
C1070 C1066 1.350 . S
C1070 C1067 1.463 . S
C1070 N1074 1.427 . S
C1071 H1061 0.929 . S
C1071 C1069 1.433 . S
C1071 N1074 1.384 . S
C1072 H1063 0.929 . S
C1072 C1064 1.378 . S
C1072 C1067 1.350 . S
C1073 H1060 0.929 . S
C1073 C1065 1.433 . S
C1073 N1075 1.384 . S
N1074 C1070 1.427 . S
N1074 C1071 1.384 . S
N1075 C1067 1.427 . S
N1075 C1073 1.384 . S
H1076 C1082 0.930 . S
H1077 C1086 0.930 . S
H1078 C1091 0.929 . S
H1079 C1089 0.929 . S
H1080 C1084 0.929 . S
H1081 C1090 0.929 1_556 S
C1082 H1076 0.930 . S
C1082 C1083 1.367 . S
C1082 C1090 1.378 . S
C1083 C1082 1.367 . S
C1083 C1091 1.433 . S
C1084 H1080 0.929 . S
C1084 C1086 1.378 . S
C1084 C1088 1.345 . S
C1085 C1088 1.469 1_565 S
C1085 C1090 1.350 . S
C1085 N1093 1.427 . S
C1086 H1077 0.930 . S
C1086 C1084 1.378 . S
C1086 C1087 1.367 . S
C1087 C1086 1.367 . S
C1087 C1089 1.433 1_554 S
C1088 C1084 1.345 . S
C1088 C1085 1.469 1_545 S
C1088 N1092 1.426 1_554 S
C1089 H1079 0.929 . S
C1089 C1087 1.433 1_556 S
C1089 N1092 1.384 . S
C1090 H1081 0.929 1_554 S
C1090 C1082 1.378 . S
C1090 C1085 1.350 . S
C1091 H1078 0.929 . S
C1091 C1083 1.433 . S
C1091 N1093 1.384 . S
N1092 C1088 1.426 1_556 S
N1092 C1089 1.384 . S
N1093 C1085 1.427 . S
N1093 C1091 1.384 . S
H1094 C1100 0.930 . S
H1095 C1104 0.930 . S
H1096 C1109 0.929 . S
H1097 C1107 0.929 . S
H1098 C1102 0.929 . S
H1099 C1108 0.929 . S
C1100 H1094 0.930 . S
C1100 C1101 1.367 . S
C1100 C1108 1.378 . S
C1101 C1100 1.367 . S
C1101 C1109 1.433 . S
C1102 H1098 0.929 . S
C1102 C1104 1.378 . S
C1102 C1106 1.350 . S
C1103 C1106 1.463 . S
C1103 C1108 1.350 . S
C1103 N1111 1.427 . S
C1104 H1095 0.930 . S
C1104 C1102 1.378 . S
C1104 C1105 1.367 . S
C1105 C1104 1.367 . S
C1105 C1107 1.433 . S
C1106 C1102 1.350 . S
C1106 C1103 1.463 . S
C1106 N1110 1.427 . S
C1107 H1097 0.929 . S
C1107 C1105 1.433 . S
C1107 N1110 1.384 . S
C1108 H1099 0.929 . S
C1108 C1100 1.378 . S
C1108 C1103 1.350 . S
C1109 H1096 0.929 . S
C1109 C1101 1.433 . S
C1109 N1111 1.384 . S
N1110 C1106 1.427 . S
N1110 C1107 1.384 . S
N1111 C1103 1.427 . S
N1111 C1109 1.384 . S
H1112 C1118 0.930 . S
H1113 C1122 0.930 . S
H1114 C1127 0.929 . S
H1115 C1125 0.929 . S
H1116 C1120 0.929 . S
H1117 C1126 0.929 . S
C1118 H1112 0.930 . S
C1118 C1119 1.367 . S
C1118 C1126 1.378 . S
C1119 C1118 1.367 . S
C1119 C1127 1.433 . S
C1120 H1116 0.929 . S
C1120 C1122 1.378 . S
C1120 C1124 1.350 . S
C1121 C1124 1.463 1_565 S
C1121 C1126 1.350 . S
C1121 N1129 1.427 . S
C1122 H1113 0.930 . S
C1122 C1120 1.378 . S
C1122 C1123 1.367 . S
C1123 C1122 1.367 . S
C1123 C1125 1.433 . S
C1124 C1120 1.350 . S
C1124 C1121 1.463 1_545 S
C1124 N1128 1.427 . S
C1125 H1115 0.929 . S
C1125 C1123 1.433 . S
C1125 N1128 1.384 . S
C1126 H1117 0.929 . S
C1126 C1118 1.378 . S
C1126 C1121 1.350 . S
C1127 H1114 0.929 . S
C1127 C1119 1.433 . S
C1127 N1129 1.384 . S
N1128 C1124 1.427 . S
N1128 C1125 1.384 . S
N1129 C1121 1.427 . S
N1129 C1127 1.384 . S
H1130 C1136 0.930 . S
H1131 C1140 0.930 . S
H1132 C1145 0.929 . S
H1133 C1143 0.929 . S
H1134 C1138 0.929 . S
H1135 C1144 0.929 . S
C1136 H1130 0.930 . S
C1136 C1137 1.367 . S
C1136 C1144 1.378 . S
C1137 C1136 1.367 . S
C1137 C1145 1.433 . S
C1138 H1134 0.929 . S
C1138 C1140 1.378 . S
C1138 C1142 1.350 . S
C1139 C1142 1.463 . S
C1139 C1144 1.350 . S
C1139 N1147 1.427 . S
C1140 H1131 0.930 . S
C1140 C1138 1.378 . S
C1140 C1141 1.367 . S
C1141 C1140 1.367 . S
C1141 C1143 1.433 . S
C1142 C1138 1.350 . S
C1142 C1139 1.463 . S
C1142 N1146 1.427 . S
C1143 H1133 0.929 . S
C1143 C1141 1.433 . S
C1143 N1146 1.384 . S
C1144 H1135 0.929 . S
C1144 C1136 1.378 . S
C1144 C1139 1.350 . S
C1145 H1132 0.929 . S
C1145 C1137 1.433 . S
C1145 N1147 1.384 . S
N1146 C1142 1.427 . S
N1146 C1143 1.384 . S
N1147 C1139 1.427 . S
N1147 C1145 1.384 . S
H1148 C1154 0.930 . S
H1149 C1158 0.930 . S
H1150 C1163 0.929 . S
H1151 C1161 0.929 . S
H1152 C1156 0.929 1_545 S
H1153 C1162 0.929 . S
C1154 H1148 0.930 . S
C1154 C1155 1.367 . S
C1154 C1162 1.378 . S
C1155 C1154 1.367 . S
C1155 C1163 1.433 . S
C1156 H1152 0.929 1_565 S
C1156 C1158 1.378 . S
C1156 C1160 1.350 1_564 S
C1157 C1160 1.463 . S
C1157 C1162 1.350 . S
C1157 N1165 1.427 . S
C1158 H1149 0.930 . S
C1158 C1156 1.378 . S
C1158 C1159 1.367 . S
C1159 C1158 1.367 . S
C1159 C1161 1.433 1_554 S
C1160 C1156 1.350 1_546 S
C1160 C1157 1.463 . S
C1160 N1164 1.427 1_545 S
C1161 H1151 0.929 . S
C1161 C1159 1.433 1_556 S
C1161 N1164 1.384 . S
C1162 H1153 0.929 . S
C1162 C1154 1.378 . S
C1162 C1157 1.350 . S
C1163 H1150 0.929 . S
C1163 C1155 1.433 . S
C1163 N1165 1.384 . S
N1164 C1160 1.427 1_565 S
N1164 C1161 1.384 . S
N1165 C1157 1.427 . S
N1165 C1163 1.384 . S
H1166 C1172 0.930 . S
H1167 C1176 0.930 . S
H1168 C1181 0.929 . S
H1169 C1179 0.929 . S
H1170 C1174 0.929 . S
H1171 C1180 0.929 . S
C1172 H1166 0.930 . S
C1172 C1173 1.367 . S
C1172 C1180 1.378 . S
C1173 C1172 1.367 . S
C1173 C1181 1.433 . S
C1174 H1170 0.929 . S
C1174 C1176 1.378 . S
C1174 C1178 1.350 . S
C1175 C1178 1.463 . S
C1175 C1180 1.350 . S
C1175 N1183 1.427 . S
C1176 H1167 0.930 . S
C1176 C1174 1.378 . S
C1176 C1177 1.367 . S
C1177 C1176 1.367 . S
C1177 C1179 1.433 . S
C1178 C1174 1.350 . S
C1178 C1175 1.463 . S
C1178 N1182 1.427 . S
C1179 H1169 0.929 . S
C1179 C1177 1.433 . S
C1179 N1182 1.384 . S
C1180 H1171 0.929 . S
C1180 C1172 1.378 . S
C1180 C1175 1.350 . S
C1181 H1168 0.929 . S
C1181 C1173 1.433 . S
C1181 N1183 1.384 . S
N1182 C1178 1.427 . S
N1182 C1179 1.384 . S
N1183 C1175 1.427 . S
N1183 C1181 1.384 . S
C327 C12 1.596 . S
C331 C9 1.596 . S
C345 C32 1.561 . S
C349 C29 1.561 . S
C363 C52 1.553 . S
C367 C49 1.553 . S
C381 C72 1.595 . S
C385 C69 1.595 . S
C399 C89 1.574 . S
C403 C92 1.574 . S
C417 C112 1.607 . S
C421 C109 1.607 . S
C435 C129 1.591 . S
C439 C132 1.591 . S
C453 C149 1.597 . S
C457 C152 1.597 . S
C471 C169 1.583 . S
C475 C172 1.583 . S
C489 C192 1.555 . S
C493 C189 1.555 . S
C507 C212 1.581 1_556 S
C511 C209 1.581 . S
C525 C229 1.615 . S
C529 C232 1.615 . S
C543 C252 1.570 . S
C547 C249 1.570 . S
C561 C272 1.583 . S
C565 C269 1.583 . S
C579 C292 1.590 . S
C583 C289 1.590 . S
C597 C309 1.619 1_556 S
C601 C312 1.619 . S
C615 C18 1.813 . S
C619 C222 1.800 . S
C633 C38 2.003 . S
C637 C319 2.015 . S
C651 C58 1.416 . S
C655 C182 1.418 . S
C669 C78 1.563 . S
C673 C262 1.554 . S
C687 C84 1.676 . S
C691 C279 1.689 . S
C705 C239 1.804 . S
C709 C104 1.793 . S
C723 C124 1.375 . S
C727 C302 1.407 . S
C741 C144 1.496 . S
C745 C199 1.503 . S
C759 C64 1.721 . S
C763 C179 1.727 . S
C777 C24 1.821 . S
C781 C219 1.820 . S
C795 C242 1.696 . S
C799 C118 1.710 . S
C813 C158 1.699 . S
C817 C282 1.691 . S
C831 C162 1.521 . S
C835 C98 1.525 . S
C849 C138 1.443 . S
C853 C202 1.440 . S
C867 C44 1.533 . S
C871 C299 1.537 . S
C885 C4 1.559 . S
C889 C259 1.565 . S
C903 C19 1.608 . S
C907 C82 1.538 . S
C921 C39 1.757 . S
C925 C102 1.698 . S
C939 C59 1.342 . S
C943 C122 1.261 . S
C957 C79 1.521 . S
C961 C142 1.445 . S
C975 C244 1.621 . S
C979 C178 1.694 . S
C993 C264 1.385 . S
C997 C198 1.431 . S
C1011 C218 1.629 . S
C1015 C284 1.548 . S
C1029 C318 1.946 . S
C1033 C238 1.942 . S
C1047 C22 1.725 . S
C1051 C159 1.820 . S
C1065 C99 1.539 . S
C1069 C42 1.477 . S
C1083 C119 1.617 . S
C1087 C62 1.549 . S
C1101 C2 1.299 . S
C1105 C139 1.352 . S
C1119 C304 1.161 . S
C1123 C184 1.173 . S
C1137 C258 1.519 . S
C1141 C204 1.450 . S
C1155 C278 1.691 . S
C1159 C224 1.629 . S
C1173 C298 1.456 . S
C1177 C164 1.397 . S
