# Generated by pormake.
# Topology wlp, (5)-cn, num edge types: 1
# Building blocks:
#     Node 0, Type 0, BuildingBlock: BEQFEK_clean_sbu_0, # of connection points: 5
#     Node 1, Type 0, BuildingBlock: BEQFEK_clean_sbu_0, # of connection points: 5
#     Node 2, Type 0, BuildingBlock: BEQFEK_clean_sbu_0, # of connection points: 5
#     Node 3, Type 0, BuildingBlock: BEQFEK_clean_sbu_0, # of connection points: 5
#     Node 4, Type 0, BuildingBlock: BEQFEK_clean_sbu_0, # of connection points: 5
#     Node 5, Type 0, BuildingBlock: BEQFEK_clean_sbu_0, # of connection points: 5
#     Node 6, Type 0, BuildingBlock: BEQFEK_clean_sbu_0, # of connection points: 5
#     Node 7, Type 0, BuildingBlock: BEQFEK_clean_sbu_0, # of connection points: 5
#     Node 8, Type 0, BuildingBlock: BEQFEK_clean_sbu_0, # of connection points: 5
#     Node 9, Type 0, BuildingBlock: BEQFEK_clean_sbu_0, # of connection points: 5
#     Node 10, Type 0, BuildingBlock: BEQFEK_clean_sbu_0, # of connection points: 5
#     Node 11, Type 0, BuildingBlock: BEQFEK_clean_sbu_0, # of connection points: 5
#     Node 12, Type 0, BuildingBlock: BEQFEK_clean_sbu_0, # of connection points: 5
#     Node 13, Type 0, BuildingBlock: BEQFEK_clean_sbu_0, # of connection points: 5
#     Node 14, Type 0, BuildingBlock: BEQFEK_clean_sbu_0, # of connection points: 5
#     Node 15, Type 0, BuildingBlock: BEQFEK_clean_sbu_0, # of connection points: 5
#     Node 16, Type 0, BuildingBlock: BEQFEK_clean_sbu_0, # of connection points: 5
#     Node 17, Type 0, BuildingBlock: BEQFEK_clean_sbu_0, # of connection points: 5
#     Node 18, Type 0, BuildingBlock: BEQFEK_clean_sbu_0, # of connection points: 5
#     Node 19, Type 0, BuildingBlock: BEQFEK_clean_sbu_0, # of connection points: 5
#     Node 20, Type 0, BuildingBlock: BEQFEK_clean_sbu_0, # of connection points: 5
#     Node 21, Type 0, BuildingBlock: BEQFEK_clean_sbu_0, # of connection points: 5
#     Node 22, Type 0, BuildingBlock: BEQFEK_clean_sbu_0, # of connection points: 5
#     Node 23, Type 0, BuildingBlock: BEQFEK_clean_sbu_0, # of connection points: 5
#     Node 24, Type 0, BuildingBlock: BEQFEK_clean_sbu_0, # of connection points: 5
#     Node 25, Type 0, BuildingBlock: BEQFEK_clean_sbu_0, # of connection points: 5
#     Node 26, Type 0, BuildingBlock: BEQFEK_clean_sbu_0, # of connection points: 5
#     Node 27, Type 0, BuildingBlock: BEQFEK_clean_sbu_0, # of connection points: 5
#     Node 28, Type 0, BuildingBlock: BEQFEK_clean_sbu_0, # of connection points: 5
#     Node 29, Type 0, BuildingBlock: BEQFEK_clean_sbu_0, # of connection points: 5
#     Node 30, Type 0, BuildingBlock: BEQFEK_clean_sbu_0, # of connection points: 5
#     Node 31, Type 0, BuildingBlock: BEQFEK_clean_sbu_0, # of connection points: 5
#     Node 32, Type 0, BuildingBlock: BEQFEK_clean_sbu_0, # of connection points: 5
#     Node 33, Type 0, BuildingBlock: BEQFEK_clean_sbu_0, # of connection points: 5
#     Node 34, Type 0, BuildingBlock: BEQFEK_clean_sbu_0, # of connection points: 5
#     Node 35, Type 0, BuildingBlock: BEQFEK_clean_sbu_0, # of connection points: 5
#     Edge 36, Type (0, 0), BuildingBlock: KIFKEQ_clean_linker_1, # of connection points: 2
#     Edge 37, Type (0, 0), BuildingBlock: KIFKEQ_clean_linker_1, # of connection points: 2
#     Edge 38, Type (0, 0), BuildingBlock: KIFKEQ_clean_linker_1, # of connection points: 2
#     Edge 39, Type (0, 0), BuildingBlock: KIFKEQ_clean_linker_1, # of connection points: 2
#     Edge 40, Type (0, 0), BuildingBlock: KIFKEQ_clean_linker_1, # of connection points: 2
#     Edge 41, Type (0, 0), BuildingBlock: KIFKEQ_clean_linker_1, # of connection points: 2
#     Edge 42, Type (0, 0), BuildingBlock: KIFKEQ_clean_linker_1, # of connection points: 2
#     Edge 43, Type (0, 0), BuildingBlock: KIFKEQ_clean_linker_1, # of connection points: 2
#     Edge 44, Type (0, 0), BuildingBlock: KIFKEQ_clean_linker_1, # of connection points: 2
#     Edge 45, Type (0, 0), BuildingBlock: KIFKEQ_clean_linker_1, # of connection points: 2
#     Edge 46, Type (0, 0), BuildingBlock: KIFKEQ_clean_linker_1, # of connection points: 2
#     Edge 47, Type (0, 0), BuildingBlock: KIFKEQ_clean_linker_1, # of connection points: 2
#     Edge 48, Type (0, 0), BuildingBlock: KIFKEQ_clean_linker_1, # of connection points: 2
#     Edge 49, Type (0, 0), BuildingBlock: KIFKEQ_clean_linker_1, # of connection points: 2
#     Edge 50, Type (0, 0), BuildingBlock: KIFKEQ_clean_linker_1, # of connection points: 2
#     Edge 51, Type (0, 0), BuildingBlock: KIFKEQ_clean_linker_1, # of connection points: 2
#     Edge 52, Type (0, 0), BuildingBlock: KIFKEQ_clean_linker_1, # of connection points: 2
#     Edge 53, Type (0, 0), BuildingBlock: KIFKEQ_clean_linker_1, # of connection points: 2
#     Edge 54, Type (0, 0), BuildingBlock: KIFKEQ_clean_linker_1, # of connection points: 2
#     Edge 55, Type (0, 0), BuildingBlock: KIFKEQ_clean_linker_1, # of connection points: 2
#     Edge 56, Type (0, 0), BuildingBlock: KIFKEQ_clean_linker_1, # of connection points: 2
#     Edge 57, Type (0, 0), BuildingBlock: KIFKEQ_clean_linker_1, # of connection points: 2
#     Edge 58, Type (0, 0), BuildingBlock: KIFKEQ_clean_linker_1, # of connection points: 2
#     Edge 59, Type (0, 0), BuildingBlock: KIFKEQ_clean_linker_1, # of connection points: 2
#     Edge 60, Type (0, 0), BuildingBlock: KIFKEQ_clean_linker_1, # of connection points: 2
#     Edge 61, Type (0, 0), BuildingBlock: KIFKEQ_clean_linker_1, # of connection points: 2
#     Edge 62, Type (0, 0), BuildingBlock: KIFKEQ_clean_linker_1, # of connection points: 2
#     Edge 63, Type (0, 0), BuildingBlock: KIFKEQ_clean_linker_1, # of connection points: 2
#     Edge 64, Type (0, 0), BuildingBlock: KIFKEQ_clean_linker_1, # of connection points: 2
#     Edge 65, Type (0, 0), BuildingBlock: KIFKEQ_clean_linker_1, # of connection points: 2
#     Edge 66, Type (0, 0), BuildingBlock: KIFKEQ_clean_linker_1, # of connection points: 2
#     Edge 67, Type (0, 0), BuildingBlock: KIFKEQ_clean_linker_1, # of connection points: 2
#     Edge 68, Type (0, 0), BuildingBlock: KIFKEQ_clean_linker_1, # of connection points: 2
#     Edge 69, Type (0, 0), BuildingBlock: KIFKEQ_clean_linker_1, # of connection points: 2
#     Edge 70, Type (0, 0), BuildingBlock: KIFKEQ_clean_linker_1, # of connection points: 2
#     Edge 71, Type (0, 0), BuildingBlock: KIFKEQ_clean_linker_1, # of connection points: 2
#     Edge 72, Type (0, 0), BuildingBlock: KIFKEQ_clean_linker_1, # of connection points: 2
#     Edge 73, Type (0, 0), BuildingBlock: KIFKEQ_clean_linker_1, # of connection points: 2
#     Edge 74, Type (0, 0), BuildingBlock: KIFKEQ_clean_linker_1, # of connection points: 2
#     Edge 75, Type (0, 0), BuildingBlock: KIFKEQ_clean_linker_1, # of connection points: 2
#     Edge 76, Type (0, 0), BuildingBlock: KIFKEQ_clean_linker_1, # of connection points: 2
#     Edge 77, Type (0, 0), BuildingBlock: KIFKEQ_clean_linker_1, # of connection points: 2
#     Edge 78, Type (0, 0), BuildingBlock: KIFKEQ_clean_linker_1, # of connection points: 2
#     Edge 79, Type (0, 0), BuildingBlock: KIFKEQ_clean_linker_1, # of connection points: 2
#     Edge 80, Type (0, 0), BuildingBlock: KIFKEQ_clean_linker_1, # of connection points: 2
#     Edge 81, Type (0, 0), BuildingBlock: KIFKEQ_clean_linker_1, # of connection points: 2
#     Edge 82, Type (0, 0), BuildingBlock: KIFKEQ_clean_linker_1, # of connection points: 2
#     Edge 83, Type (0, 0), BuildingBlock: KIFKEQ_clean_linker_1, # of connection points: 2
#     Edge 84, Type (0, 0), BuildingBlock: KIFKEQ_clean_linker_1, # of connection points: 2
#     Edge 85, Type (0, 0), BuildingBlock: KIFKEQ_clean_linker_1, # of connection points: 2
#     Edge 86, Type (0, 0), BuildingBlock: KIFKEQ_clean_linker_1, # of connection points: 2
#     Edge 87, Type (0, 0), BuildingBlock: KIFKEQ_clean_linker_1, # of connection points: 2
#     Edge 88, Type (0, 0), BuildingBlock: KIFKEQ_clean_linker_1, # of connection points: 2
#     Edge 89, Type (0, 0), BuildingBlock: KIFKEQ_clean_linker_1, # of connection points: 2
#     Edge 90, Type (0, 0), BuildingBlock: KIFKEQ_clean_linker_1, # of connection points: 2
#     Edge 91, Type (0, 0), BuildingBlock: KIFKEQ_clean_linker_1, # of connection points: 2
#     Edge 92, Type (0, 0), BuildingBlock: KIFKEQ_clean_linker_1, # of connection points: 2
#     Edge 93, Type (0, 0), BuildingBlock: KIFKEQ_clean_linker_1, # of connection points: 2
#     Edge 94, Type (0, 0), BuildingBlock: KIFKEQ_clean_linker_1, # of connection points: 2
#     Edge 95, Type (0, 0), BuildingBlock: KIFKEQ_clean_linker_1, # of connection points: 2
#     Edge 96, Type (0, 0), BuildingBlock: KIFKEQ_clean_linker_1, # of connection points: 2
#     Edge 97, Type (0, 0), BuildingBlock: KIFKEQ_clean_linker_1, # of connection points: 2
#     Edge 98, Type (0, 0), BuildingBlock: KIFKEQ_clean_linker_1, # of connection points: 2
#     Edge 99, Type (0, 0), BuildingBlock: KIFKEQ_clean_linker_1, # of connection points: 2
#     Edge 100, Type (0, 0), BuildingBlock: KIFKEQ_clean_linker_1, # of connection points: 2
#     Edge 101, Type (0, 0), BuildingBlock: KIFKEQ_clean_linker_1, # of connection points: 2
#     Edge 102, Type (0, 0), BuildingBlock: KIFKEQ_clean_linker_1, # of connection points: 2
#     Edge 103, Type (0, 0), BuildingBlock: KIFKEQ_clean_linker_1, # of connection points: 2
#     Edge 104, Type (0, 0), BuildingBlock: KIFKEQ_clean_linker_1, # of connection points: 2
#     Edge 105, Type (0, 0), BuildingBlock: KIFKEQ_clean_linker_1, # of connection points: 2
#     Edge 106, Type (0, 0), BuildingBlock: KIFKEQ_clean_linker_1, # of connection points: 2
#     Edge 107, Type (0, 0), BuildingBlock: KIFKEQ_clean_linker_1, # of connection points: 2
#     Edge 108, Type (0, 0), BuildingBlock: KIFKEQ_clean_linker_1, # of connection points: 2
#     Edge 109, Type (0, 0), BuildingBlock: KIFKEQ_clean_linker_1, # of connection points: 2
#     Edge 110, Type (0, 0), BuildingBlock: KIFKEQ_clean_linker_1, # of connection points: 2
#     Edge 111, Type (0, 0), BuildingBlock: KIFKEQ_clean_linker_1, # of connection points: 2
#     Edge 112, Type (0, 0), BuildingBlock: KIFKEQ_clean_linker_1, # of connection points: 2
#     Edge 113, Type (0, 0), BuildingBlock: KIFKEQ_clean_linker_1, # of connection points: 2
#     Edge 114, Type (0, 0), BuildingBlock: KIFKEQ_clean_linker_1, # of connection points: 2
#     Edge 115, Type (0, 0), BuildingBlock: KIFKEQ_clean_linker_1, # of connection points: 2
#     Edge 116, Type (0, 0), BuildingBlock: KIFKEQ_clean_linker_1, # of connection points: 2
#     Edge 117, Type (0, 0), BuildingBlock: KIFKEQ_clean_linker_1, # of connection points: 2
#     Edge 118, Type (0, 0), BuildingBlock: KIFKEQ_clean_linker_1, # of connection points: 2
#     Edge 119, Type (0, 0), BuildingBlock: KIFKEQ_clean_linker_1, # of connection points: 2
#     Edge 120, Type (0, 0), BuildingBlock: KIFKEQ_clean_linker_1, # of connection points: 2
#     Edge 121, Type (0, 0), BuildingBlock: KIFKEQ_clean_linker_1, # of connection points: 2
#     Edge 122, Type (0, 0), BuildingBlock: KIFKEQ_clean_linker_1, # of connection points: 2
#     Edge 123, Type (0, 0), BuildingBlock: KIFKEQ_clean_linker_1, # of connection points: 2
#     Edge 124, Type (0, 0), BuildingBlock: KIFKEQ_clean_linker_1, # of connection points: 2
#     Edge 125, Type (0, 0), BuildingBlock: KIFKEQ_clean_linker_1, # of connection points: 2
# Relax obj value: 0.102
# Max RMSD: 0.103
# Mean RMSD: 0.103
data_MOF--net-wlp--node1-BEQFEK_clean_sbu_0--edge1-KIFKEQ_clean_linker_1
_symmetry_space_group_name_H-M    P1
_symmetry_Int_Tables_number       1
_symmetry_cell_setting            triclinic
loop_
_symmetry_equiv_pos_as_xyz
'x, y, z'
_cell_length_a     110.38908
_cell_length_b     110.4063
_cell_length_c     23.720966
_cell_angle_alpha  90.068272
_cell_angle_beta   89.967541
_cell_angle_gamma 120.01012
loop_
_atom_site_label
_atom_site_type_symbol
_atom_site_fract_x
_atom_site_fract_y
_atom_site_fract_z
_atom_type_partial_charge
Co0 Co 0.27867 0.18526 0.16051 0.0
Co1 Co 0.27115 0.19756 0.05643 0.0
C2 C 0.26515 0.16829 0.05425 0.0
O3 O 0.27062 0.16972 0.1029 0.0
O4 O 0.26379 0.17806 0.03263 0.0
C5 C 0.26784 0.16482 0.24571 0.0
O6 O 0.25697 0.16073 0.21237 0.0
C7 C 0.25436 0.20237 0.97473 0.0
C8 C 0.27052 0.22123 0.9307 0.0
C9 C 0.25635 0.21158 0.93158 0.0
N10 N 0.26684 0.20643 0.99854 0.0
N11 N 0.27645 0.21768 0.97207 0.0
C12 C 0.24111 0.18938 0.99043 0.0
H13 H 0.24287 0.18401 0.02633 0.0
H14 H 0.23296 0.19199 1.00219 0.0
H15 H 0.23717 0.18225 0.95351 0.0
C16 C 0.26222 0.19745 0.21809 0.0
N17 N 0.26749 0.1944 0.17189 0.0
N18 N 0.26467 0.19968 0.12744 0.0
C19 C 0.25794 0.20648 0.14372 0.0
C20 C 0.25586 0.20515 0.20169 0.0
C21 C 0.26291 0.19265 0.27635 0.0
H22 H 0.25583 0.18118 0.27885 0.0
H23 H 0.25959 0.19761 0.3088 0.0
H24 H 0.2737 0.19488 0.28529 0.0
O25 O 0.29825 0.19872 0.12952 0.0
O26 O 0.29144 0.20638 0.0564 0.0
H27 H 0.25376 0.22344 0.12963 0.0
H28 H 0.24523 0.20888 0.08182 0.0
C29 C 0.25501 0.21552 0.10555 0.0
H30 H 0.26371 0.22107 0.0753 0.0
H31 H 0.2871 0.22286 0.98191 0.0
O32 O 0.27919 0.17591 0.2328 0.0
C33 C 0.30107 0.20622 0.08497 0.0
Co34 Co 0.83564 0.09695 0.16274 0.0
Co35 Co 0.82088 0.07667 0.06202 0.0
C36 C 0.85067 0.09971 0.05343 0.0
O37 O 0.85091 0.10368 0.10411 0.0
O38 O 0.83983 0.08918 0.03375 0.0
C39 C 0.85567 0.1063 0.25143 0.0
O40 O 0.85907 0.09801 0.2246 0.0
C41 C 0.81609 0.05497 0.9816 0.0
C42 C 0.79694 0.05166 0.93814 0.0
C43 C 0.80687 0.04749 0.93884 0.0
N44 N 0.81179 0.06319 1.00541 0.0
N45 N 0.80035 0.06119 0.97934 0.0
C46 C 0.82935 0.05518 0.99677 0.0
H47 H 0.83515 0.06312 0.02985 0.0
H48 H 0.82697 0.04478 0.01262 0.0
H49 H 0.83598 0.05748 0.95863 0.0
C50 C 0.82333 0.06843 0.22264 0.0
N51 N 0.82605 0.07665 0.1763 0.0
N52 N 0.81993 0.06843 0.13275 0.0
C53 C 0.81303 0.05496 0.14969 0.0
C54 C 0.8151 0.05434 0.20707 0.0
C55 C 0.82871 0.07396 0.2804 0.0
H56 H 0.82818 0.08359 0.28814 0.0
H57 H 0.83979 0.07662 0.28327 0.0
H58 H 0.82282 0.06617 0.31359 0.0
O59 O 0.82234 0.10343 0.13243 0.0
O60 O 0.81167 0.08767 0.06473 0.0
H61 H 0.79543 0.034 0.13864 0.0
H62 H 0.80919 0.03944 0.08732 0.0
C63 C 0.80317 0.04297 0.11312 0.0
H64 H 0.79738 0.04626 0.08477 0.0
H65 H 0.795 0.06649 0.98917 0.0
O66 O 0.84545 0.10749 0.23317 0.0
C67 C 0.8134 0.09828 0.09224 0.0
Co68 Co 0.92445 0.74269 0.15823 0.0
Co69 Co 0.94422 0.74932 0.05453 0.0
C70 C 0.92117 0.75572 0.05043 0.0
O71 O 0.91725 0.75087 0.10001 0.0
O72 O 0.93205 0.75646 0.02875 0.0
C73 C 0.90295 0.74125 0.23065 0.0
O74 O 0.89622 0.73855 0.18247 0.0
C75 C 0.96492 0.76535 0.96955 0.0
C76 C 0.97006 0.74979 0.93563 0.0
C77 C 0.97294 0.76345 0.92972 0.0
N78 N 0.95762 0.75334 0.99797 0.0
N79 N 0.96068 0.74405 0.97755 0.0
C80 C 0.96327 0.77789 0.97788 0.0
H81 H 0.95898 0.7777 0.02042 0.0
H82 H 0.97335 0.78773 0.97227 0.0
H83 H 0.95585 0.7777 0.94585 0.0
C84 C 0.95285 0.75898 0.21549 0.0
N85 N 0.94463 0.75367 0.16921 0.0
N86 N 0.95278 0.75633 0.12503 0.0
C87 C 0.96629 0.76312 0.14161 0.0
C88 C 0.96689 0.76512 0.19954 0.0
C89 C 0.94731 0.75756 0.27408 0.0
H90 H 0.93978 0.74638 0.28289 0.0
H91 H 0.94152 0.76335 0.2774 0.0
H92 H 0.95585 0.76168 0.30577 0.0
O93 O 0.9181 0.72299 0.12883 0.0
O94 O 0.93279 0.729 0.05647 0.0
H95 H 0.97709 0.75831 0.07832 0.0
H96 H 0.98856 0.77221 0.12558 0.0
C97 C 0.97846 0.76749 0.10264 0.0
H98 H 0.97884 0.77534 0.07254 0.0
H99 H 0.95629 0.73377 0.99199 0.0
O100 O 0.91511 0.74263 0.23123 0.0
C101 C 0.92282 0.71971 0.0856 0.0
Co102 Co 0.18968 0.27432 0.4586 0.0
Co103 Co 0.20249 0.26694 0.56111 0.0
C104 C 0.17319 0.26074 0.56593 0.0
O105 O 0.17427 0.26596 0.51696 0.0
O106 O 0.18319 0.25968 0.58698 0.0
C107 C 0.17099 0.26344 0.36549 0.0
O108 O 0.16882 0.25168 0.38835 0.0
C109 C 0.20718 0.25078 0.64591 0.0
C110 C 0.22811 0.26625 0.6782 0.0
C111 C 0.21725 0.25267 0.68502 0.0
N112 N 0.2119 0.26274 0.61703 0.0
N113 N 0.22439 0.27197 0.6365 0.0
C114 C 0.1929 0.2383 0.6387 0.0
H115 H 0.18861 0.23845 0.59658 0.0
H116 H 0.19311 0.22844 0.64405 0.0
H117 H 0.18587 0.23859 0.67146 0.0
C118 C 0.20267 0.2588 0.39875 0.0
N119 N 0.19913 0.2635 0.44542 0.0
N120 N 0.20409 0.26024 0.48976 0.0
C121 C 0.2108 0.25345 0.47304 0.0
C122 C 0.21011 0.25221 0.41483 0.0
C123 C 0.20009 0.26154 0.3395 0.0
H124 H 0.19966 0.27135 0.33726 0.0
H125 H 0.18997 0.25272 0.32478 0.0
H126 H 0.20843 0.26228 0.31102 0.0
O127 O 0.20301 0.29382 0.48939 0.0
O128 O 0.21143 0.28734 0.56102 0.0
H129 H 0.2261 0.25738 0.53662 0.0
H130 H 0.22295 0.24326 0.4893 0.0
C131 C 0.21799 0.24842 0.51216 0.0
H132 H 0.21024 0.24078 0.54207 0.0
H133 H 0.23032 0.2822 0.62158 0.0
O134 O 0.17997 0.275 0.38782 0.0
C135 C 0.21088 0.29683 0.53285 0.0
Co136 Co 0.74696 0.91898 0.46223 0.0
Co137 Co 0.75612 0.93908 0.56523 0.0
C138 C 0.76211 0.91623 0.56617 0.0
O139 O 0.75558 0.91186 0.51947 0.0
O140 O 0.76445 0.92779 0.58711 0.0
C141 C 0.75719 0.91115 0.36708 0.0
O142 O 0.76909 0.92095 0.3882 0.0
C143 C 0.77214 0.96006 0.65029 0.0
C144 C 0.7562 0.96474 0.6837 0.0
C145 C 0.76993 0.9679 0.69006 0.0
N146 N 0.76019 0.95256 0.62151 0.0
N147 N 0.7507 0.95537 0.64162 0.0
C148 C 0.78492 0.95882 0.64245 0.0
H149 H 0.78493 0.95458 0.60002 0.0
H150 H 0.79457 0.96907 0.64822 0.0
H151 H 0.78493 0.95154 0.67467 0.0
C152 C 0.76189 0.94742 0.40216 0.0
N153 N 0.7577 0.93919 0.44884 0.0
N154 N 0.76161 0.94741 0.49339 0.0
C155 C 0.76832 0.96091 0.47683 0.0
C156 C 0.76882 0.96146 0.41847 0.0
C157 C 0.75848 0.9421 0.34299 0.0
H158 H 0.74871 0.9318 0.34187 0.0
H159 H 0.76718 0.9409 0.32587 0.0
H160 H 0.75734 0.94965 0.31581 0.0
O161 O 0.72772 0.9129 0.49523 0.0
O162 O 0.73587 0.92669 0.57007 0.0
H163 H 0.76549 0.97252 0.5427 0.0
H164 H 0.77921 0.98326 0.49354 0.0
C165 C 0.77407 0.97314 0.51631 0.0
H166 H 0.78187 0.97276 0.54443 0.0
H167 H 0.74042 0.95079 0.62691 0.0
O168 O 0.7458 0.9085 0.3912 0.0
C169 C 0.7257 0.91706 0.54291 0.0
Co170 Co 0.10217 0.83168 0.45509 0.0
Co171 Co 0.08217 0.8201 0.55863 0.0
C172 C 0.10504 0.84916 0.56001 0.0
O173 O 0.10938 0.84724 0.51283 0.0
O174 O 0.09359 0.83975 0.58102 0.0
C175 C 0.11219 0.85228 0.3707 0.0
O176 O 0.10536 0.85636 0.40379 0.0
C177 C 0.06043 0.81486 0.64026 0.0
C178 C 0.05757 0.79571 0.68213 0.0
C179 C 0.0531 0.8054 0.68251 0.0
N180 N 0.06888 0.81094 0.61581 0.0
N181 N 0.06714 0.7995 0.64094 0.0
C182 C 0.0602 0.82794 0.6259 0.0
H183 H 0.06671 0.83303 0.58814 0.0
H184 H 0.04934 0.82555 0.61781 0.0
H185 H 0.06425 0.83525 0.66223 0.0
C186 C 0.07374 0.8193 0.39612 0.0
N187 N 0.08193 0.82244 0.44269 0.0
N188 N 0.07372 0.81741 0.487 0.0
C189 C 0.06022 0.81075 0.47033 0.0
C190 C 0.05963 0.81186 0.41216 0.0
C191 C 0.07939 0.82388 0.33789 0.0
H192 H 0.08383 0.83535 0.33459 0.0
H193 H 0.07119 0.81879 0.30525 0.0
H194 H 0.08796 0.8216 0.33002 0.0
O195 O 0.10836 0.81842 0.48727 0.0
O196 O 0.09449 0.81223 0.562 0.0
H197 H 0.03873 0.79456 0.48489 0.0
H198 H 0.04544 0.80933 0.53201 0.0
C199 C 0.04809 0.80226 0.50869 0.0
H200 H 0.05084 0.79647 0.53932 0.0
H201 H 0.07256 0.79433 0.6302 0.0
O202 O 0.11228 0.84109 0.38331 0.0
C203 C 0.10419 0.81195 0.53439 0.0
Co204 Co 0.74798 0.8319 0.9607 0.0
Co205 Co 0.75354 0.81752 0.06268 0.0
C206 C 0.75976 0.84711 0.0706 0.0
O207 O 0.75591 0.8471 0.01993 0.0
O208 O 0.75984 0.83649 0.09063 0.0
C209 C 0.75906 0.85284 0.87709 0.0
O210 O 0.76978 0.85707 0.91137 0.0
C211 C 0.77019 0.8126 0.14392 0.0
C212 C 0.75415 0.79352 0.18706 0.0
C213 C 0.76827 0.80334 0.18666 0.0
N214 N 0.75772 0.80843 0.11984 0.0
N215 N 0.74816 0.79704 0.14574 0.0
C216 C 0.78335 0.82578 0.12896 0.0
H217 H 0.7814 0.83148 0.09492 0.0
H218 H 0.79143 0.82332 0.11469 0.0
H219 H 0.78748 0.83254 0.16689 0.0
C220 C 0.76486 0.82019 0.90291 0.0
N221 N 0.75906 0.82268 0.94885 0.0
N222 N 0.76108 0.81657 0.99253 0.0
C223 C 0.76782 0.8098 0.97595 0.0
C224 C 0.77075 0.81202 0.9187 0.0
C225 C 0.76503 0.82585 0.84545 0.0
H226 H 0.77211 0.83734 0.84591 0.0
H227 H 0.76883 0.82136 0.81284 0.0
H228 H 0.75438 0.82375 0.83443 0.0
O229 O 0.72809 0.81837 0.98945 0.0
O230 O 0.73335 0.80829 0.05887 0.0
H231 H 0.77104 0.79214 0.987 0.0
H232 H 0.77946 0.80591 0.03822 0.0
C233 C 0.76988 0.79992 0.01254 0.0
H234 H 0.7608 0.7942 0.041 0.0
H235 H 0.73753 0.79176 0.13562 0.0
O236 O 0.74778 0.84158 0.889 0.0
C237 C 0.72438 0.80965 0.0304 0.0
Co238 Co 0.19002 0.91877 0.95188 0.0
Co239 Co 0.20319 0.93907 0.05378 0.0
C240 C 0.17425 0.91621 0.06261 0.0
O241 O 0.17528 0.91198 0.0136 0.0
O242 O 0.18414 0.92751 0.08299 0.0
C243 C 0.16934 0.91004 0.86773 0.0
O244 O 0.16609 0.91772 0.89975 0.0
C245 C 0.21247 0.96036 0.14396 0.0
C246 C 0.23491 0.96667 0.14653 0.0
C247 C 0.22502 0.96929 0.17047 0.0
N248 N 0.21493 0.95291 0.1055 0.0
N249 N 0.22832 0.95669 0.10754 0.0
C250 C 0.19835 0.95855 0.15629 0.0
H251 H 0.19002 0.94771 0.14723 0.0
H252 H 0.1966 0.96569 0.12903 0.0
H253 H 0.19763 0.9611 0.20101 0.0
C254 C 0.2025 0.94713 0.89213 0.0
N255 N 0.19935 0.93896 0.93874 0.0
N256 N 0.20402 0.94721 0.98305 0.0
C257 C 0.20992 0.96068 0.96652 0.0
C258 C 0.20919 0.96119 0.90833 0.0
C259 C 0.19931 0.94163 0.83317 0.0
H260 H 0.20014 0.93206 0.82948 0.0
H261 H 0.18842 0.93886 0.8227 0.0
H262 H 0.20647 0.94964 0.80265 0.0
O263 O 0.2033 0.91222 0.97867 0.0
O264 O 0.21128 0.92686 0.05102 0.0
H265 H 0.2264 0.97337 0.02377 0.0
H266 H 0.2202 0.98298 0.9835 0.0
C267 C 0.21697 0.97296 1.00549 0.0
H268 H 0.20975 0.97172 0.04031 0.0
H269 H 0.233 0.95251 0.08179 0.0
O270 O 0.17984 0.90882 0.8814 0.0
C271 C 0.21095 0.91695 0.02268 0.0
Co272 Co 0.10157 0.27313 0.96007 0.0
Co273 Co 0.08142 0.26571 0.06237 0.0
C274 C 0.10398 0.25918 0.06848 0.0
O275 O 0.10839 0.2648 0.02018 0.0
O276 O 0.09257 0.25756 0.08837 0.0
C277 C 0.11141 0.26206 0.87595 0.0
O278 O 0.10451 0.25115 0.90891 0.0
C279 C 0.06099 0.25208 0.15201 0.0
C280 C 0.05543 0.26834 0.17116 0.0
C281 C 0.05285 0.25519 0.18687 0.0
N282 N 0.06799 0.26293 0.11699 0.0
N283 N 0.06466 0.27261 0.12859 0.0
C284 C 0.06325 0.23981 0.15474 0.0
H285 H 0.06225 0.23536 0.11187 0.0
H286 H 0.05592 0.23162 0.1841 0.0
H287 H 0.07406 0.24344 0.16944 0.0
C288 C 0.07305 0.25698 0.90065 0.0
N289 N 0.08131 0.26232 0.94697 0.0
N290 N 0.07312 0.25933 0.9912 0.0
C291 C 0.0596 0.25219 0.975 0.0
C292 C 0.05894 0.25024 0.91696 0.0
C293 C 0.07862 0.25783 0.84241 0.0
H294 H 0.08746 0.26854 0.83452 0.0
H295 H 0.08266 0.25047 0.839 0.0
H296 H 0.07043 0.25499 0.80989 0.0
O297 O 0.10824 0.29293 0.99014 0.0
O298 O 0.09408 0.2857 0.06378 0.0
H299 H 0.04938 0.25779 0.03788 0.0
H300 H 0.03748 0.24429 0.9915 0.0
C301 C 0.04756 0.24839 0.01412 0.0
H302 H 0.04679 0.24044 0.04466 0.0
H303 H 0.06881 0.28219 0.1077 0.0
O304 O 0.11166 0.2734 0.88885 0.0
C305 C 0.10403 0.29549 0.03662 0.0
Co306 Co 0.83616 0.7424 0.66086 0.0
Co307 Co 0.82344 0.74996 0.55872 0.0
C308 C 0.85244 0.75546 0.55254 0.0
O309 O 0.85131 0.75011 0.60126 0.0
O310 O 0.84264 0.757 0.53239 0.0
C311 C 0.85673 0.75353 0.74519 0.0
O312 O 0.86037 0.76448 0.71282 0.0
C313 C 0.81872 0.76602 0.47369 0.0
C314 C 0.79775 0.75051 0.44186 0.0
C315 C 0.80864 0.76407 0.4346 0.0
N316 N 0.81399 0.75412 0.50298 0.0
N317 N 0.80148 0.74487 0.4838 0.0
C318 C 0.833 0.77851 0.48055 0.0
H319 H 0.8374 0.77835 0.52243 0.0
H320 H 0.83274 0.78835 0.47556 0.0
H321 H 0.83996 0.77826 0.44736 0.0
C322 C 0.82416 0.75872 0.72052 0.0
N323 N 0.82723 0.75367 0.67373 0.0
N324 N 0.82207 0.75681 0.62977 0.0
C325 C 0.81553 0.76373 0.64684 0.0
C326 C 0.81661 0.76525 0.70498 0.0
C327 C 0.82759 0.75658 0.7793 0.0
H328 H 0.82646 0.74605 0.78335 0.0
H329 H 0.83862 0.7645 0.78856 0.0
H330 H 0.82076 0.75778 0.81043 0.0
O331 O 0.82245 0.72284 0.63144 0.0
O332 O 0.81442 0.7296 0.55936 0.0
H333 H 0.79997 0.75969 0.58433 0.0
H334 H 0.80347 0.77405 0.63098 0.0
C335 C 0.80823 0.76871 0.60804 0.0
H336 H 0.81587 0.77619 0.57741 0.0
H337 H 0.79554 0.73468 0.49905 0.0
O338 O 0.84588 0.74202 0.73196 0.0
C339 C 0.81468 0.71999 0.58769 0.0
Co340 Co 0.2791 0.09778 0.66214 0.0
Co341 Co 0.27017 0.07805 0.55849 0.0
C342 C 0.26429 0.10051 0.55461 0.0
O343 O 0.27084 0.10476 0.60151 0.0
O344 O 0.26154 0.08878 0.53379 0.0
C345 C 0.26747 0.10611 0.74895 0.0
O346 O 0.25635 0.09812 0.71836 0.0
C347 C 0.25952 0.05792 0.46379 0.0
C348 C 0.27473 0.05043 0.46834 0.0
C349 C 0.2632 0.04886 0.43898 0.0
N350 N 0.26844 0.06445 0.50642 0.0
N351 N 0.27752 0.05999 0.50865 0.0
C352 C 0.24822 0.06084 0.44602 0.0
H353 H 0.23904 0.0551 0.4741 0.0
H354 H 0.24497 0.05753 0.40179 0.0
H355 H 0.25191 0.07216 0.45003 0.0
C356 C 0.26398 0.06904 0.72046 0.0
N357 N 0.26833 0.07757 0.67465 0.0
N358 N 0.26396 0.06967 0.62941 0.0
C359 C 0.25651 0.0561 0.64432 0.0
C360 C 0.2564 0.05504 0.70275 0.0
C361 C 0.26764 0.07417 0.77978 0.0
H362 H 0.27755 0.08435 0.78085 0.0
H363 H 0.25919 0.07568 0.79753 0.0
H364 H 0.26863 0.06642 0.80625 0.0
O365 O 0.29873 0.10426 0.63298 0.0
O366 O 0.29032 0.09112 0.55695 0.0
H367 H 0.25627 0.04123 0.58581 0.0
H368 H 0.24 0.03523 0.62314 0.0
C369 C 0.24894 0.04442 0.603 0.0
H370 H 0.24494 0.04798 0.56767 0.0
H371 H 0.28562 0.06346 0.53805 0.0
O372 O 0.27921 0.10763 0.7335 0.0
C373 C 0.30061 0.10049 0.58433 0.0
Co374 Co 0.92298 0.18471 0.6635 0.0
Co375 Co 0.94386 0.19907 0.56459 0.0
C376 C 0.92097 0.1699 0.55191 0.0
O377 O 0.91667 0.17002 0.60181 0.0
O378 O 0.93199 0.18038 0.53285 0.0
C379 C 0.91458 0.16528 0.75462 0.0
O380 O 0.92439 0.16327 0.73284 0.0
C381 C 0.965 0.20601 0.47834 0.0
C382 C 0.97488 0.22907 0.47573 0.0
C383 C 0.97571 0.21788 0.45406 0.0
N384 N 0.95814 0.21 0.51351 0.0
N385 N 0.96388 0.22374 0.51095 0.0
C386 C 0.96209 0.1913 0.4724 0.0
H387 H 0.95876 0.18582 0.51353 0.0
H388 H 0.97141 0.19102 0.45648 0.0
H389 H 0.95338 0.18568 0.44204 0.0
C390 C 0.9511 0.19709 0.72663 0.0
N391 N 0.94312 0.1941 0.67935 0.0
N392 N 0.9516 0.19932 0.63589 0.0
C393 C 0.96501 0.20547 0.65368 0.0
C394 C 0.96523 0.20434 0.71169 0.0
C395 C 0.94548 0.19412 0.78543 0.0
H396 H 0.9352 0.19362 0.7873 0.0
H397 H 0.94418 0.18394 0.7992 0.0
H398 H 0.95292 0.20229 0.81484 0.0
O399 O 0.91668 0.19816 0.63509 0.0
O400 O 0.9324 0.2079 0.56689 0.0
H401 H 0.97854 0.22234 0.59956 0.0
H402 H 0.98732 0.21502 0.63874 0.0
C403 C 0.97755 0.21249 0.61603 0.0
H404 H 0.97628 0.20554 0.58018 0.0
H405 H 0.96063 0.22952 0.53514 0.0
O406 O 0.91212 0.17432 0.73225 0.0
C407 C 0.92196 0.20674 0.59395 0.0
Co408 Co 0.94522 0.51815 0.49436 0.0
Co409 Co 0.93553 0.5291 0.39332 0.0
C410 C 0.93034 0.50077 0.38736 0.0
O411 O 0.93674 0.50288 0.43446 0.0
O412 O 0.92778 0.50988 0.36681 0.0
C413 C 0.93492 0.5001 0.59 0.0
O414 O 0.92305 0.49861 0.57125 0.0
C415 C 0.92317 0.53672 0.30013 0.0
C416 C 0.93686 0.55975 0.30159 0.0
C417 C 0.92571 0.54893 0.27356 0.0
N418 N 0.9324 0.54024 0.34239 0.0
N419 N 0.94055 0.55398 0.34303 0.0
C420 C 0.9131 0.52194 0.28337 0.0
H421 H 0.90596 0.51644 0.31915 0.0
H422 H 0.90695 0.52134 0.2455 0.0
H423 H 0.91901 0.51648 0.27421 0.0
C424 C 0.93004 0.53135 0.55611 0.0
N425 N 0.93418 0.52726 0.50934 0.0
N426 N 0.92912 0.53041 0.46514 0.0
C427 C 0.92121 0.5359 0.48192 0.0
C428 C 0.92151 0.53678 0.54016 0.0
C429 C 0.93445 0.53051 0.61486 0.0
H430 H 0.9441 0.52975 0.61445 0.0
H431 H 0.92595 0.52112 0.63584 0.0
H432 H 0.93625 0.53981 0.63957 0.0
O433 O 0.9645 0.53156 0.46293 0.0
O434 O 0.95591 0.53752 0.39078 0.0
H435 H 0.92198 0.55145 0.42624 0.0
H436 H 0.9058 0.54207 0.46421 0.0
C437 C 0.91414 0.54103 0.44264 0.0
H438 H 0.90954 0.53371 0.40663 0.0
H439 H 0.94872 0.55939 0.3716 0.0
O440 O 0.94623 0.50839 0.56423 0.0
C441 C 0.96628 0.53822 0.41681 0.0
Co442 Co 0.50311 0.43084 0.48974 0.0
Co443 Co 0.49119 0.41062 0.38694 0.0
C444 C 0.52013 0.43374 0.38298 0.0
O445 O 0.51859 0.43804 0.43102 0.0
O446 O 0.51058 0.42226 0.36263 0.0
C447 C 0.52303 0.43973 0.57675 0.0
O448 O 0.52648 0.43204 0.54574 0.0
C449 C 0.48602 0.38963 0.30181 0.0
C450 C 0.46525 0.38477 0.26969 0.0
C451 C 0.47587 0.38169 0.26261 0.0
N452 N 0.4816 0.39709 0.331 0.0
N453 N 0.4692 0.39418 0.31165 0.0
C454 C 0.50012 0.391 0.30879 0.0
H455 H 0.50457 0.39549 0.3507 0.0
H456 H 0.49954 0.38074 0.30378 0.0
H457 H 0.50722 0.39809 0.27566 0.0
C458 C 0.4904 0.4025 0.54948 0.0
N459 N 0.49385 0.41064 0.5027 0.0
N460 N 0.489 0.40237 0.45848 0.0
C461 C 0.48229 0.38889 0.47536 0.0
C462 C 0.48294 0.38842 0.53366 0.0
C463 C 0.49347 0.40802 0.60843 0.0
H464 H 0.49267 0.41762 0.61169 0.0
H465 H 0.50431 0.41075 0.61945 0.0
H466 H 0.4862 0.40006 0.63885 0.0
O467 O 0.48971 0.43694 0.45837 0.0
O468 O 0.48317 0.42278 0.38444 0.0
H469 H 0.46722 0.37732 0.41131 0.0
H470 H 0.4705 0.36652 0.45899 0.0
C471 C 0.47535 0.37663 0.43619 0.0
H472 H 0.48324 0.37689 0.40662 0.0
H473 H 0.4635 0.39872 0.32679 0.0
O474 O 0.51259 0.44091 0.56149 0.0
C475 C 0.48301 0.43258 0.41178 0.0
Co476 Co 0.59087 0.07609 0.49344 0.0
Co477 Co 0.61068 0.08452 0.38926 0.0
C478 C 0.58756 0.09043 0.3889 0.0
O479 O 0.58337 0.08427 0.43629 0.0
O480 O 0.59898 0.09249 0.36749 0.0
C481 C 0.58122 0.08672 0.57903 0.0
O482 O 0.58812 0.09765 0.54614 0.0
C483 C 0.63225 0.10145 0.30787 0.0
C484 C 0.63523 0.08545 0.26383 0.0
C485 C 0.63958 0.09958 0.2648 0.0
N486 N 0.6239 0.08894 0.3315 0.0
N487 N 0.62571 0.07942 0.30507 0.0
C488 C 0.63236 0.11462 0.32379 0.0
H489 H 0.62571 0.11292 0.36136 0.0
H490 H 0.64318 0.12306 0.33295 0.0
H491 H 0.62844 0.11812 0.28784 0.0
C492 C 0.61942 0.0923 0.55161 0.0
N493 N 0.61114 0.08722 0.50525 0.0
N494 N 0.61927 0.09039 0.46069 0.0
C495 C 0.6328 0.09722 0.47698 0.0
C496 C 0.63351 0.09896 0.53517 0.0
C497 C 0.61387 0.09125 0.61005 0.0
H498 H 0.60957 0.09839 0.61385 0.0
H499 H 0.6221 0.09426 0.64249 0.0
H500 H 0.60523 0.08044 0.61788 0.0
O501 O 0.58479 0.05667 0.461 0.0
O502 O 0.59858 0.06429 0.38597 0.0
H503 H 0.6542 0.10229 0.46178 0.0
H504 H 0.64761 0.11055 0.41535 0.0
C505 C 0.64485 0.10077 0.43827 0.0
H506 H 0.64197 0.09224 0.40732 0.0
H507 H 0.62037 0.06877 0.31494 0.0
O508 O 0.58089 0.07536 0.56573 0.0
C509 C 0.58894 0.05432 0.41388 0.0
Co510 Co 0.85635 0.60811 0.78691 0.0
Co511 Co 0.86875 0.60009 0.88851 0.0
C512 C 0.84011 0.59445 0.89691 0.0
O513 O 0.84148 0.60003 0.84838 0.0
O514 O 0.84976 0.59268 0.91744 0.0
C515 C 0.83587 0.59665 0.70192 0.0
O516 O 0.8326 0.58556 0.73282 0.0
C517 C 0.877 0.58673 0.97533 0.0
C518 C 0.90004 0.60006 0.96992 0.0
C519 C 0.88944 0.58818 0.99512 0.0
N520 N 0.88016 0.59719 0.93892 0.0
N521 N 0.8939 0.60529 0.93689 0.0
C522 C 0.86253 0.57481 0.98553 0.0
H523 H 0.85572 0.57328 0.94871 0.0
H524 H 0.8627 0.56501 0.9942 0.0
H525 H 0.85807 0.57726 0.02283 0.0
C526 C 0.8692 0.59268 0.72591 0.0
N527 N 0.86552 0.59718 0.77276 0.0
N528 N 0.86958 0.59302 0.81711 0.0
C529 C 0.87553 0.58551 0.80041 0.0
C530 C 0.87585 0.58523 0.74196 0.0
C531 C 0.86716 0.59614 0.66707 0.0
H532 H 0.8674 0.60631 0.66625 0.0
H533 H 0.85679 0.5879 0.65164 0.0
H534 H 0.87532 0.59653 0.63854 0.0
O535 O 0.86986 0.6277 0.8152 0.0
O536 O 0.87728 0.62047 0.88754 0.0
H537 H 0.89061 0.58553 0.85711 0.0
H538 H 0.88085 0.56949 0.81802 0.0
C539 C 0.88017 0.57803 0.83975 0.0
H540 H 0.87261 0.57339 0.87476 0.0
H541 H 0.89909 0.614 0.91066 0.0
O542 O 0.84635 0.6083 0.71653 0.0
C543 C 0.87731 0.63029 0.85965 0.0
Co544 Co 0.41399 0.25296 0.78751 0.0
Co545 Co 0.41948 0.27286 0.88984 0.0
C546 C 0.42596 0.24965 0.89701 0.0
O547 O 0.42208 0.2458 0.84636 0.0
O548 O 0.42593 0.26028 0.91735 0.0
C549 C 0.42509 0.24311 0.70363 0.0
O550 O 0.43583 0.24967 0.73777 0.0
C551 C 0.43611 0.29444 0.97126 0.0
C552 C 0.42005 0.29744 0.01456 0.0
C553 C 0.43418 0.30178 0.01411 0.0
N554 N 0.42365 0.28613 0.94716 0.0
N555 N 0.41408 0.28794 0.97316 0.0
C556 C 0.44928 0.29445 0.9562 0.0
H557 H 0.4473 0.28663 0.92279 0.0
H558 H 0.45725 0.30493 0.94092 0.0
H559 H 0.45358 0.29211 0.99429 0.0
C560 C 0.4308 0.28159 0.73007 0.0
N561 N 0.42498 0.27328 0.77587 0.0
N562 N 0.42695 0.28138 0.81967 0.0
C563 C 0.43365 0.29489 0.80328 0.0
C564 C 0.43663 0.29565 0.74606 0.0
C565 C 0.43108 0.27614 0.67261 0.0
H566 H 0.42046 0.26758 0.66128 0.0
H567 H 0.43818 0.27175 0.67326 0.0
H568 H 0.43493 0.28444 0.64012 0.0
O569 O 0.39409 0.24648 0.81669 0.0
O570 O 0.39929 0.26181 0.88628 0.0
H571 H 0.42654 0.30338 0.86854 0.0
H572 H 0.43673 0.31573 0.81464 0.0
C573 C 0.43562 0.3068 0.84005 0.0
H574 H 0.44521 0.31044 0.86572 0.0
H575 H 0.40344 0.28256 0.96305 0.0
O576 O 0.4138 0.24306 0.71566 0.0
C577 C 0.39035 0.25145 0.85779 0.0
Co578 Co 0.76874 0.1651 0.79141 0.0
Co579 Co 0.7486 0.15306 0.89443 0.0
C580 C 0.7721 0.18207 0.89809 0.0
O581 O 0.77621 0.18057 0.84964 0.0
O582 O 0.7608 0.17243 0.91927 0.0
C583 C 0.77791 0.18521 0.70558 0.0
O584 O 0.77051 0.18884 0.73747 0.0
C585 C 0.72784 0.14872 0.97918 0.0
C586 C 0.72233 0.12787 0.01245 0.0
C587 C 0.71968 0.1388 0.01873 0.0
N588 N 0.73502 0.14387 0.9506 0.0
N589 N 0.73172 0.13143 0.97063 0.0
C590 C 0.72972 0.16301 0.97127 0.0
H591 H 0.73399 0.16708 0.92872 0.0
H592 H 0.71972 0.16292 0.97724 0.0
H593 H 0.73723 0.17015 1.00327 0.0
C594 C 0.74037 0.15285 0.73227 0.0
N595 N 0.74854 0.15615 0.77896 0.0
N596 N 0.74028 0.15127 0.82322 0.0
C597 C 0.72679 0.14467 0.80639 0.0
C598 C 0.7263 0.14546 0.74817 0.0
C599 C 0.74586 0.15596 0.6733 0.0
H600 H 0.75526 0.15482 0.66956 0.0
H601 H 0.74893 0.16693 0.66302 0.0
H602 H 0.73777 0.14894 0.64267 0.0
O603 O 0.77458 0.1515 0.82216 0.0
O604 O 0.75993 0.14403 0.89483 0.0
H605 H 0.71545 0.12946 0.87023 0.0
H606 H 0.70445 0.13239 0.8223 0.0
C607 C 0.71454 0.13746 0.84536 0.0
H608 H 0.71454 0.14523 0.87496 0.0
H609 H 0.73596 0.12542 0.95599 0.0
O610 O 0.77876 0.17452 0.7197 0.0
C611 C 0.76971 0.14403 0.86667 0.0
Co612 Co 0.41333 0.16486 0.28673 0.0
Co613 Co 0.42268 0.15425 0.38942 0.0
C614 C 0.42868 0.18259 0.39344 0.0
O615 O 0.42196 0.18019 0.34697 0.0
O616 O 0.43148 0.17363 0.41401 0.0
C617 C 0.42389 0.18258 0.18975 0.0
O618 O 0.43568 0.18369 0.20742 0.0
C619 C 0.43377 0.14494 0.48291 0.0
C620 C 0.41888 0.12217 0.47776 0.0
C621 C 0.43039 0.1322 0.50698 0.0
N622 N 0.4247 0.14245 0.44077 0.0
N623 N 0.4158 0.12886 0.43823 0.0
C624 C 0.4449 0.15922 0.50094 0.0
H625 H 0.44091 0.16663 0.49832 0.0
H626 H 0.45399 0.16296 0.47211 0.0
H627 H 0.44837 0.15914 0.54475 0.0
C628 C 0.42785 0.15066 0.22692 0.0
N629 N 0.42389 0.15523 0.27285 0.0
N630 N 0.42861 0.15201 0.31785 0.0
C631 C 0.43603 0.14587 0.3026 0.0
C632 C 0.43567 0.14448 0.24431 0.0
C633 C 0.42339 0.15123 0.16796 0.0
H634 H 0.41393 0.15231 0.16808 0.0
H635 H 0.43197 0.16038 0.14606 0.0
H636 H 0.42127 0.14168 0.14437 0.0
O637 O 0.39388 0.15184 0.31748 0.0
O638 O 0.40251 0.14716 0.39286 0.0
H639 H 0.43695 0.13165 0.36122 0.0
H640 H 0.45294 0.14203 0.3224 0.0
C641 C 0.44401 0.14216 0.34334 0.0
H642 H 0.44809 0.14986 0.37823 0.0
H643 H 0.40765 0.12416 0.40905 0.0
O644 O 0.41263 0.17466 0.21653 0.0
C645 C 0.39214 0.14624 0.36614 0.0
Co646 Co 0.85648 0.25268 0.29141 0.0
Co647 Co 0.86874 0.27261 0.39499 0.0
C648 C 0.83964 0.24933 0.39848 0.0
O649 O 0.84104 0.24527 0.34978 0.0
O650 O 0.84937 0.26054 0.41991 0.0
C651 C 0.83637 0.24374 0.20533 0.0
O652 O 0.83279 0.25118 0.23725 0.0
C653 C 0.87369 0.2935 0.48038 0.0
C654 C 0.89441 0.29838 0.51319 0.0
C655 C 0.88378 0.30146 0.51972 0.0
N656 N 0.87816 0.28602 0.45156 0.0
N657 N 0.89051 0.28893 0.47139 0.0
C658 C 0.85968 0.29229 0.47251 0.0
H659 H 0.85495 0.28707 0.43189 0.0
H660 H 0.86057 0.30274 0.47382 0.0
H661 H 0.85269 0.28599 0.50752 0.0
C662 C 0.86901 0.2812 0.23318 0.0
N663 N 0.86561 0.27293 0.27958 0.0
N664 N 0.87055 0.28108 0.32412 0.0
C665 C 0.87726 0.29461 0.30779 0.0
C666 C 0.87653 0.29524 0.24955 0.0
C667 C 0.86595 0.27581 0.17403 0.0
H668 H 0.86692 0.26631 0.17017 0.0
H669 H 0.85504 0.27291 0.16341 0.0
H670 H 0.8731 0.28388 0.14371 0.0
O671 O 0.86993 0.24658 0.32148 0.0
O672 O 0.87758 0.2611 0.39454 0.0
H673 H 0.89246 0.30587 0.37189 0.0
H674 H 0.88933 0.31693 0.32509 0.0
C675 C 0.88438 0.30676 0.3474 0.0
H676 H 0.87657 0.30656 0.37721 0.0
H677 H 0.89626 0.28442 0.45651 0.0
O678 O 0.84701 0.2428 0.21953 0.0
C679 C 0.87745 0.25132 0.36595 0.0
Co680 Co 0.76827 0.60763 0.28856 0.0
Co681 Co 0.74847 0.60097 0.39219 0.0
C682 C 0.77172 0.59477 0.39609 0.0
O683 O 0.77573 0.59975 0.34677 0.0
O684 O 0.76074 0.59387 0.4174 0.0
C685 C 0.77841 0.59683 0.20513 0.0
O686 O 0.772 0.58612 0.23949 0.0
C687 C 0.72679 0.58407 0.47294 0.0
C688 C 0.72396 0.60005 0.51794 0.0
C689 C 0.71947 0.58588 0.51622 0.0
N690 N 0.73522 0.59662 0.44982 0.0
N691 N 0.73352 0.60614 0.47685 0.0
C692 C 0.72661 0.57089 0.45653 0.0
H693 H 0.73427 0.57291 0.42239 0.0
H694 H 0.71604 0.56298 0.44175 0.0
H695 H 0.7291 0.56648 0.49388 0.0
C696 C 0.73966 0.59091 0.23125 0.0
N697 N 0.74797 0.59645 0.27726 0.0
N698 N 0.73988 0.5941 0.32143 0.0
C699 C 0.72636 0.58747 0.30506 0.0
C700 C 0.72559 0.5849 0.24742 0.0
C701 C 0.74515 0.59102 0.17346 0.0
H702 H 0.75011 0.58443 0.17349 0.0
H703 H 0.73678 0.58683 0.14119 0.0
H704 H 0.7533 0.60183 0.16228 0.0
O705 O 0.77442 0.62732 0.31831 0.0
O706 O 0.75976 0.62125 0.3908 0.0
H707 H 0.70552 0.58429 0.31767 0.0
H708 H 0.71083 0.57542 0.36682 0.0
C709 C 0.71446 0.5852 0.34249 0.0
H710 H 0.71788 0.59406 0.3722 0.0
H711 H 0.739 0.61682 0.4676 0.0
O712 O 0.77819 0.608 0.21662 0.0
C713 C 0.76969 0.63056 0.36164 0.0
Co714 Co 0.50291 0.07534 0.99593 0.0
Co715 Co 0.49153 0.08404 0.89309 0.0
C716 C 0.52006 0.08978 0.88804 0.0
O717 O 0.51805 0.08349 0.93532 0.0
O718 O 0.51088 0.09226 0.86754 0.0
C719 C 0.52305 0.08696 0.08193 0.0
O720 O 0.52625 0.098 0.0508 0.0
C721 C 0.4825 0.09606 0.80208 0.0
C722 C 0.46022 0.07954 0.79708 0.0
C723 C 0.47007 0.0922 0.7741 0.0
N724 N 0.48 0.08612 0.84039 0.0
N725 N 0.4667 0.07628 0.83693 0.0
C726 C 0.49656 0.10857 0.79108 0.0
H727 H 0.49794 0.11734 0.8183 0.0
H728 H 0.4975 0.11188 0.74638 0.0
H729 H 0.50498 0.10626 0.80119 0.0
C730 C 0.48991 0.09077 0.05554 0.0
N731 N 0.49361 0.08622 0.00896 0.0
N732 N 0.48966 0.09042 0.96439 0.0
C733 C 0.48368 0.09794 0.98071 0.0
C734 C 0.4836 0.09848 0.0391 0.0
C735 C 0.49237 0.08782 0.11463 0.0
H736 H 0.50308 0.09585 0.12764 0.0
H737 H 0.4848 0.08829 0.14413 0.0
H738 H 0.49156 0.07741 0.11697 0.0
O739 O 0.48963 0.05572 0.96687 0.0
O740 O 0.48414 0.06384 0.89199 0.0
H741 H 0.46805 0.09499 0.92055 0.0
H742 H 0.474 0.11048 0.96288 0.0
C743 C 0.47733 0.10374 0.94103 0.0
H744 H 0.48502 0.1099 0.90782 0.0
H745 H 0.46203 0.06734 0.86213 0.0
O746 O 0.51273 0.07522 0.06707 0.0
C747 C 0.48346 0.05365 0.91926 0.0
Co748 Co 0.94487 0.43025 0.99464 0.0
Co749 Co 0.93913 0.41024 0.89258 0.0
C750 C 0.93276 0.4334 0.8847 0.0
O751 O 0.93675 0.4373 0.93526 0.0
O752 O 0.93264 0.4227 0.86444 0.0
C753 C 0.93343 0.43931 0.07993 0.0
O754 O 0.92243 0.43191 0.04785 0.0
C755 C 0.92318 0.38937 0.80793 0.0
C756 C 0.93886 0.38439 0.77405 0.0
C757 C 0.92515 0.38136 0.76827 0.0
N758 N 0.9352 0.3968 0.83625 0.0
N759 N 0.94456 0.39385 0.81579 0.0
C760 C 0.91047 0.39072 0.81646 0.0
H761 H 0.91125 0.39627 0.85653 0.0
H762 H 0.90087 0.3803 0.81689 0.0
H763 H 0.90958 0.39674 0.78086 0.0
C764 C 0.92875 0.40174 0.0531 0.0
N765 N 0.93402 0.40999 1.0068 0.0
N766 N 0.93161 0.40182 0.9628 0.0
C767 C 0.92494 0.38832 0.97941 0.0
C768 C 0.9228 0.38771 0.03722 0.0
C769 C 0.93021 0.40716 0.11195 0.0
H770 H 0.9406 0.41668 0.11746 0.0
H771 H 0.92204 0.41002 0.11959 0.0
H772 H 0.92889 0.39913 0.14327 0.0
O773 O 0.96471 0.43672 0.96595 0.0
O774 O 0.9594 0.42141 0.89623 0.0
H775 H 0.93024 0.37764 0.91725 0.0
H776 H 0.91611 0.36607 0.96333 0.0
C777 C 0.92089 0.37618 0.94058 0.0
H778 H 0.91315 0.3757 0.9097 0.0
H779 H 0.95487 0.39836 0.83011 0.0
O780 O 0.94499 0.44017 0.06607 0.0
C781 C 0.96839 0.43175 0.92474 0.0
Co782 Co 0.59035 0.51857 0.99071 0.0
Co783 Co 0.61032 0.52925 0.88715 0.0
C784 C 0.58714 0.50057 0.88614 0.0
O785 O 0.58294 0.50286 0.933 0.0
O786 O 0.59876 0.50965 0.86506 0.0
C787 C 0.58277 0.50055 0.08565 0.0
O788 O 0.59252 0.49848 0.06363 0.0
C789 C 0.6311 0.534 0.80132 0.0
C790 C 0.63621 0.55484 0.76929 0.0
C791 C 0.63909 0.5441 0.76204 0.0
N792 N 0.62378 0.53858 0.83068 0.0
N793 N 0.62684 0.55101 0.81135 0.0
C794 C 0.62952 0.51981 0.8082 0.0
H795 H 0.62555 0.51564 0.85097 0.0
H796 H 0.63957 0.52009 0.80074 0.0
H797 H 0.62186 0.51262 0.7767 0.0
C798 C 0.61887 0.53187 0.05006 0.0
N799 N 0.61058 0.52782 1.00353 0.0
N800 N 0.61874 0.53196 0.95883 0.0
C801 C 0.63227 0.53865 0.97515 0.0
C802 C 0.63289 0.5388 0.03353 0.0
C803 C 0.61364 0.53019 0.1093 0.0
H804 H 0.60338 0.52974 0.11039 0.0
H805 H 0.6124 0.52033 0.12692 0.0
H806 H 0.62127 0.53895 0.13607 0.0
O807 O 0.58452 0.53198 0.9585 0.0
O808 O 0.59814 0.53738 0.88324 0.0
H809 H 0.64405 0.55308 0.90961 0.0
H810 H 0.65459 0.5496 0.95796 0.0
C811 C 0.64444 0.54491 0.93543 0.0
H812 H 0.64376 0.53668 0.90677 0.0
H813 H 0.62246 0.55684 0.82666 0.0
O814 O 0.58 0.50925 0.06207 0.0
C815 C 0.58867 0.53813 0.91081 0.0
Co816 Co 0.61164 0.85131 0.83103 0.0
Co817 Co 0.6029 0.86247 0.7278 0.0
C818 C 0.59693 0.83405 0.72298 0.0
O819 O 0.6034 0.83621 0.76999 0.0
O820 O 0.59433 0.84314 0.70244 0.0
C821 C 0.60017 0.83088 0.9162 0.0
O822 O 0.58908 0.82748 0.88499 0.0
C823 C 0.59181 0.87183 0.63443 0.0
C824 C 0.60683 0.89458 0.63887 0.0
C825 C 0.59519 0.88456 0.61024 0.0
N826 N 0.60099 0.87431 0.67613 0.0
N827 N 0.60997 0.88788 0.67821 0.0
C828 C 0.58053 0.85756 0.61701 0.0
H829 H 0.58435 0.85003 0.62009 0.0
H830 H 0.57146 0.85402 0.64586 0.0
H831 H 0.57705 0.85758 0.57315 0.0
C832 C 0.59653 0.86479 0.89011 0.0
N833 N 0.60088 0.86071 0.84398 0.0
N834 N 0.59662 0.86443 0.799 0.0
C835 C 0.58922 0.87057 0.81442 0.0
C836 C 0.58906 0.87135 0.87288 0.0
C837 C 0.6001 0.86312 0.94928 0.0
H838 H 0.61005 0.86292 0.95024 0.0
H839 H 0.59167 0.85304 0.96625 0.0
H840 H 0.60097 0.87171 0.97646 0.0
O841 O 0.63124 0.86455 0.80228 0.0
O842 O 0.62307 0.86964 0.72648 0.0
H843 H 0.58917 0.8854 0.75661 0.0
H844 H 0.5729 0.87526 0.79406 0.0
C845 C 0.58174 0.87489 0.77359 0.0
H846 H 0.57761 0.86736 0.73811 0.0
H847 H 0.6182 0.89258 0.70702 0.0
O848 O 0.61178 0.84145 0.90188 0.0
C849 C 0.63327 0.87043 0.7541 0.0
Co850 Co 0.17017 0.76471 0.82851 0.0
Co851 Co 0.15919 0.74466 0.72539 0.0
C852 C 0.18776 0.76711 0.72227 0.0
O853 O 0.18544 0.77146 0.76883 0.0
O854 O 0.17872 0.75541 0.70143 0.0
C855 C 0.19006 0.77343 0.91559 0.0
O856 O 0.19334 0.7655 0.88538 0.0
C857 C 0.15073 0.72576 0.62734 0.0
C858 C 0.12772 0.71597 0.63474 0.0
C859 C 0.13822 0.7162 0.6021 0.0
N860 N 0.14767 0.73085 0.67322 0.0
N861 N 0.13394 0.72501 0.67726 0.0
C862 C 0.16529 0.73093 0.60628 0.0
H863 H 0.17107 0.74252 0.60586 0.0
H864 H 0.17079 0.72747 0.63556 0.0
H865 H 0.16537 0.72713 0.56311 0.0
C866 C 0.15726 0.73632 0.88805 0.0
N867 N 0.1609 0.74461 0.84164 0.0
N868 N 0.15691 0.73649 0.79691 0.0
C869 C 0.15083 0.72299 0.81293 0.0
C870 C 0.15065 0.7223 0.87127 0.0
C871 C 0.15952 0.74165 0.94727 0.0
H872 H 0.15898 0.75141 0.94945 0.0
H873 H 0.17008 0.74404 0.9613 0.0
H874 H 0.15166 0.73367 0.97607 0.0
O875 O 0.15702 0.77105 0.79777 0.0
O876 O 0.15212 0.75771 0.72211 0.0
H877 H 0.13499 0.70781 0.75907 0.0
H878 H 0.14547 0.70174 0.79359 0.0
C879 C 0.14574 0.7109 0.77301 0.0
H880 H 0.15266 0.7139 0.73555 0.0
H881 H 0.12884 0.7273 0.70901 0.0
O882 O 0.17977 0.77479 0.89974 0.0
C883 C 0.15135 0.76721 0.74913 0.0
Co884 Co 0.25635 0.40881 0.83021 0.0
Co885 Co 0.27666 0.41687 0.72836 0.0
C886 C 0.25357 0.42249 0.7211 0.0
O887 O 0.24939 0.41691 0.76963 0.0
O888 O 0.26494 0.42421 0.70029 0.0
C889 C 0.249 0.41997 0.92396 0.0
O890 O 0.25913 0.43165 0.90276 0.0
C891 C 0.29662 0.42979 0.63616 0.0
C892 C 0.30542 0.41566 0.63153 0.0
C893 C 0.30609 0.42737 0.60721 0.0
N894 N 0.29071 0.41998 0.67623 0.0
N895 N 0.29597 0.41157 0.67327 0.0
C896 C 0.29224 0.44032 0.62351 0.0
H897 H 0.29246 0.44589 0.66283 0.0
H898 H 0.29887 0.44793 0.5909 0.0
H899 H 0.28129 0.43474 0.60806 0.0
C900 C 0.28487 0.42435 0.89031 0.0
N901 N 0.27655 0.41978 0.84387 0.0
N902 N 0.2847 0.42408 0.7992 0.0
C903 C 0.29818 0.43191 0.8153 0.0
C904 C 0.29884 0.43237 0.87359 0.0
C905 C 0.27971 0.42071 0.94959 0.0
H906 H 0.26934 0.41103 0.95061 0.0
H907 H 0.27877 0.42943 0.96816 0.0
H908 H 0.28728 0.41931 0.97559 0.0
O909 O 0.25027 0.38926 0.80155 0.0
O910 O 0.26497 0.39643 0.72931 0.0
H911 H 0.31188 0.42961 0.75827 0.0
H912 H 0.32015 0.4458 0.79689 0.0
C913 C 0.31035 0.43808 0.77558 0.0
H914 H 0.30819 0.44327 0.74019 0.0
H915 H 0.29303 0.40297 0.69963 0.0
O916 O 0.24592 0.4084 0.90028 0.0
C917 C 0.25516 0.38663 0.75727 0.0
Co918 Co 0.52242 0.941 0.12022 0.0
Co919 Co 0.53312 0.9318 0.22375 0.0
C920 C 0.50467 0.92594 0.22653 0.0
O921 O 0.50707 0.93259 0.17993 0.0
O922 O 0.51363 0.92321 0.24759 0.0
C923 C 0.50267 0.9295 0.03277 0.0
O924 O 0.49959 0.91837 0.06309 0.0
C925 C 0.54219 0.91995 0.31557 0.0
C926 C 0.56449 0.93645 0.31975 0.0
C927 C 0.55466 0.92389 0.34342 0.0
N928 N 0.54465 0.92977 0.27672 0.0
N929 N 0.55795 0.93959 0.27969 0.0
C930 C 0.52813 0.9075 0.32722 0.0
H931 H 0.52664 0.89867 0.30008 0.0
H932 H 0.52729 0.90425 0.37197 0.0
H933 H 0.51973 0.90986 0.31743 0.0
C934 C 0.5356 0.92572 0.0612 0.0
N935 N 0.53175 0.93018 0.10758 0.0
N936 N 0.5354 0.92576 0.15235 0.0
C937 C 0.5413 0.91816 0.13633 0.0
C938 C 0.54168 0.91782 0.07797 0.0
C939 C 0.53349 0.92889 1.00199 0.0
H940 H 0.53414 0.93924 0.99998 0.0
H941 H 0.52292 0.9208 0.98763 0.0
H942 H 0.54134 0.9287 0.97329 0.0
O943 O 0.53557 0.96053 0.15042 0.0
O944 O 0.54017 0.95195 0.22625 0.0
H945 H 0.55661 0.92049 0.19704 0.0
H946 H 0.55019 0.90495 0.15467 0.0
C947 C 0.54719 0.91196 0.17635 0.0
H948 H 0.53935 0.90599 0.20939 0.0
H949 H 0.56259 0.94845 0.25402 0.0
O950 O 0.51279 0.94127 0.0487 0.0
C951 C 0.54111 0.96229 0.19926 0.0
Co952 Co 0.08033 0.58698 0.125 0.0
Co953 Co 0.08324 0.60693 0.22381 0.0
C954 C 0.09142 0.58505 0.23883 0.0
O955 O 0.08858 0.5811 0.1876 0.0
O956 O 0.09021 0.59521 0.25738 0.0
C957 C 0.08146 0.56599 0.05644 0.0
O958 O 0.08001 0.55996 0.10566 0.0
C959 C 0.09737 0.62946 0.30438 0.0
C960 C 0.08145 0.63572 0.31883 0.0
C961 C 0.09507 0.63922 0.3312 0.0
N962 N 0.08566 0.62066 0.27647 0.0
N963 N 0.07607 0.62423 0.28622 0.0
C964 C 0.11085 0.62939 0.29997 0.0
H965 H 0.1108 0.6234 0.26225 0.0
H966 H 0.11982 0.64024 0.29793 0.0
H967 H 0.11213 0.62433 0.3381 0.0
C968 C 0.09769 0.6153 0.06745 0.0
N969 N 0.09081 0.60713 0.1124 0.0
N970 N 0.09161 0.61531 0.15426 0.0
C971 C 0.09852 0.62877 0.13702 0.0
C972 C 0.10293 0.62938 0.08168 0.0
C973 C 0.09957 0.6097 0.01272 0.0
H974 H 0.08949 0.60466 0.98948 0.0
H975 H 0.10248 0.6016 0.0209 0.0
H976 H 0.10774 0.6181 0.98633 0.0
O977 O 0.05993 0.57955 0.1496 0.0
O978 O 0.06324 0.59508 0.21614 0.0
H979 H 0.08952 0.63741 0.19292 0.0
H980 H 0.10154 0.64971 0.14324 0.0
C981 C 0.09948 0.64074 0.17053 0.0
H982 H 0.10807 0.64426 0.20169 0.0
H983 H 0.06609 0.61924 0.26827 0.0
O984 O 0.08128 0.57742 0.05417 0.0
C985 C 0.05515 0.58431 0.18762 0.0
Co986 Co 0.43502 0.49857 0.12331 0.0
Co987 Co 0.41447 0.4867 0.2245 0.0
C988 C 0.43709 0.5152 0.23236 0.0
O989 O 0.44154 0.5136 0.18464 0.0
O990 O 0.42546 0.50576 0.25214 0.0
C991 C 0.44375 0.5187 0.03709 0.0
O992 O 0.43551 0.52166 0.06683 0.0
C993 C 0.39292 0.47841 0.31142 0.0
C994 C 0.38302 0.45537 0.30519 0.0
C995 C 0.3819 0.466 0.33103 0.0
N996 N 0.40013 0.47523 0.27457 0.0
N997 N 0.39437 0.46148 0.272 0.0
C998 C 0.39567 0.49292 0.32249 0.0
H999 H 0.39985 0.49943 0.28406 0.0
H1000 H 0.38603 0.49282 0.33656 0.0
H1001 H 0.40367 0.49771 0.35618 0.0
C1002 C 0.40684 0.48524 0.06132 0.0
N1003 N 0.41497 0.48917 0.10834 0.0
N1004 N 0.40669 0.48531 0.1525 0.0
C1005 C 0.39325 0.47928 0.13552 0.0
C1006 C 0.39272 0.47866 0.07707 0.0
C1007 C 0.41243 0.48705 1.00266 0.0
H1008 H 0.42251 0.4871 1.00262 0.0
H1009 H 0.41431 0.49723 0.98596 0.0
H1010 H 0.4048 0.47861 0.97468 0.0
O1011 O 0.44125 0.48529 0.15336 0.0
O1012 O 0.4271 0.47911 0.22701 0.0
H1013 H 0.37787 0.46447 0.19204 0.0
H1014 H 0.37204 0.47451 0.15234 0.0
C1015 C 0.3811 0.47496 0.17452 0.0
H1016 H 0.38413 0.48257 0.20948 0.0
H1017 H 0.39781 0.45628 0.24535 0.0
O1018 O 0.44534 0.50855 0.05293 0.0
C1019 C 0.4369 0.47881 0.20028 0.0
Co1020 Co 0.07928 0.49874 0.62218 0.0
Co1021 Co 0.08773 0.48601 0.72095 0.0
C1022 C 0.09347 0.51472 0.73127 0.0
O1023 O 0.0876 0.51349 0.68354 0.0
O1024 O 0.09535 0.50502 0.75018 0.0
C1025 C 0.08996 0.51815 0.53153 0.0
O1026 O 0.10177 0.51991 0.55221 0.0
C1027 C 0.10227 0.47914 0.80631 0.0
C1028 C 0.08917 0.45606 0.80807 0.0
C1029 C 0.10118 0.46724 0.82988 0.0
N1030 N 0.09139 0.47518 0.77134 0.0
N1031 N 0.08345 0.46142 0.77337 0.0
C1032 C 0.11398 0.49387 0.81291 0.0
H1033 H 0.11627 0.49941 0.77189 0.0
H1034 H 0.12355 0.49419 0.82942 0.0
H1035 H 0.11072 0.4994 0.84301 0.0
C1036 C 0.09476 0.48632 0.5575 0.0
N1037 N 0.09025 0.48965 0.6053 0.0
N1038 N 0.0943 0.4851 0.64857 0.0
C1039 C 0.10162 0.47908 0.63012 0.0
C1040 C 0.10215 0.47955 0.57189 0.0
C1041 C 0.09132 0.48867 0.49905 0.0
H1042 H 0.08151 0.48912 0.4989 0.0
H1043 H 0.09998 0.49873 0.48298 0.0
H1044 H 0.09026 0.48022 0.47045 0.0
O1045 O 0.05986 0.48512 0.65234 0.0
O1046 O 0.06737 0.47738 0.72264 0.0
H1047 H 0.09964 0.46284 0.6849 0.0
H1048 H 0.11548 0.47077 0.64396 0.0
C1049 C 0.10801 0.47285 0.6674 0.0
H1050 H 0.11365 0.4801 0.70255 0.0
H1051 H 0.07442 0.45566 0.74924 0.0
O1052 O 0.07847 0.50911 0.55411 0.0
C1053 C 0.05744 0.47751 0.69621 0.0
Co1054 Co 0.52248 0.58581 0.62338 0.0
Co1055 Co 0.53374 0.60644 0.72477 0.0
C1056 C 0.50524 0.58335 0.7303 0.0
O1057 O 0.50726 0.579 0.68319 0.0
O1058 O 0.51443 0.59503 0.75073 0.0
C1059 C 0.50415 0.57797 0.52933 0.0
O1060 O 0.50247 0.58807 0.55007 0.0
C1061 C 0.54023 0.62726 0.81316 0.0
C1062 C 0.56337 0.63791 0.81324 0.0
C1063 C 0.55207 0.63821 0.83699 0.0
N1064 N 0.54437 0.62086 0.77617 0.0
N1065 N 0.55817 0.6271 0.77706 0.0
C1066 C 0.52537 0.62371 0.82127 0.0
H1067 H 0.52016 0.61468 0.85044 0.0
H1068 H 0.51973 0.6206 0.78041 0.0
H1069 H 0.52475 0.63265 0.83939 0.0
C1070 C 0.53535 0.61391 0.56118 0.0
N1071 N 0.53155 0.60585 0.60834 0.0
N1072 N 0.53535 0.6142 0.65241 0.0
C1073 C 0.54124 0.62761 0.635 0.0
C1074 C 0.54153 0.62795 0.57675 0.0
C1075 C 0.53397 0.60847 0.50241 0.0
H1076 H 0.53346 0.59819 0.5025 0.0
H1077 H 0.52424 0.60726 0.48334 0.0
H1078 H 0.5429 0.61601 0.47616 0.0
O1079 O 0.53605 0.58015 0.65468 0.0
O1080 O 0.54194 0.59427 0.72854 0.0
H1081 H 0.55687 0.64237 0.69067 0.0
H1082 H 0.54805 0.64942 0.65032 0.0
C1083 C 0.54661 0.64003 0.67323 0.0
H1084 H 0.53918 0.63777 0.70838 0.0
H1085 H 0.56404 0.62425 0.75147 0.0
O1086 O 0.51267 0.57503 0.55349 0.0
C1087 C 0.5425 0.58461 0.70162 0.0
Co1088 Co 0.43528 0.94105 0.62017 0.0
Co1089 Co 0.41568 0.9318 0.72427 0.0
C1090 C 0.43793 0.9257 0.72616 0.0
O1091 O 0.44216 0.93249 0.67981 0.0
O1092 O 0.42622 0.92285 0.74745 0.0
C1093 C 0.44314 0.92943 0.53178 0.0
O1094 O 0.43485 0.91825 0.56144 0.0
C1095 C 0.39535 0.92089 0.81831 0.0
C1096 C 0.38829 0.93646 0.81547 0.0
C1097 C 0.38637 0.92465 0.84346 0.0
N1098 N 0.40216 0.93007 0.77674 0.0
N1099 N 0.39796 0.93936 0.77557 0.0
C1100 C 0.39787 0.90925 0.83471 0.0
H1101 H 0.40907 0.91256 0.8296 0.0
H1102 H 0.39171 0.90014 0.80668 0.0
H1103 H 0.39469 0.90601 0.87904 0.0
C1104 C 0.40652 0.9262 0.56227 0.0
N1105 N 0.41509 0.93043 0.60796 0.0
N1106 N 0.40724 0.92592 0.65326 0.0
C1107 C 0.39366 0.91848 0.63847 0.0
C1108 C 0.39254 0.91853 0.58011 0.0
C1109 C 0.41159 0.93004 0.50298 0.0
H1110 H 0.4218 0.93992 0.50218 0.0
H1111 H 0.41301 0.92161 0.48436 0.0
H1112 H 0.40384 0.93118 0.47709 0.0
O1113 O 0.44191 0.9606 0.65063 0.0
O1114 O 0.429 0.95189 0.72704 0.0
H1115 H 0.37884 0.91795 0.69799 0.0
H1116 H 0.37282 0.90184 0.65931 0.0
C1117 C 0.38203 0.91071 0.67974 0.0
H1118 H 0.38565 0.90657 0.71433 0.0
H1119 H 0.40165 0.94765 0.74705 0.0
O1120 O 0.44505 0.94124 0.54842 0.0
C1121 C 0.43835 0.96228 0.70003 0.0
Co1122 Co 0.16943 0.41009 0.3272 0.0
Co1123 Co 0.15663 0.41732 0.22416 0.0
C1124 C 0.18594 0.42404 0.21972 0.0
O1125 O 0.18481 0.4186 0.26829 0.0
O1126 O 0.17601 0.42531 0.19923 0.0
C1127 C 0.19015 0.42101 0.41203 0.0
O1128 O 0.19426 0.43197 0.37921 0.0
C1129 C 0.14974 0.43162 0.13658 0.0
C1130 C 0.12904 0.41442 0.10955 0.0
C1131 C 0.13894 0.42822 0.09881 0.0
N1132 N 0.14631 0.42029 0.16833 0.0
N1133 N 0.13393 0.41008 0.15209 0.0
C1134 C 0.16338 0.44506 0.14039 0.0
H1135 H 0.17125 0.44365 0.16375 0.0
H1136 H 0.16181 0.45292 0.16339 0.0
H1137 H 0.16734 0.44919 0.09756 0.0
C1138 C 0.15695 0.42625 0.38576 0.0
N1139 N 0.15985 0.42082 0.33967 0.0
N1140 N 0.15445 0.42353 0.29536 0.0
C1141 C 0.14782 0.43043 0.31143 0.0
C1142 C 0.1493 0.43268 0.36925 0.0
C1143 C 0.16195 0.4258 0.44389 0.0
H1144 H 0.17338 0.43315 0.44615 0.0
H1145 H 0.15678 0.4289 0.47633 0.0
H1146 H 0.16007 0.41514 0.45288 0.0
O1147 O 0.15647 0.39031 0.29618 0.0
O1148 O 0.14933 0.39735 0.22259 0.0
H1149 H 0.13213 0.43645 0.29618 0.0
H1150 H 0.14603 0.44249 0.24489 0.0
C1151 C 0.13908 0.43366 0.27274 0.0
H1152 H 0.13242 0.42442 0.24627 0.0
H1153 H 0.12889 0.40006 0.16964 0.0
O1154 O 0.17904 0.40971 0.39886 0.0
C1155 C 0.14968 0.38766 0.24973 0.0
Co1156 Co 0.61233 0.76413 0.32963 0.0
Co1157 Co 0.6053 0.74375 0.22793 0.0
C1158 C 0.59899 0.76668 0.2206 0.0
O1159 O 0.60422 0.77095 0.26951 0.0
O1160 O 0.59785 0.75551 0.20006 0.0
C1161 C 0.6011 0.77388 0.41279 0.0
O1162 O 0.59026 0.76682 0.37955 0.0
C1163 C 0.58989 0.7221 0.14476 0.0
C1164 C 0.6046 0.71438 0.12804 0.0
C1165 C 0.59137 0.71211 0.11542 0.0
N1166 N 0.60166 0.72983 0.17423 0.0
N1167 N 0.61052 0.72537 0.16335 0.0
C1168 C 0.57712 0.72349 0.14918 0.0
H1169 H 0.57697 0.72826 0.19021 0.0
H1170 H 0.56749 0.71315 0.14449 0.0
H1171 H 0.57734 0.73043 0.11492 0.0
C1172 C 0.59563 0.73587 0.3896 0.0
N1173 N 0.60122 0.74395 0.34305 0.0
N1174 N 0.59836 0.73563 0.29927 0.0
C1175 C 0.59109 0.72217 0.31626 0.0
C1176 C 0.58887 0.72173 0.374 0.0
C1177 C 0.59637 0.7416 0.44746 0.0
H1178 H 0.58878 0.74538 0.45036 0.0
H1179 H 0.5937 0.73355 0.48043 0.0
H1180 H 0.60699 0.7506 0.4552 0.0
O1181 O 0.63206 0.77033 0.30051 0.0
O1182 O 0.62555 0.75542 0.22893 0.0
H1183 H 0.58394 0.70009 0.30299 0.0
H1184 H 0.5792 0.70843 0.24894 0.0
C1185 C 0.58754 0.70988 0.27884 0.0
H1186 H 0.59691 0.71181 0.25476 0.0
H1187 H 0.6204 0.72949 0.18173 0.0
O1188 O 0.61256 0.77435 0.40035 0.0
C1189 C 0.63506 0.76544 0.25704 0.0
Co1190 Co 0.25677 0.85245 0.33081 0.0
Co1191 Co 0.27659 0.86438 0.22716 0.0
C1192 C 0.25402 0.83563 0.22202 0.0
O1193 O 0.24989 0.83734 0.27024 0.0
O1194 O 0.26537 0.84515 0.20047 0.0
C1195 C 0.24883 0.83248 0.41732 0.0
O1196 O 0.25699 0.82961 0.38663 0.0
C1197 C 0.29683 0.87343 0.13326 0.0
C1198 C 0.3049 0.89625 0.1375 0.0
C1199 C 0.30626 0.88608 0.10878 0.0
N1200 N 0.29032 0.87609 0.17521 0.0
N1201 N 0.2951 0.8897 0.17719 0.0
C1202 C 0.2936 0.85908 0.11592 0.0
H1203 H 0.28215 0.85182 0.1172 0.0
H1204 H 0.29856 0.85519 0.14601 0.0
H1205 H 0.29747 0.85908 0.07275 0.0
C1206 C 0.28552 0.86585 0.38875 0.0
N1207 N 0.27701 0.86195 0.3429 0.0
N1208 N 0.28493 0.86584 0.29768 0.0
C1209 C 0.2985 0.87189 0.31264 0.0
C1210 C 0.29953 0.87244 0.37108 0.0
C1211 C 0.2804 0.86405 0.44817 0.0
H1212 H 0.27023 0.8638 0.44983 0.0
H1213 H 0.27886 0.85398 0.46468 0.0
H1214 H 0.28815 0.87262 0.47533 0.0
O1215 O 0.25014 0.86556 0.30266 0.0
O1216 O 0.26423 0.8723 0.22862 0.0
H1217 H 0.31329 0.88689 0.25498 0.0
H1218 H 0.31949 0.87664 0.29112 0.0
C1219 C 0.31023 0.87633 0.27133 0.0
H1220 H 0.30678 0.8689 0.23552 0.0
H1221 H 0.29176 0.89453 0.2062 0.0
O1222 O 0.24703 0.84254 0.40206 0.0
C1223 C 0.25461 0.87255 0.25695 0.0
H1224 H 0.28792 0.12299 0.82465 0.0
H1225 H 0.24409 0.10606 0.78676 0.0
H1226 H 0.28578 0.13607 0.90367 0.0
H1227 H 0.24196 0.11899 0.86567 0.0
H1228 H 0.2502 0.15984 0.95618 0.0
H1229 H 0.25011 0.14359 0.88653 0.0
H1230 H 0.27482 0.13365 0.99791 0.0
H1231 H 0.275 0.15004 0.06782 0.0
C1232 C 0.27781 0.12196 0.8334 0.0
C1233 C 0.26621 0.11354 0.79903 0.0
C1234 C 0.27656 0.12938 0.87895 0.0
C1235 C 0.26369 0.12861 0.89098 0.0
C1236 C 0.25205 0.11995 0.85727 0.0
C1237 C 0.25328 0.11249 0.81206 0.0
C1238 C 0.25537 0.15398 0.96646 0.0
C1239 C 0.26262 0.15629 0.0177 0.0
C1240 C 0.25531 0.14463 0.92643 0.0
C1241 C 0.26258 0.1374 0.93633 0.0
C1242 C 0.26929 0.1392 0.98864 0.0
C1243 C 0.26923 0.14847 0.02902 0.0
H1244 H 0.92258 0.15293 0.83468 0.0
H1245 H 0.88792 0.15823 0.78449 0.0
H1246 H 0.90836 0.13736 0.91126 0.0
H1247 H 0.87364 0.14233 0.86001 0.0
H1248 H 0.85024 0.09726 0.93902 0.0
H1249 H 0.86643 0.11402 0.87112 0.0
H1250 H 0.89302 0.13957 1.00639 0.0
H1251 H 0.87648 0.12293 0.07569 0.0
C1252 C 0.91196 0.15083 0.84021 0.0
C1253 C 0.90634 0.15676 0.80346 0.0
C1254 C 0.90388 0.14199 0.88414 0.0
C1255 C 0.88994 0.13865 0.89129 0.0
C1256 C 0.88438 0.14476 0.85524 0.0
C1257 C 0.89256 0.15387 0.81219 0.0
C1258 C 0.8596 0.10632 0.95479 0.0
C1259 C 0.86199 0.10873 0.01318 0.0
C1260 C 0.86882 0.11596 0.91565 0.0
C1261 C 0.88083 0.12813 0.93361 0.0
C1262 C 0.88375 0.13026 0.99163 0.0
C1263 C 0.87433 0.12071 0.03117 0.0
H1264 H 0.88077 0.77657 0.77992 0.0
H1265 H 0.85253 0.73339 0.82358 0.0
H1266 H 0.89585 0.77868 0.85849 0.0
H1267 H 0.86781 0.73549 0.90231 0.0
H1268 H 0.89326 0.74682 0.06504 0.0
H1269 H 0.8771 0.74702 0.99502 0.0
H1270 H 0.9116 0.76982 0.88041 0.0
H1271 H 0.9277 0.76973 0.95016 0.0
C1272 C 0.87773 0.76751 0.80639 0.0
C1273 C 0.86545 0.75477 0.79506 0.0
C1274 C 0.88644 0.76873 0.85142 0.0
C1275 C 0.8831 0.75725 0.88666 0.0
C1276 C 0.87063 0.74459 0.87636 0.0
C1277 C 0.86191 0.74335 0.83098 0.0
C1278 C 0.89745 0.75218 0.02545 0.0
C1279 C 0.91181 0.75827 0.01333 0.0
C1280 C 0.88815 0.75213 0.98502 0.0
C1281 C 0.89301 0.75831 0.93183 0.0
C1282 C 0.90747 0.76504 0.92099 0.0
C1283 C 0.91673 0.76498 0.96108 0.0
H1284 H 0.11251 0.23919 0.83959 0.0
H1285 H 0.12705 0.28237 0.79754 0.0
H1286 H 0.12529 0.2373 0.75973 0.0
H1287 H 0.14008 0.28052 0.71763 0.0
H1288 H 0.15433 0.26992 0.55353 0.0
H1289 H 0.13806 0.26953 0.62462 0.0
H1290 H 0.14955 0.24598 0.73585 0.0
H1291 H 0.16559 0.24622 0.665 0.0
C1292 C 0.11842 0.2483 0.81325 0.0
C1293 C 0.11881 0.26098 0.82539 0.0
C1294 C 0.1258 0.24722 0.76743 0.0
C1295 C 0.1338 0.25876 0.73226 0.0
C1296 C 0.13392 0.27136 0.74345 0.0
C1297 C 0.12653 0.27246 0.78953 0.0
C1298 C 0.15312 0.26435 0.59259 0.0
C1299 C 0.16129 0.2581 0.60342 0.0
C1300 C 0.14392 0.26429 0.63367 0.0
C1301 C 0.14258 0.25784 0.68628 0.0
C1302 C 0.15021 0.25096 0.69577 0.0
C1303 C 0.15944 0.25111 0.65502 0.0
H1304 H 0.78248 0.87587 0.83818 0.0
H1305 H 0.73874 0.84874 0.79959 0.0
H1306 H 0.78482 0.89038 0.75732 0.0
H1307 H 0.74102 0.86353 0.71885 0.0
H1308 H 0.75129 0.88786 0.55469 0.0
H1309 H 0.75129 0.87177 0.62548 0.0
H1310 H 0.77766 0.90686 0.73271 0.0
H1311 H 0.77789 0.92285 0.66199 0.0
C1312 C 0.77333 0.87297 0.81242 0.0
C1313 C 0.76037 0.86117 0.82582 0.0
C1314 C 0.77468 0.88136 0.766 0.0
C1315 C 0.76311 0.87823 0.73157 0.0
C1316 C 0.75021 0.86619 0.744 0.0
C1317 C 0.74886 0.85776 0.79057 0.0
C1318 C 0.75741 0.89216 0.5927 0.0
C1319 C 0.76459 0.90668 0.60251 0.0
C1320 C 0.75724 0.88291 0.63368 0.0
C1321 C 0.76433 0.88797 0.68524 0.0
C1322 C 0.77216 0.90253 0.69348 0.0
C1323 C 0.77228 0.91175 0.65277 0.0
H1324 H 0.14622 0.91054 0.83027 0.0
H1325 H 0.17276 0.89329 0.79094 0.0
H1326 H 0.13128 0.89813 0.75043 0.0
H1327 H 0.15762 0.88066 0.71118 0.0
H1328 H 0.13325 0.8671 0.54726 0.0
H1329 H 0.14943 0.88328 0.61764 0.0
H1330 H 0.11459 0.874 0.7272 0.0
H1331 H 0.09846 0.85801 0.65695 0.0
C1332 C 0.14891 0.90413 0.80452 0.0
C1333 C 0.16067 0.90285 0.81737 0.0
C1334 C 0.14029 0.89696 0.75874 0.0
C1335 C 0.14319 0.88834 0.72438 0.0
C1336 C 0.15516 0.88733 0.73634 0.0
C1337 C 0.16378 0.89449 0.78234 0.0
C1338 C 0.12901 0.86879 0.58572 0.0
C1339 C 0.11453 0.8612 0.59638 0.0
C1340 C 0.13831 0.87794 0.62641 0.0
C1341 C 0.13334 0.87983 0.67844 0.0
C1342 C 0.11881 0.87288 0.68755 0.0
C1343 C 0.10953 0.86368 0.64716 0.0
H1344 H 0.77708 0.91928 0.28495 0.0
H1345 H 0.73771 0.8843 0.33868 0.0
H1346 H 0.77848 0.90496 0.20886 0.0
H1347 H 0.73937 0.86991 0.2636 0.0
H1348 H 0.76136 0.84683 0.18518 0.0
H1349 H 0.76035 0.86299 0.25213 0.0
H1350 H 0.76144 0.8892 0.11545 0.0
H1351 H 0.76199 0.87269 0.04712 0.0
C1352 C 0.76868 0.90858 0.28021 0.0
C1353 C 0.7573 0.90289 0.31789 0.0
C1354 C 0.76947 0.90043 0.23657 0.0
C1355 C 0.75907 0.88635 0.23063 0.0
C1356 C 0.74754 0.88075 0.26745 0.0
C1357 C 0.74657 0.88899 0.31022 0.0
C1358 C 0.76158 0.8561 0.16892 0.0
C1359 C 0.76172 0.8584 0.11042 0.0
C1360 C 0.76088 0.86529 0.20751 0.0
C1361 C 0.76063 0.8772 0.18888 0.0
C1362 C 0.76155 0.88001 0.13074 0.0
C1363 C 0.76193 0.87061 0.09176 0.0
H1364 H 0.15543 0.88816 0.04962 0.0
H1365 H 0.16697 0.92284 0.16339 0.0
H1366 H 0.13927 0.87212 0.12043 0.0
H1367 H 0.15102 0.90686 0.23394 0.0
H1368 H 0.11362 0.87647 0.33574 0.0
H1369 H 0.12665 0.89135 0.25693 0.0
H1370 H 0.14114 0.86277 0.21294 0.0
H1371 H 0.12786 0.84765 0.29194 0.0
C1372 C 0.15433 0.89242 0.08918 0.0
C1373 C 0.16253 0.90683 0.10064 0.0
C1374 C 0.14518 0.88318 0.13008 0.0
C1375 C 0.14391 0.88815 0.18317 0.0
C1376 C 0.15162 0.90264 0.19346 0.0
C1377 C 0.16081 0.91183 0.15288 0.0
C1378 C 0.11951 0.87326 0.30922 0.0
C1379 C 0.11974 0.86087 0.32058 0.0
C1380 C 0.12704 0.88186 0.26402 0.0
C1381 C 0.13504 0.87834 0.22864 0.0
C1382 C 0.135 0.86575 0.23899 0.0
C1383 C 0.12746 0.85713 0.28451 0.0
H1384 H 0.15915 0.24296 0.28564 0.0
H1385 H 0.16358 0.2827 0.33395 0.0
H1386 H 0.14341 0.24103 0.20873 0.0
H1387 H 0.14749 0.28049 0.25803 0.0
H1388 H 0.10098 0.25468 0.18196 0.0
H1389 H 0.11831 0.25606 0.24891 0.0
H1390 H 0.14608 0.26084 0.11225 0.0
H1391 H 0.12883 0.25991 0.04408 0.0
C1392 C 0.15685 0.25133 0.27954 0.0
C1393 C 0.16258 0.26298 0.31591 0.0
C1394 C 0.14791 0.25023 0.23544 0.0
C1395 C 0.14428 0.26061 0.22767 0.0
C1396 C 0.1502 0.27238 0.26321 0.0
C1397 C 0.15941 0.27365 0.30648 0.0
C1398 C 0.11063 0.25577 0.1656 0.0
C1399 C 0.11345 0.25718 0.10726 0.0
C1400 C 0.1206 0.25668 0.20424 0.0
C1401 C 0.13353 0.25871 0.18565 0.0
C1402 C 0.13616 0.25933 0.12745 0.0
C1403 C 0.12627 0.25872 0.08855 0.0
H1404 H 0.91398 0.74783 0.33809 0.0
H1405 H 0.87822 0.741 0.23929 0.0
H1406 H 0.90427 0.75359 0.4202 0.0
H1407 H 0.86861 0.74663 0.32062 0.0
H1408 H 0.85988 0.76949 0.45237 0.0
H1409 H 0.87368 0.76718 0.37757 0.0
H1410 H 0.88399 0.74248 0.48736 0.0
H1411 H 0.87026 0.74492 0.56287 0.0
C1412 C 0.90403 0.74748 0.33391 0.0
C1413 C 0.8969 0.74396 0.28195 0.0
C1414 C 0.89848 0.75078 0.38095 0.0
C1415 C 0.88576 0.75078 0.37682 0.0
C1416 C 0.87858 0.74706 0.32507 0.0
C1417 C 0.88405 0.74368 0.27842 0.0
C1418 C 0.86537 0.76385 0.46121 0.0
C1419 C 0.86379 0.75725 0.51357 0.0
C1420 C 0.87318 0.76242 0.41805 0.0
C1421 C 0.87965 0.75434 0.42595 0.0
C1422 C 0.87911 0.74874 0.47979 0.0
C1423 C 0.87127 0.75019 0.52319 0.0
H1424 H 0.24846 0.09431 0.45899 0.0
H1425 H 0.27596 0.129 0.56579 0.0
H1426 H 0.24896 0.11054 0.38876 0.0
H1427 H 0.27625 0.14534 0.49549 0.0
H1428 H 0.28841 0.16849 0.32132 0.0
H1429 H 0.28621 0.15352 0.40137 0.0
H1430 H 0.24213 0.12741 0.3661 0.0
H1431 H 0.24438 0.14208 0.28602 0.0
C1432 C 0.25435 0.10541 0.46819 0.0
C1433 C 0.26218 0.1103 0.51823 0.0
C1434 C 0.25463 0.11476 0.42776 0.0
C1435 C 0.26275 0.12931 0.43604 0.0
C1436 C 0.27005 0.13422 0.48727 0.0
C1437 C 0.26972 0.12483 0.52798 0.0
C1438 C 0.27825 0.1596 0.33092 0.0
C1439 C 0.26662 0.15644 0.29677 0.0
C1440 C 0.27695 0.15106 0.37708 0.0
C1441 C 0.26399 0.13916 0.39015 0.0
C1442 C 0.25232 0.1363 0.35687 0.0
C1443 C 0.25362 0.14479 0.31091 0.0
H1444 H 0.85994 0.13149 0.29069 0.0
H1445 H 0.87037 0.09934 0.32393 0.0
H1446 H 0.87569 0.14573 0.36698 0.0
H1447 H 0.88576 0.11344 0.40122 0.0
H1448 H 0.89741 0.1444 0.57417 0.0
H1449 H 0.88069 0.12788 0.50494 0.0
H1450 H 0.90659 0.15395 0.36949 0.0
H1451 H 0.92345 0.17016 0.43745 0.0
C1452 C 0.86537 0.12736 0.31493 0.0
C1453 C 0.86397 0.11433 0.30115 0.0
C1454 C 0.87438 0.1355 0.35842 0.0
C1455 C 0.88186 0.13061 0.38986 0.0
C1456 C 0.88004 0.11737 0.37771 0.0
C1457 C 0.87129 0.10937 0.33339 0.0
C1458 C 0.89969 0.14646 0.52965 0.0
C1459 C 0.91183 0.15863 0.51161 0.0
C1460 C 0.89009 0.13705 0.49017 0.0
C1461 C 0.89233 0.1398 0.43213 0.0
C1462 C 0.9046 0.15168 0.41407 0.0
C1463 C 0.9143 0.16089 0.45321 0.0
H1464 H 0.90995 0.43879 0.11944 0.0
H1465 H 0.95398 0.45643 0.15496 0.0
H1466 H 0.90776 0.45147 0.19897 0.0
H1467 H 0.95181 0.46938 0.23442 0.0
H1468 H 0.9416 0.48362 0.39875 0.0
H1469 H 0.94168 0.46743 0.32858 0.0
H1470 H 0.91488 0.47543 0.2212 0.0
H1471 H 0.9146 0.49135 0.29135 0.0
C1472 C 0.91919 0.44536 0.14428 0.0
C1473 C 0.93218 0.44664 0.13041 0.0
C1474 C 0.91792 0.45269 0.18989 0.0
C1475 C 0.92961 0.46153 0.22309 0.0
C1476 C 0.94255 0.46255 0.21019 0.0
C1477 C 0.94383 0.4552 0.16436 0.0
C1478 C 0.93543 0.48166 0.3608 0.0
C1479 C 0.92811 0.48884 0.3508 0.0
C1480 C 0.93564 0.4725 0.3202 0.0
C1481 C 0.92842 0.47022 0.26884 0.0
C1482 C 0.92049 0.47683 0.2603 0.0
C1483 C 0.92035 0.48601 0.30064 0.0
H1484 H 0.52285 0.43022 0.2707 0.0
H1485 H 0.5433 0.45937 0.40758 0.0
H1486 H 0.53877 0.44761 0.20377 0.0
H1487 H 0.5596 0.47667 0.33956 0.0
H1488 H 0.59162 0.48929 0.16693 0.0
H1489 H 0.57788 0.47369 0.24427 0.0
H1490 H 0.54217 0.47696 0.19305 0.0
H1491 H 0.55598 0.49291 0.11658 0.0
C1492 C 0.53093 0.4402 0.28691 0.0
C1493 C 0.53172 0.44335 0.34488 0.0
C1494 C 0.53997 0.45018 0.24828 0.0
C1495 C 0.55024 0.46347 0.26659 0.0
C1496 C 0.55167 0.46647 0.32458 0.0
C1497 C 0.54241 0.45654 0.36342 0.0
C1498 C 0.5809 0.48686 0.1727 0.0
C1499 C 0.57486 0.4923 0.1356 0.0
C1500 C 0.57309 0.47799 0.21703 0.0
C1501 C 0.55903 0.47418 0.2244 0.0
C1502 C 0.55305 0.47983 0.1882 0.0
C1503 C 0.56094 0.48895 0.14462 0.0
H1504 H 0.5198 0.06656 0.15716 0.0
H1505 H 0.54588 0.11059 0.12116 0.0
H1506 H 0.53493 0.06897 0.23685 0.0
H1507 H 0.5608 0.11301 0.20082 0.0
H1508 H 0.59395 0.10603 0.29265 0.0
H1509 H 0.57773 0.10578 0.2227 0.0
H1510 H 0.54297 0.07952 0.33129 0.0
H1511 H 0.55925 0.07964 0.40143 0.0
C1512 C 0.52867 0.07676 0.16647 0.0
C1513 C 0.53166 0.08834 0.13238 0.0
C1514 C 0.53729 0.07818 0.21243 0.0
C1515 C 0.54913 0.09119 0.22523 0.0
C1516 C 0.55189 0.1028 0.19184 0.0
C1517 C 0.54328 0.10141 0.14616 0.0
C1518 C 0.58288 0.10045 0.30231 0.0
C1519 C 0.57794 0.09284 0.35278 0.0
C1520 C 0.57355 0.10031 0.26208 0.0
C1521 C 0.55901 0.0925 0.27101 0.0
C1522 C 0.55409 0.08547 0.32269 0.0
C1523 C 0.56345 0.08569 0.36324 0.0
H1524 H 0.77946 0.57389 0.16961 0.0
H1525 H 0.79402 0.617 0.12608 0.0
H1526 H 0.79226 0.57184 0.09031 0.0
H1527 H 0.80712 0.615 0.04673 0.0
H1528 H 0.8216 0.60405 0.88386 0.0
H1529 H 0.80537 0.60397 0.95437 0.0
H1530 H 0.81642 0.58031 0.06699 0.0
H1531 H 0.83238 0.58021 0.99668 0.0
C1532 C 0.78538 0.58296 0.14306 0.0
C1533 C 0.78578 0.59566 0.15464 0.0
C1534 C 0.79279 0.58178 0.09757 0.0
C1535 C 0.80083 0.59326 0.06219 0.0
C1536 C 0.80094 0.60589 0.07273 0.0
C1537 C 0.7935 0.60707 0.11847 0.0
C1538 C 0.82031 0.59854 0.92313 0.0
C1539 C 0.82832 0.59213 0.93444 0.0
C1540 C 0.81114 0.59865 0.96388 0.0
C1541 C 0.80966 0.59225 0.01667 0.0
C1542 C 0.81716 0.58526 0.02674 0.0
C1543 C 0.82637 0.58521 0.98629 0.0
H1544 H 0.40525 0.19141 0.16705 0.0
H1545 H 0.443 0.19353 0.10433 0.0
H1546 H 0.40692 0.20769 0.09331 0.0
H1547 H 0.44442 0.20954 0.02963 0.0
H1548 H 0.42797 0.22621 0.87275 0.0
H1549 H 0.42765 0.20923 0.94061 0.0
H1550 H 0.42757 0.23477 0.07807 0.0
H1551 H 0.4283 0.25183 0.01146 0.0
C1552 C 0.41376 0.19516 0.13699 0.0
C1553 C 0.42403 0.19124 0.14168 0.0
C1554 C 0.41475 0.20451 0.09499 0.0
C1555 C 0.42583 0.20989 0.05599 0.0
C1556 C 0.43576 0.20552 0.05908 0.0
C1557 C 0.43496 0.19641 0.10192 0.0
C1558 C 0.42819 0.22835 0.91743 0.0
C1559 C 0.42814 0.24041 0.93642 0.0
C1560 C 0.42795 0.2186 0.95618 0.0
C1561 C 0.42736 0.22062 0.01445 0.0
C1562 C 0.42783 0.23288 0.03336 0.0
C1563 C 0.42836 0.24271 0.99496 0.0
H1564 H 0.76561 0.19049 0.99631 0.0
H1565 H 0.8003 0.20014 0.88519 0.0
H1566 H 0.78175 0.20654 0.06637 0.0
H1567 H 0.81651 0.21639 0.95549 0.0
H1568 H 0.84022 0.22717 0.12876 0.0
H1569 H 0.8251 0.21417 0.04933 0.0
H1570 H 0.7981 0.2309 0.08821 0.0
H1571 H 0.81301 0.24368 0.16752 0.0
C1572 C 0.77666 0.19628 0.98623 0.0
C1573 C 0.78163 0.19398 0.93499 0.0
C1574 C 0.78594 0.20552 0.02651 0.0
C1575 C 0.80047 0.21268 0.01688 0.0
C1576 C 0.8054 0.21089 0.9646 0.0
C1577 C 0.79609 0.2017 0.92398 0.0
C1578 C 0.8311 0.22813 0.12011 0.0
C1579 C 0.8278 0.23639 0.1549 0.0
C1580 C 0.82248 0.22076 0.07433 0.0
C1581 C 0.81033 0.22143 0.06244 0.0
C1582 C 0.80725 0.22997 0.09651 0.0
C1583 C 0.81586 0.23735 0.14198 0.0
H1584 H 0.41717 0.19955 0.38252 0.0
H1585 H 0.44459 0.19219 0.48891 0.0
H1586 H 0.41695 0.2156 0.45312 0.0
H1587 H 0.44413 0.20789 0.55949 0.0
H1588 H 0.44858 0.24374 0.664 0.0
H1589 H 0.45092 0.23145 0.58349 0.0
H1590 H 0.40695 0.21381 0.54672 0.0
H1591 H 0.40467 0.22646 0.62709 0.0
C1592 C 0.42341 0.20157 0.42031 0.0
C1593 C 0.4309 0.19453 0.42987 0.0
C1594 C 0.42311 0.21063 0.4612 0.0
C1595 C 0.43039 0.21296 0.51245 0.0
C1596 C 0.43848 0.20649 0.5205 0.0
C1597 C 0.43873 0.19743 0.47986 0.0
C1598 C 0.43939 0.23731 0.63869 0.0
C1599 C 0.42639 0.23601 0.65247 0.0
C1600 C 0.44074 0.23019 0.59248 0.0
C1601 C 0.42912 0.22151 0.55863 0.0
C1602 C 0.41617 0.22051 0.57142 0.0
C1603 C 0.41482 0.22768 0.61777 0.0
H1604 H 0.77813 0.20864 0.66803 0.0
H1605 H 0.79439 0.18125 0.62884 0.0
H1606 H 0.79091 0.22352 0.58875 0.0
H1607 H 0.8074 0.19633 0.54942 0.0
H1608 H 0.82143 0.22116 0.38534 0.0
H1609 H 0.80518 0.20499 0.45563 0.0
H1610 H 0.81529 0.23976 0.56693 0.0
H1611 H 0.83135 0.25586 0.49689 0.0
C1612 C 0.7844 0.20574 0.6424 0.0
C1613 C 0.78529 0.19376 0.6552 0.0
C1614 C 0.79179 0.21433 0.59694 0.0
C1615 C 0.80026 0.21119 0.56276 0.0
C1616 C 0.80087 0.199 0.57452 0.0
C1617 C 0.79349 0.1904 0.62029 0.0
C1618 C 0.81992 0.22539 0.42422 0.0
C1619 C 0.82772 0.23984 0.43535 0.0
C1620 C 0.81074 0.21609 0.46484 0.0
C1621 C 0.80902 0.22104 0.51723 0.0
C1622 C 0.81626 0.23556 0.52698 0.0
C1623 C 0.8255 0.24482 0.48671 0.0
H1624 H 0.83988 0.61697 0.6249 0.0
H1625 H 0.81199 0.57355 0.66616 0.0
H1626 H 0.82467 0.61494 0.54609 0.0
H1627 H 0.79694 0.57152 0.58749 0.0
H1628 H 0.76503 0.58051 0.49581 0.0
H1629 H 0.78104 0.58031 0.56583 0.0
H1630 H 0.81574 0.60357 0.45264 0.0
H1631 H 0.79968 0.60385 0.38232 0.0
C1632 C 0.83058 0.60698 0.61697 0.0
C1633 C 0.82713 0.59546 0.65218 0.0
C1634 C 0.82191 0.60578 0.57154 0.0
C1635 C 0.80955 0.59307 0.56049 0.0
C1636 C 0.80628 0.58151 0.59511 0.0
C1637 C 0.81496 0.58267 0.64019 0.0
C1638 C 0.77603 0.58534 0.48526 0.0
C1639 C 0.78104 0.59221 0.43334 0.0
C1640 C 0.78523 0.58522 0.52549 0.0
C1641 C 0.79971 0.59205 0.51513 0.0
C1642 C 0.80467 0.59838 0.46225 0.0
C1643 C 0.79543 0.59839 0.42167 0.0
H1644 H 0.52908 0.10514 0.79109 0.0
H1645 H 0.5374 0.07872 0.89949 0.0
H1646 H 0.54488 0.10477 0.72069 0.0
H1647 H 0.55347 0.07853 0.82893 0.0
H1648 H 0.56453 0.06616 0.65502 0.0
H1649 H 0.55161 0.06825 0.73489 0.0
H1650 H 0.56883 0.11215 0.69825 0.0
H1651 H 0.58145 0.11003 0.61845 0.0
C1652 C 0.53453 0.09951 0.80057 0.0
C1653 C 0.53191 0.09195 0.85115 0.0
C1654 C 0.54364 0.09931 0.76005 0.0
C1655 C 0.5504 0.09152 0.76876 0.0
C1656 C 0.54829 0.08447 0.82042 0.0
C1657 C 0.53921 0.08474 0.86125 0.0
C1658 C 0.56561 0.07626 0.66428 0.0
C1659 C 0.57394 0.08788 0.62988 0.0
C1660 C 0.55827 0.07749 0.71031 0.0
C1661 C 0.55909 0.09037 0.72295 0.0
C1662 C 0.56774 0.10203 0.68936 0.0
C1663 C 0.57504 0.1008 0.64357 0.0
H1664 H 0.93039 0.43114 0.77029 0.0
H1665 H 0.93098 0.457 0.90856 0.0
H1666 H 0.93125 0.44822 0.70339 0.0
H1667 H 0.9314 0.47398 0.84037 0.0
H1668 H 0.91567 0.48905 0.67475 0.0
H1669 H 0.91431 0.47322 0.75014 0.0
H1670 H 0.95222 0.47559 0.68874 0.0
H1671 H 0.95383 0.49171 0.6143 0.0
C1672 C 0.93041 0.44032 0.78664 0.0
C1673 C 0.93067 0.44268 0.84516 0.0
C1674 C 0.93102 0.45015 0.74807 0.0
C1675 C 0.93159 0.46247 0.76676 0.0
C1676 C 0.93104 0.46456 0.82499 0.0
C1677 C 0.93074 0.45482 0.86392 0.0
C1678 C 0.92381 0.48633 0.67781 0.0
C1679 C 0.93485 0.49159 0.63849 0.0
C1680 C 0.92305 0.47733 0.72106 0.0
C1681 C 0.93312 0.47316 0.72498 0.0
C1682 C 0.9443 0.47863 0.68644 0.0
C1683 C 0.94525 0.48789 0.64404 0.0
H1684 H 0.51981 0.45725 0.65053 0.0
H1685 H 0.54543 0.43856 0.61863 0.0
H1686 H 0.53473 0.46997 0.73083 0.0
H1687 H 0.5601 0.45102 0.69887 0.0
H1688 H 0.59347 0.49074 0.7914 0.0
H1689 H 0.57729 0.47493 0.72093 0.0
H1690 H 0.54238 0.46777 0.82612 0.0
H1691 H 0.55865 0.48382 0.89675 0.0
C1692 C 0.52852 0.45575 0.66088 0.0
C1693 C 0.53146 0.44696 0.6277 0.0
C1694 C 0.53703 0.46296 0.70719 0.0
C1695 C 0.54869 0.46159 0.72131 0.0
C1696 C 0.55136 0.45252 0.68887 0.0
C1697 C 0.54288 0.44531 0.64282 0.0
C1698 C 0.58236 0.48557 0.80024 0.0
C1699 C 0.5774 0.4886 0.84992 0.0
C1700 C 0.57304 0.47647 0.75968 0.0
C1701 C 0.55849 0.47015 0.76745 0.0
C1702 C 0.55352 0.47262 0.81835 0.0
C1703 C 0.56286 0.48168 0.85924 0.0
H1704 H 0.58132 0.82476 0.6267 0.0
H1705 H 0.60826 0.81695 0.73409 0.0
H1706 H 0.58188 0.80915 0.55589 0.0
H1707 H 0.60861 0.80103 0.66321 0.0
H1708 H 0.62141 0.79066 0.48938 0.0
H1709 H 0.61894 0.80323 0.56962 0.0
H1710 H 0.57501 0.78547 0.53184 0.0
H1711 H 0.57752 0.77322 0.45149 0.0
C1712 C 0.5871 0.81945 0.63588 0.0
C1713 C 0.59477 0.82219 0.68622 0.0
C1714 C 0.5874 0.81044 0.59513 0.0
C1715 C 0.59541 0.8039 0.60343 0.0
C1716 C 0.60252 0.80606 0.65499 0.0
C1717 C 0.60216 0.81505 0.69601 0.0
C1718 C 0.61122 0.7894 0.49841 0.0
C1719 C 0.5997 0.78103 0.46356 0.0
C1720 C 0.60977 0.79652 0.5447 0.0
C1721 C 0.59677 0.79543 0.5572 0.0
C1722 C 0.58522 0.78676 0.52309 0.0
C1723 C 0.58666 0.77968 0.47698 0.0
H1724 H 0.19748 0.76097 0.62649 0.0
H1725 H 0.20475 0.79548 0.73467 0.0
H1726 H 0.21342 0.77738 0.55686 0.0
H1727 H 0.22087 0.81192 0.66499 0.0
H1728 H 0.23107 0.83511 0.49145 0.0
H1729 H 0.2183 0.81975 0.57042 0.0
H1730 H 0.23757 0.79479 0.53577 0.0
H1731 H 0.25015 0.80996 0.45679 0.0
C1732 C 0.20273 0.77205 0.63608 0.0
C1733 C 0.19975 0.77686 0.68626 0.0
C1734 C 0.2119 0.78148 0.59606 0.0
C1735 C 0.21832 0.79601 0.60495 0.0
C1736 C 0.21593 0.80082 0.65639 0.0
C1737 C 0.20681 0.79136 0.69669 0.0
C1738 C 0.23264 0.8264 0.50092 0.0
C1739 C 0.24158 0.82374 0.46743 0.0
C1740 C 0.22539 0.81764 0.54645 0.0
C1741 C 0.22687 0.80599 0.55944 0.0
C1742 C 0.23604 0.80355 0.52662 0.0
C1743 C 0.24331 0.81231 0.48136 0.0
H1744 H 0.22527 0.41213 0.73243 0.0
H1745 H 0.26029 0.43771 0.62374 0.0
H1746 H 0.20928 0.41241 0.66176 0.0
H1747 H 0.24439 0.43777 0.55313 0.0
H1748 H 0.21372 0.444 0.45054 0.0
H1749 H 0.22835 0.44578 0.53022 0.0
H1750 H 0.20065 0.40213 0.56806 0.0
H1751 H 0.18576 0.40039 0.4884 0.0
C1752 C 0.2296 0.41806 0.69405 0.0
C1753 C 0.24411 0.42488 0.68386 0.0
C1754 C 0.2204 0.41805 0.65318 0.0
C1755 C 0.22549 0.42499 0.60138 0.0
C1756 C 0.24005 0.43239 0.59257 0.0
C1757 C 0.24921 0.43233 0.63315 0.0
C1758 C 0.21065 0.43476 0.47591 0.0
C1759 C 0.19858 0.42201 0.46264 0.0
C1760 C 0.21911 0.43579 0.52163 0.0
C1761 C 0.21577 0.42409 0.55555 0.0
C1762 C 0.20348 0.4114 0.54326 0.0
C1763 C 0.19499 0.41037 0.49732 0.0
H1764 H 0.49463 0.90979 0.32121 0.0
H1765 H 0.48796 0.93765 0.21481 0.0
H1766 H 0.47857 0.9101 0.39065 0.0
H1767 H 0.47172 0.93785 0.28442 0.0
H1768 H 0.46118 0.95013 0.45946 0.0
H1769 H 0.47408 0.94782 0.38014 0.0
H1770 H 0.45436 0.9034 0.41053 0.0
H1771 H 0.44165 0.90569 0.4898 0.0
C1772 C 0.48948 0.91572 0.31194 0.0
C1773 C 0.49264 0.9237 0.2623 0.0
C1774 C 0.48024 0.9159 0.35187 0.0
C1775 C 0.47394 0.92413 0.34348 0.0
C1776 C 0.47655 0.93157 0.2926 0.0
C1777 C 0.48573 0.9313 0.25234 0.0
C1778 C 0.45954 0.93986 0.44896 0.0
C1779 C 0.45044 0.92813 0.48136 0.0
C1780 C 0.46686 0.93852 0.40323 0.0
C1781 C 0.4653 0.92542 0.38899 0.0
C1782 C 0.45595 0.91366 0.42067 0.0
C1783 C 0.44862 0.91499 0.4661 0.0
H1784 H 0.07028 0.52535 0.50472 0.0
H1785 H 0.1104 0.53138 0.45245 0.0
H1786 H 0.07189 0.54192 0.43234 0.0
H1787 H 0.11181 0.54768 0.37916 0.0
H1788 H 0.09686 0.56363 0.21789 0.0
H1789 H 0.09681 0.54698 0.28658 0.0
H1790 H 0.09024 0.56936 0.42117 0.0
H1791 H 0.09064 0.58614 0.35363 0.0
C1792 C 0.07933 0.53005 0.47728 0.0
C1793 C 0.09024 0.52712 0.48445 0.0
C1794 C 0.08029 0.53958 0.43611 0.0
C1795 C 0.09202 0.54612 0.40041 0.0
C1796 C 0.10266 0.54277 0.40607 0.0
C1797 C 0.10186 0.53349 0.4481 0.0
C1798 C 0.0957 0.56517 0.26224 0.0
C1799 C 0.09376 0.57625 0.28005 0.0
C1800 C 0.09562 0.55561 0.30146 0.0
C1801 C 0.09331 0.55679 0.359 0.0
C1802 C 0.09186 0.56811 0.37697 0.0
C1803 C 0.09222 0.57779 0.33815 0.0
H1804 H 0.49348 0.5869 0.446 0.0
H1805 H 0.49559 0.55078 0.50169 0.0
H1806 H 0.47776 0.57304 0.36906 0.0
H1807 H 0.47951 0.53687 0.42568 0.0
H1808 H 0.43362 0.51756 0.34493 0.0
H1809 H 0.45099 0.53343 0.41215 0.0
H1810 H 0.47987 0.55478 0.2765 0.0
H1811 H 0.4626 0.53853 0.20819 0.0
C1812 C 0.49067 0.57604 0.44153 0.0
C1813 C 0.49574 0.5699 0.47994 0.0
C1814 C 0.48174 0.56816 0.39743 0.0
C1815 C 0.47747 0.55394 0.3917 0.0
C1816 C 0.48272 0.54785 0.42931 0.0
C1817 C 0.49192 0.55581 0.47261 0.0
C1818 C 0.44355 0.52575 0.32884 0.0
C1819 C 0.44668 0.52671 0.27081 0.0
C1820 C 0.45353 0.53476 0.36762 0.0
C1821 C 0.46676 0.54516 0.34942 0.0
C1822 C 0.46971 0.54676 0.2914 0.0
C1823 C 0.4598 0.53751 0.2524 0.0
H1824 H 0.10864 0.52265 0.82894 0.0
H1825 H 0.08237 0.53208 0.72452 0.0
H1826 H 0.1071 0.53671 0.90469 0.0
H1827 H 0.0806 0.54594 0.80097 0.0
H1828 H 0.08618 0.57603 0.94751 0.0
H1829 H 0.0915 0.56616 0.86487 0.0
H1830 H 0.08813 0.53232 0.96748 0.0
H1831 H 0.08304 0.54217 0.04947 0.0
C1832 C 0.10276 0.52796 0.82165 0.0
C1833 C 0.09551 0.52608 0.77072 0.0
C1834 C 0.10176 0.53591 0.86539 0.0
C1835 C 0.09342 0.54217 0.85957 0.0
C1836 C 0.0871 0.54126 0.80703 0.0
C1837 C 0.08815 0.53332 0.76304 0.0
C1838 C 0.08656 0.56647 0.9523 0.0
C1839 C 0.08418 0.5599 1.00525 0.0
C1840 C 0.0896 0.56081 0.90491 0.0
C1841 C 0.09042 0.54852 0.90951 0.0
C1842 C 0.08792 0.54196 0.96244 0.0
C1843 C 0.08485 0.54756 0.00953 0.0
H1844 H 0.44306 0.54153 0.99734 0.0
H1845 H 0.46138 0.51566 0.96353 0.0
H1846 H 0.45587 0.55653 0.91829 0.0
H1847 H 0.47438 0.53085 0.88439 0.0
H1848 H 0.48804 0.55496 0.719 0.0
H1849 H 0.47196 0.53873 0.78943 0.0
H1850 H 0.48012 0.57357 0.89704 0.0
H1851 H 0.49602 0.58976 0.82677 0.0
C1852 C 0.44979 0.539 0.97296 0.0
C1853 C 0.45123 0.5274 0.98714 0.0
C1854 C 0.45719 0.54766 0.92765 0.0
C1855 C 0.46621 0.54496 0.89498 0.0
C1856 C 0.46741 0.53316 0.90825 0.0
C1857 C 0.46003 0.5245 0.95389 0.0
C1858 C 0.48614 0.55919 0.75706 0.0
C1859 C 0.49336 0.57371 0.76708 0.0
C1860 C 0.47705 0.54985 0.79779 0.0
C1861 C 0.47485 0.55481 0.84924 0.0
C1862 C 0.48148 0.56936 0.85784 0.0
C1863 C 0.49063 0.57867 0.81742 0.0
H1864 H 0.48064 0.90572 0.99014 0.0
H1865 H 0.50535 0.9502 0.96035 0.0
H1866 H 0.4658 0.90335 0.91026 0.0
H1867 H 0.49029 0.94782 0.88048 0.0
H1868 H 0.46642 0.93779 0.715 0.0
H1869 H 0.48285 0.93808 0.78481 0.0
H1870 H 0.4482 0.90967 0.8895 0.0
H1871 H 0.43184 0.90923 0.8198 0.0
C1872 C 0.48295 0.91502 0.96647 0.0
C1873 C 0.49416 0.92818 0.98206 0.0
C1874 C 0.47438 0.91364 0.92066 0.0
C1875 C 0.47677 0.92539 0.88896 0.0
C1876 C 0.48822 0.93852 0.90355 0.0
C1877 C 0.49681 0.93991 0.9496 0.0
C1878 C 0.4623 0.93131 0.7522 0.0
C1879 C 0.44777 0.92349 0.76168 0.0
C1880 C 0.47174 0.93163 0.7926 0.0
C1881 C 0.46688 0.92404 0.84316 0.0
C1882 C 0.45235 0.91559 0.85099 0.0
C1883 C 0.44294 0.91534 0.8109 0.0
H1884 H 0.18799 0.42945 0.10688 0.0
H1885 H 0.2099 0.42304 0.24437 0.0
H1886 H 0.20404 0.42821 0.03993 0.0
H1887 H 0.22633 0.42228 0.17626 0.0
H1888 H 0.25791 0.44001 1.00578 0.0
H1889 H 0.24408 0.44206 0.0824 0.0
H1890 H 0.20804 0.40364 0.02822 0.0
H1891 H 0.22192 0.40131 0.95261 0.0
C1892 C 0.19642 0.42812 0.12317 0.0
C1893 C 0.19758 0.42629 0.18135 0.0
C1894 C 0.20554 0.42731 0.08455 0.0
C1895 C 0.21625 0.42498 0.10303 0.0
C1896 C 0.21806 0.42402 0.16116 0.0
C1897 C 0.20872 0.42454 0.20003 0.0
C1898 C 0.24708 0.4319 0.01072 0.0
C1899 C 0.24097 0.42051 0.97311 0.0
C1900 C 0.23923 0.43307 0.05463 0.0
C1901 C 0.22505 0.42302 0.06094 0.0
C1902 C 0.21899 0.4115 0.02412 0.0
C1903 C 0.22693 0.41015 0.98104 0.0
H1904 H 0.58509 0.75994 0.11977 0.0
H1905 H 0.60755 0.79451 0.2347 0.0
H1906 H 0.58472 0.77589 0.04991 0.0
H1907 H 0.60709 0.81049 0.16459 0.0
H1908 H 0.62045 0.83512 0.99385 0.0
H1909 H 0.61861 0.8198 0.07188 0.0
H1910 H 0.57547 0.79143 0.02827 0.0
H1911 H 0.5773 0.8066 0.95038 0.0
C1912 C 0.5897 0.7709 0.13066 0.0
C1913 C 0.59637 0.77591 0.18297 0.0
C1914 C 0.58948 0.78006 0.09051 0.0
C1915 C 0.596 0.79451 0.10137 0.0
C1916 C 0.60214 0.79945 0.15457 0.0
C1917 C 0.60225 0.79025 0.19503 0.0
C1918 C 0.61056 0.82566 1.00113 0.0
C1919 C 0.59906 0.82207 0.96556 0.0
C1920 C 0.60947 0.81692 0.0461 0.0
C1921 C 0.59689 0.80435 0.0563 0.0
C1922 C 0.58535 0.80093 0.02129 0.0
C1923 C 0.5864 0.80969 0.97669 0.0
H1924 H 0.18657 0.79078 0.98914 0.0
H1925 H 0.21288 0.77289 0.95646 0.0
H1926 H 0.20156 0.80386 0.06868 0.0
H1927 H 0.22767 0.78578 0.03594 0.0
H1928 H 0.26057 0.82638 0.12613 0.0
H1929 H 0.24447 0.81017 0.05636 0.0
H1930 H 0.20955 0.8017 0.164 0.0
H1931 H 0.22571 0.81811 0.23395 0.0
C1932 C 0.19546 0.78953 0.99915 0.0
C1933 C 0.19856 0.78086 0.96603 0.0
C1934 C 0.20401 0.79696 0.04501 0.0
C1935 C 0.21587 0.79592 0.05866 0.0
C1936 C 0.21874 0.78698 0.02626 0.0
C1937 C 0.2102 0.77954 0.9807 0.0
C1938 C 0.24948 0.82087 0.13557 0.0
C1939 C 0.24447 0.8236 0.18574 0.0
C1940 C 0.24023 0.81153 0.09548 0.0
C1941 C 0.22568 0.80471 0.10424 0.0
C1942 C 0.22067 0.80692 0.15556 0.0
C1943 C 0.22997 0.8162 0.196 0.0
H1944 H 0.23786 0.26135 0.40027 0.0
H1945 H 0.197 0.22848 0.35078 0.0
H1946 H 0.24863 0.24986 0.34976 0.0
H1947 H 0.20751 0.2164 0.30267 0.0
H1948 H 0.23061 0.20306 0.18074 0.0
H1949 H 0.21979 0.21479 0.22813 0.0
H1950 H 0.25351 0.23194 0.34969 0.0
H1951 H 0.26484 0.22106 0.29885 0.0
C1952 C 0.2312 0.25164 0.37819 0.0
C1953 C 0.21661 0.24586 0.37903 0.0
C1954 C 0.23734 0.24489 0.34983 0.0
C1955 C 0.22905 0.23198 0.32213 0.0
C1956 C 0.21439 0.22636 0.32244 0.0
C1957 C 0.20828 0.23327 0.35015 0.0
C1958 C 0.2357 0.20933 0.2177 0.0
C1959 C 0.24856 0.211 0.23611 0.0
C1960 C 0.22941 0.21602 0.24542 0.0
C1961 C 0.23566 0.22447 0.29325 0.0
C1962 C 0.24838 0.2258 0.31258 0.0
C1963 C 0.25479 0.21927 0.28413 0.0
H1964 H 0.79988 0.04752 0.3061 0.0
H1965 H 0.81688 0.03114 0.18395 0.0
H1966 H 0.78922 0.02531 0.3566 0.0
H1967 H 0.80532 0.00857 0.23103 0.0
H1968 H 0.79208 0.97192 0.35183 0.0
H1969 H 0.80405 0.99457 0.30431 0.0
H1970 H 0.77118 1.00258 0.35735 0.0
H1971 H 0.75985 0.98027 0.40733 0.0
C1972 C 0.80154 0.03924 0.29051 0.0
C1973 C 0.80948 0.04124 0.24153 0.0
C1974 C 0.79511 0.02629 0.31873 0.0
C1975 C 0.79619 0.01484 0.29817 0.0
C1976 C 0.80431 0.01701 0.24933 0.0
C1977 C 0.8109 0.02999 0.22182 0.0
C1978 C 0.7874 0.97851 0.35261 0.0
C1979 C 0.77501 0.97432 0.38294 0.0
C1980 C 0.79423 0.99155 0.32525 0.0
C1981 C 0.78875 1.00071 0.32676 0.0
C1982 C 0.77605 0.99617 0.35597 0.0
C1983 C 0.76937 0.98324 0.38401 0.0
H1984 H 0.98475 0.75533 0.21927 0.0
H1985 H 0.9783 0.78979 0.25787 0.0
H1986 H 1.00708 0.76688 0.2692 0.0
H1987 H 1.00096 0.80185 0.30565 0.0
H1988 H 0.037 0.81504 0.43028 0.0
H1989 H 0.01447 0.80354 0.38259 0.0
H1990 H 0.03021 0.78454 0.26598 0.0
H1991 H 0.05242 0.79531 0.3169 0.0
C1992 C 0.98814 0.76539 0.23887 0.0
C1993 C 0.97975 0.77161 0.23515 0.0
C1994 C 1.00108 0.77217 0.26687 0.0
C1995 C 1.00614 0.78549 0.29141 0.0
C1996 C 0.99751 0.79156 0.28828 0.0
C1997 C 0.98448 0.78467 0.2608 0.0
C1998 C 0.03564 0.80843 0.39429 0.0
C1999 C 0.04658 0.80618 0.37731 0.0
C2000 C 0.02269 0.80187 0.36644 0.0
C2001 C 0.02026 0.79294 0.32004 0.0
C2002 C 0.03142 0.79106 0.30203 0.0
C2003 C 0.04434 0.7975 0.33051 0.0
H2004 H 0.82979 0.78867 0.77116 0.0
H2005 H 0.78892 0.75641 0.71844 0.0
H2006 H 0.81931 0.80077 0.81978 0.0
H2007 H 0.77822 0.76796 0.7689 0.0
H2008 H 0.76263 0.79735 0.81848 0.0
H2009 H 0.77405 0.78654 0.7678 0.0
H2010 H 0.80646 0.80174 0.89487 0.0
H2011 H 0.7955 0.81332 0.9427 0.0
C2012 C 0.81851 0.78403 0.77109 0.0
C2013 C 0.81017 0.77161 0.74112 0.0
C2014 C 0.81244 0.79094 0.79901 0.0
C2015 C 0.79781 0.78552 0.79826 0.0
C2016 C 0.7895 0.77278 0.76959 0.0
C2017 C 0.7956 0.76599 0.74122 0.0
C2018 C 0.77241 0.79872 0.83455 0.0
C2019 C 0.77823 0.80638 0.88427 0.0
C2020 C 0.77887 0.79225 0.80614 0.0
C2021 C 0.79124 0.79304 0.82708 0.0
C2022 C 0.79712 0.80094 0.87649 0.0
C2023 C 0.79076 0.80753 0.90436 0.0
H2024 H 0.23305 0.97233 0.84526 0.0
H2025 H 0.19982 0.97967 0.89569 0.0
H2026 H 0.24513 0.99522 0.79978 0.0
H2027 H 0.21138 1.00233 0.84788 0.0
H2028 H 0.24072 0.04793 0.80083 0.0
H2029 H 0.22953 0.02539 0.84974 0.0
H2030 H 0.24655 0.00917 0.72605 0.0
H2031 H 0.25845 0.03185 0.6806 0.0
C2032 C 0.22815 0.97874 0.84515 0.0
C2033 C 0.21539 0.97413 0.87314 0.0
C2034 C 0.23507 0.99194 0.81904 0.0
C2035 C 0.22936 1.0009 0.81969 0.0
C2036 C 0.21637 0.99602 0.84698 0.0
C2037 C 0.20956 0.9829 0.87367 0.0
C2038 C 0.24226 0.0396 0.78487 0.0
C2039 C 0.25037 0.04172 0.73624 0.0
C2040 C 0.23564 0.02653 0.81238 0.0
C2041 C 0.23687 0.01514 0.79192 0.0
C2042 C 0.24533 0.01751 0.74403 0.0
C2043 C 0.25205 0.03057 0.71718 0.0
H2044 H 0.98324 0.23194 0.73135 0.0
H2045 H 0.97645 0.19094 0.7701 0.0
H2046 H 1.00583 0.24262 0.77918 0.0
H2047 H 0.99939 0.2014 0.81534 0.0
H2048 H 0.03673 0.22411 0.93428 0.0
H2049 H 0.01389 0.21308 0.88911 0.0
H2050 H 0.02875 0.24806 0.77428 0.0
H2051 H 0.05125 0.2595 0.82307 0.0
C2052 C 0.98658 0.22522 0.75081 0.0
C2053 C 0.978 0.21063 0.7479 0.0
C2054 C 0.99969 0.23132 0.77744 0.0
C2055 C 1.00479 0.223 0.80107 0.0
C2056 C 0.99596 0.20831 0.79876 0.0
C2057 C 0.98273 0.20223 0.77282 0.0
C2058 C 0.03511 0.2294 0.89915 0.0
C2059 C 0.04585 0.2427 0.88241 0.0
C2060 C 0.02196 0.22301 0.87274 0.0
C2061 C 0.01915 0.2296 0.82779 0.0
C2062 C 0.0302 0.24269 0.80946 0.0
C2063 C 0.04329 0.24918 0.83666 0.0
H2064 H 0.93477 0.56236 0.59119 0.0
H2065 H 0.89392 0.52666 0.56357 0.0
H2066 H 0.92416 0.57489 0.6348 0.0
H2067 H 0.88313 0.5388 0.60928 0.0
H2068 H 0.86614 0.56796 0.64853 0.0
H2069 H 0.87735 0.55648 0.60016 0.0
H2070 H 0.91287 0.57731 0.71209 0.0
H2071 H 0.90204 0.58925 0.75728 0.0
C2072 C 0.92351 0.55707 0.59597 0.0
C2073 C 0.91519 0.54346 0.57492 0.0
C2074 C 0.91735 0.56424 0.62091 0.0
C2075 C 0.90266 0.55798 0.62583 0.0
C2076 C 0.89441 0.54418 0.6056 0.0
C2077 C 0.90059 0.53708 0.58021 0.0
C2078 C 0.87647 0.57026 0.66182 0.0
C2079 C 0.88311 0.57941 0.70718 0.0
C2080 C 0.88285 0.56351 0.63473 0.0
C2081 C 0.89605 0.56572 0.65235 0.0
C2082 C 0.90282 0.57531 0.6965 0.0
C2083 C 0.89652 0.5821 0.72302 0.0
H2084 H 0.46126 0.31917 0.77104 0.0
H2085 H 0.42873 0.3022 0.64538 0.0
H2086 H 0.47226 0.34172 0.72362 0.0
H2087 H 0.44024 0.32446 0.595 0.0
H2088 H 0.45522 0.3694 0.54488 0.0
H2089 H 0.44439 0.34713 0.5951 0.0
H2090 H 0.48531 0.35568 0.6497 0.0
H2091 H 0.49589 0.37827 0.60145 0.0
C2092 C 0.4566 0.3202 0.73248 0.0
C2093 C 0.44415 0.3088 0.71189 0.0
C2094 C 0.46299 0.33317 0.70481 0.0
C2095 C 0.45724 0.33518 0.65505 0.0
C2096 C 0.44495 0.32358 0.63362 0.0
C2097 C 0.43845 0.31063 0.66186 0.0
C2098 C 0.46183 0.36655 0.56845 0.0
C2099 C 0.47638 0.37559 0.56954 0.0
C2100 C 0.45565 0.35366 0.59669 0.0
C2101 C 0.46388 0.34928 0.62636 0.0
C2102 C 0.47849 0.35857 0.6282 0.0
C2103 C 0.48462 0.37158 0.60048 0.0
H2104 H 0.64079 0.08976 0.6306 0.0
H2105 H 0.65625 0.12465 0.5162 0.0
H2106 H 0.66298 0.10127 0.6815 0.0
H2107 H 0.6788 0.13571 0.56362 0.0
H2108 H 0.71512 0.15848 0.68711 0.0
H2109 H 0.69249 0.14775 0.63915 0.0
H2110 H 0.686 0.10676 0.68042 0.0
H2111 H 0.70827 0.11771 0.73079 0.0
C2112 C 0.64888 0.09998 0.61673 0.0
C2113 C 0.64663 0.10634 0.5697 0.0
C2114 C 0.6618 0.10651 0.64519 0.0
C2115 C 0.67299 0.1195 0.62688 0.0
C2116 C 0.67057 0.12588 0.5801 0.0
C2117 C 0.6576 0.11945 0.55235 0.0
C2118 C 0.70886 0.14718 0.6852 0.0
C2119 C 0.71347 0.13893 0.71233 0.0
C2120 C 0.69584 0.14095 0.65758 0.0
C2121 C 0.68711 0.12625 0.65569 0.0
C2122 C 0.69206 0.11806 0.68172 0.0
C2123 C 0.70498 0.12432 0.70997 0.0
H2124 H 0.4341 0.11952 0.26774 0.0
H2125 H 0.45069 0.15265 0.14472 0.0
H2126 H 0.44608 0.10881 0.22206 0.0
H2127 H 0.462 0.14139 0.09583 0.0
H2128 H 0.49247 0.12625 0.05098 0.0
H2129 H 0.4806 0.13708 0.09851 0.0
H2130 H 0.44745 0.09609 0.14822 0.0
H2131 H 0.45981 0.08553 0.10276 0.0
C2132 C 0.44026 0.12449 0.23049 0.0
C2133 C 0.44161 0.13712 0.21067 0.0
C2134 C 0.44703 0.1182 0.20357 0.0
C2135 C 0.45523 0.12417 0.15499 0.0
C2136 C 0.4561 0.13655 0.13375 0.0
C2137 C 0.44941 0.14294 0.16124 0.0
C2138 C 0.48277 0.11964 0.07317 0.0
C2139 C 0.47718 0.10507 0.07403 0.0
C2140 C 0.4758 0.12581 0.09973 0.0
C2141 C 0.46289 0.11757 0.12736 0.0
C2142 C 0.45743 0.10294 0.12855 0.0
C2143 C 0.46451 0.09681 0.10248 0.0
H2144 H 0.89888 0.37636 0.10111 0.0
H2145 H 0.93277 0.36984 0.05223 0.0
H2146 H 0.88757 0.35374 0.15035 0.0
H2147 H 0.92157 0.34728 0.10071 0.0
H2148 H 0.90434 0.31415 0.24184 0.0
H2149 H 0.91567 0.33672 0.19347 0.0
H2150 H 0.87555 0.32831 0.12986 0.0
H2151 H 0.86425 0.30567 0.179 0.0
C2152 C 0.90399 0.37015 0.10159 0.0
C2153 C 0.91672 0.37487 0.07303 0.0
C2154 C 0.89744 0.35711 0.12915 0.0
C2155 C 0.90357 0.34854 0.12935 0.0
C2156 C 0.91655 0.35355 0.10201 0.0
C2157 C 0.92299 0.36649 0.07417 0.0
C2158 C 0.89798 0.31707 0.21692 0.0
C2159 C 0.88342 0.30814 0.2141 0.0
C2160 C 0.90447 0.33002 0.18912 0.0
C2161 C 0.89656 0.33448 0.15785 0.0
C2162 C 0.88198 0.32537 0.15413 0.0
C2163 C 0.8755 0.31232 0.18166 0.0
H2164 H 0.65231 0.56651 0.04172 0.0
H2165 H 0.6428 0.52605 0.10327 0.0
H2166 H 0.67452 0.57739 0.09243 0.0
H2167 H 0.66535 0.53659 0.15151 0.0
H2168 H 0.70194 0.56031 0.27155 0.0
H2169 H 0.67946 0.54953 0.22386 0.0
H2170 H 0.69703 0.58166 0.0958 0.0
H2171 H 0.71917 0.59307 0.14698 0.0
C2172 C 0.65501 0.55996 0.06643 0.0
C2173 C 0.64579 0.54546 0.06897 0.0
C2174 C 0.66789 0.56615 0.09496 0.0
C2175 C 0.67207 0.55798 0.12616 0.0
C2176 C 0.66262 0.54341 0.12905 0.0
C2177 C 0.64963 0.53728 0.10124 0.0
C2178 C 0.70098 0.56508 0.23317 0.0
C2179 C 0.71244 0.57754 0.21306 0.0
C2180 C 0.68805 0.55879 0.20522 0.0
C2181 C 0.68614 0.56459 0.15541 0.0
C2182 C 0.6978 0.57689 0.13443 0.0
C2183 C 0.71069 0.58333 0.16313 0.0
H2184 H 0.57303 0.8625 0.96985 0.0
H2185 H 0.5917 0.89688 0.8527 0.0
H2186 H 0.56185 0.87386 0.01905 0.0
H2187 H 0.57987 0.90772 0.89847 0.0
H2188 H 0.56612 0.93071 0.01865 0.0
H2189 H 0.57832 0.91994 0.97358 0.0
H2190 H 0.54381 0.87899 0.01523 0.0
H2191 H 0.53209 0.89 0.06259 0.0
C2192 C 0.57478 0.8725 0.95469 0.0
C2193 C 0.58314 0.87866 0.90683 0.0
C2194 C 0.56818 0.87896 0.98233 0.0
C2195 C 0.5697 0.89174 0.96273 0.0
C2196 C 0.57843 0.89801 0.91571 0.0
C2197 C 0.58511 0.89166 0.88872 0.0
C2198 C 0.5611 0.91941 0.01727 0.0
C2199 C 0.54809 0.91119 0.04335 0.0
C2200 C 0.56808 0.91316 0.9914 0.0
C2201 C 0.56217 0.89846 0.99038 0.0
C2202 C 0.54894 0.89029 0.01573 0.0
C2203 C 0.54206 0.89658 0.04217 0.0
H2204 H 0.09834 0.6348 0.97264 0.0
H2205 H 0.12613 0.6536 0.11383 0.0
H2206 H 0.1104 0.65703 0.92208 0.0
H2207 H 0.13748 0.67604 0.06595 0.0
H2208 H 0.16262 0.7137 0.95158 0.0
H2209 H 0.15216 0.69096 0.9986 0.0
H2210 H 0.11278 0.67885 0.91594 0.0
H2211 H 0.12361 0.70124 0.86713 0.0
C2212 C 0.1071 0.64366 0.99272 0.0
C2213 C 0.11119 0.6424 0.04745 0.0
C2214 C 0.11391 0.65656 0.96418 0.0
C2215 C 0.12489 0.66865 0.98984 0.0
C2216 C 0.12923 0.66714 0.04396 0.0
C2217 C 0.12259 0.65423 0.07193 0.0
C2218 C 0.1517 0.70617 0.9441 0.0
C2219 C 0.14393 0.70925 0.90581 0.0
C2220 C 0.14562 0.69307 0.97108 0.0
C2221 C 0.13151 0.68276 0.96118 0.0
C2222 C 0.12371 0.68617 0.92392 0.0
C2223 C 0.12986 0.69914 0.89637 0.0
H2224 H 0.31086 0.41933 0.92824 0.0
H2225 H 0.31665 0.46011 0.89282 0.0
H2226 H 0.33396 0.43005 0.97219 0.0
H2227 H 0.33954 0.47105 0.93899 0.0
H2228 H 0.38549 0.48787 0.98128 0.0
H2229 H 0.3629 0.47653 0.93224 0.0
H2230 H 0.34762 0.44183 0.04859 0.0
H2231 H 0.3703 0.45273 0.09434 0.0
C2232 C 0.31697 0.43062 0.93134 0.0
C2233 C 0.31188 0.43888 0.90809 0.0
C2234 C 0.33028 0.43684 0.95651 0.0
C2235 C 0.33885 0.45155 0.95949 0.0
C2236 C 0.33351 0.45975 0.9369 0.0
C2237 C 0.32026 0.4535 0.91123 0.0
C2238 C 0.37736 0.47769 0.99542 0.0
C2239 C 0.37968 0.4713 0.04215 0.0
C2240 C 0.36428 0.47124 0.96793 0.0
C2241 C 0.35315 0.45823 0.98654 0.0
C2242 C 0.35578 0.45171 0.03217 0.0
C2243 C 0.36882 0.45807 0.05905 0.0
H2244 H 0.09261 0.45185 0.55589 0.0
H2245 H 0.12618 0.4926 0.5096 0.0
H2246 H 0.10435 0.44092 0.50857 0.0
H2247 H 0.13851 0.48192 0.46474 0.0
H2248 H 0.15255 0.45837 0.34784 0.0
H2249 H 0.14081 0.46956 0.39214 0.0
H2250 H 0.12214 0.43587 0.5134 0.0
H2251 H 0.13311 0.4242 0.46559 0.0
C2252 C 0.10247 0.45845 0.53477 0.0
C2253 C 0.10836 0.47305 0.5354 0.0
C2254 C 0.1094 0.45222 0.50846 0.0
C2255 C 0.1226 0.46042 0.4829 0.0
C2256 C 0.12832 0.4751 0.48288 0.0
C2257 C 0.12126 0.4813 0.50854 0.0
C2258 C 0.14598 0.45339 0.3842 0.0
C2259 C 0.14381 0.44038 0.40313 0.0
C2260 C 0.13927 0.45988 0.41009 0.0
C2261 C 0.13031 0.45371 0.45662 0.0
C2262 C 0.12864 0.44092 0.47701 0.0
C2263 C 0.1352 0.43431 0.45037 0.0
H2264 H 0.56927 0.64587 0.55998 0.0
H2265 H 0.52857 0.63945 0.51775 0.0
H2266 H 0.5803 0.66859 0.51313 0.0
H2267 H 0.53936 0.66251 0.47357 0.0
H2268 H 0.56275 0.69974 0.35536 0.0
H2269 H 0.55141 0.67692 0.40034 0.0
H2270 H 0.58583 0.69156 0.51811 0.0
H2271 H 0.59762 0.71405 0.46946 0.0
C2272 C 0.5627 0.64932 0.53991 0.0
C2273 C 0.54809 0.6408 0.54131 0.0
C2274 C 0.569 0.6625 0.51388 0.0
C2275 C 0.56084 0.66771 0.48953 0.0
C2276 C 0.54614 0.65897 0.49065 0.0
C2277 C 0.53987 0.64568 0.51596 0.0
C2278 C 0.56783 0.69809 0.39119 0.0
C2279 C 0.58108 0.70876 0.40883 0.0
C2280 C 0.56127 0.68495 0.41744 0.0
C2281 C 0.56762 0.68209 0.46312 0.0
C2282 C 0.58064 0.69306 0.48237 0.0
C2283 C 0.58733 0.70616 0.45529 0.0
H2284 H 0.32267 0.89793 0.35148 0.0
H2285 H 0.30659 0.86318 0.46726 0.0
H2286 H 0.34531 0.90874 0.39944 0.0
H2287 H 0.32925 0.87445 0.51692 0.0
H2288 H 0.36914 0.92017 0.60331 0.0
H2289 H 0.34647 0.9085 0.55546 0.0
H2290 H 0.36296 0.89199 0.43173 0.0
H2291 H 0.38564 0.90319 0.48117 0.0
C2292 C 0.32395 0.89256 0.38709 0.0
C2293 C 0.31281 0.87953 0.40482 0.0
C2294 C 0.33693 0.8988 0.41458 0.0
C2295 C 0.33909 0.89233 0.46126 0.0
C2296 C 0.32788 0.87958 0.48058 0.0
C2297 C 0.31488 0.87321 0.45252 0.0
C2298 C 0.36794 0.91391 0.56633 0.0
C2299 C 0.37921 0.91246 0.54673 0.0
C2300 C 0.35495 0.90727 0.53891 0.0
C2301 C 0.3529 0.89917 0.49049 0.0
C2302 C 0.36424 0.89806 0.46941 0.0
C2303 C 0.37725 0.9046 0.49736 0.0
H2304 H 0.2138 0.22718 0.65902 0.0
H2305 H 0.22195 0.25574 0.79706 0.0
H2306 H 0.21856 0.21228 0.72062 0.0
H2307 H 0.22685 0.241 0.85856 0.0
H2308 H 0.23271 0.21158 0.96378 0.0
H2309 H 0.2181 0.21723 0.90446 0.0
H2310 H 0.24267 0.21936 0.75903 0.0
H2311 H 0.25713 0.2136 0.81827 0.0
C2312 C 0.21605 0.22994 0.70313 0.0
C2313 C 0.21738 0.24244 0.72387 0.0
C2314 C 0.21887 0.2215 0.73814 0.0
C2315 C 0.22302 0.22549 0.79423 0.0
C2316 C 0.22345 0.23756 0.81574 0.0
C2317 C 0.22077 0.24605 0.7806 0.0
C2318 C 0.23455 0.21264 0.91875 0.0
C2319 C 0.24589 0.21204 0.89514 0.0
C2320 C 0.22629 0.21599 0.885 0.0
C2321 C 0.22927 0.2187 0.82731 0.0
C2322 C 0.24002 0.21711 0.80322 0.0
C2323 C 0.24835 0.21393 0.83704 0.0
H2324 H 0.80419 0.04597 0.82568 0.0
H2325 H 0.80871 0.02476 0.96993 0.0
H2326 H 0.79984 0.02621 0.76581 0.0
H2327 H 0.80449 1.005 0.90997 0.0
H2328 H 0.76692 0.96884 0.80241 0.0
H2329 H 0.78085 0.98867 0.86448 0.0
H2330 H 0.80889 0.01065 0.72653 0.0
H2331 H 0.79483 0.99075 0.66439 0.0
C2332 C 0.80467 0.03724 0.84405 0.0
C2333 C 0.80687 0.03685 0.90199 0.0
C2334 C 0.80233 0.02601 0.80985 0.0
C2335 C 0.8019 0.01414 0.83341 0.0
C2336 C 0.80487 0.0141 0.89093 0.0
C2337 C 0.80738 0.02542 0.92504 0.0
C2338 C 0.77634 0.97774 0.7861 0.0
C2339 C 0.77995 0.97833 0.72919 0.0
C2340 C 0.78436 0.98902 0.82154 0.0
C2341 C 0.79594 1.00115 0.80013 0.0
C2342 C 0.80004 1.00137 0.74391 0.0
C2343 C 0.79209 0.98999 0.7086 0.0
H2344 H 0.05194 0.80319 0.79569 0.0
H2345 H 0.02934 0.80518 0.65097 0.0
H2346 H 0.0317 0.79715 0.85533 0.0
H2347 H 1.00905 0.79927 0.71071 0.0
H2348 H 0.97454 0.76059 0.81748 0.0
H2349 H 0.99415 0.77549 0.756 0.0
H2350 H 0.01462 0.80392 0.89471 0.0
H2351 H 0.99505 0.78884 0.95632 0.0
C2352 C 0.04277 0.80279 0.77721 0.0
C2353 C 0.04215 0.80476 0.71923 0.0
C2354 C 0.03125 0.79945 0.81125 0.0
C2355 C 0.01885 0.79779 0.78749 0.0
C2356 C 0.01853 0.80056 0.72992 0.0
C2357 C 0.03014 0.80406 0.69594 0.0
C2358 C 0.98306 0.77025 0.83414 0.0
C2359 C 0.98331 0.77373 0.89106 0.0
C2360 C 0.9942 0.77883 0.79902 0.0
C2361 C 1.00584 0.79087 0.82072 0.0
C2362 C 1.00572 0.79473 0.87706 0.0
C2363 C 0.9945 0.78619 0.91206 0.0
H2364 H 0.81183 0.78946 0.46 0.0
H2365 H 0.80422 0.76091 0.32247 0.0
H2366 H 0.80673 0.80405 0.39796 0.0
H2367 H 0.79905 0.77538 0.26048 0.0
H2368 H 0.79238 0.80426 0.15504 0.0
H2369 H 0.80744 0.79927 0.21466 0.0
H2370 H 0.78219 0.79594 0.35946 0.0
H2371 H 0.76726 0.801 0.2999 0.0
C2372 C 0.80964 0.78666 0.4159 0.0
C2373 C 0.80851 0.77422 0.39543 0.0
C2374 C 0.80664 0.79492 0.38064 0.0
C2375 C 0.80255 0.79083 0.32459 0.0
C2376 C 0.8024 0.77888 0.30329 0.0
C2377 C 0.80524 0.77056 0.33868 0.0
C2378 C 0.79046 0.80305 0.19999 0.0
C2379 C 0.7788 0.80309 0.22333 0.0
C2380 C 0.79898 0.80011 0.23391 0.0
C2381 C 0.79597 0.79728 0.2915 0.0
C2382 C 0.78487 0.7983 0.31534 0.0
C2383 C 0.77626 0.80106 0.28134 0.0
H2384 H 0.23509 0.03195 0.42087 0.0
H2385 H 0.27585 0.04235 0.3571 0.0
H2386 H 0.22413 0.01239 0.35432 0.0
H2387 H 0.26493 0.02274 0.29166 0.0
H2388 H 0.24324 0.97632 0.25635 0.0
H2389 H 0.25137 0.99637 0.31915 0.0
H2390 H 0.22245 1.00702 0.24265 0.0
H2391 H 0.21446 0.98707 0.1786 0.0
C2392 C 0.24165 0.03034 0.39142 0.0
C2393 C 0.25629 0.03867 0.39356 0.0
C2394 C 0.2354 0.01912 0.35384 0.0
C2395 C 0.24376 0.01606 0.3188 0.0
C2396 C 0.25832 0.02483 0.31905 0.0
C2397 C 0.26454 0.03603 0.35621 0.0
C2398 C 0.23849 0.98284 0.25341 0.0
C2399 C 0.22816 0.9801 0.2131 0.0
C2400 C 0.24316 0.99429 0.28909 0.0
C2401 C 0.2376 1.00322 0.28494 0.0
C2402 C 0.22679 1.00017 0.24653 0.0
C2403 C 0.22216 0.98871 0.2104 0.0
H2404 H 1.0023 0.22811 0.4877 0.0
H2405 H 0.97475 0.21026 0.34507 0.0
H2406 H 0.02244 0.23362 0.42793 0.0
H2407 H 0.99486 0.21637 0.28409 0.0
H2408 H 0.03277 0.22759 0.1835 0.0
H2409 H 0.0149 0.21473 0.25491 0.0
H2410 H 0.03279 0.25181 0.35963 0.0
H2411 H 0.0509 0.26425 0.28983 0.0
C2412 C 1.00064 0.22523 0.44351 0.0
C2413 C 0.98722 0.21901 0.42015 0.0
C2414 C 1.01209 0.22838 0.40936 0.0
C2415 C 1.01026 0.22567 0.35116 0.0
C2416 C 0.99662 0.21849 0.32882 0.0
C2417 C 0.98513 0.21511 0.36335 0.0
C2418 C 0.03316 0.23273 0.22293 0.0
C2419 C 0.04328 0.24679 0.23196 0.0
C2420 C 0.02285 0.22546 0.26338 0.0
C2421 C 0.02244 0.23223 0.31294 0.0
C2422 C 0.03295 0.24616 0.32255 0.0
C2423 C 0.04324 0.25336 0.28237 0.0
H2424 H 0.93797 0.56567 0.18456 0.0
H2425 H 0.89758 0.53699 0.25567 0.0
H2426 H 0.92678 0.57171 0.11056 0.0
H2427 H 0.88616 0.54263 0.17984 0.0
H2428 H 0.87789 0.57687 0.09669 0.0
H2429 H 0.88473 0.56358 0.15848 0.0
H2430 H 0.91218 0.56361 0.02821 0.0
H2431 H 0.90576 0.57737 0.96793 0.0
C2432 C 0.92665 0.5604 0.1833 0.0
C2433 C 0.9186 0.55077 0.22506 0.0
C2434 C 0.92021 0.56374 0.14067 0.0
C2435 C 0.90557 0.55754 0.13914 0.0
C2436 C 0.89746 0.54754 0.18006 0.0
C2437 C 0.90396 0.5442 0.22291 0.0
C2438 C 0.88516 0.57375 0.08124 0.0
C2439 C 0.89154 0.57827 0.02849 0.0
C2440 C 0.889 0.56608 0.11623 0.0
C2441 C 0.89915 0.56275 0.09836 0.0
C2442 C 0.90458 0.5663 0.0435 0.0
C2443 C 0.90093 0.57415 0.0091 0.0
H2444 H 0.47826 0.35904 0.28807 0.0
H2445 H 0.4715 0.3805 0.15047 0.0
H2446 H 0.47263 0.33918 0.22601 0.0
H2447 H 0.4658 0.36069 0.08847 0.0
H2448 H 0.45847 0.32483 0.98289 0.0
H2449 H 0.47367 0.34478 0.04272 0.0
H2450 H 0.44807 0.32317 0.18706 0.0
H2451 H 0.43299 0.30324 0.12729 0.0
C2452 C 0.47614 0.35971 0.24395 0.0
C2453 C 0.47541 0.37124 0.22346 0.0
C2454 C 0.47283 0.34835 0.2087 0.0
C2455 C 0.46883 0.34846 0.15261 0.0
C2456 C 0.46907 0.36045 0.1313 0.0
C2457 C 0.47221 0.37171 0.1667 0.0
C2458 C 0.45648 0.32415 0.02778 0.0
C2459 C 0.4447 0.31255 0.05093 0.0
C2460 C 0.46509 0.33557 0.06182 0.0
C2461 C 0.46204 0.33545 0.11935 0.0
C2462 C 0.45078 0.32343 0.14299 0.0
C2463 C 0.44209 0.3121 0.10887 0.0
H2464 H 0.71813 0.13432 0.13084 0.0
H2465 H 0.69772 0.14236 0.99271 0.0
H2466 H 0.69849 0.12948 0.19236 0.0
H2467 H 0.67807 0.13768 0.05437 0.0
H2468 H 0.64084 0.09901 0.15146 0.0
H2469 H 0.66105 0.11364 0.09241 0.0
H2470 H 0.6834 0.138 0.23844 0.0
H2471 H 0.66316 0.12319 0.29756 0.0
C2472 C 0.70962 0.13551 0.11439 0.0
C2473 C 0.7094 0.13883 0.05761 0.0
C2474 C 0.69846 0.13286 0.14954 0.0
C2475 C 0.68681 0.13326 0.12801 0.0
C2476 C 0.68698 0.13738 0.0719 0.0
C2477 C 0.69823 0.14016 0.03686 0.0
C2478 C 0.64993 0.10778 0.1704 0.0
C2479 C 0.65049 0.11013 0.2286 0.0
C2480 C 0.66144 0.11622 0.1367 0.0
C2481 C 0.67375 0.12696 0.161 0.0
C2482 C 0.67399 0.12982 0.21882 0.0
C2483 C 0.66239 0.12145 0.25246 0.0
H2484 H 0.45862 0.14399 0.52402 0.0
H2485 H 0.41827 0.11269 0.58786 0.0
H2486 H 0.47011 0.13577 0.58946 0.0
H2487 H 0.42973 0.10435 0.65202 0.0
H2488 H 0.45255 0.08079 0.68618 0.0
H2489 H 0.44415 0.09235 0.62289 0.0
H2490 H 0.47176 0.13205 0.70197 0.0
H2491 H 0.48001 0.12043 0.76651 0.0
C2492 C 0.45225 0.13569 0.55323 0.0
C2493 C 0.43758 0.12903 0.55152 0.0
C2494 C 0.45881 0.13093 0.59014 0.0
C2495 C 0.45073 0.11937 0.62485 0.0
C2496 C 0.43612 0.11317 0.62488 0.0
C2497 C 0.4296 0.11796 0.58844 0.0
C2498 C 0.45697 0.09202 0.68953 0.0
C2499 C 0.46697 0.09974 0.73084 0.0
C2500 C 0.45216 0.09859 0.65354 0.0
C2501 C 0.45724 0.113 0.65837 0.0
C2502 C 0.46778 0.12092 0.69759 0.0
C2503 C 0.47257 0.11429 0.73403 0.0
H2504 H 0.90027 0.35884 0.79668 0.0
H2505 H 0.92744 0.37983 0.65562 0.0
H2506 H 0.88526 0.33901 0.73585 0.0
H2507 H 0.91253 0.36003 0.59478 0.0
H2508 H 0.88212 0.32438 0.4919 0.0
H2509 H 0.8879 0.34448 0.5529 0.0
H2510 H 0.89322 0.32268 0.69331 0.0
H2511 H 0.88746 0.30268 0.63229 0.0
C2512 C 0.90268 0.35942 0.75215 0.0
C2513 C 0.91484 0.37081 0.73026 0.0
C2514 C 0.89417 0.34807 0.71759 0.0
C2515 C 0.89773 0.34807 0.66079 0.0
C2516 C 0.90943 0.3599 0.63824 0.0
C2517 C 0.91801 0.37114 0.67295 0.0
C2518 C 0.88396 0.32373 0.53634 0.0
C2519 C 0.88425 0.31206 0.558 0.0
C2520 C 0.88735 0.3352 0.57099 0.0
C2521 C 0.89095 0.33505 0.62763 0.0
C2522 C 0.89026 0.32295 0.64999 0.0
C2523 C 0.88708 0.31158 0.61519 0.0
H2524 H 0.66152 0.54127 0.78731 0.0
H2525 H 0.64046 0.54874 0.65008 0.0
H2526 H 0.68142 0.54689 0.72555 0.0
H2527 H 0.66031 0.55445 0.58842 0.0
H2528 H 0.69623 0.56195 0.48316 0.0
H2529 H 0.6761 0.54668 0.54193 0.0
H2530 H 0.69775 0.5714 0.68823 0.0
H2531 H 0.71787 0.58652 0.62953 0.0
C2532 C 0.66093 0.54354 0.7433 0.0
C2533 C 0.64951 0.54446 0.72286 0.0
C2534 C 0.67232 0.54685 0.70822 0.0
C2535 C 0.67235 0.55106 0.65237 0.0
C2536 C 0.66046 0.55101 0.63106 0.0
C2537 C 0.64916 0.54786 0.66628 0.0
C2538 C 0.69688 0.56372 0.52823 0.0
C2539 C 0.70856 0.57526 0.55225 0.0
C2540 C 0.68535 0.55507 0.56167 0.0
C2541 C 0.68542 0.55786 0.61948 0.0
C2542 C 0.69751 0.56888 0.64394 0.0
C2543 C 0.70895 0.5776 0.61042 0.0
H2544 H 0.60704 0.90412 0.52931 0.0
H2545 H 0.56689 0.87276 0.59456 0.0
H2546 H 0.59538 0.91235 0.46572 0.0
H2547 H 0.55519 0.88086 0.52966 0.0
H2548 H 0.54473 0.89568 0.35269 0.0
H2549 H 0.55319 0.88431 0.41754 0.0
H2550 H 0.58094 0.92429 0.4943 0.0
H2551 H 0.57235 0.93559 0.43067 0.0
C2552 C 0.59571 0.89882 0.52919 0.0
C2553 C 0.58785 0.88774 0.56629 0.0
C2554 C 0.58907 0.90354 0.49308 0.0
C2555 C 0.57445 0.89728 0.49358 0.0
C2556 C 0.56649 0.88575 0.52859 0.0
C2557 C 0.57317 0.88106 0.56518 0.0
C2558 C 0.55225 0.90194 0.38475 0.0
C2559 C 0.55783 0.91649 0.38712 0.0
C2560 C 0.55716 0.89545 0.42138 0.0
C2561 C 0.5678 0.90351 0.46001 0.0
C2562 C 0.57286 0.91793 0.46411 0.0
C2563 C 0.56793 0.92436 0.42793 0.0
H2564 H 0.15148 0.7019 0.5704 0.0
H2565 H 0.11885 0.71056 0.52221 0.0
H2566 H 0.14482 0.68513 0.49295 0.0
H2567 H 0.11169 0.69341 0.44738 0.0
H2568 H 0.1019 0.66561 0.30524 0.0
H2569 H 0.11662 0.6867 0.35977 0.0
H2570 H 0.12521 0.66216 0.47824 0.0
H2571 H 0.11111 0.64126 0.42133 0.0
C2572 C 0.14316 0.7005 0.54223 0.0
C2573 C 0.13577 0.70761 0.55154 0.0
C2574 C 0.13921 0.69077 0.49847 0.0
C2575 C 0.12774 0.68793 0.46395 0.0
C2576 C 0.12076 0.69552 0.47225 0.0
C2577 C 0.12475 0.70524 0.51556 0.0
C2578 C 0.1072 0.66487 0.34242 0.0
C2579 C 0.1053 0.65195 0.36011 0.0
C2580 C 0.11559 0.67689 0.37361 0.0
C2581 C 0.12185 0.67606 0.42395 0.0
C2582 C 0.12064 0.66319 0.43947 0.0
C2583 C 0.11248 0.65122 0.40736 0.0
H2584 H 0.35478 0.45126 0.3016 0.0
H2585 H 0.38242 0.47614 0.43589 0.0
H2586 H 0.33458 0.4446 0.36237 0.0
H2587 H 0.36228 0.46897 0.49813 0.0
H2588 H 0.32328 0.4556 0.59798 0.0
H2589 H 0.34043 0.46796 0.52343 0.0
H2590 H 0.32729 0.42849 0.4395 0.0
H2591 H 0.30991 0.4164 0.51232 0.0
C2592 C 0.35644 0.4554 0.34412 0.0
C2593 C 0.36999 0.46397 0.3649 0.0
C2594 C 0.34495 0.4516 0.37882 0.0
C2595 C 0.34688 0.45604 0.43527 0.0
C2596 C 0.36045 0.46546 0.45471 0.0
C2597 C 0.37197 0.46948 0.41946 0.0
C2598 C 0.32377 0.44972 0.56233 0.0
C2599 C 0.31519 0.43513 0.55995 0.0
C2600 C 0.33367 0.45674 0.52018 0.0
C2601 C 0.33515 0.44922 0.47549 0.0
C2602 C 0.32621 0.43465 0.47261 0.0
C2603 C 0.31636 0.42769 0.51453 0.0
H2604 H 0.12773 0.4195 0.99575 0.0
H2605 H 0.14692 0.45609 0.10267 0.0
H2606 H 0.12269 0.43238 0.92602 0.0
H2607 H 0.14256 0.46932 0.03128 0.0
H2608 H 0.1078 0.475 0.93877 0.0
H2609 H 0.12126 0.46843 1.00073 0.0
H2610 H 0.13144 0.45072 0.85795 0.0
H2611 H 0.11734 0.45669 0.79718 0.0
C2612 C 0.13119 0.43043 1.00363 0.0
C2613 C 0.1378 0.43683 0.05433 0.0
C2614 C 0.12848 0.43789 0.96335 0.0
C2615 C 0.13233 0.45192 0.97297 0.0
C2616 C 0.13948 0.45851 0.02279 0.0
C2617 C 0.14214 0.45099 0.06334 0.0
C2618 C 0.11322 0.46998 0.92091 0.0
C2619 C 0.11148 0.46606 0.86412 0.0
C2620 C 0.121 0.46632 0.95602 0.0
C2621 C 0.12722 0.45885 0.93426 0.0
C2622 C 0.1265 0.45618 0.87606 0.0
C2623 C 0.11851 0.4596 0.84133 0.0
H2624 H 0.5757 0.71368 0.03033 0.0
H2625 H 0.58408 0.68494 0.12225 0.0
H2626 H 0.56124 0.69501 0.96334 0.0
H2627 H 0.56952 0.6663 0.05623 0.0
H2628 H 0.53904 0.63393 0.93827 0.0
H2629 H 0.54411 0.65172 0.01096 0.0
H2630 H 0.57244 0.68386 0.89649 0.0
H2631 H 0.5676 0.66613 0.82479 0.0
C2632 C 0.57407 0.70326 0.03706 0.0
C2633 C 0.58099 0.70064 0.08075 0.0
C2634 C 0.56583 0.69265 0.999 0.0
C2635 C 0.56426 0.67929 1.00512 0.0
C2636 C 0.57042 0.67648 0.05124 0.0
C2637 C 0.57885 0.68713 0.08849 0.0
C2638 C 0.54603 0.64486 0.9285 0.0
C2639 C 0.55305 0.6488 0.87665 0.0
C2640 C 0.5489 0.65497 0.96976 0.0
C2641 C 0.55858 0.66908 0.95888 0.0
C2642 C 0.56478 0.67306 0.90544 0.0
C2643 C 0.56214 0.66295 0.86478 0.0
H2644 H 0.31373 0.9051 0.02585 0.0
H2645 H 0.32284 0.87436 0.09532 0.0
H2646 H 0.33369 0.91319 0.96264 0.0
H2647 H 0.3428 0.88239 0.03118 0.0
H2648 H 0.36891 0.89647 0.85736 0.0
H2649 H 0.3489 0.88528 0.92163 0.0
H2650 H 0.35975 0.92573 0.99005 0.0
H2651 H 0.37975 0.93687 0.92672 0.0
C2652 C 0.31986 0.89991 0.02672 0.0
C2653 C 0.31673 0.88906 0.06489 0.0
C2654 C 0.33127 0.90456 0.99088 0.0
C2655 C 0.33979 0.89849 0.9929 0.0
C2656 C 0.33628 0.88714 0.02894 0.0
C2657 C 0.32483 0.8825 0.06513 0.0
C2658 C 0.36729 0.90288 0.88754 0.0
C2659 C 0.37588 0.9175 0.88763 0.0
C2660 C 0.3558 0.8965 0.9238 0.0
C2661 C 0.35277 0.90472 0.95981 0.0
C2662 C 0.36179 0.91924 0.9618 0.0
C2663 C 0.37323 0.92558 0.92589 0.0
H2664 H 0.32192 0.19926 0.08414 0.0
H2665 H 0.31198 0.23027 0.02585 0.0
H2666 H 0.34293 0.20973 0.02411 0.0
H2667 H 0.33233 0.2403 0.96522 0.0
H2668 H 0.3773 0.26401 0.90557 0.0
H2669 H 0.35676 0.25346 0.9652 0.0
H2670 H 0.34999 0.2124 0.92409 0.0
H2671 H 0.37116 0.22321 0.86506 0.0
C2672 C 0.3244 0.20849 0.05969 0.0
C2673 C 0.31536 0.21401 0.06028 0.0
C2674 C 0.33626 0.21432 0.02434 0.0
C2675 C 0.33933 0.22582 0.98916 0.0
C2676 C 0.3305 0.23158 0.99183 0.0
C2677 C 0.31878 0.22581 0.02685 0.0
C2678 C 0.37125 0.25269 0.90799 0.0
C2679 C 0.37581 0.24446 0.87993 0.0
C2680 C 0.35944 0.24661 0.94253 0.0
C2681 C 0.35167 0.23203 0.95012 0.0
C2682 C 0.35583 0.22368 0.92002 0.0
C2683 C 0.36777 0.22983 0.88513 0.0
H2684 H 0.82275 0.12654 0.08418 0.0
H2685 H 0.78769 0.08586 0.04519 0.0
H2686 H 0.81244 0.13747 0.02572 0.0
H2687 H 0.77768 0.09654 0.98632 0.0
H2688 H 0.75646 0.12038 0.92845 0.0
H2689 H 0.76675 0.11019 0.98839 0.0
H2690 H 0.8078 0.13979 0.92504 0.0
H2691 H 0.79734 0.15039 0.86549 0.0
C2692 C 0.81267 0.11998 0.06453 0.0
C2693 C 0.80595 0.10535 0.06996 0.0
C2694 C 0.80691 0.12619 0.03003 0.0
C2695 C 0.79427 0.1179 1.00065 0.0
C2696 C 0.78733 0.10333 0.00844 0.0
C2697 C 0.79306 0.09717 0.04252 0.0
C2698 C 0.76767 0.12459 0.92636 0.0
C2699 C 0.77605 0.13615 0.89177 0.0
C2700 C 0.7736 0.11873 0.96096 0.0
C2701 C 0.78815 0.12419 0.96212 0.0
C2702 C 0.79657 0.13545 0.92592 0.0
C2703 C 0.79057 0.14135 0.89091 0.0
H2704 H 0.87068 0.65131 0.86001 0.0
H2705 H 0.90119 0.64084 0.92024 0.0
H2706 H 0.88132 0.67238 0.91971 0.0
H2707 H 0.91155 0.66147 0.9799 0.0
H2708 H 0.93558 0.70731 0.03393 0.0
H2709 H 0.92493 0.68647 0.97536 0.0
H2710 H 0.88389 0.67882 0.02247 0.0
H2711 H 0.89474 0.70007 0.08108 0.0
C2712 C 0.87985 0.65369 0.88481 0.0
C2713 C 0.88518 0.64449 0.8849 0.0
C2714 C 0.88577 0.66559 0.91986 0.0
C2715 C 0.89722 0.66857 0.95517 0.0
C2716 C 0.90283 0.65962 0.9532 0.0
C2717 C 0.89689 0.64778 0.91873 0.0
C2718 C 0.92427 0.70101 0.03298 0.0
C2719 C 0.91602 0.70527 0.06272 0.0
C2720 C 0.91814 0.68906 0.9991 0.0
C2721 C 0.90353 0.68099 0.9936 0.0
C2722 C 0.89519 0.68492 0.02509 0.0
C2723 C 0.90138 0.69691 0.05959 0.0
H2724 H 0.22747 0.36574 0.75691 0.0
H2725 H 0.26842 0.37584 0.69739 0.0
H2726 H 0.21695 0.34452 0.69809 0.0
H2727 H 0.25805 0.35496 0.63888 0.0
H2728 H 0.23565 0.30872 0.58794 0.0
H2729 H 0.24595 0.32968 0.64597 0.0
H2730 H 0.21341 0.33815 0.59429 0.0
H2731 H 0.20294 0.31685 0.53596 0.0
C2732 C 0.23424 0.36325 0.73247 0.0
C2733 C 0.24879 0.37239 0.73232 0.0
C2734 C 0.22821 0.35125 0.69797 0.0
C2735 C 0.23664 0.34809 0.66323 0.0
C2736 C 0.25122 0.35698 0.66514 0.0
C2737 C 0.25718 0.36895 0.69894 0.0
C2738 C 0.23084 0.31521 0.58787 0.0
C2739 C 0.21855 0.31118 0.55681 0.0
C2740 C 0.23673 0.32722 0.62141 0.0
C2741 C 0.23045 0.33557 0.62537 0.0
C2742 C 0.2184 0.33184 0.59282 0.0
C2743 C 0.21255 0.3198 0.55856 0.0
H2744 H 0.71999 0.92184 0.64963 0.0
H2745 H 0.69997 0.89619 0.50316 0.0
H2746 H 0.69815 0.91002 0.70108 0.0
H2747 H 0.6778 0.88433 0.55556 0.0
H2748 H 0.6389 0.8806 0.64707 0.0
H2749 H 0.66077 0.89087 0.59595 0.0
H2750 H 0.68139 0.88642 0.7424 0.0
H2751 H 0.65915 0.87584 0.79456 0.0
C2752 C 0.71092 0.9137 0.62803 0.0
C2753 C 0.71181 0.91005 0.57171 0.0
C2754 C 0.69839 0.90681 0.6581 0.0
C2755 C 0.68626 0.89615 0.63279 0.0
C2756 C 0.687 0.89254 0.57627 0.0
C2757 C 0.69967 0.89935 0.54615 0.0
C2758 C 0.64803 0.88176 0.66896 0.0
C2759 C 0.64718 0.87738 0.72547 0.0
C2760 C 0.66059 0.88756 0.63908 0.0
C2761 C 0.6728 0.88936 0.66473 0.0
C2762 C 0.67212 0.88517 0.72143 0.0
C2763 C 0.65941 0.87915 0.7514 0.0
H2764 H 0.09808 0.79937 0.63729 0.0
H2765 H 0.12665 0.80923 0.49743 0.0
H2766 H 0.11024 0.78986 0.68925 0.0
H2767 H 0.13888 0.7994 0.55042 0.0
H2768 H 0.14403 0.76454 0.63852 0.0
H2769 H 0.13369 0.77589 0.58621 0.0
H2770 H 0.1333 0.79764 0.73685 0.0
H2771 H 0.1439 0.78621 0.79028 0.0
C2772 C 0.10694 0.79947 0.61716 0.0
C2773 C 0.11131 0.80509 0.56257 0.0
C2774 C 0.11402 0.79411 0.64763 0.0
C2775 C 0.12564 0.79401 0.62451 0.0
C2776 C 0.12994 0.79934 0.5695 0.0
C2777 C 0.12291 0.80492 0.53898 0.0
C2778 C 0.14178 0.77173 0.66107 0.0
C2779 C 0.14473 0.77433 0.7192 0.0
C2780 C 0.13596 0.77837 0.63053 0.0
C2781 C 0.13272 0.78773 0.65704 0.0
C2782 C 0.13564 0.79042 0.71517 0.0
C2783 C 0.1417 0.78387 0.74587 0.0
H2784 H 0.64625 0.75235 0.19927 0.0
H2785 H 0.65569 0.79334 0.25545 0.0
H2786 H 0.6666 0.76268 0.13873 0.0
H2787 H 0.67672 0.8039 0.19557 0.0
H2788 H 0.70501 0.81847 0.03686 0.0
H2789 H 0.68383 0.8081 0.09581 0.0
H2790 H 0.69097 0.77413 0.13846 0.0
H2791 H 0.7115 0.78414 0.07881 0.0
C2792 C 0.65294 0.76362 0.19989 0.0
C2793 C 0.64937 0.772 0.23267 0.0
C2794 C 0.66467 0.76959 0.16491 0.0
C2795 C 0.67336 0.78418 0.16165 0.0
C2796 C 0.67015 0.79262 0.19624 0.0
C2797 C 0.65829 0.78659 0.23153 0.0
C2798 C 0.7017 0.80853 0.05725 0.0
C2799 C 0.70984 0.80204 0.0525 0.0
C2800 C 0.68975 0.80273 0.0921 0.0
C2801 C 0.6857 0.79031 0.12261 0.0
C2802 C 0.69357 0.78359 0.11546 0.0
C2803 C 0.70538 0.78933 0.08092 0.0
H2804 H 0.26791 0.89649 0.19721 0.0
H2805 H 0.22681 0.86549 0.25435 0.0
H2806 H 0.2577 0.90657 0.13594 0.0
H2807 H 0.21641 0.87585 0.19297 0.0
H2808 H 0.20274 0.88893 0.02876 0.0
H2809 H 0.21297 0.87835 0.08979 0.0
H2810 H 0.24578 0.91962 0.13779 0.0
H2811 H 0.23578 0.92998 0.07682 0.0
C2812 C 0.25666 0.89204 0.19775 0.0
C2813 C 0.24819 0.88027 0.23122 0.0
C2814 C 0.25078 0.89781 0.16233 0.0
C2815 C 0.2362 0.89199 0.15895 0.0
C2816 C 0.22767 0.88048 0.19391 0.0
C2817 C 0.23362 0.87471 0.22993 0.0
C2818 C 0.21239 0.89567 0.05101 0.0
C2819 C 0.21856 0.91029 0.04732 0.0
C2820 C 0.21809 0.88964 0.0869 0.0
C2821 C 0.23014 0.89812 0.11931 0.0
C2822 C 0.23657 0.91272 0.11339 0.0
C2823 C 0.23086 0.91869 0.07811 0.0
H2824 H 0.0992 0.30151 0.14256 0.0
H2825 H 0.12575 0.32101 0.99778 0.0
H2826 H 0.11134 0.32319 0.19443 0.0
H2827 H 0.13791 0.34314 0.05078 0.0
H2828 H 0.14046 0.38196 0.14155 0.0
H2829 H 0.13103 0.36026 0.08993 0.0
H2830 H 0.13507 0.33977 0.23756 0.0
H2831 H 0.1449 0.36192 0.29042 0.0
C2832 C 0.10762 0.31043 0.12134 0.0
C2833 C 0.11139 0.30942 0.06528 0.0
C2834 C 0.1147 0.32288 0.15179 0.0
C2835 C 0.12569 0.33486 0.1272 0.0
C2836 C 0.12947 0.33403 0.07098 0.0
C2837 C 0.12248 0.3214 0.04047 0.0
C2838 C 0.1394 0.37291 0.16371 0.0
C2839 C 0.14338 0.37377 0.22087 0.0
C2840 C 0.13411 0.36045 0.13343 0.0
C2841 C 0.1324 0.34831 0.15924 0.0
C2842 C 0.13628 0.349 0.21645 0.0
C2843 C 0.14186 0.36165 0.24684 0.0
H2844 H 0.75677 0.64271 0.41402 0.0
H2845 H 0.79772 0.65047 0.3657 0.0
H2846 H 0.76727 0.66342 0.47311 0.0
H2847 H 0.80843 0.67167 0.42461 0.0
H2848 H 0.82188 0.69937 0.586 0.0
H2849 H 0.81136 0.67829 0.52641 0.0
H2850 H 0.78012 0.68824 0.47029 0.0
H2851 H 0.79034 0.70882 0.53009 0.0
C2852 C 0.76807 0.64911 0.41478 0.0
C2853 C 0.7764 0.64501 0.38459 0.0
C2854 C 0.77412 0.661 0.44896 0.0
C2855 C 0.78873 0.66921 0.45424 0.0
C2856 C 0.79714 0.66547 0.42224 0.0
C2857 C 0.79103 0.6535 0.38753 0.0
C2858 C 0.81251 0.69676 0.56223 0.0
C2859 C 0.80686 0.70569 0.5633 0.0
C2860 C 0.80665 0.68486 0.52718 0.0
C2861 C 0.79495 0.6816 0.49293 0.0
C2862 C 0.78903 0.69027 0.49616 0.0
C2863 C 0.79488 0.7021 0.53072 0.0
H2864 H 0.32663 0.1212 0.62312 0.0
H2865 H 0.30591 0.09574 0.477 0.0
H2866 H 0.34863 0.1329 0.5694 0.0
H2867 H 0.32754 0.10737 0.42439 0.0
H2868 H 0.3661 0.14093 0.3282 0.0
H2869 H 0.34419 0.13068 0.38237 0.0
H2870 H 0.36548 0.12644 0.52696 0.0
H2871 H 0.38706 0.13642 0.47381 0.0
C2872 C 0.32673 0.11806 0.57994 0.0
C2873 C 0.31443 0.10747 0.55486 0.0
C2874 C 0.33931 0.12476 0.54906 0.0
C2875 C 0.3398 0.12116 0.49227 0.0
C2876 C 0.32752 0.1106 0.46752 0.0
C2877 C 0.31509 0.10382 0.49828 0.0
C2878 C 0.36607 0.13775 0.37139 0.0
C2879 C 0.3784 0.13948 0.39617 0.0
C2880 C 0.35354 0.1319 0.40253 0.0
C2881 C 0.35312 0.12786 0.4593 0.0
C2882 C 0.36545 0.12964 0.48384 0.0
C2883 C 0.37784 0.13527 0.45278 0.0
H2884 H 0.8703 0.22349 0.36676 0.0
H2885 H 0.9016 0.26439 0.42487 0.0
H2886 H 0.88069 0.21286 0.42649 0.0
H2887 H 0.91165 0.25395 0.48486 0.0
H2888 H 0.93494 0.23194 0.54256 0.0
H2889 H 0.92458 0.24214 0.48285 0.0
H2890 H 0.88331 0.20887 0.52798 0.0
H2891 H 0.89388 0.19837 0.58743 0.0
C2892 C 0.87959 0.23022 0.39107 0.0
C2893 C 0.88521 0.2448 0.39057 0.0
C2894 C 0.88537 0.22413 0.4262 0.0
C2895 C 0.89695 0.23252 0.46111 0.0
C2896 C 0.90284 0.24711 0.45846 0.0
C2897 C 0.89707 0.25313 0.42381 0.0
C2898 C 0.92364 0.22694 0.5409 0.0
C2899 C 0.91525 0.21441 0.57031 0.0
C2900 C 0.91767 0.23278 0.50635 0.0
C2901 C 0.90308 0.2263 0.49998 0.0
C2902 C 0.8946 0.21403 0.53117 0.0
C2903 C 0.90062 0.20817 0.5662 0.0
H2904 H 0.03816 0.55599 0.20401 0.0
H2905 H 0.03953 0.59555 0.22078 0.0
H2906 H 0.01682 0.54481 0.26191 0.0
H2907 H 0.0187 0.58469 0.27903 0.0
H2908 H 0.97435 0.5593 0.34177 0.0
H2909 H 0.99441 0.56914 0.27968 0.0
H2910 H 1.00973 0.54446 0.36135 0.0
H2911 H 0.98906 0.53411 0.42322 0.0
C2912 C 0.03363 0.56218 0.21835 0.0
C2913 C 0.04039 0.5766 0.20698 0.0
C2914 C 0.0216 0.55587 0.25264 0.0
C2915 C 0.01606 0.56385 0.27586 0.0
C2916 C 0.02249 0.57811 0.26173 0.0
C2917 C 0.03444 0.58436 0.22789 0.0
C2918 C 0.98206 0.55606 0.34726 0.0
C2919 C 0.98008 0.54594 0.38788 0.0
C2920 C 0.99363 0.56174 0.31142 0.0
C2921 C 1.00374 0.55758 0.31498 0.0
C2922 C 1.00204 0.54775 0.35676 0.0
C2923 C 0.99035 0.54202 0.39298 0.0
H2924 H 0.45776 0.47385 0.16078 0.0
H2925 H 0.43221 0.46855 0.30722 0.0
H2926 H 0.46955 0.46351 0.21351 0.0
H2927 H 0.44401 0.45857 0.359 0.0
H2928 H 0.47829 0.45358 0.45204 0.0
H2929 H 0.46792 0.46545 0.39989 0.0
H2930 H 0.46232 0.43963 0.25452 0.0
H2931 H 0.47229 0.42778 0.30561 0.0
C2932 C 0.45462 0.47048 0.20383 0.0
C2933 C 0.44394 0.47198 0.22923 0.0
C2934 C 0.46139 0.46461 0.23415 0.0
C2935 C 0.45779 0.46035 0.29074 0.0
C2936 C 0.4472 0.46193 0.31596 0.0
C2937 C 0.44033 0.46755 0.28567 0.0
C2938 C 0.47476 0.4504 0.40916 0.0
C2939 C 0.47609 0.43964 0.38356 0.0
C2940 C 0.46886 0.45721 0.37918 0.0
C2941 C 0.46445 0.45357 0.32273 0.0
C2942 C 0.46582 0.44287 0.29743 0.0
C2943 C 0.47144 0.43596 0.32736 0.0
H2944 H 0.56624 0.0293 0.45055 0.0
H2945 H 0.5953 0.04756 0.31193 0.0
H2946 H 0.5539 1.00722 0.39763 0.0
H2947 H 0.58302 0.02586 0.25999 0.0
H2948 H 0.54911 0.98884 0.158 0.0
H2949 H 0.55997 0.01091 0.2115 0.0
H2950 H 0.55873 0.98858 0.36256 0.0
H2951 H 0.54813 0.96686 0.31017 0.0
C2952 C 0.57008 0.02863 0.40931 0.0
C2953 C 0.58183 0.04029 0.38599 0.0
C2954 C 0.56298 0.01601 0.37882 0.0
C2955 C 0.56737 0.01485 0.32411 0.0
C2956 C 0.57917 0.02644 0.30134 0.0
C2957 C 0.58632 0.03889 0.3318 0.0
C2958 C 0.55118 0.98868 0.20253 0.0
C2959 C 0.54782 0.97603 0.2293 0.0
C2960 C 0.55739 1.00129 0.23326 0.0
C2961 C 0.56015 1.00148 0.29151 0.0
C2962 C 0.55659 0.98882 0.31813 0.0
C2963 C 0.55062 0.97634 0.28756 0.0
H2964 H 0.43602 0.96663 0.81131 0.0
H2965 H 0.45702 0.98889 0.6595 0.0
H2966 H 0.44735 0.9882 0.86452 0.0
H2967 H 0.46844 0.01082 0.71389 0.0
H2968 H 0.47036 0.04743 0.81737 0.0
H2969 H 0.46072 0.02589 0.76401 0.0
H2970 H 0.47087 1.0065 0.89967 0.0
H2971 H 0.48085 0.0284 0.95392 0.0
C2972 C 0.44306 0.97614 0.78895 0.0
C2973 C 0.44549 0.97595 0.73056 0.0
C2974 C 0.44968 0.98854 0.81999 0.0
C2975 C 0.45886 1.00124 0.79376 0.0
C2976 C 0.46136 1.00118 0.73536 0.0
C2977 C 0.45483 0.98864 0.70413 0.0
C2978 C 0.47058 0.03863 0.83642 0.0
C2979 C 0.47644 0.03975 0.89044 0.0
C2980 C 0.46514 0.02628 0.80519 0.0
C2981 C 0.46518 0.01451 0.82704 0.0
C2982 C 0.47071 0.01541 0.88156 0.0
C2983 C 0.47637 0.02792 0.91282 0.0
H2984 H 0.98158 0.41929 0.87704 0.0
H2985 H 0.9874 0.45996 0.91743 0.0
H2986 H 1.00231 0.43001 0.81809 0.0
H2987 H 1.0086 0.47092 0.85867 0.0
H2988 H 0.03608 0.48372 0.69646 0.0
H2989 H 0.01519 0.47311 0.75707 0.0
H2990 H 0.02707 0.44384 0.82021 0.0
H2991 H 0.04744 0.45409 0.75944 0.0
C2992 C 0.98758 0.4306 0.87466 0.0
C2993 C 0.98292 0.43877 0.90254 0.0
C2994 C 0.99947 0.43678 0.84052 0.0
C2995 C 1.00712 0.45136 0.83298 0.0
C2996 C 1.00284 0.45964 0.8628 0.0
C2997 C 0.99088 0.4534 0.89746 0.0
C2998 C 0.03396 0.47477 0.72216 0.0
C2999 C 0.04336 0.46968 0.72265 0.0
C3000 C 0.02215 0.46886 0.75773 0.0
C3001 C 0.01947 0.45768 0.7941 0.0
C3002 C 0.02865 0.45233 0.79269 0.0
C3003 C 0.04037 0.45822 0.75759 0.0
H3004 H 0.56844 0.5438 0.95193 0.0
H3005 H 0.59327 0.54841 0.80387 0.0
H3006 H 0.55689 0.55454 0.9003 0.0
H3007 H 0.58174 0.55882 0.75322 0.0
H3008 H 0.54738 0.56377 0.66192 0.0
H3009 H 0.55795 0.55213 0.71386 0.0
H3010 H 0.56384 0.57824 0.85853 0.0
H3011 H 0.55358 0.58988 0.80742 0.0
C3012 C 0.57148 0.54712 0.90876 0.0
C3013 C 0.58186 0.54525 0.88251 0.0
C3014 C 0.56486 0.55324 0.8791 0.0
C3015 C 0.56831 0.55741 0.82237 0.0
C3016 C 0.57866 0.55554 0.79641 0.0
C3017 C 0.58537 0.54965 0.82601 0.0
C3018 C 0.55102 0.56708 0.70459 0.0
C3019 C 0.54965 0.57784 0.73003 0.0
C3020 C 0.55704 0.5604 0.73445 0.0
C3021 C 0.56161 0.56418 0.79063 0.0
C3022 C 0.56024 0.57491 0.8158 0.0
C3023 C 0.55445 0.58169 0.78594 0.0
loop_
_geom_bond_atom_site_label_1
_geom_bond_atom_site_label_2
_geom_bond_distance
_geom_bond_site_symmetry_2
_ccdc_geom_bond_type
Co0 O3 1.970 . S
Co0 N17 1.989 . S
Co0 O25 1.967 . S
Co0 O32 1.920 . S
Co1 O4 1.966 1_554 S
Co1 N10 2.022 1_554 S
Co1 N18 1.993 . S
Co1 O26 1.941 . S
C2 O3 1.258 . S
C2 O4 1.263 1_554 S
O3 Co0 1.970 . S
O3 C2 1.258 . S
O4 Co1 1.966 1_556 S
O4 C2 1.263 1_556 S
C5 O6 1.235 . S
C5 O32 1.289 . S
O6 C5 1.235 . S
C7 C9 1.400 . S
C7 N10 1.351 . S
C7 C12 1.501 . S
C8 C9 1.387 . S
C8 N11 1.341 . S
C9 C7 1.400 . S
C9 C8 1.387 . S
N10 Co1 2.022 1_556 S
N10 C7 1.351 . S
N10 N11 1.365 . S
N11 C8 1.341 . S
N11 N10 1.365 . S
N11 H31 0.862 . S
C12 C7 1.501 . S
C12 H13 0.961 . S
C12 H14 0.961 . S
C12 H15 0.960 . S
H13 C12 0.961 . S
H14 C12 0.961 . S
H15 C12 0.960 . S
C16 N17 1.342 . S
C16 C20 1.401 . S
C16 C21 1.499 . S
N17 Co0 1.989 . S
N17 C16 1.342 . S
N17 N18 1.388 . S
N18 Co1 1.993 . S
N18 N17 1.388 . S
N18 C19 1.346 . S
C19 N18 1.346 . S
C19 C20 1.396 . S
C19 C29 1.510 . S
C20 C16 1.401 . S
C20 C19 1.396 . S
C21 C16 1.499 . S
C21 H22 0.959 . S
C21 H23 0.960 . S
C21 H24 0.961 . S
H22 C21 0.959 . S
H23 C21 0.960 . S
H24 C21 0.961 . S
O25 Co0 1.967 . S
O25 C33 1.258 . S
O26 Co1 1.941 . S
O26 C33 1.266 . S
H27 C29 0.959 . S
H28 C29 0.961 . S
C29 C19 1.510 . S
C29 H27 0.959 . S
C29 H28 0.961 . S
C29 H30 0.960 . S
H30 C29 0.960 . S
H31 N11 0.862 . S
O32 Co0 1.920 . S
O32 C5 1.289 . S
C33 O25 1.258 . S
C33 O26 1.266 . S
Co34 O37 1.970 . S
Co34 N51 1.989 . S
Co34 O59 1.967 . S
Co34 O66 1.920 . S
Co35 O38 1.966 1_554 S
Co35 N44 2.022 1_554 S
Co35 N52 1.993 . S
Co35 O60 1.941 . S
C36 O37 1.258 . S
C36 O38 1.263 1_554 S
O37 Co34 1.970 . S
O37 C36 1.258 . S
O38 Co35 1.966 1_556 S
O38 C36 1.263 1_556 S
C39 O40 1.235 . S
C39 O66 1.289 . S
O40 C39 1.235 . S
C41 C43 1.400 . S
C41 N44 1.351 . S
C41 C46 1.501 . S
C42 C43 1.387 . S
C42 N45 1.341 . S
C43 C41 1.400 . S
C43 C42 1.387 . S
N44 Co35 2.022 1_556 S
N44 C41 1.351 . S
N44 N45 1.365 . S
N45 C42 1.341 . S
N45 N44 1.365 . S
N45 H65 0.862 . S
C46 C41 1.501 . S
C46 H47 0.961 . S
C46 H48 0.961 . S
C46 H49 0.960 . S
H47 C46 0.961 . S
H48 C46 0.961 . S
H49 C46 0.960 . S
C50 N51 1.342 . S
C50 C54 1.401 . S
C50 C55 1.499 . S
N51 Co34 1.989 . S
N51 C50 1.342 . S
N51 N52 1.388 . S
N52 Co35 1.993 . S
N52 N51 1.388 . S
N52 C53 1.346 . S
C53 N52 1.346 . S
C53 C54 1.396 . S
C53 C63 1.510 . S
C54 C50 1.401 . S
C54 C53 1.396 . S
C55 C50 1.499 . S
C55 H56 0.959 . S
C55 H57 0.960 . S
C55 H58 0.961 . S
H56 C55 0.959 . S
H57 C55 0.960 . S
H58 C55 0.961 . S
O59 Co34 1.967 . S
O59 C67 1.258 . S
O60 Co35 1.941 . S
O60 C67 1.266 . S
H61 C63 0.959 . S
H62 C63 0.961 . S
C63 C53 1.510 . S
C63 H61 0.959 . S
C63 H62 0.961 . S
C63 H64 0.960 . S
H64 C63 0.960 . S
H65 N45 0.862 . S
O66 Co34 1.920 . S
O66 C39 1.289 . S
C67 O59 1.258 . S
C67 O60 1.266 . S
Co68 O71 1.970 . S
Co68 N85 1.989 . S
Co68 O93 1.967 . S
Co68 O100 1.920 . S
Co69 O72 1.966 1_554 S
Co69 N78 2.022 1_554 S
Co69 N86 1.993 . S
Co69 O94 1.941 . S
C70 O71 1.258 . S
C70 O72 1.263 1_554 S
O71 Co68 1.970 . S
O71 C70 1.258 . S
O72 Co69 1.966 1_556 S
O72 C70 1.263 1_556 S
C73 O74 1.235 . S
C73 O100 1.289 . S
O74 C73 1.235 . S
C75 C77 1.400 . S
C75 N78 1.351 . S
C75 C80 1.501 . S
C76 C77 1.387 . S
C76 N79 1.341 . S
C77 C75 1.400 . S
C77 C76 1.387 . S
N78 Co69 2.022 1_556 S
N78 C75 1.351 . S
N78 N79 1.365 . S
N79 C76 1.341 . S
N79 N78 1.365 . S
N79 H99 0.862 . S
C80 C75 1.501 . S
C80 H81 0.961 . S
C80 H82 0.961 . S
C80 H83 0.960 . S
H81 C80 0.961 . S
H82 C80 0.961 . S
H83 C80 0.960 . S
C84 N85 1.342 . S
C84 C88 1.401 . S
C84 C89 1.499 . S
N85 Co68 1.989 . S
N85 C84 1.342 . S
N85 N86 1.388 . S
N86 Co69 1.993 . S
N86 N85 1.388 . S
N86 C87 1.346 . S
C87 N86 1.346 . S
C87 C88 1.396 . S
C87 C97 1.510 . S
C88 C84 1.401 . S
C88 C87 1.396 . S
C89 C84 1.499 . S
C89 H90 0.959 . S
C89 H91 0.960 . S
C89 H92 0.961 . S
H90 C89 0.959 . S
H91 C89 0.960 . S
H92 C89 0.961 . S
O93 Co68 1.967 . S
O93 C101 1.258 . S
O94 Co69 1.941 . S
O94 C101 1.266 . S
H95 C97 0.959 . S
H96 C97 0.961 . S
C97 C87 1.510 . S
C97 H95 0.959 . S
C97 H96 0.961 . S
C97 H98 0.960 . S
H98 C97 0.960 . S
H99 N79 0.862 . S
O100 Co68 1.920 . S
O100 C73 1.289 . S
C101 O93 1.258 . S
C101 O94 1.266 . S
Co102 O105 1.970 . S
Co102 N119 1.989 . S
Co102 O127 1.967 . S
Co102 O134 1.920 . S
Co103 O106 1.966 . S
Co103 N112 2.022 . S
Co103 N120 1.993 . S
Co103 O128 1.941 . S
C104 O105 1.258 . S
C104 O106 1.263 . S
O105 Co102 1.970 . S
O105 C104 1.258 . S
O106 Co103 1.966 . S
O106 C104 1.263 . S
C107 O108 1.235 . S
C107 O134 1.289 . S
O108 C107 1.235 . S
C109 C111 1.400 . S
C109 N112 1.351 . S
C109 C114 1.501 . S
C110 C111 1.387 . S
C110 N113 1.341 . S
C111 C109 1.400 . S
C111 C110 1.387 . S
N112 Co103 2.022 . S
N112 C109 1.351 . S
N112 N113 1.365 . S
N113 C110 1.341 . S
N113 N112 1.365 . S
N113 H133 0.862 . S
C114 C109 1.501 . S
C114 H115 0.961 . S
C114 H116 0.961 . S
C114 H117 0.960 . S
H115 C114 0.961 . S
H116 C114 0.961 . S
H117 C114 0.960 . S
C118 N119 1.342 . S
C118 C122 1.401 . S
C118 C123 1.499 . S
N119 Co102 1.989 . S
N119 C118 1.342 . S
N119 N120 1.388 . S
N120 Co103 1.993 . S
N120 N119 1.388 . S
N120 C121 1.346 . S
C121 N120 1.346 . S
C121 C122 1.396 . S
C121 C131 1.510 . S
C122 C118 1.401 . S
C122 C121 1.396 . S
C123 C118 1.499 . S
C123 H124 0.959 . S
C123 H125 0.960 . S
C123 H126 0.961 . S
H124 C123 0.959 . S
H125 C123 0.960 . S
H126 C123 0.961 . S
O127 Co102 1.967 . S
O127 C135 1.258 . S
O128 Co103 1.941 . S
O128 C135 1.266 . S
H129 C131 0.959 . S
H130 C131 0.961 . S
C131 C121 1.510 . S
C131 H129 0.959 . S
C131 H130 0.961 . S
C131 H132 0.960 . S
H132 C131 0.960 . S
H133 N113 0.862 . S
O134 Co102 1.920 . S
O134 C107 1.289 . S
C135 O127 1.258 . S
C135 O128 1.266 . S
Co136 O139 1.970 . S
Co136 N153 1.989 . S
Co136 O161 1.967 . S
Co136 O168 1.920 . S
Co137 O140 1.966 . S
Co137 N146 2.022 . S
Co137 N154 1.993 . S
Co137 O162 1.941 . S
C138 O139 1.258 . S
C138 O140 1.263 . S
O139 Co136 1.970 . S
O139 C138 1.258 . S
O140 Co137 1.966 . S
O140 C138 1.263 . S
C141 O142 1.235 . S
C141 O168 1.289 . S
O142 C141 1.235 . S
C143 C145 1.400 . S
C143 N146 1.351 . S
C143 C148 1.501 . S
C144 C145 1.387 . S
C144 N147 1.341 . S
C145 C143 1.400 . S
C145 C144 1.387 . S
N146 Co137 2.022 . S
N146 C143 1.351 . S
N146 N147 1.365 . S
N147 C144 1.341 . S
N147 N146 1.365 . S
N147 H167 0.862 . S
C148 C143 1.501 . S
C148 H149 0.961 . S
C148 H150 0.961 . S
C148 H151 0.960 . S
H149 C148 0.961 . S
H150 C148 0.961 . S
H151 C148 0.960 . S
C152 N153 1.342 . S
C152 C156 1.401 . S
C152 C157 1.499 . S
N153 Co136 1.989 . S
N153 C152 1.342 . S
N153 N154 1.388 . S
N154 Co137 1.993 . S
N154 N153 1.388 . S
N154 C155 1.346 . S
C155 N154 1.346 . S
C155 C156 1.396 . S
C155 C165 1.510 . S
C156 C152 1.401 . S
C156 C155 1.396 . S
C157 C152 1.499 . S
C157 H158 0.959 . S
C157 H159 0.960 . S
C157 H160 0.961 . S
H158 C157 0.959 . S
H159 C157 0.960 . S
H160 C157 0.961 . S
O161 Co136 1.967 . S
O161 C169 1.258 . S
O162 Co137 1.941 . S
O162 C169 1.266 . S
H163 C165 0.959 . S
H164 C165 0.961 . S
C165 C155 1.510 . S
C165 H163 0.959 . S
C165 H164 0.961 . S
C165 H166 0.960 . S
H166 C165 0.960 . S
H167 N147 0.862 . S
O168 Co136 1.920 . S
O168 C141 1.289 . S
C169 O161 1.258 . S
C169 O162 1.266 . S
Co170 O173 1.970 . S
Co170 N187 1.989 . S
Co170 O195 1.967 . S
Co170 O202 1.920 . S
Co171 O174 1.966 . S
Co171 N180 2.022 . S
Co171 N188 1.993 . S
Co171 O196 1.941 . S
C172 O173 1.258 . S
C172 O174 1.263 . S
O173 Co170 1.970 . S
O173 C172 1.258 . S
O174 Co171 1.966 . S
O174 C172 1.263 . S
C175 O176 1.235 . S
C175 O202 1.289 . S
O176 C175 1.235 . S
C177 C179 1.400 . S
C177 N180 1.351 . S
C177 C182 1.501 . S
C178 C179 1.387 . S
C178 N181 1.341 . S
C179 C177 1.400 . S
C179 C178 1.387 . S
N180 Co171 2.022 . S
N180 C177 1.351 . S
N180 N181 1.365 . S
N181 C178 1.341 . S
N181 N180 1.365 . S
N181 H201 0.862 . S
C182 C177 1.501 . S
C182 H183 0.961 . S
C182 H184 0.961 . S
C182 H185 0.960 . S
H183 C182 0.961 . S
H184 C182 0.961 . S
H185 C182 0.960 . S
C186 N187 1.342 . S
C186 C190 1.401 . S
C186 C191 1.499 . S
N187 Co170 1.989 . S
N187 C186 1.342 . S
N187 N188 1.388 . S
N188 Co171 1.993 . S
N188 N187 1.388 . S
N188 C189 1.346 . S
C189 N188 1.346 . S
C189 C190 1.396 . S
C189 C199 1.510 . S
C190 C186 1.401 . S
C190 C189 1.396 . S
C191 C186 1.499 . S
C191 H192 0.959 . S
C191 H193 0.960 . S
C191 H194 0.961 . S
H192 C191 0.959 . S
H193 C191 0.960 . S
H194 C191 0.961 . S
O195 Co170 1.967 . S
O195 C203 1.258 . S
O196 Co171 1.941 . S
O196 C203 1.266 . S
H197 C199 0.959 . S
H198 C199 0.961 . S
C199 C189 1.510 . S
C199 H197 0.959 . S
C199 H198 0.961 . S
C199 H200 0.960 . S
H200 C199 0.960 . S
H201 N181 0.862 . S
O202 Co170 1.920 . S
O202 C175 1.289 . S
C203 O195 1.258 . S
C203 O196 1.266 . S
Co204 O207 1.970 1_556 S
Co204 N221 1.989 . S
Co204 O229 1.967 1_556 S
Co204 O236 1.920 . S
Co205 O208 1.966 . S
Co205 N214 2.022 . S
Co205 N222 1.993 . S
Co205 O230 1.941 . S
C206 O207 1.258 . S
C206 O208 1.263 . S
O207 Co204 1.970 1_554 S
O207 C206 1.258 . S
O208 Co205 1.966 . S
O208 C206 1.263 . S
C209 O210 1.235 . S
C209 O236 1.289 . S
O210 C209 1.235 . S
C211 C213 1.400 . S
C211 N214 1.351 . S
C211 C216 1.501 . S
C212 C213 1.387 . S
C212 N215 1.341 . S
C213 C211 1.400 . S
C213 C212 1.387 . S
N214 Co205 2.022 . S
N214 C211 1.351 . S
N214 N215 1.365 . S
N215 C212 1.341 . S
N215 N214 1.365 . S
N215 H235 0.862 . S
C216 C211 1.501 . S
C216 H217 0.961 . S
C216 H218 0.961 . S
C216 H219 0.960 . S
H217 C216 0.961 . S
H218 C216 0.961 . S
H219 C216 0.960 . S
C220 N221 1.342 . S
C220 C224 1.401 . S
C220 C225 1.499 . S
N221 Co204 1.989 . S
N221 C220 1.342 . S
N221 N222 1.388 1_556 S
N222 Co205 1.993 . S
N222 N221 1.388 1_554 S
N222 C223 1.346 1_554 S
C223 N222 1.346 1_556 S
C223 C224 1.396 . S
C223 C233 1.510 1_556 S
C224 C220 1.401 . S
C224 C223 1.396 . S
C225 C220 1.499 . S
C225 H226 0.959 . S
C225 H227 0.960 . S
C225 H228 0.961 . S
H226 C225 0.959 . S
H227 C225 0.960 . S
H228 C225 0.961 . S
O229 Co204 1.967 1_554 S
O229 C237 1.258 . S
O230 Co205 1.941 . S
O230 C237 1.266 . S
H231 C233 0.959 . S
H232 C233 0.961 . S
C233 C223 1.510 1_554 S
C233 H231 0.959 . S
C233 H232 0.961 . S
C233 H234 0.960 . S
H234 C233 0.960 . S
H235 N215 0.862 . S
O236 Co204 1.920 . S
O236 C209 1.289 . S
C237 O229 1.258 . S
C237 O230 1.266 . S
Co238 O241 1.970 1_556 S
Co238 N255 1.989 . S
Co238 O263 1.967 1_556 S
Co238 O270 1.920 . S
Co239 O242 1.966 . S
Co239 N248 2.022 . S
Co239 N256 1.993 . S
Co239 O264 1.941 . S
C240 O241 1.258 . S
C240 O242 1.263 . S
O241 Co238 1.970 1_554 S
O241 C240 1.258 . S
O242 Co239 1.966 . S
O242 C240 1.263 . S
C243 O244 1.235 . S
C243 O270 1.289 . S
O244 C243 1.235 . S
C245 C247 1.400 . S
C245 N248 1.351 . S
C245 C250 1.501 . S
C246 C247 1.387 . S
C246 N249 1.341 . S
C247 C245 1.400 . S
C247 C246 1.387 . S
N248 Co239 2.022 . S
N248 C245 1.351 . S
N248 N249 1.365 . S
N249 C246 1.341 . S
N249 N248 1.365 . S
N249 H269 0.862 . S
C250 C245 1.501 . S
C250 H251 0.961 . S
C250 H252 0.961 . S
C250 H253 0.960 . S
H251 C250 0.961 . S
H252 C250 0.961 . S
H253 C250 0.960 . S
C254 N255 1.342 . S
C254 C258 1.401 . S
C254 C259 1.499 . S
N255 Co238 1.989 . S
N255 C254 1.342 . S
N255 N256 1.388 1_556 S
N256 Co239 1.993 . S
N256 N255 1.388 1_554 S
N256 C257 1.346 1_554 S
C257 N256 1.346 1_556 S
C257 C258 1.396 . S
C257 C267 1.510 1_556 S
C258 C254 1.401 . S
C258 C257 1.396 . S
C259 C254 1.499 . S
C259 H260 0.959 . S
C259 H261 0.960 . S
C259 H262 0.961 . S
H260 C259 0.959 . S
H261 C259 0.960 . S
H262 C259 0.961 . S
O263 Co238 1.967 1_554 S
O263 C271 1.258 . S
O264 Co239 1.941 . S
O264 C271 1.266 . S
H265 C267 0.959 . S
H266 C267 0.961 . S
C267 C257 1.510 1_554 S
C267 H265 0.959 . S
C267 H266 0.961 . S
C267 H268 0.960 . S
H268 C267 0.960 . S
H269 N249 0.862 . S
O270 Co238 1.920 . S
O270 C243 1.289 . S
C271 O263 1.258 . S
C271 O264 1.266 . S
Co272 O275 1.970 1_556 S
Co272 N289 1.989 . S
Co272 O297 1.967 1_556 S
Co272 O304 1.920 . S
Co273 O276 1.966 . S
Co273 N282 2.022 . S
Co273 N290 1.993 . S
Co273 O298 1.941 . S
C274 O275 1.258 . S
C274 O276 1.263 . S
O275 Co272 1.970 1_554 S
O275 C274 1.258 . S
O276 Co273 1.966 . S
O276 C274 1.263 . S
C277 O278 1.235 . S
C277 O304 1.289 . S
O278 C277 1.235 . S
C279 C281 1.400 . S
C279 N282 1.351 . S
C279 C284 1.501 . S
C280 C281 1.387 . S
C280 N283 1.341 . S
C281 C279 1.400 . S
C281 C280 1.387 . S
N282 Co273 2.022 . S
N282 C279 1.351 . S
N282 N283 1.365 . S
N283 C280 1.341 . S
N283 N282 1.365 . S
N283 H303 0.862 . S
C284 C279 1.501 . S
C284 H285 0.961 . S
C284 H286 0.961 . S
C284 H287 0.960 . S
H285 C284 0.961 . S
H286 C284 0.961 . S
H287 C284 0.960 . S
C288 N289 1.342 . S
C288 C292 1.401 . S
C288 C293 1.499 . S
N289 Co272 1.989 . S
N289 C288 1.342 . S
N289 N290 1.388 1_556 S
N290 Co273 1.993 . S
N290 N289 1.388 1_554 S
N290 C291 1.346 1_554 S
C291 N290 1.346 1_556 S
C291 C292 1.396 . S
C291 C301 1.510 1_556 S
C292 C288 1.401 . S
C292 C291 1.396 . S
C293 C288 1.499 . S
C293 H294 0.959 . S
C293 H295 0.960 . S
C293 H296 0.961 . S
H294 C293 0.959 . S
H295 C293 0.960 . S
H296 C293 0.961 . S
O297 Co272 1.967 1_554 S
O297 C305 1.258 . S
O298 Co273 1.941 . S
O298 C305 1.266 . S
H299 C301 0.959 . S
H300 C301 0.961 . S
C301 C291 1.510 1_554 S
C301 H299 0.959 . S
C301 H300 0.961 . S
C301 H302 0.960 . S
H302 C301 0.960 . S
H303 N283 0.862 . S
O304 Co272 1.920 . S
O304 C277 1.289 . S
C305 O297 1.258 . S
C305 O298 1.266 . S
Co306 O309 1.970 . S
Co306 N323 1.989 . S
Co306 O331 1.967 . S
Co306 O338 1.920 . S
Co307 O310 1.966 . S
Co307 N316 2.022 . S
Co307 N324 1.993 . S
Co307 O332 1.941 . S
C308 O309 1.258 . S
C308 O310 1.263 . S
O309 Co306 1.970 . S
O309 C308 1.258 . S
O310 Co307 1.966 . S
O310 C308 1.263 . S
C311 O312 1.235 . S
C311 O338 1.289 . S
O312 C311 1.235 . S
C313 C315 1.400 . S
C313 N316 1.351 . S
C313 C318 1.501 . S
C314 C315 1.387 . S
C314 N317 1.341 . S
C315 C313 1.400 . S
C315 C314 1.387 . S
N316 Co307 2.022 . S
N316 C313 1.351 . S
N316 N317 1.365 . S
N317 C314 1.341 . S
N317 N316 1.365 . S
N317 H337 0.862 . S
C318 C313 1.501 . S
C318 H319 0.961 . S
C318 H320 0.961 . S
C318 H321 0.960 . S
H319 C318 0.961 . S
H320 C318 0.961 . S
H321 C318 0.960 . S
C322 N323 1.342 . S
C322 C326 1.401 . S
C322 C327 1.499 . S
N323 Co306 1.989 . S
N323 C322 1.342 . S
N323 N324 1.388 . S
N324 Co307 1.993 . S
N324 N323 1.388 . S
N324 C325 1.346 . S
C325 N324 1.346 . S
C325 C326 1.396 . S
C325 C335 1.510 . S
C326 C322 1.401 . S
C326 C325 1.396 . S
C327 C322 1.499 . S
C327 H328 0.959 . S
C327 H329 0.960 . S
C327 H330 0.961 . S
H328 C327 0.959 . S
H329 C327 0.960 . S
H330 C327 0.961 . S
O331 Co306 1.967 . S
O331 C339 1.258 . S
O332 Co307 1.941 . S
O332 C339 1.266 . S
H333 C335 0.959 . S
H334 C335 0.961 . S
C335 C325 1.510 . S
C335 H333 0.959 . S
C335 H334 0.961 . S
C335 H336 0.960 . S
H336 C335 0.960 . S
H337 N317 0.862 . S
O338 Co306 1.920 . S
O338 C311 1.289 . S
C339 O331 1.258 . S
C339 O332 1.266 . S
Co340 O343 1.970 . S
Co340 N357 1.989 . S
Co340 O365 1.967 . S
Co340 O372 1.920 . S
Co341 O344 1.966 . S
Co341 N350 2.022 . S
Co341 N358 1.993 . S
Co341 O366 1.941 . S
C342 O343 1.258 . S
C342 O344 1.263 . S
O343 Co340 1.970 . S
O343 C342 1.258 . S
O344 Co341 1.966 . S
O344 C342 1.263 . S
C345 O346 1.235 . S
C345 O372 1.289 . S
O346 C345 1.235 . S
C347 C349 1.400 . S
C347 N350 1.351 . S
C347 C352 1.501 . S
C348 C349 1.387 . S
C348 N351 1.341 . S
C349 C347 1.400 . S
C349 C348 1.387 . S
N350 Co341 2.022 . S
N350 C347 1.351 . S
N350 N351 1.365 . S
N351 C348 1.341 . S
N351 N350 1.365 . S
N351 H371 0.862 . S
C352 C347 1.501 . S
C352 H353 0.961 . S
C352 H354 0.961 . S
C352 H355 0.960 . S
H353 C352 0.961 . S
H354 C352 0.961 . S
H355 C352 0.960 . S
C356 N357 1.342 . S
C356 C360 1.401 . S
C356 C361 1.499 . S
N357 Co340 1.989 . S
N357 C356 1.342 . S
N357 N358 1.388 . S
N358 Co341 1.993 . S
N358 N357 1.388 . S
N358 C359 1.346 . S
C359 N358 1.346 . S
C359 C360 1.396 . S
C359 C369 1.510 . S
C360 C356 1.401 . S
C360 C359 1.396 . S
C361 C356 1.499 . S
C361 H362 0.959 . S
C361 H363 0.960 . S
C361 H364 0.961 . S
H362 C361 0.959 . S
H363 C361 0.960 . S
H364 C361 0.961 . S
O365 Co340 1.967 . S
O365 C373 1.258 . S
O366 Co341 1.941 . S
O366 C373 1.266 . S
H367 C369 0.959 . S
H368 C369 0.961 . S
C369 C359 1.510 . S
C369 H367 0.959 . S
C369 H368 0.961 . S
C369 H370 0.960 . S
H370 C369 0.960 . S
H371 N351 0.862 . S
O372 Co340 1.920 . S
O372 C345 1.289 . S
C373 O365 1.258 . S
C373 O366 1.266 . S
Co374 O377 1.970 . S
Co374 N391 1.989 . S
Co374 O399 1.967 . S
Co374 O406 1.920 . S
Co375 O378 1.966 . S
Co375 N384 2.022 . S
Co375 N392 1.993 . S
Co375 O400 1.941 . S
C376 O377 1.258 . S
C376 O378 1.263 . S
O377 Co374 1.970 . S
O377 C376 1.258 . S
O378 Co375 1.966 . S
O378 C376 1.263 . S
C379 O380 1.235 . S
C379 O406 1.289 . S
O380 C379 1.235 . S
C381 C383 1.400 . S
C381 N384 1.351 . S
C381 C386 1.501 . S
C382 C383 1.387 . S
C382 N385 1.341 . S
C383 C381 1.400 . S
C383 C382 1.387 . S
N384 Co375 2.022 . S
N384 C381 1.351 . S
N384 N385 1.365 . S
N385 C382 1.341 . S
N385 N384 1.365 . S
N385 H405 0.862 . S
C386 C381 1.501 . S
C386 H387 0.961 . S
C386 H388 0.961 . S
C386 H389 0.960 . S
H387 C386 0.961 . S
H388 C386 0.961 . S
H389 C386 0.960 . S
C390 N391 1.342 . S
C390 C394 1.401 . S
C390 C395 1.499 . S
N391 Co374 1.989 . S
N391 C390 1.342 . S
N391 N392 1.388 . S
N392 Co375 1.993 . S
N392 N391 1.388 . S
N392 C393 1.346 . S
C393 N392 1.346 . S
C393 C394 1.396 . S
C393 C403 1.510 . S
C394 C390 1.401 . S
C394 C393 1.396 . S
C395 C390 1.499 . S
C395 H396 0.959 . S
C395 H397 0.960 . S
C395 H398 0.961 . S
H396 C395 0.959 . S
H397 C395 0.960 . S
H398 C395 0.961 . S
O399 Co374 1.967 . S
O399 C407 1.258 . S
O400 Co375 1.941 . S
O400 C407 1.266 . S
H401 C403 0.959 . S
H402 C403 0.961 . S
C403 C393 1.510 . S
C403 H401 0.959 . S
C403 H402 0.961 . S
C403 H404 0.960 . S
H404 C403 0.960 . S
H405 N385 0.862 . S
O406 Co374 1.920 . S
O406 C379 1.289 . S
C407 O399 1.258 . S
C407 O400 1.266 . S
Co408 O411 1.970 . S
Co408 N425 1.989 . S
Co408 O433 1.967 . S
Co408 O440 1.920 . S
Co409 O412 1.966 . S
Co409 N418 2.022 . S
Co409 N426 1.993 . S
Co409 O434 1.941 . S
C410 O411 1.258 . S
C410 O412 1.263 . S
O411 Co408 1.970 . S
O411 C410 1.258 . S
O412 Co409 1.966 . S
O412 C410 1.263 . S
C413 O414 1.235 . S
C413 O440 1.289 . S
O414 C413 1.235 . S
C415 C417 1.400 . S
C415 N418 1.351 . S
C415 C420 1.501 . S
C416 C417 1.387 . S
C416 N419 1.341 . S
C417 C415 1.400 . S
C417 C416 1.387 . S
N418 Co409 2.022 . S
N418 C415 1.351 . S
N418 N419 1.365 . S
N419 C416 1.341 . S
N419 N418 1.365 . S
N419 H439 0.862 . S
C420 C415 1.501 . S
C420 H421 0.961 . S
C420 H422 0.961 . S
C420 H423 0.960 . S
H421 C420 0.961 . S
H422 C420 0.961 . S
H423 C420 0.960 . S
C424 N425 1.342 . S
C424 C428 1.401 . S
C424 C429 1.499 . S
N425 Co408 1.989 . S
N425 C424 1.342 . S
N425 N426 1.388 . S
N426 Co409 1.993 . S
N426 N425 1.388 . S
N426 C427 1.346 . S
C427 N426 1.346 . S
C427 C428 1.396 . S
C427 C437 1.510 . S
C428 C424 1.401 . S
C428 C427 1.396 . S
C429 C424 1.499 . S
C429 H430 0.959 . S
C429 H431 0.960 . S
C429 H432 0.961 . S
H430 C429 0.959 . S
H431 C429 0.960 . S
H432 C429 0.961 . S
O433 Co408 1.967 . S
O433 C441 1.258 . S
O434 Co409 1.941 . S
O434 C441 1.266 . S
H435 C437 0.959 . S
H436 C437 0.961 . S
C437 C427 1.510 . S
C437 H435 0.959 . S
C437 H436 0.961 . S
C437 H438 0.960 . S
H438 C437 0.960 . S
H439 N419 0.862 . S
O440 Co408 1.920 . S
O440 C413 1.289 . S
C441 O433 1.258 . S
C441 O434 1.266 . S
Co442 O445 1.970 . S
Co442 N459 1.989 . S
Co442 O467 1.967 . S
Co442 O474 1.920 . S
Co443 O446 1.966 . S
Co443 N452 2.022 . S
Co443 N460 1.993 . S
Co443 O468 1.941 . S
C444 O445 1.258 . S
C444 O446 1.263 . S
O445 Co442 1.970 . S
O445 C444 1.258 . S
O446 Co443 1.966 . S
O446 C444 1.263 . S
C447 O448 1.235 . S
C447 O474 1.289 . S
O448 C447 1.235 . S
C449 C451 1.400 . S
C449 N452 1.351 . S
C449 C454 1.501 . S
C450 C451 1.387 . S
C450 N453 1.341 . S
C451 C449 1.400 . S
C451 C450 1.387 . S
N452 Co443 2.022 . S
N452 C449 1.351 . S
N452 N453 1.365 . S
N453 C450 1.341 . S
N453 N452 1.365 . S
N453 H473 0.862 . S
C454 C449 1.501 . S
C454 H455 0.961 . S
C454 H456 0.961 . S
C454 H457 0.960 . S
H455 C454 0.961 . S
H456 C454 0.961 . S
H457 C454 0.960 . S
C458 N459 1.342 . S
C458 C462 1.401 . S
C458 C463 1.499 . S
N459 Co442 1.989 . S
N459 C458 1.342 . S
N459 N460 1.388 . S
N460 Co443 1.993 . S
N460 N459 1.388 . S
N460 C461 1.346 . S
C461 N460 1.346 . S
C461 C462 1.396 . S
C461 C471 1.510 . S
C462 C458 1.401 . S
C462 C461 1.396 . S
C463 C458 1.499 . S
C463 H464 0.959 . S
C463 H465 0.960 . S
C463 H466 0.961 . S
H464 C463 0.959 . S
H465 C463 0.960 . S
H466 C463 0.961 . S
O467 Co442 1.967 . S
O467 C475 1.258 . S
O468 Co443 1.941 . S
O468 C475 1.266 . S
H469 C471 0.959 . S
H470 C471 0.961 . S
C471 C461 1.510 . S
C471 H469 0.959 . S
C471 H470 0.961 . S
C471 H472 0.960 . S
H472 C471 0.960 . S
H473 N453 0.862 . S
O474 Co442 1.920 . S
O474 C447 1.289 . S
C475 O467 1.258 . S
C475 O468 1.266 . S
Co476 O479 1.970 . S
Co476 N493 1.989 . S
Co476 O501 1.967 . S
Co476 O508 1.920 . S
Co477 O480 1.966 . S
Co477 N486 2.022 . S
Co477 N494 1.993 . S
Co477 O502 1.941 . S
C478 O479 1.258 . S
C478 O480 1.263 . S
O479 Co476 1.970 . S
O479 C478 1.258 . S
O480 Co477 1.966 . S
O480 C478 1.263 . S
C481 O482 1.235 . S
C481 O508 1.289 . S
O482 C481 1.235 . S
C483 C485 1.400 . S
C483 N486 1.351 . S
C483 C488 1.501 . S
C484 C485 1.387 . S
C484 N487 1.341 . S
C485 C483 1.400 . S
C485 C484 1.387 . S
N486 Co477 2.022 . S
N486 C483 1.351 . S
N486 N487 1.365 . S
N487 C484 1.341 . S
N487 N486 1.365 . S
N487 H507 0.862 . S
C488 C483 1.501 . S
C488 H489 0.961 . S
C488 H490 0.961 . S
C488 H491 0.960 . S
H489 C488 0.961 . S
H490 C488 0.961 . S
H491 C488 0.960 . S
C492 N493 1.342 . S
C492 C496 1.401 . S
C492 C497 1.499 . S
N493 Co476 1.989 . S
N493 C492 1.342 . S
N493 N494 1.388 . S
N494 Co477 1.993 . S
N494 N493 1.388 . S
N494 C495 1.346 . S
C495 N494 1.346 . S
C495 C496 1.396 . S
C495 C505 1.510 . S
C496 C492 1.401 . S
C496 C495 1.396 . S
C497 C492 1.499 . S
C497 H498 0.959 . S
C497 H499 0.960 . S
C497 H500 0.961 . S
H498 C497 0.959 . S
H499 C497 0.960 . S
H500 C497 0.961 . S
O501 Co476 1.967 . S
O501 C509 1.258 . S
O502 Co477 1.941 . S
O502 C509 1.266 . S
H503 C505 0.959 . S
H504 C505 0.961 . S
C505 C495 1.510 . S
C505 H503 0.959 . S
C505 H504 0.961 . S
C505 H506 0.960 . S
H506 C505 0.960 . S
H507 N487 0.862 . S
O508 Co476 1.920 . S
O508 C481 1.289 . S
C509 O501 1.258 . S
C509 O502 1.266 . S
Co510 O513 1.970 . S
Co510 N527 1.989 . S
Co510 O535 1.967 . S
Co510 O542 1.920 . S
Co511 O514 1.966 . S
Co511 N520 2.022 . S
Co511 N528 1.993 . S
Co511 O536 1.941 . S
C512 O513 1.258 . S
C512 O514 1.263 . S
O513 Co510 1.970 . S
O513 C512 1.258 . S
O514 Co511 1.966 . S
O514 C512 1.263 . S
C515 O516 1.235 . S
C515 O542 1.289 . S
O516 C515 1.235 . S
C517 C519 1.400 . S
C517 N520 1.351 1_554 S
C517 C522 1.501 . S
C518 C519 1.387 1_556 S
C518 N521 1.341 . S
C519 C517 1.400 . S
C519 C518 1.387 1_554 S
N520 Co511 2.022 . S
N520 C517 1.351 1_556 S
N520 N521 1.365 . S
N521 C518 1.341 . S
N521 N520 1.365 . S
N521 H541 0.862 . S
C522 C517 1.501 . S
C522 H523 0.961 . S
C522 H524 0.961 . S
C522 H525 0.960 . S
H523 C522 0.961 . S
H524 C522 0.961 . S
H525 C522 0.960 . S
C526 N527 1.342 . S
C526 C530 1.401 . S
C526 C531 1.499 . S
N527 Co510 1.989 . S
N527 C526 1.342 . S
N527 N528 1.388 . S
N528 Co511 1.993 . S
N528 N527 1.388 . S
N528 C529 1.346 . S
C529 N528 1.346 . S
C529 C530 1.396 . S
C529 C539 1.510 . S
C530 C526 1.401 . S
C530 C529 1.396 . S
C531 C526 1.499 . S
C531 H532 0.959 . S
C531 H533 0.960 . S
C531 H534 0.961 . S
H532 C531 0.959 . S
H533 C531 0.960 . S
H534 C531 0.961 . S
O535 Co510 1.967 . S
O535 C543 1.258 . S
O536 Co511 1.941 . S
O536 C543 1.266 . S
H537 C539 0.959 . S
H538 C539 0.961 . S
C539 C529 1.510 . S
C539 H537 0.959 . S
C539 H538 0.961 . S
C539 H540 0.960 . S
H540 C539 0.960 . S
H541 N521 0.862 . S
O542 Co510 1.920 . S
O542 C515 1.289 . S
C543 O535 1.258 . S
C543 O536 1.266 . S
Co544 O547 1.970 . S
Co544 N561 1.989 . S
Co544 O569 1.967 . S
Co544 O576 1.920 . S
Co545 O548 1.966 . S
Co545 N554 2.022 . S
Co545 N562 1.993 . S
Co545 O570 1.941 . S
C546 O547 1.258 . S
C546 O548 1.263 . S
O547 Co544 1.970 . S
O547 C546 1.258 . S
O548 Co545 1.966 . S
O548 C546 1.263 . S
C549 O550 1.235 . S
C549 O576 1.289 . S
O550 C549 1.235 . S
C551 C553 1.400 . S
C551 N554 1.351 1_554 S
C551 C556 1.501 . S
C552 C553 1.387 1_556 S
C552 N555 1.341 . S
C553 C551 1.400 . S
C553 C552 1.387 1_554 S
N554 Co545 2.022 . S
N554 C551 1.351 1_556 S
N554 N555 1.365 . S
N555 C552 1.341 . S
N555 N554 1.365 . S
N555 H575 0.862 . S
C556 C551 1.501 . S
C556 H557 0.961 . S
C556 H558 0.961 . S
C556 H559 0.960 . S
H557 C556 0.961 . S
H558 C556 0.961 . S
H559 C556 0.960 . S
C560 N561 1.342 . S
C560 C564 1.401 . S
C560 C565 1.499 . S
N561 Co544 1.989 . S
N561 C560 1.342 . S
N561 N562 1.388 . S
N562 Co545 1.993 . S
N562 N561 1.388 . S
N562 C563 1.346 . S
C563 N562 1.346 . S
C563 C564 1.396 . S
C563 C573 1.510 . S
C564 C560 1.401 . S
C564 C563 1.396 . S
C565 C560 1.499 . S
C565 H566 0.959 . S
C565 H567 0.960 . S
C565 H568 0.961 . S
H566 C565 0.959 . S
H567 C565 0.960 . S
H568 C565 0.961 . S
O569 Co544 1.967 . S
O569 C577 1.258 . S
O570 Co545 1.941 . S
O570 C577 1.266 . S
H571 C573 0.959 . S
H572 C573 0.961 . S
C573 C563 1.510 . S
C573 H571 0.959 . S
C573 H572 0.961 . S
C573 H574 0.960 . S
H574 C573 0.960 . S
H575 N555 0.862 . S
O576 Co544 1.920 . S
O576 C549 1.289 . S
C577 O569 1.258 . S
C577 O570 1.266 . S
Co578 O581 1.970 . S
Co578 N595 1.989 . S
Co578 O603 1.967 . S
Co578 O610 1.920 . S
Co579 O582 1.966 . S
Co579 N588 2.022 . S
Co579 N596 1.993 . S
Co579 O604 1.941 . S
C580 O581 1.258 . S
C580 O582 1.263 . S
O581 Co578 1.970 . S
O581 C580 1.258 . S
O582 Co579 1.966 . S
O582 C580 1.263 . S
C583 O584 1.235 . S
C583 O610 1.289 . S
O584 C583 1.235 . S
C585 C587 1.400 . S
C585 N588 1.351 1_554 S
C585 C590 1.501 . S
C586 C587 1.387 1_556 S
C586 N589 1.341 . S
C587 C585 1.400 . S
C587 C586 1.387 1_554 S
N588 Co579 2.022 . S
N588 C585 1.351 1_556 S
N588 N589 1.365 . S
N589 C586 1.341 . S
N589 N588 1.365 . S
N589 H609 0.862 . S
C590 C585 1.501 . S
C590 H591 0.961 . S
C590 H592 0.961 . S
C590 H593 0.960 . S
H591 C590 0.961 . S
H592 C590 0.961 . S
H593 C590 0.960 . S
C594 N595 1.342 . S
C594 C598 1.401 . S
C594 C599 1.499 . S
N595 Co578 1.989 . S
N595 C594 1.342 . S
N595 N596 1.388 . S
N596 Co579 1.993 . S
N596 N595 1.388 . S
N596 C597 1.346 . S
C597 N596 1.346 . S
C597 C598 1.396 . S
C597 C607 1.510 . S
C598 C594 1.401 . S
C598 C597 1.396 . S
C599 C594 1.499 . S
C599 H600 0.959 . S
C599 H601 0.960 . S
C599 H602 0.961 . S
H600 C599 0.959 . S
H601 C599 0.960 . S
H602 C599 0.961 . S
O603 Co578 1.967 . S
O603 C611 1.258 . S
O604 Co579 1.941 . S
O604 C611 1.266 . S
H605 C607 0.959 . S
H606 C607 0.961 . S
C607 C597 1.510 . S
C607 H605 0.959 . S
C607 H606 0.961 . S
C607 H608 0.960 . S
H608 C607 0.960 . S
H609 N589 0.862 . S
O610 Co578 1.920 . S
O610 C583 1.289 . S
C611 O603 1.258 . S
C611 O604 1.266 . S
Co612 O615 1.970 . S
Co612 N629 1.989 . S
Co612 O637 1.967 . S
Co612 O644 1.920 . S
Co613 O616 1.966 . S
Co613 N622 2.022 . S
Co613 N630 1.993 . S
Co613 O638 1.941 . S
C614 O615 1.258 . S
C614 O616 1.263 . S
O615 Co612 1.970 . S
O615 C614 1.258 . S
O616 Co613 1.966 . S
O616 C614 1.263 . S
C617 O618 1.235 . S
C617 O644 1.289 . S
O618 C617 1.235 . S
C619 C621 1.400 . S
C619 N622 1.351 . S
C619 C624 1.501 . S
C620 C621 1.387 . S
C620 N623 1.341 . S
C621 C619 1.400 . S
C621 C620 1.387 . S
N622 Co613 2.022 . S
N622 C619 1.351 . S
N622 N623 1.365 . S
N623 C620 1.341 . S
N623 N622 1.365 . S
N623 H643 0.862 . S
C624 C619 1.501 . S
C624 H625 0.961 . S
C624 H626 0.961 . S
C624 H627 0.960 . S
H625 C624 0.961 . S
H626 C624 0.961 . S
H627 C624 0.960 . S
C628 N629 1.342 . S
C628 C632 1.401 . S
C628 C633 1.499 . S
N629 Co612 1.989 . S
N629 C628 1.342 . S
N629 N630 1.388 . S
N630 Co613 1.993 . S
N630 N629 1.388 . S
N630 C631 1.346 . S
C631 N630 1.346 . S
C631 C632 1.396 . S
C631 C641 1.510 . S
C632 C628 1.401 . S
C632 C631 1.396 . S
C633 C628 1.499 . S
C633 H634 0.959 . S
C633 H635 0.960 . S
C633 H636 0.961 . S
H634 C633 0.959 . S
H635 C633 0.960 . S
H636 C633 0.961 . S
O637 Co612 1.967 . S
O637 C645 1.258 . S
O638 Co613 1.941 . S
O638 C645 1.266 . S
H639 C641 0.959 . S
H640 C641 0.961 . S
C641 C631 1.510 . S
C641 H639 0.959 . S
C641 H640 0.961 . S
C641 H642 0.960 . S
H642 C641 0.960 . S
H643 N623 0.862 . S
O644 Co612 1.920 . S
O644 C617 1.289 . S
C645 O637 1.258 . S
C645 O638 1.266 . S
Co646 O649 1.970 . S
Co646 N663 1.989 . S
Co646 O671 1.967 . S
Co646 O678 1.920 . S
Co647 O650 1.966 . S
Co647 N656 2.022 . S
Co647 N664 1.993 . S
Co647 O672 1.941 . S
C648 O649 1.258 . S
C648 O650 1.263 . S
O649 Co646 1.970 . S
O649 C648 1.258 . S
O650 Co647 1.966 . S
O650 C648 1.263 . S
C651 O652 1.235 . S
C651 O678 1.289 . S
O652 C651 1.235 . S
C653 C655 1.400 . S
C653 N656 1.351 . S
C653 C658 1.501 . S
C654 C655 1.387 . S
C654 N657 1.341 . S
C655 C653 1.400 . S
C655 C654 1.387 . S
N656 Co647 2.022 . S
N656 C653 1.351 . S
N656 N657 1.365 . S
N657 C654 1.341 . S
N657 N656 1.365 . S
N657 H677 0.862 . S
C658 C653 1.501 . S
C658 H659 0.961 . S
C658 H660 0.961 . S
C658 H661 0.960 . S
H659 C658 0.961 . S
H660 C658 0.961 . S
H661 C658 0.960 . S
C662 N663 1.342 . S
C662 C666 1.401 . S
C662 C667 1.499 . S
N663 Co646 1.989 . S
N663 C662 1.342 . S
N663 N664 1.388 . S
N664 Co647 1.993 . S
N664 N663 1.388 . S
N664 C665 1.346 . S
C665 N664 1.346 . S
C665 C666 1.396 . S
C665 C675 1.510 . S
C666 C662 1.401 . S
C666 C665 1.396 . S
C667 C662 1.499 . S
C667 H668 0.959 . S
C667 H669 0.960 . S
C667 H670 0.961 . S
H668 C667 0.959 . S
H669 C667 0.960 . S
H670 C667 0.961 . S
O671 Co646 1.967 . S
O671 C679 1.258 . S
O672 Co647 1.941 . S
O672 C679 1.266 . S
H673 C675 0.959 . S
H674 C675 0.961 . S
C675 C665 1.510 . S
C675 H673 0.959 . S
C675 H674 0.961 . S
C675 H676 0.960 . S
H676 C675 0.960 . S
H677 N657 0.862 . S
O678 Co646 1.920 . S
O678 C651 1.289 . S
C679 O671 1.258 . S
C679 O672 1.266 . S
Co680 O683 1.970 . S
Co680 N697 1.989 . S
Co680 O705 1.967 . S
Co680 O712 1.920 . S
Co681 O684 1.966 . S
Co681 N690 2.022 . S
Co681 N698 1.993 . S
Co681 O706 1.941 . S
C682 O683 1.258 . S
C682 O684 1.263 . S
O683 Co680 1.970 . S
O683 C682 1.258 . S
O684 Co681 1.966 . S
O684 C682 1.263 . S
C685 O686 1.235 . S
C685 O712 1.289 . S
O686 C685 1.235 . S
C687 C689 1.400 . S
C687 N690 1.351 . S
C687 C692 1.501 . S
C688 C689 1.387 . S
C688 N691 1.341 . S
C689 C687 1.400 . S
C689 C688 1.387 . S
N690 Co681 2.022 . S
N690 C687 1.351 . S
N690 N691 1.365 . S
N691 C688 1.341 . S
N691 N690 1.365 . S
N691 H711 0.862 . S
C692 C687 1.501 . S
C692 H693 0.961 . S
C692 H694 0.961 . S
C692 H695 0.960 . S
H693 C692 0.961 . S
H694 C692 0.961 . S
H695 C692 0.960 . S
C696 N697 1.342 . S
C696 C700 1.401 . S
C696 C701 1.499 . S
N697 Co680 1.989 . S
N697 C696 1.342 . S
N697 N698 1.388 . S
N698 Co681 1.993 . S
N698 N697 1.388 . S
N698 C699 1.346 . S
C699 N698 1.346 . S
C699 C700 1.396 . S
C699 C709 1.510 . S
C700 C696 1.401 . S
C700 C699 1.396 . S
C701 C696 1.499 . S
C701 H702 0.959 . S
C701 H703 0.960 . S
C701 H704 0.961 . S
H702 C701 0.959 . S
H703 C701 0.960 . S
H704 C701 0.961 . S
O705 Co680 1.967 . S
O705 C713 1.258 . S
O706 Co681 1.941 . S
O706 C713 1.266 . S
H707 C709 0.959 . S
H708 C709 0.961 . S
C709 C699 1.510 . S
C709 H707 0.959 . S
C709 H708 0.961 . S
C709 H710 0.960 . S
H710 C709 0.960 . S
H711 N691 0.862 . S
O712 Co680 1.920 . S
O712 C685 1.289 . S
C713 O705 1.258 . S
C713 O706 1.266 . S
Co714 O717 1.970 . S
Co714 N731 1.989 . S
Co714 O739 1.967 . S
Co714 O746 1.920 1_556 S
Co715 O718 1.966 . S
Co715 N724 2.022 . S
Co715 N732 1.993 . S
Co715 O740 1.941 . S
C716 O717 1.258 . S
C716 O718 1.263 . S
O717 Co714 1.970 . S
O717 C716 1.258 . S
O718 Co715 1.966 . S
O718 C716 1.263 . S
C719 O720 1.235 . S
C719 O746 1.289 . S
O720 C719 1.235 . S
C721 C723 1.400 . S
C721 N724 1.351 . S
C721 C726 1.501 . S
C722 C723 1.387 . S
C722 N725 1.341 . S
C723 C721 1.400 . S
C723 C722 1.387 . S
N724 Co715 2.022 . S
N724 C721 1.351 . S
N724 N725 1.365 . S
N725 C722 1.341 . S
N725 N724 1.365 . S
N725 H745 0.862 . S
C726 C721 1.501 . S
C726 H727 0.961 . S
C726 H728 0.961 . S
C726 H729 0.960 . S
H727 C726 0.961 . S
H728 C726 0.961 . S
H729 C726 0.960 . S
C730 N731 1.342 1_554 S
C730 C734 1.401 . S
C730 C735 1.499 . S
N731 Co714 1.989 . S
N731 C730 1.342 1_556 S
N731 N732 1.388 . S
N732 Co715 1.993 . S
N732 N731 1.388 . S
N732 C733 1.346 . S
C733 N732 1.346 . S
C733 C734 1.396 1_556 S
C733 C743 1.510 . S
C734 C730 1.401 . S
C734 C733 1.396 1_554 S
C735 C730 1.499 . S
C735 H736 0.959 . S
C735 H737 0.960 . S
C735 H738 0.961 . S
H736 C735 0.959 . S
H737 C735 0.960 . S
H738 C735 0.961 . S
O739 Co714 1.967 . S
O739 C747 1.258 . S
O740 Co715 1.941 . S
O740 C747 1.266 . S
H741 C743 0.959 . S
H742 C743 0.961 . S
C743 C733 1.510 . S
C743 H741 0.959 . S
C743 H742 0.961 . S
C743 H744 0.960 . S
H744 C743 0.960 . S
H745 N725 0.862 . S
O746 Co714 1.920 1_554 S
O746 C719 1.289 . S
C747 O739 1.258 . S
C747 O740 1.266 . S
Co748 O751 1.970 . S
Co748 N765 1.989 . S
Co748 O773 1.967 . S
Co748 O780 1.920 1_556 S
Co749 O752 1.966 . S
Co749 N758 2.022 . S
Co749 N766 1.993 . S
Co749 O774 1.941 . S
C750 O751 1.258 . S
C750 O752 1.263 . S
O751 Co748 1.970 . S
O751 C750 1.258 . S
O752 Co749 1.966 . S
O752 C750 1.263 . S
C753 O754 1.235 . S
C753 O780 1.289 . S
O754 C753 1.235 . S
C755 C757 1.400 . S
C755 N758 1.351 . S
C755 C760 1.501 . S
C756 C757 1.387 . S
C756 N759 1.341 . S
C757 C755 1.400 . S
C757 C756 1.387 . S
N758 Co749 2.022 . S
N758 C755 1.351 . S
N758 N759 1.365 . S
N759 C756 1.341 . S
N759 N758 1.365 . S
N759 H779 0.862 . S
C760 C755 1.501 . S
C760 H761 0.961 . S
C760 H762 0.961 . S
C760 H763 0.960 . S
H761 C760 0.961 . S
H762 C760 0.961 . S
H763 C760 0.960 . S
C764 N765 1.342 1_554 S
C764 C768 1.401 . S
C764 C769 1.499 . S
N765 Co748 1.989 . S
N765 C764 1.342 1_556 S
N765 N766 1.388 . S
N766 Co749 1.993 . S
N766 N765 1.388 . S
N766 C767 1.346 . S
C767 N766 1.346 . S
C767 C768 1.396 1_556 S
C767 C777 1.510 . S
C768 C764 1.401 . S
C768 C767 1.396 1_554 S
C769 C764 1.499 . S
C769 H770 0.959 . S
C769 H771 0.960 . S
C769 H772 0.961 . S
H770 C769 0.959 . S
H771 C769 0.960 . S
H772 C769 0.961 . S
O773 Co748 1.967 . S
O773 C781 1.258 . S
O774 Co749 1.941 . S
O774 C781 1.266 . S
H775 C777 0.959 . S
H776 C777 0.961 . S
C777 C767 1.510 . S
C777 H775 0.959 . S
C777 H776 0.961 . S
C777 H778 0.960 . S
H778 C777 0.960 . S
H779 N759 0.862 . S
O780 Co748 1.920 1_554 S
O780 C753 1.289 . S
C781 O773 1.258 . S
C781 O774 1.266 . S
Co782 O785 1.970 . S
Co782 N799 1.989 . S
Co782 O807 1.967 . S
Co782 O814 1.920 1_556 S
Co783 O786 1.966 . S
Co783 N792 2.022 . S
Co783 N800 1.993 . S
Co783 O808 1.941 . S
C784 O785 1.258 . S
C784 O786 1.263 . S
O785 Co782 1.970 . S
O785 C784 1.258 . S
O786 Co783 1.966 . S
O786 C784 1.263 . S
C787 O788 1.235 . S
C787 O814 1.289 . S
O788 C787 1.235 . S
C789 C791 1.400 . S
C789 N792 1.351 . S
C789 C794 1.501 . S
C790 C791 1.387 . S
C790 N793 1.341 . S
C791 C789 1.400 . S
C791 C790 1.387 . S
N792 Co783 2.022 . S
N792 C789 1.351 . S
N792 N793 1.365 . S
N793 C790 1.341 . S
N793 N792 1.365 . S
N793 H813 0.862 . S
C794 C789 1.501 . S
C794 H795 0.961 . S
C794 H796 0.961 . S
C794 H797 0.960 . S
H795 C794 0.961 . S
H796 C794 0.961 . S
H797 C794 0.960 . S
C798 N799 1.342 1_554 S
C798 C802 1.401 . S
C798 C803 1.499 . S
N799 Co782 1.989 . S
N799 C798 1.342 1_556 S
N799 N800 1.388 . S
N800 Co783 1.993 . S
N800 N799 1.388 . S
N800 C801 1.346 . S
C801 N800 1.346 . S
C801 C802 1.396 1_556 S
C801 C811 1.510 . S
C802 C798 1.401 . S
C802 C801 1.396 1_554 S
C803 C798 1.499 . S
C803 H804 0.959 . S
C803 H805 0.960 . S
C803 H806 0.961 . S
H804 C803 0.959 . S
H805 C803 0.960 . S
H806 C803 0.961 . S
O807 Co782 1.967 . S
O807 C815 1.258 . S
O808 Co783 1.941 . S
O808 C815 1.266 . S
H809 C811 0.959 . S
H810 C811 0.961 . S
C811 C801 1.510 . S
C811 H809 0.959 . S
C811 H810 0.961 . S
C811 H812 0.960 . S
H812 C811 0.960 . S
H813 N793 0.862 . S
O814 Co782 1.920 1_554 S
O814 C787 1.289 . S
C815 O807 1.258 . S
C815 O808 1.266 . S
Co816 O819 1.970 . S
Co816 N833 1.989 . S
Co816 O841 1.967 . S
Co816 O848 1.920 . S
Co817 O820 1.966 . S
Co817 N826 2.022 . S
Co817 N834 1.993 . S
Co817 O842 1.941 . S
C818 O819 1.258 . S
C818 O820 1.263 . S
O819 Co816 1.970 . S
O819 C818 1.258 . S
O820 Co817 1.966 . S
O820 C818 1.263 . S
C821 O822 1.235 . S
C821 O848 1.289 . S
O822 C821 1.235 . S
C823 C825 1.400 . S
C823 N826 1.351 . S
C823 C828 1.501 . S
C824 C825 1.387 . S
C824 N827 1.341 . S
C825 C823 1.400 . S
C825 C824 1.387 . S
N826 Co817 2.022 . S
N826 C823 1.351 . S
N826 N827 1.365 . S
N827 C824 1.341 . S
N827 N826 1.365 . S
N827 H847 0.862 . S
C828 C823 1.501 . S
C828 H829 0.961 . S
C828 H830 0.961 . S
C828 H831 0.960 . S
H829 C828 0.961 . S
H830 C828 0.961 . S
H831 C828 0.960 . S
C832 N833 1.342 . S
C832 C836 1.401 . S
C832 C837 1.499 . S
N833 Co816 1.989 . S
N833 C832 1.342 . S
N833 N834 1.388 . S
N834 Co817 1.993 . S
N834 N833 1.388 . S
N834 C835 1.346 . S
C835 N834 1.346 . S
C835 C836 1.396 . S
C835 C845 1.510 . S
C836 C832 1.401 . S
C836 C835 1.396 . S
C837 C832 1.499 . S
C837 H838 0.959 . S
C837 H839 0.960 . S
C837 H840 0.961 . S
H838 C837 0.959 . S
H839 C837 0.960 . S
H840 C837 0.961 . S
O841 Co816 1.967 . S
O841 C849 1.258 . S
O842 Co817 1.941 . S
O842 C849 1.266 . S
H843 C845 0.959 . S
H844 C845 0.961 . S
C845 C835 1.510 . S
C845 H843 0.959 . S
C845 H844 0.961 . S
C845 H846 0.960 . S
H846 C845 0.960 . S
H847 N827 0.862 . S
O848 Co816 1.920 . S
O848 C821 1.289 . S
C849 O841 1.258 . S
C849 O842 1.266 . S
Co850 O853 1.970 . S
Co850 N867 1.989 . S
Co850 O875 1.967 . S
Co850 O882 1.920 . S
Co851 O854 1.966 . S
Co851 N860 2.022 . S
Co851 N868 1.993 . S
Co851 O876 1.941 . S
C852 O853 1.258 . S
C852 O854 1.263 . S
O853 Co850 1.970 . S
O853 C852 1.258 . S
O854 Co851 1.966 . S
O854 C852 1.263 . S
C855 O856 1.235 . S
C855 O882 1.289 . S
O856 C855 1.235 . S
C857 C859 1.400 . S
C857 N860 1.351 . S
C857 C862 1.501 . S
C858 C859 1.387 . S
C858 N861 1.341 . S
C859 C857 1.400 . S
C859 C858 1.387 . S
N860 Co851 2.022 . S
N860 C857 1.351 . S
N860 N861 1.365 . S
N861 C858 1.341 . S
N861 N860 1.365 . S
N861 H881 0.862 . S
C862 C857 1.501 . S
C862 H863 0.961 . S
C862 H864 0.961 . S
C862 H865 0.960 . S
H863 C862 0.961 . S
H864 C862 0.961 . S
H865 C862 0.960 . S
C866 N867 1.342 . S
C866 C870 1.401 . S
C866 C871 1.499 . S
N867 Co850 1.989 . S
N867 C866 1.342 . S
N867 N868 1.388 . S
N868 Co851 1.993 . S
N868 N867 1.388 . S
N868 C869 1.346 . S
C869 N868 1.346 . S
C869 C870 1.396 . S
C869 C879 1.510 . S
C870 C866 1.401 . S
C870 C869 1.396 . S
C871 C866 1.499 . S
C871 H872 0.959 . S
C871 H873 0.960 . S
C871 H874 0.961 . S
H872 C871 0.959 . S
H873 C871 0.960 . S
H874 C871 0.961 . S
O875 Co850 1.967 . S
O875 C883 1.258 . S
O876 Co851 1.941 . S
O876 C883 1.266 . S
H877 C879 0.959 . S
H878 C879 0.961 . S
C879 C869 1.510 . S
C879 H877 0.959 . S
C879 H878 0.961 . S
C879 H880 0.960 . S
H880 C879 0.960 . S
H881 N861 0.862 . S
O882 Co850 1.920 . S
O882 C855 1.289 . S
C883 O875 1.258 . S
C883 O876 1.266 . S
Co884 O887 1.970 . S
Co884 N901 1.989 . S
Co884 O909 1.967 . S
Co884 O916 1.920 . S
Co885 O888 1.966 . S
Co885 N894 2.022 . S
Co885 N902 1.993 . S
Co885 O910 1.941 . S
C886 O887 1.258 . S
C886 O888 1.263 . S
O887 Co884 1.970 . S
O887 C886 1.258 . S
O888 Co885 1.966 . S
O888 C886 1.263 . S
C889 O890 1.235 . S
C889 O916 1.289 . S
O890 C889 1.235 . S
C891 C893 1.400 . S
C891 N894 1.351 . S
C891 C896 1.501 . S
C892 C893 1.387 . S
C892 N895 1.341 . S
C893 C891 1.400 . S
C893 C892 1.387 . S
N894 Co885 2.022 . S
N894 C891 1.351 . S
N894 N895 1.365 . S
N895 C892 1.341 . S
N895 N894 1.365 . S
N895 H915 0.862 . S
C896 C891 1.501 . S
C896 H897 0.961 . S
C896 H898 0.961 . S
C896 H899 0.960 . S
H897 C896 0.961 . S
H898 C896 0.961 . S
H899 C896 0.960 . S
C900 N901 1.342 . S
C900 C904 1.401 . S
C900 C905 1.499 . S
N901 Co884 1.989 . S
N901 C900 1.342 . S
N901 N902 1.388 . S
N902 Co885 1.993 . S
N902 N901 1.388 . S
N902 C903 1.346 . S
C903 N902 1.346 . S
C903 C904 1.396 . S
C903 C913 1.510 . S
C904 C900 1.401 . S
C904 C903 1.396 . S
C905 C900 1.499 . S
C905 H906 0.959 . S
C905 H907 0.960 . S
C905 H908 0.961 . S
H906 C905 0.959 . S
H907 C905 0.960 . S
H908 C905 0.961 . S
O909 Co884 1.967 . S
O909 C917 1.258 . S
O910 Co885 1.941 . S
O910 C917 1.266 . S
H911 C913 0.959 . S
H912 C913 0.961 . S
C913 C903 1.510 . S
C913 H911 0.959 . S
C913 H912 0.961 . S
C913 H914 0.960 . S
H914 C913 0.960 . S
H915 N895 0.862 . S
O916 Co884 1.920 . S
O916 C889 1.289 . S
C917 O909 1.258 . S
C917 O910 1.266 . S
Co918 O921 1.970 . S
Co918 N935 1.989 . S
Co918 O943 1.967 . S
Co918 O950 1.920 . S
Co919 O922 1.966 . S
Co919 N928 2.022 . S
Co919 N936 1.993 . S
Co919 O944 1.941 . S
C920 O921 1.258 . S
C920 O922 1.263 . S
O921 Co918 1.970 . S
O921 C920 1.258 . S
O922 Co919 1.966 . S
O922 C920 1.263 . S
C923 O924 1.235 . S
C923 O950 1.289 . S
O924 C923 1.235 . S
C925 C927 1.400 . S
C925 N928 1.351 . S
C925 C930 1.501 . S
C926 C927 1.387 . S
C926 N929 1.341 . S
C927 C925 1.400 . S
C927 C926 1.387 . S
N928 Co919 2.022 . S
N928 C925 1.351 . S
N928 N929 1.365 . S
N929 C926 1.341 . S
N929 N928 1.365 . S
N929 H949 0.862 . S
C930 C925 1.501 . S
C930 H931 0.961 . S
C930 H932 0.961 . S
C930 H933 0.960 . S
H931 C930 0.961 . S
H932 C930 0.961 . S
H933 C930 0.960 . S
C934 N935 1.342 . S
C934 C938 1.401 . S
C934 C939 1.499 . S
N935 Co918 1.989 . S
N935 C934 1.342 . S
N935 N936 1.388 . S
N936 Co919 1.993 . S
N936 N935 1.388 . S
N936 C937 1.346 . S
C937 N936 1.346 . S
C937 C938 1.396 . S
C937 C947 1.510 . S
C938 C934 1.401 . S
C938 C937 1.396 . S
C939 C934 1.499 . S
C939 H940 0.959 . S
C939 H941 0.960 . S
C939 H942 0.961 . S
H940 C939 0.959 . S
H941 C939 0.960 . S
H942 C939 0.961 . S
O943 Co918 1.967 . S
O943 C951 1.258 . S
O944 Co919 1.941 . S
O944 C951 1.266 . S
H945 C947 0.959 . S
H946 C947 0.961 . S
C947 C937 1.510 . S
C947 H945 0.959 . S
C947 H946 0.961 . S
C947 H948 0.960 . S
H948 C947 0.960 . S
H949 N929 0.862 . S
O950 Co918 1.920 . S
O950 C923 1.289 . S
C951 O943 1.258 . S
C951 O944 1.266 . S
Co952 O955 1.970 . S
Co952 N969 1.989 . S
Co952 O977 1.967 . S
Co952 O984 1.920 . S
Co953 O956 1.966 . S
Co953 N962 2.022 . S
Co953 N970 1.993 . S
Co953 O978 1.941 . S
C954 O955 1.258 . S
C954 O956 1.263 . S
O955 Co952 1.970 . S
O955 C954 1.258 . S
O956 Co953 1.966 . S
O956 C954 1.263 . S
C957 O958 1.235 . S
C957 O984 1.289 . S
O958 C957 1.235 . S
C959 C961 1.400 . S
C959 N962 1.351 . S
C959 C964 1.501 . S
C960 C961 1.387 . S
C960 N963 1.341 . S
C961 C959 1.400 . S
C961 C960 1.387 . S
N962 Co953 2.022 . S
N962 C959 1.351 . S
N962 N963 1.365 . S
N963 C960 1.341 . S
N963 N962 1.365 . S
N963 H983 0.862 . S
C964 C959 1.501 . S
C964 H965 0.961 . S
C964 H966 0.961 . S
C964 H967 0.960 . S
H965 C964 0.961 . S
H966 C964 0.961 . S
H967 C964 0.960 . S
C968 N969 1.342 . S
C968 C972 1.401 . S
C968 C973 1.499 . S
N969 Co952 1.989 . S
N969 C968 1.342 . S
N969 N970 1.388 . S
N970 Co953 1.993 . S
N970 N969 1.388 . S
N970 C971 1.346 . S
C971 N970 1.346 . S
C971 C972 1.396 . S
C971 C981 1.510 . S
C972 C968 1.401 . S
C972 C971 1.396 . S
C973 C968 1.499 . S
C973 H974 0.959 . S
C973 H975 0.960 . S
C973 H976 0.961 . S
H974 C973 0.959 . S
H975 C973 0.960 . S
H976 C973 0.961 . S
O977 Co952 1.967 . S
O977 C985 1.258 . S
O978 Co953 1.941 . S
O978 C985 1.266 . S
H979 C981 0.959 . S
H980 C981 0.961 . S
C981 C971 1.510 . S
C981 H979 0.959 . S
C981 H980 0.961 . S
C981 H982 0.960 . S
H982 C981 0.960 . S
H983 N963 0.862 . S
O984 Co952 1.920 . S
O984 C957 1.289 . S
C985 O977 1.258 . S
C985 O978 1.266 . S
Co986 O989 1.970 . S
Co986 N1003 1.989 . S
Co986 O1011 1.967 . S
Co986 O1018 1.920 . S
Co987 O990 1.966 . S
Co987 N996 2.022 . S
Co987 N1004 1.993 . S
Co987 O1012 1.941 . S
C988 O989 1.258 . S
C988 O990 1.263 . S
O989 Co986 1.970 . S
O989 C988 1.258 . S
O990 Co987 1.966 . S
O990 C988 1.263 . S
C991 O992 1.235 . S
C991 O1018 1.289 . S
O992 C991 1.235 . S
C993 C995 1.400 . S
C993 N996 1.351 . S
C993 C998 1.501 . S
C994 C995 1.387 . S
C994 N997 1.341 . S
C995 C993 1.400 . S
C995 C994 1.387 . S
N996 Co987 2.022 . S
N996 C993 1.351 . S
N996 N997 1.365 . S
N997 C994 1.341 . S
N997 N996 1.365 . S
N997 H1017 0.862 . S
C998 C993 1.501 . S
C998 H999 0.961 . S
C998 H1000 0.961 . S
C998 H1001 0.960 . S
H999 C998 0.961 . S
H1000 C998 0.961 . S
H1001 C998 0.960 . S
C1002 N1003 1.342 . S
C1002 C1006 1.401 . S
C1002 C1007 1.499 . S
N1003 Co986 1.989 . S
N1003 C1002 1.342 . S
N1003 N1004 1.388 . S
N1004 Co987 1.993 . S
N1004 N1003 1.388 . S
N1004 C1005 1.346 . S
C1005 N1004 1.346 . S
C1005 C1006 1.396 . S
C1005 C1015 1.510 . S
C1006 C1002 1.401 . S
C1006 C1005 1.396 . S
C1007 C1002 1.499 . S
C1007 H1008 0.959 . S
C1007 H1009 0.960 . S
C1007 H1010 0.961 . S
H1008 C1007 0.959 . S
H1009 C1007 0.960 . S
H1010 C1007 0.961 . S
O1011 Co986 1.967 . S
O1011 C1019 1.258 . S
O1012 Co987 1.941 . S
O1012 C1019 1.266 . S
H1013 C1015 0.959 . S
H1014 C1015 0.961 . S
C1015 C1005 1.510 . S
C1015 H1013 0.959 . S
C1015 H1014 0.961 . S
C1015 H1016 0.960 . S
H1016 C1015 0.960 . S
H1017 N997 0.862 . S
O1018 Co986 1.920 . S
O1018 C991 1.289 . S
C1019 O1011 1.258 . S
C1019 O1012 1.266 . S
Co1020 O1023 1.970 . S
Co1020 N1037 1.989 . S
Co1020 O1045 1.967 . S
Co1020 O1052 1.920 . S
Co1021 O1024 1.966 . S
Co1021 N1030 2.022 . S
Co1021 N1038 1.993 . S
Co1021 O1046 1.941 . S
C1022 O1023 1.258 . S
C1022 O1024 1.263 . S
O1023 Co1020 1.970 . S
O1023 C1022 1.258 . S
O1024 Co1021 1.966 . S
O1024 C1022 1.263 . S
C1025 O1026 1.235 . S
C1025 O1052 1.289 . S
O1026 C1025 1.235 . S
C1027 C1029 1.400 . S
C1027 N1030 1.351 . S
C1027 C1032 1.501 . S
C1028 C1029 1.387 . S
C1028 N1031 1.341 . S
C1029 C1027 1.400 . S
C1029 C1028 1.387 . S
N1030 Co1021 2.022 . S
N1030 C1027 1.351 . S
N1030 N1031 1.365 . S
N1031 C1028 1.341 . S
N1031 N1030 1.365 . S
N1031 H1051 0.862 . S
C1032 C1027 1.501 . S
C1032 H1033 0.961 . S
C1032 H1034 0.961 . S
C1032 H1035 0.960 . S
H1033 C1032 0.961 . S
H1034 C1032 0.961 . S
H1035 C1032 0.960 . S
C1036 N1037 1.342 . S
C1036 C1040 1.401 . S
C1036 C1041 1.499 . S
N1037 Co1020 1.989 . S
N1037 C1036 1.342 . S
N1037 N1038 1.388 . S
N1038 Co1021 1.993 . S
N1038 N1037 1.388 . S
N1038 C1039 1.346 . S
C1039 N1038 1.346 . S
C1039 C1040 1.396 . S
C1039 C1049 1.510 . S
C1040 C1036 1.401 . S
C1040 C1039 1.396 . S
C1041 C1036 1.499 . S
C1041 H1042 0.959 . S
C1041 H1043 0.960 . S
C1041 H1044 0.961 . S
H1042 C1041 0.959 . S
H1043 C1041 0.960 . S
H1044 C1041 0.961 . S
O1045 Co1020 1.967 . S
O1045 C1053 1.258 . S
O1046 Co1021 1.941 . S
O1046 C1053 1.266 . S
H1047 C1049 0.959 . S
H1048 C1049 0.961 . S
C1049 C1039 1.510 . S
C1049 H1047 0.959 . S
C1049 H1048 0.961 . S
C1049 H1050 0.960 . S
H1050 C1049 0.960 . S
H1051 N1031 0.862 . S
O1052 Co1020 1.920 . S
O1052 C1025 1.289 . S
C1053 O1045 1.258 . S
C1053 O1046 1.266 . S
Co1054 O1057 1.970 . S
Co1054 N1071 1.989 . S
Co1054 O1079 1.967 . S
Co1054 O1086 1.920 . S
Co1055 O1058 1.966 . S
Co1055 N1064 2.022 . S
Co1055 N1072 1.993 . S
Co1055 O1080 1.941 . S
C1056 O1057 1.258 . S
C1056 O1058 1.263 . S
O1057 Co1054 1.970 . S
O1057 C1056 1.258 . S
O1058 Co1055 1.966 . S
O1058 C1056 1.263 . S
C1059 O1060 1.235 . S
C1059 O1086 1.289 . S
O1060 C1059 1.235 . S
C1061 C1063 1.400 . S
C1061 N1064 1.351 . S
C1061 C1066 1.501 . S
C1062 C1063 1.387 . S
C1062 N1065 1.341 . S
C1063 C1061 1.400 . S
C1063 C1062 1.387 . S
N1064 Co1055 2.022 . S
N1064 C1061 1.351 . S
N1064 N1065 1.365 . S
N1065 C1062 1.341 . S
N1065 N1064 1.365 . S
N1065 H1085 0.862 . S
C1066 C1061 1.501 . S
C1066 H1067 0.961 . S
C1066 H1068 0.961 . S
C1066 H1069 0.960 . S
H1067 C1066 0.961 . S
H1068 C1066 0.961 . S
H1069 C1066 0.960 . S
C1070 N1071 1.342 . S
C1070 C1074 1.401 . S
C1070 C1075 1.499 . S
N1071 Co1054 1.989 . S
N1071 C1070 1.342 . S
N1071 N1072 1.388 . S
N1072 Co1055 1.993 . S
N1072 N1071 1.388 . S
N1072 C1073 1.346 . S
C1073 N1072 1.346 . S
C1073 C1074 1.396 . S
C1073 C1083 1.510 . S
C1074 C1070 1.401 . S
C1074 C1073 1.396 . S
C1075 C1070 1.499 . S
C1075 H1076 0.959 . S
C1075 H1077 0.960 . S
C1075 H1078 0.961 . S
H1076 C1075 0.959 . S
H1077 C1075 0.960 . S
H1078 C1075 0.961 . S
O1079 Co1054 1.967 . S
O1079 C1087 1.258 . S
O1080 Co1055 1.941 . S
O1080 C1087 1.266 . S
H1081 C1083 0.959 . S
H1082 C1083 0.961 . S
C1083 C1073 1.510 . S
C1083 H1081 0.959 . S
C1083 H1082 0.961 . S
C1083 H1084 0.960 . S
H1084 C1083 0.960 . S
H1085 N1065 0.862 . S
O1086 Co1054 1.920 . S
O1086 C1059 1.289 . S
C1087 O1079 1.258 . S
C1087 O1080 1.266 . S
Co1088 O1091 1.970 . S
Co1088 N1105 1.989 . S
Co1088 O1113 1.967 . S
Co1088 O1120 1.920 . S
Co1089 O1092 1.966 . S
Co1089 N1098 2.022 . S
Co1089 N1106 1.993 . S
Co1089 O1114 1.941 . S
C1090 O1091 1.258 . S
C1090 O1092 1.263 . S
O1091 Co1088 1.970 . S
O1091 C1090 1.258 . S
O1092 Co1089 1.966 . S
O1092 C1090 1.263 . S
C1093 O1094 1.235 . S
C1093 O1120 1.289 . S
O1094 C1093 1.235 . S
C1095 C1097 1.400 . S
C1095 N1098 1.351 . S
C1095 C1100 1.501 . S
C1096 C1097 1.387 . S
C1096 N1099 1.341 . S
C1097 C1095 1.400 . S
C1097 C1096 1.387 . S
N1098 Co1089 2.022 . S
N1098 C1095 1.351 . S
N1098 N1099 1.365 . S
N1099 C1096 1.341 . S
N1099 N1098 1.365 . S
N1099 H1119 0.862 . S
C1100 C1095 1.501 . S
C1100 H1101 0.961 . S
C1100 H1102 0.961 . S
C1100 H1103 0.960 . S
H1101 C1100 0.961 . S
H1102 C1100 0.961 . S
H1103 C1100 0.960 . S
C1104 N1105 1.342 . S
C1104 C1108 1.401 . S
C1104 C1109 1.499 . S
N1105 Co1088 1.989 . S
N1105 C1104 1.342 . S
N1105 N1106 1.388 . S
N1106 Co1089 1.993 . S
N1106 N1105 1.388 . S
N1106 C1107 1.346 . S
C1107 N1106 1.346 . S
C1107 C1108 1.396 . S
C1107 C1117 1.510 . S
C1108 C1104 1.401 . S
C1108 C1107 1.396 . S
C1109 C1104 1.499 . S
C1109 H1110 0.959 . S
C1109 H1111 0.960 . S
C1109 H1112 0.961 . S
H1110 C1109 0.959 . S
H1111 C1109 0.960 . S
H1112 C1109 0.961 . S
O1113 Co1088 1.967 . S
O1113 C1121 1.258 . S
O1114 Co1089 1.941 . S
O1114 C1121 1.266 . S
H1115 C1117 0.959 . S
H1116 C1117 0.961 . S
C1117 C1107 1.510 . S
C1117 H1115 0.959 . S
C1117 H1116 0.961 . S
C1117 H1118 0.960 . S
H1118 C1117 0.960 . S
H1119 N1099 0.862 . S
O1120 Co1088 1.920 . S
O1120 C1093 1.289 . S
C1121 O1113 1.258 . S
C1121 O1114 1.266 . S
Co1122 O1125 1.970 . S
Co1122 N1139 1.989 . S
Co1122 O1147 1.967 . S
Co1122 O1154 1.920 . S
Co1123 O1126 1.966 . S
Co1123 N1132 2.022 . S
Co1123 N1140 1.993 . S
Co1123 O1148 1.941 . S
C1124 O1125 1.258 . S
C1124 O1126 1.263 . S
O1125 Co1122 1.970 . S
O1125 C1124 1.258 . S
O1126 Co1123 1.966 . S
O1126 C1124 1.263 . S
C1127 O1128 1.235 . S
C1127 O1154 1.289 . S
O1128 C1127 1.235 . S
C1129 C1131 1.400 . S
C1129 N1132 1.351 . S
C1129 C1134 1.501 . S
C1130 C1131 1.387 . S
C1130 N1133 1.341 . S
C1131 C1129 1.400 . S
C1131 C1130 1.387 . S
N1132 Co1123 2.022 . S
N1132 C1129 1.351 . S
N1132 N1133 1.365 . S
N1133 C1130 1.341 . S
N1133 N1132 1.365 . S
N1133 H1153 0.862 . S
C1134 C1129 1.501 . S
C1134 H1135 0.961 . S
C1134 H1136 0.961 . S
C1134 H1137 0.960 . S
H1135 C1134 0.961 . S
H1136 C1134 0.961 . S
H1137 C1134 0.960 . S
C1138 N1139 1.342 . S
C1138 C1142 1.401 . S
C1138 C1143 1.499 . S
N1139 Co1122 1.989 . S
N1139 C1138 1.342 . S
N1139 N1140 1.388 . S
N1140 Co1123 1.993 . S
N1140 N1139 1.388 . S
N1140 C1141 1.346 . S
C1141 N1140 1.346 . S
C1141 C1142 1.396 . S
C1141 C1151 1.510 . S
C1142 C1138 1.401 . S
C1142 C1141 1.396 . S
C1143 C1138 1.499 . S
C1143 H1144 0.959 . S
C1143 H1145 0.960 . S
C1143 H1146 0.961 . S
H1144 C1143 0.959 . S
H1145 C1143 0.960 . S
H1146 C1143 0.961 . S
O1147 Co1122 1.967 . S
O1147 C1155 1.258 . S
O1148 Co1123 1.941 . S
O1148 C1155 1.266 . S
H1149 C1151 0.959 . S
H1150 C1151 0.961 . S
C1151 C1141 1.510 . S
C1151 H1149 0.959 . S
C1151 H1150 0.961 . S
C1151 H1152 0.960 . S
H1152 C1151 0.960 . S
H1153 N1133 0.862 . S
O1154 Co1122 1.920 . S
O1154 C1127 1.289 . S
C1155 O1147 1.258 . S
C1155 O1148 1.266 . S
Co1156 O1159 1.970 . S
Co1156 N1173 1.989 . S
Co1156 O1181 1.967 . S
Co1156 O1188 1.920 . S
Co1157 O1160 1.966 . S
Co1157 N1166 2.022 . S
Co1157 N1174 1.993 . S
Co1157 O1182 1.941 . S
C1158 O1159 1.258 . S
C1158 O1160 1.263 . S
O1159 Co1156 1.970 . S
O1159 C1158 1.258 . S
O1160 Co1157 1.966 . S
O1160 C1158 1.263 . S
C1161 O1162 1.235 . S
C1161 O1188 1.289 . S
O1162 C1161 1.235 . S
C1163 C1165 1.400 . S
C1163 N1166 1.351 . S
C1163 C1168 1.501 . S
C1164 C1165 1.387 . S
C1164 N1167 1.341 . S
C1165 C1163 1.400 . S
C1165 C1164 1.387 . S
N1166 Co1157 2.022 . S
N1166 C1163 1.351 . S
N1166 N1167 1.365 . S
N1167 C1164 1.341 . S
N1167 N1166 1.365 . S
N1167 H1187 0.862 . S
C1168 C1163 1.501 . S
C1168 H1169 0.961 . S
C1168 H1170 0.961 . S
C1168 H1171 0.960 . S
H1169 C1168 0.961 . S
H1170 C1168 0.961 . S
H1171 C1168 0.960 . S
C1172 N1173 1.342 . S
C1172 C1176 1.401 . S
C1172 C1177 1.499 . S
N1173 Co1156 1.989 . S
N1173 C1172 1.342 . S
N1173 N1174 1.388 . S
N1174 Co1157 1.993 . S
N1174 N1173 1.388 . S
N1174 C1175 1.346 . S
C1175 N1174 1.346 . S
C1175 C1176 1.396 . S
C1175 C1185 1.510 . S
C1176 C1172 1.401 . S
C1176 C1175 1.396 . S
C1177 C1172 1.499 . S
C1177 H1178 0.959 . S
C1177 H1179 0.960 . S
C1177 H1180 0.961 . S
H1178 C1177 0.959 . S
H1179 C1177 0.960 . S
H1180 C1177 0.961 . S
O1181 Co1156 1.967 . S
O1181 C1189 1.258 . S
O1182 Co1157 1.941 . S
O1182 C1189 1.266 . S
H1183 C1185 0.959 . S
H1184 C1185 0.961 . S
C1185 C1175 1.510 . S
C1185 H1183 0.959 . S
C1185 H1184 0.961 . S
C1185 H1186 0.960 . S
H1186 C1185 0.960 . S
H1187 N1167 0.862 . S
O1188 Co1156 1.920 . S
O1188 C1161 1.289 . S
C1189 O1181 1.258 . S
C1189 O1182 1.266 . S
Co1190 O1193 1.970 . S
Co1190 N1207 1.989 . S
Co1190 O1215 1.967 . S
Co1190 O1222 1.920 . S
Co1191 O1194 1.966 . S
Co1191 N1200 2.022 . S
Co1191 N1208 1.993 . S
Co1191 O1216 1.941 . S
C1192 O1193 1.258 . S
C1192 O1194 1.263 . S
O1193 Co1190 1.970 . S
O1193 C1192 1.258 . S
O1194 Co1191 1.966 . S
O1194 C1192 1.263 . S
C1195 O1196 1.235 . S
C1195 O1222 1.289 . S
O1196 C1195 1.235 . S
C1197 C1199 1.400 . S
C1197 N1200 1.351 . S
C1197 C1202 1.501 . S
C1198 C1199 1.387 . S
C1198 N1201 1.341 . S
C1199 C1197 1.400 . S
C1199 C1198 1.387 . S
N1200 Co1191 2.022 . S
N1200 C1197 1.351 . S
N1200 N1201 1.365 . S
N1201 C1198 1.341 . S
N1201 N1200 1.365 . S
N1201 H1221 0.862 . S
C1202 C1197 1.501 . S
C1202 H1203 0.961 . S
C1202 H1204 0.961 . S
C1202 H1205 0.960 . S
H1203 C1202 0.961 . S
H1204 C1202 0.961 . S
H1205 C1202 0.960 . S
C1206 N1207 1.342 . S
C1206 C1210 1.401 . S
C1206 C1211 1.499 . S
N1207 Co1190 1.989 . S
N1207 C1206 1.342 . S
N1207 N1208 1.388 . S
N1208 Co1191 1.993 . S
N1208 N1207 1.388 . S
N1208 C1209 1.346 . S
C1209 N1208 1.346 . S
C1209 C1210 1.396 . S
C1209 C1219 1.510 . S
C1210 C1206 1.401 . S
C1210 C1209 1.396 . S
C1211 C1206 1.499 . S
C1211 H1212 0.959 . S
C1211 H1213 0.960 . S
C1211 H1214 0.961 . S
H1212 C1211 0.959 . S
H1213 C1211 0.960 . S
H1214 C1211 0.961 . S
O1215 Co1190 1.967 . S
O1215 C1223 1.258 . S
O1216 Co1191 1.941 . S
O1216 C1223 1.266 . S
H1217 C1219 0.959 . S
H1218 C1219 0.961 . S
C1219 C1209 1.510 . S
C1219 H1217 0.959 . S
C1219 H1218 0.961 . S
C1219 H1220 0.960 . S
H1220 C1219 0.960 . S
H1221 N1201 0.862 . S
O1222 Co1190 1.920 . S
O1222 C1195 1.289 . S
C1223 O1215 1.258 . S
C1223 O1216 1.266 . S
H1224 C1232 0.950 . S
H1225 C1237 0.950 . S
H1226 C1234 0.950 . S
H1227 C1236 0.950 . S
H1228 C1238 0.950 . S
H1229 C1240 0.950 . S
H1230 C1242 0.950 . S
H1231 C1243 0.950 . S
C1232 H1224 0.950 . S
C1232 C1233 1.386 . S
C1232 C1234 1.391 . S
C1233 C1232 1.386 . S
C1233 C1237 1.393 . S
C1234 H1226 0.950 . S
C1234 C1232 1.391 . S
C1234 C1235 1.400 . S
C1235 C1234 1.400 . S
C1235 C1236 1.398 . S
C1235 C1241 1.491 . S
C1236 H1227 0.950 . S
C1236 C1235 1.398 . S
C1236 C1237 1.391 . S
C1237 H1225 0.950 . S
C1237 C1233 1.393 . S
C1237 C1236 1.391 . S
C1238 H1228 0.950 . S
C1238 C1239 1.386 . S
C1238 C1240 1.391 . S
C1239 C1238 1.386 . S
C1239 C1243 1.393 . S
C1240 H1229 0.950 . S
C1240 C1238 1.391 . S
C1240 C1241 1.400 . S
C1241 C1235 1.491 . S
C1241 C1240 1.400 . S
C1241 C1242 1.398 . S
C1242 H1230 0.950 . S
C1242 C1241 1.398 . S
C1242 C1243 1.391 . S
C1243 H1231 0.950 . S
C1243 C1239 1.393 . S
C1243 C1242 1.391 . S
H1244 C1252 0.950 . S
H1245 C1257 0.950 . S
H1246 C1254 0.950 . S
H1247 C1256 0.950 . S
H1248 C1258 0.950 . S
H1249 C1260 0.950 . S
H1250 C1262 0.950 . S
H1251 C1263 0.950 . S
C1252 H1244 0.950 . S
C1252 C1253 1.386 . S
C1252 C1254 1.391 . S
C1253 C1252 1.386 . S
C1253 C1257 1.393 . S
C1254 H1246 0.950 . S
C1254 C1252 1.391 . S
C1254 C1255 1.400 . S
C1255 C1254 1.400 . S
C1255 C1256 1.398 . S
C1255 C1261 1.491 . S
C1256 H1247 0.950 . S
C1256 C1255 1.398 . S
C1256 C1257 1.391 . S
C1257 H1245 0.950 . S
C1257 C1253 1.393 . S
C1257 C1256 1.391 . S
C1258 H1248 0.950 . S
C1258 C1259 1.386 . S
C1258 C1260 1.391 . S
C1259 C1258 1.386 . S
C1259 C1263 1.393 . S
C1260 H1249 0.950 . S
C1260 C1258 1.391 . S
C1260 C1261 1.400 . S
C1261 C1255 1.491 . S
C1261 C1260 1.400 . S
C1261 C1262 1.398 . S
C1262 H1250 0.950 . S
C1262 C1261 1.398 . S
C1262 C1263 1.391 . S
C1263 H1251 0.950 . S
C1263 C1259 1.393 . S
C1263 C1262 1.391 . S
H1264 C1272 0.950 . S
H1265 C1277 0.950 . S
H1266 C1274 0.950 . S
H1267 C1276 0.950 . S
H1268 C1278 0.950 1_554 S
H1269 C1280 0.950 . S
H1270 C1282 0.950 . S
H1271 C1283 0.950 . S
C1272 H1264 0.950 . S
C1272 C1273 1.386 . S
C1272 C1274 1.391 . S
C1273 C1272 1.386 . S
C1273 C1277 1.393 . S
C1274 H1266 0.950 . S
C1274 C1272 1.391 . S
C1274 C1275 1.400 . S
C1275 C1274 1.400 . S
C1275 C1276 1.398 . S
C1275 C1281 1.491 . S
C1276 H1267 0.950 . S
C1276 C1275 1.398 . S
C1276 C1277 1.391 . S
C1277 H1265 0.950 . S
C1277 C1273 1.393 . S
C1277 C1276 1.391 . S
C1278 H1268 0.950 1_556 S
C1278 C1279 1.386 . S
C1278 C1280 1.391 . S
C1279 C1278 1.386 . S
C1279 C1283 1.393 . S
C1280 H1269 0.950 . S
C1280 C1278 1.391 . S
C1280 C1281 1.400 . S
C1281 C1275 1.491 . S
C1281 C1280 1.400 . S
C1281 C1282 1.398 . S
C1282 H1270 0.950 . S
C1282 C1281 1.398 . S
C1282 C1283 1.391 . S
C1283 H1271 0.950 . S
C1283 C1279 1.393 . S
C1283 C1282 1.391 . S
H1284 C1292 0.950 . S
H1285 C1297 0.950 . S
H1286 C1294 0.950 . S
H1287 C1296 0.950 . S
H1288 C1298 0.950 . S
H1289 C1300 0.950 . S
H1290 C1302 0.950 . S
H1291 C1303 0.950 . S
C1292 H1284 0.950 . S
C1292 C1293 1.386 . S
C1292 C1294 1.391 . S
C1293 C1292 1.386 . S
C1293 C1297 1.393 . S
C1294 H1286 0.950 . S
C1294 C1292 1.391 . S
C1294 C1295 1.400 . S
C1295 C1294 1.400 . S
C1295 C1296 1.398 . S
C1295 C1301 1.491 . S
C1296 H1287 0.950 . S
C1296 C1295 1.398 . S
C1296 C1297 1.391 . S
C1297 H1285 0.950 . S
C1297 C1293 1.393 . S
C1297 C1296 1.391 . S
C1298 H1288 0.950 . S
C1298 C1299 1.386 . S
C1298 C1300 1.391 . S
C1299 C1298 1.386 . S
C1299 C1303 1.393 . S
C1300 H1289 0.950 . S
C1300 C1298 1.391 . S
C1300 C1301 1.400 . S
C1301 C1295 1.491 . S
C1301 C1300 1.400 . S
C1301 C1302 1.398 . S
C1302 H1290 0.950 . S
C1302 C1301 1.398 . S
C1302 C1303 1.391 . S
C1303 H1291 0.950 . S
C1303 C1299 1.393 . S
C1303 C1302 1.391 . S
H1304 C1312 0.950 . S
H1305 C1317 0.950 . S
H1306 C1314 0.950 . S
H1307 C1316 0.950 . S
H1308 C1318 0.950 . S
H1309 C1320 0.950 . S
H1310 C1322 0.950 . S
H1311 C1323 0.950 . S
C1312 H1304 0.950 . S
C1312 C1313 1.386 . S
C1312 C1314 1.391 . S
C1313 C1312 1.386 . S
C1313 C1317 1.393 . S
C1314 H1306 0.950 . S
C1314 C1312 1.391 . S
C1314 C1315 1.400 . S
C1315 C1314 1.400 . S
C1315 C1316 1.398 . S
C1315 C1321 1.491 . S
C1316 H1307 0.950 . S
C1316 C1315 1.398 . S
C1316 C1317 1.391 . S
C1317 H1305 0.950 . S
C1317 C1313 1.393 . S
C1317 C1316 1.391 . S
C1318 H1308 0.950 . S
C1318 C1319 1.386 . S
C1318 C1320 1.391 . S
C1319 C1318 1.386 . S
C1319 C1323 1.393 . S
C1320 H1309 0.950 . S
C1320 C1318 1.391 . S
C1320 C1321 1.400 . S
C1321 C1315 1.491 . S
C1321 C1320 1.400 . S
C1321 C1322 1.398 . S
C1322 H1310 0.950 . S
C1322 C1321 1.398 . S
C1322 C1323 1.391 . S
C1323 H1311 0.950 . S
C1323 C1319 1.393 . S
C1323 C1322 1.391 . S
H1324 C1332 0.950 . S
H1325 C1337 0.950 . S
H1326 C1334 0.950 . S
H1327 C1336 0.950 . S
H1328 C1338 0.950 . S
H1329 C1340 0.950 . S
H1330 C1342 0.950 . S
H1331 C1343 0.950 . S
C1332 H1324 0.950 . S
C1332 C1333 1.386 . S
C1332 C1334 1.391 . S
C1333 C1332 1.386 . S
C1333 C1337 1.393 . S
C1334 H1326 0.950 . S
C1334 C1332 1.391 . S
C1334 C1335 1.400 . S
C1335 C1334 1.400 . S
C1335 C1336 1.398 . S
C1335 C1341 1.491 . S
C1336 H1327 0.950 . S
C1336 C1335 1.398 . S
C1336 C1337 1.391 . S
C1337 H1325 0.950 . S
C1337 C1333 1.393 . S
C1337 C1336 1.391 . S
C1338 H1328 0.950 . S
C1338 C1339 1.386 . S
C1338 C1340 1.391 . S
C1339 C1338 1.386 . S
C1339 C1343 1.393 . S
C1340 H1329 0.950 . S
C1340 C1338 1.391 . S
C1340 C1341 1.400 . S
C1341 C1335 1.491 . S
C1341 C1340 1.400 . S
C1341 C1342 1.398 . S
C1342 H1330 0.950 . S
C1342 C1341 1.398 . S
C1342 C1343 1.391 . S
C1343 H1331 0.950 . S
C1343 C1339 1.393 . S
C1343 C1342 1.391 . S
H1344 C1352 0.950 . S
H1345 C1357 0.950 . S
H1346 C1354 0.950 . S
H1347 C1356 0.950 . S
H1348 C1358 0.950 . S
H1349 C1360 0.950 . S
H1350 C1362 0.950 . S
H1351 C1363 0.950 . S
C1352 H1344 0.950 . S
C1352 C1353 1.386 . S
C1352 C1354 1.391 . S
C1353 C1352 1.386 . S
C1353 C1357 1.393 . S
C1354 H1346 0.950 . S
C1354 C1352 1.391 . S
C1354 C1355 1.400 . S
C1355 C1354 1.400 . S
C1355 C1356 1.398 . S
C1355 C1361 1.491 . S
C1356 H1347 0.950 . S
C1356 C1355 1.398 . S
C1356 C1357 1.391 . S
C1357 H1345 0.950 . S
C1357 C1353 1.393 . S
C1357 C1356 1.391 . S
C1358 H1348 0.950 . S
C1358 C1359 1.386 . S
C1358 C1360 1.391 . S
C1359 C1358 1.386 . S
C1359 C1363 1.393 . S
C1360 H1349 0.950 . S
C1360 C1358 1.391 . S
C1360 C1361 1.400 . S
C1361 C1355 1.491 . S
C1361 C1360 1.400 . S
C1361 C1362 1.398 . S
C1362 H1350 0.950 . S
C1362 C1361 1.398 . S
C1362 C1363 1.391 . S
C1363 H1351 0.950 . S
C1363 C1359 1.393 . S
C1363 C1362 1.391 . S
H1364 C1372 0.950 . S
H1365 C1377 0.950 . S
H1366 C1374 0.950 . S
H1367 C1376 0.950 . S
H1368 C1378 0.950 . S
H1369 C1380 0.950 . S
H1370 C1382 0.950 . S
H1371 C1383 0.950 . S
C1372 H1364 0.950 . S
C1372 C1373 1.386 . S
C1372 C1374 1.391 . S
C1373 C1372 1.386 . S
C1373 C1377 1.393 . S
C1374 H1366 0.950 . S
C1374 C1372 1.391 . S
C1374 C1375 1.400 . S
C1375 C1374 1.400 . S
C1375 C1376 1.398 . S
C1375 C1381 1.491 . S
C1376 H1367 0.950 . S
C1376 C1375 1.398 . S
C1376 C1377 1.391 . S
C1377 H1365 0.950 . S
C1377 C1373 1.393 . S
C1377 C1376 1.391 . S
C1378 H1368 0.950 . S
C1378 C1379 1.386 . S
C1378 C1380 1.391 . S
C1379 C1378 1.386 . S
C1379 C1383 1.393 . S
C1380 H1369 0.950 . S
C1380 C1378 1.391 . S
C1380 C1381 1.400 . S
C1381 C1375 1.491 . S
C1381 C1380 1.400 . S
C1381 C1382 1.398 . S
C1382 H1370 0.950 . S
C1382 C1381 1.398 . S
C1382 C1383 1.391 . S
C1383 H1371 0.950 . S
C1383 C1379 1.393 . S
C1383 C1382 1.391 . S
H1384 C1392 0.950 . S
H1385 C1397 0.950 . S
H1386 C1394 0.950 . S
H1387 C1396 0.950 . S
H1388 C1398 0.950 . S
H1389 C1400 0.950 . S
H1390 C1402 0.950 . S
H1391 C1403 0.950 . S
C1392 H1384 0.950 . S
C1392 C1393 1.386 . S
C1392 C1394 1.391 . S
C1393 C1392 1.386 . S
C1393 C1397 1.393 . S
C1394 H1386 0.950 . S
C1394 C1392 1.391 . S
C1394 C1395 1.400 . S
C1395 C1394 1.400 . S
C1395 C1396 1.398 . S
C1395 C1401 1.491 . S
C1396 H1387 0.950 . S
C1396 C1395 1.398 . S
C1396 C1397 1.391 . S
C1397 H1385 0.950 . S
C1397 C1393 1.393 . S
C1397 C1396 1.391 . S
C1398 H1388 0.950 . S
C1398 C1399 1.386 . S
C1398 C1400 1.391 . S
C1399 C1398 1.386 . S
C1399 C1403 1.393 . S
C1400 H1389 0.950 . S
C1400 C1398 1.391 . S
C1400 C1401 1.400 . S
C1401 C1395 1.491 . S
C1401 C1400 1.400 . S
C1401 C1402 1.398 . S
C1402 H1390 0.950 . S
C1402 C1401 1.398 . S
C1402 C1403 1.391 . S
C1403 H1391 0.950 . S
C1403 C1399 1.393 . S
C1403 C1402 1.391 . S
H1404 C1412 0.950 . S
H1405 C1417 0.950 . S
H1406 C1414 0.950 . S
H1407 C1416 0.950 . S
H1408 C1418 0.950 . S
H1409 C1420 0.950 . S
H1410 C1422 0.950 . S
H1411 C1423 0.950 . S
C1412 H1404 0.950 . S
C1412 C1413 1.386 . S
C1412 C1414 1.391 . S
C1413 C1412 1.386 . S
C1413 C1417 1.393 . S
C1414 H1406 0.950 . S
C1414 C1412 1.391 . S
C1414 C1415 1.400 . S
C1415 C1414 1.400 . S
C1415 C1416 1.398 . S
C1415 C1421 1.491 . S
C1416 H1407 0.950 . S
C1416 C1415 1.398 . S
C1416 C1417 1.391 . S
C1417 H1405 0.950 . S
C1417 C1413 1.393 . S
C1417 C1416 1.391 . S
C1418 H1408 0.950 . S
C1418 C1419 1.386 . S
C1418 C1420 1.391 . S
C1419 C1418 1.386 . S
C1419 C1423 1.393 . S
C1420 H1409 0.950 . S
C1420 C1418 1.391 . S
C1420 C1421 1.400 . S
C1421 C1415 1.491 . S
C1421 C1420 1.400 . S
C1421 C1422 1.398 . S
C1422 H1410 0.950 . S
C1422 C1421 1.398 . S
C1422 C1423 1.391 . S
C1423 H1411 0.950 . S
C1423 C1419 1.393 . S
C1423 C1422 1.391 . S
H1424 C1432 0.950 . S
H1425 C1437 0.950 . S
H1426 C1434 0.950 . S
H1427 C1436 0.950 . S
H1428 C1438 0.950 . S
H1429 C1440 0.950 . S
H1430 C1442 0.950 . S
H1431 C1443 0.950 . S
C1432 H1424 0.950 . S
C1432 C1433 1.386 . S
C1432 C1434 1.391 . S
C1433 C1432 1.386 . S
C1433 C1437 1.393 . S
C1434 H1426 0.950 . S
C1434 C1432 1.391 . S
C1434 C1435 1.400 . S
C1435 C1434 1.400 . S
C1435 C1436 1.398 . S
C1435 C1441 1.491 . S
C1436 H1427 0.950 . S
C1436 C1435 1.398 . S
C1436 C1437 1.391 . S
C1437 H1425 0.950 . S
C1437 C1433 1.393 . S
C1437 C1436 1.391 . S
C1438 H1428 0.950 . S
C1438 C1439 1.386 . S
C1438 C1440 1.391 . S
C1439 C1438 1.386 . S
C1439 C1443 1.393 . S
C1440 H1429 0.950 . S
C1440 C1438 1.391 . S
C1440 C1441 1.400 . S
C1441 C1435 1.491 . S
C1441 C1440 1.400 . S
C1441 C1442 1.398 . S
C1442 H1430 0.950 . S
C1442 C1441 1.398 . S
C1442 C1443 1.391 . S
C1443 H1431 0.950 . S
C1443 C1439 1.393 . S
C1443 C1442 1.391 . S
H1444 C1452 0.950 . S
H1445 C1457 0.950 . S
H1446 C1454 0.950 . S
H1447 C1456 0.950 . S
H1448 C1458 0.950 . S
H1449 C1460 0.950 . S
H1450 C1462 0.950 . S
H1451 C1463 0.950 . S
C1452 H1444 0.950 . S
C1452 C1453 1.386 . S
C1452 C1454 1.391 . S
C1453 C1452 1.386 . S
C1453 C1457 1.393 . S
C1454 H1446 0.950 . S
C1454 C1452 1.391 . S
C1454 C1455 1.400 . S
C1455 C1454 1.400 . S
C1455 C1456 1.398 . S
C1455 C1461 1.491 . S
C1456 H1447 0.950 . S
C1456 C1455 1.398 . S
C1456 C1457 1.391 . S
C1457 H1445 0.950 . S
C1457 C1453 1.393 . S
C1457 C1456 1.391 . S
C1458 H1448 0.950 . S
C1458 C1459 1.386 . S
C1458 C1460 1.391 . S
C1459 C1458 1.386 . S
C1459 C1463 1.393 . S
C1460 H1449 0.950 . S
C1460 C1458 1.391 . S
C1460 C1461 1.400 . S
C1461 C1455 1.491 . S
C1461 C1460 1.400 . S
C1461 C1462 1.398 . S
C1462 H1450 0.950 . S
C1462 C1461 1.398 . S
C1462 C1463 1.391 . S
C1463 H1451 0.950 . S
C1463 C1459 1.393 . S
C1463 C1462 1.391 . S
H1464 C1472 0.950 . S
H1465 C1477 0.950 . S
H1466 C1474 0.950 . S
H1467 C1476 0.950 . S
H1468 C1478 0.950 . S
H1469 C1480 0.950 . S
H1470 C1482 0.950 . S
H1471 C1483 0.950 . S
C1472 H1464 0.950 . S
C1472 C1473 1.386 . S
C1472 C1474 1.391 . S
C1473 C1472 1.386 . S
C1473 C1477 1.393 . S
C1474 H1466 0.950 . S
C1474 C1472 1.391 . S
C1474 C1475 1.400 . S
C1475 C1474 1.400 . S
C1475 C1476 1.398 . S
C1475 C1481 1.491 . S
C1476 H1467 0.950 . S
C1476 C1475 1.398 . S
C1476 C1477 1.391 . S
C1477 H1465 0.950 . S
C1477 C1473 1.393 . S
C1477 C1476 1.391 . S
C1478 H1468 0.950 . S
C1478 C1479 1.386 . S
C1478 C1480 1.391 . S
C1479 C1478 1.386 . S
C1479 C1483 1.393 . S
C1480 H1469 0.950 . S
C1480 C1478 1.391 . S
C1480 C1481 1.400 . S
C1481 C1475 1.491 . S
C1481 C1480 1.400 . S
C1481 C1482 1.398 . S
C1482 H1470 0.950 . S
C1482 C1481 1.398 . S
C1482 C1483 1.391 . S
C1483 H1471 0.950 . S
C1483 C1479 1.393 . S
C1483 C1482 1.391 . S
H1484 C1492 0.950 . S
H1485 C1497 0.950 . S
H1486 C1494 0.950 . S
H1487 C1496 0.950 . S
H1488 C1498 0.950 . S
H1489 C1500 0.950 . S
H1490 C1502 0.950 . S
H1491 C1503 0.950 . S
C1492 H1484 0.950 . S
C1492 C1493 1.386 . S
C1492 C1494 1.391 . S
C1493 C1492 1.386 . S
C1493 C1497 1.393 . S
C1494 H1486 0.950 . S
C1494 C1492 1.391 . S
C1494 C1495 1.400 . S
C1495 C1494 1.400 . S
C1495 C1496 1.398 . S
C1495 C1501 1.491 . S
C1496 H1487 0.950 . S
C1496 C1495 1.398 . S
C1496 C1497 1.391 . S
C1497 H1485 0.950 . S
C1497 C1493 1.393 . S
C1497 C1496 1.391 . S
C1498 H1488 0.950 . S
C1498 C1499 1.386 . S
C1498 C1500 1.391 . S
C1499 C1498 1.386 . S
C1499 C1503 1.393 . S
C1500 H1489 0.950 . S
C1500 C1498 1.391 . S
C1500 C1501 1.400 . S
C1501 C1495 1.491 . S
C1501 C1500 1.400 . S
C1501 C1502 1.398 . S
C1502 H1490 0.950 . S
C1502 C1501 1.398 . S
C1502 C1503 1.391 . S
C1503 H1491 0.950 . S
C1503 C1499 1.393 . S
C1503 C1502 1.391 . S
H1504 C1512 0.950 . S
H1505 C1517 0.950 . S
H1506 C1514 0.950 . S
H1507 C1516 0.950 . S
H1508 C1518 0.950 . S
H1509 C1520 0.950 . S
H1510 C1522 0.950 . S
H1511 C1523 0.950 . S
C1512 H1504 0.950 . S
C1512 C1513 1.386 . S
C1512 C1514 1.391 . S
C1513 C1512 1.386 . S
C1513 C1517 1.393 . S
C1514 H1506 0.950 . S
C1514 C1512 1.391 . S
C1514 C1515 1.400 . S
C1515 C1514 1.400 . S
C1515 C1516 1.398 . S
C1515 C1521 1.491 . S
C1516 H1507 0.950 . S
C1516 C1515 1.398 . S
C1516 C1517 1.391 . S
C1517 H1505 0.950 . S
C1517 C1513 1.393 . S
C1517 C1516 1.391 . S
C1518 H1508 0.950 . S
C1518 C1519 1.386 . S
C1518 C1520 1.391 . S
C1519 C1518 1.386 . S
C1519 C1523 1.393 . S
C1520 H1509 0.950 . S
C1520 C1518 1.391 . S
C1520 C1521 1.400 . S
C1521 C1515 1.491 . S
C1521 C1520 1.400 . S
C1521 C1522 1.398 . S
C1522 H1510 0.950 . S
C1522 C1521 1.398 . S
C1522 C1523 1.391 . S
C1523 H1511 0.950 . S
C1523 C1519 1.393 . S
C1523 C1522 1.391 . S
H1524 C1532 0.950 . S
H1525 C1537 0.950 . S
H1526 C1534 0.950 . S
H1527 C1536 0.950 . S
H1528 C1538 0.950 . S
H1529 C1540 0.950 . S
H1530 C1542 0.950 . S
H1531 C1543 0.950 . S
C1532 H1524 0.950 . S
C1532 C1533 1.386 . S
C1532 C1534 1.391 . S
C1533 C1532 1.386 . S
C1533 C1537 1.393 . S
C1534 H1526 0.950 . S
C1534 C1532 1.391 . S
C1534 C1535 1.400 . S
C1535 C1534 1.400 . S
C1535 C1536 1.398 . S
C1535 C1541 1.491 . S
C1536 H1527 0.950 . S
C1536 C1535 1.398 . S
C1536 C1537 1.391 . S
C1537 H1525 0.950 . S
C1537 C1533 1.393 . S
C1537 C1536 1.391 . S
C1538 H1528 0.950 . S
C1538 C1539 1.386 . S
C1538 C1540 1.391 1_556 S
C1539 C1538 1.386 . S
C1539 C1543 1.393 1_556 S
C1540 H1529 0.950 . S
C1540 C1538 1.391 1_554 S
C1540 C1541 1.400 . S
C1541 C1535 1.491 . S
C1541 C1540 1.400 . S
C1541 C1542 1.398 . S
C1542 H1530 0.950 . S
C1542 C1541 1.398 . S
C1542 C1543 1.391 . S
C1543 H1531 0.950 . S
C1543 C1539 1.393 1_554 S
C1543 C1542 1.391 . S
H1544 C1552 0.950 . S
H1545 C1557 0.950 . S
H1546 C1554 0.950 . S
H1547 C1556 0.950 . S
H1548 C1558 0.950 . S
H1549 C1560 0.950 . S
H1550 C1562 0.950 . S
H1551 C1563 0.950 . S
C1552 H1544 0.950 . S
C1552 C1553 1.386 . S
C1552 C1554 1.391 . S
C1553 C1552 1.386 . S
C1553 C1557 1.393 . S
C1554 H1546 0.950 . S
C1554 C1552 1.391 . S
C1554 C1555 1.400 . S
C1555 C1554 1.400 . S
C1555 C1556 1.398 . S
C1555 C1561 1.491 . S
C1556 H1547 0.950 . S
C1556 C1555 1.398 . S
C1556 C1557 1.391 . S
C1557 H1545 0.950 . S
C1557 C1553 1.393 . S
C1557 C1556 1.391 . S
C1558 H1548 0.950 . S
C1558 C1559 1.386 . S
C1558 C1560 1.391 1_556 S
C1559 C1558 1.386 . S
C1559 C1563 1.393 1_556 S
C1560 H1549 0.950 . S
C1560 C1558 1.391 1_554 S
C1560 C1561 1.400 . S
C1561 C1555 1.491 . S
C1561 C1560 1.400 . S
C1561 C1562 1.398 . S
C1562 H1550 0.950 . S
C1562 C1561 1.398 . S
C1562 C1563 1.391 . S
C1563 H1551 0.950 . S
C1563 C1559 1.393 1_554 S
C1563 C1562 1.391 . S
H1564 C1572 0.950 . S
H1565 C1577 0.950 . S
H1566 C1574 0.950 . S
H1567 C1576 0.950 1_556 S
H1568 C1578 0.950 . S
H1569 C1580 0.950 . S
H1570 C1582 0.950 . S
H1571 C1583 0.950 . S
C1572 H1564 0.950 . S
C1572 C1573 1.386 1_554 S
C1572 C1574 1.391 . S
C1573 C1572 1.386 1_556 S
C1573 C1577 1.393 . S
C1574 H1566 0.950 . S
C1574 C1572 1.391 . S
C1574 C1575 1.400 . S
C1575 C1574 1.400 . S
C1575 C1576 1.398 . S
C1575 C1581 1.491 . S
C1576 H1567 0.950 1_554 S
C1576 C1575 1.398 . S
C1576 C1577 1.391 1_554 S
C1577 H1565 0.950 . S
C1577 C1573 1.393 . S
C1577 C1576 1.391 1_556 S
C1578 H1568 0.950 . S
C1578 C1579 1.386 . S
C1578 C1580 1.391 . S
C1579 C1578 1.386 . S
C1579 C1583 1.393 . S
C1580 H1569 0.950 . S
C1580 C1578 1.391 . S
C1580 C1581 1.400 . S
C1581 C1575 1.491 . S
C1581 C1580 1.400 . S
C1581 C1582 1.398 . S
C1582 H1570 0.950 . S
C1582 C1581 1.398 . S
C1582 C1583 1.391 . S
C1583 H1571 0.950 . S
C1583 C1579 1.393 . S
C1583 C1582 1.391 . S
H1584 C1592 0.950 . S
H1585 C1597 0.950 . S
H1586 C1594 0.950 . S
H1587 C1596 0.950 . S
H1588 C1598 0.950 . S
H1589 C1600 0.950 . S
H1590 C1602 0.950 . S
H1591 C1603 0.950 . S
C1592 H1584 0.950 . S
C1592 C1593 1.386 . S
C1592 C1594 1.391 . S
C1593 C1592 1.386 . S
C1593 C1597 1.393 . S
C1594 H1586 0.950 . S
C1594 C1592 1.391 . S
C1594 C1595 1.400 . S
C1595 C1594 1.400 . S
C1595 C1596 1.398 . S
C1595 C1601 1.491 . S
C1596 H1587 0.950 . S
C1596 C1595 1.398 . S
C1596 C1597 1.391 . S
C1597 H1585 0.950 . S
C1597 C1593 1.393 . S
C1597 C1596 1.391 . S
C1598 H1588 0.950 . S
C1598 C1599 1.386 . S
C1598 C1600 1.391 . S
C1599 C1598 1.386 . S
C1599 C1603 1.393 . S
C1600 H1589 0.950 . S
C1600 C1598 1.391 . S
C1600 C1601 1.400 . S
C1601 C1595 1.491 . S
C1601 C1600 1.400 . S
C1601 C1602 1.398 . S
C1602 H1590 0.950 . S
C1602 C1601 1.398 . S
C1602 C1603 1.391 . S
C1603 H1591 0.950 . S
C1603 C1599 1.393 . S
C1603 C1602 1.391 . S
H1604 C1612 0.950 . S
H1605 C1617 0.950 . S
H1606 C1614 0.950 . S
H1607 C1616 0.950 . S
H1608 C1618 0.950 . S
H1609 C1620 0.950 . S
H1610 C1622 0.950 . S
H1611 C1623 0.950 . S
C1612 H1604 0.950 . S
C1612 C1613 1.386 . S
C1612 C1614 1.391 . S
C1613 C1612 1.386 . S
C1613 C1617 1.393 . S
C1614 H1606 0.950 . S
C1614 C1612 1.391 . S
C1614 C1615 1.400 . S
C1615 C1614 1.400 . S
C1615 C1616 1.398 . S
C1615 C1621 1.491 . S
C1616 H1607 0.950 . S
C1616 C1615 1.398 . S
C1616 C1617 1.391 . S
C1617 H1605 0.950 . S
C1617 C1613 1.393 . S
C1617 C1616 1.391 . S
C1618 H1608 0.950 . S
C1618 C1619 1.386 . S
C1618 C1620 1.391 . S
C1619 C1618 1.386 . S
C1619 C1623 1.393 . S
C1620 H1609 0.950 . S
C1620 C1618 1.391 . S
C1620 C1621 1.400 . S
C1621 C1615 1.491 . S
C1621 C1620 1.400 . S
C1621 C1622 1.398 . S
C1622 H1610 0.950 . S
C1622 C1621 1.398 . S
C1622 C1623 1.391 . S
C1623 H1611 0.950 . S
C1623 C1619 1.393 . S
C1623 C1622 1.391 . S
H1624 C1632 0.950 . S
H1625 C1637 0.950 . S
H1626 C1634 0.950 . S
H1627 C1636 0.950 . S
H1628 C1638 0.950 . S
H1629 C1640 0.950 . S
H1630 C1642 0.950 . S
H1631 C1643 0.950 . S
C1632 H1624 0.950 . S
C1632 C1633 1.386 . S
C1632 C1634 1.391 . S
C1633 C1632 1.386 . S
C1633 C1637 1.393 . S
C1634 H1626 0.950 . S
C1634 C1632 1.391 . S
C1634 C1635 1.400 . S
C1635 C1634 1.400 . S
C1635 C1636 1.398 . S
C1635 C1641 1.491 . S
C1636 H1627 0.950 . S
C1636 C1635 1.398 . S
C1636 C1637 1.391 . S
C1637 H1625 0.950 . S
C1637 C1633 1.393 . S
C1637 C1636 1.391 . S
C1638 H1628 0.950 . S
C1638 C1639 1.386 . S
C1638 C1640 1.391 . S
C1639 C1638 1.386 . S
C1639 C1643 1.393 . S
C1640 H1629 0.950 . S
C1640 C1638 1.391 . S
C1640 C1641 1.400 . S
C1641 C1635 1.491 . S
C1641 C1640 1.400 . S
C1641 C1642 1.398 . S
C1642 H1630 0.950 . S
C1642 C1641 1.398 . S
C1642 C1643 1.391 . S
C1643 H1631 0.950 . S
C1643 C1639 1.393 . S
C1643 C1642 1.391 . S
H1644 C1652 0.950 . S
H1645 C1657 0.950 . S
H1646 C1654 0.950 . S
H1647 C1656 0.950 . S
H1648 C1658 0.950 . S
H1649 C1660 0.950 . S
H1650 C1662 0.950 . S
H1651 C1663 0.950 . S
C1652 H1644 0.950 . S
C1652 C1653 1.386 . S
C1652 C1654 1.391 . S
C1653 C1652 1.386 . S
C1653 C1657 1.393 . S
C1654 H1646 0.950 . S
C1654 C1652 1.391 . S
C1654 C1655 1.400 . S
C1655 C1654 1.400 . S
C1655 C1656 1.398 . S
C1655 C1661 1.491 . S
C1656 H1647 0.950 . S
C1656 C1655 1.398 . S
C1656 C1657 1.391 . S
C1657 H1645 0.950 . S
C1657 C1653 1.393 . S
C1657 C1656 1.391 . S
C1658 H1648 0.950 . S
C1658 C1659 1.386 . S
C1658 C1660 1.391 . S
C1659 C1658 1.386 . S
C1659 C1663 1.393 . S
C1660 H1649 0.950 . S
C1660 C1658 1.391 . S
C1660 C1661 1.400 . S
C1661 C1655 1.491 . S
C1661 C1660 1.400 . S
C1661 C1662 1.398 . S
C1662 H1650 0.950 . S
C1662 C1661 1.398 . S
C1662 C1663 1.391 . S
C1663 H1651 0.950 . S
C1663 C1659 1.393 . S
C1663 C1662 1.391 . S
H1664 C1672 0.950 . S
H1665 C1677 0.950 . S
H1666 C1674 0.950 . S
H1667 C1676 0.950 . S
H1668 C1678 0.950 . S
H1669 C1680 0.950 . S
H1670 C1682 0.950 . S
H1671 C1683 0.950 . S
C1672 H1664 0.950 . S
C1672 C1673 1.386 . S
C1672 C1674 1.391 . S
C1673 C1672 1.386 . S
C1673 C1677 1.393 . S
C1674 H1666 0.950 . S
C1674 C1672 1.391 . S
C1674 C1675 1.400 . S
C1675 C1674 1.400 . S
C1675 C1676 1.398 . S
C1675 C1681 1.491 . S
C1676 H1667 0.950 . S
C1676 C1675 1.398 . S
C1676 C1677 1.391 . S
C1677 H1665 0.950 . S
C1677 C1673 1.393 . S
C1677 C1676 1.391 . S
C1678 H1668 0.950 . S
C1678 C1679 1.386 . S
C1678 C1680 1.391 . S
C1679 C1678 1.386 . S
C1679 C1683 1.393 . S
C1680 H1669 0.950 . S
C1680 C1678 1.391 . S
C1680 C1681 1.400 . S
C1681 C1675 1.491 . S
C1681 C1680 1.400 . S
C1681 C1682 1.398 . S
C1682 H1670 0.950 . S
C1682 C1681 1.398 . S
C1682 C1683 1.391 . S
C1683 H1671 0.950 . S
C1683 C1679 1.393 . S
C1683 C1682 1.391 . S
H1684 C1692 0.950 . S
H1685 C1697 0.950 . S
H1686 C1694 0.950 . S
H1687 C1696 0.950 . S
H1688 C1698 0.950 . S
H1689 C1700 0.950 . S
H1690 C1702 0.950 . S
H1691 C1703 0.950 . S
C1692 H1684 0.950 . S
C1692 C1693 1.386 . S
C1692 C1694 1.391 . S
C1693 C1692 1.386 . S
C1693 C1697 1.393 . S
C1694 H1686 0.950 . S
C1694 C1692 1.391 . S
C1694 C1695 1.400 . S
C1695 C1694 1.400 . S
C1695 C1696 1.398 . S
C1695 C1701 1.491 . S
C1696 H1687 0.950 . S
C1696 C1695 1.398 . S
C1696 C1697 1.391 . S
C1697 H1685 0.950 . S
C1697 C1693 1.393 . S
C1697 C1696 1.391 . S
C1698 H1688 0.950 . S
C1698 C1699 1.386 . S
C1698 C1700 1.391 . S
C1699 C1698 1.386 . S
C1699 C1703 1.393 . S
C1700 H1689 0.950 . S
C1700 C1698 1.391 . S
C1700 C1701 1.400 . S
C1701 C1695 1.491 . S
C1701 C1700 1.400 . S
C1701 C1702 1.398 . S
C1702 H1690 0.950 . S
C1702 C1701 1.398 . S
C1702 C1703 1.391 . S
C1703 H1691 0.950 . S
C1703 C1699 1.393 . S
C1703 C1702 1.391 . S
H1704 C1712 0.950 . S
H1705 C1717 0.950 . S
H1706 C1714 0.950 . S
H1707 C1716 0.950 . S
H1708 C1718 0.950 . S
H1709 C1720 0.950 . S
H1710 C1722 0.950 . S
H1711 C1723 0.950 . S
C1712 H1704 0.950 . S
C1712 C1713 1.386 . S
C1712 C1714 1.391 . S
C1713 C1712 1.386 . S
C1713 C1717 1.393 . S
C1714 H1706 0.950 . S
C1714 C1712 1.391 . S
C1714 C1715 1.400 . S
C1715 C1714 1.400 . S
C1715 C1716 1.398 . S
C1715 C1721 1.491 . S
C1716 H1707 0.950 . S
C1716 C1715 1.398 . S
C1716 C1717 1.391 . S
C1717 H1705 0.950 . S
C1717 C1713 1.393 . S
C1717 C1716 1.391 . S
C1718 H1708 0.950 . S
C1718 C1719 1.386 . S
C1718 C1720 1.391 . S
C1719 C1718 1.386 . S
C1719 C1723 1.393 . S
C1720 H1709 0.950 . S
C1720 C1718 1.391 . S
C1720 C1721 1.400 . S
C1721 C1715 1.491 . S
C1721 C1720 1.400 . S
C1721 C1722 1.398 . S
C1722 H1710 0.950 . S
C1722 C1721 1.398 . S
C1722 C1723 1.391 . S
C1723 H1711 0.950 . S
C1723 C1719 1.393 . S
C1723 C1722 1.391 . S
H1724 C1732 0.950 . S
H1725 C1737 0.950 . S
H1726 C1734 0.950 . S
H1727 C1736 0.950 . S
H1728 C1738 0.950 . S
H1729 C1740 0.950 . S
H1730 C1742 0.950 . S
H1731 C1743 0.950 . S
C1732 H1724 0.950 . S
C1732 C1733 1.386 . S
C1732 C1734 1.391 . S
C1733 C1732 1.386 . S
C1733 C1737 1.393 . S
C1734 H1726 0.950 . S
C1734 C1732 1.391 . S
C1734 C1735 1.400 . S
C1735 C1734 1.400 . S
C1735 C1736 1.398 . S
C1735 C1741 1.491 . S
C1736 H1727 0.950 . S
C1736 C1735 1.398 . S
C1736 C1737 1.391 . S
C1737 H1725 0.950 . S
C1737 C1733 1.393 . S
C1737 C1736 1.391 . S
C1738 H1728 0.950 . S
C1738 C1739 1.386 . S
C1738 C1740 1.391 . S
C1739 C1738 1.386 . S
C1739 C1743 1.393 . S
C1740 H1729 0.950 . S
C1740 C1738 1.391 . S
C1740 C1741 1.400 . S
C1741 C1735 1.491 . S
C1741 C1740 1.400 . S
C1741 C1742 1.398 . S
C1742 H1730 0.950 . S
C1742 C1741 1.398 . S
C1742 C1743 1.391 . S
C1743 H1731 0.950 . S
C1743 C1739 1.393 . S
C1743 C1742 1.391 . S
H1744 C1752 0.950 . S
H1745 C1757 0.950 . S
H1746 C1754 0.950 . S
H1747 C1756 0.950 . S
H1748 C1758 0.950 . S
H1749 C1760 0.950 . S
H1750 C1762 0.950 . S
H1751 C1763 0.950 . S
C1752 H1744 0.950 . S
C1752 C1753 1.386 . S
C1752 C1754 1.391 . S
C1753 C1752 1.386 . S
C1753 C1757 1.393 . S
C1754 H1746 0.950 . S
C1754 C1752 1.391 . S
C1754 C1755 1.400 . S
C1755 C1754 1.400 . S
C1755 C1756 1.398 . S
C1755 C1761 1.491 . S
C1756 H1747 0.950 . S
C1756 C1755 1.398 . S
C1756 C1757 1.391 . S
C1757 H1745 0.950 . S
C1757 C1753 1.393 . S
C1757 C1756 1.391 . S
C1758 H1748 0.950 . S
C1758 C1759 1.386 . S
C1758 C1760 1.391 . S
C1759 C1758 1.386 . S
C1759 C1763 1.393 . S
C1760 H1749 0.950 . S
C1760 C1758 1.391 . S
C1760 C1761 1.400 . S
C1761 C1755 1.491 . S
C1761 C1760 1.400 . S
C1761 C1762 1.398 . S
C1762 H1750 0.950 . S
C1762 C1761 1.398 . S
C1762 C1763 1.391 . S
C1763 H1751 0.950 . S
C1763 C1759 1.393 . S
C1763 C1762 1.391 . S
H1764 C1772 0.950 . S
H1765 C1777 0.950 . S
H1766 C1774 0.950 . S
H1767 C1776 0.950 . S
H1768 C1778 0.950 . S
H1769 C1780 0.950 . S
H1770 C1782 0.950 . S
H1771 C1783 0.950 . S
C1772 H1764 0.950 . S
C1772 C1773 1.386 . S
C1772 C1774 1.391 . S
C1773 C1772 1.386 . S
C1773 C1777 1.393 . S
C1774 H1766 0.950 . S
C1774 C1772 1.391 . S
C1774 C1775 1.400 . S
C1775 C1774 1.400 . S
C1775 C1776 1.398 . S
C1775 C1781 1.491 . S
C1776 H1767 0.950 . S
C1776 C1775 1.398 . S
C1776 C1777 1.391 . S
C1777 H1765 0.950 . S
C1777 C1773 1.393 . S
C1777 C1776 1.391 . S
C1778 H1768 0.950 . S
C1778 C1779 1.386 . S
C1778 C1780 1.391 . S
C1779 C1778 1.386 . S
C1779 C1783 1.393 . S
C1780 H1769 0.950 . S
C1780 C1778 1.391 . S
C1780 C1781 1.400 . S
C1781 C1775 1.491 . S
C1781 C1780 1.400 . S
C1781 C1782 1.398 . S
C1782 H1770 0.950 . S
C1782 C1781 1.398 . S
C1782 C1783 1.391 . S
C1783 H1771 0.950 . S
C1783 C1779 1.393 . S
C1783 C1782 1.391 . S
H1784 C1792 0.950 . S
H1785 C1797 0.950 . S
H1786 C1794 0.950 . S
H1787 C1796 0.950 . S
H1788 C1798 0.950 . S
H1789 C1800 0.950 . S
H1790 C1802 0.950 . S
H1791 C1803 0.950 . S
C1792 H1784 0.950 . S
C1792 C1793 1.386 . S
C1792 C1794 1.391 . S
C1793 C1792 1.386 . S
C1793 C1797 1.393 . S
C1794 H1786 0.950 . S
C1794 C1792 1.391 . S
C1794 C1795 1.400 . S
C1795 C1794 1.400 . S
C1795 C1796 1.398 . S
C1795 C1801 1.491 . S
C1796 H1787 0.950 . S
C1796 C1795 1.398 . S
C1796 C1797 1.391 . S
C1797 H1785 0.950 . S
C1797 C1793 1.393 . S
C1797 C1796 1.391 . S
C1798 H1788 0.950 . S
C1798 C1799 1.386 . S
C1798 C1800 1.391 . S
C1799 C1798 1.386 . S
C1799 C1803 1.393 . S
C1800 H1789 0.950 . S
C1800 C1798 1.391 . S
C1800 C1801 1.400 . S
C1801 C1795 1.491 . S
C1801 C1800 1.400 . S
C1801 C1802 1.398 . S
C1802 H1790 0.950 . S
C1802 C1801 1.398 . S
C1802 C1803 1.391 . S
C1803 H1791 0.950 . S
C1803 C1799 1.393 . S
C1803 C1802 1.391 . S
H1804 C1812 0.950 . S
H1805 C1817 0.950 . S
H1806 C1814 0.950 . S
H1807 C1816 0.950 . S
H1808 C1818 0.950 . S
H1809 C1820 0.950 . S
H1810 C1822 0.950 . S
H1811 C1823 0.950 . S
C1812 H1804 0.950 . S
C1812 C1813 1.386 . S
C1812 C1814 1.391 . S
C1813 C1812 1.386 . S
C1813 C1817 1.393 . S
C1814 H1806 0.950 . S
C1814 C1812 1.391 . S
C1814 C1815 1.400 . S
C1815 C1814 1.400 . S
C1815 C1816 1.398 . S
C1815 C1821 1.491 . S
C1816 H1807 0.950 . S
C1816 C1815 1.398 . S
C1816 C1817 1.391 . S
C1817 H1805 0.950 . S
C1817 C1813 1.393 . S
C1817 C1816 1.391 . S
C1818 H1808 0.950 . S
C1818 C1819 1.386 . S
C1818 C1820 1.391 . S
C1819 C1818 1.386 . S
C1819 C1823 1.393 . S
C1820 H1809 0.950 . S
C1820 C1818 1.391 . S
C1820 C1821 1.400 . S
C1821 C1815 1.491 . S
C1821 C1820 1.400 . S
C1821 C1822 1.398 . S
C1822 H1810 0.950 . S
C1822 C1821 1.398 . S
C1822 C1823 1.391 . S
C1823 H1811 0.950 . S
C1823 C1819 1.393 . S
C1823 C1822 1.391 . S
H1824 C1832 0.950 . S
H1825 C1837 0.950 . S
H1826 C1834 0.950 . S
H1827 C1836 0.950 . S
H1828 C1838 0.950 1_554 S
H1829 C1840 0.950 . S
H1830 C1842 0.950 . S
H1831 C1843 0.950 . S
C1832 H1824 0.950 . S
C1832 C1833 1.386 . S
C1832 C1834 1.391 . S
C1833 C1832 1.386 . S
C1833 C1837 1.393 . S
C1834 H1826 0.950 . S
C1834 C1832 1.391 . S
C1834 C1835 1.400 . S
C1835 C1834 1.400 . S
C1835 C1836 1.398 . S
C1835 C1841 1.491 . S
C1836 H1827 0.950 . S
C1836 C1835 1.398 . S
C1836 C1837 1.391 . S
C1837 H1825 0.950 . S
C1837 C1833 1.393 . S
C1837 C1836 1.391 . S
C1838 H1828 0.950 1_556 S
C1838 C1839 1.386 1_556 S
C1838 C1840 1.391 . S
C1839 C1838 1.386 1_554 S
C1839 C1843 1.393 . S
C1840 H1829 0.950 . S
C1840 C1838 1.391 . S
C1840 C1841 1.400 . S
C1841 C1835 1.491 . S
C1841 C1840 1.400 . S
C1841 C1842 1.398 . S
C1842 H1830 0.950 . S
C1842 C1841 1.398 . S
C1842 C1843 1.391 1_556 S
C1843 H1831 0.950 . S
C1843 C1839 1.393 . S
C1843 C1842 1.391 1_554 S
H1844 C1852 0.950 . S
H1845 C1857 0.950 . S
H1846 C1854 0.950 . S
H1847 C1856 0.950 . S
H1848 C1858 0.950 . S
H1849 C1860 0.950 . S
H1850 C1862 0.950 . S
H1851 C1863 0.950 . S
C1852 H1844 0.950 . S
C1852 C1853 1.386 . S
C1852 C1854 1.391 1_554 S
C1853 C1852 1.386 . S
C1853 C1857 1.393 1_554 S
C1854 H1846 0.950 . S
C1854 C1852 1.391 1_556 S
C1854 C1855 1.400 . S
C1855 C1854 1.400 . S
C1855 C1856 1.398 . S
C1855 C1861 1.491 . S
C1856 H1847 0.950 . S
C1856 C1855 1.398 . S
C1856 C1857 1.391 . S
C1857 H1845 0.950 . S
C1857 C1853 1.393 1_556 S
C1857 C1856 1.391 . S
C1858 H1848 0.950 . S
C1858 C1859 1.386 . S
C1858 C1860 1.391 . S
C1859 C1858 1.386 . S
C1859 C1863 1.393 . S
C1860 H1849 0.950 . S
C1860 C1858 1.391 . S
C1860 C1861 1.400 . S
C1861 C1855 1.491 . S
C1861 C1860 1.400 . S
C1861 C1862 1.398 . S
C1862 H1850 0.950 . S
C1862 C1861 1.398 . S
C1862 C1863 1.391 . S
C1863 H1851 0.950 . S
C1863 C1859 1.393 . S
C1863 C1862 1.391 . S
H1864 C1872 0.950 . S
H1865 C1877 0.950 . S
H1866 C1874 0.950 . S
H1867 C1876 0.950 . S
H1868 C1878 0.950 . S
H1869 C1880 0.950 . S
H1870 C1882 0.950 . S
H1871 C1883 0.950 . S
C1872 H1864 0.950 . S
C1872 C1873 1.386 . S
C1872 C1874 1.391 1_554 S
C1873 C1872 1.386 . S
C1873 C1877 1.393 1_554 S
C1874 H1866 0.950 . S
C1874 C1872 1.391 1_556 S
C1874 C1875 1.400 . S
C1875 C1874 1.400 . S
C1875 C1876 1.398 . S
C1875 C1881 1.491 . S
C1876 H1867 0.950 . S
C1876 C1875 1.398 . S
C1876 C1877 1.391 . S
C1877 H1865 0.950 . S
C1877 C1873 1.393 1_556 S
C1877 C1876 1.391 . S
C1878 H1868 0.950 . S
C1878 C1879 1.386 . S
C1878 C1880 1.391 . S
C1879 C1878 1.386 . S
C1879 C1883 1.393 . S
C1880 H1869 0.950 . S
C1880 C1878 1.391 . S
C1880 C1881 1.400 . S
C1881 C1875 1.491 . S
C1881 C1880 1.400 . S
C1881 C1882 1.398 . S
C1882 H1870 0.950 . S
C1882 C1881 1.398 . S
C1882 C1883 1.391 . S
C1883 H1871 0.950 . S
C1883 C1879 1.393 . S
C1883 C1882 1.391 . S
H1884 C1892 0.950 . S
H1885 C1897 0.950 . S
H1886 C1894 0.950 . S
H1887 C1896 0.950 . S
H1888 C1898 0.950 . S
H1889 C1900 0.944 1_554 S
H1890 C1902 0.950 . S
H1891 C1903 0.950 . S
C1892 H1884 0.950 . S
C1892 C1893 1.386 . S
C1892 C1894 1.391 . S
C1893 C1892 1.386 . S
C1893 C1897 1.393 . S
C1894 H1886 0.950 . S
C1894 C1892 1.391 . S
C1894 C1895 1.400 . S
C1895 C1894 1.400 . S
C1895 C1896 1.398 . S
C1895 C1901 1.491 1_554 S
C1896 H1887 0.950 . S
C1896 C1895 1.398 . S
C1896 C1897 1.391 . S
C1897 H1885 0.950 . S
C1897 C1893 1.393 . S
C1897 C1896 1.391 . S
C1898 H1888 0.950 . S
C1898 C1899 1.386 . S
C1898 C1900 1.391 . S
C1899 C1898 1.386 . S
C1899 C1903 1.393 . S
C1900 H1889 0.944 1_556 S
C1900 C1898 1.391 . S
C1900 C1901 1.400 . S
C1901 C1895 1.491 1_556 S
C1901 C1900 1.400 . S
C1901 C1902 1.398 . S
C1902 H1890 0.950 . S
C1902 C1901 1.398 . S
C1902 C1903 1.391 . S
C1903 H1891 0.950 . S
C1903 C1899 1.393 . S
C1903 C1902 1.391 . S
H1904 C1912 0.950 . S
H1905 C1917 0.950 . S
H1906 C1914 0.950 1_556 S
H1907 C1916 0.950 . S
H1908 C1918 0.950 . S
H1909 C1920 0.950 . S
H1910 C1922 0.950 . S
H1911 C1923 0.950 . S
C1912 H1904 0.950 . S
C1912 C1913 1.386 . S
C1912 C1914 1.391 . S
C1913 C1912 1.386 . S
C1913 C1917 1.393 . S
C1914 H1906 0.950 1_554 S
C1914 C1912 1.391 . S
C1914 C1915 1.400 . S
C1915 C1914 1.400 . S
C1915 C1916 1.398 . S
C1915 C1921 1.491 1_554 S
C1916 H1907 0.950 . S
C1916 C1915 1.398 . S
C1916 C1917 1.391 . S
C1917 H1905 0.950 . S
C1917 C1913 1.393 . S
C1917 C1916 1.391 . S
C1918 H1908 0.950 . S
C1918 C1919 1.386 . S
C1918 C1920 1.391 1_556 S
C1919 C1918 1.386 . S
C1919 C1923 1.393 . S
C1920 H1909 0.950 . S
C1920 C1918 1.391 1_554 S
C1920 C1921 1.400 1_554 S
C1921 C1915 1.491 1_556 S
C1921 C1920 1.400 1_556 S
C1921 C1922 1.398 . S
C1922 H1910 0.950 . S
C1922 C1921 1.398 . S
C1922 C1923 1.391 . S
C1923 H1911 0.950 . S
C1923 C1919 1.393 . S
C1923 C1922 1.391 . S
H1924 C1932 0.950 . S
H1925 C1937 0.950 . S
H1926 C1934 0.950 1_554 S
H1927 C1936 0.950 . S
H1928 C1938 0.950 . S
H1929 C1940 0.950 . S
H1930 C1942 0.950 . S
H1931 C1943 0.950 . S
C1932 H1924 0.950 . S
C1932 C1933 1.386 . S
C1932 C1934 1.391 . S
C1933 C1932 1.386 . S
C1933 C1937 1.393 . S
C1934 H1926 0.950 1_556 S
C1934 C1932 1.391 . S
C1934 C1935 1.400 . S
C1935 C1934 1.400 . S
C1935 C1936 1.398 . S
C1935 C1941 1.491 1_556 S
C1936 H1927 0.950 . S
C1936 C1935 1.398 . S
C1936 C1937 1.391 . S
C1937 H1925 0.950 . S
C1937 C1933 1.393 . S
C1937 C1936 1.391 . S
C1938 H1928 0.950 . S
C1938 C1939 1.386 . S
C1938 C1940 1.391 . S
C1939 C1938 1.386 . S
C1939 C1943 1.393 . S
C1940 H1929 0.950 . S
C1940 C1938 1.391 . S
C1940 C1941 1.400 . S
C1941 C1935 1.491 1_554 S
C1941 C1940 1.400 . S
C1941 C1942 1.398 . S
C1942 H1930 0.950 . S
C1942 C1941 1.398 . S
C1942 C1943 1.391 . S
C1943 H1931 0.950 . S
C1943 C1939 1.393 . S
C1943 C1942 1.391 . S
H1944 C1952 0.950 . S
H1945 C1957 0.950 . S
H1946 C1954 0.950 . S
H1947 C1956 0.950 . S
H1948 C1958 0.950 . S
H1949 C1960 0.950 . S
H1950 C1962 0.950 . S
H1951 C1963 0.950 . S
C1952 H1944 0.950 . S
C1952 C1953 1.386 . S
C1952 C1954 1.391 . S
C1953 C1952 1.386 . S
C1953 C1957 1.393 . S
C1954 H1946 0.950 . S
C1954 C1952 1.391 . S
C1954 C1955 1.400 . S
C1955 C1954 1.400 . S
C1955 C1956 1.398 . S
C1955 C1961 1.491 . S
C1956 H1947 0.950 . S
C1956 C1955 1.398 . S
C1956 C1957 1.391 . S
C1957 H1945 0.950 . S
C1957 C1953 1.393 . S
C1957 C1956 1.391 . S
C1958 H1948 0.950 . S
C1958 C1959 1.386 . S
C1958 C1960 1.391 . S
C1959 C1958 1.386 . S
C1959 C1963 1.393 . S
C1960 H1949 0.950 . S
C1960 C1958 1.391 . S
C1960 C1961 1.400 . S
C1961 C1955 1.491 . S
C1961 C1960 1.400 . S
C1961 C1962 1.398 . S
C1962 H1950 0.950 . S
C1962 C1961 1.398 . S
C1962 C1963 1.391 . S
C1963 H1951 0.950 . S
C1963 C1959 1.393 . S
C1963 C1962 1.391 . S
H1964 C1972 0.950 . S
H1965 C1977 0.950 . S
H1966 C1974 0.950 . S
H1967 C1976 0.950 1_565 S
H1968 C1978 0.950 . S
H1969 C1980 0.950 . S
H1970 C1982 0.950 1_545 S
H1971 C1983 0.950 . S
C1972 H1964 0.950 . S
C1972 C1973 1.386 . S
C1972 C1974 1.391 . S
C1973 C1972 1.386 . S
C1973 C1977 1.393 . S
C1974 H1966 0.950 . S
C1974 C1972 1.391 . S
C1974 C1975 1.400 . S
C1975 C1974 1.400 . S
C1975 C1976 1.398 . S
C1975 C1981 1.491 1_545 S
C1976 H1967 0.950 1_545 S
C1976 C1975 1.398 . S
C1976 C1977 1.391 . S
C1977 H1965 0.950 . S
C1977 C1973 1.393 . S
C1977 C1976 1.391 . S
C1978 H1968 0.950 . S
C1978 C1979 1.386 . S
C1978 C1980 1.391 . S
C1979 C1978 1.386 . S
C1979 C1983 1.393 . S
C1980 H1969 0.950 . S
C1980 C1978 1.391 . S
C1980 C1981 1.400 . S
C1981 C1975 1.491 1_565 S
C1981 C1980 1.400 . S
C1981 C1982 1.398 . S
C1982 H1970 0.950 1_565 S
C1982 C1981 1.398 . S
C1982 C1983 1.391 . S
C1983 H1971 0.950 . S
C1983 C1979 1.393 . S
C1983 C1982 1.391 . S
H1984 C1992 0.950 . S
H1985 C1997 0.950 . S
H1986 C1994 0.950 1_455 S
H1987 C1996 0.950 . S
H1988 C1998 0.950 . S
H1989 C2000 0.950 1_655 S
H1990 C2002 0.950 . S
H1991 C2003 0.950 . S
C1992 H1984 0.950 . S
C1992 C1993 1.386 . S
C1992 C1994 1.391 . S
C1993 C1992 1.386 . S
C1993 C1997 1.393 . S
C1994 H1986 0.950 1_655 S
C1994 C1992 1.391 . S
C1994 C1995 1.400 . S
C1995 C1994 1.400 . S
C1995 C1996 1.398 . S
C1995 C2001 1.491 1_655 S
C1996 H1987 0.950 . S
C1996 C1995 1.398 . S
C1996 C1997 1.391 . S
C1997 H1985 0.950 . S
C1997 C1993 1.393 . S
C1997 C1996 1.391 . S
C1998 H1988 0.950 . S
C1998 C1999 1.386 . S
C1998 C2000 1.391 . S
C1999 C1998 1.386 . S
C1999 C2003 1.393 . S
C2000 H1989 0.950 1_455 S
C2000 C1998 1.391 . S
C2000 C2001 1.400 . S
C2001 C1995 1.491 1_455 S
C2001 C2000 1.400 . S
C2001 C2002 1.398 . S
C2002 H1990 0.950 . S
C2002 C2001 1.398 . S
C2002 C2003 1.391 . S
C2003 H1991 0.950 . S
C2003 C1999 1.393 . S
C2003 C2002 1.391 . S
H2004 C2012 0.950 . S
H2005 C2017 0.950 . S
H2006 C2014 0.950 . S
H2007 C2016 0.950 . S
H2008 C2018 0.950 . S
H2009 C2020 0.950 . S
H2010 C2022 0.950 . S
H2011 C2023 0.950 . S
C2012 H2004 0.950 . S
C2012 C2013 1.386 . S
C2012 C2014 1.391 . S
C2013 C2012 1.386 . S
C2013 C2017 1.393 . S
C2014 H2006 0.950 . S
C2014 C2012 1.391 . S
C2014 C2015 1.400 . S
C2015 C2014 1.400 . S
C2015 C2016 1.398 . S
C2015 C2021 1.491 . S
C2016 H2007 0.950 . S
C2016 C2015 1.398 . S
C2016 C2017 1.391 . S
C2017 H2005 0.950 . S
C2017 C2013 1.393 . S
C2017 C2016 1.391 . S
C2018 H2008 0.950 . S
C2018 C2019 1.386 . S
C2018 C2020 1.391 . S
C2019 C2018 1.386 . S
C2019 C2023 1.393 . S
C2020 H2009 0.950 . S
C2020 C2018 1.391 . S
C2020 C2021 1.400 . S
C2021 C2015 1.491 . S
C2021 C2020 1.400 . S
C2021 C2022 1.398 . S
C2022 H2010 0.950 . S
C2022 C2021 1.398 . S
C2022 C2023 1.391 . S
C2023 H2011 0.950 . S
C2023 C2019 1.393 . S
C2023 C2022 1.391 . S
H2024 C2032 0.950 . S
H2025 C2037 0.950 . S
H2026 C2034 0.950 . S
H2027 C2036 0.950 . S
H2028 C2038 0.950 . S
H2029 C2040 0.950 . S
H2030 C2042 0.950 . S
H2031 C2043 0.950 . S
C2032 H2024 0.950 . S
C2032 C2033 1.386 . S
C2032 C2034 1.391 . S
C2033 C2032 1.386 . S
C2033 C2037 1.393 . S
C2034 H2026 0.950 . S
C2034 C2032 1.391 . S
C2034 C2035 1.400 . S
C2035 C2034 1.400 . S
C2035 C2036 1.398 . S
C2035 C2041 1.491 1_565 S
C2036 H2027 0.950 . S
C2036 C2035 1.398 . S
C2036 C2037 1.391 . S
C2037 H2025 0.950 . S
C2037 C2033 1.393 . S
C2037 C2036 1.391 . S
C2038 H2028 0.950 . S
C2038 C2039 1.386 . S
C2038 C2040 1.391 . S
C2039 C2038 1.386 . S
C2039 C2043 1.393 . S
C2040 H2029 0.950 . S
C2040 C2038 1.391 . S
C2040 C2041 1.400 . S
C2041 C2035 1.491 1_545 S
C2041 C2040 1.400 . S
C2041 C2042 1.398 . S
C2042 H2030 0.950 . S
C2042 C2041 1.398 . S
C2042 C2043 1.391 . S
C2043 H2031 0.950 . S
C2043 C2039 1.393 . S
C2043 C2042 1.391 . S
H2044 C2052 0.950 . S
H2045 C2057 0.950 . S
H2046 C2054 0.950 . S
H2047 C2056 0.950 . S
H2048 C2058 0.950 . S
H2049 C2060 0.950 . S
H2050 C2062 0.950 . S
H2051 C2063 0.950 . S
C2052 H2044 0.950 . S
C2052 C2053 1.386 . S
C2052 C2054 1.391 . S
C2053 C2052 1.386 . S
C2053 C2057 1.393 . S
C2054 H2046 0.950 . S
C2054 C2052 1.391 . S
C2054 C2055 1.400 . S
C2055 C2054 1.400 . S
C2055 C2056 1.398 . S
C2055 C2061 1.491 1_655 S
C2056 H2047 0.950 . S
C2056 C2055 1.398 . S
C2056 C2057 1.391 . S
C2057 H2045 0.950 . S
C2057 C2053 1.393 . S
C2057 C2056 1.391 . S
C2058 H2048 0.950 . S
C2058 C2059 1.386 . S
C2058 C2060 1.391 . S
C2059 C2058 1.386 . S
C2059 C2063 1.393 . S
C2060 H2049 0.950 . S
C2060 C2058 1.391 . S
C2060 C2061 1.400 . S
C2061 C2055 1.491 1_455 S
C2061 C2060 1.400 . S
C2061 C2062 1.398 . S
C2062 H2050 0.950 . S
C2062 C2061 1.398 . S
C2062 C2063 1.391 . S
C2063 H2051 0.950 . S
C2063 C2059 1.393 . S
C2063 C2062 1.391 . S
H2064 C2072 0.950 . S
H2065 C2077 0.950 . S
H2066 C2074 0.950 . S
H2067 C2076 0.950 . S
H2068 C2078 0.950 . S
H2069 C2080 0.950 . S
H2070 C2082 0.950 . S
H2071 C2083 0.950 . S
C2072 H2064 0.950 . S
C2072 C2073 1.386 . S
C2072 C2074 1.391 . S
C2073 C2072 1.386 . S
C2073 C2077 1.393 . S
C2074 H2066 0.950 . S
C2074 C2072 1.391 . S
C2074 C2075 1.400 . S
C2075 C2074 1.400 . S
C2075 C2076 1.398 . S
C2075 C2081 1.491 . S
C2076 H2067 0.950 . S
C2076 C2075 1.398 . S
C2076 C2077 1.391 . S
C2077 H2065 0.950 . S
C2077 C2073 1.393 . S
C2077 C2076 1.391 . S
C2078 H2068 0.950 . S
C2078 C2079 1.386 . S
C2078 C2080 1.391 . S
C2079 C2078 1.386 . S
C2079 C2083 1.393 . S
C2080 H2069 0.950 . S
C2080 C2078 1.391 . S
C2080 C2081 1.400 . S
C2081 C2075 1.491 . S
C2081 C2080 1.400 . S
C2081 C2082 1.398 . S
C2082 H2070 0.950 . S
C2082 C2081 1.398 . S
C2082 C2083 1.391 . S
C2083 H2071 0.950 . S
C2083 C2079 1.393 . S
C2083 C2082 1.391 . S
H2084 C2092 0.950 . S
H2085 C2097 0.950 . S
H2086 C2094 0.950 . S
H2087 C2096 0.950 . S
H2088 C2098 0.950 . S
H2089 C2100 0.950 . S
H2090 C2102 0.950 . S
H2091 C2103 0.950 . S
C2092 H2084 0.950 . S
C2092 C2093 1.386 . S
C2092 C2094 1.391 . S
C2093 C2092 1.386 . S
C2093 C2097 1.393 . S
C2094 H2086 0.950 . S
C2094 C2092 1.391 . S
C2094 C2095 1.400 . S
C2095 C2094 1.400 . S
C2095 C2096 1.398 . S
C2095 C2101 1.491 . S
C2096 H2087 0.950 . S
C2096 C2095 1.398 . S
C2096 C2097 1.391 . S
C2097 H2085 0.950 . S
C2097 C2093 1.393 . S
C2097 C2096 1.391 . S
C2098 H2088 0.950 . S
C2098 C2099 1.386 . S
C2098 C2100 1.391 . S
C2099 C2098 1.386 . S
C2099 C2103 1.393 . S
C2100 H2089 0.950 . S
C2100 C2098 1.391 . S
C2100 C2101 1.400 . S
C2101 C2095 1.491 . S
C2101 C2100 1.400 . S
C2101 C2102 1.398 . S
C2102 H2090 0.950 . S
C2102 C2101 1.398 . S
C2102 C2103 1.391 . S
C2103 H2091 0.950 . S
C2103 C2099 1.393 . S
C2103 C2102 1.391 . S
H2104 C2112 0.950 . S
H2105 C2117 0.950 . S
H2106 C2114 0.950 . S
H2107 C2116 0.950 . S
H2108 C2118 0.950 . S
H2109 C2120 0.950 . S
H2110 C2122 0.950 . S
H2111 C2123 0.950 . S
C2112 H2104 0.950 . S
C2112 C2113 1.386 . S
C2112 C2114 1.391 . S
C2113 C2112 1.386 . S
C2113 C2117 1.393 . S
C2114 H2106 0.950 . S
C2114 C2112 1.391 . S
C2114 C2115 1.400 . S
C2115 C2114 1.400 . S
C2115 C2116 1.398 . S
C2115 C2121 1.491 . S
C2116 H2107 0.950 . S
C2116 C2115 1.398 . S
C2116 C2117 1.391 . S
C2117 H2105 0.950 . S
C2117 C2113 1.393 . S
C2117 C2116 1.391 . S
C2118 H2108 0.950 . S
C2118 C2119 1.386 . S
C2118 C2120 1.391 . S
C2119 C2118 1.386 . S
C2119 C2123 1.393 . S
C2120 H2109 0.950 . S
C2120 C2118 1.391 . S
C2120 C2121 1.400 . S
C2121 C2115 1.491 . S
C2121 C2120 1.400 . S
C2121 C2122 1.398 . S
C2122 H2110 0.950 . S
C2122 C2121 1.398 . S
C2122 C2123 1.391 . S
C2123 H2111 0.950 . S
C2123 C2119 1.393 . S
C2123 C2122 1.391 . S
H2124 C2132 0.950 . S
H2125 C2137 0.950 . S
H2126 C2134 0.950 . S
H2127 C2136 0.950 . S
H2128 C2138 0.962 . S
H2129 C2140 0.950 . S
H2130 C2142 0.950 . S
H2131 C2143 0.950 . S
C2132 H2124 0.950 . S
C2132 C2133 1.386 . S
C2132 C2134 1.391 . S
C2133 C2132 1.386 . S
C2133 C2137 1.393 . S
C2134 H2126 0.950 . S
C2134 C2132 1.391 . S
C2134 C2135 1.400 . S
C2135 C2134 1.400 . S
C2135 C2136 1.398 . S
C2135 C2141 1.491 . S
C2136 H2127 0.950 . S
C2136 C2135 1.398 . S
C2136 C2137 1.391 . S
C2137 H2125 0.950 . S
C2137 C2133 1.393 . S
C2137 C2136 1.391 . S
C2138 H2128 0.962 . S
C2138 C2139 1.386 . S
C2138 C2140 1.391 . S
C2139 C2138 1.386 . S
C2139 C2143 1.393 . S
C2140 H2129 0.950 . S
C2140 C2138 1.391 . S
C2140 C2141 1.400 . S
C2141 C2135 1.491 . S
C2141 C2140 1.400 . S
C2141 C2142 1.398 . S
C2142 H2130 0.950 . S
C2142 C2141 1.398 . S
C2142 C2143 1.391 . S
C2143 H2131 0.950 . S
C2143 C2139 1.393 . S
C2143 C2142 1.391 . S
H2144 C2152 0.950 . S
H2145 C2157 0.950 . S
H2146 C2154 0.950 . S
H2147 C2156 0.950 . S
H2148 C2158 0.950 . S
H2149 C2160 0.950 . S
H2150 C2162 0.950 . S
H2151 C2163 0.950 . S
C2152 H2144 0.950 . S
C2152 C2153 1.386 . S
C2152 C2154 1.391 . S
C2153 C2152 1.386 . S
C2153 C2157 1.393 . S
C2154 H2146 0.950 . S
C2154 C2152 1.391 . S
C2154 C2155 1.400 . S
C2155 C2154 1.400 . S
C2155 C2156 1.398 . S
C2155 C2161 1.491 . S
C2156 H2147 0.950 . S
C2156 C2155 1.398 . S
C2156 C2157 1.391 . S
C2157 H2145 0.950 . S
C2157 C2153 1.393 . S
C2157 C2156 1.391 . S
C2158 H2148 0.950 . S
C2158 C2159 1.386 . S
C2158 C2160 1.391 . S
C2159 C2158 1.386 . S
C2159 C2163 1.393 . S
C2160 H2149 0.950 . S
C2160 C2158 1.391 . S
C2160 C2161 1.400 . S
C2161 C2155 1.491 . S
C2161 C2160 1.400 . S
C2161 C2162 1.398 . S
C2162 H2150 0.950 . S
C2162 C2161 1.398 . S
C2162 C2163 1.391 . S
C2163 H2151 0.950 . S
C2163 C2159 1.393 . S
C2163 C2162 1.391 . S
H2164 C2172 0.950 1_556 S
H2165 C2177 0.950 . S
H2166 C2174 0.950 . S
H2167 C2176 0.950 . S
H2168 C2178 0.950 . S
H2169 C2180 0.950 . S
H2170 C2182 0.950 . S
H2171 C2183 0.950 . S
C2172 H2164 0.950 1_554 S
C2172 C2173 1.386 . S
C2172 C2174 1.391 . S
C2173 C2172 1.386 . S
C2173 C2177 1.393 . S
C2174 H2166 0.950 . S
C2174 C2172 1.391 . S
C2174 C2175 1.400 . S
C2175 C2174 1.400 . S
C2175 C2176 1.398 . S
C2175 C2181 1.491 . S
C2176 H2167 0.950 . S
C2176 C2175 1.398 . S
C2176 C2177 1.391 . S
C2177 H2165 0.950 . S
C2177 C2173 1.393 . S
C2177 C2176 1.391 . S
C2178 H2168 0.950 . S
C2178 C2179 1.386 . S
C2178 C2180 1.391 . S
C2179 C2178 1.386 . S
C2179 C2183 1.393 . S
C2180 H2169 0.950 . S
C2180 C2178 1.391 . S
C2180 C2181 1.400 . S
C2181 C2175 1.491 . S
C2181 C2180 1.400 . S
C2181 C2182 1.398 . S
C2182 H2170 0.950 . S
C2182 C2181 1.398 . S
C2182 C2183 1.391 . S
C2183 H2171 0.950 . S
C2183 C2179 1.393 . S
C2183 C2182 1.391 . S
H2184 C2192 0.950 . S
H2185 C2197 0.950 . S
H2186 C2194 0.950 . S
H2187 C2196 0.950 . S
H2188 C2198 0.950 . S
H2189 C2200 0.950 . S
H2190 C2202 0.950 . S
H2191 C2203 0.950 . S
C2192 H2184 0.950 . S
C2192 C2193 1.386 . S
C2192 C2194 1.391 . S
C2193 C2192 1.386 . S
C2193 C2197 1.393 . S
C2194 H2186 0.950 . S
C2194 C2192 1.391 . S
C2194 C2195 1.400 . S
C2195 C2194 1.400 . S
C2195 C2196 1.398 . S
C2195 C2201 1.491 . S
C2196 H2187 0.950 . S
C2196 C2195 1.398 . S
C2196 C2197 1.391 . S
C2197 H2185 0.950 . S
C2197 C2193 1.393 . S
C2197 C2196 1.391 . S
C2198 H2188 0.950 . S
C2198 C2199 1.386 . S
C2198 C2200 1.391 1_554 S
C2199 C2198 1.386 . S
C2199 C2203 1.393 . S
C2200 H2189 0.950 . S
C2200 C2198 1.391 1_556 S
C2200 C2201 1.400 . S
C2201 C2195 1.491 . S
C2201 C2200 1.400 . S
C2201 C2202 1.398 1_556 S
C2202 H2190 0.950 . S
C2202 C2201 1.398 1_554 S
C2202 C2203 1.391 . S
C2203 H2191 0.950 . S
C2203 C2199 1.393 . S
C2203 C2202 1.391 . S
H2204 C2212 0.950 . S
H2205 C2217 0.950 . S
H2206 C2214 0.950 . S
H2207 C2216 0.950 . S
H2208 C2218 0.950 . S
H2209 C2220 0.950 . S
H2210 C2222 0.950 . S
H2211 C2223 0.950 . S
C2212 H2204 0.950 . S
C2212 C2213 1.386 . S
C2212 C2214 1.391 1_554 S
C2213 C2212 1.386 . S
C2213 C2217 1.393 . S
C2214 H2206 0.950 . S
C2214 C2212 1.391 1_556 S
C2214 C2215 1.400 . S
C2215 C2214 1.400 . S
C2215 C2216 1.398 1_556 S
C2215 C2221 1.491 . S
C2216 H2207 0.950 . S
C2216 C2215 1.398 1_554 S
C2216 C2217 1.391 . S
C2217 H2205 0.950 . S
C2217 C2213 1.393 . S
C2217 C2216 1.391 . S
C2218 H2208 0.950 . S
C2218 C2219 1.386 . S
C2218 C2220 1.391 . S
C2219 C2218 1.386 . S
C2219 C2223 1.393 . S
C2220 H2209 0.950 . S
C2220 C2218 1.391 . S
C2220 C2221 1.400 . S
C2221 C2215 1.491 . S
C2221 C2220 1.400 . S
C2221 C2222 1.398 . S
C2222 H2210 0.950 . S
C2222 C2221 1.398 . S
C2222 C2223 1.391 . S
C2223 H2211 0.950 . S
C2223 C2219 1.393 . S
C2223 C2222 1.391 . S
H2224 C2232 0.950 . S
H2225 C2237 0.950 . S
H2226 C2234 0.950 . S
H2227 C2236 0.950 . S
H2228 C2238 0.950 . S
H2229 C2240 0.950 . S
H2230 C2242 0.950 . S
H2231 C2243 0.950 . S
C2232 H2224 0.950 . S
C2232 C2233 1.386 . S
C2232 C2234 1.391 . S
C2233 C2232 1.386 . S
C2233 C2237 1.393 . S
C2234 H2226 0.950 . S
C2234 C2232 1.391 . S
C2234 C2235 1.400 . S
C2235 C2234 1.400 . S
C2235 C2236 1.398 . S
C2235 C2241 1.491 . S
C2236 H2227 0.950 . S
C2236 C2235 1.398 . S
C2236 C2237 1.391 . S
C2237 H2225 0.950 . S
C2237 C2233 1.393 . S
C2237 C2236 1.391 . S
C2238 H2228 0.950 . S
C2238 C2239 1.386 . S
C2238 C2240 1.391 1_554 S
C2239 C2238 1.386 . S
C2239 C2243 1.393 . S
C2240 H2229 0.950 . S
C2240 C2238 1.391 1_556 S
C2240 C2241 1.400 . S
C2241 C2235 1.491 . S
C2241 C2240 1.400 . S
C2241 C2242 1.398 1_556 S
C2242 H2230 0.950 . S
C2242 C2241 1.398 1_554 S
C2242 C2243 1.391 . S
C2243 H2231 0.950 . S
C2243 C2239 1.393 . S
C2243 C2242 1.391 . S
H2244 C2252 0.950 . S
H2245 C2257 0.950 . S
H2246 C2254 0.950 . S
H2247 C2256 0.950 . S
H2248 C2258 0.950 . S
H2249 C2260 0.950 . S
H2250 C2262 0.950 . S
H2251 C2263 0.950 . S
C2252 H2244 0.950 . S
C2252 C2253 1.386 . S
C2252 C2254 1.391 . S
C2253 C2252 1.386 . S
C2253 C2257 1.393 . S
C2254 H2246 0.950 . S
C2254 C2252 1.391 . S
C2254 C2255 1.400 . S
C2255 C2254 1.400 . S
C2255 C2256 1.398 . S
C2255 C2261 1.491 . S
C2256 H2247 0.950 . S
C2256 C2255 1.398 . S
C2256 C2257 1.391 . S
C2257 H2245 0.950 . S
C2257 C2253 1.393 . S
C2257 C2256 1.391 . S
C2258 H2248 0.950 . S
C2258 C2259 1.386 . S
C2258 C2260 1.391 . S
C2259 C2258 1.386 . S
C2259 C2263 1.393 . S
C2260 H2249 0.950 . S
C2260 C2258 1.391 . S
C2260 C2261 1.400 . S
C2261 C2255 1.491 . S
C2261 C2260 1.400 . S
C2261 C2262 1.398 . S
C2262 H2250 0.950 . S
C2262 C2261 1.398 . S
C2262 C2263 1.391 . S
C2263 H2251 0.950 . S
C2263 C2259 1.393 . S
C2263 C2262 1.391 . S
H2264 C2272 0.950 . S
H2265 C2277 0.950 . S
H2266 C2274 0.950 . S
H2267 C2276 0.950 . S
H2268 C2278 0.950 . S
H2269 C2280 0.950 . S
H2270 C2282 0.950 . S
H2271 C2283 0.950 . S
C2272 H2264 0.950 . S
C2272 C2273 1.386 . S
C2272 C2274 1.391 . S
C2273 C2272 1.386 . S
C2273 C2277 1.393 . S
C2274 H2266 0.950 . S
C2274 C2272 1.391 . S
C2274 C2275 1.400 . S
C2275 C2274 1.400 . S
C2275 C2276 1.398 . S
C2275 C2281 1.491 . S
C2276 H2267 0.950 . S
C2276 C2275 1.398 . S
C2276 C2277 1.391 . S
C2277 H2265 0.950 . S
C2277 C2273 1.393 . S
C2277 C2276 1.391 . S
C2278 H2268 0.950 . S
C2278 C2279 1.386 . S
C2278 C2280 1.391 . S
C2279 C2278 1.386 . S
C2279 C2283 1.393 . S
C2280 H2269 0.950 . S
C2280 C2278 1.391 . S
C2280 C2281 1.400 . S
C2281 C2275 1.491 . S
C2281 C2280 1.400 . S
C2281 C2282 1.398 . S
C2282 H2270 0.950 . S
C2282 C2281 1.398 . S
C2282 C2283 1.391 . S
C2283 H2271 0.950 . S
C2283 C2279 1.393 . S
C2283 C2282 1.391 . S
H2284 C2292 0.950 . S
H2285 C2297 0.950 . S
H2286 C2294 0.950 . S
H2287 C2296 0.950 . S
H2288 C2298 0.950 . S
H2289 C2300 0.950 . S
H2290 C2302 0.950 . S
H2291 C2303 0.950 . S
C2292 H2284 0.950 . S
C2292 C2293 1.386 . S
C2292 C2294 1.391 . S
C2293 C2292 1.386 . S
C2293 C2297 1.393 . S
C2294 H2286 0.950 . S
C2294 C2292 1.391 . S
C2294 C2295 1.400 . S
C2295 C2294 1.400 . S
C2295 C2296 1.398 . S
C2295 C2301 1.491 . S
C2296 H2287 0.950 . S
C2296 C2295 1.398 . S
C2296 C2297 1.391 . S
C2297 H2285 0.950 . S
C2297 C2293 1.393 . S
C2297 C2296 1.391 . S
C2298 H2288 0.950 . S
C2298 C2299 1.386 . S
C2298 C2300 1.391 . S
C2299 C2298 1.386 . S
C2299 C2303 1.393 . S
C2300 H2289 0.950 . S
C2300 C2298 1.391 . S
C2300 C2301 1.400 . S
C2301 C2295 1.491 . S
C2301 C2300 1.400 . S
C2301 C2302 1.398 . S
C2302 H2290 0.950 . S
C2302 C2301 1.398 . S
C2302 C2303 1.391 . S
C2303 H2291 0.950 . S
C2303 C2299 1.393 . S
C2303 C2302 1.391 . S
H2304 C2312 0.950 . S
H2305 C2317 0.950 . S
H2306 C2314 0.950 . S
H2307 C2316 0.950 . S
H2308 C2318 0.950 . S
H2309 C2320 0.950 . S
H2310 C2322 0.950 . S
H2311 C2323 0.950 . S
C2312 H2304 0.950 . S
C2312 C2313 1.386 . S
C2312 C2314 1.391 . S
C2313 C2312 1.386 . S
C2313 C2317 1.393 . S
C2314 H2306 0.950 . S
C2314 C2312 1.391 . S
C2314 C2315 1.400 . S
C2315 C2314 1.400 . S
C2315 C2316 1.398 . S
C2315 C2321 1.491 . S
C2316 H2307 0.950 . S
C2316 C2315 1.398 . S
C2316 C2317 1.391 . S
C2317 H2305 0.950 . S
C2317 C2313 1.393 . S
C2317 C2316 1.391 . S
C2318 H2308 0.950 . S
C2318 C2319 1.386 . S
C2318 C2320 1.391 . S
C2319 C2318 1.386 . S
C2319 C2323 1.393 . S
C2320 H2309 0.950 . S
C2320 C2318 1.391 . S
C2320 C2321 1.400 . S
C2321 C2315 1.491 . S
C2321 C2320 1.400 . S
C2321 C2322 1.398 . S
C2322 H2310 0.950 . S
C2322 C2321 1.398 . S
C2322 C2323 1.391 . S
C2323 H2311 0.950 . S
C2323 C2319 1.393 . S
C2323 C2322 1.391 . S
H2324 C2332 0.950 . S
H2325 C2337 0.950 . S
H2326 C2334 0.950 . S
H2327 C2336 0.950 1_565 S
H2328 C2338 0.950 . S
H2329 C2340 0.950 . S
H2330 C2342 0.950 1_545 S
H2331 C2343 0.950 . S
C2332 H2324 0.950 . S
C2332 C2333 1.386 . S
C2332 C2334 1.391 . S
C2333 C2332 1.386 . S
C2333 C2337 1.393 . S
C2334 H2326 0.950 . S
C2334 C2332 1.391 . S
C2334 C2335 1.400 . S
C2335 C2334 1.400 . S
C2335 C2336 1.398 . S
C2335 C2341 1.491 1_545 S
C2336 H2327 0.950 1_545 S
C2336 C2335 1.398 . S
C2336 C2337 1.391 . S
C2337 H2325 0.950 . S
C2337 C2333 1.393 . S
C2337 C2336 1.391 . S
C2338 H2328 0.950 . S
C2338 C2339 1.386 . S
C2338 C2340 1.391 . S
C2339 C2338 1.386 . S
C2339 C2343 1.393 . S
C2340 H2329 0.950 . S
C2340 C2338 1.391 . S
C2340 C2341 1.400 . S
C2341 C2335 1.491 1_565 S
C2341 C2340 1.400 . S
C2341 C2342 1.398 . S
C2342 H2330 0.950 1_565 S
C2342 C2341 1.398 . S
C2342 C2343 1.391 . S
C2343 H2331 0.950 . S
C2343 C2339 1.393 . S
C2343 C2342 1.391 . S
H2344 C2352 0.950 . S
H2345 C2357 0.950 . S
H2346 C2354 0.950 . S
H2347 C2356 0.950 1_655 S
H2348 C2358 0.950 . S
H2349 C2360 0.950 . S
H2350 C2362 0.950 1_455 S
H2351 C2363 0.950 . S
C2352 H2344 0.950 . S
C2352 C2353 1.386 . S
C2352 C2354 1.391 . S
C2353 C2352 1.386 . S
C2353 C2357 1.393 . S
C2354 H2346 0.950 . S
C2354 C2352 1.391 . S
C2354 C2355 1.400 . S
C2355 C2354 1.400 . S
C2355 C2356 1.398 . S
C2355 C2361 1.491 1_455 S
C2356 H2347 0.950 1_455 S
C2356 C2355 1.398 . S
C2356 C2357 1.391 . S
C2357 H2345 0.950 . S
C2357 C2353 1.393 . S
C2357 C2356 1.391 . S
C2358 H2348 0.950 . S
C2358 C2359 1.386 . S
C2358 C2360 1.391 . S
C2359 C2358 1.386 . S
C2359 C2363 1.393 . S
C2360 H2349 0.950 . S
C2360 C2358 1.391 . S
C2360 C2361 1.400 . S
C2361 C2355 1.491 1_655 S
C2361 C2360 1.400 . S
C2361 C2362 1.398 . S
C2362 H2350 0.950 1_655 S
C2362 C2361 1.398 . S
C2362 C2363 1.391 . S
C2363 H2351 0.950 . S
C2363 C2359 1.393 . S
C2363 C2362 1.391 . S
H2364 C2372 0.950 . S
H2365 C2377 0.950 . S
H2366 C2374 0.950 . S
H2367 C2376 0.950 . S
H2368 C2378 0.950 . S
H2369 C2380 0.950 . S
H2370 C2382 0.950 . S
H2371 C2383 0.950 . S
C2372 H2364 0.950 . S
C2372 C2373 1.386 . S
C2372 C2374 1.391 . S
C2373 C2372 1.386 . S
C2373 C2377 1.393 . S
C2374 H2366 0.950 . S
C2374 C2372 1.391 . S
C2374 C2375 1.400 . S
C2375 C2374 1.400 . S
C2375 C2376 1.398 . S
C2375 C2381 1.491 . S
C2376 H2367 0.950 . S
C2376 C2375 1.398 . S
C2376 C2377 1.391 . S
C2377 H2365 0.950 . S
C2377 C2373 1.393 . S
C2377 C2376 1.391 . S
C2378 H2368 0.950 . S
C2378 C2379 1.386 . S
C2378 C2380 1.391 . S
C2379 C2378 1.386 . S
C2379 C2383 1.393 . S
C2380 H2369 0.950 . S
C2380 C2378 1.391 . S
C2380 C2381 1.400 . S
C2381 C2375 1.491 . S
C2381 C2380 1.400 . S
C2381 C2382 1.398 . S
C2382 H2370 0.950 . S
C2382 C2381 1.398 . S
C2382 C2383 1.391 . S
C2383 H2371 0.950 . S
C2383 C2379 1.393 . S
C2383 C2382 1.391 . S
H2384 C2392 0.950 . S
H2385 C2397 0.950 . S
H2386 C2394 0.950 . S
H2387 C2396 0.950 . S
H2388 C2398 0.950 . S
H2389 C2400 0.950 . S
H2390 C2402 0.950 . S
H2391 C2403 0.950 . S
C2392 H2384 0.950 . S
C2392 C2393 1.386 . S
C2392 C2394 1.391 . S
C2393 C2392 1.386 . S
C2393 C2397 1.393 . S
C2394 H2386 0.950 . S
C2394 C2392 1.391 . S
C2394 C2395 1.400 . S
C2395 C2394 1.400 . S
C2395 C2396 1.398 . S
C2395 C2401 1.491 1_545 S
C2396 H2387 0.950 . S
C2396 C2395 1.398 . S
C2396 C2397 1.391 . S
C2397 H2385 0.950 . S
C2397 C2393 1.393 . S
C2397 C2396 1.391 . S
C2398 H2388 0.950 . S
C2398 C2399 1.386 . S
C2398 C2400 1.391 . S
C2399 C2398 1.386 . S
C2399 C2403 1.393 . S
C2400 H2389 0.950 . S
C2400 C2398 1.391 . S
C2400 C2401 1.400 . S
C2401 C2395 1.491 1_565 S
C2401 C2400 1.400 . S
C2401 C2402 1.398 . S
C2402 H2390 0.950 . S
C2402 C2401 1.398 . S
C2402 C2403 1.391 . S
C2403 H2391 0.950 . S
C2403 C2399 1.393 . S
C2403 C2402 1.391 . S
H2404 C2412 0.950 . S
H2405 C2417 0.950 . S
H2406 C2414 0.950 1_455 S
H2407 C2416 0.950 . S
H2408 C2418 0.950 . S
H2409 C2420 0.950 1_655 S
H2410 C2422 0.950 . S
H2411 C2423 0.950 . S
C2412 H2404 0.950 . S
C2412 C2413 1.386 . S
C2412 C2414 1.391 . S
C2413 C2412 1.386 . S
C2413 C2417 1.393 . S
C2414 H2406 0.950 1_655 S
C2414 C2412 1.391 . S
C2414 C2415 1.400 . S
C2415 C2414 1.400 . S
C2415 C2416 1.398 . S
C2415 C2421 1.491 1_655 S
C2416 H2407 0.950 . S
C2416 C2415 1.398 . S
C2416 C2417 1.391 . S
C2417 H2405 0.950 . S
C2417 C2413 1.393 . S
C2417 C2416 1.391 . S
C2418 H2408 0.950 . S
C2418 C2419 1.386 . S
C2418 C2420 1.391 . S
C2419 C2418 1.386 . S
C2419 C2423 1.393 . S
C2420 H2409 0.950 1_455 S
C2420 C2418 1.391 . S
C2420 C2421 1.400 . S
C2421 C2415 1.491 1_455 S
C2421 C2420 1.400 . S
C2421 C2422 1.398 . S
C2422 H2410 0.950 . S
C2422 C2421 1.398 . S
C2422 C2423 1.391 . S
C2423 H2411 0.950 . S
C2423 C2419 1.393 . S
C2423 C2422 1.391 . S
H2424 C2432 0.950 . S
H2425 C2437 0.950 . S
H2426 C2434 0.950 . S
H2427 C2436 0.950 . S
H2428 C2438 0.950 . S
H2429 C2440 0.950 . S
H2430 C2442 0.950 . S
H2431 C2443 0.950 1_556 S
C2432 H2424 0.950 . S
C2432 C2433 1.386 . S
C2432 C2434 1.391 . S
C2433 C2432 1.386 . S
C2433 C2437 1.393 . S
C2434 H2426 0.950 . S
C2434 C2432 1.391 . S
C2434 C2435 1.400 . S
C2435 C2434 1.400 . S
C2435 C2436 1.398 . S
C2435 C2441 1.491 . S
C2436 H2427 0.950 . S
C2436 C2435 1.398 . S
C2436 C2437 1.391 . S
C2437 H2425 0.950 . S
C2437 C2433 1.393 . S
C2437 C2436 1.391 . S
C2438 H2428 0.950 . S
C2438 C2439 1.386 . S
C2438 C2440 1.391 . S
C2439 C2438 1.386 . S
C2439 C2443 1.393 . S
C2440 H2429 0.950 . S
C2440 C2438 1.391 . S
C2440 C2441 1.400 . S
C2441 C2435 1.491 . S
C2441 C2440 1.400 . S
C2441 C2442 1.398 . S
C2442 H2430 0.950 . S
C2442 C2441 1.398 . S
C2442 C2443 1.391 . S
C2443 H2431 0.950 1_554 S
C2443 C2439 1.393 . S
C2443 C2442 1.391 . S
H2444 C2452 0.950 . S
H2445 C2457 0.950 . S
H2446 C2454 0.950 . S
H2447 C2456 0.950 . S
H2448 C2458 0.950 1_556 S
H2449 C2460 0.950 . S
H2450 C2462 0.950 . S
H2451 C2463 0.950 . S
C2452 H2444 0.950 . S
C2452 C2453 1.386 . S
C2452 C2454 1.391 . S
C2453 C2452 1.386 . S
C2453 C2457 1.393 . S
C2454 H2446 0.950 . S
C2454 C2452 1.391 . S
C2454 C2455 1.400 . S
C2455 C2454 1.400 . S
C2455 C2456 1.398 . S
C2455 C2461 1.491 . S
C2456 H2447 0.950 . S
C2456 C2455 1.398 . S
C2456 C2457 1.391 . S
C2457 H2445 0.950 . S
C2457 C2453 1.393 . S
C2457 C2456 1.391 . S
C2458 H2448 0.950 1_554 S
C2458 C2459 1.386 . S
C2458 C2460 1.391 . S
C2459 C2458 1.386 . S
C2459 C2463 1.393 . S
C2460 H2449 0.950 . S
C2460 C2458 1.391 . S
C2460 C2461 1.400 . S
C2461 C2455 1.491 . S
C2461 C2460 1.400 . S
C2461 C2462 1.398 . S
C2462 H2450 0.950 . S
C2462 C2461 1.398 . S
C2462 C2463 1.391 . S
C2463 H2451 0.950 . S
C2463 C2459 1.393 . S
C2463 C2462 1.391 . S
H2464 C2472 0.950 . S
H2465 C2477 0.950 1_556 S
H2466 C2474 0.950 . S
H2467 C2476 0.950 . S
H2468 C2478 0.950 . S
H2469 C2480 0.950 . S
H2470 C2482 0.950 . S
H2471 C2483 0.950 . S
C2472 H2464 0.950 . S
C2472 C2473 1.386 . S
C2472 C2474 1.391 . S
C2473 C2472 1.386 . S
C2473 C2477 1.393 . S
C2474 H2466 0.950 . S
C2474 C2472 1.391 . S
C2474 C2475 1.400 . S
C2475 C2474 1.400 . S
C2475 C2476 1.398 . S
C2475 C2481 1.491 . S
C2476 H2467 0.950 . S
C2476 C2475 1.398 . S
C2476 C2477 1.391 . S
C2477 H2465 0.950 1_554 S
C2477 C2473 1.393 . S
C2477 C2476 1.391 . S
C2478 H2468 0.950 . S
C2478 C2479 1.386 . S
C2478 C2480 1.391 . S
C2479 C2478 1.386 . S
C2479 C2483 1.393 . S
C2480 H2469 0.950 . S
C2480 C2478 1.391 . S
C2480 C2481 1.400 . S
C2481 C2475 1.491 . S
C2481 C2480 1.400 . S
C2481 C2482 1.398 . S
C2482 H2470 0.950 . S
C2482 C2481 1.398 . S
C2482 C2483 1.391 . S
C2483 H2471 0.950 . S
C2483 C2479 1.393 . S
C2483 C2482 1.391 . S
H2484 C2492 0.950 . S
H2485 C2497 0.950 . S
H2486 C2494 0.950 . S
H2487 C2496 0.950 . S
H2488 C2498 0.950 . S
H2489 C2500 0.950 . S
H2490 C2502 0.950 . S
H2491 C2503 0.950 . S
C2492 H2484 0.950 . S
C2492 C2493 1.386 . S
C2492 C2494 1.391 . S
C2493 C2492 1.386 . S
C2493 C2497 1.393 . S
C2494 H2486 0.950 . S
C2494 C2492 1.391 . S
C2494 C2495 1.400 . S
C2495 C2494 1.400 . S
C2495 C2496 1.398 . S
C2495 C2501 1.491 . S
C2496 H2487 0.950 . S
C2496 C2495 1.398 . S
C2496 C2497 1.391 . S
C2497 H2485 0.950 . S
C2497 C2493 1.393 . S
C2497 C2496 1.391 . S
C2498 H2488 0.950 . S
C2498 C2499 1.386 . S
C2498 C2500 1.391 . S
C2499 C2498 1.386 . S
C2499 C2503 1.393 . S
C2500 H2489 0.950 . S
C2500 C2498 1.391 . S
C2500 C2501 1.400 . S
C2501 C2495 1.491 . S
C2501 C2500 1.400 . S
C2501 C2502 1.398 . S
C2502 H2490 0.950 . S
C2502 C2501 1.398 . S
C2502 C2503 1.391 . S
C2503 H2491 0.950 . S
C2503 C2499 1.393 . S
C2503 C2502 1.391 . S
H2504 C2512 0.950 . S
H2505 C2517 0.950 . S
H2506 C2514 0.950 . S
H2507 C2516 0.950 . S
H2508 C2518 0.950 . S
H2509 C2520 0.950 . S
H2510 C2522 0.950 . S
H2511 C2523 0.950 . S
C2512 H2504 0.950 . S
C2512 C2513 1.386 . S
C2512 C2514 1.391 . S
C2513 C2512 1.386 . S
C2513 C2517 1.393 . S
C2514 H2506 0.950 . S
C2514 C2512 1.391 . S
C2514 C2515 1.400 . S
C2515 C2514 1.400 . S
C2515 C2516 1.398 . S
C2515 C2521 1.491 . S
C2516 H2507 0.950 . S
C2516 C2515 1.398 . S
C2516 C2517 1.391 . S
C2517 H2505 0.950 . S
C2517 C2513 1.393 . S
C2517 C2516 1.391 . S
C2518 H2508 0.950 . S
C2518 C2519 1.386 . S
C2518 C2520 1.391 . S
C2519 C2518 1.386 . S
C2519 C2523 1.393 . S
C2520 H2509 0.950 . S
C2520 C2518 1.391 . S
C2520 C2521 1.400 . S
C2521 C2515 1.491 . S
C2521 C2520 1.400 . S
C2521 C2522 1.398 . S
C2522 H2510 0.950 . S
C2522 C2521 1.398 . S
C2522 C2523 1.391 . S
C2523 H2511 0.950 . S
C2523 C2519 1.393 . S
C2523 C2522 1.391 . S
H2524 C2532 0.950 . S
H2525 C2537 0.950 . S
H2526 C2534 0.950 . S
H2527 C2536 0.950 . S
H2528 C2538 0.950 . S
H2529 C2540 0.950 . S
H2530 C2542 0.950 . S
H2531 C2543 0.950 . S
C2532 H2524 0.950 . S
C2532 C2533 1.386 . S
C2532 C2534 1.391 . S
C2533 C2532 1.386 . S
C2533 C2537 1.393 . S
C2534 H2526 0.950 . S
C2534 C2532 1.391 . S
C2534 C2535 1.400 . S
C2535 C2534 1.400 . S
C2535 C2536 1.398 . S
C2535 C2541 1.491 . S
C2536 H2527 0.950 . S
C2536 C2535 1.398 . S
C2536 C2537 1.391 . S
C2537 H2525 0.950 . S
C2537 C2533 1.393 . S
C2537 C2536 1.391 . S
C2538 H2528 0.950 . S
C2538 C2539 1.386 . S
C2538 C2540 1.391 . S
C2539 C2538 1.386 . S
C2539 C2543 1.393 . S
C2540 H2529 0.950 . S
C2540 C2538 1.391 . S
C2540 C2541 1.400 . S
C2541 C2535 1.491 . S
C2541 C2540 1.400 . S
C2541 C2542 1.398 . S
C2542 H2530 0.950 . S
C2542 C2541 1.398 . S
C2542 C2543 1.391 . S
C2543 H2531 0.950 . S
C2543 C2539 1.393 . S
C2543 C2542 1.391 . S
H2544 C2552 0.950 . S
H2545 C2557 0.950 . S
H2546 C2554 0.950 . S
H2547 C2556 0.950 . S
H2548 C2558 0.950 . S
H2549 C2560 0.950 . S
H2550 C2562 0.950 . S
H2551 C2563 0.950 . S
C2552 H2544 0.950 . S
C2552 C2553 1.386 . S
C2552 C2554 1.391 . S
C2553 C2552 1.386 . S
C2553 C2557 1.393 . S
C2554 H2546 0.950 . S
C2554 C2552 1.391 . S
C2554 C2555 1.400 . S
C2555 C2554 1.400 . S
C2555 C2556 1.398 . S
C2555 C2561 1.491 . S
C2556 H2547 0.950 . S
C2556 C2555 1.398 . S
C2556 C2557 1.391 . S
C2557 H2545 0.950 . S
C2557 C2553 1.393 . S
C2557 C2556 1.391 . S
C2558 H2548 0.950 . S
C2558 C2559 1.386 . S
C2558 C2560 1.391 . S
C2559 C2558 1.386 . S
C2559 C2563 1.393 . S
C2560 H2549 0.950 . S
C2560 C2558 1.391 . S
C2560 C2561 1.400 . S
C2561 C2555 1.491 . S
C2561 C2560 1.400 . S
C2561 C2562 1.398 . S
C2562 H2550 0.950 . S
C2562 C2561 1.398 . S
C2562 C2563 1.391 . S
C2563 H2551 0.950 . S
C2563 C2559 1.393 . S
C2563 C2562 1.391 . S
H2564 C2572 0.950 . S
H2565 C2577 0.950 . S
H2566 C2574 0.950 . S
H2567 C2576 0.950 . S
H2568 C2578 0.950 . S
H2569 C2580 0.950 . S
H2570 C2582 0.950 . S
H2571 C2583 0.950 . S
C2572 H2564 0.950 . S
C2572 C2573 1.386 . S
C2572 C2574 1.391 . S
C2573 C2572 1.386 . S
C2573 C2577 1.393 . S
C2574 H2566 0.950 . S
C2574 C2572 1.391 . S
C2574 C2575 1.400 . S
C2575 C2574 1.400 . S
C2575 C2576 1.398 . S
C2575 C2581 1.491 . S
C2576 H2567 0.950 . S
C2576 C2575 1.398 . S
C2576 C2577 1.391 . S
C2577 H2565 0.950 . S
C2577 C2573 1.393 . S
C2577 C2576 1.391 . S
C2578 H2568 0.950 . S
C2578 C2579 1.386 . S
C2578 C2580 1.391 . S
C2579 C2578 1.386 . S
C2579 C2583 1.393 . S
C2580 H2569 0.950 . S
C2580 C2578 1.391 . S
C2580 C2581 1.400 . S
C2581 C2575 1.491 . S
C2581 C2580 1.400 . S
C2581 C2582 1.398 . S
C2582 H2570 0.950 . S
C2582 C2581 1.398 . S
C2582 C2583 1.391 . S
C2583 H2571 0.950 . S
C2583 C2579 1.393 . S
C2583 C2582 1.391 . S
H2584 C2592 0.950 . S
H2585 C2597 0.950 . S
H2586 C2594 0.950 . S
H2587 C2596 0.950 . S
H2588 C2598 0.950 . S
H2589 C2600 0.950 . S
H2590 C2602 0.950 . S
H2591 C2603 0.950 . S
C2592 H2584 0.950 . S
C2592 C2593 1.386 . S
C2592 C2594 1.391 . S
C2593 C2592 1.386 . S
C2593 C2597 1.393 . S
C2594 H2586 0.950 . S
C2594 C2592 1.391 . S
C2594 C2595 1.400 . S
C2595 C2594 1.400 . S
C2595 C2596 1.398 . S
C2595 C2601 1.491 . S
C2596 H2587 0.950 . S
C2596 C2595 1.398 . S
C2596 C2597 1.391 . S
C2597 H2585 0.950 . S
C2597 C2593 1.393 . S
C2597 C2596 1.391 . S
C2598 H2588 0.950 . S
C2598 C2599 1.386 . S
C2598 C2600 1.391 . S
C2599 C2598 1.386 . S
C2599 C2603 1.393 . S
C2600 H2589 0.950 . S
C2600 C2598 1.391 . S
C2600 C2601 1.400 . S
C2601 C2595 1.491 . S
C2601 C2600 1.400 . S
C2601 C2602 1.398 . S
C2602 H2590 0.950 . S
C2602 C2601 1.398 . S
C2602 C2603 1.391 . S
C2603 H2591 0.950 . S
C2603 C2599 1.393 . S
C2603 C2602 1.391 . S
H2604 C2612 0.950 . S
H2605 C2617 0.950 . S
H2606 C2614 0.950 . S
H2607 C2616 0.950 . S
H2608 C2618 0.950 . S
H2609 C2620 0.950 . S
H2610 C2622 0.950 . S
H2611 C2623 0.950 . S
C2612 H2604 0.950 . S
C2612 C2613 1.386 . S
C2612 C2614 1.391 1_554 S
C2613 C2612 1.386 . S
C2613 C2617 1.393 . S
C2614 H2606 0.950 . S
C2614 C2612 1.391 1_556 S
C2614 C2615 1.400 . S
C2615 C2614 1.400 . S
C2615 C2616 1.398 1_556 S
C2615 C2621 1.491 . S
C2616 H2607 0.950 . S
C2616 C2615 1.398 1_554 S
C2616 C2617 1.391 . S
C2617 H2605 0.950 . S
C2617 C2613 1.393 . S
C2617 C2616 1.391 . S
C2618 H2608 0.950 . S
C2618 C2619 1.386 . S
C2618 C2620 1.391 . S
C2619 C2618 1.386 . S
C2619 C2623 1.393 . S
C2620 H2609 0.950 . S
C2620 C2618 1.391 . S
C2620 C2621 1.400 . S
C2621 C2615 1.491 . S
C2621 C2620 1.400 . S
C2621 C2622 1.398 . S
C2622 H2610 0.950 . S
C2622 C2621 1.398 . S
C2622 C2623 1.391 . S
C2623 H2611 0.950 . S
C2623 C2619 1.393 . S
C2623 C2622 1.391 . S
H2624 C2632 0.950 . S
H2625 C2637 0.950 . S
H2626 C2634 0.950 . S
H2627 C2636 0.950 . S
H2628 C2638 0.950 . S
H2629 C2640 0.950 . S
H2630 C2642 0.950 . S
H2631 C2643 0.950 . S
C2632 H2624 0.950 . S
C2632 C2633 1.386 . S
C2632 C2634 1.391 1_554 S
C2633 C2632 1.386 . S
C2633 C2637 1.393 . S
C2634 H2626 0.950 . S
C2634 C2632 1.391 1_556 S
C2634 C2635 1.400 . S
C2635 C2634 1.400 . S
C2635 C2636 1.398 1_556 S
C2635 C2641 1.491 . S
C2636 H2627 0.950 . S
C2636 C2635 1.398 1_554 S
C2636 C2637 1.391 . S
C2637 H2625 0.950 . S
C2637 C2633 1.393 . S
C2637 C2636 1.391 . S
C2638 H2628 0.950 . S
C2638 C2639 1.386 . S
C2638 C2640 1.391 . S
C2639 C2638 1.386 . S
C2639 C2643 1.393 . S
C2640 H2629 0.950 . S
C2640 C2638 1.391 . S
C2640 C2641 1.400 . S
C2641 C2635 1.491 . S
C2641 C2640 1.400 . S
C2641 C2642 1.398 . S
C2642 H2630 0.950 . S
C2642 C2641 1.398 . S
C2642 C2643 1.391 . S
C2643 H2631 0.950 . S
C2643 C2639 1.393 . S
C2643 C2642 1.391 . S
H2644 C2652 0.950 . S
H2645 C2657 0.950 . S
H2646 C2654 0.953 . S
H2647 C2656 0.950 . S
H2648 C2658 0.950 . S
H2649 C2660 0.950 . S
H2650 C2662 0.950 . S
H2651 C2663 0.950 . S
C2652 H2644 0.950 . S
C2652 C2653 1.386 . S
C2652 C2654 1.386 1_554 S
C2653 C2652 1.386 . S
C2653 C2657 1.393 . S
C2654 H2646 0.953 . S
C2654 C2652 1.386 1_556 S
C2654 C2655 1.402 . S
C2655 C2654 1.402 . S
C2655 C2656 1.398 1_556 S
C2655 C2661 1.491 . S
C2656 H2647 0.950 . S
C2656 C2655 1.398 1_554 S
C2656 C2657 1.391 . S
C2657 H2645 0.950 . S
C2657 C2653 1.393 . S
C2657 C2656 1.391 . S
C2658 H2648 0.950 . S
C2658 C2659 1.386 . S
C2658 C2660 1.391 . S
C2659 C2658 1.386 . S
C2659 C2663 1.393 . S
C2660 H2649 0.950 . S
C2660 C2658 1.391 . S
C2660 C2661 1.400 . S
C2661 C2655 1.491 . S
C2661 C2660 1.400 . S
C2661 C2662 1.398 . S
C2662 H2650 0.950 . S
C2662 C2661 1.398 . S
C2662 C2663 1.391 . S
C2663 H2651 0.950 . S
C2663 C2659 1.393 . S
C2663 C2662 1.391 . S
H2664 C2672 0.950 . S
H2665 C2677 0.950 . S
H2666 C2674 0.950 . S
H2667 C2676 0.950 . S
H2668 C2678 0.950 . S
H2669 C2680 0.950 . S
H2670 C2682 0.950 . S
H2671 C2683 0.950 . S
C2672 H2664 0.950 . S
C2672 C2673 1.386 . S
C2672 C2674 1.391 . S
C2673 C2672 1.386 . S
C2673 C2677 1.393 1_554 S
C2674 H2666 0.950 . S
C2674 C2672 1.391 . S
C2674 C2675 1.400 1_554 S
C2675 C2674 1.400 1_556 S
C2675 C2676 1.398 . S
C2675 C2681 1.491 . S
C2676 H2667 0.950 . S
C2676 C2675 1.398 . S
C2676 C2677 1.391 . S
C2677 H2665 0.950 . S
C2677 C2673 1.393 1_556 S
C2677 C2676 1.391 . S
C2678 H2668 0.950 . S
C2678 C2679 1.386 . S
C2678 C2680 1.391 . S
C2679 C2678 1.386 . S
C2679 C2683 1.393 . S
C2680 H2669 0.950 . S
C2680 C2678 1.391 . S
C2680 C2681 1.400 . S
C2681 C2675 1.491 . S
C2681 C2680 1.400 . S
C2681 C2682 1.398 . S
C2682 H2670 0.950 . S
C2682 C2681 1.398 . S
C2682 C2683 1.391 . S
C2683 H2671 0.950 . S
C2683 C2679 1.393 . S
C2683 C2682 1.391 . S
H2684 C2692 0.950 . S
H2685 C2697 0.950 . S
H2686 C2694 0.950 . S
H2687 C2696 0.950 . S
H2688 C2698 0.950 . S
H2689 C2700 0.950 . S
H2690 C2702 0.950 . S
H2691 C2703 0.950 . S
C2692 H2684 0.950 . S
C2692 C2693 1.386 . S
C2692 C2694 1.391 1_554 S
C2693 C2692 1.386 . S
C2693 C2697 1.393 . S
C2694 H2686 0.950 . S
C2694 C2692 1.391 1_556 S
C2694 C2695 1.400 . S
C2695 C2694 1.400 . S
C2695 C2696 1.398 . S
C2695 C2701 1.491 . S
C2696 H2687 0.950 . S
C2696 C2695 1.398 . S
C2696 C2697 1.391 1_556 S
C2697 H2685 0.950 . S
C2697 C2693 1.393 . S
C2697 C2696 1.391 1_554 S
C2698 H2688 0.950 . S
C2698 C2699 1.386 . S
C2698 C2700 1.391 . S
C2699 C2698 1.386 . S
C2699 C2703 1.393 . S
C2700 H2689 0.950 . S
C2700 C2698 1.391 . S
C2700 C2701 1.400 . S
C2701 C2695 1.491 . S
C2701 C2700 1.400 . S
C2701 C2702 1.398 . S
C2702 H2690 0.950 . S
C2702 C2701 1.398 . S
C2702 C2703 1.391 . S
C2703 H2691 0.950 . S
C2703 C2699 1.393 . S
C2703 C2702 1.391 . S
H2704 C2712 0.950 . S
H2705 C2717 0.950 . S
H2706 C2714 0.950 . S
H2707 C2716 0.950 . S
H2708 C2718 0.948 1_556 S
H2709 C2720 0.950 . S
H2710 C2722 0.950 . S
H2711 C2723 0.950 . S
C2712 H2704 0.950 . S
C2712 C2713 1.386 . S
C2712 C2714 1.391 . S
C2713 C2712 1.386 . S
C2713 C2717 1.393 . S
C2714 H2706 0.950 . S
C2714 C2712 1.391 . S
C2714 C2715 1.400 . S
C2715 C2714 1.400 . S
C2715 C2716 1.398 . S
C2715 C2721 1.491 . S
C2716 H2707 0.950 . S
C2716 C2715 1.398 . S
C2716 C2717 1.391 . S
C2717 H2705 0.950 . S
C2717 C2713 1.393 . S
C2717 C2716 1.391 . S
C2718 H2708 0.948 1_554 S
C2718 C2719 1.396 . S
C2718 C2720 1.383 1_554 S
C2719 C2718 1.396 . S
C2719 C2723 1.393 . S
C2720 H2709 0.950 . S
C2720 C2718 1.383 1_556 S
C2720 C2721 1.400 . S
C2721 C2715 1.491 . S
C2721 C2720 1.400 . S
C2721 C2722 1.398 1_556 S
C2722 H2710 0.950 . S
C2722 C2721 1.398 1_554 S
C2722 C2723 1.391 . S
C2723 H2711 0.950 . S
C2723 C2719 1.393 . S
C2723 C2722 1.391 . S
H2724 C2732 0.950 . S
H2725 C2737 0.950 . S
H2726 C2734 0.950 . S
H2727 C2736 0.950 . S
H2728 C2738 0.950 . S
H2729 C2740 0.950 . S
H2730 C2742 0.950 . S
H2731 C2743 0.950 . S
C2732 H2724 0.950 . S
C2732 C2733 1.386 . S
C2732 C2734 1.391 . S
C2733 C2732 1.386 . S
C2733 C2737 1.393 . S
C2734 H2726 0.950 . S
C2734 C2732 1.391 . S
C2734 C2735 1.400 . S
C2735 C2734 1.400 . S
C2735 C2736 1.398 . S
C2735 C2741 1.491 . S
C2736 H2727 0.950 . S
C2736 C2735 1.398 . S
C2736 C2737 1.391 . S
C2737 H2725 0.950 . S
C2737 C2733 1.393 . S
C2737 C2736 1.391 . S
C2738 H2728 0.950 . S
C2738 C2739 1.386 . S
C2738 C2740 1.391 . S
C2739 C2738 1.386 . S
C2739 C2743 1.393 . S
C2740 H2729 0.950 . S
C2740 C2738 1.391 . S
C2740 C2741 1.400 . S
C2741 C2735 1.491 . S
C2741 C2740 1.400 . S
C2741 C2742 1.398 . S
C2742 H2730 0.950 . S
C2742 C2741 1.398 . S
C2742 C2743 1.391 . S
C2743 H2731 0.950 . S
C2743 C2739 1.393 . S
C2743 C2742 1.391 . S
H2744 C2752 0.950 . S
H2745 C2757 0.950 . S
H2746 C2754 0.950 . S
H2747 C2756 0.950 . S
H2748 C2758 0.950 . S
H2749 C2760 0.950 . S
H2750 C2762 0.950 . S
H2751 C2763 0.950 . S
C2752 H2744 0.950 . S
C2752 C2753 1.386 . S
C2752 C2754 1.391 . S
C2753 C2752 1.386 . S
C2753 C2757 1.393 . S
C2754 H2746 0.950 . S
C2754 C2752 1.391 . S
C2754 C2755 1.400 . S
C2755 C2754 1.400 . S
C2755 C2756 1.398 . S
C2755 C2761 1.491 . S
C2756 H2747 0.950 . S
C2756 C2755 1.398 . S
C2756 C2757 1.391 . S
C2757 H2745 0.950 . S
C2757 C2753 1.393 . S
C2757 C2756 1.391 . S
C2758 H2748 0.950 . S
C2758 C2759 1.386 . S
C2758 C2760 1.391 . S
C2759 C2758 1.386 . S
C2759 C2763 1.393 . S
C2760 H2749 0.950 . S
C2760 C2758 1.391 . S
C2760 C2761 1.400 . S
C2761 C2755 1.491 . S
C2761 C2760 1.400 . S
C2761 C2762 1.398 . S
C2762 H2750 0.950 . S
C2762 C2761 1.398 . S
C2762 C2763 1.391 . S
C2763 H2751 0.950 . S
C2763 C2759 1.393 . S
C2763 C2762 1.391 . S
H2764 C2772 0.950 . S
H2765 C2777 0.950 . S
H2766 C2774 0.950 . S
H2767 C2776 0.950 . S
H2768 C2778 0.950 . S
H2769 C2780 0.950 . S
H2770 C2782 0.950 . S
H2771 C2783 0.950 . S
C2772 H2764 0.950 . S
C2772 C2773 1.386 . S
C2772 C2774 1.391 . S
C2773 C2772 1.386 . S
C2773 C2777 1.393 . S
C2774 H2766 0.950 . S
C2774 C2772 1.391 . S
C2774 C2775 1.400 . S
C2775 C2774 1.400 . S
C2775 C2776 1.398 . S
C2775 C2781 1.491 . S
C2776 H2767 0.950 . S
C2776 C2775 1.398 . S
C2776 C2777 1.391 . S
C2777 H2765 0.950 . S
C2777 C2773 1.393 . S
C2777 C2776 1.391 . S
C2778 H2768 0.950 . S
C2778 C2779 1.386 . S
C2778 C2780 1.391 . S
C2779 C2778 1.386 . S
C2779 C2783 1.393 . S
C2780 H2769 0.950 . S
C2780 C2778 1.391 . S
C2780 C2781 1.400 . S
C2781 C2775 1.491 . S
C2781 C2780 1.400 . S
C2781 C2782 1.398 . S
C2782 H2770 0.950 . S
C2782 C2781 1.398 . S
C2782 C2783 1.391 . S
C2783 H2771 0.950 . S
C2783 C2779 1.393 . S
C2783 C2782 1.391 . S
H2784 C2792 0.950 . S
H2785 C2797 0.950 . S
H2786 C2794 0.950 . S
H2787 C2796 0.950 . S
H2788 C2798 0.950 . S
H2789 C2800 0.950 . S
H2790 C2802 0.950 . S
H2791 C2803 0.950 . S
C2792 H2784 0.950 . S
C2792 C2793 1.386 . S
C2792 C2794 1.391 . S
C2793 C2792 1.386 . S
C2793 C2797 1.393 . S
C2794 H2786 0.950 . S
C2794 C2792 1.391 . S
C2794 C2795 1.400 . S
C2795 C2794 1.400 . S
C2795 C2796 1.398 . S
C2795 C2801 1.491 . S
C2796 H2787 0.950 . S
C2796 C2795 1.398 . S
C2796 C2797 1.391 . S
C2797 H2785 0.950 . S
C2797 C2793 1.393 . S
C2797 C2796 1.391 . S
C2798 H2788 0.950 . S
C2798 C2799 1.386 . S
C2798 C2800 1.391 . S
C2799 C2798 1.386 . S
C2799 C2803 1.393 . S
C2800 H2789 0.950 . S
C2800 C2798 1.391 . S
C2800 C2801 1.400 . S
C2801 C2795 1.491 . S
C2801 C2800 1.400 . S
C2801 C2802 1.398 . S
C2802 H2790 0.950 . S
C2802 C2801 1.398 . S
C2802 C2803 1.391 . S
C2803 H2791 0.950 . S
C2803 C2799 1.393 . S
C2803 C2802 1.391 . S
H2804 C2812 0.950 . S
H2805 C2817 0.950 . S
H2806 C2814 0.950 . S
H2807 C2816 0.950 . S
H2808 C2818 0.950 . S
H2809 C2820 0.950 . S
H2810 C2822 0.950 . S
H2811 C2823 0.950 . S
C2812 H2804 0.950 . S
C2812 C2813 1.386 . S
C2812 C2814 1.391 . S
C2813 C2812 1.386 . S
C2813 C2817 1.393 . S
C2814 H2806 0.950 . S
C2814 C2812 1.391 . S
C2814 C2815 1.400 . S
C2815 C2814 1.400 . S
C2815 C2816 1.398 . S
C2815 C2821 1.491 . S
C2816 H2807 0.950 . S
C2816 C2815 1.398 . S
C2816 C2817 1.391 . S
C2817 H2805 0.950 . S
C2817 C2813 1.393 . S
C2817 C2816 1.391 . S
C2818 H2808 0.950 . S
C2818 C2819 1.386 . S
C2818 C2820 1.391 . S
C2819 C2818 1.386 . S
C2819 C2823 1.393 . S
C2820 H2809 0.950 . S
C2820 C2818 1.391 . S
C2820 C2821 1.400 . S
C2821 C2815 1.491 . S
C2821 C2820 1.400 . S
C2821 C2822 1.398 . S
C2822 H2810 0.950 . S
C2822 C2821 1.398 . S
C2822 C2823 1.391 . S
C2823 H2811 0.950 . S
C2823 C2819 1.393 . S
C2823 C2822 1.391 . S
H2824 C2832 0.950 . S
H2825 C2837 0.950 1_556 S
H2826 C2834 0.950 . S
H2827 C2836 0.950 . S
H2828 C2838 0.950 . S
H2829 C2840 0.950 . S
H2830 C2842 0.950 . S
H2831 C2843 0.950 . S
C2832 H2824 0.950 . S
C2832 C2833 1.386 . S
C2832 C2834 1.391 . S
C2833 C2832 1.386 . S
C2833 C2837 1.393 . S
C2834 H2826 0.950 . S
C2834 C2832 1.391 . S
C2834 C2835 1.400 . S
C2835 C2834 1.400 . S
C2835 C2836 1.398 . S
C2835 C2841 1.491 . S
C2836 H2827 0.950 . S
C2836 C2835 1.398 . S
C2836 C2837 1.391 . S
C2837 H2825 0.950 1_554 S
C2837 C2833 1.393 . S
C2837 C2836 1.391 . S
C2838 H2828 0.950 . S
C2838 C2839 1.386 . S
C2838 C2840 1.391 . S
C2839 C2838 1.386 . S
C2839 C2843 1.393 . S
C2840 H2829 0.950 . S
C2840 C2838 1.391 . S
C2840 C2841 1.400 . S
C2841 C2835 1.491 . S
C2841 C2840 1.400 . S
C2841 C2842 1.398 . S
C2842 H2830 0.950 . S
C2842 C2841 1.398 . S
C2842 C2843 1.391 . S
C2843 H2831 0.950 . S
C2843 C2839 1.393 . S
C2843 C2842 1.391 . S
H2844 C2852 0.950 . S
H2845 C2857 0.950 . S
H2846 C2854 0.950 . S
H2847 C2856 0.950 . S
H2848 C2858 0.950 . S
H2849 C2860 0.950 . S
H2850 C2862 0.950 . S
H2851 C2863 0.950 . S
C2852 H2844 0.950 . S
C2852 C2853 1.386 . S
C2852 C2854 1.391 . S
C2853 C2852 1.386 . S
C2853 C2857 1.393 . S
C2854 H2846 0.950 . S
C2854 C2852 1.391 . S
C2854 C2855 1.400 . S
C2855 C2854 1.400 . S
C2855 C2856 1.398 . S
C2855 C2861 1.491 . S
C2856 H2847 0.950 . S
C2856 C2855 1.398 . S
C2856 C2857 1.391 . S
C2857 H2845 0.950 . S
C2857 C2853 1.393 . S
C2857 C2856 1.391 . S
C2858 H2848 0.950 . S
C2858 C2859 1.386 . S
C2858 C2860 1.391 . S
C2859 C2858 1.386 . S
C2859 C2863 1.393 . S
C2860 H2849 0.950 . S
C2860 C2858 1.391 . S
C2860 C2861 1.400 . S
C2861 C2855 1.491 . S
C2861 C2860 1.400 . S
C2861 C2862 1.398 . S
C2862 H2850 0.950 . S
C2862 C2861 1.398 . S
C2862 C2863 1.391 . S
C2863 H2851 0.950 . S
C2863 C2859 1.393 . S
C2863 C2862 1.391 . S
H2864 C2872 0.950 . S
H2865 C2877 0.950 . S
H2866 C2874 0.950 . S
H2867 C2876 0.950 . S
H2868 C2878 0.950 . S
H2869 C2880 0.950 . S
H2870 C2882 0.950 . S
H2871 C2883 0.950 . S
C2872 H2864 0.950 . S
C2872 C2873 1.386 . S
C2872 C2874 1.391 . S
C2873 C2872 1.386 . S
C2873 C2877 1.393 . S
C2874 H2866 0.950 . S
C2874 C2872 1.391 . S
C2874 C2875 1.400 . S
C2875 C2874 1.400 . S
C2875 C2876 1.398 . S
C2875 C2881 1.491 . S
C2876 H2867 0.950 . S
C2876 C2875 1.398 . S
C2876 C2877 1.391 . S
C2877 H2865 0.950 . S
C2877 C2873 1.393 . S
C2877 C2876 1.391 . S
C2878 H2868 0.950 . S
C2878 C2879 1.386 . S
C2878 C2880 1.391 . S
C2879 C2878 1.386 . S
C2879 C2883 1.393 . S
C2880 H2869 0.950 . S
C2880 C2878 1.391 . S
C2880 C2881 1.400 . S
C2881 C2875 1.491 . S
C2881 C2880 1.400 . S
C2881 C2882 1.398 . S
C2882 H2870 0.950 . S
C2882 C2881 1.398 . S
C2882 C2883 1.391 . S
C2883 H2871 0.950 . S
C2883 C2879 1.393 . S
C2883 C2882 1.391 . S
H2884 C2892 0.950 . S
H2885 C2897 0.950 . S
H2886 C2894 0.950 . S
H2887 C2896 0.950 . S
H2888 C2898 0.950 . S
H2889 C2900 0.950 . S
H2890 C2902 0.950 . S
H2891 C2903 0.950 . S
C2892 H2884 0.950 . S
C2892 C2893 1.386 . S
C2892 C2894 1.391 . S
C2893 C2892 1.386 . S
C2893 C2897 1.393 . S
C2894 H2886 0.950 . S
C2894 C2892 1.391 . S
C2894 C2895 1.400 . S
C2895 C2894 1.400 . S
C2895 C2896 1.398 . S
C2895 C2901 1.491 . S
C2896 H2887 0.950 . S
C2896 C2895 1.398 . S
C2896 C2897 1.391 . S
C2897 H2885 0.950 . S
C2897 C2893 1.393 . S
C2897 C2896 1.391 . S
C2898 H2888 0.950 . S
C2898 C2899 1.386 . S
C2898 C2900 1.391 . S
C2899 C2898 1.386 . S
C2899 C2903 1.393 . S
C2900 H2889 0.950 . S
C2900 C2898 1.391 . S
C2900 C2901 1.400 . S
C2901 C2895 1.491 . S
C2901 C2900 1.400 . S
C2901 C2902 1.398 . S
C2902 H2890 0.950 . S
C2902 C2901 1.398 . S
C2902 C2903 1.391 . S
C2903 H2891 0.950 . S
C2903 C2899 1.393 . S
C2903 C2902 1.391 . S
H2904 C2912 0.950 . S
H2905 C2917 0.950 . S
H2906 C2914 0.950 . S
H2907 C2916 0.950 . S
H2908 C2918 0.950 . S
H2909 C2920 0.950 . S
H2910 C2922 0.950 . S
H2911 C2923 0.950 . S
C2912 H2904 0.950 . S
C2912 C2913 1.386 . S
C2912 C2914 1.391 . S
C2913 C2912 1.386 . S
C2913 C2917 1.393 . S
C2914 H2906 0.950 . S
C2914 C2912 1.391 . S
C2914 C2915 1.400 . S
C2915 C2914 1.400 . S
C2915 C2916 1.398 . S
C2915 C2921 1.491 1_455 S
C2916 H2907 0.950 . S
C2916 C2915 1.398 . S
C2916 C2917 1.391 . S
C2917 H2905 0.950 . S
C2917 C2913 1.393 . S
C2917 C2916 1.391 . S
C2918 H2908 0.950 . S
C2918 C2919 1.386 . S
C2918 C2920 1.391 . S
C2919 C2918 1.386 . S
C2919 C2923 1.393 . S
C2920 H2909 0.950 . S
C2920 C2918 1.391 . S
C2920 C2921 1.400 . S
C2921 C2915 1.491 1_655 S
C2921 C2920 1.400 . S
C2921 C2922 1.398 . S
C2922 H2910 0.950 . S
C2922 C2921 1.398 . S
C2922 C2923 1.391 . S
C2923 H2911 0.950 . S
C2923 C2919 1.393 . S
C2923 C2922 1.391 . S
H2924 C2932 0.950 . S
H2925 C2937 0.950 . S
H2926 C2934 0.950 . S
H2927 C2936 0.950 . S
H2928 C2938 0.950 . S
H2929 C2940 0.950 . S
H2930 C2942 0.950 . S
H2931 C2943 0.950 . S
C2932 H2924 0.950 . S
C2932 C2933 1.386 . S
C2932 C2934 1.391 . S
C2933 C2932 1.386 . S
C2933 C2937 1.393 . S
C2934 H2926 0.950 . S
C2934 C2932 1.391 . S
C2934 C2935 1.400 . S
C2935 C2934 1.400 . S
C2935 C2936 1.398 . S
C2935 C2941 1.491 . S
C2936 H2927 0.950 . S
C2936 C2935 1.398 . S
C2936 C2937 1.391 . S
C2937 H2925 0.950 . S
C2937 C2933 1.393 . S
C2937 C2936 1.391 . S
C2938 H2928 0.950 . S
C2938 C2939 1.386 . S
C2938 C2940 1.391 . S
C2939 C2938 1.386 . S
C2939 C2943 1.393 . S
C2940 H2929 0.950 . S
C2940 C2938 1.391 . S
C2940 C2941 1.400 . S
C2941 C2935 1.491 . S
C2941 C2940 1.400 . S
C2941 C2942 1.398 . S
C2942 H2930 0.950 . S
C2942 C2941 1.398 . S
C2942 C2943 1.391 . S
C2943 H2931 0.950 . S
C2943 C2939 1.393 . S
C2943 C2942 1.391 . S
H2944 C2952 0.950 . S
H2945 C2957 0.950 . S
H2946 C2954 0.950 . S
H2947 C2956 0.950 . S
H2948 C2958 0.950 . S
H2949 C2960 0.950 . S
H2950 C2962 0.950 . S
H2951 C2963 0.950 . S
C2952 H2944 0.950 . S
C2952 C2953 1.386 . S
C2952 C2954 1.391 . S
C2953 C2952 1.386 . S
C2953 C2957 1.393 . S
C2954 H2946 0.950 . S
C2954 C2952 1.391 . S
C2954 C2955 1.400 . S
C2955 C2954 1.400 . S
C2955 C2956 1.398 . S
C2955 C2961 1.491 1_545 S
C2956 H2947 0.950 . S
C2956 C2955 1.398 . S
C2956 C2957 1.391 . S
C2957 H2945 0.950 . S
C2957 C2953 1.393 . S
C2957 C2956 1.391 . S
C2958 H2948 0.950 . S
C2958 C2959 1.386 . S
C2958 C2960 1.391 . S
C2959 C2958 1.386 . S
C2959 C2963 1.393 . S
C2960 H2949 0.950 . S
C2960 C2958 1.391 . S
C2960 C2961 1.400 . S
C2961 C2955 1.491 1_565 S
C2961 C2960 1.400 . S
C2961 C2962 1.398 . S
C2962 H2950 0.950 . S
C2962 C2961 1.398 . S
C2962 C2963 1.391 . S
C2963 H2951 0.950 . S
C2963 C2959 1.393 . S
C2963 C2962 1.391 . S
H2964 C2972 0.950 . S
H2965 C2977 0.950 . S
H2966 C2974 0.950 . S
H2967 C2976 0.990 . S
H2968 C2978 0.950 . S
H2969 C2980 0.950 . S
H2970 C2982 0.992 . S
H2971 C2983 0.950 . S
C2972 H2964 0.950 . S
C2972 C2973 1.386 . S
C2972 C2974 1.391 . S
C2973 C2972 1.386 . S
C2973 C2977 1.393 . S
C2974 H2966 0.950 . S
C2974 C2972 1.391 . S
C2974 C2975 1.400 . S
C2975 C2974 1.400 . S
C2975 C2976 1.398 . S
C2975 C2981 1.491 1_565 S
C2976 H2967 0.990 . S
C2976 C2975 1.398 . S
C2976 C2977 1.391 . S
C2977 H2965 0.950 . S
C2977 C2973 1.393 . S
C2977 C2976 1.391 . S
C2978 H2968 0.950 . S
C2978 C2979 1.386 . S
C2978 C2980 1.391 . S
C2979 C2978 1.386 . S
C2979 C2983 1.393 . S
C2980 H2969 0.950 . S
C2980 C2978 1.391 . S
C2980 C2981 1.400 . S
C2981 C2975 1.491 1_545 S
C2981 C2980 1.400 . S
C2981 C2982 1.398 . S
C2982 H2970 0.992 . S
C2982 C2981 1.398 . S
C2982 C2983 1.391 . S
C2983 H2971 0.950 . S
C2983 C2979 1.393 . S
C2983 C2982 1.391 . S
H2984 C2992 0.950 . S
H2985 C2997 0.950 . S
H2986 C2994 0.950 . S
H2987 C2996 0.950 . S
H2988 C2998 0.950 . S
H2989 C3000 0.950 . S
H2990 C3002 0.950 . S
H2991 C3003 0.950 . S
C2992 H2984 0.950 . S
C2992 C2993 1.386 . S
C2992 C2994 1.391 . S
C2993 C2992 1.386 . S
C2993 C2997 1.393 . S
C2994 H2986 0.950 . S
C2994 C2992 1.391 . S
C2994 C2995 1.400 . S
C2995 C2994 1.400 . S
C2995 C2996 1.398 . S
C2995 C3001 1.491 1_655 S
C2996 H2987 0.950 . S
C2996 C2995 1.398 . S
C2996 C2997 1.391 . S
C2997 H2985 0.950 . S
C2997 C2993 1.393 . S
C2997 C2996 1.391 . S
C2998 H2988 0.950 . S
C2998 C2999 1.386 . S
C2998 C3000 1.391 . S
C2999 C2998 1.386 . S
C2999 C3003 1.393 . S
C3000 H2989 0.950 . S
C3000 C2998 1.391 . S
C3000 C3001 1.400 . S
C3001 C2995 1.491 1_455 S
C3001 C3000 1.400 . S
C3001 C3002 1.398 . S
C3002 H2990 0.950 . S
C3002 C3001 1.398 . S
C3002 C3003 1.391 . S
C3003 H2991 0.950 . S
C3003 C2999 1.393 . S
C3003 C3002 1.391 . S
H3004 C3012 0.950 . S
H3005 C3017 0.950 . S
H3006 C3014 0.950 . S
H3007 C3016 0.950 . S
H3008 C3018 0.950 . S
H3009 C3020 0.950 . S
H3010 C3022 0.950 . S
H3011 C3023 0.950 . S
C3012 H3004 0.950 . S
C3012 C3013 1.386 . S
C3012 C3014 1.391 . S
C3013 C3012 1.386 . S
C3013 C3017 1.393 . S
C3014 H3006 0.950 . S
C3014 C3012 1.391 . S
C3014 C3015 1.400 . S
C3015 C3014 1.400 . S
C3015 C3016 1.398 . S
C3015 C3021 1.491 . S
C3016 H3007 0.950 . S
C3016 C3015 1.398 . S
C3016 C3017 1.391 . S
C3017 H3005 0.950 . S
C3017 C3013 1.393 . S
C3017 C3016 1.391 . S
C3018 H3008 0.950 . S
C3018 C3019 1.386 . S
C3018 C3020 1.391 . S
C3019 C3018 1.386 . S
C3019 C3023 1.393 . S
C3020 H3009 0.950 . S
C3020 C3018 1.391 . S
C3020 C3021 1.400 . S
C3021 C3015 1.491 . S
C3021 C3020 1.400 . S
C3021 C3022 1.398 . S
C3022 H3010 0.950 . S
C3022 C3021 1.398 . S
C3022 C3023 1.391 . S
C3023 H3011 0.950 . S
C3023 C3019 1.393 . S
C3023 C3022 1.391 . S
C1233 C345 1.592 . S
C1239 C2 1.620 1_556 S
C1253 C379 1.600 . S
C1259 C36 1.622 1_556 S
C1273 C311 1.584 . S
C1279 C70 1.612 1_556 S
C1293 C277 1.590 . S
C1299 C104 1.615 . S
C1313 C209 1.588 . S
C1319 C138 1.615 . S
C1333 C243 1.589 . S
C1339 C172 1.615 . S
C1353 C141 1.589 . S
C1359 C206 1.618 . S
C1373 C240 1.619 . S
C1379 C175 1.595 . S
C1393 C107 1.585 . S
C1399 C274 1.615 . S
C1413 C73 1.582 . S
C1419 C308 1.612 . S
C1433 C342 1.625 . S
C1439 C5 1.603 . S
C1453 C39 1.600 . S
C1459 C376 1.622 . S
C1473 C753 1.584 . S
C1479 C410 1.612 . S
C1493 C444 1.614 . S
C1499 C787 1.583 . S
C1513 C719 1.602 . S
C1519 C478 1.625 . S
C1533 C685 1.591 . S
C1539 C512 1.616 . S
C1553 C617 1.584 . S
C1559 C546 1.614 . S
C1573 C580 1.611 . S
C1579 C651 1.582 . S
C1593 C614 1.615 . S
C1599 C549 1.589 . S
C1613 C583 1.601 . S
C1619 C648 1.625 . S
C1633 C515 1.592 . S
C1639 C682 1.617 . S
C1653 C716 1.624 . S
C1659 C481 1.600 . S
C1673 C750 1.624 . S
C1679 C413 1.602 . S
C1693 C447 1.584 . S
C1699 C784 1.612 . S
C1713 C818 1.615 . S
C1719 C1161 1.590 . S
C1733 C852 1.615 . S
C1739 C1195 1.590 . S
C1753 C886 1.621 . S
C1759 C1127 1.594 . S
C1773 C920 1.612 . S
C1779 C1093 1.583 . S
C1793 C1025 1.585 . S
C1799 C954 1.615 . S
C1813 C1059 1.602 . S
C1819 C988 1.624 . S
C1833 C1022 1.619 . S
C1839 C957 1.590 . S
C1853 C991 1.593 . S
C1859 C1056 1.621 . S
C1873 C923 1.595 . S
C1879 C1090 1.622 . S
C1893 C1124 1.621 . S
C1899 C889 1.598 . S
C1913 C1158 1.625 . S
C1919 C821 1.603 . S
C1933 C855 1.589 . S
C1939 C1192 1.615 . S
C1953 C122 1.910 . S
C1959 C20 1.911 . S
C1973 C54 1.909 . S
C1979 C156 1.908 . S
C1993 C88 1.910 . S
C1999 C190 1.910 . S
C2013 C326 1.910 . S
C2019 C224 1.911 . S
C2033 C258 1.913 . S
C2039 C360 1.913 . S
C2053 C394 1.913 . S
C2059 C292 1.913 . S
C2073 C428 1.910 . S
C2079 C530 1.909 . S
C2093 C564 1.912 . S
C2099 C462 1.912 . S
C2113 C496 1.909 . S
C2119 C598 1.909 . S
C2133 C632 1.913 . S
C2139 C734 1.913 . S
C2153 C768 1.908 . S
C2159 C666 1.908 . S
C2173 C802 1.911 . S
C2179 C700 1.910 . S
C2193 C836 1.913 . S
C2199 C938 1.913 . S
C2213 C972 1.908 . S
C2219 C870 1.908 . S
C2233 C904 1.908 . S
C2239 C1006 1.908 . S
C2253 C1040 1.913 . S
C2259 C1142 1.912 . S
C2273 C1074 1.912 . S
C2279 C1176 1.912 . S
C2293 C1210 1.911 . S
C2299 C1108 1.910 . S
C2313 C111 0.647 . S
C2319 C9 0.698 . S
C2333 C43 0.698 . S
C2339 C145 0.642 . S
C2353 C179 0.686 . S
C2359 C77 0.650 . S
C2373 C315 0.699 . S
C2379 C213 0.646 . S
C2393 C349 0.683 . S
C2399 C247 0.666 . S
C2413 C383 0.693 . S
C2419 C281 0.644 . S
C2433 C417 0.698 . S
C2439 C519 0.650 . S
C2453 C451 0.643 . S
C2459 C553 0.699 . S
C2473 C587 0.699 . S
C2479 C485 0.643 . S
C2493 C621 0.660 . S
C2499 C723 0.689 . S
C2513 C757 0.699 . S
C2519 C655 0.644 . S
C2533 C791 0.698 . S
C2539 C689 0.646 . S
C2553 C825 0.665 . S
C2559 C927 0.685 . S
C2573 C859 0.648 . S
C2579 C961 0.689 . S
C2593 C995 0.648 . S
C2599 C893 0.697 . S
C2613 C1131 0.651 . S
C2619 C1029 0.686 . S
C2633 C1165 0.656 . S
C2639 C1063 0.691 . S
C2653 C1199 0.665 . S
C2659 C1097 0.671 . S
C2673 C33 1.630 . S
C2679 C577 1.631 . S
C2693 C67 1.629 . S
C2699 C611 1.629 . S
C2713 C543 1.630 . S
C2719 C101 1.630 . S
C2733 C917 1.629 . S
C2739 C135 1.629 . S
C2753 C169 1.634 . S
C2759 C849 1.633 . S
C2773 C203 1.645 . S
C2779 C883 1.644 . S
C2793 C1189 1.629 . S
C2799 C237 1.629 . S
C2813 C1223 1.629 . S
C2819 C271 1.629 . S
C2833 C305 1.638 . S
C2839 C1155 1.639 . S
C2853 C713 1.631 . S
C2859 C339 1.630 . S
C2873 C373 1.633 . S
C2879 C645 1.632 . S
C2893 C679 1.645 . S
C2899 C407 1.645 . S
C2913 C985 1.630 . S
C2919 C441 1.629 . S
C2933 C1019 1.633 . S
C2939 C475 1.634 . S
C2953 C509 1.632 . S
C2959 C951 1.633 . S
C2973 C1121 1.642 . S
C2979 C747 1.643 . S
C2993 C781 1.629 . S
C2999 C1053 1.630 . S
C3013 C815 1.636 . S
C3019 C1087 1.635 . S
