# Generated by pormake.
# Topology smu, (6)-cn, num edge types: 1
# Building blocks:
#     Node 0, Type 0, BuildingBlock: BETFEN_clean_sbu_0, # of connection points: 6
#     Node 1, Type 0, BuildingBlock: BETFEN_clean_sbu_0, # of connection points: 6
#     Node 2, Type 0, BuildingBlock: BETFEN_clean_sbu_0, # of connection points: 6
#     Node 3, Type 0, BuildingBlock: BETFEN_clean_sbu_0, # of connection points: 6
#     Node 4, Type 0, BuildingBlock: BETFEN_clean_sbu_0, # of connection points: 6
#     Node 5, Type 0, BuildingBlock: BETFEN_clean_sbu_0, # of connection points: 6
#     Edge 6, Type (0, 0), BuildingBlock: UVAHIK_clean_linker_0, # of connection points: 2
#     Edge 7, Type (0, 0), BuildingBlock: UVAHIK_clean_linker_0, # of connection points: 2
#     Edge 8, Type (0, 0), BuildingBlock: UVAHIK_clean_linker_0, # of connection points: 2
#     Edge 9, Type (0, 0), BuildingBlock: UVAHIK_clean_linker_0, # of connection points: 2
#     Edge 10, Type (0, 0), BuildingBlock: UVAHIK_clean_linker_0, # of connection points: 2
#     Edge 11, Type (0, 0), BuildingBlock: UVAHIK_clean_linker_0, # of connection points: 2
#     Edge 12, Type (0, 0), BuildingBlock: UVAHIK_clean_linker_0, # of connection points: 2
#     Edge 13, Type (0, 0), BuildingBlock: UVAHIK_clean_linker_0, # of connection points: 2
#     Edge 14, Type (0, 0), BuildingBlock: UVAHIK_clean_linker_0, # of connection points: 2
#     Edge 15, Type (0, 0), BuildingBlock: UVAHIK_clean_linker_0, # of connection points: 2
#     Edge 16, Type (0, 0), BuildingBlock: UVAHIK_clean_linker_0, # of connection points: 2
#     Edge 17, Type (0, 0), BuildingBlock: UVAHIK_clean_linker_0, # of connection points: 2
#     Edge 18, Type (0, 0), BuildingBlock: UVAHIK_clean_linker_0, # of connection points: 2
#     Edge 19, Type (0, 0), BuildingBlock: UVAHIK_clean_linker_0, # of connection points: 2
#     Edge 20, Type (0, 0), BuildingBlock: UVAHIK_clean_linker_0, # of connection points: 2
#     Edge 21, Type (0, 0), BuildingBlock: UVAHIK_clean_linker_0, # of connection points: 2
#     Edge 22, Type (0, 0), BuildingBlock: UVAHIK_clean_linker_0, # of connection points: 2
#     Edge 23, Type (0, 0), BuildingBlock: UVAHIK_clean_linker_0, # of connection points: 2
# Relax obj value: 0.210
# Max RMSD: 0.298
# Mean RMSD: 0.298
data_MOF--net-smu--node1-BETFEN_clean_sbu_0--edge1-UVAHIK_clean_linker_0
_symmetry_space_group_name_H-M    P1
_symmetry_Int_Tables_number       1
_symmetry_cell_setting            triclinic
loop_
_symmetry_equiv_pos_as_xyz
'x, y, z'
_cell_length_a     48.728958
_cell_length_b     48.677721
_cell_length_c     35.584286
_cell_angle_alpha  89.946108
_cell_angle_beta   90.077155
_cell_angle_gamma 119.92828
loop_
_atom_site_label
_atom_site_type_symbol
_atom_site_fract_x
_atom_site_fract_y
_atom_site_fract_z
_atom_type_partial_charge
Pr0 Pr 0.31223 0.10074 0.26464 0.0
Pr1 Pr 0.36484 0.08095 0.2771 0.0
C2 C 0.2719 0.11809 0.23531 0.0
C3 C 0.25382 0.13447 0.24371 0.0
C4 C 0.23336 0.12629 0.27476 0.0
C5 C 0.21507 0.14093 0.28032 0.0
C6 C 0.21678 0.16398 0.25492 0.0
C7 C 0.23796 0.1726 0.2245 0.0
C8 C 0.25614 0.15798 0.21896 0.0
C9 C 0.31313 0.08516 0.34167 0.0
C10 C 0.29029 0.02623 0.26953 0.0
C11 C 0.41455 0.07536 0.30171 0.0
C12 C 0.44977 0.09089 0.29802 0.0
C13 C 0.46415 0.08828 0.26494 0.0
C14 C 0.49718 0.1015 0.26274 0.0
C15 C 0.51687 0.11767 0.29356 0.0
C16 C 0.5024 0.12054 0.32647 0.0
C17 C 0.4694 0.10729 0.32867 0.0
C18 C 0.34399 0.07372 0.20284 0.0
C19 C 0.38655 0.15878 0.27429 0.0
O20 O 0.26256 0.09031 0.25057 0.0
O21 O 0.30273 0.13559 0.23283 0.0
O22 O 0.33057 0.08569 0.31535 0.0
O23 O 0.29464 0.09497 0.32848 0.0
O24 O 0.31594 0.03413 0.29026 0.0
O25 O 0.28799 0.0474 0.24867 0.0
O26 O 0.403 0.09047 0.32043 0.0
O27 O 0.39708 0.0599 0.27274 0.0
O28 O 0.3479 0.09668 0.22396 0.0
O29 O 0.35414 0.05651 0.21891 0.0
O30 O 0.3564 0.15088 0.27391 0.0
O31 O 0.39545 0.13712 0.273 0.0
H32 H 0.23108 0.10826 0.29439 0.0
H33 H 0.1989 0.13348 0.3039 0.0
H34 H 0.24045 0.19062 0.20473 0.0
H35 H 0.27176 0.16478 0.19486 0.0
H36 H 0.44989 0.07562 0.2408 0.0
H37 H 0.50717 0.09832 0.23707 0.0
H38 H 0.51659 0.13316 0.35067 0.0
H39 H 0.45918 0.10964 0.35465 0.0
Pr40 Pr 0.80065 0.70252 0.26214 0.0
Pr41 Pr 0.72773 0.64935 0.27674 0.0
C42 C 0.85808 0.74335 0.23271 0.0
C43 C 0.89181 0.76472 0.24259 0.0
C44 C 0.90661 0.75773 0.27205 0.0
C45 C 0.93915 0.77734 0.27904 0.0
C46 C 0.95758 0.80442 0.2568 0.0
C47 C 0.9424 0.81144 0.2277 0.0
C48 C 0.90998 0.79185 0.22073 0.0
C49 C 0.78513 0.70026 0.33978 0.0
C50 C 0.74814 0.72449 0.27196 0.0
C51 C 0.67204 0.60042 0.3017 0.0
C52 C 0.65247 0.56527 0.30013 0.0
C53 C 0.66005 0.54707 0.27618 0.0
C54 C 0.64015 0.51397 0.27387 0.0
C55 C 0.61212 0.49828 0.29538 0.0
C56 C 0.60508 0.51675 0.31977 0.0
C57 C 0.62496 0.54973 0.32206 0.0
C58 C 0.73991 0.67285 0.20337 0.0
C59 C 0.78298 0.62706 0.26824 0.0
O60 O 0.83752 0.75192 0.2424 0.0
O61 O 0.84707 0.71283 0.23593 0.0
O62 O 0.76858 0.68297 0.31322 0.0
O63 O 0.81308 0.71952 0.32636 0.0
O64 O 0.73052 0.69832 0.29198 0.0
O65 O 0.77143 0.72744 0.25028 0.0
O66 O 0.69829 0.61277 0.3213 0.0
O67 O 0.67492 0.61587 0.27053 0.0
O68 O 0.75918 0.66773 0.22253 0.0
O69 O 0.71337 0.6632 0.22111 0.0
O70 O 0.8053 0.6571 0.26566 0.0
O71 O 0.75257 0.61832 0.27086 0.0
H72 H 0.89311 0.73695 0.2894 0.0
H73 H 0.94983 0.77133 0.30197 0.0
H74 H 0.95573 0.83171 0.20955 0.0
H75 H 0.89917 0.79761 0.19768 0.0
H76 H 0.68112 0.55851 0.25888 0.0
H77 H 0.64636 0.50079 0.25453 0.0
H78 H 0.58417 0.50571 0.33733 0.0
H79 H 0.61862 0.56319 0.34083 0.0
Pr80 Pr 0.9139 0.21384 0.26374 0.0
Pr81 Pr 0.93327 0.28616 0.27596 0.0
C82 C 0.89681 0.15612 0.23489 0.0
C83 C 0.88059 0.12179 0.24396 0.0
C84 C 0.88921 0.10987 0.27507 0.0
C85 C 0.8746 0.07705 0.28135 0.0
C86 C 0.85111 0.05544 0.25665 0.0
C87 C 0.84205 0.06765 0.22616 0.0
C88 C 0.85666 0.10034 0.21988 0.0
C89 C 0.92944 0.23041 0.34071 0.0
C90 C 0.98817 0.2667 0.26841 0.0
C91 C 0.93869 0.34142 0.30026 0.0
C92 C 0.9235 0.36138 0.29525 0.0
C93 C 0.93359 0.38446 0.26673 0.0
C94 C 0.92055 0.40437 0.26331 0.0
C95 C 0.8971 0.40195 0.28842 0.0
C96 C 0.88681 0.37865 0.31674 0.0
C97 C 0.89989 0.35876 0.32019 0.0
C98 C 0.94022 0.27247 0.20166 0.0
C99 C 0.85569 0.22997 0.27326 0.0
O100 O 0.92463 0.17473 0.24986 0.0
O101 O 0.8792 0.16937 0.23223 0.0
O102 O 0.92878 0.24723 0.31431 0.0
O103 O 0.91981 0.20213 0.32766 0.0
O104 O 0.98012 0.28425 0.28927 0.0
O105 O 0.96708 0.24322 0.24757 0.0
O106 O 0.92287 0.31459 0.31848 0.0
O107 O 0.95504 0.33958 0.27218 0.0
O108 O 0.9175 0.25341 0.22296 0.0
O109 O 0.95724 0.2999 0.21753 0.0
O110 O 0.86371 0.20778 0.27269 0.0
O111 O 0.8772 0.26055 0.27217 0.0
H112 H 0.90756 0.12584 0.2942 0.0
H113 H 0.88239 0.0686 0.30495 0.0
H114 H 0.82368 0.0519 0.20691 0.0
H115 H 0.8495 0.10888 0.19577 0.0
H116 H 0.95185 0.38742 0.24712 0.0
H117 H 0.92886 0.42166 0.24082 0.0
H118 H 0.86918 0.37627 0.33697 0.0
H119 H 0.89179 0.34159 0.34282 0.0
Pr120 Pr 0.08626 0.36255 0.77806 0.0
Pr121 Pr 0.10577 0.30615 0.76335 0.0
C122 C 0.07857 0.40899 0.80895 0.0
C123 C 0.09081 0.44377 0.8042 0.0
C124 C 0.08244 0.45601 0.77312 0.0
C125 C 0.09394 0.48877 0.76962 0.0
C126 C 0.1142 0.51028 0.79702 0.0
C127 C 0.12248 0.49792 0.82807 0.0
C128 C 0.11088 0.46521 0.83165 0.0
C129 C 0.0863 0.34997 0.70038 0.0
C130 C 0.16367 0.38196 0.77288 0.0
C131 C 0.12081 0.26453 0.73303 0.0
C132 C 0.13681 0.24606 0.74077 0.0
C133 C 0.16118 0.2559 0.7675 0.0
C134 C 0.17675 0.23847 0.77298 0.0
C135 C 0.16831 0.21092 0.75174 0.0
C136 C 0.14346 0.201 0.72552 0.0
C137 C 0.12796 0.21837 0.72013 0.0
C138 C 0.09027 0.30907 0.83977 0.0
C139 C 0.03146 0.28776 0.76436 0.0
O140 O 0.09848 0.4006 0.82209 0.0
O141 O 0.05946 0.38948 0.78318 0.0
O142 O 0.09394 0.33811 0.72732 0.0
O143 O 0.08056 0.37142 0.71387 0.0
O144 O 0.15572 0.35198 0.76724 0.0
O145 O 0.1424 0.39118 0.77744 0.0
O146 O 0.09389 0.25577 0.75018 0.0
O147 O 0.13868 0.29537 0.72983 0.0
O148 O 0.09253 0.32681 0.81277 0.0
O149 O 0.0988 0.28926 0.8275 0.0
O150 O 0.03856 0.31316 0.78534 0.0
O151 O 0.05316 0.28497 0.74516 0.0
H152 H 0.06702 0.44033 0.7514 0.0
H153 H 0.08724 0.49727 0.74511 0.0
H154 H 0.13756 0.51349 0.85009 0.0
H155 H 0.11756 0.45664 0.85614 0.0
H156 H 0.1684 0.27722 0.7838 0.0
H157 H 0.19587 0.24698 0.79323 0.0
H158 H 0.13585 0.17965 0.70915 0.0
H159 H 0.10913 0.21026 0.69948 0.0
Pr160 Pr 0.28719 0.92683 0.77899 0.0
Pr161 Pr 0.21196 0.90913 0.76387 0.0
C162 C 0.34083 0.93329 0.80983 0.0
C163 C 0.36291 0.92053 0.80479 0.0
C164 C 0.38523 0.9309 0.77542 0.0
C165 C 0.40612 0.919 0.77162 0.0
C166 C 0.40533 0.89636 0.79703 0.0
C167 C 0.38299 0.88608 0.82639 0.0
C168 C 0.36223 0.89806 0.83027 0.0
C169 C 0.27489 0.9277 0.70124 0.0
C170 C 0.22807 0.84988 0.77359 0.0
C171 C 0.15583 0.89549 0.73322 0.0
C172 C 0.12149 0.87961 0.74107 0.0
C173 C 0.10746 0.85677 0.76958 0.0
C174 C 0.07458 0.84134 0.77544 0.0
C175 C 0.0551 0.84839 0.75283 0.0
C176 C 0.06952 0.8717 0.72474 0.0
C177 C 0.10228 0.88707 0.71896 0.0
C178 C 0.23014 0.92382 0.8405 0.0
C179 C 0.26886 0.98302 0.76642 0.0
O180 O 0.31244 0.91359 0.82273 0.0
O181 O 0.34083 0.95287 0.7844 0.0
O182 O 0.25549 0.92021 0.72816 0.0
O183 O 0.30185 0.93279 0.71475 0.0
O184 O 0.20661 0.85851 0.76737 0.0
O185 O 0.25859 0.87065 0.77868 0.0
O186 O 0.17411 0.92199 0.75112 0.0
O187 O 0.16848 0.87736 0.72936 0.0
O188 O 0.24553 0.9214 0.81357 0.0
O189 O 0.202 0.91583 0.82804 0.0
O190 O 0.28657 0.975 0.78721 0.0
O191 O 0.24428 0.96196 0.74672 0.0
H192 H 0.38663 0.94824 0.75528 0.0
H193 H 0.4227 0.92732 0.74842 0.0
H194 H 0.38188 0.86912 0.84691 0.0
H195 H 0.34566 0.8898 0.85349 0.0
H196 H 0.12188 0.85066 0.78701 0.0
H197 H 0.06436 0.8234 0.79714 0.0
H198 H 0.05549 0.87824 0.70723 0.0
H199 H 0.11263 0.90472 0.69693 0.0
Pr200 Pr 0.65213 0.72641 0.7756 0.0
Pr201 Pr 0.7051 0.79872 0.7605 0.0
C202 C 0.60373 0.67145 0.80289 0.0
C203 C 0.56895 0.65037 0.7991 0.0
C204 C 0.54995 0.65992 0.77972 0.0
C205 C 0.51705 0.63937 0.77653 0.0
C206 C 0.5024 0.60875 0.79257 0.0
C207 C 0.52171 0.59953 0.81207 0.0
C208 C 0.55449 0.62005 0.81524 0.0
C209 C 0.67132 0.73853 0.70074 0.0
C210 C 0.63083 0.78277 0.7715 0.0
C211 C 0.74521 0.85561 0.72929 0.0
C212 C 0.76378 0.89019 0.73683 0.0
C213 C 0.7836 0.90272 0.76842 0.0
C214 C 0.80214 0.93568 0.77342 0.0
C215 C 0.80133 0.95683 0.74692 0.0
C216 C 0.78084 0.94402 0.71587 0.0
C217 C 0.76241 0.91119 0.71089 0.0
C218 C 0.7055 0.78382 0.83778 0.0
C219 C 0.72638 0.74566 0.76698 0.0
O220 O 0.61374 0.69907 0.81883 0.0
O221 O 0.62131 0.67273 0.77445 0.0
O222 O 0.66837 0.75818 0.72175 0.0
O223 O 0.66067 0.71124 0.71709 0.0
O224 O 0.66096 0.80489 0.76925 0.0
O225 O 0.62173 0.75215 0.7721 0.0
O226 O 0.7546 0.83721 0.7446 0.0
O227 O 0.71437 0.84259 0.72776 0.0
O228 O 0.68752 0.76637 0.81212 0.0
O229 O 0.72366 0.81186 0.8238 0.0
O230 O 0.7011 0.72875 0.78848 0.0
O231 O 0.72855 0.76865 0.74526 0.0
H232 H 0.56056 0.6832 0.76694 0.0
H233 H 0.5032 0.64732 0.76096 0.0
H234 H 0.51147 0.5765 0.82541 0.0
H235 H 0.56859 0.61218 0.83048 0.0
H236 H 0.78512 0.8871 0.78896 0.0
H237 H 0.81776 0.94457 0.79753 0.0
H238 H 0.77903 0.9594 0.69522 0.0
H239 H 0.74727 0.90216 0.68637 0.0
C240 C 0.27472 0.95231 0.88792 0.0
C241 C 0.24279 0.93969 0.87757 0.0
C242 C 0.28622 0.96899 0.92204 0.0
C243 C 0.25858 0.9841 1.01506 0.0
H244 H 0.34447 0.05455 1.02106 0.0
C245 C 0.30557 0.06322 0.14952 0.0
C246 C 0.33536 0.06914 0.16222 0.0
C247 C 0.29458 0.05042 0.11337 0.0
C248 C 0.32042 0.03487 1.02001 0.0
H249 H 0.19808 0.93493 0.89514 0.0
H250 H 0.2179 0.96413 0.95348 0.0
H251 H 0.32517 0.0253 0.96228 0.0
H252 H 0.37722 0.06714 0.14655 0.0
H253 H 0.35879 0.04609 0.08376 0.0
H254 H 0.25388 0.99387 0.07279 0.0
C255 C 0.23418 0.96074 0.93609 0.0
C256 C 0.30933 0.01785 0.98617 0.0
C257 C 0.22275 0.94402 0.90227 0.0
C258 C 0.35441 0.06345 0.13736 0.0
C259 C 0.34374 0.05123 0.10126 0.0
C260 C 0.2696 1.00129 0.04878 0.0
C261 C 0.26615 0.97365 0.94671 0.0
C262 C 0.27823 0.99199 0.98306 0.0
C263 C 0.3133 0.04361 0.08895 0.0
C264 C 0.30077 0.02684 0.05195 0.0
H265 H 0.29088 0.9496 0.8695 0.0
H266 H 0.31087 0.97806 0.92911 0.0
H267 H 0.23471 0.9641 1.01448 0.0
H268 H 0.29 0.06657 0.1683 0.0
H269 H 0.27109 0.04512 0.10489 0.0
C270 C 0.71035 0.76545 0.64781 0.0
C271 C 0.68017 0.74229 0.66026 0.0
C272 C 0.72137 0.76301 0.61196 0.0
C273 C 0.70532 0.70117 0.53854 0.0
H274 H 0.76435 0.77254 0.47815 0.0
C275 C 0.74141 0.68496 0.38755 0.0
C276 C 0.77322 0.70426 0.3769 0.0
C277 C 0.73009 0.69031 0.42156 0.0
C278 C 0.74806 0.75228 0.49479 0.0
H279 H 0.63744 0.69945 0.64426 0.0
H280 H 0.65557 0.69614 0.58172 0.0
H281 H 0.74449 0.78185 0.53703 0.0
H282 H 0.81803 0.7444 0.39386 0.0
H283 H 0.79847 0.75365 0.45297 0.0
H284 H 0.70875 0.67161 0.49635 0.0
C285 C 0.67143 0.71563 0.59962 0.0
C286 C 0.73663 0.75765 0.52874 0.0
C287 C 0.66072 0.71783 0.63538 0.0
C288 C 0.79341 0.72897 0.40121 0.0
C289 C 0.78208 0.73447 0.43503 0.0
C290 C 0.71656 0.69582 0.50459 0.0
C291 C 0.70239 0.73741 0.58771 0.0
C292 C 0.71493 0.73216 0.5512 0.0
C293 C 0.75021 0.71531 0.44578 0.0
C294 C 0.7381 0.72124 0.48208 0.0
H295 H 0.7262 0.78415 0.66666 0.0
H296 H 0.74539 0.78027 0.60416 0.0
H297 H 0.6894 0.68076 0.5552 0.0
H298 H 0.72512 0.66594 0.36936 0.0
H299 H 0.70533 0.6752 0.4285 0.0
C300 C 0.95007 0.29291 0.13605 0.0
C301 C 0.94471 0.26833 0.16107 0.0
C302 C 0.96226 0.29444 0.09996 0.0
C303 C 0.01267 0.27066 0.04781 0.0
H304 H 0.9881 0.30165 0.96103 0.0
C305 C 0.07009 0.28133 0.90148 0.0
C306 C 0.07419 0.30563 0.8767 0.0
C307 C 0.0533 0.27592 0.93523 0.0
C308 C 0.9957 0.29342 0.98499 0.0
H309 H 0.94779 0.22578 0.16746 0.0
H310 H 0.96917 0.22828 0.10407 0.0
H311 H 0.95884 0.2916 1.01977 0.0
H312 H 0.06378 0.34353 0.8684 0.0
H313 H 0.03521 0.33485 0.92791 0.0
H314 H 0.04999 0.27321 1.01363 0.0
C315 C 0.96365 0.24636 0.11241 0.0
C316 C 0.97868 0.28743 1.01881 0.0
C317 C 0.95089 0.24457 0.14855 0.0
C318 C 0.06124 0.32471 0.88689 0.0
C319 C 0.04451 0.31942 0.92095 0.0
C320 C 0.02985 0.27688 1.01411 0.0
C321 C 0.97016 0.27175 0.08783 0.0
C322 C 0.98692 0.27603 0.05085 0.0
C323 C 0.0401 0.29478 0.94571 0.0
C324 C 0.02175 0.28844 0.98202 0.0
H325 H 0.94618 0.31194 0.14511 0.0
H326 H 0.96716 0.31453 0.08233 0.0
H327 H 0.02024 0.26253 0.07191 0.0
H328 H 0.07943 0.26592 0.89447 0.0
H329 H 0.05012 0.25634 0.95271 0.0
C330 C 0.28571 0.0671 0.40422 0.0
C331 C 0.30921 0.06968 0.37917 0.0
C332 C 0.28009 0.05058 0.43837 0.0
C333 C 0.29408 0.99022 0.48714 0.0
H334 H 0.26933 0.01826 0.57624 0.0
C335 C 0.29488 0.94123 0.63543 0.0
C336 C 0.27198 0.93738 0.66219 0.0
C337 C 0.29654 0.95503 0.60032 0.0
C338 C 0.27575 0.00974 0.55155 0.0
H339 H 0.34549 0.05703 0.37084 0.0
H340 H 0.3363 0.02882 0.43059 0.0
H341 H 0.27939 0.04789 0.51766 0.0
H342 H 0.2322 0.94454 0.67227 0.0
H343 H 0.235 0.96881 0.61064 0.0
H344 H 0.29084 0.95232 0.52115 0.0
C345 C 0.3217 0.0391 0.4237 0.0
C346 C 0.28162 0.02685 0.51774 0.0
C347 C 0.32727 0.05562 0.38947 0.0
C348 C 0.25 0.94691 0.65231 0.0
C349 C 0.25187 0.96116 0.61706 0.0
C350 C 0.28832 0.9732 0.52092 0.0
C351 C 0.29781 0.03605 0.44868 0.0
C352 C 0.29114 0.01755 0.48494 0.0
C353 C 0.27549 0.96581 0.59066 0.0
C354 C 0.27931 0.98279 0.55384 0.0
H355 H 0.27114 0.07739 0.39712 0.0
H356 H 0.26122 0.04857 0.45624 0.0
H357 H 0.30058 0.98164 0.46257 0.0
H358 H 0.31236 0.9344 0.6421 0.0
H359 H 0.31529 0.95841 0.58129 0.0
C360 C 0.7331 0.79522 0.90025 0.0
C361 C 0.71028 0.77318 0.87542 0.0
C362 C 0.73958 0.78552 0.93469 0.0
C363 C 0.73077 0.71467 0.98699 0.0
H364 H 0.74648 0.7684 0.07395 0.0
C365 C 0.76275 0.686 0.13677 0.0
C366 C 0.74504 0.68889 0.16613 0.0
C367 C 0.76221 0.69759 0.1004 0.0
C368 C 0.74223 0.75306 0.05001 0.0
H369 H 0.67642 0.72338 0.86749 0.0
H370 H 0.68735 0.70636 0.92789 0.0
H371 H 0.73623 0.7845 1.01326 0.0
H372 H 0.71378 0.70701 0.18039 0.0
H373 H 0.71357 0.72756 0.11857 0.0
H374 H 0.73598 0.6828 0.02447 0.0
C375 C 0.70055 0.73126 0.92057 0.0
C376 C 0.73655 0.76245 1.01493 0.0
C377 C 0.69399 0.74104 0.88605 0.0
C378 C 0.72795 0.70457 0.15863 0.0
C379 C 0.72784 0.71648 0.12295 0.0
C380 C 0.73664 0.70531 0.02223 0.0
C381 C 0.7235 0.75337 0.9455 0.0
C382 C 0.73037 0.74331 0.98282 0.0
C383 C 0.74449 0.71283 0.09299 0.0
C384 C 0.74197 0.72416 0.05442 0.0
H385 H 0.74637 0.82011 0.89286 0.0
H386 H 0.75772 0.8033 0.95258 0.0
H387 H 0.72655 0.69942 0.96298 0.0
H388 H 0.77582 0.6737 0.14145 0.0
H389 H 0.77544 0.69445 0.07804 0.0
C390 C 0.95818 0.27412 0.3885 0.0
C391 C 0.94475 0.24207 0.37823 0.0
C392 C 0.97433 0.28519 0.42289 0.0
C393 C 0.01459 0.26485 0.49907 0.0
H394 H 1.00634 0.32839 0.55532 0.0
C395 C 0.06679 0.30597 0.6514 0.0
C396 C 0.07693 0.33761 0.66124 0.0
C397 C 0.05208 0.29374 0.61632 0.0
C398 C 0.00944 0.31098 0.53986 0.0
H399 H 0.93779 0.19655 0.39638 0.0
H400 H 0.96551 0.21561 0.45624 0.0
H401 H 0.97788 0.30875 0.49641 0.0
H402 H 0.08129 0.38156 0.64091 0.0
H403 H 0.0572 0.36096 0.58009 0.0
H404 H 0.04625 0.2672 0.54269 0.0
C405 C 0.96396 0.23242 0.43767 0.0
C406 C 0.99293 0.29962 0.50585 0.0
C407 C 0.94773 0.22137 0.40338 0.0
C408 C 0.07363 0.35702 0.63444 0.0
C409 C 0.05932 0.34501 0.59955 0.0
C410 C 0.03123 0.27632 0.53315 0.0
C411 C 0.97767 0.26455 0.44801 0.0
C412 C 0.99528 0.27645 0.4847 0.0
C413 C 0.04734 0.31292 0.59021 0.0
C414 C 0.02914 0.29979 0.55405 0.0
H415 H 0.95662 0.2908 0.36968 0.0
H416 H 0.98479 0.31015 0.42941 0.0
H417 H 0.01739 0.24728 0.48358 0.0
H418 H 0.06874 0.29026 0.67139 0.0
H419 H 0.04325 0.26891 0.61041 0.0
C420 C 0.56923 0.14431 0.25838 0.0
C421 C 0.55214 0.13085 0.29172 0.0
C422 C 0.60207 0.1561 0.25662 0.0
C423 C 0.66735 0.15074 0.3051 0.0
H424 H 0.72183 0.22549 0.24631 0.0
C425 C 0.79812 0.18741 0.27522 0.0
C426 C 0.82118 0.21985 0.27506 0.0
C427 C 0.76575 0.17749 0.27726 0.0
C428 C 0.70708 0.20473 0.26314 0.0
H429 H 0.55693 0.1193 0.34938 0.0
H430 H 0.61387 0.14035 0.34658 0.0
H431 H 0.66524 0.20709 0.2504 0.0
H432 H 0.82765 0.26725 0.2768 0.0
H433 H 0.77119 0.24995 0.28068 0.0
H434 H 0.70913 0.14864 0.31843 0.0
C435 C 0.60187 0.14152 0.32152 0.0
C436 C 0.67441 0.19389 0.26512 0.0
C437 C 0.56908 0.12976 0.32328 0.0
C438 C 0.81073 0.24208 0.27679 0.0
C439 C 0.77822 0.23211 0.27882 0.0
C440 C 0.69994 0.16154 0.30309 0.0
C441 C 0.61894 0.15477 0.28812 0.0
C442 C 0.65397 0.16666 0.2861 0.0
C443 C 0.75519 0.19961 0.27927 0.0
C444 C 0.72038 0.18863 0.28196 0.0
H445 H 0.55729 0.14599 0.23354 0.0
H446 H 0.61413 0.16579 0.23025 0.0
H447 H 0.65257 0.12952 0.32121 0.0
H448 H 0.80501 0.16945 0.27372 0.0
H449 H 0.74894 0.1523 0.27681 0.0
C450 C 0.55691 0.4503 0.29346 0.0
C451 C 0.58998 0.46306 0.29206 0.0
C452 C 0.53607 0.41751 0.29064 0.0
C453 C 0.53155 0.33891 0.30058 0.0
H454 H 0.45289 0.30874 0.24583 0.0
C455 C 0.44368 0.20382 0.27479 0.0
C456 C 0.41101 0.19334 0.27592 0.0
C457 C 0.46628 0.23639 0.27604 0.0
C458 C 0.47452 0.31661 0.26168 0.0
H459 H 0.6267 0.45051 0.28669 0.0
H460 H 0.59041 0.39346 0.28127 0.0
H461 H 0.49031 0.36533 0.24925 0.0
H462 H 0.3769 0.20954 0.27976 0.0
H463 H 0.41586 0.26561 0.28248 0.0
H464 H 0.51558 0.29008 0.31318 0.0
C465 C 0.58057 0.40891 0.28491 0.0
C466 C 0.49613 0.34927 0.26362 0.0
C467 C 0.60147 0.4418 0.2876 0.0
C468 C 0.40173 0.21644 0.27857 0.0
C469 C 0.42423 0.24886 0.27987 0.0
C470 C 0.50986 0.30616 0.29871 0.0
C471 C 0.5475 0.39621 0.28633 0.0
C472 C 0.52492 0.36106 0.28335 0.0
C473 C 0.45692 0.25949 0.27845 0.0
C474 C 0.48082 0.29444 0.27948 0.0
H475 H 0.54695 0.46571 0.29635 0.0
H476 H 0.51088 0.40885 0.29232 0.0
H477 H 0.55323 0.34691 0.3164 0.0
H478 H 0.45187 0.18689 0.27271 0.0
H479 H 0.49113 0.24344 0.2745 0.0
C480 C 0.90389 0.45628 0.27637 0.0
C481 C 0.88405 0.42411 0.2856 0.0
C482 C 0.89198 0.47719 0.27433 0.0
C483 C 0.81731 0.48031 0.26449 0.0
H484 H 0.86916 0.56562 0.30274 0.0
C485 C 0.77117 0.57034 0.276 0.0
C486 C 0.79291 0.60249 0.26874 0.0
C487 C 0.78124 0.54783 0.2779 0.0
C488 C 0.85443 0.54205 0.29142 0.0
H489 H 0.83566 0.38891 0.29933 0.0
H490 H 0.81502 0.42544 0.29627 0.0
H491 H 0.88851 0.52831 0.30616 0.0
H492 H 0.84235 0.63571 0.25681 0.0
H493 H 0.85957 0.59679 0.25942 0.0
H494 H 0.78326 0.4942 0.24961 0.0
C495 C 0.83985 0.43446 0.29033 0.0
C496 C 0.8656 0.52054 0.29343 0.0
C497 C 0.85181 0.41352 0.2925 0.0
C498 C 0.82484 0.61131 0.2628 0.0
C499 C 0.83484 0.58889 0.26458 0.0
C500 C 0.80614 0.50191 0.26238 0.0
C501 C 0.8598 0.46668 0.2814 0.0
C502 C 0.84734 0.48937 0.2798 0.0
C503 C 0.81333 0.55682 0.27255 0.0
C504 C 0.82463 0.53323 0.27558 0.0
H505 H 0.92889 0.46554 0.27125 0.0
H506 H 0.90807 0.50168 0.2669 0.0
H507 H 0.80265 0.45667 0.25333 0.0
H508 H 0.74641 0.56258 0.28081 0.0
H509 H 0.76393 0.52348 0.2844 0.0
C510 C 0.15773 0.56759 0.80411 0.0
C511 C 0.12651 0.54535 0.79347 0.0
C512 C 0.16914 0.60033 0.80131 0.0
C513 C 0.1521 0.65994 0.75599 0.0
H514 H 0.21023 0.71644 0.83149 0.0
C515 C 0.18561 0.79238 0.76637 0.0
C516 C 0.21717 0.81511 0.77509 0.0
C517 C 0.17515 0.7598 0.76801 0.0
C518 C 0.1943 0.70112 0.80987 0.0
H519 H 0.08281 0.54077 0.77184 0.0
H520 H 0.10244 0.59755 0.76727 0.0
H521 H 0.19087 0.65969 0.83557 0.0
H522 H 0.26238 0.82073 0.79245 0.0
H523 H 0.24416 0.76403 0.7953 0.0
H524 H 0.1553 0.70142 0.73057 0.0
C525 C 0.11847 0.58975 0.77714 0.0
C526 C 0.18315 0.66839 0.81217 0.0
C527 C 0.10711 0.557 0.7798 0.0
C528 C 0.23793 0.80412 0.78552 0.0
C529 C 0.22739 0.77147 0.7874 0.0
C530 C 0.16314 0.69265 0.7538 0.0
C531 C 0.14968 0.61203 0.78789 0.0
C532 C 0.16181 0.64718 0.78529 0.0
C533 C 0.19582 0.74876 0.77864 0.0
C534 C 0.18438 0.71379 0.78073 0.0
H535 H 0.17365 0.55971 0.81418 0.0
H536 H 0.19346 0.61647 0.80922 0.0
H537 H 0.13623 0.64472 0.73427 0.0
H538 H 0.1688 0.79971 0.75825 0.0
H539 H 0.1506 0.7432 0.76151 0.0
C540 C 0.41774 0.85162 0.80052 0.0
C541 C 0.42777 0.88373 0.79323 0.0
C542 C 0.43879 0.83989 0.79738 0.0
C543 C 0.51732 0.85912 0.75638 0.0
H544 H 0.51104 0.79491 0.82596 0.0
C545 C 0.61549 0.82517 0.76816 0.0
C546 C 0.60652 0.79304 0.77317 0.0
C547 C 0.59309 0.83521 0.76983 0.0
C548 C 0.51295 0.81257 0.80598 0.0
H549 H 0.46841 0.92863 0.77737 0.0
H550 H 0.50501 0.90841 0.77225 0.0
H551 H 0.47376 0.81442 0.83054 0.0
H552 H 0.56642 0.74634 0.78397 0.0
H553 H 0.52733 0.7639 0.78697 0.0
H554 H 0.55677 0.85753 0.73217 0.0
C555 C 0.48063 0.89199 0.77966 0.0
C556 C 0.49145 0.82381 0.80856 0.0
C557 C 0.45955 0.90369 0.78264 0.0
C558 C 0.57432 0.77125 0.77996 0.0
C559 C 0.55188 0.78138 0.78191 0.0
C560 C 0.53888 0.848 0.75393 0.0
C561 C 0.47065 0.85987 0.78698 0.0
C562 C 0.49333 0.8474 0.7839 0.0
C563 C 0.56092 0.81354 0.77677 0.0
C564 C 0.53716 0.82465 0.77879 0.0
H565 H 0.39339 0.83532 0.80816 0.0
H566 H 0.42985 0.81493 0.80263 0.0
H567 H 0.51931 0.87674 0.73628 0.0
H568 H 0.63998 0.84277 0.7629 0.0
H569 H 0.60115 0.86019 0.76623 0.0
C570 C 0.20862 0.43878 0.77888 0.0
C571 C 0.19824 0.4063 0.7742 0.0
C572 C 0.24111 0.46138 0.78005 0.0
C573 C 0.3208 0.47262 0.75501 0.0
H574 H 0.35215 0.54424 0.8229 0.0
C575 C 0.45516 0.55362 0.78407 0.0
C576 C 0.46729 0.58641 0.789 0.0
C577 C 0.42244 0.53256 0.78143 0.0
C578 C 0.34385 0.52463 0.8034 0.0
H579 H 0.21458 0.37247 0.7674 0.0
H580 H 0.27067 0.41147 0.76992 0.0
H581 H 0.29549 0.5063 0.82003 0.0
H582 H 0.45374 0.62238 0.79503 0.0
H583 H 0.39683 0.5858 0.7898 0.0
H584 H 0.36909 0.49079 0.73849 0.0
C585 C 0.2538 0.41971 0.77203 0.0
C586 C 0.31119 0.50276 0.80173 0.0
C587 C 0.2214 0.39718 0.77083 0.0
C588 C 0.44551 0.59742 0.79093 0.0
C589 C 0.41271 0.5763 0.78838 0.0
C590 C 0.3534 0.49443 0.75671 0.0
C591 C 0.26427 0.45222 0.77656 0.0
C592 C 0.29912 0.47624 0.77768 0.0
C593 C 0.40062 0.54349 0.78362 0.0
C594 C 0.36554 0.5207 0.7811 0.0
H595 H 0.19164 0.44686 0.7815 0.0
H596 H 0.24805 0.48613 0.78314 0.0
H597 H 0.31258 0.453 0.73552 0.0
H598 H 0.47099 0.5441 0.78194 0.0
H599 H 0.41426 0.50753 0.77821 0.0
C600 C 0.18893 0.18603 0.29452 0.0
C601 C 0.19582 0.17815 0.25903 0.0
C602 C 0.16894 0.19901 0.29787 0.0
C603 C 0.10608 0.20498 0.2455 0.0
H604 H 0.12283 0.27293 0.31504 0.0
C605 C 0.03309 0.26654 0.23631 0.0
C606 C 0.02003 0.27005 0.26985 0.0
C607 C 0.05771 0.2597 0.23697 0.0
C608 C 0.11774 0.25382 0.29566 0.0
H609 H 0.18653 0.17759 0.1993 0.0
H610 H 0.15259 0.20064 0.20501 0.0
H611 H 0.15872 0.25123 0.31274 0.0
H612 H 0.02361 0.27087 0.3305 0.0
H613 H 0.06702 0.25886 0.33182 0.0
H614 H 0.06529 0.20732 0.22835 0.0
C615 C 0.16232 0.19658 0.23041 0.0
C616 C 0.13826 0.24131 0.29439 0.0
C617 C 0.18222 0.18369 0.22708 0.0
C618 C 0.03369 0.2689 0.3042 0.0
C619 C 0.05836 0.26176 0.30491 0.0
C620 C 0.08577 0.21747 0.24669 0.0
C621 C 0.15516 0.20424 0.26583 0.0
C622 C 0.13289 0.21696 0.26889 0.0
C623 C 0.06967 0.25568 0.27126 0.0
C624 C 0.09149 0.24236 0.27136 0.0
H625 H 0.19915 0.18237 0.31975 0.0
H626 H 0.16384 0.2044 0.32563 0.0
H627 H 0.10058 0.18567 0.22626 0.0
H628 H 0.02291 0.26717 0.20944 0.0
H629 H 0.06635 0.25603 0.2105 0.0
C630 C 1.00729 0.8581 0.25886 0.0
C631 C 0.99253 0.82499 0.26316 0.0
C632 C 0.04018 0.87727 0.26237 0.0
C633 C 0.11344 0.87974 0.29802 0.0
H634 H 0.15399 0.94759 0.22519 0.0
C635 C 0.24618 0.98185 0.30564 0.0
C636 C 0.26155 0.9945 0.27129 0.0
C637 C 0.21425 0.95755 0.30621 0.0
C638 C 0.14324 0.92857 0.24556 0.0
H639 H 1.00131 0.78638 0.27542 0.0
H640 H 0.05869 0.81987 0.28162 0.0
H641 H 0.09696 0.91341 0.22376 0.0
H642 H 0.25651 0.99024 0.21084 0.0
H643 H 0.20176 0.94722 0.21169 0.0
H644 H 0.16017 0.89501 0.31949 0.0
C645 C 0.04467 0.83101 0.27579 0.0
C646 C 0.1103 0.90917 0.24508 0.0
C647 C 0.01168 0.81176 0.27224 0.0
C648 C 0.2453 0.98078 0.23773 0.0
C649 C 0.21371 0.95644 0.23826 0.0
C650 C 0.14659 0.89934 0.29859 0.0
C651 C 0.05946 0.86401 0.27031 0.0
C652 C 0.09482 0.8845 0.2713 0.0
C653 C 0.19721 0.94549 0.27241 0.0
C654 C 0.16197 0.92396 0.2722 0.0
H655 H 0.9934 0.86932 0.25272 0.0
H656 H 0.05053 0.90263 0.25879 0.0
H657 H 0.10238 0.86114 0.31884 0.0
H658 H 0.25793 0.9925 0.33192 0.0
H659 H 0.20238 0.9498 0.33305 0.0
C660 C 0.83073 1.00076 0.22992 0.0
C661 C 0.83693 0.02037 0.2615 0.0
C662 C 0.81786 0.96803 0.23394 0.0
C663 C 0.77447 0.90023 0.29966 0.0
H664 H 0.80678 0.86016 0.23286 0.0
C665 C 0.74702 0.76776 0.30917 0.0
C666 C 0.74453 0.75284 0.27451 0.0
C667 C 0.75423 0.79961 0.31028 0.0
C668 C 0.79715 0.87083 0.25147 0.0
H669 H 0.83389 0.02042 0.32231 0.0
H670 H 0.81193 0.96317 0.32938 0.0
H671 H 0.82865 0.91711 0.23009 0.0
H672 H 0.74526 0.75858 0.21416 0.0
H673 H 0.75644 0.81312 0.21599 0.0
H674 H 0.74316 0.85345 0.32127 0.0
C675 C 0.81678 0.97324 0.30138 0.0
C676 C 0.80973 0.90362 0.24987 0.0
C677 C 0.82972 0.00615 0.29734 0.0
C678 C 0.74676 0.76936 0.24125 0.0
C679 C 0.75367 0.80082 0.24233 0.0
C680 C 0.76188 0.8672 0.30139 0.0
C681 C 0.81091 0.95375 0.2697 0.0
C682 C 0.79827 0.91882 0.27343 0.0
C683 C 0.75907 0.81689 0.27674 0.0
C684 C 0.77272 0.85205 0.27678 0.0
H685 H 0.8363 0.01073 0.20189 0.0
H686 H 0.81327 0.95386 0.2088 0.0
H687 H 0.76498 0.91107 0.3182 0.0
H688 H 0.74609 0.75577 0.33522 0.0
H689 H 0.7582 0.81128 0.33726 0.0
C690 C 0.19469 0.18766 0.79192 0.0
C691 C 0.18547 0.19275 0.75625 0.0
C692 C 0.20993 0.16977 0.79588 0.0
C693 C 0.25358 0.13809 0.7412 0.0
H694 H 0.22739 0.07617 0.82146 0.0
C695 C 0.26782 0.02778 0.73415 0.0
C696 C 0.27354 0.01551 0.76711 0.0
C697 C 0.26397 0.05435 0.73541 0.0
C698 C 0.23549 0.09375 0.79929 0.0
H699 H 0.18611 0.18364 0.6967 0.0
H700 H 0.21186 0.15214 0.7036 0.0
H701 H 0.20649 0.11244 0.81884 0.0
H702 H 0.28083 0.02213 0.82716 0.0
H703 H 0.27413 0.06893 0.82952 0.0
H704 H 0.2818 0.11873 0.721 0.0
C705 C 0.20763 0.16213 0.72861 0.0
C706 C 0.22342 0.11457 0.79773 0.0
C707 C 0.1924 0.1799 0.72468 0.0
C708 C 0.27702 0.03143 0.80123 0.0
C709 C 0.2727 0.05792 0.80261 0.0
C710 C 0.26555 0.11725 0.7427 0.0
C711 C 0.21653 0.15665 0.76426 0.0
C712 C 0.23175 0.13658 0.76817 0.0
C713 C 0.26528 0.06919 0.7698 0.0
C714 C 0.25615 0.09431 0.77129 0.0
H715 H 0.1896 0.19699 0.81692 0.0
H716 H 0.21662 0.16632 0.82376 0.0
H717 H 0.26117 0.15517 0.71851 0.0
H718 H 0.26467 0.01576 0.70751 0.0
H719 H 0.25799 0.06203 0.70963 0.0
C720 C 1.00614 0.82414 0.79394 0.0
C721 C 0.01991 0.83137 0.75791 0.0
C722 C 0.97313 0.809 0.79835 0.0
C723 C 0.89723 0.76194 0.74565 0.0
H724 H 0.86227 0.79215 0.8223 0.0
C725 C 0.77256 0.74665 0.73617 0.0
C726 C 0.75478 0.74208 0.76898 0.0
C727 C 0.80311 0.75098 0.73802 0.0
C728 C 0.87156 0.78296 0.80119 0.0
H729 H 0.0093 0.82727 0.69827 0.0
H730 H 0.95223 0.8017 0.70591 0.0
H731 H 0.91939 0.81325 0.81943 0.0
H732 H 0.75466 0.73748 0.82948 0.0
H733 H 0.80848 0.74515 0.83288 0.0
H734 H 0.84951 0.73243 0.72667 0.0
C735 C 0.9668 0.80742 0.73087 0.0
C736 C 0.9044 0.79512 0.79949 0.0
C737 C 0.9997 0.82256 0.72648 0.0
C738 C 0.76764 0.74039 0.80369 0.0
C739 C 0.79859 0.74523 0.80564 0.0
C740 C 0.86448 0.74989 0.74728 0.0
C741 C 0.95297 0.8005 0.76685 0.0
C742 C 0.91778 0.78531 0.77114 0.0
C743 C 0.81698 0.75134 0.77283 0.0
C744 C 0.85123 0.76073 0.77455 0.0
H745 H 0.0209 0.83073 0.81882 0.0
H746 H 0.96341 0.80385 0.82649 0.0
H747 H 0.9065 0.75319 0.72398 0.0
H748 H 0.76335 0.74838 0.70907 0.0
H749 H 0.81655 0.75593 0.71223 0.0
C750 C 0.98772 0.24313 0.72994 0.0
C751 C 0.99937 0.25948 0.76397 0.0
C752 C 0.96287 0.21178 0.72957 0.0
C753 C 0.90011 0.14596 0.78611 0.0
H754 H 0.91845 0.09454 0.71886 0.0
C755 C 0.82852 0.00713 0.78596 0.0
C756 C 0.82238 0.99199 0.75072 0.0
C757 C 0.8485 0.0401 0.78907 0.0
C758 C 0.9126 0.10846 0.73746 0.0
H759 H 0.99301 0.25639 0.82429 0.0
H760 H 0.94925 0.20124 0.82381 0.0
H761 H 0.95401 0.15138 0.7213 0.0
H762 H 0.83304 1.0001 0.6912 0.0
H763 H 0.86699 0.05711 0.69648 0.0
H764 H 0.85859 0.10261 0.80231 0.0
C765 C 0.95917 0.21286 0.79728 0.0
C766 C 0.93307 0.14123 0.73885 0.0
C767 C 0.98406 0.24455 0.79759 0.0
C768 C 0.83676 0.01079 0.71878 0.0
C769 C 0.85666 0.0436 0.72188 0.0
C770 C 0.87946 0.11298 0.78467 0.0
C771 C 0.94923 0.19567 0.76332 0.0
C772 C 0.92701 0.16057 0.76282 0.0
C773 C 0.86304 0.05879 0.75706 0.0
C774 C 0.88528 0.09381 0.75999 0.0
H775 H 0.99918 0.25402 0.70361 0.0
H776 H 0.95531 0.19967 0.70282 0.0
H777 H 0.89467 0.16007 0.80491 0.0
H778 H 0.81769 0.99355 0.81117 0.0
H779 H 0.85299 0.05085 0.81667 0.0
loop_
_geom_bond_atom_site_label_1
_geom_bond_atom_site_label_2
_geom_bond_distance
_geom_bond_site_symmetry_2
_ccdc_geom_bond_type
Pr0 C2 2.880 . S
Pr0 O20 2.562 . S
Pr0 O21 2.490 . S
Pr0 O22 2.695 . S
Pr0 O23 2.512 . S
Pr0 O25 2.437 . S
Pr0 O28 2.436 . S
Pr0 O30 2.438 . S
Pr1 C11 2.880 . S
Pr1 O22 2.436 . S
Pr1 O24 2.438 . S
Pr1 O26 2.562 . S
Pr1 O27 2.490 . S
Pr1 O28 2.695 . S
Pr1 O29 2.512 . S
Pr1 O31 2.437 . S
C2 Pr0 2.880 . S
C2 C3 1.491 . S
C2 O20 1.254 . S
C2 O21 1.225 . S
C3 C2 1.491 . S
C3 C4 1.392 . S
C3 C8 1.356 . S
C4 C3 1.392 . S
C4 C5 1.368 . S
C4 H32 0.929 . S
C5 C4 1.368 . S
C5 C6 1.386 . S
C5 H33 0.929 . S
C6 C5 1.386 . S
C6 C7 1.373 . S
C7 C6 1.373 . S
C7 C8 1.409 . S
C7 H34 0.931 . S
C8 C3 1.356 . S
C8 C7 1.409 . S
C8 H35 0.930 . S
C9 O22 1.270 . S
C9 O23 1.248 . S
C10 O24 1.267 . S
C10 O25 1.278 . S
C11 Pr1 2.880 . S
C11 C12 1.491 . S
C11 O26 1.254 . S
C11 O27 1.225 . S
C12 C11 1.491 . S
C12 C13 1.392 . S
C12 C17 1.356 . S
C13 C12 1.392 . S
C13 C14 1.368 . S
C13 H36 0.929 . S
C14 C13 1.368 . S
C14 C15 1.386 . S
C14 H37 0.929 . S
C15 C14 1.386 . S
C15 C16 1.373 . S
C16 C15 1.373 . S
C16 C17 1.409 . S
C16 H38 0.931 . S
C17 C12 1.356 . S
C17 C16 1.409 . S
C17 H39 0.930 . S
C18 O28 1.270 . S
C18 O29 1.248 . S
C19 O30 1.267 . S
C19 O31 1.278 . S
O20 Pr0 2.562 . S
O20 C2 1.254 . S
O21 Pr0 2.490 . S
O21 C2 1.225 . S
O22 Pr0 2.695 . S
O22 Pr1 2.436 . S
O22 C9 1.270 . S
O23 Pr0 2.512 . S
O23 C9 1.248 . S
O24 Pr1 2.438 . S
O24 C10 1.267 . S
O25 Pr0 2.437 . S
O25 C10 1.278 . S
O26 Pr1 2.562 . S
O26 C11 1.254 . S
O27 Pr1 2.490 . S
O27 C11 1.225 . S
O28 Pr0 2.436 . S
O28 Pr1 2.695 . S
O28 C18 1.270 . S
O29 Pr1 2.512 . S
O29 C18 1.248 . S
O30 Pr0 2.438 . S
O30 C19 1.267 . S
O31 Pr1 2.437 . S
O31 C19 1.278 . S
H32 C4 0.929 . S
H33 C5 0.929 . S
H34 C7 0.931 . S
H35 C8 0.930 . S
H36 C13 0.929 . S
H37 C14 0.929 . S
H38 C16 0.931 . S
H39 C17 0.930 . S
Pr40 C42 2.880 . S
Pr40 O60 2.562 . S
Pr40 O61 2.490 . S
Pr40 O62 2.695 . S
Pr40 O63 2.512 . S
Pr40 O65 2.437 . S
Pr40 O68 2.436 . S
Pr40 O70 2.438 . S
Pr41 C51 2.880 . S
Pr41 O62 2.436 . S
Pr41 O64 2.438 . S
Pr41 O66 2.562 . S
Pr41 O67 2.490 . S
Pr41 O68 2.695 . S
Pr41 O69 2.512 . S
Pr41 O71 2.437 . S
C42 Pr40 2.880 . S
C42 C43 1.491 . S
C42 O60 1.254 . S
C42 O61 1.225 . S
C43 C42 1.491 . S
C43 C44 1.392 . S
C43 C48 1.356 . S
C44 C43 1.392 . S
C44 C45 1.368 . S
C44 H72 0.929 . S
C45 C44 1.368 . S
C45 C46 1.386 . S
C45 H73 0.929 . S
C46 C45 1.386 . S
C46 C47 1.373 . S
C47 C46 1.373 . S
C47 C48 1.409 . S
C47 H74 0.931 . S
C48 C43 1.356 . S
C48 C47 1.409 . S
C48 H75 0.930 . S
C49 O62 1.270 . S
C49 O63 1.248 . S
C50 O64 1.267 . S
C50 O65 1.278 . S
C51 Pr41 2.880 . S
C51 C52 1.491 . S
C51 O66 1.254 . S
C51 O67 1.225 . S
C52 C51 1.491 . S
C52 C53 1.392 . S
C52 C57 1.356 . S
C53 C52 1.392 . S
C53 C54 1.368 . S
C53 H76 0.929 . S
C54 C53 1.368 . S
C54 C55 1.386 . S
C54 H77 0.929 . S
C55 C54 1.386 . S
C55 C56 1.373 . S
C56 C55 1.373 . S
C56 C57 1.409 . S
C56 H78 0.931 . S
C57 C52 1.356 . S
C57 C56 1.409 . S
C57 H79 0.930 . S
C58 O68 1.270 . S
C58 O69 1.248 . S
C59 O70 1.267 . S
C59 O71 1.278 . S
O60 Pr40 2.562 . S
O60 C42 1.254 . S
O61 Pr40 2.490 . S
O61 C42 1.225 . S
O62 Pr40 2.695 . S
O62 Pr41 2.436 . S
O62 C49 1.270 . S
O63 Pr40 2.512 . S
O63 C49 1.248 . S
O64 Pr41 2.438 . S
O64 C50 1.267 . S
O65 Pr40 2.437 . S
O65 C50 1.278 . S
O66 Pr41 2.562 . S
O66 C51 1.254 . S
O67 Pr41 2.490 . S
O67 C51 1.225 . S
O68 Pr40 2.436 . S
O68 Pr41 2.695 . S
O68 C58 1.270 . S
O69 Pr41 2.512 . S
O69 C58 1.248 . S
O70 Pr40 2.438 . S
O70 C59 1.267 . S
O71 Pr41 2.437 . S
O71 C59 1.278 . S
H72 C44 0.929 . S
H73 C45 0.929 . S
H74 C47 0.931 . S
H75 C48 0.930 . S
H76 C53 0.929 . S
H77 C54 0.929 . S
H78 C56 0.931 . S
H79 C57 0.930 . S
Pr80 C82 2.880 . S
Pr80 O100 2.562 . S
Pr80 O101 2.490 . S
Pr80 O102 2.695 . S
Pr80 O103 2.512 . S
Pr80 O105 2.437 . S
Pr80 O108 2.436 . S
Pr80 O110 2.438 . S
Pr81 C91 2.880 . S
Pr81 O102 2.436 . S
Pr81 O104 2.438 . S
Pr81 O106 2.562 . S
Pr81 O107 2.490 . S
Pr81 O108 2.695 . S
Pr81 O109 2.512 . S
Pr81 O111 2.437 . S
C82 Pr80 2.880 . S
C82 C83 1.491 . S
C82 O100 1.254 . S
C82 O101 1.225 . S
C83 C82 1.491 . S
C83 C84 1.392 . S
C83 C88 1.356 . S
C84 C83 1.392 . S
C84 C85 1.368 . S
C84 H112 0.929 . S
C85 C84 1.368 . S
C85 C86 1.386 . S
C85 H113 0.929 . S
C86 C85 1.386 . S
C86 C87 1.373 . S
C87 C86 1.373 . S
C87 C88 1.409 . S
C87 H114 0.931 . S
C88 C83 1.356 . S
C88 C87 1.409 . S
C88 H115 0.930 . S
C89 O102 1.270 . S
C89 O103 1.248 . S
C90 O104 1.267 . S
C90 O105 1.278 . S
C91 Pr81 2.880 . S
C91 C92 1.491 . S
C91 O106 1.254 . S
C91 O107 1.225 . S
C92 C91 1.491 . S
C92 C93 1.392 . S
C92 C97 1.356 . S
C93 C92 1.392 . S
C93 C94 1.368 . S
C93 H116 0.929 . S
C94 C93 1.368 . S
C94 C95 1.386 . S
C94 H117 0.929 . S
C95 C94 1.386 . S
C95 C96 1.373 . S
C96 C95 1.373 . S
C96 C97 1.409 . S
C96 H118 0.931 . S
C97 C92 1.356 . S
C97 C96 1.409 . S
C97 H119 0.930 . S
C98 O108 1.270 . S
C98 O109 1.248 . S
C99 O110 1.267 . S
C99 O111 1.278 . S
O100 Pr80 2.562 . S
O100 C82 1.254 . S
O101 Pr80 2.490 . S
O101 C82 1.225 . S
O102 Pr80 2.695 . S
O102 Pr81 2.436 . S
O102 C89 1.270 . S
O103 Pr80 2.512 . S
O103 C89 1.248 . S
O104 Pr81 2.438 . S
O104 C90 1.267 . S
O105 Pr80 2.437 . S
O105 C90 1.278 . S
O106 Pr81 2.562 . S
O106 C91 1.254 . S
O107 Pr81 2.490 . S
O107 C91 1.225 . S
O108 Pr80 2.436 . S
O108 Pr81 2.695 . S
O108 C98 1.270 . S
O109 Pr81 2.512 . S
O109 C98 1.248 . S
O110 Pr80 2.438 . S
O110 C99 1.267 . S
O111 Pr81 2.437 . S
O111 C99 1.278 . S
H112 C84 0.929 . S
H113 C85 0.929 . S
H114 C87 0.931 . S
H115 C88 0.930 . S
H116 C93 0.929 . S
H117 C94 0.929 . S
H118 C96 0.931 . S
H119 C97 0.930 . S
Pr120 C122 2.880 . S
Pr120 O140 2.562 . S
Pr120 O141 2.490 . S
Pr120 O142 2.695 . S
Pr120 O143 2.512 . S
Pr120 O145 2.437 . S
Pr120 O148 2.436 . S
Pr120 O150 2.438 . S
Pr121 C131 2.880 . S
Pr121 O142 2.436 . S
Pr121 O144 2.438 . S
Pr121 O146 2.562 . S
Pr121 O147 2.490 . S
Pr121 O148 2.695 . S
Pr121 O149 2.512 . S
Pr121 O151 2.437 . S
C122 Pr120 2.880 . S
C122 C123 1.491 . S
C122 O140 1.254 . S
C122 O141 1.225 . S
C123 C122 1.491 . S
C123 C124 1.392 . S
C123 C128 1.356 . S
C124 C123 1.392 . S
C124 C125 1.368 . S
C124 H152 0.929 . S
C125 C124 1.368 . S
C125 C126 1.386 . S
C125 H153 0.929 . S
C126 C125 1.386 . S
C126 C127 1.373 . S
C127 C126 1.373 . S
C127 C128 1.409 . S
C127 H154 0.931 . S
C128 C123 1.356 . S
C128 C127 1.409 . S
C128 H155 0.930 . S
C129 O142 1.270 . S
C129 O143 1.248 . S
C130 O144 1.267 . S
C130 O145 1.278 . S
C131 Pr121 2.880 . S
C131 C132 1.491 . S
C131 O146 1.254 . S
C131 O147 1.225 . S
C132 C131 1.491 . S
C132 C133 1.392 . S
C132 C137 1.356 . S
C133 C132 1.392 . S
C133 C134 1.368 . S
C133 H156 0.929 . S
C134 C133 1.368 . S
C134 C135 1.386 . S
C134 H157 0.929 . S
C135 C134 1.386 . S
C135 C136 1.373 . S
C136 C135 1.373 . S
C136 C137 1.409 . S
C136 H158 0.931 . S
C137 C132 1.356 . S
C137 C136 1.409 . S
C137 H159 0.930 . S
C138 O148 1.270 . S
C138 O149 1.248 . S
C139 O150 1.267 . S
C139 O151 1.278 . S
O140 Pr120 2.562 . S
O140 C122 1.254 . S
O141 Pr120 2.490 . S
O141 C122 1.225 . S
O142 Pr120 2.695 . S
O142 Pr121 2.436 . S
O142 C129 1.270 . S
O143 Pr120 2.512 . S
O143 C129 1.248 . S
O144 Pr121 2.438 . S
O144 C130 1.267 . S
O145 Pr120 2.437 . S
O145 C130 1.278 . S
O146 Pr121 2.562 . S
O146 C131 1.254 . S
O147 Pr121 2.490 . S
O147 C131 1.225 . S
O148 Pr120 2.436 . S
O148 Pr121 2.695 . S
O148 C138 1.270 . S
O149 Pr121 2.512 . S
O149 C138 1.248 . S
O150 Pr120 2.438 . S
O150 C139 1.267 . S
O151 Pr121 2.437 . S
O151 C139 1.278 . S
H152 C124 0.929 . S
H153 C125 0.929 . S
H154 C127 0.931 . S
H155 C128 0.930 . S
H156 C133 0.929 . S
H157 C134 0.929 . S
H158 C136 0.931 . S
H159 C137 0.930 . S
Pr160 C162 2.880 . S
Pr160 O180 2.562 . S
Pr160 O181 2.490 . S
Pr160 O182 2.695 . S
Pr160 O183 2.512 . S
Pr160 O185 2.437 . S
Pr160 O188 2.436 . S
Pr160 O190 2.438 . S
Pr161 C171 2.880 . S
Pr161 O182 2.436 . S
Pr161 O184 2.438 . S
Pr161 O186 2.562 . S
Pr161 O187 2.490 . S
Pr161 O188 2.695 . S
Pr161 O189 2.512 . S
Pr161 O191 2.437 . S
C162 Pr160 2.880 . S
C162 C163 1.491 . S
C162 O180 1.254 . S
C162 O181 1.225 . S
C163 C162 1.491 . S
C163 C164 1.392 . S
C163 C168 1.356 . S
C164 C163 1.392 . S
C164 C165 1.368 . S
C164 H192 0.929 . S
C165 C164 1.368 . S
C165 C166 1.386 . S
C165 H193 0.929 . S
C166 C165 1.386 . S
C166 C167 1.373 . S
C167 C166 1.373 . S
C167 C168 1.409 . S
C167 H194 0.931 . S
C168 C163 1.356 . S
C168 C167 1.409 . S
C168 H195 0.930 . S
C169 O182 1.270 . S
C169 O183 1.248 . S
C170 O184 1.267 . S
C170 O185 1.278 . S
C171 Pr161 2.880 . S
C171 C172 1.491 . S
C171 O186 1.254 . S
C171 O187 1.225 . S
C172 C171 1.491 . S
C172 C173 1.392 . S
C172 C177 1.356 . S
C173 C172 1.392 . S
C173 C174 1.368 . S
C173 H196 0.929 . S
C174 C173 1.368 . S
C174 C175 1.386 . S
C174 H197 0.929 . S
C175 C174 1.386 . S
C175 C176 1.373 . S
C176 C175 1.373 . S
C176 C177 1.409 . S
C176 H198 0.931 . S
C177 C172 1.356 . S
C177 C176 1.409 . S
C177 H199 0.930 . S
C178 O188 1.270 . S
C178 O189 1.248 . S
C179 O190 1.267 . S
C179 O191 1.278 . S
O180 Pr160 2.562 . S
O180 C162 1.254 . S
O181 Pr160 2.490 . S
O181 C162 1.225 . S
O182 Pr160 2.695 . S
O182 Pr161 2.436 . S
O182 C169 1.270 . S
O183 Pr160 2.512 . S
O183 C169 1.248 . S
O184 Pr161 2.438 . S
O184 C170 1.267 . S
O185 Pr160 2.437 . S
O185 C170 1.278 . S
O186 Pr161 2.562 . S
O186 C171 1.254 . S
O187 Pr161 2.490 . S
O187 C171 1.225 . S
O188 Pr160 2.436 . S
O188 Pr161 2.695 . S
O188 C178 1.270 . S
O189 Pr161 2.512 . S
O189 C178 1.248 . S
O190 Pr160 2.438 . S
O190 C179 1.267 . S
O191 Pr161 2.437 . S
O191 C179 1.278 . S
H192 C164 0.929 . S
H193 C165 0.929 . S
H194 C167 0.931 . S
H195 C168 0.930 . S
H196 C173 0.929 . S
H197 C174 0.929 . S
H198 C176 0.931 . S
H199 C177 0.930 . S
Pr200 C202 2.880 . S
Pr200 O220 2.562 . S
Pr200 O221 2.490 . S
Pr200 O222 2.695 . S
Pr200 O223 2.512 . S
Pr200 O225 2.437 . S
Pr200 O228 2.436 . S
Pr200 O230 2.438 . S
Pr201 C211 2.880 . S
Pr201 O222 2.436 . S
Pr201 O224 2.438 . S
Pr201 O226 2.562 . S
Pr201 O227 2.490 . S
Pr201 O228 2.695 . S
Pr201 O229 2.512 . S
Pr201 O231 2.437 . S
C202 Pr200 2.880 . S
C202 C203 1.491 . S
C202 O220 1.254 . S
C202 O221 1.225 . S
C203 C202 1.491 . S
C203 C204 1.392 . S
C203 C208 1.356 . S
C204 C203 1.392 . S
C204 C205 1.368 . S
C204 H232 0.929 . S
C205 C204 1.368 . S
C205 C206 1.386 . S
C205 H233 0.929 . S
C206 C205 1.386 . S
C206 C207 1.373 . S
C207 C206 1.373 . S
C207 C208 1.409 . S
C207 H234 0.931 . S
C208 C203 1.356 . S
C208 C207 1.409 . S
C208 H235 0.930 . S
C209 O222 1.270 . S
C209 O223 1.248 . S
C210 O224 1.267 . S
C210 O225 1.278 . S
C211 Pr201 2.880 . S
C211 C212 1.491 . S
C211 O226 1.254 . S
C211 O227 1.225 . S
C212 C211 1.491 . S
C212 C213 1.392 . S
C212 C217 1.356 . S
C213 C212 1.392 . S
C213 C214 1.368 . S
C213 H236 0.929 . S
C214 C213 1.368 . S
C214 C215 1.386 . S
C214 H237 0.929 . S
C215 C214 1.386 . S
C215 C216 1.373 . S
C216 C215 1.373 . S
C216 C217 1.409 . S
C216 H238 0.931 . S
C217 C212 1.356 . S
C217 C216 1.409 . S
C217 H239 0.930 . S
C218 O228 1.270 . S
C218 O229 1.248 . S
C219 O230 1.267 . S
C219 O231 1.278 . S
O220 Pr200 2.562 . S
O220 C202 1.254 . S
O221 Pr200 2.490 . S
O221 C202 1.225 . S
O222 Pr200 2.695 . S
O222 Pr201 2.436 . S
O222 C209 1.270 . S
O223 Pr200 2.512 . S
O223 C209 1.248 . S
O224 Pr201 2.438 . S
O224 C210 1.267 . S
O225 Pr200 2.437 . S
O225 C210 1.278 . S
O226 Pr201 2.562 . S
O226 C211 1.254 . S
O227 Pr201 2.490 . S
O227 C211 1.225 . S
O228 Pr200 2.436 . S
O228 Pr201 2.695 . S
O228 C218 1.270 . S
O229 Pr201 2.512 . S
O229 C218 1.248 . S
O230 Pr200 2.438 . S
O230 C219 1.267 . S
O231 Pr201 2.437 . S
O231 C219 1.278 . S
H232 C204 0.929 . S
H233 C205 0.929 . S
H234 C207 0.931 . S
H235 C208 0.930 . S
H236 C213 0.929 . S
H237 C214 0.929 . S
H238 C216 0.931 . S
H239 C217 0.930 . S
C240 C241 1.349 . S
C240 C242 1.327 . S
C240 H265 0.950 . S
C241 C240 1.349 . S
C241 C257 1.349 . S
C242 C240 1.327 . S
C242 C261 1.429 . S
C242 H266 0.950 . S
C243 C260 1.574 . S
C243 C262 1.368 1_554 S
C243 H267 0.949 . S
H244 C248 0.949 . S
C245 C246 1.349 . S
C245 C247 1.327 . S
C245 H268 0.950 . S
C246 C245 1.349 . S
C246 C258 1.349 . S
C247 C245 1.327 . S
C247 C263 1.429 . S
C247 H269 0.950 . S
C248 H244 0.949 . S
C248 C256 1.574 . S
C248 C264 1.368 1_556 S
H249 C257 0.950 . S
H250 C255 0.950 . S
H251 C256 0.949 . S
H252 C258 0.950 . S
H253 C259 0.950 . S
H254 C260 0.949 . S
C255 H250 0.950 . S
C255 C257 1.327 . S
C255 C261 1.429 . S
C256 C248 1.574 . S
C256 H251 0.949 . S
C256 C262 1.368 1_545 S
C257 C241 1.349 . S
C257 H249 0.950 . S
C257 C255 1.327 . S
C258 C246 1.349 . S
C258 H252 0.950 . S
C258 C259 1.327 . S
C259 H253 0.950 . S
C259 C258 1.327 . S
C259 C263 1.429 . S
C260 C243 1.574 . S
C260 H254 0.949 . S
C260 C264 1.368 1_565 S
C261 C242 1.429 . S
C261 C255 1.429 . S
C261 C262 1.523 . S
C262 C243 1.368 1_556 S
C262 C256 1.368 1_565 S
C262 C261 1.523 . S
C263 C247 1.429 . S
C263 C259 1.429 . S
C263 C264 1.523 . S
C264 C248 1.368 1_554 S
C264 C260 1.368 1_545 S
C264 C263 1.523 . S
H265 C240 0.950 . S
H266 C242 0.950 . S
H267 C243 0.949 . S
H268 C245 0.950 . S
H269 C247 0.950 . S
C270 C271 1.349 . S
C270 C272 1.327 . S
C270 H295 0.950 . S
C271 C270 1.349 . S
C271 C287 1.349 . S
C272 C270 1.327 . S
C272 C291 1.429 . S
C272 H296 0.950 . S
C273 C290 1.574 . S
C273 C292 1.368 . S
C273 H297 0.949 . S
H274 C278 0.949 . S
C275 C276 1.349 . S
C275 C277 1.327 . S
C275 H298 0.950 . S
C276 C275 1.349 . S
C276 C288 1.349 . S
C277 C275 1.327 . S
C277 C293 1.429 . S
C277 H299 0.950 . S
C278 H274 0.949 . S
C278 C286 1.574 . S
C278 C294 1.368 . S
H279 C287 0.950 . S
H280 C285 0.950 . S
H281 C286 0.949 . S
H282 C288 0.950 . S
H283 C289 0.950 . S
H284 C290 0.949 . S
C285 H280 0.950 . S
C285 C287 1.327 . S
C285 C291 1.429 . S
C286 C278 1.574 . S
C286 H281 0.949 . S
C286 C292 1.368 . S
C287 C271 1.349 . S
C287 H279 0.950 . S
C287 C285 1.327 . S
C288 C276 1.349 . S
C288 H282 0.950 . S
C288 C289 1.327 . S
C289 H283 0.950 . S
C289 C288 1.327 . S
C289 C293 1.429 . S
C290 C273 1.574 . S
C290 H284 0.949 . S
C290 C294 1.368 . S
C291 C272 1.429 . S
C291 C285 1.429 . S
C291 C292 1.523 . S
C292 C273 1.368 . S
C292 C286 1.368 . S
C292 C291 1.523 . S
C293 C277 1.429 . S
C293 C289 1.429 . S
C293 C294 1.523 . S
C294 C278 1.368 . S
C294 C290 1.368 . S
C294 C293 1.523 . S
H295 C270 0.950 . S
H296 C272 0.950 . S
H297 C273 0.949 . S
H298 C275 0.950 . S
H299 C277 0.950 . S
C300 C301 1.349 . S
C300 C302 1.327 . S
C300 H325 0.950 . S
C301 C300 1.349 . S
C301 C317 1.349 . S
C302 C300 1.327 . S
C302 C321 1.429 . S
C302 H326 0.950 . S
C303 C320 1.574 . S
C303 C322 1.368 1_455 S
C303 H327 0.949 . S
H304 C308 0.949 . S
C305 C306 1.349 . S
C305 C307 1.327 . S
C305 H328 0.950 . S
C306 C305 1.349 . S
C306 C318 1.349 . S
C307 C305 1.327 . S
C307 C323 1.429 . S
C307 H329 0.950 . S
C308 H304 0.949 . S
C308 C316 1.574 . S
C308 C324 1.368 1_655 S
H309 C317 0.950 . S
H310 C315 0.950 . S
H311 C316 0.949 . S
H312 C318 0.950 . S
H313 C319 0.950 . S
H314 C320 0.949 . S
C315 H310 0.950 . S
C315 C317 1.327 . S
C315 C321 1.429 . S
C316 C308 1.574 . S
C316 H311 0.949 . S
C316 C322 1.368 1_556 S
C317 C301 1.349 . S
C317 H309 0.950 . S
C317 C315 1.327 . S
C318 C306 1.349 . S
C318 H312 0.950 . S
C318 C319 1.327 . S
C319 H313 0.950 . S
C319 C318 1.327 . S
C319 C323 1.429 . S
C320 C303 1.574 . S
C320 H314 0.949 . S
C320 C324 1.368 1_554 S
C321 C302 1.429 . S
C321 C315 1.429 . S
C321 C322 1.523 . S
C322 C303 1.368 1_655 S
C322 C316 1.368 1_554 S
C322 C321 1.523 . S
C323 C307 1.429 . S
C323 C319 1.429 . S
C323 C324 1.523 . S
C324 C308 1.368 1_455 S
C324 C320 1.368 1_556 S
C324 C323 1.523 . S
H325 C300 0.950 . S
H326 C302 0.950 . S
H327 C303 0.949 . S
H328 C305 0.950 . S
H329 C307 0.950 . S
C330 C331 1.349 . S
C330 C332 1.327 . S
C330 H355 0.950 . S
C331 C330 1.349 . S
C331 C347 1.349 . S
C332 C330 1.327 . S
C332 C351 1.429 . S
C332 H356 0.950 . S
C333 C350 1.574 . S
C333 C352 1.368 1_565 S
C333 H357 0.949 . S
H334 C338 0.949 . S
C335 C336 1.349 . S
C335 C337 1.327 . S
C335 H358 0.950 . S
C336 C335 1.349 . S
C336 C348 1.349 . S
C337 C335 1.327 . S
C337 C353 1.429 . S
C337 H359 0.950 . S
C338 H334 0.949 . S
C338 C346 1.574 . S
C338 C354 1.368 1_545 S
H339 C347 0.950 . S
H340 C345 0.950 . S
H341 C346 0.949 . S
H342 C348 0.950 . S
H343 C349 0.950 . S
H344 C350 0.949 . S
C345 H340 0.950 . S
C345 C347 1.327 . S
C345 C351 1.429 . S
C346 C338 1.574 . S
C346 H341 0.949 . S
C346 C352 1.368 . S
C347 C331 1.349 . S
C347 H339 0.950 . S
C347 C345 1.327 . S
C348 C336 1.349 . S
C348 H342 0.950 . S
C348 C349 1.327 . S
C349 H343 0.950 . S
C349 C348 1.327 . S
C349 C353 1.429 . S
C350 C333 1.574 . S
C350 H344 0.949 . S
C350 C354 1.368 . S
C351 C332 1.429 . S
C351 C345 1.429 . S
C351 C352 1.523 . S
C352 C333 1.368 1_545 S
C352 C346 1.368 . S
C352 C351 1.523 . S
C353 C337 1.429 . S
C353 C349 1.429 . S
C353 C354 1.523 . S
C354 C338 1.368 1_565 S
C354 C350 1.368 . S
C354 C353 1.523 . S
H355 C330 0.950 . S
H356 C332 0.950 . S
H357 C333 0.949 . S
H358 C335 0.950 . S
H359 C337 0.950 . S
C360 C361 1.349 . S
C360 C362 1.327 . S
C360 H385 0.950 . S
C361 C360 1.349 . S
C361 C377 1.349 . S
C362 C360 1.327 . S
C362 C381 1.429 . S
C362 H386 0.950 . S
C363 C380 1.576 1_556 S
C363 C382 1.368 . S
C363 H387 0.949 . S
H364 C368 0.949 . S
C365 C366 1.349 . S
C365 C367 1.327 . S
C365 H388 0.950 . S
C366 C365 1.349 . S
C366 C378 1.349 . S
C367 C365 1.327 . S
C367 C383 1.429 . S
C367 H389 0.950 . S
C368 H364 0.949 . S
C368 C376 1.576 1_554 S
C368 C384 1.368 . S
H369 C377 0.950 . S
H370 C375 0.950 . S
H371 C376 0.949 . S
H372 C378 0.950 . S
H373 C379 0.950 . S
H374 C380 0.949 . S
C375 H370 0.950 . S
C375 C377 1.327 . S
C375 C381 1.429 . S
C376 C368 1.576 1_556 S
C376 H371 0.949 . S
C376 C382 1.366 . S
C377 C361 1.349 . S
C377 H369 0.950 . S
C377 C375 1.327 . S
C378 C366 1.349 . S
C378 H372 0.950 . S
C378 C379 1.327 . S
C379 H373 0.950 . S
C379 C378 1.327 . S
C379 C383 1.429 . S
C380 C363 1.576 1_554 S
C380 H374 0.949 . S
C380 C384 1.366 . S
C381 C362 1.429 . S
C381 C375 1.429 . S
C381 C382 1.523 . S
C382 C363 1.368 . S
C382 C376 1.366 . S
C382 C381 1.523 . S
C383 C367 1.429 . S
C383 C379 1.429 . S
C383 C384 1.523 . S
C384 C368 1.368 . S
C384 C380 1.366 . S
C384 C383 1.523 . S
H385 C360 0.950 . S
H386 C362 0.950 . S
H387 C363 0.949 . S
H388 C365 0.950 . S
H389 C367 0.950 . S
C390 C391 1.349 . S
C390 C392 1.327 . S
C390 H415 0.950 . S
C391 C390 1.349 . S
C391 C407 1.349 . S
C392 C390 1.327 . S
C392 C411 1.429 . S
C392 H416 0.950 . S
C393 C410 1.574 1_655 S
C393 C412 1.368 . S
C393 H417 0.949 . S
H394 C398 0.949 . S
C395 C396 1.349 . S
C395 C397 1.327 . S
C395 H418 0.950 . S
C396 C395 1.349 . S
C396 C408 1.349 . S
C397 C395 1.327 . S
C397 C413 1.429 . S
C397 H419 0.950 . S
C398 H394 0.949 . S
C398 C406 1.574 1_455 S
C398 C414 1.368 . S
H399 C407 0.950 . S
H400 C405 0.950 . S
H401 C406 0.949 . S
H402 C408 0.950 . S
H403 C409 0.950 . S
H404 C410 0.949 . S
C405 H400 0.950 . S
C405 C407 1.327 . S
C405 C411 1.429 . S
C406 C398 1.574 1_655 S
C406 H401 0.949 . S
C406 C412 1.368 . S
C407 C391 1.349 . S
C407 H399 0.950 . S
C407 C405 1.327 . S
C408 C396 1.349 . S
C408 H402 0.950 . S
C408 C409 1.327 . S
C409 H403 0.950 . S
C409 C408 1.327 . S
C409 C413 1.429 . S
C410 C393 1.574 1_455 S
C410 H404 0.949 . S
C410 C414 1.368 . S
C411 C392 1.429 . S
C411 C405 1.429 . S
C411 C412 1.523 . S
C412 C393 1.368 . S
C412 C406 1.368 . S
C412 C411 1.523 . S
C413 C397 1.429 . S
C413 C409 1.429 . S
C413 C414 1.523 . S
C414 C398 1.368 . S
C414 C410 1.368 . S
C414 C413 1.523 . S
H415 C390 0.950 . S
H416 C392 0.950 . S
H417 C393 0.949 . S
H418 C395 0.950 . S
H419 C397 0.950 . S
C420 C421 1.349 . S
C420 C422 1.327 . S
C420 H445 0.950 . S
C421 C420 1.349 . S
C421 C437 1.349 . S
C422 C420 1.327 . S
C422 C441 1.429 . S
C422 H446 0.950 . S
C423 C440 1.574 . S
C423 C442 1.368 . S
C423 H447 0.949 . S
H424 C428 0.949 . S
C425 C426 1.349 . S
C425 C427 1.327 . S
C425 H448 0.950 . S
C426 C425 1.349 . S
C426 C438 1.349 . S
C427 C425 1.327 . S
C427 C443 1.429 . S
C427 H449 0.950 . S
C428 H424 0.949 . S
C428 C436 1.574 . S
C428 C444 1.368 . S
H429 C437 0.950 . S
H430 C435 0.950 . S
H431 C436 0.949 . S
H432 C438 0.950 . S
H433 C439 0.950 . S
H434 C440 0.949 . S
C435 H430 0.950 . S
C435 C437 1.327 . S
C435 C441 1.429 . S
C436 C428 1.574 . S
C436 H431 0.949 . S
C436 C442 1.368 . S
C437 C421 1.349 . S
C437 H429 0.950 . S
C437 C435 1.327 . S
C438 C426 1.349 . S
C438 H432 0.950 . S
C438 C439 1.327 . S
C439 H433 0.950 . S
C439 C438 1.327 . S
C439 C443 1.429 . S
C440 C423 1.574 . S
C440 H434 0.949 . S
C440 C444 1.368 . S
C441 C422 1.429 . S
C441 C435 1.429 . S
C441 C442 1.523 . S
C442 C423 1.368 . S
C442 C436 1.368 . S
C442 C441 1.523 . S
C443 C427 1.429 . S
C443 C439 1.429 . S
C443 C444 1.523 . S
C444 C428 1.368 . S
C444 C440 1.368 . S
C444 C443 1.523 . S
H445 C420 0.950 . S
H446 C422 0.950 . S
H447 C423 0.949 . S
H448 C425 0.950 . S
H449 C427 0.950 . S
C450 C451 1.349 . S
C450 C452 1.327 . S
C450 H475 0.950 . S
C451 C450 1.349 . S
C451 C467 1.349 . S
C452 C450 1.327 . S
C452 C471 1.429 . S
C452 H476 0.950 . S
C453 C470 1.574 . S
C453 C472 1.368 . S
C453 H477 0.949 . S
H454 C458 0.949 . S
C455 C456 1.349 . S
C455 C457 1.327 . S
C455 H478 0.950 . S
C456 C455 1.349 . S
C456 C468 1.349 . S
C457 C455 1.327 . S
C457 C473 1.429 . S
C457 H479 0.950 . S
C458 H454 0.949 . S
C458 C466 1.574 . S
C458 C474 1.368 . S
H459 C467 0.950 . S
H460 C465 0.950 . S
H461 C466 0.949 . S
H462 C468 0.950 . S
H463 C469 0.950 . S
H464 C470 0.949 . S
C465 H460 0.950 . S
C465 C467 1.327 . S
C465 C471 1.429 . S
C466 C458 1.574 . S
C466 H461 0.949 . S
C466 C472 1.368 . S
C467 C451 1.349 . S
C467 H459 0.950 . S
C467 C465 1.327 . S
C468 C456 1.349 . S
C468 H462 0.950 . S
C468 C469 1.327 . S
C469 H463 0.950 . S
C469 C468 1.327 . S
C469 C473 1.429 . S
C470 C453 1.574 . S
C470 H464 0.949 . S
C470 C474 1.368 . S
C471 C452 1.429 . S
C471 C465 1.429 . S
C471 C472 1.523 . S
C472 C453 1.368 . S
C472 C466 1.368 . S
C472 C471 1.523 . S
C473 C457 1.429 . S
C473 C469 1.429 . S
C473 C474 1.523 . S
C474 C458 1.368 . S
C474 C470 1.368 . S
C474 C473 1.523 . S
H475 C450 0.950 . S
H476 C452 0.950 . S
H477 C453 0.949 . S
H478 C455 0.950 . S
H479 C457 0.950 . S
C480 C481 1.349 . S
C480 C482 1.327 . S
C480 H505 0.950 . S
C481 C480 1.349 . S
C481 C497 1.349 . S
C482 C480 1.327 . S
C482 C501 1.429 . S
C482 H506 0.950 . S
C483 C500 1.574 . S
C483 C502 1.368 . S
C483 H507 0.949 . S
H484 C488 0.949 . S
C485 C486 1.349 . S
C485 C487 1.327 . S
C485 H508 0.950 . S
C486 C485 1.349 . S
C486 C498 1.349 . S
C487 C485 1.327 . S
C487 C503 1.429 . S
C487 H509 0.950 . S
C488 H484 0.949 . S
C488 C496 1.574 . S
C488 C504 1.368 . S
H489 C497 0.950 . S
H490 C495 0.950 . S
H491 C496 0.949 . S
H492 C498 0.950 . S
H493 C499 0.950 . S
H494 C500 0.949 . S
C495 H490 0.950 . S
C495 C497 1.327 . S
C495 C501 1.429 . S
C496 C488 1.574 . S
C496 H491 0.949 . S
C496 C502 1.368 . S
C497 C481 1.349 . S
C497 H489 0.950 . S
C497 C495 1.327 . S
C498 C486 1.349 . S
C498 H492 0.950 . S
C498 C499 1.327 . S
C499 H493 0.950 . S
C499 C498 1.327 . S
C499 C503 1.429 . S
C500 C483 1.574 . S
C500 H494 0.949 . S
C500 C504 1.368 . S
C501 C482 1.429 . S
C501 C495 1.429 . S
C501 C502 1.523 . S
C502 C483 1.368 . S
C502 C496 1.368 . S
C502 C501 1.523 . S
C503 C487 1.429 . S
C503 C499 1.429 . S
C503 C504 1.523 . S
C504 C488 1.368 . S
C504 C500 1.368 . S
C504 C503 1.523 . S
H505 C480 0.950 . S
H506 C482 0.950 . S
H507 C483 0.949 . S
H508 C485 0.950 . S
H509 C487 0.950 . S
C510 C511 1.349 . S
C510 C512 1.327 . S
C510 H535 0.950 . S
C511 C510 1.349 . S
C511 C527 1.349 . S
C512 C510 1.327 . S
C512 C531 1.429 . S
C512 H536 0.950 . S
C513 C530 1.574 . S
C513 C532 1.368 . S
C513 H537 0.949 . S
H514 C518 0.949 . S
C515 C516 1.349 . S
C515 C517 1.327 . S
C515 H538 0.950 . S
C516 C515 1.349 . S
C516 C528 1.349 . S
C517 C515 1.327 . S
C517 C533 1.429 . S
C517 H539 0.950 . S
C518 H514 0.949 . S
C518 C526 1.574 . S
C518 C534 1.368 . S
H519 C527 0.950 . S
H520 C525 0.950 . S
H521 C526 0.949 . S
H522 C528 0.950 . S
H523 C529 0.950 . S
H524 C530 0.949 . S
C525 H520 0.950 . S
C525 C527 1.327 . S
C525 C531 1.429 . S
C526 C518 1.574 . S
C526 H521 0.949 . S
C526 C532 1.368 . S
C527 C511 1.349 . S
C527 H519 0.950 . S
C527 C525 1.327 . S
C528 C516 1.349 . S
C528 H522 0.950 . S
C528 C529 1.327 . S
C529 H523 0.950 . S
C529 C528 1.327 . S
C529 C533 1.429 . S
C530 C513 1.574 . S
C530 H524 0.949 . S
C530 C534 1.368 . S
C531 C512 1.429 . S
C531 C525 1.429 . S
C531 C532 1.523 . S
C532 C513 1.368 . S
C532 C526 1.368 . S
C532 C531 1.523 . S
C533 C517 1.429 . S
C533 C529 1.429 . S
C533 C534 1.523 . S
C534 C518 1.368 . S
C534 C530 1.368 . S
C534 C533 1.523 . S
H535 C510 0.950 . S
H536 C512 0.950 . S
H537 C513 0.949 . S
H538 C515 0.950 . S
H539 C517 0.950 . S
C540 C541 1.349 . S
C540 C542 1.327 . S
C540 H565 0.950 . S
C541 C540 1.349 . S
C541 C557 1.349 . S
C542 C540 1.327 . S
C542 C561 1.429 . S
C542 H566 0.950 . S
C543 C560 1.574 . S
C543 C562 1.368 . S
C543 H567 0.949 . S
H544 C548 0.949 . S
C545 C546 1.349 . S
C545 C547 1.327 . S
C545 H568 0.950 . S
C546 C545 1.349 . S
C546 C558 1.349 . S
C547 C545 1.327 . S
C547 C563 1.429 . S
C547 H569 0.950 . S
C548 H544 0.949 . S
C548 C556 1.574 . S
C548 C564 1.368 . S
H549 C557 0.950 . S
H550 C555 0.950 . S
H551 C556 0.949 . S
H552 C558 0.950 . S
H553 C559 0.950 . S
H554 C560 0.949 . S
C555 H550 0.950 . S
C555 C557 1.327 . S
C555 C561 1.429 . S
C556 C548 1.574 . S
C556 H551 0.949 . S
C556 C562 1.368 . S
C557 C541 1.349 . S
C557 H549 0.950 . S
C557 C555 1.327 . S
C558 C546 1.349 . S
C558 H552 0.950 . S
C558 C559 1.327 . S
C559 H553 0.950 . S
C559 C558 1.327 . S
C559 C563 1.429 . S
C560 C543 1.574 . S
C560 H554 0.949 . S
C560 C564 1.368 . S
C561 C542 1.429 . S
C561 C555 1.429 . S
C561 C562 1.523 . S
C562 C543 1.368 . S
C562 C556 1.368 . S
C562 C561 1.523 . S
C563 C547 1.429 . S
C563 C559 1.429 . S
C563 C564 1.523 . S
C564 C548 1.368 . S
C564 C560 1.368 . S
C564 C563 1.523 . S
H565 C540 0.950 . S
H566 C542 0.950 . S
H567 C543 0.949 . S
H568 C545 0.950 . S
H569 C547 0.950 . S
C570 C571 1.349 . S
C570 C572 1.327 . S
C570 H595 0.950 . S
C571 C570 1.349 . S
C571 C587 1.349 . S
C572 C570 1.327 . S
C572 C591 1.429 . S
C572 H596 0.950 . S
C573 C590 1.574 . S
C573 C592 1.368 . S
C573 H597 0.949 . S
H574 C578 0.949 . S
C575 C576 1.349 . S
C575 C577 1.327 . S
C575 H598 0.950 . S
C576 C575 1.349 . S
C576 C588 1.349 . S
C577 C575 1.327 . S
C577 C593 1.429 . S
C577 H599 0.950 . S
C578 H574 0.949 . S
C578 C586 1.574 . S
C578 C594 1.368 . S
H579 C587 0.950 . S
H580 C585 0.950 . S
H581 C586 0.949 . S
H582 C588 0.950 . S
H583 C589 0.950 . S
H584 C590 0.949 . S
C585 H580 0.950 . S
C585 C587 1.327 . S
C585 C591 1.429 . S
C586 C578 1.574 . S
C586 H581 0.949 . S
C586 C592 1.368 . S
C587 C571 1.349 . S
C587 H579 0.950 . S
C587 C585 1.327 . S
C588 C576 1.349 . S
C588 H582 0.950 . S
C588 C589 1.327 . S
C589 H583 0.950 . S
C589 C588 1.327 . S
C589 C593 1.429 . S
C590 C573 1.574 . S
C590 H584 0.949 . S
C590 C594 1.368 . S
C591 C572 1.429 . S
C591 C585 1.429 . S
C591 C592 1.523 . S
C592 C573 1.368 . S
C592 C586 1.368 . S
C592 C591 1.523 . S
C593 C577 1.429 . S
C593 C589 1.429 . S
C593 C594 1.523 . S
C594 C578 1.368 . S
C594 C590 1.368 . S
C594 C593 1.523 . S
H595 C570 0.950 . S
H596 C572 0.950 . S
H597 C573 0.949 . S
H598 C575 0.950 . S
H599 C577 0.950 . S
C600 C601 1.349 . S
C600 C602 1.327 . S
C600 H625 0.950 . S
C601 C600 1.349 . S
C601 C617 1.349 . S
C602 C600 1.327 . S
C602 C621 1.429 . S
C602 H626 0.950 . S
C603 C620 1.574 . S
C603 C622 1.368 . S
C603 H627 0.949 . S
H604 C608 0.949 . S
C605 C606 1.349 . S
C605 C607 1.327 . S
C605 H628 0.950 . S
C606 C605 1.349 . S
C606 C618 1.349 . S
C607 C605 1.327 . S
C607 C623 1.429 1_655 S
C607 H629 0.950 . S
C608 H604 0.949 . S
C608 C616 1.574 . S
C608 C624 1.368 . S
H609 C617 0.950 . S
H610 C615 0.950 . S
H611 C616 0.949 . S
H612 C618 0.950 . S
H613 C619 0.950 . S
H614 C620 0.949 . S
C615 H610 0.950 . S
C615 C617 1.327 . S
C615 C621 1.429 . S
C616 C608 1.574 . S
C616 H611 0.949 . S
C616 C622 1.368 . S
C617 C601 1.349 . S
C617 H609 0.950 . S
C617 C615 1.327 . S
C618 C606 1.349 . S
C618 H612 0.950 . S
C618 C619 1.327 1_655 S
C619 H613 0.950 . S
C619 C618 1.327 1_455 S
C619 C623 1.429 . S
C620 C603 1.574 . S
C620 H614 0.949 . S
C620 C624 1.368 . S
C621 C602 1.429 . S
C621 C615 1.429 . S
C621 C622 1.523 . S
C622 C603 1.368 . S
C622 C616 1.368 . S
C622 C621 1.523 . S
C623 C607 1.429 1_455 S
C623 C619 1.429 . S
C623 C624 1.523 . S
C624 C608 1.368 . S
C624 C620 1.368 . S
C624 C623 1.523 . S
H625 C600 0.950 . S
H626 C602 0.950 . S
H627 C603 0.949 . S
H628 C605 0.950 . S
H629 C607 0.950 . S
C630 C631 1.349 . S
C630 C632 1.327 1_655 S
C630 H655 0.950 . S
C631 C630 1.349 . S
C631 C647 1.349 . S
C632 C630 1.327 1_455 S
C632 C651 1.429 . S
C632 H656 0.950 . S
C633 C650 1.574 . S
C633 C652 1.368 . S
C633 H657 0.949 . S
H634 C638 0.949 . S
C635 C636 1.349 . S
C635 C637 1.327 1_545 S
C635 H658 0.950 . S
C636 C635 1.349 . S
C636 C648 1.349 . S
C637 C635 1.327 1_565 S
C637 C653 1.429 . S
C637 H659 0.950 . S
C638 H634 0.949 . S
C638 C646 1.574 . S
C638 C654 1.368 . S
H639 C647 0.950 . S
H640 C645 0.950 . S
H641 C646 0.949 . S
H642 C648 0.950 . S
H643 C649 0.950 . S
H644 C650 0.949 . S
C645 H640 0.950 . S
C645 C647 1.327 1_455 S
C645 C651 1.429 . S
C646 C638 1.574 . S
C646 H641 0.949 . S
C646 C652 1.368 . S
C647 C631 1.349 . S
C647 H639 0.950 . S
C647 C645 1.327 1_655 S
C648 C636 1.349 . S
C648 H642 0.950 . S
C648 C649 1.327 . S
C649 H643 0.950 . S
C649 C648 1.327 . S
C649 C653 1.429 1_545 S
C650 C633 1.574 . S
C650 H644 0.949 . S
C650 C654 1.368 . S
C651 C632 1.429 . S
C651 C645 1.429 . S
C651 C652 1.523 . S
C652 C633 1.368 . S
C652 C646 1.368 . S
C652 C651 1.523 . S
C653 C637 1.429 . S
C653 C649 1.429 1_565 S
C653 C654 1.523 . S
C654 C638 1.368 . S
C654 C650 1.368 . S
C654 C653 1.523 . S
H655 C630 0.950 . S
H656 C632 0.950 . S
H657 C633 0.949 . S
H658 C635 0.950 . S
H659 C637 0.950 . S
C660 C661 1.349 . S
C660 C662 1.327 1_545 S
C660 H685 0.950 . S
C661 C660 1.349 . S
C661 C677 1.349 . S
C662 C660 1.327 1_565 S
C662 C681 1.429 . S
C662 H686 0.950 . S
C663 C680 1.574 . S
C663 C682 1.368 . S
C663 H687 0.949 . S
H664 C668 0.949 . S
C665 C666 1.349 . S
C665 C667 1.327 . S
C665 H688 0.950 . S
C666 C665 1.349 . S
C666 C678 1.349 . S
C667 C665 1.327 . S
C667 C683 1.429 . S
C667 H689 0.950 . S
C668 H664 0.949 . S
C668 C676 1.574 . S
C668 C684 1.368 . S
H669 C677 0.950 . S
H670 C675 0.950 . S
H671 C676 0.949 . S
H672 C678 0.950 . S
H673 C679 0.950 . S
H674 C680 0.949 . S
C675 H670 0.950 . S
C675 C677 1.327 1_565 S
C675 C681 1.429 . S
C676 C668 1.574 . S
C676 H671 0.949 . S
C676 C682 1.368 . S
C677 C661 1.349 . S
C677 H669 0.950 . S
C677 C675 1.327 1_545 S
C678 C666 1.349 . S
C678 H672 0.950 . S
C678 C679 1.327 . S
C679 H673 0.950 . S
C679 C678 1.327 . S
C679 C683 1.429 . S
C680 C663 1.574 . S
C680 H674 0.949 . S
C680 C684 1.368 . S
C681 C662 1.429 . S
C681 C675 1.429 . S
C681 C682 1.523 . S
C682 C663 1.368 . S
C682 C676 1.368 . S
C682 C681 1.523 . S
C683 C667 1.429 . S
C683 C679 1.429 . S
C683 C684 1.523 . S
C684 C668 1.368 . S
C684 C680 1.368 . S
C684 C683 1.523 . S
H685 C660 0.950 . S
H686 C662 0.950 . S
H687 C663 0.949 . S
H688 C665 0.950 . S
H689 C667 0.950 . S
C690 C691 1.349 . S
C690 C692 1.327 . S
C690 H715 0.950 . S
C691 C690 1.349 . S
C691 C707 1.349 . S
C692 C690 1.327 . S
C692 C711 1.429 . S
C692 H716 0.950 . S
C693 C710 1.574 . S
C693 C712 1.368 . S
C693 H717 0.949 . S
H694 C698 0.949 . S
C695 C696 1.349 . S
C695 C697 1.327 1_565 S
C695 H718 0.950 . S
C696 C695 1.349 . S
C696 C708 1.349 . S
C697 C695 1.327 1_545 S
C697 C713 1.429 . S
C697 H719 0.950 . S
C698 H694 0.949 . S
C698 C706 1.574 . S
C698 C714 1.368 . S
H699 C707 0.950 . S
H700 C705 0.950 . S
H701 C706 0.949 . S
H702 C708 0.950 . S
H703 C709 0.950 . S
H704 C710 0.949 . S
C705 H700 0.950 . S
C705 C707 1.327 . S
C705 C711 1.429 . S
C706 C698 1.574 . S
C706 H701 0.949 . S
C706 C712 1.368 . S
C707 C691 1.349 . S
C707 H699 0.950 . S
C707 C705 1.327 . S
C708 C696 1.349 . S
C708 H702 0.950 . S
C708 C709 1.327 . S
C709 H703 0.950 . S
C709 C708 1.327 . S
C709 C713 1.429 1_565 S
C710 C693 1.574 . S
C710 H704 0.949 . S
C710 C714 1.368 . S
C711 C692 1.429 . S
C711 C705 1.429 . S
C711 C712 1.523 . S
C712 C693 1.368 . S
C712 C706 1.368 . S
C712 C711 1.523 . S
C713 C697 1.429 . S
C713 C709 1.429 1_545 S
C713 C714 1.523 . S
C714 C698 1.368 . S
C714 C710 1.368 . S
C714 C713 1.523 . S
H715 C690 0.950 . S
H716 C692 0.950 . S
H717 C693 0.949 . S
H718 C695 0.950 . S
H719 C697 0.950 . S
C720 C721 1.349 . S
C720 C722 1.327 1_455 S
C720 H745 0.950 . S
C721 C720 1.349 . S
C721 C737 1.349 . S
C722 C720 1.327 1_655 S
C722 C741 1.429 . S
C722 H746 0.950 . S
C723 C740 1.574 . S
C723 C742 1.368 . S
C723 H747 0.949 . S
H724 C728 0.949 . S
C725 C726 1.349 . S
C725 C727 1.327 . S
C725 H748 0.950 . S
C726 C725 1.349 . S
C726 C738 1.349 . S
C727 C725 1.327 . S
C727 C743 1.429 . S
C727 H749 0.950 . S
C728 H724 0.949 . S
C728 C736 1.574 . S
C728 C744 1.368 . S
H729 C737 0.950 . S
H730 C735 0.950 . S
H731 C736 0.949 . S
H732 C738 0.950 . S
H733 C739 0.950 . S
H734 C740 0.949 . S
C735 H730 0.950 . S
C735 C737 1.327 1_655 S
C735 C741 1.429 . S
C736 C728 1.574 . S
C736 H731 0.949 . S
C736 C742 1.368 . S
C737 C721 1.349 . S
C737 H729 0.950 . S
C737 C735 1.327 1_455 S
C738 C726 1.349 . S
C738 H732 0.950 . S
C738 C739 1.327 . S
C739 H733 0.950 . S
C739 C738 1.327 . S
C739 C743 1.429 . S
C740 C723 1.574 . S
C740 H734 0.949 . S
C740 C744 1.368 . S
C741 C722 1.429 . S
C741 C735 1.429 . S
C741 C742 1.523 . S
C742 C723 1.368 . S
C742 C736 1.368 . S
C742 C741 1.523 . S
C743 C727 1.429 . S
C743 C739 1.429 . S
C743 C744 1.523 . S
C744 C728 1.368 . S
C744 C740 1.368 . S
C744 C743 1.523 . S
H745 C720 0.950 . S
H746 C722 0.950 . S
H747 C723 0.949 . S
H748 C725 0.950 . S
H749 C727 0.950 . S
C750 C751 1.349 . S
C750 C752 1.327 . S
C750 H775 0.950 . S
C751 C750 1.349 . S
C751 C767 1.349 . S
C752 C750 1.327 . S
C752 C771 1.429 1_455 S
C752 H776 0.950 . S
C753 C770 1.574 . S
C753 C772 1.368 . S
C753 H777 0.949 . S
H754 C758 0.949 . S
C755 C756 1.349 . S
C755 C757 1.327 1_565 S
C755 H778 0.950 . S
C756 C755 1.349 . S
C756 C768 1.349 . S
C757 C755 1.327 1_545 S
C757 C773 1.429 . S
C757 H779 0.950 . S
C758 H754 0.949 . S
C758 C766 1.574 . S
C758 C774 1.368 . S
H759 C767 0.950 . S
H760 C765 0.950 . S
H761 C766 0.949 . S
H762 C768 0.950 . S
H763 C769 0.950 . S
H764 C770 0.949 . S
C765 H760 0.950 . S
C765 C767 1.327 1_655 S
C765 C771 1.429 . S
C766 C758 1.574 . S
C766 H761 0.949 . S
C766 C772 1.368 . S
C767 C751 1.349 . S
C767 H759 0.950 . S
C767 C765 1.327 1_455 S
C768 C756 1.349 . S
C768 H762 0.950 . S
C768 C769 1.327 1_565 S
C769 H763 0.950 . S
C769 C768 1.327 1_545 S
C769 C773 1.429 . S
C770 C753 1.574 . S
C770 H764 0.949 . S
C770 C774 1.368 . S
C771 C752 1.429 1_655 S
C771 C765 1.429 . S
C771 C772 1.523 . S
C772 C753 1.368 . S
C772 C766 1.368 . S
C772 C771 1.523 . S
C773 C757 1.429 . S
C773 C769 1.429 . S
C773 C774 1.523 . S
C774 C758 1.368 . S
C774 C770 1.368 . S
C774 C773 1.523 . S
H775 C750 0.950 . S
H776 C752 0.950 . S
H777 C753 0.949 . S
H778 C755 0.950 . S
H779 C757 0.950 . S
C241 C178 2.490 . S
C246 C18 2.320 . S
C271 C209 2.320 . S
C276 C49 2.490 . S
C301 C98 2.320 . S
C306 C138 2.490 . S
C331 C9 2.490 . S
C336 C169 2.320 . S
C361 C218 2.490 . S
C366 C58 2.320 . S
C391 C89 2.490 . S
C396 C129 2.320 . S
C421 C15 1.899 . S
C426 C99 1.845 . S
C451 C55 1.899 . S
C456 C19 1.845 . S
C481 C95 1.899 . S
C486 C59 1.845 . S
C511 C126 1.899 . S
C516 C170 1.845 . S
C541 C166 1.899 . S
C546 C210 1.845 . S
C571 C130 1.845 . S
C576 C206 1.899 . S
C601 C6 1.019 . S
C606 C90 1.038 . S
C631 C46 1.019 . S
C636 C10 1.038 . S
C661 C86 1.019 . S
C666 C50 1.038 . S
C691 C135 1.019 . S
C696 C179 1.038 . S
C721 C175 1.019 . S
C726 C219 1.038 . S
C751 C139 1.038 . S
C756 C215 1.019 . S
