# Generated by pormake.
# Topology wio, (6)-cn, num edge types: 1
# Building blocks:
#     Node 0, Type 0, BuildingBlock: CUWYAW_clean_sbu_0, # of connection points: 6
#     Node 1, Type 0, BuildingBlock: CUWYAW_clean_sbu_0, # of connection points: 6
#     Node 2, Type 0, BuildingBlock: CUWYAW_clean_sbu_0, # of connection points: 6
#     Node 3, Type 0, BuildingBlock: CUWYAW_clean_sbu_0, # of connection points: 6
#     Node 4, Type 0, BuildingBlock: CUWYAW_clean_sbu_0, # of connection points: 6
#     Node 5, Type 0, BuildingBlock: CUWYAW_clean_sbu_0, # of connection points: 6
#     Node 6, Type 0, BuildingBlock: CUWYAW_clean_sbu_0, # of connection points: 6
#     Node 7, Type 0, BuildingBlock: CUWYAW_clean_sbu_0, # of connection points: 6
#     Node 8, Type 0, BuildingBlock: CUWYAW_clean_sbu_0, # of connection points: 6
#     Node 9, Type 0, BuildingBlock: CUWYAW_clean_sbu_0, # of connection points: 6
#     Node 10, Type 0, BuildingBlock: CUWYAW_clean_sbu_0, # of connection points: 6
#     Node 11, Type 0, BuildingBlock: CUWYAW_clean_sbu_0, # of connection points: 6
#     Node 12, Type 0, BuildingBlock: CUWYAW_clean_sbu_0, # of connection points: 6
#     Node 13, Type 0, BuildingBlock: CUWYAW_clean_sbu_0, # of connection points: 6
#     Node 14, Type 0, BuildingBlock: CUWYAW_clean_sbu_0, # of connection points: 6
#     Node 15, Type 0, BuildingBlock: CUWYAW_clean_sbu_0, # of connection points: 6
#     Node 16, Type 0, BuildingBlock: CUWYAW_clean_sbu_0, # of connection points: 6
#     Node 17, Type 0, BuildingBlock: CUWYAW_clean_sbu_0, # of connection points: 6
#     Node 18, Type 0, BuildingBlock: CUWYAW_clean_sbu_0, # of connection points: 6
#     Node 19, Type 0, BuildingBlock: CUWYAW_clean_sbu_0, # of connection points: 6
#     Node 20, Type 0, BuildingBlock: CUWYAW_clean_sbu_0, # of connection points: 6
#     Node 21, Type 0, BuildingBlock: CUWYAW_clean_sbu_0, # of connection points: 6
#     Node 22, Type 0, BuildingBlock: CUWYAW_clean_sbu_0, # of connection points: 6
#     Node 23, Type 0, BuildingBlock: CUWYAW_clean_sbu_0, # of connection points: 6
#     Node 24, Type 0, BuildingBlock: CUWYAW_clean_sbu_0, # of connection points: 6
#     Node 25, Type 0, BuildingBlock: CUWYAW_clean_sbu_0, # of connection points: 6
#     Node 26, Type 0, BuildingBlock: CUWYAW_clean_sbu_0, # of connection points: 6
#     Node 27, Type 0, BuildingBlock: CUWYAW_clean_sbu_0, # of connection points: 6
#     Node 28, Type 0, BuildingBlock: CUWYAW_clean_sbu_0, # of connection points: 6
#     Node 29, Type 0, BuildingBlock: CUWYAW_clean_sbu_0, # of connection points: 6
#     Node 30, Type 0, BuildingBlock: CUWYAW_clean_sbu_0, # of connection points: 6
#     Node 31, Type 0, BuildingBlock: CUWYAW_clean_sbu_0, # of connection points: 6
#     Edge 32, Type (0, 0), BuildingBlock: XIVTED_clean_linker_0, # of connection points: 2
#     Edge 33, Type (0, 0), BuildingBlock: XIVTED_clean_linker_0, # of connection points: 2
#     Edge 34, Type (0, 0), BuildingBlock: XIVTED_clean_linker_0, # of connection points: 2
#     Edge 35, Type (0, 0), BuildingBlock: XIVTED_clean_linker_0, # of connection points: 2
#     Edge 36, Type (0, 0), BuildingBlock: XIVTED_clean_linker_0, # of connection points: 2
#     Edge 37, Type (0, 0), BuildingBlock: XIVTED_clean_linker_0, # of connection points: 2
#     Edge 38, Type (0, 0), BuildingBlock: XIVTED_clean_linker_0, # of connection points: 2
#     Edge 39, Type (0, 0), BuildingBlock: XIVTED_clean_linker_0, # of connection points: 2
#     Edge 40, Type (0, 0), BuildingBlock: XIVTED_clean_linker_0, # of connection points: 2
#     Edge 41, Type (0, 0), BuildingBlock: XIVTED_clean_linker_0, # of connection points: 2
#     Edge 42, Type (0, 0), BuildingBlock: XIVTED_clean_linker_0, # of connection points: 2
#     Edge 43, Type (0, 0), BuildingBlock: XIVTED_clean_linker_0, # of connection points: 2
#     Edge 44, Type (0, 0), BuildingBlock: XIVTED_clean_linker_0, # of connection points: 2
#     Edge 45, Type (0, 0), BuildingBlock: XIVTED_clean_linker_0, # of connection points: 2
#     Edge 46, Type (0, 0), BuildingBlock: XIVTED_clean_linker_0, # of connection points: 2
#     Edge 47, Type (0, 0), BuildingBlock: XIVTED_clean_linker_0, # of connection points: 2
#     Edge 48, Type (0, 0), BuildingBlock: XIVTED_clean_linker_0, # of connection points: 2
#     Edge 49, Type (0, 0), BuildingBlock: XIVTED_clean_linker_0, # of connection points: 2
#     Edge 50, Type (0, 0), BuildingBlock: XIVTED_clean_linker_0, # of connection points: 2
#     Edge 51, Type (0, 0), BuildingBlock: XIVTED_clean_linker_0, # of connection points: 2
#     Edge 52, Type (0, 0), BuildingBlock: XIVTED_clean_linker_0, # of connection points: 2
#     Edge 53, Type (0, 0), BuildingBlock: XIVTED_clean_linker_0, # of connection points: 2
#     Edge 54, Type (0, 0), BuildingBlock: XIVTED_clean_linker_0, # of connection points: 2
#     Edge 55, Type (0, 0), BuildingBlock: XIVTED_clean_linker_0, # of connection points: 2
#     Edge 56, Type (0, 0), BuildingBlock: XIVTED_clean_linker_0, # of connection points: 2
#     Edge 57, Type (0, 0), BuildingBlock: XIVTED_clean_linker_0, # of connection points: 2
#     Edge 58, Type (0, 0), BuildingBlock: XIVTED_clean_linker_0, # of connection points: 2
#     Edge 59, Type (0, 0), BuildingBlock: XIVTED_clean_linker_0, # of connection points: 2
#     Edge 60, Type (0, 0), BuildingBlock: XIVTED_clean_linker_0, # of connection points: 2
#     Edge 61, Type (0, 0), BuildingBlock: XIVTED_clean_linker_0, # of connection points: 2
#     Edge 62, Type (0, 0), BuildingBlock: XIVTED_clean_linker_0, # of connection points: 2
#     Edge 63, Type (0, 0), BuildingBlock: XIVTED_clean_linker_0, # of connection points: 2
#     Edge 64, Type (0, 0), BuildingBlock: XIVTED_clean_linker_0, # of connection points: 2
#     Edge 65, Type (0, 0), BuildingBlock: XIVTED_clean_linker_0, # of connection points: 2
#     Edge 66, Type (0, 0), BuildingBlock: XIVTED_clean_linker_0, # of connection points: 2
#     Edge 67, Type (0, 0), BuildingBlock: XIVTED_clean_linker_0, # of connection points: 2
#     Edge 68, Type (0, 0), BuildingBlock: XIVTED_clean_linker_0, # of connection points: 2
#     Edge 69, Type (0, 0), BuildingBlock: XIVTED_clean_linker_0, # of connection points: 2
#     Edge 70, Type (0, 0), BuildingBlock: XIVTED_clean_linker_0, # of connection points: 2
#     Edge 71, Type (0, 0), BuildingBlock: XIVTED_clean_linker_0, # of connection points: 2
#     Edge 72, Type (0, 0), BuildingBlock: XIVTED_clean_linker_0, # of connection points: 2
#     Edge 73, Type (0, 0), BuildingBlock: XIVTED_clean_linker_0, # of connection points: 2
#     Edge 74, Type (0, 0), BuildingBlock: XIVTED_clean_linker_0, # of connection points: 2
#     Edge 75, Type (0, 0), BuildingBlock: XIVTED_clean_linker_0, # of connection points: 2
#     Edge 76, Type (0, 0), BuildingBlock: XIVTED_clean_linker_0, # of connection points: 2
#     Edge 77, Type (0, 0), BuildingBlock: XIVTED_clean_linker_0, # of connection points: 2
#     Edge 78, Type (0, 0), BuildingBlock: XIVTED_clean_linker_0, # of connection points: 2
#     Edge 79, Type (0, 0), BuildingBlock: XIVTED_clean_linker_0, # of connection points: 2
#     Edge 80, Type (0, 0), BuildingBlock: XIVTED_clean_linker_0, # of connection points: 2
#     Edge 81, Type (0, 0), BuildingBlock: XIVTED_clean_linker_0, # of connection points: 2
#     Edge 82, Type (0, 0), BuildingBlock: XIVTED_clean_linker_0, # of connection points: 2
#     Edge 83, Type (0, 0), BuildingBlock: XIVTED_clean_linker_0, # of connection points: 2
#     Edge 84, Type (0, 0), BuildingBlock: XIVTED_clean_linker_0, # of connection points: 2
#     Edge 85, Type (0, 0), BuildingBlock: XIVTED_clean_linker_0, # of connection points: 2
#     Edge 86, Type (0, 0), BuildingBlock: XIVTED_clean_linker_0, # of connection points: 2
#     Edge 87, Type (0, 0), BuildingBlock: XIVTED_clean_linker_0, # of connection points: 2
#     Edge 88, Type (0, 0), BuildingBlock: XIVTED_clean_linker_0, # of connection points: 2
#     Edge 89, Type (0, 0), BuildingBlock: XIVTED_clean_linker_0, # of connection points: 2
#     Edge 90, Type (0, 0), BuildingBlock: XIVTED_clean_linker_0, # of connection points: 2
#     Edge 91, Type (0, 0), BuildingBlock: XIVTED_clean_linker_0, # of connection points: 2
#     Edge 92, Type (0, 0), BuildingBlock: XIVTED_clean_linker_0, # of connection points: 2
#     Edge 93, Type (0, 0), BuildingBlock: XIVTED_clean_linker_0, # of connection points: 2
#     Edge 94, Type (0, 0), BuildingBlock: XIVTED_clean_linker_0, # of connection points: 2
#     Edge 95, Type (0, 0), BuildingBlock: XIVTED_clean_linker_0, # of connection points: 2
#     Edge 96, Type (0, 0), BuildingBlock: XIVTED_clean_linker_0, # of connection points: 2
#     Edge 97, Type (0, 0), BuildingBlock: XIVTED_clean_linker_0, # of connection points: 2
#     Edge 98, Type (0, 0), BuildingBlock: XIVTED_clean_linker_0, # of connection points: 2
#     Edge 99, Type (0, 0), BuildingBlock: XIVTED_clean_linker_0, # of connection points: 2
#     Edge 100, Type (0, 0), BuildingBlock: XIVTED_clean_linker_0, # of connection points: 2
#     Edge 101, Type (0, 0), BuildingBlock: XIVTED_clean_linker_0, # of connection points: 2
#     Edge 102, Type (0, 0), BuildingBlock: XIVTED_clean_linker_0, # of connection points: 2
#     Edge 103, Type (0, 0), BuildingBlock: XIVTED_clean_linker_0, # of connection points: 2
#     Edge 104, Type (0, 0), BuildingBlock: XIVTED_clean_linker_0, # of connection points: 2
#     Edge 105, Type (0, 0), BuildingBlock: XIVTED_clean_linker_0, # of connection points: 2
#     Edge 106, Type (0, 0), BuildingBlock: XIVTED_clean_linker_0, # of connection points: 2
#     Edge 107, Type (0, 0), BuildingBlock: XIVTED_clean_linker_0, # of connection points: 2
#     Edge 108, Type (0, 0), BuildingBlock: XIVTED_clean_linker_0, # of connection points: 2
#     Edge 109, Type (0, 0), BuildingBlock: XIVTED_clean_linker_0, # of connection points: 2
#     Edge 110, Type (0, 0), BuildingBlock: XIVTED_clean_linker_0, # of connection points: 2
#     Edge 111, Type (0, 0), BuildingBlock: XIVTED_clean_linker_0, # of connection points: 2
#     Edge 112, Type (0, 0), BuildingBlock: XIVTED_clean_linker_0, # of connection points: 2
#     Edge 113, Type (0, 0), BuildingBlock: XIVTED_clean_linker_0, # of connection points: 2
#     Edge 114, Type (0, 0), BuildingBlock: XIVTED_clean_linker_0, # of connection points: 2
#     Edge 115, Type (0, 0), BuildingBlock: XIVTED_clean_linker_0, # of connection points: 2
#     Edge 116, Type (0, 0), BuildingBlock: XIVTED_clean_linker_0, # of connection points: 2
#     Edge 117, Type (0, 0), BuildingBlock: XIVTED_clean_linker_0, # of connection points: 2
#     Edge 118, Type (0, 0), BuildingBlock: XIVTED_clean_linker_0, # of connection points: 2
#     Edge 119, Type (0, 0), BuildingBlock: XIVTED_clean_linker_0, # of connection points: 2
#     Edge 120, Type (0, 0), BuildingBlock: XIVTED_clean_linker_0, # of connection points: 2
#     Edge 121, Type (0, 0), BuildingBlock: XIVTED_clean_linker_0, # of connection points: 2
#     Edge 122, Type (0, 0), BuildingBlock: XIVTED_clean_linker_0, # of connection points: 2
#     Edge 123, Type (0, 0), BuildingBlock: XIVTED_clean_linker_0, # of connection points: 2
#     Edge 124, Type (0, 0), BuildingBlock: XIVTED_clean_linker_0, # of connection points: 2
#     Edge 125, Type (0, 0), BuildingBlock: XIVTED_clean_linker_0, # of connection points: 2
#     Edge 126, Type (0, 0), BuildingBlock: XIVTED_clean_linker_0, # of connection points: 2
#     Edge 127, Type (0, 0), BuildingBlock: XIVTED_clean_linker_0, # of connection points: 2
# Relax obj value: 0.183
# Max RMSD: 0.230
# Mean RMSD: 0.230
data_MOF--net-wio--node1-CUWYAW_clean_sbu_0--edge1-XIVTED_clean_linker_0
_symmetry_space_group_name_H-M    P1
_symmetry_Int_Tables_number       1
_symmetry_cell_setting            triclinic
loop_
_symmetry_equiv_pos_as_xyz
'x, y, z'
_cell_length_a     63.293697
_cell_length_b     63.341004
_cell_length_c     54.433245
_cell_angle_alpha  89.974945
_cell_angle_beta   89.995804
_cell_angle_gamma 89.97101
loop_
_atom_site_label
_atom_site_type_symbol
_atom_site_fract_x
_atom_site_fract_y
_atom_site_fract_z
_atom_type_partial_charge
C0 C 0.07033 0.13605 0.30614 0.0
Eu1 Eu 0.1066 0.12265 0.28892 0.0
C2 C 0.05548 0.13315 0.32714 0.0
C3 C 0.03703 0.12112 0.32402 0.0
C4 C 0.02215 0.1194 0.34294 0.0
C5 C 0.02517 0.12977 0.36557 0.0
C6 C 0.04363 0.14187 0.3687 0.0
C7 C 0.05859 0.14356 0.34973 0.0
C8 C 0.11577 0.08388 0.26981 0.0
C9 C 0.13314 0.0981 0.33284 0.0
C10 C 0.19126 0.10331 0.2696 0.0
Eu11 Eu 0.15313 0.11445 0.28263 0.0
C12 C 0.20718 0.1062 0.25018 0.0
C13 C 0.20587 0.12276 0.23309 0.0
C14 C 0.22191 0.12562 0.21562 0.0
C15 C 0.23947 0.11194 0.21497 0.0
C16 C 0.24055 0.09539 0.23219 0.0
C17 C 0.22457 0.09256 0.24956 0.0
C18 C 0.14412 0.15014 0.30776 0.0
C19 C 0.12607 0.13296 0.23581 0.0
O20 O 0.0884 0.14538 0.31043 0.0
O21 O 0.07214 0.1206 0.29033 0.0
O22 O 0.09956 0.09514 0.26321 0.0
O23 O 0.12565 0.09334 0.28653 0.0
O24 O 0.11573 0.10855 0.32658 0.0
O25 O 0.14902 0.09596 0.31733 0.0
O26 O 0.17439 0.09234 0.26413 0.0
O27 O 0.18706 0.11978 0.28319 0.0
O28 O 0.15969 0.13758 0.3126 0.0
O29 O 0.13435 0.1441 0.28861 0.0
O30 O 0.1434 0.12386 0.2442 0.0
O31 O 0.10965 0.1365 0.25036 0.0
H32 H 0.03389 0.11326 0.30673 0.0
H33 H 0.00798 0.11028 0.33958 0.0
H34 H 0.04659 0.14996 0.38587 0.0
H35 H 0.07247 0.1532 0.35272 0.0
H36 H 0.19255 0.1335 0.23338 0.0
H37 H 0.22046 0.13838 0.20248 0.0
H38 H 0.25396 0.08476 0.23251 0.0
H39 H 0.22594 0.07982 0.26276 0.0
C40 C 0.11972 0.82031 0.5573 0.0
Eu41 Eu 0.13537 0.85501 0.5384 0.0
C42 C 0.12311 0.80471 0.57744 0.0
C43 C 0.1326 0.78513 0.57233 0.0
C44 C 0.13456 0.76969 0.59062 0.0
C45 C 0.12697 0.77329 0.61459 0.0
C46 C 0.1174 0.79287 0.61972 0.0
C47 C 0.11548 0.80837 0.60139 0.0
C48 C 0.17505 0.86127 0.52017 0.0
C49 C 0.16071 0.88198 0.5811 0.0
C50 C 0.16007 0.93756 0.5144 0.0
Eu51 Eu 0.146 0.90106 0.5296 0.0
C52 C 0.15541 0.95465 0.49694 0.0
C53 C 0.13931 0.95289 0.47932 0.0
C54 C 0.13533 0.96958 0.46299 0.0
C55 C 0.14738 0.98826 0.4641 0.0
C56 C 0.16323 0.98994 0.48213 0.0
C57 C 0.1672 0.97329 0.49831 0.0
C58 C 0.10844 0.89493 0.55242 0.0
C59 C 0.12637 0.87343 0.48409 0.0
O60 O 0.11338 0.83929 0.56329 0.0
O61 O 0.13327 0.82055 0.53913 0.0
O62 O 0.16367 0.84467 0.51559 0.0
O63 O 0.16554 0.87272 0.53546 0.0
O64 O 0.14918 0.86506 0.57581 0.0
O65 O 0.16424 0.89677 0.56452 0.0
O66 O 0.1663 0.91948 0.50527 0.0
O67 O 0.14692 0.93533 0.5327 0.0
O68 O 0.12093 0.91072 0.55632 0.0
O69 O 0.11537 0.88368 0.53487 0.0
O70 O 0.13602 0.89067 0.49176 0.0
O71 O 0.12214 0.85762 0.49934 0.0
H72 H 0.13825 0.78157 0.55401 0.0
H73 H 0.14166 0.75471 0.58576 0.0
H74 H 0.11151 0.7963 0.63796 0.0
H75 H 0.10781 0.82314 0.60596 0.0
H76 H 0.12993 0.93863 0.47816 0.0
H77 H 0.12313 0.96768 0.44923 0.0
H78 H 0.17255 1.00419 0.48387 0.0
H79 H 0.17954 0.975 0.51197 0.0
C80 C 0.43995 0.87148 0.8103 0.0
Eu81 Eu 0.40592 0.88694 0.78957 0.0
C82 C 0.4543 0.87383 0.83157 0.0
C83 C 0.45691 0.8932 0.84372 0.0
C84 C 0.47179 0.89519 0.86271 0.0
C85 C 0.48436 0.87785 0.86996 0.0
C86 C 0.48115 0.85835 0.85816 0.0
C87 C 0.46631 0.8564 0.8392 0.0
C88 C 0.39981 0.92564 0.76866 0.0
C89 C 0.37673 0.91362 0.82885 0.0
C90 C 0.32424 0.90867 0.75838 0.0
Eu91 Eu 0.36008 0.89614 0.77704 0.0
C92 C 0.30785 0.90267 0.74023 0.0
C93 C 0.29391 0.88576 0.74453 0.0
C94 C 0.27707 0.88184 0.72847 0.0
C95 C 0.27375 0.89481 0.70785 0.0
C96 C 0.28813 0.91128 0.7032 0.0
C97 C 0.30491 0.9152 0.71924 0.0
C98 C 0.36592 0.85975 0.80232 0.0
C99 C 0.39039 0.87554 0.73453 0.0
O100 O 0.42091 0.86443 0.81463 0.0
O101 O 0.44021 0.88635 0.79362 0.0
O102 O 0.4169 0.91447 0.76597 0.0
O103 O 0.38774 0.91647 0.78359 0.0
O104 O 0.39388 0.90184 0.82553 0.0
O105 O 0.36278 0.91618 0.81101 0.0
O106 O 0.34265 0.91475 0.74996 0.0
O107 O 0.32577 0.89728 0.77835 0.0
O108 O 0.34965 0.87198 0.80454 0.0
O109 O 0.37783 0.86628 0.78516 0.0
O110 O 0.372 0.88391 0.74049 0.0
O111 O 0.40587 0.87338 0.75075 0.0
H112 H 0.44769 0.90684 0.83828 0.0
H113 H 0.47356 0.91038 0.87159 0.0
H114 H 0.49062 0.84472 0.86295 0.0
H115 H 0.46455 0.8413 0.83006 0.0
H116 H 0.29562 0.87586 0.76063 0.0
H117 H 0.26622 0.86914 0.73271 0.0
H118 H 0.28629 0.92134 0.68725 0.0
H119 H 0.31532 0.92839 0.71551 0.0
C120 C 0.3899 0.18872 0.05841 0.0
Eu121 Eu 0.37377 0.15425 0.03948 0.0
C122 C 0.38751 0.20342 0.07939 0.0
C123 C 0.36811 0.20617 0.09148 0.0
C124 C 0.36614 0.22105 0.11048 0.0
C125 C 0.38353 0.23348 0.11785 0.0
C126 C 0.40305 0.23019 0.10604 0.0
C127 C 0.40498 0.21536 0.08705 0.0
C128 C 0.33448 0.14806 0.0204 0.0
C129 C 0.3479 0.1271 0.08185 0.0
C130 C 0.34964 0.07146 1.01513 0.0
Eu131 Eu 0.36315 0.10812 0.03054 0.0
C132 C 0.35302 0.05551 0.99587 0.0
C133 C 0.37102 0.05568 0.9808 0.0
C134 C 0.37406 0.03972 0.96326 0.0
C135 C 0.35909 0.02343 0.96048 0.0
C136 C 0.3411 0.02348 0.97568 0.0
C137 C 0.33812 0.03935 0.99316 0.0
C138 C 0.40037 0.11462 0.05396 0.0
C139 C 0.38239 0.13615 0.98502 0.0
O140 O 0.39687 0.16975 0.06331 0.0
O141 O 0.37499 0.18865 0.04176 0.0
O142 O 0.34604 0.16457 1.01586 0.0
O143 O 0.34362 0.13659 0.03602 0.0
O144 O 0.35939 0.14409 0.07664 0.0
O145 O 0.34481 0.11212 0.06539 0.0
O146 O 0.3412 0.08943 1.00845 0.0
O147 O 0.36479 0.07381 0.03121 0.0
O148 O 0.38767 0.09907 0.05836 0.0
O149 O 0.39361 0.12554 0.03605 0.0
O150 O 0.37263 0.11895 0.99267 0.0
O151 O 0.38699 0.15176 1.0004 0.0
H152 H 0.35444 0.197 0.08607 0.0
H153 H 0.35093 0.22286 0.11935 0.0
H154 H 0.41674 0.23954 0.11091 0.0
H155 H 0.42012 0.21349 0.078 0.0
H156 H 0.3827 0.06807 0.98265 0.0
H157 H 0.38797 0.04028 0.95169 0.0
H158 H 0.32941 0.01106 0.97434 0.0
H159 H 0.32421 0.03888 1.00475 0.0
C160 C 0.07133 0.87191 0.2269 0.0
Eu161 Eu 0.10714 0.88604 0.24466 0.0
C162 C 0.05575 0.87523 0.20673 0.0
C163 C 0.03579 0.88372 0.21216 0.0
C164 C 0.02027 0.88555 0.19394 0.0
C165 C 0.02419 0.87881 0.1697 0.0
C166 C 0.04419 0.87027 0.16422 0.0
C167 C 0.05978 0.8685 0.1825 0.0
C168 C 0.11526 0.92553 0.26228 0.0
C169 C 0.13457 0.90966 0.20071 0.0
C170 C 0.19101 0.90636 0.26654 0.0
Eu171 Eu 0.15328 0.89494 0.25224 0.0
C172 C 0.20615 0.9039 0.28692 0.0
C173 C 0.22216 0.91894 0.28976 0.0
C174 C 0.23766 0.91639 0.3078 0.0
C175 C 0.2375 0.89867 0.32341 0.0
C176 C 0.22124 0.88368 0.32067 0.0
C177 C 0.20565 0.8863 0.30261 0.0
C178 C 0.14536 0.85786 0.22928 0.0
C179 C 0.125 0.87848 0.2989 0.0
O180 O 0.08983 0.86407 0.22124 0.0
O181 O 0.07256 0.88631 0.24407 0.0
O182 O 0.09896 0.91435 0.26868 0.0
O183 O 0.12573 0.9157 0.24635 0.0
O184 O 0.11705 0.89937 0.20689 0.0
O185 O 0.15014 0.91222 0.21655 0.0
O186 O 0.17405 0.91763 0.27063 0.0
O187 O 0.18719 0.88956 0.25338 0.0
O188 O 0.16086 0.8704 0.22414 0.0
O189 O 0.13494 0.86479 0.24754 0.0
O190 O 0.14205 0.88827 0.29086 0.0
O191 O 0.10974 0.87281 0.28359 0.0
H192 H 0.032 0.88866 0.2307 0.0
H193 H 1.00498 0.89184 0.19905 0.0
H194 H 0.04787 0.86508 0.14576 0.0
H195 H 0.0749 0.86166 0.17765 0.0
H196 H 0.2229 0.93254 0.2777 0.0
H197 H 0.25007 0.92811 0.30914 0.0
H198 H 0.22049 0.87 0.33258 0.0
H199 H 0.19338 0.87449 0.30071 0.0
C200 C 0.38835 0.81888 0.4762 0.0
Eu201 Eu 0.37256 0.85294 0.49649 0.0
C202 C 0.38624 0.80459 0.45484 0.0
C203 C 0.36727 0.8028 0.44164 0.0
C204 C 0.36548 0.78815 0.42239 0.0
C205 C 0.38262 0.775 0.41591 0.0
C206 C 0.40173 0.77735 0.42885 0.0
C207 C 0.40349 0.79195 0.44807 0.0
C208 C 0.33365 0.85887 0.517 0.0
C209 C 0.346 0.88161 0.4567 0.0
C210 C 0.34918 0.9347 0.52586 0.0
Eu211 Eu 0.36282 0.89878 0.50857 0.0
C212 C 0.3548 0.95224 0.54231 0.0
C213 C 0.34577 0.97207 0.53793 0.0
C214 C 0.3502 0.98907 0.55337 0.0
C215 C 0.36378 0.98661 0.57363 0.0
C216 C 0.37326 0.96677 0.57767 0.0
C217 C 0.36878 0.94968 0.56212 0.0
C218 C 0.39967 0.89315 0.48405 0.0
C219 C 0.38344 0.86901 0.55154 0.0
O220 O 0.39547 0.83791 0.47199 0.0
O221 O 0.37323 0.81865 0.49258 0.0
O222 O 0.34494 0.8419 0.51995 0.0
O223 O 0.34281 0.8709 0.50203 0.0
O224 O 0.35807 0.86472 0.46017 0.0
O225 O 0.34293 0.89541 0.47455 0.0
O226 O 0.3448 0.9164 0.53589 0.0
O227 O 0.36018 0.93298 0.50565 0.0
O228 O 0.38745 0.90939 0.48167 0.0
O229 O 0.39292 0.88123 0.50106 0.0
O230 O 0.37482 0.88724 0.54539 0.0
O231 O 0.38593 0.85348 0.53543 0.0
H232 H 0.35379 0.81252 0.44641 0.0
H233 H 0.35061 0.78706 0.41264 0.0
H234 H 0.41519 0.76741 0.4247 0.0
H235 H 0.41827 0.79308 0.45802 0.0
H236 H 0.3351 0.97438 0.52259 0.0
H237 H 0.34294 1.00419 0.54945 0.0
H238 H 0.38367 0.96431 0.5932 0.0
H239 H 0.37601 0.93448 0.56571 0.0
C240 C 0.43943 0.13824 0.72762 0.0
Eu241 Eu 0.4042 0.12332 0.74603 0.0
C242 C 0.4548 0.13479 0.70726 0.0
C243 C 0.47345 0.12329 0.71146 0.0
C244 C 0.48871 0.12118 0.693 0.0
C245 C 0.48587 0.1306 0.66978 0.0
C246 C 0.46723 0.14218 0.66558 0.0
C247 C 0.4519 0.14427 0.68408 0.0
C248 C 0.39698 0.0841 0.76497 0.0
C249 C 0.37761 0.09766 0.70305 0.0
C250 C 0.32037 0.1026 0.76821 0.0
Eu251 Eu 0.35801 0.1138 0.7535 0.0
C252 C 0.30454 0.10751 0.78742 0.0
C253 C 0.28524 0.11681 0.78062 0.0
C254 C 0.26937 0.12026 0.79805 0.0
C255 C 0.27237 0.11426 0.82265 0.0
C256 C 0.29188 0.10536 0.82957 0.0
C257 C 0.30781 0.10204 0.81216 0.0
C258 C 0.36561 0.15035 0.72927 0.0
C259 C 0.38541 0.13238 0.79986 0.0
O260 O 0.42067 0.14545 0.72195 0.0
O261 O 0.43873 0.12424 0.74529 0.0
O262 O 0.41352 0.09546 0.77003 0.0
O263 O 0.386 0.09343 0.74905 0.0
O264 O 0.39475 0.10875 0.70876 0.0
O265 O 0.36216 0.09499 0.71903 0.0
O266 O 0.33769 0.09276 0.77473 0.0
O267 O 0.32379 0.1172 0.75173 0.0
O268 O 0.35026 0.13754 0.72452 0.0
O269 O 0.37595 0.14403 0.74788 0.0
O270 O 0.36825 0.12286 0.79172 0.0
O271 O 0.40132 0.13685 0.78487 0.0
H272 H 0.47645 0.11616 0.72921 0.0
H273 H 0.50301 0.1125 0.69717 0.0
H274 H 0.46439 0.14954 0.64792 0.0
H275 H 0.43788 0.15351 0.68026 0.0
H276 H 0.28223 0.12102 0.76164 0.0
H277 H 0.25447 0.12694 0.79208 0.0
H278 H 0.29476 0.10079 0.84845 0.0
H279 H 0.3225 0.09488 0.81804 0.0
C280 C 0.11937 0.18756 0.97614 0.0
Eu281 Eu 0.1361 0.15343 0.99526 0.0
C282 C 0.12212 0.20275 0.9557 0.0
C283 C 0.14185 0.20615 0.94461 0.0
C284 C 0.14415 0.22151 0.92618 0.0
C285 C 0.12676 0.23377 0.91839 0.0
C286 C 0.10692 0.22982 0.92915 0.0
C287 C 0.10466 0.21451 0.94759 0.0
C288 C 0.17596 0.14783 1.01315 0.0
C289 C 0.1616 0.12587 0.95318 0.0
C290 C 0.16165 0.07126 0.02092 0.0
Eu291 Eu 0.1473 0.10754 1.00526 0.0
C292 C 0.15675 0.05381 0.03783 0.0
C293 C 0.14149 0.05577 0.05641 0.0
C294 C 0.13747 0.0388 0.07233 0.0
C295 C 0.14868 0.01968 0.06989 0.0
C296 C 0.16366 0.01783 0.05092 0.0
C297 C 0.16764 0.03472 0.0351 0.0
C298 C 0.10902 0.11316 0.98367 0.0
C299 C 0.12961 0.1365 0.05059 0.0
O300 O 0.11347 0.16842 0.97036 0.0
O301 O 0.13351 0.18778 0.99367 0.0
O302 O 0.16462 0.16459 1.01715 0.0
O303 O 0.16643 0.13596 0.99833 0.0
O304 O 0.1495 0.14255 0.95788 0.0
O305 O 0.16565 0.11175 0.9704 0.0
O306 O 0.16686 0.0894 0.03066 0.0
O307 O 0.14936 0.07331 1.00181 0.0
O308 O 0.12134 0.09721 0.97991 0.0
O309 O 0.11652 0.12476 1.00052 0.0
O310 O 0.13953 0.11932 0.04322 0.0
O311 O 0.12367 0.15134 0.03477 0.0
H312 H 0.15552 0.19713 0.9504 0.0
H313 H 0.15961 0.22382 0.91809 0.0
H314 H 0.09322 0.23901 0.92391 0.0
H315 H 0.08928 0.21213 0.95586 0.0
H316 H 0.13287 0.07041 0.05872 0.0
H317 H 0.12595 0.04082 0.08685 0.0
H318 H 0.17232 1.00326 0.04822 0.0
H319 H 0.17935 0.03288 0.02072 0.0
C320 C 0.8215 0.91053 0.77101 0.0
Eu321 Eu 0.85802 0.89692 0.75514 0.0
C322 C 0.8049 0.90613 0.7892 0.0
C323 C 0.80652 0.8894 0.80601 0.0
C324 C 0.79017 0.88558 0.82286 0.0
C325 C 0.77203 0.89849 0.82315 0.0
C326 C 0.77053 0.91506 0.806 0.0
C327 C 0.7868 0.91883 0.78926 0.0
C328 C 0.86379 0.85936 0.73212 0.0
C329 C 0.887 0.8785 0.80015 0.0
C330 C 0.93821 0.87027 0.72542 0.0
Eu331 Eu 0.90388 0.88605 0.74512 0.0
C332 C 0.95366 0.87375 0.70512 0.0
C333 C 0.97247 0.88494 0.70946 0.0
C334 C 0.98781 0.88694 0.69105 0.0
C335 C 0.98489 0.87772 0.66775 0.0
C336 C 0.96607 0.86649 0.6634 0.0
C337 C 0.95068 0.8645 0.68185 0.0
C338 C 0.89808 0.92548 0.76415 0.0
C339 C 0.8763 0.91232 0.70346 0.0
O340 O 0.83963 0.91745 0.77926 0.0
O341 O 0.82365 0.89683 0.75328 0.0
O342 O 0.84807 0.87198 0.72836 0.0
O343 O 0.87528 0.86624 0.74946 0.0
O344 O 0.86984 0.88863 0.793 0.0
O345 O 0.90177 0.87273 0.78419 0.0
O346 O 0.91909 0.86423 0.71955 0.0
O347 O 0.9383 0.88355 0.74384 0.0
O348 O 0.91473 0.91396 0.7682 0.0
O349 O 0.88643 0.91628 0.74882 0.0
O350 O 0.89321 0.90051 0.70815 0.0
O351 O 0.8618 0.91566 0.72047 0.0
H352 H 0.82041 0.87939 0.80614 0.0
H353 H 0.79191 0.87281 0.83594 0.0
H354 H 0.75667 0.92508 0.80539 0.0
H355 H 0.7852 0.93169 0.77625 0.0
H356 H 0.97556 0.89189 0.72728 0.0
H357 H 1.00223 0.89535 0.69535 0.0
H358 H 0.96315 0.8593 0.64567 0.0
H359 H 0.93654 0.85549 0.67793 0.0
C360 C 0.85046 0.07076 0.51801 0.0
Eu361 Eu 0.86434 0.10758 0.50359 0.0
C362 C 0.854 0.0543 0.53666 0.0
C363 C 0.87113 0.05512 0.55302 0.0
C364 C 0.87429 0.03882 0.57012 0.0
C365 C 0.86033 0.02151 0.57113 0.0
C366 C 0.8433 0.02085 0.55451 0.0
C367 C 0.84019 0.03707 0.53751 0.0
C368 C 0.90176 0.11422 0.4809 0.0
C369 C 0.88347 0.13456 0.55011 0.0
C370 C 0.88947 0.18932 0.47919 0.0
Eu371 Eu 0.87444 0.15368 0.49637 0.0
C372 C 0.88719 0.2041 0.45828 0.0
C373 C 0.8684 0.20551 0.44468 0.0
C374 C 0.86643 0.22039 0.42568 0.0
C375 C 0.88324 0.23413 0.41981 0.0
C376 C 0.90221 0.23221 0.43314 0.0
C377 C 0.90412 0.21739 0.45214 0.0
C378 C 0.83469 0.14606 0.51391 0.0
C379 C 0.85039 0.12722 0.45215 0.0
O380 O 0.84243 0.08869 0.52549 0.0
O381 O 0.86536 0.07327 0.50166 0.0
O382 O 0.88915 0.09863 0.47643 0.0
O383 O 0.89494 0.1252 0.4988 0.0
O384 O 0.87401 0.11739 0.54186 0.0
O385 O 0.88754 0.15072 0.53535 0.0
O386 O 0.89774 0.17086 0.47445 0.0
O387 O 0.87381 0.18814 0.49481 0.0
O388 O 0.84619 0.16205 0.52062 0.0
O389 O 0.84447 0.13573 0.49784 0.0
O390 O 0.8615 0.14422 0.4583 0.0
O391 O 0.84693 0.11194 0.46813 0.0
H392 H 0.88202 0.0683 0.55253 0.0
H393 H 0.88744 0.03994 0.58278 0.0
H394 H 0.83245 0.00764 0.55444 0.0
H395 H 0.82699 0.03609 0.52487 0.0
H396 H 0.85518 0.19527 0.44891 0.0
H397 H 0.85169 0.22116 0.41562 0.0
H398 H 0.9154 0.24261 0.42943 0.0
H399 H 0.91879 0.21655 0.46237 0.0
C400 C 0.68716 0.09977 0.2745 0.0
Eu401 Eu 0.65123 0.11294 0.25649 0.0
C402 C 0.70376 0.10538 0.29257 0.0
C403 C 0.71717 0.12284 0.28905 0.0
C404 C 0.73414 0.1265 0.30503 0.0
C405 C 0.73812 0.11272 0.32477 0.0
C406 C 0.72427 0.09567 0.32865 0.0
C407 C 0.70736 0.09201 0.31269 0.0
C408 C 0.64625 0.1509 0.23394 0.0
C409 C 0.62096 0.13101 0.30034 0.0
C410 C 0.57201 0.14031 0.2242 0.0
Eu411 Eu 0.60574 0.12391 0.24463 0.0
C412 C 0.55698 0.13727 0.20368 0.0
C413 C 0.5534 0.11733 0.19321 0.0
C414 C 0.53809 0.11479 0.17478 0.0
C415 C 0.52607 0.13213 0.16638 0.0
C416 C 0.53021 0.15214 0.17652 0.0
C417 C 0.54546 0.15465 0.19495 0.0
C418 C 0.6108 0.08437 0.26376 0.0
C419 C 0.63434 0.09745 0.20422 0.0
O420 O 0.66877 0.09382 0.28304 0.0
O421 O 0.68554 0.11138 0.25474 0.0
O422 O 0.66218 0.13843 0.23087 0.0
O423 O 0.63416 0.14369 0.25052 0.0
O424 O 0.63812 0.12057 0.29395 0.0
O425 O 0.60684 0.13714 0.28379 0.0
O426 O 0.5913 0.14587 0.21852 0.0
O427 O 0.57143 0.12662 0.2422 0.0
O428 O 0.59406 0.09592 0.26707 0.0
O429 O 0.62299 0.0936 0.24901 0.0
O430 O 0.61758 0.10971 0.20802 0.0
O431 O 0.64808 0.09384 0.22201 0.0
H432 H 0.71492 0.13341 0.27363 0.0
H433 H 0.74456 0.13969 0.30141 0.0
H434 H 0.7266 0.08496 0.34393 0.0
H435 H 0.69734 0.0784 0.31581 0.0
H436 H 0.56223 0.10371 0.19951 0.0
H437 H 0.53562 0.09919 0.16718 0.0
H438 H 0.52118 0.16582 0.1708 0.0
H439 H 0.54797 0.17018 0.20276 0.0
C440 C 0.65913 0.93594 0.0226 0.0
Eu441 Eu 0.6471 0.89907 1.00636 0.0
C442 C 0.65357 0.952 0.04132 0.0
C443 C 0.64646 0.97198 0.03369 0.0
C444 C 0.64269 0.98801 0.05082 0.0
C445 C 0.6462 0.98449 0.07598 0.0
C446 C 0.65282 0.96432 0.08368 0.0
C447 C 0.65643 0.94823 0.06656 0.0
C448 C 0.61035 0.89218 0.98225 0.0
C449 C 0.62681 0.87122 0.05139 0.0
C450 C 0.62215 0.81791 0.97865 0.0
Eu451 Eu 0.63742 0.85283 0.99748 0.0
C452 C 0.62456 0.8032 0.95768 0.0
C453 C 0.64382 0.80085 0.94516 0.0
C454 C 0.64582 0.78593 0.9262 0.0
C455 C 0.62859 0.77307 0.9193 0.0
C456 C 0.60921 0.77595 0.93156 0.0
C457 C 0.60726 0.7908 0.9505 0.0
C458 C 0.6764 0.85984 1.01729 0.0
C459 C 0.66341 0.88025 0.9555 0.0
O460 O 0.66732 0.91806 0.03011 0.0
O461 O 0.64587 0.93344 1.00443 0.0
O462 O 0.62291 0.90791 0.97819 0.0
O463 O 0.61694 0.88121 1.00021 0.0
O464 O 0.63623 0.88864 0.04386 0.0
O465 O 0.62352 0.85511 0.03626 0.0
O466 O 0.61459 0.83668 0.97387 0.0
O467 O 0.63729 0.81841 0.995 0.0
O468 O 0.665 0.84321 0.02184 0.0
O469 O 0.6672 0.87096 1.0014 0.0
O470 O 0.65192 0.86319 0.96045 0.0
O471 O 0.66627 0.89515 0.97212 0.0
H472 H 0.64427 0.97537 1.01434 0.0
H473 H 0.63781 1.00341 0.04427 0.0
H474 H 0.65541 0.96103 0.10298 0.0
H475 H 0.66183 0.933 0.07309 0.0
H476 H 0.65736 0.81036 0.95021 0.0
H477 H 0.6609 0.78445 0.91698 0.0
H478 H 0.59567 0.76625 0.92706 0.0
H479 H 0.59225 0.79235 0.9599 0.0
C480 C 0.82131 0.10197 0.7646 0.0
Eu481 Eu 0.85839 0.11354 0.78087 0.0
C482 C 0.80532 0.10743 0.74568 0.0
C483 C 0.7879 0.12022 0.75179 0.0
C484 C 0.77168 0.12379 0.73481 0.0
C485 C 0.77236 0.11444 0.71142 0.0
C486 C 0.79001 0.10206 0.70511 0.0
C487 C 0.80628 0.09856 0.72203 0.0
C488 C 0.86531 0.15098 0.80359 0.0
C489 C 0.88744 0.1309 0.73536 0.0
C490 C 0.93933 0.13798 0.80965 0.0
Eu491 Eu 0.90448 0.1231 0.79023 0.0
C492 C 0.95486 0.13414 0.82979 0.0
C493 C 0.97388 0.12349 0.8249 0.0
C494 C 0.98931 0.12116 0.84316 0.0
C495 C 0.98626 0.12951 0.86688 0.0
C496 C 0.96723 0.14023 0.87179 0.0
C497 C 0.95175 0.14254 0.85349 0.0
C498 C 0.89761 0.08378 0.77143 0.0
C499 C 0.87651 0.09767 0.83229 0.0
O500 O 0.83906 0.09338 0.75733 0.0
O501 O 0.82405 0.11539 0.78253 0.0
O502 O 0.84949 0.13864 0.80787 0.0
O503 O 0.87645 0.1438 0.78609 0.0
O504 O 0.87011 0.12132 0.74286 0.0
O505 O 0.90254 0.13629 0.75107 0.0
O506 O 0.9204 0.14449 0.81568 0.0
O507 O 0.93898 0.12469 0.79125 0.0
O508 O 0.91445 0.0949 0.76713 0.0
O509 O 0.88627 0.09329 0.78685 0.0
O510 O 0.89371 0.10896 0.82731 0.0
O511 O 0.86171 0.09477 0.81555 0.0
H512 H 0.78651 0.12706 0.76995 0.0
H513 H 0.75821 0.13321 0.74035 0.0
H514 H 0.79115 0.09484 0.68712 0.0
H515 H 0.81937 0.08853 0.71673 0.0
H516 H 0.97706 0.11722 0.80675 0.0
H517 H 1.00388 0.11316 0.83845 0.0
H518 H 0.96421 0.14674 0.88985 0.0
H519 H 0.93743 0.15112 0.85787 0.0
C520 C 0.66005 0.07215 0.51568 0.0
Eu521 Eu 0.64623 0.10881 0.53069 0.0
C522 C 0.65643 0.0556 0.4972 0.0
C523 C 0.63894 0.05604 0.48134 0.0
C524 C 0.63575 0.03964 0.46441 0.0
C525 C 0.65005 0.0226 0.46307 0.0
C526 C 0.66744 0.02232 0.47918 0.0
C527 C 0.67058 0.03864 0.49601 0.0
C528 C 0.60902 0.11566 0.55373 0.0
C529 C 0.62688 0.13671 0.485 0.0
C530 C 0.62182 0.19056 0.55704 0.0
Eu531 Eu 0.6366 0.15509 0.53905 0.0
C532 C 0.62386 0.20495 0.57838 0.0
C533 C 0.64292 0.20712 0.59134 0.0
C534 C 0.64463 0.2218 0.61058 0.0
C535 C 0.6273 0.23459 0.61734 0.0
C536 C 0.6081 0.23186 0.60469 0.0
C537 C 0.60644 0.21724 0.58545 0.0
C538 C 0.67615 0.14723 0.52102 0.0
C539 C 0.66066 0.12763 0.58242 0.0
O540 O 0.66773 0.09016 0.50797 0.0
O541 O 0.64545 0.07449 0.53244 0.0
O542 O 0.62131 0.09969 0.55772 0.0
O543 O 0.61598 0.1268 0.53606 0.0
O544 O 0.63604 0.11918 0.49276 0.0
O545 O 0.62341 0.15281 0.50004 0.0
O546 O 0.61321 0.17213 0.56105 0.0
O547 O 0.63771 0.18948 0.54171 0.0
O548 O 0.66487 0.16356 0.51486 0.0
O549 O 0.66629 0.13674 0.53686 0.0
O550 O 0.64949 0.14475 0.57686 0.0
O551 O 0.66401 0.11269 0.56597 0.0
H552 H 0.6278 0.06901 0.48209 0.0
H553 H 0.62231 0.04045 0.45213 0.0
H554 H 0.67857 0.00933 0.47898 0.0
H555 H 0.68406 0.03795 0.50826 0.0
H556 H 0.65655 0.19768 0.58641 0.0
H557 H 0.65958 0.22318 0.62011 0.0
H558 H 0.59449 0.2415 0.60909 0.0
H559 H 0.59156 0.21581 0.57573 0.0
C560 C 0.68732 0.90869 0.26278 0.0
Eu561 Eu 0.65071 0.89672 0.28008 0.0
C562 C 0.70326 0.90295 0.24393 0.0
C563 C 0.72107 0.89087 0.25044 0.0
C564 C 0.73723 0.88711 0.23344 0.0
C565 C 0.73607 0.89556 0.2096 0.0
C566 C 0.71802 0.9072 0.20291 0.0
C567 C 0.70183 0.91089 0.21987 0.0
C568 C 0.64469 0.8592 0.30311 0.0
C569 C 0.62105 0.87844 0.23575 0.0
C570 C 0.57057 0.87126 0.31101 0.0
Eu571 Eu 0.60491 0.88661 0.29088 0.0
C572 C 0.55498 0.87481 0.33114 0.0
C573 C 0.53566 0.8849 0.32618 0.0
C574 C 0.52011 0.88671 0.34437 0.0
C575 C 0.52333 0.87838 0.36809 0.0
C576 C 0.54269 0.8683 0.37308 0.0
C577 C 0.55829 0.86651 0.35485 0.0
C578 C 0.61099 0.92597 0.27164 0.0
C579 C 0.63338 0.91258 0.33193 0.0
O580 O 0.66927 0.91654 0.25533 0.0
O581 O 0.6851 0.89587 0.28141 0.0
O582 O 0.66053 0.87166 0.3068 0.0
O583 O 0.63311 0.86628 0.28596 0.0
O584 O 0.6382 0.88877 0.24242 0.0
O585 O 0.60656 0.87273 0.25207 0.0
O586 O 0.5897 0.86532 0.31704 0.0
O587 O 0.57047 0.88433 0.29237 0.0
O588 O 0.59413 0.91469 0.26793 0.0
O589 O 0.62271 0.91659 0.28677 0.0
O590 O 0.61633 0.90087 0.32762 0.0
O591 O 0.64768 0.91573 0.31463 0.0
H592 H 0.72282 0.88476 0.26892 0.0
H593 H 0.75101 0.87829 0.23926 0.0
H594 H 0.71652 0.91371 0.18459 0.0
H595 H 0.68842 0.92036 0.21425 0.0
H596 H 0.53234 0.89107 0.30803 0.0
H597 H 0.5053 0.89423 0.3396 0.0
H598 H 0.54585 0.86184 0.39113 0.0
H599 H 0.57284 0.85834 0.35927 0.0
C600 C 0.84923 0.93664 1.01378 0.0
Eu601 Eu 0.86375 0.90052 0.02965 0.0
C602 C 0.85336 0.95375 0.99616 0.0
C603 C 0.87029 0.95296 0.97953 0.0
C604 C 0.87372 0.9697 0.96309 0.0
C605 C 0.86024 0.98743 0.96307 0.0
C606 C 0.84351 0.98811 0.98008 0.0
C607 C 0.84011 0.97145 0.9964 0.0
C608 C 0.9009 0.89473 0.05338 0.0
C609 C 0.88425 0.8724 0.985 0.0
C610 C 0.89037 0.81991 0.05873 0.0
Eu611 Eu 0.87443 0.85436 0.03945 0.0
C612 C 0.88752 0.80511 0.07954 0.0
C613 C 0.86805 0.80294 0.09163 0.0
C614 C 0.8656 0.78798 0.11048 0.0
C615 C 0.88258 0.7749 0.11769 0.0
C616 C 0.90218 0.7776 0.10586 0.0
C617 C 0.90458 0.7925 0.08702 0.0
C618 C 0.83502 0.86064 0.02035 0.0
C619 C 0.84841 0.8818 0.08122 0.0
O620 O 0.84334 0.91838 1.00485 0.0
O621 O 0.86246 0.93481 0.03208 0.0
O622 O 0.88839 0.91065 0.05663 0.0
O623 O 0.89424 0.88316 0.03597 0.0
O624 O 0.87471 0.88986 0.99226 0.0
O625 O 0.88791 0.85656 1.00044 0.0
O626 O 0.89704 0.83891 0.06399 0.0
O627 O 0.87588 0.81996 0.04159 0.0
O628 O 0.84634 0.84388 1.01626 0.0
O629 O 0.84445 0.8721 0.03565 0.0
O630 O 0.86025 0.86493 0.07653 0.0
O631 O 0.84501 0.89629 0.06424 0.0
H632 H 0.88074 0.93942 0.97921 0.0
H633 H 0.88664 0.96859 0.95012 0.0
H634 H 0.83305 1.00163 0.98092 0.0
H635 H 0.82709 0.9724 1.00927 0.0
H636 H 0.85469 0.81263 0.08633 0.0
H637 H 0.85035 0.78663 0.11937 0.0
H638 H 0.91554 0.76773 0.11062 0.0
H639 H 0.91976 0.79392 0.07795 0.0
C640 C 0.56972 0.63752 0.80974 0.0
Eu641 Eu 0.60409 0.62258 0.78924 0.0
C642 C 0.55463 0.63407 0.83038 0.0
C643 C 0.53638 0.62178 0.82693 0.0
C644 C 0.52118 0.62001 0.84552 0.0
C645 C 0.52369 0.63056 0.86812 0.0
C646 C 0.542 0.64281 0.87161 0.0
C647 C 0.55724 0.64457 0.85298 0.0
C648 C 0.61036 0.58373 0.76881 0.0
C649 C 0.63267 0.59626 0.82942 0.0
C650 C 0.68626 0.60006 0.76092 0.0
Eu651 Eu 0.65002 0.61335 0.7778 0.0
C652 C 0.70344 0.60521 0.74376 0.0
C653 C 0.70135 0.6209 0.72571 0.0
C654 C 0.71813 0.62515 0.70959 0.0
C655 C 0.73719 0.61372 0.7113 0.0
C656 C 0.73918 0.5983 0.72977 0.0
C657 C 0.72248 0.5941 0.74578 0.0
C658 C 0.64372 0.65002 0.8025 0.0
C659 C 0.62058 0.63396 0.73456 0.0
O660 O 0.58878 0.64408 0.81509 0.0
O661 O 0.56966 0.62401 0.79156 0.0
O662 O 0.59342 0.595 0.76563 0.0
O663 O 0.62228 0.5929 0.78393 0.0
O664 O 0.61546 0.60779 0.82554 0.0
O665 O 0.64693 0.59367 0.81197 0.0
O666 O 0.66803 0.59456 0.75152 0.0
O667 O 0.68435 0.6122 0.78019 0.0
O668 O 0.65996 0.63784 0.80527 0.0
O669 O 0.63214 0.64328 0.78516 0.0
O670 O 0.63876 0.62529 0.74085 0.0
O671 O 0.60495 0.63642 0.75054 0.0
H672 H 0.53357 0.61383 0.80963 0.0
H673 H 0.50714 0.61077 0.84187 0.0
H674 H 0.54461 0.65102 0.88879 0.0
H675 H 0.57093 0.65445 0.85617 0.0
H676 H 0.68674 0.62971 0.72397 0.0
H677 H 0.71603 0.63702 0.69547 0.0
H678 H 0.75371 0.58946 0.73192 0.0
H679 H 0.72443 0.58206 0.75976 0.0
C680 C 0.62144 0.31952 0.05828 0.0
Eu681 Eu 0.63632 0.35431 0.03871 0.0
C682 C 0.62509 0.30417 0.07866 0.0
C683 C 0.63539 0.28491 0.07399 0.0
C684 C 0.63747 0.26962 0.09245 0.0
C685 C 0.6292 0.27302 0.11615 0.0
C686 C 0.61888 0.29231 0.12085 0.0
C687 C 0.61683 0.30766 0.10235 0.0
C688 C 0.67537 0.36112 0.01904 0.0
C689 C 0.66256 0.38175 0.08037 0.0
C690 C 0.65957 0.43726 1.0138 0.0
Eu691 Eu 0.64616 0.40064 0.02942 0.0
C692 C 0.65532 0.4539 0.99562 0.0
C693 C 0.63778 0.4531 0.97988 0.0
C694 C 0.63417 0.46943 0.96296 0.0
C695 C 0.64809 0.48675 0.96152 0.0
C696 C 0.6655 0.48743 0.97757 0.0
C697 C 0.66907 0.47117 0.9944 0.0
C698 C 0.60938 0.39378 0.05362 0.0
C699 C 0.62563 0.37269 0.98471 0.0
O700 O 0.61471 0.33844 0.06397 0.0
O701 O 0.63497 0.31982 0.04009 0.0
O702 O 0.66417 0.34429 1.01498 0.0
O703 O 0.66607 0.37246 0.03461 0.0
O704 O 0.65088 0.36479 0.07564 0.0
O705 O 0.66543 0.39651 0.06357 0.0
O706 O 0.66671 0.41921 1.00552 0.0
O707 O 0.6457 0.43497 0.03139 0.0
O708 O 0.6218 0.40967 0.05742 0.0
O709 O 0.61604 0.3828 0.03573 0.0
O710 O 0.63519 0.39011 0.992 0.0
O711 O 0.6222 0.35672 1.00003 0.0
H712 H 0.64156 0.28146 0.05587 0.0
H713 H 0.64517 0.25486 0.08789 0.0
H714 H 0.61245 0.29562 0.13888 0.0
H715 H 0.60853 0.32217 0.10658 0.0
H716 H 0.62696 0.43987 0.98066 0.0
H717 H 0.62072 0.46832 0.95073 0.0
H718 H 0.67634 0.50065 0.9773 0.0
H719 H 0.68259 0.47212 1.00655 0.0
C720 C 0.94077 0.37294 0.30903 0.0
Eu721 Eu 0.90542 0.38666 0.28959 0.0
C722 C 0.956 0.37692 0.32942 0.0
C723 C 0.97496 0.38777 0.32478 0.0
C724 C 0.99021 0.39017 0.34322 0.0
C725 C 0.98705 0.38169 0.36687 0.0
C726 C 0.96807 0.37082 0.37154 0.0
C727 C 0.95276 0.36845 0.35306 0.0
C728 C 0.89766 0.42528 0.26927 0.0
C729 C 0.87748 0.41268 0.33109 0.0
C730 C 0.82169 0.40529 0.26487 0.0
Eu731 Eu 0.85921 0.39488 0.28072 0.0
C732 C 0.80607 0.39968 0.24572 0.0
C733 C 0.78606 0.39227 0.25283 0.0
C734 C 0.77038 0.38844 0.23529 0.0
C735 C 0.7743 0.39217 0.21026 0.0
C736 C 0.79453 0.39905 0.20308 0.0
C737 C 0.81028 0.40273 0.22061 0.0
C738 C 0.86725 0.35872 0.30568 0.0
C739 C 0.88758 0.37558 0.23566 0.0
O740 O 0.9221 0.3655 0.31466 0.0
O741 O 0.93996 0.3866 0.29102 0.0
O742 O 0.91455 0.41418 0.26501 0.0
O743 O 0.88659 0.41606 0.2852 0.0
O744 O 0.8948 0.4015 0.32636 0.0
O745 O 0.86249 0.41478 0.31443 0.0
O746 O 0.83905 0.41487 0.25802 0.0
O747 O 0.82495 0.39136 0.28217 0.0
O748 O 0.8515 0.37121 0.30993 0.0
O749 O 0.87779 0.36517 0.2873 0.0
O750 O 0.86999 0.38474 0.24309 0.0
O751 O 0.90356 0.37235 0.251 0.0
H752 H 0.97822 0.39411 0.30669 0.0
H753 H 1.00475 0.3983 0.3387 0.0
H754 H 0.96497 0.36421 0.38953 0.0
H755 H 0.9385 0.35973 0.35725 0.0
H756 H 0.78238 0.38991 0.27207 0.0
H757 H 0.75492 0.38335 0.24142 0.0
H758 H 0.79811 0.40183 0.18389 0.0
H759 H 0.82557 0.40833 0.2145 0.0
C760 C 0.88947 0.69068 0.55795 0.0
Eu761 Eu 0.87365 0.65619 0.53872 0.0
C762 C 0.88687 0.70542 0.57886 0.0
C763 C 0.86714 0.70899 0.58989 0.0
C764 C 0.86504 0.72394 0.60878 0.0
C765 C 0.88264 0.73561 0.6171 0.0
C766 C 0.90246 0.73149 0.60637 0.0
C767 C 0.90451 0.7166 0.58748 0.0
C768 C 0.83445 0.64999 0.51924 0.0
C769 C 0.8474 0.62894 0.58061 0.0
C770 C 0.85088 0.57358 0.51306 0.0
Eu771 Eu 0.8633 0.61023 0.52954 0.0
C772 C 0.8565 0.55765 0.49422 0.0
C773 C 0.86462 0.53799 0.50162 0.0
C774 C 0.86861 0.52211 0.48438 0.0
C775 C 0.86431 0.52545 0.45936 0.0
C776 C 0.85662 0.54529 0.45188 0.0
C777 C 0.85277 0.56123 0.4691 0.0
C778 C 0.90017 0.61641 0.55366 0.0
C779 C 0.88366 0.63807 0.48457 0.0
O780 O 0.89638 0.67171 0.56301 0.0
O781 O 0.87478 0.69059 0.54104 0.0
O782 O 0.84603 0.66652 0.51485 0.0
O783 O 0.84356 0.63851 0.53485 0.0
O784 O 0.85897 0.64594 0.57567 0.0
O785 O 0.84434 0.61411 0.56396 0.0
O786 O 0.84286 0.59158 0.50567 0.0
O787 O 0.86406 0.57587 0.53135 0.0
O788 O 0.88735 0.60088 0.55757 0.0
O789 O 0.89379 0.62756 0.53574 0.0
O790 O 0.87404 0.62074 0.49202 0.0
O791 O 0.88734 0.65398 0.49985 0.0
H792 H 0.85332 0.70041 0.58372 0.0
H793 H 0.84959 0.72639 0.61682 0.0
H794 H 0.91632 0.74025 0.61201 0.0
H795 H 0.9199 0.71408 0.57926 0.0
H796 H 0.86747 0.53472 0.52088 0.0
H797 H 0.87432 0.50694 0.49076 0.0
H798 H 0.85336 0.54842 0.43268 0.0
H799 H 0.84655 0.5762 0.46274 0.0
C800 C 0.57056 0.36939 0.72552 0.0
Eu801 Eu 0.60483 0.38549 0.745 0.0
C802 C 0.55553 0.37227 0.70494 0.0
C803 C 0.55195 0.39209 0.69416 0.0
C804 C 0.53678 0.39443 0.67552 0.0
C805 C 0.52489 0.37698 0.6672 0.0
C806 C 0.52899 0.35708 0.67771 0.0
C807 C 0.5441 0.35479 0.69635 0.0
C808 C 0.61081 0.42515 0.76333 0.0
C809 C 0.63283 0.41088 0.70324 0.0
C810 C 0.68733 0.40967 0.77106 0.0
Eu811 Eu 0.65077 0.39602 0.75537 0.0
C812 C 0.70402 0.40588 0.78934 0.0
C813 C 0.7033 0.38875 0.8057 0.0
C814 C 0.71986 0.38544 0.82244 0.0
C815 C 0.73731 0.39924 0.82307 0.0
C816 C 0.73787 0.41625 0.80643 0.0
C817 C 0.72141 0.41951 0.7898 0.0
C818 C 0.64484 0.35839 0.73251 0.0
C819 C 0.62142 0.37796 0.80019 0.0
O820 O 0.58966 0.36316 0.71994 0.0
O821 O 0.57043 0.38354 0.74303 0.0
O822 O 0.594 0.41387 0.76736 0.0
O823 O 0.6226 0.41558 0.74844 0.0
O824 O 0.61582 0.39927 0.70792 0.0
O825 O 0.64725 0.41431 0.72031 0.0
O826 O 0.66922 0.41693 0.77901 0.0
O827 O 0.68514 0.39546 0.75388 0.0
O828 O 0.66069 0.37085 0.72884 0.0
O829 O 0.63333 0.36547 0.74975 0.0
O830 O 0.63868 0.388 0.79322 0.0
O831 O 0.60669 0.37232 0.78413 0.0
H832 H 0.56071 0.40579 0.70032 0.0
H833 H 0.53433 0.40995 0.66766 0.0
H834 H 0.52006 0.34333 0.67209 0.0
H835 H 0.5466 0.33934 0.70439 0.0
H836 H 0.68998 0.37801 0.80551 0.0
H837 H 0.71883 0.3723 0.83512 0.0
H838 H 0.75119 0.42698 0.80607 0.0
H839 H 0.72232 0.4327 0.77715 0.0
C840 C 0.88976 0.32145 0.97608 0.0
Eu841 Eu 0.87369 0.35566 0.9957 0.0
C842 C 0.8861 0.30579 0.95608 0.0
C843 C 0.87432 0.28737 0.96055 0.0
C844 C 0.87209 0.2719 0.94235 0.0
C845 C 0.88164 0.2743 0.91913 0.0
C846 C 0.89349 0.29271 0.91467 0.0
C847 C 0.89572 0.30823 0.93291 0.0
C848 C 0.83394 0.36115 1.01399 0.0
C849 C 0.84774 0.38313 0.95376 0.0
C850 C 0.84864 0.43782 0.02125 0.0
Eu851 Eu 0.86266 0.4014 1.0056 0.0
C852 C 0.85312 0.45486 0.03882 0.0
C853 C 0.86958 0.45343 0.05601 0.0
C854 C 0.87341 0.47015 0.07233 0.0
C855 C 0.86079 0.48848 0.0717 0.0
C856 C 0.8445 0.48979 0.05417 0.0
C857 C 0.84072 0.47315 0.03795 0.0
C858 C 0.90065 0.3957 0.98331 0.0
C859 C 0.88088 0.37258 0.05079 0.0
O860 O 0.89531 0.34061 0.96976 0.0
O861 O 0.87688 0.32132 0.9949 0.0
O862 O 0.84548 0.34454 0.01808 0.0
O863 O 0.8433 0.37303 0.999 0.0
O864 O 0.85958 0.36628 0.95854 0.0
O865 O 0.84417 0.39754 0.97077 0.0
O866 O 0.84246 0.41968 0.03021 0.0
O867 O 0.86185 0.43571 1.00299 0.0
O868 O 0.88813 0.41147 0.97942 0.0
O869 O 0.89346 0.38424 1.00048 0.0
O870 O 0.87066 0.38965 0.04357 0.0
O871 O 0.88683 0.35786 0.03486 0.0
H872 H 0.86706 0.2847 0.97829 0.0
H873 H 0.86319 0.25779 0.94673 0.0
H874 H 0.90095 0.29523 0.89701 0.0
H875 H 0.90518 0.32205 0.92891 0.0
H876 H 0.87936 0.4394 0.05686 0.0
H877 H 0.88596 0.46855 0.08572 0.0
H878 H 0.83471 0.50377 0.05285 0.0
H879 H 0.82806 0.47459 0.02464 0.0
C880 C 0.93841 0.63954 0.22515 0.0
Eu881 Eu 0.90415 0.62342 0.24465 0.0
C882 C 0.95328 0.63677 0.20439 0.0
C883 C 0.95664 0.61703 0.19334 0.0
C884 C 0.97168 0.61476 0.17454 0.0
C885 C 0.98365 0.63219 0.16633 0.0
C886 C 0.97975 0.65202 0.17709 0.0
C887 C 0.96477 0.65425 0.19589 0.0
C888 C 0.89815 0.58378 0.26289 0.0
C889 C 0.87595 0.59839 0.20262 0.0
C890 C 0.82144 0.59997 0.27055 0.0
Eu891 Eu 0.85822 0.61303 0.25483 0.0
C892 C 0.80555 0.60329 0.28991 0.0
C893 C 0.78938 0.5884 0.29264 0.0
C894 C 0.77341 0.59145 0.30997 0.0
C895 C 0.77325 0.60949 0.32505 0.0
C896 C 0.78957 0.62444 0.32229 0.0
C897 C 0.80563 0.62134 0.30487 0.0
C898 C 0.86453 0.65072 0.23221 0.0
C899 C 0.88765 0.63051 0.29987 0.0
O900 O 0.91931 0.64595 0.2198 0.0
O901 O 0.93855 0.6252 0.24246 0.0
O902 O 0.91486 0.59515 0.26713 0.0
O903 O 0.88634 0.59329 0.24792 0.0
O904 O 0.89315 0.60965 0.20755 0.0
O905 O 0.8613 0.59517 0.21948 0.0
O906 O 0.83933 0.59119 0.27693 0.0
O907 O 0.82392 0.61526 0.25472 0.0
O908 O 0.84881 0.63823 0.22798 0.0
O909 O 0.87579 0.6435 0.24958 0.0
O910 O 0.87045 0.62044 0.29278 0.0
O911 O 0.90233 0.63638 0.28386 0.0
H912 H 0.94783 0.60333 0.19942 0.0
H913 H 0.97395 0.5993 0.16648 0.0
H914 H 0.98874 0.66576 0.17155 0.0
H915 H 0.96242 0.66964 0.20413 0.0
H916 H 0.78896 0.57446 0.2811 0.0
H917 H 0.76096 0.57977 0.31128 0.0
H918 H 0.79006 0.63839 0.33376 0.0
H919 H 0.818 0.63304 0.30298 0.0
C920 C 0.62056 0.68977 0.47601 0.0
Eu921 Eu 0.63679 0.65594 0.49635 0.0
C922 C 0.62288 0.7043 0.45489 0.0
C923 C 0.64216 0.70673 0.44246 0.0
C924 C 0.64409 0.72158 0.42343 0.0
C925 C 0.62679 0.73429 0.4164 0.0
C926 C 0.60738 0.73131 0.42855 0.0
C927 C 0.60549 0.71651 0.44756 0.0
C928 C 0.6759 0.65017 0.51632 0.0
C929 C 0.66324 0.6273 0.45636 0.0
C930 C 0.66145 0.57433 0.52563 0.0
Eu931 Eu 0.64694 0.60999 0.50853 0.0
C932 C 0.65698 0.55692 0.54271 0.0
C933 C 0.64038 0.55781 0.55978 0.0
C934 C 0.63671 0.54076 0.57569 0.0
C935 C 0.64964 0.52265 0.57476 0.0
C936 C 0.666 0.52186 0.55729 0.0
C937 C 0.66962 0.53882 0.54149 0.0
C938 C 0.60999 0.61546 0.48422 0.0
C939 C 0.62622 0.63966 0.55148 0.0
O940 O 0.61407 0.6706 0.47131 0.0
O941 O 0.63523 0.69024 0.49293 0.0
O942 O 0.66473 0.66723 0.51915 0.0
O943 O 0.66655 0.63806 0.50162 0.0
O944 O 0.65136 0.64431 0.46001 0.0
O945 O 0.66627 0.61335 0.47408 0.0
O946 O 0.66617 0.59275 0.5351 0.0
O947 O 0.6493 0.57576 0.50629 0.0
O948 O 0.6222 0.5992 0.48187 0.0
O949 O 0.61678 0.62744 0.50114 0.0
O950 O 0.63492 0.62146 0.54533 0.0
O951 O 0.62359 0.65519 0.53538 0.0
H952 H 0.65576 0.69735 0.44767 0.0
H953 H 0.6592 0.72316 0.41428 0.0
H954 H 0.59378 0.7409 0.42395 0.0
H955 H 0.59046 0.71489 0.45691 0.0
H956 H 0.63039 0.57168 0.56087 0.0
H957 H 0.62408 0.54193 0.58904 0.0
H958 H 0.67601 0.50806 0.55574 0.0
H959 H 0.68238 0.5378 0.52826 0.0
C960 C 0.32209 0.40747 0.27112 0.0
Eu961 Eu 0.35908 0.3954 0.25501 0.0
C962 C 0.30601 0.40233 0.29003 0.0
C963 C 0.28757 0.39135 0.28333 0.0
C964 C 0.27134 0.38806 0.30036 0.0
C965 C 0.27306 0.3959 0.32442 0.0
C966 C 0.29171 0.40647 0.33128 0.0
C967 C 0.30799 0.40966 0.31429 0.0
C968 C 0.36534 0.35796 0.23192 0.0
C969 C 0.38801 0.3777 0.30041 0.0
C970 C 0.4395 0.36938 0.22643 0.0
Eu971 Eu 0.40487 0.38518 0.24543 0.0
C972 C 0.45436 0.37211 0.20568 0.0
C973 C 0.45704 0.39165 0.19391 0.0
C974 C 0.47213 0.39396 0.17519 0.0
C975 C 0.48483 0.37677 0.1678 0.0
C976 C 0.48161 0.35711 0.17927 0.0
C977 C 0.46658 0.35484 0.19799 0.0
C978 C 0.39866 0.42463 0.26432 0.0
C979 C 0.37717 0.41079 0.20344 0.0
O980 O 0.33992 0.41594 0.2783 0.0
O981 O 0.32473 0.39384 0.25338 0.0
O982 O 0.34978 0.37066 0.22774 0.0
O983 O 0.37659 0.36482 0.24951 0.0
O984 O 0.37077 0.38751 0.29303 0.0
O985 O 0.40297 0.37212 0.28461 0.0
O986 O 0.42055 0.36254 0.22117 0.0
O987 O 0.4393 0.38402 0.24337 0.0
O988 O 0.4152 0.41308 0.26879 0.0
O989 O 0.38716 0.41537 0.24885 0.0
O990 O 0.39414 0.39911 0.20825 0.0
O991 O 0.36264 0.41414 0.22039 0.0
H992 H 0.28544 0.38574 0.2647 0.0
H993 H 0.25711 0.38008 0.29441 0.0
H994 H 0.29363 0.41248 0.34977 0.0
H995 H 0.32192 0.41826 0.32007 0.0
H996 H 0.44765 0.40516 0.19938 0.0
H997 H 0.4739 0.40926 0.16656 0.0
H998 H 0.49118 0.34358 0.17436 0.0
H999 H 0.46476 0.33961 0.20681 0.0
C1000 C 0.35022 0.57344 0.02414 0.0
Eu1001 Eu 0.36278 0.60989 1.00717 0.0
C1002 C 0.35595 0.55718 0.04261 0.0
C1003 C 0.36842 0.53969 0.0359 0.0
C1004 C 0.37214 0.52327 0.05256 0.0
C1005 C 0.36328 0.52382 0.07621 0.0
C1006 C 0.35127 0.54156 0.08312 0.0
C1007 C 0.34761 0.55801 0.06652 0.0
C1008 C 0.39967 0.61611 0.98308 0.0
C1009 C 0.38371 0.63788 0.05152 0.0
C1010 C 0.38756 0.69071 0.97802 0.0
Eu1011 Eu 0.37269 0.65589 0.99754 0.0
C1012 C 0.38414 0.70622 0.95778 0.0
C1013 C 0.37554 0.72616 0.96305 0.0
C1014 C 0.37382 0.74162 0.94475 0.0
C1015 C 0.38078 0.73768 0.9206 0.0
C1016 C 0.3894 0.71769 0.91529 0.0
C1017 C 0.39107 0.70217 0.93364 0.0
C1018 C 0.33357 0.6493 1.01735 0.0
C1019 C 0.3467 0.62815 0.95597 0.0
O1020 O 0.34295 0.59156 0.03211 0.0
O1021 O 0.36271 0.57556 1.00516 0.0
O1022 O 0.3871 0.60031 0.97955 0.0
O1023 O 0.39312 0.62749 1.00071 0.0
O1024 O 0.37394 0.62054 0.04443 0.0
O1025 O 0.38713 0.65373 0.03607 0.0
O1026 O 0.39422 0.67179 0.97224 0.0
O1027 O 0.37395 0.6904 0.99612 0.0
O1028 O 0.34498 0.66597 0.02152 0.0
O1029 O 0.34277 0.63798 1.00169 0.0
O1030 O 0.35834 0.64515 0.9606 0.0
O1031 O 0.34359 0.61359 0.97294 0.0
H1032 H 0.37487 0.53841 1.01753 0.0
H1033 H 0.38127 0.50975 0.04658 0.0
H1034 H 0.34444 0.5426 0.10133 0.0
H1035 H 0.33783 0.57115 0.07227 0.0
H1036 H 0.37046 0.73 0.98153 0.0
H1037 H 0.36746 0.75691 0.94974 0.0
H1038 H 0.39477 0.71398 0.8969 0.0
H1039 H 0.39805 0.68709 0.92893 0.0
C1040 C 0.18801 0.60197 0.77186 0.0
Eu1041 Eu 0.15112 0.61378 0.75537 0.0
C1042 C 0.20389 0.60781 0.7907 0.0
C1043 C 0.2223 0.61872 0.78376 0.0
C1044 C 0.23826 0.62283 0.80089 0.0
C1045 C 0.23627 0.61589 0.8253 0.0
C1046 C 0.21765 0.60539 0.83238 0.0
C1047 C 0.20164 0.60139 0.81529 0.0
C1048 C 0.14438 0.65048 0.73109 0.0
C1049 C 0.123 0.63373 0.80033 0.0
C1050 C 0.07008 0.63805 0.72713 0.0
Eu1051 Eu 0.10508 0.62332 0.74631 0.0
C1052 C 0.05483 0.63469 0.70665 0.0
C1053 C 0.03543 0.62465 0.71121 0.0
C1054 C 0.0202 0.62283 0.69269 0.0
C1055 C 0.02384 0.63111 0.66904 0.0
C1056 C 0.04326 0.64118 0.66444 0.0
C1057 C 0.05856 0.64296 0.683 0.0
C1058 C 0.11205 0.58424 0.766 0.0
C1059 C 0.13265 0.59753 0.70439 0.0
O1060 O 0.17015 0.5937 0.77931 0.0
O1061 O 0.18547 0.61504 0.75352 0.0
O1062 O 0.1601 0.63787 0.72725 0.0
O1063 O 0.13328 0.64401 0.74903 0.0
O1064 O 0.14042 0.62423 0.79293 0.0
O1065 O 0.10713 0.63735 0.78497 0.0
O1066 O 0.08889 0.6452 0.72168 0.0
O1067 O 0.07056 0.62407 0.74483 0.0
O1068 O 0.0954 0.59563 0.77047 0.0
O1069 O 0.12321 0.59347 0.75019 0.0
O1070 O 0.11554 0.60895 0.70931 0.0
O1071 O 0.14748 0.59463 0.72109 0.0
H1072 H 0.22462 0.62367 0.7649 0.0
H1073 H 0.25249 0.63075 0.7948 0.0
H1074 H 0.21555 0.60005 0.85113 0.0
H1075 H 0.18772 0.5929 0.82128 0.0
H1076 H 0.03183 0.6185 0.7293 0.0
H1077 H 0.00531 0.61533 0.69713 0.0
H1078 H 0.0467 0.64761 0.64644 0.0
H1079 H 0.0732 0.65106 0.67888 0.0
C1080 C 0.16255 0.43828 0.52205 0.0
Eu1081 Eu 0.14753 0.40243 0.50607 0.0
C1082 C 0.15797 0.45549 0.53935 0.0
C1083 C 0.14178 0.45395 0.55687 0.0
C1084 C 0.13796 0.47071 0.57313 0.0
C1085 C 0.15033 0.48918 0.5721 0.0
C1086 C 0.16629 0.49063 0.55418 0.0
C1087 C 0.17006 0.47395 0.53801 0.0
C1088 C 0.10909 0.39751 0.48472 0.0
C1089 C 0.1292 0.37341 0.55106 0.0
C1090 C 0.11853 0.32301 0.47626 0.0
Eu1091 Eu 0.13574 0.35669 0.49567 0.0
C1092 C 0.12118 0.30772 0.4559 0.0
C1093 C 0.1412 0.30068 0.4484 0.0
C1094 C 0.1431 0.28507 0.43025 0.0
C1095 C 0.12504 0.27618 0.41914 0.0
C1096 C 0.10506 0.28385 0.42617 0.0
C1097 C 0.10318 0.2994 0.44436 0.0
C1098 C 0.17581 0.36184 0.5133 0.0
C1099 C 0.16128 0.3843 0.45363 0.0
O1100 O 0.16767 0.41994 0.5314 0.0
O1101 O 0.14999 0.43664 0.50312 0.0
O1102 O 0.1215 0.41342 0.48117 0.0
O1103 O 0.11657 0.38557 0.50128 0.0
O1104 O 0.13956 0.39044 0.54395 0.0
O1105 O 0.12308 0.35883 0.53504 0.0
O1106 O 0.11314 0.34228 0.47031 0.0
O1107 O 0.13229 0.32244 0.4942 0.0
O1108 O 0.1644 0.34511 0.51722 0.0
O1109 O 0.16619 0.37379 0.49866 0.0
O1110 O 0.14914 0.36765 0.45833 0.0
O1111 O 0.16547 0.39835 0.47087 0.0
H1112 H 0.13224 0.43979 0.55807 0.0
H1113 H 0.12567 0.46902 0.58683 0.0
H1114 H 0.17588 0.50472 0.55257 0.0
H1115 H 0.1825 0.47545 0.52444 0.0
H1116 H 0.15536 0.30699 0.45682 0.0
H1117 H 0.15877 0.27986 0.42504 0.0
H1118 H 0.0908 0.27731 0.41825 0.0
H1119 H 0.08756 0.30462 0.44982 0.0
C1120 C 0.32282 0.60036 0.26243 0.0
Eu1121 Eu 0.35929 0.61262 0.2798 0.0
C1122 C 0.30665 0.6061 0.24384 0.0
C1123 C 0.28905 0.61842 0.2505 0.0
C1124 C 0.27264 0.62206 0.23377 0.0
C1125 C 0.27335 0.61326 0.2101 0.0
C1126 C 0.29122 0.60142 0.20323 0.0
C1127 C 0.30765 0.59784 0.21991 0.0
C1128 C 0.36516 0.6504 0.30227 0.0
C1129 C 0.38917 0.63073 0.23559 0.0
C1130 C 0.4394 0.63803 0.31087 0.0
Eu1131 Eu 0.40502 0.62271 0.29083 0.0
C1132 C 0.45505 0.63446 0.33092 0.0
C1133 C 0.47472 0.62523 0.32559 0.0
C1134 C 0.4903 0.62338 0.34374 0.0
C1135 C 0.48675 0.63082 0.36778 0.0
C1136 C 0.46704 0.64006 0.37314 0.0
C1137 C 0.45141 0.64188 0.35495 0.0
C1138 C 0.39893 0.58314 0.27211 0.0
C1139 C 0.37624 0.59749 0.33208 0.0
O1140 O 0.34095 0.59296 0.25467 0.0
O1141 O 0.32492 0.61289 0.28133 0.0
O1142 O 0.34919 0.63809 0.30581 0.0
O1143 O 0.37692 0.6431 0.28542 0.0
O1144 O 0.37203 0.62032 0.24214 0.0
O1145 O 0.40351 0.63655 0.25201 0.0
O1146 O 0.42029 0.64395 0.31696 0.0
O1147 O 0.43947 0.62498 0.29223 0.0
O1148 O 0.41581 0.59436 0.26834 0.0
O1149 O 0.38716 0.59269 0.28703 0.0
O1150 O 0.39334 0.60909 0.32773 0.0
O1151 O 0.36211 0.59403 0.3147 0.0
H1152 H 0.28763 0.62478 0.26889 0.0
H1153 H 0.25902 0.63106 0.23973 0.0
H1154 H 0.29238 0.59464 0.18501 0.0
H1155 H 0.32089 0.58817 0.21419 0.0
H1156 H 0.47828 0.61977 0.30719 0.0
H1157 H 0.50537 0.61654 0.33871 0.0
H1158 H 0.46364 0.64581 0.39145 0.0
H1159 H 0.43657 0.64936 0.35967 0.0
C1160 C 0.16101 0.57107 1.01518 0.0
Eu1161 Eu 0.14639 0.60726 0.03073 0.0
C1162 C 0.15657 0.55402 0.99762 0.0
C1163 C 0.16828 0.53532 0.99929 0.0
C1164 C 0.16461 0.51875 0.98295 0.0
C1165 C 0.14912 0.52053 0.96452 0.0
C1166 C 0.13713 0.53925 0.96313 0.0
C1167 C 0.14086 0.5559 0.97956 0.0
C1168 C 0.10822 0.61266 0.05248 0.0
C1169 C 0.12836 0.63595 0.98522 0.0
C1170 C 0.11804 0.68724 0.05918 0.0
Eu1171 Eu 0.13495 0.65312 0.04035 0.0
C1172 C 0.12052 0.70206 0.07996 0.0
C1173 C 0.13958 0.7037 0.093 0.0
C1174 C 0.14173 0.71859 0.11194 0.0
C1175 C 0.12485 0.7321 0.11828 0.0
C1176 C 0.10564 0.72994 0.1055 0.0
C1177 C 0.10353 0.71511 0.08657 0.0
C1178 C 0.17491 0.6475 0.02258 0.0
C1179 C 0.16033 0.62584 0.0828 0.0
O1180 O 0.16686 0.5893 1.00614 0.0
O1181 O 0.14792 0.57298 0.03359 0.0
O1182 O 0.1207 0.59685 0.05633 0.0
O1183 O 0.11551 0.6243 0.03551 0.0
O1184 O 0.1383 0.6188 0.99272 0.0
O1185 O 0.12252 0.6509 1.0009 0.0
O1186 O 0.11179 0.6681 0.06451 0.0
O1187 O 0.13265 0.68748 0.04218 0.0
O1188 O 0.16345 0.66411 0.0182 0.0
O1189 O 0.16534 0.63581 0.03757 0.0
O1190 O 0.14835 0.64255 0.07783 0.0
O1191 O 0.16438 0.61152 0.06582 0.0
H1192 H 0.18035 0.53354 1.01326 0.0
H1193 H 0.17388 0.50447 0.98483 0.0
H1194 H 0.12521 0.5412 0.94904 0.0
H1195 H 0.13161 0.57025 0.97809 0.0
H1196 H 0.15284 0.69365 0.08837 0.0
H1197 H 0.15667 0.71954 0.12157 0.0
H1198 H 0.09238 0.74017 0.10959 0.0
H1199 H 0.08867 0.71407 0.07676 0.0
C1200 C 0.18876 0.40883 0.76665 0.0
Eu1201 Eu 0.15169 0.39591 0.78146 0.0
C1202 C 0.20544 0.40476 0.74843 0.0
C1203 C 0.20422 0.38792 0.73173 0.0
C1204 C 0.2206 0.38448 0.71479 0.0
C1205 C 0.23839 0.39785 0.71433 0.0
C1206 C 0.2395 0.4145 0.7314 0.0
C1207 C 0.2232 0.41791 0.7482 0.0
C1208 C 0.14424 0.35911 0.80529 0.0
C1209 C 0.12402 0.37628 0.7359 0.0
C1210 C 0.06992 0.372 0.80845 0.0
Eu1211 Eu 0.1052 0.38655 0.7897 0.0
C1212 C 0.05447 0.37566 0.82872 0.0
C1213 C 0.03564 0.38676 0.82416 0.0
C1214 C 0.02027 0.38898 0.84251 0.0
C1215 C 0.02317 0.38005 0.86599 0.0
C1216 C 0.04201 0.36889 0.87056 0.0
C1217 C 0.05744 0.3667 0.85217 0.0
C1218 C 0.11276 0.4257 0.77057 0.0
C1219 C 0.1324 0.41188 0.83234 0.0
O1220 O 0.17094 0.41672 0.7586 0.0
O1221 O 0.18601 0.39447 0.78358 0.0
O1222 O 0.16015 0.37142 0.80944 0.0
O1223 O 0.13346 0.36588 0.78725 0.0
O1224 O 0.14145 0.38557 0.74367 0.0
O1225 O 0.10787 0.37277 0.75092 0.0
O1226 O 0.08867 0.36482 0.81423 0.0
O1227 O 0.07066 0.38579 0.79055 0.0
O1228 O 0.09597 0.41461 0.76585 0.0
O1229 O 0.12368 0.41617 0.78639 0.0
O1230 O 0.1152 0.40078 0.82694 0.0
O1231 O 0.14761 0.4146 0.81606 0.0
H1232 H 0.19064 0.37753 0.73176 0.0
H1233 H 0.21915 0.37162 0.7018 0.0
H1234 H 0.25309 0.42488 0.7319 0.0
H1235 H 0.22449 0.43086 0.76112 0.0
H1236 H 0.03257 0.39348 0.80621 0.0
H1237 H 0.00584 0.39733 0.83805 0.0
H1238 H 0.04493 0.36193 0.88842 0.0
H1239 H 0.07161 0.35777 0.85629 0.0
C1240 C 0.34811 0.43799 0.51488 0.0
Eu1241 Eu 0.36256 0.40173 0.53039 0.0
C1242 C 0.35256 0.45501 0.49725 0.0
C1243 C 0.36973 0.45404 0.48098 0.0
C1244 C 0.37353 0.47068 0.46453 0.0
C1245 C 0.36019 0.4885 0.46414 0.0
C1246 C 0.34318 0.48936 0.48077 0.0
C1247 C 0.33942 0.47279 0.4971 0.0
C1248 C 0.39976 0.39591 0.55405 0.0
C1249 C 0.38344 0.37434 0.48528 0.0
C1250 C 0.39019 0.32137 0.55822 0.0
Eu1251 Eu 0.37369 0.35567 0.53934 0.0
C1252 C 0.38778 0.30651 0.57903 0.0
C1253 C 0.36794 0.3019 0.58924 0.0
C1254 C 0.36605 0.28675 0.60793 0.0
C1255 C 0.38396 0.2759 0.61687 0.0
C1256 C 0.40386 0.28112 0.60707 0.0
C1257 C 0.40572 0.29622 0.58836 0.0
C1258 C 0.33443 0.36163 0.5198 0.0
C1259 C 0.34703 0.38221 0.58142 0.0
O1260 O 0.34208 0.4198 0.50589 0.0
O1261 O 0.36132 0.436 0.53318 0.0
O1262 O 0.38703 0.41155 0.55785 0.0
O1263 O 0.39321 0.38465 0.53633 0.0
O1264 O 0.37365 0.39158 0.49281 0.0
O1265 O 0.3873 0.3584 0.50048 0.0
O1266 O 0.39678 0.34041 0.56342 0.0
O1267 O 0.37552 0.3213 0.54128 0.0
O1268 O 0.34613 0.34517 0.51542 0.0
O1269 O 0.34343 0.37301 0.53556 0.0
O1270 O 0.35897 0.36547 0.57644 0.0
O1271 O 0.34369 0.39701 0.56478 0.0
H1272 H 0.38011 0.44044 0.48097 0.0
H1273 H 0.38665 0.46941 0.45185 0.0
H1274 H 0.33281 0.50296 0.48131 0.0
H1275 H 0.3262 0.47387 0.5097 0.0
H1276 H 0.35388 0.30979 0.58255 0.0
H1277 H 0.3505 0.28344 0.61528 0.0
H1278 H 0.41796 0.27302 0.61324 0.0
H1279 H 0.42119 0.29956 0.58078 0.0
H1280 H 0.26009 0.08107 0.1893 0.0
H1281 H 0.33433 0.15942 0.11211 0.0
H1282 H 0.25785 0.14875 0.19811 0.0
H1283 H 0.33248 0.09174 0.10339 0.0
H1284 H 0.30878 0.15632 0.14605 0.0
H1285 H 0.2886 0.08516 0.15977 0.0
C1286 C 0.26568 0.09683 0.18515 0.0
C1287 C 0.25655 0.11457 0.19636 0.0
C1288 C 0.31417 0.14217 0.13682 0.0
C1289 C 0.2893 0.11945 0.16207 0.0
C1290 C 0.32887 0.14391 0.11761 0.0
C1291 C 0.33543 0.12581 0.10481 0.0
C1292 C 0.30615 0.12219 0.14324 0.0
C1293 C 0.32772 0.10614 0.11256 0.0
C1294 C 0.28196 0.09917 0.16815 0.0
C1295 C 0.26427 0.13462 0.18977 0.0
N1296 N 0.31346 0.10489 0.1311 0.0
N1297 N 0.2802 0.13653 0.17305 0.0
H1298 H 0.16833 0.08686 0.35788 0.0
H1299 H 0.10982 1.00394 0.44563 0.0
H1300 H 0.10051 0.08051 0.35956 0.0
H1301 H 0.17738 0.01257 0.44155 0.0
H1302 H 0.1053 0.03293 0.4161 0.0
H1303 H 0.17111 0.06159 0.39134 0.0
C1304 C 0.15396 0.08031 0.36555 0.0
C1305 C 0.13417 0.08572 0.35585 0.0
C1306 C 0.12108 0.02851 0.42182 0.0
C1307 C 0.13722 0.05627 0.39407 0.0
C1308 C 0.12369 0.01187 0.43853 0.0
C1309 C 0.14403 0.00579 0.44621 0.0
C1310 C 0.13893 0.0391 0.41266 0.0
C1311 C 0.16138 0.01684 0.43657 0.0
C1312 C 0.15555 0.06578 0.38465 0.0
C1313 C 0.11607 0.07682 0.3666 0.0
N1314 N 0.15842 0.03284 0.42035 0.0
N1315 N 0.11803 0.0623 0.38499 0.0
H1316 H 0.25582 0.85764 0.69148 0.0
H1317 H 0.17374 0.91742 0.60431 0.0
H1318 H 0.24842 0.92532 0.68789 0.0
H1319 H 0.17612 0.84954 0.6098 0.0
H1320 H 0.19911 0.92007 0.63771 0.0
H1321 H 0.22526 0.85374 0.66412 0.0
C1322 C 0.24772 0.87167 0.68509 0.0
C1323 C 0.25492 0.89186 0.69178 0.0
C1324 C 0.19398 0.90455 0.6319 0.0
C1325 C 0.21998 0.88749 0.66045 0.0
C1326 C 0.17941 0.90304 0.61284 0.0
C1327 C 0.17291 0.88324 0.60419 0.0
C1328 C 0.20246 0.8861 0.64229 0.0
C1329 C 0.18069 0.86512 0.616 0.0
C1330 C 0.2303 0.86942 0.66944 0.0
C1331 C 0.24382 0.90945 0.68282 0.0
N1332 N 0.19533 0.86697 0.63427 0.0
N1333 N 0.22704 0.90684 0.6676 0.0
H1334 H 0.40706 0.92486 0.86294 0.0
H1335 H 0.32905 0.0062 0.93045 0.0
H1336 H 0.34123 0.93346 0.84487 0.0
H1337 H 0.39547 1.00203 0.94767 0.0
H1338 H 0.33332 0.97785 0.90071 0.0
H1339 H 0.40316 0.95096 0.89609 0.0
C1340 C 0.39174 0.93198 0.86615 0.0
C1341 C 0.37447 0.92704 0.85101 0.0
C1342 C 0.34701 0.98306 0.91097 0.0
C1343 C 0.36996 0.95698 0.88863 0.0
C1344 C 0.34455 0.99923 0.92809 0.0
C1345 C 0.3619 0.00651 0.94173 0.0
C1346 C 0.367 0.97393 0.90728 0.0
C1347 C 0.38169 0.99708 0.93743 0.0
C1348 C 0.38957 0.94698 0.88495 0.0
C1349 C 0.35504 0.93687 0.85591 0.0
N1350 N 0.3837 0.98125 0.92061 0.0
N1351 N 0.35336 0.95136 0.87415 0.0
H1352 H 0.33517 0.85118 0.42257 0.0
H1353 H 0.25478 0.92898 0.35308 0.0
H1354 H 0.32638 0.91702 0.44018 0.0
H1355 H 0.25859 0.86237 0.33704 0.0
H1356 H 0.2829 0.92485 0.38322 0.0
H1357 H 0.30945 0.85499 0.38897 0.0
C1358 C 0.3281 0.86647 0.41916 0.0
C1359 C 0.33286 0.88378 0.4343 0.0
C1360 C 0.27765 0.91109 0.37313 0.0
C1361 C 0.30335 0.88819 0.39617 0.0
C1362 C 0.26161 0.91347 0.35579 0.0
C1363 C 0.25429 0.89602 0.34239 0.0
C1364 C 0.2866 0.89109 0.37726 0.0
C1365 C 0.26356 0.87624 0.34711 0.0
C1366 C 0.31331 0.8686 0.40011 0.0
C1367 C 0.32309 0.90319 0.42915 0.0
N1368 N 0.27925 0.8743 0.36412 0.0
N1369 N 0.30881 0.90482 0.41066 0.0
H1370 H 0.40079 0.99955 0.59588 0.0
H1371 H 0.34249 0.0862 0.67808 0.0
H1372 H 0.33439 0.01447 0.59094 0.0
H1373 H 0.41033 0.08 0.67668 0.0
H1374 H 0.3399 0.06074 0.64476 0.0
H1375 H 0.40529 0.029 0.62478 0.0
C1376 C 0.38718 0.009 0.60085 0.0
C1377 C 0.36718 1.00453 0.5909 0.0
C1378 C 0.35541 0.06505 0.65145 0.0
C1379 C 0.37225 0.03826 0.62377 0.0
C1380 C 0.35689 0.07965 0.67047 0.0
C1381 C 0.37664 0.08517 0.68017 0.0
C1382 C 0.37381 0.05552 0.64221 0.0
C1383 C 0.3948 0.07625 0.66959 0.0
C1384 C 0.3898 0.02589 0.61718 0.0
C1385 C 0.35016 0.01744 0.59781 0.0
N1386 N 0.39294 0.0616 0.65135 0.0
N1387 N 0.35307 0.03359 0.61384 0.0
H1388 H 0.17153 0.15736 0.91985 0.0
H1389 H 0.25964 0.08509 0.85641 0.0
H1390 H 0.18061 0.09102 0.93462 0.0
H1391 H 0.24493 0.14754 0.82974 0.0
H1392 H 0.23065 0.08785 0.88563 0.0
H1393 H 0.19745 0.15477 0.88624 0.0
C1394 C 0.17865 0.14221 0.91575 0.0
C1395 C 0.17406 0.12442 0.93022 0.0
C1396 C 0.23367 0.10098 0.87339 0.0
C1397 C 0.20383 0.12144 0.89226 0.0
C1398 C 0.25039 0.09948 0.85684 0.0
C1399 C 0.25484 0.11616 0.84072 0.0
C1400 C 0.22126 0.11939 0.87408 0.0
C1401 C 0.24199 0.13426 0.84179 0.0
C1402 C 0.19353 0.14077 0.8967 0.0
C1403 C 0.18384 0.10522 0.92419 0.0
N1404 N 0.22584 0.13547 0.8583 0.0
N1405 N 0.19834 0.1043 0.9059 0.0
H1406 H 0.16995 0.92105 0.17603 0.0
H1407 H 0.11133 0.00473 0.08954 0.0
H1408 H 0.10208 0.92664 0.17333 0.0
H1409 H 0.17868 0.99409 0.09043 0.0
H1410 H 0.10694 0.97549 0.11873 0.0
H1411 H 0.17276 0.94624 0.14243 0.0
C1412 C 0.15559 0.92738 0.16807 0.0
C1413 C 0.13576 0.92179 0.17753 0.0
C1414 C 0.12264 0.9795 0.11237 0.0
C1415 C 0.13885 0.95115 0.13922 0.0
C1416 C 0.12518 0.99629 0.09586 0.0
C1417 C 0.14542 1.0019 0.08743 0.0
C1418 C 0.14048 0.96833 0.12064 0.0
C1419 C 0.16276 0.99021 0.09606 0.0
C1420 C 0.1572 0.94186 0.14891 0.0
C1421 C 0.11768 0.93045 0.16647 0.0
N1422 N 0.15988 0.97411 0.11219 0.0
N1423 N 0.11965 0.94494 0.14807 0.0
H1424 H 0.75035 0.92864 0.84867 0.0
H1425 H 0.6779 0.84825 0.92531 0.0
H1426 H 0.75464 0.86107 0.83976 0.0
H1427 H 0.67816 0.91593 0.93419 0.0
H1428 H 0.70353 0.852 0.89151 0.0
H1429 H 0.72187 0.92368 0.87801 0.0
C1430 C 0.74519 0.91272 0.85274 0.0
C1431 C 0.75489 0.89527 0.84155 0.0
C1432 C 0.69777 0.866 0.90075 0.0
C1433 C 0.72217 0.88939 0.87566 0.0
C1434 C 0.68303 0.86388 0.91987 0.0
C1435 C 0.676 0.88181 0.93266 0.0
C1436 C 0.70534 0.88618 0.89441 0.0
C1437 C 0.6833 0.90166 0.92501 0.0
C1438 C 0.72893 0.90987 0.86964 0.0
C1439 C 0.74775 0.87498 0.84807 0.0
N1440 N 0.69758 0.90327 0.90655 0.0
N1441 N 0.73181 0.87259 0.8647 0.0
H1442 H 0.82966 1.00148 0.59774 0.0
H1443 H 0.90821 0.9253 0.6722 0.0
H1444 H 0.89719 1.00232 0.58681 0.0
H1445 H 0.84081 0.92882 0.68326 0.0
H1446 H 0.9049 0.95106 0.63851 0.0
H1447 H 0.83385 0.97289 0.62712 0.0
C1448 C 0.8454 0.99555 0.60137 0.0
C1449 C 0.86307 1.00432 0.5896 0.0
C1450 C 0.89084 0.94599 0.6482 0.0
C1451 C 0.86808 0.97146 0.62376 0.0
C1452 C 0.89271 0.93117 0.66727 0.0
C1453 C 0.87477 0.925 0.68065 0.0
C1454 C 0.8709 0.95453 0.64248 0.0
C1455 C 0.8551 0.93325 0.67362 0.0
C1456 C 0.84781 0.97922 0.61831 0.0
C1457 C 0.88312 0.99619 0.59558 0.0
N1458 N 0.85373 0.9476 0.65519 0.0
N1459 N 0.88509 0.98021 0.61223 0.0
H1460 H 0.76458 0.08213 0.3424 0.0
H1461 H 0.8351 0.16024 0.42427 0.0
H1462 H 0.75514 0.14961 0.34325 0.0
H1463 H 0.83766 0.09225 0.42768 0.0
H1464 H 0.80952 0.15752 0.39035 0.0
H1465 H 0.7946 0.08637 0.36985 0.0
C1466 C 0.76874 0.09787 0.34846 0.0
C1467 C 0.75704 0.1155 0.34077 0.0
C1468 C 0.81593 0.14323 0.39834 0.0
C1469 C 0.79184 0.12055 0.37215 0.0
C1470 C 0.83066 0.14478 0.41751 0.0
C1471 C 0.8384 0.12643 0.42886 0.0
C1472 C 0.8091 0.1232 0.39046 0.0
C1473 C 0.83196 0.1068 0.4196 0.0
C1474 C 0.78604 0.10031 0.36403 0.0
C1475 C 0.76368 0.13557 0.34871 0.0
N1476 N 0.81763 0.10572 0.40111 0.0
N1477 N 0.78054 0.13754 0.36412 0.0
H1478 H 0.67331 0.99471 0.11306 0.0
H1479 H 0.60396 0.08859 0.16907 0.0
H1480 H 0.61483 0.0146 0.07955 0.0
H1481 H 0.6688 0.07574 0.18862 0.0
H1482 H 0.60664 0.06197 0.13627 0.0
H1483 H 0.67061 0.02392 0.14197 0.0
C1484 C 0.65978 0.00515 0.11191 0.0
C1485 C 0.64421 1.0021 0.09394 0.0
C1486 C 0.62031 0.06521 0.14762 0.0
C1487 C 0.64109 0.03593 0.12696 0.0
C1488 C 0.61883 0.08048 0.16623 0.0
C1489 C 0.63612 0.08429 0.18179 0.0
C1490 C 0.63916 0.05367 0.14473 0.0
C1491 C 0.65496 0.0732 0.17732 0.0
C1492 C 0.65833 0.02199 0.12829 0.0
C1493 C 0.62724 0.01643 0.09306 0.0
N1494 N 0.65588 0.05834 0.15944 0.0
N1495 N 0.62604 0.03267 0.10944 0.0
H1496 H 0.75423 0.08365 0.68341 0.0
H1497 H 0.6734 0.15992 0.61317 0.0
H1498 H 0.74894 0.14997 0.70037 0.0
H1499 H 0.67654 0.09236 0.60375 0.0
H1500 H 0.69926 0.15707 0.64678 0.0
H1501 H 0.72476 0.08701 0.65499 0.0
C1502 C 0.74695 0.09899 0.68103 0.0
C1503 C 0.75425 0.11659 0.69413 0.0
C1504 C 0.69405 0.14288 0.63753 0.0
C1505 C 0.72009 0.12058 0.66164 0.0
C1506 C 0.67917 0.14448 0.61849 0.0
C1507 C 0.67294 0.12636 0.60552 0.0
C1508 C 0.70266 0.12303 0.64351 0.0
C1509 C 0.68106 0.10678 0.61304 0.0
C1510 C 0.72994 0.10088 0.66492 0.0
C1511 C 0.7438 0.13597 0.69068 0.0
N1512 N 0.69557 0.10568 0.63132 0.0
N1513 N 0.72733 0.13749 0.67463 0.0
H1514 H 0.68054 1.00314 0.43561 0.0
H1515 H 0.60194 0.92517 0.36401 0.0
H1516 H 0.61328 1.0026 0.44864 0.0
H1517 H 0.66902 0.92979 0.35097 0.0
H1518 H 0.6055 0.95111 0.39742 0.0
H1519 H 0.67631 0.97436 0.40651 0.0
C1520 C 0.66485 0.99687 0.43249 0.0
C1521 C 0.64727 0.0053 0.44476 0.0
C1522 C 0.61944 0.94626 0.38736 0.0
C1523 C 0.64221 0.97222 0.41096 0.0
C1524 C 0.61744 0.93133 0.36845 0.0
C1525 C 0.6352 0.9254 0.35459 0.0
C1526 C 0.63933 0.95516 0.39244 0.0
C1527 C 0.65486 0.93402 0.36099 0.0
C1528 C 0.66242 0.98043 0.41573 0.0
C1529 C 0.62727 0.99673 0.43946 0.0
N1530 N 0.65635 0.94848 0.37928 0.0
N1531 N 0.62528 0.98065 0.42297 0.0
H1532 H 0.83645 0.85001 0.1132 0.0
H1533 H 0.753 0.92585 0.17988 0.0
H1534 H 0.83095 0.91707 0.1007 0.0
H1535 H 0.76052 0.8604 0.20007 0.0
H1536 H 0.78243 0.92242 0.15143 0.0
H1537 H 0.8103 0.85304 0.14653 0.0
C1538 C 0.83007 0.86539 0.11775 0.0
C1539 C 0.83573 0.88329 0.10401 0.0
C1540 C 0.77774 0.90875 0.16207 0.0
C1541 C 0.80574 0.88681 0.14168 0.0
C1542 C 0.76076 0.91068 0.1782 0.0
C1543 C 0.7541 0.89334 0.19223 0.0
C1544 C 0.78823 0.88929 0.15971 0.0
C1545 C 0.76516 0.87419 0.18964 0.0
C1546 C 0.81505 0.86709 0.13663 0.0
C1547 C 0.82687 0.9028 0.11058 0.0
N1548 N 0.78161 0.87263 0.17357 0.0
N1549 N 0.81226 0.90398 0.12873 0.0
H1550 H 0.90854 0.08388 0.86285 0.0
H1551 H 0.82956 0.00875 0.93788 0.0
H1552 H 0.84092 0.082 0.85314 0.0
H1553 H 0.89724 0.00607 0.94703 0.0
H1554 H 0.83387 0.03774 0.90909 0.0
H1555 H 0.90517 0.058 0.89638 0.0
C1556 C 0.89298 0.07835 0.86806 0.0
C1557 C 0.87499 0.085 0.85509 0.0
C1558 C 0.84784 0.03092 0.91739 0.0
C1559 C 0.87105 0.05533 0.89306 0.0
C1560 C 0.84537 0.01437 0.93399 0.0
C1561 C 0.86305 0.00496 0.94507 0.0
C1562 C 0.86817 0.03826 0.91157 0.0
C1563 C 0.88316 0.01271 0.93878 0.0
C1564 C 0.89108 0.06346 0.88703 0.0
C1565 C 0.85524 0.07718 0.86246 0.0
N1566 N 0.88519 0.02891 0.92245 0.0
N1567 N 0.85384 0.06274 0.88079 0.0
H1568 H 0.75254 0.65128 0.69266 0.0
H1569 H 0.83442 0.59327 0.60337 0.0
H1570 H 0.76188 0.58385 0.68924 0.0
H1571 H 0.83123 0.6611 0.60924 0.0
H1572 H 0.80904 0.59017 0.63669 0.0
H1573 H 0.78166 0.6559 0.66328 0.0
C1574 C 0.76066 0.63747 0.68573 0.0
C1575 C 0.75476 0.61714 0.69353 0.0
C1576 C 0.81396 0.60578 0.63097 0.0
C1577 C 0.78815 0.62232 0.66012 0.0
C1578 C 0.82854 0.60755 0.61194 0.0
C1579 C 0.83488 0.62747 0.60347 0.0
C1580 C 0.80531 0.62407 0.64153 0.0
C1581 C 0.82681 0.64544 0.61533 0.0
C1582 C 0.77738 0.64013 0.66912 0.0
C1583 C 0.76602 0.59984 0.68411 0.0
N1584 N 0.8122 0.64333 0.6336 0.0
N1585 N 0.78204 0.60283 0.66793 0.0
H1586 H 0.66869 0.57936 0.84793 0.0
H1587 H 0.61092 0.506 0.94716 0.0
H1588 H 0.60163 0.58286 0.86154 0.0
H1589 H 0.67812 0.50661 0.93376 0.0
H1590 H 0.6067 0.53453 0.91697 0.0
H1591 H 0.6721 0.55387 0.88107 0.0
C1592 C 0.65466 0.5749 0.85809 0.0
C1593 C 0.63483 0.58319 0.85185 0.0
C1594 C 0.62236 0.52845 0.92076 0.0
C1595 C 0.63857 0.55357 0.88986 0.0
C1596 C 0.62477 0.51206 0.93785 0.0
C1597 C 0.64493 0.5039 0.94311 0.0
C1598 C 0.64023 0.53665 0.90877 0.0
C1599 C 0.66232 0.51256 0.93066 0.0
C1600 C 0.65662 0.56026 0.87703 0.0
C1601 C 0.61724 0.5769 0.8658 0.0
N1602 N 0.65955 0.52836 0.91412 0.0
N1603 N 0.61948 0.56227 0.88402 0.0
H1604 H 0.672 0.35044 0.1142 0.0
H1605 H 0.76432 0.41966 0.17352 0.0
H1606 H 0.6836 0.41606 0.09749 0.0
H1607 H 0.74468 0.36052 0.2055 0.0
H1608 H 0.73549 0.41711 0.14406 0.0
H1609 H 0.69842 0.35262 0.14732 0.0
C1610 C 0.67982 0.36535 0.11771 0.0
C1611 C 0.67572 0.38303 0.10285 0.0
C1612 C 0.7374 0.40466 0.15751 0.0
C1613 C 0.70607 0.38551 0.14026 0.0
C1614 C 0.75402 0.40602 0.1742 0.0
C1615 C 0.75701 0.39022 0.19191 0.0
C1616 C 0.72363 0.38727 0.15828 0.0
C1617 C 0.74287 0.37309 0.1922 0.0
C1618 C 0.69495 0.36655 0.1365 0.0
C1619 C 0.68638 0.40192 0.10819 0.0
N1620 N 0.72684 0.37199 0.17553 0.0
N1621 N 0.70113 0.40258 0.12621 0.0
H1622 H 0.83667 0.51393 0.42338 0.0
H1623 H 0.9087 0.42349 0.36447 0.0
H1624 H 0.89696 0.49688 0.45459 0.0
H1625 H 0.84259 0.43282 0.3482 0.0
H1626 H 0.90584 0.45014 0.39724 0.0
H1627 H 0.83994 0.48487 0.39436 0.0
C1628 C 0.8507 0.50415 0.424 0.0
C1629 C 0.86662 0.50794 0.44135 0.0
C1630 C 0.89196 0.44613 0.3866 0.0
C1631 C 0.87041 0.4743 0.40821 0.0
C1632 C 0.89356 0.43086 0.368 0.0
C1633 C 0.87592 0.42605 0.35337 0.0
C1634 C 0.87265 0.45665 0.3904 0.0
C1635 C 0.85671 0.43616 0.35873 0.0
C1636 C 0.85249 0.48739 0.40756 0.0
C1637 C 0.88428 0.49445 0.44156 0.0
N1638 N 0.85566 0.45104 0.37657 0.0
N1639 N 0.88578 0.47828 0.42514 0.0
H1640 H 0.75784 0.42981 0.84923 0.0
H1641 H 0.83426 0.3511 0.92303 0.0
H1642 H 0.75654 0.36232 0.83847 0.0
H1643 H 0.83187 0.41862 0.93302 0.0
H1644 H 0.80823 0.35442 0.8896 0.0
H1645 H 0.78686 0.42554 0.878 0.0
C1646 C 0.76376 0.41406 0.85277 0.0
C1647 C 0.75474 0.39642 0.84122 0.0
C1648 C 0.81362 0.36849 0.89897 0.0
C1649 C 0.7881 0.39133 0.87469 0.0
C1650 C 0.8286 0.36663 0.91788 0.0
C1651 C 0.83514 0.38461 0.9309 0.0
C1652 C 0.80529 0.38848 0.89308 0.0
C1653 C 0.82714 0.40431 0.92364 0.0
C1654 C 0.78034 0.4116 0.86935 0.0
C1655 C 0.76287 0.37636 0.84708 0.0
N1656 N 0.81262 0.40568 0.9054 0.0
N1657 N 0.7791 0.37434 0.8634 0.0
H1658 H 0.84003 0.58486 0.18067 0.0
H1659 H 0.89829 0.50553 0.08844 0.0
H1660 H 0.90782 0.58321 0.17286 0.0
H1661 H 0.83065 0.51148 0.09578 0.0
H1662 H 0.90269 0.53462 0.11782 0.0
H1663 H 0.83681 0.55956 0.14731 0.0
C1664 C 0.85427 0.57935 0.17166 0.0
C1665 C 0.87422 0.58608 0.17963 0.0
C1666 C 0.88691 0.52961 0.11285 0.0
C1667 C 0.8707 0.55661 0.14151 0.0
C1668 C 0.88438 0.51289 0.09623 0.0
C1669 C 0.86405 0.50604 0.08953 0.0
C1670 C 0.86899 0.53945 0.12293 0.0
C1671 C 0.84662 0.51637 0.10003 0.0
C1672 C 0.85243 0.56481 0.15262 0.0
C1673 C 0.89212 0.57848 0.1672 0.0
N1674 N 0.84951 0.53243 0.11617 0.0
N1675 N 0.88996 0.56392 0.14891 0.0
H1676 H 0.75555 0.57956 0.35486 0.0
H1677 H 0.67507 0.65803 0.42297 0.0
H1678 H 0.75197 0.64599 0.33772 0.0
H1679 H 0.68184 0.59166 0.43912 0.0
H1680 H 0.70114 0.65413 0.38972 0.0
H1681 H 0.72697 0.58394 0.38426 0.0
C1682 C 0.74866 0.59509 0.35715 0.0
C1683 C 0.75618 0.6124 0.34363 0.0
C1684 C 0.69674 0.64042 0.40044 0.0
C1685 C 0.72332 0.61765 0.37773 0.0
C1686 C 0.68175 0.6426 0.41928 0.0
C1687 C 0.67636 0.62516 0.43395 0.0
C1688 C 0.70626 0.62066 0.39626 0.0
C1689 C 0.68563 0.60559 0.42847 0.0
C1690 C 0.73234 0.59762 0.37408 0.0
C1691 C 0.74683 0.63223 0.34788 0.0
N1692 N 0.70014 0.60392 0.41023 0.0
N1693 N 0.73088 0.63432 0.36454 0.0
H1694 H 0.60082 0.42506 0.673 0.0
H1695 H 0.68022 0.50019 0.59864 0.0
H1696 H 0.6685 0.42608 0.68222 0.0
H1697 H 0.61248 0.50446 0.59098 0.0
H1698 H 0.67574 0.47065 0.62664 0.0
H1699 H 0.60429 0.45128 0.63984 0.0
C1700 C 0.61641 0.43045 0.66771 0.0
C1701 C 0.6344 0.42349 0.68044 0.0
C1702 C 0.66179 0.47794 0.61883 0.0
C1703 C 0.63845 0.45353 0.64294 0.0
C1704 C 0.66435 0.4948 0.60269 0.0
C1705 C 0.64671 0.50481 0.59228 0.0
C1706 C 0.64139 0.47089 0.62483 0.0
C1707 C 0.62653 0.49734 0.59873 0.0
C1708 C 0.61836 0.44555 0.64897 0.0
C1709 C 0.65419 0.43114 0.67304 0.0
N1710 N 0.62441 0.48082 0.6146 0.0
N1711 N 0.65565 0.44578 0.65494 0.0
H1712 H 0.17183 0.35264 0.42086 0.0
H1713 H 0.25765 0.42629 0.35512 0.0
H1714 H 0.17951 0.41931 0.43443 0.0
H1715 H 0.24717 0.36168 0.33321 0.0
H1716 H 0.22822 0.42357 0.3837 0.0
H1717 H 0.19776 0.35528 0.38729 0.0
C1718 C 0.17862 0.36787 0.41648 0.0
C1719 C 0.17365 0.38575 0.4306 0.0
C1720 C 0.23225 0.40994 0.37264 0.0
C1721 C 0.20344 0.38881 0.39266 0.0
C1722 C 0.24923 0.41145 0.35645 0.0
C1723 C 0.25505 0.39413 0.3419 0.0
C1724 C 0.22094 0.39092 0.37455 0.0
C1725 C 0.24319 0.37545 0.34405 0.0
C1726 C 0.19353 0.36935 0.39746 0.0
C1727 C 0.18304 0.40506 0.42424 0.0
N1728 N 0.22677 0.37427 0.3602 0.0
N1729 N 0.19755 0.40602 0.40596 0.0
H1730 H 0.40904 0.42312 0.17179 0.0
H1731 H 0.33271 0.50586 0.1047 0.0
H1732 H 0.34178 0.42773 0.18356 0.0
H1733 H 0.39868 0.49979 0.08601 0.0
H1734 H 0.33616 0.4761 0.13266 0.0
H1735 H 0.40596 0.44929 0.13854 0.0
C1736 C 0.3936 0.4293 0.16708 0.0
C1737 C 0.37566 0.42339 0.18061 0.0
C1738 C 0.34993 0.48117 0.12245 0.0
C1739 C 0.37207 0.45343 0.14301 0.0
C1740 C 0.348 0.49834 0.10661 0.0
C1741 C 0.36548 0.50552 0.09317 0.0
C1742 C 0.36955 0.47102 0.12513 0.0
C1743 C 0.38478 0.49475 0.09599 0.0
C1744 C 0.39187 0.44434 0.14824 0.0
C1745 C 0.35608 0.432 0.17384 0.0
N1746 N 0.38635 0.47813 0.1118 0.0
N1747 N 0.35486 0.44665 0.15574 0.0
H1748 H 0.26148 0.65077 0.83304 0.0
H1749 H 0.32986 0.59254 0.93663 0.0
H1750 H 0.25176 0.5867 0.85747 0.0
H1751 H 0.33454 0.65958 0.92358 0.0
H1752 H 0.3046 0.58975 0.90324 0.0
H1753 H 0.29091 0.65403 0.86228 0.0
C1754 C 0.26557 0.63739 0.84449 0.0
C1755 C 0.25401 0.61848 0.84296 0.0
C1756 C 0.31118 0.60509 0.90748 0.0
C1757 C 0.28766 0.62206 0.87621 0.0
C1758 C 0.32571 0.6067 0.92655 0.0
C1759 C 0.33416 0.62637 0.93311 0.0
C1760 C 0.30484 0.6233 0.89478 0.0
C1761 C 0.32838 0.64411 0.91914 0.0
C1762 C 0.28231 0.63928 0.86118 0.0
C1763 C 0.25994 0.60169 0.85829 0.0
N1764 N 0.31386 0.6422 0.90073 0.0
N1765 N 0.2763 0.60388 0.87419 0.0
H1766 H 0.1007 0.58358 0.67389 0.0
H1767 H 0.18075 0.51214 0.59556 0.0
H1768 H 0.16838 0.5826 0.68321 0.0
H1769 H 0.11303 0.50601 0.58973 0.0
H1770 H 0.17598 0.54078 0.62474 0.0
H1771 H 0.10437 0.5583 0.6398 0.0
C1772 C 0.11632 0.57835 0.6685 0.0
C1773 C 0.13426 0.58507 0.68149 0.0
C1774 C 0.1621 0.53327 0.61707 0.0
C1775 C 0.13855 0.55617 0.64286 0.0
C1776 C 0.16483 0.51694 0.60025 0.0
C1777 C 0.14727 0.50665 0.59005 0.0
C1778 C 0.14163 0.5395 0.62395 0.0
C1779 C 0.12702 0.51336 0.5973 0.0
C1780 C 0.11839 0.56381 0.6492 0.0
C1781 C 0.1541 0.57769 0.67387 0.0
N1782 N 0.12474 0.52937 0.61382 0.0
N1783 N 0.15568 0.56362 0.6552 0.0
H1784 H 0.17232 0.65796 0.11422 0.0
H1785 H 0.25575 0.58259 0.18153 0.0
H1786 H 0.17711 0.59066 0.10326 0.0
H1787 H 0.24893 0.64841 0.20033 0.0
H1788 H 0.22591 0.58572 0.15364 0.0
H1789 H 0.19851 0.65521 0.14753 0.0
C1790 C 0.17852 0.64258 0.11915 0.0
C1791 C 0.17269 0.62453 0.10582 0.0
C1792 C 0.23082 0.59953 0.16386 0.0
C1793 C 0.20274 0.62133 0.14344 0.0
C1794 C 0.24805 0.59777 0.17966 0.0
C1795 C 0.25504 0.61531 0.19311 0.0
C1796 C 0.22042 0.61901 0.16125 0.0
C1797 C 0.24405 0.63447 0.19033 0.0
C1798 C 0.19357 0.64104 0.13801 0.0
C1799 C 0.18133 0.60504 0.11284 0.0
N1800 N 0.22736 0.63587 0.17457 0.0
N1801 N 0.19599 0.604 0.13094 0.0
H1802 H 0.10001 0.42672 0.86165 0.0
H1803 H 0.17962 0.49692 0.94201 0.0
H1804 H 0.16791 0.42599 0.85472 0.0
H1805 H 0.11192 0.50444 0.94572 0.0
H1806 H 0.17496 0.46824 0.91286 0.0
H1807 H 0.10338 0.45215 0.89562 0.0
C1808 C 0.11561 0.43159 0.86757 0.0
C1809 C 0.13371 0.42434 0.85527 0.0
C1810 C 0.16106 0.47607 0.92005 0.0
C1811 C 0.13766 0.45345 0.89376 0.0
C1812 C 0.16372 0.49243 0.93685 0.0
C1813 C 0.14614 0.50311 0.94647 0.0
C1814 C 0.14064 0.4702 0.9126 0.0
C1815 C 0.12594 0.49678 0.93862 0.0
C1816 C 0.11751 0.44623 0.88678 0.0
C1817 C 0.15351 0.4313 0.86352 0.0
N1818 N 0.12373 0.48073 0.92213 0.0
N1819 N 0.15493 0.44549 0.8821 0.0
H1820 H 0.3334 0.34985 0.61167 0.0
H1821 H 0.25934 0.4285 0.68874 0.0
H1822 H 0.33144 0.41751 0.60279 0.0
H1823 H 0.25658 0.36084 0.69756 0.0
H1824 H 0.28783 0.4242 0.65928 0.0
H1825 H 0.30779 0.35297 0.64559 0.0
C1826 C 0.3279 0.36535 0.61714 0.0
C1827 C 0.33445 0.38344 0.60431 0.0
C1828 C 0.2811 0.41023 0.66765 0.0
C1829 C 0.30512 0.3871 0.64271 0.0
C1830 C 0.26483 0.41269 0.68463 0.0
C1831 C 0.25556 0.39502 0.69584 0.0
C1832 C 0.28829 0.3899 0.66155 0.0
C1833 C 0.26313 0.37491 0.68924 0.0
C1834 C 0.31317 0.36711 0.63633 0.0
C1835 C 0.32669 0.40311 0.61199 0.0
N1836 N 0.27906 0.37288 0.67253 0.0
N1837 N 0.31243 0.40438 0.63052 0.0
H1838 H 0.39764 0.50666 0.44889 0.0
H1839 H 0.34008 0.58271 0.35237 0.0
H1840 H 0.33016 0.51013 0.43819 0.0
H1841 H 0.40754 0.58354 0.36349 0.0
H1842 H 0.33653 0.55766 0.38596 0.0
H1843 H 0.4021 0.53546 0.41913 0.0
C1844 C 0.38378 0.51342 0.44028 0.0
C1845 C 0.36348 0.50595 0.44615 0.0
C1846 C 0.35214 0.56339 0.38131 0.0
C1847 C 0.36847 0.53903 0.4123 0.0
C1848 C 0.35417 0.57779 0.36213 0.0
C1849 C 0.37414 0.58515 0.35504 0.0
C1850 C 0.37026 0.55599 0.39346 0.0
C1851 C 0.39183 0.57831 0.36844 0.0
C1852 C 0.38634 0.52997 0.42345 0.0
C1853 C 0.3461 0.51552 0.43461 0.0
N1854 N 0.38951 0.56388 0.38686 0.0
N1855 N 0.34901 0.53144 0.41827 0.0
H1856 H 0.10213 0.2684 0.37664 0.0
H1857 H 0.16287 0.15966 0.35064 0.0
H1858 H 0.15221 0.24259 0.4213 0.0
H1859 H 0.11547 0.18334 0.30077 0.0
H1860 H 0.15766 0.19006 0.37673 0.0
H1861 H 0.10539 0.23793 0.34888 0.0
C1862 C 0.11379 0.25638 0.38066 0.0
C1863 C 0.12701 0.25824 0.40138 0.0
C1864 C 0.14832 0.18881 0.36013 0.0
C1865 C 0.13079 0.22332 0.36961 0.0
C1866 C 0.1513 0.17134 0.34509 0.0
C1867 C 0.13969 0.16892 0.32331 0.0
C1868 C 0.13357 0.20435 0.35358 0.0
C1869 C 0.12479 0.18459 0.31738 0.0
C1870 C 0.11567 0.23903 0.36472 0.0
C1871 C 0.14192 0.24219 0.40543 0.0
N1872 N 0.12218 0.20173 0.33243 0.0
N1873 N 0.14333 0.22553 0.3898 0.0
H1874 H 0.09276 0.9216 0.58633 0.0
H1875 H 0.99848 0.84812 0.63369 0.0
H1876 H 0.07888 0.86205 0.55147 0.0
H1877 H 0.00938 0.91227 0.65714 0.0
H1878 H 0.02711 0.85193 0.60348 0.0
H1879 H 0.062 0.91745 0.61224 0.0
C1880 C 0.08318 0.90757 0.58404 0.0
C1881 C 0.08862 0.89206 0.56674 0.0
C1882 C 0.02313 0.86516 0.61519 0.0
C1883 C 0.05292 0.88707 0.59695 0.0
C1884 C 0.00671 0.86306 0.6324 0.0
C1885 C 1.00153 0.87984 0.6483 0.0
C1886 C 0.03449 0.88418 0.61383 0.0
C1887 C 0.01298 0.89871 0.6458 0.0
C1888 C 0.06549 0.90522 0.59895 0.0
C1889 C 0.07541 0.87431 0.56471 0.0
N1890 N 0.02885 0.90029 0.62909 0.0
N1891 N 0.05821 0.8722 0.5798 0.0
H1892 H 0.34001 0.84676 0.83857 0.0
H1893 H 0.40906 0.74797 0.88357 0.0
H1894 H 0.3979 0.82922 0.80205 0.0
H1895 H 0.34841 0.76579 0.91326 0.0
H1896 H 0.40599 0.77666 0.85331 0.0
H1897 H 0.34366 0.81669 0.86566 0.0
C1898 C 0.35357 0.83652 0.83618 0.0
C1899 C 0.36873 0.84068 0.81799 0.0
C1900 C 0.39337 0.77421 0.86643 0.0
C1901 C 0.37311 0.80574 0.84949 0.0
C1902 C 0.39503 0.75776 0.88366 0.0
C1903 C 0.37903 0.75445 0.90126 0.0
C1904 C 0.37555 0.78747 0.86672 0.0
C1905 C 0.36136 0.76786 0.90051 0.0
C1906 C 0.35565 0.81924 0.85178 0.0
C1907 C 0.38592 0.82672 0.81593 0.0
N1908 N 0.36017 0.78368 0.88369 0.0
N1909 N 0.3877 0.80987 0.83158 0.0
H1910 H 0.4313 0.14572 0.04925 0.0
H1911 H 0.49782 0.09941 0.1632 0.0
H1912 H 0.41417 0.09096 0.09195 0.0
H1913 H 0.51405 0.15828 0.128 0.0
H1914 H 0.46852 0.09533 0.13467 0.0
H1915 H 0.46279 0.15021 0.07559 0.0
C1916 C 0.43413 0.13468 0.06409 0.0
C1917 C 0.41999 0.11802 0.06847 0.0
C1918 C 0.47849 0.10915 0.13305 0.0
C1919 C 0.45593 0.12288 0.0984 0.0
C1920 C 0.49542 0.1114 0.14929 0.0
C1921 C 0.50859 0.1292 0.14811 0.0
C1922 C 0.47448 0.12477 0.11527 0.0
C1923 C 0.50422 0.14439 0.12985 0.0
C1924 C 0.45209 0.13722 0.07909 0.0
C1925 C 0.42455 0.10407 0.08783 0.0
N1926 N 0.48757 0.14185 0.11418 0.0
N1927 N 0.44199 0.10682 0.10196 0.0
H1928 H 0.17099 0.84168 0.19459 0.0
H1929 H 0.09641 0.7462 0.15336 0.0
H1930 H 0.11248 0.82843 0.2322 0.0
H1931 H 0.15948 0.7572 0.12611 0.0
H1932 H 0.10097 0.77569 0.18221 0.0
H1933 H 0.16612 0.81046 0.16966 0.0
C1934 C 0.15704 0.83213 0.1977 0.0
C1935 C 0.14205 0.83786 0.21551 0.0
C1936 C 0.11383 0.77151 0.17003 0.0
C1937 C 0.13623 0.80163 0.18646 0.0
C1938 C 0.11123 0.75474 0.15343 0.0
C1939 C 0.12759 0.7491 0.13714 0.0
C1940 C 0.13288 0.78288 0.17025 0.0
C1941 C 0.14649 0.76064 0.1384 0.0
C1942 C 0.15428 0.81419 0.18336 0.0
C1943 C 0.12437 0.8247 0.21859 0.0
N1944 N 0.14852 0.77694 0.15447 0.0
N1945 N 0.12185 0.80724 0.20406 0.0
H1946 H 0.51113 0.8491 0.40321 0.0
H1947 H 0.41367 0.91953 0.44878 0.0
H1948 H 0.49679 0.9118 0.37699 0.0
H1949 H 0.42997 0.86099 0.4846 0.0
H1950 H 0.44424 0.91595 0.42238 0.0
H1951 H 0.48219 0.85224 0.43309 0.0
C1952 C 0.50207 0.86359 0.40381 0.0
C1953 C 0.50641 0.88015 0.38727 0.0
C1954 C 0.4413 0.90382 0.43597 0.0
C1955 C 0.47306 0.88371 0.42136 0.0
C1956 C 0.42373 0.90584 0.45116 0.0
C1957 C 0.41907 0.89046 0.46892 0.0
C1958 C 0.45456 0.88616 0.43822 0.0
C1959 C 0.43284 0.87313 0.47102 0.0
C1960 C 0.48546 0.8653 0.42083 0.0
C1961 C 0.49389 0.89841 0.38888 0.0
N1962 N 0.44994 0.87137 0.45574 0.0
N1963 N 0.47786 0.89963 0.40545 0.0
H1964 H 0.40999 0.26577 0.65615 0.0
H1965 H 0.34273 0.16277 0.69022 0.0
H1966 H 0.35302 0.24575 0.61939 0.0
H1967 H 0.3963 0.18198 0.7338 0.0
H1968 H 0.34736 0.19341 0.66435 0.0
H1969 H 0.40635 0.23585 0.68466 0.0
C1970 C 0.39671 0.25515 0.65404 0.0
C1971 C 0.38173 0.25844 0.63526 0.0
C1972 C 0.35817 0.19113 0.67954 0.0
C1973 C 0.37752 0.22416 0.66793 0.0
C1974 C 0.35554 0.17351 0.69445 0.0
C1975 C 0.36915 0.1697 0.71432 0.0
C1976 C 0.37465 0.20536 0.68423 0.0
C1977 C 0.38546 0.18428 0.71866 0.0
C1978 C 0.39463 0.23812 0.67041 0.0
C1979 C 0.36479 0.24421 0.63369 0.0
N1980 N 0.38781 0.2015 0.70367 0.0
N1981 N 0.36323 0.22779 0.64966 0.0
H1982 H 0.07953 0.14602 0.98542 0.0
H1983 H 0.01116 0.09494 0.8759 0.0
H1984 H 0.09354 0.08731 0.94873 0.0
H1985 H 0.99951 0.15813 0.90223 0.0
H1986 H 0.03957 0.09135 0.90565 0.0
H1987 H 0.04848 0.15039 0.95829 0.0
C1988 C 0.07611 0.13409 0.97176 0.0
C1989 C 0.08933 0.11639 0.9692 0.0
C1990 C 0.03085 0.10605 0.90503 0.0
C1991 C 0.05384 0.12108 0.93846 0.0
C1992 C 0.01461 0.10815 0.88786 0.0
C1993 C 1.00296 0.12697 0.8862 0.0
C1994 C 0.03571 0.12286 0.92094 0.0
C1995 C 0.00796 0.14328 0.90283 0.0
C1996 C 0.05839 0.13656 0.95631 0.0
C1997 C 0.08395 0.10129 0.95138 0.0
N1998 N 0.02401 0.14091 0.9194 0.0
N1999 N 0.06678 0.10399 0.93682 0.0
H2000 H 0.83871 0.84554 0.6955 0.0
H2001 H 0.90965 0.74666 0.65509 0.0
H2002 H 0.89593 0.82908 0.73407 0.0
H2003 H 0.85012 0.76397 0.62208 0.0
H2004 H 0.90566 0.77595 0.6843 0.0
H2005 H 0.84328 0.81514 0.66908 0.0
C2006 C 0.8523 0.83546 0.6985 0.0
C2007 C 0.86701 0.84001 0.71707 0.0
C2008 C 0.89345 0.77324 0.67073 0.0
C2009 C 0.87245 0.80472 0.68635 0.0
C2010 C 0.89574 0.75656 0.65393 0.0
C2011 C 0.88018 0.75269 0.63597 0.0
C2012 C 0.87551 0.78627 0.66954 0.0
C2013 C 0.86241 0.76598 0.6357 0.0
C2014 C 0.85491 0.818 0.68328 0.0
C2015 C 0.88426 0.82625 0.71992 0.0
N2016 N 0.86065 0.7821 0.65207 0.0
N2017 N 0.88657 0.80923 0.70464 0.0
H2018 H 0.01083 0.16041 0.39793 0.0
H2019 H 0.91822 0.08678 0.4484 0.0
H2020 H 1.0025 0.09477 0.37907 0.0
H2021 H 0.93142 0.14708 0.48183 0.0
H2022 H 0.94928 0.09051 0.42295 0.0
H2023 H 0.98254 0.15697 0.42866 0.0
C2024 C 1.00325 0.14523 0.40036 0.0
C2025 C 0.00898 0.12791 0.38554 0.0
C2026 C 0.94558 0.103 0.43584 0.0
C2027 C 0.97643 0.12398 0.42058 0.0
C2028 C 0.92771 0.1009 0.45048 0.0
C2029 C 0.92194 0.11677 0.46718 0.0
C2030 C 0.95799 0.12128 0.43745 0.0
C2031 C 0.93509 0.13459 0.46899 0.0
C2032 C 0.98704 0.14333 0.41787 0.0
C2033 C 0.99841 0.10872 0.38951 0.0
N2034 N 0.95243 0.13648 0.4541 0.0
N2035 N 0.98268 0.10736 0.40643 0.0
H2036 H 0.60026 0.26085 0.15171 0.0
H2037 H 0.67309 0.16592 0.19969 0.0
H2038 H 0.66309 0.24714 0.12539 0.0
H2039 H 0.61327 0.18034 0.23373 0.0
H2040 H 0.66899 0.19619 0.17293 0.0
H2041 H 0.60403 0.23245 0.18219 0.0
C2042 C 0.61491 0.25204 0.15241 0.0
C2043 C 0.63132 0.25641 0.13566 0.0
C2044 C 0.65668 0.19291 0.18621 0.0
C2045 C 0.63562 0.22368 0.17049 0.0
C2046 C 0.65902 0.17552 0.20162 0.0
C2047 C 0.64342 0.17037 0.21895 0.0
C2048 C 0.6385 0.20551 0.18779 0.0
C2049 C 0.6256 0.18358 0.22049 0.0
C2050 C 0.61698 0.23574 0.16978 0.0
C2051 C 0.64981 0.24421 0.13743 0.0
N2052 N 0.62355 0.2005 0.20499 0.0
N2053 N 0.65138 0.2285 0.15436 0.0
H2054 H 0.51127 0.91135 0.87608 0.0
H2055 H 0.5797 0.86067 0.98585 0.0
H2056 H 0.49713 0.84995 0.9063 0.0
H2057 H 0.59583 0.91726 0.94592 0.0
H2058 H 0.54791 0.85698 0.95981 0.0
H2059 H 0.54046 0.91467 0.90487 0.0
C2060 C 0.5141 0.89863 0.88897 0.0
C2061 C 0.50157 0.88035 0.88864 0.0
C2062 C 0.55845 0.87019 0.95687 0.0
C2063 C 0.53558 0.8839 0.92173 0.0
C2064 C 0.57658 0.87227 0.97169 0.0
C2065 C 0.59054 0.88921 0.96798 0.0
C2066 C 0.55426 0.88528 0.93845 0.0
C2067 C 0.58562 0.90389 0.9495 0.0
C2068 C 0.53097 0.90045 0.90534 0.0
C2069 C 0.50646 0.86425 0.90562 0.0
N2070 N 0.56801 0.90159 0.93555 0.0
N2071 N 0.52307 0.86638 0.92143 0.0
H2072 H 0.84639 0.25093 0.90838 0.0
H2073 H 0.89875 0.17977 0.8022 0.0
H2074 H 0.91113 0.25949 0.8856 0.0
H2075 H 0.83901 0.16739 0.83751 0.0
H2076 H 0.90316 0.21104 0.82893 0.0
H2077 H 0.84283 0.22244 0.87877 0.0
C2078 C 0.85994 0.24678 0.89724 0.0
C2079 C 0.87918 0.25757 0.89987 0.0
C2080 C 0.88909 0.20144 0.83068 0.0
C2081 C 0.87512 0.22475 0.86531 0.0
C2082 C 0.88659 0.18362 0.81544 0.0
C2083 C 0.86859 0.1708 0.81775 0.0
C2084 C 0.87334 0.20651 0.84802 0.0
C2085 C 0.85322 0.17666 0.83508 0.0
C2086 C 0.85787 0.2305 0.88016 0.0
C2087 C 0.89596 0.25172 0.88424 0.0
N2088 N 0.85596 0.19394 0.84942 0.0
N2089 N 0.89359 0.23565 0.86773 0.0
H2090 H 0.50942 0.09558 0.65868 0.0
H2091 H 0.57928 0.1483 0.55162 0.0
H2092 H 0.50004 0.16021 0.63604 0.0
H2093 H 0.59344 0.08964 0.58843 0.0
H2094 H 0.54794 0.15235 0.57838 0.0
H2095 H 0.53779 0.09232 0.62882 0.0
C2096 C 0.51336 0.10916 0.64751 0.0
C2097 C 0.5024 0.12829 0.65027 0.0
C2098 C 0.55797 0.13861 0.58045 0.0
C2099 C 0.53508 0.12459 0.61544 0.0
C2100 C 0.57584 0.13633 0.56523 0.0
C2101 C 0.58918 0.11874 0.56794 0.0
C2102 C 0.55336 0.12303 0.59817 0.0
C2103 C 0.58377 0.10355 0.58566 0.0
C2104 C 0.52957 0.10727 0.63029 0.0
C2105 C 0.50797 0.14512 0.63459 0.0
N2106 N 0.56642 0.10605 0.59996 0.0
N2107 N 0.52398 0.14293 0.61795 0.0
H2108 H 0.67115 0.84366 0.33746 0.0
H2109 H 0.59843 0.74708 0.38055 0.0
H2110 H 0.61179 0.82981 0.30205 0.0
H2111 H 0.66054 0.76074 0.4091 0.0
H2112 H 0.60232 0.7765 0.35149 0.0
H2113 H 0.66691 0.81275 0.36317 0.0
C2114 C 0.65715 0.83405 0.33501 0.0
C2115 C 0.64174 0.83949 0.31757 0.0
C2116 C 0.61511 0.77294 0.36402 0.0
C2117 C 0.63667 0.80364 0.34748 0.0
C2118 C 0.61289 0.75619 0.38074 0.0
C2119 C 0.62919 0.7513 0.39744 0.0
C2120 C 0.63372 0.78502 0.36404 0.0
C2121 C 0.64764 0.76358 0.39648 0.0
C2122 C 0.65475 0.81629 0.3498 0.0
C2123 C 0.62401 0.82628 0.31534 0.0
N2124 N 0.64932 0.77982 0.38024 0.0
N2125 N 0.62188 0.80899 0.33024 0.0
H2126 H 0.91458 0.92045 0.08939 0.0
H2127 H 0.01365 0.85088 0.13243 0.0
H2128 H 0.93157 0.86286 0.052 0.0
H2129 H 0.99625 0.91136 0.16278 0.0
H2130 H 0.98478 0.85429 0.10242 0.0
H2131 H 0.94504 0.91661 0.11582 0.0
C2132 C 0.92478 0.90691 0.08666 0.0
C2133 C 0.92033 0.89188 0.06844 0.0
C2134 C 0.98736 0.8668 0.11562 0.0
C2135 C 0.95574 0.88727 0.09922 0.0
C2136 C 1.00392 0.86494 0.13271 0.0
C2137 C 0.00737 0.88079 0.15043 0.0
C2138 C 0.97417 0.88465 0.11619 0.0
C2139 C 0.99405 0.89852 0.14993 0.0
C2140 C 0.94229 0.90473 0.10189 0.0
C2141 C 0.93429 0.87474 0.06592 0.0
N2142 N 0.97814 0.8999 0.13324 0.0
N2143 N 0.95135 0.87282 0.08124 0.0
H2144 H 0.61101 0.67957 0.80155 0.0
H2145 H 0.66252 0.74684 0.91177 0.0
H2146 H 0.66958 0.66456 0.83812 0.0
H2147 H 0.6002 0.76015 0.88356 0.0
H2148 H 0.66594 0.71828 0.88214 0.0
H2149 H 0.60702 0.71044 0.82893 0.0
C2150 C 0.623 0.68275 0.81525 0.0
C2151 C 0.64059 0.66936 0.81761 0.0
C2152 C 0.65149 0.72744 0.8823 0.0
C2153 C 0.63629 0.70462 0.84873 0.0
C2154 C 0.6496 0.74396 0.89917 0.0
C2155 C 0.63105 0.75609 0.9003 0.0
C2156 C 0.63474 0.72281 0.86619 0.0
C2157 C 0.61472 0.75113 0.88364 0.0
C2158 C 0.62074 0.70035 0.83085 0.0
C2159 C 0.65572 0.67435 0.83558 0.0
N2160 N 0.61693 0.7349 0.86732 0.0
N2161 N 0.65322 0.69145 0.85031 0.0
H2162 H 0.57935 0.36166 0.05067 0.0
H2163 H 0.5117 0.41039 0.16227 0.0
H2164 H 0.59496 0.41847 0.09036 0.0
H2165 H 0.49764 0.3494 0.13099 0.0
H2166 H 0.54067 0.4143 0.13324 0.0
H2167 H 0.54809 0.35724 0.07739 0.0
C2168 C 0.57622 0.37317 0.06491 0.0
C2169 C 0.58988 0.39039 0.06834 0.0
C2170 C 0.53125 0.40004 0.13259 0.0
C2171 C 0.55419 0.38561 0.0987 0.0
C2172 C 0.51451 0.39788 0.14911 0.0
C2173 C 0.50205 0.37955 0.14918 0.0
C2174 C 0.53578 0.38379 0.11579 0.0
C2175 C 0.50692 0.36372 0.13186 0.0
C2176 C 0.5584 0.37067 0.08014 0.0
C2177 C 0.58497 0.40491 0.08699 0.0
N2178 N 0.52338 0.3662 0.1159 0.0
N2179 N 0.56765 0.40219 0.10134 0.0
H2180 H 0.89994 0.32915 0.30336 0.0
H2181 H 0.84847 0.25884 0.41098 0.0
H2182 H 0.84168 0.34332 0.34103 0.0
H2183 H 0.9122 0.24852 0.38547 0.0
H2184 H 0.84483 0.28759 0.38161 0.0
H2185 H 0.90416 0.29769 0.32983 0.0
C2186 C 0.88806 0.32566 0.31708 0.0
C2187 C 0.87051 0.339 0.32005 0.0
C2188 C 0.85964 0.27904 0.38231 0.0
C2189 C 0.87504 0.30307 0.35008 0.0
C2190 C 0.86166 0.26242 0.39901 0.0
C2191 C 0.88068 0.25111 0.40084 0.0
C2192 C 0.87671 0.28459 0.36707 0.0
C2193 C 0.89732 0.25692 0.38499 0.0
C2194 C 0.89046 0.30773 0.33217 0.0
C2195 C 0.85552 0.33361 0.33804 0.0
N2196 N 0.89497 0.27324 0.36881 0.0
N2197 N 0.85813 0.31619 0.35223 0.0
H2198 H 0.91452 0.59004 0.58866 0.0
H2199 H 0.01184 0.66042 0.63386 0.0
H2200 H 0.9309 0.64816 0.55199 0.0
H2201 H 0.99796 0.59743 0.65942 0.0
H2202 H 0.98312 0.65718 0.60365 0.0
H2203 H 0.94536 0.5935 0.61452 0.0
C2204 C 0.92467 0.60361 0.58597 0.0
C2205 C 0.91992 0.61893 0.56816 0.0
C2206 C 0.98648 0.64407 0.61582 0.0
C2207 C 0.95573 0.62311 0.59829 0.0
C2208 C 1.00293 0.64584 0.63302 0.0
C2209 C 0.00728 0.62924 0.64951 0.0
C2210 C 0.97426 0.62557 0.61508 0.0
C2211 C 0.99502 0.61085 0.64759 0.0
C2212 C 0.9424 0.60557 0.60085 0.0
C2213 C 0.93384 0.63608 0.56563 0.0
N2214 N 0.97913 0.60959 0.63088 0.0
N2215 N 0.95109 0.63781 0.58068 0.0
H2216 H 0.67088 0.34357 0.69738 0.0
H2217 H 0.59851 0.24729 0.65282 0.0
H2218 H 0.61225 0.32849 0.73375 0.0
H2219 H 0.6611 0.26078 0.62558 0.0
H2220 H 0.60224 0.27639 0.68237 0.0
H2221 H 0.66665 0.31298 0.67122 0.0
C2222 C 0.65703 0.33376 0.69995 0.0
C2223 C 0.64182 0.3388 0.71779 0.0
C2224 C 0.61517 0.27285 0.67002 0.0
C2225 C 0.63676 0.30327 0.68732 0.0
C2226 C 0.61305 0.2563 0.65302 0.0
C2227 C 0.62953 0.25144 0.63654 0.0
C2228 C 0.63387 0.2848 0.67049 0.0
C2229 C 0.64805 0.26359 0.638 0.0
C2230 C 0.65463 0.31618 0.68489 0.0
C2231 C 0.62428 0.32533 0.72013 0.0
N2232 N 0.64962 0.27965 0.65448 0.0
N2233 N 0.62215 0.30821 0.70494 0.0
H2234 H 0.92991 0.36263 0.98443 0.0
H2235 H 0.99879 0.41481 0.87597 0.0
H2236 H 0.91632 0.42196 0.94885 0.0
H2237 H 0.00951 0.35093 0.90062 0.0
H2238 H 0.97046 0.41821 0.90587 0.0
H2239 H 0.96091 0.35842 0.95719 0.0
C2240 C 0.93344 0.37474 0.97101 0.0
C2241 C 0.92035 0.39257 0.9688 0.0
C2242 C 0.97896 0.4034 0.90484 0.0
C2243 C 0.95577 0.38804 0.93791 0.0
C2244 C 0.99515 0.40141 0.88759 0.0
C2245 C 0.00652 0.38246 0.8854 0.0
C2246 C 0.97386 0.38636 0.92031 0.0
C2247 C 1.00129 0.36589 0.90162 0.0
C2248 C 0.95111 0.37235 0.95548 0.0
C2249 C 0.92581 0.40788 0.95124 0.0
N2250 N 0.9853 0.36817 0.91828 0.0
N2251 N 0.94296 0.40525 0.93659 0.0
H2252 H 0.8483 0.74898 0.12416 0.0
H2253 H 0.89695 0.6805 0.23521 0.0
H2254 H 0.91017 0.76154 0.15408 0.0
H2255 H 0.83958 0.6658 0.19604 0.0
H2256 H 0.90161 0.71174 0.20851 0.0
H2257 H 0.84407 0.72028 0.15348 0.0
C2258 C 0.86095 0.74591 0.13707 0.0
C2259 C 0.87962 0.75786 0.13652 0.0
C2260 C 0.88801 0.70164 0.20588 0.0
C2261 C 0.87499 0.72442 0.17027 0.0
C2262 C 0.88537 0.68382 0.22109 0.0
C2263 C 0.86795 0.67038 0.21776 0.0
C2264 C 0.87299 0.70608 0.18745 0.0
C2265 C 0.85332 0.67559 0.19931 0.0
C2266 C 0.85859 0.72931 0.15377 0.0
C2267 C 0.89558 0.75265 0.15356 0.0
N2268 N 0.85617 0.69289 0.18498 0.0
N2269 N 0.89292 0.73635 0.1697 0.0
H2270 H 0.5964 0.58946 0.4484 0.0
H2271 H 0.49804 0.65937 0.40405 0.0
H2272 H 0.57957 0.64749 0.48494 0.0
H2273 H 0.51417 0.59791 0.37545 0.0
H2274 H 0.52697 0.6561 0.43396 0.0
H2275 H 0.56598 0.59318 0.4218 0.0
C2276 C 0.58625 0.60306 0.45089 0.0
C2277 C 0.59071 0.61825 0.46892 0.0
C2278 C 0.52409 0.64334 0.42117 0.0
C2279 C 0.55539 0.62272 0.43801 0.0
C2280 C 0.5075 0.64512 0.40413 0.0
C2281 C 0.50366 0.62895 0.38694 0.0
C2282 C 0.53696 0.62525 0.42106 0.0
C2283 C 0.51666 0.611 0.38789 0.0
C2284 C 0.56877 0.60518 0.43559 0.0
C2285 C 0.57684 0.6355 0.47115 0.0
N2286 N 0.53264 0.6097 0.4045 0.0
N2287 N 0.55982 0.63733 0.45578 0.0
H2288 H 0.41155 0.24569 0.15435 0.0
H2289 H 0.33976 0.34341 0.19618 0.0
H2290 H 0.3501 0.26048 0.12461 0.0
H2291 H 0.39752 0.32765 0.23405 0.0
H2292 H 0.34409 0.31268 0.17024 0.0
H2293 H 0.40761 0.27498 0.18359 0.0
C2294 C 0.39722 0.25502 0.15393 0.0
C2295 C 0.38112 0.25047 0.13684 0.0
C2296 C 0.35588 0.31576 0.18419 0.0
C2297 C 0.37653 0.28405 0.17045 0.0
C2298 C 0.35343 0.33342 0.19913 0.0
C2299 C 0.36837 0.3383 0.21733 0.0
C2300 C 0.37355 0.30262 0.18713 0.0
C2301 C 0.38569 0.3246 0.22015 0.0
C2302 C 0.39497 0.27169 0.17076 0.0
C2303 C 0.36284 0.26304 0.13752 0.0
N2304 N 0.38788 0.30741 0.20509 0.0
N2305 N 0.36114 0.27919 0.15386 0.0
H2306 H 0.50903 0.66139 0.9 0.0
H2307 H 0.41552 0.58857 0.95017 0.0
H2308 H 0.50034 0.59579 0.88111 0.0
H2309 H 0.42913 0.649 0.98308 0.0
H2310 H 0.44652 0.59208 0.92445 0.0
H2311 H 0.48032 0.65826 0.93018 0.0
C2312 C 0.50128 0.64628 0.9023 0.0
C2313 C 0.50709 0.62887 0.88766 0.0
C2314 C 0.44291 0.60463 0.93728 0.0
C2315 C 0.47401 0.62533 0.92206 0.0
C2316 C 0.42509 0.60266 0.95207 0.0
C2317 C 0.41953 0.6186 0.96877 0.0
C2318 C 0.45545 0.62283 0.9388 0.0
C2319 C 0.43271 0.63641 0.97032 0.0
C2320 C 0.48482 0.64457 0.9195 0.0
C2321 C 0.49624 0.60981 0.89143 0.0
N2322 N 0.45001 0.63814 0.95535 0.0
N2323 N 0.48026 0.60862 0.90806 0.0
H2324 H 0.09852 0.76166 0.65091 0.0
H2325 H 0.17024 0.66483 0.69555 0.0
H2326 H 0.16046 0.74671 0.6227 0.0
H2327 H 0.11197 0.68059 0.73235 0.0
H2328 H 0.16603 0.69523 0.66915 0.0
H2329 H 0.10231 0.73301 0.68111 0.0
C2330 C 0.11297 0.75252 0.65114 0.0
C2331 C 0.12912 0.75659 0.63395 0.0
C2332 C 0.15408 0.69223 0.68296 0.0
C2333 C 0.13344 0.72363 0.66841 0.0
C2334 C 0.15648 0.67475 0.69816 0.0
C2335 C 0.14137 0.66997 0.7162 0.0
C2336 C 0.13631 0.7053 0.68544 0.0
C2337 C 0.12393 0.68358 0.71859 0.0
C2338 C 0.11506 0.73609 0.66834 0.0
C2339 C 0.14737 0.74401 0.63511 0.0
N2340 N 0.1218 0.7006 0.70326 0.0
N2341 N 0.14896 0.72819 0.65188 0.0
H2342 H 0.01172 0.41633 0.37634 0.0
H2343 H 0.0796 0.36472 0.48602 0.0
H2344 H 1.00023 0.35293 0.40213 0.0
H2345 H 0.09377 0.42365 0.44989 0.0
H2346 H 0.04873 0.36051 0.45862 0.0
H2347 H 0.03995 0.41984 0.40636 0.0
C2348 C 0.01517 0.40306 0.38824 0.0
C2349 C 1.00362 0.38421 0.38635 0.0
C2350 C 0.05863 0.37436 0.45682 0.0
C2351 C 0.03614 0.38823 0.42137 0.0
C2352 C 0.07624 0.37673 0.47242 0.0
C2353 C 0.08947 0.39444 0.47009 0.0
C2354 C 0.05416 0.38994 0.43905 0.0
C2355 C 0.08417 0.40967 0.45236 0.0
C2356 C 0.0313 0.40511 0.40555 0.0
C2357 C 0.0086 0.36781 0.4029 0.0
N2358 N 0.06708 0.40705 0.43764 0.0
N2359 N 0.02454 0.37014 0.41961 0.0
H2360 H 0.41167 0.76158 0.38113 0.0
H2361 H 0.33799 0.66674 0.33532 0.0
H2362 H 0.34835 0.74959 0.40702 0.0
H2363 H 0.39855 0.67928 0.30204 0.0
H2364 H 0.34211 0.6977 0.36096 0.0
H2365 H 0.40787 0.73236 0.35182 0.0
C2366 C 0.39695 0.75288 0.38068 0.0
C2367 C 0.3803 0.75818 0.39673 0.0
C2368 C 0.35457 0.69386 0.34807 0.0
C2369 C 0.37587 0.72468 0.36303 0.0
C2370 C 0.35223 0.67608 0.33332 0.0
C2371 C 0.36802 0.67023 0.31652 0.0
C2372 C 0.37296 0.70612 0.34638 0.0
C2373 C 0.38604 0.68311 0.31484 0.0
C2374 C 0.39479 0.73625 0.36382 0.0
C2375 C 0.36155 0.74643 0.39493 0.0
N2376 N 0.3881 0.70041 0.32972 0.0
N2377 N 0.35993 0.73029 0.37858 0.0
H2378 H 0.09394 0.58763 0.08893 0.0
H2379 H 0.99521 0.65915 0.1285 0.0
H2380 H 0.07783 0.64468 0.04989 0.0
H2381 H 0.01159 0.59931 0.16131 0.0
H2382 H 0.02461 0.65489 0.09945 0.0
H2383 H 0.06326 0.59227 0.11496 0.0
C2384 C 0.08388 0.60121 0.08575 0.0
C2385 C 0.08865 0.61587 0.06721 0.0
C2386 C 0.02166 0.64267 0.11293 0.0
C2387 C 0.05303 0.6214 0.09747 0.0
C2388 C 1.00492 0.64511 0.12964 0.0
C2389 C 1.00077 0.62955 0.14752 0.0
C2390 C 0.03448 0.62458 0.11412 0.0
C2391 C 0.01382 0.61161 0.14777 0.0
C2392 C 0.06627 0.60385 0.10074 0.0
C2393 C 0.07488 0.63309 0.06409 0.0
N2394 N 0.03002 0.60971 0.13149 0.0
N2395 N 0.05772 0.63545 0.07917 0.0
H2396 H 0.11212 0.32903 0.80177 0.0
H2397 H 0.15979 0.26155 0.91424 0.0
H2398 H 0.16846 0.34466 0.84245 0.0
H2399 H 0.09985 0.24632 0.8809 0.0
H2400 H 0.1637 0.29077 0.8856 0.0
H2401 H 0.10749 0.29768 0.82832 0.0
C2402 C 0.12348 0.32589 0.81619 0.0
C2403 C 0.14065 0.33957 0.81991 0.0
C2404 C 0.14967 0.28105 0.88441 0.0
C2405 C 0.1356 0.30381 0.85012 0.0
C2406 C 0.14751 0.26416 0.90072 0.0
C2407 C 0.12948 0.25126 0.90008 0.0
C2408 C 0.13372 0.28531 0.8671 0.0
C2409 C 0.11393 0.25591 0.88232 0.0
C2410 C 0.12085 0.30802 0.83132 0.0
C2411 C 0.15495 0.33466 0.83881 0.0
N2412 N 0.1164 0.27252 0.86656 0.0
N2413 N 0.15211 0.31731 0.85306 0.0
H2414 H 0.51352 0.35033 0.62909 0.0
H2415 H 0.41313 0.42034 0.59154 0.0
H2416 H 0.49656 0.40961 0.6628 0.0
H2417 H 0.4309 0.36476 0.55071 0.0
H2418 H 0.44395 0.41593 0.61747 0.0
H2419 H 0.48391 0.35451 0.60032 0.0
C2420 C 0.50362 0.36423 0.63049 0.0
C2421 C 0.50766 0.37965 0.64854 0.0
C2422 C 0.44127 0.40463 0.60287 0.0
C2423 C 0.47371 0.38452 0.61548 0.0
C2424 C 0.42357 0.40714 0.58796 0.0
C2425 C 0.41926 0.39283 0.56892 0.0
C2426 C 0.45501 0.38756 0.59902 0.0
C2427 C 0.4335 0.37607 0.56529 0.0
C2428 C 0.48677 0.36663 0.61394 0.0
C2429 C 0.49439 0.39742 0.64911 0.0
N2430 N 0.45071 0.37383 0.58029 0.0
N2431 N 0.47807 0.39928 0.63299 0.0
H2432 H 0.10557 0.05933 0.22999 0.0
H2433 H 0.10365 0.95038 0.30121 0.0
H2434 H 0.12634 0.05551 0.30532 0.0
H2435 H 0.12743 0.95359 0.22706 0.0
H2436 H 0.10398 0.9893 0.30292 0.0
H2437 H 0.10566 0.02039 0.22803 0.0
C2438 C 0.11014 0.0503 0.24604 0.0
C2439 C 0.11613 0.06059 0.26774 0.0
C2440 C 0.10912 0.98138 0.28633 0.0
C2441 C 0.11562 0.01641 0.2659 0.0
C2442 C 0.10892 0.95928 0.28536 0.0
C2443 C 0.11569 0.94883 0.26408 0.0
C2444 C 0.11547 0.99301 0.2656 0.0
C2445 C 0.1223 0.96105 0.24393 0.0
C2446 C 0.11021 0.02819 0.24492 0.0
C2447 C 0.12184 0.0482 0.28812 0.0
N2448 N 0.1218 0.9825 0.24507 0.0
N2449 N 0.12121 0.02677 0.28681 0.0
H2450 H 0.20138 0.8948 0.52692 0.0
H2451 H 0.30695 0.82586 0.52712 0.0
H2452 H 0.20178 0.82851 0.50897 0.0
H2453 H 0.30745 0.89289 0.51326 0.0
H2454 H 0.26818 0.82658 0.52698 0.0
H2455 H 0.24014 0.89454 0.5273 0.0
C2456 C 0.20964 0.88025 0.52281 0.0
C2457 C 0.19836 0.86168 0.51775 0.0
C2458 C 0.2768 0.84114 0.52411 0.0
C2459 C 0.24265 0.86114 0.51884 0.0
C2460 C 0.29891 0.84078 0.52443 0.0
C2461 C 0.31042 0.85936 0.52023 0.0
C2462 C 0.26612 0.86027 0.51995 0.0
C2463 C 0.29916 0.87822 0.5166 0.0
C2464 C 0.23174 0.8801 0.52311 0.0
C2465 C 0.20985 0.84321 0.51276 0.0
N2466 N 0.27766 0.87821 0.51661 0.0
N2467 N 0.23136 0.84335 0.51367 0.0
H2468 H 0.43283 0.95246 0.75902 0.0
H2469 H 0.36361 0.05771 0.75736 0.0
H2470 H 0.3656 0.95168 0.77184 0.0
H2471 H 0.4295 0.05749 0.77747 0.0
H2472 H 0.36395 0.01897 0.75717 0.0
H2473 H 0.43194 0.99121 0.75915 0.0
C2474 C 0.41783 0.96044 0.76147 0.0
C2475 C 0.39924 0.94885 0.76539 0.0
C2476 C 0.37828 0.02741 0.76181 0.0
C2477 C 0.39814 0.99311 0.76563 0.0
C2478 C 0.37808 0.04949 0.76201 0.0
C2479 C 0.39651 0.06082 0.76761 0.0
C2480 C 0.39717 0.01656 0.76671 0.0
C2481 C 0.41489 0.04939 0.77326 0.0
C2482 C 0.41738 0.98253 0.76179 0.0
C2483 C 0.38028 0.96002 0.76872 0.0
N2484 N 0.41482 0.02789 0.77241 0.0
N2485 N 0.3802 0.98151 0.7687 0.0
H2486 H 0.20189 0.11366 1.00888 0.0
H2487 H 0.30842 0.18056 1.00656 0.0
H2488 H 0.20294 0.18061 0.02314 0.0
H2489 H 0.30764 0.11489 0.02752 0.0
H2490 H 0.26965 0.18039 1.00573 0.0
H2491 H 0.24066 0.11328 1.00983 0.0
C2492 C 0.21029 0.12823 1.01243 0.0
C2493 C 0.19921 0.14717 1.01609 0.0
C2494 C 0.278 0.16601 1.01039 0.0
C2495 C 0.24349 0.14695 1.0165 0.0
C2496 C 0.30011 0.16603 1.01065 0.0
C2497 C 0.31125 0.14769 1.01708 0.0
C2498 C 0.26697 0.14741 1.01615 0.0
C2499 C 0.29965 0.12936 0.02241 0.0
C2500 C 0.23238 0.12801 1.01291 0.0
C2501 C 0.21086 0.16564 0.02043 0.0
N2502 N 0.27815 0.12965 0.02174 0.0
N2503 N 0.23238 0.16512 0.02026 0.0
H2504 H 0.86351 0.05791 0.7771 0.0
H2505 H 0.93079 0.95163 0.77682 0.0
H2506 H 0.93 0.05683 0.75989 0.0
H2507 H 0.86454 0.9521 0.75829 0.0
H2508 H 0.93043 0.99036 0.77765 0.0
H2509 H 0.86314 0.01914 0.77614 0.0
C2510 C 0.87797 0.0495 0.77288 0.0
C2511 C 0.89678 0.06057 0.76842 0.0
C2512 C 0.91596 0.98196 0.77352 0.0
C2513 C 0.8966 0.01634 0.76801 0.0
C2514 C 0.91611 0.95987 0.77326 0.0
C2515 C 0.89765 0.94866 0.76748 0.0
C2516 C 0.89715 0.99289 0.76842 0.0
C2517 C 0.87911 0.96016 0.76283 0.0
C2518 C 0.87776 0.02742 0.77241 0.0
C2519 C 0.91512 0.04892 0.76325 0.0
N2520 N 0.87929 0.98165 0.76349 0.0
N2521 N 0.91463 0.02744 0.76345 0.0
H2522 H 0.70361 0.13605 0.55724 0.0
H2523 H 0.80712 0.13565 0.47748 0.0
H2524 H 0.70181 0.15833 0.48239 0.0
H2525 H 0.80914 0.15713 0.55261 0.0
H2526 H 0.76844 0.13681 0.47881 0.0
H2527 H 0.74228 0.1366 0.55586 0.0
C2528 C 0.71136 0.14091 0.54042 0.0
C2529 C 0.69951 0.14709 0.51981 0.0
C2530 C 0.77737 0.14126 0.49498 0.0
C2531 C 0.74372 0.14745 0.51812 0.0
C2532 C 0.79941 0.14046 0.49434 0.0
C2533 C 0.81133 0.14624 0.51506 0.0
C2534 C 0.76712 0.14728 0.51669 0.0
C2535 C 0.80051 0.15255 0.53629 0.0
C2536 C 0.73341 0.14136 0.53976 0.0
C2537 C 0.7104 0.15345 0.49863 0.0
N2538 N 0.77896 0.15265 0.53669 0.0
N2539 N 0.73195 0.15321 0.4982 0.0
H2540 H 0.57766 0.05829 0.27519 0.0
H2541 H 0.64508 0.95191 0.27648 0.0
H2542 H 0.64435 0.05761 0.25893 0.0
H2543 H 0.5784 0.95284 0.26029 0.0
H2544 H 0.64542 0.99064 0.27524 0.0
H2545 H 0.57785 0.01956 0.27598 0.0
C2546 C 0.59239 0.04999 0.2721 0.0
C2547 C 0.61103 0.06116 0.26699 0.0
C2548 C 0.63076 0.98235 0.27179 0.0
C2549 C 0.61134 0.0169 0.26785 0.0
C2550 C 0.63056 0.96028 0.27243 0.0
C2551 C 0.61171 0.94917 0.26836 0.0
C2552 C 0.61187 0.99342 0.26757 0.0
C2553 C 0.59331 0.96078 0.26336 0.0
C2554 C 0.59245 0.0279 0.27233 0.0
C2555 C 0.62964 0.04959 0.26294 0.0
N2556 N 0.5938 0.98228 0.26337 0.0
N2557 N 0.62935 0.0281 0.26354 0.0
H2558 H 0.70286 0.82723 0.02979 0.0
H2559 H 0.80904 0.89466 0.02547 0.0
H2560 H 0.70292 0.89328 1.01052 0.0
H2561 H 0.808 0.82787 1.01025 0.0
H2562 H 0.77028 0.89488 0.0256 0.0
H2563 H 0.74164 0.82753 0.02939 0.0
C2564 C 0.71103 0.84187 0.02585 0.0
C2565 C 0.69967 0.86028 0.02023 0.0
C2566 C 0.77854 0.88022 0.02204 0.0
C2567 C 0.74397 0.86071 0.01969 0.0
C2568 C 0.80063 0.8801 0.02187 0.0
C2569 C 0.81174 0.86126 1.01765 0.0
C2570 C 0.76744 0.86127 0.01854 0.0
C2571 C 0.80006 0.84278 1.01336 0.0
C2572 C 0.73314 0.84197 0.02538 0.0
C2573 C 0.71109 0.87875 1.01501 0.0
N2574 N 0.77855 0.84319 1.01418 0.0
N2575 N 0.7326 0.87853 1.01495 0.0
H2576 H 0.57737 0.55745 0.75739 0.0
H2577 H 0.64485 0.4511 0.75781 0.0
H2578 H 0.64402 0.55705 0.77382 0.0
H2579 H 0.57821 0.45219 0.77422 0.0
H2580 H 0.64516 0.48983 0.75831 0.0
H2581 H 0.57763 0.51872 0.7571 0.0
C2582 C 0.59212 0.54923 0.76059 0.0
C2583 C 0.61072 0.56048 0.76561 0.0
C2584 C 0.63051 0.48158 0.76197 0.0
C2585 C 0.6111 0.51619 0.76535 0.0
C2586 C 0.63033 0.4595 0.76177 0.0
C2587 C 0.6115 0.44841 0.76613 0.0
C2588 C 0.61163 0.4927 0.76604 0.0
C2589 C 0.5931 0.46009 0.77094 0.0
C2590 C 0.59221 0.52713 0.76065 0.0
C2591 C 0.62934 0.54897 0.76984 0.0
N2592 N 0.59358 0.4816 0.77052 0.0
N2593 N 0.62908 0.52747 0.76954 0.0
H2594 H 0.80771 0.32811 0.02536 0.0
H2595 H 0.70124 0.39519 0.02447 0.0
H2596 H 0.8072 0.39456 1.00807 0.0
H2597 H 0.70241 0.3287 1.00752 0.0
H2598 H 0.73999 0.39558 0.02382 0.0
H2599 H 0.76893 0.32825 0.02527 0.0
C2600 C 0.79944 0.34278 0.02187 0.0
C2601 C 0.81066 0.36137 1.01674 0.0
C2602 C 0.73175 0.38096 0.02004 0.0
C2603 C 0.76637 0.36162 1.0166 0.0
C2604 C 0.70966 0.38073 0.02032 0.0
C2605 C 0.6986 0.36192 1.01586 0.0
C2606 C 0.74289 0.36212 1.01583 0.0
C2607 C 0.7103 0.34359 1.01084 0.0
C2608 C 0.77733 0.3428 0.0216 0.0
C2609 C 0.79913 0.3799 1.01214 0.0
N2610 N 0.73182 0.34409 1.01123 0.0
N2611 N 0.77762 0.37959 1.01227 0.0
H2612 H 0.93087 0.55736 0.27493 0.0
H2613 H 0.86355 0.45122 0.27477 0.0
H2614 H 0.86461 0.5572 0.2565 0.0
H2615 H 0.92999 0.4522 0.25725 0.0
H2616 H 0.86319 0.48999 0.27373 0.0
H2617 H 0.9305 0.51862 0.27519 0.0
C2618 C 0.91619 0.54918 0.27126 0.0
C2619 C 0.89773 0.56051 0.26572 0.0
C2620 C 0.87779 0.48169 0.26992 0.0
C2621 C 0.89721 0.51623 0.26601 0.0
C2622 C 0.878 0.4596 0.27043 0.0
C2623 C 0.89679 0.44848 0.26592 0.0
C2624 C 0.89662 0.49276 0.26545 0.0
C2625 C 0.91511 0.46012 0.26063 0.0
C2626 C 0.91604 0.52709 0.27119 0.0
C2627 C 0.87917 0.54907 0.2609 0.0
N2628 N 0.91463 0.48162 0.26082 0.0
N2629 N 0.87935 0.52757 0.26126 0.0
H2630 H 0.70169 0.61586 0.51321 0.0
H2631 H 0.80826 0.68283 0.50669 0.0
H2632 H 0.70303 0.68317 0.52494 0.0
H2633 H 0.80769 0.61683 0.52618 0.0
H2634 H 0.76947 0.68285 0.50722 0.0
H2635 H 0.74042 0.61547 0.51301 0.0
C2636 C 0.71016 0.63052 0.51604 0.0
C2637 C 0.69915 0.64955 0.51926 0.0
C2638 C 0.77786 0.66835 0.51126 0.0
C2639 C 0.74343 0.64932 0.51834 0.0
C2640 C 0.79998 0.66828 0.51071 0.0
C2641 C 0.81119 0.64978 0.51635 0.0
C2642 C 0.7669 0.64972 0.51709 0.0
C2643 C 0.79964 0.63142 0.52168 0.0
C2644 C 0.73224 0.63029 0.51583 0.0
C2645 C 0.7109 0.66812 0.52261 0.0
N2646 N 0.77814 0.63183 0.52186 0.0
N2647 N 0.7324 0.66758 0.52181 0.0
H2648 H 0.36462 0.55735 0.27637 0.0
H2649 H 0.43134 0.45064 0.27752 0.0
H2650 H 0.43154 0.55605 0.26163 0.0
H2651 H 0.36542 0.45155 0.25753 0.0
H2652 H 0.43124 0.48937 0.27834 0.0
H2653 H 0.36408 0.5186 0.27508 0.0
C2654 C 0.37915 0.5489 0.27264 0.0
C2655 C 0.39813 0.55992 0.26897 0.0
C2656 C 0.41679 0.48107 0.27387 0.0
C2657 C 0.39773 0.51564 0.26814 0.0
C2658 C 0.41678 0.45898 0.27361 0.0
C2659 C 0.39834 0.44787 0.26746 0.0
C2660 C 0.39813 0.49215 0.26839 0.0
C2661 C 0.37996 0.45952 0.26237 0.0
C2662 C 0.37884 0.52682 0.27196 0.0
C2663 C 0.41654 0.54819 0.26438 0.0
N2664 N 0.38029 0.48101 0.26305 0.0
N2665 N 0.41593 0.52669 0.26436 0.0
H2666 H 0.30704 0.68189 0.02971 0.0
H2667 H 0.20119 0.61371 0.02819 0.0
H2668 H 0.30716 0.61565 1.01143 0.0
H2669 H 0.20167 0.68036 1.01205 0.0
H2670 H 0.23998 0.61376 0.02784 0.0
H2671 H 0.26826 0.68132 0.03007 0.0
C2672 C 0.29892 0.66716 0.02613 0.0
C2673 C 0.31032 0.64876 0.02057 0.0
C2674 C 0.23158 0.62833 0.02421 0.0
C2675 C 0.26601 0.64803 0.02094 0.0
C2676 C 0.20948 0.62831 0.02434 0.0
C2677 C 0.19821 0.64703 0.01999 0.0
C2678 C 0.24252 0.64731 0.02025 0.0
C2679 C 0.20973 0.66554 1.01531 0.0
C2680 C 0.2768 0.6669 0.02611 0.0
C2681 C 0.29896 0.63017 1.01584 0.0
N2682 N 0.23125 0.66527 1.01582 0.0
N2683 N 0.27744 0.63025 1.01622 0.0
H2684 H 0.14674 0.4516 0.77717 0.0
H2685 H 0.07937 0.55779 0.77812 0.0
H2686 H 0.08049 0.45279 0.75876 0.0
H2687 H 0.14567 0.55774 0.75989 0.0
H2688 H 0.07979 0.51905 0.77815 0.0
H2689 H 0.14706 0.49037 0.77684 0.0
C2690 C 0.13233 0.46003 0.77279 0.0
C2691 C 0.1136 0.44897 0.7678 0.0
C2692 C 0.09426 0.52754 0.77427 0.0
C2693 C 0.11371 0.49324 0.76817 0.0
C2694 C 0.09408 0.54964 0.77449 0.0
C2695 C 0.11254 0.56099 0.76904 0.0
C2696 C 0.11311 0.51671 0.76904 0.0
C2697 C 0.13112 0.54958 0.76423 0.0
C2698 C 0.13251 0.48212 0.7727 0.0
C2699 C 0.09531 0.46067 0.7625 0.0
N2700 N 0.13096 0.52807 0.76444 0.0
N2701 N 0.09576 0.48217 0.7631 0.0
H2702 H 0.20177 0.39592 0.50872 0.0
H2703 H 0.30843 0.32888 0.5066 0.0
H2704 H 0.20284 0.32898 0.52309 0.0
H2705 H 0.30752 0.39483 0.5262 0.0
H2706 H 0.26964 0.32898 0.50588 0.0
H2707 H 0.24054 0.39622 0.50936 0.0
C2708 C 0.21018 0.38132 0.51224 0.0
C2709 C 0.19909 0.36242 0.51602 0.0
C2710 C 0.27796 0.34344 0.51021 0.0
C2711 C 0.24339 0.36256 0.5161 0.0
C2712 C 0.30008 0.34345 0.5104 0.0
C2713 C 0.3112 0.3619 0.51643 0.0
C2714 C 0.26689 0.3621 0.51565 0.0
C2715 C 0.29955 0.38028 0.52142 0.0
C2716 C 0.23227 0.3815 0.51254 0.0
C2717 C 0.21076 0.34392 0.52029 0.0
N2718 N 0.27805 0.37995 0.52084 0.0
N2719 N 0.23228 0.34441 0.51997 0.0
H2720 H 0.10014 0.16002 0.07801 0.0
H2721 H 0.15919 0.13273 0.20396 0.0
H2722 H 0.15393 0.11866 0.0857 0.0
H2723 H 0.09202 0.14447 0.2056 0.0
H2724 H 0.15878 0.13619 0.15969 0.0
H2725 H 0.09781 0.16194 0.12355 0.0
C2726 C 0.11144 0.15145 0.08912 0.0
C2727 C 0.12718 0.13905 0.07783 0.0
C2728 C 0.14408 0.13814 0.16962 0.0
C2729 C 0.12484 0.1415 0.12963 0.0
C2730 C 0.14427 0.1362 0.19511 0.0
C2731 C 0.12554 0.138 0.20885 0.0
C2732 C 0.12505 0.14202 0.15718 0.0
C2733 C 0.10684 0.14285 0.19587 0.0
C2734 C 0.11004 0.15247 0.11506 0.0
C2735 C 0.14137 0.12827 0.09328 0.0
N2736 N 0.10702 0.14455 0.17072 0.0
N2737 N 0.13992 0.12986 0.11808 0.0
H2738 H 0.11496 0.83888 0.45462 0.0
H2739 H 0.14512 0.90132 0.33374 0.0
H2740 H 0.1268 0.90593 0.45148 0.0
H2741 H 0.10042 0.85025 0.32673 0.0
H2742 H 0.14271 0.89871 0.378 0.0
H2743 H 0.11224 0.83859 0.40915 0.0
C2744 C 0.11667 0.85353 0.44457 0.0
C2745 C 0.1214 0.87241 0.45713 0.0
C2746 C 0.13336 0.88801 0.36692 0.0
C2747 C 0.11866 0.87206 0.40528 0.0
C2748 C 0.13481 0.88939 0.34145 0.0
C2749 C 0.12297 0.87598 0.32619 0.0
C2750 C 0.12018 0.87287 0.37781 0.0
C2751 C 0.10978 0.86099 0.3377 0.0
C2752 C 0.11514 0.85333 0.41863 0.0
C2753 C 0.12349 0.89087 0.44293 0.0
N2754 N 0.10885 0.8597 0.36288 0.0
N2755 N 0.12239 0.89014 0.41805 0.0
H2756 H 0.42371 0.88543 0.70432 0.0
H2757 H 0.37547 0.83503 0.5816 0.0
H2758 H 0.36353 0.8537 0.70452 0.0
H2759 H 0.40357 0.89696 0.58179 0.0
H2760 H 0.37964 0.83358 0.62666 0.0
H2761 H 0.4251 0.88153 0.65922 0.0
C2762 C 0.41111 0.8771 0.69498 0.0
C2763 C 0.39355 0.86974 0.70823 0.0
C2764 C 0.38525 0.84729 0.61671 0.0
C2765 C 0.39513 0.86509 0.65676 0.0
C2766 C 0.38305 0.84804 0.59101 0.0
C2767 C 0.3893 0.86609 0.57788 0.0
C2768 C 0.3943 0.86443 0.62931 0.0
C2769 C 0.39862 0.88271 0.59116 0.0
C2770 C 0.41182 0.87507 0.66926 0.0
C2771 C 0.37741 0.8595 0.69505 0.0
N2772 N 0.40092 0.88146 0.61604 0.0
N2773 N 0.37862 0.8574 0.67014 0.0
H2774 H 0.35562 0.12233 0.83394 0.0
H2775 H 0.40081 0.1687 0.95716 0.0
H2776 H 0.41714 0.15149 0.82848 0.0
H2777 H 0.3736 0.10645 0.95039 0.0
H2778 H 0.40372 0.17019 0.91169 0.0
H2779 H 0.35742 0.12514 0.87818 0.0
C2780 C 0.36955 0.12954 0.84189 0.0
C2781 C 0.38639 0.13647 0.82704 0.0
C2782 C 0.39737 0.1562 0.92042 0.0
C2783 C 0.38831 0.13988 0.87869 0.0
C2784 C 0.39566 0.15533 0.94633 0.0
C2785 C 0.38675 0.13751 0.95792 0.0
C2786 C 0.3897 0.13933 0.90612 0.0
C2787 C 0.38037 0.12068 0.94271 0.0
C2788 C 0.37051 0.13108 0.86736 0.0
C2789 C 0.40382 0.14581 0.83904 0.0
N2790 N 0.3817 0.12217 0.91789 0.0
N2791 N 0.40437 0.14723 0.86422 0.0
H2792 H 0.87302 0.90526 0.83495 0.0
H2793 H 0.89264 0.83728 0.95513 0.0
H2794 H 0.90718 0.84666 0.82767 0.0
H2795 H 0.88845 0.90525 0.95333 0.0
H2796 H 0.89618 0.83735 0.90974 0.0
H2797 H 0.87544 0.90246 0.87919 0.0
C2798 C 0.88107 0.89168 0.84266 0.0
C2799 C 0.88985 0.87615 0.82733 0.0
C2800 C 0.89479 0.85219 0.91948 0.0
C2801 C 0.89264 0.87277 0.87894 0.0
C2802 C 0.89283 0.85218 0.94538 0.0
C2803 C 0.88994 0.87127 0.95826 0.0
C2804 C 0.89365 0.8714 0.90647 0.0
C2805 C 0.89024 0.89006 0.94447 0.0
C2806 C 0.88255 0.89016 0.86811 0.0
C2807 C 0.90025 0.85906 0.83873 0.0
N2808 N 0.89177 0.88959 0.9196 0.0
N2809 N 0.90117 0.85768 0.86391 0.0
H2810 H 0.9121 0.15941 0.70788 0.0
H2811 H 0.88238 0.10163 0.58215 0.0
H2812 H 0.86809 0.10781 0.70022 0.0
H2813 H 0.89588 0.16841 0.58016 0.0
H2814 H 0.88591 0.10208 0.62639 0.0
H2815 H 0.9139 0.16183 0.66233 0.0
C2816 C 0.9029 0.14861 0.69678 0.0
C2817 C 0.88983 0.13345 0.7081 0.0
C2818 C 0.88822 0.11669 0.61639 0.0
C2819 C 0.89213 0.13589 0.65628 0.0
C2820 C 0.88624 0.11648 0.59091 0.0
C2821 C 0.88851 0.1351 0.57707 0.0
C2822 C 0.89263 0.13562 0.62873 0.0
C2823 C 0.89387 0.15368 0.58995 0.0
C2824 C 0.90386 0.15007 0.67083 0.0
C2825 C 0.87826 0.11991 0.69265 0.0
N2826 N 0.89562 0.15352 0.61511 0.0
N2827 N 0.87981 0.12138 0.66785 0.0
H2828 H 0.61851 0.17161 0.45493 0.0
H2829 H 0.62581 0.1003 0.33377 0.0
H2830 H 0.62264 0.10363 0.45355 0.0
H2831 H 0.60806 0.16582 0.32856 0.0
H2832 H 0.62411 0.10253 0.37818 0.0
H2833 H 0.61379 0.17134 0.40977 0.0
C2834 C 0.61813 0.15666 0.4453 0.0
C2835 C 0.62121 0.13763 0.45825 0.0
C2836 C 0.62037 0.1165 0.36757 0.0
C2837 C 0.61598 0.13724 0.4066 0.0
C2838 C 0.62134 0.11521 0.34205 0.0
C2839 C 0.61706 0.13287 0.32731 0.0
C2840 C 0.6154 0.13576 0.37901 0.0
C2841 C 0.61133 0.15176 0.33921 0.0
C2842 C 0.6155 0.15653 0.4195 0.0
C2843 C 0.62064 0.11878 0.44462 0.0
N2844 N 0.61091 0.1528 0.36442 0.0
N2845 N 0.61827 0.11912 0.41982 0.0
H2846 H 0.6205 0.90479 0.08139 0.0
H2847 H 0.60261 0.845 0.2095 0.0
H2848 H 0.61927 0.83667 0.08254 0.0
H2849 H 0.6327 0.90553 0.20013 0.0
H2850 H 0.60084 0.8415 0.16405 0.0
H2851 H 0.61601 0.90522 0.12556 0.0
C2852 C 0.6191 0.8898 0.09087 0.0
C2853 C 0.6206 0.87063 0.07798 0.0
C2854 C 0.60774 0.85552 0.17212 0.0
C2855 C 0.61547 0.87111 0.12949 0.0
C2856 C 0.60863 0.85759 0.19799 0.0
C2857 C 0.61791 0.87556 0.20872 0.0
C2858 C 0.61567 0.87181 0.15705 0.0
C2859 C 0.62557 0.8913 0.19286 0.0
C2860 C 0.61658 0.8901 0.11628 0.0
C2861 C 0.61828 0.85184 0.09162 0.0
N2862 N 0.62418 0.88909 0.16811 0.0
N2863 N 0.61603 0.85252 0.11671 0.0
H2864 H 0.64856 0.6548 0.70506 0.0
H2865 H 0.60474 0.61216 0.58094 0.0
H2866 H 0.58725 0.62535 0.70376 0.0
H2867 H 0.63561 0.67273 0.5823 0.0
H2868 H 0.60022 0.61408 0.62574 0.0
H2869 H 0.64668 0.6594 0.66027 0.0
C2870 C 0.63452 0.64966 0.69539 0.0
C2871 C 0.6179 0.63993 0.70824 0.0
C2872 C 0.60764 0.62712 0.61619 0.0
C2873 C 0.61606 0.64437 0.65677 0.0
C2874 C 0.6102 0.62606 0.59063 0.0
C2875 C 0.6203 0.64246 0.57779 0.0
C2876 C 0.61597 0.64432 0.62927 0.0
C2877 C 0.62741 0.65992 0.59139 0.0
C2878 C 0.63348 0.65228 0.66983 0.0
C2879 C 0.60024 0.63325 0.69466 0.0
N2880 N 0.6255 0.66021 0.61641 0.0
N2881 N 0.59996 0.63519 0.66964 0.0
H2882 H 0.60101 0.34585 0.82673 0.0
H2883 H 0.61984 0.40594 0.95403 0.0
H2884 H 0.63531 0.40414 0.83572 0.0
H2885 H 0.61788 0.33785 0.95415 0.0
H2886 H 0.61592 0.40582 0.90975 0.0
H2887 H 0.59883 0.34277 0.87219 0.0
C2888 C 0.60792 0.35801 0.83814 0.0
C2889 C 0.61846 0.37524 0.82729 0.0
C2890 C 0.61618 0.39084 0.91936 0.0
C2891 C 0.6157 0.37201 0.87897 0.0
C2892 C 0.61839 0.39086 0.94482 0.0
C2893 C 0.61955 0.37184 0.95809 0.0
C2894 C 0.61503 0.37169 0.90651 0.0
C2895 C 0.61715 0.35289 0.94477 0.0
C2896 C 0.60678 0.35618 0.86403 0.0
C2897 C 0.6272 0.39048 0.84306 0.0
N2898 N 0.6152 0.35326 0.91964 0.0
N2899 N 0.6255 0.38856 0.86782 0.0
H2900 H 0.85442 0.387 0.08571 0.0
H2901 H 0.92267 0.36721 0.20564 0.0
H2902 H 0.91268 0.35224 0.07823 0.0
H2903 H 0.85463 0.37153 0.20407 0.0
H2904 H 0.92247 0.36367 0.16024 0.0
H2905 H 0.85742 0.38473 0.12995 0.0
C2906 C 0.86797 0.37885 0.09336 0.0
C2907 C 0.88334 0.36984 0.07798 0.0
C2908 C 0.90765 0.36509 0.17004 0.0
C2909 C 0.88695 0.36724 0.12959 0.0
C2910 C 0.90773 0.36706 0.19594 0.0
C2911 C 0.88866 0.36996 0.2089 0.0
C2912 C 0.88839 0.36626 0.1571 0.0
C2913 C 0.86982 0.36971 0.19517 0.0
C2914 C 0.8696 0.37746 0.11881 0.0
C2915 C 0.9004 0.35934 0.08932 0.0
N2916 N 0.87023 0.36819 0.1703 0.0
N2917 N 0.90189 0.3585 0.1145 0.0
H2918 H 0.87543 0.60286 0.33459 0.0
H2919 H 0.89223 0.67285 0.45421 0.0
H2920 H 0.90627 0.66321 0.32728 0.0
H2921 H 0.8879 0.60486 0.45346 0.0
H2922 H 0.89614 0.67225 0.40888 0.0
H2923 H 0.87755 0.60585 0.37887 0.0
C2924 C 0.88272 0.61683 0.34232 0.0
C2925 C 0.89064 0.63281 0.327 0.0
C2926 C 0.89462 0.65752 0.41883 0.0
C2927 C 0.89302 0.63648 0.37859 0.0
C2928 C 0.89245 0.65784 0.4447 0.0
C2929 C 0.88945 0.6389 0.45785 0.0
C2930 C 0.8936 0.63816 0.40612 0.0
C2931 C 0.8898 0.61995 0.44438 0.0
C2932 C 0.88402 0.61849 0.36778 0.0
C2933 C 0.90005 0.65045 0.33836 0.0
N2934 N 0.89157 0.62013 0.41952 0.0
N2935 N 0.90078 0.65196 0.36353 0.0
H2936 H 0.41095 0.3477 0.3277 0.0
H2937 H 0.38591 0.40742 0.45364 0.0
H2938 H 0.37083 0.40238 0.33555 0.0
H2939 H 0.39383 0.33976 0.45536 0.0
H2940 H 0.38977 0.40686 0.4094 0.0
H2941 H 0.41289 0.34524 0.37324 0.0
C2942 C 0.40266 0.35918 0.33886 0.0
C2943 C 0.3906 0.37521 0.32762 0.0
C2944 C 0.39082 0.39208 0.41935 0.0
C2945 C 0.3931 0.37272 0.37941 0.0
C2946 C 0.38864 0.39235 0.44481 0.0
C2947 C 0.38919 0.37355 0.45854 0.0
C2948 C 0.39368 0.37289 0.40695 0.0
C2949 C 0.39319 0.35464 0.44563 0.0
C2950 C 0.40369 0.3577 0.36479 0.0
C2951 C 0.38017 0.38961 0.34311 0.0
N2952 N 0.39511 0.35474 0.42049 0.0
N2953 N 0.38179 0.38809 0.3679 0.0
H2954 H 0.40717 0.66448 0.20954 0.0
H2955 H 0.39146 0.60449 0.08128 0.0
H2956 H 0.37832 0.60339 0.1999 0.0
H2957 H 0.39046 0.67259 0.08256 0.0
H2958 H 0.39601 0.60411 0.12548 0.0
H2959 H 0.40922 0.66804 0.16412 0.0
C2960 C 0.4015 0.65178 0.19797 0.0
C2961 C 0.39248 0.63363 0.20861 0.0
C2962 C 0.39496 0.61921 0.11621 0.0
C2963 C 0.39504 0.63745 0.15699 0.0
C2964 C 0.39241 0.61948 0.0908 0.0
C2965 C 0.39025 0.63862 0.07797 0.0
C2966 C 0.3954 0.63821 0.12945 0.0
C2967 C 0.392 0.65746 0.09162 0.0
C2968 C 0.40254 0.65388 0.17212 0.0
C2969 C 0.38525 0.61775 0.19269 0.0
N2970 N 0.39425 0.6568 0.11671 0.0
N2971 N 0.38679 0.61999 0.16796 0.0
H2972 H 0.088 0.64364 0.82982 0.0
H2973 H 0.15283 0.61816 0.95029 0.0
H2974 H 0.15572 0.63593 0.8325 0.0
H2975 H 0.09862 0.65904 0.95759 0.0
H2976 H 0.15009 0.62062 0.90609 0.0
H2977 H 0.08779 0.64689 0.87524 0.0
C2978 C 0.1028 0.64298 0.83977 0.0
C2979 C 0.12187 0.6392 0.82712 0.0
C2980 C 0.13875 0.62915 0.9172 0.0
C2981 C 0.12165 0.64257 0.8789 0.0
C2982 C 0.1402 0.62767 0.94264 0.0
C2983 C 0.12591 0.63838 0.95798 0.0
C2984 C 0.12267 0.64122 0.90638 0.0
C2985 C 0.11005 0.65057 0.94656 0.0
C2986 C 0.10264 0.6448 0.86568 0.0
C2987 C 0.14052 0.63845 0.84116 0.0
N2988 N 0.10871 0.65153 0.92138 0.0
N2989 N 0.13987 0.63982 0.86602 0.0
H2990 H 0.15734 0.37296 0.70472 0.0
H2991 H 0.0985 0.35085 0.5776 0.0
H2992 H 0.0894 0.36725 0.70538 0.0
H2993 H 0.15375 0.38991 0.58682 0.0
H2994 H 0.09546 0.34853 0.62305 0.0
H2995 H 0.15712 0.36963 0.66041 0.0
C2996 C 0.14227 0.37082 0.69563 0.0
C2997 C 0.12331 0.37075 0.70909 0.0
C2998 C 0.10817 0.35759 0.61492 0.0
C2999 C 0.12305 0.36685 0.65744 0.0
C3000 C 0.10998 0.35883 0.58904 0.0
C3001 C 0.12636 0.37069 0.57821 0.0
C3002 C 0.12319 0.36777 0.62991 0.0
C3003 C 0.14074 0.38073 0.59406 0.0
C3004 C 0.1422 0.36895 0.67014 0.0
C3005 C 0.10441 0.3675 0.69587 0.0
N3006 N 0.13889 0.37891 0.61881 0.0
N3007 N 0.10472 0.36585 0.6707 0.0
loop_
_geom_bond_atom_site_label_1
_geom_bond_atom_site_label_2
_geom_bond_distance
_geom_bond_site_symmetry_2
_ccdc_geom_bond_type
C0 Eu1 2.835 . S
C0 C2 1.500 . S
C0 O20 1.257 . S
C0 O21 1.260 . S
Eu1 C0 2.835 . S
Eu1 O20 2.473 . S
Eu1 O21 2.480 . S
Eu1 O22 2.430 . S
Eu1 O23 2.670 . S
Eu1 O24 2.394 . S
Eu1 O29 2.355 . S
Eu1 O31 2.374 . S
C2 C0 1.500 . S
C2 C3 1.377 . S
C2 C7 1.377 . S
C3 C2 1.377 . S
C3 C4 1.395 . S
C3 H32 0.931 . S
C4 C3 1.395 . S
C4 C5 1.383 . S
C4 H33 0.931 . S
C5 C4 1.383 . S
C5 C6 1.394 . S
C6 C5 1.394 . S
C6 C7 1.378 . S
C6 H34 0.931 . S
C7 C2 1.377 . S
C7 C6 1.378 . S
C7 H35 0.931 . S
C8 O22 1.259 . S
C8 O23 1.270 . S
C9 O24 1.251 . S
C9 O25 1.251 . S
C10 Eu11 2.835 . S
C10 C12 1.500 . S
C10 O26 1.257 . S
C10 O27 1.260 . S
Eu11 C10 2.835 . S
Eu11 O23 2.355 . S
Eu11 O25 2.374 . S
Eu11 O26 2.473 . S
Eu11 O27 2.480 . S
Eu11 O28 2.430 . S
Eu11 O29 2.670 . S
Eu11 O30 2.394 . S
C12 C10 1.500 . S
C12 C13 1.377 . S
C12 C17 1.377 . S
C13 C12 1.377 . S
C13 C14 1.395 . S
C13 H36 0.931 . S
C14 C13 1.395 . S
C14 C15 1.383 . S
C14 H37 0.931 . S
C15 C14 1.383 . S
C15 C16 1.394 . S
C16 C15 1.394 . S
C16 C17 1.378 . S
C16 H38 0.931 . S
C17 C12 1.377 . S
C17 C16 1.378 . S
C17 H39 0.931 . S
C18 O28 1.259 . S
C18 O29 1.270 . S
C19 O30 1.251 . S
C19 O31 1.251 . S
O20 C0 1.257 . S
O20 Eu1 2.473 . S
O21 C0 1.260 . S
O21 Eu1 2.480 . S
O22 Eu1 2.430 . S
O22 C8 1.259 . S
O23 Eu1 2.670 . S
O23 C8 1.270 . S
O23 Eu11 2.355 . S
O24 Eu1 2.394 . S
O24 C9 1.251 . S
O25 C9 1.251 . S
O25 Eu11 2.374 . S
O26 C10 1.257 . S
O26 Eu11 2.473 . S
O27 C10 1.260 . S
O27 Eu11 2.480 . S
O28 Eu11 2.430 . S
O28 C18 1.259 . S
O29 Eu1 2.355 . S
O29 Eu11 2.670 . S
O29 C18 1.270 . S
O30 Eu11 2.394 . S
O30 C19 1.251 . S
O31 Eu1 2.374 . S
O31 C19 1.251 . S
H32 C3 0.931 . S
H33 C4 0.931 . S
H34 C6 0.931 . S
H35 C7 0.931 . S
H36 C13 0.931 . S
H37 C14 0.931 . S
H38 C16 0.931 . S
H39 C17 0.931 . S
C40 Eu41 2.835 . S
C40 C42 1.500 . S
C40 O60 1.257 . S
C40 O61 1.260 . S
Eu41 C40 2.835 . S
Eu41 O60 2.473 . S
Eu41 O61 2.480 . S
Eu41 O62 2.430 . S
Eu41 O63 2.670 . S
Eu41 O64 2.394 . S
Eu41 O69 2.355 . S
Eu41 O71 2.374 . S
C42 C40 1.500 . S
C42 C43 1.377 . S
C42 C47 1.377 . S
C43 C42 1.377 . S
C43 C44 1.395 . S
C43 H72 0.931 . S
C44 C43 1.395 . S
C44 C45 1.383 . S
C44 H73 0.931 . S
C45 C44 1.383 . S
C45 C46 1.394 . S
C46 C45 1.394 . S
C46 C47 1.378 . S
C46 H74 0.931 . S
C47 C42 1.377 . S
C47 C46 1.378 . S
C47 H75 0.931 . S
C48 O62 1.259 . S
C48 O63 1.270 . S
C49 O64 1.251 . S
C49 O65 1.251 . S
C50 Eu51 2.835 . S
C50 C52 1.500 . S
C50 O66 1.257 . S
C50 O67 1.260 . S
Eu51 C50 2.835 . S
Eu51 O63 2.355 . S
Eu51 O65 2.374 . S
Eu51 O66 2.473 . S
Eu51 O67 2.480 . S
Eu51 O68 2.430 . S
Eu51 O69 2.670 . S
Eu51 O70 2.394 . S
C52 C50 1.500 . S
C52 C53 1.377 . S
C52 C57 1.377 . S
C53 C52 1.377 . S
C53 C54 1.395 . S
C53 H76 0.931 . S
C54 C53 1.395 . S
C54 C55 1.383 . S
C54 H77 0.931 . S
C55 C54 1.383 . S
C55 C56 1.394 . S
C56 C55 1.394 . S
C56 C57 1.378 . S
C56 H78 0.931 . S
C57 C52 1.377 . S
C57 C56 1.378 . S
C57 H79 0.931 . S
C58 O68 1.259 . S
C58 O69 1.270 . S
C59 O70 1.251 . S
C59 O71 1.251 . S
O60 C40 1.257 . S
O60 Eu41 2.473 . S
O61 C40 1.260 . S
O61 Eu41 2.480 . S
O62 Eu41 2.430 . S
O62 C48 1.259 . S
O63 Eu41 2.670 . S
O63 C48 1.270 . S
O63 Eu51 2.355 . S
O64 Eu41 2.394 . S
O64 C49 1.251 . S
O65 C49 1.251 . S
O65 Eu51 2.374 . S
O66 C50 1.257 . S
O66 Eu51 2.473 . S
O67 C50 1.260 . S
O67 Eu51 2.480 . S
O68 Eu51 2.430 . S
O68 C58 1.259 . S
O69 Eu41 2.355 . S
O69 Eu51 2.670 . S
O69 C58 1.270 . S
O70 Eu51 2.394 . S
O70 C59 1.251 . S
O71 Eu41 2.374 . S
O71 C59 1.251 . S
H72 C43 0.931 . S
H73 C44 0.931 . S
H74 C46 0.931 . S
H75 C47 0.931 . S
H76 C53 0.931 . S
H77 C54 0.931 . S
H78 C56 0.931 . S
H79 C57 0.931 . S
C80 Eu81 2.835 . S
C80 C82 1.500 . S
C80 O100 1.257 . S
C80 O101 1.260 . S
Eu81 C80 2.835 . S
Eu81 O100 2.473 . S
Eu81 O101 2.480 . S
Eu81 O102 2.430 . S
Eu81 O103 2.670 . S
Eu81 O104 2.394 . S
Eu81 O109 2.355 . S
Eu81 O111 2.374 . S
C82 C80 1.500 . S
C82 C83 1.377 . S
C82 C87 1.377 . S
C83 C82 1.377 . S
C83 C84 1.395 . S
C83 H112 0.931 . S
C84 C83 1.395 . S
C84 C85 1.383 . S
C84 H113 0.931 . S
C85 C84 1.383 . S
C85 C86 1.394 . S
C86 C85 1.394 . S
C86 C87 1.378 . S
C86 H114 0.931 . S
C87 C82 1.377 . S
C87 C86 1.378 . S
C87 H115 0.931 . S
C88 O102 1.259 . S
C88 O103 1.270 . S
C89 O104 1.251 . S
C89 O105 1.251 . S
C90 Eu91 2.835 . S
C90 C92 1.500 . S
C90 O106 1.257 . S
C90 O107 1.260 . S
Eu91 C90 2.835 . S
Eu91 O103 2.355 . S
Eu91 O105 2.374 . S
Eu91 O106 2.473 . S
Eu91 O107 2.480 . S
Eu91 O108 2.430 . S
Eu91 O109 2.670 . S
Eu91 O110 2.394 . S
C92 C90 1.500 . S
C92 C93 1.377 . S
C92 C97 1.377 . S
C93 C92 1.377 . S
C93 C94 1.395 . S
C93 H116 0.931 . S
C94 C93 1.395 . S
C94 C95 1.383 . S
C94 H117 0.931 . S
C95 C94 1.383 . S
C95 C96 1.394 . S
C96 C95 1.394 . S
C96 C97 1.378 . S
C96 H118 0.931 . S
C97 C92 1.377 . S
C97 C96 1.378 . S
C97 H119 0.931 . S
C98 O108 1.259 . S
C98 O109 1.270 . S
C99 O110 1.251 . S
C99 O111 1.251 . S
O100 C80 1.257 . S
O100 Eu81 2.473 . S
O101 C80 1.260 . S
O101 Eu81 2.480 . S
O102 Eu81 2.430 . S
O102 C88 1.259 . S
O103 Eu81 2.670 . S
O103 C88 1.270 . S
O103 Eu91 2.355 . S
O104 Eu81 2.394 . S
O104 C89 1.251 . S
O105 C89 1.251 . S
O105 Eu91 2.374 . S
O106 C90 1.257 . S
O106 Eu91 2.473 . S
O107 C90 1.260 . S
O107 Eu91 2.480 . S
O108 Eu91 2.430 . S
O108 C98 1.259 . S
O109 Eu81 2.355 . S
O109 Eu91 2.670 . S
O109 C98 1.270 . S
O110 Eu91 2.394 . S
O110 C99 1.251 . S
O111 Eu81 2.374 . S
O111 C99 1.251 . S
H112 C83 0.931 . S
H113 C84 0.931 . S
H114 C86 0.931 . S
H115 C87 0.931 . S
H116 C93 0.931 . S
H117 C94 0.931 . S
H118 C96 0.931 . S
H119 C97 0.931 . S
C120 Eu121 2.835 . S
C120 C122 1.500 . S
C120 O140 1.257 . S
C120 O141 1.260 . S
Eu121 C120 2.835 . S
Eu121 O140 2.473 . S
Eu121 O141 2.480 . S
Eu121 O142 2.430 . S
Eu121 O143 2.670 . S
Eu121 O144 2.394 . S
Eu121 O149 2.355 . S
Eu121 O151 2.374 1_554 S
C122 C120 1.500 . S
C122 C123 1.377 . S
C122 C127 1.377 . S
C123 C122 1.377 . S
C123 C124 1.395 . S
C123 H152 0.931 . S
C124 C123 1.395 . S
C124 C125 1.383 . S
C124 H153 0.931 . S
C125 C124 1.383 . S
C125 C126 1.394 . S
C126 C125 1.394 . S
C126 C127 1.378 . S
C126 H154 0.931 . S
C127 C122 1.377 . S
C127 C126 1.378 . S
C127 H155 0.931 . S
C128 O142 1.259 . S
C128 O143 1.270 . S
C129 O144 1.251 . S
C129 O145 1.251 . S
C130 Eu131 2.835 1_556 S
C130 C132 1.500 . S
C130 O146 1.257 . S
C130 O147 1.260 1_556 S
Eu131 C130 2.835 1_554 S
Eu131 O143 2.355 . S
Eu131 O145 2.374 . S
Eu131 O146 2.473 1_554 S
Eu131 O147 2.480 . S
Eu131 O148 2.430 . S
Eu131 O149 2.670 . S
Eu131 O150 2.394 1_554 S
C132 C130 1.500 . S
C132 C133 1.377 . S
C132 C137 1.377 . S
C133 C132 1.377 . S
C133 C134 1.395 . S
C133 H156 0.931 . S
C134 C133 1.395 . S
C134 C135 1.383 . S
C134 H157 0.931 . S
C135 C134 1.383 . S
C135 C136 1.394 . S
C136 C135 1.394 . S
C136 C137 1.378 . S
C136 H158 0.931 . S
C137 C132 1.377 . S
C137 C136 1.378 . S
C137 H159 0.931 . S
C138 O148 1.259 . S
C138 O149 1.270 . S
C139 O150 1.251 . S
C139 O151 1.251 . S
O140 C120 1.257 . S
O140 Eu121 2.473 . S
O141 C120 1.260 . S
O141 Eu121 2.480 . S
O142 Eu121 2.430 . S
O142 C128 1.259 . S
O143 Eu121 2.670 . S
O143 C128 1.270 . S
O143 Eu131 2.355 . S
O144 Eu121 2.394 . S
O144 C129 1.251 . S
O145 C129 1.251 . S
O145 Eu131 2.374 . S
O146 C130 1.257 . S
O146 Eu131 2.473 1_556 S
O147 C130 1.260 1_554 S
O147 Eu131 2.480 . S
O148 Eu131 2.430 . S
O148 C138 1.259 . S
O149 Eu121 2.355 . S
O149 Eu131 2.670 . S
O149 C138 1.270 . S
O150 Eu131 2.394 1_556 S
O150 C139 1.251 . S
O151 Eu121 2.374 1_556 S
O151 C139 1.251 . S
H152 C123 0.931 . S
H153 C124 0.931 . S
H154 C126 0.931 . S
H155 C127 0.931 . S
H156 C133 0.931 . S
H157 C134 0.931 . S
H158 C136 0.931 . S
H159 C137 0.931 . S
C160 Eu161 2.835 . S
C160 C162 1.500 . S
C160 O180 1.257 . S
C160 O181 1.260 . S
Eu161 C160 2.835 . S
Eu161 O180 2.473 . S
Eu161 O181 2.480 . S
Eu161 O182 2.430 . S
Eu161 O183 2.670 . S
Eu161 O184 2.394 . S
Eu161 O189 2.355 . S
Eu161 O191 2.374 . S
C162 C160 1.500 . S
C162 C163 1.377 . S
C162 C167 1.377 . S
C163 C162 1.377 . S
C163 C164 1.395 . S
C163 H192 0.931 . S
C164 C163 1.395 . S
C164 C165 1.383 . S
C164 H193 0.931 . S
C165 C164 1.383 . S
C165 C166 1.394 . S
C166 C165 1.394 . S
C166 C167 1.378 . S
C166 H194 0.931 . S
C167 C162 1.377 . S
C167 C166 1.378 . S
C167 H195 0.931 . S
C168 O182 1.259 . S
C168 O183 1.270 . S
C169 O184 1.251 . S
C169 O185 1.251 . S
C170 Eu171 2.835 . S
C170 C172 1.500 . S
C170 O186 1.257 . S
C170 O187 1.260 . S
Eu171 C170 2.835 . S
Eu171 O183 2.355 . S
Eu171 O185 2.374 . S
Eu171 O186 2.473 . S
Eu171 O187 2.480 . S
Eu171 O188 2.430 . S
Eu171 O189 2.670 . S
Eu171 O190 2.394 . S
C172 C170 1.500 . S
C172 C173 1.377 . S
C172 C177 1.377 . S
C173 C172 1.377 . S
C173 C174 1.395 . S
C173 H196 0.931 . S
C174 C173 1.395 . S
C174 C175 1.383 . S
C174 H197 0.931 . S
C175 C174 1.383 . S
C175 C176 1.394 . S
C176 C175 1.394 . S
C176 C177 1.378 . S
C176 H198 0.931 . S
C177 C172 1.377 . S
C177 C176 1.378 . S
C177 H199 0.931 . S
C178 O188 1.259 . S
C178 O189 1.270 . S
C179 O190 1.251 . S
C179 O191 1.251 . S
O180 C160 1.257 . S
O180 Eu161 2.473 . S
O181 C160 1.260 . S
O181 Eu161 2.480 . S
O182 Eu161 2.430 . S
O182 C168 1.259 . S
O183 Eu161 2.670 . S
O183 C168 1.270 . S
O183 Eu171 2.355 . S
O184 Eu161 2.394 . S
O184 C169 1.251 . S
O185 C169 1.251 . S
O185 Eu171 2.374 . S
O186 C170 1.257 . S
O186 Eu171 2.473 . S
O187 C170 1.260 . S
O187 Eu171 2.480 . S
O188 Eu171 2.430 . S
O188 C178 1.259 . S
O189 Eu161 2.355 . S
O189 Eu171 2.670 . S
O189 C178 1.270 . S
O190 Eu171 2.394 . S
O190 C179 1.251 . S
O191 Eu161 2.374 . S
O191 C179 1.251 . S
H192 C163 0.931 . S
H193 C164 0.931 . S
H194 C166 0.931 . S
H195 C167 0.931 . S
H196 C173 0.931 . S
H197 C174 0.931 . S
H198 C176 0.931 . S
H199 C177 0.931 . S
C200 Eu201 2.835 . S
C200 C202 1.500 . S
C200 O220 1.257 . S
C200 O221 1.260 . S
Eu201 C200 2.835 . S
Eu201 O220 2.473 . S
Eu201 O221 2.480 . S
Eu201 O222 2.430 . S
Eu201 O223 2.670 . S
Eu201 O224 2.394 . S
Eu201 O229 2.355 . S
Eu201 O231 2.374 . S
C202 C200 1.500 . S
C202 C203 1.377 . S
C202 C207 1.377 . S
C203 C202 1.377 . S
C203 C204 1.395 . S
C203 H232 0.931 . S
C204 C203 1.395 . S
C204 C205 1.383 . S
C204 H233 0.931 . S
C205 C204 1.383 . S
C205 C206 1.394 . S
C206 C205 1.394 . S
C206 C207 1.378 . S
C206 H234 0.931 . S
C207 C202 1.377 . S
C207 C206 1.378 . S
C207 H235 0.931 . S
C208 O222 1.259 . S
C208 O223 1.270 . S
C209 O224 1.251 . S
C209 O225 1.251 . S
C210 Eu211 2.835 . S
C210 C212 1.500 . S
C210 O226 1.257 . S
C210 O227 1.260 . S
Eu211 C210 2.835 . S
Eu211 O223 2.355 . S
Eu211 O225 2.374 . S
Eu211 O226 2.473 . S
Eu211 O227 2.480 . S
Eu211 O228 2.430 . S
Eu211 O229 2.670 . S
Eu211 O230 2.394 . S
C212 C210 1.500 . S
C212 C213 1.377 . S
C212 C217 1.377 . S
C213 C212 1.377 . S
C213 C214 1.395 . S
C213 H236 0.931 . S
C214 C213 1.395 . S
C214 C215 1.383 . S
C214 H237 0.931 . S
C215 C214 1.383 . S
C215 C216 1.394 . S
C216 C215 1.394 . S
C216 C217 1.378 . S
C216 H238 0.931 . S
C217 C212 1.377 . S
C217 C216 1.378 . S
C217 H239 0.931 . S
C218 O228 1.259 . S
C218 O229 1.270 . S
C219 O230 1.251 . S
C219 O231 1.251 . S
O220 C200 1.257 . S
O220 Eu201 2.473 . S
O221 C200 1.260 . S
O221 Eu201 2.480 . S
O222 Eu201 2.430 . S
O222 C208 1.259 . S
O223 Eu201 2.670 . S
O223 C208 1.270 . S
O223 Eu211 2.355 . S
O224 Eu201 2.394 . S
O224 C209 1.251 . S
O225 C209 1.251 . S
O225 Eu211 2.374 . S
O226 C210 1.257 . S
O226 Eu211 2.473 . S
O227 C210 1.260 . S
O227 Eu211 2.480 . S
O228 Eu211 2.430 . S
O228 C218 1.259 . S
O229 Eu201 2.355 . S
O229 Eu211 2.670 . S
O229 C218 1.270 . S
O230 Eu211 2.394 . S
O230 C219 1.251 . S
O231 Eu201 2.374 . S
O231 C219 1.251 . S
H232 C203 0.931 . S
H233 C204 0.931 . S
H234 C206 0.931 . S
H235 C207 0.931 . S
H236 C213 0.931 . S
H237 C214 0.931 . S
H238 C216 0.931 . S
H239 C217 0.931 . S
C240 Eu241 2.835 . S
C240 C242 1.500 . S
C240 O260 1.257 . S
C240 O261 1.260 . S
Eu241 C240 2.835 . S
Eu241 O260 2.473 . S
Eu241 O261 2.480 . S
Eu241 O262 2.430 . S
Eu241 O263 2.670 . S
Eu241 O264 2.394 . S
Eu241 O269 2.355 . S
Eu241 O271 2.374 . S
C242 C240 1.500 . S
C242 C243 1.377 . S
C242 C247 1.377 . S
C243 C242 1.377 . S
C243 C244 1.395 . S
C243 H272 0.931 . S
C244 C243 1.395 . S
C244 C245 1.383 . S
C244 H273 0.931 . S
C245 C244 1.383 . S
C245 C246 1.394 . S
C246 C245 1.394 . S
C246 C247 1.378 . S
C246 H274 0.931 . S
C247 C242 1.377 . S
C247 C246 1.378 . S
C247 H275 0.931 . S
C248 O262 1.259 . S
C248 O263 1.270 . S
C249 O264 1.251 . S
C249 O265 1.251 . S
C250 Eu251 2.835 . S
C250 C252 1.500 . S
C250 O266 1.257 . S
C250 O267 1.260 . S
Eu251 C250 2.835 . S
Eu251 O263 2.355 . S
Eu251 O265 2.374 . S
Eu251 O266 2.473 . S
Eu251 O267 2.480 . S
Eu251 O268 2.430 . S
Eu251 O269 2.670 . S
Eu251 O270 2.394 . S
C252 C250 1.500 . S
C252 C253 1.377 . S
C252 C257 1.377 . S
C253 C252 1.377 . S
C253 C254 1.395 . S
C253 H276 0.931 . S
C254 C253 1.395 . S
C254 C255 1.383 . S
C254 H277 0.931 . S
C255 C254 1.383 . S
C255 C256 1.394 . S
C256 C255 1.394 . S
C256 C257 1.378 . S
C256 H278 0.931 . S
C257 C252 1.377 . S
C257 C256 1.378 . S
C257 H279 0.931 . S
C258 O268 1.259 . S
C258 O269 1.270 . S
C259 O270 1.251 . S
C259 O271 1.251 . S
O260 C240 1.257 . S
O260 Eu241 2.473 . S
O261 C240 1.260 . S
O261 Eu241 2.480 . S
O262 Eu241 2.430 . S
O262 C248 1.259 . S
O263 Eu241 2.670 . S
O263 C248 1.270 . S
O263 Eu251 2.355 . S
O264 Eu241 2.394 . S
O264 C249 1.251 . S
O265 C249 1.251 . S
O265 Eu251 2.374 . S
O266 C250 1.257 . S
O266 Eu251 2.473 . S
O267 C250 1.260 . S
O267 Eu251 2.480 . S
O268 Eu251 2.430 . S
O268 C258 1.259 . S
O269 Eu241 2.355 . S
O269 Eu251 2.670 . S
O269 C258 1.270 . S
O270 Eu251 2.394 . S
O270 C259 1.251 . S
O271 Eu241 2.374 . S
O271 C259 1.251 . S
H272 C243 0.931 . S
H273 C244 0.931 . S
H274 C246 0.931 . S
H275 C247 0.931 . S
H276 C253 0.931 . S
H277 C254 0.931 . S
H278 C256 0.931 . S
H279 C257 0.931 . S
C280 Eu281 2.835 . S
C280 C282 1.500 . S
C280 O300 1.257 . S
C280 O301 1.260 . S
Eu281 C280 2.835 . S
Eu281 O300 2.473 . S
Eu281 O301 2.480 . S
Eu281 O302 2.430 . S
Eu281 O303 2.670 . S
Eu281 O304 2.394 . S
Eu281 O309 2.355 . S
Eu281 O311 2.374 1_556 S
C282 C280 1.500 . S
C282 C283 1.377 . S
C282 C287 1.377 . S
C283 C282 1.377 . S
C283 C284 1.395 . S
C283 H312 0.931 . S
C284 C283 1.395 . S
C284 C285 1.383 . S
C284 H313 0.931 . S
C285 C284 1.383 . S
C285 C286 1.394 . S
C286 C285 1.394 . S
C286 C287 1.378 . S
C286 H314 0.931 . S
C287 C282 1.377 . S
C287 C286 1.378 . S
C287 H315 0.931 . S
C288 O302 1.259 . S
C288 O303 1.270 . S
C289 O304 1.251 . S
C289 O305 1.251 . S
C290 Eu291 2.835 1_554 S
C290 C292 1.500 . S
C290 O306 1.257 . S
C290 O307 1.260 1_554 S
Eu291 C290 2.835 1_556 S
Eu291 O303 2.355 . S
Eu291 O305 2.374 . S
Eu291 O306 2.473 1_556 S
Eu291 O307 2.480 . S
Eu291 O308 2.430 . S
Eu291 O309 2.670 . S
Eu291 O310 2.394 1_556 S
C292 C290 1.500 . S
C292 C293 1.377 . S
C292 C297 1.377 . S
C293 C292 1.377 . S
C293 C294 1.395 . S
C293 H316 0.931 . S
C294 C293 1.395 . S
C294 C295 1.383 . S
C294 H317 0.931 . S
C295 C294 1.383 . S
C295 C296 1.394 . S
C296 C295 1.394 . S
C296 C297 1.378 . S
C296 H318 0.931 . S
C297 C292 1.377 . S
C297 C296 1.378 . S
C297 H319 0.931 . S
C298 O308 1.259 . S
C298 O309 1.270 . S
C299 O310 1.251 . S
C299 O311 1.251 . S
O300 C280 1.257 . S
O300 Eu281 2.473 . S
O301 C280 1.260 . S
O301 Eu281 2.480 . S
O302 Eu281 2.430 . S
O302 C288 1.259 . S
O303 Eu281 2.670 . S
O303 C288 1.270 . S
O303 Eu291 2.355 . S
O304 Eu281 2.394 . S
O304 C289 1.251 . S
O305 C289 1.251 . S
O305 Eu291 2.374 . S
O306 C290 1.257 . S
O306 Eu291 2.473 1_554 S
O307 C290 1.260 1_556 S
O307 Eu291 2.480 . S
O308 Eu291 2.430 . S
O308 C298 1.259 . S
O309 Eu281 2.355 . S
O309 Eu291 2.670 . S
O309 C298 1.270 . S
O310 Eu291 2.394 1_554 S
O310 C299 1.251 . S
O311 Eu281 2.374 1_554 S
O311 C299 1.251 . S
H312 C283 0.931 . S
H313 C284 0.931 . S
H314 C286 0.931 . S
H315 C287 0.931 . S
H316 C293 0.931 . S
H317 C294 0.931 . S
H318 C296 0.931 . S
H319 C297 0.931 . S
C320 Eu321 2.835 . S
C320 C322 1.500 . S
C320 O340 1.257 . S
C320 O341 1.260 . S
Eu321 C320 2.835 . S
Eu321 O340 2.473 . S
Eu321 O341 2.480 . S
Eu321 O342 2.430 . S
Eu321 O343 2.670 . S
Eu321 O344 2.394 . S
Eu321 O349 2.355 . S
Eu321 O351 2.374 . S
C322 C320 1.500 . S
C322 C323 1.377 . S
C322 C327 1.377 . S
C323 C322 1.377 . S
C323 C324 1.395 . S
C323 H352 0.931 . S
C324 C323 1.395 . S
C324 C325 1.383 . S
C324 H353 0.931 . S
C325 C324 1.383 . S
C325 C326 1.394 . S
C326 C325 1.394 . S
C326 C327 1.378 . S
C326 H354 0.931 . S
C327 C322 1.377 . S
C327 C326 1.378 . S
C327 H355 0.931 . S
C328 O342 1.259 . S
C328 O343 1.270 . S
C329 O344 1.251 . S
C329 O345 1.251 . S
C330 Eu331 2.835 . S
C330 C332 1.500 . S
C330 O346 1.257 . S
C330 O347 1.260 . S
Eu331 C330 2.835 . S
Eu331 O343 2.355 . S
Eu331 O345 2.374 . S
Eu331 O346 2.473 . S
Eu331 O347 2.480 . S
Eu331 O348 2.430 . S
Eu331 O349 2.670 . S
Eu331 O350 2.394 . S
C332 C330 1.500 . S
C332 C333 1.377 . S
C332 C337 1.377 . S
C333 C332 1.377 . S
C333 C334 1.395 . S
C333 H356 0.931 . S
C334 C333 1.395 . S
C334 C335 1.383 . S
C334 H357 0.931 . S
C335 C334 1.383 . S
C335 C336 1.394 . S
C336 C335 1.394 . S
C336 C337 1.378 . S
C336 H358 0.931 . S
C337 C332 1.377 . S
C337 C336 1.378 . S
C337 H359 0.931 . S
C338 O348 1.259 . S
C338 O349 1.270 . S
C339 O350 1.251 . S
C339 O351 1.251 . S
O340 C320 1.257 . S
O340 Eu321 2.473 . S
O341 C320 1.260 . S
O341 Eu321 2.480 . S
O342 Eu321 2.430 . S
O342 C328 1.259 . S
O343 Eu321 2.670 . S
O343 C328 1.270 . S
O343 Eu331 2.355 . S
O344 Eu321 2.394 . S
O344 C329 1.251 . S
O345 C329 1.251 . S
O345 Eu331 2.374 . S
O346 C330 1.257 . S
O346 Eu331 2.473 . S
O347 C330 1.260 . S
O347 Eu331 2.480 . S
O348 Eu331 2.430 . S
O348 C338 1.259 . S
O349 Eu321 2.355 . S
O349 Eu331 2.670 . S
O349 C338 1.270 . S
O350 Eu331 2.394 . S
O350 C339 1.251 . S
O351 Eu321 2.374 . S
O351 C339 1.251 . S
H352 C323 0.931 . S
H353 C324 0.931 . S
H354 C326 0.931 . S
H355 C327 0.931 . S
H356 C333 0.931 . S
H357 C334 0.931 . S
H358 C336 0.931 . S
H359 C337 0.931 . S
C360 Eu361 2.835 . S
C360 C362 1.500 . S
C360 O380 1.257 . S
C360 O381 1.260 . S
Eu361 C360 2.835 . S
Eu361 O380 2.473 . S
Eu361 O381 2.480 . S
Eu361 O382 2.430 . S
Eu361 O383 2.670 . S
Eu361 O384 2.394 . S
Eu361 O389 2.355 . S
Eu361 O391 2.374 . S
C362 C360 1.500 . S
C362 C363 1.377 . S
C362 C367 1.377 . S
C363 C362 1.377 . S
C363 C364 1.395 . S
C363 H392 0.931 . S
C364 C363 1.395 . S
C364 C365 1.383 . S
C364 H393 0.931 . S
C365 C364 1.383 . S
C365 C366 1.394 . S
C366 C365 1.394 . S
C366 C367 1.378 . S
C366 H394 0.931 . S
C367 C362 1.377 . S
C367 C366 1.378 . S
C367 H395 0.931 . S
C368 O382 1.259 . S
C368 O383 1.270 . S
C369 O384 1.251 . S
C369 O385 1.251 . S
C370 Eu371 2.835 . S
C370 C372 1.500 . S
C370 O386 1.257 . S
C370 O387 1.260 . S
Eu371 C370 2.835 . S
Eu371 O383 2.355 . S
Eu371 O385 2.374 . S
Eu371 O386 2.473 . S
Eu371 O387 2.480 . S
Eu371 O388 2.430 . S
Eu371 O389 2.670 . S
Eu371 O390 2.394 . S
C372 C370 1.500 . S
C372 C373 1.377 . S
C372 C377 1.377 . S
C373 C372 1.377 . S
C373 C374 1.395 . S
C373 H396 0.931 . S
C374 C373 1.395 . S
C374 C375 1.383 . S
C374 H397 0.931 . S
C375 C374 1.383 . S
C375 C376 1.394 . S
C376 C375 1.394 . S
C376 C377 1.378 . S
C376 H398 0.931 . S
C377 C372 1.377 . S
C377 C376 1.378 . S
C377 H399 0.931 . S
C378 O388 1.259 . S
C378 O389 1.270 . S
C379 O390 1.251 . S
C379 O391 1.251 . S
O380 C360 1.257 . S
O380 Eu361 2.473 . S
O381 C360 1.260 . S
O381 Eu361 2.480 . S
O382 Eu361 2.430 . S
O382 C368 1.259 . S
O383 Eu361 2.670 . S
O383 C368 1.270 . S
O383 Eu371 2.355 . S
O384 Eu361 2.394 . S
O384 C369 1.251 . S
O385 C369 1.251 . S
O385 Eu371 2.374 . S
O386 C370 1.257 . S
O386 Eu371 2.473 . S
O387 C370 1.260 . S
O387 Eu371 2.480 . S
O388 Eu371 2.430 . S
O388 C378 1.259 . S
O389 Eu361 2.355 . S
O389 Eu371 2.670 . S
O389 C378 1.270 . S
O390 Eu371 2.394 . S
O390 C379 1.251 . S
O391 Eu361 2.374 . S
O391 C379 1.251 . S
H392 C363 0.931 . S
H393 C364 0.931 . S
H394 C366 0.931 . S
H395 C367 0.931 . S
H396 C373 0.931 . S
H397 C374 0.931 . S
H398 C376 0.931 . S
H399 C377 0.931 . S
C400 Eu401 2.835 . S
C400 C402 1.500 . S
C400 O420 1.257 . S
C400 O421 1.260 . S
Eu401 C400 2.835 . S
Eu401 O420 2.473 . S
Eu401 O421 2.480 . S
Eu401 O422 2.430 . S
Eu401 O423 2.670 . S
Eu401 O424 2.394 . S
Eu401 O429 2.355 . S
Eu401 O431 2.374 . S
C402 C400 1.500 . S
C402 C403 1.377 . S
C402 C407 1.377 . S
C403 C402 1.377 . S
C403 C404 1.395 . S
C403 H432 0.931 . S
C404 C403 1.395 . S
C404 C405 1.383 . S
C404 H433 0.931 . S
C405 C404 1.383 . S
C405 C406 1.394 . S
C406 C405 1.394 . S
C406 C407 1.378 . S
C406 H434 0.931 . S
C407 C402 1.377 . S
C407 C406 1.378 . S
C407 H435 0.931 . S
C408 O422 1.259 . S
C408 O423 1.270 . S
C409 O424 1.251 . S
C409 O425 1.251 . S
C410 Eu411 2.835 . S
C410 C412 1.500 . S
C410 O426 1.257 . S
C410 O427 1.260 . S
Eu411 C410 2.835 . S
Eu411 O423 2.355 . S
Eu411 O425 2.374 . S
Eu411 O426 2.473 . S
Eu411 O427 2.480 . S
Eu411 O428 2.430 . S
Eu411 O429 2.670 . S
Eu411 O430 2.394 . S
C412 C410 1.500 . S
C412 C413 1.377 . S
C412 C417 1.377 . S
C413 C412 1.377 . S
C413 C414 1.395 . S
C413 H436 0.931 . S
C414 C413 1.395 . S
C414 C415 1.383 . S
C414 H437 0.931 . S
C415 C414 1.383 . S
C415 C416 1.394 . S
C416 C415 1.394 . S
C416 C417 1.378 . S
C416 H438 0.931 . S
C417 C412 1.377 . S
C417 C416 1.378 . S
C417 H439 0.931 . S
C418 O428 1.259 . S
C418 O429 1.270 . S
C419 O430 1.251 . S
C419 O431 1.251 . S
O420 C400 1.257 . S
O420 Eu401 2.473 . S
O421 C400 1.260 . S
O421 Eu401 2.480 . S
O422 Eu401 2.430 . S
O422 C408 1.259 . S
O423 Eu401 2.670 . S
O423 C408 1.270 . S
O423 Eu411 2.355 . S
O424 Eu401 2.394 . S
O424 C409 1.251 . S
O425 C409 1.251 . S
O425 Eu411 2.374 . S
O426 C410 1.257 . S
O426 Eu411 2.473 . S
O427 C410 1.260 . S
O427 Eu411 2.480 . S
O428 Eu411 2.430 . S
O428 C418 1.259 . S
O429 Eu401 2.355 . S
O429 Eu411 2.670 . S
O429 C418 1.270 . S
O430 Eu411 2.394 . S
O430 C419 1.251 . S
O431 Eu401 2.374 . S
O431 C419 1.251 . S
H432 C403 0.931 . S
H433 C404 0.931 . S
H434 C406 0.931 . S
H435 C407 0.931 . S
H436 C413 0.931 . S
H437 C414 0.931 . S
H438 C416 0.931 . S
H439 C417 0.931 . S
C440 Eu441 2.835 1_554 S
C440 C442 1.500 . S
C440 O460 1.257 . S
C440 O461 1.260 1_554 S
Eu441 C440 2.835 1_556 S
Eu441 O460 2.473 1_556 S
Eu441 O461 2.480 . S
Eu441 O462 2.430 . S
Eu441 O463 2.670 . S
Eu441 O464 2.394 1_556 S
Eu441 O469 2.355 . S
Eu441 O471 2.374 . S
C442 C440 1.500 . S
C442 C443 1.377 . S
C442 C447 1.377 . S
C443 C442 1.377 . S
C443 C444 1.395 . S
C443 H472 0.931 . S
C444 C443 1.395 . S
C444 C445 1.383 . S
C444 H473 0.931 . S
C445 C444 1.383 . S
C445 C446 1.394 . S
C446 C445 1.394 . S
C446 C447 1.378 . S
C446 H474 0.931 . S
C447 C442 1.377 . S
C447 C446 1.378 . S
C447 H475 0.931 . S
C448 O462 1.259 . S
C448 O463 1.270 . S
C449 O464 1.251 . S
C449 O465 1.251 . S
C450 Eu451 2.835 . S
C450 C452 1.500 . S
C450 O466 1.257 . S
C450 O467 1.260 . S
Eu451 C450 2.835 . S
Eu451 O463 2.355 . S
Eu451 O465 2.374 1_556 S
Eu451 O466 2.473 . S
Eu451 O467 2.480 . S
Eu451 O468 2.430 . S
Eu451 O469 2.670 . S
Eu451 O470 2.394 . S
C452 C450 1.500 . S
C452 C453 1.377 . S
C452 C457 1.377 . S
C453 C452 1.377 . S
C453 C454 1.395 . S
C453 H476 0.931 . S
C454 C453 1.395 . S
C454 C455 1.383 . S
C454 H477 0.931 . S
C455 C454 1.383 . S
C455 C456 1.394 . S
C456 C455 1.394 . S
C456 C457 1.378 . S
C456 H478 0.931 . S
C457 C452 1.377 . S
C457 C456 1.378 . S
C457 H479 0.931 . S
C458 O468 1.259 . S
C458 O469 1.270 . S
C459 O470 1.251 . S
C459 O471 1.251 . S
O460 C440 1.257 . S
O460 Eu441 2.473 1_554 S
O461 C440 1.260 1_556 S
O461 Eu441 2.480 . S
O462 Eu441 2.430 . S
O462 C448 1.259 . S
O463 Eu441 2.670 . S
O463 C448 1.270 . S
O463 Eu451 2.355 . S
O464 Eu441 2.394 1_554 S
O464 C449 1.251 . S
O465 C449 1.251 . S
O465 Eu451 2.374 1_554 S
O466 C450 1.257 . S
O466 Eu451 2.473 . S
O467 C450 1.260 . S
O467 Eu451 2.480 . S
O468 Eu451 2.430 . S
O468 C458 1.259 . S
O469 Eu441 2.355 . S
O469 Eu451 2.670 . S
O469 C458 1.270 . S
O470 Eu451 2.394 . S
O470 C459 1.251 . S
O471 Eu441 2.374 . S
O471 C459 1.251 . S
H472 C443 0.931 . S
H473 C444 0.931 . S
H474 C446 0.931 . S
H475 C447 0.931 . S
H476 C453 0.931 . S
H477 C454 0.931 . S
H478 C456 0.931 . S
H479 C457 0.931 . S
C480 Eu481 2.835 . S
C480 C482 1.500 . S
C480 O500 1.257 . S
C480 O501 1.260 . S
Eu481 C480 2.835 . S
Eu481 O500 2.473 . S
Eu481 O501 2.480 . S
Eu481 O502 2.430 . S
Eu481 O503 2.670 . S
Eu481 O504 2.394 . S
Eu481 O509 2.355 . S
Eu481 O511 2.374 . S
C482 C480 1.500 . S
C482 C483 1.377 . S
C482 C487 1.377 . S
C483 C482 1.377 . S
C483 C484 1.395 . S
C483 H512 0.931 . S
C484 C483 1.395 . S
C484 C485 1.383 . S
C484 H513 0.931 . S
C485 C484 1.383 . S
C485 C486 1.394 . S
C486 C485 1.394 . S
C486 C487 1.378 . S
C486 H514 0.931 . S
C487 C482 1.377 . S
C487 C486 1.378 . S
C487 H515 0.931 . S
C488 O502 1.259 . S
C488 O503 1.270 . S
C489 O504 1.251 . S
C489 O505 1.251 . S
C490 Eu491 2.835 . S
C490 C492 1.500 . S
C490 O506 1.257 . S
C490 O507 1.260 . S
Eu491 C490 2.835 . S
Eu491 O503 2.355 . S
Eu491 O505 2.374 . S
Eu491 O506 2.473 . S
Eu491 O507 2.480 . S
Eu491 O508 2.430 . S
Eu491 O509 2.670 . S
Eu491 O510 2.394 . S
C492 C490 1.500 . S
C492 C493 1.377 . S
C492 C497 1.377 . S
C493 C492 1.377 . S
C493 C494 1.395 . S
C493 H516 0.931 . S
C494 C493 1.395 . S
C494 C495 1.383 . S
C494 H517 0.931 . S
C495 C494 1.383 . S
C495 C496 1.394 . S
C496 C495 1.394 . S
C496 C497 1.378 . S
C496 H518 0.931 . S
C497 C492 1.377 . S
C497 C496 1.378 . S
C497 H519 0.931 . S
C498 O508 1.259 . S
C498 O509 1.270 . S
C499 O510 1.251 . S
C499 O511 1.251 . S
O500 C480 1.257 . S
O500 Eu481 2.473 . S
O501 C480 1.260 . S
O501 Eu481 2.480 . S
O502 Eu481 2.430 . S
O502 C488 1.259 . S
O503 Eu481 2.670 . S
O503 C488 1.270 . S
O503 Eu491 2.355 . S
O504 Eu481 2.394 . S
O504 C489 1.251 . S
O505 C489 1.251 . S
O505 Eu491 2.374 . S
O506 C490 1.257 . S
O506 Eu491 2.473 . S
O507 C490 1.260 . S
O507 Eu491 2.480 . S
O508 Eu491 2.430 . S
O508 C498 1.259 . S
O509 Eu481 2.355 . S
O509 Eu491 2.670 . S
O509 C498 1.270 . S
O510 Eu491 2.394 . S
O510 C499 1.251 . S
O511 Eu481 2.374 . S
O511 C499 1.251 . S
H512 C483 0.931 . S
H513 C484 0.931 . S
H514 C486 0.931 . S
H515 C487 0.931 . S
H516 C493 0.931 . S
H517 C494 0.931 . S
H518 C496 0.931 . S
H519 C497 0.931 . S
C520 Eu521 2.835 . S
C520 C522 1.500 . S
C520 O540 1.257 . S
C520 O541 1.260 . S
Eu521 C520 2.835 . S
Eu521 O540 2.473 . S
Eu521 O541 2.480 . S
Eu521 O542 2.430 . S
Eu521 O543 2.670 . S
Eu521 O544 2.394 . S
Eu521 O549 2.355 . S
Eu521 O551 2.374 . S
C522 C520 1.500 . S
C522 C523 1.377 . S
C522 C527 1.377 . S
C523 C522 1.377 . S
C523 C524 1.395 . S
C523 H552 0.931 . S
C524 C523 1.395 . S
C524 C525 1.383 . S
C524 H553 0.931 . S
C525 C524 1.383 . S
C525 C526 1.394 . S
C526 C525 1.394 . S
C526 C527 1.378 . S
C526 H554 0.931 . S
C527 C522 1.377 . S
C527 C526 1.378 . S
C527 H555 0.931 . S
C528 O542 1.259 . S
C528 O543 1.270 . S
C529 O544 1.251 . S
C529 O545 1.251 . S
C530 Eu531 2.835 . S
C530 C532 1.500 . S
C530 O546 1.257 . S
C530 O547 1.260 . S
Eu531 C530 2.835 . S
Eu531 O543 2.355 . S
Eu531 O545 2.374 . S
Eu531 O546 2.473 . S
Eu531 O547 2.480 . S
Eu531 O548 2.430 . S
Eu531 O549 2.670 . S
Eu531 O550 2.394 . S
C532 C530 1.500 . S
C532 C533 1.377 . S
C532 C537 1.377 . S
C533 C532 1.377 . S
C533 C534 1.395 . S
C533 H556 0.931 . S
C534 C533 1.395 . S
C534 C535 1.383 . S
C534 H557 0.931 . S
C535 C534 1.383 . S
C535 C536 1.394 . S
C536 C535 1.394 . S
C536 C537 1.378 . S
C536 H558 0.931 . S
C537 C532 1.377 . S
C537 C536 1.378 . S
C537 H559 0.931 . S
C538 O548 1.259 . S
C538 O549 1.270 . S
C539 O550 1.251 . S
C539 O551 1.251 . S
O540 C520 1.257 . S
O540 Eu521 2.473 . S
O541 C520 1.260 . S
O541 Eu521 2.480 . S
O542 Eu521 2.430 . S
O542 C528 1.259 . S
O543 Eu521 2.670 . S
O543 C528 1.270 . S
O543 Eu531 2.355 . S
O544 Eu521 2.394 . S
O544 C529 1.251 . S
O545 C529 1.251 . S
O545 Eu531 2.374 . S
O546 C530 1.257 . S
O546 Eu531 2.473 . S
O547 C530 1.260 . S
O547 Eu531 2.480 . S
O548 Eu531 2.430 . S
O548 C538 1.259 . S
O549 Eu521 2.355 . S
O549 Eu531 2.670 . S
O549 C538 1.270 . S
O550 Eu531 2.394 . S
O550 C539 1.251 . S
O551 Eu521 2.374 . S
O551 C539 1.251 . S
H552 C523 0.931 . S
H553 C524 0.931 . S
H554 C526 0.931 . S
H555 C527 0.931 . S
H556 C533 0.931 . S
H557 C534 0.931 . S
H558 C536 0.931 . S
H559 C537 0.931 . S
C560 Eu561 2.835 . S
C560 C562 1.500 . S
C560 O580 1.257 . S
C560 O581 1.260 . S
Eu561 C560 2.835 . S
Eu561 O580 2.473 . S
Eu561 O581 2.480 . S
Eu561 O582 2.430 . S
Eu561 O583 2.670 . S
Eu561 O584 2.394 . S
Eu561 O589 2.355 . S
Eu561 O591 2.374 . S
C562 C560 1.500 . S
C562 C563 1.377 . S
C562 C567 1.377 . S
C563 C562 1.377 . S
C563 C564 1.395 . S
C563 H592 0.931 . S
C564 C563 1.395 . S
C564 C565 1.383 . S
C564 H593 0.931 . S
C565 C564 1.383 . S
C565 C566 1.394 . S
C566 C565 1.394 . S
C566 C567 1.378 . S
C566 H594 0.931 . S
C567 C562 1.377 . S
C567 C566 1.378 . S
C567 H595 0.931 . S
C568 O582 1.259 . S
C568 O583 1.270 . S
C569 O584 1.251 . S
C569 O585 1.251 . S
C570 Eu571 2.835 . S
C570 C572 1.500 . S
C570 O586 1.257 . S
C570 O587 1.260 . S
Eu571 C570 2.835 . S
Eu571 O583 2.355 . S
Eu571 O585 2.374 . S
Eu571 O586 2.473 . S
Eu571 O587 2.480 . S
Eu571 O588 2.430 . S
Eu571 O589 2.670 . S
Eu571 O590 2.394 . S
C572 C570 1.500 . S
C572 C573 1.377 . S
C572 C577 1.377 . S
C573 C572 1.377 . S
C573 C574 1.395 . S
C573 H596 0.931 . S
C574 C573 1.395 . S
C574 C575 1.383 . S
C574 H597 0.931 . S
C575 C574 1.383 . S
C575 C576 1.394 . S
C576 C575 1.394 . S
C576 C577 1.378 . S
C576 H598 0.931 . S
C577 C572 1.377 . S
C577 C576 1.378 . S
C577 H599 0.931 . S
C578 O588 1.259 . S
C578 O589 1.270 . S
C579 O590 1.251 . S
C579 O591 1.251 . S
O580 C560 1.257 . S
O580 Eu561 2.473 . S
O581 C560 1.260 . S
O581 Eu561 2.480 . S
O582 Eu561 2.430 . S
O582 C568 1.259 . S
O583 Eu561 2.670 . S
O583 C568 1.270 . S
O583 Eu571 2.355 . S
O584 Eu561 2.394 . S
O584 C569 1.251 . S
O585 C569 1.251 . S
O585 Eu571 2.374 . S
O586 C570 1.257 . S
O586 Eu571 2.473 . S
O587 C570 1.260 . S
O587 Eu571 2.480 . S
O588 Eu571 2.430 . S
O588 C578 1.259 . S
O589 Eu561 2.355 . S
O589 Eu571 2.670 . S
O589 C578 1.270 . S
O590 Eu571 2.394 . S
O590 C579 1.251 . S
O591 Eu561 2.374 . S
O591 C579 1.251 . S
H592 C563 0.931 . S
H593 C564 0.931 . S
H594 C566 0.931 . S
H595 C567 0.931 . S
H596 C573 0.931 . S
H597 C574 0.931 . S
H598 C576 0.931 . S
H599 C577 0.931 . S
C600 Eu601 2.835 1_556 S
C600 C602 1.500 . S
C600 O620 1.257 . S
C600 O621 1.260 1_556 S
Eu601 C600 2.835 1_554 S
Eu601 O620 2.473 1_554 S
Eu601 O621 2.480 . S
Eu601 O622 2.430 . S
Eu601 O623 2.670 . S
Eu601 O624 2.394 1_554 S
Eu601 O629 2.355 . S
Eu601 O631 2.374 . S
C602 C600 1.500 . S
C602 C603 1.377 . S
C602 C607 1.377 . S
C603 C602 1.377 . S
C603 C604 1.395 . S
C603 H632 0.931 . S
C604 C603 1.395 . S
C604 C605 1.383 . S
C604 H633 0.931 . S
C605 C604 1.383 . S
C605 C606 1.394 . S
C606 C605 1.394 . S
C606 C607 1.378 . S
C606 H634 0.931 . S
C607 C602 1.377 . S
C607 C606 1.378 . S
C607 H635 0.931 . S
C608 O622 1.259 . S
C608 O623 1.270 . S
C609 O624 1.251 . S
C609 O625 1.251 . S
C610 Eu611 2.835 . S
C610 C612 1.500 . S
C610 O626 1.257 . S
C610 O627 1.260 . S
Eu611 C610 2.835 . S
Eu611 O623 2.355 . S
Eu611 O625 2.374 1_554 S
Eu611 O626 2.473 . S
Eu611 O627 2.480 . S
Eu611 O628 2.430 . S
Eu611 O629 2.670 . S
Eu611 O630 2.394 . S
C612 C610 1.500 . S
C612 C613 1.377 . S
C612 C617 1.377 . S
C613 C612 1.377 . S
C613 C614 1.395 . S
C613 H636 0.931 . S
C614 C613 1.395 . S
C614 C615 1.383 . S
C614 H637 0.931 . S
C615 C614 1.383 . S
C615 C616 1.394 . S
C616 C615 1.394 . S
C616 C617 1.378 . S
C616 H638 0.931 . S
C617 C612 1.377 . S
C617 C616 1.378 . S
C617 H639 0.931 . S
C618 O628 1.259 . S
C618 O629 1.270 . S
C619 O630 1.251 . S
C619 O631 1.251 . S
O620 C600 1.257 . S
O620 Eu601 2.473 1_556 S
O621 C600 1.260 1_554 S
O621 Eu601 2.480 . S
O622 Eu601 2.430 . S
O622 C608 1.259 . S
O623 Eu601 2.670 . S
O623 C608 1.270 . S
O623 Eu611 2.355 . S
O624 Eu601 2.394 1_556 S
O624 C609 1.251 . S
O625 C609 1.251 . S
O625 Eu611 2.374 1_556 S
O626 C610 1.257 . S
O626 Eu611 2.473 . S
O627 C610 1.260 . S
O627 Eu611 2.480 . S
O628 Eu611 2.430 . S
O628 C618 1.259 . S
O629 Eu601 2.355 . S
O629 Eu611 2.670 . S
O629 C618 1.270 . S
O630 Eu611 2.394 . S
O630 C619 1.251 . S
O631 Eu601 2.374 . S
O631 C619 1.251 . S
H632 C603 0.931 . S
H633 C604 0.931 . S
H634 C606 0.931 . S
H635 C607 0.931 . S
H636 C613 0.931 . S
H637 C614 0.931 . S
H638 C616 0.931 . S
H639 C617 0.931 . S
C640 Eu641 2.835 . S
C640 C642 1.500 . S
C640 O660 1.257 . S
C640 O661 1.260 . S
Eu641 C640 2.835 . S
Eu641 O660 2.473 . S
Eu641 O661 2.480 . S
Eu641 O662 2.430 . S
Eu641 O663 2.670 . S
Eu641 O664 2.394 . S
Eu641 O669 2.355 . S
Eu641 O671 2.374 . S
C642 C640 1.500 . S
C642 C643 1.377 . S
C642 C647 1.377 . S
C643 C642 1.377 . S
C643 C644 1.395 . S
C643 H672 0.931 . S
C644 C643 1.395 . S
C644 C645 1.383 . S
C644 H673 0.931 . S
C645 C644 1.383 . S
C645 C646 1.394 . S
C646 C645 1.394 . S
C646 C647 1.378 . S
C646 H674 0.931 . S
C647 C642 1.377 . S
C647 C646 1.378 . S
C647 H675 0.931 . S
C648 O662 1.259 . S
C648 O663 1.270 . S
C649 O664 1.251 . S
C649 O665 1.251 . S
C650 Eu651 2.835 . S
C650 C652 1.500 . S
C650 O666 1.257 . S
C650 O667 1.260 . S
Eu651 C650 2.835 . S
Eu651 O663 2.355 . S
Eu651 O665 2.374 . S
Eu651 O666 2.473 . S
Eu651 O667 2.480 . S
Eu651 O668 2.430 . S
Eu651 O669 2.670 . S
Eu651 O670 2.394 . S
C652 C650 1.500 . S
C652 C653 1.377 . S
C652 C657 1.377 . S
C653 C652 1.377 . S
C653 C654 1.395 . S
C653 H676 0.931 . S
C654 C653 1.395 . S
C654 C655 1.383 . S
C654 H677 0.931 . S
C655 C654 1.383 . S
C655 C656 1.394 . S
C656 C655 1.394 . S
C656 C657 1.378 . S
C656 H678 0.931 . S
C657 C652 1.377 . S
C657 C656 1.378 . S
C657 H679 0.931 . S
C658 O668 1.259 . S
C658 O669 1.270 . S
C659 O670 1.251 . S
C659 O671 1.251 . S
O660 C640 1.257 . S
O660 Eu641 2.473 . S
O661 C640 1.260 . S
O661 Eu641 2.480 . S
O662 Eu641 2.430 . S
O662 C648 1.259 . S
O663 Eu641 2.670 . S
O663 C648 1.270 . S
O663 Eu651 2.355 . S
O664 Eu641 2.394 . S
O664 C649 1.251 . S
O665 C649 1.251 . S
O665 Eu651 2.374 . S
O666 C650 1.257 . S
O666 Eu651 2.473 . S
O667 C650 1.260 . S
O667 Eu651 2.480 . S
O668 Eu651 2.430 . S
O668 C658 1.259 . S
O669 Eu641 2.355 . S
O669 Eu651 2.670 . S
O669 C658 1.270 . S
O670 Eu651 2.394 . S
O670 C659 1.251 . S
O671 Eu641 2.374 . S
O671 C659 1.251 . S
H672 C643 0.931 . S
H673 C644 0.931 . S
H674 C646 0.931 . S
H675 C647 0.931 . S
H676 C653 0.931 . S
H677 C654 0.931 . S
H678 C656 0.931 . S
H679 C657 0.931 . S
C680 Eu681 2.835 . S
C680 C682 1.500 . S
C680 O700 1.257 . S
C680 O701 1.260 . S
Eu681 C680 2.835 . S
Eu681 O700 2.473 . S
Eu681 O701 2.480 . S
Eu681 O702 2.430 . S
Eu681 O703 2.670 . S
Eu681 O704 2.394 . S
Eu681 O709 2.355 . S
Eu681 O711 2.374 1_554 S
C682 C680 1.500 . S
C682 C683 1.377 . S
C682 C687 1.377 . S
C683 C682 1.377 . S
C683 C684 1.395 . S
C683 H712 0.931 . S
C684 C683 1.395 . S
C684 C685 1.383 . S
C684 H713 0.931 . S
C685 C684 1.383 . S
C685 C686 1.394 . S
C686 C685 1.394 . S
C686 C687 1.378 . S
C686 H714 0.931 . S
C687 C682 1.377 . S
C687 C686 1.378 . S
C687 H715 0.931 . S
C688 O702 1.259 . S
C688 O703 1.270 . S
C689 O704 1.251 . S
C689 O705 1.251 . S
C690 Eu691 2.835 1_556 S
C690 C692 1.500 . S
C690 O706 1.257 . S
C690 O707 1.260 1_556 S
Eu691 C690 2.835 1_554 S
Eu691 O703 2.355 . S
Eu691 O705 2.374 . S
Eu691 O706 2.473 1_554 S
Eu691 O707 2.480 . S
Eu691 O708 2.430 . S
Eu691 O709 2.670 . S
Eu691 O710 2.394 1_554 S
C692 C690 1.500 . S
C692 C693 1.377 . S
C692 C697 1.377 . S
C693 C692 1.377 . S
C693 C694 1.395 . S
C693 H716 0.931 . S
C694 C693 1.395 . S
C694 C695 1.383 . S
C694 H717 0.931 . S
C695 C694 1.383 . S
C695 C696 1.394 . S
C696 C695 1.394 . S
C696 C697 1.378 . S
C696 H718 0.931 . S
C697 C692 1.377 . S
C697 C696 1.378 . S
C697 H719 0.931 . S
C698 O708 1.259 . S
C698 O709 1.270 . S
C699 O710 1.251 . S
C699 O711 1.251 . S
O700 C680 1.257 . S
O700 Eu681 2.473 . S
O701 C680 1.260 . S
O701 Eu681 2.480 . S
O702 Eu681 2.430 . S
O702 C688 1.259 . S
O703 Eu681 2.670 . S
O703 C688 1.270 . S
O703 Eu691 2.355 . S
O704 Eu681 2.394 . S
O704 C689 1.251 . S
O705 C689 1.251 . S
O705 Eu691 2.374 . S
O706 C690 1.257 . S
O706 Eu691 2.473 1_556 S
O707 C690 1.260 1_554 S
O707 Eu691 2.480 . S
O708 Eu691 2.430 . S
O708 C698 1.259 . S
O709 Eu681 2.355 . S
O709 Eu691 2.670 . S
O709 C698 1.270 . S
O710 Eu691 2.394 1_556 S
O710 C699 1.251 . S
O711 Eu681 2.374 1_556 S
O711 C699 1.251 . S
H712 C683 0.931 . S
H713 C684 0.931 . S
H714 C686 0.931 . S
H715 C687 0.931 . S
H716 C693 0.931 . S
H717 C694 0.931 . S
H718 C696 0.931 . S
H719 C697 0.931 . S
C720 Eu721 2.835 . S
C720 C722 1.500 . S
C720 O740 1.257 . S
C720 O741 1.260 . S
Eu721 C720 2.835 . S
Eu721 O740 2.473 . S
Eu721 O741 2.480 . S
Eu721 O742 2.430 . S
Eu721 O743 2.670 . S
Eu721 O744 2.394 . S
Eu721 O749 2.355 . S
Eu721 O751 2.374 . S
C722 C720 1.500 . S
C722 C723 1.377 . S
C722 C727 1.377 . S
C723 C722 1.377 . S
C723 C724 1.395 . S
C723 H752 0.931 . S
C724 C723 1.395 . S
C724 C725 1.383 . S
C724 H753 0.931 . S
C725 C724 1.383 . S
C725 C726 1.394 . S
C726 C725 1.394 . S
C726 C727 1.378 . S
C726 H754 0.931 . S
C727 C722 1.377 . S
C727 C726 1.378 . S
C727 H755 0.931 . S
C728 O742 1.259 . S
C728 O743 1.270 . S
C729 O744 1.251 . S
C729 O745 1.251 . S
C730 Eu731 2.835 . S
C730 C732 1.500 . S
C730 O746 1.257 . S
C730 O747 1.260 . S
Eu731 C730 2.835 . S
Eu731 O743 2.355 . S
Eu731 O745 2.374 . S
Eu731 O746 2.473 . S
Eu731 O747 2.480 . S
Eu731 O748 2.430 . S
Eu731 O749 2.670 . S
Eu731 O750 2.394 . S
C732 C730 1.500 . S
C732 C733 1.377 . S
C732 C737 1.377 . S
C733 C732 1.377 . S
C733 C734 1.395 . S
C733 H756 0.931 . S
C734 C733 1.395 . S
C734 C735 1.383 . S
C734 H757 0.931 . S
C735 C734 1.383 . S
C735 C736 1.394 . S
C736 C735 1.394 . S
C736 C737 1.378 . S
C736 H758 0.931 . S
C737 C732 1.377 . S
C737 C736 1.378 . S
C737 H759 0.931 . S
C738 O748 1.259 . S
C738 O749 1.270 . S
C739 O750 1.251 . S
C739 O751 1.251 . S
O740 C720 1.257 . S
O740 Eu721 2.473 . S
O741 C720 1.260 . S
O741 Eu721 2.480 . S
O742 Eu721 2.430 . S
O742 C728 1.259 . S
O743 Eu721 2.670 . S
O743 C728 1.270 . S
O743 Eu731 2.355 . S
O744 Eu721 2.394 . S
O744 C729 1.251 . S
O745 C729 1.251 . S
O745 Eu731 2.374 . S
O746 C730 1.257 . S
O746 Eu731 2.473 . S
O747 C730 1.260 . S
O747 Eu731 2.480 . S
O748 Eu731 2.430 . S
O748 C738 1.259 . S
O749 Eu721 2.355 . S
O749 Eu731 2.670 . S
O749 C738 1.270 . S
O750 Eu731 2.394 . S
O750 C739 1.251 . S
O751 Eu721 2.374 . S
O751 C739 1.251 . S
H752 C723 0.931 . S
H753 C724 0.931 . S
H754 C726 0.931 . S
H755 C727 0.931 . S
H756 C733 0.931 . S
H757 C734 0.931 . S
H758 C736 0.931 . S
H759 C737 0.931 . S
C760 Eu761 2.835 . S
C760 C762 1.500 . S
C760 O780 1.257 . S
C760 O781 1.260 . S
Eu761 C760 2.835 . S
Eu761 O780 2.473 . S
Eu761 O781 2.480 . S
Eu761 O782 2.430 . S
Eu761 O783 2.670 . S
Eu761 O784 2.394 . S
Eu761 O789 2.355 . S
Eu761 O791 2.374 . S
C762 C760 1.500 . S
C762 C763 1.377 . S
C762 C767 1.377 . S
C763 C762 1.377 . S
C763 C764 1.395 . S
C763 H792 0.931 . S
C764 C763 1.395 . S
C764 C765 1.383 . S
C764 H793 0.931 . S
C765 C764 1.383 . S
C765 C766 1.394 . S
C766 C765 1.394 . S
C766 C767 1.378 . S
C766 H794 0.931 . S
C767 C762 1.377 . S
C767 C766 1.378 . S
C767 H795 0.931 . S
C768 O782 1.259 . S
C768 O783 1.270 . S
C769 O784 1.251 . S
C769 O785 1.251 . S
C770 Eu771 2.835 . S
C770 C772 1.500 . S
C770 O786 1.257 . S
C770 O787 1.260 . S
Eu771 C770 2.835 . S
Eu771 O783 2.355 . S
Eu771 O785 2.374 . S
Eu771 O786 2.473 . S
Eu771 O787 2.480 . S
Eu771 O788 2.430 . S
Eu771 O789 2.670 . S
Eu771 O790 2.394 . S
C772 C770 1.500 . S
C772 C773 1.377 . S
C772 C777 1.377 . S
C773 C772 1.377 . S
C773 C774 1.395 . S
C773 H796 0.931 . S
C774 C773 1.395 . S
C774 C775 1.383 . S
C774 H797 0.931 . S
C775 C774 1.383 . S
C775 C776 1.394 . S
C776 C775 1.394 . S
C776 C777 1.378 . S
C776 H798 0.931 . S
C777 C772 1.377 . S
C777 C776 1.378 . S
C777 H799 0.931 . S
C778 O788 1.259 . S
C778 O789 1.270 . S
C779 O790 1.251 . S
C779 O791 1.251 . S
O780 C760 1.257 . S
O780 Eu761 2.473 . S
O781 C760 1.260 . S
O781 Eu761 2.480 . S
O782 Eu761 2.430 . S
O782 C768 1.259 . S
O783 Eu761 2.670 . S
O783 C768 1.270 . S
O783 Eu771 2.355 . S
O784 Eu761 2.394 . S
O784 C769 1.251 . S
O785 C769 1.251 . S
O785 Eu771 2.374 . S
O786 C770 1.257 . S
O786 Eu771 2.473 . S
O787 C770 1.260 . S
O787 Eu771 2.480 . S
O788 Eu771 2.430 . S
O788 C778 1.259 . S
O789 Eu761 2.355 . S
O789 Eu771 2.670 . S
O789 C778 1.270 . S
O790 Eu771 2.394 . S
O790 C779 1.251 . S
O791 Eu761 2.374 . S
O791 C779 1.251 . S
H792 C763 0.931 . S
H793 C764 0.931 . S
H794 C766 0.931 . S
H795 C767 0.931 . S
H796 C773 0.931 . S
H797 C774 0.931 . S
H798 C776 0.931 . S
H799 C777 0.931 . S
C800 Eu801 2.835 . S
C800 C802 1.500 . S
C800 O820 1.257 . S
C800 O821 1.260 . S
Eu801 C800 2.835 . S
Eu801 O820 2.473 . S
Eu801 O821 2.480 . S
Eu801 O822 2.430 . S
Eu801 O823 2.670 . S
Eu801 O824 2.394 . S
Eu801 O829 2.355 . S
Eu801 O831 2.374 . S
C802 C800 1.500 . S
C802 C803 1.377 . S
C802 C807 1.377 . S
C803 C802 1.377 . S
C803 C804 1.395 . S
C803 H832 0.931 . S
C804 C803 1.395 . S
C804 C805 1.383 . S
C804 H833 0.931 . S
C805 C804 1.383 . S
C805 C806 1.394 . S
C806 C805 1.394 . S
C806 C807 1.378 . S
C806 H834 0.931 . S
C807 C802 1.377 . S
C807 C806 1.378 . S
C807 H835 0.931 . S
C808 O822 1.259 . S
C808 O823 1.270 . S
C809 O824 1.251 . S
C809 O825 1.251 . S
C810 Eu811 2.835 . S
C810 C812 1.500 . S
C810 O826 1.257 . S
C810 O827 1.260 . S
Eu811 C810 2.835 . S
Eu811 O823 2.355 . S
Eu811 O825 2.374 . S
Eu811 O826 2.473 . S
Eu811 O827 2.480 . S
Eu811 O828 2.430 . S
Eu811 O829 2.670 . S
Eu811 O830 2.394 . S
C812 C810 1.500 . S
C812 C813 1.377 . S
C812 C817 1.377 . S
C813 C812 1.377 . S
C813 C814 1.395 . S
C813 H836 0.931 . S
C814 C813 1.395 . S
C814 C815 1.383 . S
C814 H837 0.931 . S
C815 C814 1.383 . S
C815 C816 1.394 . S
C816 C815 1.394 . S
C816 C817 1.378 . S
C816 H838 0.931 . S
C817 C812 1.377 . S
C817 C816 1.378 . S
C817 H839 0.931 . S
C818 O828 1.259 . S
C818 O829 1.270 . S
C819 O830 1.251 . S
C819 O831 1.251 . S
O820 C800 1.257 . S
O820 Eu801 2.473 . S
O821 C800 1.260 . S
O821 Eu801 2.480 . S
O822 Eu801 2.430 . S
O822 C808 1.259 . S
O823 Eu801 2.670 . S
O823 C808 1.270 . S
O823 Eu811 2.355 . S
O824 Eu801 2.394 . S
O824 C809 1.251 . S
O825 C809 1.251 . S
O825 Eu811 2.374 . S
O826 C810 1.257 . S
O826 Eu811 2.473 . S
O827 C810 1.260 . S
O827 Eu811 2.480 . S
O828 Eu811 2.430 . S
O828 C818 1.259 . S
O829 Eu801 2.355 . S
O829 Eu811 2.670 . S
O829 C818 1.270 . S
O830 Eu811 2.394 . S
O830 C819 1.251 . S
O831 Eu801 2.374 . S
O831 C819 1.251 . S
H832 C803 0.931 . S
H833 C804 0.931 . S
H834 C806 0.931 . S
H835 C807 0.931 . S
H836 C813 0.931 . S
H837 C814 0.931 . S
H838 C816 0.931 . S
H839 C817 0.931 . S
C840 Eu841 2.835 . S
C840 C842 1.500 . S
C840 O860 1.257 . S
C840 O861 1.260 . S
Eu841 C840 2.835 . S
Eu841 O860 2.473 . S
Eu841 O861 2.480 . S
Eu841 O862 2.430 . S
Eu841 O863 2.670 . S
Eu841 O864 2.394 . S
Eu841 O869 2.355 . S
Eu841 O871 2.374 1_556 S
C842 C840 1.500 . S
C842 C843 1.377 . S
C842 C847 1.377 . S
C843 C842 1.377 . S
C843 C844 1.395 . S
C843 H872 0.931 . S
C844 C843 1.395 . S
C844 C845 1.383 . S
C844 H873 0.931 . S
C845 C844 1.383 . S
C845 C846 1.394 . S
C846 C845 1.394 . S
C846 C847 1.378 . S
C846 H874 0.931 . S
C847 C842 1.377 . S
C847 C846 1.378 . S
C847 H875 0.931 . S
C848 O862 1.259 . S
C848 O863 1.270 . S
C849 O864 1.251 . S
C849 O865 1.251 . S
C850 Eu851 2.835 1_554 S
C850 C852 1.500 . S
C850 O866 1.257 . S
C850 O867 1.260 1_554 S
Eu851 C850 2.835 1_556 S
Eu851 O863 2.355 . S
Eu851 O865 2.374 . S
Eu851 O866 2.473 1_556 S
Eu851 O867 2.480 . S
Eu851 O868 2.430 . S
Eu851 O869 2.670 . S
Eu851 O870 2.394 1_556 S
C852 C850 1.500 . S
C852 C853 1.377 . S
C852 C857 1.377 . S
C853 C852 1.377 . S
C853 C854 1.395 . S
C853 H876 0.931 . S
C854 C853 1.395 . S
C854 C855 1.383 . S
C854 H877 0.931 . S
C855 C854 1.383 . S
C855 C856 1.394 . S
C856 C855 1.394 . S
C856 C857 1.378 . S
C856 H878 0.931 . S
C857 C852 1.377 . S
C857 C856 1.378 . S
C857 H879 0.931 . S
C858 O868 1.259 . S
C858 O869 1.270 . S
C859 O870 1.251 . S
C859 O871 1.251 . S
O860 C840 1.257 . S
O860 Eu841 2.473 . S
O861 C840 1.260 . S
O861 Eu841 2.480 . S
O862 Eu841 2.430 . S
O862 C848 1.259 . S
O863 Eu841 2.670 . S
O863 C848 1.270 . S
O863 Eu851 2.355 . S
O864 Eu841 2.394 . S
O864 C849 1.251 . S
O865 C849 1.251 . S
O865 Eu851 2.374 . S
O866 C850 1.257 . S
O866 Eu851 2.473 1_554 S
O867 C850 1.260 1_556 S
O867 Eu851 2.480 . S
O868 Eu851 2.430 . S
O868 C858 1.259 . S
O869 Eu841 2.355 . S
O869 Eu851 2.670 . S
O869 C858 1.270 . S
O870 Eu851 2.394 1_554 S
O870 C859 1.251 . S
O871 Eu841 2.374 1_554 S
O871 C859 1.251 . S
H872 C843 0.931 . S
H873 C844 0.931 . S
H874 C846 0.931 . S
H875 C847 0.931 . S
H876 C853 0.931 . S
H877 C854 0.931 . S
H878 C856 0.931 . S
H879 C857 0.931 . S
C880 Eu881 2.835 . S
C880 C882 1.500 . S
C880 O900 1.257 . S
C880 O901 1.260 . S
Eu881 C880 2.835 . S
Eu881 O900 2.473 . S
Eu881 O901 2.480 . S
Eu881 O902 2.430 . S
Eu881 O903 2.670 . S
Eu881 O904 2.394 . S
Eu881 O909 2.355 . S
Eu881 O911 2.374 . S
C882 C880 1.500 . S
C882 C883 1.377 . S
C882 C887 1.377 . S
C883 C882 1.377 . S
C883 C884 1.395 . S
C883 H912 0.931 . S
C884 C883 1.395 . S
C884 C885 1.383 . S
C884 H913 0.931 . S
C885 C884 1.383 . S
C885 C886 1.394 . S
C886 C885 1.394 . S
C886 C887 1.378 . S
C886 H914 0.931 . S
C887 C882 1.377 . S
C887 C886 1.378 . S
C887 H915 0.931 . S
C888 O902 1.259 . S
C888 O903 1.270 . S
C889 O904 1.251 . S
C889 O905 1.251 . S
C890 Eu891 2.835 . S
C890 C892 1.500 . S
C890 O906 1.257 . S
C890 O907 1.260 . S
Eu891 C890 2.835 . S
Eu891 O903 2.355 . S
Eu891 O905 2.374 . S
Eu891 O906 2.473 . S
Eu891 O907 2.480 . S
Eu891 O908 2.430 . S
Eu891 O909 2.670 . S
Eu891 O910 2.394 . S
C892 C890 1.500 . S
C892 C893 1.377 . S
C892 C897 1.377 . S
C893 C892 1.377 . S
C893 C894 1.395 . S
C893 H916 0.931 . S
C894 C893 1.395 . S
C894 C895 1.383 . S
C894 H917 0.931 . S
C895 C894 1.383 . S
C895 C896 1.394 . S
C896 C895 1.394 . S
C896 C897 1.378 . S
C896 H918 0.931 . S
C897 C892 1.377 . S
C897 C896 1.378 . S
C897 H919 0.931 . S
C898 O908 1.259 . S
C898 O909 1.270 . S
C899 O910 1.251 . S
C899 O911 1.251 . S
O900 C880 1.257 . S
O900 Eu881 2.473 . S
O901 C880 1.260 . S
O901 Eu881 2.480 . S
O902 Eu881 2.430 . S
O902 C888 1.259 . S
O903 Eu881 2.670 . S
O903 C888 1.270 . S
O903 Eu891 2.355 . S
O904 Eu881 2.394 . S
O904 C889 1.251 . S
O905 C889 1.251 . S
O905 Eu891 2.374 . S
O906 C890 1.257 . S
O906 Eu891 2.473 . S
O907 C890 1.260 . S
O907 Eu891 2.480 . S
O908 Eu891 2.430 . S
O908 C898 1.259 . S
O909 Eu881 2.355 . S
O909 Eu891 2.670 . S
O909 C898 1.270 . S
O910 Eu891 2.394 . S
O910 C899 1.251 . S
O911 Eu881 2.374 . S
O911 C899 1.251 . S
H912 C883 0.931 . S
H913 C884 0.931 . S
H914 C886 0.931 . S
H915 C887 0.931 . S
H916 C893 0.931 . S
H917 C894 0.931 . S
H918 C896 0.931 . S
H919 C897 0.931 . S
C920 Eu921 2.835 . S
C920 C922 1.500 . S
C920 O940 1.257 . S
C920 O941 1.260 . S
Eu921 C920 2.835 . S
Eu921 O940 2.473 . S
Eu921 O941 2.480 . S
Eu921 O942 2.430 . S
Eu921 O943 2.670 . S
Eu921 O944 2.394 . S
Eu921 O949 2.355 . S
Eu921 O951 2.374 . S
C922 C920 1.500 . S
C922 C923 1.377 . S
C922 C927 1.377 . S
C923 C922 1.377 . S
C923 C924 1.395 . S
C923 H952 0.931 . S
C924 C923 1.395 . S
C924 C925 1.383 . S
C924 H953 0.931 . S
C925 C924 1.383 . S
C925 C926 1.394 . S
C926 C925 1.394 . S
C926 C927 1.378 . S
C926 H954 0.931 . S
C927 C922 1.377 . S
C927 C926 1.378 . S
C927 H955 0.931 . S
C928 O942 1.259 . S
C928 O943 1.270 . S
C929 O944 1.251 . S
C929 O945 1.251 . S
C930 Eu931 2.835 . S
C930 C932 1.500 . S
C930 O946 1.257 . S
C930 O947 1.260 . S
Eu931 C930 2.835 . S
Eu931 O943 2.355 . S
Eu931 O945 2.374 . S
Eu931 O946 2.473 . S
Eu931 O947 2.480 . S
Eu931 O948 2.430 . S
Eu931 O949 2.670 . S
Eu931 O950 2.394 . S
C932 C930 1.500 . S
C932 C933 1.377 . S
C932 C937 1.377 . S
C933 C932 1.377 . S
C933 C934 1.395 . S
C933 H956 0.931 . S
C934 C933 1.395 . S
C934 C935 1.383 . S
C934 H957 0.931 . S
C935 C934 1.383 . S
C935 C936 1.394 . S
C936 C935 1.394 . S
C936 C937 1.378 . S
C936 H958 0.931 . S
C937 C932 1.377 . S
C937 C936 1.378 . S
C937 H959 0.931 . S
C938 O948 1.259 . S
C938 O949 1.270 . S
C939 O950 1.251 . S
C939 O951 1.251 . S
O940 C920 1.257 . S
O940 Eu921 2.473 . S
O941 C920 1.260 . S
O941 Eu921 2.480 . S
O942 Eu921 2.430 . S
O942 C928 1.259 . S
O943 Eu921 2.670 . S
O943 C928 1.270 . S
O943 Eu931 2.355 . S
O944 Eu921 2.394 . S
O944 C929 1.251 . S
O945 C929 1.251 . S
O945 Eu931 2.374 . S
O946 C930 1.257 . S
O946 Eu931 2.473 . S
O947 C930 1.260 . S
O947 Eu931 2.480 . S
O948 Eu931 2.430 . S
O948 C938 1.259 . S
O949 Eu921 2.355 . S
O949 Eu931 2.670 . S
O949 C938 1.270 . S
O950 Eu931 2.394 . S
O950 C939 1.251 . S
O951 Eu921 2.374 . S
O951 C939 1.251 . S
H952 C923 0.931 . S
H953 C924 0.931 . S
H954 C926 0.931 . S
H955 C927 0.931 . S
H956 C933 0.931 . S
H957 C934 0.931 . S
H958 C936 0.931 . S
H959 C937 0.931 . S
C960 Eu961 2.835 . S
C960 C962 1.500 . S
C960 O980 1.257 . S
C960 O981 1.260 . S
Eu961 C960 2.835 . S
Eu961 O980 2.473 . S
Eu961 O981 2.480 . S
Eu961 O982 2.430 . S
Eu961 O983 2.670 . S
Eu961 O984 2.394 . S
Eu961 O989 2.355 . S
Eu961 O991 2.374 . S
C962 C960 1.500 . S
C962 C963 1.377 . S
C962 C967 1.377 . S
C963 C962 1.377 . S
C963 C964 1.395 . S
C963 H992 0.931 . S
C964 C963 1.395 . S
C964 C965 1.383 . S
C964 H993 0.931 . S
C965 C964 1.383 . S
C965 C966 1.394 . S
C966 C965 1.394 . S
C966 C967 1.378 . S
C966 H994 0.931 . S
C967 C962 1.377 . S
C967 C966 1.378 . S
C967 H995 0.931 . S
C968 O982 1.259 . S
C968 O983 1.270 . S
C969 O984 1.251 . S
C969 O985 1.251 . S
C970 Eu971 2.835 . S
C970 C972 1.500 . S
C970 O986 1.257 . S
C970 O987 1.260 . S
Eu971 C970 2.835 . S
Eu971 O983 2.355 . S
Eu971 O985 2.374 . S
Eu971 O986 2.473 . S
Eu971 O987 2.480 . S
Eu971 O988 2.430 . S
Eu971 O989 2.670 . S
Eu971 O990 2.394 . S
C972 C970 1.500 . S
C972 C973 1.377 . S
C972 C977 1.377 . S
C973 C972 1.377 . S
C973 C974 1.395 . S
C973 H996 0.931 . S
C974 C973 1.395 . S
C974 C975 1.383 . S
C974 H997 0.931 . S
C975 C974 1.383 . S
C975 C976 1.394 . S
C976 C975 1.394 . S
C976 C977 1.378 . S
C976 H998 0.931 . S
C977 C972 1.377 . S
C977 C976 1.378 . S
C977 H999 0.931 . S
C978 O988 1.259 . S
C978 O989 1.270 . S
C979 O990 1.251 . S
C979 O991 1.251 . S
O980 C960 1.257 . S
O980 Eu961 2.473 . S
O981 C960 1.260 . S
O981 Eu961 2.480 . S
O982 Eu961 2.430 . S
O982 C968 1.259 . S
O983 Eu961 2.670 . S
O983 C968 1.270 . S
O983 Eu971 2.355 . S
O984 Eu961 2.394 . S
O984 C969 1.251 . S
O985 C969 1.251 . S
O985 Eu971 2.374 . S
O986 C970 1.257 . S
O986 Eu971 2.473 . S
O987 C970 1.260 . S
O987 Eu971 2.480 . S
O988 Eu971 2.430 . S
O988 C978 1.259 . S
O989 Eu961 2.355 . S
O989 Eu971 2.670 . S
O989 C978 1.270 . S
O990 Eu971 2.394 . S
O990 C979 1.251 . S
O991 Eu961 2.374 . S
O991 C979 1.251 . S
H992 C963 0.931 . S
H993 C964 0.931 . S
H994 C966 0.931 . S
H995 C967 0.931 . S
H996 C973 0.931 . S
H997 C974 0.931 . S
H998 C976 0.931 . S
H999 C977 0.931 . S
C1000 Eu1001 2.835 1_554 S
C1000 C1002 1.500 . S
C1000 O1020 1.257 . S
C1000 O1021 1.260 1_554 S
Eu1001 C1000 2.835 1_556 S
Eu1001 O1020 2.473 1_556 S
Eu1001 O1021 2.480 . S
Eu1001 O1022 2.430 . S
Eu1001 O1023 2.670 . S
Eu1001 O1024 2.394 1_556 S
Eu1001 O1029 2.355 . S
Eu1001 O1031 2.374 . S
C1002 C1000 1.500 . S
C1002 C1003 1.377 . S
C1002 C1007 1.377 . S
C1003 C1002 1.377 . S
C1003 C1004 1.395 . S
C1003 H1032 0.931 . S
C1004 C1003 1.395 . S
C1004 C1005 1.383 . S
C1004 H1033 0.931 . S
C1005 C1004 1.383 . S
C1005 C1006 1.394 . S
C1006 C1005 1.394 . S
C1006 C1007 1.378 . S
C1006 H1034 0.931 . S
C1007 C1002 1.377 . S
C1007 C1006 1.378 . S
C1007 H1035 0.931 . S
C1008 O1022 1.259 . S
C1008 O1023 1.270 . S
C1009 O1024 1.251 . S
C1009 O1025 1.251 . S
C1010 Eu1011 2.835 . S
C1010 C1012 1.500 . S
C1010 O1026 1.257 . S
C1010 O1027 1.260 . S
Eu1011 C1010 2.835 . S
Eu1011 O1023 2.355 . S
Eu1011 O1025 2.374 1_556 S
Eu1011 O1026 2.473 . S
Eu1011 O1027 2.480 . S
Eu1011 O1028 2.430 . S
Eu1011 O1029 2.670 . S
Eu1011 O1030 2.394 . S
C1012 C1010 1.500 . S
C1012 C1013 1.377 . S
C1012 C1017 1.377 . S
C1013 C1012 1.377 . S
C1013 C1014 1.395 . S
C1013 H1036 0.931 . S
C1014 C1013 1.395 . S
C1014 C1015 1.383 . S
C1014 H1037 0.931 . S
C1015 C1014 1.383 . S
C1015 C1016 1.394 . S
C1016 C1015 1.394 . S
C1016 C1017 1.378 . S
C1016 H1038 0.931 . S
C1017 C1012 1.377 . S
C1017 C1016 1.378 . S
C1017 H1039 0.931 . S
C1018 O1028 1.259 . S
C1018 O1029 1.270 . S
C1019 O1030 1.251 . S
C1019 O1031 1.251 . S
O1020 C1000 1.257 . S
O1020 Eu1001 2.473 1_554 S
O1021 C1000 1.260 1_556 S
O1021 Eu1001 2.480 . S
O1022 Eu1001 2.430 . S
O1022 C1008 1.259 . S
O1023 Eu1001 2.670 . S
O1023 C1008 1.270 . S
O1023 Eu1011 2.355 . S
O1024 Eu1001 2.394 1_554 S
O1024 C1009 1.251 . S
O1025 C1009 1.251 . S
O1025 Eu1011 2.374 1_554 S
O1026 C1010 1.257 . S
O1026 Eu1011 2.473 . S
O1027 C1010 1.260 . S
O1027 Eu1011 2.480 . S
O1028 Eu1011 2.430 . S
O1028 C1018 1.259 . S
O1029 Eu1001 2.355 . S
O1029 Eu1011 2.670 . S
O1029 C1018 1.270 . S
O1030 Eu1011 2.394 . S
O1030 C1019 1.251 . S
O1031 Eu1001 2.374 . S
O1031 C1019 1.251 . S
H1032 C1003 0.931 . S
H1033 C1004 0.931 . S
H1034 C1006 0.931 . S
H1035 C1007 0.931 . S
H1036 C1013 0.931 . S
H1037 C1014 0.931 . S
H1038 C1016 0.931 . S
H1039 C1017 0.931 . S
C1040 Eu1041 2.835 . S
C1040 C1042 1.500 . S
C1040 O1060 1.257 . S
C1040 O1061 1.260 . S
Eu1041 C1040 2.835 . S
Eu1041 O1060 2.473 . S
Eu1041 O1061 2.480 . S
Eu1041 O1062 2.430 . S
Eu1041 O1063 2.670 . S
Eu1041 O1064 2.394 . S
Eu1041 O1069 2.355 . S
Eu1041 O1071 2.374 . S
C1042 C1040 1.500 . S
C1042 C1043 1.377 . S
C1042 C1047 1.377 . S
C1043 C1042 1.377 . S
C1043 C1044 1.395 . S
C1043 H1072 0.931 . S
C1044 C1043 1.395 . S
C1044 C1045 1.383 . S
C1044 H1073 0.931 . S
C1045 C1044 1.383 . S
C1045 C1046 1.394 . S
C1046 C1045 1.394 . S
C1046 C1047 1.378 . S
C1046 H1074 0.931 . S
C1047 C1042 1.377 . S
C1047 C1046 1.378 . S
C1047 H1075 0.931 . S
C1048 O1062 1.259 . S
C1048 O1063 1.270 . S
C1049 O1064 1.251 . S
C1049 O1065 1.251 . S
C1050 Eu1051 2.835 . S
C1050 C1052 1.500 . S
C1050 O1066 1.257 . S
C1050 O1067 1.260 . S
Eu1051 C1050 2.835 . S
Eu1051 O1063 2.355 . S
Eu1051 O1065 2.374 . S
Eu1051 O1066 2.473 . S
Eu1051 O1067 2.480 . S
Eu1051 O1068 2.430 . S
Eu1051 O1069 2.670 . S
Eu1051 O1070 2.394 . S
C1052 C1050 1.500 . S
C1052 C1053 1.377 . S
C1052 C1057 1.377 . S
C1053 C1052 1.377 . S
C1053 C1054 1.395 . S
C1053 H1076 0.931 . S
C1054 C1053 1.395 . S
C1054 C1055 1.383 . S
C1054 H1077 0.931 . S
C1055 C1054 1.383 . S
C1055 C1056 1.394 . S
C1056 C1055 1.394 . S
C1056 C1057 1.378 . S
C1056 H1078 0.931 . S
C1057 C1052 1.377 . S
C1057 C1056 1.378 . S
C1057 H1079 0.931 . S
C1058 O1068 1.259 . S
C1058 O1069 1.270 . S
C1059 O1070 1.251 . S
C1059 O1071 1.251 . S
O1060 C1040 1.257 . S
O1060 Eu1041 2.473 . S
O1061 C1040 1.260 . S
O1061 Eu1041 2.480 . S
O1062 Eu1041 2.430 . S
O1062 C1048 1.259 . S
O1063 Eu1041 2.670 . S
O1063 C1048 1.270 . S
O1063 Eu1051 2.355 . S
O1064 Eu1041 2.394 . S
O1064 C1049 1.251 . S
O1065 C1049 1.251 . S
O1065 Eu1051 2.374 . S
O1066 C1050 1.257 . S
O1066 Eu1051 2.473 . S
O1067 C1050 1.260 . S
O1067 Eu1051 2.480 . S
O1068 Eu1051 2.430 . S
O1068 C1058 1.259 . S
O1069 Eu1041 2.355 . S
O1069 Eu1051 2.670 . S
O1069 C1058 1.270 . S
O1070 Eu1051 2.394 . S
O1070 C1059 1.251 . S
O1071 Eu1041 2.374 . S
O1071 C1059 1.251 . S
H1072 C1043 0.931 . S
H1073 C1044 0.931 . S
H1074 C1046 0.931 . S
H1075 C1047 0.931 . S
H1076 C1053 0.931 . S
H1077 C1054 0.931 . S
H1078 C1056 0.931 . S
H1079 C1057 0.931 . S
C1080 Eu1081 2.835 . S
C1080 C1082 1.500 . S
C1080 O1100 1.257 . S
C1080 O1101 1.260 . S
Eu1081 C1080 2.835 . S
Eu1081 O1100 2.473 . S
Eu1081 O1101 2.480 . S
Eu1081 O1102 2.430 . S
Eu1081 O1103 2.670 . S
Eu1081 O1104 2.394 . S
Eu1081 O1109 2.355 . S
Eu1081 O1111 2.374 . S
C1082 C1080 1.500 . S
C1082 C1083 1.377 . S
C1082 C1087 1.377 . S
C1083 C1082 1.377 . S
C1083 C1084 1.395 . S
C1083 H1112 0.931 . S
C1084 C1083 1.395 . S
C1084 C1085 1.383 . S
C1084 H1113 0.931 . S
C1085 C1084 1.383 . S
C1085 C1086 1.394 . S
C1086 C1085 1.394 . S
C1086 C1087 1.378 . S
C1086 H1114 0.931 . S
C1087 C1082 1.377 . S
C1087 C1086 1.378 . S
C1087 H1115 0.931 . S
C1088 O1102 1.259 . S
C1088 O1103 1.270 . S
C1089 O1104 1.251 . S
C1089 O1105 1.251 . S
C1090 Eu1091 2.835 . S
C1090 C1092 1.500 . S
C1090 O1106 1.257 . S
C1090 O1107 1.260 . S
Eu1091 C1090 2.835 . S
Eu1091 O1103 2.355 . S
Eu1091 O1105 2.374 . S
Eu1091 O1106 2.473 . S
Eu1091 O1107 2.480 . S
Eu1091 O1108 2.430 . S
Eu1091 O1109 2.670 . S
Eu1091 O1110 2.394 . S
C1092 C1090 1.500 . S
C1092 C1093 1.377 . S
C1092 C1097 1.377 . S
C1093 C1092 1.377 . S
C1093 C1094 1.395 . S
C1093 H1116 0.931 . S
C1094 C1093 1.395 . S
C1094 C1095 1.383 . S
C1094 H1117 0.931 . S
C1095 C1094 1.383 . S
C1095 C1096 1.394 . S
C1096 C1095 1.394 . S
C1096 C1097 1.378 . S
C1096 H1118 0.931 . S
C1097 C1092 1.377 . S
C1097 C1096 1.378 . S
C1097 H1119 0.931 . S
C1098 O1108 1.259 . S
C1098 O1109 1.270 . S
C1099 O1110 1.251 . S
C1099 O1111 1.251 . S
O1100 C1080 1.257 . S
O1100 Eu1081 2.473 . S
O1101 C1080 1.260 . S
O1101 Eu1081 2.480 . S
O1102 Eu1081 2.430 . S
O1102 C1088 1.259 . S
O1103 Eu1081 2.670 . S
O1103 C1088 1.270 . S
O1103 Eu1091 2.355 . S
O1104 Eu1081 2.394 . S
O1104 C1089 1.251 . S
O1105 C1089 1.251 . S
O1105 Eu1091 2.374 . S
O1106 C1090 1.257 . S
O1106 Eu1091 2.473 . S
O1107 C1090 1.260 . S
O1107 Eu1091 2.480 . S
O1108 Eu1091 2.430 . S
O1108 C1098 1.259 . S
O1109 Eu1081 2.355 . S
O1109 Eu1091 2.670 . S
O1109 C1098 1.270 . S
O1110 Eu1091 2.394 . S
O1110 C1099 1.251 . S
O1111 Eu1081 2.374 . S
O1111 C1099 1.251 . S
H1112 C1083 0.931 . S
H1113 C1084 0.931 . S
H1114 C1086 0.931 . S
H1115 C1087 0.931 . S
H1116 C1093 0.931 . S
H1117 C1094 0.931 . S
H1118 C1096 0.931 . S
H1119 C1097 0.931 . S
C1120 Eu1121 2.835 . S
C1120 C1122 1.500 . S
C1120 O1140 1.257 . S
C1120 O1141 1.260 . S
Eu1121 C1120 2.835 . S
Eu1121 O1140 2.473 . S
Eu1121 O1141 2.480 . S
Eu1121 O1142 2.430 . S
Eu1121 O1143 2.670 . S
Eu1121 O1144 2.394 . S
Eu1121 O1149 2.355 . S
Eu1121 O1151 2.374 . S
C1122 C1120 1.500 . S
C1122 C1123 1.377 . S
C1122 C1127 1.377 . S
C1123 C1122 1.377 . S
C1123 C1124 1.395 . S
C1123 H1152 0.931 . S
C1124 C1123 1.395 . S
C1124 C1125 1.383 . S
C1124 H1153 0.931 . S
C1125 C1124 1.383 . S
C1125 C1126 1.394 . S
C1126 C1125 1.394 . S
C1126 C1127 1.378 . S
C1126 H1154 0.931 . S
C1127 C1122 1.377 . S
C1127 C1126 1.378 . S
C1127 H1155 0.931 . S
C1128 O1142 1.259 . S
C1128 O1143 1.270 . S
C1129 O1144 1.251 . S
C1129 O1145 1.251 . S
C1130 Eu1131 2.835 . S
C1130 C1132 1.500 . S
C1130 O1146 1.257 . S
C1130 O1147 1.260 . S
Eu1131 C1130 2.835 . S
Eu1131 O1143 2.355 . S
Eu1131 O1145 2.374 . S
Eu1131 O1146 2.473 . S
Eu1131 O1147 2.480 . S
Eu1131 O1148 2.430 . S
Eu1131 O1149 2.670 . S
Eu1131 O1150 2.394 . S
C1132 C1130 1.500 . S
C1132 C1133 1.377 . S
C1132 C1137 1.377 . S
C1133 C1132 1.377 . S
C1133 C1134 1.395 . S
C1133 H1156 0.931 . S
C1134 C1133 1.395 . S
C1134 C1135 1.383 . S
C1134 H1157 0.931 . S
C1135 C1134 1.383 . S
C1135 C1136 1.394 . S
C1136 C1135 1.394 . S
C1136 C1137 1.378 . S
C1136 H1158 0.931 . S
C1137 C1132 1.377 . S
C1137 C1136 1.378 . S
C1137 H1159 0.931 . S
C1138 O1148 1.259 . S
C1138 O1149 1.270 . S
C1139 O1150 1.251 . S
C1139 O1151 1.251 . S
O1140 C1120 1.257 . S
O1140 Eu1121 2.473 . S
O1141 C1120 1.260 . S
O1141 Eu1121 2.480 . S
O1142 Eu1121 2.430 . S
O1142 C1128 1.259 . S
O1143 Eu1121 2.670 . S
O1143 C1128 1.270 . S
O1143 Eu1131 2.355 . S
O1144 Eu1121 2.394 . S
O1144 C1129 1.251 . S
O1145 C1129 1.251 . S
O1145 Eu1131 2.374 . S
O1146 C1130 1.257 . S
O1146 Eu1131 2.473 . S
O1147 C1130 1.260 . S
O1147 Eu1131 2.480 . S
O1148 Eu1131 2.430 . S
O1148 C1138 1.259 . S
O1149 Eu1121 2.355 . S
O1149 Eu1131 2.670 . S
O1149 C1138 1.270 . S
O1150 Eu1131 2.394 . S
O1150 C1139 1.251 . S
O1151 Eu1121 2.374 . S
O1151 C1139 1.251 . S
H1152 C1123 0.931 . S
H1153 C1124 0.931 . S
H1154 C1126 0.931 . S
H1155 C1127 0.931 . S
H1156 C1133 0.931 . S
H1157 C1134 0.931 . S
H1158 C1136 0.931 . S
H1159 C1137 0.931 . S
C1160 Eu1161 2.835 1_556 S
C1160 C1162 1.500 . S
C1160 O1180 1.257 . S
C1160 O1181 1.260 1_556 S
Eu1161 C1160 2.835 1_554 S
Eu1161 O1180 2.473 1_554 S
Eu1161 O1181 2.480 . S
Eu1161 O1182 2.430 . S
Eu1161 O1183 2.670 . S
Eu1161 O1184 2.394 1_554 S
Eu1161 O1189 2.355 . S
Eu1161 O1191 2.374 . S
C1162 C1160 1.500 . S
C1162 C1163 1.377 . S
C1162 C1167 1.377 . S
C1163 C1162 1.377 . S
C1163 C1164 1.395 . S
C1163 H1192 0.931 . S
C1164 C1163 1.395 . S
C1164 C1165 1.383 . S
C1164 H1193 0.931 . S
C1165 C1164 1.383 . S
C1165 C1166 1.394 . S
C1166 C1165 1.394 . S
C1166 C1167 1.378 . S
C1166 H1194 0.931 . S
C1167 C1162 1.377 . S
C1167 C1166 1.378 . S
C1167 H1195 0.931 . S
C1168 O1182 1.259 . S
C1168 O1183 1.270 . S
C1169 O1184 1.251 . S
C1169 O1185 1.251 . S
C1170 Eu1171 2.835 . S
C1170 C1172 1.500 . S
C1170 O1186 1.257 . S
C1170 O1187 1.260 . S
Eu1171 C1170 2.835 . S
Eu1171 O1183 2.355 . S
Eu1171 O1185 2.374 1_554 S
Eu1171 O1186 2.473 . S
Eu1171 O1187 2.480 . S
Eu1171 O1188 2.430 . S
Eu1171 O1189 2.670 . S
Eu1171 O1190 2.394 . S
C1172 C1170 1.500 . S
C1172 C1173 1.377 . S
C1172 C1177 1.377 . S
C1173 C1172 1.377 . S
C1173 C1174 1.395 . S
C1173 H1196 0.931 . S
C1174 C1173 1.395 . S
C1174 C1175 1.383 . S
C1174 H1197 0.931 . S
C1175 C1174 1.383 . S
C1175 C1176 1.394 . S
C1176 C1175 1.394 . S
C1176 C1177 1.378 . S
C1176 H1198 0.931 . S
C1177 C1172 1.377 . S
C1177 C1176 1.378 . S
C1177 H1199 0.931 . S
C1178 O1188 1.259 . S
C1178 O1189 1.270 . S
C1179 O1190 1.251 . S
C1179 O1191 1.251 . S
O1180 C1160 1.257 . S
O1180 Eu1161 2.473 1_556 S
O1181 C1160 1.260 1_554 S
O1181 Eu1161 2.480 . S
O1182 Eu1161 2.430 . S
O1182 C1168 1.259 . S
O1183 Eu1161 2.670 . S
O1183 C1168 1.270 . S
O1183 Eu1171 2.355 . S
O1184 Eu1161 2.394 1_556 S
O1184 C1169 1.251 . S
O1185 C1169 1.251 . S
O1185 Eu1171 2.374 1_556 S
O1186 C1170 1.257 . S
O1186 Eu1171 2.473 . S
O1187 C1170 1.260 . S
O1187 Eu1171 2.480 . S
O1188 Eu1171 2.430 . S
O1188 C1178 1.259 . S
O1189 Eu1161 2.355 . S
O1189 Eu1171 2.670 . S
O1189 C1178 1.270 . S
O1190 Eu1171 2.394 . S
O1190 C1179 1.251 . S
O1191 Eu1161 2.374 . S
O1191 C1179 1.251 . S
H1192 C1163 0.931 . S
H1193 C1164 0.931 . S
H1194 C1166 0.931 . S
H1195 C1167 0.931 . S
H1196 C1173 0.931 . S
H1197 C1174 0.931 . S
H1198 C1176 0.931 . S
H1199 C1177 0.931 . S
C1200 Eu1201 2.835 . S
C1200 C1202 1.500 . S
C1200 O1220 1.257 . S
C1200 O1221 1.260 . S
Eu1201 C1200 2.835 . S
Eu1201 O1220 2.473 . S
Eu1201 O1221 2.480 . S
Eu1201 O1222 2.430 . S
Eu1201 O1223 2.670 . S
Eu1201 O1224 2.394 . S
Eu1201 O1229 2.355 . S
Eu1201 O1231 2.374 . S
C1202 C1200 1.500 . S
C1202 C1203 1.377 . S
C1202 C1207 1.377 . S
C1203 C1202 1.377 . S
C1203 C1204 1.395 . S
C1203 H1232 0.931 . S
C1204 C1203 1.395 . S
C1204 C1205 1.383 . S
C1204 H1233 0.931 . S
C1205 C1204 1.383 . S
C1205 C1206 1.394 . S
C1206 C1205 1.394 . S
C1206 C1207 1.378 . S
C1206 H1234 0.931 . S
C1207 C1202 1.377 . S
C1207 C1206 1.378 . S
C1207 H1235 0.931 . S
C1208 O1222 1.259 . S
C1208 O1223 1.270 . S
C1209 O1224 1.251 . S
C1209 O1225 1.251 . S
C1210 Eu1211 2.835 . S
C1210 C1212 1.500 . S
C1210 O1226 1.257 . S
C1210 O1227 1.260 . S
Eu1211 C1210 2.835 . S
Eu1211 O1223 2.355 . S
Eu1211 O1225 2.374 . S
Eu1211 O1226 2.473 . S
Eu1211 O1227 2.480 . S
Eu1211 O1228 2.430 . S
Eu1211 O1229 2.670 . S
Eu1211 O1230 2.394 . S
C1212 C1210 1.500 . S
C1212 C1213 1.377 . S
C1212 C1217 1.377 . S
C1213 C1212 1.377 . S
C1213 C1214 1.395 . S
C1213 H1236 0.931 . S
C1214 C1213 1.395 . S
C1214 C1215 1.383 . S
C1214 H1237 0.931 . S
C1215 C1214 1.383 . S
C1215 C1216 1.394 . S
C1216 C1215 1.394 . S
C1216 C1217 1.378 . S
C1216 H1238 0.931 . S
C1217 C1212 1.377 . S
C1217 C1216 1.378 . S
C1217 H1239 0.931 . S
C1218 O1228 1.259 . S
C1218 O1229 1.270 . S
C1219 O1230 1.251 . S
C1219 O1231 1.251 . S
O1220 C1200 1.257 . S
O1220 Eu1201 2.473 . S
O1221 C1200 1.260 . S
O1221 Eu1201 2.480 . S
O1222 Eu1201 2.430 . S
O1222 C1208 1.259 . S
O1223 Eu1201 2.670 . S
O1223 C1208 1.270 . S
O1223 Eu1211 2.355 . S
O1224 Eu1201 2.394 . S
O1224 C1209 1.251 . S
O1225 C1209 1.251 . S
O1225 Eu1211 2.374 . S
O1226 C1210 1.257 . S
O1226 Eu1211 2.473 . S
O1227 C1210 1.260 . S
O1227 Eu1211 2.480 . S
O1228 Eu1211 2.430 . S
O1228 C1218 1.259 . S
O1229 Eu1201 2.355 . S
O1229 Eu1211 2.670 . S
O1229 C1218 1.270 . S
O1230 Eu1211 2.394 . S
O1230 C1219 1.251 . S
O1231 Eu1201 2.374 . S
O1231 C1219 1.251 . S
H1232 C1203 0.931 . S
H1233 C1204 0.931 . S
H1234 C1206 0.931 . S
H1235 C1207 0.931 . S
H1236 C1213 0.931 . S
H1237 C1214 0.931 . S
H1238 C1216 0.931 . S
H1239 C1217 0.931 . S
C1240 Eu1241 2.835 . S
C1240 C1242 1.500 . S
C1240 O1260 1.257 . S
C1240 O1261 1.260 . S
Eu1241 C1240 2.835 . S
Eu1241 O1260 2.473 . S
Eu1241 O1261 2.480 . S
Eu1241 O1262 2.430 . S
Eu1241 O1263 2.670 . S
Eu1241 O1264 2.394 . S
Eu1241 O1269 2.355 . S
Eu1241 O1271 2.374 . S
C1242 C1240 1.500 . S
C1242 C1243 1.377 . S
C1242 C1247 1.377 . S
C1243 C1242 1.377 . S
C1243 C1244 1.395 . S
C1243 H1272 0.931 . S
C1244 C1243 1.395 . S
C1244 C1245 1.383 . S
C1244 H1273 0.931 . S
C1245 C1244 1.383 . S
C1245 C1246 1.394 . S
C1246 C1245 1.394 . S
C1246 C1247 1.378 . S
C1246 H1274 0.931 . S
C1247 C1242 1.377 . S
C1247 C1246 1.378 . S
C1247 H1275 0.931 . S
C1248 O1262 1.259 . S
C1248 O1263 1.270 . S
C1249 O1264 1.251 . S
C1249 O1265 1.251 . S
C1250 Eu1251 2.835 . S
C1250 C1252 1.500 . S
C1250 O1266 1.257 . S
C1250 O1267 1.260 . S
Eu1251 C1250 2.835 . S
Eu1251 O1263 2.355 . S
Eu1251 O1265 2.374 . S
Eu1251 O1266 2.473 . S
Eu1251 O1267 2.480 . S
Eu1251 O1268 2.430 . S
Eu1251 O1269 2.670 . S
Eu1251 O1270 2.394 . S
C1252 C1250 1.500 . S
C1252 C1253 1.377 . S
C1252 C1257 1.377 . S
C1253 C1252 1.377 . S
C1253 C1254 1.395 . S
C1253 H1276 0.931 . S
C1254 C1253 1.395 . S
C1254 C1255 1.383 . S
C1254 H1277 0.931 . S
C1255 C1254 1.383 . S
C1255 C1256 1.394 . S
C1256 C1255 1.394 . S
C1256 C1257 1.378 . S
C1256 H1278 0.931 . S
C1257 C1252 1.377 . S
C1257 C1256 1.378 . S
C1257 H1279 0.931 . S
C1258 O1268 1.259 . S
C1258 O1269 1.270 . S
C1259 O1270 1.251 . S
C1259 O1271 1.251 . S
O1260 C1240 1.257 . S
O1260 Eu1241 2.473 . S
O1261 C1240 1.260 . S
O1261 Eu1241 2.480 . S
O1262 Eu1241 2.430 . S
O1262 C1248 1.259 . S
O1263 Eu1241 2.670 . S
O1263 C1248 1.270 . S
O1263 Eu1251 2.355 . S
O1264 Eu1241 2.394 . S
O1264 C1249 1.251 . S
O1265 C1249 1.251 . S
O1265 Eu1251 2.374 . S
O1266 C1250 1.257 . S
O1266 Eu1251 2.473 . S
O1267 C1250 1.260 . S
O1267 Eu1251 2.480 . S
O1268 Eu1251 2.430 . S
O1268 C1258 1.259 . S
O1269 Eu1241 2.355 . S
O1269 Eu1251 2.670 . S
O1269 C1258 1.270 . S
O1270 Eu1251 2.394 . S
O1270 C1259 1.251 . S
O1271 Eu1241 2.374 . S
O1271 C1259 1.251 . S
H1272 C1243 0.931 . S
H1273 C1244 0.931 . S
H1274 C1246 0.931 . S
H1275 C1247 0.931 . S
H1276 C1253 0.931 . S
H1277 C1254 0.931 . S
H1278 C1256 0.931 . S
H1279 C1257 0.931 . S
H1280 C1286 0.930 . S
H1281 C1290 0.930 . S
H1282 C1295 0.929 . S
H1283 C1293 0.929 . S
H1284 C1288 0.929 . S
H1285 C1294 0.929 . S
C1286 H1280 0.930 . S
C1286 C1287 1.367 . S
C1286 C1294 1.378 . S
C1287 C1286 1.367 . S
C1287 C1295 1.433 . S
C1288 H1284 0.929 . S
C1288 C1290 1.378 . S
C1288 C1292 1.350 . S
C1289 C1292 1.463 . S
C1289 C1294 1.350 . S
C1289 N1297 1.427 . S
C1290 H1281 0.930 . S
C1290 C1288 1.378 . S
C1290 C1291 1.367 . S
C1291 C1290 1.367 . S
C1291 C1293 1.433 . S
C1292 C1288 1.350 . S
C1292 C1289 1.463 . S
C1292 N1296 1.427 . S
C1293 H1283 0.929 . S
C1293 C1291 1.433 . S
C1293 N1296 1.384 . S
C1294 H1285 0.929 . S
C1294 C1286 1.378 . S
C1294 C1289 1.350 . S
C1295 H1282 0.929 . S
C1295 C1287 1.433 . S
C1295 N1297 1.384 . S
N1296 C1292 1.427 . S
N1296 C1293 1.384 . S
N1297 C1289 1.427 . S
N1297 C1295 1.384 . S
H1298 C1304 0.930 . S
H1299 C1308 0.930 . S
H1300 C1313 0.929 . S
H1301 C1311 0.929 . S
H1302 C1306 0.929 . S
H1303 C1312 0.929 . S
C1304 H1298 0.930 . S
C1304 C1305 1.367 . S
C1304 C1312 1.378 . S
C1305 C1304 1.367 . S
C1305 C1313 1.433 . S
C1306 H1302 0.929 . S
C1306 C1308 1.378 . S
C1306 C1310 1.350 . S
C1307 C1310 1.463 . S
C1307 C1312 1.350 . S
C1307 N1315 1.427 . S
C1308 H1299 0.930 . S
C1308 C1306 1.378 . S
C1308 C1309 1.320 1_545 S
C1309 C1308 1.320 1_565 S
C1309 C1311 1.449 . S
C1310 C1306 1.350 . S
C1310 C1307 1.463 . S
C1310 N1314 1.427 . S
C1311 H1301 0.929 . S
C1311 C1309 1.449 . S
C1311 N1314 1.384 1_565 S
C1312 H1303 0.929 . S
C1312 C1304 1.378 . S
C1312 C1307 1.350 . S
C1313 H1300 0.929 . S
C1313 C1305 1.433 . S
C1313 N1315 1.384 . S
N1314 C1310 1.427 . S
N1314 C1311 1.384 1_545 S
N1315 C1307 1.427 . S
N1315 C1313 1.384 . S
H1316 C1322 0.930 . S
H1317 C1326 0.930 . S
H1318 C1331 0.929 . S
H1319 C1329 0.929 . S
H1320 C1324 0.929 . S
H1321 C1330 0.929 . S
C1322 H1316 0.930 . S
C1322 C1323 1.367 . S
C1322 C1330 1.378 . S
C1323 C1322 1.367 . S
C1323 C1331 1.433 . S
C1324 H1320 0.929 . S
C1324 C1326 1.378 . S
C1324 C1328 1.350 . S
C1325 C1328 1.463 . S
C1325 C1330 1.350 . S
C1325 N1333 1.427 . S
C1326 H1317 0.930 . S
C1326 C1324 1.378 . S
C1326 C1327 1.367 . S
C1327 C1326 1.367 . S
C1327 C1329 1.433 . S
C1328 C1324 1.350 . S
C1328 C1325 1.463 . S
C1328 N1332 1.427 . S
C1329 H1319 0.929 . S
C1329 C1327 1.433 . S
C1329 N1332 1.384 . S
C1330 H1321 0.929 . S
C1330 C1322 1.378 . S
C1330 C1325 1.350 . S
C1331 H1318 0.929 . S
C1331 C1323 1.433 . S
C1331 N1333 1.384 . S
N1332 C1328 1.427 . S
N1332 C1329 1.384 . S
N1333 C1325 1.427 . S
N1333 C1331 1.384 . S
H1334 C1340 0.930 . S
H1335 C1344 0.930 . S
H1336 C1349 0.929 . S
H1337 C1347 0.929 . S
H1338 C1342 0.929 . S
H1339 C1348 0.929 . S
C1340 H1334 0.930 . S
C1340 C1341 1.367 . S
C1340 C1348 1.378 . S
C1341 C1340 1.367 . S
C1341 C1349 1.433 . S
C1342 H1338 0.929 . S
C1342 C1344 1.378 1_565 S
C1342 C1346 1.350 . S
C1343 C1346 1.463 . S
C1343 C1348 1.350 . S
C1343 N1351 1.427 . S
C1344 H1335 0.930 . S
C1344 C1342 1.378 1_545 S
C1344 C1345 1.367 . S
C1345 C1344 1.367 . S
C1345 C1347 1.433 1_545 S
C1346 C1342 1.350 . S
C1346 C1343 1.463 . S
C1346 N1350 1.427 . S
C1347 H1337 0.929 . S
C1347 C1345 1.433 1_565 S
C1347 N1350 1.384 . S
C1348 H1339 0.929 . S
C1348 C1340 1.378 . S
C1348 C1343 1.350 . S
C1349 H1336 0.929 . S
C1349 C1341 1.433 . S
C1349 N1351 1.384 . S
N1350 C1346 1.427 . S
N1350 C1347 1.384 . S
N1351 C1343 1.427 . S
N1351 C1349 1.384 . S
H1352 C1358 0.930 . S
H1353 C1362 0.930 . S
H1354 C1367 0.929 . S
H1355 C1365 0.929 . S
H1356 C1360 0.929 . S
H1357 C1366 0.929 . S
C1358 H1352 0.930 . S
C1358 C1359 1.367 . S
C1358 C1366 1.378 . S
C1359 C1358 1.367 . S
C1359 C1367 1.433 . S
C1360 H1356 0.929 . S
C1360 C1362 1.378 . S
C1360 C1364 1.350 . S
C1361 C1364 1.463 . S
C1361 C1366 1.350 . S
C1361 N1369 1.427 . S
C1362 H1353 0.930 . S
C1362 C1360 1.378 . S
C1362 C1363 1.367 . S
C1363 C1362 1.367 . S
C1363 C1365 1.433 . S
C1364 C1360 1.350 . S
C1364 C1361 1.463 . S
C1364 N1368 1.427 . S
C1365 H1355 0.929 . S
C1365 C1363 1.433 . S
C1365 N1368 1.384 . S
C1366 H1357 0.929 . S
C1366 C1358 1.378 . S
C1366 C1361 1.350 . S
C1367 H1354 0.929 . S
C1367 C1359 1.433 . S
C1367 N1369 1.384 . S
N1368 C1364 1.427 . S
N1368 C1365 1.384 . S
N1369 C1361 1.427 . S
N1369 C1367 1.384 . S
H1370 C1376 0.930 . S
H1371 C1380 0.930 . S
H1372 C1385 0.929 . S
H1373 C1383 0.929 . S
H1374 C1378 0.929 . S
H1375 C1384 0.929 . S
C1376 H1370 0.930 . S
C1376 C1377 1.367 . S
C1376 C1384 1.378 1_565 S
C1377 C1376 1.367 . S
C1377 C1385 1.433 1_565 S
C1378 H1374 0.929 . S
C1378 C1380 1.378 . S
C1378 C1382 1.350 . S
C1379 C1382 1.463 . S
C1379 C1384 1.350 . S
C1379 N1387 1.427 . S
C1380 H1371 0.930 . S
C1380 C1378 1.378 . S
C1380 C1381 1.367 . S
C1381 C1380 1.367 . S
C1381 C1383 1.433 . S
C1382 C1378 1.350 . S
C1382 C1379 1.463 . S
C1382 N1386 1.427 . S
C1383 H1373 0.929 . S
C1383 C1381 1.433 . S
C1383 N1386 1.384 . S
C1384 H1375 0.929 . S
C1384 C1376 1.378 1_545 S
C1384 C1379 1.350 . S
C1385 H1372 0.929 . S
C1385 C1377 1.433 1_545 S
C1385 N1387 1.384 . S
N1386 C1382 1.427 . S
N1386 C1383 1.384 . S
N1387 C1379 1.427 . S
N1387 C1385 1.384 . S
H1388 C1394 0.930 . S
H1389 C1398 0.930 . S
H1390 C1403 0.929 . S
H1391 C1401 0.929 . S
H1392 C1396 0.929 . S
H1393 C1402 0.929 . S
C1394 H1388 0.930 . S
C1394 C1395 1.367 . S
C1394 C1402 1.378 . S
C1395 C1394 1.367 . S
C1395 C1403 1.433 . S
C1396 H1392 0.929 . S
C1396 C1398 1.378 . S
C1396 C1400 1.350 . S
C1397 C1400 1.463 . S
C1397 C1402 1.350 . S
C1397 N1405 1.427 . S
C1398 H1389 0.930 . S
C1398 C1396 1.378 . S
C1398 C1399 1.367 . S
C1399 C1398 1.367 . S
C1399 C1401 1.433 . S
C1400 C1396 1.350 . S
C1400 C1397 1.463 . S
C1400 N1404 1.427 . S
C1401 H1391 0.929 . S
C1401 C1399 1.433 . S
C1401 N1404 1.384 . S
C1402 H1393 0.929 . S
C1402 C1394 1.378 . S
C1402 C1397 1.350 . S
C1403 H1390 0.929 . S
C1403 C1395 1.433 . S
C1403 N1405 1.384 . S
N1404 C1400 1.427 . S
N1404 C1401 1.384 . S
N1405 C1397 1.427 . S
N1405 C1403 1.384 . S
H1406 C1412 0.930 . S
H1407 C1416 0.930 . S
H1408 C1421 0.929 . S
H1409 C1419 0.929 . S
H1410 C1414 0.929 . S
H1411 C1420 0.929 . S
C1412 H1406 0.930 . S
C1412 C1413 1.367 . S
C1412 C1420 1.378 . S
C1413 C1412 1.367 . S
C1413 C1421 1.433 . S
C1414 H1410 0.929 . S
C1414 C1416 1.378 . S
C1414 C1418 1.350 . S
C1415 C1418 1.463 . S
C1415 C1420 1.350 . S
C1415 N1423 1.427 . S
C1416 H1407 0.930 . S
C1416 C1414 1.378 . S
C1416 C1417 1.367 1_565 S
C1417 C1416 1.367 1_545 S
C1417 C1419 1.433 . S
C1418 C1414 1.350 . S
C1418 C1415 1.463 . S
C1418 N1422 1.427 . S
C1419 H1409 0.929 . S
C1419 C1417 1.433 . S
C1419 N1422 1.384 1_545 S
C1420 H1411 0.929 . S
C1420 C1412 1.378 . S
C1420 C1415 1.350 . S
C1421 H1408 0.929 . S
C1421 C1413 1.433 . S
C1421 N1423 1.384 . S
N1422 C1418 1.427 . S
N1422 C1419 1.384 1_565 S
N1423 C1415 1.427 . S
N1423 C1421 1.384 . S
H1424 C1430 0.930 . S
H1425 C1434 0.930 . S
H1426 C1439 0.929 . S
H1427 C1437 0.929 . S
H1428 C1432 0.929 . S
H1429 C1438 0.929 . S
C1430 H1424 0.930 . S
C1430 C1431 1.367 . S
C1430 C1438 1.378 . S
C1431 C1430 1.367 . S
C1431 C1439 1.433 . S
C1432 H1428 0.929 . S
C1432 C1434 1.378 . S
C1432 C1436 1.350 . S
C1433 C1436 1.463 . S
C1433 C1438 1.350 . S
C1433 N1441 1.427 . S
C1434 H1425 0.930 . S
C1434 C1432 1.378 . S
C1434 C1435 1.367 . S
C1435 C1434 1.367 . S
C1435 C1437 1.433 . S
C1436 C1432 1.350 . S
C1436 C1433 1.463 . S
C1436 N1440 1.427 . S
C1437 H1427 0.929 . S
C1437 C1435 1.433 . S
C1437 N1440 1.384 . S
C1438 H1429 0.929 . S
C1438 C1430 1.378 . S
C1438 C1433 1.350 . S
C1439 H1426 0.929 . S
C1439 C1431 1.433 . S
C1439 N1441 1.384 . S
N1440 C1436 1.427 . S
N1440 C1437 1.384 . S
N1441 C1433 1.427 . S
N1441 C1439 1.384 . S
H1442 C1448 0.930 . S
H1443 C1452 0.930 . S
H1444 C1457 0.929 . S
H1445 C1455 0.929 . S
H1446 C1450 0.929 . S
H1447 C1456 0.929 . S
C1448 H1442 0.930 . S
C1448 C1449 1.367 . S
C1448 C1456 1.378 1_545 S
C1449 C1448 1.367 . S
C1449 C1457 1.433 1_545 S
C1450 H1446 0.929 . S
C1450 C1452 1.378 . S
C1450 C1454 1.350 . S
C1451 C1454 1.463 . S
C1451 C1456 1.350 . S
C1451 N1459 1.427 . S
C1452 H1443 0.930 . S
C1452 C1450 1.378 . S
C1452 C1453 1.367 . S
C1453 C1452 1.367 . S
C1453 C1455 1.433 . S
C1454 C1450 1.350 . S
C1454 C1451 1.463 . S
C1454 N1458 1.427 . S
C1455 H1445 0.929 . S
C1455 C1453 1.433 . S
C1455 N1458 1.384 . S
C1456 H1447 0.929 . S
C1456 C1448 1.378 1_565 S
C1456 C1451 1.350 . S
C1457 H1444 0.929 . S
C1457 C1449 1.433 1_565 S
C1457 N1459 1.384 . S
N1458 C1454 1.427 . S
N1458 C1455 1.384 . S
N1459 C1451 1.427 . S
N1459 C1457 1.384 . S
H1460 C1466 0.930 . S
H1461 C1470 0.930 . S
H1462 C1475 0.929 . S
H1463 C1473 0.929 . S
H1464 C1468 0.929 . S
H1465 C1474 0.929 . S
C1466 H1460 0.930 . S
C1466 C1467 1.367 . S
C1466 C1474 1.378 . S
C1467 C1466 1.367 . S
C1467 C1475 1.433 . S
C1468 H1464 0.929 . S
C1468 C1470 1.378 . S
C1468 C1472 1.350 . S
C1469 C1472 1.463 . S
C1469 C1474 1.350 . S
C1469 N1477 1.427 . S
C1470 H1461 0.930 . S
C1470 C1468 1.378 . S
C1470 C1471 1.367 . S
C1471 C1470 1.367 . S
C1471 C1473 1.433 . S
C1472 C1468 1.350 . S
C1472 C1469 1.463 . S
C1472 N1476 1.427 . S
C1473 H1463 0.929 . S
C1473 C1471 1.433 . S
C1473 N1476 1.384 . S
C1474 H1465 0.929 . S
C1474 C1466 1.378 . S
C1474 C1469 1.350 . S
C1475 H1462 0.929 . S
C1475 C1467 1.433 . S
C1475 N1477 1.384 . S
N1476 C1472 1.427 . S
N1476 C1473 1.384 . S
N1477 C1469 1.427 . S
N1477 C1475 1.384 . S
H1478 C1484 0.930 . S
H1479 C1488 0.930 . S
H1480 C1493 0.929 1_565 S
H1481 C1491 0.929 . S
H1482 C1486 0.929 . S
H1483 C1492 0.929 . S
C1484 H1478 0.930 . S
C1484 C1485 1.367 1_545 S
C1484 C1492 1.378 . S
C1485 C1484 1.367 1_565 S
C1485 C1493 1.433 1_565 S
C1486 H1482 0.929 . S
C1486 C1488 1.378 . S
C1486 C1490 1.350 . S
C1487 C1490 1.463 . S
C1487 C1492 1.350 . S
C1487 N1495 1.427 . S
C1488 H1479 0.930 . S
C1488 C1486 1.378 . S
C1488 C1489 1.367 . S
C1489 C1488 1.367 . S
C1489 C1491 1.433 . S
C1490 C1486 1.350 . S
C1490 C1487 1.463 . S
C1490 N1494 1.427 . S
C1491 H1481 0.929 . S
C1491 C1489 1.433 . S
C1491 N1494 1.384 . S
C1492 H1483 0.929 . S
C1492 C1484 1.378 . S
C1492 C1487 1.350 . S
C1493 H1480 0.929 1_545 S
C1493 C1485 1.433 1_545 S
C1493 N1495 1.384 . S
N1494 C1490 1.427 . S
N1494 C1491 1.384 . S
N1495 C1487 1.427 . S
N1495 C1493 1.384 . S
H1496 C1502 0.930 . S
H1497 C1506 0.930 . S
H1498 C1511 0.929 . S
H1499 C1509 0.929 . S
H1500 C1504 0.929 . S
H1501 C1510 0.929 . S
C1502 H1496 0.930 . S
C1502 C1503 1.367 . S
C1502 C1510 1.378 . S
C1503 C1502 1.367 . S
C1503 C1511 1.433 . S
C1504 H1500 0.929 . S
C1504 C1506 1.378 . S
C1504 C1508 1.350 . S
C1505 C1508 1.463 . S
C1505 C1510 1.350 . S
C1505 N1513 1.427 . S
C1506 H1497 0.930 . S
C1506 C1504 1.378 . S
C1506 C1507 1.367 . S
C1507 C1506 1.367 . S
C1507 C1509 1.433 . S
C1508 C1504 1.350 . S
C1508 C1505 1.463 . S
C1508 N1512 1.427 . S
C1509 H1499 0.929 . S
C1509 C1507 1.433 . S
C1509 N1512 1.384 . S
C1510 H1501 0.929 . S
C1510 C1502 1.378 . S
C1510 C1505 1.350 . S
C1511 H1498 0.929 . S
C1511 C1503 1.433 . S
C1511 N1513 1.384 . S
N1512 C1508 1.427 . S
N1512 C1509 1.384 . S
N1513 C1505 1.427 . S
N1513 C1511 1.384 . S
H1514 C1520 0.930 . S
H1515 C1524 0.930 . S
H1516 C1529 0.929 . S
H1517 C1527 0.929 . S
H1518 C1522 0.929 . S
H1519 C1528 0.929 . S
C1520 H1514 0.930 . S
C1520 C1521 1.367 . S
C1520 C1528 1.378 1_545 S
C1521 C1520 1.367 . S
C1521 C1529 1.433 1_545 S
C1522 H1518 0.929 . S
C1522 C1524 1.378 . S
C1522 C1526 1.350 . S
C1523 C1526 1.463 . S
C1523 C1528 1.350 . S
C1523 N1531 1.427 . S
C1524 H1515 0.930 . S
C1524 C1522 1.378 . S
C1524 C1525 1.367 . S
C1525 C1524 1.367 . S
C1525 C1527 1.433 . S
C1526 C1522 1.350 . S
C1526 C1523 1.463 . S
C1526 N1530 1.427 . S
C1527 H1517 0.929 . S
C1527 C1525 1.433 . S
C1527 N1530 1.384 . S
C1528 H1519 0.929 . S
C1528 C1520 1.378 1_565 S
C1528 C1523 1.350 . S
C1529 H1516 0.929 . S
C1529 C1521 1.433 1_565 S
C1529 N1531 1.384 . S
N1530 C1526 1.427 . S
N1530 C1527 1.384 . S
N1531 C1523 1.427 . S
N1531 C1529 1.384 . S
H1532 C1538 0.930 . S
H1533 C1542 0.930 . S
H1534 C1547 0.929 . S
H1535 C1545 0.929 . S
H1536 C1540 0.929 . S
H1537 C1546 0.929 . S
C1538 H1532 0.930 . S
C1538 C1539 1.367 . S
C1538 C1546 1.378 . S
C1539 C1538 1.367 . S
C1539 C1547 1.433 . S
C1540 H1536 0.929 . S
C1540 C1542 1.378 . S
C1540 C1544 1.350 . S
C1541 C1544 1.463 . S
C1541 C1546 1.350 . S
C1541 N1549 1.427 . S
C1542 H1533 0.930 . S
C1542 C1540 1.378 . S
C1542 C1543 1.367 . S
C1543 C1542 1.367 . S
C1543 C1545 1.433 . S
C1544 C1540 1.350 . S
C1544 C1541 1.463 . S
C1544 N1548 1.427 . S
C1545 H1535 0.929 . S
C1545 C1543 1.433 . S
C1545 N1548 1.384 . S
C1546 H1537 0.929 . S
C1546 C1538 1.378 . S
C1546 C1541 1.350 . S
C1547 H1534 0.929 . S
C1547 C1539 1.433 . S
C1547 N1549 1.384 . S
N1548 C1544 1.427 . S
N1548 C1545 1.384 . S
N1549 C1541 1.427 . S
N1549 C1547 1.384 . S
H1550 C1556 0.930 . S
H1551 C1560 0.930 . S
H1552 C1565 0.929 . S
H1553 C1563 0.929 . S
H1554 C1558 0.929 . S
H1555 C1564 0.929 . S
C1556 H1550 0.930 . S
C1556 C1557 1.367 . S
C1556 C1564 1.378 . S
C1557 C1556 1.367 . S
C1557 C1565 1.433 . S
C1558 H1554 0.929 . S
C1558 C1560 1.378 1_545 S
C1558 C1562 1.350 . S
C1559 C1562 1.463 . S
C1559 C1564 1.350 . S
C1559 N1567 1.427 . S
C1560 H1551 0.930 . S
C1560 C1558 1.378 1_565 S
C1560 C1561 1.367 . S
C1561 C1560 1.367 . S
C1561 C1563 1.433 1_565 S
C1562 C1558 1.350 . S
C1562 C1559 1.463 . S
C1562 N1566 1.427 . S
C1563 H1553 0.929 . S
C1563 C1561 1.433 1_545 S
C1563 N1566 1.384 . S
C1564 H1555 0.929 . S
C1564 C1556 1.378 . S
C1564 C1559 1.350 . S
C1565 H1552 0.929 . S
C1565 C1557 1.433 . S
C1565 N1567 1.384 . S
N1566 C1562 1.427 . S
N1566 C1563 1.384 . S
N1567 C1559 1.427 . S
N1567 C1565 1.384 . S
H1568 C1574 0.930 . S
H1569 C1578 0.930 . S
H1570 C1583 0.929 . S
H1571 C1581 0.929 . S
H1572 C1576 0.929 . S
H1573 C1582 0.929 . S
C1574 H1568 0.930 . S
C1574 C1575 1.367 . S
C1574 C1582 1.378 . S
C1575 C1574 1.367 . S
C1575 C1583 1.433 . S
C1576 H1572 0.929 . S
C1576 C1578 1.378 . S
C1576 C1580 1.350 . S
C1577 C1580 1.463 . S
C1577 C1582 1.350 . S
C1577 N1585 1.427 . S
C1578 H1569 0.930 . S
C1578 C1576 1.378 . S
C1578 C1579 1.367 . S
C1579 C1578 1.367 . S
C1579 C1581 1.433 . S
C1580 C1576 1.350 . S
C1580 C1577 1.463 . S
C1580 N1584 1.427 . S
C1581 H1571 0.929 . S
C1581 C1579 1.433 . S
C1581 N1584 1.384 . S
C1582 H1573 0.929 . S
C1582 C1574 1.378 . S
C1582 C1577 1.350 . S
C1583 H1570 0.929 . S
C1583 C1575 1.433 . S
C1583 N1585 1.384 . S
N1584 C1580 1.427 . S
N1584 C1581 1.384 . S
N1585 C1577 1.427 . S
N1585 C1583 1.384 . S
H1586 C1592 0.930 . S
H1587 C1596 0.930 . S
H1588 C1601 0.929 . S
H1589 C1599 0.929 . S
H1590 C1594 0.929 . S
H1591 C1600 0.929 . S
C1592 H1586 0.930 . S
C1592 C1593 1.367 . S
C1592 C1600 1.378 . S
C1593 C1592 1.367 . S
C1593 C1601 1.433 . S
C1594 H1590 0.929 . S
C1594 C1596 1.378 . S
C1594 C1598 1.350 . S
C1595 C1598 1.463 . S
C1595 C1600 1.350 . S
C1595 N1603 1.427 . S
C1596 H1587 0.930 . S
C1596 C1594 1.378 . S
C1596 C1597 1.367 . S
C1597 C1596 1.367 . S
C1597 C1599 1.433 . S
C1598 C1594 1.350 . S
C1598 C1595 1.463 . S
C1598 N1602 1.427 . S
C1599 H1589 0.929 . S
C1599 C1597 1.433 . S
C1599 N1602 1.384 . S
C1600 H1591 0.929 . S
C1600 C1592 1.378 . S
C1600 C1595 1.350 . S
C1601 H1588 0.929 . S
C1601 C1593 1.433 . S
C1601 N1603 1.384 . S
N1602 C1598 1.427 . S
N1602 C1599 1.384 . S
N1603 C1595 1.427 . S
N1603 C1601 1.384 . S
H1604 C1610 0.930 . S
H1605 C1614 0.930 . S
H1606 C1619 0.929 . S
H1607 C1617 0.929 . S
H1608 C1612 0.929 . S
H1609 C1618 0.929 . S
C1610 H1604 0.930 . S
C1610 C1611 1.367 . S
C1610 C1618 1.378 . S
C1611 C1610 1.367 . S
C1611 C1619 1.433 . S
C1612 H1608 0.929 . S
C1612 C1614 1.378 . S
C1612 C1616 1.350 . S
C1613 C1616 1.463 . S
C1613 C1618 1.350 . S
C1613 N1621 1.427 . S
C1614 H1605 0.930 . S
C1614 C1612 1.378 . S
C1614 C1615 1.367 . S
C1615 C1614 1.367 . S
C1615 C1617 1.433 . S
C1616 C1612 1.350 . S
C1616 C1613 1.463 . S
C1616 N1620 1.427 . S
C1617 H1607 0.929 . S
C1617 C1615 1.433 . S
C1617 N1620 1.384 . S
C1618 H1609 0.929 . S
C1618 C1610 1.378 . S
C1618 C1613 1.350 . S
C1619 H1606 0.929 . S
C1619 C1611 1.433 . S
C1619 N1621 1.384 . S
N1620 C1616 1.427 . S
N1620 C1617 1.384 . S
N1621 C1613 1.427 . S
N1621 C1619 1.384 . S
H1622 C1628 0.930 . S
H1623 C1632 0.930 . S
H1624 C1637 0.929 . S
H1625 C1635 0.929 . S
H1626 C1630 0.929 . S
H1627 C1636 0.929 . S
C1628 H1622 0.930 . S
C1628 C1629 1.367 . S
C1628 C1636 1.378 . S
C1629 C1628 1.367 . S
C1629 C1637 1.433 . S
C1630 H1626 0.929 . S
C1630 C1632 1.378 . S
C1630 C1634 1.350 . S
C1631 C1634 1.463 . S
C1631 C1636 1.350 . S
C1631 N1639 1.427 . S
C1632 H1623 0.930 . S
C1632 C1630 1.378 . S
C1632 C1633 1.367 . S
C1633 C1632 1.367 . S
C1633 C1635 1.433 . S
C1634 C1630 1.350 . S
C1634 C1631 1.463 . S
C1634 N1638 1.427 . S
C1635 H1625 0.929 . S
C1635 C1633 1.433 . S
C1635 N1638 1.384 . S
C1636 H1627 0.929 . S
C1636 C1628 1.378 . S
C1636 C1631 1.350 . S
C1637 H1624 0.929 . S
C1637 C1629 1.433 . S
C1637 N1639 1.384 . S
N1638 C1634 1.427 . S
N1638 C1635 1.384 . S
N1639 C1631 1.427 . S
N1639 C1637 1.384 . S
H1640 C1646 0.930 . S
H1641 C1650 0.930 . S
H1642 C1655 0.929 . S
H1643 C1653 0.929 . S
H1644 C1648 0.929 . S
H1645 C1654 0.929 . S
C1646 H1640 0.930 . S
C1646 C1647 1.367 . S
C1646 C1654 1.378 . S
C1647 C1646 1.367 . S
C1647 C1655 1.433 . S
C1648 H1644 0.929 . S
C1648 C1650 1.378 . S
C1648 C1652 1.350 . S
C1649 C1652 1.463 . S
C1649 C1654 1.350 . S
C1649 N1657 1.427 . S
C1650 H1641 0.930 . S
C1650 C1648 1.378 . S
C1650 C1651 1.367 . S
C1651 C1650 1.367 . S
C1651 C1653 1.433 . S
C1652 C1648 1.350 . S
C1652 C1649 1.463 . S
C1652 N1656 1.427 . S
C1653 H1643 0.929 . S
C1653 C1651 1.433 . S
C1653 N1656 1.384 . S
C1654 H1645 0.929 . S
C1654 C1646 1.378 . S
C1654 C1649 1.350 . S
C1655 H1642 0.929 . S
C1655 C1647 1.433 . S
C1655 N1657 1.384 . S
N1656 C1652 1.427 . S
N1656 C1653 1.384 . S
N1657 C1649 1.427 . S
N1657 C1655 1.384 . S
H1658 C1664 0.930 . S
H1659 C1668 0.930 . S
H1660 C1673 0.929 . S
H1661 C1671 0.929 . S
H1662 C1666 0.929 . S
H1663 C1672 0.929 . S
C1664 H1658 0.930 . S
C1664 C1665 1.367 . S
C1664 C1672 1.378 . S
C1665 C1664 1.367 . S
C1665 C1673 1.433 . S
C1666 H1662 0.929 . S
C1666 C1668 1.378 . S
C1666 C1670 1.350 . S
C1667 C1670 1.463 . S
C1667 C1672 1.350 . S
C1667 N1675 1.427 . S
C1668 H1659 0.930 . S
C1668 C1666 1.378 . S
C1668 C1669 1.367 . S
C1669 C1668 1.367 . S
C1669 C1671 1.433 . S
C1670 C1666 1.350 . S
C1670 C1667 1.463 . S
C1670 N1674 1.427 . S
C1671 H1661 0.929 . S
C1671 C1669 1.433 . S
C1671 N1674 1.384 . S
C1672 H1663 0.929 . S
C1672 C1664 1.378 . S
C1672 C1667 1.350 . S
C1673 H1660 0.929 . S
C1673 C1665 1.433 . S
C1673 N1675 1.384 . S
N1674 C1670 1.427 . S
N1674 C1671 1.384 . S
N1675 C1667 1.427 . S
N1675 C1673 1.384 . S
H1676 C1682 0.930 . S
H1677 C1686 0.930 . S
H1678 C1691 0.929 . S
H1679 C1689 0.929 . S
H1680 C1684 0.929 . S
H1681 C1690 0.929 . S
C1682 H1676 0.930 . S
C1682 C1683 1.367 . S
C1682 C1690 1.378 . S
C1683 C1682 1.367 . S
C1683 C1691 1.433 . S
C1684 H1680 0.929 . S
C1684 C1686 1.378 . S
C1684 C1688 1.350 . S
C1685 C1688 1.463 . S
C1685 C1690 1.350 . S
C1685 N1693 1.427 . S
C1686 H1677 0.930 . S
C1686 C1684 1.378 . S
C1686 C1687 1.367 . S
C1687 C1686 1.367 . S
C1687 C1689 1.433 . S
C1688 C1684 1.350 . S
C1688 C1685 1.463 . S
C1688 N1692 1.427 . S
C1689 H1679 0.929 . S
C1689 C1687 1.433 . S
C1689 N1692 1.384 . S
C1690 H1681 0.929 . S
C1690 C1682 1.378 . S
C1690 C1685 1.350 . S
C1691 H1678 0.929 . S
C1691 C1683 1.433 . S
C1691 N1693 1.384 . S
N1692 C1688 1.427 . S
N1692 C1689 1.384 . S
N1693 C1685 1.427 . S
N1693 C1691 1.384 . S
H1694 C1700 0.930 . S
H1695 C1704 0.930 . S
H1696 C1709 0.929 . S
H1697 C1707 0.929 . S
H1698 C1702 0.929 . S
H1699 C1708 0.929 . S
C1700 H1694 0.930 . S
C1700 C1701 1.367 . S
C1700 C1708 1.378 . S
C1701 C1700 1.367 . S
C1701 C1709 1.433 . S
C1702 H1698 0.929 . S
C1702 C1704 1.378 . S
C1702 C1706 1.350 . S
C1703 C1706 1.463 . S
C1703 C1708 1.350 . S
C1703 N1711 1.427 . S
C1704 H1695 0.930 . S
C1704 C1702 1.378 . S
C1704 C1705 1.367 . S
C1705 C1704 1.367 . S
C1705 C1707 1.433 . S
C1706 C1702 1.350 . S
C1706 C1703 1.463 . S
C1706 N1710 1.427 . S
C1707 H1697 0.929 . S
C1707 C1705 1.433 . S
C1707 N1710 1.384 . S
C1708 H1699 0.929 . S
C1708 C1700 1.378 . S
C1708 C1703 1.350 . S
C1709 H1696 0.929 . S
C1709 C1701 1.433 . S
C1709 N1711 1.384 . S
N1710 C1706 1.427 . S
N1710 C1707 1.384 . S
N1711 C1703 1.427 . S
N1711 C1709 1.384 . S
H1712 C1718 0.930 . S
H1713 C1722 0.930 . S
H1714 C1727 0.929 . S
H1715 C1725 0.929 . S
H1716 C1720 0.929 . S
H1717 C1726 0.929 . S
C1718 H1712 0.930 . S
C1718 C1719 1.367 . S
C1718 C1726 1.378 . S
C1719 C1718 1.367 . S
C1719 C1727 1.433 . S
C1720 H1716 0.929 . S
C1720 C1722 1.378 . S
C1720 C1724 1.350 . S
C1721 C1724 1.463 . S
C1721 C1726 1.350 . S
C1721 N1729 1.427 . S
C1722 H1713 0.930 . S
C1722 C1720 1.378 . S
C1722 C1723 1.367 . S
C1723 C1722 1.367 . S
C1723 C1725 1.433 . S
C1724 C1720 1.350 . S
C1724 C1721 1.463 . S
C1724 N1728 1.427 . S
C1725 H1715 0.929 . S
C1725 C1723 1.433 . S
C1725 N1728 1.384 . S
C1726 H1717 0.929 . S
C1726 C1718 1.378 . S
C1726 C1721 1.350 . S
C1727 H1714 0.929 . S
C1727 C1719 1.433 . S
C1727 N1729 1.384 . S
N1728 C1724 1.427 . S
N1728 C1725 1.384 . S
N1729 C1721 1.427 . S
N1729 C1727 1.384 . S
H1730 C1736 0.930 . S
H1731 C1740 0.930 . S
H1732 C1745 0.929 . S
H1733 C1743 0.929 . S
H1734 C1738 0.929 . S
H1735 C1744 0.929 . S
C1736 H1730 0.930 . S
C1736 C1737 1.367 . S
C1736 C1744 1.378 . S
C1737 C1736 1.367 . S
C1737 C1745 1.433 . S
C1738 H1734 0.929 . S
C1738 C1740 1.378 . S
C1738 C1742 1.350 . S
C1739 C1742 1.463 . S
C1739 C1744 1.350 . S
C1739 N1747 1.427 . S
C1740 H1731 0.930 . S
C1740 C1738 1.378 . S
C1740 C1741 1.367 . S
C1741 C1740 1.367 . S
C1741 C1743 1.433 . S
C1742 C1738 1.350 . S
C1742 C1739 1.463 . S
C1742 N1746 1.427 . S
C1743 H1733 0.929 . S
C1743 C1741 1.433 . S
C1743 N1746 1.384 . S
C1744 H1735 0.929 . S
C1744 C1736 1.378 . S
C1744 C1739 1.350 . S
C1745 H1732 0.929 . S
C1745 C1737 1.433 . S
C1745 N1747 1.384 . S
N1746 C1742 1.427 . S
N1746 C1743 1.384 . S
N1747 C1739 1.427 . S
N1747 C1745 1.384 . S
H1748 C1754 0.930 . S
H1749 C1758 0.930 . S
H1750 C1763 0.929 . S
H1751 C1761 0.929 . S
H1752 C1756 0.929 . S
H1753 C1762 0.929 . S
C1754 H1748 0.930 . S
C1754 C1755 1.367 . S
C1754 C1762 1.378 . S
C1755 C1754 1.367 . S
C1755 C1763 1.433 . S
C1756 H1752 0.929 . S
C1756 C1758 1.378 . S
C1756 C1760 1.350 . S
C1757 C1760 1.463 . S
C1757 C1762 1.350 . S
C1757 N1765 1.427 . S
C1758 H1749 0.930 . S
C1758 C1756 1.378 . S
C1758 C1759 1.367 . S
C1759 C1758 1.367 . S
C1759 C1761 1.433 . S
C1760 C1756 1.350 . S
C1760 C1757 1.463 . S
C1760 N1764 1.427 . S
C1761 H1751 0.929 . S
C1761 C1759 1.433 . S
C1761 N1764 1.384 . S
C1762 H1753 0.929 . S
C1762 C1754 1.378 . S
C1762 C1757 1.350 . S
C1763 H1750 0.929 . S
C1763 C1755 1.433 . S
C1763 N1765 1.384 . S
N1764 C1760 1.427 . S
N1764 C1761 1.384 . S
N1765 C1757 1.427 . S
N1765 C1763 1.384 . S
H1766 C1772 0.930 . S
H1767 C1776 0.930 . S
H1768 C1781 0.929 . S
H1769 C1779 0.929 . S
H1770 C1774 0.929 . S
H1771 C1780 0.929 . S
C1772 H1766 0.930 . S
C1772 C1773 1.367 . S
C1772 C1780 1.378 . S
C1773 C1772 1.367 . S
C1773 C1781 1.433 . S
C1774 H1770 0.929 . S
C1774 C1776 1.378 . S
C1774 C1778 1.350 . S
C1775 C1778 1.463 . S
C1775 C1780 1.350 . S
C1775 N1783 1.427 . S
C1776 H1767 0.930 . S
C1776 C1774 1.378 . S
C1776 C1777 1.367 . S
C1777 C1776 1.367 . S
C1777 C1779 1.433 . S
C1778 C1774 1.350 . S
C1778 C1775 1.463 . S
C1778 N1782 1.427 . S
C1779 H1769 0.929 . S
C1779 C1777 1.433 . S
C1779 N1782 1.384 . S
C1780 H1771 0.929 . S
C1780 C1772 1.378 . S
C1780 C1775 1.350 . S
C1781 H1768 0.929 . S
C1781 C1773 1.433 . S
C1781 N1783 1.384 . S
N1782 C1778 1.427 . S
N1782 C1779 1.384 . S
N1783 C1775 1.427 . S
N1783 C1781 1.384 . S
H1784 C1790 0.930 . S
H1785 C1794 0.930 . S
H1786 C1799 0.929 . S
H1787 C1797 0.929 . S
H1788 C1792 0.929 . S
H1789 C1798 0.929 . S
C1790 H1784 0.930 . S
C1790 C1791 1.367 . S
C1790 C1798 1.378 . S
C1791 C1790 1.367 . S
C1791 C1799 1.433 . S
C1792 H1788 0.929 . S
C1792 C1794 1.378 . S
C1792 C1796 1.350 . S
C1793 C1796 1.463 . S
C1793 C1798 1.350 . S
C1793 N1801 1.427 . S
C1794 H1785 0.930 . S
C1794 C1792 1.378 . S
C1794 C1795 1.367 . S
C1795 C1794 1.367 . S
C1795 C1797 1.433 . S
C1796 C1792 1.350 . S
C1796 C1793 1.463 . S
C1796 N1800 1.427 . S
C1797 H1787 0.929 . S
C1797 C1795 1.433 . S
C1797 N1800 1.384 . S
C1798 H1789 0.929 . S
C1798 C1790 1.378 . S
C1798 C1793 1.350 . S
C1799 H1786 0.929 . S
C1799 C1791 1.433 . S
C1799 N1801 1.384 . S
N1800 C1796 1.427 . S
N1800 C1797 1.384 . S
N1801 C1793 1.427 . S
N1801 C1799 1.384 . S
H1802 C1808 0.930 . S
H1803 C1812 0.930 . S
H1804 C1817 0.929 . S
H1805 C1815 0.929 . S
H1806 C1810 0.929 . S
H1807 C1816 0.929 . S
C1808 H1802 0.930 . S
C1808 C1809 1.367 . S
C1808 C1816 1.378 . S
C1809 C1808 1.367 . S
C1809 C1817 1.433 . S
C1810 H1806 0.929 . S
C1810 C1812 1.378 . S
C1810 C1814 1.350 . S
C1811 C1814 1.463 . S
C1811 C1816 1.350 . S
C1811 N1819 1.427 . S
C1812 H1803 0.930 . S
C1812 C1810 1.378 . S
C1812 C1813 1.367 . S
C1813 C1812 1.367 . S
C1813 C1815 1.433 . S
C1814 C1810 1.350 . S
C1814 C1811 1.463 . S
C1814 N1818 1.427 . S
C1815 H1805 0.929 . S
C1815 C1813 1.433 . S
C1815 N1818 1.384 . S
C1816 H1807 0.929 . S
C1816 C1808 1.378 . S
C1816 C1811 1.350 . S
C1817 H1804 0.929 . S
C1817 C1809 1.433 . S
C1817 N1819 1.384 . S
N1818 C1814 1.427 . S
N1818 C1815 1.384 . S
N1819 C1811 1.427 . S
N1819 C1817 1.384 . S
H1820 C1826 0.930 . S
H1821 C1830 0.930 . S
H1822 C1835 0.929 . S
H1823 C1833 0.929 . S
H1824 C1828 0.929 . S
H1825 C1834 0.929 . S
C1826 H1820 0.930 . S
C1826 C1827 1.367 . S
C1826 C1834 1.378 . S
C1827 C1826 1.367 . S
C1827 C1835 1.433 . S
C1828 H1824 0.929 . S
C1828 C1830 1.378 . S
C1828 C1832 1.350 . S
C1829 C1832 1.463 . S
C1829 C1834 1.350 . S
C1829 N1837 1.427 . S
C1830 H1821 0.930 . S
C1830 C1828 1.378 . S
C1830 C1831 1.367 . S
C1831 C1830 1.367 . S
C1831 C1833 1.433 . S
C1832 C1828 1.350 . S
C1832 C1829 1.463 . S
C1832 N1836 1.427 . S
C1833 H1823 0.929 . S
C1833 C1831 1.433 . S
C1833 N1836 1.384 . S
C1834 H1825 0.929 . S
C1834 C1826 1.378 . S
C1834 C1829 1.350 . S
C1835 H1822 0.929 . S
C1835 C1827 1.433 . S
C1835 N1837 1.384 . S
N1836 C1832 1.427 . S
N1836 C1833 1.384 . S
N1837 C1829 1.427 . S
N1837 C1835 1.384 . S
H1838 C1844 0.930 . S
H1839 C1848 0.930 . S
H1840 C1853 0.929 . S
H1841 C1851 0.929 . S
H1842 C1846 0.929 . S
H1843 C1852 0.929 . S
C1844 H1838 0.930 . S
C1844 C1845 1.367 . S
C1844 C1852 1.378 . S
C1845 C1844 1.367 . S
C1845 C1853 1.433 . S
C1846 H1842 0.929 . S
C1846 C1848 1.378 . S
C1846 C1850 1.350 . S
C1847 C1850 1.463 . S
C1847 C1852 1.350 . S
C1847 N1855 1.427 . S
C1848 H1839 0.930 . S
C1848 C1846 1.378 . S
C1848 C1849 1.367 . S
C1849 C1848 1.367 . S
C1849 C1851 1.433 . S
C1850 C1846 1.350 . S
C1850 C1847 1.463 . S
C1850 N1854 1.427 . S
C1851 H1841 0.929 . S
C1851 C1849 1.433 . S
C1851 N1854 1.384 . S
C1852 H1843 0.929 . S
C1852 C1844 1.378 . S
C1852 C1847 1.350 . S
C1853 H1840 0.929 . S
C1853 C1845 1.433 . S
C1853 N1855 1.384 . S
N1854 C1850 1.427 . S
N1854 C1851 1.384 . S
N1855 C1847 1.427 . S
N1855 C1853 1.384 . S
H1856 C1862 0.930 . S
H1857 C1866 0.930 . S
H1858 C1871 0.929 . S
H1859 C1869 0.929 . S
H1860 C1864 0.929 . S
H1861 C1870 0.929 . S
C1862 H1856 0.930 . S
C1862 C1863 1.367 . S
C1862 C1870 1.378 . S
C1863 C1862 1.367 . S
C1863 C1871 1.433 . S
C1864 H1860 0.929 . S
C1864 C1866 1.378 . S
C1864 C1868 1.350 . S
C1865 C1868 1.463 . S
C1865 C1870 1.350 . S
C1865 N1873 1.427 . S
C1866 H1857 0.930 . S
C1866 C1864 1.378 . S
C1866 C1867 1.367 . S
C1867 C1866 1.367 . S
C1867 C1869 1.433 . S
C1868 C1864 1.350 . S
C1868 C1865 1.463 . S
C1868 N1872 1.427 . S
C1869 H1859 0.929 . S
C1869 C1867 1.433 . S
C1869 N1872 1.384 . S
C1870 H1861 0.929 . S
C1870 C1862 1.378 . S
C1870 C1865 1.350 . S
C1871 H1858 0.929 . S
C1871 C1863 1.433 . S
C1871 N1873 1.384 . S
N1872 C1868 1.427 . S
N1872 C1869 1.384 . S
N1873 C1865 1.427 . S
N1873 C1871 1.384 . S
H1874 C1880 0.930 . S
H1875 C1884 0.930 . S
H1876 C1889 0.929 . S
H1877 C1887 0.929 . S
H1878 C1882 0.929 . S
H1879 C1888 0.929 . S
C1880 H1874 0.930 . S
C1880 C1881 1.367 . S
C1880 C1888 1.378 . S
C1881 C1880 1.367 . S
C1881 C1889 1.433 . S
C1882 H1878 0.929 . S
C1882 C1884 1.378 . S
C1882 C1886 1.350 . S
C1883 C1886 1.463 . S
C1883 C1888 1.350 . S
C1883 N1891 1.427 . S
C1884 H1875 0.930 . S
C1884 C1882 1.378 . S
C1884 C1885 1.367 . S
C1885 C1884 1.367 . S
C1885 C1887 1.433 . S
C1886 C1882 1.350 . S
C1886 C1883 1.463 . S
C1886 N1890 1.427 . S
C1887 H1877 0.929 . S
C1887 C1885 1.433 . S
C1887 N1890 1.384 . S
C1888 H1879 0.929 . S
C1888 C1880 1.378 . S
C1888 C1883 1.350 . S
C1889 H1876 0.929 . S
C1889 C1881 1.433 . S
C1889 N1891 1.384 . S
N1890 C1886 1.427 . S
N1890 C1887 1.384 . S
N1891 C1883 1.427 . S
N1891 C1889 1.384 . S
H1892 C1898 0.930 . S
H1893 C1902 0.930 . S
H1894 C1907 0.929 . S
H1895 C1905 0.929 . S
H1896 C1900 0.929 . S
H1897 C1906 0.929 . S
C1898 H1892 0.930 . S
C1898 C1899 1.367 . S
C1898 C1906 1.378 . S
C1899 C1898 1.367 . S
C1899 C1907 1.433 . S
C1900 H1896 0.929 . S
C1900 C1902 1.378 . S
C1900 C1904 1.350 . S
C1901 C1904 1.463 . S
C1901 C1906 1.350 . S
C1901 N1909 1.427 . S
C1902 H1893 0.930 . S
C1902 C1900 1.378 . S
C1902 C1903 1.367 . S
C1903 C1902 1.367 . S
C1903 C1905 1.433 . S
C1904 C1900 1.350 . S
C1904 C1901 1.463 . S
C1904 N1908 1.427 . S
C1905 H1895 0.929 . S
C1905 C1903 1.433 . S
C1905 N1908 1.384 . S
C1906 H1897 0.929 . S
C1906 C1898 1.378 . S
C1906 C1901 1.350 . S
C1907 H1894 0.929 . S
C1907 C1899 1.433 . S
C1907 N1909 1.384 . S
N1908 C1904 1.427 . S
N1908 C1905 1.384 . S
N1909 C1901 1.427 . S
N1909 C1907 1.384 . S
H1910 C1916 0.930 . S
H1911 C1920 0.930 . S
H1912 C1925 0.929 . S
H1913 C1923 0.929 . S
H1914 C1918 0.929 . S
H1915 C1924 0.929 . S
C1916 H1910 0.930 . S
C1916 C1917 1.367 . S
C1916 C1924 1.378 . S
C1917 C1916 1.367 . S
C1917 C1925 1.433 . S
C1918 H1914 0.929 . S
C1918 C1920 1.378 . S
C1918 C1922 1.350 . S
C1919 C1922 1.463 . S
C1919 C1924 1.350 . S
C1919 N1927 1.427 . S
C1920 H1911 0.930 . S
C1920 C1918 1.378 . S
C1920 C1921 1.367 . S
C1921 C1920 1.367 . S
C1921 C1923 1.433 . S
C1922 C1918 1.350 . S
C1922 C1919 1.463 . S
C1922 N1926 1.427 . S
C1923 H1913 0.929 . S
C1923 C1921 1.433 . S
C1923 N1926 1.384 . S
C1924 H1915 0.929 . S
C1924 C1916 1.378 . S
C1924 C1919 1.350 . S
C1925 H1912 0.929 . S
C1925 C1917 1.433 . S
C1925 N1927 1.384 . S
N1926 C1922 1.427 . S
N1926 C1923 1.384 . S
N1927 C1919 1.427 . S
N1927 C1925 1.384 . S
H1928 C1934 0.930 . S
H1929 C1938 0.930 . S
H1930 C1943 0.929 . S
H1931 C1941 0.929 . S
H1932 C1936 0.929 . S
H1933 C1942 0.929 . S
C1934 H1928 0.930 . S
C1934 C1935 1.367 . S
C1934 C1942 1.378 . S
C1935 C1934 1.367 . S
C1935 C1943 1.433 . S
C1936 H1932 0.929 . S
C1936 C1938 1.378 . S
C1936 C1940 1.350 . S
C1937 C1940 1.463 . S
C1937 C1942 1.350 . S
C1937 N1945 1.427 . S
C1938 H1929 0.930 . S
C1938 C1936 1.378 . S
C1938 C1939 1.367 . S
C1939 C1938 1.367 . S
C1939 C1941 1.433 . S
C1940 C1936 1.350 . S
C1940 C1937 1.463 . S
C1940 N1944 1.427 . S
C1941 H1931 0.929 . S
C1941 C1939 1.433 . S
C1941 N1944 1.384 . S
C1942 H1933 0.929 . S
C1942 C1934 1.378 . S
C1942 C1937 1.350 . S
C1943 H1930 0.929 . S
C1943 C1935 1.433 . S
C1943 N1945 1.384 . S
N1944 C1940 1.427 . S
N1944 C1941 1.384 . S
N1945 C1937 1.427 . S
N1945 C1943 1.384 . S
H1946 C1952 0.930 . S
H1947 C1956 0.930 . S
H1948 C1961 0.929 . S
H1949 C1959 0.929 . S
H1950 C1954 0.929 . S
H1951 C1960 0.929 . S
C1952 H1946 0.930 . S
C1952 C1953 1.367 . S
C1952 C1960 1.378 . S
C1953 C1952 1.367 . S
C1953 C1961 1.433 . S
C1954 H1950 0.929 . S
C1954 C1956 1.378 . S
C1954 C1958 1.350 . S
C1955 C1958 1.463 . S
C1955 C1960 1.350 . S
C1955 N1963 1.427 . S
C1956 H1947 0.930 . S
C1956 C1954 1.378 . S
C1956 C1957 1.367 . S
C1957 C1956 1.367 . S
C1957 C1959 1.433 . S
C1958 C1954 1.350 . S
C1958 C1955 1.463 . S
C1958 N1962 1.427 . S
C1959 H1949 0.929 . S
C1959 C1957 1.433 . S
C1959 N1962 1.384 . S
C1960 H1951 0.929 . S
C1960 C1952 1.378 . S
C1960 C1955 1.350 . S
C1961 H1948 0.929 . S
C1961 C1953 1.433 . S
C1961 N1963 1.384 . S
N1962 C1958 1.427 . S
N1962 C1959 1.384 . S
N1963 C1955 1.427 . S
N1963 C1961 1.384 . S
H1964 C1970 0.930 . S
H1965 C1974 0.930 . S
H1966 C1979 0.929 . S
H1967 C1977 0.929 . S
H1968 C1972 0.929 . S
H1969 C1978 0.929 . S
C1970 H1964 0.930 . S
C1970 C1971 1.367 . S
C1970 C1978 1.378 . S
C1971 C1970 1.367 . S
C1971 C1979 1.433 . S
C1972 H1968 0.929 . S
C1972 C1974 1.378 . S
C1972 C1976 1.350 . S
C1973 C1976 1.463 . S
C1973 C1978 1.350 . S
C1973 N1981 1.427 . S
C1974 H1965 0.930 . S
C1974 C1972 1.378 . S
C1974 C1975 1.367 . S
C1975 C1974 1.367 . S
C1975 C1977 1.433 . S
C1976 C1972 1.350 . S
C1976 C1973 1.463 . S
C1976 N1980 1.427 . S
C1977 H1967 0.929 . S
C1977 C1975 1.433 . S
C1977 N1980 1.384 . S
C1978 H1969 0.929 . S
C1978 C1970 1.378 . S
C1978 C1973 1.350 . S
C1979 H1966 0.929 . S
C1979 C1971 1.433 . S
C1979 N1981 1.384 . S
N1980 C1976 1.427 . S
N1980 C1977 1.384 . S
N1981 C1973 1.427 . S
N1981 C1979 1.384 . S
H1982 C1988 0.930 . S
H1983 C1992 0.938 . S
H1984 C1997 0.929 . S
H1985 C1995 0.929 . S
H1986 C1990 0.929 . S
H1987 C1996 0.929 . S
C1988 H1982 0.930 . S
C1988 C1989 1.367 . S
C1988 C1996 1.378 . S
C1989 C1988 1.367 . S
C1989 C1997 1.433 . S
C1990 H1986 0.929 . S
C1990 C1992 1.378 . S
C1990 C1994 1.350 . S
C1991 C1994 1.463 . S
C1991 C1996 1.350 . S
C1991 N1999 1.427 . S
C1992 H1983 0.938 . S
C1992 C1990 1.378 . S
C1992 C1993 1.367 . S
C1993 C1992 1.367 . S
C1993 C1995 1.433 . S
C1994 C1990 1.350 . S
C1994 C1991 1.463 . S
C1994 N1998 1.427 . S
C1995 H1985 0.929 . S
C1995 C1993 1.433 . S
C1995 N1998 1.384 . S
C1996 H1987 0.929 . S
C1996 C1988 1.378 . S
C1996 C1991 1.350 . S
C1997 H1984 0.929 . S
C1997 C1989 1.433 . S
C1997 N1999 1.384 . S
N1998 C1994 1.427 . S
N1998 C1995 1.384 . S
N1999 C1991 1.427 . S
N1999 C1997 1.384 . S
H2000 C2006 0.930 . S
H2001 C2010 0.930 . S
H2002 C2015 0.929 . S
H2003 C2013 0.929 . S
H2004 C2008 0.929 . S
H2005 C2014 0.929 . S
C2006 H2000 0.930 . S
C2006 C2007 1.367 . S
C2006 C2014 1.378 . S
C2007 C2006 1.367 . S
C2007 C2015 1.433 . S
C2008 H2004 0.929 . S
C2008 C2010 1.378 . S
C2008 C2012 1.350 . S
C2009 C2012 1.463 . S
C2009 C2014 1.350 . S
C2009 N2017 1.427 . S
C2010 H2001 0.930 . S
C2010 C2008 1.378 . S
C2010 C2011 1.367 . S
C2011 C2010 1.367 . S
C2011 C2013 1.433 . S
C2012 C2008 1.350 . S
C2012 C2009 1.463 . S
C2012 N2016 1.427 . S
C2013 H2003 0.929 . S
C2013 C2011 1.433 . S
C2013 N2016 1.384 . S
C2014 H2005 0.929 . S
C2014 C2006 1.378 . S
C2014 C2009 1.350 . S
C2015 H2002 0.929 . S
C2015 C2007 1.433 . S
C2015 N2017 1.384 . S
N2016 C2012 1.427 . S
N2016 C2013 1.384 . S
N2017 C2009 1.427 . S
N2017 C2015 1.384 . S
H2018 C2024 0.930 . S
H2019 C2028 0.930 . S
H2020 C2033 0.929 1_455 S
H2021 C2031 0.929 . S
H2022 C2026 0.929 . S
H2023 C2032 0.929 . S
C2024 H2018 0.930 . S
C2024 C2025 1.367 . S
C2024 C2032 1.378 . S
C2025 C2024 1.367 . S
C2025 C2033 1.433 . S
C2026 H2022 0.929 . S
C2026 C2028 1.378 . S
C2026 C2030 1.350 . S
C2027 C2030 1.463 . S
C2027 C2032 1.350 . S
C2027 N2035 1.427 . S
C2028 H2019 0.930 . S
C2028 C2026 1.378 . S
C2028 C2029 1.367 . S
C2029 C2028 1.367 . S
C2029 C2031 1.433 . S
C2030 C2026 1.350 . S
C2030 C2027 1.463 . S
C2030 N2034 1.427 . S
C2031 H2021 0.929 . S
C2031 C2029 1.433 . S
C2031 N2034 1.384 . S
C2032 H2023 0.929 . S
C2032 C2024 1.378 . S
C2032 C2027 1.350 . S
C2033 H2020 0.929 1_655 S
C2033 C2025 1.433 . S
C2033 N2035 1.384 . S
N2034 C2030 1.427 . S
N2034 C2031 1.384 . S
N2035 C2027 1.427 . S
N2035 C2033 1.384 . S
H2036 C2042 0.930 . S
H2037 C2046 0.930 . S
H2038 C2051 0.929 . S
H2039 C2049 0.929 . S
H2040 C2044 0.929 . S
H2041 C2050 0.929 . S
C2042 H2036 0.930 . S
C2042 C2043 1.367 . S
C2042 C2050 1.378 . S
C2043 C2042 1.367 . S
C2043 C2051 1.433 . S
C2044 H2040 0.929 . S
C2044 C2046 1.378 . S
C2044 C2048 1.350 . S
C2045 C2048 1.463 . S
C2045 C2050 1.350 . S
C2045 N2053 1.427 . S
C2046 H2037 0.930 . S
C2046 C2044 1.378 . S
C2046 C2047 1.367 . S
C2047 C2046 1.367 . S
C2047 C2049 1.433 . S
C2048 C2044 1.350 . S
C2048 C2045 1.463 . S
C2048 N2052 1.427 . S
C2049 H2039 0.929 . S
C2049 C2047 1.433 . S
C2049 N2052 1.384 . S
C2050 H2041 0.929 . S
C2050 C2042 1.378 . S
C2050 C2045 1.350 . S
C2051 H2038 0.929 . S
C2051 C2043 1.433 . S
C2051 N2053 1.384 . S
N2052 C2048 1.427 . S
N2052 C2049 1.384 . S
N2053 C2045 1.427 . S
N2053 C2051 1.384 . S
H2054 C2060 0.930 . S
H2055 C2064 0.930 . S
H2056 C2069 0.929 . S
H2057 C2067 0.929 . S
H2058 C2062 0.929 . S
H2059 C2068 0.929 . S
C2060 H2054 0.930 . S
C2060 C2061 1.367 . S
C2060 C2068 1.378 . S
C2061 C2060 1.367 . S
C2061 C2069 1.433 . S
C2062 H2058 0.929 . S
C2062 C2064 1.378 . S
C2062 C2066 1.350 . S
C2063 C2066 1.463 . S
C2063 C2068 1.350 . S
C2063 N2071 1.427 . S
C2064 H2055 0.930 . S
C2064 C2062 1.378 . S
C2064 C2065 1.367 . S
C2065 C2064 1.367 . S
C2065 C2067 1.433 . S
C2066 C2062 1.350 . S
C2066 C2063 1.463 . S
C2066 N2070 1.427 . S
C2067 H2057 0.929 . S
C2067 C2065 1.433 . S
C2067 N2070 1.384 . S
C2068 H2059 0.929 . S
C2068 C2060 1.378 . S
C2068 C2063 1.350 . S
C2069 H2056 0.929 . S
C2069 C2061 1.433 . S
C2069 N2071 1.384 . S
N2070 C2066 1.427 . S
N2070 C2067 1.384 . S
N2071 C2063 1.427 . S
N2071 C2069 1.384 . S
H2072 C2078 0.930 . S
H2073 C2082 0.930 . S
H2074 C2087 0.929 . S
H2075 C2085 0.929 . S
H2076 C2080 0.929 . S
H2077 C2086 0.929 . S
C2078 H2072 0.930 . S
C2078 C2079 1.367 . S
C2078 C2086 1.378 . S
C2079 C2078 1.367 . S
C2079 C2087 1.433 . S
C2080 H2076 0.929 . S
C2080 C2082 1.378 . S
C2080 C2084 1.350 . S
C2081 C2084 1.463 . S
C2081 C2086 1.350 . S
C2081 N2089 1.427 . S
C2082 H2073 0.930 . S
C2082 C2080 1.378 . S
C2082 C2083 1.367 . S
C2083 C2082 1.367 . S
C2083 C2085 1.433 . S
C2084 C2080 1.350 . S
C2084 C2081 1.463 . S
C2084 N2088 1.427 . S
C2085 H2075 0.929 . S
C2085 C2083 1.433 . S
C2085 N2088 1.384 . S
C2086 H2077 0.929 . S
C2086 C2078 1.378 . S
C2086 C2081 1.350 . S
C2087 H2074 0.929 . S
C2087 C2079 1.433 . S
C2087 N2089 1.384 . S
N2088 C2084 1.427 . S
N2088 C2085 1.384 . S
N2089 C2081 1.427 . S
N2089 C2087 1.384 . S
H2090 C2096 0.930 . S
H2091 C2100 0.930 . S
H2092 C2105 0.929 . S
H2093 C2103 0.929 . S
H2094 C2098 0.929 . S
H2095 C2104 0.929 . S
C2096 H2090 0.930 . S
C2096 C2097 1.367 . S
C2096 C2104 1.378 . S
C2097 C2096 1.367 . S
C2097 C2105 1.433 . S
C2098 H2094 0.929 . S
C2098 C2100 1.378 . S
C2098 C2102 1.350 . S
C2099 C2102 1.463 . S
C2099 C2104 1.350 . S
C2099 N2107 1.427 . S
C2100 H2091 0.930 . S
C2100 C2098 1.378 . S
C2100 C2101 1.367 . S
C2101 C2100 1.367 . S
C2101 C2103 1.433 . S
C2102 C2098 1.350 . S
C2102 C2099 1.463 . S
C2102 N2106 1.427 . S
C2103 H2093 0.929 . S
C2103 C2101 1.433 . S
C2103 N2106 1.384 . S
C2104 H2095 0.929 . S
C2104 C2096 1.378 . S
C2104 C2099 1.350 . S
C2105 H2092 0.929 . S
C2105 C2097 1.433 . S
C2105 N2107 1.384 . S
N2106 C2102 1.427 . S
N2106 C2103 1.384 . S
N2107 C2099 1.427 . S
N2107 C2105 1.384 . S
H2108 C2114 0.930 . S
H2109 C2118 0.930 . S
H2110 C2123 0.929 . S
H2111 C2121 0.929 . S
H2112 C2116 0.929 . S
H2113 C2122 0.929 . S
C2114 H2108 0.930 . S
C2114 C2115 1.367 . S
C2114 C2122 1.378 . S
C2115 C2114 1.367 . S
C2115 C2123 1.433 . S
C2116 H2112 0.929 . S
C2116 C2118 1.378 . S
C2116 C2120 1.350 . S
C2117 C2120 1.463 . S
C2117 C2122 1.350 . S
C2117 N2125 1.427 . S
C2118 H2109 0.930 . S
C2118 C2116 1.378 . S
C2118 C2119 1.367 . S
C2119 C2118 1.367 . S
C2119 C2121 1.433 . S
C2120 C2116 1.350 . S
C2120 C2117 1.463 . S
C2120 N2124 1.427 . S
C2121 H2111 0.929 . S
C2121 C2119 1.433 . S
C2121 N2124 1.384 . S
C2122 H2113 0.929 . S
C2122 C2114 1.378 . S
C2122 C2117 1.350 . S
C2123 H2110 0.929 . S
C2123 C2115 1.433 . S
C2123 N2125 1.384 . S
N2124 C2120 1.427 . S
N2124 C2121 1.384 . S
N2125 C2117 1.427 . S
N2125 C2123 1.384 . S
H2126 C2132 0.930 . S
H2127 C2136 0.930 1_455 S
H2128 C2141 0.929 . S
H2129 C2139 0.929 . S
H2130 C2134 0.929 . S
H2131 C2140 0.929 . S
C2132 H2126 0.930 . S
C2132 C2133 1.367 . S
C2132 C2140 1.378 . S
C2133 C2132 1.367 . S
C2133 C2141 1.433 . S
C2134 H2130 0.929 . S
C2134 C2136 1.378 . S
C2134 C2138 1.350 . S
C2135 C2138 1.463 . S
C2135 C2140 1.350 . S
C2135 N2143 1.427 . S
C2136 H2127 0.930 1_655 S
C2136 C2134 1.378 . S
C2136 C2137 1.367 . S
C2137 C2136 1.367 . S
C2137 C2139 1.433 . S
C2138 C2134 1.350 . S
C2138 C2135 1.463 . S
C2138 N2142 1.427 . S
C2139 H2129 0.929 . S
C2139 C2137 1.433 . S
C2139 N2142 1.384 . S
C2140 H2131 0.929 . S
C2140 C2132 1.378 . S
C2140 C2135 1.350 . S
C2141 H2128 0.929 . S
C2141 C2133 1.433 . S
C2141 N2143 1.384 . S
N2142 C2138 1.427 . S
N2142 C2139 1.384 . S
N2143 C2135 1.427 . S
N2143 C2141 1.384 . S
H2144 C2150 0.930 . S
H2145 C2154 0.930 . S
H2146 C2159 0.929 . S
H2147 C2157 0.929 . S
H2148 C2152 0.929 . S
H2149 C2158 0.929 . S
C2150 H2144 0.930 . S
C2150 C2151 1.367 . S
C2150 C2158 1.378 . S
C2151 C2150 1.367 . S
C2151 C2159 1.433 . S
C2152 H2148 0.929 . S
C2152 C2154 1.378 . S
C2152 C2156 1.350 . S
C2153 C2156 1.463 . S
C2153 C2158 1.350 . S
C2153 N2161 1.427 . S
C2154 H2145 0.930 . S
C2154 C2152 1.378 . S
C2154 C2155 1.367 . S
C2155 C2154 1.367 . S
C2155 C2157 1.433 . S
C2156 C2152 1.350 . S
C2156 C2153 1.463 . S
C2156 N2160 1.427 . S
C2157 H2147 0.929 . S
C2157 C2155 1.433 . S
C2157 N2160 1.384 . S
C2158 H2149 0.929 . S
C2158 C2150 1.378 . S
C2158 C2153 1.350 . S
C2159 H2146 0.929 . S
C2159 C2151 1.433 . S
C2159 N2161 1.384 . S
N2160 C2156 1.427 . S
N2160 C2157 1.384 . S
N2161 C2153 1.427 . S
N2161 C2159 1.384 . S
H2162 C2168 0.930 . S
H2163 C2172 0.930 . S
H2164 C2177 0.929 . S
H2165 C2175 0.929 . S
H2166 C2170 0.929 . S
H2167 C2176 0.929 . S
C2168 H2162 0.930 . S
C2168 C2169 1.367 . S
C2168 C2176 1.378 . S
C2169 C2168 1.367 . S
C2169 C2177 1.433 . S
C2170 H2166 0.929 . S
C2170 C2172 1.378 . S
C2170 C2174 1.350 . S
C2171 C2174 1.463 . S
C2171 C2176 1.350 . S
C2171 N2179 1.427 . S
C2172 H2163 0.930 . S
C2172 C2170 1.378 . S
C2172 C2173 1.367 . S
C2173 C2172 1.367 . S
C2173 C2175 1.433 . S
C2174 C2170 1.350 . S
C2174 C2171 1.463 . S
C2174 N2178 1.427 . S
C2175 H2165 0.929 . S
C2175 C2173 1.433 . S
C2175 N2178 1.384 . S
C2176 H2167 0.929 . S
C2176 C2168 1.378 . S
C2176 C2171 1.350 . S
C2177 H2164 0.929 . S
C2177 C2169 1.433 . S
C2177 N2179 1.384 . S
N2178 C2174 1.427 . S
N2178 C2175 1.384 . S
N2179 C2171 1.427 . S
N2179 C2177 1.384 . S
H2180 C2186 0.930 . S
H2181 C2190 0.930 . S
H2182 C2195 0.929 . S
H2183 C2193 0.929 . S
H2184 C2188 0.929 . S
H2185 C2194 0.929 . S
C2186 H2180 0.930 . S
C2186 C2187 1.367 . S
C2186 C2194 1.378 . S
C2187 C2186 1.367 . S
C2187 C2195 1.433 . S
C2188 H2184 0.929 . S
C2188 C2190 1.378 . S
C2188 C2192 1.350 . S
C2189 C2192 1.463 . S
C2189 C2194 1.350 . S
C2189 N2197 1.427 . S
C2190 H2181 0.930 . S
C2190 C2188 1.378 . S
C2190 C2191 1.367 . S
C2191 C2190 1.367 . S
C2191 C2193 1.433 . S
C2192 C2188 1.350 . S
C2192 C2189 1.463 . S
C2192 N2196 1.427 . S
C2193 H2183 0.929 . S
C2193 C2191 1.433 . S
C2193 N2196 1.384 . S
C2194 H2185 0.929 . S
C2194 C2186 1.378 . S
C2194 C2189 1.350 . S
C2195 H2182 0.929 . S
C2195 C2187 1.433 . S
C2195 N2197 1.384 . S
N2196 C2192 1.427 . S
N2196 C2193 1.384 . S
N2197 C2189 1.427 . S
N2197 C2195 1.384 . S
H2198 C2204 0.930 . S
H2199 C2208 0.930 . S
H2200 C2213 0.929 . S
H2201 C2211 0.909 1_455 S
H2202 C2206 0.929 . S
H2203 C2212 0.929 . S
C2204 H2198 0.930 . S
C2204 C2205 1.367 . S
C2204 C2212 1.378 . S
C2205 C2204 1.367 . S
C2205 C2213 1.433 . S
C2206 H2202 0.929 . S
C2206 C2208 1.378 . S
C2206 C2210 1.350 . S
C2207 C2210 1.463 . S
C2207 C2212 1.350 . S
C2207 N2215 1.427 . S
C2208 H2199 0.930 . S
C2208 C2206 1.378 . S
C2208 C2209 1.367 . S
C2209 C2208 1.367 . S
C2209 C2211 1.433 . S
C2210 C2206 1.350 . S
C2210 C2207 1.463 . S
C2210 N2214 1.427 . S
C2211 H2201 0.909 1_655 S
C2211 C2209 1.433 . S
C2211 N2214 1.384 . S
C2212 H2203 0.929 . S
C2212 C2204 1.378 . S
C2212 C2207 1.350 . S
C2213 H2200 0.929 . S
C2213 C2205 1.433 . S
C2213 N2215 1.384 . S
N2214 C2210 1.427 . S
N2214 C2211 1.384 . S
N2215 C2207 1.427 . S
N2215 C2213 1.384 . S
H2216 C2222 0.930 . S
H2217 C2226 0.930 . S
H2218 C2231 0.929 . S
H2219 C2229 0.929 . S
H2220 C2224 0.929 . S
H2221 C2230 0.929 . S
C2222 H2216 0.930 . S
C2222 C2223 1.367 . S
C2222 C2230 1.378 . S
C2223 C2222 1.367 . S
C2223 C2231 1.433 . S
C2224 H2220 0.929 . S
C2224 C2226 1.378 . S
C2224 C2228 1.350 . S
C2225 C2228 1.463 . S
C2225 C2230 1.350 . S
C2225 N2233 1.427 . S
C2226 H2217 0.930 . S
C2226 C2224 1.378 . S
C2226 C2227 1.367 . S
C2227 C2226 1.367 . S
C2227 C2229 1.433 . S
C2228 C2224 1.350 . S
C2228 C2225 1.463 . S
C2228 N2232 1.427 . S
C2229 H2219 0.929 . S
C2229 C2227 1.433 . S
C2229 N2232 1.384 . S
C2230 H2221 0.929 . S
C2230 C2222 1.378 . S
C2230 C2225 1.350 . S
C2231 H2218 0.929 . S
C2231 C2223 1.433 . S
C2231 N2233 1.384 . S
N2232 C2228 1.427 . S
N2232 C2229 1.384 . S
N2233 C2225 1.427 . S
N2233 C2231 1.384 . S
H2234 C2240 0.930 . S
H2235 C2244 0.930 1_455 S
H2236 C2249 0.929 . S
H2237 C2247 0.929 . S
H2238 C2242 0.929 . S
H2239 C2248 0.929 . S
C2240 H2234 0.930 . S
C2240 C2241 1.367 . S
C2240 C2248 1.378 . S
C2241 C2240 1.367 . S
C2241 C2249 1.433 . S
C2242 H2238 0.929 . S
C2242 C2244 1.378 . S
C2242 C2246 1.350 . S
C2243 C2246 1.463 . S
C2243 C2248 1.350 . S
C2243 N2251 1.427 . S
C2244 H2235 0.930 1_655 S
C2244 C2242 1.378 . S
C2244 C2245 1.367 . S
C2245 C2244 1.367 . S
C2245 C2247 1.433 . S
C2246 C2242 1.350 . S
C2246 C2243 1.463 . S
C2246 N2250 1.427 . S
C2247 H2237 0.929 . S
C2247 C2245 1.433 . S
C2247 N2250 1.384 . S
C2248 H2239 0.929 . S
C2248 C2240 1.378 . S
C2248 C2243 1.350 . S
C2249 H2236 0.929 . S
C2249 C2241 1.433 . S
C2249 N2251 1.384 . S
N2250 C2246 1.427 . S
N2250 C2247 1.384 . S
N2251 C2243 1.427 . S
N2251 C2249 1.384 . S
H2252 C2258 0.930 . S
H2253 C2262 0.930 . S
H2254 C2267 0.929 . S
H2255 C2265 0.929 . S
H2256 C2260 0.929 . S
H2257 C2266 0.929 . S
C2258 H2252 0.930 . S
C2258 C2259 1.367 . S
C2258 C2266 1.378 . S
C2259 C2258 1.367 . S
C2259 C2267 1.433 . S
C2260 H2256 0.929 . S
C2260 C2262 1.378 . S
C2260 C2264 1.350 . S
C2261 C2264 1.463 . S
C2261 C2266 1.350 . S
C2261 N2269 1.427 . S
C2262 H2253 0.930 . S
C2262 C2260 1.378 . S
C2262 C2263 1.367 . S
C2263 C2262 1.367 . S
C2263 C2265 1.433 . S
C2264 C2260 1.350 . S
C2264 C2261 1.463 . S
C2264 N2268 1.427 . S
C2265 H2255 0.929 . S
C2265 C2263 1.433 . S
C2265 N2268 1.384 . S
C2266 H2257 0.929 . S
C2266 C2258 1.378 . S
C2266 C2261 1.350 . S
C2267 H2254 0.929 . S
C2267 C2259 1.433 . S
C2267 N2269 1.384 . S
N2268 C2264 1.427 . S
N2268 C2265 1.384 . S
N2269 C2261 1.427 . S
N2269 C2267 1.384 . S
H2270 C2276 0.930 . S
H2271 C2280 0.930 . S
H2272 C2285 0.929 . S
H2273 C2283 0.929 . S
H2274 C2278 0.929 . S
H2275 C2284 0.929 . S
C2276 H2270 0.930 . S
C2276 C2277 1.367 . S
C2276 C2284 1.378 . S
C2277 C2276 1.367 . S
C2277 C2285 1.433 . S
C2278 H2274 0.929 . S
C2278 C2280 1.378 . S
C2278 C2282 1.350 . S
C2279 C2282 1.463 . S
C2279 C2284 1.350 . S
C2279 N2287 1.427 . S
C2280 H2271 0.930 . S
C2280 C2278 1.378 . S
C2280 C2281 1.367 . S
C2281 C2280 1.367 . S
C2281 C2283 1.433 . S
C2282 C2278 1.350 . S
C2282 C2279 1.463 . S
C2282 N2286 1.427 . S
C2283 H2273 0.929 . S
C2283 C2281 1.433 . S
C2283 N2286 1.384 . S
C2284 H2275 0.929 . S
C2284 C2276 1.378 . S
C2284 C2279 1.350 . S
C2285 H2272 0.929 . S
C2285 C2277 1.433 . S
C2285 N2287 1.384 . S
N2286 C2282 1.427 . S
N2286 C2283 1.384 . S
N2287 C2279 1.427 . S
N2287 C2285 1.384 . S
H2288 C2294 0.930 . S
H2289 C2298 0.930 . S
H2290 C2303 0.929 . S
H2291 C2301 0.929 . S
H2292 C2296 0.929 . S
H2293 C2302 0.929 . S
C2294 H2288 0.930 . S
C2294 C2295 1.367 . S
C2294 C2302 1.378 . S
C2295 C2294 1.367 . S
C2295 C2303 1.433 . S
C2296 H2292 0.929 . S
C2296 C2298 1.378 . S
C2296 C2300 1.350 . S
C2297 C2300 1.463 . S
C2297 C2302 1.350 . S
C2297 N2305 1.427 . S
C2298 H2289 0.930 . S
C2298 C2296 1.378 . S
C2298 C2299 1.367 . S
C2299 C2298 1.367 . S
C2299 C2301 1.433 . S
C2300 C2296 1.350 . S
C2300 C2297 1.463 . S
C2300 N2304 1.427 . S
C2301 H2291 0.929 . S
C2301 C2299 1.433 . S
C2301 N2304 1.384 . S
C2302 H2293 0.929 . S
C2302 C2294 1.378 . S
C2302 C2297 1.350 . S
C2303 H2290 0.929 . S
C2303 C2295 1.433 . S
C2303 N2305 1.384 . S
N2304 C2300 1.427 . S
N2304 C2301 1.384 . S
N2305 C2297 1.427 . S
N2305 C2303 1.384 . S
H2306 C2312 0.930 . S
H2307 C2316 0.930 . S
H2308 C2321 0.929 . S
H2309 C2319 0.929 . S
H2310 C2314 0.929 . S
H2311 C2320 0.929 . S
C2312 H2306 0.930 . S
C2312 C2313 1.367 . S
C2312 C2320 1.378 . S
C2313 C2312 1.367 . S
C2313 C2321 1.433 . S
C2314 H2310 0.929 . S
C2314 C2316 1.378 . S
C2314 C2318 1.350 . S
C2315 C2318 1.463 . S
C2315 C2320 1.350 . S
C2315 N2323 1.427 . S
C2316 H2307 0.930 . S
C2316 C2314 1.378 . S
C2316 C2317 1.367 . S
C2317 C2316 1.367 . S
C2317 C2319 1.433 . S
C2318 C2314 1.350 . S
C2318 C2315 1.463 . S
C2318 N2322 1.427 . S
C2319 H2309 0.929 . S
C2319 C2317 1.433 . S
C2319 N2322 1.384 . S
C2320 H2311 0.929 . S
C2320 C2312 1.378 . S
C2320 C2315 1.350 . S
C2321 H2308 0.929 . S
C2321 C2313 1.433 . S
C2321 N2323 1.384 . S
N2322 C2318 1.427 . S
N2322 C2319 1.384 . S
N2323 C2315 1.427 . S
N2323 C2321 1.384 . S
H2324 C2330 0.930 . S
H2325 C2334 0.930 . S
H2326 C2339 0.929 . S
H2327 C2337 0.929 . S
H2328 C2332 0.929 . S
H2329 C2338 0.929 . S
C2330 H2324 0.930 . S
C2330 C2331 1.367 . S
C2330 C2338 1.378 . S
C2331 C2330 1.367 . S
C2331 C2339 1.433 . S
C2332 H2328 0.929 . S
C2332 C2334 1.378 . S
C2332 C2336 1.350 . S
C2333 C2336 1.463 . S
C2333 C2338 1.350 . S
C2333 N2341 1.427 . S
C2334 H2325 0.930 . S
C2334 C2332 1.378 . S
C2334 C2335 1.367 . S
C2335 C2334 1.367 . S
C2335 C2337 1.433 . S
C2336 C2332 1.350 . S
C2336 C2333 1.463 . S
C2336 N2340 1.427 . S
C2337 H2327 0.929 . S
C2337 C2335 1.433 . S
C2337 N2340 1.384 . S
C2338 H2329 0.929 . S
C2338 C2330 1.378 . S
C2338 C2333 1.350 . S
C2339 H2326 0.929 . S
C2339 C2331 1.433 . S
C2339 N2341 1.384 . S
N2340 C2336 1.427 . S
N2340 C2337 1.384 . S
N2341 C2333 1.427 . S
N2341 C2339 1.384 . S
H2342 C2348 0.930 . S
H2343 C2352 0.930 . S
H2344 C2357 0.929 . S
H2345 C2355 0.929 . S
H2346 C2350 0.929 . S
H2347 C2356 0.929 . S
C2348 H2342 0.930 . S
C2348 C2349 1.367 . S
C2348 C2356 1.378 . S
C2349 C2348 1.367 . S
C2349 C2357 1.433 . S
C2350 H2346 0.929 . S
C2350 C2352 1.378 . S
C2350 C2354 1.350 . S
C2351 C2354 1.463 . S
C2351 C2356 1.350 . S
C2351 N2359 1.427 . S
C2352 H2343 0.930 . S
C2352 C2350 1.378 . S
C2352 C2353 1.367 . S
C2353 C2352 1.367 . S
C2353 C2355 1.433 . S
C2354 C2350 1.350 . S
C2354 C2351 1.463 . S
C2354 N2358 1.427 . S
C2355 H2345 0.929 . S
C2355 C2353 1.433 . S
C2355 N2358 1.384 . S
C2356 H2347 0.929 . S
C2356 C2348 1.378 . S
C2356 C2351 1.350 . S
C2357 H2344 0.929 . S
C2357 C2349 1.433 . S
C2357 N2359 1.384 . S
N2358 C2354 1.427 . S
N2358 C2355 1.384 . S
N2359 C2351 1.427 . S
N2359 C2357 1.384 . S
H2360 C2366 0.930 . S
H2361 C2370 0.930 . S
H2362 C2375 0.929 . S
H2363 C2373 0.929 . S
H2364 C2368 0.929 . S
H2365 C2374 0.929 . S
C2366 H2360 0.930 . S
C2366 C2367 1.367 . S
C2366 C2374 1.378 . S
C2367 C2366 1.367 . S
C2367 C2375 1.433 . S
C2368 H2364 0.929 . S
C2368 C2370 1.378 . S
C2368 C2372 1.350 . S
C2369 C2372 1.463 . S
C2369 C2374 1.350 . S
C2369 N2377 1.427 . S
C2370 H2361 0.930 . S
C2370 C2368 1.378 . S
C2370 C2371 1.367 . S
C2371 C2370 1.367 . S
C2371 C2373 1.433 . S
C2372 C2368 1.350 . S
C2372 C2369 1.463 . S
C2372 N2376 1.427 . S
C2373 H2363 0.929 . S
C2373 C2371 1.433 . S
C2373 N2376 1.384 . S
C2374 H2365 0.929 . S
C2374 C2366 1.378 . S
C2374 C2369 1.350 . S
C2375 H2362 0.929 . S
C2375 C2367 1.433 . S
C2375 N2377 1.384 . S
N2376 C2372 1.427 . S
N2376 C2373 1.384 . S
N2377 C2369 1.427 . S
N2377 C2375 1.384 . S
H2378 C2384 0.930 . S
H2379 C2388 0.911 1_655 S
H2380 C2393 0.929 . S
H2381 C2391 0.929 . S
H2382 C2386 0.929 . S
H2383 C2392 0.929 . S
C2384 H2378 0.930 . S
C2384 C2385 1.367 . S
C2384 C2392 1.378 . S
C2385 C2384 1.367 . S
C2385 C2393 1.433 . S
C2386 H2382 0.929 . S
C2386 C2388 1.397 . S
C2386 C2390 1.350 . S
C2387 C2390 1.463 . S
C2387 C2392 1.350 . S
C2387 N2395 1.427 . S
C2388 H2379 0.911 1_455 S
C2388 C2386 1.397 . S
C2388 C2389 1.366 . S
C2389 C2388 1.366 . S
C2389 C2391 1.479 . S
C2390 C2386 1.350 . S
C2390 C2387 1.463 . S
C2390 N2394 1.427 . S
C2391 H2381 0.929 . S
C2391 C2389 1.479 . S
C2391 N2394 1.384 . S
C2392 H2383 0.929 . S
C2392 C2384 1.378 . S
C2392 C2387 1.350 . S
C2393 H2380 0.929 . S
C2393 C2385 1.433 . S
C2393 N2395 1.384 . S
N2394 C2390 1.427 . S
N2394 C2391 1.384 . S
N2395 C2387 1.427 . S
N2395 C2393 1.384 . S
H2396 C2402 0.930 . S
H2397 C2406 0.930 . S
H2398 C2411 0.929 . S
H2399 C2409 0.929 . S
H2400 C2404 0.929 . S
H2401 C2410 0.929 . S
C2402 H2396 0.930 . S
C2402 C2403 1.367 . S
C2402 C2410 1.378 . S
C2403 C2402 1.367 . S
C2403 C2411 1.433 . S
C2404 H2400 0.929 . S
C2404 C2406 1.378 . S
C2404 C2408 1.350 . S
C2405 C2408 1.463 . S
C2405 C2410 1.350 . S
C2405 N2413 1.427 . S
C2406 H2397 0.930 . S
C2406 C2404 1.378 . S
C2406 C2407 1.367 . S
C2407 C2406 1.367 . S
C2407 C2409 1.433 . S
C2408 C2404 1.350 . S
C2408 C2405 1.463 . S
C2408 N2412 1.427 . S
C2409 H2399 0.929 . S
C2409 C2407 1.433 . S
C2409 N2412 1.384 . S
C2410 H2401 0.929 . S
C2410 C2402 1.378 . S
C2410 C2405 1.350 . S
C2411 H2398 0.929 . S
C2411 C2403 1.433 . S
C2411 N2413 1.384 . S
N2412 C2408 1.427 . S
N2412 C2409 1.384 . S
N2413 C2405 1.427 . S
N2413 C2411 1.384 . S
H2414 C2420 0.930 . S
H2415 C2424 0.930 . S
H2416 C2429 0.929 . S
H2417 C2427 0.929 . S
H2418 C2422 0.929 . S
H2419 C2428 0.929 . S
C2420 H2414 0.930 . S
C2420 C2421 1.367 . S
C2420 C2428 1.378 . S
C2421 C2420 1.367 . S
C2421 C2429 1.433 . S
C2422 H2418 0.929 . S
C2422 C2424 1.378 . S
C2422 C2426 1.350 . S
C2423 C2426 1.463 . S
C2423 C2428 1.350 . S
C2423 N2431 1.427 . S
C2424 H2415 0.930 . S
C2424 C2422 1.378 . S
C2424 C2425 1.367 . S
C2425 C2424 1.367 . S
C2425 C2427 1.433 . S
C2426 C2422 1.350 . S
C2426 C2423 1.463 . S
C2426 N2430 1.427 . S
C2427 H2417 0.929 . S
C2427 C2425 1.433 . S
C2427 N2430 1.384 . S
C2428 H2419 0.929 . S
C2428 C2420 1.378 . S
C2428 C2423 1.350 . S
C2429 H2416 0.929 . S
C2429 C2421 1.433 . S
C2429 N2431 1.384 . S
N2430 C2426 1.427 . S
N2430 C2427 1.384 . S
N2431 C2423 1.427 . S
N2431 C2429 1.384 . S
H2432 C2438 0.930 . S
H2433 C2442 0.930 . S
H2434 C2447 0.929 . S
H2435 C2445 0.929 . S
H2436 C2440 0.929 . S
H2437 C2446 0.929 . S
C2438 H2432 0.930 . S
C2438 C2439 1.367 . S
C2438 C2446 1.378 . S
C2439 C2438 1.367 . S
C2439 C2447 1.433 . S
C2440 H2436 0.929 . S
C2440 C2442 1.378 . S
C2440 C2444 1.350 . S
C2441 C2444 1.463 1_545 S
C2441 C2446 1.350 . S
C2441 N2449 1.427 . S
C2442 H2433 0.930 . S
C2442 C2440 1.378 . S
C2442 C2443 1.367 . S
C2443 C2442 1.367 . S
C2443 C2445 1.433 . S
C2444 C2440 1.350 . S
C2444 C2441 1.463 1_565 S
C2444 N2448 1.427 . S
C2445 H2435 0.929 . S
C2445 C2443 1.433 . S
C2445 N2448 1.384 . S
C2446 H2437 0.929 . S
C2446 C2438 1.378 . S
C2446 C2441 1.350 . S
C2447 H2434 0.929 . S
C2447 C2439 1.433 . S
C2447 N2449 1.384 . S
N2448 C2444 1.427 . S
N2448 C2445 1.384 . S
N2449 C2441 1.427 . S
N2449 C2447 1.384 . S
H2450 C2456 0.930 . S
H2451 C2460 0.930 . S
H2452 C2465 0.929 . S
H2453 C2463 0.929 . S
H2454 C2458 0.929 . S
H2455 C2464 0.929 . S
C2456 H2450 0.930 . S
C2456 C2457 1.367 . S
C2456 C2464 1.378 . S
C2457 C2456 1.367 . S
C2457 C2465 1.433 . S
C2458 H2454 0.929 . S
C2458 C2460 1.378 . S
C2458 C2462 1.350 . S
C2459 C2462 1.463 . S
C2459 C2464 1.350 . S
C2459 N2467 1.427 . S
C2460 H2451 0.930 . S
C2460 C2458 1.378 . S
C2460 C2461 1.367 . S
C2461 C2460 1.367 . S
C2461 C2463 1.433 . S
C2462 C2458 1.350 . S
C2462 C2459 1.463 . S
C2462 N2466 1.427 . S
C2463 H2453 0.929 . S
C2463 C2461 1.433 . S
C2463 N2466 1.384 . S
C2464 H2455 0.929 . S
C2464 C2456 1.378 . S
C2464 C2459 1.350 . S
C2465 H2452 0.929 . S
C2465 C2457 1.433 . S
C2465 N2467 1.384 . S
N2466 C2462 1.427 . S
N2466 C2463 1.384 . S
N2467 C2459 1.427 . S
N2467 C2465 1.384 . S
H2468 C2474 0.930 . S
H2469 C2478 0.930 . S
H2470 C2483 0.929 . S
H2471 C2481 0.929 . S
H2472 C2476 0.929 . S
H2473 C2482 0.929 . S
C2474 H2468 0.930 . S
C2474 C2475 1.367 . S
C2474 C2482 1.378 . S
C2475 C2474 1.367 . S
C2475 C2483 1.433 . S
C2476 H2472 0.929 . S
C2476 C2478 1.378 . S
C2476 C2480 1.350 . S
C2477 C2480 1.463 1_565 S
C2477 C2482 1.350 . S
C2477 N2485 1.427 . S
C2478 H2469 0.930 . S
C2478 C2476 1.378 . S
C2478 C2479 1.367 . S
C2479 C2478 1.367 . S
C2479 C2481 1.433 . S
C2480 C2476 1.350 . S
C2480 C2477 1.463 1_545 S
C2480 N2484 1.427 . S
C2481 H2471 0.929 . S
C2481 C2479 1.433 . S
C2481 N2484 1.384 . S
C2482 H2473 0.929 . S
C2482 C2474 1.378 . S
C2482 C2477 1.350 . S
C2483 H2470 0.929 . S
C2483 C2475 1.433 . S
C2483 N2485 1.384 . S
N2484 C2480 1.427 . S
N2484 C2481 1.384 . S
N2485 C2477 1.427 . S
N2485 C2483 1.384 . S
H2486 C2492 0.930 . S
H2487 C2496 0.930 . S
H2488 C2501 0.929 . S
H2489 C2499 0.929 . S
H2490 C2494 0.929 . S
H2491 C2500 0.929 . S
C2492 H2486 0.930 . S
C2492 C2493 1.367 1_554 S
C2492 C2500 1.378 . S
C2493 C2492 1.367 1_556 S
C2493 C2501 1.433 . S
C2494 H2490 0.929 . S
C2494 C2496 1.378 . S
C2494 C2498 1.345 1_556 S
C2495 C2498 1.462 1_556 S
C2495 C2500 1.345 1_556 S
C2495 N2503 1.433 . S
C2496 H2487 0.930 . S
C2496 C2494 1.378 . S
C2496 C2497 1.367 1_556 S
C2497 C2496 1.367 1_554 S
C2497 C2499 1.433 . S
C2498 C2494 1.345 1_554 S
C2498 C2495 1.462 1_554 S
C2498 N2502 1.433 . S
C2499 H2489 0.929 . S
C2499 C2497 1.433 . S
C2499 N2502 1.384 . S
C2500 H2491 0.929 . S
C2500 C2492 1.378 . S
C2500 C2495 1.345 1_554 S
C2501 H2488 0.929 . S
C2501 C2493 1.433 . S
C2501 N2503 1.384 . S
N2502 C2498 1.433 . S
N2502 C2499 1.384 . S
N2503 C2495 1.433 . S
N2503 C2501 1.384 . S
H2504 C2510 0.930 . S
H2505 C2514 0.930 . S
H2506 C2519 0.929 . S
H2507 C2517 0.929 . S
H2508 C2512 0.929 . S
H2509 C2518 0.929 . S
C2510 H2504 0.930 . S
C2510 C2511 1.367 . S
C2510 C2518 1.378 . S
C2511 C2510 1.367 . S
C2511 C2519 1.433 . S
C2512 H2508 0.929 . S
C2512 C2514 1.378 . S
C2512 C2516 1.350 . S
C2513 C2516 1.463 1_545 S
C2513 C2518 1.350 . S
C2513 N2521 1.427 . S
C2514 H2505 0.930 . S
C2514 C2512 1.378 . S
C2514 C2515 1.367 . S
C2515 C2514 1.367 . S
C2515 C2517 1.433 . S
C2516 C2512 1.350 . S
C2516 C2513 1.463 1_565 S
C2516 N2520 1.427 . S
C2517 H2507 0.929 . S
C2517 C2515 1.433 . S
C2517 N2520 1.384 . S
C2518 H2509 0.929 . S
C2518 C2510 1.378 . S
C2518 C2513 1.350 . S
C2519 H2506 0.929 . S
C2519 C2511 1.433 . S
C2519 N2521 1.384 . S
N2520 C2516 1.427 . S
N2520 C2517 1.384 . S
N2521 C2513 1.427 . S
N2521 C2519 1.384 . S
H2522 C2528 0.930 . S
H2523 C2532 0.930 . S
H2524 C2537 0.929 . S
H2525 C2535 0.929 . S
H2526 C2530 0.929 . S
H2527 C2536 0.929 . S
C2528 H2522 0.930 . S
C2528 C2529 1.367 . S
C2528 C2536 1.378 . S
C2529 C2528 1.367 . S
C2529 C2537 1.433 . S
C2530 H2526 0.929 . S
C2530 C2532 1.378 . S
C2530 C2534 1.350 . S
C2531 C2534 1.463 . S
C2531 C2536 1.350 . S
C2531 N2539 1.427 . S
C2532 H2523 0.930 . S
C2532 C2530 1.378 . S
C2532 C2533 1.367 . S
C2533 C2532 1.367 . S
C2533 C2535 1.433 . S
C2534 C2530 1.350 . S
C2534 C2531 1.463 . S
C2534 N2538 1.427 . S
C2535 H2525 0.929 . S
C2535 C2533 1.433 . S
C2535 N2538 1.384 . S
C2536 H2527 0.929 . S
C2536 C2528 1.378 . S
C2536 C2531 1.350 . S
C2537 H2524 0.929 . S
C2537 C2529 1.433 . S
C2537 N2539 1.384 . S
N2538 C2534 1.427 . S
N2538 C2535 1.384 . S
N2539 C2531 1.427 . S
N2539 C2537 1.384 . S
H2540 C2546 0.930 . S
H2541 C2550 0.930 . S
H2542 C2555 0.929 . S
H2543 C2553 0.929 . S
H2544 C2548 0.929 . S
H2545 C2554 0.929 . S
C2546 H2540 0.930 . S
C2546 C2547 1.367 . S
C2546 C2554 1.378 . S
C2547 C2546 1.367 . S
C2547 C2555 1.433 . S
C2548 H2544 0.929 . S
C2548 C2550 1.378 . S
C2548 C2552 1.350 . S
C2549 C2552 1.463 1_545 S
C2549 C2554 1.350 . S
C2549 N2557 1.427 . S
C2550 H2541 0.930 . S
C2550 C2548 1.378 . S
C2550 C2551 1.367 . S
C2551 C2550 1.367 . S
C2551 C2553 1.433 . S
C2552 C2548 1.350 . S
C2552 C2549 1.463 1_565 S
C2552 N2556 1.427 . S
C2553 H2543 0.929 . S
C2553 C2551 1.433 . S
C2553 N2556 1.384 . S
C2554 H2545 0.929 . S
C2554 C2546 1.378 . S
C2554 C2549 1.350 . S
C2555 H2542 0.929 . S
C2555 C2547 1.433 . S
C2555 N2557 1.384 . S
N2556 C2552 1.427 . S
N2556 C2553 1.384 . S
N2557 C2549 1.427 . S
N2557 C2555 1.384 . S
H2558 C2564 0.930 . S
H2559 C2568 0.930 . S
H2560 C2573 0.929 . S
H2561 C2571 0.929 . S
H2562 C2566 0.929 . S
H2563 C2572 0.929 . S
C2564 H2558 0.930 . S
C2564 C2565 1.367 . S
C2564 C2572 1.378 . S
C2565 C2564 1.367 . S
C2565 C2573 1.433 1_556 S
C2566 H2562 0.929 . S
C2566 C2568 1.378 . S
C2566 C2570 1.350 . S
C2567 C2570 1.463 1_556 S
C2567 C2572 1.350 . S
C2567 N2575 1.427 1_556 S
C2568 H2559 0.930 . S
C2568 C2566 1.378 . S
C2568 C2569 1.367 . S
C2569 C2568 1.367 . S
C2569 C2571 1.433 1_554 S
C2570 C2566 1.350 . S
C2570 C2567 1.463 1_554 S
C2570 N2574 1.427 1_554 S
C2571 H2561 0.929 . S
C2571 C2569 1.433 1_556 S
C2571 N2574 1.384 . S
C2572 H2563 0.929 . S
C2572 C2564 1.378 . S
C2572 C2567 1.350 . S
C2573 H2560 0.929 . S
C2573 C2565 1.433 1_554 S
C2573 N2575 1.384 . S
N2574 C2570 1.427 1_556 S
N2574 C2571 1.384 . S
N2575 C2567 1.427 1_554 S
N2575 C2573 1.384 . S
H2576 C2582 0.930 . S
H2577 C2586 0.930 . S
H2578 C2591 0.929 . S
H2579 C2589 0.929 . S
H2580 C2584 0.929 . S
H2581 C2590 0.929 . S
C2582 H2576 0.930 . S
C2582 C2583 1.367 . S
C2582 C2590 1.378 . S
C2583 C2582 1.367 . S
C2583 C2591 1.433 . S
C2584 H2580 0.929 . S
C2584 C2586 1.378 . S
C2584 C2588 1.350 . S
C2585 C2588 1.463 . S
C2585 C2590 1.350 . S
C2585 N2593 1.427 . S
C2586 H2577 0.930 . S
C2586 C2584 1.378 . S
C2586 C2587 1.367 . S
C2587 C2586 1.367 . S
C2587 C2589 1.433 . S
C2588 C2584 1.350 . S
C2588 C2585 1.463 . S
C2588 N2592 1.427 . S
C2589 H2579 0.929 . S
C2589 C2587 1.433 . S
C2589 N2592 1.384 . S
C2590 H2581 0.929 . S
C2590 C2582 1.378 . S
C2590 C2585 1.350 . S
C2591 H2578 0.929 . S
C2591 C2583 1.433 . S
C2591 N2593 1.384 . S
N2592 C2588 1.427 . S
N2592 C2589 1.384 . S
N2593 C2585 1.427 . S
N2593 C2591 1.384 . S
H2594 C2600 0.930 . S
H2595 C2604 0.930 . S
H2596 C2609 0.929 . S
H2597 C2607 0.929 . S
H2598 C2602 0.929 . S
H2599 C2608 0.929 . S
C2600 H2594 0.930 . S
C2600 C2601 1.367 . S
C2600 C2608 1.378 . S
C2601 C2600 1.367 . S
C2601 C2609 1.433 1_556 S
C2602 H2598 0.929 . S
C2602 C2604 1.378 . S
C2602 C2606 1.368 . S
C2603 C2606 1.459 1_556 S
C2603 C2608 1.368 . S
C2603 N2611 1.413 1_556 S
C2604 H2595 0.930 . S
C2604 C2602 1.378 . S
C2604 C2605 1.367 . S
C2605 C2604 1.367 . S
C2605 C2607 1.433 1_554 S
C2606 C2602 1.368 . S
C2606 C2603 1.459 1_554 S
C2606 N2610 1.413 1_554 S
C2607 H2597 0.929 . S
C2607 C2605 1.433 1_556 S
C2607 N2610 1.384 . S
C2608 H2599 0.929 . S
C2608 C2600 1.378 . S
C2608 C2603 1.368 . S
C2609 H2596 0.929 . S
C2609 C2601 1.433 1_554 S
C2609 N2611 1.384 . S
N2610 C2606 1.413 1_556 S
N2610 C2607 1.384 . S
N2611 C2603 1.413 1_554 S
N2611 C2609 1.384 . S
H2612 C2618 0.930 . S
H2613 C2622 0.930 . S
H2614 C2627 0.929 . S
H2615 C2625 0.929 . S
H2616 C2620 0.929 . S
H2617 C2626 0.929 . S
C2618 H2612 0.930 . S
C2618 C2619 1.367 . S
C2618 C2626 1.378 . S
C2619 C2618 1.367 . S
C2619 C2627 1.433 . S
C2620 H2616 0.929 . S
C2620 C2622 1.378 . S
C2620 C2624 1.350 . S
C2621 C2624 1.463 . S
C2621 C2626 1.350 . S
C2621 N2629 1.427 . S
C2622 H2613 0.930 . S
C2622 C2620 1.378 . S
C2622 C2623 1.367 . S
C2623 C2622 1.367 . S
C2623 C2625 1.433 . S
C2624 C2620 1.350 . S
C2624 C2621 1.463 . S
C2624 N2628 1.427 . S
C2625 H2615 0.929 . S
C2625 C2623 1.433 . S
C2625 N2628 1.384 . S
C2626 H2617 0.929 . S
C2626 C2618 1.378 . S
C2626 C2621 1.350 . S
C2627 H2614 0.929 . S
C2627 C2619 1.433 . S
C2627 N2629 1.384 . S
N2628 C2624 1.427 . S
N2628 C2625 1.384 . S
N2629 C2621 1.427 . S
N2629 C2627 1.384 . S
H2630 C2636 0.930 . S
H2631 C2640 0.930 . S
H2632 C2645 0.929 . S
H2633 C2643 0.929 . S
H2634 C2638 0.929 . S
H2635 C2644 0.929 . S
C2636 H2630 0.930 . S
C2636 C2637 1.367 . S
C2636 C2644 1.378 . S
C2637 C2636 1.367 . S
C2637 C2645 1.433 . S
C2638 H2634 0.929 . S
C2638 C2640 1.378 . S
C2638 C2642 1.350 . S
C2639 C2642 1.463 . S
C2639 C2644 1.350 . S
C2639 N2647 1.427 . S
C2640 H2631 0.930 . S
C2640 C2638 1.378 . S
C2640 C2641 1.367 . S
C2641 C2640 1.367 . S
C2641 C2643 1.433 . S
C2642 C2638 1.350 . S
C2642 C2639 1.463 . S
C2642 N2646 1.427 . S
C2643 H2633 0.929 . S
C2643 C2641 1.433 . S
C2643 N2646 1.384 . S
C2644 H2635 0.929 . S
C2644 C2636 1.378 . S
C2644 C2639 1.350 . S
C2645 H2632 0.929 . S
C2645 C2637 1.433 . S
C2645 N2647 1.384 . S
N2646 C2642 1.427 . S
N2646 C2643 1.384 . S
N2647 C2639 1.427 . S
N2647 C2645 1.384 . S
H2648 C2654 0.930 . S
H2649 C2658 0.930 . S
H2650 C2663 0.929 . S
H2651 C2661 0.929 . S
H2652 C2656 0.929 . S
H2653 C2662 0.929 . S
C2654 H2648 0.930 . S
C2654 C2655 1.367 . S
C2654 C2662 1.378 . S
C2655 C2654 1.367 . S
C2655 C2663 1.433 . S
C2656 H2652 0.929 . S
C2656 C2658 1.378 . S
C2656 C2660 1.350 . S
C2657 C2660 1.463 . S
C2657 C2662 1.350 . S
C2657 N2665 1.427 . S
C2658 H2649 0.930 . S
C2658 C2656 1.378 . S
C2658 C2659 1.367 . S
C2659 C2658 1.367 . S
C2659 C2661 1.433 . S
C2660 C2656 1.350 . S
C2660 C2657 1.463 . S
C2660 N2664 1.427 . S
C2661 H2651 0.929 . S
C2661 C2659 1.433 . S
C2661 N2664 1.384 . S
C2662 H2653 0.929 . S
C2662 C2654 1.378 . S
C2662 C2657 1.350 . S
C2663 H2650 0.929 . S
C2663 C2655 1.433 . S
C2663 N2665 1.384 . S
N2664 C2660 1.427 . S
N2664 C2661 1.384 . S
N2665 C2657 1.427 . S
N2665 C2663 1.384 . S
H2666 C2672 0.930 . S
H2667 C2676 0.930 . S
H2668 C2681 0.929 . S
H2669 C2679 0.929 . S
H2670 C2674 0.929 . S
H2671 C2680 0.929 . S
C2672 H2666 0.930 . S
C2672 C2673 1.367 . S
C2672 C2680 1.378 . S
C2673 C2672 1.367 . S
C2673 C2681 1.433 1_556 S
C2674 H2670 0.929 . S
C2674 C2676 1.378 . S
C2674 C2678 1.350 . S
C2675 C2678 1.463 1_556 S
C2675 C2680 1.350 . S
C2675 N2683 1.427 1_556 S
C2676 H2667 0.930 . S
C2676 C2674 1.378 . S
C2676 C2677 1.367 . S
C2677 C2676 1.367 . S
C2677 C2679 1.433 1_554 S
C2678 C2674 1.350 . S
C2678 C2675 1.463 1_554 S
C2678 N2682 1.427 1_554 S
C2679 H2669 0.929 . S
C2679 C2677 1.433 1_556 S
C2679 N2682 1.384 . S
C2680 H2671 0.929 . S
C2680 C2672 1.378 . S
C2680 C2675 1.350 . S
C2681 H2668 0.929 . S
C2681 C2673 1.433 1_554 S
C2681 N2683 1.384 . S
N2682 C2678 1.427 1_556 S
N2682 C2679 1.384 . S
N2683 C2675 1.427 1_554 S
N2683 C2681 1.384 . S
H2684 C2690 0.930 . S
H2685 C2694 0.930 . S
H2686 C2699 0.929 . S
H2687 C2697 0.929 . S
H2688 C2692 0.929 . S
H2689 C2698 0.929 . S
C2690 H2684 0.930 . S
C2690 C2691 1.367 . S
C2690 C2698 1.378 . S
C2691 C2690 1.367 . S
C2691 C2699 1.433 . S
C2692 H2688 0.929 . S
C2692 C2694 1.378 . S
C2692 C2696 1.350 . S
C2693 C2696 1.463 . S
C2693 C2698 1.350 . S
C2693 N2701 1.427 . S
C2694 H2685 0.930 . S
C2694 C2692 1.378 . S
C2694 C2695 1.367 . S
C2695 C2694 1.367 . S
C2695 C2697 1.433 . S
C2696 C2692 1.350 . S
C2696 C2693 1.463 . S
C2696 N2700 1.427 . S
C2697 H2687 0.929 . S
C2697 C2695 1.433 . S
C2697 N2700 1.384 . S
C2698 H2689 0.929 . S
C2698 C2690 1.378 . S
C2698 C2693 1.350 . S
C2699 H2686 0.929 . S
C2699 C2691 1.433 . S
C2699 N2701 1.384 . S
N2700 C2696 1.427 . S
N2700 C2697 1.384 . S
N2701 C2693 1.427 . S
N2701 C2699 1.384 . S
H2702 C2708 0.930 . S
H2703 C2712 0.930 . S
H2704 C2717 0.929 . S
H2705 C2715 0.929 . S
H2706 C2710 0.929 . S
H2707 C2716 0.929 . S
C2708 H2702 0.930 . S
C2708 C2709 1.367 . S
C2708 C2716 1.378 . S
C2709 C2708 1.367 . S
C2709 C2717 1.433 . S
C2710 H2706 0.929 . S
C2710 C2712 1.378 . S
C2710 C2714 1.350 . S
C2711 C2714 1.463 . S
C2711 C2716 1.350 . S
C2711 N2719 1.427 . S
C2712 H2703 0.930 . S
C2712 C2710 1.378 . S
C2712 C2713 1.367 . S
C2713 C2712 1.367 . S
C2713 C2715 1.433 . S
C2714 C2710 1.350 . S
C2714 C2711 1.463 . S
C2714 N2718 1.427 . S
C2715 H2705 0.929 . S
C2715 C2713 1.433 . S
C2715 N2718 1.384 . S
C2716 H2707 0.929 . S
C2716 C2708 1.378 . S
C2716 C2711 1.350 . S
C2717 H2704 0.929 . S
C2717 C2709 1.433 . S
C2717 N2719 1.384 . S
N2718 C2714 1.427 . S
N2718 C2715 1.384 . S
N2719 C2711 1.427 . S
N2719 C2717 1.384 . S
H2720 C2726 0.930 . S
H2721 C2730 0.930 . S
H2722 C2735 0.929 . S
H2723 C2733 0.929 . S
H2724 C2728 0.929 . S
H2725 C2734 0.929 . S
C2726 H2720 0.930 . S
C2726 C2727 1.367 . S
C2726 C2734 1.378 . S
C2727 C2726 1.367 . S
C2727 C2735 1.433 . S
C2728 H2724 0.929 . S
C2728 C2730 1.378 . S
C2728 C2732 1.350 . S
C2729 C2732 1.463 . S
C2729 C2734 1.350 . S
C2729 N2737 1.427 . S
C2730 H2721 0.930 . S
C2730 C2728 1.378 . S
C2730 C2731 1.367 . S
C2731 C2730 1.367 . S
C2731 C2733 1.433 . S
C2732 C2728 1.350 . S
C2732 C2729 1.463 . S
C2732 N2736 1.427 . S
C2733 H2723 0.929 . S
C2733 C2731 1.433 . S
C2733 N2736 1.384 . S
C2734 H2725 0.929 . S
C2734 C2726 1.378 . S
C2734 C2729 1.350 . S
C2735 H2722 0.929 . S
C2735 C2727 1.433 . S
C2735 N2737 1.384 . S
N2736 C2732 1.427 . S
N2736 C2733 1.384 . S
N2737 C2729 1.427 . S
N2737 C2735 1.384 . S
H2738 C2744 0.930 . S
H2739 C2748 0.930 . S
H2740 C2753 0.929 . S
H2741 C2751 0.929 . S
H2742 C2746 0.929 . S
H2743 C2752 0.929 . S
C2744 H2738 0.930 . S
C2744 C2745 1.367 . S
C2744 C2752 1.378 . S
C2745 C2744 1.367 . S
C2745 C2753 1.433 . S
C2746 H2742 0.929 . S
C2746 C2748 1.378 . S
C2746 C2750 1.350 . S
C2747 C2750 1.463 . S
C2747 C2752 1.350 . S
C2747 N2755 1.427 . S
C2748 H2739 0.930 . S
C2748 C2746 1.378 . S
C2748 C2749 1.367 . S
C2749 C2748 1.367 . S
C2749 C2751 1.433 . S
C2750 C2746 1.350 . S
C2750 C2747 1.463 . S
C2750 N2754 1.427 . S
C2751 H2741 0.929 . S
C2751 C2749 1.433 . S
C2751 N2754 1.384 . S
C2752 H2743 0.929 . S
C2752 C2744 1.378 . S
C2752 C2747 1.350 . S
C2753 H2740 0.929 . S
C2753 C2745 1.433 . S
C2753 N2755 1.384 . S
N2754 C2750 1.427 . S
N2754 C2751 1.384 . S
N2755 C2747 1.427 . S
N2755 C2753 1.384 . S
H2756 C2762 0.930 . S
H2757 C2766 0.930 . S
H2758 C2771 0.929 . S
H2759 C2769 0.929 . S
H2760 C2764 0.929 . S
H2761 C2770 0.929 . S
C2762 H2756 0.930 . S
C2762 C2763 1.367 . S
C2762 C2770 1.378 . S
C2763 C2762 1.367 . S
C2763 C2771 1.433 . S
C2764 H2760 0.929 . S
C2764 C2766 1.378 . S
C2764 C2768 1.350 . S
C2765 C2768 1.463 . S
C2765 C2770 1.350 . S
C2765 N2773 1.427 . S
C2766 H2757 0.930 . S
C2766 C2764 1.378 . S
C2766 C2767 1.367 . S
C2767 C2766 1.367 . S
C2767 C2769 1.433 . S
C2768 C2764 1.350 . S
C2768 C2765 1.463 . S
C2768 N2772 1.427 . S
C2769 H2759 0.929 . S
C2769 C2767 1.433 . S
C2769 N2772 1.384 . S
C2770 H2761 0.929 . S
C2770 C2762 1.378 . S
C2770 C2765 1.350 . S
C2771 H2758 0.929 . S
C2771 C2763 1.433 . S
C2771 N2773 1.384 . S
N2772 C2768 1.427 . S
N2772 C2769 1.384 . S
N2773 C2765 1.427 . S
N2773 C2771 1.384 . S
H2774 C2780 0.930 . S
H2775 C2784 0.930 . S
H2776 C2789 0.929 . S
H2777 C2787 0.929 . S
H2778 C2782 0.929 . S
H2779 C2788 0.929 . S
C2780 H2774 0.930 . S
C2780 C2781 1.367 . S
C2780 C2788 1.378 . S
C2781 C2780 1.367 . S
C2781 C2789 1.433 . S
C2782 H2778 0.929 . S
C2782 C2784 1.378 . S
C2782 C2786 1.350 . S
C2783 C2786 1.463 . S
C2783 C2788 1.350 . S
C2783 N2791 1.427 . S
C2784 H2775 0.930 . S
C2784 C2782 1.378 . S
C2784 C2785 1.367 . S
C2785 C2784 1.367 . S
C2785 C2787 1.433 . S
C2786 C2782 1.350 . S
C2786 C2783 1.463 . S
C2786 N2790 1.427 . S
C2787 H2777 0.929 . S
C2787 C2785 1.433 . S
C2787 N2790 1.384 . S
C2788 H2779 0.929 . S
C2788 C2780 1.378 . S
C2788 C2783 1.350 . S
C2789 H2776 0.929 . S
C2789 C2781 1.433 . S
C2789 N2791 1.384 . S
N2790 C2786 1.427 . S
N2790 C2787 1.384 . S
N2791 C2783 1.427 . S
N2791 C2789 1.384 . S
H2792 C2798 0.930 . S
H2793 C2802 0.930 . S
H2794 C2807 0.929 . S
H2795 C2805 0.929 . S
H2796 C2800 0.929 . S
H2797 C2806 0.929 . S
C2798 H2792 0.930 . S
C2798 C2799 1.367 . S
C2798 C2806 1.378 . S
C2799 C2798 1.367 . S
C2799 C2807 1.433 . S
C2800 H2796 0.929 . S
C2800 C2802 1.378 . S
C2800 C2804 1.350 . S
C2801 C2804 1.463 . S
C2801 C2806 1.350 . S
C2801 N2809 1.427 . S
C2802 H2793 0.930 . S
C2802 C2800 1.378 . S
C2802 C2803 1.367 . S
C2803 C2802 1.367 . S
C2803 C2805 1.433 . S
C2804 C2800 1.350 . S
C2804 C2801 1.463 . S
C2804 N2808 1.427 . S
C2805 H2795 0.929 . S
C2805 C2803 1.433 . S
C2805 N2808 1.384 . S
C2806 H2797 0.929 . S
C2806 C2798 1.378 . S
C2806 C2801 1.350 . S
C2807 H2794 0.929 . S
C2807 C2799 1.433 . S
C2807 N2809 1.384 . S
N2808 C2804 1.427 . S
N2808 C2805 1.384 . S
N2809 C2801 1.427 . S
N2809 C2807 1.384 . S
H2810 C2816 0.930 . S
H2811 C2820 0.930 . S
H2812 C2825 0.929 . S
H2813 C2823 0.929 . S
H2814 C2818 0.929 . S
H2815 C2824 0.929 . S
C2816 H2810 0.930 . S
C2816 C2817 1.367 . S
C2816 C2824 1.378 . S
C2817 C2816 1.367 . S
C2817 C2825 1.433 . S
C2818 H2814 0.929 . S
C2818 C2820 1.378 . S
C2818 C2822 1.350 . S
C2819 C2822 1.463 . S
C2819 C2824 1.350 . S
C2819 N2827 1.427 . S
C2820 H2811 0.930 . S
C2820 C2818 1.378 . S
C2820 C2821 1.367 . S
C2821 C2820 1.367 . S
C2821 C2823 1.433 . S
C2822 C2818 1.350 . S
C2822 C2819 1.463 . S
C2822 N2826 1.427 . S
C2823 H2813 0.929 . S
C2823 C2821 1.433 . S
C2823 N2826 1.384 . S
C2824 H2815 0.929 . S
C2824 C2816 1.378 . S
C2824 C2819 1.350 . S
C2825 H2812 0.929 . S
C2825 C2817 1.433 . S
C2825 N2827 1.384 . S
N2826 C2822 1.427 . S
N2826 C2823 1.384 . S
N2827 C2819 1.427 . S
N2827 C2825 1.384 . S
H2828 C2834 0.930 . S
H2829 C2838 0.930 . S
H2830 C2843 0.929 . S
H2831 C2841 0.929 . S
H2832 C2836 0.929 . S
H2833 C2842 0.929 . S
C2834 H2828 0.930 . S
C2834 C2835 1.367 . S
C2834 C2842 1.378 . S
C2835 C2834 1.367 . S
C2835 C2843 1.433 . S
C2836 H2832 0.929 . S
C2836 C2838 1.378 . S
C2836 C2840 1.350 . S
C2837 C2840 1.463 . S
C2837 C2842 1.350 . S
C2837 N2845 1.427 . S
C2838 H2829 0.930 . S
C2838 C2836 1.378 . S
C2838 C2839 1.367 . S
C2839 C2838 1.367 . S
C2839 C2841 1.433 . S
C2840 C2836 1.350 . S
C2840 C2837 1.463 . S
C2840 N2844 1.427 . S
C2841 H2831 0.929 . S
C2841 C2839 1.433 . S
C2841 N2844 1.384 . S
C2842 H2833 0.929 . S
C2842 C2834 1.378 . S
C2842 C2837 1.350 . S
C2843 H2830 0.929 . S
C2843 C2835 1.433 . S
C2843 N2845 1.384 . S
N2844 C2840 1.427 . S
N2844 C2841 1.384 . S
N2845 C2837 1.427 . S
N2845 C2843 1.384 . S
H2846 C2852 0.930 . S
H2847 C2856 0.930 . S
H2848 C2861 0.929 . S
H2849 C2859 0.929 . S
H2850 C2854 0.929 . S
H2851 C2860 0.929 . S
C2852 H2846 0.930 . S
C2852 C2853 1.367 . S
C2852 C2860 1.378 . S
C2853 C2852 1.367 . S
C2853 C2861 1.433 . S
C2854 H2850 0.929 . S
C2854 C2856 1.378 . S
C2854 C2858 1.350 . S
C2855 C2858 1.463 . S
C2855 C2860 1.350 . S
C2855 N2863 1.427 . S
C2856 H2847 0.930 . S
C2856 C2854 1.378 . S
C2856 C2857 1.367 . S
C2857 C2856 1.367 . S
C2857 C2859 1.433 . S
C2858 C2854 1.350 . S
C2858 C2855 1.463 . S
C2858 N2862 1.427 . S
C2859 H2849 0.929 . S
C2859 C2857 1.433 . S
C2859 N2862 1.384 . S
C2860 H2851 0.929 . S
C2860 C2852 1.378 . S
C2860 C2855 1.350 . S
C2861 H2848 0.929 . S
C2861 C2853 1.433 . S
C2861 N2863 1.384 . S
N2862 C2858 1.427 . S
N2862 C2859 1.384 . S
N2863 C2855 1.427 . S
N2863 C2861 1.384 . S
H2864 C2870 0.930 . S
H2865 C2874 0.930 . S
H2866 C2879 0.929 . S
H2867 C2877 0.929 . S
H2868 C2872 0.929 . S
H2869 C2878 0.929 . S
C2870 H2864 0.930 . S
C2870 C2871 1.367 . S
C2870 C2878 1.378 . S
C2871 C2870 1.367 . S
C2871 C2879 1.433 . S
C2872 H2868 0.929 . S
C2872 C2874 1.378 . S
C2872 C2876 1.350 . S
C2873 C2876 1.463 . S
C2873 C2878 1.350 . S
C2873 N2881 1.427 . S
C2874 H2865 0.930 . S
C2874 C2872 1.378 . S
C2874 C2875 1.367 . S
C2875 C2874 1.367 . S
C2875 C2877 1.433 . S
C2876 C2872 1.350 . S
C2876 C2873 1.463 . S
C2876 N2880 1.427 . S
C2877 H2867 0.929 . S
C2877 C2875 1.433 . S
C2877 N2880 1.384 . S
C2878 H2869 0.929 . S
C2878 C2870 1.378 . S
C2878 C2873 1.350 . S
C2879 H2866 0.929 . S
C2879 C2871 1.433 . S
C2879 N2881 1.384 . S
N2880 C2876 1.427 . S
N2880 C2877 1.384 . S
N2881 C2873 1.427 . S
N2881 C2879 1.384 . S
H2882 C2888 0.930 . S
H2883 C2892 0.930 . S
H2884 C2897 0.929 . S
H2885 C2895 0.929 . S
H2886 C2890 0.929 . S
H2887 C2896 0.929 . S
C2888 H2882 0.930 . S
C2888 C2889 1.367 . S
C2888 C2896 1.378 . S
C2889 C2888 1.367 . S
C2889 C2897 1.433 . S
C2890 H2886 0.929 . S
C2890 C2892 1.378 . S
C2890 C2894 1.350 . S
C2891 C2894 1.463 . S
C2891 C2896 1.350 . S
C2891 N2899 1.427 . S
C2892 H2883 0.930 . S
C2892 C2890 1.378 . S
C2892 C2893 1.367 . S
C2893 C2892 1.367 . S
C2893 C2895 1.433 . S
C2894 C2890 1.350 . S
C2894 C2891 1.463 . S
C2894 N2898 1.427 . S
C2895 H2885 0.929 . S
C2895 C2893 1.433 . S
C2895 N2898 1.384 . S
C2896 H2887 0.929 . S
C2896 C2888 1.378 . S
C2896 C2891 1.350 . S
C2897 H2884 0.929 . S
C2897 C2889 1.433 . S
C2897 N2899 1.384 . S
N2898 C2894 1.427 . S
N2898 C2895 1.384 . S
N2899 C2891 1.427 . S
N2899 C2897 1.384 . S
H2900 C2906 0.930 . S
H2901 C2910 0.930 . S
H2902 C2915 0.929 . S
H2903 C2913 0.929 . S
H2904 C2908 0.929 . S
H2905 C2914 0.929 . S
C2906 H2900 0.930 . S
C2906 C2907 1.367 . S
C2906 C2914 1.378 . S
C2907 C2906 1.367 . S
C2907 C2915 1.433 . S
C2908 H2904 0.929 . S
C2908 C2910 1.378 . S
C2908 C2912 1.350 . S
C2909 C2912 1.463 . S
C2909 C2914 1.350 . S
C2909 N2917 1.427 . S
C2910 H2901 0.930 . S
C2910 C2908 1.378 . S
C2910 C2911 1.367 . S
C2911 C2910 1.367 . S
C2911 C2913 1.433 . S
C2912 C2908 1.350 . S
C2912 C2909 1.463 . S
C2912 N2916 1.427 . S
C2913 H2903 0.929 . S
C2913 C2911 1.433 . S
C2913 N2916 1.384 . S
C2914 H2905 0.929 . S
C2914 C2906 1.378 . S
C2914 C2909 1.350 . S
C2915 H2902 0.929 . S
C2915 C2907 1.433 . S
C2915 N2917 1.384 . S
N2916 C2912 1.427 . S
N2916 C2913 1.384 . S
N2917 C2909 1.427 . S
N2917 C2915 1.384 . S
H2918 C2924 0.930 . S
H2919 C2928 0.930 . S
H2920 C2933 0.929 . S
H2921 C2931 0.929 . S
H2922 C2926 0.929 . S
H2923 C2932 0.929 . S
C2924 H2918 0.930 . S
C2924 C2925 1.367 . S
C2924 C2932 1.378 . S
C2925 C2924 1.367 . S
C2925 C2933 1.433 . S
C2926 H2922 0.929 . S
C2926 C2928 1.378 . S
C2926 C2930 1.350 . S
C2927 C2930 1.463 . S
C2927 C2932 1.350 . S
C2927 N2935 1.427 . S
C2928 H2919 0.930 . S
C2928 C2926 1.378 . S
C2928 C2929 1.367 . S
C2929 C2928 1.367 . S
C2929 C2931 1.433 . S
C2930 C2926 1.350 . S
C2930 C2927 1.463 . S
C2930 N2934 1.427 . S
C2931 H2921 0.929 . S
C2931 C2929 1.433 . S
C2931 N2934 1.384 . S
C2932 H2923 0.929 . S
C2932 C2924 1.378 . S
C2932 C2927 1.350 . S
C2933 H2920 0.929 . S
C2933 C2925 1.433 . S
C2933 N2935 1.384 . S
N2934 C2930 1.427 . S
N2934 C2931 1.384 . S
N2935 C2927 1.427 . S
N2935 C2933 1.384 . S
H2936 C2942 0.930 . S
H2937 C2946 0.930 . S
H2938 C2951 0.929 . S
H2939 C2949 0.929 . S
H2940 C2944 0.929 . S
H2941 C2950 0.929 . S
C2942 H2936 0.930 . S
C2942 C2943 1.367 . S
C2942 C2950 1.378 . S
C2943 C2942 1.367 . S
C2943 C2951 1.433 . S
C2944 H2940 0.929 . S
C2944 C2946 1.378 . S
C2944 C2948 1.350 . S
C2945 C2948 1.463 . S
C2945 C2950 1.350 . S
C2945 N2953 1.427 . S
C2946 H2937 0.930 . S
C2946 C2944 1.378 . S
C2946 C2947 1.367 . S
C2947 C2946 1.367 . S
C2947 C2949 1.433 . S
C2948 C2944 1.350 . S
C2948 C2945 1.463 . S
C2948 N2952 1.427 . S
C2949 H2939 0.929 . S
C2949 C2947 1.433 . S
C2949 N2952 1.384 . S
C2950 H2941 0.929 . S
C2950 C2942 1.378 . S
C2950 C2945 1.350 . S
C2951 H2938 0.929 . S
C2951 C2943 1.433 . S
C2951 N2953 1.384 . S
N2952 C2948 1.427 . S
N2952 C2949 1.384 . S
N2953 C2945 1.427 . S
N2953 C2951 1.384 . S
H2954 C2960 0.930 . S
H2955 C2964 0.930 . S
H2956 C2969 0.929 . S
H2957 C2967 0.929 . S
H2958 C2962 0.929 . S
H2959 C2968 0.929 . S
C2960 H2954 0.930 . S
C2960 C2961 1.367 . S
C2960 C2968 1.378 . S
C2961 C2960 1.367 . S
C2961 C2969 1.433 . S
C2962 H2958 0.929 . S
C2962 C2964 1.378 . S
C2962 C2966 1.350 . S
C2963 C2966 1.463 . S
C2963 C2968 1.350 . S
C2963 N2971 1.427 . S
C2964 H2955 0.930 . S
C2964 C2962 1.378 . S
C2964 C2965 1.367 . S
C2965 C2964 1.367 . S
C2965 C2967 1.433 . S
C2966 C2962 1.350 . S
C2966 C2963 1.463 . S
C2966 N2970 1.427 . S
C2967 H2957 0.929 . S
C2967 C2965 1.433 . S
C2967 N2970 1.384 . S
C2968 H2959 0.929 . S
C2968 C2960 1.378 . S
C2968 C2963 1.350 . S
C2969 H2956 0.929 . S
C2969 C2961 1.433 . S
C2969 N2971 1.384 . S
N2970 C2966 1.427 . S
N2970 C2967 1.384 . S
N2971 C2963 1.427 . S
N2971 C2969 1.384 . S
H2972 C2978 0.930 . S
H2973 C2982 0.930 . S
H2974 C2987 0.929 . S
H2975 C2985 0.929 . S
H2976 C2980 0.929 . S
H2977 C2986 0.929 . S
C2978 H2972 0.930 . S
C2978 C2979 1.367 . S
C2978 C2986 1.378 . S
C2979 C2978 1.367 . S
C2979 C2987 1.433 . S
C2980 H2976 0.929 . S
C2980 C2982 1.378 . S
C2980 C2984 1.350 . S
C2981 C2984 1.463 . S
C2981 C2986 1.350 . S
C2981 N2989 1.427 . S
C2982 H2973 0.930 . S
C2982 C2980 1.378 . S
C2982 C2983 1.367 . S
C2983 C2982 1.367 . S
C2983 C2985 1.433 . S
C2984 C2980 1.350 . S
C2984 C2981 1.463 . S
C2984 N2988 1.427 . S
C2985 H2975 0.929 . S
C2985 C2983 1.433 . S
C2985 N2988 1.384 . S
C2986 H2977 0.929 . S
C2986 C2978 1.378 . S
C2986 C2981 1.350 . S
C2987 H2974 0.929 . S
C2987 C2979 1.433 . S
C2987 N2989 1.384 . S
N2988 C2984 1.427 . S
N2988 C2985 1.384 . S
N2989 C2981 1.427 . S
N2989 C2987 1.384 . S
H2990 C2996 0.930 . S
H2991 C3000 0.930 . S
H2992 C3005 0.929 . S
H2993 C3003 0.929 . S
H2994 C2998 0.929 . S
H2995 C3004 0.929 . S
C2996 H2990 0.930 . S
C2996 C2997 1.367 . S
C2996 C3004 1.378 . S
C2997 C2996 1.367 . S
C2997 C3005 1.433 . S
C2998 H2994 0.929 . S
C2998 C3000 1.378 . S
C2998 C3002 1.350 . S
C2999 C3002 1.463 . S
C2999 C3004 1.350 . S
C2999 N3007 1.427 . S
C3000 H2991 0.930 . S
C3000 C2998 1.378 . S
C3000 C3001 1.367 . S
C3001 C3000 1.367 . S
C3001 C3003 1.433 . S
C3002 C2998 1.350 . S
C3002 C2999 1.463 . S
C3002 N3006 1.427 . S
C3003 H2993 0.929 . S
C3003 C3001 1.433 . S
C3003 N3006 1.384 . S
C3004 H2995 0.929 . S
C3004 C2996 1.378 . S
C3004 C2999 1.350 . S
C3005 H2992 0.929 . S
C3005 C2997 1.433 . S
C3005 N3007 1.384 . S
N3006 C3002 1.427 . S
N3006 C3003 1.384 . S
N3007 C2999 1.427 . S
N3007 C3005 1.384 . S
C1287 C15 1.101 . S
C1291 C129 1.068 . S
C1305 C9 1.046 . S
C1309 C55 1.142 . S
C1323 C95 1.099 . S
C1327 C49 1.052 . S
C1341 C89 1.069 . S
C1345 C135 1.100 . S
C1359 C209 1.048 . S
C1363 C175 1.104 . S
C1377 C215 1.099 . S
C1381 C249 1.067 . S
C1395 C289 1.057 . S
C1399 C255 1.104 . S
C1413 C169 1.047 . S
C1417 C295 1.101 . S
C1431 C325 1.101 . S
C1435 C459 1.068 . S
C1449 C365 1.100 . S
C1453 C339 1.068 . S
C1467 C405 1.104 . S
C1471 C379 1.052 . S
C1485 C445 1.104 . S
C1489 C419 1.060 . S
C1503 C485 1.104 . S
C1507 C539 1.055 . S
C1521 C525 1.099 . S
C1525 C579 1.068 . S
C1539 C619 1.066 . S
C1543 C565 1.102 . S
C1557 C499 1.068 . S
C1561 C605 1.101 . S
C1575 C655 1.102 . S
C1579 C769 1.045 . S
C1593 C649 1.045 . S
C1597 C695 1.102 . S
C1611 C689 1.056 . S
C1615 C735 1.104 . S
C1629 C775 1.104 . S
C1633 C729 1.055 . S
C1647 C815 1.101 . S
C1651 C849 1.067 . S
C1665 C889 1.046 . S
C1669 C855 1.101 . S
C1683 C895 1.104 . S
C1687 C929 1.047 . S
C1701 C809 1.068 . S
C1705 C935 1.101 . S
C1719 C1099 1.058 . S
C1723 C965 1.104 . S
C1737 C979 1.051 . S
C1741 C1005 1.105 . S
C1755 C1045 1.098 . S
C1759 C1019 1.060 . S
C1773 C1059 1.069 . S
C1777 C1085 1.100 . S
C1791 C1179 1.064 . S
C1795 C1125 1.103 . S
C1809 C1219 1.047 . S
C1813 C1165 1.104 . S
C1827 C1259 1.067 . S
C1831 C1205 1.101 . S
C1845 C1245 1.102 . S
C1849 C1139 1.045 . S
C1863 C1095 1.595 . S
C1867 C18 1.523 . S
C1881 C58 1.514 . S
C1885 C335 1.590 1_455 S
C1899 C98 1.513 . S
C1903 C1015 1.592 . S
C1917 C138 1.518 . S
C1921 C415 1.590 . S
C1935 C178 1.514 . S
C1939 C1175 1.592 . S
C1953 C575 1.590 . S
C1957 C218 1.513 . S
C1971 C1255 1.595 . S
C1975 C258 1.521 . S
C1989 C298 1.526 . S
C1993 C495 1.595 1_455 S
C2007 C328 1.522 . S
C2011 C765 1.595 . S
C2025 C5 1.589 1_655 S
C2029 C368 1.517 . S
C2043 C685 1.591 . S
C2047 C408 1.513 . S
C2061 C85 1.591 . S
C2065 C448 1.526 . S
C2079 C845 1.595 . S
C2083 C488 1.529 . S
C2097 C245 1.595 . S
C2101 C528 1.527 . S
C2115 C568 1.519 . S
C2119 C925 1.595 . S
C2133 C608 1.512 . S
C2137 C165 1.591 1_655 S
C2151 C658 1.528 . S
C2155 C455 1.593 . S
C2169 C698 1.519 . S
C2173 C975 1.590 . S
C2187 C738 1.528 . S
C2191 C375 1.593 . S
C2205 C778 1.515 . S
C2209 C1055 1.589 1_655 S
C2223 C818 1.513 . S
C2227 C535 1.592 . S
C2241 C858 1.524 . S
C2245 C1215 1.595 1_655 S
C2259 C615 1.591 . S
C2263 C898 1.524 . S
C2277 C938 1.512 . S
C2281 C1135 1.591 . S
C2295 C125 1.593 . S
C2299 C968 1.515 . S
C2313 C645 1.590 . S
C2317 C1008 1.512 . S
C2331 C45 1.592 . S
C2335 C1048 1.513 . S
C2349 C725 1.595 1_455 S
C2353 C1088 1.527 . S
C2367 C205 1.592 . S
C2371 C1128 1.513 . S
C2385 C1168 1.514 . S
C2389 C885 1.548 1_455 S
C2403 C1208 1.521 . S
C2407 C285 1.590 . S
C2421 C805 1.592 . S
C2425 C1248 1.513 . S
C2439 C8 0.830 . S
C2443 C168 0.827 . S
C2457 C48 0.834 . S
C2461 C208 0.814 . S
C2475 C88 0.811 . S
C2479 C248 0.822 . S
C2493 C288 0.834 . S
C2497 C128 0.815 . S
C2511 C498 0.825 . S
C2515 C338 0.810 . S
C2529 C538 0.817 . S
C2533 C378 0.814 . S
C2547 C418 0.819 . S
C2551 C578 0.834 . S
C2565 C458 0.812 . S
C2569 C618 0.821 . S
C2583 C648 0.810 . S
C2587 C808 0.826 . S
C2601 C848 0.810 . S
C2605 C688 0.829 . S
C2619 C888 0.810 . S
C2623 C728 0.829 . S
C2637 C928 0.834 . S
C2641 C768 0.815 . S
C2655 C1138 0.832 . S
C2659 C978 0.824 . S
C2673 C1018 0.810 . S
C2677 C1178 0.827 . S
C2691 C1218 0.820 . S
C2695 C1058 0.813 . S
C2709 C1098 0.833 . S
C2713 C1258 0.821 . S
C2727 C299 2.610 . S
C2731 C19 2.608 . S
C2745 C59 2.609 . S
C2749 C179 2.607 . S
C2763 C99 2.608 . S
C2767 C219 2.608 . S
C2781 C259 2.607 . S
C2785 C139 2.608 . S
C2799 C329 2.607 . S
C2803 C609 2.609 . S
C2817 C489 2.610 . S
C2821 C369 2.608 . S
C2835 C529 2.608 . S
C2839 C409 2.607 . S
C2853 C449 2.610 . S
C2857 C569 2.610 . S
C2871 C659 2.610 . S
C2875 C939 2.610 . S
C2889 C819 2.610 . S
C2893 C699 2.609 . S
C2907 C859 2.608 . S
C2911 C739 2.610 . S
C2925 C899 2.607 . S
C2929 C779 2.608 . S
C2943 C969 2.610 . S
C2947 C1249 2.609 . S
C2961 C1129 2.610 . S
C2965 C1009 2.609 . S
C2979 C1049 2.609 . S
C2983 C1169 2.608 . S
C2997 C1209 2.608 . S
C3001 C1089 2.609 . S
