# Generated by pormake.
# Topology dft, (4)-cn, num edge types: 1
# Building blocks:
#     Node 0, Type 0, BuildingBlock: QUQFOY_clean_sbu_3, # of connection points: 4
#     Node 1, Type 0, BuildingBlock: QUQFOY_clean_sbu_3, # of connection points: 4
#     Node 2, Type 0, BuildingBlock: QUQFOY_clean_sbu_3, # of connection points: 4
#     Node 3, Type 0, BuildingBlock: QUQFOY_clean_sbu_3, # of connection points: 4
#     Node 4, Type 0, BuildingBlock: QUQFOY_clean_sbu_3, # of connection points: 4
#     Node 5, Type 0, BuildingBlock: QUQFOY_clean_sbu_3, # of connection points: 4
#     Node 6, Type 0, BuildingBlock: QUQFOY_clean_sbu_3, # of connection points: 4
#     Node 7, Type 0, BuildingBlock: QUQFOY_clean_sbu_3, # of connection points: 4
#     Edge 8, Type (0, 0), BuildingBlock: FUNLAD_clean_linker_1, # of connection points: 2
#     Edge 9, Type (0, 0), BuildingBlock: FUNLAD_clean_linker_1, # of connection points: 2
#     Edge 10, Type (0, 0), BuildingBlock: FUNLAD_clean_linker_1, # of connection points: 2
#     Edge 11, Type (0, 0), BuildingBlock: FUNLAD_clean_linker_1, # of connection points: 2
#     Edge 12, Type (0, 0), BuildingBlock: FUNLAD_clean_linker_1, # of connection points: 2
#     Edge 13, Type (0, 0), BuildingBlock: FUNLAD_clean_linker_1, # of connection points: 2
#     Edge 14, Type (0, 0), BuildingBlock: FUNLAD_clean_linker_1, # of connection points: 2
#     Edge 15, Type (0, 0), BuildingBlock: FUNLAD_clean_linker_1, # of connection points: 2
#     Edge 16, Type (0, 0), BuildingBlock: FUNLAD_clean_linker_1, # of connection points: 2
#     Edge 17, Type (0, 0), BuildingBlock: FUNLAD_clean_linker_1, # of connection points: 2
#     Edge 18, Type (0, 0), BuildingBlock: FUNLAD_clean_linker_1, # of connection points: 2
#     Edge 19, Type (0, 0), BuildingBlock: FUNLAD_clean_linker_1, # of connection points: 2
#     Edge 20, Type (0, 0), BuildingBlock: FUNLAD_clean_linker_1, # of connection points: 2
#     Edge 21, Type (0, 0), BuildingBlock: FUNLAD_clean_linker_1, # of connection points: 2
#     Edge 22, Type (0, 0), BuildingBlock: FUNLAD_clean_linker_1, # of connection points: 2
#     Edge 23, Type (0, 0), BuildingBlock: FUNLAD_clean_linker_1, # of connection points: 2
# Relax obj value: 0.179
# Max RMSD: 0.170
# Mean RMSD: 0.170
data_MOF--net-dft--node1-QUQFOY_clean_sbu_3--edge1-FUNLAD_clean_linker_1
_symmetry_space_group_name_H-M    P1
_symmetry_Int_Tables_number       1
_symmetry_cell_setting            triclinic
loop_
_symmetry_equiv_pos_as_xyz
'x, y, z'
_cell_length_a     37.435782
_cell_length_b     37.551536
_cell_length_c     43.86265
_cell_angle_alpha  90.013052
_cell_angle_beta   89.550885
_cell_angle_gamma 90.789558
loop_
_atom_site_label
_atom_site_type_symbol
_atom_site_fract_x
_atom_site_fract_y
_atom_site_fract_z
_atom_type_partial_charge
C0 C 0.25826 -0.01898 0.15955 0.0
O1 O 0.24115 -0.00234 0.1393 0.0
Cd2 Cd 0.26337 0.04717 0.11064 0.0
O3 O 0.28951 -0.00891 0.16761 0.0
Cd4 Cd 0.33078 0.04137 0.15378 0.0
C5 C 0.26817 0.1048 0.16985 0.0
O6 O 0.32335 0.02906 0.10013 0.0
O7 O 0.35878 0.0732 0.10956 0.0
O8 O 0.37992 0.00372 0.17066 0.0
C9 C 0.34535 0.05208 0.09014 0.0
O10 O 0.25317 0.0973 0.14469 0.0
C11 C 0.39616 0.02867 0.18467 0.0
O12 O 0.2953 0.08772 0.17863 0.0
O13 O 0.38142 0.05886 0.18518 0.0
C14 C 0.09372 0.27104 0.67883 0.0
O15 O 0.08313 0.25511 0.65495 0.0
Cd16 Cd 0.03176 0.2702 0.62724 0.0
O17 O 0.07773 0.2986 0.68882 0.0
Cd18 Cd 0.02779 0.33777 0.67041 0.0
C19 C 0.96857 0.27076 0.68497 0.0
O20 O 0.04316 0.3317 0.61708 0.0
O21 O -0.00784 0.35554 0.62524 0.0
O22 O 0.06393 0.39004 0.68462 0.0
C23 C 0.01645 0.34741 0.60636 0.0
O24 O -0.01819 0.25526 0.66174 0.0
C25 C 0.0381 0.40736 0.69581 0.0
O26 O 0.98041 0.301 0.69359 0.0
O27 O 0.00788 0.39164 0.69684 0.0
C28 C 0.78896 0.08043 0.19341 0.0
O29 O 0.80485 0.07996 0.16773 0.0
Cd30 Cd 0.79651 0.03544 0.13015 0.0
O31 O 0.76492 0.05723 0.20009 0.0
Cd32 Cd 0.73433 0.00644 0.17325 0.0
C33 C 0.81219 0.9621 0.17521 0.0
O34 O 0.73334 0.03425 0.12356 0.0
O35 O 0.72183 0.9779 0.12351 0.0
O36 O 0.67684 0.02661 0.19223 0.0
C37 C 0.72255 0.00711 0.10908 0.0
O38 O 0.82278 -0.01706 0.15402 0.0
C39 C 0.66586 -0.00386 0.20103 0.0
O40 O 0.78128 0.96514 0.18714 0.0
O41 O 0.68757 0.97062 0.19864 0.0
C42 C 0.94279 0.81391 0.66898 0.0
O43 O 0.95264 0.82798 0.64397 0.0
Cd44 Cd -0.00048 0.80786 0.61255 0.0
O45 O 0.95777 0.78595 0.6792 0.0
Cd46 Cd 0.00629 0.745 0.66026 0.0
C47 C 0.06747 0.81244 0.66482 0.0
O48 O -0.01523 0.74602 0.60865 0.0
O49 O 0.03659 0.72292 0.61297 0.0
O50 O 0.97292 0.69393 0.68168 0.0
C51 C 0.00986 0.72913 0.59634 0.0
O52 O 0.05306 0.825 0.64104 0.0
C53 C 0.00031 0.67821 0.69152 0.0
O54 O 0.05526 0.78416 0.67733 0.0
O55 O 0.0301 0.69441 0.68842 0.0
C56 C 0.26335 0.08598 0.77248 0.0
O57 O 0.24325 0.07794 0.79502 0.0
Cd58 Cd 0.25129 0.03212 0.83146 0.0
O59 O 0.29213 0.06904 0.76711 0.0
Cd60 Cd 0.32567 0.01968 0.79273 0.0
C61 C 0.25571 0.96046 0.7829 0.0
O62 O 0.31241 0.04331 0.84255 0.0
O63 O 0.34454 -0.00367 0.8434 0.0
O64 O 0.38286 0.04773 0.77798 0.0
C65 C 0.32981 0.02134 0.85799 0.0
O66 O 0.23815 0.97776 0.80283 0.0
C67 C 0.39653 0.01921 0.76789 0.0
O68 O 0.2873 0.96998 0.77528 0.0
O69 O 0.37666 -0.00842 0.76778 0.0
C70 C 0.96456 0.25431 0.29849 0.0
O71 O 0.97712 0.23776 0.32117 0.0
Cd72 Cd 0.02842 0.25669 0.34869 0.0
O73 O 0.9787 0.28353 0.28928 0.0
Cd74 Cd 0.02813 0.32411 0.30649 0.0
C75 C 0.08972 0.26172 0.29021 0.0
O76 O 0.01404 0.31718 0.36009 0.0
O77 O 0.06396 0.3443 0.35085 0.0
O78 O -0.00938 0.37395 0.29161 0.0
C79 C 0.04014 0.33526 0.37008 0.0
O80 O 0.07969 0.24594 0.31458 0.0
C81 C 0.01609 0.39207 0.27993 0.0
O82 O 0.07435 0.28975 0.28129 0.0
O83 O 0.04668 0.37792 0.27937 0.0
C84 C 0.79712 0.96519 0.81412 0.0
O85 O 0.81032 0.97488 0.83938 0.0
Cd86 Cd 0.7967 0.02819 0.86514 0.0
O87 O 0.77293 -0.01663 0.80108 0.0
Cd88 Cd 0.73731 0.03819 0.81427 0.0
C89 C 0.8125 0.0891 0.80748 0.0
O90 O 0.73321 0.02446 0.86769 0.0
O91 O 0.71796 0.07785 0.85696 0.0
O92 O 0.68169 0.00987 0.79696 0.0
C93 C 0.71981 0.0533 0.87664 0.0
O94 O 0.82242 0.07508 0.83236 0.0
C95 C 0.67146 0.03641 0.78153 0.0
O96 O 0.783 0.08006 0.79526 0.0
O97 O 0.69273 0.06293 0.7798 0.0
C98 C 0.11203 0.79912 0.27809 0.0
O99 O 0.10119 0.8198 0.29904 0.0
Cd100 Cd 0.05595 0.80643 0.33565 0.0
O101 O 0.09806 0.76824 0.2745 0.0
Cd102 Cd 0.04897 0.73299 0.29974 0.0
C103 C -0.01437 0.79599 0.28734 0.0
O104 O 0.07121 0.74698 0.35013 0.0
O105 O 0.02251 0.71577 0.34966 0.0
O106 O 0.0814 0.67954 0.28462 0.0
C107 C 0.04796 0.72926 0.36484 0.0
O108 O 0.00035 0.81476 0.308 0.0
C109 C 0.05384 0.66283 0.27542 0.0
O110 O -0.00157 0.76614 0.27953 0.0
O111 O 0.02439 0.67912 0.27663 0.0
H112 H 0.37906 0.06871 0.05077 0.0
C113 C 0.35578 0.05301 0.05768 0.0
H114 H 0.31451 0.01779 0.04431 0.0
H115 H 0.36918 0.0828 0.91035 0.0
H116 H 0.35856 0.14206 0.93037 0.0
H117 H 0.34085 0.1506 0.98415 0.0
H118 H 0.33498 0.10032 0.01837 0.0
C119 C 0.33734 0.03394 0.03699 0.0
C120 C 0.34879 0.03021 0.00459 0.0
C121 C 0.35003 0.05998 -0.01534 0.0
C122 C 0.35752 0.05485 0.95314 0.0
C123 C 0.36143 0.08511 0.93408 0.0
C124 C 0.35572 0.11926 0.94533 0.0
C125 C 0.34594 0.12407 0.97563 0.0
C126 C 0.34298 0.09489 -0.00485 0.0
H127 H 0.31057 0.03989 0.90244 0.0
C128 C 0.3317 0.02507 0.89123 0.0
H129 H 0.38097 -0.00072 0.89656 0.0
H130 H 0.35409 0.96827 0.0372 0.0
H131 H 0.3639 0.90921 0.0167 0.0
H132 H 0.3718 0.89996 0.96139 0.0
H133 H 0.37044 0.94976 0.92631 0.0
C134 C 0.35948 0.01373 0.90758 0.0
C135 C 0.36051 0.01986 0.94117 0.0
C136 C 0.36129 -0.0096 0.96128 0.0
C137 C 0.35585 -0.00435 -0.00693 0.0
C138 C 0.3572 0.96577 0.01275 0.0
C139 C 0.36298 0.93171 0.00131 0.0
C140 C 0.36748 0.92651 0.97018 0.0
C141 C 0.36662 0.95538 0.95028 0.0
H142 H -0.01334 0.36164 0.56481 0.0
C143 C 0.01174 0.35142 0.57325 0.0
H144 H 0.06202 0.33001 0.56186 0.0
H145 H 0.01428 0.26858 0.43519 0.0
H146 H 0.01295 0.21482 0.46576 0.0
H147 H 0.01973 0.21774 0.5216 0.0
H148 H 0.028 0.27446 0.54719 0.0
C149 C 0.03731 0.34125 0.55357 0.0
C150 C 0.03124 0.34027 0.52022 0.0
C151 C 0.02618 0.30691 0.50568 0.0
C152 C 0.0218 0.30528 0.47359 0.0
C153 C 0.01726 0.2715 0.45958 0.0
C154 C 0.01654 0.24037 0.47685 0.0
C155 C 0.0204 0.24201 0.50827 0.0
C156 C 0.0252 0.27477 0.52265 0.0
H157 H 0.06956 0.3527 0.41113 0.0
C158 C 0.04424 0.34212 0.40291 0.0
H159 H -0.0076 0.32356 0.4145 0.0
H160 H 0.04188 0.40833 0.541 0.0
H161 H 0.0411 0.46242 0.51074 0.0
H162 H 0.03061 0.45987 0.45531 0.0
H163 H 0.02133 0.40323 0.42975 0.0
C164 C 0.01751 0.33474 0.42264 0.0
C165 C 0.02241 0.33706 0.45613 0.0
C166 C 0.0268 0.37052 0.47074 0.0
C167 C 0.0317 0.37209 0.50284 0.0
C168 C 0.03725 0.40569 0.5168 0.0
C169 C 0.03695 0.43693 0.49968 0.0
C170 C 0.03113 0.43549 0.46846 0.0
C171 C 0.02603 0.40277 0.45404 0.0
H172 H 0.70732 0.08661 0.91694 0.0
C173 C 0.71294 0.05974 0.90925 0.0
H174 H 0.72042 0.00605 0.92194 0.0
H175 H 0.7751 0.07014 0.05067 0.0
H176 H 0.82647 0.09137 0.02172 0.0
H177 H 0.82711 0.08862 0.96554 0.0
H178 H 0.77633 0.06478 0.93801 0.0
C179 C 0.71568 0.03314 0.92954 0.0
C180 C 0.71355 0.03915 0.96289 0.0
C181 C 0.74345 0.05349 0.97855 0.0
C182 C 0.74317 0.05484 0.01093 0.0
C183 C 0.77367 0.06865 0.02608 0.0
C184 C 0.80345 0.08086 0.00975 0.0
C185 C 0.8038 0.07933 0.97813 0.0
C186 C 0.77434 0.06567 0.96259 0.0
H187 H 0.71288 -0.01622 0.06362 0.0
C188 C 0.7159 0.00863 0.07611 0.0
H189 H 0.71832 0.06479 0.0736 0.0
H190 H 0.6513 0.01225 0.93952 0.0
H191 H 0.59899 -0.00736 0.96841 0.0
H192 H 0.59797 -0.0038 0.0246 0.0
H193 H 0.6493 0.01908 0.05224 0.0
C194 C 0.71472 0.0399 0.06127 0.0
C195 C 0.7132 0.04143 0.02748 0.0
C196 C 0.68264 0.02872 0.01175 0.0
C197 C 0.68298 0.02725 0.97938 0.0
C198 C 0.65241 0.01388 0.96414 0.0
C199 C 0.62219 0.00267 0.98042 0.0
C200 C 0.62163 0.00464 0.01206 0.0
C201 C 0.65137 0.01759 0.02766 0.0
H202 H 0.07243 0.74029 0.4092 0.0
C203 C 0.04989 0.72712 0.39822 0.0
H204 H 0.00256 0.6967 0.40497 0.0
H205 H 0.04559 0.6458 0.53746 0.0
H206 H 0.04624 0.59001 0.50946 0.0
H207 H 0.03891 0.58914 0.4536 0.0
H208 H 0.03051 0.64397 0.42542 0.0
C209 C 0.02477 0.71092 0.41545 0.0
C210 C 0.02759 0.71128 0.44927 0.0
C211 C 0.03279 0.679 0.46531 0.0
C212 C 0.03747 0.67952 0.49747 0.0
C213 C 0.04211 0.64689 0.51302 0.0
C214 C 0.04257 0.61471 0.49722 0.0
C215 C 0.03843 0.61422 0.46577 0.0
C216 C 0.03362 0.64589 0.44987 0.0
H217 H -0.01434 0.73066 0.5511 0.0
C218 C 0.00972 0.72338 0.56325 0.0
H219 H 0.06259 0.70472 0.55876 0.0
H220 H 0.01255 0.77751 0.42645 0.0
H221 H 0.01512 0.8334 0.45398 0.0
H222 H 0.03002 0.83486 0.50867 0.0
H223 H 0.0414 0.78029 0.53623 0.0
C224 C 0.03833 0.71267 0.54732 0.0
C225 C 0.03713 0.7123 0.51343 0.0
C226 C 0.03297 0.74469 0.49725 0.0
C227 C 0.02677 0.74407 0.46536 0.0
C228 C 0.01946 0.77655 0.45032 0.0
C229 C 0.0205 0.80884 0.46592 0.0
C230 C 0.02871 0.80965 0.49672 0.0
C231 C 0.03489 0.77806 0.51232 0.0
H232 H 0.44549 0.04799 0.20637 0.0
C233 C 0.43228 0.02444 0.19709 0.0
H234 H 0.43832 0.97102 0.18334 0.0
H235 H 0.60073 7e-05 0.14921 0.0
H236 H 0.57455 -0.01185 0.09984 0.0
H237 H 0.50951 0.979 0.09464 0.0
H238 H 0.47032 -0.01831 0.13874 0.0
C239 C 0.45078 -0.0057 0.19373 0.0
C240 C 0.49019 -0.00526 0.19789 0.0
C241 C 0.51275 -0.00763 0.17185 0.0
C242 C 0.55019 -0.0022 0.17481 0.0
C243 C 0.57207 -0.00384 0.14832 0.0
C244 C 0.55741 -0.01067 0.1198 0.0
C245 C 0.5208 -0.01583 0.11688 0.0
C246 C 0.4986 -0.01426 0.14247 0.0
H247 H 0.6198 0.96236 0.21491 0.0
C248 C 0.6282 -0.0105 0.2096 0.0
H249 H 0.61147 0.04153 0.19918 0.0
H250 H 0.4551 -0.00422 0.25278 0.0
H251 H 0.48157 0.00691 0.30238 0.0
H252 H 0.5465 0.01747 0.3073 0.0
H253 H 0.58543 0.01674 0.26265 0.0
C254 C 0.60353 0.01471 0.2059 0.0
C255 C 0.56501 0.00529 0.2038 0.0
C256 C 0.54276 0.00587 0.23002 0.0
C257 C 0.50527 0.00037 0.2271 0.0
C258 C 0.48363 0.00063 0.25369 0.0
C259 C 0.49852 0.00677 0.28227 0.0
C260 C 0.53509 0.01267 0.28505 0.0
C261 C 0.55711 0.01223 0.25929 0.0
H262 H 0.06916 0.45717 0.70176 0.0
C263 C 0.04254 0.44538 0.70361 0.0
H264 H -0.01249 0.45537 0.70987 0.0
H265 H 0.00975 0.61151 0.76278 0.0
H266 H -0.00725 0.57995 0.80917 0.0
H267 H -0.01259 0.51439 0.80971 0.0
H268 H -0.00098 0.4799 0.7639 0.0
C269 C 0.01434 0.46662 0.70807 0.0
C270 C 0.01832 0.50616 0.70795 0.0
C271 C 0.01132 0.5259 0.73484 0.0
C272 C 0.01433 0.56375 0.73454 0.0
C273 C 0.00754 0.58278 0.76177 0.0
C274 C -0.00214 0.56499 0.78853 0.0
C275 C -0.00514 0.52806 0.78883 0.0
C276 C 0.00154 0.50859 0.76239 0.0
H277 H 0.97155 0.62845 0.70368 0.0
C278 C -0.00218 0.64109 0.7025 0.0
H279 H 0.05352 0.63317 0.70351 0.0
H280 H 0.0289 0.4771 0.65106 0.0
H281 H 0.04599 0.5087 0.60507 0.0
H282 H 0.05399 0.574 0.60525 0.0
H283 H 0.04449 0.60806 0.65145 0.0
C284 C 0.02707 0.62128 0.70636 0.0
C285 C 0.02433 0.58173 0.70734 0.0
C286 C 0.03132 0.56204 0.68041 0.0
C287 C 0.02766 0.5243 0.68053 0.0
C288 C 0.03266 0.50561 0.65275 0.0
C289 C 0.04218 0.52347 0.62601 0.0
C290 C 0.04662 0.56023 0.6261 0.0
C291 C 0.04114 0.57944 0.65284 0.0
H292 H 0.62709 0.06325 0.7585 0.0
C293 C 0.63487 0.03857 0.76941 0.0
H294 H 0.6172 -0.01048 0.78782 0.0
H295 H 0.46478 0.04313 0.82402 0.0
H296 H 0.49317 0.03889 0.87328 0.0
H297 H 0.5576 0.02698 0.87717 0.0
H298 H 0.59394 0.019 0.83184 0.0
C299 C 0.60993 0.01348 0.77557 0.0
C300 C 0.57118 0.02112 0.77255 0.0
C301 C 0.55035 0.02607 0.79935 0.0
C302 C 0.51333 0.03352 0.7971 0.0
C303 C 0.49311 0.03787 0.82429 0.0
C304 C 0.50905 0.03545 0.85278 0.0
C305 C 0.5453 0.02869 0.85497 0.0
C306 C 0.56583 0.02407 0.82869 0.0
H307 H 0.44475 -0.00898 0.75267 0.0
C308 C 0.43483 0.01671 0.76009 0.0
H309 H 0.44867 0.06824 0.77545 0.0
H310 H 0.60294 0.01135 0.71686 0.0
H311 H 0.57472 0.01678 0.66744 0.0
H312 H 0.51093 0.0317 0.66353 0.0
H313 H 0.47485 0.04101 0.70905 0.0
C314 C 0.45817 0.04314 0.76635 0.0
C315 C 0.49715 0.03608 0.76807 0.0
C316 C 0.51797 0.03136 0.74127 0.0
C317 C 0.555 0.0236 0.74351 0.0
C318 C 0.57495 0.01808 0.71643 0.0
C319 C 0.55904 0.02097 0.68793 0.0
C320 C 0.52309 0.02931 0.68574 0.0
C321 C 0.50266 0.03447 0.71202 0.0
H322 H -0.01605 0.43981 0.27164 0.0
C323 C 0.01088 0.42934 0.27082 0.0
H324 H 0.06586 0.44163 0.2655 0.0
H325 H 0.04712 0.5935 0.20645 0.0
H326 H 0.06858 0.56025 0.16259 0.0
H327 H 0.07417 0.49491 0.16489 0.0
H328 H 0.05842 0.46237 0.21104 0.0
C329 C 0.03877 0.45166 0.26633 0.0
C330 C 0.03409 0.49086 0.26462 0.0
C331 C 0.04334 0.50938 0.23746 0.0
C332 C 0.04014 0.54704 0.23611 0.0
C333 C 0.04938 0.56492 0.20871 0.0
C334 C 0.06161 0.54616 0.18338 0.0
C335 C 0.06475 0.50936 0.18467 0.0
C336 C 0.05569 0.49102 0.21131 0.0
H337 H 0.0815 0.61216 0.26764 0.0
C338 C 0.0557 0.62505 0.26668 0.0
H339 H -4e-05 0.61764 0.26202 0.0
H340 H 0.01894 0.46451 0.32199 0.0
H341 H -0.00296 0.49778 0.36526 0.0
H342 H -0.01196 0.56259 0.36175 0.0
H343 H 0.00146 0.59446 0.31494 0.0
C344 C 0.02611 0.60543 0.26154 0.0
C345 C 0.02763 0.56598 0.26188 0.0
C346 C 0.01801 0.5475 0.28895 0.0
C347 C 0.02202 0.50999 0.29061 0.0
C348 C 0.01482 0.49267 0.31877 0.0
C349 C 0.00255 0.51155 0.34401 0.0
C350 C -0.00243 0.54802 0.34207 0.0
C351 C 0.00534 0.56597 0.315 0.0
H352 H 0.12348 0.25927 0.24888 0.0
C353 C 0.11784 0.24641 0.27064 0.0
H354 H 0.12842 0.20237 0.29888 0.0
H355 H 0.17007 0.10051 0.19064 0.0
H356 H 0.1143 0.07407 0.20833 0.0
H357 H 0.07748 0.1041 0.2472 0.0
H358 H 0.09637 0.16058 0.26878 0.0
C359 C 0.13469 0.2162 0.27771 0.0
C360 C 0.1578 0.19802 0.25489 0.0
C361 C 0.1462 0.16508 0.24232 0.0
C362 C 0.16708 0.14813 0.21948 0.0
C363 C 0.15504 0.11496 0.20767 0.0
C364 C 0.12308 0.09937 0.21768 0.0
C365 C 0.10238 0.11624 0.23958 0.0
C366 C 0.11363 0.14869 0.25183 0.0
H367 H 0.26374 0.13439 0.21319 0.0
C368 C 0.25176 0.13067 0.1909 0.0
H369 H 0.20751 0.1414 0.16304 0.0
H370 H 0.1898 0.25879 0.27666 0.0
H371 H 0.2449 0.28612 0.25805 0.0
H372 H 0.2792 0.25863 0.21617 0.0
H373 H 0.25892 0.20335 0.19298 0.0
C374 C 0.2205 0.14623 0.18475 0.0
C375 C 0.19942 0.16425 0.20904 0.0
C376 C 0.21114 0.1971 0.22169 0.0
C377 C 0.19061 0.2137 0.24503 0.0
C378 C 0.20368 0.24571 0.25817 0.0
C379 C 0.23538 0.26156 0.24782 0.0
C380 C 0.25475 0.24602 0.22431 0.0
C381 C 0.2429 0.21419 0.21129 0.0
H382 H 0.92269 0.26966 0.71702 0.0
C383 C 0.93955 0.25325 0.70262 0.0
H384 H 0.95198 0.20135 0.68819 0.0
H385 H 0.84884 0.18007 0.81316 0.0
H386 H 0.89209 0.21675 0.84006 0.0
H387 H 0.94392 0.24328 0.81293 0.0
H388 H 0.95192 0.23456 0.75868 0.0
C389 C 0.93495 0.21764 0.70255 0.0
C390 C 0.90582 0.19914 0.72015 0.0
C391 C 0.90327 0.20229 0.75239 0.0
C392 C 0.87524 0.18433 0.76856 0.0
C393 C 0.87107 0.19098 0.80017 0.0
C394 C 0.8955 0.21229 0.81584 0.0
C395 C 0.92454 0.2274 0.80053 0.0
C396 C 0.92857 0.2225 0.76922 0.0
H397 H 0.8648 0.11477 0.79877 0.0
C398 C 0.8369 0.11464 0.79207 0.0
H399 H 0.79822 0.13701 0.76349 0.0
H400 H 0.90119 0.18906 0.65839 0.0
H401 H 0.8603 0.14929 0.63217 0.0
H402 H 0.81584 0.11332 0.66081 0.0
H403 H 0.81159 0.11735 0.71574 0.0
C404 C 0.82607 0.13716 0.77027 0.0
C405 C 0.85208 0.16027 0.75303 0.0
C406 C 0.85469 0.15703 0.72085 0.0
C407 C 0.88114 0.17692 0.7044 0.0
C408 C 0.88232 0.17393 0.67218 0.0
C409 C 0.85889 0.15128 0.65677 0.0
C410 C 0.83382 0.13109 0.67289 0.0
C411 C 0.83163 0.13378 0.70451 0.0
H412 H 0.93779 0.79042 0.25839 0.0
C413 C 0.95386 0.80922 0.27144 0.0
H414 H 0.96175 0.86281 0.28434 0.0
H415 H 0.854 0.87258 0.16374 0.0
H416 H 0.89988 0.84184 0.13503 0.0
H417 H 0.95411 0.82049 0.16043 0.0
H418 H 0.96216 0.82856 0.21466 0.0
C419 C 0.94577 0.844 0.27123 0.0
C420 C 0.91413 0.8581 0.25492 0.0
C421 C 0.91111 0.85505 0.22275 0.0
C422 C 0.88122 0.86981 0.20765 0.0
C423 C 0.87725 0.86379 0.17598 0.0
C424 C 0.90322 0.84592 0.15928 0.0
C425 C 0.93364 0.83373 0.17361 0.0
C426 C 0.93773 0.83824 0.20491 0.0
H427 H 0.86568 0.9397 0.18102 0.0
C428 C 0.83778 0.93651 0.18769 0.0
H429 H 0.80066 0.90825 0.21517 0.0
H430 H 0.91 0.86616 0.31692 0.0
H431 H 0.86557 0.89935 0.34507 0.0
H432 H 0.81675 0.92947 0.31838 0.0
H433 H 0.81174 0.92614 0.26351 0.0
C434 C 0.82841 0.91125 0.20808 0.0
C435 C 0.85612 0.89031 0.22426 0.0
C436 C 0.85884 0.89291 0.25644 0.0
C437 C 0.88759 0.8764 0.27178 0.0
C438 C 0.88923 0.87884 0.30399 0.0
C439 C 0.86382 0.89772 0.32049 0.0
C440 C 0.8363 0.91461 0.30546 0.0
C441 C 0.83373 0.91239 0.27386 0.0
H442 H 0.10082 0.86042 0.67145 0.0
C443 C 0.09673 0.8331 0.67907 0.0
H444 H 0.11294 0.79312 0.70947 0.0
H445 H 0.22694 0.93541 0.70937 0.0
H446 H 0.23769 0.9223 0.65615 0.0
H447 H 0.20738 0.87146 0.63123 0.0
H448 H 0.16498 0.83433 0.65933 0.0
C449 C 0.11713 0.82028 0.70156 0.0
C450 C 0.14275 0.84401 0.7183 0.0
C451 C 0.16981 0.86347 0.70236 0.0
C452 C 0.18951 0.89091 0.71743 0.0
C453 C 0.21309 0.91263 0.69987 0.0
C454 C 0.21925 0.90564 0.66909 0.0
C455 C 0.20203 0.87717 0.65502 0.0
C456 C 0.17754 0.85628 0.67133 0.0
H457 H 0.25573 0.91066 0.75585 0.0
C458 C 0.23874 0.92978 0.76734 0.0
H459 H 0.18613 0.94584 0.77683 0.0
H460 H 0.09511 0.80973 0.75657 0.0
H461 H 0.08886 0.81844 0.81096 0.0
H462 H 0.127 0.86194 0.83804 0.0
H463 H 0.17129 0.89742 0.81071 0.0
C464 C 0.20298 0.92658 0.76534 0.0
C465 C 0.18455 0.89656 0.74923 0.0
C466 C 0.15969 0.87492 0.76567 0.0
C467 C 0.13842 0.84904 0.75017 0.0
C468 C 0.11258 0.82922 0.76709 0.0
C469 C 0.10861 0.83398 0.79842 0.0
C470 C 0.13003 0.85851 0.81366 0.0
C471 C 0.15527 0.87882 0.79762 0.0
H472 H 0.83147 0.91846 0.81301 0.0
C473 C 0.81272 0.93368 0.79956 0.0
H474 H 0.79106 0.94071 0.75557 0.0
H475 H 0.95008 0.86734 0.73443 0.0
H476 H 0.97329 0.92503 0.75025 0.0
H477 H 0.93253 0.9723 0.7672 0.0
H478 H 0.86857 0.96192 0.76903 0.0
C479 C 0.80926 0.92601 0.76988 0.0
C480 C 0.83316 0.89926 0.75563 0.0
C481 C 0.87044 0.9065 0.75337 0.0
C482 C 0.89376 0.87998 0.74214 0.0
C483 C 0.93104 0.8871 0.74169 0.0
C484 C 0.94475 0.92002 0.75087 0.0
C485 C 0.92182 0.94656 0.76053 0.0
C486 C 0.88511 0.94009 0.76173 0.0
H487 H 0.90495 0.85692 0.67657 0.0
C488 C 0.91496 0.83241 0.68641 0.0
H489 H 0.91234 0.79829 0.7249 0.0
H490 H 0.76335 0.87703 0.7568 0.0
H491 H 0.74015 0.81989 0.73921 0.0
H492 H 0.78055 0.77478 0.71774 0.0
H493 H 0.84453 0.78638 0.71397 0.0
C494 C 0.90339 0.82265 0.7142 0.0
C495 C 0.87965 0.84716 0.7313 0.0
C496 C 0.8425 0.83991 0.73348 0.0
C497 C 0.81919 0.86602 0.74569 0.0
C498 C 0.78218 0.85813 0.74764 0.0
C499 C 0.76854 0.82549 0.73761 0.0
C500 C 0.7913 0.80008 0.7255 0.0
C501 C 0.8279 0.80707 0.72339 0.0
H502 H 0.21144 0.94859 0.17216 0.0
C503 C 0.2403 0.95067 0.17452 0.0
H504 H 0.28637 0.92766 0.19322 0.0
H505 H 0.19394 0.85992 0.30126 0.0
H506 H 0.24039 0.89261 0.32812 0.0
H507 H 0.28559 0.92819 0.2999 0.0
H508 H 0.28491 0.93093 0.2447 0.0
C509 C 0.25758 0.92588 0.19056 0.0
C510 C 0.23671 0.89773 0.20704 0.0
C511 C 0.23787 0.89621 0.23925 0.0
C512 C 0.21137 0.87635 0.25552 0.0
C513 C 0.21298 0.87526 0.28777 0.0
C514 C 0.23958 0.89375 0.30348 0.0
C515 C 0.26505 0.91375 0.28759 0.0
C516 C 0.2643 0.91514 0.25586 0.0
H517 H 0.1554 0.79133 0.24416 0.0
C518 C 0.14173 0.81091 0.2581 0.0
H519 H 0.13852 0.86464 0.27155 0.0
H520 H 0.23505 0.8852 0.14579 0.0
H521 H 0.18899 0.85229 0.11836 0.0
H522 H 0.13856 0.82385 0.14606 0.0
H523 H 0.13448 0.82701 0.20103 0.0
C524 C 0.15195 0.84534 0.25714 0.0
C525 C 0.18346 0.85867 0.23955 0.0
C526 C 0.18421 0.85761 0.2072 0.0
C527 C 0.21186 0.876 0.19104 0.0
C528 C 0.21351 0.87306 0.1589 0.0
C529 C 0.18744 0.85412 0.14296 0.0
C530 C 0.15915 0.83797 0.15857 0.0
C531 C 0.1573 0.83976 0.19028 0.0
H532 H 0.12492 0.26073 0.72052 0.0
C533 C 0.12325 0.25544 0.69621 0.0
H534 H 0.14369 0.22721 0.65854 0.0
H535 H 0.25992 0.1935 0.77007 0.0
H536 H 0.27417 0.25687 0.76983 0.0
H537 H 0.24081 0.29819 0.73726 0.0
H538 H 0.19275 0.27654 0.70502 0.0
C539 C 0.14558 0.23222 0.68289 0.0
C540 C 0.16806 0.20772 0.70091 0.0
C541 C 0.19658 0.2208 0.71902 0.0
C542 C 0.21632 0.19689 0.73732 0.0
C543 C 0.24418 0.2106 0.75572 0.0
C544 C 0.25268 0.24684 0.75571 0.0
C545 C 0.23387 0.27011 0.7374 0.0
C546 C 0.20619 0.25738 0.71915 0.0
H547 H 0.26477 0.11681 0.7293 0.0
C548 C 0.25202 0.11442 0.75157 0.0
H549 H 0.21224 0.13393 0.78151 0.0
H550 H 0.11585 0.17333 0.66779 0.0
H551 H 0.1035 0.10997 0.66677 0.0
H552 H 0.13868 0.06858 0.69774 0.0
H553 H 0.18646 0.09045 0.72993 0.0
C554 C 0.22478 0.13576 0.75912 0.0
C555 C 0.20801 0.16 0.73692 0.0
C556 C 0.18061 0.14669 0.71776 0.0
C557 C 0.16055 0.17056 0.69977 0.0
C558 C 0.13251 0.15654 0.68158 0.0
C559 C 0.12495 0.12014 0.68086 0.0
C560 C 0.14472 0.09685 0.69831 0.0
C561 C 0.17213 0.10981 0.71668 0.0
H562 H 0.92994 0.24721 0.25833 0.0
C563 C 0.93445 0.23846 0.28159 0.0
H564 H 0.91863 0.2035 0.31699 0.0
H565 H 0.79128 0.18865 0.21044 0.0
H566 H 0.77759 0.25046 0.22146 0.0
H567 H 0.81399 0.2852 0.25786 0.0
H568 H 0.8645 0.25853 0.28318 0.0
C569 C 0.91405 0.21228 0.29375 0.0
C570 C 0.88908 0.19081 0.27477 0.0
C571 C 0.8591 0.20662 0.26087 0.0
C572 C 0.83764 0.1864 0.24041 0.0
C573 C 0.80836 0.2029 0.22623 0.0
C574 C 0.80016 0.23827 0.23242 0.0
C575 C 0.82069 0.25784 0.25289 0.0
C576 C 0.84977 0.24231 0.2671 0.0
H577 H 0.79165 0.10263 0.24012 0.0
C578 C 0.8011 0.106 0.21679 0.0
H579 H 0.83611 0.13431 0.18709 0.0
H580 H 0.9432 0.15153 0.29935 0.0
H581 H 0.95522 0.08939 0.28969 0.0
H582 H 0.91753 0.05427 0.2546 0.0
H583 H 0.86761 0.08115 0.229 0.0
C584 C 0.82649 0.13056 0.21032 0.0
C585 C 0.84571 0.15033 0.23454 0.0
C586 C 0.87454 0.13398 0.24963 0.0
C587 C 0.89622 0.15423 0.26986 0.0
C588 C 0.92547 0.13745 0.28402 0.0
C589 C 0.93282 0.10174 0.27861 0.0
C590 C 0.91162 0.08198 0.25885 0.0
C591 C 0.88293 0.09778 0.24436 0.0
loop_
_geom_bond_atom_site_label_1
_geom_bond_atom_site_label_2
_geom_bond_distance
_geom_bond_site_symmetry_2
_ccdc_geom_bond_type
C0 O1 1.306 . S
C0 O3 1.160 1_565 S
O1 C0 1.306 . S
O1 Cd2 2.228 1_565 S
Cd2 O1 2.228 1_545 S
Cd2 O6 2.273 . S
Cd2 O10 2.277 . S
O3 C0 1.160 1_545 S
O3 Cd4 2.202 . S
Cd4 O3 2.202 . S
Cd4 O6 2.411 . S
Cd4 O7 2.333 . S
Cd4 O8 2.352 . S
Cd4 O12 2.277 . S
Cd4 O13 2.356 . S
C5 O10 1.209 . S
C5 O12 1.226 . S
O6 Cd2 2.273 . S
O6 Cd4 2.411 . S
O6 C9 1.320 . S
O7 Cd4 2.333 . S
O7 C9 1.214 . S
O8 Cd4 2.352 . S
O8 C11 1.258 . S
C9 O6 1.320 . S
C9 O7 1.214 . S
O10 Cd2 2.277 . S
O10 C5 1.209 . S
C11 O8 1.258 . S
C11 O13 1.282 . S
O12 Cd4 2.277 . S
O12 C5 1.226 . S
O13 Cd4 2.356 . S
O13 C11 1.282 . S
C14 O15 1.306 . S
C14 O17 1.160 . S
O15 C14 1.306 . S
O15 Cd16 2.228 . S
Cd16 O15 2.228 . S
Cd16 O20 2.273 . S
Cd16 O24 2.277 . S
O17 C14 1.160 . S
O17 Cd18 2.203 . S
Cd18 O17 2.203 . S
Cd18 O20 2.411 . S
Cd18 O21 2.333 . S
Cd18 O22 2.352 . S
Cd18 O26 2.277 . S
Cd18 O27 2.356 . S
C19 O24 1.209 . S
C19 O26 1.226 . S
O20 Cd16 2.273 . S
O20 Cd18 2.411 . S
O20 C23 1.320 . S
O21 Cd18 2.333 . S
O21 C23 1.214 . S
O22 Cd18 2.352 . S
O22 C25 1.258 . S
C23 O20 1.320 . S
C23 O21 1.214 . S
O24 Cd16 2.277 . S
O24 C19 1.209 . S
C25 O22 1.258 . S
C25 O27 1.282 . S
O26 Cd18 2.277 . S
O26 C19 1.226 . S
O27 Cd18 2.356 . S
O27 C25 1.282 . S
C28 O29 1.306 . S
C28 O31 1.160 . S
O29 C28 1.306 . S
O29 Cd30 2.228 . S
Cd30 O29 2.228 . S
Cd30 O34 2.273 . S
Cd30 O38 2.277 . S
O31 C28 1.160 . S
O31 Cd32 2.203 . S
Cd32 O31 2.203 . S
Cd32 O34 2.411 . S
Cd32 O35 2.333 . S
Cd32 O36 2.352 . S
Cd32 O40 2.277 . S
Cd32 O41 2.356 . S
C33 O38 1.209 . S
C33 O40 1.226 . S
O34 Cd30 2.273 . S
O34 Cd32 2.411 . S
O34 C37 1.320 . S
O35 Cd32 2.333 . S
O35 C37 1.214 . S
O36 Cd32 2.352 . S
O36 C39 1.258 . S
C37 O34 1.320 . S
C37 O35 1.214 . S
O38 Cd30 2.277 . S
O38 C33 1.209 . S
C39 O36 1.258 . S
C39 O41 1.282 . S
O40 Cd32 2.277 . S
O40 C33 1.226 . S
O41 Cd32 2.356 . S
O41 C39 1.282 . S
C42 O43 1.306 . S
C42 O45 1.160 1_655 S
O43 C42 1.306 . S
O43 Cd44 2.228 1_655 S
Cd44 O43 2.228 1_455 S
Cd44 O48 2.273 . S
Cd44 O52 2.277 . S
O45 C42 1.160 1_455 S
O45 Cd46 2.202 . S
Cd46 O45 2.202 . S
Cd46 O48 2.411 . S
Cd46 O49 2.333 . S
Cd46 O50 2.352 . S
Cd46 O54 2.277 . S
Cd46 O55 2.356 . S
C47 O52 1.209 . S
C47 O54 1.226 . S
O48 Cd44 2.273 . S
O48 Cd46 2.411 . S
O48 C51 1.320 . S
O49 Cd46 2.333 . S
O49 C51 1.214 . S
O50 Cd46 2.352 . S
O50 C53 1.258 . S
C51 O48 1.320 . S
C51 O49 1.214 . S
O52 Cd44 2.277 . S
O52 C47 1.209 . S
C53 O50 1.258 . S
C53 O55 1.282 . S
O54 Cd46 2.277 . S
O54 C47 1.226 . S
O55 Cd46 2.356 . S
O55 C53 1.282 . S
C56 O57 1.306 . S
C56 O59 1.160 . S
O57 C56 1.306 . S
O57 Cd58 2.228 . S
Cd58 O57 2.228 . S
Cd58 O62 2.273 . S
Cd58 O66 2.277 . S
O59 C56 1.160 . S
O59 Cd60 2.203 . S
Cd60 O59 2.203 . S
Cd60 O62 2.411 . S
Cd60 O63 2.333 . S
Cd60 O64 2.352 . S
Cd60 O68 2.277 . S
Cd60 O69 2.356 . S
C61 O66 1.209 . S
C61 O68 1.226 . S
O62 Cd58 2.273 . S
O62 Cd60 2.411 . S
O62 C65 1.320 . S
O63 Cd60 2.333 . S
O63 C65 1.214 . S
O64 Cd60 2.352 . S
O64 C67 1.258 . S
C65 O62 1.320 . S
C65 O63 1.214 . S
O66 Cd58 2.277 . S
O66 C61 1.209 . S
C67 O64 1.258 . S
C67 O69 1.282 . S
O68 Cd60 2.277 . S
O68 C61 1.226 . S
O69 Cd60 2.356 . S
O69 C67 1.282 . S
C70 O71 1.306 . S
C70 O73 1.160 1_655 S
O71 C70 1.306 . S
O71 Cd72 2.228 1_655 S
Cd72 O71 2.228 1_455 S
Cd72 O76 2.273 . S
Cd72 O80 2.277 . S
O73 C70 1.160 1_455 S
O73 Cd74 2.202 . S
Cd74 O73 2.202 . S
Cd74 O76 2.411 . S
Cd74 O77 2.333 . S
Cd74 O78 2.352 . S
Cd74 O82 2.277 . S
Cd74 O83 2.356 . S
C75 O80 1.209 . S
C75 O82 1.226 . S
O76 Cd72 2.273 . S
O76 Cd74 2.411 . S
O76 C79 1.320 . S
O77 Cd74 2.333 . S
O77 C79 1.214 . S
O78 Cd74 2.352 . S
O78 C81 1.258 . S
C79 O76 1.320 . S
C79 O77 1.214 . S
O80 Cd72 2.277 . S
O80 C75 1.209 . S
C81 O78 1.258 . S
C81 O83 1.282 . S
O82 Cd74 2.277 . S
O82 C75 1.226 . S
O83 Cd74 2.356 . S
O83 C81 1.282 . S
C84 O85 1.306 . S
C84 O87 1.160 1_565 S
O85 C84 1.306 . S
O85 Cd86 2.228 1_565 S
Cd86 O85 2.228 1_545 S
Cd86 O90 2.273 . S
Cd86 O94 2.277 . S
O87 C84 1.160 1_545 S
O87 Cd88 2.202 . S
Cd88 O87 2.202 . S
Cd88 O90 2.411 . S
Cd88 O91 2.333 . S
Cd88 O92 2.352 . S
Cd88 O96 2.277 . S
Cd88 O97 2.356 . S
C89 O94 1.209 . S
C89 O96 1.226 . S
O90 Cd86 2.273 . S
O90 Cd88 2.411 . S
O90 C93 1.320 . S
O91 Cd88 2.333 . S
O91 C93 1.214 . S
O92 Cd88 2.352 . S
O92 C95 1.258 . S
C93 O90 1.320 . S
C93 O91 1.214 . S
O94 Cd86 2.277 . S
O94 C89 1.209 . S
C95 O92 1.258 . S
C95 O97 1.282 . S
O96 Cd88 2.277 . S
O96 C89 1.226 . S
O97 Cd88 2.356 . S
O97 C95 1.282 . S
C98 O99 1.306 . S
C98 O101 1.160 . S
O99 C98 1.306 . S
O99 Cd100 2.228 . S
Cd100 O99 2.228 . S
Cd100 O104 2.273 . S
Cd100 O108 2.277 . S
O101 C98 1.160 . S
O101 Cd102 2.203 . S
Cd102 O101 2.203 . S
Cd102 O104 2.411 . S
Cd102 O105 2.333 . S
Cd102 O106 2.352 . S
Cd102 O110 2.277 . S
Cd102 O111 2.356 . S
C103 O108 1.209 . S
C103 O110 1.226 . S
O104 Cd100 2.273 . S
O104 Cd102 2.411 . S
O104 C107 1.320 . S
O105 Cd102 2.333 . S
O105 C107 1.214 . S
O106 Cd102 2.352 . S
O106 C109 1.258 . S
C107 O104 1.320 . S
C107 O105 1.214 . S
O108 Cd100 2.277 . S
O108 C103 1.209 . S
C109 O106 1.258 . S
C109 O111 1.282 . S
O110 Cd102 2.277 . S
O110 C103 1.226 . S
O111 Cd102 2.356 . S
O111 C109 1.282 . S
H112 C113 0.951 . S
C113 H112 0.951 . S
C113 C119 1.265 . S
H114 C119 0.950 . S
H115 C123 0.949 . S
H116 C124 0.950 . S
H117 C125 0.951 . S
H118 C126 0.951 . S
C119 C113 1.265 . S
C119 H114 0.950 . S
C119 C120 1.478 . S
C120 C119 1.478 . S
C120 C121 1.397 . S
C120 C137 1.394 . S
C121 C120 1.397 . S
C121 C122 1.438 1_554 S
C121 C126 1.429 . S
C122 C121 1.438 1_556 S
C122 C123 1.428 . S
C122 C135 1.394 . S
C123 H115 0.949 . S
C123 C122 1.428 . S
C123 C124 1.345 . S
C124 H116 0.950 . S
C124 C123 1.345 . S
C124 C125 1.424 1_556 S
C125 H117 0.951 . S
C125 C124 1.424 1_554 S
C125 C126 1.347 . S
C126 H118 0.951 . S
C126 C121 1.429 . S
C126 C125 1.347 . S
H127 C128 0.951 . S
C128 H127 0.951 . S
C128 C134 1.265 . S
H129 C134 0.950 . S
H130 C138 0.949 . S
H131 C139 0.950 . S
H132 C140 0.951 . S
H133 C141 0.951 . S
C134 C128 1.265 . S
C134 H129 0.950 . S
C134 C135 1.478 . S
C135 C122 1.394 . S
C135 C134 1.478 . S
C135 C136 1.397 . S
C136 C135 1.397 . S
C136 C137 1.438 1_556 S
C136 C141 1.429 1_545 S
C137 C120 1.394 . S
C137 C136 1.438 1_554 S
C137 C138 1.428 1_545 S
C138 H130 0.949 . S
C138 C137 1.428 1_565 S
C138 C139 1.345 . S
C139 H131 0.950 . S
C139 C138 1.345 . S
C139 C140 1.424 1_554 S
C140 H132 0.951 . S
C140 C139 1.424 1_556 S
C140 C141 1.347 . S
C141 H133 0.951 . S
C141 C136 1.429 1_565 S
C141 C140 1.347 . S
H142 C143 0.951 . S
C143 H142 0.951 . S
C143 C149 1.265 . S
H144 C149 0.950 . S
H145 C153 0.949 . S
H146 C154 0.950 . S
H147 C155 0.951 . S
H148 C156 0.951 . S
C149 C143 1.265 . S
C149 H144 0.950 . S
C149 C150 1.478 . S
C150 C149 1.478 . S
C150 C151 1.397 . S
C150 C167 1.394 . S
C151 C150 1.397 . S
C151 C152 1.438 . S
C151 C156 1.429 1_455 S
C152 C151 1.438 . S
C152 C153 1.428 1_455 S
C152 C165 1.394 . S
C153 H145 0.949 . S
C153 C152 1.428 1_655 S
C153 C154 1.345 . S
C154 H146 0.950 . S
C154 C153 1.345 . S
C154 C155 1.424 . S
C155 H147 0.951 . S
C155 C154 1.424 . S
C155 C156 1.347 . S
C156 H148 0.951 . S
C156 C151 1.429 1_655 S
C156 C155 1.347 . S
H157 C158 0.951 . S
C158 H157 0.951 . S
C158 C164 1.265 . S
H159 C164 0.950 . S
H160 C168 0.949 . S
H161 C169 0.950 . S
H162 C170 0.951 . S
H163 C171 0.951 . S
C164 C158 1.265 . S
C164 H159 0.950 . S
C164 C165 1.478 . S
C165 C152 1.394 . S
C165 C164 1.478 . S
C165 C166 1.397 . S
C166 C165 1.397 . S
C166 C167 1.438 . S
C166 C171 1.429 . S
C167 C150 1.394 . S
C167 C166 1.438 . S
C167 C168 1.428 . S
C168 H160 0.949 . S
C168 C167 1.428 . S
C168 C169 1.345 . S
C169 H161 0.950 . S
C169 C168 1.345 . S
C169 C170 1.424 . S
C170 H162 0.951 . S
C170 C169 1.424 . S
C170 C171 1.347 . S
C171 H163 0.951 . S
C171 C166 1.429 . S
C171 C170 1.347 . S
H172 C173 0.951 . S
C173 H172 0.951 . S
C173 C179 1.265 . S
H174 C179 0.950 . S
H175 C183 0.949 . S
H176 C184 0.950 . S
H177 C185 0.951 . S
H178 C186 0.951 . S
C179 C173 1.265 . S
C179 H174 0.950 . S
C179 C180 1.478 . S
C180 C179 1.478 . S
C180 C181 1.397 . S
C180 C197 1.394 . S
C181 C180 1.397 . S
C181 C182 1.438 1_556 S
C181 C186 1.429 . S
C182 C181 1.438 1_554 S
C182 C183 1.428 . S
C182 C195 1.394 . S
C183 H175 0.949 . S
C183 C182 1.428 . S
C183 C184 1.345 . S
C184 H176 0.950 . S
C184 C183 1.345 . S
C184 C185 1.424 1_554 S
C185 H177 0.951 . S
C185 C184 1.424 1_556 S
C185 C186 1.347 . S
C186 H178 0.951 . S
C186 C181 1.429 . S
C186 C185 1.347 . S
H187 C188 0.951 . S
C188 H187 0.951 . S
C188 C194 1.265 . S
H189 C194 0.950 . S
H190 C198 0.949 . S
H191 C199 0.950 . S
H192 C200 0.951 . S
H193 C201 0.951 . S
C194 C188 1.265 . S
C194 H189 0.950 . S
C194 C195 1.478 . S
C195 C182 1.394 . S
C195 C194 1.478 . S
C195 C196 1.397 . S
C196 C195 1.397 . S
C196 C197 1.438 1_554 S
C196 C201 1.429 1_545 S
C197 C180 1.394 . S
C197 C196 1.438 1_556 S
C197 C198 1.428 1_545 S
C198 H190 0.949 . S
C198 C197 1.428 1_565 S
C198 C199 1.345 . S
C199 H191 0.950 . S
C199 C198 1.345 . S
C199 C200 1.424 1_556 S
C200 H192 0.951 . S
C200 C199 1.424 1_554 S
C200 C201 1.347 . S
C201 H193 0.951 . S
C201 C196 1.429 1_565 S
C201 C200 1.347 . S
H202 C203 0.951 . S
C203 H202 0.951 . S
C203 C209 1.265 . S
H204 C209 0.950 . S
H205 C213 0.949 . S
H206 C214 0.950 . S
H207 C215 0.943 1_655 S
H208 C216 0.951 . S
C209 C203 1.265 . S
C209 H204 0.950 . S
C209 C210 1.478 . S
C210 C209 1.478 . S
C210 C211 1.397 . S
C210 C227 1.394 . S
C211 C210 1.397 . S
C211 C212 1.438 . S
C211 C216 1.429 . S
C212 C211 1.438 . S
C212 C213 1.428 . S
C212 C225 1.394 . S
C213 H205 0.949 . S
C213 C212 1.428 . S
C213 C214 1.345 . S
C214 H206 0.950 . S
C214 C213 1.345 . S
C214 C215 1.424 . S
C215 H207 0.943 1_455 S
C215 C214 1.424 . S
C215 C216 1.347 . S
C216 H208 0.951 . S
C216 C211 1.429 . S
C216 C215 1.347 . S
H217 C218 0.951 . S
C218 H217 0.951 . S
C218 C224 1.265 . S
H219 C224 0.950 . S
H220 C228 0.949 . S
H221 C229 0.950 . S
H222 C230 0.951 . S
H223 C231 0.951 . S
C224 C218 1.265 . S
C224 H219 0.950 . S
C224 C225 1.478 . S
C225 C212 1.394 . S
C225 C224 1.478 . S
C225 C226 1.397 . S
C226 C225 1.397 . S
C226 C227 1.438 . S
C226 C231 1.429 . S
C227 C210 1.394 . S
C227 C226 1.438 . S
C227 C228 1.428 . S
C228 H220 0.949 . S
C228 C227 1.428 . S
C228 C229 1.345 . S
C229 H221 0.950 . S
C229 C228 1.345 . S
C229 C230 1.424 . S
C230 H222 0.951 . S
C230 C229 1.424 . S
C230 C231 1.347 . S
C231 H223 0.951 . S
C231 C226 1.429 . S
C231 C230 1.347 . S
H232 C233 0.951 . S
C233 H232 0.951 . S
C233 C239 1.265 . S
H234 C239 0.950 1_565 S
H235 C243 0.949 . S
H236 C244 0.950 . S
H237 C245 0.951 1_565 S
H238 C246 0.946 1_565 S
C239 C233 1.265 . S
C239 H234 0.950 1_545 S
C239 C240 1.478 . S
C240 C239 1.478 . S
C240 C241 1.397 . S
C240 C257 1.394 . S
C241 C240 1.397 . S
C241 C242 1.438 . S
C241 C246 1.429 . S
C242 C241 1.438 . S
C242 C243 1.428 . S
C242 C255 1.394 . S
C243 H235 0.949 . S
C243 C242 1.428 . S
C243 C244 1.345 . S
C244 H236 0.950 . S
C244 C243 1.345 . S
C244 C245 1.424 . S
C245 H237 0.951 1_545 S
C245 C244 1.424 . S
C245 C246 1.347 . S
C246 H238 0.946 1_545 S
C246 C241 1.429 . S
C246 C245 1.347 . S
H247 C248 0.951 . S
C248 H247 0.951 . S
C248 C254 1.265 . S
H249 C254 0.950 . S
H250 C258 0.949 . S
H251 C259 0.950 . S
H252 C260 0.951 . S
H253 C261 0.951 . S
C254 C248 1.265 . S
C254 H249 0.950 . S
C254 C255 1.478 . S
C255 C242 1.394 . S
C255 C254 1.478 . S
C255 C256 1.397 . S
C256 C255 1.397 . S
C256 C257 1.438 . S
C256 C261 1.429 . S
C257 C240 1.394 . S
C257 C256 1.438 . S
C257 C258 1.428 . S
C258 H250 0.949 . S
C258 C257 1.428 . S
C258 C259 1.345 . S
C259 H251 0.950 . S
C259 C258 1.345 . S
C259 C260 1.424 . S
C260 H252 0.951 . S
C260 C259 1.424 . S
C260 C261 1.347 . S
C261 H253 0.951 . S
C261 C256 1.429 . S
C261 C260 1.347 . S
H262 C263 0.951 . S
C263 H262 0.951 . S
C263 C269 1.265 . S
H264 C269 0.950 . S
H265 C273 0.949 . S
H266 C274 0.950 . S
H267 C275 0.951 . S
H268 C276 0.951 . S
C269 C263 1.265 . S
C269 H264 0.950 . S
C269 C270 1.478 . S
C270 C269 1.478 . S
C270 C271 1.397 . S
C270 C287 1.394 . S
C271 C270 1.397 . S
C271 C272 1.438 . S
C271 C276 1.429 . S
C272 C271 1.438 . S
C272 C273 1.428 . S
C272 C285 1.394 . S
C273 H265 0.949 . S
C273 C272 1.428 . S
C273 C274 1.345 . S
C274 H266 0.950 . S
C274 C273 1.345 . S
C274 C275 1.424 . S
C275 H267 0.951 . S
C275 C274 1.424 . S
C275 C276 1.347 . S
C276 H268 0.951 . S
C276 C271 1.429 . S
C276 C275 1.347 . S
H277 C278 0.951 1_655 S
C278 H277 0.951 1_455 S
C278 C284 1.265 . S
H279 C284 0.950 . S
H280 C288 0.949 . S
H281 C289 0.950 . S
H282 C290 0.951 . S
H283 C291 0.951 . S
C284 C278 1.265 . S
C284 H279 0.950 . S
C284 C285 1.478 . S
C285 C272 1.394 . S
C285 C284 1.478 . S
C285 C286 1.397 . S
C286 C285 1.397 . S
C286 C287 1.438 . S
C286 C291 1.429 . S
C287 C270 1.394 . S
C287 C286 1.438 . S
C287 C288 1.428 . S
C288 H280 0.949 . S
C288 C287 1.428 . S
C288 C289 1.345 . S
C289 H281 0.950 . S
C289 C288 1.345 . S
C289 C290 1.424 . S
C290 H282 0.951 . S
C290 C289 1.424 . S
C290 C291 1.347 . S
C291 H283 0.951 . S
C291 C286 1.429 . S
C291 C290 1.347 . S
H292 C293 0.951 . S
C293 H292 0.951 . S
C293 C299 1.265 . S
H294 C299 0.950 1_565 S
H295 C303 0.949 . S
H296 C304 0.950 . S
H297 C305 0.951 . S
H298 C306 0.951 . S
C299 C293 1.265 . S
C299 H294 0.950 1_545 S
C299 C300 1.478 . S
C300 C299 1.478 . S
C300 C301 1.397 . S
C300 C317 1.394 . S
C301 C300 1.397 . S
C301 C302 1.438 . S
C301 C306 1.429 1_545 S
C302 C301 1.438 . S
C302 C303 1.428 . S
C302 C315 1.394 . S
C303 H295 0.949 . S
C303 C302 1.428 . S
C303 C304 1.345 1_545 S
C304 H296 0.950 . S
C304 C303 1.345 1_565 S
C304 C305 1.424 . S
C305 H297 0.951 . S
C305 C304 1.424 . S
C305 C306 1.347 . S
C306 H298 0.951 . S
C306 C301 1.429 1_565 S
C306 C305 1.347 . S
H307 C308 0.951 . S
C308 H307 0.951 . S
C308 C314 1.265 . S
H309 C314 0.950 . S
H310 C318 0.949 . S
H311 C319 0.950 . S
H312 C320 0.951 . S
H313 C321 0.951 . S
C314 C308 1.265 . S
C314 H309 0.950 . S
C314 C315 1.478 . S
C315 C302 1.394 . S
C315 C314 1.478 . S
C315 C316 1.397 . S
C316 C315 1.397 . S
C316 C317 1.438 . S
C316 C321 1.429 . S
C317 C300 1.394 . S
C317 C316 1.438 . S
C317 C318 1.428 . S
C318 H310 0.949 . S
C318 C317 1.428 . S
C318 C319 1.345 . S
C319 H311 0.950 . S
C319 C318 1.345 . S
C319 C320 1.424 . S
C320 H312 0.951 . S
C320 C319 1.424 . S
C320 C321 1.347 . S
C321 H313 0.951 . S
C321 C316 1.429 . S
C321 C320 1.347 . S
H322 C323 0.951 . S
C323 H322 0.951 . S
C323 C329 1.265 . S
H324 C329 0.950 . S
H325 C333 0.949 . S
H326 C334 0.950 . S
H327 C335 0.951 . S
H328 C336 0.951 . S
C329 C323 1.265 . S
C329 H324 0.950 . S
C329 C330 1.478 . S
C330 C329 1.478 . S
C330 C331 1.397 . S
C330 C347 1.394 . S
C331 C330 1.397 . S
C331 C332 1.438 . S
C331 C336 1.429 . S
C332 C331 1.438 . S
C332 C333 1.428 . S
C332 C345 1.394 . S
C333 H325 0.949 . S
C333 C332 1.428 . S
C333 C334 1.345 . S
C334 H326 0.950 . S
C334 C333 1.345 . S
C334 C335 1.424 . S
C335 H327 0.951 . S
C335 C334 1.424 . S
C335 C336 1.347 . S
C336 H328 0.951 . S
C336 C331 1.429 . S
C336 C335 1.347 . S
H337 C338 0.951 . S
C338 H337 0.951 . S
C338 C344 1.265 . S
H339 C344 0.950 . S
H340 C348 0.949 . S
H341 C349 0.950 . S
H342 C350 0.951 . S
H343 C351 0.951 . S
C344 C338 1.265 . S
C344 H339 0.950 . S
C344 C345 1.478 . S
C345 C332 1.394 . S
C345 C344 1.478 . S
C345 C346 1.397 . S
C346 C345 1.397 . S
C346 C347 1.438 . S
C346 C351 1.429 1_455 S
C347 C330 1.394 . S
C347 C346 1.438 . S
C347 C348 1.428 1_455 S
C348 H340 0.949 . S
C348 C347 1.428 1_655 S
C348 C349 1.345 . S
C349 H341 0.950 . S
C349 C348 1.345 . S
C349 C350 1.424 . S
C350 H342 0.951 . S
C350 C349 1.424 . S
C350 C351 1.347 . S
C351 H343 0.951 . S
C351 C346 1.429 1_655 S
C351 C350 1.347 . S
H352 C353 0.951 . S
C353 H352 0.951 . S
C353 C359 1.265 . S
H354 C359 0.950 . S
H355 C363 0.949 . S
H356 C364 0.950 . S
H357 C365 0.951 . S
H358 C366 0.951 . S
C359 C353 1.265 . S
C359 H354 0.950 . S
C359 C360 1.478 . S
C360 C359 1.478 . S
C360 C361 1.397 . S
C360 C377 1.394 . S
C361 C360 1.397 . S
C361 C362 1.438 . S
C361 C366 1.429 . S
C362 C361 1.438 . S
C362 C363 1.428 . S
C362 C375 1.394 . S
C363 H355 0.949 . S
C363 C362 1.428 . S
C363 C364 1.345 . S
C364 H356 0.950 . S
C364 C363 1.345 . S
C364 C365 1.424 . S
C365 H357 0.951 . S
C365 C364 1.424 . S
C365 C366 1.347 . S
C366 H358 0.951 . S
C366 C361 1.429 . S
C366 C365 1.347 . S
H367 C368 0.951 . S
C368 H367 0.951 . S
C368 C374 1.265 . S
H369 C374 0.950 . S
H370 C378 0.949 . S
H371 C379 0.950 . S
H372 C380 0.951 . S
H373 C381 0.951 . S
C374 C368 1.265 . S
C374 H369 0.950 . S
C374 C375 1.478 . S
C375 C362 1.394 . S
C375 C374 1.478 . S
C375 C376 1.397 . S
C376 C375 1.397 . S
C376 C377 1.438 . S
C376 C381 1.429 . S
C377 C360 1.394 . S
C377 C376 1.438 . S
C377 C378 1.428 . S
C378 H370 0.949 . S
C378 C377 1.428 . S
C378 C379 1.345 . S
C379 H371 0.950 . S
C379 C378 1.345 . S
C379 C380 1.424 . S
C380 H372 0.951 . S
C380 C379 1.424 . S
C380 C381 1.347 . S
C381 H373 0.951 . S
C381 C376 1.429 . S
C381 C380 1.347 . S
H382 C383 0.951 . S
C383 H382 0.951 . S
C383 C389 1.265 . S
H384 C389 0.950 . S
H385 C393 0.949 . S
H386 C394 0.950 . S
H387 C395 0.951 . S
H388 C396 0.951 . S
C389 C383 1.265 . S
C389 H384 0.950 . S
C389 C390 1.478 . S
C390 C389 1.478 . S
C390 C391 1.397 . S
C390 C407 1.394 . S
C391 C390 1.397 . S
C391 C392 1.438 . S
C391 C396 1.429 . S
C392 C391 1.438 . S
C392 C393 1.428 . S
C392 C405 1.394 . S
C393 H385 0.949 . S
C393 C392 1.428 . S
C393 C394 1.345 . S
C394 H386 0.950 . S
C394 C393 1.345 . S
C394 C395 1.424 . S
C395 H387 0.951 . S
C395 C394 1.424 . S
C395 C396 1.347 . S
C396 H388 0.951 . S
C396 C391 1.429 . S
C396 C395 1.347 . S
H397 C398 0.951 . S
C398 H397 0.951 . S
C398 C404 1.265 . S
H399 C404 0.950 . S
H400 C408 0.949 . S
H401 C409 0.950 . S
H402 C410 0.951 . S
H403 C411 0.951 . S
C404 C398 1.265 . S
C404 H399 0.950 . S
C404 C405 1.478 . S
C405 C392 1.394 . S
C405 C404 1.478 . S
C405 C406 1.397 . S
C406 C405 1.397 . S
C406 C407 1.438 . S
C406 C411 1.429 . S
C407 C390 1.394 . S
C407 C406 1.438 . S
C407 C408 1.428 . S
C408 H400 0.949 . S
C408 C407 1.428 . S
C408 C409 1.345 . S
C409 H401 0.950 . S
C409 C408 1.345 . S
C409 C410 1.424 . S
C410 H402 0.951 . S
C410 C409 1.424 . S
C410 C411 1.347 . S
C411 H403 0.951 . S
C411 C406 1.429 . S
C411 C410 1.347 . S
H412 C413 0.951 . S
C413 H412 0.951 . S
C413 C419 1.265 . S
H414 C419 0.950 . S
H415 C423 0.949 . S
H416 C424 0.950 . S
H417 C425 0.951 1_455 S
H418 C426 0.951 . S
C419 C413 1.265 . S
C419 H414 0.950 . S
C419 C420 1.478 . S
C420 C419 1.478 . S
C420 C421 1.397 . S
C420 C437 1.394 . S
C421 C420 1.397 . S
C421 C422 1.438 . S
C421 C426 1.429 . S
C422 C421 1.438 . S
C422 C423 1.428 . S
C422 C435 1.394 . S
C423 H415 0.949 . S
C423 C422 1.428 . S
C423 C424 1.345 . S
C424 H416 0.950 . S
C424 C423 1.345 . S
C424 C425 1.424 . S
C425 H417 0.951 1_655 S
C425 C424 1.424 . S
C425 C426 1.347 . S
C426 H418 0.951 . S
C426 C421 1.429 . S
C426 C425 1.347 . S
H427 C428 0.951 . S
C428 H427 0.951 . S
C428 C434 1.265 . S
H429 C434 0.950 . S
H430 C438 0.949 . S
H431 C439 0.950 . S
H432 C440 0.951 . S
H433 C441 0.951 . S
C434 C428 1.265 . S
C434 H429 0.950 . S
C434 C435 1.478 . S
C435 C422 1.394 . S
C435 C434 1.478 . S
C435 C436 1.397 . S
C436 C435 1.397 . S
C436 C437 1.438 . S
C436 C441 1.429 . S
C437 C420 1.394 . S
C437 C436 1.438 . S
C437 C438 1.428 . S
C438 H430 0.949 . S
C438 C437 1.428 . S
C438 C439 1.345 . S
C439 H431 0.950 . S
C439 C438 1.345 . S
C439 C440 1.424 . S
C440 H432 0.951 . S
C440 C439 1.424 . S
C440 C441 1.347 . S
C441 H433 0.951 . S
C441 C436 1.429 . S
C441 C440 1.347 . S
H442 C443 0.951 . S
C443 H442 0.951 . S
C443 C449 1.265 . S
H444 C449 0.950 . S
H445 C453 0.949 . S
H446 C454 0.950 . S
H447 C455 0.951 . S
H448 C456 0.951 . S
C449 C443 1.265 . S
C449 H444 0.950 . S
C449 C450 1.478 . S
C450 C449 1.478 . S
C450 C451 1.397 . S
C450 C467 1.394 . S
C451 C450 1.397 . S
C451 C452 1.438 . S
C451 C456 1.429 . S
C452 C451 1.438 . S
C452 C453 1.428 . S
C452 C465 1.394 . S
C453 H445 0.949 . S
C453 C452 1.428 . S
C453 C454 1.345 . S
C454 H446 0.950 . S
C454 C453 1.345 . S
C454 C455 1.424 . S
C455 H447 0.951 . S
C455 C454 1.424 . S
C455 C456 1.347 . S
C456 H448 0.951 . S
C456 C451 1.429 . S
C456 C455 1.347 . S
H457 C458 0.951 . S
C458 H457 0.951 . S
C458 C464 1.265 . S
H459 C464 0.950 . S
H460 C468 0.949 . S
H461 C469 0.950 . S
H462 C470 0.951 . S
H463 C471 0.951 . S
C464 C458 1.265 . S
C464 H459 0.950 . S
C464 C465 1.478 . S
C465 C452 1.394 . S
C465 C464 1.478 . S
C465 C466 1.397 . S
C466 C465 1.397 . S
C466 C467 1.438 . S
C466 C471 1.429 . S
C467 C450 1.394 . S
C467 C466 1.438 . S
C467 C468 1.428 . S
C468 H460 0.949 . S
C468 C467 1.428 . S
C468 C469 1.345 . S
C469 H461 0.950 . S
C469 C468 1.345 . S
C469 C470 1.424 . S
C470 H462 0.951 . S
C470 C469 1.424 . S
C470 C471 1.347 . S
C471 H463 0.951 . S
C471 C466 1.429 . S
C471 C470 1.347 . S
H472 C473 0.951 . S
C473 H472 0.951 . S
C473 C479 1.265 . S
H474 C479 0.950 . S
H475 C483 0.949 . S
H476 C484 0.970 . S
H477 C485 0.951 . S
H478 C486 0.951 . S
C479 C473 1.265 . S
C479 H474 0.950 . S
C479 C480 1.478 . S
C480 C479 1.478 . S
C480 C481 1.397 . S
C480 C497 1.394 . S
C481 C480 1.397 . S
C481 C482 1.438 . S
C481 C486 1.429 . S
C482 C481 1.438 . S
C482 C483 1.428 . S
C482 C495 1.394 . S
C483 H475 0.949 . S
C483 C482 1.428 . S
C483 C484 1.345 . S
C484 H476 0.970 . S
C484 C483 1.345 . S
C484 C485 1.424 . S
C485 H477 0.951 . S
C485 C484 1.424 . S
C485 C486 1.347 . S
C486 H478 0.951 . S
C486 C481 1.429 . S
C486 C485 1.347 . S
H487 C488 0.951 . S
C488 H487 0.951 . S
C488 C494 1.265 . S
H489 C494 0.950 . S
H490 C498 0.949 . S
H491 C499 0.950 . S
H492 C500 0.951 . S
H493 C501 0.951 . S
C494 C488 1.265 . S
C494 H489 0.950 . S
C494 C495 1.478 . S
C495 C482 1.394 . S
C495 C494 1.478 . S
C495 C496 1.397 . S
C496 C495 1.397 . S
C496 C497 1.438 . S
C496 C501 1.429 . S
C497 C480 1.394 . S
C497 C496 1.438 . S
C497 C498 1.428 . S
C498 H490 0.949 . S
C498 C497 1.428 . S
C498 C499 1.345 . S
C499 H491 0.950 . S
C499 C498 1.345 . S
C499 C500 1.424 . S
C500 H492 0.951 . S
C500 C499 1.424 . S
C500 C501 1.347 . S
C501 H493 0.951 . S
C501 C496 1.429 . S
C501 C500 1.347 . S
H502 C503 0.951 . S
C503 H502 0.951 . S
C503 C509 1.265 . S
H504 C509 0.950 . S
H505 C513 0.949 . S
H506 C514 0.950 . S
H507 C515 0.951 . S
H508 C516 0.951 . S
C509 C503 1.265 . S
C509 H504 0.950 . S
C509 C510 1.478 . S
C510 C509 1.478 . S
C510 C511 1.397 . S
C510 C527 1.394 . S
C511 C510 1.397 . S
C511 C512 1.438 . S
C511 C516 1.429 . S
C512 C511 1.438 . S
C512 C513 1.428 . S
C512 C525 1.394 . S
C513 H505 0.949 . S
C513 C512 1.428 . S
C513 C514 1.345 . S
C514 H506 0.950 . S
C514 C513 1.345 . S
C514 C515 1.424 . S
C515 H507 0.951 . S
C515 C514 1.424 . S
C515 C516 1.347 . S
C516 H508 0.951 . S
C516 C511 1.429 . S
C516 C515 1.347 . S
H517 C518 0.951 . S
C518 H517 0.951 . S
C518 C524 1.265 . S
H519 C524 0.950 . S
H520 C528 0.949 . S
H521 C529 0.950 . S
H522 C530 0.951 . S
H523 C531 0.951 . S
C524 C518 1.265 . S
C524 H519 0.950 . S
C524 C525 1.478 . S
C525 C512 1.394 . S
C525 C524 1.478 . S
C525 C526 1.397 . S
C526 C525 1.397 . S
C526 C527 1.438 . S
C526 C531 1.429 . S
C527 C510 1.394 . S
C527 C526 1.438 . S
C527 C528 1.428 . S
C528 H520 0.949 . S
C528 C527 1.428 . S
C528 C529 1.345 . S
C529 H521 0.950 . S
C529 C528 1.345 . S
C529 C530 1.424 . S
C530 H522 0.951 . S
C530 C529 1.424 . S
C530 C531 1.347 . S
C531 H523 0.951 . S
C531 C526 1.429 . S
C531 C530 1.347 . S
H532 C533 0.951 . S
C533 H532 0.951 . S
C533 C539 1.265 . S
H534 C539 0.950 . S
H535 C543 0.949 . S
H536 C544 0.950 . S
H537 C545 0.951 . S
H538 C546 0.951 . S
C539 C533 1.265 . S
C539 H534 0.950 . S
C539 C540 1.478 . S
C540 C539 1.478 . S
C540 C541 1.397 . S
C540 C557 1.394 . S
C541 C540 1.397 . S
C541 C542 1.438 . S
C541 C546 1.429 . S
C542 C541 1.438 . S
C542 C543 1.428 . S
C542 C555 1.394 . S
C543 H535 0.949 . S
C543 C542 1.428 . S
C543 C544 1.345 . S
C544 H536 0.950 . S
C544 C543 1.345 . S
C544 C545 1.424 . S
C545 H537 0.951 . S
C545 C544 1.424 . S
C545 C546 1.347 . S
C546 H538 0.951 . S
C546 C541 1.429 . S
C546 C545 1.347 . S
H547 C548 0.951 . S
C548 H547 0.951 . S
C548 C554 1.265 . S
H549 C554 0.950 . S
H550 C558 0.949 . S
H551 C559 0.950 . S
H552 C560 0.951 . S
H553 C561 0.951 . S
C554 C548 1.265 . S
C554 H549 0.950 . S
C554 C555 1.478 . S
C555 C542 1.394 . S
C555 C554 1.478 . S
C555 C556 1.397 . S
C556 C555 1.397 . S
C556 C557 1.438 . S
C556 C561 1.429 . S
C557 C540 1.394 . S
C557 C556 1.438 . S
C557 C558 1.428 . S
C558 H550 0.949 . S
C558 C557 1.428 . S
C558 C559 1.345 . S
C559 H551 0.950 . S
C559 C558 1.345 . S
C559 C560 1.424 . S
C560 H552 0.951 . S
C560 C559 1.424 . S
C560 C561 1.347 . S
C561 H553 0.951 . S
C561 C556 1.429 . S
C561 C560 1.347 . S
H562 C563 0.951 . S
C563 H562 0.951 . S
C563 C569 1.265 . S
H564 C569 0.950 . S
H565 C573 0.949 . S
H566 C574 0.950 . S
H567 C575 0.951 . S
H568 C576 0.951 . S
C569 C563 1.265 . S
C569 H564 0.950 . S
C569 C570 1.478 . S
C570 C569 1.478 . S
C570 C571 1.397 . S
C570 C587 1.394 . S
C571 C570 1.397 . S
C571 C572 1.438 . S
C571 C576 1.429 . S
C572 C571 1.438 . S
C572 C573 1.428 . S
C572 C585 1.394 . S
C573 H565 0.949 . S
C573 C572 1.428 . S
C573 C574 1.345 . S
C574 H566 0.950 . S
C574 C573 1.345 . S
C574 C575 1.424 . S
C575 H567 0.951 . S
C575 C574 1.424 . S
C575 C576 1.347 . S
C576 H568 0.951 . S
C576 C571 1.429 . S
C576 C575 1.347 . S
H577 C578 0.951 . S
C578 H577 0.951 . S
C578 C584 1.265 . S
H579 C584 0.950 . S
H580 C588 0.949 . S
H581 C589 0.950 . S
H582 C590 0.951 . S
H583 C591 0.951 . S
C584 C578 1.265 . S
C584 H579 0.950 . S
C584 C585 1.478 . S
C585 C572 1.394 . S
C585 C584 1.478 . S
C585 C586 1.397 . S
C586 C585 1.397 . S
C586 C587 1.438 . S
C586 C591 1.429 . S
C587 C570 1.394 . S
C587 C586 1.438 . S
C587 C588 1.428 . S
C588 H580 0.949 . S
C588 C587 1.428 . S
C588 C589 1.345 . S
C589 H581 0.950 . S
C589 C588 1.345 . S
C589 C590 1.424 . S
C590 H582 0.951 . S
C590 C589 1.424 . S
C590 C591 1.347 . S
C591 H583 0.951 . S
C591 C586 1.429 . S
C591 C590 1.347 . S
C113 C9 1.556 . S
C128 C65 1.580 . S
C143 C23 1.557 . S
C158 C79 1.581 . S
C173 C93 1.555 . S
C188 C37 1.580 . S
C203 C107 1.561 . S
C218 C51 1.560 . S
C233 C11 1.195 . S
C248 C39 1.194 . S
C263 C25 1.279 . S
C278 C53 1.288 . S
C293 C95 1.191 . S
C308 C67 1.200 . S
C323 C81 1.277 . S
C338 C109 1.247 . S
C353 C75 1.526 . S
C368 C5 1.513 . S
C383 C19 1.533 1_655 S
C398 C89 1.518 . S
C413 C103 1.530 1_655 S
C428 C33 1.515 1_565 S
C443 C47 1.515 . S
C458 C61 1.530 1_565 S
C473 C84 1.084 . S
C488 C42 1.012 . S
C503 C0 1.027 . S
C518 C98 1.038 . S
C533 C14 1.077 . S
C548 C56 1.145 . S
C563 C70 1.060 . S
C578 C28 1.142 . S
