# Generated by pormake.
# Topology bcg, (8)-cn, num edge types: 1
# Building blocks:
#     Node 0, Type 0, BuildingBlock: TAGTUT_clean_sbu_1, # of connection points: 8
#     Node 1, Type 0, BuildingBlock: TAGTUT_clean_sbu_1, # of connection points: 8
#     Node 2, Type 0, BuildingBlock: TAGTUT_clean_sbu_1, # of connection points: 8
#     Node 3, Type 0, BuildingBlock: TAGTUT_clean_sbu_1, # of connection points: 8
#     Edge 4, Type (0, 0), BuildingBlock: ZUJKAS_clean_linker_0, # of connection points: 2
#     Edge 5, Type (0, 0), BuildingBlock: ZUJKAS_clean_linker_0, # of connection points: 2
#     Edge 6, Type (0, 0), BuildingBlock: ZUJKAS_clean_linker_0, # of connection points: 2
#     Edge 7, Type (0, 0), BuildingBlock: ZUJKAS_clean_linker_0, # of connection points: 2
#     Edge 8, Type (0, 0), BuildingBlock: ZUJKAS_clean_linker_0, # of connection points: 2
#     Edge 9, Type (0, 0), BuildingBlock: ZUJKAS_clean_linker_0, # of connection points: 2
#     Edge 10, Type (0, 0), BuildingBlock: ZUJKAS_clean_linker_0, # of connection points: 2
#     Edge 11, Type (0, 0), BuildingBlock: ZUJKAS_clean_linker_0, # of connection points: 2
#     Edge 12, Type (0, 0), BuildingBlock: ZUJKAS_clean_linker_0, # of connection points: 2
#     Edge 13, Type (0, 0), BuildingBlock: ZUJKAS_clean_linker_0, # of connection points: 2
#     Edge 14, Type (0, 0), BuildingBlock: ZUJKAS_clean_linker_0, # of connection points: 2
#     Edge 15, Type (0, 0), BuildingBlock: ZUJKAS_clean_linker_0, # of connection points: 2
#     Edge 16, Type (0, 0), BuildingBlock: ZUJKAS_clean_linker_0, # of connection points: 2
#     Edge 17, Type (0, 0), BuildingBlock: ZUJKAS_clean_linker_0, # of connection points: 2
#     Edge 18, Type (0, 0), BuildingBlock: ZUJKAS_clean_linker_0, # of connection points: 2
#     Edge 19, Type (0, 0), BuildingBlock: ZUJKAS_clean_linker_0, # of connection points: 2
# Relax obj value: 0.095
# Max RMSD: 0.201
# Mean RMSD: 0.201
data_MOF--net-bcg--node1-TAGTUT_clean_sbu_1--edge1-ZUJKAS_clean_linker_0
_symmetry_space_group_name_H-M    P1
_symmetry_Int_Tables_number       1
_symmetry_cell_setting            triclinic
loop_
_symmetry_equiv_pos_as_xyz
'x, y, z'
_cell_length_a     19.402755
_cell_length_b     35.106818
_cell_length_c     40.839155
_cell_angle_alpha  85.174318
_cell_angle_beta   89.991982
_cell_angle_gamma 89.978635
loop_
_atom_site_label
_atom_site_type_symbol
_atom_site_fract_x
_atom_site_fract_y
_atom_site_fract_z
_atom_type_partial_charge
C0 C 0.23571 0.23939 0.12912 0.0
C1 C 0.41461 0.25603 0.06979 0.0
C2 C 0.27026 0.34324 0.9848 0.0
Mg3 Mg 0.29129 0.20155 0.06836 0.0
O4 O 0.23971 0.24072 0.04628 0.0
Mg5 Mg 0.25532 0.29446 0.0576 0.0
Mg6 Mg 0.25054 0.24951 -0.00228 0.0
O7 O 0.26148 0.25841 0.94919 0.0
Mg8 Mg 0.20838 0.29738 0.92799 0.0
Mg9 Mg 0.24642 0.20483 0.93737 0.0
C10 C 0.23038 0.15589 0.01067 0.0
C11 C 0.3942 0.21216 0.97525 0.0
O12 O 0.23331 0.27167 0.11172 0.0
O13 O 0.25414 0.20835 0.11714 0.0
O14 O 0.37155 0.28382 0.06791 0.0
O15 O 0.39532 0.22157 0.06755 0.0
O16 O 0.25637 0.15504 0.03973 0.0
O17 O 0.22328 0.18752 0.99265 0.0
C18 C 0.10707 0.28684 0.02057 0.0
O19 O 0.13825 0.26865 -0.00101 0.0
O20 O 0.13889 0.29942 0.04509 0.0
O21 O 0.26822 0.22839 0.88299 0.0
O22 O 0.24431 0.2914 0.87911 0.0
O23 O 0.13003 0.21514 0.92643 0.0
C24 C 0.26384 0.26111 0.86628 0.0
O25 O 0.10482 0.27686 0.9292 0.0
O26 O 0.24314 0.34427 0.956 0.0
C27 C 0.08636 0.24262 0.92541 0.0
O28 O 0.27794 0.31151 0.00255 0.0
O29 O 0.36252 0.2303 0.99669 0.0
O30 O 0.36301 0.19989 0.9504 0.0
C31 C 0.73207 0.74473 0.13001 0.0
C32 C 0.9108 0.75791 0.07073 0.0
C33 C 0.76924 0.84487 0.98349 0.0
Mg34 Mg 0.78541 0.70478 0.06982 0.0
O35 O 0.7359 0.74402 0.04687 0.0
Mg36 Mg 0.75292 0.7979 0.05745 0.0
Mg37 Mg 0.7473 0.7516 -0.00182 0.0
O38 O 0.75878 0.75933 0.94945 0.0
Mg39 Mg 0.70641 0.79797 0.92722 0.0
Mg40 Mg 0.74319 0.70538 0.93874 0.0
C41 C 0.72471 0.65825 0.01273 0.0
C42 C 0.89097 0.71355 0.9764 0.0
O43 O 0.73102 0.77668 0.11209 0.0
O44 O 0.74844 0.71309 0.11847 0.0
O45 O 0.8691 0.78637 0.06845 0.0
O46 O 0.88997 0.72374 0.06843 0.0
O47 O 0.74973 0.65786 0.04195 0.0
O48 O 0.71901 0.68954 0.99413 0.0
C49 C 0.6043 0.79001 0.02043 0.0
O50 O 0.63522 0.77122 -0.00084 0.0
O51 O 0.63633 0.80307 0.0447 0.0
O52 O 0.7668 0.72712 0.88427 0.0
O53 O 0.73951 0.78982 0.87796 0.0
O54 O 0.62683 0.71619 0.92717 0.0
C55 C 0.76078 0.75901 0.86653 0.0
O56 O 0.60271 0.77807 0.93002 0.0
O57 O 0.74303 0.84526 0.95451 0.0
C58 C 0.58363 0.74393 0.92618 0.0
O59 O 0.77539 0.81356 0.00202 0.0
O60 O 0.85941 0.73219 -0.00245 0.0
O61 O 0.85955 0.7005 0.95198 0.0
C62 C 0.23682 0.7606 0.36612 0.0
C63 C 0.41505 0.74537 0.42615 0.0
C64 C 0.2682 0.66344 0.51368 0.0
Mg65 Mg 0.29341 0.80107 0.42543 0.0
O66 O 0.24027 0.76334 0.44842 0.0
Mg67 Mg 0.25411 0.70869 0.43929 0.0
Mg68 Mg 0.25096 0.75691 0.49702 0.0
O69 O 0.26165 0.75046 0.54557 0.0
Mg70 Mg 0.20731 0.71311 0.56843 0.0
Mg71 Mg 0.24977 0.80517 0.55495 0.0
C72 C 0.23232 0.85042 0.48039 0.0
C73 C 0.39429 0.79193 0.51706 0.0
O74 O 0.23306 0.72902 0.38448 0.0
O75 O 0.25637 0.79204 0.37703 0.0
O76 O 0.37096 0.71804 0.42815 0.0
O77 O 0.39707 0.78009 0.42833 0.0
O78 O 0.25845 0.8497 0.45149 0.0
O79 O 0.22543 0.81966 0.49956 0.0
C80 C 0.10831 0.72191 0.47634 0.0
O81 O 0.14263 0.74005 0.49664 0.0
O82 O 0.13709 0.70604 0.45254 0.0
O83 O 0.27256 0.78435 0.60954 0.0
O84 O 0.24634 0.72161 0.61653 0.0
O85 O 0.13389 0.79637 0.56746 0.0
C86 C 0.26793 0.75257 0.6276 0.0
O87 O 0.10374 0.73498 0.56657 0.0
O88 O 0.24115 0.66418 0.54239 0.0
C89 C 0.08828 0.76987 0.56973 0.0
O90 O 0.27622 0.69425 0.49472 0.0
O91 O 0.35939 0.77355 0.49717 0.0
O92 O 0.36623 0.80793 0.54094 0.0
C93 C 0.72333 0.26462 0.36537 0.0
C94 C 0.90312 0.2477 0.42309 0.0
C95 C 0.76723 0.16002 0.50963 0.0
Mg96 Mg 0.77982 0.30165 0.42644 0.0
O97 O 0.72861 0.26224 0.44828 0.0
Mg98 Mg 0.74483 0.20872 0.43648 0.0
Mg99 Mg 0.74194 0.25351 0.4967 0.0
O100 O 0.75563 0.2449 0.54508 0.0
Mg101 Mg 0.70855 0.20479 0.56825 0.0
Mg102 Mg 0.73892 0.2984 0.55669 0.0
C103 C 0.71919 0.34703 0.48406 0.0
C104 C 0.88519 0.2923 0.51777 0.0
O105 O 0.72077 0.2319 0.3822 0.0
O106 O 0.74194 0.29521 0.37798 0.0
O107 O 0.86004 0.21998 0.4249 0.0
O108 O 0.88411 0.28202 0.42623 0.0
O109 O 0.74507 0.3482 0.45498 0.0
O110 O 0.71278 0.31526 0.50191 0.0
C111 C 0.59861 0.21487 0.47569 0.0
O112 O 0.63064 0.2332 0.49689 0.0
O113 O 0.62911 0.2029 0.45053 0.0
O114 O 0.76444 0.27601 0.61062 0.0
O115 O 0.74974 0.21216 0.61614 0.0
O116 O 0.62402 0.28614 0.56857 0.0
C117 C 0.76595 0.24365 0.62793 0.0
O118 O 0.60365 0.22336 0.56947 0.0
O119 O 0.74379 0.15874 0.53918 0.0
C120 C 0.58271 0.25758 0.57156 0.0
O121 O 0.77058 0.19173 0.49145 0.0
O122 O 0.85344 0.27374 0.49663 0.0
O123 O 0.85433 0.30463 0.54266 0.0
H124 H 0.48755 0.23328 0.92752 0.0
H125 H 0.61109 0.24483 0.93541 0.0
H126 H 0.59382 0.20048 0.03681 0.0
H127 H 0.47109 0.18808 0.02868 0.0
H128 H 0.65831 0.29521 0.98113 0.0
H129 H 0.77139 0.15054 0.00688 0.0
H130 H 0.68862 0.15837 0.98723 0.0
H131 H 0.69653 0.15938 0.03099 0.0
C132 C 0.5108 0.22481 0.95114 0.0
C133 C 0.46995 0.21011 0.97764 0.0
C134 C 0.58108 0.23176 0.95573 0.0
C135 C 0.61161 0.22359 0.98673 0.0
C136 C 0.57155 0.20676 0.01264 0.0
H137 H 0.01667 0.2643 0.06915 0.0
H138 H 0.89277 0.25254 0.06279 0.0
C139 C 0.50136 0.20002 0.00809 0.0
C140 C 0.68333 0.23585 0.99284 0.0
H141 H 0.84194 0.20316 0.01818 0.0
C142 C 0.69864 0.27508 0.98901 0.0
C143 C 0.73554 0.2096 0.00354 0.0
C144 C 0.72259 0.16708 0.00716 0.0
C145 C 0.76463 0.2888 0.99589 0.0
C146 C 0.817 0.26253 0.00638 0.0
C147 C 0.80159 0.22331 0.01036 0.0
C148 C 0.88909 0.27475 0.01175 0.0
C149 C 0.77735 0.33134 0.9924 0.0
C150 C 0.92757 0.29214 0.98551 0.0
C151 C -0.00194 0.29885 0.98914 0.0
C152 C 0.03122 0.28836 0.01906 0.0
C153 C 0.992 0.27308 0.04593 0.0
C154 C 0.92151 0.26603 0.04222 0.0
H155 H 0.72856 0.34772 0.99374 0.0
H156 H 0.81292 0.33994 0.01176 0.0
H157 H 0.80127 0.33937 0.96811 0.0
H158 H 0.90374 0.29892 0.96176 0.0
H159 H 0.0272 0.31118 0.96831 0.0
H160 H 0.98197 0.73752 0.92856 0.0
H161 H 0.10548 0.74986 0.9357 0.0
H162 H 0.09351 0.70093 0.03594 0.0
H163 H 0.97008 0.68859 0.02876 0.0
H164 H 0.1542 0.79835 0.98289 0.0
H165 H 0.27045 0.65377 0.00225 0.0
H166 H 0.18681 0.66206 0.98358 0.0
H167 H 0.19639 0.66083 0.02744 0.0
C168 C 0.00633 0.72834 0.95177 0.0
C169 C 0.96683 0.71222 0.97823 0.0
C170 C 0.0766 0.73573 0.95593 0.0
C171 C 0.10861 0.72645 0.98642 0.0
C172 C 0.06993 0.70822 0.01222 0.0
H173 H 0.51415 0.76582 0.06856 0.0
H174 H 0.39036 0.75391 0.06196 0.0
C175 C -0.00045 0.70132 0.00818 0.0
C176 C 0.18047 0.73883 0.99225 0.0
H177 H 0.34051 0.70597 0.01515 0.0
C178 C 0.19511 0.77816 0.98971 0.0
C179 C 0.23354 0.71248 0.00151 0.0
C180 C 0.2214 0.6699 0.00361 0.0
C181 C 0.26117 0.79186 0.99657 0.0
C182 C 0.31428 0.76551 0.00577 0.0
C183 C 0.29961 0.72618 0.00835 0.0
C184 C 0.38628 0.77783 0.01139 0.0
C185 C 0.27324 0.83444 0.99453 0.0
C186 C 0.42456 0.79622 0.98553 0.0
C187 C 0.49511 0.80288 0.98926 0.0
C188 C 0.52841 0.79155 0.01897 0.0
C189 C 0.48935 0.77531 0.04553 0.0
C190 C 0.4189 0.76817 0.04168 0.0
H191 H 0.2242 0.85052 0.99621 0.0
H192 H 0.30831 0.84224 0.01439 0.0
H193 H 0.29762 0.84363 0.97058 0.0
H194 H 0.40053 0.80378 0.96195 0.0
H195 H 0.52425 0.81575 0.96862 0.0
H196 H 0.46015 0.73229 0.49497 0.0
H197 H 0.58217 0.72352 0.4876 0.0
H198 H 0.62247 0.83155 0.52707 0.0
H199 H 0.49722 0.84113 0.53437 0.0
H200 H 0.67141 0.7746 0.44879 0.0
H201 H 0.74413 0.74826 0.58094 0.0
H202 H 0.65603 0.74489 0.5672 0.0
H203 H 0.69579 0.79084 0.56849 0.0
C204 C 0.49446 0.75467 0.50176 0.0
C205 C 0.46922 0.78796 0.51454 0.0
C206 C 0.56426 0.74936 0.49769 0.0
C207 C 0.61064 0.77694 0.5066 0.0
C208 C 0.58661 0.81002 0.52011 0.0
H209 H 0.0424 0.781 0.49945 0.0
H210 H 0.92034 0.79084 0.5049 0.0
C211 C 0.51566 0.81546 0.52427 0.0
C212 C 0.68398 0.76985 0.5014 0.0
H213 H 0.83055 0.74076 0.5417 0.0
C214 C 0.70667 0.7675 0.469 0.0
C215 C 0.72847 0.75984 0.52801 0.0
C216 C 0.70521 0.76078 0.5632 0.0
C217 C 0.7737 0.7557 0.46243 0.0
C218 C 0.81823 0.74573 0.48906 0.0
C219 C 0.79541 0.74798 0.52146 0.0
C220 C 0.89165 0.73851 0.48406 0.0
C221 C 0.7969 0.75474 0.42724 0.0
C222 C 0.91574 0.70573 0.4701 0.0
C223 C 0.9868 0.69974 0.4669 0.0
C224 C 0.03331 0.72631 0.47814 0.0
C225 C 0.00806 0.7593 0.49142 0.0
C226 C 0.93819 0.76525 0.49438 0.0
H227 H 0.75831 0.76771 0.40954 0.0
H228 H 0.84657 0.77016 0.42331 0.0
H229 H 0.8053 0.72464 0.42183 0.0
H230 H 0.87984 0.68476 0.46217 0.0
H231 H 0.00522 0.67433 0.45637 0.0
H232 H 0.96382 0.31388 0.46419 0.0
H233 H 0.08641 0.29968 0.45715 0.0
H234 H 0.09982 0.25894 0.55955 0.0
H235 H 0.97697 0.27292 0.56651 0.0
H236 H 0.21497 0.30113 0.53642 0.0
H237 H 0.14911 0.18808 0.45471 0.0
H238 H 0.11895 0.23462 0.43991 0.0
H239 H 0.0846 0.21183 0.4775 0.0
C240 C 0.99315 0.30211 0.48514 0.0
C241 C 0.96093 0.29374 0.51565 0.0
C242 C 0.06298 0.29398 0.48113 0.0
C243 C 0.10148 0.27707 0.50757 0.0
C244 C 0.07071 0.27154 0.53873 0.0
H245 H 0.52287 0.19336 0.53018 0.0
H246 H 0.40005 0.20582 0.53822 0.0
C247 C 0.00082 0.27986 0.54276 0.0
C248 C 0.17288 0.26376 0.5024 0.0
H249 H 0.26826 0.20283 0.45958 0.0
C250 C 0.22667 0.27956 0.51972 0.0
C251 C 0.18788 0.2354 0.48072 0.0
C252 C 0.13199 0.21618 0.46241 0.0
C253 C 0.29538 0.26853 0.51532 0.0
C254 C 0.31046 0.24031 0.49351 0.0
C255 C 0.25659 0.22438 0.4763 0.0
C256 C 0.38208 0.22762 0.48779 0.0
C257 C 0.35116 0.28771 0.53372 0.0
C258 C 0.41148 0.23314 0.45631 0.0
C259 C 0.48153 0.22566 0.45167 0.0
C260 C 0.52298 0.2127 0.4785 0.0
C261 C 0.49226 0.20435 0.50938 0.0
C262 C 0.42227 0.21153 0.51398 0.0
H263 H 0.33366 0.31546 0.542 0.0
H264 H 0.36501 0.26884 0.55585 0.0
H265 H 0.39814 0.29272 0.51843 0.0
H266 H 0.38114 0.24512 0.43568 0.0
H267 H 0.50418 0.23257 0.42765 0.0
H268 H 0.62599 0.65163 0.9655 0.0
H269 H 0.54895 0.59723 0.96081 0.0
H270 H 0.66591 0.53097 0.03513 0.0
H271 H 0.74279 0.58525 0.0402 0.0
H272 H 0.56593 0.51921 0.94877 0.0
H273 H 0.47169 0.53498 0.07535 0.0
H274 H 0.52332 0.57099 0.05276 0.0
H275 H 0.56324 0.5287 0.07212 0.0
C276 C 0.63665 0.62518 0.98015 0.0
C277 C 0.6902 0.62301 0.00347 0.0
C278 C 0.59216 0.59417 0.97764 0.0
C279 C 0.60054 0.56049 -0.00166 0.0
C280 C 0.65743 0.55709 0.01957 0.0
H281 H 0.37003 0.34923 0.03167 0.0
H282 H 0.44723 0.40349 0.03656 0.0
C283 C 0.70171 0.58806 0.0222 0.0
C284 C 0.54774 0.52984 -0.00086 0.0
H285 H 0.42952 0.48192 0.04924 0.0
C286 C 0.53592 0.51113 0.97066 0.0
C287 C 0.50851 0.51944 0.02778 0.0
C288 C 0.51669 0.53975 0.05868 0.0
C289 C 0.4869 0.48173 0.97023 0.0
C290 C 0.44771 0.47132 -0.00113 0.0
C291 C 0.45953 0.49001 0.02735 0.0
C292 C 0.39487 0.44071 -0.00037 0.0
C293 C 0.47853 0.46146 0.93931 0.0
C294 C 0.33755 0.44441 0.97869 0.0
C295 C 0.29313 0.41351 0.97597 0.0
C296 C 0.30501 0.37833 0.99428 0.0
C297 C 0.35909 0.37584 0.01732 0.0
C298 C 0.40366 0.40679 0.01996 0.0
H299 H 0.52325 0.46641 0.9225 0.0
H300 H 0.47229 0.43019 0.94523 0.0
H301 H 0.43167 0.47236 0.92606 0.0
H302 H 0.32884 0.4707 0.9634 0.0
H303 H 0.25167 0.41658 0.95818 0.0
H304 H 0.73181 0.42004 0.45576 0.0
H305 H 0.65522 0.47372 0.46296 0.0
H306 H 0.54972 0.40728 0.54122 0.0
H307 H 0.62555 0.35304 0.53377 0.0
H308 H 0.46173 0.43728 0.4927 0.0
H309 H 0.6351 0.55088 0.53069 0.0
H310 H 0.66441 0.53021 0.49447 0.0
H311 H 0.66032 0.50122 0.53291 0.0
C312 C 0.6936 0.41707 0.47515 0.0
C313 C 0.68486 0.38204 0.49413 0.0
C314 C 0.64987 0.44795 0.47929 0.0
C315 C 0.59681 0.44465 0.50271 0.0
C316 C 0.59039 0.4105 0.52302 0.0
H317 H 0.25452 0.59196 0.54527 0.0
H318 H 0.33032 0.53724 0.54052 0.0
C319 C 0.63426 0.37957 0.51892 0.0
C320 C 0.54417 0.47533 0.50358 0.0
H321 H 0.52373 0.57083 0.51112 0.0
C322 C 0.47516 0.46642 0.49705 0.0
C323 C 0.56178 0.5134 0.50896 0.0
C324 C 0.63432 0.52449 0.51746 0.0
C325 C 0.42363 0.49467 0.49507 0.0
C326 C 0.44139 0.53278 0.50015 0.0
C327 C 0.51028 0.54165 0.50689 0.0
C328 C 0.3892 0.5638 0.49979 0.0
C329 C 0.35094 0.48364 0.48677 0.0
C330 C 0.39609 0.59676 0.47806 0.0
C331 C 0.35265 0.6282 0.48068 0.0
C332 C 0.30199 0.62749 0.50539 0.0
C333 C 0.29278 0.59356 0.52588 0.0
C334 C 0.33607 0.56212 0.52318 0.0
H335 H 0.34947 0.45635 0.47485 0.0
H336 H 0.3202 0.47978 0.50972 0.0
H337 H 0.32604 0.5063 0.4702 0.0
H338 H 0.4368 0.59869 0.45983 0.0
H339 H 0.36173 0.65381 0.46468 0.0
H340 H 0.24346 0.0832 0.03964 0.0
H341 H 0.16571 0.02974 0.0337 0.0
H342 H 0.05973 0.09517 0.95499 0.0
H343 H 0.13671 0.14917 0.96116 0.0
H344 H 0.97296 0.0677 0.00533 0.0
H345 H 0.13969 0.95079 0.96765 0.0
H346 H 0.17129 0.97234 0.00303 0.0
H347 H 0.16665 1.0002 0.96405 0.0
C348 C 0.20494 0.08595 0.02039 0.0
C349 C 0.19621 0.12071 0.00099 0.0
C350 C 0.16054 0.0552 0.01697 0.0
C351 C 0.1069 0.05838 0.99388 0.0
C352 C 0.10081 0.09208 0.97299 0.0
H353 H 0.75725 0.91719 0.9536 0.0
H354 H 0.83542 0.97061 0.95907 0.0
C355 C 0.14532 0.12288 0.97636 0.0
C356 C 0.05305 0.0283 0.99409 0.0
H357 H 0.02781 0.933 0.98761 0.0
C358 C 0.98483 0.03829 0.00117 0.0
C359 C 0.06872 0.98989 0.98906 0.0
C360 C 0.14044 0.97766 0.98023 0.0
C361 C 0.93206 0.01081 0.00384 0.0
C362 C 0.94775 0.9724 -0.00117 0.0
C363 C 0.01595 0.96241 0.99174 0.0
C364 C 0.8939 0.94233 -0.00083 0.0
C365 C 0.86032 0.02303 0.01266 0.0
C366 C 0.89973 0.90885 0.02036 0.0
C367 C 0.85495 0.8781 0.01728 0.0
C368 C 0.80407 0.88009 0.99265 0.0
C369 C 0.79575 0.91461 0.97287 0.0
C370 C 0.84038 0.94532 0.97601 0.0
H371 H 0.86095 0.05005 0.02501 0.0
H372 H 0.82932 0.02803 0.98987 0.0
H373 H 0.83433 1.00059 0.02902 0.0
H374 H 0.94074 0.90592 0.0384 0.0
H375 H 0.86327 0.85198 0.03276 0.0
H376 H 0.85899 0.15495 0.45904 0.0
H377 H 0.93718 0.10184 0.4513 0.0
H378 H 0.83709 0.03441 0.53068 0.0
H379 H 0.75814 0.08695 0.53811 0.0
H380 H 0.02777 0.07413 0.49935 0.0
H381 H 0.86053 0.95665 0.4638 0.0
H382 H 0.8322 0.00581 0.4613 0.0
H383 H 0.8307 0.9772 0.49999 0.0
C384 C 0.85189 0.1284 0.47403 0.0
C385 C 0.80221 0.12538 0.49922 0.0
C386 C 0.89713 0.09811 0.46979 0.0
C387 C 0.89301 0.06406 0.49037 0.0
C388 C 0.8407 0.0601 0.51413 0.0
H389 H 0.13962 0.85957 0.52984 0.0
H390 H 0.0621 0.91372 0.53438 0.0
C391 C 0.7956 0.09034 0.51842 0.0
C392 C 0.94741 0.03433 0.48949 0.0
H393 H 0.97324 0.939 0.4832 0.0
C394 C 0.01597 0.04465 0.49548 0.0
C395 C 0.93193 0.99582 0.48472 0.0
C396 C 0.85994 0.98323 0.47678 0.0
C397 C 0.06916 0.01735 0.49759 0.0
C398 C 0.05351 0.97878 0.49319 0.0
C399 C 0.98508 0.96853 0.48692 0.0
C400 C 0.10741 0.94865 0.49381 0.0
C401 C 0.1413 0.02988 0.50532 0.0
C402 C 0.16014 0.95076 0.47022 0.0
C403 C 0.20487 0.91989 0.46771 0.0
C404 C 0.19747 0.88611 0.48859 0.0
C405 C 0.14731 0.88509 0.51353 0.0
C406 C 0.10246 0.91596 0.51598 0.0
H407 H 0.14138 0.05746 0.51682 0.0
H408 H 0.16781 0.00799 0.52204 0.0
H409 H 0.17138 0.03386 0.48218 0.0
H410 H 0.16444 0.97544 0.45256 0.0
H411 H 0.24272 0.92173 0.44814 0.0
H412 H 0.72632 0.32849 0.3223 0.0
H413 H 0.70335 0.33318 0.26345 0.0
H414 H 0.66378 0.21205 0.26813 0.0
H415 H 0.6873 0.20675 0.32733 0.0
H416 H 0.7519 0.24679 0.21145 0.0
H417 H 0.50108 0.31957 0.22955 0.0
H418 H 0.57566 0.33885 0.2484 0.0
H419 H 0.54491 0.29217 0.26265 0.0
C420 C 0.71275 0.30271 0.31098 0.0
C421 C 0.70789 0.26724 0.32972 0.0
C422 C 0.7 0.30551 0.27727 0.0
C423 C 0.68188 0.273 0.26161 0.0
C424 C 0.67809 0.23742 0.27991 0.0
H425 H 0.50965 0.20256 0.09208 0.0
H426 H 0.59829 0.21256 0.13218 0.0
C427 C 0.69091 0.23453 0.31374 0.0
C428 C 0.66193 0.27669 0.22661 0.0
H429 H 0.53166 0.30887 0.17584 0.0
C430 C 0.70409 0.26063 0.20345 0.0
C431 C 0.60006 0.29519 0.21637 0.0
C432 C 0.55236 0.31227 0.24045 0.0
C433 C 0.68486 0.26184 0.17018 0.0
C434 C 0.62135 0.27889 0.1602 0.0
C435 C 0.5808 0.29621 0.18331 0.0
C436 C 0.58971 0.2743 0.12772 0.0
C437 C 0.73236 0.24458 0.14622 0.0
C438 C 0.55828 0.30575 0.1101 0.0
C439 C 0.50609 0.30005 0.08747 0.0
C440 C 0.48483 0.26277 0.08219 0.0
C441 C 0.5239 0.23166 0.09595 0.0
C442 C 0.57545 0.23737 0.11883 0.0
H443 H 0.78708 0.24741 0.15365 0.0
H444 H 0.72102 0.21361 0.14613 0.0
H445 H 0.72579 0.2582 0.12087 0.0
H446 H 0.569 0.33455 0.11635 0.0
H447 H 0.47797 0.32469 0.07674 0.0
H448 H 0.719 0.80639 0.16637 0.0
H449 H 0.69705 0.80601 0.22528 0.0
H450 H 0.68902 0.6828 0.23319 0.0
H451 H 0.71262 0.6828 0.17449 0.0
H452 H 0.58438 0.77992 0.25607 0.0
H453 H 0.80811 0.70083 0.31146 0.0
H454 H 0.80643 0.71959 0.2689 0.0
H455 H 0.76499 0.67486 0.28149 0.0
C456 C 0.71292 0.77917 0.18063 0.0
C457 C 0.71729 0.74462 0.16562 0.0
C458 C 0.70089 0.77901 0.21436 0.0
C459 C 0.69289 0.74436 0.23381 0.0
C460 C 0.69717 0.70984 0.21892 0.0
H461 H 0.46335 0.68024 0.40161 0.0
H462 H 0.55401 0.67911 0.36041 0.0
C463 C 0.70974 0.70994 0.18522 0.0
C464 C 0.67255 0.7445 0.2688 0.0
H465 H 0.7089 0.7059 0.34663 0.0
C466 C 0.61241 0.76433 0.27591 0.0
C467 C 0.70912 0.72405 0.29469 0.0
C468 C 0.77614 0.70395 0.28882 0.0
C469 C 0.58607 0.76299 0.30786 0.0
C470 C 0.62123 0.74151 0.33357 0.0
C471 C 0.6824 0.72242 0.32682 0.0
C472 C 0.59008 0.7363 0.36662 0.0
C473 C 0.51906 0.78333 0.3137 0.0
C474 C 0.58485 0.76752 0.38573 0.0
C475 C 0.5326 0.76844 0.40919 0.0
C476 C 0.48502 0.73817 0.41355 0.0
C477 C 0.49815 0.70439 0.39835 0.0
C478 C 0.55025 0.70358 0.37482 0.0
H479 H 0.49419 0.79478 0.29042 0.0
H480 H 0.48233 0.76365 0.3274 0.0
H481 H 0.52901 0.80758 0.32881 0.0
H482 H 0.61587 0.79285 0.37994 0.0
H483 H 0.52507 0.7945 0.42119 0.0
H484 H 0.27393 0.81282 0.66573 0.0
H485 H 0.29965 0.81081 0.72448 0.0
H486 H 0.32726 0.68861 0.72777 0.0
H487 H 0.29931 0.69017 0.66934 0.0
H488 H 0.25653 0.70954 0.7815 0.0
H489 H 0.49266 0.79761 0.76003 0.0
H490 H 0.41575 0.82073 0.74417 0.0
H491 H 0.44621 0.77826 0.72702 0.0
C492 C 0.28579 0.78555 0.67894 0.0
C493 C 0.28549 0.75172 0.66283 0.0
C494 C 0.30035 0.78444 0.71249 0.0
C495 C 0.31635 0.74962 0.73033 0.0
C496 C 0.31498 0.71576 0.71444 0.0
H497 H 0.52906 0.67895 0.90357 0.0
H498 H 0.44016 0.67862 0.86139 0.0
C499 C 0.29945 0.71676 0.68102 0.0
C500 C 0.33772 0.74858 0.76516 0.0
H501 H 0.46152 0.78105 0.81497 0.0
C502 C 0.30111 0.72531 0.78893 0.0
C503 C 0.39625 0.76895 0.77468 0.0
C504 C 0.44043 0.79249 0.75014 0.0
C505 C 0.32183 0.72187 0.82204 0.0
C506 C 0.38021 0.74226 0.83135 0.0
C507 C 0.41596 0.76593 0.80772 0.0
C508 C 0.41024 0.73754 0.86465 0.0
C509 C 0.28178 0.69644 0.84678 0.0
C510 C 0.41942 0.76996 0.88193 0.0
C511 C 0.471 0.77049 0.9056 0.0
C512 C 0.51402 0.73852 0.91242 0.0
C513 C 0.49749 0.70424 0.89866 0.0
C514 C 0.4462 0.70388 0.87464 0.0
H515 H 0.23011 0.68925 0.83734 0.0
H516 H 0.31071 0.66942 0.8525 0.0
H517 H 0.27546 0.71037 0.87004 0.0
H518 H 0.39213 0.79621 0.87451 0.0
H519 H 0.48198 0.79741 0.9156 0.0
H520 H 0.30488 0.2043 0.82814 0.0
H521 H 0.3297 0.21048 0.76907 0.0
H522 H 0.27975 0.33043 0.76452 0.0
H523 H 0.25533 0.32488 0.82326 0.0
H524 H 0.24068 0.24421 0.71147 0.0
H525 H 0.48569 0.32125 0.73293 0.0
H526 H 0.4424 0.29237 0.76531 0.0
H527 H 0.40865 0.33845 0.75126 0.0
C528 C 0.29909 0.23199 0.81459 0.0
C529 C 0.27895 0.26417 0.83059 0.0
C530 C 0.31269 0.23537 0.78083 0.0
C531 C 0.30648 0.2709 0.76263 0.0
C532 C 0.28492 0.30281 0.77827 0.0
H533 H 0.51707 0.32543 0.57921 0.0
H534 H 0.42527 0.33426 0.61872 0.0
C535 C 0.27139 0.29953 0.81192 0.0
C536 C 0.32804 0.27532 0.72787 0.0
H537 H 0.45988 0.30945 0.67893 0.0
C538 C 0.28823 0.25876 0.70413 0.0
C539 C 0.38949 0.2948 0.7185 0.0
C540 C 0.4345 0.31261 0.74324 0.0
C541 C 0.30959 0.26032 0.67115 0.0
C542 C 0.37295 0.27815 0.6621 0.0
C543 C 0.41094 0.2961 0.68573 0.0
C544 C 0.40704 0.27378 0.63017 0.0
C545 C 0.26458 0.24255 0.64648 0.0
C546 C 0.42349 0.23698 0.62163 0.0
C547 C 0.47552 0.23185 0.59885 0.0
C548 C 0.5129 0.26343 0.58479 0.0
C549 C 0.49019 0.30046 0.59011 0.0
C550 C 0.43756 0.30557 0.61267 0.0
H551 H 0.20927 0.24463 0.65315 0.0
H552 H 0.2722 0.25635 0.62126 0.0
H553 H 0.27743 0.21174 0.64648 0.0
H554 H 0.40147 0.21194 0.63499 0.0
H555 H 0.49101 0.20291 0.59502 0.0
H556 H 0.20775 0.82212 0.32278 0.0
H557 H 0.17857 0.82183 0.26456 0.0
H558 H 0.20318 0.69931 0.27094 0.0
H559 H 0.2303 0.69916 0.32939 0.0
H560 H 0.24617 0.79728 0.21029 0.0
H561 H 0.0072 0.71367 0.23837 0.0
H562 H 0.05659 0.73439 0.26975 0.0
H563 H 0.08393 0.69035 0.25423 0.0
C564 C 0.20687 0.79509 0.31181 0.0
C565 C 0.22012 0.76057 0.33082 0.0
C566 C 0.19065 0.79503 0.2785 0.0
C567 C 0.18783 0.76052 0.2636 0.0
C568 C 0.20368 0.72618 0.28218 0.0
H569 H 0.01009 0.70346 0.0835 0.0
H570 H 0.10153 0.7062 0.12369 0.0
C571 C 0.219 0.72614 0.31558 0.0
C572 C 0.16415 0.76025 0.22919 0.0
H573 H 0.03584 0.72652 0.18263 0.0
C574 C 0.20039 0.78169 0.20412 0.0
C575 C 0.10402 0.74017 0.22135 0.0
C576 C 0.06024 0.71866 0.24734 0.0
C577 C 0.17792 0.7834 0.17129 0.0
C578 C 0.11809 0.76317 0.16362 0.0
C579 C 0.08251 0.74148 0.18862 0.0
C580 C 0.08666 0.766 0.13059 0.0
C581 C 0.21779 0.80674 0.14505 0.0
C582 C 0.05185 0.79957 0.11922 0.0
C583 C -0.00039 0.79827 0.09575 0.0
C584 C 0.98094 0.76319 0.08394 0.0
C585 C 0.02261 0.73096 0.09209 0.0
C586 C 0.07515 0.7324 0.11518 0.0
H587 H 0.2702 0.81395 0.15357 0.0
H588 H 0.22239 0.79113 0.12259 0.0
H589 H 0.18971 0.83381 0.13828 0.0
H590 H 0.05965 0.82574 0.13102 0.0
H591 H 0.96911 0.82377 0.08977 0.0
H592 H 0.00061 0.30129 0.40389 0.0
H593 H 0.08916 0.29341 0.36282 0.0
H594 H 0.05072 0.17217 0.36925 0.0
H595 H 0.96222 0.17947 0.41074 0.0
H596 H 0.20927 0.22706 0.34635 0.0
H597 H 0.9555 0.23981 0.28169 0.0
H598 H 0.96877 0.26032 0.32021 0.0
H599 H 0.9629 0.20947 0.31935 0.0
C600 C 0.01303 0.27263 0.39786 0.0
C601 C 0.97256 0.24117 0.4097 0.0
C602 C 0.06409 0.26821 0.37444 0.0
C603 C 0.07526 0.23236 0.36273 0.0
C604 C 0.04245 0.20007 0.37806 0.0
H605 H 0.24996 0.17899 0.17565 0.0
H606 H 0.21938 0.17674 0.23388 0.0
C607 C 0.9915 0.2044 0.40161 0.0
C608 C 0.1042 0.23074 0.32956 0.0
H609 H 0.05416 0.23687 0.24925 0.0
C610 C 0.17569 0.22885 0.32506 0.0
C611 C 0.05974 0.2335 0.30202 0.0
C612 C 0.98241 0.23599 0.30575 0.0
C613 C 0.20397 0.22991 0.29327 0.0
C614 C 0.15933 0.23301 0.2658 0.0
C615 C 0.08798 0.23458 0.27049 0.0
C616 C 0.18482 0.23544 0.23169 0.0
C617 C 0.2811 0.22865 0.28907 0.0
C618 C 0.17473 0.26913 0.21128 0.0
C619 C 0.1917 0.27054 0.178 0.0
C620 C 0.21839 0.23808 0.16448 0.0
C621 C 0.22914 0.20446 0.1852 0.0
C622 C 0.21245 0.20318 0.21854 0.0
H623 H 0.30878 0.23169 0.31252 0.0
H624 H 0.29592 0.20092 0.27989 0.0
H625 H 0.29814 0.25172 0.27056 0.0
H626 H 0.15266 0.29417 0.22106 0.0
H627 H 0.18291 0.2969 0.16283 0.0
H628 H 0.9842 0.2956 0.9134 0.0
H629 H 0.89448 0.29252 0.87235 0.0
H630 H 0.94314 0.17416 0.86297 0.0
H631 H 0.03214 0.17648 0.9049 0.0
H632 H 0.9646 0.27423 0.81329 0.0
H633 H 0.73243 0.18376 0.83894 0.0
H634 H 0.77727 0.20693 0.87066 0.0
H635 H 0.8131 0.16498 0.85503 0.0
C636 C 0.97353 0.26822 0.90413 0.0
C637 C 0.01681 0.23655 0.91184 0.0
C638 C 0.92196 0.26658 0.88055 0.0
C639 C 0.91291 0.23331 0.86435 0.0
C640 C 0.94909 0.20007 0.87534 0.0
H641 H 0.79932 0.18132 0.66968 0.0
H642 H 0.82854 0.18007 0.72799 0.0
C643 C 0.00045 0.20158 0.89921 0.0
C644 C 0.88278 0.23652 0.83105 0.0
H645 H 0.75772 0.20231 0.78271 0.0
C646 C 0.91868 0.259 0.80666 0.0
C647 C 0.82401 0.2159 0.82255 0.0
C648 C 0.78395 0.19166 0.84813 0.0
C649 C 0.8984 0.26082 0.77374 0.0
C650 C 0.83924 0.24043 0.76507 0.0
C651 C 0.80277 0.21812 0.78952 0.0
C652 C 0.8165 0.24102 0.73048 0.0
C653 C 0.94236 0.28328 0.7484 0.0
C654 C 0.79936 0.27568 0.71271 0.0
C655 C 0.78388 0.27663 0.67928 0.0
C656 C 0.78404 0.24279 0.66315 0.0
C657 C 0.79917 0.20793 0.68131 0.0
C658 C 0.8154 0.2071 0.71467 0.0
H659 H 0.99492 0.28851 0.75785 0.0
H660 H 0.94726 0.26813 0.72572 0.0
H661 H 0.91799 0.31148 0.74179 0.0
H662 H 0.79868 0.30208 0.72465 0.0
H663 H 0.77123 0.30384 0.66617 0.0
H664 H 0.05764 0.82836 0.60661 0.0
H665 H 0.96785 0.8276 0.64775 0.0
H666 H 0.87289 0.73077 0.60727 0.0
H667 H 0.96718 0.7293 0.56745 0.0
H668 H 0.84047 0.83016 0.65981 0.0
H669 H 0.92385 0.68014 0.69332 0.0
H670 H 0.9652 0.70977 0.6611 0.0
H671 H 0.88298 0.68801 0.65401 0.0
C672 C 0.01679 0.80744 0.60574 0.0
C673 C 0.02091 0.77801 0.58455 0.0
C674 C 0.96509 0.80703 0.62945 0.0
C675 C 0.91539 0.77785 0.63182 0.0
C676 C 0.91282 0.75229 0.60711 0.0
H677 H 0.67842 0.78651 0.81647 0.0
H678 H 0.70203 0.78822 0.75746 0.0
C679 C 0.96616 0.75182 0.58402 0.0
C680 C 0.87438 0.77161 0.66265 0.0
H681 H 0.85157 0.70793 0.72975 0.0
C682 C 0.84236 0.80332 0.67502 0.0
C683 C 0.87726 0.7366 0.68271 0.0
C684 C 0.91458 0.70178 0.67233 0.0
C685 C 0.8181 0.80199 0.70752 0.0
C686 C 0.82205 0.76714 0.72768 0.0
C687 C 0.84909 0.73468 0.71444 0.0
C688 C 0.80467 0.76423 0.76334 0.0
C689 C 0.79335 0.8387 0.72038 0.0
C690 C 0.85262 0.7481 0.78643 0.0
C691 C 0.83783 0.74556 0.82003 0.0
C692 C 0.77567 0.76006 0.83118 0.0
C693 C 0.72733 0.7758 0.80829 0.0
C694 C 0.74107 0.77711 0.77461 0.0
H695 H 0.81196 0.86424 0.70498 0.0
H696 H 0.73619 0.83937 0.71996 0.0
H697 H 0.81096 0.84105 0.74598 0.0
H698 H 0.90203 0.73784 0.77848 0.0
H699 H 0.87568 0.73324 0.83733 0.0
loop_
_geom_bond_atom_site_label_1
_geom_bond_atom_site_label_2
_geom_bond_distance
_geom_bond_site_symmetry_2
_ccdc_geom_bond_type
C0 O12 1.241 . S
C0 O13 1.280 . S
C1 O14 1.277 . S
C1 O15 1.245 . S
C2 O26 1.247 . S
C2 O28 1.289 1_556 S
Mg3 O4 1.926 . S
Mg3 O13 1.984 . S
Mg3 O15 1.988 . S
Mg3 O16 2.061 . S
O4 Mg3 1.926 . S
O4 Mg5 1.986 . S
O4 Mg6 1.917 . S
Mg5 O4 1.986 . S
Mg5 O12 2.042 . S
Mg5 O14 2.041 . S
Mg5 O20 2.038 . S
Mg5 O28 2.238 . S
Mg6 O4 1.917 . S
Mg6 O7 1.917 1_554 S
Mg6 O17 2.106 1_554 S
Mg6 O19 2.079 1_554 S
Mg6 O28 2.106 . S
Mg6 O29 2.079 . S
O7 Mg6 1.917 1_556 S
O7 Mg8 1.926 . S
O7 Mg9 1.986 . S
Mg8 O7 1.926 . S
Mg8 O22 1.984 . S
Mg8 O25 1.988 . S
Mg8 O26 2.061 . S
Mg9 O7 1.986 . S
Mg9 O17 2.238 . S
Mg9 O21 2.042 . S
Mg9 O23 2.041 . S
Mg9 O30 2.038 . S
C10 O16 1.247 . S
C10 O17 1.289 1_554 S
C11 O29 1.245 1_556 S
C11 O30 1.274 . S
O12 C0 1.241 . S
O12 Mg5 2.042 . S
O13 C0 1.280 . S
O13 Mg3 1.984 . S
O14 C1 1.277 . S
O14 Mg5 2.041 . S
O15 C1 1.245 . S
O15 Mg3 1.988 . S
O16 Mg3 2.061 . S
O16 C10 1.247 . S
O17 Mg6 2.106 1_556 S
O17 Mg9 2.238 . S
O17 C10 1.289 1_556 S
C18 O19 1.245 1_554 S
C18 O20 1.274 . S
O19 Mg6 2.079 1_556 S
O19 C18 1.245 1_556 S
O20 Mg5 2.038 . S
O20 C18 1.274 . S
O21 Mg9 2.042 . S
O21 C24 1.241 . S
O22 Mg8 1.984 . S
O22 C24 1.280 . S
O23 Mg9 2.041 . S
O23 C27 1.277 . S
C24 O21 1.241 . S
C24 O22 1.280 . S
O25 Mg8 1.988 . S
O25 C27 1.245 . S
O26 C2 1.247 . S
O26 Mg8 2.061 . S
C27 O23 1.277 . S
C27 O25 1.245 . S
O28 C2 1.289 1_554 S
O28 Mg5 2.238 . S
O28 Mg6 2.106 . S
O29 Mg6 2.079 . S
O29 C11 1.245 1_554 S
O30 Mg9 2.038 . S
O30 C11 1.274 . S
C31 O43 1.241 . S
C31 O44 1.280 . S
C32 O45 1.277 . S
C32 O46 1.245 . S
C33 O57 1.247 . S
C33 O59 1.289 1_556 S
Mg34 O35 1.926 . S
Mg34 O44 1.984 . S
Mg34 O46 1.988 . S
Mg34 O47 2.061 . S
O35 Mg34 1.926 . S
O35 Mg36 1.986 . S
O35 Mg37 1.917 . S
Mg36 O35 1.986 . S
Mg36 O43 2.042 . S
Mg36 O45 2.041 . S
Mg36 O51 2.038 . S
Mg36 O59 2.238 . S
Mg37 O35 1.917 . S
Mg37 O38 1.917 1_554 S
Mg37 O48 2.106 1_554 S
Mg37 O50 2.079 1_554 S
Mg37 O59 2.106 . S
Mg37 O60 2.079 . S
O38 Mg37 1.917 1_556 S
O38 Mg39 1.926 . S
O38 Mg40 1.986 . S
Mg39 O38 1.926 . S
Mg39 O53 1.984 . S
Mg39 O56 1.988 . S
Mg39 O57 2.061 . S
Mg40 O38 1.986 . S
Mg40 O48 2.238 . S
Mg40 O52 2.042 . S
Mg40 O54 2.041 . S
Mg40 O61 2.038 . S
C41 O47 1.247 . S
C41 O48 1.289 1_554 S
C42 O60 1.245 1_556 S
C42 O61 1.274 . S
O43 C31 1.241 . S
O43 Mg36 2.042 . S
O44 C31 1.280 . S
O44 Mg34 1.984 . S
O45 C32 1.277 . S
O45 Mg36 2.041 . S
O46 C32 1.245 . S
O46 Mg34 1.988 . S
O47 Mg34 2.061 . S
O47 C41 1.247 . S
O48 Mg37 2.106 1_556 S
O48 Mg40 2.238 . S
O48 C41 1.289 1_556 S
C49 O50 1.245 1_554 S
C49 O51 1.274 . S
O50 Mg37 2.079 1_556 S
O50 C49 1.245 1_556 S
O51 Mg36 2.038 . S
O51 C49 1.274 . S
O52 Mg40 2.042 . S
O52 C55 1.241 . S
O53 Mg39 1.984 . S
O53 C55 1.280 . S
O54 Mg40 2.041 . S
O54 C58 1.277 . S
C55 O52 1.241 . S
C55 O53 1.280 . S
O56 Mg39 1.988 . S
O56 C58 1.245 . S
O57 C33 1.247 . S
O57 Mg39 2.061 . S
C58 O54 1.277 . S
C58 O56 1.245 . S
O59 C33 1.289 1_554 S
O59 Mg36 2.238 . S
O59 Mg37 2.106 . S
O60 Mg37 2.079 . S
O60 C42 1.245 1_554 S
O61 Mg40 2.038 . S
O61 C42 1.274 . S
C62 O74 1.241 . S
C62 O75 1.280 . S
C63 O76 1.277 . S
C63 O77 1.245 . S
C64 O88 1.247 . S
C64 O90 1.289 . S
Mg65 O66 1.926 . S
Mg65 O75 1.984 . S
Mg65 O77 1.988 . S
Mg65 O78 2.061 . S
O66 Mg65 1.926 . S
O66 Mg67 1.986 . S
O66 Mg68 1.917 . S
Mg67 O66 1.986 . S
Mg67 O74 2.042 . S
Mg67 O76 2.041 . S
Mg67 O82 2.038 . S
Mg67 O90 2.238 . S
Mg68 O66 1.917 . S
Mg68 O69 1.917 . S
Mg68 O79 2.106 . S
Mg68 O81 2.079 . S
Mg68 O90 2.106 . S
Mg68 O91 2.079 . S
O69 Mg68 1.917 . S
O69 Mg70 1.926 . S
O69 Mg71 1.986 . S
Mg70 O69 1.926 . S
Mg70 O84 1.984 . S
Mg70 O87 1.988 . S
Mg70 O88 2.061 . S
Mg71 O69 1.986 . S
Mg71 O79 2.238 . S
Mg71 O83 2.042 . S
Mg71 O85 2.041 . S
Mg71 O92 2.038 . S
C72 O78 1.247 . S
C72 O79 1.289 . S
C73 O91 1.245 . S
C73 O92 1.274 . S
O74 C62 1.241 . S
O74 Mg67 2.042 . S
O75 C62 1.280 . S
O75 Mg65 1.984 . S
O76 C63 1.277 . S
O76 Mg67 2.041 . S
O77 C63 1.245 . S
O77 Mg65 1.988 . S
O78 Mg65 2.061 . S
O78 C72 1.247 . S
O79 Mg68 2.106 . S
O79 Mg71 2.238 . S
O79 C72 1.289 . S
C80 O81 1.245 . S
C80 O82 1.274 . S
O81 Mg68 2.079 . S
O81 C80 1.245 . S
O82 Mg67 2.038 . S
O82 C80 1.274 . S
O83 Mg71 2.042 . S
O83 C86 1.241 . S
O84 Mg70 1.984 . S
O84 C86 1.280 . S
O85 Mg71 2.041 . S
O85 C89 1.277 . S
C86 O83 1.241 . S
C86 O84 1.280 . S
O87 Mg70 1.988 . S
O87 C89 1.245 . S
O88 C64 1.247 . S
O88 Mg70 2.061 . S
C89 O85 1.277 . S
C89 O87 1.245 . S
O90 C64 1.289 . S
O90 Mg67 2.238 . S
O90 Mg68 2.106 . S
O91 Mg68 2.079 . S
O91 C73 1.245 . S
O92 Mg71 2.038 . S
O92 C73 1.274 . S
C93 O105 1.241 . S
C93 O106 1.280 . S
C94 O107 1.277 . S
C94 O108 1.245 . S
C95 O119 1.247 . S
C95 O121 1.289 . S
Mg96 O97 1.926 . S
Mg96 O106 1.984 . S
Mg96 O108 1.988 . S
Mg96 O109 2.061 . S
O97 Mg96 1.926 . S
O97 Mg98 1.986 . S
O97 Mg99 1.917 . S
Mg98 O97 1.986 . S
Mg98 O105 2.042 . S
Mg98 O107 2.041 . S
Mg98 O113 2.038 . S
Mg98 O121 2.238 . S
Mg99 O97 1.917 . S
Mg99 O100 1.917 . S
Mg99 O110 2.106 . S
Mg99 O112 2.079 . S
Mg99 O121 2.106 . S
Mg99 O122 2.079 . S
O100 Mg99 1.917 . S
O100 Mg101 1.926 . S
O100 Mg102 1.986 . S
Mg101 O100 1.926 . S
Mg101 O115 1.984 . S
Mg101 O118 1.988 . S
Mg101 O119 2.061 . S
Mg102 O100 1.986 . S
Mg102 O110 2.238 . S
Mg102 O114 2.042 . S
Mg102 O116 2.041 . S
Mg102 O123 2.038 . S
C103 O109 1.247 . S
C103 O110 1.289 . S
C104 O122 1.245 . S
C104 O123 1.274 . S
O105 C93 1.241 . S
O105 Mg98 2.042 . S
O106 C93 1.280 . S
O106 Mg96 1.984 . S
O107 C94 1.277 . S
O107 Mg98 2.041 . S
O108 C94 1.245 . S
O108 Mg96 1.988 . S
O109 Mg96 2.061 . S
O109 C103 1.247 . S
O110 Mg99 2.106 . S
O110 Mg102 2.238 . S
O110 C103 1.289 . S
C111 O112 1.245 . S
C111 O113 1.274 . S
O112 Mg99 2.079 . S
O112 C111 1.245 . S
O113 Mg98 2.038 . S
O113 C111 1.274 . S
O114 Mg102 2.042 . S
O114 C117 1.241 . S
O115 Mg101 1.984 . S
O115 C117 1.280 . S
O116 Mg102 2.041 . S
O116 C120 1.277 . S
C117 O114 1.241 . S
C117 O115 1.280 . S
O118 Mg101 1.988 . S
O118 C120 1.245 . S
O119 C95 1.247 . S
O119 Mg101 2.061 . S
C120 O116 1.277 . S
C120 O118 1.245 . S
O121 C95 1.289 . S
O121 Mg98 2.238 . S
O121 Mg99 2.106 . S
O122 Mg99 2.079 . S
O122 C104 1.245 . S
O123 Mg102 2.038 . S
O123 C104 1.274 . S
H124 C132 0.929 . S
H125 C134 0.930 . S
H126 C136 0.930 . S
H127 C139 0.929 . S
H128 C142 0.930 . S
H129 C144 0.960 . S
H130 C144 0.960 . S
H131 C144 0.960 . S
C132 H124 0.929 . S
C132 C133 1.377 . S
C132 C134 1.384 . S
C133 C132 1.377 . S
C133 C139 1.390 1_556 S
C134 H125 0.930 . S
C134 C132 1.384 . S
C134 C135 1.372 . S
C135 C134 1.372 . S
C135 C136 1.400 1_556 S
C135 C140 1.490 . S
C136 H126 0.930 . S
C136 C135 1.400 1_554 S
C136 C139 1.386 . S
H137 C153 0.930 1_455 S
H138 C154 0.931 . S
C139 H127 0.929 . S
C139 C133 1.390 1_554 S
C139 C136 1.386 . S
C140 C135 1.490 . S
C140 C142 1.395 . S
C140 C143 1.403 1_556 S
H141 C147 0.930 . S
C142 H128 0.930 . S
C142 C140 1.395 . S
C142 C145 1.403 . S
C143 C140 1.403 1_554 S
C143 C144 1.524 . S
C143 C147 1.400 . S
C144 H129 0.960 . S
C144 H130 0.960 . S
C144 H131 0.960 . S
C144 C143 1.524 . S
C145 C142 1.403 . S
C145 C146 1.392 . S
C145 C149 1.495 . S
C146 C145 1.392 . S
C146 C147 1.385 1_556 S
C146 C148 1.479 . S
C147 H141 0.930 . S
C147 C143 1.400 . S
C147 C146 1.385 1_554 S
C148 C146 1.479 . S
C148 C150 1.406 . S
C148 C154 1.357 1_556 S
C149 C145 1.495 . S
C149 H155 0.959 . S
C149 H156 0.961 . S
C149 H157 0.960 . S
C150 C148 1.406 . S
C150 C151 1.394 1_655 S
C150 H158 0.930 . S
C151 C150 1.394 1_455 S
C151 C152 1.383 1_556 S
C151 H159 0.929 . S
C152 C151 1.383 1_554 S
C152 C153 1.377 1_455 S
C153 H137 0.930 1_655 S
C153 C152 1.377 1_655 S
C153 C154 1.379 . S
C154 H138 0.931 . S
C154 C148 1.357 1_554 S
C154 C153 1.379 . S
H155 C149 0.959 . S
H156 C149 0.961 . S
H157 C149 0.960 . S
H158 C150 0.930 . S
H159 C151 0.929 . S
H160 C168 0.929 . S
H161 C170 0.930 . S
H162 C172 0.930 . S
H163 C175 0.929 . S
H164 C178 0.930 . S
H165 C180 0.960 . S
H166 C180 0.960 . S
H167 C180 0.960 . S
C168 H160 0.929 . S
C168 C169 1.377 . S
C168 C170 1.384 1_655 S
C169 C168 1.377 . S
C169 C175 1.390 1_556 S
C170 H161 0.930 . S
C170 C168 1.384 1_455 S
C170 C171 1.372 . S
C171 C170 1.372 . S
C171 C172 1.400 1_556 S
C171 C176 1.490 . S
C172 H162 0.930 . S
C172 C171 1.400 1_554 S
C172 C175 1.386 1_455 S
H173 C189 0.930 . S
H174 C190 0.931 . S
C175 H163 0.929 . S
C175 C169 1.390 1_554 S
C175 C172 1.386 1_655 S
C176 C171 1.490 . S
C176 C178 1.395 . S
C176 C179 1.403 1_556 S
H177 C183 0.930 . S
C178 H164 0.930 . S
C178 C176 1.395 . S
C178 C181 1.403 . S
C179 C176 1.403 1_554 S
C179 C180 1.524 . S
C179 C183 1.400 . S
C180 H165 0.960 . S
C180 H166 0.960 . S
C180 H167 0.960 . S
C180 C179 1.524 . S
C181 C178 1.403 . S
C181 C182 1.392 . S
C181 C185 1.495 . S
C182 C181 1.392 . S
C182 C183 1.385 1_556 S
C182 C184 1.479 . S
C183 H177 0.930 . S
C183 C179 1.400 . S
C183 C182 1.385 1_554 S
C184 C182 1.479 . S
C184 C186 1.400 . S
C184 C190 1.362 1_556 S
C185 C181 1.495 . S
C185 H191 0.959 . S
C185 H192 0.961 . S
C185 H193 0.960 . S
C186 C184 1.400 . S
C186 C187 1.394 . S
C186 H194 0.930 . S
C187 C186 1.394 . S
C187 C188 1.383 1_556 S
C187 H195 0.929 . S
C188 C187 1.383 1_554 S
C188 C189 1.377 . S
C189 H173 0.930 . S
C189 C188 1.377 . S
C189 C190 1.379 . S
C190 H174 0.931 . S
C190 C184 1.362 1_554 S
C190 C189 1.379 . S
H191 C185 0.959 . S
H192 C185 0.961 . S
H193 C185 0.960 . S
H194 C186 0.930 . S
H195 C187 0.929 . S
H196 C204 0.929 . S
H197 C206 0.930 . S
H198 C208 0.930 . S
H199 C211 0.929 . S
H200 C214 0.930 . S
H201 C216 0.960 . S
H202 C216 0.960 . S
H203 C216 0.960 . S
C204 H196 0.929 . S
C204 C205 1.377 . S
C204 C206 1.384 . S
C205 C204 1.377 . S
C205 C211 1.390 . S
C206 H197 0.930 . S
C206 C204 1.384 . S
C206 C207 1.372 . S
C207 C206 1.372 . S
C207 C208 1.400 . S
C207 C212 1.490 . S
C208 H198 0.930 . S
C208 C207 1.400 . S
C208 C211 1.386 . S
H209 C225 0.930 . S
H210 C226 0.931 . S
C211 H199 0.929 . S
C211 C205 1.390 . S
C211 C208 1.386 . S
C212 C207 1.490 . S
C212 C214 1.395 . S
C212 C215 1.403 . S
H213 C219 0.930 . S
C214 H200 0.930 . S
C214 C212 1.395 . S
C214 C217 1.403 . S
C215 C212 1.403 . S
C215 C216 1.524 . S
C215 C219 1.400 . S
C216 H201 0.960 . S
C216 H202 0.960 . S
C216 H203 0.960 . S
C216 C215 1.524 . S
C217 C214 1.403 . S
C217 C218 1.392 . S
C217 C221 1.495 . S
C218 C217 1.392 . S
C218 C219 1.385 . S
C218 C220 1.478 . S
C219 H213 0.930 . S
C219 C215 1.400 . S
C219 C218 1.385 . S
C220 C218 1.478 . S
C220 C222 1.381 . S
C220 C226 1.383 . S
C221 C217 1.495 . S
C221 H227 0.959 . S
C221 H228 0.961 . S
C221 H229 0.960 . S
C222 C220 1.381 . S
C222 C223 1.394 . S
C222 H230 0.930 . S
C223 C222 1.394 . S
C223 C224 1.383 1_655 S
C223 H231 0.929 1_655 S
C224 C223 1.383 1_455 S
C224 C225 1.377 . S
C225 H209 0.930 . S
C225 C224 1.377 . S
C225 C226 1.379 1_455 S
C226 H210 0.931 . S
C226 C220 1.383 . S
C226 C225 1.379 1_655 S
H227 C221 0.959 . S
H228 C221 0.961 . S
H229 C221 0.960 . S
H230 C222 0.930 . S
H231 C223 0.929 1_455 S
H232 C240 0.929 . S
H233 C242 0.930 . S
H234 C244 0.930 . S
H235 C247 0.929 . S
H236 C250 0.930 . S
H237 C252 0.960 . S
H238 C252 0.960 . S
H239 C252 0.960 . S
C240 H232 0.929 . S
C240 C241 1.377 . S
C240 C242 1.384 1_655 S
C241 C240 1.377 . S
C241 C247 1.390 . S
C242 H233 0.930 . S
C242 C240 1.384 1_455 S
C242 C243 1.372 . S
C243 C242 1.372 . S
C243 C244 1.400 . S
C243 C248 1.490 . S
C244 H234 0.930 . S
C244 C243 1.400 . S
C244 C247 1.386 1_455 S
H245 C261 0.930 . S
H246 C262 0.931 . S
C247 H235 0.929 . S
C247 C241 1.390 . S
C247 C244 1.386 1_655 S
C248 C243 1.490 . S
C248 C250 1.395 . S
C248 C251 1.403 . S
H249 C255 0.930 . S
C250 H236 0.930 . S
C250 C248 1.395 . S
C250 C253 1.403 . S
C251 C248 1.403 . S
C251 C252 1.524 . S
C251 C255 1.400 . S
C252 H237 0.960 . S
C252 H238 0.960 . S
C252 H239 0.960 . S
C252 C251 1.524 . S
C253 C250 1.403 . S
C253 C254 1.392 . S
C253 C257 1.495 . S
C254 C253 1.392 . S
C254 C255 1.385 . S
C254 C256 1.478 . S
C255 H249 0.930 . S
C255 C251 1.400 . S
C255 C254 1.385 . S
C256 C254 1.478 . S
C256 C258 1.381 . S
C256 C262 1.383 . S
C257 C253 1.495 . S
C257 H263 0.959 . S
C257 H264 0.961 . S
C257 H265 0.960 . S
C258 C256 1.381 . S
C258 C259 1.394 . S
C258 H266 0.930 . S
C259 C258 1.394 . S
C259 C260 1.383 . S
C259 H267 0.929 . S
C260 C259 1.383 . S
C260 C261 1.377 . S
C261 H245 0.930 . S
C261 C260 1.377 . S
C261 C262 1.379 . S
C262 H246 0.931 . S
C262 C256 1.383 . S
C262 C261 1.379 . S
H263 C257 0.959 . S
H264 C257 0.961 . S
H265 C257 0.960 . S
H266 C258 0.930 . S
H267 C259 0.929 . S
H268 C276 0.929 . S
H269 C278 0.930 . S
H270 C280 0.930 . S
H271 C283 0.929 . S
H272 C286 0.930 . S
H273 C288 0.960 . S
H274 C288 0.960 . S
H275 C288 0.960 . S
C276 H268 0.929 . S
C276 C277 1.377 . S
C276 C278 1.384 . S
C277 C276 1.377 . S
C277 C283 1.390 1_554 S
C278 H269 0.930 . S
C278 C276 1.384 . S
C278 C279 1.372 . S
C279 C278 1.372 . S
C279 C280 1.400 1_554 S
C279 C284 1.490 . S
C280 H270 0.930 . S
C280 C279 1.400 1_556 S
C280 C283 1.386 . S
H281 C297 0.930 . S
H282 C298 0.931 . S
C283 H271 0.929 . S
C283 C277 1.390 1_556 S
C283 C280 1.386 . S
C284 C279 1.490 . S
C284 C286 1.395 1_554 S
C284 C287 1.403 . S
H285 C291 0.930 . S
C286 H272 0.930 . S
C286 C284 1.395 1_556 S
C286 C289 1.403 . S
C287 C284 1.403 . S
C287 C288 1.524 . S
C287 C291 1.400 . S
C288 H273 0.960 . S
C288 H274 0.960 . S
C288 H275 0.960 . S
C288 C287 1.524 . S
C289 C286 1.403 . S
C289 C290 1.392 . S
C289 C293 1.495 . S
C290 C289 1.392 . S
C290 C291 1.385 1_556 S
C290 C292 1.478 . S
C291 H285 0.930 . S
C291 C287 1.400 . S
C291 C290 1.385 1_554 S
C292 C290 1.478 . S
C292 C294 1.381 1_556 S
C292 C298 1.383 . S
C293 C289 1.495 . S
C293 H299 0.959 . S
C293 H300 0.961 . S
C293 H301 0.960 . S
C294 C292 1.381 1_554 S
C294 C295 1.394 . S
C294 H302 0.930 . S
C295 C294 1.394 . S
C295 C296 1.373 1_554 S
C295 H303 0.929 . S
C296 C295 1.373 1_556 S
C296 C297 1.387 . S
C297 H281 0.930 . S
C297 C296 1.387 . S
C297 C298 1.379 . S
C298 H282 0.931 . S
C298 C292 1.383 . S
C298 C297 1.379 . S
H299 C293 0.959 . S
H300 C293 0.961 . S
H301 C293 0.960 . S
H302 C294 0.930 . S
H303 C295 0.929 . S
H304 C312 0.929 . S
H305 C314 0.930 . S
H306 C316 0.930 . S
H307 C319 0.929 . S
H308 C322 0.930 . S
H309 C324 0.960 . S
H310 C324 0.960 . S
H311 C324 0.960 . S
C312 H304 0.929 . S
C312 C313 1.377 . S
C312 C314 1.384 . S
C313 C312 1.377 . S
C313 C319 1.390 . S
C314 H305 0.930 . S
C314 C312 1.384 . S
C314 C315 1.372 . S
C315 C314 1.372 . S
C315 C316 1.400 . S
C315 C320 1.490 . S
C316 H306 0.930 . S
C316 C315 1.400 . S
C316 C319 1.386 . S
H317 C333 0.930 . S
H318 C334 0.931 . S
C319 H307 0.929 . S
C319 C313 1.390 . S
C319 C316 1.386 . S
C320 C315 1.490 . S
C320 C322 1.395 . S
C320 C323 1.403 . S
H321 C327 0.930 . S
C322 H308 0.930 . S
C322 C320 1.395 . S
C322 C325 1.403 . S
C323 C320 1.403 . S
C323 C324 1.524 . S
C323 C327 1.400 . S
C324 H309 0.960 . S
C324 H310 0.960 . S
C324 H311 0.960 . S
C324 C323 1.524 . S
C325 C322 1.403 . S
C325 C326 1.392 . S
C325 C329 1.495 . S
C326 C325 1.392 . S
C326 C327 1.385 . S
C326 C328 1.478 . S
C327 H321 0.930 . S
C327 C323 1.400 . S
C327 C326 1.385 . S
C328 C326 1.478 . S
C328 C330 1.381 . S
C328 C334 1.383 . S
C329 C325 1.495 . S
C329 H335 0.959 . S
C329 H336 0.961 . S
C329 H337 0.960 . S
C330 C328 1.381 . S
C330 C331 1.394 . S
C330 H338 0.930 . S
C331 C330 1.394 . S
C331 C332 1.383 . S
C331 H339 0.929 . S
C332 C331 1.383 . S
C332 C333 1.377 . S
C333 H317 0.930 . S
C333 C332 1.377 . S
C333 C334 1.379 . S
C334 H318 0.931 . S
C334 C328 1.383 . S
C334 C333 1.379 . S
H335 C329 0.959 . S
H336 C329 0.961 . S
H337 C329 0.960 . S
H338 C330 0.930 . S
H339 C331 0.929 . S
H340 C348 0.929 . S
H341 C350 0.930 . S
H342 C352 0.930 . S
H343 C355 0.929 . S
H344 C358 0.930 . S
H345 C360 0.960 1_556 S
H346 C360 0.958 . S
H347 C360 0.962 1_546 S
C348 H340 0.929 . S
C348 C349 1.377 . S
C348 C350 1.384 . S
C349 C348 1.377 . S
C349 C355 1.390 1_554 S
C350 H341 0.930 . S
C350 C348 1.384 . S
C350 C351 1.372 . S
C351 C350 1.372 . S
C351 C352 1.400 1_554 S
C351 C356 1.490 . S
C352 H342 0.930 . S
C352 C351 1.400 1_556 S
C352 C355 1.386 . S
H353 C369 0.930 . S
H354 C370 0.931 . S
C355 H343 0.929 . S
C355 C349 1.390 1_556 S
C355 C352 1.386 . S
C356 C351 1.490 . S
C356 C358 1.395 1_455 S
C356 C359 1.407 1_545 S
H357 C363 0.928 1_556 S
C358 H344 0.930 . S
C358 C356 1.395 1_655 S
C358 C361 1.403 . S
C359 C356 1.407 1_565 S
C359 C360 1.523 . S
C359 C363 1.399 . S
C360 H345 0.960 1_554 S
C360 H346 0.958 . S
C360 H347 0.962 1_564 S
C360 C359 1.523 . S
C361 C358 1.403 . S
C361 C362 1.392 1_545 S
C361 C365 1.495 . S
C362 C361 1.392 1_565 S
C362 C363 1.386 1_655 S
C362 C364 1.478 . S
C363 H357 0.928 1_554 S
C363 C359 1.399 . S
C363 C362 1.386 1_455 S
C364 C362 1.478 . S
C364 C366 1.381 . S
C364 C370 1.383 1_554 S
C365 C361 1.495 . S
C365 H371 0.959 . S
C365 H372 0.961 1_554 S
C365 H373 0.967 . S
C366 C364 1.381 . S
C366 C367 1.394 . S
C366 H374 0.930 . S
C367 C366 1.394 . S
C367 C368 1.383 . S
C367 H375 0.929 . S
C368 C367 1.383 . S
C368 C369 1.377 1_554 S
C369 H353 0.930 . S
C369 C368 1.377 1_556 S
C369 C370 1.379 . S
C370 H354 0.931 . S
C370 C364 1.383 1_556 S
C370 C369 1.379 . S
H371 C365 0.959 . S
H372 C365 0.961 1_556 S
H373 C365 0.967 . S
H374 C366 0.930 . S
H375 C367 0.929 . S
H376 C384 0.929 . S
H377 C386 0.930 . S
H378 C388 0.930 . S
H379 C391 0.929 . S
H380 C394 0.930 . S
H381 C396 0.960 . S
H382 C396 0.960 1_545 S
H383 C396 0.960 . S
C384 H376 0.929 . S
C384 C385 1.377 . S
C384 C386 1.384 . S
C385 C384 1.377 . S
C385 C391 1.390 . S
C386 H377 0.930 . S
C386 C384 1.384 . S
C386 C387 1.372 . S
C387 C386 1.372 . S
C387 C388 1.400 . S
C387 C392 1.490 . S
C388 H378 0.930 . S
C388 C387 1.400 . S
C388 C391 1.386 . S
H389 C405 0.930 . S
H390 C406 0.931 . S
C391 H379 0.929 . S
C391 C385 1.390 . S
C391 C388 1.386 . S
C392 C387 1.490 . S
C392 C394 1.395 1_655 S
C392 C395 1.403 1_545 S
H393 C399 0.930 . S
C394 H380 0.930 . S
C394 C392 1.395 1_455 S
C394 C397 1.403 . S
C395 C392 1.403 1_565 S
C395 C396 1.524 . S
C395 C399 1.400 . S
C396 H381 0.960 . S
C396 H382 0.960 1_565 S
C396 H383 0.960 . S
C396 C395 1.524 . S
C397 C394 1.403 . S
C397 C398 1.392 1_545 S
C397 C401 1.495 . S
C398 C397 1.392 1_565 S
C398 C399 1.385 1_455 S
C398 C400 1.478 . S
C399 H393 0.930 . S
C399 C395 1.400 . S
C399 C398 1.385 1_655 S
C400 C398 1.478 . S
C400 C402 1.381 . S
C400 C406 1.383 . S
C401 C397 1.495 . S
C401 H407 0.959 . S
C401 H408 0.949 1_545 S
C401 H409 0.960 . S
C402 C400 1.381 . S
C402 C403 1.394 . S
C402 H410 0.930 . S
C403 C402 1.394 . S
C403 C404 1.383 . S
C403 H411 0.929 . S
C404 C403 1.383 . S
C404 C405 1.377 . S
C405 H389 0.930 . S
C405 C404 1.377 . S
C405 C406 1.379 . S
C406 H390 0.931 . S
C406 C400 1.383 . S
C406 C405 1.379 . S
H407 C401 0.959 . S
H408 C401 0.949 1_565 S
H409 C401 0.960 . S
H410 C402 0.930 . S
H411 C403 0.929 . S
H412 C420 0.929 . S
H413 C422 0.930 . S
H414 C424 0.930 . S
H415 C427 0.929 . S
H416 C430 0.930 . S
H417 C432 0.960 . S
H418 C432 0.960 . S
H419 C432 0.960 . S
C420 H412 0.929 . S
C420 C421 1.377 . S
C420 C422 1.384 . S
C421 C420 1.377 . S
C421 C427 1.390 . S
C422 H413 0.930 . S
C422 C420 1.384 . S
C422 C423 1.372 . S
C423 C422 1.372 . S
C423 C424 1.400 . S
C423 C428 1.490 . S
C424 H414 0.930 . S
C424 C423 1.400 . S
C424 C427 1.386 . S
H425 C441 0.930 . S
H426 C442 0.931 . S
C427 H415 0.929 . S
C427 C421 1.390 . S
C427 C424 1.386 . S
C428 C423 1.490 . S
C428 C430 1.395 . S
C428 C431 1.403 . S
H429 C435 0.930 . S
C430 H416 0.930 . S
C430 C428 1.395 . S
C430 C433 1.403 . S
C431 C428 1.403 . S
C431 C432 1.524 . S
C431 C435 1.400 . S
C432 H417 0.960 . S
C432 H418 0.960 . S
C432 H419 0.960 . S
C432 C431 1.524 . S
C433 C430 1.403 . S
C433 C434 1.392 . S
C433 C437 1.495 . S
C434 C433 1.392 . S
C434 C435 1.385 . S
C434 C436 1.478 . S
C435 H429 0.930 . S
C435 C431 1.400 . S
C435 C434 1.385 . S
C436 C434 1.478 . S
C436 C438 1.381 . S
C436 C442 1.383 . S
C437 C433 1.495 . S
C437 H443 0.959 . S
C437 H444 0.961 . S
C437 H445 0.960 . S
C438 C436 1.381 . S
C438 C439 1.394 . S
C438 H446 0.930 . S
C439 C438 1.394 . S
C439 C440 1.383 . S
C439 H447 0.929 . S
C440 C439 1.383 . S
C440 C441 1.377 . S
C441 H425 0.930 . S
C441 C440 1.377 . S
C441 C442 1.379 . S
C442 H426 0.931 . S
C442 C436 1.383 . S
C442 C441 1.379 . S
H443 C437 0.959 . S
H444 C437 0.961 . S
H445 C437 0.960 . S
H446 C438 0.930 . S
H447 C439 0.929 . S
H448 C456 0.929 . S
H449 C458 0.930 . S
H450 C460 0.930 . S
H451 C463 0.929 . S
H452 C466 0.930 . S
H453 C468 0.960 . S
H454 C468 0.960 . S
H455 C468 0.960 . S
C456 H448 0.929 . S
C456 C457 1.377 . S
C456 C458 1.384 . S
C457 C456 1.377 . S
C457 C463 1.390 . S
C458 H449 0.930 . S
C458 C456 1.384 . S
C458 C459 1.372 . S
C459 C458 1.372 . S
C459 C460 1.400 . S
C459 C464 1.490 . S
C460 H450 0.930 . S
C460 C459 1.400 . S
C460 C463 1.386 . S
H461 C477 0.930 . S
H462 C478 0.931 . S
C463 H451 0.929 . S
C463 C457 1.390 . S
C463 C460 1.386 . S
C464 C459 1.490 . S
C464 C466 1.395 . S
C464 C467 1.403 . S
H465 C471 0.930 . S
C466 H452 0.930 . S
C466 C464 1.395 . S
C466 C469 1.403 . S
C467 C464 1.403 . S
C467 C468 1.524 . S
C467 C471 1.400 . S
C468 H453 0.960 . S
C468 H454 0.960 . S
C468 H455 0.960 . S
C468 C467 1.524 . S
C469 C466 1.403 . S
C469 C470 1.392 . S
C469 C473 1.495 . S
C470 C469 1.392 . S
C470 C471 1.385 . S
C470 C472 1.478 . S
C471 H465 0.930 . S
C471 C467 1.400 . S
C471 C470 1.385 . S
C472 C470 1.478 . S
C472 C474 1.381 . S
C472 C478 1.383 . S
C473 C469 1.495 . S
C473 H479 0.959 . S
C473 H480 0.961 . S
C473 H481 0.960 . S
C474 C472 1.381 . S
C474 C475 1.394 . S
C474 H482 0.930 . S
C475 C474 1.394 . S
C475 C476 1.383 . S
C475 H483 0.929 . S
C476 C475 1.383 . S
C476 C477 1.377 . S
C477 H461 0.930 . S
C477 C476 1.377 . S
C477 C478 1.379 . S
C478 H462 0.931 . S
C478 C472 1.383 . S
C478 C477 1.379 . S
H479 C473 0.959 . S
H480 C473 0.961 . S
H481 C473 0.960 . S
H482 C474 0.930 . S
H483 C475 0.929 . S
H484 C492 0.929 . S
H485 C494 0.930 . S
H486 C496 0.930 . S
H487 C499 0.929 . S
H488 C502 0.930 . S
H489 C504 0.960 . S
H490 C504 0.960 . S
H491 C504 0.960 . S
C492 H484 0.929 . S
C492 C493 1.377 . S
C492 C494 1.384 . S
C493 C492 1.377 . S
C493 C499 1.390 . S
C494 H485 0.930 . S
C494 C492 1.384 . S
C494 C495 1.372 . S
C495 C494 1.372 . S
C495 C496 1.400 . S
C495 C500 1.490 . S
C496 H486 0.930 . S
C496 C495 1.400 . S
C496 C499 1.386 . S
H497 C513 0.930 . S
H498 C514 0.931 . S
C499 H487 0.929 . S
C499 C493 1.390 . S
C499 C496 1.386 . S
C500 C495 1.490 . S
C500 C502 1.395 . S
C500 C503 1.403 . S
H501 C507 0.930 . S
C502 H488 0.930 . S
C502 C500 1.395 . S
C502 C505 1.403 . S
C503 C500 1.403 . S
C503 C504 1.524 . S
C503 C507 1.400 . S
C504 H489 0.960 . S
C504 H490 0.960 . S
C504 H491 0.960 . S
C504 C503 1.524 . S
C505 C502 1.403 . S
C505 C506 1.392 . S
C505 C509 1.495 . S
C506 C505 1.392 . S
C506 C507 1.385 . S
C506 C508 1.478 . S
C507 H501 0.930 . S
C507 C503 1.400 . S
C507 C506 1.385 . S
C508 C506 1.478 . S
C508 C510 1.381 . S
C508 C514 1.383 . S
C509 C505 1.495 . S
C509 H515 0.959 . S
C509 H516 0.961 . S
C509 H517 0.960 . S
C510 C508 1.381 . S
C510 C511 1.394 . S
C510 H518 0.930 . S
C511 C510 1.394 . S
C511 C512 1.383 . S
C511 H519 0.929 . S
C512 C511 1.383 . S
C512 C513 1.377 . S
C513 H497 0.930 . S
C513 C512 1.377 . S
C513 C514 1.379 . S
C514 H498 0.931 . S
C514 C508 1.383 . S
C514 C513 1.379 . S
H515 C509 0.959 . S
H516 C509 0.961 . S
H517 C509 0.960 . S
H518 C510 0.930 . S
H519 C511 0.929 . S
H520 C528 0.929 . S
H521 C530 0.930 . S
H522 C532 0.930 . S
H523 C535 0.929 . S
H524 C538 0.930 . S
H525 C540 0.960 . S
H526 C540 0.960 . S
H527 C540 0.960 . S
C528 H520 0.929 . S
C528 C529 1.377 . S
C528 C530 1.384 . S
C529 C528 1.377 . S
C529 C535 1.390 . S
C530 H521 0.930 . S
C530 C528 1.384 . S
C530 C531 1.372 . S
C531 C530 1.372 . S
C531 C532 1.400 . S
C531 C536 1.490 . S
C532 H522 0.930 . S
C532 C531 1.400 . S
C532 C535 1.386 . S
H533 C549 0.930 . S
H534 C550 0.931 . S
C535 H523 0.929 . S
C535 C529 1.390 . S
C535 C532 1.386 . S
C536 C531 1.490 . S
C536 C538 1.395 . S
C536 C539 1.403 . S
H537 C543 0.930 . S
C538 H524 0.930 . S
C538 C536 1.395 . S
C538 C541 1.403 . S
C539 C536 1.403 . S
C539 C540 1.524 . S
C539 C543 1.400 . S
C540 H525 0.960 . S
C540 H526 0.960 . S
C540 H527 0.960 . S
C540 C539 1.524 . S
C541 C538 1.403 . S
C541 C542 1.392 . S
C541 C545 1.495 . S
C542 C541 1.392 . S
C542 C543 1.385 . S
C542 C544 1.478 . S
C543 H537 0.930 . S
C543 C539 1.400 . S
C543 C542 1.385 . S
C544 C542 1.478 . S
C544 C546 1.381 . S
C544 C550 1.383 . S
C545 C541 1.495 . S
C545 H551 0.959 . S
C545 H552 0.961 . S
C545 H553 0.960 . S
C546 C544 1.381 . S
C546 C547 1.394 . S
C546 H554 0.930 . S
C547 C546 1.394 . S
C547 C548 1.383 . S
C547 H555 0.929 . S
C548 C547 1.383 . S
C548 C549 1.377 . S
C549 H533 0.930 . S
C549 C548 1.377 . S
C549 C550 1.379 . S
C550 H534 0.931 . S
C550 C544 1.383 . S
C550 C549 1.379 . S
H551 C545 0.959 . S
H552 C545 0.961 . S
H553 C545 0.960 . S
H554 C546 0.930 . S
H555 C547 0.929 . S
H556 C564 0.929 . S
H557 C566 0.930 . S
H558 C568 0.930 . S
H559 C571 0.929 . S
H560 C574 0.930 . S
H561 C576 0.960 . S
H562 C576 0.960 . S
H563 C576 0.960 . S
C564 H556 0.929 . S
C564 C565 1.377 . S
C564 C566 1.384 . S
C565 C564 1.377 . S
C565 C571 1.390 . S
C566 H557 0.930 . S
C566 C564 1.384 . S
C566 C567 1.372 . S
C567 C566 1.372 . S
C567 C568 1.400 . S
C567 C572 1.490 . S
C568 H558 0.930 . S
C568 C567 1.400 . S
C568 C571 1.386 . S
H569 C585 0.930 . S
H570 C586 0.931 . S
C571 H559 0.929 . S
C571 C565 1.390 . S
C571 C568 1.386 . S
C572 C567 1.490 . S
C572 C574 1.395 . S
C572 C575 1.403 1_455 S
H573 C579 0.930 . S
C574 H560 0.930 . S
C574 C572 1.395 . S
C574 C577 1.403 . S
C575 C572 1.403 1_655 S
C575 C576 1.524 . S
C575 C579 1.400 . S
C576 H561 0.960 . S
C576 H562 0.960 . S
C576 H563 0.960 . S
C576 C575 1.524 . S
C577 C574 1.403 . S
C577 C578 1.392 1_455 S
C577 C581 1.495 . S
C578 C577 1.392 1_655 S
C578 C579 1.385 . S
C578 C580 1.478 . S
C579 H573 0.930 . S
C579 C575 1.400 . S
C579 C578 1.385 . S
C580 C578 1.478 . S
C580 C582 1.381 . S
C580 C586 1.383 . S
C581 C577 1.495 . S
C581 H587 0.959 . S
C581 H588 0.961 . S
C581 H589 0.951 1_455 S
C582 C580 1.381 . S
C582 C583 1.394 . S
C582 H590 0.930 . S
C583 C582 1.394 . S
C583 C584 1.383 . S
C583 H591 0.929 . S
C584 C583 1.383 . S
C584 C585 1.377 . S
C585 H569 0.930 . S
C585 C584 1.377 . S
C585 C586 1.379 . S
C586 H570 0.931 . S
C586 C580 1.383 . S
C586 C585 1.379 . S
H587 C581 0.959 . S
H588 C581 0.961 . S
H589 C581 0.951 1_655 S
H590 C582 0.930 . S
H591 C583 0.929 . S
H592 C600 0.929 . S
H593 C602 0.930 1_455 S
H594 C604 0.930 . S
H595 C607 0.929 . S
H596 C610 0.930 . S
H597 C612 0.960 . S
H598 C612 0.960 . S
H599 C612 0.960 . S
C600 H592 0.929 . S
C600 C601 1.377 . S
C600 C602 1.384 . S
C601 C600 1.377 . S
C601 C607 1.390 . S
C602 H593 0.930 1_655 S
C602 C600 1.384 . S
C602 C603 1.372 . S
C603 C602 1.372 . S
C603 C604 1.400 . S
C603 C608 1.490 . S
C604 H594 0.930 . S
C604 C603 1.400 . S
C604 C607 1.386 . S
H605 C621 0.930 . S
H606 C622 0.931 1_655 S
C607 H595 0.929 . S
C607 C601 1.390 . S
C607 C604 1.386 . S
C608 C603 1.490 . S
C608 C610 1.395 1_655 S
C608 C611 1.403 . S
H609 C615 0.930 . S
C610 H596 0.930 . S
C610 C608 1.395 1_455 S
C610 C613 1.403 . S
C611 C608 1.403 . S
C611 C612 1.524 . S
C611 C615 1.400 . S
C612 H597 0.960 . S
C612 H598 0.960 . S
C612 H599 0.960 . S
C612 C611 1.524 . S
C613 C610 1.403 . S
C613 C614 1.392 . S
C613 C617 1.495 . S
C614 C613 1.392 . S
C614 C615 1.385 1_455 S
C614 C616 1.478 . S
C615 H609 0.930 . S
C615 C611 1.400 . S
C615 C614 1.385 1_655 S
C616 C614 1.478 . S
C616 C618 1.381 . S
C616 C622 1.383 . S
C617 C613 1.495 . S
C617 H623 0.959 . S
C617 H624 0.961 . S
C617 H625 0.960 . S
C618 C616 1.381 . S
C618 C619 1.394 . S
C618 H626 0.930 . S
C619 C618 1.394 . S
C619 C620 1.383 . S
C619 H627 0.929 . S
C620 C619 1.383 . S
C620 C621 1.377 . S
C621 H605 0.930 . S
C621 C620 1.377 . S
C621 C622 1.379 . S
C622 H606 0.931 1_455 S
C622 C616 1.383 . S
C622 C621 1.379 . S
H623 C617 0.959 . S
H624 C617 0.961 . S
H625 C617 0.960 . S
H626 C618 0.930 . S
H627 C619 0.929 . S
H628 C636 0.929 . S
H629 C638 0.930 . S
H630 C640 0.930 . S
H631 C643 0.929 . S
H632 C646 0.930 . S
H633 C648 0.960 . S
H634 C648 0.960 . S
H635 C648 0.960 . S
C636 H628 0.929 . S
C636 C637 1.377 . S
C636 C638 1.384 . S
C637 C636 1.377 . S
C637 C643 1.390 . S
C638 H629 0.930 . S
C638 C636 1.384 . S
C638 C639 1.372 . S
C639 C638 1.372 . S
C639 C640 1.400 . S
C639 C644 1.490 . S
C640 H630 0.930 . S
C640 C639 1.400 . S
C640 C643 1.386 . S
H641 C657 0.930 . S
H642 C658 0.931 . S
C643 H631 0.929 . S
C643 C637 1.390 . S
C643 C640 1.386 . S
C644 C639 1.490 . S
C644 C646 1.395 . S
C644 C647 1.403 1_455 S
H645 C651 0.930 . S
C646 H632 0.930 . S
C646 C644 1.395 . S
C646 C649 1.403 . S
C647 C644 1.403 1_655 S
C647 C648 1.524 . S
C647 C651 1.400 . S
C648 H633 0.960 . S
C648 H634 0.960 . S
C648 H635 0.960 . S
C648 C647 1.524 . S
C649 C646 1.403 . S
C649 C650 1.392 1_455 S
C649 C653 1.495 . S
C650 C649 1.392 1_655 S
C650 C651 1.385 . S
C650 C652 1.478 . S
C651 H645 0.930 . S
C651 C647 1.400 . S
C651 C650 1.385 . S
C652 C650 1.478 . S
C652 C654 1.381 . S
C652 C658 1.383 . S
C653 C649 1.495 . S
C653 H659 0.959 . S
C653 H660 0.961 . S
C653 H661 0.960 . S
C654 C652 1.381 . S
C654 C655 1.394 . S
C654 H662 0.930 . S
C655 C654 1.394 . S
C655 C656 1.383 . S
C655 H663 0.929 . S
C656 C655 1.383 . S
C656 C657 1.377 . S
C657 H641 0.930 . S
C657 C656 1.377 . S
C657 C658 1.379 . S
C658 H642 0.931 . S
C658 C652 1.383 . S
C658 C657 1.379 . S
H659 C653 0.959 . S
H660 C653 0.961 . S
H661 C653 0.960 . S
H662 C654 0.930 . S
H663 C655 0.929 . S
H664 C672 0.929 . S
H665 C674 0.930 . S
H666 C676 0.930 1_655 S
H667 C679 0.929 . S
H668 C682 0.930 . S
H669 C684 0.960 . S
H670 C684 0.960 1_455 S
H671 C684 0.960 . S
C672 H664 0.929 . S
C672 C673 1.377 . S
C672 C674 1.384 . S
C673 C672 1.377 . S
C673 C679 1.390 . S
C674 H665 0.930 . S
C674 C672 1.384 . S
C674 C675 1.372 . S
C675 C674 1.372 . S
C675 C676 1.400 . S
C675 C680 1.490 . S
C676 H666 0.930 1_455 S
C676 C675 1.400 . S
C676 C679 1.386 . S
H677 C693 0.930 . S
H678 C694 0.931 . S
C679 H667 0.929 . S
C679 C673 1.390 . S
C679 C676 1.386 . S
C680 C675 1.490 . S
C680 C682 1.395 . S
C680 C683 1.403 1_455 S
H681 C687 0.930 . S
C682 H668 0.930 . S
C682 C680 1.395 . S
C682 C685 1.403 . S
C683 C680 1.403 1_655 S
C683 C684 1.524 . S
C683 C687 1.400 . S
C684 H669 0.960 . S
C684 H670 0.960 1_655 S
C684 H671 0.960 . S
C684 C683 1.524 . S
C685 C682 1.403 . S
C685 C686 1.392 1_455 S
C685 C689 1.495 . S
C686 C685 1.392 1_655 S
C686 C687 1.385 . S
C686 C688 1.478 . S
C687 H681 0.930 . S
C687 C683 1.400 . S
C687 C686 1.385 . S
C688 C686 1.478 . S
C688 C690 1.381 1_655 S
C688 C694 1.383 . S
C689 C685 1.495 . S
C689 H695 0.959 . S
C689 H696 0.961 . S
C689 H697 0.960 . S
C690 C688 1.381 1_455 S
C690 C691 1.394 1_455 S
C690 H698 0.930 . S
C691 C690 1.394 1_655 S
C691 C692 1.383 . S
C691 H699 0.929 1_655 S
C692 C691 1.383 . S
C692 C693 1.377 . S
C693 H677 0.930 . S
C693 C692 1.377 . S
C693 C694 1.379 . S
C694 H678 0.931 . S
C694 C688 1.383 . S
C694 C693 1.379 . S
H695 C689 0.959 . S
H696 C689 0.961 . S
H697 C689 0.960 . S
H698 C690 0.930 . S
H699 C691 0.929 1_455 S
C133 C11 1.318 . S
C152 C18 1.329 . S
C169 C42 1.318 . S
C188 C49 1.328 . S
C205 C73 1.315 . S
C224 C80 1.309 . S
C241 C104 1.321 . S
C260 C111 1.307 . S
C277 C41 1.569 . S
C296 C2 1.560 . S
C313 C103 1.569 . S
C332 C64 1.570 . S
C349 C10 1.569 . S
C368 C33 1.566 1_554 S
C385 C95 1.575 . S
C404 C72 1.571 . S
C421 C93 1.086 . S
C440 C1 1.125 . S
C457 C31 1.070 . S
C476 C63 1.041 . S
C493 C86 1.072 . S
C512 C58 1.120 . S
C529 C24 1.084 . S
C548 C120 1.118 . S
C565 C62 1.089 . S
C584 C32 1.126 . S
C601 C94 1.083 . S
C620 C0 1.045 . S
C637 C27 1.090 . S
C656 C117 1.117 . S
C673 C89 1.079 . S
C692 C55 1.111 . S
