# Generated by pormake.
# Topology wjv, (5)-cn, num edge types: 1
# Building blocks:
#     Node 0, Type 0, BuildingBlock: BEQFEK_clean_sbu_0, # of connection points: 5
#     Node 1, Type 0, BuildingBlock: BEQFEK_clean_sbu_0, # of connection points: 5
#     Node 2, Type 0, BuildingBlock: BEQFEK_clean_sbu_0, # of connection points: 5
#     Node 3, Type 0, BuildingBlock: BEQFEK_clean_sbu_0, # of connection points: 5
#     Node 4, Type 0, BuildingBlock: BEQFEK_clean_sbu_0, # of connection points: 5
#     Node 5, Type 0, BuildingBlock: BEQFEK_clean_sbu_0, # of connection points: 5
#     Node 6, Type 0, BuildingBlock: BEQFEK_clean_sbu_0, # of connection points: 5
#     Node 7, Type 0, BuildingBlock: BEQFEK_clean_sbu_0, # of connection points: 5
#     Node 8, Type 0, BuildingBlock: BEQFEK_clean_sbu_0, # of connection points: 5
#     Node 9, Type 0, BuildingBlock: BEQFEK_clean_sbu_0, # of connection points: 5
#     Node 10, Type 0, BuildingBlock: BEQFEK_clean_sbu_0, # of connection points: 5
#     Node 11, Type 0, BuildingBlock: BEQFEK_clean_sbu_0, # of connection points: 5
#     Edge 12, Type (0, 0), BuildingBlock: EZIPEK_clean_linker_0, # of connection points: 2
#     Edge 13, Type (0, 0), BuildingBlock: EZIPEK_clean_linker_0, # of connection points: 2
#     Edge 14, Type (0, 0), BuildingBlock: EZIPEK_clean_linker_0, # of connection points: 2
#     Edge 15, Type (0, 0), BuildingBlock: EZIPEK_clean_linker_0, # of connection points: 2
#     Edge 16, Type (0, 0), BuildingBlock: EZIPEK_clean_linker_0, # of connection points: 2
#     Edge 17, Type (0, 0), BuildingBlock: EZIPEK_clean_linker_0, # of connection points: 2
#     Edge 18, Type (0, 0), BuildingBlock: EZIPEK_clean_linker_0, # of connection points: 2
#     Edge 19, Type (0, 0), BuildingBlock: EZIPEK_clean_linker_0, # of connection points: 2
#     Edge 20, Type (0, 0), BuildingBlock: EZIPEK_clean_linker_0, # of connection points: 2
#     Edge 21, Type (0, 0), BuildingBlock: EZIPEK_clean_linker_0, # of connection points: 2
#     Edge 22, Type (0, 0), BuildingBlock: EZIPEK_clean_linker_0, # of connection points: 2
#     Edge 23, Type (0, 0), BuildingBlock: EZIPEK_clean_linker_0, # of connection points: 2
#     Edge 24, Type (0, 0), BuildingBlock: EZIPEK_clean_linker_0, # of connection points: 2
#     Edge 25, Type (0, 0), BuildingBlock: EZIPEK_clean_linker_0, # of connection points: 2
#     Edge 26, Type (0, 0), BuildingBlock: EZIPEK_clean_linker_0, # of connection points: 2
#     Edge 27, Type (0, 0), BuildingBlock: EZIPEK_clean_linker_0, # of connection points: 2
#     Edge 28, Type (0, 0), BuildingBlock: EZIPEK_clean_linker_0, # of connection points: 2
#     Edge 29, Type (0, 0), BuildingBlock: EZIPEK_clean_linker_0, # of connection points: 2
#     Edge 30, Type (0, 0), BuildingBlock: EZIPEK_clean_linker_0, # of connection points: 2
#     Edge 31, Type (0, 0), BuildingBlock: EZIPEK_clean_linker_0, # of connection points: 2
#     Edge 32, Type (0, 0), BuildingBlock: EZIPEK_clean_linker_0, # of connection points: 2
#     Edge 33, Type (0, 0), BuildingBlock: EZIPEK_clean_linker_0, # of connection points: 2
#     Edge 34, Type (0, 0), BuildingBlock: EZIPEK_clean_linker_0, # of connection points: 2
#     Edge 35, Type (0, 0), BuildingBlock: EZIPEK_clean_linker_0, # of connection points: 2
#     Edge 36, Type (0, 0), BuildingBlock: EZIPEK_clean_linker_0, # of connection points: 2
#     Edge 37, Type (0, 0), BuildingBlock: EZIPEK_clean_linker_0, # of connection points: 2
#     Edge 38, Type (0, 0), BuildingBlock: EZIPEK_clean_linker_0, # of connection points: 2
#     Edge 39, Type (0, 0), BuildingBlock: EZIPEK_clean_linker_0, # of connection points: 2
#     Edge 40, Type (0, 0), BuildingBlock: EZIPEK_clean_linker_0, # of connection points: 2
#     Edge 41, Type (0, 0), BuildingBlock: EZIPEK_clean_linker_0, # of connection points: 2
# Relax obj value: 0.138
# Max RMSD: 0.111
# Mean RMSD: 0.111
data_MOF--net-wjv--node1-BEQFEK_clean_sbu_0--edge1-EZIPEK_clean_linker_0
_symmetry_space_group_name_H-M    P1
_symmetry_Int_Tables_number       1
_symmetry_cell_setting            triclinic
loop_
_symmetry_equiv_pos_as_xyz
'x, y, z'
_cell_length_a     26.71294
_cell_length_b     26.706475
_cell_length_c     44.570444
_cell_angle_alpha  89.964463
_cell_angle_beta   89.972337
_cell_angle_gamma 120.01266
loop_
_atom_site_label
_atom_site_type_symbol
_atom_site_fract_x
_atom_site_fract_y
_atom_site_fract_z
_atom_type_partial_charge
Co0 Co 0.21912 0.29669 0.22195 0.0
Co1 Co 0.22778 0.31693 0.15148 0.0
C2 C 0.11802 0.28174 0.18607 0.0
O3 O 0.14033 0.28366 0.2117 0.0
O4 O 0.14722 0.29321 0.16198 0.0
C5 C 0.22486 0.30406 0.29025 0.0
O6 O 0.21957 0.35041 0.29029 0.0
C7 C 0.20917 0.35096 0.09142 0.0
C8 C 0.26838 0.33463 0.06391 0.0
C9 C 0.22648 0.35047 0.06217 0.0
N10 N 0.23969 0.33626 0.10977 0.0
N11 N 0.27539 0.32712 0.09316 0.0
C12 C 0.16022 0.35903 0.10133 0.0
H13 H 0.17011 0.38076 0.12352 0.0
H14 H 0.1517 0.38472 0.08463 0.0
H15 H 0.12069 0.316 0.10365 0.0
C16 C 0.33405 0.40551 0.21733 0.0
N17 N 0.28179 0.36738 0.20587 0.0
N18 N 0.2831 0.37637 0.17663 0.0
C19 C 0.33544 0.42076 0.169 0.0
C20 C 0.36975 0.43948 0.19432 0.0
C21 C 0.35441 0.40228 0.24803 0.0
H22 H 0.31924 0.3893 0.26447 0.0
H23 H 0.39152 0.44477 0.25467 0.0
H24 H 0.36929 0.37027 0.24787 0.0
O25 O 0.22434 0.23258 0.20442 0.0
O26 O 0.23638 0.24834 0.15533 0.0
H27 H 0.39642 0.48059 0.13683 0.0
H28 H 0.3226 0.4396 0.12382 0.0
C29 C 0.35628 0.43774 0.13748 0.0
H30 H 0.36587 0.40527 0.12773 0.0
H31 H 0.30247 0.31282 0.10165 0.0
O32 O 0.22525 0.28078 0.26547 0.0
C33 C 0.23236 0.21873 0.17843 0.0
Co34 Co 0.92033 0.21791 0.55243 0.0
Co35 Co 0.89888 0.23545 0.48422 0.0
C36 C 0.83152 0.12035 0.51525 0.0
O37 O 0.85544 0.13919 0.54072 0.0
O38 O 0.8447 0.15344 0.49257 0.0
C39 C 0.92134 0.22052 0.62007 0.0
O40 O 0.87252 0.22127 0.61983 0.0
C41 C 0.84519 0.21837 0.4246 0.0
C42 C 0.91429 0.29117 0.39914 0.0
C43 C 0.86066 0.24201 0.39614 0.0
N44 N 0.88764 0.25215 0.44378 0.0
N45 N 0.92865 0.29578 0.42837 0.0
C46 C 0.79406 0.16123 0.43261 0.0
H47 H 0.80809 0.12867 0.43486 0.0
H48 H 0.77594 0.16456 0.45443 0.0
H49 H 0.7602 0.14649 0.41502 0.0
C50 C 0.92943 0.33429 0.55428 0.0
N51 N 0.90989 0.28208 0.54119 0.0
N52 N 0.89483 0.2853 0.51331 0.0
C53 C 0.90125 0.33805 0.50863 0.0
C54 C 0.92547 0.37138 0.53389 0.0
C55 C 0.9651 0.35358 0.58217 0.0
H56 H 0.94262 0.32288 0.60058 0.0
H57 H 0.97384 0.39706 0.58929 0.0
H58 H 0.00691 0.35573 0.57763 0.0
O59 O 0.98865 0.22804 0.53142 0.0
O60 O 0.97826 0.24771 0.48421 0.0
H61 H 0.93694 0.37991 0.46685 0.0
H62 H 0.88387 0.39488 0.48215 0.0
C63 C 0.89509 0.36043 0.47893 0.0
H64 H 0.86081 0.32514 0.46543 0.0
H65 H 0.96816 0.32673 0.43744 0.0
O66 O 0.94374 0.21812 0.59534 0.0
C67 C 0.00732 0.24099 0.50476 0.0
Co68 Co 0.69691 0.92167 0.8886 0.0
Co69 Co 0.66869 0.90622 0.81882 0.0
C70 C 0.70967 0.83477 0.85189 0.0
O71 O 0.71018 0.85661 0.87745 0.0
O72 O 0.69441 0.85012 0.82819 0.0
C73 C 0.69516 0.91932 0.95669 0.0
O74 O 0.64956 0.86716 0.9567 0.0
C75 C 0.63367 0.85424 0.75864 0.0
C76 C 0.64364 0.92881 0.7323 0.0
C77 C 0.63199 0.87239 0.72971 0.0
N78 N 0.6456 0.89797 0.77762 0.0
N79 N 0.65087 0.94217 0.76168 0.0
C80 C 0.63119 0.79906 0.76751 0.0
H81 H 0.60918 0.78419 0.78953 0.0
H82 H 0.60821 0.7651 0.7503 0.0
H83 H 0.6759 0.80684 0.76976 0.0
C84 C 0.58753 0.9266 0.88788 0.0
N85 N 0.62419 0.91197 0.87494 0.0
N86 N 0.61194 0.90328 0.84601 0.0
C87 C 0.5669 0.91127 0.84007 0.0
C88 C 0.5512 0.92793 0.86615 0.0
C89 C 0.59442 0.9513 0.91861 0.0
H90 H 0.60784 0.92864 0.93449 0.0
H91 H 0.55321 0.9475 0.92649 0.0
H92 H 0.62748 -0.00216 0.91781 0.0
O93 O 0.75832 0.99087 0.86935 0.0
O94 O 0.73751 0.98366 0.82075 0.0
H95 H 0.50259 0.90934 0.81016 0.0
H96 H 0.54467 0.87925 0.79506 0.0
C97 C 0.54628 0.91405 0.80928 0.0
H98 H 0.57636 0.95667 0.79917 0.0
H99 H 0.66309 0.98278 0.77065 0.0
O100 O 0.71673 0.94419 0.93184 0.0
C101 C 0.76927 0.01099 0.84291 0.0
Co102 Co 0.76963 0.69386 0.22196 0.0
Co103 Co 0.76579 0.67853 0.1515 0.0
C104 C 0.87265 0.70931 0.18875 0.0
O105 O 0.84779 0.70388 0.21401 0.0
O106 O 0.84554 0.70067 0.16407 0.0
C107 C 0.79211 0.72577 0.28566 0.0
O108 O 0.84597 0.73994 0.28025 0.0
C109 C 0.78726 0.6449 0.09213 0.0
C110 C 0.73218 0.66476 0.06326 0.0
C111 C 0.77262 0.64688 0.06254 0.0
N112 N 0.75667 0.66073 0.10971 0.0
N113 N 0.72338 0.67194 0.0923 0.0
C114 C 0.83386 0.63418 0.10318 0.0
H115 H 0.87391 0.67631 0.10676 0.0
H116 H 0.82084 0.61093 0.12495 0.0
H117 H 0.84307 0.60879 0.08662 0.0
C118 C 0.65636 0.58865 0.21605 0.0
N119 N 0.70865 0.62581 0.20452 0.0
N120 N 0.70708 0.61882 0.17519 0.0
C121 C 0.6537 0.57667 0.16732 0.0
C122 C 0.61965 0.55707 0.19287 0.0
C123 C 0.63915 0.59036 0.24775 0.0
H124 H 0.64258 0.63282 0.25226 0.0
H125 H 0.6693 0.58546 0.26288 0.0
H126 H 0.59429 0.5553 0.25239 0.0
O127 O 0.76773 0.76063 0.20471 0.0
O128 O 0.75877 0.74781 0.15533 0.0
H129 H 0.62614 0.59834 0.1269 0.0
H130 H 0.5904 0.52189 0.13457 0.0
C131 C 0.63234 0.56299 0.13573 0.0
H132 H 0.66449 0.55939 0.12154 0.0
H133 H 0.69682 0.68742 0.10013 0.0
O134 O 0.75436 0.70145 0.26519 0.0
C135 C 0.76174 0.77631 0.1787 0.0
Co136 Co 0.07274 0.77241 0.55451 0.0
Co137 Co 0.08867 0.7617 0.48454 0.0
C138 C 0.15934 0.873 0.51871 0.0
O139 O 0.13776 0.85106 0.54423 0.0
O140 O 0.14387 0.84302 0.49483 0.0
C141 C 0.073 0.77093 0.62261 0.0
O142 O 0.12534 0.77797 0.62294 0.0
C143 C 0.14597 0.7809 0.4257 0.0
C144 C 0.07296 0.72087 0.39706 0.0
C145 C 0.13046 0.76374 0.39621 0.0
N146 N 0.0997 0.74939 0.44332 0.0
N147 N 0.05641 0.71317 0.42602 0.0
C148 C 0.20158 0.83091 0.43636 0.0
H149 H 0.21241 0.82146 0.45892 0.0
H150 H 0.23719 0.84051 0.42039 0.0
H151 H 0.1966 0.86966 0.43809 0.0
C152 C 0.06824 0.65848 0.55282 0.0
N153 N 0.08295 0.7101 0.54026 0.0
N154 N 0.09111 0.70707 0.51121 0.0
C155 C 0.0822 0.65391 0.50473 0.0
C156 C 0.06579 0.62101 0.53065 0.0
C157 C 0.04456 0.64037 0.58374 0.0
H158 H 0.06783 0.67628 0.59964 0.0
H159 H 0.04848 0.60279 0.59117 0.0
H160 H -0.00193 0.62701 0.58352 0.0
O161 O 0.00415 0.76541 0.53498 0.0
O162 O 0.01101 0.75258 0.48622 0.0
H163 H 0.07918 0.59024 0.47384 0.0
H164 H 0.11372 0.66338 0.45965 0.0
C165 C 0.07771 0.63104 0.47365 0.0
H166 H 0.03602 0.62204 0.46367 0.0
H167 H 0.01454 0.68554 0.43378 0.0
O168 O 0.04881 0.76801 0.59762 0.0
C169 C 0.98392 0.75684 0.50859 0.0
Co170 Co 0.29617 0.07526 0.88844 0.0
Co171 Co 0.32467 0.08991 0.81893 0.0
C172 C 0.284 0.16208 0.85264 0.0
O173 O 0.2834 0.14131 0.87853 0.0
O174 O 0.29795 0.14468 0.82923 0.0
C175 C 0.23537 0.02157 0.9427 0.0
O176 O 0.18982 0.00856 0.92612 0.0
C177 C 0.35856 0.14484 0.75947 0.0
C178 C 0.3508 0.07263 0.73186 0.0
C179 C 0.36058 0.12854 0.7302 0.0
N180 N 0.34816 0.10056 0.77775 0.0
N181 N 0.34425 0.0578 0.76107 0.0
C182 C 0.3589 0.19852 0.76929 0.0
H183 H 0.31363 0.18898 0.77185 0.0
H184 H 0.3809 0.21296 0.79131 0.0
H185 H 0.38088 0.23355 0.75245 0.0
C186 C 0.40241 0.06823 0.88818 0.0
N187 N 0.36809 0.08495 0.87458 0.0
N188 N 0.38116 0.09306 0.84578 0.0
C189 C 0.42487 0.08279 0.84041 0.0
C190 C 0.43863 0.06518 0.86685 0.0
C191 C 0.39271 0.04425 0.91933 0.0
H192 H 0.35013 0.00386 0.92043 0.0
H193 H 0.39205 0.07583 0.93524 0.0
H194 H 0.42707 0.0347 0.92609 0.0
O195 O 0.23391 0.00612 0.86915 0.0
O196 O 0.25718 0.01177 0.8209 0.0
H197 H 0.41466 0.03554 0.80013 0.0
H198 H 0.48863 0.08225 0.81096 0.0
C199 C 0.44531 0.07836 0.80982 0.0
H200 H 0.4476 0.11289 0.79509 0.0
H201 H 0.33315 0.017 0.76939 0.0
O202 O 0.28571 0.05448 0.93203 0.0
C203 C 0.22408 0.98522 0.84285 0.0
Co204 Co 0.6902 0.77154 0.45828 0.0
Co205 Co 0.67466 0.76483 0.52887 0.0
C206 C 0.70775 0.87382 0.49271 0.0
O207 O 0.70141 0.84977 0.46714 0.0
O208 O 0.69866 0.84562 0.5171 0.0
C209 C 0.72208 0.79567 0.39449 0.0
O210 O 0.73629 0.84946 0.40013 0.0
C211 C 0.64126 0.78415 0.58901 0.0
C212 C 0.65842 0.72564 0.61665 0.0
C213 C 0.64177 0.76697 0.61829 0.0
N214 N 0.65665 0.75408 0.57074 0.0
N215 N 0.66637 0.71886 0.58744 0.0
C216 C 0.63199 0.83226 0.57891 0.0
H217 H 0.67462 0.872 0.57591 0.0
H218 H 0.60929 0.82114 0.55699 0.0
H219 H 0.60671 0.84103 0.59576 0.0
C220 C 0.5843 0.65866 0.46337 0.0
N221 N 0.62169 0.71037 0.47538 0.0
N222 N 0.61451 0.70763 0.50473 0.0
C223 C 0.57197 0.65405 0.51211 0.0
C224 C 0.55238 0.62104 0.48624 0.0
C225 C 0.58632 0.64259 0.4315 0.0
H226 H 0.58183 0.67344 0.41673 0.0
H227 H 0.55115 0.59799 0.42648 0.0
H228 H 0.6287 0.64589 0.42692 0.0
O229 O 0.75662 0.76859 0.47512 0.0
O230 O 0.7432 0.75662 0.52441 0.0
H231 H 0.59267 0.62371 0.55186 0.0
H232 H 0.51636 0.58975 0.54429 0.0
C233 C 0.55794 0.63128 0.54347 0.0
H234 H 0.55506 0.66317 0.5582 0.0
H235 H 0.6811 0.69208 0.57901 0.0
O236 O 0.69785 0.75758 0.41486 0.0
C237 C 0.77189 0.76092 0.50088 0.0
Co238 Co 0.9137 0.69232 0.7924 0.0
Co239 Co 0.90896 0.67325 0.86262 0.0
C240 C 0.83226 0.7098 0.83139 0.0
O241 O 0.852 0.70998 0.80525 0.0
O242 O 0.84942 0.69469 0.8545 0.0
C243 C 0.95517 0.74745 0.73622 0.0
O244 O 0.96467 0.79321 0.75171 0.0
C245 C 0.86361 0.64106 0.92393 0.0
C246 C 0.94186 0.65775 0.94895 0.0
C247 C 0.8845 0.6425 0.95251 0.0
N248 N 0.90662 0.65477 0.90419 0.0
N249 N 0.95312 0.66408 0.9193 0.0
C250 C 0.80586 0.63342 0.91594 0.0
H251 H 0.80984 0.67663 0.9135 0.0
H252 H 0.79103 0.6103 0.89422 0.0
H253 H 0.77353 0.60915 0.93371 0.0
C254 C 0.92049 0.58624 0.79428 0.0
N255 N 0.90596 0.62235 0.80779 0.0
N256 N 0.90374 0.61396 0.83703 0.0
C257 C 0.91579 0.57156 0.84285 0.0
C258 C 0.92819 0.55366 0.81608 0.0
C259 C 0.93852 0.59134 0.76213 0.0
H260 H 0.97886 0.6333 0.75867 0.0
H261 H 0.90441 0.59048 0.7476 0.0
H262 H 0.94622 0.55565 0.75557 0.0
O263 O 0.98673 0.7552 0.80723 0.0
O264 O 0.98458 0.74375 0.85666 0.0
H265 H 0.96992 0.59031 0.88124 0.0
H266 H 0.92592 0.51437 0.87325 0.0
C267 C 0.92668 0.55631 0.8735 0.0
H268 H 0.89341 0.5535 0.88937 0.0
H269 H 0.99349 0.67802 0.90953 0.0
O270 O 0.92722 0.69764 0.74827 0.0
C271 C 0.00958 0.77129 0.8329 0.0
Co272 Co 0.21475 0.91288 0.12608 0.0
Co273 Co 0.23383 0.90281 0.19589 0.0
C274 C 0.11933 0.82784 0.16666 0.0
O275 O 0.13671 0.85022 0.14069 0.0
O276 O 0.15364 0.84226 0.18882 0.0
C277 C 0.21275 0.9074 0.05759 0.0
O278 O 0.21146 0.85755 0.05776 0.0
C279 C 0.22349 0.85508 0.25667 0.0
C280 C 0.28594 0.93261 0.28183 0.0
C281 C 0.24387 0.87518 0.28526 0.0
N282 N 0.25228 0.89859 0.23705 0.0
N283 N 0.29002 0.94463 0.25227 0.0
C284 C 0.17271 0.7977 0.24876 0.0
H285 H 0.13373 0.80224 0.24686 0.0
H286 H 0.18019 0.7829 0.22683 0.0
H287 H 0.16474 0.76505 0.26634 0.0
C288 C 0.33201 0.92334 0.1256 0.0
N289 N 0.28067 0.9068 0.13912 0.0
N290 N 0.28649 0.90023 0.1681 0.0
C291 C 0.34059 0.91086 0.17346 0.0
C292 C 0.37154 0.92751 0.14698 0.0
C293 C 0.34794 0.94766 0.09467 0.0
H294 H 0.3118 0.92326 0.07911 0.0
H295 H 0.3864 0.94604 0.08652 0.0
H296 H 0.35905 0.99356 0.09519 0.0
O297 O 0.22395 0.9835 0.14346 0.0
O298 O 0.23697 0.97821 0.19234 0.0
H299 H 0.37665 0.95854 0.21374 0.0
H300 H 0.40618 0.91382 0.20279 0.0
C301 C 0.36587 0.91613 0.204 0.0
H302 H 0.33444 0.88097 0.21873 0.0
H303 H 0.31606 0.98532 0.24272 0.0
O304 O 0.2132 0.93119 0.08236 0.0
C305 C 0.23225 0.00445 0.16967 0.0
Co306 Co 0.30142 0.22059 0.46006 0.0
Co307 Co 0.31306 0.23192 0.53073 0.0
C308 C 0.27982 0.12018 0.49856 0.0
O309 O 0.28261 0.14073 0.47233 0.0
O310 O 0.29166 0.15134 0.52195 0.0
C311 C 0.25001 0.20925 0.4033 0.0
O312 O 0.20379 0.17197 0.41821 0.0
C313 C 0.34733 0.21832 0.59136 0.0
C314 C 0.3234 0.27275 0.61818 0.0
C315 C 0.34431 0.23481 0.62042 0.0
N316 N 0.32917 0.24536 0.57261 0.0
N317 N 0.31552 0.27834 0.58878 0.0
C318 C 0.36174 0.17332 0.58191 0.0
H319 H 0.38271 0.18419 0.55951 0.0
H320 H 0.39052 0.16945 0.59857 0.0
H321 H 0.32119 0.13097 0.58032 0.0
C322 C 0.4082 0.3322 0.4646 0.0
N323 N 0.37012 0.28124 0.47719 0.0
N324 N 0.37502 0.28622 0.50661 0.0
C325 C 0.41686 0.34024 0.51356 0.0
C326 C 0.43825 0.37145 0.48724 0.0
C327 C 0.40703 0.34657 0.43227 0.0
H328 H 0.36641 0.34697 0.42761 0.0
H329 H 0.40778 0.31297 0.41798 0.0
H330 H 0.44444 0.38952 0.42651 0.0
O331 O 0.2381 0.23127 0.47358 0.0
O332 O 0.24407 0.23915 0.52321 0.0
H333 H 0.39047 0.37003 0.55151 0.0
H334 H 0.46753 0.40819 0.54528 0.0
C335 C 0.42764 0.36515 0.54449 0.0
H336 H 0.43196 0.33561 0.56041 0.0
H337 H 0.29829 0.30263 0.57986 0.0
O338 O 0.29931 0.23109 0.41588 0.0
C339 C 0.21946 0.23782 0.49856 0.0
Co340 Co 0.07912 0.30255 0.79106 0.0
Co341 Co 0.08577 0.32112 0.86133 0.0
C342 C 0.16185 0.28516 0.82757 0.0
O343 O 0.14495 0.29048 0.80159 0.0
O344 O 0.14227 0.29564 0.85136 0.0
C345 C 0.03314 0.24562 0.73563 0.0
O346 O 0.02164 0.19992 0.75178 0.0
C347 C 0.13571 0.35362 0.92199 0.0
C348 C 0.05974 0.33967 0.94837 0.0
C349 C 0.11685 0.35355 0.95095 0.0
N350 N 0.09176 0.34055 0.903 0.0
N351 N 0.04665 0.33282 0.91895 0.0
C352 C 0.19234 0.35968 0.91292 0.0
H353 H 0.18696 0.316 0.90992 0.0
H354 H 0.20646 0.38302 0.89121 0.0
H355 H 0.22579 0.38304 0.93032 0.0
C356 C 0.0721 0.40845 0.79342 0.0
N357 N 0.08667 0.37212 0.8066 0.0
N358 N 0.09024 0.38067 0.83584 0.0
C359 C 0.07861 0.42328 0.84199 0.0
C360 C 0.06542 0.44126 0.81545 0.0
C361 C 0.05332 0.40354 0.76143 0.0
H362 H 0.08677 0.40376 0.74658 0.0
H363 H 0.04613 0.43966 0.75505 0.0
H364 H 0.01254 0.36191 0.75823 0.0
O365 O 0.00816 0.23784 0.80779 0.0
O366 O 0.00876 0.25277 0.85686 0.0
H367 H 0.02584 0.40501 0.88094 0.0
H368 H 0.07011 0.48088 0.87277 0.0
C369 C 0.06895 0.43874 0.87284 0.0
H370 H 0.10259 0.44124 0.88831 0.0
H371 H 0.0059 0.31967 0.90991 0.0
O372 O 0.06267 0.29581 0.74708 0.0
C373 C 0.98455 0.22361 0.83345 0.0
Co374 Co 0.77363 0.08043 0.12649 0.0
Co375 Co 0.75856 0.09021 0.19622 0.0
C376 C 0.87222 0.16396 0.16355 0.0
O377 O 0.852 0.14506 0.13744 0.0
O378 O 0.8407 0.14571 0.18691 0.0
C379 C 0.78593 0.03375 0.07133 0.0
O380 O 0.82151 0.02398 0.0873 0.0
C381 C 0.77527 0.1438 0.25571 0.0
C382 C 0.71046 0.07079 0.28286 0.0
C383 C 0.7549 0.12753 0.28469 0.0
N384 N 0.74412 0.09876 0.23737 0.0
N385 N 0.70519 0.05539 0.25377 0.0
C386 C 0.82705 0.19921 0.24617 0.0
H387 H 0.81948 0.21215 0.22372 0.0
H388 H 0.83698 0.23408 0.26268 0.0
H389 H 0.86486 0.19267 0.24461 0.0
C390 C 0.66097 0.07418 0.12673 0.0
N391 N 0.71145 0.08947 0.1406 0.0
N392 N 0.70547 0.09485 0.16959 0.0
C393 C 0.65122 0.08399 0.17485 0.0
C394 C 0.62086 0.06899 0.14806 0.0
C395 C 0.64787 0.0531 0.09505 0.0
H396 H 0.64939 0.01246 0.09301 0.0
H397 H 0.68107 0.08581 0.07988 0.0
H398 H 0.60448 0.04483 0.08808 0.0
O399 O 0.76625 0.01003 0.14432 0.0
O400 O 0.74915 0.01256 0.19297 0.0
H401 H 0.61433 0.03335 0.21426 0.0
H402 H 0.5847 0.07855 0.20438 0.0
C403 C 0.6251 0.07637 0.20536 0.0
H404 H 0.65609 0.11045 0.22069 0.0
H405 H 0.67696 0.01425 0.24534 0.0
O406 O 0.76464 0.06268 0.08277 0.0
C407 C 0.75561 0.98755 0.17028 0.0
C408 C 0.20576 0.25574 0.37217 0.0
C409 C 0.24354 0.2328 0.37424 0.0
C410 C 0.27387 0.262 0.3222 0.0
C411 C 0.23113 0.27885 0.31906 0.0
N412 N 0.14602 0.27625 0.33957 0.0
N413 N 0.30525 0.20396 0.34943 0.0
C414 C 0.19411 0.27136 0.34363 0.0
C415 C 0.27523 0.23302 0.34874 0.0
N416 N 0.18283 0.26517 0.39752 0.0
N417 N 0.31501 0.27579 0.3006 0.0
H418 H 0.30683 0.18174 0.36833 0.0
H419 H 0.32384 0.19718 0.33044 0.0
H420 H 0.31686 0.29769 0.28103 0.0
H421 H 0.35078 0.27046 0.30343 0.0
H422 H 0.15966 0.28704 0.39732 0.0
H423 H 0.1922 0.25711 0.41909 0.0
H424 H 0.11477 0.2656 0.35616 0.0
H425 H 0.13371 0.28424 0.31873 0.0
C426 C 0.91881 0.19161 0.67413 0.0
C427 C 0.95152 0.22491 0.64911 0.0
C428 C 0.03968 0.26501 0.68011 0.0
C429 C 0.00546 0.23818 0.7058 0.0
N430 N 0.91041 0.18533 0.72818 0.0
N431 N 0.04371 0.30109 0.63008 0.0
C432 C 0.94443 0.204 0.70309 0.0
C433 C 0.01223 0.26356 0.65249 0.0
N434 N 0.86402 0.14622 0.67016 0.0
N435 N 0.09851 0.2904 0.68178 0.0
H436 H 0.0267 0.30237 0.60939 0.0
H437 H 0.08602 0.33474 0.63295 0.0
H438 H 0.12018 0.29202 0.70154 0.0
H439 H 0.12534 0.30479 0.66299 0.0
H440 H 0.8405 0.11726 0.68726 0.0
H441 H 0.84471 0.13331 0.64913 0.0
H442 H 0.86547 0.16534 0.72737 0.0
H443 H 0.92693 0.19515 0.74992 0.0
C444 C 0.73775 0.00932 0.98961 0.0
C445 C 0.72104 0.94992 0.98561 0.0
C446 C 0.74279 0.94486 0.03864 0.0
C447 C 0.7652 0.00536 0.04166 0.0
N448 N 0.79588 0.09729 0.01784 0.0
N449 N 0.72471 0.86707 1.00475 0.0
C450 C 0.76621 0.03823 0.01649 0.0
C451 C 0.72853 0.91937 0.00967 0.0
N452 N 0.72423 0.03788 0.9686 0.0
N453 N 0.73224 0.91089 0.06347 0.0
H454 H 0.71799 0.84831 0.98355 0.0
H455 H 0.73522 0.84582 0.02103 0.0
H456 H 0.73889 0.92684 0.08532 0.0
H457 H 0.71073 0.86587 0.06245 0.0
H458 H 0.72941 0.07876 0.9722 0.0
H459 H 0.70269 0.01908 0.94879 0.0
H460 H 0.80322 0.12351 0.99913 0.0
H461 H 0.81831 0.12014 0.03689 0.0
C462 C 0.72297 0.70547 0.32864 0.0
C463 C 0.77588 0.74373 0.31412 0.0
C464 C 0.7967 0.81447 0.35418 0.0
C465 C 0.73989 0.77981 0.36586 0.0
N466 N 0.64392 0.69888 0.358 0.0
N467 N 0.85514 0.84232 0.30934 0.0
C468 C 0.70145 0.72712 0.35127 0.0
C469 C 0.81063 0.80052 0.32576 0.0
N470 N 0.69437 0.64796 0.32186 0.0
N471 N 0.83855 0.8589 0.37058 0.0
H472 H 0.86463 0.83585 0.2875 0.0
H473 H 0.87806 0.88543 0.31612 0.0
H474 H 0.8321 0.86845 0.3924 0.0
H475 H 0.88167 0.88172 0.36377 0.0
H476 H 0.65767 0.61775 0.33346 0.0
H477 H 0.71172 0.62982 0.30746 0.0
H478 H 0.61358 0.66235 0.34636 0.0
H479 H 0.62597 0.71647 0.37236 0.0
C480 C 0.98215 0.72311 0.65495 0.0
C481 C 0.04165 0.76587 0.65133 0.0
C482 C 0.04504 0.79257 0.70426 0.0
C483 C 0.98444 0.75457 0.70684 0.0
N484 N 0.89331 0.69283 0.68255 0.0
N485 N 0.12394 0.85232 0.6709 0.0
C486 C 0.95238 0.72253 0.68156 0.0
C487 C 0.07147 0.80383 0.67551 0.0
N488 N 0.95432 0.68111 0.63384 0.0
N489 N 0.07819 0.81597 0.72931 0.0
H490 H 0.14339 0.8645 0.64984 0.0
H491 H 0.14471 0.884 0.68726 0.0
H492 H 0.06152 0.80673 0.75104 0.0
H493 H 0.12323 0.83937 0.72865 0.0
H494 H 0.9133 0.64542 0.63714 0.0
H495 H 0.97388 0.67843 0.61429 0.0
H496 H 0.86761 0.67389 0.66371 0.0
H497 H 0.86992 0.69206 0.70146 0.0
C498 C 0.19437 0.93184 0.97483 0.0
C499 C 0.22822 0.993 0.97235 0.0
C500 C 0.25596 -0.00163 0.02518 0.0
C501 C 0.21697 0.93771 0.02856 0.0
N502 N 0.13707 0.85096 0.00767 0.0
N503 N 0.28045 0.08535 0.99708 0.0
C504 C 0.18267 0.90564 1.00368 0.0
C505 C 0.25581 0.02653 0.99809 0.0
N506 N 0.17546 0.89821 0.94965 0.0
N507 N 0.29542 0.0291 0.04697 0.0
H508 H 0.28032 0.10758 0.97785 0.0
H509 H 0.29559 0.11143 0.01609 0.0
H510 H 0.2989 0.01118 0.06695 0.0
H511 H 0.32882 0.0715 0.04391 0.0
H512 H 0.15557 0.85325 0.95032 0.0
H513 H 0.18518 0.91508 0.92797 0.0
H514 H 0.10761 0.82801 0.99068 0.0
H515 H 0.12452 0.83128 0.02866 0.0
C516 C 0.18658 0.40645 0.99276 0.0
C517 C 0.1457 0.35342 0.9793 0.0
C518 C 0.15325 0.29949 0.02187 0.0
C519 C 0.19738 0.35211 0.03423 0.0
N520 N 0.26088 0.45509 0.03067 0.0
N521 N 0.09718 0.24917 0.97801 0.0
C522 C 0.21541 0.40554 0.01946 0.0
C523 C 0.13092 0.29981 0.99303 0.0
N524 N 0.19674 0.45753 0.98033 0.0
N525 N 0.1317 0.24932 0.03803 0.0
H526 H 0.07985 0.24738 0.95681 0.0
H527 H 0.09038 0.20919 0.98531 0.0
H528 H 0.14751 0.24693 0.05905 0.0
H529 H 0.09499 0.21095 0.0318 0.0
H530 H 0.22128 0.49756 0.99062 0.0
H531 H 0.17743 0.45964 0.96039 0.0
H532 H 0.28043 0.49448 0.01936 0.0
H533 H 0.28164 0.45612 0.05068 0.0
C534 C 0.82559 0.14856 0.32628 0.0
C535 C 0.78306 0.15827 0.31277 0.0
C536 C 0.78922 0.22051 0.35471 0.0
C537 C 0.83385 0.21326 0.36742 0.0
N538 N 0.89905 0.17543 0.36464 0.0
N539 N 0.72918 0.2084 0.3113 0.0
C540 C 0.85335 0.17871 0.35299 0.0
C541 C 0.76622 0.1957 0.32619 0.0
N542 N 0.83836 0.10935 0.31392 0.0
N543 N 0.76799 0.24997 0.37031 0.0
H544 H 0.71072 0.19004 0.29066 0.0
H545 H 0.71972 0.23997 0.31821 0.0
H546 H 0.78488 0.26989 0.39089 0.0
H547 H 0.73134 0.2516 0.364 0.0
H548 H 0.86333 0.09467 0.32448 0.0
H549 H 0.82121 0.08847 0.29359 0.0
H550 H 0.92022 0.15725 0.35339 0.0
H551 H 0.91845 0.19393 0.38506 0.0
C552 C 0.6882 0.85812 0.68905 0.0
C553 C 0.63382 0.84462 0.7013 0.0
C554 C 0.58406 0.77868 0.65939 0.0
C555 C 0.63853 0.7952 0.64623 0.0
N556 N 0.74205 0.85782 0.64536 0.0
N557 N 0.53019 0.79786 0.6972 0.0
C558 C 0.69053 0.83698 0.66017 0.0
C559 C 0.58171 0.8065 0.68619 0.0
N560 N 0.7376 0.88993 0.70536 0.0
N561 N 0.53482 0.73544 0.64662 0.0
H562 H 0.52691 0.81622 0.71724 0.0
H563 H 0.49119 0.77565 0.68569 0.0
H564 H 0.53498 0.71543 0.62655 0.0
H565 H 0.49427 0.71685 0.65669 0.0
H566 H 0.77763 0.89533 0.69924 0.0
H567 H 0.73809 0.90728 0.72638 0.0
H568 H 0.78055 0.89299 0.65279 0.0
H569 H 0.7457 0.84331 0.6242 0.0
C570 C 0.87117 0.69671 0.99457 0.0
C571 C 0.85677 0.64295 0.98118 0.0
C572 C 0.78613 0.59118 0.02107 0.0
C573 C 0.80327 0.64481 0.03534 0.0
N574 N 0.86929 0.7475 0.03915 0.0
N575 N 0.80666 0.53889 0.98294 0.0
C576 C 0.84801 0.69727 0.02313 0.0
C577 C 0.81596 0.59004 0.99482 0.0
N578 N 0.9051 0.74724 0.97944 0.0
N579 N 0.74045 0.54167 0.03224 0.0
H580 H 0.82699 0.53663 0.96341 0.0
H581 H 0.78203 0.49901 0.99341 0.0
H582 H 0.71891 0.54085 0.05193 0.0
H583 H 0.72153 0.50208 0.02117 0.0
H584 H 0.9115 0.7872 0.98647 0.0
H585 H 0.92305 0.74897 0.95842 0.0
H586 H 0.90628 0.78575 0.03301 0.0
H587 H 0.8531 0.74995 0.06006 0.0
C588 C 0.20035 0.77882 0.35469 0.0
C589 C 0.16231 0.79428 0.3687 0.0
C590 C 0.17516 0.8598 0.32716 0.0
C591 C 0.21603 0.84721 0.31403 0.0
N592 N 0.27327 0.80064 0.31636 0.0
N593 N 0.12115 0.85659 0.37149 0.0
C594 C 0.23032 0.80836 0.32813 0.0
C595 C 0.15201 0.83693 0.35588 0.0
N596 N 0.20665 0.73498 0.36644 0.0
N597 N 0.15677 0.89188 0.31167 0.0
H598 H 0.10266 0.8404 0.39243 0.0
H599 H 0.11793 0.89229 0.36494 0.0
H600 H 0.17285 0.90993 0.29065 0.0
H601 H 0.1221 0.89669 0.31845 0.0
H602 H 0.22861 0.71711 0.35567 0.0
H603 H 0.18677 0.71385 0.38638 0.0
H604 H 0.2901 0.77768 0.32709 0.0
H605 H 0.29499 0.82058 0.29656 0.0
C606 C 0.40807 0.20083 0.68866 0.0
C607 C 0.35692 0.1571 0.70247 0.0
C608 C 0.2985 0.16135 0.66126 0.0
C609 C 0.34909 0.20786 0.6485 0.0
N610 N 0.45098 0.27683 0.65106 0.0
N611 N 0.2527 0.10272 0.7052 0.0
C612 C 0.40369 0.22906 0.66249 0.0
C613 C 0.30188 0.13931 0.68969 0.0
N614 N 0.46075 0.21432 0.70023 0.0
N615 N 0.24748 0.13703 0.64577 0.0
H616 H 0.25312 0.08528 0.72608 0.0
H617 H 0.21153 0.09349 0.69868 0.0
H618 H 0.24283 0.15234 0.62503 0.0
H619 H 0.21085 0.09874 0.65222 0.0
H620 H 0.49988 0.24125 0.68956 0.0
H621 H 0.46532 0.19552 0.7198 0.0
H622 H 0.49081 0.29834 0.66185 0.0
H623 H 0.44945 0.29751 0.6315 0.0
C624 C 0.52371 0.46575 0.19391 0.0
C625 C 0.55559 0.52691 0.19364 0.0
C626 C 0.4658 0.53067 0.19657 0.0
C627 C 0.43387 0.46965 0.19443 0.0
N628 N 0.43127 0.37884 0.18646 0.0
N629 N 0.55808 0.61843 0.19017 0.0
C630 C 0.46248 0.43702 0.19183 0.0
C631 C 0.52696 0.5597 0.19374 0.0
N632 N 0.552 0.4352 0.1968 0.0
N633 N 0.43765 0.56072 0.20192 0.0
H634 H 0.603 0.64158 0.18844 0.0
H635 H 0.53929 0.64394 0.1866 0.0
H636 H 0.39273 0.54083 0.20345 0.0
H637 H 0.45875 0.6046 0.20708 0.0
H638 H 0.53106 0.3908 0.2006 0.0
H639 H 0.59697 0.45491 0.1977 0.0
H640 H 0.44995 0.35393 0.18097 0.0
H641 H 0.3863 0.35578 0.18516 0.0
C642 C 0.93513 0.46946 0.5371 0.0
C643 C 0.96167 0.4354 0.53367 0.0
C644 C 0.05705 0.52303 0.53084 0.0
C645 C 0.03 0.55696 0.53173 0.0
N646 N 0.94242 0.56223 0.52847 0.0
N647 N 0.04622 0.42932 0.52025 0.0
C648 C 0.96871 0.53015 0.53286 0.0
C649 C 0.02226 0.462 0.52858 0.0
N650 N 0.87799 0.44389 0.54471 0.0
N651 N 0.11591 0.54906 0.53246 0.0
H652 H 0.02211 0.38466 0.5174 0.0
H653 H 0.08902 0.44699 0.51333 0.0
H654 H 0.14275 0.59384 0.53347 0.0
H655 H 0.13775 0.52617 0.53521 0.0
H656 H 0.85782 0.46721 0.5507 0.0
H657 H 0.85183 0.39928 0.54743 0.0
H658 H 0.8979 0.54413 0.52603 0.0
H659 H 0.96536 0.60653 0.5243 0.0
C660 C 0.52817 0.05766 0.86968 0.0
C661 C 0.46715 0.02973 0.86868 0.0
C662 C 0.46116 0.93496 0.86956 0.0
C663 C 0.52213 0.96297 0.86752 0.0
N664 N 0.61364 0.05074 0.86012 0.0
N665 N 0.37512 0.94209 0.86238 0.0
C666 C 0.55575 0.02433 0.86613 0.0
C667 C 0.43338 0.96837 0.86727 0.0
N668 N 0.55974 0.11601 0.87436 0.0
N669 N 0.42989 0.87652 0.874 0.0
H670 H 0.35305 0.96484 0.86023 0.0
H671 H 0.34933 0.89813 0.85789 0.0
H672 H 0.4489 0.85064 0.87511 0.0
H673 H 0.38588 0.85442 0.87895 0.0
H674 H 0.60402 0.138 0.87855 0.0
H675 H 0.54082 0.14182 0.87662 0.0
H676 H 0.63909 0.09475 0.85562 0.0
H677 H 0.63552 0.02802 0.85695 0.0
C678 C 0.43375 0.46318 0.48512 0.0
C679 C 0.4673 0.43532 0.48477 0.0
C680 C 0.55652 0.52909 0.48588 0.0
C681 C 0.52306 0.55701 0.48486 0.0
N682 N 0.43129 0.55221 0.47864 0.0
N683 N 0.55931 0.44021 0.47971 0.0
C684 C 0.46203 0.52445 0.48301 0.0
C685 C 0.52837 0.46789 0.48358 0.0
N686 N 0.37501 0.43116 0.48835 0.0
N687 N 0.61504 0.56098 0.48998 0.0
H688 H 0.53994 0.3953 0.47843 0.0
H689 H 0.60352 0.46157 0.47538 0.0
H690 H 0.63771 0.60599 0.49089 0.0
H691 H 0.64088 0.54294 0.49455 0.0
H692 H 0.34891 0.44909 0.4925 0.0
H693 H 0.35221 0.38611 0.4888 0.0
H694 H 0.3873 0.53094 0.47377 0.0
H695 H 0.45069 0.59715 0.4776 0.0
C696 C 0.93559 0.46422 0.81094 0.0
C697 C 0.96356 0.52518 0.81315 0.0
C698 C 0.05835 0.53119 0.81191 0.0
C699 C 0.03026 0.47009 0.81303 0.0
N700 N 0.94233 0.37762 0.8169 0.0
N701 N 0.05118 0.61743 0.81869 0.0
C702 C 0.96886 0.43628 0.81328 0.0
C703 C 0.02492 0.55899 0.81429 0.0
N704 N 0.87724 0.43316 0.80618 0.0
N705 N 0.11696 0.56254 0.80808 0.0
H706 H 0.02863 0.6399 0.81965 0.0
H707 H 0.09499 0.64338 0.8234 0.0
H708 H 0.14274 0.54344 0.80673 0.0
H709 H 0.13955 0.60681 0.80384 0.0
H710 H 0.85498 0.38922 0.80112 0.0
H711 H 0.85154 0.45234 0.80483 0.0
H712 H 0.89825 0.35145 0.82091 0.0
H713 H 0.96483 0.35514 0.81805 0.0
C714 C 0.53045 0.97144 0.1459 0.0
C715 C 0.55702 0.03277 0.14547 0.0
C716 C 0.46193 0.02527 0.14669 0.0
C717 C 0.43543 0.96403 0.14486 0.0
N718 N 0.44354 0.87911 0.1375 0.0
N719 N 0.54917 0.1183 0.14043 0.0
C720 C 0.46949 0.93723 0.14277 0.0
C721 C 0.52302 0.05975 0.14426 0.0
N722 N 0.5631 0.94585 0.15066 0.0
N723 N 0.42902 0.05042 0.15201 0.0
H724 H 0.59395 0.14487 0.13907 0.0
H725 H 0.52654 0.13991 0.13613 0.0
H726 H 0.3841 0.02705 0.15373 0.0
H727 H 0.44641 0.09406 0.15707 0.0
H728 H 0.54551 0.90174 0.15455 0.0
H729 H 0.60783 0.96913 0.15328 0.0
H730 H 0.46639 0.85799 0.13253 0.0
H731 H 0.39882 0.85268 0.13559 0.0
C732 C 0.02251 0.19182 0.18149 0.0
C733 C 0.05438 0.25312 0.18296 0.0
C734 C 0.96611 0.25688 0.1721 0.0
C735 C 0.93563 0.19604 0.16812 0.0
N736 N 0.93604 0.10603 0.16455 0.0
N737 N 0.05937 0.34499 0.17642 0.0
C738 C 0.96424 0.16366 0.17154 0.0
C739 C 0.02697 0.28603 0.17734 0.0
N740 N 0.04784 0.16035 0.18993 0.0
N741 N 0.93666 0.28648 0.17137 0.0
H742 H 0.10348 0.36743 0.18133 0.0
H743 H 0.04345 0.37145 0.16922 0.0
H744 H 0.89256 0.26648 0.16659 0.0
H745 H 0.95495 0.32987 0.17721 0.0
H746 H 0.02513 0.11566 0.19274 0.0
H747 H 0.09091 0.17906 0.19657 0.0
H748 H 0.95635 0.08148 0.16318 0.0
H749 H 0.89302 0.08328 0.15764 0.0
C750 C 0.70877 0.9631 0.51151 0.0
C751 C 0.73602 0.9379 0.49491 0.0
C752 C 0.82447 0.03275 0.49113 0.0
C753 C 0.79856 0.0571 0.5095 0.0
N754 N 0.71862 0.04606 0.53932 0.0
N755 N 0.82199 0.94739 0.47125 0.0
C756 C 0.74137 0.02238 0.52036 0.0
C757 C 0.79413 0.97252 0.48491 0.0
N758 N 0.6511 0.93052 0.51788 0.0
N759 N 0.87885 0.06737 0.47982 0.0
H760 H 0.80194 0.90416 0.46496 0.0
H761 H 0.86641 0.96835 0.46762 0.0
H762 H 0.90613 0.10956 0.48709 0.0
H763 H 0.89644 0.05525 0.46235 0.0
H764 H 0.62686 0.94674 0.52778 0.0
H765 H 0.62607 0.88765 0.5109 0.0
H766 H 0.6795 0.02225 0.55057 0.0
H767 H 0.74083 0.08965 0.54533 0.0
C768 C 0.79982 0.82831 0.85317 0.0
C769 C 0.73924 0.80057 0.84824 0.0
C770 C 0.74014 0.7146 0.82896 0.0
C771 C 0.79958 0.74058 0.83647 0.0
N772 N 0.88478 0.81931 0.8594 0.0
N773 N 0.65008 0.716 0.83413 0.0
C774 C 0.82887 0.79641 0.84981 0.0
C775 C 0.7089 0.7433 0.83675 0.0
N776 N 0.83057 0.88638 0.8591 0.0
N777 N 0.71387 0.6628 0.81423 0.0
H778 H 0.62627 0.73589 0.83982 0.0
H779 H 0.62437 0.6726 0.82849 0.0
H780 H 0.73521 0.64011 0.80917 0.0
H781 H 0.67233 0.64398 0.80536 0.0
H782 H 0.87556 0.91043 0.85893 0.0
H783 H 0.81179 0.91223 0.86141 0.0
H784 H 0.90536 0.8558 0.87301 0.0
H785 H 0.90985 0.8001 0.85554 0.0
C786 C 0.96082 0.70751 0.17047 0.0
C787 C 0.9366 0.73557 0.18718 0.0
C788 C 0.03312 0.82105 0.19276 0.0
C789 C 0.05638 0.79524 0.17344 0.0
N790 N 0.0426 0.71596 0.14213 0.0
N791 N 0.94875 0.8224 0.21105 0.0
C792 C 0.02022 0.739 0.16173 0.0
C793 C 0.97258 0.79285 0.1979 0.0
N794 N 0.92718 0.65009 0.16386 0.0
N795 N 0.06873 0.87325 0.20608 0.0
H796 H 0.90518 0.80415 0.21632 0.0
H797 H 0.97147 0.86681 0.21489 0.0
H798 H 0.112 0.89992 0.20039 0.0
H799 H 0.05603 0.88918 0.22408 0.0
H800 H 0.94277 0.62531 0.15396 0.0
H801 H 0.88421 0.62578 0.17083 0.0
H802 H 0.01755 0.67797 0.13017 0.0
H803 H 0.08632 0.73684 0.13639 0.0
C804 C 0.25039 0.965 0.50494 0.0
C805 C 0.1923 0.93673 0.51528 0.0
C806 C 0.19273 0.02875 0.5149 0.0
C807 C 0.2498 0.05669 0.50303 0.0
N808 N 0.33145 0.05194 0.48377 0.0
N809 N 0.10408 0.93894 0.52404 0.0
C810 C 0.2782 0.02488 0.49708 0.0
C811 C 0.16245 0.9679 0.51881 0.0
N812 N 0.27914 0.93474 0.50343 0.0
N813 N 0.16721 0.06044 0.52258 0.0
H814 H 0.07958 0.89435 0.52715 0.0
H815 H 0.07858 0.95824 0.52273 0.0
H816 H 0.18523 0.10436 0.5179 0.0
H817 H 0.12952 0.04397 0.53529 0.0
H818 H 0.32298 0.95333 0.4986 0.0
H819 H 0.25976 0.89104 0.50912 0.0
H820 H 0.35255 0.03054 0.47613 0.0
H821 H 0.35334 0.09597 0.47863 0.0
C822 C 0.17159 0.19682 0.82451 0.0
C823 C 0.19733 0.25679 0.83102 0.0
C824 C 0.28247 0.25604 0.85179 0.0
C825 C 0.2538 0.19527 0.8479 0.0
N826 N 0.16639 0.1061 0.83679 0.0
N827 N 0.27546 0.3434 0.85261 0.0
C828 C 0.19706 0.16525 0.83599 0.0
C829 C 0.25231 0.28639 0.84527 0.0
N830 N 0.12295 0.16963 0.80718 0.0
N831 N 0.33879 0.28469 0.86097 0.0
H832 H 0.25658 0.36776 0.84614 0.0
H833 H 0.31185 0.36588 0.86609 0.0
H834 H 0.36107 0.26321 0.86668 0.0
H835 H 0.36435 0.32955 0.86133 0.0
H836 H 0.1066 0.12782 0.79894 0.0
H837 H 0.10152 0.18994 0.79856 0.0
H838 H 0.12258 0.0818 0.83159 0.0
H839 H 0.183 0.08125 0.84567 0.0
C840 C 0.18449 0.11524 0.16384 0.0
C841 C 0.23387 0.16486 0.17523 0.0
C842 C 0.2831 0.10942 0.18309 0.0
C843 C 0.23221 0.05903 0.1736 0.0
N844 N 0.13107 0.01086 0.16031 0.0
N845 N 0.32742 0.20936 0.19914 0.0
C846 C 0.18194 0.06107 0.16539 0.0
C847 C 0.28236 0.16197 0.18599 0.0
N848 N 0.14011 0.11991 0.15147 0.0
N849 N 0.33272 0.1076 0.18797 0.0
H850 H 0.32986 0.24954 0.20018 0.0
H851 H 0.36075 0.20814 0.21059 0.0
H852 H 0.33477 0.06972 0.18633 0.0
H853 H 0.3729 0.14419 0.19155 0.0
H854 H 0.10612 0.08666 0.13968 0.0
H855 H 0.13909 0.15842 0.15099 0.0
H856 H 0.09143 0.00894 0.15764 0.0
H857 H 0.12722 0.97008 0.16142 0.0
C858 C 0.11638 0.19814 0.48386 0.0
C859 C 0.16644 0.24175 0.49854 0.0
C860 C 0.11354 0.29012 0.51403 0.0
C861 C 0.06438 0.24775 0.49822 0.0
N862 N 0.0243 0.17153 0.46118 0.0
N863 N 0.21715 0.33644 0.52123 0.0
C864 C 0.06767 0.20533 0.48067 0.0
C865 C 0.16644 0.28997 0.51181 0.0
N866 N 0.11383 0.14806 0.47464 0.0
N867 N 0.10939 0.32999 0.53147 0.0
H868 H 0.257 0.33836 0.51948 0.0
H869 H 0.2206 0.37524 0.52824 0.0
H870 H 0.07253 0.334 0.532 0.0
H871 H 0.14136 0.35711 0.54649 0.0
H872 H 0.0761 0.11235 0.46684 0.0
H873 H 0.14753 0.13951 0.47764 0.0
H874 H 0.02745 0.14388 0.44579 0.0
H875 H 0.98784 0.17546 0.45799 0.0
C876 C 0.82569 0.11837 0.84756 0.0
C877 C 0.82254 0.06621 0.83801 0.0
C878 C 0.92646 0.1167 0.82892 0.0
C879 C 0.92896 0.16962 0.83606 0.0
N880 N 0.88083 0.22314 0.848 0.0
N881 N 0.86702 0.01604 0.81523 0.0
C882 C 0.87853 0.17121 0.84428 0.0
C883 C 0.872 0.06557 0.82709 0.0
N884 N 0.77848 0.11714 0.86024 0.0
N885 N 0.97643 0.11487 0.82569 0.0
H886 H 0.82805 0.97698 0.81438 0.0
H887 H 0.90056 0.01472 0.80402 0.0
H888 H 0.01717 0.15118 0.82852 0.0
H889 H 0.97767 0.07671 0.8234 0.0
H890 H 0.77982 0.15255 0.87081 0.0
H891 H 0.73839 0.07946 0.86185 0.0
H892 H 0.84436 0.22731 0.85068 0.0
H893 H 0.91907 0.26273 0.84622 0.0
C894 C 0.70903 0.8813 0.1614 0.0
C895 C 0.75471 0.93255 0.1741 0.0
C896 C 0.80785 0.88264 0.18564 0.0
C897 C 0.7598 0.83013 0.1758 0.0
N898 N 0.66107 0.77682 0.15844 0.0
N899 N 0.84397 0.98099 0.2022 0.0
C900 C 0.70935 0.82863 0.16468 0.0
C901 C 0.80283 0.9328 0.18765 0.0
N902 N 0.66573 0.88311 0.14597 0.0
N903 N 0.85938 0.88524 0.19138 0.0
H904 H 0.84328 0.01962 0.20327 0.0
H905 H 0.87647 0.98135 0.21525 0.0
H906 H 0.86534 0.84987 0.18846 0.0
H907 H 0.89766 0.92355 0.19576 0.0
H908 H 0.63517 0.84882 0.13316 0.0
H909 H 0.6625 0.92033 0.14434 0.0
H910 H 0.62105 0.77259 0.15348 0.0
H911 H 0.65962 0.73723 0.16054 0.0
C912 C 0.82409 0.70711 0.51167 0.0
C913 C 0.82581 0.75917 0.50335 0.0
C914 C 0.92942 0.80535 0.49324 0.0
C915 C 0.92874 0.75518 0.50411 0.0
N916 N 0.87806 0.66086 0.52722 0.0
N917 N 0.88089 0.86124 0.49275 0.0
C918 C 0.87678 0.70671 0.51438 0.0
C919 C 0.87868 0.80923 0.49575 0.0
N920 N 0.77214 0.65778 0.51604 0.0
N921 N 0.9786 0.84945 0.48079 0.0
H922 H 0.84496 0.86601 0.49633 0.0
H923 H 0.91914 0.90045 0.49004 0.0
H924 H 0.01738 0.84909 0.47938 0.0
H925 H 0.97977 0.88433 0.46967 0.0
H926 H 0.76776 0.61706 0.51877 0.0
H927 H 0.73267 0.65676 0.51481 0.0
H928 H 0.84296 0.62735 0.53831 0.0
H929 H 0.91556 0.65812 0.52844 0.0
C930 C 0.12502 0.92756 0.82166 0.0
C931 C 0.17147 0.92927 0.83789 0.0
C932 C 0.11359 0.82548 0.8481 0.0
C933 C 0.06526 0.82544 0.83497 0.0
N934 N 0.02169 0.87828 0.81413 0.0
N935 N 0.20975 0.88205 0.86889 0.0
C936 C 0.07009 0.87687 0.82286 0.0
C937 C 0.16566 0.87885 0.85188 0.0
N938 N 0.13306 0.97432 0.80525 0.0
N939 N 0.11055 0.77438 0.85569 0.0
H940 H 0.24996 0.91953 0.87069 0.0
H941 H 0.20539 0.84859 0.88267 0.0
H942 H 0.07336 0.73424 0.85281 0.0
H943 H 0.1462 0.77119 0.86236 0.0
H944 H 0.1025 0.97287 0.79023 0.0
H945 H 0.17192 0.01341 0.80459 0.0
H946 H 0.02187 0.91622 0.8085 0.0
H947 H 0.98013 0.84258 0.81526 0.0
loop_
_geom_bond_atom_site_label_1
_geom_bond_atom_site_label_2
_geom_bond_distance
_geom_bond_site_symmetry_2
_ccdc_geom_bond_type
Co0 O3 1.970 . S
Co0 N17 1.989 . S
Co0 O25 1.967 . S
Co0 O32 1.920 . S
Co1 O4 1.966 . S
Co1 N10 2.022 . S
Co1 N18 1.993 . S
Co1 O26 1.941 . S
C2 O3 1.258 . S
C2 O4 1.263 . S
O3 Co0 1.970 . S
O3 C2 1.258 . S
O4 Co1 1.966 . S
O4 C2 1.263 . S
C5 O6 1.235 . S
C5 O32 1.289 . S
O6 C5 1.235 . S
C7 C9 1.400 . S
C7 N10 1.351 . S
C7 C12 1.501 . S
C8 C9 1.387 . S
C8 N11 1.341 . S
C9 C7 1.400 . S
C9 C8 1.387 . S
N10 Co1 2.022 . S
N10 C7 1.351 . S
N10 N11 1.365 . S
N11 C8 1.341 . S
N11 N10 1.365 . S
N11 H31 0.862 . S
C12 C7 1.501 . S
C12 H13 0.961 . S
C12 H14 0.961 . S
C12 H15 0.960 . S
H13 C12 0.961 . S
H14 C12 0.961 . S
H15 C12 0.960 . S
C16 N17 1.342 . S
C16 C20 1.401 . S
C16 C21 1.499 . S
N17 Co0 1.989 . S
N17 C16 1.342 . S
N17 N18 1.388 . S
N18 Co1 1.993 . S
N18 N17 1.388 . S
N18 C19 1.346 . S
C19 N18 1.346 . S
C19 C20 1.396 . S
C19 C29 1.510 . S
C20 C16 1.401 . S
C20 C19 1.396 . S
C21 C16 1.499 . S
C21 H22 0.959 . S
C21 H23 0.960 . S
C21 H24 0.961 . S
H22 C21 0.959 . S
H23 C21 0.960 . S
H24 C21 0.961 . S
O25 Co0 1.967 . S
O25 C33 1.258 . S
O26 Co1 1.941 . S
O26 C33 1.266 . S
H27 C29 0.959 . S
H28 C29 0.961 . S
C29 C19 1.510 . S
C29 H27 0.959 . S
C29 H28 0.961 . S
C29 H30 0.960 . S
H30 C29 0.960 . S
H31 N11 0.862 . S
O32 Co0 1.920 . S
O32 C5 1.289 . S
C33 O25 1.258 . S
C33 O26 1.266 . S
Co34 O37 1.970 . S
Co34 N51 1.989 . S
Co34 O59 1.967 1_655 S
Co34 O66 1.920 . S
Co35 O38 1.966 . S
Co35 N44 2.022 . S
Co35 N52 1.993 . S
Co35 O60 1.941 1_655 S
C36 O37 1.258 . S
C36 O38 1.263 . S
O37 Co34 1.970 . S
O37 C36 1.258 . S
O38 Co35 1.966 . S
O38 C36 1.263 . S
C39 O40 1.235 . S
C39 O66 1.289 . S
O40 C39 1.235 . S
C41 C43 1.400 . S
C41 N44 1.351 . S
C41 C46 1.501 . S
C42 C43 1.387 . S
C42 N45 1.341 . S
C43 C41 1.400 . S
C43 C42 1.387 . S
N44 Co35 2.022 . S
N44 C41 1.351 . S
N44 N45 1.365 . S
N45 C42 1.341 . S
N45 N44 1.365 . S
N45 H65 0.862 . S
C46 C41 1.501 . S
C46 H47 0.961 . S
C46 H48 0.961 . S
C46 H49 0.960 . S
H47 C46 0.961 . S
H48 C46 0.961 . S
H49 C46 0.960 . S
C50 N51 1.342 . S
C50 C54 1.401 . S
C50 C55 1.499 . S
N51 Co34 1.989 . S
N51 C50 1.342 . S
N51 N52 1.388 . S
N52 Co35 1.993 . S
N52 N51 1.388 . S
N52 C53 1.346 . S
C53 N52 1.346 . S
C53 C54 1.396 . S
C53 C63 1.510 . S
C54 C50 1.401 . S
C54 C53 1.396 . S
C55 C50 1.499 . S
C55 H56 0.959 . S
C55 H57 0.960 . S
C55 H58 0.961 . S
H56 C55 0.959 . S
H57 C55 0.960 . S
H58 C55 0.961 . S
O59 Co34 1.967 1_455 S
O59 C67 1.258 . S
O60 Co35 1.941 1_455 S
O60 C67 1.266 . S
H61 C63 0.959 . S
H62 C63 0.961 . S
C63 C53 1.510 . S
C63 H61 0.959 . S
C63 H62 0.961 . S
C63 H64 0.960 . S
H64 C63 0.960 . S
H65 N45 0.862 . S
O66 Co34 1.920 . S
O66 C39 1.289 . S
C67 O59 1.258 . S
C67 O60 1.266 . S
Co68 O71 1.970 . S
Co68 N85 1.989 . S
Co68 O93 1.967 1_565 S
Co68 O100 1.920 . S
Co69 O72 1.966 . S
Co69 N78 2.022 . S
Co69 N86 1.993 . S
Co69 O94 1.941 1_565 S
C70 O71 1.258 . S
C70 O72 1.263 . S
O71 Co68 1.970 . S
O71 C70 1.258 . S
O72 Co69 1.966 . S
O72 C70 1.263 . S
C73 O74 1.235 . S
C73 O100 1.289 . S
O74 C73 1.235 . S
C75 C77 1.400 . S
C75 N78 1.351 . S
C75 C80 1.501 . S
C76 C77 1.387 . S
C76 N79 1.341 . S
C77 C75 1.400 . S
C77 C76 1.387 . S
N78 Co69 2.022 . S
N78 C75 1.351 . S
N78 N79 1.365 . S
N79 C76 1.341 . S
N79 N78 1.365 . S
N79 H99 0.862 . S
C80 C75 1.501 . S
C80 H81 0.961 . S
C80 H82 0.961 . S
C80 H83 0.960 . S
H81 C80 0.961 . S
H82 C80 0.961 . S
H83 C80 0.960 . S
C84 N85 1.342 . S
C84 C88 1.401 . S
C84 C89 1.499 . S
N85 Co68 1.989 . S
N85 C84 1.342 . S
N85 N86 1.388 . S
N86 Co69 1.993 . S
N86 N85 1.388 . S
N86 C87 1.346 . S
C87 N86 1.346 . S
C87 C88 1.396 . S
C87 C97 1.510 . S
C88 C84 1.401 . S
C88 C87 1.396 . S
C89 C84 1.499 . S
C89 H90 0.959 . S
C89 H91 0.960 . S
C89 H92 0.961 . S
H90 C89 0.959 . S
H91 C89 0.960 . S
H92 C89 0.961 . S
O93 Co68 1.967 1_545 S
O93 C101 1.258 . S
O94 Co69 1.941 1_545 S
O94 C101 1.266 . S
H95 C97 0.959 . S
H96 C97 0.961 . S
C97 C87 1.510 . S
C97 H95 0.959 . S
C97 H96 0.961 . S
C97 H98 0.960 . S
H98 C97 0.960 . S
H99 N79 0.862 . S
O100 Co68 1.920 . S
O100 C73 1.289 . S
C101 O93 1.258 . S
C101 O94 1.266 . S
Co102 O105 1.970 . S
Co102 N119 1.989 . S
Co102 O127 1.967 . S
Co102 O134 1.920 . S
Co103 O106 1.966 . S
Co103 N112 2.022 . S
Co103 N120 1.993 . S
Co103 O128 1.941 . S
C104 O105 1.258 . S
C104 O106 1.263 . S
O105 Co102 1.970 . S
O105 C104 1.258 . S
O106 Co103 1.966 . S
O106 C104 1.263 . S
C107 O108 1.235 . S
C107 O134 1.289 . S
O108 C107 1.235 . S
C109 C111 1.400 . S
C109 N112 1.351 . S
C109 C114 1.501 . S
C110 C111 1.387 . S
C110 N113 1.341 . S
C111 C109 1.400 . S
C111 C110 1.387 . S
N112 Co103 2.022 . S
N112 C109 1.351 . S
N112 N113 1.365 . S
N113 C110 1.341 . S
N113 N112 1.365 . S
N113 H133 0.862 . S
C114 C109 1.501 . S
C114 H115 0.961 . S
C114 H116 0.961 . S
C114 H117 0.960 . S
H115 C114 0.961 . S
H116 C114 0.961 . S
H117 C114 0.960 . S
C118 N119 1.342 . S
C118 C122 1.401 . S
C118 C123 1.499 . S
N119 Co102 1.989 . S
N119 C118 1.342 . S
N119 N120 1.388 . S
N120 Co103 1.993 . S
N120 N119 1.388 . S
N120 C121 1.346 . S
C121 N120 1.346 . S
C121 C122 1.396 . S
C121 C131 1.510 . S
C122 C118 1.401 . S
C122 C121 1.396 . S
C123 C118 1.499 . S
C123 H124 0.959 . S
C123 H125 0.960 . S
C123 H126 0.961 . S
H124 C123 0.959 . S
H125 C123 0.960 . S
H126 C123 0.961 . S
O127 Co102 1.967 . S
O127 C135 1.258 . S
O128 Co103 1.941 . S
O128 C135 1.266 . S
H129 C131 0.959 . S
H130 C131 0.961 . S
C131 C121 1.510 . S
C131 H129 0.959 . S
C131 H130 0.961 . S
C131 H132 0.960 . S
H132 C131 0.960 . S
H133 N113 0.862 . S
O134 Co102 1.920 . S
O134 C107 1.289 . S
C135 O127 1.258 . S
C135 O128 1.266 . S
Co136 O139 1.970 . S
Co136 N153 1.989 . S
Co136 O161 1.967 1_455 S
Co136 O168 1.920 . S
Co137 O140 1.966 . S
Co137 N146 2.022 . S
Co137 N154 1.993 . S
Co137 O162 1.941 1_455 S
C138 O139 1.258 . S
C138 O140 1.263 . S
O139 Co136 1.970 . S
O139 C138 1.258 . S
O140 Co137 1.966 . S
O140 C138 1.263 . S
C141 O142 1.235 . S
C141 O168 1.289 . S
O142 C141 1.235 . S
C143 C145 1.400 . S
C143 N146 1.351 . S
C143 C148 1.501 . S
C144 C145 1.387 . S
C144 N147 1.341 . S
C145 C143 1.400 . S
C145 C144 1.387 . S
N146 Co137 2.022 . S
N146 C143 1.351 . S
N146 N147 1.365 . S
N147 C144 1.341 . S
N147 N146 1.365 . S
N147 H167 0.862 . S
C148 C143 1.501 . S
C148 H149 0.961 . S
C148 H150 0.961 . S
C148 H151 0.960 . S
H149 C148 0.961 . S
H150 C148 0.961 . S
H151 C148 0.960 . S
C152 N153 1.342 . S
C152 C156 1.401 . S
C152 C157 1.499 . S
N153 Co136 1.989 . S
N153 C152 1.342 . S
N153 N154 1.388 . S
N154 Co137 1.993 . S
N154 N153 1.388 . S
N154 C155 1.346 . S
C155 N154 1.346 . S
C155 C156 1.396 . S
C155 C165 1.510 . S
C156 C152 1.401 . S
C156 C155 1.396 . S
C157 C152 1.499 . S
C157 H158 0.959 . S
C157 H159 0.960 . S
C157 H160 0.961 . S
H158 C157 0.959 . S
H159 C157 0.960 . S
H160 C157 0.961 . S
O161 Co136 1.967 1_655 S
O161 C169 1.258 . S
O162 Co137 1.941 1_655 S
O162 C169 1.266 . S
H163 C165 0.959 . S
H164 C165 0.961 . S
C165 C155 1.510 . S
C165 H163 0.959 . S
C165 H164 0.961 . S
C165 H166 0.960 . S
H166 C165 0.960 . S
H167 N147 0.862 . S
O168 Co136 1.920 . S
O168 C141 1.289 . S
C169 O161 1.258 . S
C169 O162 1.266 . S
Co170 O173 1.970 . S
Co170 N187 1.989 . S
Co170 O195 1.967 1_545 S
Co170 O202 1.920 . S
Co171 O174 1.966 . S
Co171 N180 2.022 . S
Co171 N188 1.993 . S
Co171 O196 1.941 1_545 S
C172 O173 1.258 . S
C172 O174 1.263 . S
O173 Co170 1.970 . S
O173 C172 1.258 . S
O174 Co171 1.966 . S
O174 C172 1.263 . S
C175 O176 1.235 . S
C175 O202 1.289 . S
O176 C175 1.235 . S
C177 C179 1.400 . S
C177 N180 1.351 . S
C177 C182 1.501 . S
C178 C179 1.387 . S
C178 N181 1.341 . S
C179 C177 1.400 . S
C179 C178 1.387 . S
N180 Co171 2.022 . S
N180 C177 1.351 . S
N180 N181 1.365 . S
N181 C178 1.341 . S
N181 N180 1.365 . S
N181 H201 0.862 . S
C182 C177 1.501 . S
C182 H183 0.961 . S
C182 H184 0.961 . S
C182 H185 0.960 . S
H183 C182 0.961 . S
H184 C182 0.961 . S
H185 C182 0.960 . S
C186 N187 1.342 . S
C186 C190 1.401 . S
C186 C191 1.499 . S
N187 Co170 1.989 . S
N187 C186 1.342 . S
N187 N188 1.388 . S
N188 Co171 1.993 . S
N188 N187 1.388 . S
N188 C189 1.346 . S
C189 N188 1.346 . S
C189 C190 1.396 . S
C189 C199 1.510 . S
C190 C186 1.401 . S
C190 C189 1.396 . S
C191 C186 1.499 . S
C191 H192 0.959 . S
C191 H193 0.960 . S
C191 H194 0.961 . S
H192 C191 0.959 . S
H193 C191 0.960 . S
H194 C191 0.961 . S
O195 Co170 1.967 1_565 S
O195 C203 1.258 . S
O196 Co171 1.941 1_565 S
O196 C203 1.266 . S
H197 C199 0.959 . S
H198 C199 0.961 . S
C199 C189 1.510 . S
C199 H197 0.959 . S
C199 H198 0.961 . S
C199 H200 0.960 . S
H200 C199 0.960 . S
H201 N181 0.862 . S
O202 Co170 1.920 . S
O202 C175 1.289 . S
C203 O195 1.258 . S
C203 O196 1.266 . S
Co204 O207 1.970 . S
Co204 N221 1.989 . S
Co204 O229 1.967 . S
Co204 O236 1.920 . S
Co205 O208 1.966 . S
Co205 N214 2.022 . S
Co205 N222 1.993 . S
Co205 O230 1.941 . S
C206 O207 1.258 . S
C206 O208 1.263 . S
O207 Co204 1.970 . S
O207 C206 1.258 . S
O208 Co205 1.966 . S
O208 C206 1.263 . S
C209 O210 1.235 . S
C209 O236 1.289 . S
O210 C209 1.235 . S
C211 C213 1.400 . S
C211 N214 1.351 . S
C211 C216 1.501 . S
C212 C213 1.387 . S
C212 N215 1.341 . S
C213 C211 1.400 . S
C213 C212 1.387 . S
N214 Co205 2.022 . S
N214 C211 1.351 . S
N214 N215 1.365 . S
N215 C212 1.341 . S
N215 N214 1.365 . S
N215 H235 0.862 . S
C216 C211 1.501 . S
C216 H217 0.961 . S
C216 H218 0.961 . S
C216 H219 0.960 . S
H217 C216 0.961 . S
H218 C216 0.961 . S
H219 C216 0.960 . S
C220 N221 1.342 . S
C220 C224 1.401 . S
C220 C225 1.499 . S
N221 Co204 1.989 . S
N221 C220 1.342 . S
N221 N222 1.388 . S
N222 Co205 1.993 . S
N222 N221 1.388 . S
N222 C223 1.346 . S
C223 N222 1.346 . S
C223 C224 1.396 . S
C223 C233 1.510 . S
C224 C220 1.401 . S
C224 C223 1.396 . S
C225 C220 1.499 . S
C225 H226 0.959 . S
C225 H227 0.960 . S
C225 H228 0.961 . S
H226 C225 0.959 . S
H227 C225 0.960 . S
H228 C225 0.961 . S
O229 Co204 1.967 . S
O229 C237 1.258 . S
O230 Co205 1.941 . S
O230 C237 1.266 . S
H231 C233 0.959 . S
H232 C233 0.961 . S
C233 C223 1.510 . S
C233 H231 0.959 . S
C233 H232 0.961 . S
C233 H234 0.960 . S
H234 C233 0.960 . S
H235 N215 0.862 . S
O236 Co204 1.920 . S
O236 C209 1.289 . S
C237 O229 1.258 . S
C237 O230 1.266 . S
Co238 O241 1.970 . S
Co238 N255 1.989 . S
Co238 O263 1.967 1_655 S
Co238 O270 1.920 . S
Co239 O242 1.966 . S
Co239 N248 2.022 . S
Co239 N256 1.993 . S
Co239 O264 1.941 1_655 S
C240 O241 1.258 . S
C240 O242 1.263 . S
O241 Co238 1.970 . S
O241 C240 1.258 . S
O242 Co239 1.966 . S
O242 C240 1.263 . S
C243 O244 1.235 . S
C243 O270 1.289 . S
O244 C243 1.235 . S
C245 C247 1.400 . S
C245 N248 1.351 . S
C245 C250 1.501 . S
C246 C247 1.387 . S
C246 N249 1.341 . S
C247 C245 1.400 . S
C247 C246 1.387 . S
N248 Co239 2.022 . S
N248 C245 1.351 . S
N248 N249 1.365 . S
N249 C246 1.341 . S
N249 N248 1.365 . S
N249 H269 0.862 . S
C250 C245 1.501 . S
C250 H251 0.961 . S
C250 H252 0.961 . S
C250 H253 0.960 . S
H251 C250 0.961 . S
H252 C250 0.961 . S
H253 C250 0.960 . S
C254 N255 1.342 . S
C254 C258 1.401 . S
C254 C259 1.499 . S
N255 Co238 1.989 . S
N255 C254 1.342 . S
N255 N256 1.388 . S
N256 Co239 1.993 . S
N256 N255 1.388 . S
N256 C257 1.346 . S
C257 N256 1.346 . S
C257 C258 1.396 . S
C257 C267 1.510 . S
C258 C254 1.401 . S
C258 C257 1.396 . S
C259 C254 1.499 . S
C259 H260 0.959 . S
C259 H261 0.960 . S
C259 H262 0.961 . S
H260 C259 0.959 . S
H261 C259 0.960 . S
H262 C259 0.961 . S
O263 Co238 1.967 1_455 S
O263 C271 1.258 . S
O264 Co239 1.941 1_455 S
O264 C271 1.266 . S
H265 C267 0.959 . S
H266 C267 0.961 . S
C267 C257 1.510 . S
C267 H265 0.959 . S
C267 H266 0.961 . S
C267 H268 0.960 . S
H268 C267 0.960 . S
H269 N249 0.862 . S
O270 Co238 1.920 . S
O270 C243 1.289 . S
C271 O263 1.258 . S
C271 O264 1.266 . S
Co272 O275 1.970 . S
Co272 N289 1.989 . S
Co272 O297 1.967 1_565 S
Co272 O304 1.920 . S
Co273 O276 1.966 . S
Co273 N282 2.022 . S
Co273 N290 1.993 . S
Co273 O298 1.941 1_565 S
C274 O275 1.258 . S
C274 O276 1.263 . S
O275 Co272 1.970 . S
O275 C274 1.258 . S
O276 Co273 1.966 . S
O276 C274 1.263 . S
C277 O278 1.235 . S
C277 O304 1.289 . S
O278 C277 1.235 . S
C279 C281 1.400 . S
C279 N282 1.351 . S
C279 C284 1.501 . S
C280 C281 1.387 . S
C280 N283 1.341 . S
C281 C279 1.400 . S
C281 C280 1.387 . S
N282 Co273 2.022 . S
N282 C279 1.351 . S
N282 N283 1.365 . S
N283 C280 1.341 . S
N283 N282 1.365 . S
N283 H303 0.862 . S
C284 C279 1.501 . S
C284 H285 0.961 . S
C284 H286 0.961 . S
C284 H287 0.960 . S
H285 C284 0.961 . S
H286 C284 0.961 . S
H287 C284 0.960 . S
C288 N289 1.342 . S
C288 C292 1.401 . S
C288 C293 1.499 . S
N289 Co272 1.989 . S
N289 C288 1.342 . S
N289 N290 1.388 . S
N290 Co273 1.993 . S
N290 N289 1.388 . S
N290 C291 1.346 . S
C291 N290 1.346 . S
C291 C292 1.396 . S
C291 C301 1.510 . S
C292 C288 1.401 . S
C292 C291 1.396 . S
C293 C288 1.499 . S
C293 H294 0.959 . S
C293 H295 0.960 . S
C293 H296 0.961 . S
H294 C293 0.959 . S
H295 C293 0.960 . S
H296 C293 0.961 . S
O297 Co272 1.967 1_545 S
O297 C305 1.258 . S
O298 Co273 1.941 1_545 S
O298 C305 1.266 . S
H299 C301 0.959 . S
H300 C301 0.961 . S
C301 C291 1.510 . S
C301 H299 0.959 . S
C301 H300 0.961 . S
C301 H302 0.960 . S
H302 C301 0.960 . S
H303 N283 0.862 . S
O304 Co272 1.920 . S
O304 C277 1.289 . S
C305 O297 1.258 . S
C305 O298 1.266 . S
Co306 O309 1.970 . S
Co306 N323 1.989 . S
Co306 O331 1.967 . S
Co306 O338 1.920 . S
Co307 O310 1.966 . S
Co307 N316 2.022 . S
Co307 N324 1.993 . S
Co307 O332 1.941 . S
C308 O309 1.258 . S
C308 O310 1.263 . S
O309 Co306 1.970 . S
O309 C308 1.258 . S
O310 Co307 1.966 . S
O310 C308 1.263 . S
C311 O312 1.235 . S
C311 O338 1.289 . S
O312 C311 1.235 . S
C313 C315 1.400 . S
C313 N316 1.351 . S
C313 C318 1.501 . S
C314 C315 1.387 . S
C314 N317 1.341 . S
C315 C313 1.400 . S
C315 C314 1.387 . S
N316 Co307 2.022 . S
N316 C313 1.351 . S
N316 N317 1.365 . S
N317 C314 1.341 . S
N317 N316 1.365 . S
N317 H337 0.862 . S
C318 C313 1.501 . S
C318 H319 0.961 . S
C318 H320 0.961 . S
C318 H321 0.960 . S
H319 C318 0.961 . S
H320 C318 0.961 . S
H321 C318 0.960 . S
C322 N323 1.342 . S
C322 C326 1.401 . S
C322 C327 1.499 . S
N323 Co306 1.989 . S
N323 C322 1.342 . S
N323 N324 1.388 . S
N324 Co307 1.993 . S
N324 N323 1.388 . S
N324 C325 1.346 . S
C325 N324 1.346 . S
C325 C326 1.396 . S
C325 C335 1.510 . S
C326 C322 1.401 . S
C326 C325 1.396 . S
C327 C322 1.499 . S
C327 H328 0.959 . S
C327 H329 0.960 . S
C327 H330 0.961 . S
H328 C327 0.959 . S
H329 C327 0.960 . S
H330 C327 0.961 . S
O331 Co306 1.967 . S
O331 C339 1.258 . S
O332 Co307 1.941 . S
O332 C339 1.266 . S
H333 C335 0.959 . S
H334 C335 0.961 . S
C335 C325 1.510 . S
C335 H333 0.959 . S
C335 H334 0.961 . S
C335 H336 0.960 . S
H336 C335 0.960 . S
H337 N317 0.862 . S
O338 Co306 1.920 . S
O338 C311 1.289 . S
C339 O331 1.258 . S
C339 O332 1.266 . S
Co340 O343 1.970 . S
Co340 N357 1.989 . S
Co340 O365 1.967 1_455 S
Co340 O372 1.920 . S
Co341 O344 1.966 . S
Co341 N350 2.022 . S
Co341 N358 1.993 . S
Co341 O366 1.941 1_455 S
C342 O343 1.258 . S
C342 O344 1.263 . S
O343 Co340 1.970 . S
O343 C342 1.258 . S
O344 Co341 1.966 . S
O344 C342 1.263 . S
C345 O346 1.235 . S
C345 O372 1.289 . S
O346 C345 1.235 . S
C347 C349 1.400 . S
C347 N350 1.351 . S
C347 C352 1.501 . S
C348 C349 1.387 . S
C348 N351 1.341 . S
C349 C347 1.400 . S
C349 C348 1.387 . S
N350 Co341 2.022 . S
N350 C347 1.351 . S
N350 N351 1.365 . S
N351 C348 1.341 . S
N351 N350 1.365 . S
N351 H371 0.862 . S
C352 C347 1.501 . S
C352 H353 0.961 . S
C352 H354 0.961 . S
C352 H355 0.960 . S
H353 C352 0.961 . S
H354 C352 0.961 . S
H355 C352 0.960 . S
C356 N357 1.342 . S
C356 C360 1.401 . S
C356 C361 1.499 . S
N357 Co340 1.989 . S
N357 C356 1.342 . S
N357 N358 1.388 . S
N358 Co341 1.993 . S
N358 N357 1.388 . S
N358 C359 1.346 . S
C359 N358 1.346 . S
C359 C360 1.396 . S
C359 C369 1.510 . S
C360 C356 1.401 . S
C360 C359 1.396 . S
C361 C356 1.499 . S
C361 H362 0.959 . S
C361 H363 0.960 . S
C361 H364 0.961 . S
H362 C361 0.959 . S
H363 C361 0.960 . S
H364 C361 0.961 . S
O365 Co340 1.967 1_655 S
O365 C373 1.258 . S
O366 Co341 1.941 1_655 S
O366 C373 1.266 . S
H367 C369 0.959 . S
H368 C369 0.961 . S
C369 C359 1.510 . S
C369 H367 0.959 . S
C369 H368 0.961 . S
C369 H370 0.960 . S
H370 C369 0.960 . S
H371 N351 0.862 . S
O372 Co340 1.920 . S
O372 C345 1.289 . S
C373 O365 1.258 . S
C373 O366 1.266 . S
Co374 O377 1.970 . S
Co374 N391 1.989 . S
Co374 O399 1.967 1_545 S
Co374 O406 1.920 . S
Co375 O378 1.966 . S
Co375 N384 2.022 . S
Co375 N392 1.993 . S
Co375 O400 1.941 1_545 S
C376 O377 1.258 . S
C376 O378 1.263 . S
O377 Co374 1.970 . S
O377 C376 1.258 . S
O378 Co375 1.966 . S
O378 C376 1.263 . S
C379 O380 1.235 . S
C379 O406 1.289 . S
O380 C379 1.235 . S
C381 C383 1.400 . S
C381 N384 1.351 . S
C381 C386 1.501 . S
C382 C383 1.387 . S
C382 N385 1.341 . S
C383 C381 1.400 . S
C383 C382 1.387 . S
N384 Co375 2.022 . S
N384 C381 1.351 . S
N384 N385 1.365 . S
N385 C382 1.341 . S
N385 N384 1.365 . S
N385 H405 0.862 . S
C386 C381 1.501 . S
C386 H387 0.961 . S
C386 H388 0.961 . S
C386 H389 0.960 . S
H387 C386 0.961 . S
H388 C386 0.961 . S
H389 C386 0.960 . S
C390 N391 1.342 . S
C390 C394 1.401 . S
C390 C395 1.499 . S
N391 Co374 1.989 . S
N391 C390 1.342 . S
N391 N392 1.388 . S
N392 Co375 1.993 . S
N392 N391 1.388 . S
N392 C393 1.346 . S
C393 N392 1.346 . S
C393 C394 1.396 . S
C393 C403 1.510 . S
C394 C390 1.401 . S
C394 C393 1.396 . S
C395 C390 1.499 . S
C395 H396 0.959 . S
C395 H397 0.960 . S
C395 H398 0.961 . S
H396 C395 0.959 . S
H397 C395 0.960 . S
H398 C395 0.961 . S
O399 Co374 1.967 1_565 S
O399 C407 1.258 . S
O400 Co375 1.941 1_565 S
O400 C407 1.266 . S
H401 C403 0.959 . S
H402 C403 0.961 . S
C403 C393 1.510 . S
C403 H401 0.959 . S
C403 H402 0.961 . S
C403 H404 0.960 . S
H404 C403 0.960 . S
H405 N385 0.862 . S
O406 Co374 1.920 . S
O406 C379 1.289 . S
C407 O399 1.258 . S
C407 O400 1.266 . S
C408 C409 1.363 . S
C408 C414 1.379 . S
C408 N416 1.356 . S
C409 C408 1.363 . S
C409 C415 1.363 . S
C410 C411 1.363 . S
C410 C415 1.379 . S
C410 N417 1.356 . S
C411 C410 1.363 . S
C411 C414 1.363 . S
N412 C414 1.356 . S
N412 H424 0.984 . S
N412 H425 0.985 . S
N413 C415 1.356 . S
N413 H418 0.984 . S
N413 H419 0.985 . S
C414 C408 1.379 . S
C414 C411 1.363 . S
C414 N412 1.356 . S
C415 C409 1.363 . S
C415 C410 1.379 . S
C415 N413 1.356 . S
N416 C408 1.356 . S
N416 H422 0.984 . S
N416 H423 0.984 . S
N417 C410 1.356 . S
N417 H420 0.984 . S
N417 H421 0.985 . S
H418 N413 0.984 . S
H419 N413 0.985 . S
H420 N417 0.984 . S
H421 N417 0.985 . S
H422 N416 0.984 . S
H423 N416 0.984 . S
H424 N412 0.984 . S
H425 N412 0.985 . S
C426 C427 1.363 . S
C426 C432 1.379 . S
C426 N434 1.356 . S
C427 C426 1.363 . S
C427 C433 1.363 1_655 S
C428 C429 1.363 . S
C428 C433 1.379 . S
C428 N435 1.356 . S
C429 C428 1.363 . S
C429 C432 1.363 1_455 S
N430 C432 1.356 . S
N430 H442 0.984 . S
N430 H443 0.985 1_655 S
N431 C433 1.356 . S
N431 H436 0.984 1_455 S
N431 H437 0.985 . S
C432 C426 1.379 . S
C432 C429 1.363 1_655 S
C432 N430 1.356 . S
C433 C427 1.363 1_455 S
C433 C428 1.379 . S
C433 N431 1.356 . S
N434 C426 1.356 . S
N434 H440 0.984 . S
N434 H441 0.984 . S
N435 C428 1.356 . S
N435 H438 0.984 . S
N435 H439 0.985 . S
H436 N431 0.984 1_655 S
H437 N431 0.985 . S
H438 N435 0.984 . S
H439 N435 0.985 . S
H440 N434 0.984 . S
H441 N434 0.984 . S
H442 N430 0.984 . S
H443 N430 0.985 1_455 S
C444 C445 1.363 1_545 S
C444 C450 1.379 1_556 S
C444 N452 1.356 1_545 S
C445 C444 1.363 1_565 S
C445 C451 1.363 . S
C446 C447 1.363 1_565 S
C446 C451 1.379 1_554 S
C446 N453 1.356 1_565 S
C447 C446 1.363 1_545 S
C447 C450 1.363 . S
N448 C450 1.356 . S
N448 H460 0.984 . S
N448 H461 0.985 . S
N449 C451 1.356 . S
N449 H454 0.984 . S
N449 H455 0.985 . S
C450 C444 1.379 1_554 S
C450 C447 1.363 . S
C450 N448 1.356 . S
C451 C445 1.363 . S
C451 C446 1.379 1_556 S
C451 N449 1.356 . S
N452 C444 1.356 1_565 S
N452 H458 0.984 1_565 S
N452 H459 0.984 . S
N453 C446 1.356 1_545 S
N453 H456 0.984 . S
N453 H457 0.985 1_545 S
H454 N449 0.984 . S
H455 N449 0.985 . S
H456 N453 0.984 . S
H457 N453 0.985 1_565 S
H458 N452 0.984 1_545 S
H459 N452 0.984 . S
H460 N448 0.984 . S
H461 N448 0.985 . S
C462 C463 1.363 . S
C462 C468 1.379 . S
C462 N470 1.356 . S
C463 C462 1.363 . S
C463 C469 1.363 . S
C464 C465 1.363 . S
C464 C469 1.379 . S
C464 N471 1.356 . S
C465 C464 1.363 . S
C465 C468 1.363 . S
N466 C468 1.356 . S
N466 H478 0.984 . S
N466 H479 0.985 . S
N467 C469 1.356 . S
N467 H472 0.984 . S
N467 H473 0.985 . S
C468 C462 1.379 . S
C468 C465 1.363 . S
C468 N466 1.356 . S
C469 C463 1.363 . S
C469 C464 1.379 . S
C469 N467 1.356 . S
N470 C462 1.356 . S
N470 H476 0.984 . S
N470 H477 0.984 . S
N471 C464 1.356 . S
N471 H474 0.984 . S
N471 H475 0.985 . S
H472 N467 0.984 . S
H473 N467 0.985 . S
H474 N471 0.984 . S
H475 N471 0.985 . S
H476 N470 0.984 . S
H477 N470 0.984 . S
H478 N466 0.984 . S
H479 N466 0.985 . S
C480 C481 1.363 1_655 S
C480 C486 1.379 . S
C480 N488 1.356 . S
C481 C480 1.363 1_455 S
C481 C487 1.363 . S
C482 C483 1.363 1_455 S
C482 C487 1.379 . S
C482 N489 1.356 . S
C483 C482 1.363 1_655 S
C483 C486 1.363 . S
N484 C486 1.356 . S
N484 H496 0.984 . S
N484 H497 0.985 . S
N485 C487 1.356 . S
N485 H490 0.984 . S
N485 H491 0.985 . S
C486 C480 1.379 . S
C486 C483 1.363 . S
C486 N484 1.356 . S
C487 C481 1.363 . S
C487 C482 1.379 . S
C487 N485 1.356 . S
N488 C480 1.356 . S
N488 H494 0.984 . S
N488 H495 0.984 1_655 S
N489 C482 1.356 . S
N489 H492 0.984 1_455 S
N489 H493 0.985 . S
H490 N485 0.984 . S
H491 N485 0.985 . S
H492 N489 0.984 1_655 S
H493 N489 0.985 . S
H494 N488 0.984 . S
H495 N488 0.984 1_455 S
H496 N484 0.984 . S
H497 N484 0.985 . S
C498 C499 1.363 1_565 S
C498 C504 1.379 1_556 S
C498 N506 1.356 . S
C499 C498 1.363 1_545 S
C499 C505 1.363 . S
C500 C501 1.363 1_545 S
C500 C505 1.379 1_554 S
C500 N507 1.356 . S
C501 C500 1.363 1_565 S
C501 C504 1.363 . S
N502 C504 1.356 . S
N502 H514 0.984 1_554 S
N502 H515 0.985 . S
N503 C505 1.356 . S
N503 H508 0.984 . S
N503 H509 0.985 1_556 S
C504 C498 1.379 1_554 S
C504 C501 1.363 . S
C504 N502 1.356 . S
C505 C499 1.363 . S
C505 C500 1.379 1_556 S
C505 N503 1.356 . S
N506 C498 1.356 . S
N506 H512 0.984 . S
N506 H513 0.984 1_565 S
N507 C500 1.356 . S
N507 H510 0.984 1_545 S
N507 H511 0.985 . S
H508 N503 0.984 . S
H509 N503 0.985 1_554 S
H510 N507 0.984 1_565 S
H511 N507 0.985 . S
H512 N506 0.984 . S
H513 N506 0.984 1_545 S
H514 N502 0.984 1_556 S
H515 N502 0.985 . S
C516 C517 1.363 . S
C516 C522 1.379 1_556 S
C516 N524 1.356 . S
C517 C516 1.363 . S
C517 C523 1.363 . S
C518 C519 1.363 . S
C518 C523 1.379 1_554 S
C518 N525 1.356 . S
C519 C518 1.363 . S
C519 C522 1.363 . S
N520 C522 1.356 . S
N520 H532 0.984 . S
N520 H533 0.985 . S
N521 C523 1.356 . S
N521 H526 0.984 . S
N521 H527 0.985 . S
C522 C516 1.379 1_554 S
C522 C519 1.363 . S
C522 N520 1.356 . S
C523 C517 1.363 . S
C523 C518 1.379 1_556 S
C523 N521 1.356 . S
N524 C516 1.356 . S
N524 H530 0.984 . S
N524 H531 0.984 . S
N525 C518 1.356 . S
N525 H528 0.984 . S
N525 H529 0.985 . S
H526 N521 0.984 . S
H527 N521 0.985 . S
H528 N525 0.984 . S
H529 N525 0.985 . S
H530 N524 0.984 . S
H531 N524 0.984 . S
H532 N520 0.984 . S
H533 N520 0.985 . S
C534 C535 1.363 . S
C534 C540 1.379 . S
C534 N542 1.356 . S
C535 C534 1.363 . S
C535 C541 1.363 . S
C536 C537 1.363 . S
C536 C541 1.379 . S
C536 N543 1.356 . S
C537 C536 1.363 . S
C537 C540 1.363 . S
N538 C540 1.356 . S
N538 H550 0.984 . S
N538 H551 0.985 . S
N539 C541 1.356 . S
N539 H544 0.984 . S
N539 H545 0.985 . S
C540 C534 1.379 . S
C540 C537 1.363 . S
C540 N538 1.356 . S
C541 C535 1.363 . S
C541 C536 1.379 . S
C541 N539 1.356 . S
N542 C534 1.356 . S
N542 H548 0.984 . S
N542 H549 0.984 . S
N543 C536 1.356 . S
N543 H546 0.984 . S
N543 H547 0.985 . S
H544 N539 0.984 . S
H545 N539 0.985 . S
H546 N543 0.984 . S
H547 N543 0.985 . S
H548 N542 0.984 . S
H549 N542 0.984 . S
H550 N538 0.984 . S
H551 N538 0.985 . S
C552 C553 1.363 . S
C552 C558 1.379 . S
C552 N560 1.356 . S
C553 C552 1.363 . S
C553 C559 1.363 . S
C554 C555 1.363 . S
C554 C559 1.379 . S
C554 N561 1.356 . S
C555 C554 1.363 . S
C555 C558 1.363 . S
N556 C558 1.356 . S
N556 H568 0.984 . S
N556 H569 0.985 . S
N557 C559 1.356 . S
N557 H562 0.984 . S
N557 H563 0.985 . S
C558 C552 1.379 . S
C558 C555 1.363 . S
C558 N556 1.356 . S
C559 C553 1.363 . S
C559 C554 1.379 . S
C559 N557 1.356 . S
N560 C552 1.356 . S
N560 H566 0.984 . S
N560 H567 0.984 . S
N561 C554 1.356 . S
N561 H564 0.984 . S
N561 H565 0.985 . S
H562 N557 0.984 . S
H563 N557 0.985 . S
H564 N561 0.984 . S
H565 N561 0.985 . S
H566 N560 0.984 . S
H567 N560 0.984 . S
H568 N556 0.984 . S
H569 N556 0.985 . S
C570 C571 1.363 . S
C570 C576 1.379 1_556 S
C570 N578 1.356 . S
C571 C570 1.363 . S
C571 C577 1.363 . S
C572 C573 1.363 . S
C572 C577 1.379 1_554 S
C572 N579 1.356 . S
C573 C572 1.363 . S
C573 C576 1.363 . S
N574 C576 1.356 . S
N574 H586 0.984 . S
N574 H587 0.985 . S
N575 C577 1.356 . S
N575 H580 0.984 . S
N575 H581 0.985 . S
C576 C570 1.379 1_554 S
C576 C573 1.363 . S
C576 N574 1.356 . S
C577 C571 1.363 . S
C577 C572 1.379 1_556 S
C577 N575 1.356 . S
N578 C570 1.356 . S
N578 H584 0.984 . S
N578 H585 0.984 . S
N579 C572 1.356 . S
N579 H582 0.984 . S
N579 H583 0.985 . S
H580 N575 0.984 . S
H581 N575 0.985 . S
H582 N579 0.984 . S
H583 N579 0.985 . S
H584 N578 0.984 . S
H585 N578 0.984 . S
H586 N574 0.984 . S
H587 N574 0.985 . S
C588 C589 1.363 . S
C588 C594 1.379 . S
C588 N596 1.356 . S
C589 C588 1.363 . S
C589 C595 1.363 . S
C590 C591 1.363 . S
C590 C595 1.379 . S
C590 N597 1.356 . S
C591 C590 1.363 . S
C591 C594 1.363 . S
N592 C594 1.356 . S
N592 H604 0.984 . S
N592 H605 0.985 . S
N593 C595 1.356 . S
N593 H598 0.984 . S
N593 H599 0.985 . S
C594 C588 1.379 . S
C594 C591 1.363 . S
C594 N592 1.356 . S
C595 C589 1.363 . S
C595 C590 1.379 . S
C595 N593 1.356 . S
N596 C588 1.356 . S
N596 H602 0.984 . S
N596 H603 0.984 . S
N597 C590 1.356 . S
N597 H600 0.984 . S
N597 H601 0.985 . S
H598 N593 0.984 . S
H599 N593 0.985 . S
H600 N597 0.984 . S
H601 N597 0.985 . S
H602 N596 0.984 . S
H603 N596 0.984 . S
H604 N592 0.984 . S
H605 N592 0.985 . S
C606 C607 1.363 . S
C606 C612 1.379 . S
C606 N614 1.356 . S
C607 C606 1.363 . S
C607 C613 1.363 . S
C608 C609 1.363 . S
C608 C613 1.379 . S
C608 N615 1.356 . S
C609 C608 1.363 . S
C609 C612 1.363 . S
N610 C612 1.356 . S
N610 H622 0.984 . S
N610 H623 0.985 . S
N611 C613 1.356 . S
N611 H616 0.984 . S
N611 H617 0.985 . S
C612 C606 1.379 . S
C612 C609 1.363 . S
C612 N610 1.356 . S
C613 C607 1.363 . S
C613 C608 1.379 . S
C613 N611 1.356 . S
N614 C606 1.356 . S
N614 H620 0.984 . S
N614 H621 0.984 . S
N615 C608 1.356 . S
N615 H618 0.984 . S
N615 H619 0.985 . S
H616 N611 0.984 . S
H617 N611 0.985 . S
H618 N615 0.984 . S
H619 N615 0.985 . S
H620 N614 0.984 . S
H621 N614 0.984 . S
H622 N610 0.984 . S
H623 N610 0.985 . S
C624 C625 1.363 . S
C624 C630 1.379 . S
C624 N632 1.356 . S
C625 C624 1.363 . S
C625 C631 1.363 . S
C626 C627 1.363 . S
C626 C631 1.379 . S
C626 N633 1.356 . S
C627 C626 1.363 . S
C627 C630 1.363 . S
N628 C630 1.356 . S
N628 H640 0.984 . S
N628 H641 0.985 . S
N629 C631 1.356 . S
N629 H634 0.984 . S
N629 H635 0.985 . S
C630 C624 1.379 . S
C630 C627 1.363 . S
C630 N628 1.356 . S
C631 C625 1.363 . S
C631 C626 1.379 . S
C631 N629 1.356 . S
N632 C624 1.356 . S
N632 H638 0.984 . S
N632 H639 0.984 . S
N633 C626 1.356 . S
N633 H636 0.984 . S
N633 H637 0.985 . S
H634 N629 0.984 . S
H635 N629 0.985 . S
H636 N633 0.984 . S
H637 N633 0.985 . S
H638 N632 0.984 . S
H639 N632 0.984 . S
H640 N628 0.984 . S
H641 N628 0.985 . S
C642 C643 1.363 . S
C642 C648 1.379 . S
C642 N650 1.356 . S
C643 C642 1.363 . S
C643 C649 1.363 1_655 S
C644 C645 1.363 . S
C644 C649 1.379 . S
C644 N651 1.356 . S
C645 C644 1.363 . S
C645 C648 1.363 1_455 S
N646 C648 1.356 1_455 S
N646 H658 0.986 1_455 S
N646 H659 0.984 . S
N647 C649 1.356 1_655 S
N647 H652 0.984 . S
N647 H653 0.986 1_655 S
C648 C642 1.379 . S
C648 C645 1.363 1_655 S
C648 N646 1.356 1_655 S
C649 C643 1.363 1_455 S
C649 C644 1.379 . S
C649 N647 1.356 1_455 S
N650 C642 1.356 . S
N650 H656 0.984 . S
N650 H657 0.984 . S
N651 C644 1.356 . S
N651 H654 0.984 . S
N651 H655 0.985 . S
H652 N647 0.984 . S
H653 N647 0.986 1_455 S
H654 N651 0.984 . S
H655 N651 0.985 . S
H656 N650 0.984 . S
H657 N650 0.984 . S
H658 N646 0.986 1_655 S
H659 N646 0.984 . S
C660 C661 1.363 . S
C660 C666 1.379 . S
C660 N668 1.356 . S
C661 C660 1.363 . S
C661 C667 1.363 1_545 S
C662 C663 1.363 . S
C662 C667 1.379 . S
C662 N669 1.356 . S
C663 C662 1.363 . S
C663 C666 1.363 1_565 S
N664 C666 1.357 1_565 S
N664 H676 0.985 1_565 S
N664 H677 0.983 . S
N665 C667 1.357 1_545 S
N665 H670 0.983 . S
N665 H671 0.985 1_545 S
C666 C660 1.379 . S
C666 C663 1.363 1_545 S
C666 N664 1.357 1_545 S
C667 C661 1.363 1_565 S
C667 C662 1.379 . S
C667 N665 1.357 1_565 S
N668 C660 1.356 . S
N668 H674 0.984 . S
N668 H675 0.984 . S
N669 C662 1.356 . S
N669 H672 0.984 . S
N669 H673 0.985 . S
H670 N665 0.983 . S
H671 N665 0.985 1_565 S
H672 N669 0.984 . S
H673 N669 0.985 . S
H674 N668 0.984 . S
H675 N668 0.984 . S
H676 N664 0.985 1_545 S
H677 N664 0.983 . S
C678 C679 1.363 . S
C678 C684 1.379 . S
C678 N686 1.356 . S
C679 C678 1.363 . S
C679 C685 1.363 . S
C680 C681 1.363 . S
C680 C685 1.379 . S
C680 N687 1.356 . S
C681 C680 1.363 . S
C681 C684 1.363 . S
N682 C684 1.356 . S
N682 H694 0.984 . S
N682 H695 0.985 . S
N683 C685 1.356 . S
N683 H688 0.984 . S
N683 H689 0.985 . S
C684 C678 1.379 . S
C684 C681 1.363 . S
C684 N682 1.356 . S
C685 C679 1.363 . S
C685 C680 1.379 . S
C685 N683 1.356 . S
N686 C678 1.356 . S
N686 H692 0.984 . S
N686 H693 0.984 . S
N687 C680 1.356 . S
N687 H690 0.984 . S
N687 H691 0.985 . S
H688 N683 0.984 . S
H689 N683 0.985 . S
H690 N687 0.984 . S
H691 N687 0.985 . S
H692 N686 0.984 . S
H693 N686 0.984 . S
H694 N682 0.984 . S
H695 N682 0.985 . S
C696 C697 1.363 . S
C696 C702 1.379 . S
C696 N704 1.356 . S
C697 C696 1.363 . S
C697 C703 1.363 1_655 S
C698 C699 1.363 . S
C698 C703 1.379 . S
C698 N705 1.356 . S
C699 C698 1.363 . S
C699 C702 1.363 1_455 S
N700 C702 1.357 1_455 S
N700 H712 0.985 1_455 S
N700 H713 0.983 . S
N701 C703 1.357 1_655 S
N701 H706 0.983 . S
N701 H707 0.985 1_655 S
C702 C696 1.379 . S
C702 C699 1.363 1_655 S
C702 N700 1.357 1_655 S
C703 C697 1.363 1_455 S
C703 C698 1.379 . S
C703 N701 1.357 1_455 S
N704 C696 1.356 . S
N704 H710 0.984 . S
N704 H711 0.984 . S
N705 C698 1.356 . S
N705 H708 0.984 . S
N705 H709 0.985 . S
H706 N701 0.983 . S
H707 N701 0.985 1_455 S
H708 N705 0.984 . S
H709 N705 0.985 . S
H710 N704 0.984 . S
H711 N704 0.984 . S
H712 N700 0.985 1_655 S
H713 N700 0.983 . S
C714 C715 1.363 1_565 S
C714 C720 1.379 . S
C714 N722 1.356 1_565 S
C715 C714 1.363 1_545 S
C715 C721 1.363 . S
C716 C717 1.363 1_545 S
C716 C721 1.379 . S
C716 N723 1.356 1_545 S
C717 C716 1.363 1_565 S
C717 C720 1.363 . S
N718 C720 1.356 . S
N718 H730 0.984 . S
N718 H731 0.985 . S
N719 C721 1.356 . S
N719 H724 0.984 . S
N719 H725 0.985 . S
C720 C714 1.379 . S
C720 C717 1.363 . S
C720 N718 1.356 . S
C721 C715 1.363 . S
C721 C716 1.379 . S
C721 N719 1.356 . S
N722 C714 1.356 1_545 S
N722 H728 0.986 1_545 S
N722 H729 0.984 . S
N723 C716 1.356 1_565 S
N723 H726 0.984 . S
N723 H727 0.986 1_565 S
H724 N719 0.984 . S
H725 N719 0.985 . S
H726 N723 0.984 . S
H727 N723 0.986 1_545 S
H728 N722 0.986 1_565 S
H729 N722 0.984 . S
H730 N718 0.984 . S
H731 N718 0.985 . S
C732 C733 1.363 . S
C732 C738 1.379 1_455 S
C732 N740 1.356 . S
C733 C732 1.363 . S
C733 C739 1.363 . S
C734 C735 1.363 . S
C734 C739 1.379 1_655 S
C734 N741 1.356 . S
C735 C734 1.363 . S
C735 C738 1.363 . S
N736 C738 1.356 . S
N736 H748 0.984 . S
N736 H749 0.985 . S
N737 C739 1.356 . S
N737 H742 0.984 . S
N737 H743 0.985 . S
C738 C732 1.379 1_655 S
C738 C735 1.363 . S
C738 N736 1.356 . S
C739 C733 1.363 . S
C739 C734 1.379 1_455 S
C739 N737 1.356 . S
N740 C732 1.356 . S
N740 H746 0.984 . S
N740 H747 0.984 . S
N741 C734 1.356 . S
N741 H744 0.984 . S
N741 H745 0.985 . S
H742 N737 0.984 . S
H743 N737 0.985 . S
H744 N741 0.984 . S
H745 N741 0.985 . S
H746 N740 0.984 . S
H747 N740 0.984 . S
H748 N736 0.984 . S
H749 N736 0.985 . S
C750 C751 1.363 . S
C750 C756 1.379 1_565 S
C750 N758 1.356 . S
C751 C750 1.363 . S
C751 C757 1.363 . S
C752 C753 1.363 . S
C752 C757 1.379 1_545 S
C752 N759 1.356 . S
C753 C752 1.363 . S
C753 C756 1.363 . S
N754 C756 1.356 . S
N754 H766 0.984 . S
N754 H767 0.985 . S
N755 C757 1.356 . S
N755 H760 0.984 . S
N755 H761 0.985 . S
C756 C750 1.379 1_545 S
C756 C753 1.363 . S
C756 N754 1.356 . S
C757 C751 1.363 . S
C757 C752 1.379 1_565 S
C757 N755 1.356 . S
N758 C750 1.356 . S
N758 H764 0.984 . S
N758 H765 0.984 . S
N759 C752 1.356 . S
N759 H762 0.984 . S
N759 H763 0.985 . S
H760 N755 0.984 . S
H761 N755 0.985 . S
H762 N759 0.984 . S
H763 N759 0.985 . S
H764 N758 0.984 . S
H765 N758 0.984 . S
H766 N754 0.984 . S
H767 N754 0.985 . S
C768 C769 1.363 . S
C768 C774 1.379 . S
C768 N776 1.356 . S
C769 C768 1.363 . S
C769 C775 1.363 . S
C770 C771 1.363 . S
C770 C775 1.379 . S
C770 N777 1.356 . S
C771 C770 1.363 . S
C771 C774 1.363 . S
N772 C774 1.356 . S
N772 H784 0.984 . S
N772 H785 0.985 . S
N773 C775 1.356 . S
N773 H778 0.984 . S
N773 H779 0.985 . S
C774 C768 1.379 . S
C774 C771 1.363 . S
C774 N772 1.356 . S
C775 C769 1.363 . S
C775 C770 1.379 . S
C775 N773 1.356 . S
N776 C768 1.356 . S
N776 H782 0.984 . S
N776 H783 0.984 . S
N777 C770 1.356 . S
N777 H780 0.984 . S
N777 H781 0.985 . S
H778 N773 0.984 . S
H779 N773 0.985 . S
H780 N777 0.984 . S
H781 N777 0.985 . S
H782 N776 0.984 . S
H783 N776 0.984 . S
H784 N772 0.984 . S
H785 N772 0.985 . S
C786 C787 1.363 . S
C786 C792 1.379 1_655 S
C786 N794 1.356 . S
C787 C786 1.363 . S
C787 C793 1.363 . S
C788 C789 1.363 . S
C788 C793 1.379 1_455 S
C788 N795 1.356 . S
C789 C788 1.363 . S
C789 C792 1.363 . S
N790 C792 1.356 . S
N790 H802 0.984 . S
N790 H803 0.985 . S
N791 C793 1.356 . S
N791 H796 0.984 . S
N791 H797 0.985 . S
C792 C786 1.379 1_455 S
C792 C789 1.363 . S
C792 N790 1.356 . S
C793 C787 1.363 . S
C793 C788 1.379 1_655 S
C793 N791 1.356 . S
N794 C786 1.356 . S
N794 H800 0.984 . S
N794 H801 0.984 . S
N795 C788 1.356 . S
N795 H798 0.984 . S
N795 H799 0.985 . S
H796 N791 0.984 . S
H797 N791 0.985 . S
H798 N795 0.984 . S
H799 N795 0.985 . S
H800 N794 0.984 . S
H801 N794 0.984 . S
H802 N790 0.984 . S
H803 N790 0.985 . S
C804 C805 1.363 . S
C804 C810 1.379 1_565 S
C804 N812 1.356 . S
C805 C804 1.363 . S
C805 C811 1.363 . S
C806 C807 1.363 . S
C806 C811 1.379 1_545 S
C806 N813 1.356 . S
C807 C806 1.363 . S
C807 C810 1.363 . S
N808 C810 1.356 . S
N808 H820 0.984 . S
N808 H821 0.985 . S
N809 C811 1.356 . S
N809 H814 0.984 . S
N809 H815 0.985 . S
C810 C804 1.379 1_545 S
C810 C807 1.363 . S
C810 N808 1.356 . S
C811 C805 1.363 . S
C811 C806 1.379 1_565 S
C811 N809 1.356 . S
N812 C804 1.356 . S
N812 H818 0.984 . S
N812 H819 0.984 . S
N813 C806 1.356 . S
N813 H816 0.984 . S
N813 H817 0.985 . S
H814 N809 0.984 . S
H815 N809 0.985 . S
H816 N813 0.984 . S
H817 N813 0.985 . S
H818 N812 0.984 . S
H819 N812 0.984 . S
H820 N808 0.984 . S
H821 N808 0.985 . S
C822 C823 1.363 . S
C822 C828 1.379 . S
C822 N830 1.356 . S
C823 C822 1.363 . S
C823 C829 1.363 . S
C824 C825 1.363 . S
C824 C829 1.379 . S
C824 N831 1.356 . S
C825 C824 1.363 . S
C825 C828 1.363 . S
N826 C828 1.356 . S
N826 H838 0.984 . S
N826 H839 0.985 . S
N827 C829 1.356 . S
N827 H832 0.984 . S
N827 H833 0.985 . S
C828 C822 1.379 . S
C828 C825 1.363 . S
C828 N826 1.356 . S
C829 C823 1.363 . S
C829 C824 1.379 . S
C829 N827 1.356 . S
N830 C822 1.356 . S
N830 H836 0.984 . S
N830 H837 0.984 . S
N831 C824 1.356 . S
N831 H834 0.984 . S
N831 H835 0.985 . S
H832 N827 0.984 . S
H833 N827 0.985 . S
H834 N831 0.984 . S
H835 N831 0.985 . S
H836 N830 0.984 . S
H837 N830 0.984 . S
H838 N826 0.984 . S
H839 N826 0.985 . S
C840 C841 1.363 . S
C840 C846 1.379 . S
C840 N848 1.356 . S
C841 C840 1.363 . S
C841 C847 1.363 . S
C842 C843 1.363 . S
C842 C847 1.379 . S
C842 N849 1.356 . S
C843 C842 1.363 . S
C843 C846 1.363 . S
N844 C846 1.356 . S
N844 H856 0.984 . S
N844 H857 0.985 1_545 S
N845 C847 1.356 . S
N845 H850 0.984 . S
N845 H851 0.985 . S
C846 C840 1.379 . S
C846 C843 1.363 . S
C846 N844 1.356 . S
C847 C841 1.363 . S
C847 C842 1.379 . S
C847 N845 1.356 . S
N848 C840 1.356 . S
N848 H854 0.984 . S
N848 H855 0.984 . S
N849 C842 1.356 . S
N849 H852 0.984 . S
N849 H853 0.985 . S
H850 N845 0.984 . S
H851 N845 0.985 . S
H852 N849 0.984 . S
H853 N849 0.985 . S
H854 N848 0.984 . S
H855 N848 0.984 . S
H856 N844 0.984 . S
H857 N844 0.985 1_565 S
C858 C859 1.363 . S
C858 C864 1.379 . S
C858 N866 1.356 . S
C859 C858 1.363 . S
C859 C865 1.363 . S
C860 C861 1.363 . S
C860 C865 1.379 . S
C860 N867 1.356 . S
C861 C860 1.363 . S
C861 C864 1.363 . S
N862 C864 1.356 . S
N862 H874 0.987 1_455 S
N862 H875 0.985 1_455 S
N863 C865 1.356 . S
N863 H868 0.984 . S
N863 H869 0.985 . S
C864 C858 1.379 . S
C864 C861 1.363 . S
C864 N862 1.356 . S
C865 C859 1.363 . S
C865 C860 1.379 . S
C865 N863 1.356 . S
N866 C858 1.356 . S
N866 H872 0.984 . S
N866 H873 0.984 . S
N867 C860 1.356 . S
N867 H870 0.984 . S
N867 H871 0.985 . S
H868 N863 0.984 . S
H869 N863 0.985 . S
H870 N867 0.984 . S
H871 N867 0.985 . S
H872 N866 0.984 . S
H873 N866 0.984 . S
H874 N862 0.987 1_655 S
H875 N862 0.985 1_655 S
C876 C877 1.363 . S
C876 C882 1.379 . S
C876 N884 1.356 . S
C877 C876 1.363 . S
C877 C883 1.363 . S
C878 C879 1.363 . S
C878 C883 1.379 . S
C878 N885 1.356 . S
C879 C878 1.363 . S
C879 C882 1.363 . S
N880 C882 1.356 . S
N880 H892 0.984 . S
N880 H893 0.985 . S
N881 C883 1.356 . S
N881 H886 0.984 1_545 S
N881 H887 0.985 . S
C882 C876 1.379 . S
C882 C879 1.363 . S
C882 N880 1.356 . S
C883 C877 1.363 . S
C883 C878 1.379 . S
C883 N881 1.356 . S
N884 C876 1.356 . S
N884 H890 0.984 . S
N884 H891 0.984 . S
N885 C878 1.356 . S
N885 H888 0.984 1_655 S
N885 H889 0.985 . S
H886 N881 0.984 1_565 S
H887 N881 0.985 . S
H888 N885 0.984 1_455 S
H889 N885 0.985 . S
H890 N884 0.984 . S
H891 N884 0.984 . S
H892 N880 0.984 . S
H893 N880 0.985 . S
C894 C895 1.363 . S
C894 C900 1.379 . S
C894 N902 1.356 . S
C895 C894 1.363 . S
C895 C901 1.363 . S
C896 C897 1.363 . S
C896 C901 1.379 . S
C896 N903 1.356 . S
C897 C896 1.363 . S
C897 C900 1.363 . S
N898 C900 1.356 . S
N898 H910 0.984 . S
N898 H911 0.985 . S
N899 C901 1.356 . S
N899 H904 0.984 1_565 S
N899 H905 0.985 . S
C900 C894 1.379 . S
C900 C897 1.363 . S
C900 N898 1.356 . S
C901 C895 1.363 . S
C901 C896 1.379 . S
C901 N899 1.356 . S
N902 C894 1.356 . S
N902 H908 0.984 . S
N902 H909 0.984 . S
N903 C896 1.356 . S
N903 H906 0.984 . S
N903 H907 0.985 . S
H904 N899 0.984 1_545 S
H905 N899 0.985 . S
H906 N903 0.984 . S
H907 N903 0.985 . S
H908 N902 0.984 . S
H909 N902 0.984 . S
H910 N898 0.984 . S
H911 N898 0.985 . S
C912 C913 1.363 . S
C912 C918 1.379 . S
C912 N920 1.356 . S
C913 C912 1.363 . S
C913 C919 1.363 . S
C914 C915 1.363 . S
C914 C919 1.379 . S
C914 N921 1.356 . S
C915 C914 1.363 . S
C915 C918 1.363 . S
N916 C918 1.356 . S
N916 H928 0.984 . S
N916 H929 0.985 . S
N917 C919 1.356 . S
N917 H922 0.984 . S
N917 H923 0.985 . S
C918 C912 1.379 . S
C918 C915 1.363 . S
C918 N916 1.356 . S
C919 C913 1.363 . S
C919 C914 1.379 . S
C919 N917 1.356 . S
N920 C912 1.356 . S
N920 H926 0.984 . S
N920 H927 0.984 . S
N921 C914 1.356 . S
N921 H924 0.984 1_655 S
N921 H925 0.987 1_655 S
H922 N917 0.984 . S
H923 N917 0.985 . S
H924 N921 0.984 1_455 S
H925 N921 0.987 1_455 S
H926 N920 0.984 . S
H927 N920 0.984 . S
H928 N916 0.984 . S
H929 N916 0.985 . S
C930 C931 1.363 . S
C930 C936 1.379 . S
C930 N938 1.356 . S
C931 C930 1.363 . S
C931 C937 1.363 . S
C932 C933 1.363 . S
C932 C937 1.379 . S
C932 N939 1.356 . S
C933 C932 1.363 . S
C933 C936 1.363 . S
N934 C936 1.356 . S
N934 H946 0.984 . S
N934 H947 0.985 1_455 S
N935 C937 1.356 . S
N935 H940 0.984 . S
N935 H941 0.985 . S
C936 C930 1.379 . S
C936 C933 1.363 . S
C936 N934 1.356 . S
C937 C931 1.363 . S
C937 C932 1.379 . S
C937 N935 1.356 . S
N938 C930 1.356 . S
N938 H944 0.984 . S
N938 H945 0.984 1_565 S
N939 C932 1.356 . S
N939 H942 0.984 . S
N939 H943 0.985 . S
H940 N935 0.984 . S
H941 N935 0.985 . S
H942 N939 0.984 . S
H943 N939 0.985 . S
H944 N938 0.984 . S
H945 N938 0.984 1_545 S
H946 N934 0.984 . S
H947 N934 0.985 1_655 S
C409 C311 2.024 . S
C411 C5 2.024 . S
C427 C39 2.024 . S
C429 C345 2.024 . S
C445 C73 2.024 . S
C447 C379 2.024 . S
C463 C107 2.024 . S
C465 C209 2.024 . S
C481 C141 2.024 . S
C483 C243 2.024 . S
C499 C175 2.024 . S
C501 C277 2.024 . S
C517 C349 1.209 . S
C519 C9 1.209 . S
C535 C383 1.209 . S
C537 C43 1.209 . S
C553 C77 1.209 . S
C555 C213 1.209 . S
C571 C247 1.209 . S
C573 C111 1.209 . S
C589 C145 1.209 . S
C591 C281 1.209 . S
C607 C179 1.209 . S
C609 C315 1.209 . S
C625 C122 1.658 . S
C627 C20 1.658 . S
C643 C54 1.658 . S
C645 C156 1.658 . S
C661 C190 1.658 . S
C663 C88 1.658 . S
C679 C326 1.658 . S
C681 C224 1.658 . S
C697 C258 1.658 . S
C699 C360 1.658 . S
C715 C394 1.658 . S
C717 C292 1.658 . S
C733 C2 1.426 . S
C735 C376 1.426 . S
C751 C206 1.426 . S
C753 C36 1.426 . S
C769 C70 1.426 . S
C771 C240 1.426 . S
C787 C104 1.426 . S
C789 C274 1.426 . S
C805 C138 1.426 . S
C807 C308 1.426 . S
C823 C342 1.426 . S
C825 C172 1.426 . S
C841 C33 0.743 . S
C843 C305 0.743 . S
C859 C339 0.743 . S
C861 C67 0.743 . S
C877 C101 0.743 . S
C879 C373 0.743 . S
C895 C407 0.743 . S
C897 C135 0.743 . S
C913 C237 0.743 . S
C915 C169 0.743 . S
C931 C203 0.743 . S
C933 C271 0.743 . S
