# Generated by pormake.
# Topology bsn, (6)-cn, num edge types: 1
# Building blocks:
#     Node 0, Type 0, BuildingBlock: BETDEL_clean_sbu_0, # of connection points: 6
#     Node 1, Type 0, BuildingBlock: BETDEL_clean_sbu_0, # of connection points: 6
#     Node 2, Type 0, BuildingBlock: BETDEL_clean_sbu_0, # of connection points: 6
#     Node 3, Type 0, BuildingBlock: BETDEL_clean_sbu_0, # of connection points: 6
#     Edge 4, Type (0, 0), BuildingBlock: FUNLAD_clean_linker_1, # of connection points: 2
#     Edge 5, Type (0, 0), BuildingBlock: FUNLAD_clean_linker_1, # of connection points: 2
#     Edge 6, Type (0, 0), BuildingBlock: FUNLAD_clean_linker_1, # of connection points: 2
#     Edge 7, Type (0, 0), BuildingBlock: FUNLAD_clean_linker_1, # of connection points: 2
#     Edge 8, Type (0, 0), BuildingBlock: FUNLAD_clean_linker_1, # of connection points: 2
#     Edge 9, Type (0, 0), BuildingBlock: FUNLAD_clean_linker_1, # of connection points: 2
#     Edge 10, Type (0, 0), BuildingBlock: FUNLAD_clean_linker_1, # of connection points: 2
#     Edge 11, Type (0, 0), BuildingBlock: FUNLAD_clean_linker_1, # of connection points: 2
#     Edge 12, Type (0, 0), BuildingBlock: FUNLAD_clean_linker_1, # of connection points: 2
#     Edge 13, Type (0, 0), BuildingBlock: FUNLAD_clean_linker_1, # of connection points: 2
#     Edge 14, Type (0, 0), BuildingBlock: FUNLAD_clean_linker_1, # of connection points: 2
#     Edge 15, Type (0, 0), BuildingBlock: FUNLAD_clean_linker_1, # of connection points: 2
# Relax obj value: 0.363
# Max RMSD: 0.268
# Mean RMSD: 0.268
data_MOF--net-bsn--node1-BETDEL_clean_sbu_0--edge1-FUNLAD_clean_linker_1
_symmetry_space_group_name_H-M    P1
_symmetry_Int_Tables_number       1
_symmetry_cell_setting            triclinic
loop_
_symmetry_equiv_pos_as_xyz
'x, y, z'
_cell_length_a     33.616642
_cell_length_b     33.557518
_cell_length_c     14.774197
_cell_angle_alpha  93.254165
_cell_angle_beta   90.972385
_cell_angle_gamma 90.369373
loop_
_atom_site_label
_atom_site_type_symbol
_atom_site_fract_x
_atom_site_fract_y
_atom_site_fract_z
_atom_type_partial_charge
Dy0 Dy 0.06435 0.25786 0.34025 0.0
C1 C 0.89247 0.26971 0.3718 0.0
C2 C 0.13805 0.26234 0.26701 0.0
Dy3 Dy 0.97326 0.26739 0.35623 0.0
O4 O 0.1313 0.25912 0.35275 0.0
O5 O 0.10473 0.26241 0.2214 0.0
O6 O 0.07025 0.23591 0.47931 0.0
O7 O 0.02414 0.27602 0.44837 0.0
C8 C 0.03767 0.25339 0.50649 0.0
C9 C 1.00306 0.26669 0.18958 0.0
O10 O 0.99314 0.32815 0.40878 0.0
O11 O 0.05556 0.32507 0.34418 0.0
O12 O 0.91369 0.2929 0.32445 0.0
O13 O 0.91556 0.24565 0.41415 0.0
O14 O 0.97266 0.28776 0.21374 0.0
O15 O 1.01368 0.24544 0.25201 0.0
O16 O 0.04654 0.19315 0.33051 0.0
O17 O 0.98072 0.20189 0.3762 0.0
C18 C 0.02618 0.34578 0.38292 0.0
C19 C 1.01193 0.17891 0.35764 0.0
Dy20 Dy 0.0227 0.81158 0.61021 0.0
C21 C 1.01955 0.63944 0.65006 0.0
C22 C 0.02704 0.88326 0.53185 0.0
Dy23 Dy 1.01557 0.7195 0.62889 0.0
O24 O 1.0149 0.87842 0.61367 0.0
O25 O 0.0368 0.84913 0.49317 0.0
O26 O 0.03401 0.82322 0.75861 0.0
O27 O 0.99935 0.77309 0.71024 0.0
C28 C 1.01613 0.79034 0.77888 0.0
C29 C 0.0216 0.74458 0.46172 0.0
O30 O 0.95118 0.73363 0.62436 0.0
O31 O 0.95689 0.79944 0.58116 0.0
O32 O 0.0435 0.65973 0.60206 0.0
O33 O 0.99381 0.66316 0.68955 0.0
O34 O 1.00083 0.71355 0.47996 0.0
O35 O 0.03976 0.7586 0.53118 0.0
O36 O 0.08647 0.79605 0.64041 0.0
O37 O 0.07338 0.73455 0.70049 0.0
C38 C 0.93537 0.76716 0.59768 0.0
C39 C 0.09759 0.76474 0.68594 0.0
Dy40 Dy 0.57031 0.77089 0.8631 0.0
C41 C 0.39885 0.75635 0.82639 0.0
C42 C 0.64819 0.78388 0.82301 0.0
Dy43 Dy 0.47888 0.76823 0.84818 0.0
O44 O 0.6333 0.78833 0.90347 0.0
O45 O 0.62068 0.7721 0.76456 0.0
O46 O 0.57055 0.74169 -0.00505 0.0
O47 O 0.52203 0.77732 0.95912 0.0
C48 C 0.53492 0.75379 0.01613 0.0
C49 C 0.51777 0.78847 0.70092 0.0
O50 O 0.48613 0.83075 0.906 0.0
O51 O 0.55392 0.83633 0.87787 0.0
O52 O 0.4256 0.7449 0.76879 0.0
O53 O 0.41569 0.77352 0.89869 0.0
O54 O 0.4842 0.80394 0.72546 0.0
O55 O 0.52754 0.7619 0.75321 0.0
O56 O 0.56136 0.70512 0.83585 0.0
O57 O 0.49379 0.70391 0.86835 0.0
C58 C 0.5193 0.85217 0.90298 0.0
C59 C 0.52803 0.68552 0.85174 0.0
Dy60 Dy 0.52042 0.31464 0.08606 0.0
C61 C 0.53113 0.14844 0.14283 0.0
C62 C 0.50848 0.38652 0.01068 0.0
Dy63 Dy 0.52113 0.22799 0.11559 0.0
O64 O 0.52819 0.38149 0.08542 0.0
O65 O 0.49487 0.3524 0.97751 0.0
O66 O 0.54999 0.33094 0.21918 0.0
O67 O 0.51185 0.28063 0.20812 0.0
C68 C 0.53661 0.30024 0.25899 0.0
C69 C 0.50855 0.24637 0.94194 0.0
O70 O 0.46185 0.24152 0.17316 0.0
O71 O 0.45455 0.30038 0.1007 0.0
O72 O 0.50139 0.16383 0.1008 0.0
O73 O 0.55508 0.17675 0.17347 0.0
O74 O 0.49077 0.21775 0.97972 0.0
O75 O 0.53341 0.26287 -0.00332 0.0
O76 O 0.58495 0.30215 0.06142 0.0
O77 O 0.58557 0.24306 0.13456 0.0
C78 C 0.43925 0.27043 0.1444 0.0
C79 C 0.60437 0.27349 0.10109 0.0
H80 H 0.05919 0.40302 0.38315 0.0
C81 C 0.03275 0.38858 0.40771 0.0
H82 H 0.98273 0.39468 0.4921 0.0
H83 H 0.05464 0.53843 0.73772 0.0
H84 H 0.05973 0.48455 0.83993 0.0
H85 H 0.04514 0.41498 0.78593 0.0
H86 H 0.02557 0.39884 0.62929 0.0
C87 C 1.00816 0.4093 0.46347 0.0
C88 C 1.01672 0.45142 0.49537 0.0
C89 C 0.0274 0.46046 0.58764 0.0
C90 C 0.0354 0.50065 0.61912 0.0
C91 C 0.04737 0.50859 0.71074 0.0
C92 C 0.05062 0.4779 0.77003 0.0
C93 C 0.04243 0.43873 0.73962 0.0
C94 C 0.0311 0.42991 0.64954 0.0
H95 H 0.99186 0.5812 0.67517 0.0
C96 C 1.01673 0.59551 0.64362 0.0
H97 H 0.06495 0.58882 0.5549 0.0
H98 H 0.99371 0.44483 0.31621 0.0
H99 H 0.98837 0.49863 0.2142 0.0
H100 H 1.00281 0.56821 0.26812 0.0
H101 H 0.02244 0.5844 0.42438 0.0
C102 C 0.04114 0.57395 0.5891 0.0
C103 C 0.03214 0.53177 0.55848 0.0
C104 C 0.02119 0.52272 0.46628 0.0
C105 C 1.01323 0.48256 0.43485 0.0
C106 C 1.00106 0.47463 0.34326 0.0
C107 C 0.99761 0.50529 0.284 0.0
C108 C 1.00572 0.54445 0.31436 0.0
C109 C 1.01717 0.55328 0.40434 0.0
H110 H 0.70986 0.80297 0.85631 0.0
C111 C 0.6903 0.79079 0.80217 0.0
H112 H 0.6853 0.76983 0.66521 0.0
H113 H 0.83936 0.84769 0.51676 0.0
H114 H 0.78722 0.88157 0.43597 0.0
H115 H 0.71676 0.87336 0.47569 0.0
H116 H 0.6979 0.83102 0.59572 0.0
C117 C 0.70507 0.7812 0.71981 0.0
C118 C 0.74796 0.78729 0.69892 0.0
C119 C 0.75857 0.81272 0.6294 0.0
C120 C 0.7993 0.818 0.6073 0.0
C121 C 0.80892 0.84291 0.53656 0.0
C122 C 0.77931 0.86254 0.48972 0.0
C123 C 0.73963 0.85789 0.51204 0.0
C124 C 0.72921 0.83337 0.581 0.0
H125 H 0.87557 0.74066 0.58876 0.0
C126 C 0.89163 0.76889 0.59766 0.0
H127 H 0.88737 0.82985 0.64095 0.0
H128 H 0.7386 0.73134 0.82623 0.0
H129 H 0.79087 0.70182 0.91425 0.0
H130 H 0.86136 0.71828 0.88981 0.0
H131 H 0.87988 0.76326 0.77489 0.0
C132 C 0.8719 0.8015 0.6283 0.0
C133 C 0.82942 0.7983 0.65536 0.0
C134 C 0.81896 0.77441 0.72785 0.0
C135 C 0.77823 0.76744 0.74689 0.0
C136 C 0.76887 0.73998 0.81295 0.0
C137 C 0.79865 0.7224 0.86344 0.0
C138 C 0.83832 0.73147 0.84933 0.0
C139 C 0.84854 0.7571 0.78245 0.0
H140 H 0.48123 0.42628 0.91292 0.0
C141 C 0.50219 0.42512 0.96948 0.0
H142 H 0.54217 0.45706 0.05803 0.0
H143 H 0.51978 0.58254 0.72626 0.0
H144 H 0.54613 0.53009 0.62493 0.0
H145 H 0.55958 0.46319 0.67897 0.0
H146 H 0.5463 0.44813 0.83398 0.0
C147 C 0.52181 0.45835 0.00031 0.0
C148 C 0.51375 0.49849 0.96516 0.0
C149 C 0.52333 0.50726 0.87507 0.0
C150 C 0.51721 0.54644 0.84486 0.0
C151 C 0.52521 0.5538 0.75354 0.0
C152 C 0.54014 0.5239 0.69453 0.0
C153 C 0.54761 0.4862 0.72489 0.0
C154 C 0.53956 0.47787 0.81407 0.0
H155 H 0.55989 0.62832 0.85818 0.0
C156 C 0.53058 0.64181 0.86014 0.0
H157 H 0.46946 0.63259 0.88193 0.0
H158 H 0.48961 0.49136 0.13968 0.0
H159 H 0.46333 0.54383 0.2405 0.0
H160 H 0.45514 0.61206 0.18968 0.0
H161 H 0.47368 0.62853 0.03903 0.0
C162 C 0.49872 0.61911 0.8774 0.0
C163 C 0.50302 0.57721 0.90565 0.0
C164 C 0.4928 0.5682 -0.00494 0.0
C165 C 0.49801 0.52889 0.02462 0.0
C166 C 0.48697 0.52079 0.11397 0.0
C167 C 0.4717 0.55061 0.1726 0.0
C168 C 0.46714 0.58904 0.14414 0.0
C169 C 0.47771 0.59799 0.05688 0.0
H170 H 0.83363 0.24265 0.39666 0.0
C171 C 0.84886 0.26597 0.36236 0.0
H172 H 0.84494 0.30977 0.26578 0.0
H173 H 0.70533 0.23141 0.03276 0.0
H174 H 0.76153 0.21706 0.93574 0.0
H175 H 0.8302 0.23042 -0.00867 0.0
H176 H 0.84312 0.258 0.1442 0.0
C177 C 0.82903 0.28776 0.30285 0.0
C178 C 0.7875 0.27821 0.2722 0.0
C179 C 0.78044 0.26249 0.18202 0.0
C180 C 0.74085 0.25499 0.14968 0.0
C181 C 0.73475 0.23832 0.06026 0.0
C182 C 0.76676 0.22977 0.00393 0.0
C183 C 0.80542 0.23729 0.03522 0.0
C184 C 0.81238 0.25331 0.12314 0.0
H185 H 0.66341 0.30203 0.08748 0.0
C186 C 0.64771 0.27767 0.1171 0.0
H187 H 0.65083 0.23183 0.20937 0.0
H188 H 0.79047 0.31024 0.44686 0.0
H189 H 0.73423 0.32413 0.54411 0.0
H190 H 0.66558 0.31036 0.48872 0.0
H191 H 0.65274 0.28289 0.33562 0.0
C192 C 0.66688 0.25478 0.17554 0.0
C193 C 0.70839 0.26351 0.20734 0.0
C194 C 0.71543 0.27894 0.29768 0.0
C195 C 0.75502 0.28654 0.33001 0.0
C196 C 0.76107 0.30319 0.41943 0.0
C197 C 0.72903 0.31147 0.47587 0.0
C198 C 0.69038 0.30374 0.44468 0.0
C199 C 0.68345 0.28781 0.35666 0.0
H200 H 0.38713 0.24469 0.20707 0.0
C201 C 0.39678 0.26904 0.16686 0.0
H202 H 0.37842 0.32032 0.10101 0.0
H203 H 0.21951 0.20378 0.1754 0.0
H204 H 0.24757 0.15795 0.06161 0.0
H205 H 0.31135 0.17317 -0.00954 0.0
H206 H 0.34784 0.23402 0.03455 0.0
C207 C 0.36964 0.29509 0.13926 0.0
C208 C 0.32726 0.29063 0.16572 0.0
C209 C 0.30505 0.25618 0.13522 0.0
C210 C 0.2672 0.24853 0.17251 0.0
C211 C 0.24736 0.21221 0.14618 0.0
C212 C 0.26332 0.1854 0.08135 0.0
C213 C 0.2993 0.19388 0.04159 0.0
C214 C 0.32007 0.22877 0.068 0.0
H215 H 0.17865 0.27058 0.15394 0.0
C216 C 0.17737 0.26736 0.22663 0.0
H217 H 0.20968 0.26731 0.3501 0.0
H218 H 0.36058 0.36096 0.23326 0.0
H219 H 0.3308 0.40913 0.33997 0.0
H220 H 0.26373 0.39769 0.399 0.0
H221 H 0.22615 0.33786 0.35241 0.0
C222 C 0.21103 0.26893 0.27694 0.0
C223 C 0.25047 0.27663 0.23629 0.0
C224 C 0.27178 0.31215 0.26291 0.0
C225 C 0.31023 0.31909 0.22781 0.0
C226 C 0.33117 0.35435 0.25726 0.0
C227 C 0.31442 0.38227 0.31845 0.0
C228 C 0.27667 0.37581 0.35174 0.0
C229 C 0.25546 0.34126 0.32456 0.0
H230 H 0.34795 0.74456 0.73471 0.0
C231 C 0.35608 0.755 0.80359 0.0
H232 H 0.33564 0.77988 0.9281 0.0
H233 H 0.18043 0.85605 0.76631 0.0
H234 H 0.21415 0.91287 0.84233 0.0
H235 H 0.28119 0.9061 0.90979 0.0
H236 H 0.31463 0.8424 0.90315 0.0
C237 C 0.32759 0.76823 0.86011 0.0
C238 C 0.28548 0.77147 0.82651 0.0
C239 C 0.26658 0.80924 0.82958 0.0
C240 C 0.22829 0.81344 0.7884 0.0
C241 C 0.20975 0.85127 0.79478 0.0
C242 C 0.22874 0.88418 0.83839 0.0
C243 C 0.26646 0.88035 0.87647 0.0
C244 C 0.28532 0.84347 0.87223 0.0
H245 H 0.14275 0.74112 0.77704 0.0
C246 C 0.13789 0.76289 0.72626 0.0
H247 H 0.16449 0.80693 0.65032 0.0
H248 H 0.30796 0.6931 0.82734 0.0
H249 H 0.27667 0.63707 0.74217 0.0
H250 H 0.21617 0.64656 0.64919 0.0
H251 H 0.18575 0.71162 0.64415 0.0
C252 C 0.16883 0.78474 0.70028 0.0
C253 C 0.20932 0.78017 0.74194 0.0
C254 C 0.22854 0.74251 0.73773 0.0
C255 C 0.26543 0.73774 0.78438 0.0
C256 C 0.28154 0.69892 0.78758 0.0
C257 C 0.26366 0.66643 0.73978 0.0
C258 C 0.22947 0.67172 0.68795 0.0
C259 C 0.21204 0.70922 0.68655 0.0
H260 H 0.48838 0.90693 0.9504 0.0
C261 C 0.51752 0.89448 0.93578 0.0
H262 H 0.5796 0.90559 0.93952 0.0
H263 H 0.54811 0.09336 0.9324 0.0
H264 H 0.57196 0.07921 0.77991 0.0
H265 H 0.58464 1.00999 0.72292 0.0
H266 H 0.57352 0.95448 0.8181 0.0
C267 C 0.55011 0.91713 0.95391 0.0
C268 C 0.54644 0.95903 -0.00812 0.0
C269 C 0.55361 0.99111 0.93592 0.0
C270 C 0.54606 0.03097 0.96866 0.0
C271 C 0.55299 0.06245 0.91075 0.0
C272 C 0.56679 0.05477 0.82314 0.0
C273 C 0.57395 1.0158 0.79108 0.0
C274 C 0.56744 0.98422 0.84642 0.0
H275 H 0.56788 0.09555 0.16909 0.0
C276 C 0.54044 0.10544 0.13793 0.0
H277 H 0.49182 0.09033 0.05042 0.0
H278 H 0.536 0.90498 0.12158 0.0
H279 H 0.51317 0.91921 0.27503 0.0
H280 H 0.49842 0.98818 0.33047 0.0
H281 H 0.50652 0.04346 0.23285 0.0
C282 C 0.51811 0.07972 0.08525 0.0
C283 C 0.5316 0.03873 0.05757 0.0
C284 C 0.52659 1.00686 0.11534 0.0
C285 C 0.53434 0.96696 0.0827 0.0
C286 C 0.52961 0.9357 0.14219 0.0
C287 C 0.51678 0.94348 0.23058 0.0
C288 C 0.50849 0.98234 0.26181 0.0
C289 C 0.51325 1.01378 0.20515 0.0
H290 H 0.04461 0.92186 0.42321 0.0
C291 C 0.03044 0.92167 0.48876 0.0
H292 H 1.00338 0.95579 0.59442 0.0
H293 H 0.07849 0.12229 0.52351 0.0
H294 H 0.10796 0.10844 0.66901 0.0
H295 H 0.09974 0.04244 0.73202 0.0
H296 H 0.06158 0.99005 0.65043 0.0
C297 C 1.01675 0.95587 0.52795 0.0
C298 C 0.0227 0.99512 0.48692 0.0
C299 C 0.04591 0.02522 0.53456 0.0
C300 C 0.05142 0.06303 0.49728 0.0
C301 C 0.07384 0.09282 0.54772 0.0
C302 C 0.09091 0.08532 0.63153 0.0
C303 C 0.08622 0.04819 0.66707 0.0
C304 C 0.0641 1.01839 0.61949 0.0
H305 H 0.97844 0.12539 0.39212 0.0
C306 C 1.00765 0.13605 0.37354 0.0
H307 H 0.06849 0.12179 0.36256 0.0
H308 H 0.97217 0.94638 0.38226 0.0
H309 H 0.94447 0.95964 0.23467 0.0
H310 H 0.95889 0.02298 0.16444 0.0
H311 H 1.00028 0.07394 0.24278 0.0
C312 C 0.03869 0.11107 0.37574 0.0
C313 C 0.03415 0.07064 0.41177 0.0
C314 C 1.01149 0.04038 0.36333 0.0
C315 C 1.00492 1.00297 0.40185 0.0
C316 C 0.97984 0.97448 0.35454 0.0
C317 C 0.96345 0.98184 0.26993 0.0
C318 C 0.9714 1.01758 0.23059 0.0
C319 C 0.99505 0.04665 0.27648 0.0
H320 H 0.03967 0.23838 0.08331 0.0
C321 C 1.01732 0.26109 0.09735 0.0
H322 H 0.97834 0.30298 0.04291 0.0
H323 H 0.11096 0.25704 0.72113 0.0
H324 H 0.1595 0.29124 0.82145 0.0
H325 H 0.14098 0.317 0.97463 0.0
H326 H 0.07379 0.30872 0.02807 0.0
C327 C 1.00178 0.28131 0.03015 0.0
C328 C 1.01209 0.26981 0.93567 0.0
C329 C 0.05138 0.27558 0.90536 0.0
C330 C 0.06186 0.26126 0.81692 0.0
C331 C 0.10129 0.26735 0.78781 0.0
C332 C 0.12949 0.28698 0.8447 0.0
C333 C 0.11908 0.30143 0.93095 0.0
C334 C 0.08047 0.29615 0.96106 0.0
H335 H 1.00132 0.27648 0.61891 0.0
C336 C 0.02447 0.25526 0.59988 0.0
H337 H 0.0659 0.21326 0.64458 0.0
H338 H 0.93417 0.25368 0.97438 0.0
H339 H 0.88611 0.2182 0.87501 0.0
H340 H 0.90486 0.19214 0.72226 0.0
H341 H 0.97184 0.20162 0.66799 0.0
C342 C 0.04193 0.23367 0.66244 0.0
C343 C 0.03272 0.24218 0.75887 0.0
C344 C 0.99374 0.23554 0.78999 0.0
C345 C 0.9832 0.24993 0.87829 0.0
C346 C 0.9439 0.24335 0.90774 0.0
C347 C 0.91598 0.22295 0.85146 0.0
C348 C 0.92652 0.20834 0.76541 0.0
C349 C 0.96495 0.2143 0.73482 0.0
H350 H 0.99347 0.75158 0.88167 0.0
C351 C 1.01287 0.77683 0.87066 0.0
H352 H 0.05215 0.8207 0.92959 0.0
H353 H 0.97377 0.81436 0.31495 0.0
H354 H 0.95755 0.88137 0.27445 0.0
H355 H 0.97317 0.90407 0.12299 0.0
H356 H 1.00498 0.8598 0.01134 0.0
C357 C 0.03329 0.79499 0.94004 0.0
C358 C 0.02795 0.78258 0.03359 0.0
C359 C 1.00993 0.80919 0.09831 0.0
C360 C 1.00145 0.79633 0.18583 0.0
C361 C 0.98201 0.82292 0.2483 0.0
C362 C 0.97222 0.86143 0.2257 0.0
C363 C 0.98095 0.87417 0.14043 0.0
C364 C 0.99932 0.84843 0.07699 0.0
H365 H 0.04699 0.78374 0.36286 0.0
C366 C 0.02584 0.75968 0.37161 0.0
H367 H 0.98435 0.71912 0.30838 0.0
H368 H 0.06846 0.72646 0.92948 0.0
H369 H 0.08554 0.65972 0.97064 0.0
H370 H 0.06882 0.63656 0.12103 0.0
H371 H 0.03528 0.68017 0.23123 0.0
C372 C 1.0047 0.74396 0.30064 0.0
C373 C 1.01176 0.75717 0.20847 0.0
C374 C 0.03035 0.73079 0.14424 0.0
C375 C 0.0391 0.74375 0.05701 0.0
C376 C 0.05964 0.71762 -0.00446 0.0
C377 C 0.07 0.67933 0.01862 0.0
C378 C 0.06066 0.66632 0.10331 0.0
C379 C 0.04129 0.69167 0.16586 0.0
H380 H 0.49162 0.76856 0.12227 0.0
C381 C 0.52076 0.75579 0.10927 0.0
H382 H 0.57581 0.73919 0.16645 0.0
H383 H 0.55141 0.86659 0.49349 0.0
H384 H 0.59278 0.90542 0.39697 0.0
H385 H 0.60821 0.88016 0.24146 0.0
H386 H 0.58283 0.81589 0.18178 0.0
C387 C 0.54559 0.74924 0.17849 0.0
C388 C 0.53567 0.76432 0.27103 0.0
C389 C 0.55101 0.80192 0.30445 0.0
C390 C 0.54197 0.81664 0.39354 0.0
C391 C 0.55758 0.85413 0.42603 0.0
C392 C 0.58127 0.87667 0.37139 0.0
C393 C 0.58997 0.86244 0.28384 0.0
C394 C 0.57518 0.8255 0.25042 0.0
H395 H 0.55714 0.76963 0.58999 0.0
C396 C 0.53239 0.789 0.60848 0.0
H397 H 0.48578 0.82477 0.56058 0.0
H398 H 0.50103 0.6916 0.22568 0.0
H399 H 0.45712 0.65458 0.32048 0.0
H400 H 0.43961 0.68131 0.47305 0.0
H401 H 0.46603 0.74501 0.53302 0.0
C402 C 0.51151 0.8065 0.54402 0.0
C403 C 0.51771 0.79372 0.44818 0.0
C404 C 0.50091 0.757 0.41336 0.0
C405 C 0.51034 0.74199 0.32477 0.0
C406 C 0.49433 0.70462 0.29234 0.0
C407 C 0.46918 0.68306 0.34584 0.0
C408 C 0.45936 0.69808 0.43201 0.0
C409 C 0.4749 0.7346 0.46574 0.0
H410 H 0.56361 0.31604 0.39275 0.0
C411 C 0.54111 0.29722 0.35774 0.0
H412 H 0.49485 0.25538 0.37229 0.0
H413 H 0.56038 0.2035 0.75364 0.0
H414 H 0.57476 0.14458 0.65758 0.0
H415 H 0.56501 0.14448 0.49169 0.0
H416 H 0.54094 0.20337 0.42087 0.0
C417 C 0.51718 0.27477 0.40618 0.0
C418 C 0.52159 0.27479 0.50698 0.0
C419 C 0.53491 0.23989 0.54757 0.0
C420 C 0.5399 0.23975 0.64346 0.0
C421 C 0.55479 0.20491 0.6816 0.0
C422 C 0.56351 0.17095 0.62713 0.0
C423 C 0.55808 0.17091 0.53373 0.0
C424 C 0.54414 0.20492 0.49399 0.0
H425 H 0.48486 0.23277 0.80418 0.0
C426 C 0.50693 0.25059 0.84328 0.0
H427 H 0.55442 0.29185 0.8378 0.0
H428 H 0.49255 0.34607 0.45272 0.0
H429 H 0.47972 0.40536 0.5488 0.0
H430 H 0.49034 0.40558 0.71444 0.0
H431 H 0.51363 0.34633 0.785 0.0
C432 C 0.53259 0.27329 0.79988 0.0
C433 C 0.53075 0.27432 0.69899 0.0
C434 C 0.51828 0.3095 0.65838 0.0
C435 C 0.51307 0.30961 0.5625 0.0
C436 C 0.49848 0.34462 0.52459 0.0
C437 C 0.49063 0.37883 0.57912 0.0
C438 C 0.49654 0.37894 0.67239 0.0
C439 C 0.50996 0.34471 0.71199 0.0
loop_
_geom_bond_atom_site_label_1
_geom_bond_atom_site_label_2
_geom_bond_distance
_geom_bond_site_symmetry_2
_ccdc_geom_bond_type
Dy0 O4 2.398 . S
Dy0 O5 2.491 . S
Dy0 O6 2.403 . S
Dy0 O7 2.664 1_455 S
Dy0 O11 2.326 . S
Dy0 O15 2.310 . S
Dy0 O16 2.351 . S
C1 O12 1.185 . S
C1 O13 1.355 . S
C2 O4 1.185 . S
C2 O5 1.355 . S
Dy3 O7 2.310 . S
Dy3 O10 2.351 . S
Dy3 O12 2.398 . S
Dy3 O13 2.491 . S
Dy3 O14 2.403 . S
Dy3 O15 2.664 1_655 S
Dy3 O17 2.326 . S
O4 Dy0 2.398 . S
O4 C2 1.185 . S
O5 Dy0 2.491 . S
O5 C2 1.355 . S
O6 Dy0 2.403 . S
O6 C8 1.254 . S
O7 Dy0 2.664 1_655 S
O7 Dy3 2.310 . S
O7 C8 1.268 1_655 S
C8 O6 1.254 . S
C8 O7 1.268 1_455 S
C9 O14 1.254 . S
C9 O15 1.268 1_655 S
O10 Dy3 2.351 . S
O10 C18 1.249 1_655 S
O11 Dy0 2.326 . S
O11 C18 1.267 . S
O12 C1 1.185 . S
O12 Dy3 2.398 . S
O13 C1 1.355 . S
O13 Dy3 2.491 . S
O14 Dy3 2.403 . S
O14 C9 1.254 . S
O15 Dy0 2.310 . S
O15 Dy3 2.664 1_455 S
O15 C9 1.268 1_455 S
O16 Dy0 2.351 . S
O16 C19 1.249 1_455 S
O17 Dy3 2.326 . S
O17 C19 1.267 . S
C18 O10 1.249 1_455 S
C18 O11 1.267 . S
C19 O16 1.249 1_655 S
C19 O17 1.267 . S
Dy20 O24 2.398 1_455 S
Dy20 O25 2.491 1_455 S
Dy20 O26 2.403 . S
Dy20 O27 2.664 . S
Dy20 O31 2.326 1_455 S
Dy20 O35 2.310 1_455 S
Dy20 O36 2.351 . S
C21 O32 1.185 . S
C21 O33 1.355 . S
C22 O24 1.185 . S
C22 O25 1.355 . S
Dy23 O27 2.310 1_655 S
Dy23 O30 2.351 . S
Dy23 O32 2.398 1_655 S
Dy23 O33 2.491 1_655 S
Dy23 O34 2.403 . S
Dy23 O35 2.664 . S
Dy23 O37 2.326 1_655 S
O24 Dy20 2.398 1_655 S
O24 C22 1.185 . S
O25 Dy20 2.491 1_655 S
O25 C22 1.355 . S
O26 Dy20 2.403 . S
O26 C28 1.254 . S
O27 Dy20 2.664 . S
O27 Dy23 2.310 1_455 S
O27 C28 1.268 . S
C28 O26 1.254 . S
C28 O27 1.268 . S
C29 O34 1.254 . S
C29 O35 1.268 . S
O30 Dy23 2.351 . S
O30 C38 1.249 . S
O31 Dy20 2.326 1_655 S
O31 C38 1.267 . S
O32 C21 1.185 . S
O32 Dy23 2.398 1_455 S
O33 C21 1.355 . S
O33 Dy23 2.491 1_455 S
O34 Dy23 2.403 . S
O34 C29 1.254 . S
O35 Dy20 2.310 1_655 S
O35 Dy23 2.664 . S
O35 C29 1.268 . S
O36 Dy20 2.351 . S
O36 C39 1.249 . S
O37 Dy23 2.326 1_455 S
O37 C39 1.267 . S
C38 O30 1.249 . S
C38 O31 1.267 . S
C39 O36 1.249 . S
C39 O37 1.267 . S
Dy40 O44 2.398 . S
Dy40 O45 2.491 . S
Dy40 O46 2.403 1_556 S
Dy40 O47 2.664 . S
Dy40 O51 2.326 . S
Dy40 O55 2.310 . S
Dy40 O56 2.351 . S
C41 O52 1.185 . S
C41 O53 1.355 . S
C42 O44 1.185 . S
C42 O45 1.355 . S
Dy43 O47 2.310 . S
Dy43 O50 2.351 . S
Dy43 O52 2.398 . S
Dy43 O53 2.491 . S
Dy43 O54 2.403 . S
Dy43 O55 2.664 . S
Dy43 O57 2.326 . S
O44 Dy40 2.398 . S
O44 C42 1.185 . S
O45 Dy40 2.491 . S
O45 C42 1.355 . S
O46 Dy40 2.403 1_554 S
O46 C48 1.254 . S
O47 Dy40 2.664 . S
O47 Dy43 2.310 . S
O47 C48 1.268 1_556 S
C48 O46 1.254 . S
C48 O47 1.268 1_554 S
C49 O54 1.254 . S
C49 O55 1.268 . S
O50 Dy43 2.351 . S
O50 C58 1.249 . S
O51 Dy40 2.326 . S
O51 C58 1.267 . S
O52 C41 1.185 . S
O52 Dy43 2.398 . S
O53 C41 1.355 . S
O53 Dy43 2.491 . S
O54 Dy43 2.403 . S
O54 C49 1.254 . S
O55 Dy40 2.310 . S
O55 Dy43 2.664 . S
O55 C49 1.268 . S
O56 Dy40 2.351 . S
O56 C59 1.249 . S
O57 Dy43 2.326 . S
O57 C59 1.267 . S
C58 O50 1.249 . S
C58 O51 1.267 . S
C59 O56 1.249 . S
C59 O57 1.267 . S
Dy60 O64 2.398 . S
Dy60 O65 2.491 . S
Dy60 O66 2.403 . S
Dy60 O67 2.664 . S
Dy60 O71 2.326 . S
Dy60 O75 2.310 . S
Dy60 O76 2.351 . S
C61 O72 1.185 . S
C61 O73 1.355 . S
C62 O64 1.185 . S
C62 O65 1.355 . S
Dy63 O67 2.310 . S
Dy63 O70 2.351 . S
Dy63 O72 2.398 . S
Dy63 O73 2.491 . S
Dy63 O74 2.403 1_554 S
Dy63 O75 2.664 . S
Dy63 O77 2.326 . S
O64 Dy60 2.398 . S
O64 C62 1.185 . S
O65 Dy60 2.491 . S
O65 C62 1.355 . S
O66 Dy60 2.403 . S
O66 C68 1.254 . S
O67 Dy60 2.664 . S
O67 Dy63 2.310 . S
O67 C68 1.268 . S
C68 O66 1.254 . S
C68 O67 1.268 . S
C69 O74 1.254 . S
C69 O75 1.268 1_556 S
O70 Dy63 2.351 . S
O70 C78 1.249 . S
O71 Dy60 2.326 . S
O71 C78 1.267 . S
O72 C61 1.185 . S
O72 Dy63 2.398 . S
O73 C61 1.355 . S
O73 Dy63 2.491 . S
O74 Dy63 2.403 1_556 S
O74 C69 1.254 . S
O75 Dy60 2.310 . S
O75 Dy63 2.664 . S
O75 C69 1.268 1_554 S
O76 Dy60 2.351 . S
O76 C79 1.249 . S
O77 Dy63 2.326 . S
O77 C79 1.267 . S
C78 O70 1.249 . S
C78 O71 1.267 . S
C79 O76 1.249 . S
C79 O77 1.267 . S
H80 C81 0.951 . S
C81 H80 0.951 . S
C81 C87 1.265 . S
H82 C87 0.950 1_655 S
H83 C91 0.949 . S
H84 C92 0.950 . S
H85 C93 0.951 . S
H86 C94 0.951 1_655 S
C87 C81 1.265 . S
C87 H82 0.950 1_455 S
C87 C88 1.478 . S
C88 C87 1.478 . S
C88 C89 1.397 . S
C88 C105 1.394 . S
C89 C88 1.397 . S
C89 C90 1.438 . S
C89 C94 1.429 . S
C90 C89 1.438 . S
C90 C91 1.428 . S
C90 C103 1.394 . S
C91 H83 0.949 . S
C91 C90 1.428 . S
C91 C92 1.345 . S
C92 H84 0.950 . S
C92 C91 1.345 . S
C92 C93 1.424 1_455 S
C93 H85 0.951 . S
C93 C92 1.424 1_655 S
C93 C94 1.347 1_655 S
C94 H86 0.951 1_455 S
C94 C89 1.429 . S
C94 C93 1.347 1_455 S
H95 C96 0.951 . S
C96 H95 0.951 . S
C96 C102 1.265 . S
H97 C102 0.950 . S
H98 C106 0.949 . S
H99 C107 0.950 . S
H100 C108 0.951 . S
H101 C109 0.951 . S
C102 C96 1.265 . S
C102 H97 0.950 . S
C102 C103 1.478 . S
C103 C90 1.394 . S
C103 C102 1.478 . S
C103 C104 1.397 . S
C104 C103 1.397 . S
C104 C105 1.438 . S
C104 C109 1.429 . S
C105 C88 1.394 . S
C105 C104 1.438 . S
C105 C106 1.428 . S
C106 H98 0.949 . S
C106 C105 1.428 . S
C106 C107 1.345 . S
C107 H99 0.950 . S
C107 C106 1.345 . S
C107 C108 1.424 . S
C108 H100 0.951 . S
C108 C107 1.424 . S
C108 C109 1.347 . S
C109 H101 0.951 . S
C109 C104 1.429 . S
C109 C108 1.347 . S
H110 C111 0.951 . S
C111 H110 0.951 . S
C111 C117 1.265 . S
H112 C117 0.950 . S
H113 C121 0.949 . S
H114 C122 0.950 . S
H115 C123 0.951 . S
H116 C124 0.951 . S
C117 C111 1.265 . S
C117 H112 0.950 . S
C117 C118 1.478 . S
C118 C117 1.478 . S
C118 C119 1.397 . S
C118 C135 1.394 . S
C119 C118 1.397 . S
C119 C120 1.438 . S
C119 C124 1.429 . S
C120 C119 1.438 . S
C120 C121 1.428 . S
C120 C133 1.394 . S
C121 H113 0.949 . S
C121 C120 1.428 . S
C121 C122 1.345 . S
C122 H114 0.950 . S
C122 C121 1.345 . S
C122 C123 1.424 . S
C123 H115 0.951 . S
C123 C122 1.424 . S
C123 C124 1.347 . S
C124 H116 0.951 . S
C124 C119 1.429 . S
C124 C123 1.347 . S
H125 C126 0.951 . S
C126 H125 0.951 . S
C126 C132 1.265 . S
H127 C132 0.950 . S
H128 C136 0.949 . S
H129 C137 0.950 . S
H130 C138 0.951 . S
H131 C139 0.951 . S
C132 C126 1.265 . S
C132 H127 0.950 . S
C132 C133 1.478 . S
C133 C120 1.394 . S
C133 C132 1.478 . S
C133 C134 1.397 . S
C134 C133 1.397 . S
C134 C135 1.438 . S
C134 C139 1.429 . S
C135 C118 1.394 . S
C135 C134 1.438 . S
C135 C136 1.428 . S
C136 H128 0.949 . S
C136 C135 1.428 . S
C136 C137 1.345 . S
C137 H129 0.950 . S
C137 C136 1.345 . S
C137 C138 1.424 . S
C138 H130 0.951 . S
C138 C137 1.424 . S
C138 C139 1.347 . S
C139 H131 0.951 . S
C139 C134 1.429 . S
C139 C138 1.347 . S
H140 C141 0.951 . S
C141 H140 0.951 . S
C141 C147 1.265 . S
H142 C147 0.950 . S
H143 C151 0.949 . S
H144 C152 0.950 . S
H145 C153 0.951 . S
H146 C154 0.951 . S
C147 C141 1.265 . S
C147 H142 0.950 . S
C147 C148 1.478 . S
C148 C147 1.478 . S
C148 C149 1.397 1_554 S
C148 C165 1.394 . S
C149 C148 1.397 1_556 S
C149 C150 1.438 . S
C149 C154 1.429 . S
C150 C149 1.438 . S
C150 C151 1.428 . S
C150 C163 1.394 . S
C151 H143 0.949 . S
C151 C150 1.428 . S
C151 C152 1.345 . S
C152 H144 0.950 . S
C152 C151 1.345 . S
C152 C153 1.424 . S
C153 H145 0.951 . S
C153 C152 1.424 . S
C153 C154 1.347 . S
C154 H146 0.951 . S
C154 C149 1.429 . S
C154 C153 1.347 . S
H155 C156 0.951 . S
C156 H155 0.951 . S
C156 C162 1.265 . S
H157 C162 0.950 . S
H158 C166 0.949 . S
H159 C167 0.950 . S
H160 C168 0.951 . S
H161 C169 0.951 . S
C162 C156 1.265 . S
C162 H157 0.950 . S
C162 C163 1.478 . S
C163 C150 1.394 . S
C163 C162 1.478 . S
C163 C164 1.397 1_556 S
C164 C163 1.397 1_554 S
C164 C165 1.438 . S
C164 C169 1.429 . S
C165 C148 1.394 . S
C165 C164 1.438 . S
C165 C166 1.428 . S
C166 H158 0.949 . S
C166 C165 1.428 . S
C166 C167 1.345 . S
C167 H159 0.950 . S
C167 C166 1.345 . S
C167 C168 1.424 . S
C168 H160 0.951 . S
C168 C167 1.424 . S
C168 C169 1.347 . S
C169 H161 0.951 . S
C169 C164 1.429 . S
C169 C168 1.347 . S
H170 C171 0.951 . S
C171 H170 0.951 . S
C171 C177 1.265 . S
H172 C177 0.950 . S
H173 C181 0.949 . S
H174 C182 0.950 . S
H175 C183 0.951 1_556 S
H176 C184 0.951 . S
C177 C171 1.265 . S
C177 H172 0.950 . S
C177 C178 1.478 . S
C178 C177 1.478 . S
C178 C179 1.397 . S
C178 C195 1.394 . S
C179 C178 1.397 . S
C179 C180 1.438 . S
C179 C184 1.429 . S
C180 C179 1.438 . S
C180 C181 1.428 . S
C180 C193 1.394 . S
C181 H173 0.949 . S
C181 C180 1.428 . S
C181 C182 1.345 1_554 S
C182 H174 0.950 . S
C182 C181 1.345 1_556 S
C182 C183 1.424 1_556 S
C183 H175 0.951 1_554 S
C183 C182 1.424 1_554 S
C183 C184 1.347 . S
C184 H176 0.951 . S
C184 C179 1.429 . S
C184 C183 1.347 . S
H185 C186 0.951 . S
C186 H185 0.951 . S
C186 C192 1.265 . S
H187 C192 0.950 . S
H188 C196 0.949 . S
H189 C197 0.950 . S
H190 C198 0.951 . S
H191 C199 0.951 . S
C192 C186 1.265 . S
C192 H187 0.950 . S
C192 C193 1.478 . S
C193 C180 1.394 . S
C193 C192 1.478 . S
C193 C194 1.397 . S
C194 C193 1.397 . S
C194 C195 1.438 . S
C194 C199 1.429 . S
C195 C178 1.394 . S
C195 C194 1.438 . S
C195 C196 1.428 . S
C196 H188 0.949 . S
C196 C195 1.428 . S
C196 C197 1.345 . S
C197 H189 0.950 . S
C197 C196 1.345 . S
C197 C198 1.424 . S
C198 H190 0.951 . S
C198 C197 1.424 . S
C198 C199 1.347 . S
C199 H191 0.951 . S
C199 C194 1.429 . S
C199 C198 1.347 . S
H200 C201 0.951 . S
C201 H200 0.951 . S
C201 C207 1.265 . S
H202 C207 0.950 . S
H203 C211 0.949 . S
H204 C212 0.950 . S
H205 C213 0.951 . S
H206 C214 0.951 . S
C207 C201 1.265 . S
C207 H202 0.950 . S
C207 C208 1.478 . S
C208 C207 1.478 . S
C208 C209 1.397 . S
C208 C225 1.394 . S
C209 C208 1.397 . S
C209 C210 1.438 . S
C209 C214 1.429 . S
C210 C209 1.438 . S
C210 C211 1.428 . S
C210 C223 1.394 . S
C211 H203 0.949 . S
C211 C210 1.428 . S
C211 C212 1.345 . S
C212 H204 0.950 . S
C212 C211 1.345 . S
C212 C213 1.424 . S
C213 H205 0.951 . S
C213 C212 1.424 . S
C213 C214 1.347 . S
C214 H206 0.951 . S
C214 C209 1.429 . S
C214 C213 1.347 . S
H215 C216 0.951 . S
C216 H215 0.951 . S
C216 C222 1.265 . S
H217 C222 0.950 . S
H218 C226 0.949 . S
H219 C227 0.950 . S
H220 C228 0.951 . S
H221 C229 0.951 . S
C222 C216 1.265 . S
C222 H217 0.950 . S
C222 C223 1.478 . S
C223 C210 1.394 . S
C223 C222 1.478 . S
C223 C224 1.397 . S
C224 C223 1.397 . S
C224 C225 1.438 . S
C224 C229 1.429 . S
C225 C208 1.394 . S
C225 C224 1.438 . S
C225 C226 1.428 . S
C226 H218 0.949 . S
C226 C225 1.428 . S
C226 C227 1.345 . S
C227 H219 0.950 . S
C227 C226 1.345 . S
C227 C228 1.424 . S
C228 H220 0.951 . S
C228 C227 1.424 . S
C228 C229 1.347 . S
C229 H221 0.951 . S
C229 C224 1.429 . S
C229 C228 1.347 . S
H230 C231 0.951 . S
C231 H230 0.951 . S
C231 C237 1.265 . S
H232 C237 0.950 . S
H233 C241 0.949 . S
H234 C242 0.950 . S
H235 C243 0.951 . S
H236 C244 0.951 . S
C237 C231 1.265 . S
C237 H232 0.950 . S
C237 C238 1.478 . S
C238 C237 1.478 . S
C238 C239 1.397 . S
C238 C255 1.394 . S
C239 C238 1.397 . S
C239 C240 1.438 . S
C239 C244 1.429 . S
C240 C239 1.438 . S
C240 C241 1.428 . S
C240 C253 1.394 . S
C241 H233 0.949 . S
C241 C240 1.428 . S
C241 C242 1.345 . S
C242 H234 0.950 . S
C242 C241 1.345 . S
C242 C243 1.424 . S
C243 H235 0.951 . S
C243 C242 1.424 . S
C243 C244 1.347 . S
C244 H236 0.951 . S
C244 C239 1.429 . S
C244 C243 1.347 . S
H245 C246 0.951 . S
C246 H245 0.951 . S
C246 C252 1.265 . S
H247 C252 0.950 . S
H248 C256 0.949 . S
H249 C257 0.950 . S
H250 C258 0.951 . S
H251 C259 0.951 . S
C252 C246 1.265 . S
C252 H247 0.950 . S
C252 C253 1.478 . S
C253 C240 1.394 . S
C253 C252 1.478 . S
C253 C254 1.397 . S
C254 C253 1.397 . S
C254 C255 1.438 . S
C254 C259 1.429 . S
C255 C238 1.394 . S
C255 C254 1.438 . S
C255 C256 1.428 . S
C256 H248 0.949 . S
C256 C255 1.428 . S
C256 C257 1.345 . S
C257 H249 0.950 . S
C257 C256 1.345 . S
C257 C258 1.424 . S
C258 H250 0.951 . S
C258 C257 1.424 . S
C258 C259 1.347 . S
C259 H251 0.951 . S
C259 C254 1.429 . S
C259 C258 1.347 . S
H260 C261 0.951 . S
C261 H260 0.951 . S
C261 C267 1.265 . S
H262 C267 0.950 . S
H263 C271 0.949 . S
H264 C272 0.950 . S
H265 C273 0.951 . S
H266 C274 0.951 . S
C267 C261 1.265 . S
C267 H262 0.950 . S
C267 C268 1.478 . S
C268 C267 1.478 . S
C268 C269 1.397 . S
C268 C285 1.394 1_556 S
C269 C268 1.397 . S
C269 C270 1.438 1_565 S
C269 C274 1.429 . S
C270 C269 1.438 1_545 S
C270 C271 1.428 . S
C270 C283 1.394 1_556 S
C271 H263 0.949 . S
C271 C270 1.428 . S
C271 C272 1.345 . S
C272 H264 0.950 . S
C272 C271 1.345 . S
C272 C273 1.424 1_545 S
C273 H265 0.951 . S
C273 C272 1.424 1_565 S
C273 C274 1.347 . S
C274 H266 0.951 . S
C274 C269 1.429 . S
C274 C273 1.347 . S
H275 C276 0.951 . S
C276 H275 0.951 . S
C276 C282 1.265 . S
H277 C282 0.950 . S
H278 C286 0.949 . S
H279 C287 0.950 . S
H280 C288 0.951 . S
H281 C289 0.951 1_545 S
C282 C276 1.265 . S
C282 H277 0.950 . S
C282 C283 1.478 . S
C283 C270 1.394 1_554 S
C283 C282 1.478 . S
C283 C284 1.397 1_545 S
C284 C283 1.397 1_565 S
C284 C285 1.438 . S
C284 C289 1.429 . S
C285 C268 1.394 1_554 S
C285 C284 1.438 . S
C285 C286 1.428 . S
C286 H278 0.949 . S
C286 C285 1.428 . S
C286 C287 1.345 . S
C287 H279 0.950 . S
C287 C286 1.345 . S
C287 C288 1.424 . S
C288 H280 0.951 . S
C288 C287 1.424 . S
C288 C289 1.347 . S
C289 H281 0.951 1_565 S
C289 C284 1.429 . S
C289 C288 1.347 . S
H290 C291 0.951 . S
C291 H290 0.951 . S
C291 C297 1.265 . S
H292 C297 0.950 . S
H293 C301 0.949 . S
H294 C302 0.950 . S
H295 C303 0.951 . S
H296 C304 0.951 . S
C297 C291 1.265 . S
C297 H292 0.950 . S
C297 C298 1.478 . S
C298 C297 1.478 . S
C298 C299 1.397 1_565 S
C298 C315 1.394 . S
C299 C298 1.397 1_545 S
C299 C300 1.438 . S
C299 C304 1.429 . S
C300 C299 1.438 . S
C300 C301 1.428 . S
C300 C313 1.394 . S
C301 H293 0.949 . S
C301 C300 1.428 . S
C301 C302 1.345 . S
C302 H294 0.950 . S
C302 C301 1.345 . S
C302 C303 1.424 . S
C303 H295 0.951 . S
C303 C302 1.424 . S
C303 C304 1.347 . S
C304 H296 0.951 . S
C304 C299 1.429 . S
C304 C303 1.347 . S
H305 C306 0.951 . S
C306 H305 0.951 . S
C306 C312 1.265 . S
H307 C312 0.950 1_455 S
H308 C316 0.949 . S
H309 C317 0.950 . S
H310 C318 0.951 . S
H311 C319 0.951 . S
C312 C306 1.265 . S
C312 H307 0.950 1_655 S
C312 C313 1.478 . S
C313 C300 1.394 . S
C313 C312 1.478 . S
C313 C314 1.397 . S
C314 C313 1.397 . S
C314 C315 1.438 1_545 S
C314 C319 1.429 . S
C315 C298 1.394 . S
C315 C314 1.438 1_565 S
C315 C316 1.428 . S
C316 H308 0.949 . S
C316 C315 1.428 . S
C316 C317 1.345 . S
C317 H309 0.950 . S
C317 C316 1.345 . S
C317 C318 1.424 . S
C318 H310 0.951 . S
C318 C317 1.424 . S
C318 C319 1.347 1_565 S
C319 H311 0.951 . S
C319 C314 1.429 . S
C319 C318 1.347 1_545 S
H320 C321 0.979 . S
C321 H320 0.979 . S
C321 C327 1.246 1_655 S
H322 C327 0.950 . S
H323 C331 0.949 . S
H324 C332 0.950 . S
H325 C333 0.951 . S
H326 C334 0.951 1_554 S
C327 C321 1.246 1_455 S
C327 H322 0.950 . S
C327 C328 1.478 1_554 S
C328 C327 1.478 1_556 S
C328 C329 1.397 . S
C328 C345 1.394 1_455 S
C329 C328 1.397 . S
C329 C330 1.438 . S
C329 C334 1.429 . S
C330 C329 1.438 . S
C330 C331 1.428 . S
C330 C343 1.394 1_455 S
C331 H323 0.949 . S
C331 C330 1.428 . S
C331 C332 1.345 . S
C332 H324 0.950 . S
C332 C331 1.345 . S
C332 C333 1.424 . S
C333 H325 0.951 . S
C333 C332 1.424 . S
C333 C334 1.347 . S
C334 H326 0.951 1_556 S
C334 C329 1.429 . S
C334 C333 1.347 . S
H335 C336 0.951 . S
C336 H335 0.951 . S
C336 C342 1.265 1_455 S
H337 C342 0.950 . S
H338 C346 0.949 1_554 S
H339 C347 0.950 1_554 S
H340 C348 0.951 . S
H341 C349 0.951 . S
C342 C336 1.265 1_655 S
C342 H337 0.950 . S
C342 C343 1.478 . S
C343 C330 1.394 1_655 S
C343 C342 1.478 . S
C343 C344 1.397 . S
C344 C343 1.397 . S
C344 C345 1.438 . S
C344 C349 1.429 . S
C345 C328 1.394 1_655 S
C345 C344 1.438 . S
C345 C346 1.428 . S
C346 H338 0.949 1_556 S
C346 C345 1.428 . S
C346 C347 1.345 . S
C347 H339 0.950 1_556 S
C347 C346 1.345 . S
C347 C348 1.424 . S
C348 H340 0.951 . S
C348 C347 1.424 . S
C348 C349 1.347 . S
C349 H341 0.951 . S
C349 C344 1.429 . S
C349 C348 1.347 . S
H350 C351 0.951 . S
C351 H350 0.951 . S
C351 C357 1.265 1_655 S
H352 C357 0.950 . S
H353 C361 0.949 . S
H354 C362 0.950 . S
H355 C363 0.951 . S
H356 C364 0.951 1_556 S
C357 C351 1.265 1_455 S
C357 H352 0.950 . S
C357 C358 1.478 1_556 S
C358 C357 1.478 1_554 S
C358 C359 1.397 . S
C358 C375 1.394 1_455 S
C359 C358 1.397 . S
C359 C360 1.438 . S
C359 C364 1.429 . S
C360 C359 1.438 . S
C360 C361 1.428 . S
C360 C373 1.394 1_455 S
C361 H353 0.949 . S
C361 C360 1.428 . S
C361 C362 1.345 . S
C362 H354 0.950 . S
C362 C361 1.345 . S
C362 C363 1.424 . S
C363 H355 0.951 . S
C363 C362 1.424 . S
C363 C364 1.347 . S
C364 H356 0.951 1_554 S
C364 C359 1.429 . S
C364 C363 1.347 . S
H365 C366 0.951 . S
C366 H365 0.951 . S
C366 C372 1.265 1_455 S
H367 C372 0.950 . S
H368 C376 0.949 1_556 S
H369 C377 0.950 1_556 S
H370 C378 0.951 . S
H371 C379 0.951 . S
C372 C366 1.265 1_655 S
C372 H367 0.950 . S
C372 C373 1.478 . S
C373 C360 1.394 1_655 S
C373 C372 1.478 . S
C373 C374 1.397 . S
C374 C373 1.397 . S
C374 C375 1.438 . S
C374 C379 1.429 . S
C375 C358 1.394 1_655 S
C375 C374 1.438 . S
C375 C376 1.428 . S
C376 H368 0.949 1_554 S
C376 C375 1.428 . S
C376 C377 1.345 . S
C377 H369 0.950 1_554 S
C377 C376 1.345 . S
C377 C378 1.424 . S
C378 H370 0.951 . S
C378 C377 1.424 . S
C378 C379 1.347 . S
C379 H371 0.951 . S
C379 C374 1.429 . S
C379 C378 1.347 . S
H380 C381 0.951 . S
C381 H380 0.951 . S
C381 C387 1.265 . S
H382 C387 0.950 . S
H383 C391 0.949 . S
H384 C392 0.950 . S
H385 C393 0.951 . S
H386 C394 0.951 . S
C387 C381 1.265 . S
C387 H382 0.950 . S
C387 C388 1.478 . S
C388 C387 1.478 . S
C388 C389 1.397 . S
C388 C405 1.394 . S
C389 C388 1.397 . S
C389 C390 1.438 . S
C389 C394 1.429 . S
C390 C389 1.438 . S
C390 C391 1.428 . S
C390 C403 1.394 . S
C391 H383 0.949 . S
C391 C390 1.428 . S
C391 C392 1.345 . S
C392 H384 0.950 . S
C392 C391 1.345 . S
C392 C393 1.424 . S
C393 H385 0.951 . S
C393 C392 1.424 . S
C393 C394 1.347 . S
C394 H386 0.951 . S
C394 C389 1.429 . S
C394 C393 1.347 . S
H395 C396 0.951 . S
C396 H395 0.951 . S
C396 C402 1.265 . S
H397 C402 0.950 . S
H398 C406 0.949 . S
H399 C407 0.950 . S
H400 C408 0.951 . S
H401 C409 0.951 . S
C402 C396 1.265 . S
C402 H397 0.950 . S
C402 C403 1.478 . S
C403 C390 1.394 . S
C403 C402 1.478 . S
C403 C404 1.397 . S
C404 C403 1.397 . S
C404 C405 1.438 . S
C404 C409 1.429 . S
C405 C388 1.394 . S
C405 C404 1.438 . S
C405 C406 1.428 . S
C406 H398 0.949 . S
C406 C405 1.428 . S
C406 C407 1.345 . S
C407 H399 0.950 . S
C407 C406 1.345 . S
C407 C408 1.424 . S
C408 H400 0.951 . S
C408 C407 1.424 . S
C408 C409 1.347 . S
C409 H401 0.951 . S
C409 C404 1.429 . S
C409 C408 1.347 . S
H410 C411 0.951 . S
C411 H410 0.951 . S
C411 C417 1.265 . S
H412 C417 0.950 . S
H413 C421 0.949 . S
H414 C422 0.950 . S
H415 C423 0.951 . S
H416 C424 0.951 . S
C417 C411 1.265 . S
C417 H412 0.950 . S
C417 C418 1.478 . S
C418 C417 1.478 . S
C418 C419 1.397 . S
C418 C435 1.394 . S
C419 C418 1.397 . S
C419 C420 1.438 . S
C419 C424 1.429 . S
C420 C419 1.438 . S
C420 C421 1.428 . S
C420 C433 1.394 . S
C421 H413 0.949 . S
C421 C420 1.428 . S
C421 C422 1.345 . S
C422 H414 0.950 . S
C422 C421 1.345 . S
C422 C423 1.424 . S
C423 H415 0.951 . S
C423 C422 1.424 . S
C423 C424 1.347 . S
C424 H416 0.951 . S
C424 C419 1.429 . S
C424 C423 1.347 . S
H425 C426 0.951 . S
C426 H425 0.951 . S
C426 C432 1.265 . S
H427 C432 0.950 . S
H428 C436 0.949 . S
H429 C437 0.950 . S
H430 C438 0.951 . S
H431 C439 0.951 . S
C432 C426 1.265 . S
C432 H427 0.950 . S
C432 C433 1.478 . S
C433 C420 1.394 . S
C433 C432 1.478 . S
C433 C434 1.397 . S
C434 C433 1.397 . S
C434 C435 1.438 . S
C434 C439 1.429 . S
C435 C418 1.394 . S
C435 C434 1.438 . S
C435 C436 1.428 . S
C436 H428 0.949 . S
C436 C435 1.428 . S
C436 C437 1.345 . S
C437 H429 0.950 . S
C437 C436 1.345 . S
C437 C438 1.424 . S
C438 H430 0.951 . S
C438 C437 1.424 . S
C438 C439 1.347 . S
C439 H431 0.951 . S
C439 C434 1.429 . S
C439 C438 1.347 . S
C81 C18 1.779 . S
C96 C21 1.678 . S
C111 C42 1.838 . S
C126 C38 1.844 . S
C141 C62 1.918 . S
C156 C59 1.933 . S
C171 C1 1.831 . S
C186 C79 1.886 . S
C201 C78 1.769 . S
C216 C2 1.803 . S
C231 C41 1.742 . S
C246 C39 1.892 . S
C261 C58 1.723 . S
C276 C61 1.754 . S
C291 C22 1.835 . S
C306 C19 1.964 . S
C321 C9 0.806 . S
C336 C8 0.799 . S
C351 C28 0.896 1_655 S
C366 C29 0.896 1_455 S
C381 C48 0.942 . S
C396 C49 0.942 . S
C411 C68 0.858 . S
C426 C69 0.858 . S
