# Generated by pormake.
# Topology uni, (4)-cn, num edge types: 1
# Building blocks:
#     Node 0, Type 0, BuildingBlock: QUQFOY_clean_sbu_3, # of connection points: 4
#     Node 1, Type 0, BuildingBlock: QUQFOY_clean_sbu_3, # of connection points: 4
#     Node 2, Type 0, BuildingBlock: QUQFOY_clean_sbu_3, # of connection points: 4
#     Node 3, Type 0, BuildingBlock: QUQFOY_clean_sbu_3, # of connection points: 4
#     Node 4, Type 0, BuildingBlock: QUQFOY_clean_sbu_3, # of connection points: 4
#     Node 5, Type 0, BuildingBlock: QUQFOY_clean_sbu_3, # of connection points: 4
#     Edge 6, Type (0, 0), BuildingBlock: EZIPEK_clean_linker_0, # of connection points: 2
#     Edge 7, Type (0, 0), BuildingBlock: EZIPEK_clean_linker_0, # of connection points: 2
#     Edge 8, Type (0, 0), BuildingBlock: EZIPEK_clean_linker_0, # of connection points: 2
#     Edge 9, Type (0, 0), BuildingBlock: EZIPEK_clean_linker_0, # of connection points: 2
#     Edge 10, Type (0, 0), BuildingBlock: EZIPEK_clean_linker_0, # of connection points: 2
#     Edge 11, Type (0, 0), BuildingBlock: EZIPEK_clean_linker_0, # of connection points: 2
#     Edge 12, Type (0, 0), BuildingBlock: EZIPEK_clean_linker_0, # of connection points: 2
#     Edge 13, Type (0, 0), BuildingBlock: EZIPEK_clean_linker_0, # of connection points: 2
#     Edge 14, Type (0, 0), BuildingBlock: EZIPEK_clean_linker_0, # of connection points: 2
#     Edge 15, Type (0, 0), BuildingBlock: EZIPEK_clean_linker_0, # of connection points: 2
#     Edge 16, Type (0, 0), BuildingBlock: EZIPEK_clean_linker_0, # of connection points: 2
#     Edge 17, Type (0, 0), BuildingBlock: EZIPEK_clean_linker_0, # of connection points: 2
# Relax obj value: 0.065
# Max RMSD: 0.098
# Mean RMSD: 0.088
data_MOF--net-uni--node1-QUQFOY_clean_sbu_3--edge1-EZIPEK_clean_linker_0
_symmetry_space_group_name_H-M    P1
_symmetry_Int_Tables_number       1
_symmetry_cell_setting            triclinic
loop_
_symmetry_equiv_pos_as_xyz
'x, y, z'
_cell_length_a     30.520355
_cell_length_b     31.321168
_cell_length_c     17.583616
_cell_angle_alpha  89.828199
_cell_angle_beta   89.880528
_cell_angle_gamma 120.32113
loop_
_atom_site_label
_atom_site_type_symbol
_atom_site_fract_x
_atom_site_fract_y
_atom_site_fract_z
_atom_type_partial_charge
C0 C 0.71369 0.12102 0.06794 0.0
O1 O 0.68747 0.13773 0.09773 0.0
Cd2 Cd 0.6022 0.09046 0.14407 0.0
O3 O 0.69631 0.07463 0.06206 0.0
Cd4 Cd 0.61494 -0.0017 0.09629 0.0
C5 C 0.54636 0.02878 0.98015 0.0
O6 O 0.59693 0.02424 0.21768 0.0
O7 O 0.53534 0.95842 0.16757 0.0
O8 O 0.65927 0.95588 0.14069 0.0
C9 C 0.55213 -0.01222 0.22337 0.0
O10 O 0.5492 0.05858 0.03159 0.0
C11 C 0.63298 0.91723 0.10138 0.0
O12 O 0.57014 0.00517 -0.01405 0.0
O13 O 0.60067 0.91756 0.05634 0.0
C14 C 0.70282 0.60553 0.19994 0.0
O15 O 0.681 0.56409 0.16633 0.0
Cd16 Cd 0.60045 0.52687 0.10483 0.0
O17 O 0.68402 0.63383 0.19915 0.0
Cd18 Cd 0.60709 0.63105 0.14373 0.0
C19 C 0.53244 0.53223 0.2571 0.0
O20 O 0.60043 0.58815 0.02454 0.0
O21 O 0.53477 0.5926 0.05789 0.0
O22 O 0.65612 0.71801 0.10315 0.0
C23 C 0.55634 0.57989 0.00873 0.0
O24 O 0.54177 0.50626 0.21153 0.0
C25 C 0.62697 0.73049 0.13533 0.0
O26 O 0.55266 0.57884 0.24801 0.0
O27 O 0.59011 0.69744 0.17387 0.0
C28 C 0.85852 0.60042 0.36893 0.0
O29 O 0.83751 0.55795 0.39989 0.0
Cd30 Cd 0.88155 0.52055 0.45635 0.0
O31 O 0.90648 0.62888 0.37055 0.0
Cd32 Cd -0.02112 0.62416 0.42525 0.0
C33 C 0.95746 0.53321 0.30374 0.0
O34 O 0.94396 0.57587 0.54292 0.0
O35 O 0.01203 0.58055 0.49687 0.0
O36 O 0.01434 0.7064 0.48043 0.0
C37 C -0.01978 0.5674 0.55086 0.0
O38 O 0.9228 0.50483 0.35032 0.0
C39 C 0.05876 0.72223 0.45431 0.0
O40 O -0.01802 0.57998 0.31272 0.0
O41 O 0.06498 0.69406 0.40926 0.0
C42 C 0.24792 0.88014 0.56112 0.0
O43 O 0.26996 0.85895 0.59018 0.0
Cd44 Cd 0.35512 0.90103 0.63326 0.0
O45 O 0.27015 0.92713 0.55683 0.0
Cd46 Cd 0.3558 -0.00403 0.59587 0.0
C47 C 0.41939 0.96345 0.47505 0.0
O48 O 0.37081 0.96687 0.71857 0.0
O49 O 0.43655 0.02475 0.66056 0.0
O50 O 0.32397 0.04707 0.65144 0.0
C51 C 0.41766 -0.00071 0.72045 0.0
O52 O 0.41089 0.92969 0.52314 0.0
C53 C 0.34813 0.08325 0.60615 0.0
O54 O 0.40059 -0.00868 0.48371 0.0
O55 O 0.37442 0.07827 0.55465 0.0
C56 C 0.25944 0.38203 0.70207 0.0
O57 O 0.28032 0.42407 0.66965 0.0
Cd58 Cd 0.36087 0.46556 0.607 0.0
O59 O 0.27994 0.35521 0.70079 0.0
Cd60 Cd 0.3603 0.36436 0.64703 0.0
C61 C 0.4319 0.46525 0.75745 0.0
O62 O 0.36511 0.40653 0.5273 0.0
O63 O 0.43325 0.40721 0.56193 0.0
O64 O 0.32245 0.27902 0.60095 0.0
C65 C 0.41023 0.41763 0.51194 0.0
O66 O 0.42121 0.49013 0.71151 0.0
C67 C 0.35012 0.26845 0.64146 0.0
O68 O 0.413 0.41875 0.74975 0.0
O69 O 0.38083 0.3016 0.68664 0.0
C70 C 0.10487 0.38936 0.86676 0.0
O71 O 0.1283 0.43201 0.8962 0.0
Cd72 Cd 0.08586 0.47193 0.94783 0.0
O73 O 0.05664 0.36374 0.86932 0.0
Cd74 Cd -0.01049 0.37715 0.92561 0.0
C75 C 0.01076 0.46478 0.79927 0.0
O76 O 0.02442 0.42461 0.04423 0.0
O77 O -0.03442 0.43147 -0.01253 0.0
O78 O 0.9478 0.29679 -0.01033 0.0
C79 C -0.00821 0.43838 0.04678 0.0
O80 O 0.04772 0.49239 0.84249 0.0
C81 C 0.90433 0.28256 0.96156 0.0
O82 O -0.01612 0.41844 0.81155 0.0
O83 O 0.90104 0.31078 0.91279 0.0
C84 C 0.534 -0.01851 0.36323 0.0
C85 C 0.51878 -0.01672 0.28773 0.0
C86 C 0.43681 0.96917 0.3346 0.0
C87 C 0.45384 0.97176 0.41031 0.0
N88 N 0.52305 -0.00792 0.49677 0.0
N89 N 0.4608 -0.00929 0.20274 0.0
C90 C 0.50375 -0.01869 0.42473 0.0
C91 C 0.47159 -0.0195 0.27361 0.0
N92 N 0.57614 0.97786 0.37635 0.0
N93 N 0.38702 0.954 0.3206 0.0
H94 H 0.48601 0.00101 0.15704 0.0
H95 H 0.42919 -0.00594 0.19127 0.0
H96 H 0.36006 0.94456 0.36365 0.0
H97 H 0.37147 0.94635 0.26622 0.0
H98 H 0.58576 0.97102 0.43 0.0
H99 H 0.59893 0.97692 0.33285 0.0
H100 H 0.56093 0.00427 0.50906 0.0
H101 H 0.50271 -0.00615 0.54322 0.0
C102 C 0.44926 0.46567 0.30946 0.0
C103 C 0.4982 0.50715 0.32264 0.0
C104 C 0.48251 0.49609 0.45976 0.0
C105 C 0.43806 0.44989 0.44649 0.0
N106 N 0.38074 0.38807 0.35829 0.0
N107 N 0.56435 0.55841 0.41161 0.0
C108 C 0.42153 0.43405 0.37118 0.0
C109 C 0.51557 0.52179 0.39815 0.0
N110 N 0.42868 0.45741 0.23834 0.0
N111 N 0.49227 0.51627 0.53082 0.0
H112 H 0.59028 0.57802 0.36847 0.0
H113 H 0.58043 0.56635 0.46565 0.0
H114 H 0.46751 0.49943 0.57647 0.0
H115 H 0.52162 0.552 0.54231 0.0
H116 H 0.39136 0.4304 0.2266 0.0
H117 H 0.44718 0.48118 0.19271 0.0
H118 H 0.37056 0.3725 0.30435 0.0
H119 H 0.35941 0.36376 0.40198 0.0
C120 C -0.00187 0.47285 0.65991 0.0
C121 C -0.00204 0.4877 0.73595 0.0
C122 C -0.01508 0.55462 0.69103 0.0
C123 C -0.01777 0.538 0.61533 0.0
N124 N -0.02727 0.47369 0.52988 0.0
N125 N -0.02164 0.53427 0.82505 0.0
C126 C -0.01527 0.49476 0.60038 0.0
C127 C -0.01255 0.52607 0.7519 0.0
N128 N 0.01343 0.43966 0.64395 0.0
N129 N -0.01241 0.59881 0.70481 0.0
H130 H -0.02139 0.51328 0.87107 0.0
H131 H -0.03449 0.55838 0.83912 0.0
H132 H -0.01383 0.62112 0.66193 0.0
H133 H -0.00443 0.61538 0.75817 0.0
H134 H 0.01973 0.4318 0.58883 0.0
H135 H 0.02425 0.42319 0.68575 0.0
H136 H -0.03085 0.43953 0.51781 0.0
H137 H -0.03901 0.48771 0.48551 0.0
C138 C 0.47562 0.97238 0.89308 0.0
C139 C 0.51383 0.02091 0.91319 0.0
C140 C 0.48331 0.05484 0.81472 0.0
C141 C 0.4498 0.00627 0.78792 0.0
N142 N 0.42365 0.91933 0.79196 0.0
N143 N 0.56121 0.10798 0.88186 0.0
C144 C 0.44846 0.96507 0.82442 0.0
C145 C 0.51979 0.06213 0.87078 0.0
N146 N 0.46368 0.93338 0.94068 0.0
N147 N 0.47902 0.09387 0.78932 0.0
H148 H 0.5899 0.11463 0.9204 0.0
H149 H 0.56974 0.13823 0.84708 0.0
H150 H 0.45111 0.08997 0.7512 0.0
H151 H 0.49946 0.12916 0.81257 0.0
H152 H 0.43257 0.89816 0.9319 0.0
H153 H 0.4813 0.93717 -0.007 0.0
H154 H 0.42592 0.88933 0.81283 0.0
H155 H 0.4058 0.91268 0.73952 0.0
C156 C 0.4816 0.50296 0.95883 0.0
C157 C 0.52735 0.54796 0.94421 0.0
C158 C 0.51557 0.53163 0.80757 0.0
C159 C 0.46605 0.49121 0.82203 0.0
N160 N 0.39888 0.44242 0.91191 0.0
N161 N 0.58618 0.60815 0.85445 0.0
C162 C 0.44826 0.47767 0.89783 0.0
C163 C 0.54416 0.56304 0.86848 0.0
N164 N 0.47085 0.48345 0.03063 0.0
N165 N 0.53586 0.53901 0.73611 0.0
H166 H 0.6082 0.63218 0.89757 0.0
H167 H 0.59687 0.6234 0.80016 0.0
H168 H 0.51659 0.51548 0.69097 0.0
H169 H 0.57347 0.56504 0.72349 0.0
H170 H 0.44041 0.44838 0.04321 0.0
H171 H 0.49558 0.49996 0.07606 0.0
H172 H 0.38262 0.43524 0.966 0.0
H173 H 0.37278 0.42339 0.86899 0.0
C174 C 0.93418 0.44719 0.1386 0.0
C175 C -0.01561 0.46229 0.11447 0.0
C176 C 0.01762 0.52137 0.21976 0.0
C177 C -0.03239 0.51079 0.23686 0.0
N178 N 0.8798 0.47253 0.19849 0.0
N179 N 0.07419 0.52215 0.12271 0.0
C180 C 0.92628 0.47629 0.19216 0.0
C181 C 0.02635 0.5017 0.15243 0.0
N182 N 0.894 0.40396 0.11299 0.0
N183 N 0.05648 0.54844 0.26896 0.0
H184 H 0.08224 0.51059 0.07181 0.0
H185 H 0.10502 0.55411 0.14444 0.0
H186 H 0.05157 0.56228 0.32011 0.0
H187 H 0.09248 0.55281 0.26261 0.0
H188 H 0.85734 0.38932 0.1347 0.0
H189 H 0.89807 0.37986 0.07684 0.0
H190 H 0.84983 0.45109 0.1619 0.0
H191 H 0.87292 0.49507 0.2342 0.0
C192 C 0.6366 0.80088 0.05301 0.0
C193 C 0.6343 0.78089 0.12661 0.0
C194 C 0.6309 0.85037 0.18406 0.0
C195 C 0.63717 0.87229 0.11093 0.0
N196 N 0.65826 0.8741 0.97829 0.0
N197 N 0.64231 0.79303 0.26237 0.0
C198 C 0.64385 0.84928 0.04613 0.0
C199 C 0.63553 0.80768 0.19223 0.0
N200 N 0.62886 0.77278 -0.01037 0.0
N201 N 0.61742 0.86826 0.24513 0.0
H202 H 0.64711 0.76263 0.27042 0.0
H203 H 0.64856 0.81402 0.3113 0.0
H204 H 0.61157 0.89823 0.24183 0.0
H205 H 0.60702 0.85024 0.29761 0.0
H206 H 0.62463 0.78371 0.93543 0.0
H207 H 0.62169 0.73655 -0.00839 0.0
H208 H 0.6686 0.8611 0.93106 0.0
H209 H 0.66498 0.91003 0.97155 0.0
C210 C 0.82811 0.6159 0.24509 0.0
C211 C 0.82642 0.61486 0.32582 0.0
C212 C 0.74856 0.61928 0.32435 0.0
C213 C 0.74947 0.61889 0.24356 0.0
N214 N 0.79659 0.63149 0.1278 0.0
N215 N 0.79417 0.62903 0.44205 0.0
C216 C 0.79164 0.62221 0.20426 0.0
C217 C 0.7896 0.62113 0.36534 0.0
N218 N 0.86234 0.60762 0.20736 0.0
N219 N 0.70715 0.61468 0.36192 0.0
H220 H 0.82407 0.63069 0.4732 0.0
H221 H 0.77136 0.63849 0.47342 0.0
H222 H 0.67702 0.61463 0.33424 0.0
H223 H 0.70125 0.60819 0.42017 0.0
H224 H 0.8613 0.60189 0.14894 0.0
H225 H 0.88997 0.60312 0.2349 0.0
H226 H 0.82874 0.63886 0.09667 0.0
H227 H 0.77043 0.63668 0.09694 0.0
C228 C 0.13651 0.80479 0.42937 0.0
C229 C 0.1028 0.76871 0.4822 0.0
C230 C 0.15775 0.81806 0.58688 0.0
C231 C 0.19541 0.84868 0.53354 0.0
N232 N 0.22242 0.87106 0.40329 0.0
N233 N 0.08481 0.73767 0.6118 0.0
C234 C 0.18508 0.8426 0.45445 0.0
C235 C 0.11378 0.77478 0.56136 0.0
N236 N 0.12176 0.80316 0.35561 0.0
N237 N 0.16434 0.83035 0.66218 0.0
H238 H 0.05348 0.70409 0.59618 0.0
H239 H 0.09476 0.73816 0.66856 0.0
H240 H 0.19628 0.86215 0.68226 0.0
H241 H 0.13603 0.81208 0.70303 0.0
H242 H 0.14268 0.83091 0.31592 0.0
H243 H 0.08613 0.77624 0.33603 0.0
H244 H 0.21919 0.86437 0.34502 0.0
H245 H 0.25803 0.89976 0.41956 0.0
C246 C 0.30245 0.17515 0.63744 0.0
C247 C 0.34907 0.22074 0.63294 0.0
C248 C 0.39493 0.17557 0.62063 0.0
C249 C 0.34808 0.13035 0.61561 0.0
N250 N 0.25676 0.08813 0.60521 0.0
N251 N 0.43858 0.26404 0.60164 0.0
C252 C 0.3016 0.13035 0.62022 0.0
C253 C 0.39506 0.22092 0.61937 0.0
N254 N 0.25932 0.1743 0.66102 0.0
N255 N 0.43931 0.1754 0.63 0.0
H256 H 0.44017 0.29795 0.59649 0.0
H257 H 0.47174 0.26519 0.58377 0.0
H258 H 0.44098 0.14306 0.63445 0.0
H259 H 0.47374 0.20727 0.64175 0.0
H260 H 0.22549 0.14169 0.67281 0.0
H261 H 0.2586 0.2061 0.67616 0.0
H262 H 0.22235 0.08732 0.60007 0.0
H263 H 0.25457 0.05489 0.59043 0.0
C264 C 0.17127 0.36534 0.86606 0.0
C265 C 0.13474 0.37139 0.82544 0.0
C266 C 0.16953 0.36181 0.70522 0.0
C267 C 0.21192 0.36644 0.74514 0.0
N268 N 0.25352 0.37118 0.86402 0.0
N269 N 0.09793 0.37509 0.70586 0.0
C270 C 0.21239 0.36657 0.82589 0.0
C271 C 0.13268 0.36832 0.74483 0.0
N272 N 0.16641 0.35847 0.94308 0.0
N273 N 0.16499 0.35148 0.62924 0.0
H274 H 0.0698 0.37923 0.73255 0.0
H275 H 0.09867 0.37949 0.64708 0.0
H276 H 0.19159 0.34629 0.59954 0.0
H277 H 0.13288 0.34333 0.59767 0.0
H278 H 0.1891 0.34949 0.97563 0.0
H279 H 0.13629 0.35713 0.97341 0.0
H280 H 0.25921 0.37812 0.92209 0.0
H281 H 0.28347 0.3704 0.83692 0.0
C282 C 0.82609 0.2004 0.93743 0.0
C283 C 0.8585 0.23736 -0.01041 0.0
C284 C 0.80143 0.18955 0.09437 0.0
C285 C 0.76556 0.15689 0.04102 0.0
N286 N 0.74112 0.13314 0.91061 0.0
N287 N 0.87324 0.27094 0.11698 0.0
C288 C 0.77731 0.16242 0.96216 0.0
C289 C 0.84553 0.23277 0.0681 0.0
N290 N 0.84241 0.20101 0.86478 0.0
N291 N 0.79355 0.17885 0.17034 0.0
H292 H 0.90516 0.30405 0.10055 0.0
H293 H 0.86184 0.27172 0.17258 0.0
H294 H 0.76177 0.14712 0.19144 0.0
H295 H 0.82081 0.19861 0.21154 0.0
H296 H 0.8226 0.17244 0.82625 0.0
H297 H 0.8782 0.22794 0.84524 0.0
H298 H 0.74548 0.1393 0.85213 0.0
H299 H 0.7051 0.10471 0.92638 0.0
loop_
_geom_bond_atom_site_label_1
_geom_bond_atom_site_label_2
_geom_bond_distance
_geom_bond_site_symmetry_2
_ccdc_geom_bond_type
C0 O1 1.306 . S
C0 O3 1.160 . S
O1 C0 1.306 . S
O1 Cd2 2.228 . S
Cd2 O1 2.228 . S
Cd2 O6 2.273 . S
Cd2 O10 2.277 1_554 S
O3 C0 1.160 . S
O3 Cd4 2.203 . S
Cd4 O3 2.203 . S
Cd4 O6 2.411 . S
Cd4 O7 2.333 1_545 S
Cd4 O8 2.352 1_545 S
Cd4 O12 2.277 1_544 S
Cd4 O13 2.356 1_545 S
C5 O10 1.209 . S
C5 O12 1.226 1_545 S
O6 Cd2 2.273 . S
O6 Cd4 2.411 . S
O6 C9 1.320 . S
O7 Cd4 2.333 1_565 S
O7 C9 1.214 1_565 S
O8 Cd4 2.352 1_565 S
O8 C11 1.258 . S
C9 O6 1.320 . S
C9 O7 1.214 1_545 S
O10 Cd2 2.277 1_556 S
O10 C5 1.209 . S
C11 O8 1.258 . S
C11 O13 1.282 . S
O12 Cd4 2.277 1_566 S
O12 C5 1.226 1_565 S
O13 Cd4 2.356 1_565 S
O13 C11 1.282 . S
C14 O15 1.306 . S
C14 O17 1.160 . S
O15 C14 1.306 . S
O15 Cd16 2.228 . S
Cd16 O15 2.228 . S
Cd16 O20 2.273 . S
Cd16 O24 2.277 . S
O17 C14 1.160 . S
O17 Cd18 2.203 . S
Cd18 O17 2.203 . S
Cd18 O20 2.411 . S
Cd18 O21 2.333 . S
Cd18 O22 2.352 . S
Cd18 O26 2.277 . S
Cd18 O27 2.356 . S
C19 O24 1.209 . S
C19 O26 1.226 . S
O20 Cd16 2.273 . S
O20 Cd18 2.411 . S
O20 C23 1.320 . S
O21 Cd18 2.333 . S
O21 C23 1.214 . S
O22 Cd18 2.352 . S
O22 C25 1.258 . S
C23 O20 1.320 . S
C23 O21 1.214 . S
O24 Cd16 2.277 . S
O24 C19 1.209 . S
C25 O22 1.258 . S
C25 O27 1.282 . S
O26 Cd18 2.277 . S
O26 C19 1.226 . S
O27 Cd18 2.356 . S
O27 C25 1.282 . S
C28 O29 1.306 . S
C28 O31 1.160 . S
O29 C28 1.306 . S
O29 Cd30 2.228 . S
Cd30 O29 2.228 . S
Cd30 O34 2.273 . S
Cd30 O38 2.277 . S
O31 C28 1.160 . S
O31 Cd32 2.203 1_655 S
Cd32 O31 2.203 1_455 S
Cd32 O34 2.411 1_455 S
Cd32 O35 2.333 . S
Cd32 O36 2.352 . S
Cd32 O40 2.277 . S
Cd32 O41 2.356 . S
C33 O38 1.209 1_455 S
C33 O40 1.226 . S
O34 Cd30 2.273 . S
O34 Cd32 2.411 1_655 S
O34 C37 1.320 1_655 S
O35 Cd32 2.333 . S
O35 C37 1.214 . S
O36 Cd32 2.352 . S
O36 C39 1.258 . S
C37 O34 1.320 1_455 S
C37 O35 1.214 . S
O38 Cd30 2.277 . S
O38 C33 1.209 1_655 S
C39 O36 1.258 . S
C39 O41 1.282 . S
O40 Cd32 2.277 . S
O40 C33 1.226 . S
O41 Cd32 2.356 . S
O41 C39 1.282 . S
C42 O43 1.306 . S
C42 O45 1.160 . S
O43 C42 1.306 . S
O43 Cd44 2.228 . S
Cd44 O43 2.228 . S
Cd44 O48 2.273 . S
Cd44 O52 2.277 . S
O45 C42 1.160 . S
O45 Cd46 2.203 1_565 S
Cd46 O45 2.203 1_545 S
Cd46 O48 2.411 1_545 S
Cd46 O49 2.333 . S
Cd46 O50 2.352 . S
Cd46 O54 2.277 . S
Cd46 O55 2.356 . S
C47 O52 1.209 1_545 S
C47 O54 1.226 . S
O48 Cd44 2.273 . S
O48 Cd46 2.411 1_565 S
O48 C51 1.320 1_565 S
O49 Cd46 2.333 . S
O49 C51 1.214 . S
O50 Cd46 2.352 . S
O50 C53 1.258 . S
C51 O48 1.320 1_545 S
C51 O49 1.214 . S
O52 Cd44 2.277 . S
O52 C47 1.209 1_565 S
C53 O50 1.258 . S
C53 O55 1.282 . S
O54 Cd46 2.277 . S
O54 C47 1.226 . S
O55 Cd46 2.356 . S
O55 C53 1.282 . S
C56 O57 1.306 . S
C56 O59 1.160 . S
O57 C56 1.306 . S
O57 Cd58 2.228 . S
Cd58 O57 2.228 . S
Cd58 O62 2.273 . S
Cd58 O66 2.277 . S
O59 C56 1.160 . S
O59 Cd60 2.203 . S
Cd60 O59 2.203 . S
Cd60 O62 2.411 . S
Cd60 O63 2.333 . S
Cd60 O64 2.352 . S
Cd60 O68 2.277 . S
Cd60 O69 2.356 . S
C61 O66 1.209 . S
C61 O68 1.226 . S
O62 Cd58 2.273 . S
O62 Cd60 2.411 . S
O62 C65 1.320 . S
O63 Cd60 2.333 . S
O63 C65 1.214 . S
O64 Cd60 2.352 . S
O64 C67 1.258 . S
C65 O62 1.320 . S
C65 O63 1.214 . S
O66 Cd58 2.277 . S
O66 C61 1.209 . S
C67 O64 1.258 . S
C67 O69 1.282 . S
O68 Cd60 2.277 . S
O68 C61 1.226 . S
O69 Cd60 2.356 . S
O69 C67 1.282 . S
C70 O71 1.306 . S
C70 O73 1.160 . S
O71 C70 1.306 . S
O71 Cd72 2.228 . S
Cd72 O71 2.228 . S
Cd72 O76 2.273 . S
Cd72 O80 2.277 . S
O73 C70 1.160 . S
O73 Cd74 2.203 . S
Cd74 O73 2.203 . S
Cd74 O76 2.411 . S
Cd74 O77 2.333 1_455 S
Cd74 O78 2.352 1_455 S
Cd74 O82 2.277 1_455 S
Cd74 O83 2.356 1_455 S
C75 O80 1.209 . S
C75 O82 1.226 1_455 S
O76 Cd72 2.273 . S
O76 Cd74 2.411 . S
O76 C79 1.320 1_556 S
O77 Cd74 2.333 1_655 S
O77 C79 1.214 1_656 S
O78 Cd74 2.352 1_655 S
O78 C81 1.258 . S
C79 O76 1.320 1_554 S
C79 O77 1.214 1_454 S
O80 Cd72 2.277 . S
O80 C75 1.209 . S
C81 O78 1.258 . S
C81 O83 1.282 . S
O82 Cd74 2.277 1_655 S
O82 C75 1.226 1_655 S
O83 Cd74 2.356 1_655 S
O83 C81 1.282 . S
C84 C85 1.363 . S
C84 C90 1.379 . S
C84 N92 1.356 . S
C85 C84 1.363 . S
C85 C91 1.363 1_545 S
C86 C87 1.363 1_565 S
C86 C91 1.379 . S
C86 N93 1.356 . S
C87 C86 1.363 1_545 S
C87 C90 1.363 . S
N88 C90 1.356 . S
N88 H100 0.984 . S
N88 H101 0.985 . S
N89 C91 1.356 . S
N89 H94 0.984 . S
N89 H95 0.985 . S
C90 C84 1.379 . S
C90 C87 1.363 . S
C90 N88 1.356 . S
C91 C85 1.363 1_565 S
C91 C86 1.379 . S
C91 N89 1.356 . S
N92 C84 1.356 . S
N92 H98 0.984 . S
N92 H99 0.984 . S
N93 C86 1.356 . S
N93 H96 0.984 . S
N93 H97 0.985 . S
H94 N89 0.984 . S
H95 N89 0.985 . S
H96 N93 0.984 . S
H97 N93 0.985 . S
H98 N92 0.984 . S
H99 N92 0.984 . S
H100 N88 0.984 . S
H101 N88 0.985 . S
C102 C103 1.363 . S
C102 C108 1.379 . S
C102 N110 1.356 . S
C103 C102 1.363 . S
C103 C109 1.363 . S
C104 C105 1.363 . S
C104 C109 1.379 . S
C104 N111 1.356 . S
C105 C104 1.363 . S
C105 C108 1.363 . S
N106 C108 1.356 . S
N106 H118 0.984 . S
N106 H119 0.985 . S
N107 C109 1.356 . S
N107 H112 0.984 . S
N107 H113 0.985 . S
C108 C102 1.379 . S
C108 C105 1.363 . S
C108 N106 1.356 . S
C109 C103 1.363 . S
C109 C104 1.379 . S
C109 N107 1.356 . S
N110 C102 1.356 . S
N110 H116 0.984 . S
N110 H117 0.984 . S
N111 C104 1.356 . S
N111 H114 0.984 . S
N111 H115 0.985 . S
H112 N107 0.984 . S
H113 N107 0.985 . S
H114 N111 0.984 . S
H115 N111 0.985 . S
H116 N110 0.984 . S
H117 N110 0.984 . S
H118 N106 0.984 . S
H119 N106 0.985 . S
C120 C121 1.363 . S
C120 C126 1.379 . S
C120 N128 1.356 . S
C121 C120 1.363 . S
C121 C127 1.363 1_455 S
C122 C123 1.363 1_655 S
C122 C127 1.379 . S
C122 N129 1.356 . S
C123 C122 1.363 1_455 S
C123 C126 1.363 . S
N124 C126 1.356 . S
N124 H136 0.984 . S
N124 H137 0.985 . S
N125 C127 1.356 . S
N125 H130 0.984 . S
N125 H131 0.985 . S
C126 C120 1.379 . S
C126 C123 1.363 . S
C126 N124 1.356 . S
C127 C121 1.363 1_655 S
C127 C122 1.379 . S
C127 N125 1.356 . S
N128 C120 1.356 . S
N128 H134 0.984 . S
N128 H135 0.984 . S
N129 C122 1.356 . S
N129 H132 0.984 . S
N129 H133 0.985 . S
H130 N125 0.984 . S
H131 N125 0.985 . S
H132 N129 0.984 . S
H133 N129 0.985 . S
H134 N128 0.984 . S
H135 N128 0.984 . S
H136 N124 0.984 . S
H137 N124 0.985 . S
C138 C139 1.363 1_565 S
C138 C144 1.379 . S
C138 N146 1.356 . S
C139 C138 1.363 1_545 S
C139 C145 1.363 . S
C140 C141 1.363 . S
C140 C145 1.379 . S
C140 N147 1.356 . S
C141 C140 1.363 . S
C141 C144 1.363 1_545 S
N142 C144 1.356 . S
N142 H154 0.984 . S
N142 H155 0.985 . S
N143 C145 1.356 . S
N143 H148 0.984 . S
N143 H149 0.985 . S
C144 C138 1.379 . S
C144 C141 1.363 1_565 S
C144 N142 1.356 . S
C145 C139 1.363 . S
C145 C140 1.379 . S
C145 N143 1.356 . S
N146 C138 1.356 . S
N146 H152 0.984 . S
N146 H153 0.984 . S
N147 C140 1.356 . S
N147 H150 0.984 . S
N147 H151 0.985 . S
H148 N143 0.984 . S
H149 N143 0.985 . S
H150 N147 0.984 . S
H151 N147 0.985 . S
H152 N146 0.984 . S
H153 N146 0.984 . S
H154 N142 0.984 . S
H155 N142 0.985 . S
C156 C157 1.363 . S
C156 C162 1.379 1_554 S
C156 N164 1.356 . S
C157 C156 1.363 . S
C157 C163 1.368 . S
C158 C159 1.363 . S
C158 C163 1.374 1_556 S
C158 N165 1.356 . S
C159 C158 1.363 . S
C159 C162 1.363 . S
N160 C162 1.356 . S
N160 H172 0.984 1_556 S
N160 H173 0.985 . S
N161 C163 1.358 . S
N161 H166 0.984 . S
N161 H167 0.985 1_554 S
C162 C156 1.379 1_556 S
C162 C159 1.363 . S
C162 N160 1.356 . S
C163 C157 1.368 . S
C163 C158 1.374 1_554 S
C163 N161 1.358 . S
N164 C156 1.356 . S
N164 H170 0.984 . S
N164 H171 0.984 . S
N165 C158 1.356 . S
N165 H168 0.984 . S
N165 H169 0.985 . S
H166 N161 0.984 . S
H167 N161 0.985 1_556 S
H168 N165 0.984 . S
H169 N165 0.985 . S
H170 N164 0.984 . S
H171 N164 0.984 . S
H172 N160 0.984 1_554 S
H173 N160 0.985 . S
C174 C175 1.363 1_655 S
C174 C180 1.379 . S
C174 N182 1.356 . S
C175 C174 1.363 1_455 S
C175 C181 1.363 . S
C176 C177 1.363 . S
C176 C181 1.379 . S
C176 N183 1.356 . S
C177 C176 1.363 . S
C177 C180 1.363 1_455 S
N178 C180 1.356 . S
N178 H190 0.984 . S
N178 H191 0.985 . S
N179 C181 1.356 . S
N179 H184 0.984 1_554 S
N179 H185 0.985 . S
C180 C174 1.379 . S
C180 C177 1.363 1_655 S
C180 N178 1.356 . S
C181 C175 1.363 . S
C181 C176 1.379 . S
C181 N179 1.356 . S
N182 C174 1.356 . S
N182 H188 0.984 . S
N182 H189 0.984 . S
N183 C176 1.356 . S
N183 H186 0.984 . S
N183 H187 0.985 . S
H184 N179 0.984 1_556 S
H185 N179 0.985 . S
H186 N183 0.984 . S
H187 N183 0.985 . S
H188 N182 0.984 . S
H189 N182 0.984 . S
H190 N178 0.984 . S
H191 N178 0.985 . S
C192 C193 1.363 . S
C192 C198 1.379 . S
C192 N200 1.356 . S
C193 C192 1.363 . S
C193 C199 1.363 . S
C194 C195 1.363 . S
C194 C199 1.379 . S
C194 N201 1.356 . S
C195 C194 1.363 . S
C195 C198 1.363 . S
N196 C198 1.356 . S
N196 H208 0.984 1_554 S
N196 H209 0.985 . S
N197 C199 1.356 . S
N197 H202 0.984 . S
N197 H203 0.985 . S
C198 C192 1.379 . S
C198 C195 1.363 . S
C198 N196 1.356 . S
C199 C193 1.363 . S
C199 C194 1.379 . S
C199 N197 1.356 . S
N200 C192 1.356 . S
N200 H206 0.984 . S
N200 H207 0.984 . S
N201 C194 1.356 . S
N201 H204 0.984 . S
N201 H205 0.985 . S
H202 N197 0.984 . S
H203 N197 0.985 . S
H204 N201 0.984 . S
H205 N201 0.985 . S
H206 N200 0.984 . S
H207 N200 0.984 . S
H208 N196 0.984 1_556 S
H209 N196 0.985 . S
C210 C211 1.363 . S
C210 C216 1.379 . S
C210 N218 1.356 . S
C211 C210 1.363 . S
C211 C217 1.363 . S
C212 C213 1.363 . S
C212 C217 1.379 . S
C212 N219 1.356 . S
C213 C212 1.363 . S
C213 C216 1.363 . S
N214 C216 1.356 . S
N214 H226 0.984 . S
N214 H227 0.985 . S
N215 C217 1.356 . S
N215 H220 0.984 . S
N215 H221 0.985 . S
C216 C210 1.379 . S
C216 C213 1.363 . S
C216 N214 1.356 . S
C217 C211 1.363 . S
C217 C212 1.379 . S
C217 N215 1.356 . S
N218 C210 1.356 . S
N218 H224 0.984 . S
N218 H225 0.984 . S
N219 C212 1.356 . S
N219 H222 0.984 . S
N219 H223 0.985 . S
H220 N215 0.984 . S
H221 N215 0.985 . S
H222 N219 0.984 . S
H223 N219 0.985 . S
H224 N218 0.984 . S
H225 N218 0.984 . S
H226 N214 0.984 . S
H227 N214 0.985 . S
C228 C229 1.363 . S
C228 C234 1.379 . S
C228 N236 1.356 . S
C229 C228 1.363 . S
C229 C235 1.363 . S
C230 C231 1.363 . S
C230 C235 1.379 . S
C230 N237 1.356 . S
C231 C230 1.363 . S
C231 C234 1.363 . S
N232 C234 1.356 . S
N232 H244 0.984 . S
N232 H245 0.985 . S
N233 C235 1.356 . S
N233 H238 0.984 . S
N233 H239 0.985 . S
C234 C228 1.379 . S
C234 C231 1.363 . S
C234 N232 1.356 . S
C235 C229 1.363 . S
C235 C230 1.379 . S
C235 N233 1.356 . S
N236 C228 1.356 . S
N236 H242 0.984 . S
N236 H243 0.984 . S
N237 C230 1.356 . S
N237 H240 0.984 . S
N237 H241 0.985 . S
H238 N233 0.984 . S
H239 N233 0.985 . S
H240 N237 0.984 . S
H241 N237 0.985 . S
H242 N236 0.984 . S
H243 N236 0.984 . S
H244 N232 0.984 . S
H245 N232 0.985 . S
C246 C247 1.363 . S
C246 C252 1.379 . S
C246 N254 1.356 . S
C247 C246 1.363 . S
C247 C253 1.363 . S
C248 C249 1.363 . S
C248 C253 1.379 . S
C248 N255 1.356 . S
C249 C248 1.363 . S
C249 C252 1.363 . S
N250 C252 1.356 . S
N250 H262 0.984 . S
N250 H263 0.985 . S
N251 C253 1.356 . S
N251 H256 0.984 . S
N251 H257 0.985 . S
C252 C246 1.379 . S
C252 C249 1.363 . S
C252 N250 1.356 . S
C253 C247 1.363 . S
C253 C248 1.379 . S
C253 N251 1.356 . S
N254 C246 1.356 . S
N254 H260 0.984 . S
N254 H261 0.984 . S
N255 C248 1.356 . S
N255 H258 0.984 . S
N255 H259 0.985 . S
H256 N251 0.984 . S
H257 N251 0.985 . S
H258 N255 0.984 . S
H259 N255 0.985 . S
H260 N254 0.984 . S
H261 N254 0.984 . S
H262 N250 0.984 . S
H263 N250 0.985 . S
C264 C265 1.363 . S
C264 C270 1.379 . S
C264 N272 1.356 . S
C265 C264 1.363 . S
C265 C271 1.363 . S
C266 C267 1.363 . S
C266 C271 1.379 . S
C266 N273 1.356 . S
C267 C266 1.363 . S
C267 C270 1.363 . S
N268 C270 1.356 . S
N268 H280 0.984 . S
N268 H281 0.985 . S
N269 C271 1.356 . S
N269 H274 0.984 . S
N269 H275 0.985 . S
C270 C264 1.379 . S
C270 C267 1.363 . S
C270 N268 1.356 . S
C271 C265 1.363 . S
C271 C266 1.379 . S
C271 N269 1.356 . S
N272 C264 1.356 . S
N272 H278 0.984 . S
N272 H279 0.984 . S
N273 C266 1.356 . S
N273 H276 0.984 . S
N273 H277 0.985 . S
H274 N269 0.984 . S
H275 N269 0.985 . S
H276 N273 0.984 . S
H277 N273 0.985 . S
H278 N272 0.984 . S
H279 N272 0.984 . S
H280 N268 0.984 . S
H281 N268 0.985 . S
C282 C283 1.363 . S
C282 C288 1.379 . S
C282 N290 1.356 . S
C283 C282 1.363 . S
C283 C289 1.363 1_556 S
C284 C285 1.363 . S
C284 C289 1.379 . S
C284 N291 1.356 . S
C285 C284 1.363 . S
C285 C288 1.363 1_554 S
N286 C288 1.356 . S
N286 H298 0.984 . S
N286 H299 0.985 . S
N287 C289 1.356 . S
N287 H292 0.984 . S
N287 H293 0.985 . S
C288 C282 1.379 . S
C288 C285 1.363 1_556 S
C288 N286 1.356 . S
C289 C283 1.363 1_554 S
C289 C284 1.379 . S
C289 N287 1.356 . S
N290 C282 1.356 . S
N290 H296 0.984 . S
N290 H297 0.984 . S
N291 C284 1.356 . S
N291 H294 0.984 . S
N291 H295 0.985 . S
H292 N287 0.984 . S
H293 N287 0.985 . S
H294 N291 0.984 . S
H295 N291 0.985 . S
H296 N290 0.984 . S
H297 N290 0.984 . S
H298 N286 0.984 . S
H299 N286 0.985 . S
C85 C9 1.596 . S
C87 C47 1.599 . S
C103 C19 1.624 . S
C105 C65 1.621 . S
C121 C75 1.649 . S
C123 C37 1.647 . S
C139 C5 1.599 . S
C141 C51 1.596 . S
C157 C23 1.621 . S
C159 C61 1.624 . S
C175 C79 1.647 . S
C177 C33 1.649 . S
C193 C25 1.398 . S
C195 C11 1.394 . S
C211 C28 1.438 . S
C213 C14 1.433 . S
C229 C39 1.420 . S
C231 C42 1.408 . S
C247 C67 1.398 . S
C249 C53 1.394 . S
C265 C70 1.438 . S
C267 C56 1.433 . S
C283 C81 1.420 . S
C285 C0 1.408 . S
