# Generated by pormake.
# Topology oof, (8)-cn, num edge types: 1
# Building blocks:
#     Node 0, Type 0, BuildingBlock: TAGTUT_clean_sbu_1, # of connection points: 8
#     Node 1, Type 0, BuildingBlock: TAGTUT_clean_sbu_1, # of connection points: 8
#     Node 2, Type 0, BuildingBlock: TAGTUT_clean_sbu_1, # of connection points: 8
#     Node 3, Type 0, BuildingBlock: TAGTUT_clean_sbu_1, # of connection points: 8
#     Edge 4, Type (0, 0), BuildingBlock: XUDNAN_clean_linker_2, # of connection points: 2
#     Edge 5, Type (0, 0), BuildingBlock: XUDNAN_clean_linker_2, # of connection points: 2
#     Edge 6, Type (0, 0), BuildingBlock: XUDNAN_clean_linker_2, # of connection points: 2
#     Edge 7, Type (0, 0), BuildingBlock: XUDNAN_clean_linker_2, # of connection points: 2
#     Edge 8, Type (0, 0), BuildingBlock: XUDNAN_clean_linker_2, # of connection points: 2
#     Edge 9, Type (0, 0), BuildingBlock: XUDNAN_clean_linker_2, # of connection points: 2
#     Edge 10, Type (0, 0), BuildingBlock: XUDNAN_clean_linker_2, # of connection points: 2
#     Edge 11, Type (0, 0), BuildingBlock: XUDNAN_clean_linker_2, # of connection points: 2
#     Edge 12, Type (0, 0), BuildingBlock: XUDNAN_clean_linker_2, # of connection points: 2
#     Edge 13, Type (0, 0), BuildingBlock: XUDNAN_clean_linker_2, # of connection points: 2
#     Edge 14, Type (0, 0), BuildingBlock: XUDNAN_clean_linker_2, # of connection points: 2
#     Edge 15, Type (0, 0), BuildingBlock: XUDNAN_clean_linker_2, # of connection points: 2
#     Edge 16, Type (0, 0), BuildingBlock: XUDNAN_clean_linker_2, # of connection points: 2
#     Edge 17, Type (0, 0), BuildingBlock: XUDNAN_clean_linker_2, # of connection points: 2
#     Edge 18, Type (0, 0), BuildingBlock: XUDNAN_clean_linker_2, # of connection points: 2
#     Edge 19, Type (0, 0), BuildingBlock: XUDNAN_clean_linker_2, # of connection points: 2
# Relax obj value: 0.052
# Max RMSD: 0.155
# Mean RMSD: 0.155
data_MOF--net-oof--node1-TAGTUT_clean_sbu_1--edge1-XUDNAN_clean_linker_2
_symmetry_space_group_name_H-M    P1
_symmetry_Int_Tables_number       1
_symmetry_cell_setting            triclinic
loop_
_symmetry_equiv_pos_as_xyz
'x, y, z'
_cell_length_a     15.23234
_cell_length_b     54.983021
_cell_length_c     19.331948
_cell_angle_alpha  93.081529
_cell_angle_beta   102.05961
_cell_angle_gamma 103.28386
loop_
_atom_site_label
_atom_site_type_symbol
_atom_site_fract_x
_atom_site_fract_y
_atom_site_fract_z
_atom_type_partial_charge
C0 C 0.01742 0.10267 0.47522 0.0
C1 C 0.07834 0.06947 0.31894 0.0
C2 C 0.19806 0.15988 0.22058 0.0
Mg3 Mg 0.92083 0.08906 0.31544 0.0
O4 O 0.98392 0.12309 0.31877 0.0
Mg5 Mg 0.12226 0.13102 0.35442 0.0
Mg6 Mg 0.98094 0.13612 0.22427 0.0
O7 O 0.97471 0.14692 0.12782 0.0
Mg8 Mg 0.04457 0.1753 0.09784 0.0
Mg9 Mg 0.84181 0.13119 0.08117 0.0
C10 C 0.76281 0.10773 0.21421 0.0
C11 C 0.93744 0.08506 0.11268 0.0
O12 O 0.0868 0.11766 0.45914 0.0
O13 O 0.94708 0.08984 0.42842 0.0
O14 O 0.13894 0.09042 0.32625 0.0
O15 O 0.00145 0.06742 0.27545 0.0
O16 O 0.7882 0.09152 0.25412 0.0
O17 O 0.82179 0.12581 0.19727 0.0
C18 C 0.05322 0.18293 0.34917 0.0
O19 O -0.00137 0.1757 0.28701 0.0
O20 O 0.1027 0.16925 0.38123 0.0
O21 O 0.87981 0.13545 0.97415 0.0
O22 O 0.02524 0.15928 0.9898 0.0
O23 O 0.81924 0.17111 0.08263 0.0
C24 C 0.95218 0.14436 0.95095 0.0
O25 O 0.95127 0.20095 0.09356 0.0
O26 O 0.17895 0.17334 0.16921 0.0
C27 C 0.86254 0.1942 0.08443 0.0
O28 O 0.13437 0.14561 0.24457 0.0
O29 O 0.98115 0.09813 0.17131 0.0
O30 O 0.87409 0.09234 0.07131 0.0
C31 C 0.0778 0.87972 0.0415 0.0
C32 C 0.13606 0.82861 0.88884 0.0
C33 C 0.24892 0.91624 0.76803 0.0
Mg34 Mg 0.97244 0.85304 0.89216 0.0
O35 O 0.04257 0.88209 0.8658 0.0
Mg36 Mg 0.17943 0.89243 0.90385 0.0
Mg37 Mg 0.03251 0.89313 0.76875 0.0
O38 O 0.02663 0.90524 0.67325 0.0
Mg39 Mg 0.09454 0.93844 0.67842 0.0
Mg40 Mg 0.89007 0.90062 0.63917 0.0
C41 C 0.8211 0.87038 0.77191 0.0
C42 C 0.93818 0.84578 0.64533 0.0
O43 O 0.14873 0.88795 0.01543 0.0
O44 O 0.00035 0.86665 0.00324 0.0
O45 O 0.18643 0.85102 0.8929 0.0
O46 O 0.04882 0.82422 0.88508 0.0
O47 O 0.8433 0.85607 0.82007 0.0
O48 O 0.88042 0.88798 0.75329 0.0
C49 C 0.11135 0.94376 0.88442 0.0
O50 O 0.05446 0.93301 0.82673 0.0
O51 O 0.16805 0.93255 0.91909 0.0
O52 O 0.92774 0.91106 0.53133 0.0
O53 O 0.06708 0.9388 0.56553 0.0
O54 O 0.89369 0.94373 0.65801 0.0
C55 C -0.00091 0.92585 0.51695 0.0
O56 O 0.03009 0.96294 0.72542 0.0
O57 O 0.22644 0.93402 0.73369 0.0
C58 C 0.95197 0.96403 0.68895 0.0
O59 O 0.18896 0.89875 0.78618 0.0
O60 O -0.00218 0.85269 0.70535 0.0
O61 O 0.89231 0.86049 0.61473 0.0
C62 C 0.55241 0.6061 0.48556 0.0
C63 C 0.58345 0.56725 0.32499 0.0
C64 C 0.74839 0.65983 0.24191 0.0
Mg65 Mg 0.44907 0.59546 0.32623 0.0
O66 O 0.53329 0.62676 0.32904 0.0
Mg67 Mg 0.66852 0.62859 0.36343 0.0
Mg68 Mg 0.53635 0.63875 0.23403 0.0
O69 O 0.53238 0.64985 0.13743 0.0
Mg70 Mg 0.61063 0.67771 0.11458 0.0
Mg71 Mg 0.39573 0.64362 0.09797 0.0
C72 C 0.31641 0.62357 0.23254 0.0
C73 C 0.44309 0.58913 0.11708 0.0
O74 O 0.62761 0.61799 0.46957 0.0
O75 O 0.47787 0.59605 0.43879 0.0
O76 O 0.65486 0.58568 0.33298 0.0
O77 O 0.50953 0.56886 0.28272 0.0
O78 O 0.32567 0.60561 0.27109 0.0
O79 O 0.3849 0.63778 0.21439 0.0
C80 C 0.64191 0.68557 0.3576 0.0
O81 O 0.58564 0.67926 0.29592 0.0
O82 O 0.67825 0.66972 0.39195 0.0
O83 O 0.43067 0.64687 0.98855 0.0
O84 O 0.58407 0.66372 0.00435 0.0
O85 O 0.3984 0.6863 0.10567 0.0
C86 C 0.50462 0.65265 0.96472 0.0
O87 O 0.54479 0.70828 0.11881 0.0
O88 O 0.73177 0.6747 0.19416 0.0
C89 C 0.45837 0.70723 0.10976 0.0
O90 O 0.68653 0.64104 0.25224 0.0
O91 O 0.50125 0.59829 0.17567 0.0
O92 O 0.39396 0.6024 0.08291 0.0
C93 C 0.49815 0.37617 0.03042 0.0
C94 C 0.55422 0.32267 0.88465 0.0
C95 C 0.68718 0.40403 0.76158 0.0
Mg96 Mg 0.39545 0.34995 0.88056 0.0
O97 O 0.47053 0.37828 0.85765 0.0
Mg98 Mg 0.60751 0.38653 0.8992 0.0
Mg99 Mg 0.46615 0.388 0.75949 0.0
O100 O 0.46856 0.39873 0.66315 0.0
Mg101 Mg 0.5514 0.42992 0.66667 0.0
Mg102 Mg 0.33526 0.39845 0.62979 0.0
C103 C 0.25587 0.36736 0.75257 0.0
C104 C 0.35778 0.3409 0.63915 0.0
O105 O 0.57203 0.38292 0.00716 0.0
O106 O 0.42016 0.36403 0.9907 0.0
O107 O 0.61215 0.34419 0.89271 0.0
O108 O 0.46697 0.32066 0.87399 0.0
O109 O 0.27392 0.35266 0.80053 0.0
O110 O 0.31673 0.38627 0.74145 0.0
C111 C 0.54468 0.43878 0.87325 0.0
O112 O 0.49635 0.42762 0.81317 0.0
O113 O 0.5979 0.42802 0.91394 0.0
O114 O 0.37356 0.40815 0.52335 0.0
O115 O 0.52138 0.43135 0.555 0.0
O116 O 0.35919 0.44263 0.65153 0.0
C117 C 0.44734 0.42115 0.50797 0.0
O118 O 0.50333 0.45839 0.71277 0.0
O119 O 0.67701 0.42096 0.71964 0.0
C120 C 0.42554 0.4616 0.68134 0.0
O121 O 0.61901 0.39053 0.78182 0.0
O122 O 0.41667 0.34718 0.69979 0.0
O123 O 0.32111 0.35683 0.60523 0.0
H124 H 0.06849 0.16352 0.86507 0.0
H125 H 0.84516 0.10001 0.87982 0.0
H126 H 0.85686 0.07949 0.7675 0.0
H127 H -0.0047 0.16568 0.68122 0.0
H128 H 0.11022 0.17417 0.66505 0.0
H129 H 0.09159 0.18269 0.75095 0.0
H130 H 0.21483 0.15986 0.80971 0.0
H131 H 0.23263 0.15093 0.72355 0.0
H132 H 0.20182 0.12722 0.78107 0.0
H133 H 0.88174 0.06726 0.65135 0.0
H134 H 0.90788 0.06609 0.53028 0.0
H135 H 0.11651 0.13682 0.58848 0.0
C136 C 0.02243 0.14527 0.84463 0.0
C137 C 0.95569 0.13346 0.88086 0.0
C138 C 0.89605 0.10963 0.85245 0.0
C139 C 0.90297 0.0976 0.78921 0.0
C140 C 0.96968 0.10964 0.75498 0.0
C141 C 0.02772 0.13304 0.78096 0.0
C142 C 0.08719 0.14276 0.7299 0.0
C143 C 0.06998 0.16779 0.70532 0.0
C144 C 0.19024 0.14534 0.76306 0.0
C145 C 0.05054 0.12159 0.67011 0.0
C146 C 0.98437 0.10244 0.68664 0.0
C147 C 0.93437 0.08191 0.63795 0.0
C148 C 0.94965 0.08142 0.56932 0.0
C149 C 0.01465 0.10125 0.55034 0.0
C150 C 0.06787 0.12114 0.60206 0.0
H151 H 0.89887 0.8925 0.39979 0.0
H152 H 0.13232 0.95767 0.46813 0.0
H153 H 0.17617 0.95244 0.35428 0.0
H154 H 0.01235 0.85603 0.31472 0.0
H155 H 0.91644 0.84247 0.2407 0.0
H156 H 0.89509 0.85245 0.32457 0.0
H157 H 0.79731 0.88137 0.26299 0.0
H158 H 0.81656 0.87105 0.17858 0.0
H159 H 0.84651 0.90411 0.20901 0.0
H160 H 0.20713 0.93775 0.24159 0.0
H161 H 0.2096 0.91811 0.12514 0.0
H162 H 0.95435 0.8629 0.12509 0.0
C163 C 0.9575 0.9061 0.38997 0.0
C164 C 0.012 0.92549 0.44316 0.0
C165 C 0.08941 0.9426 0.42853 0.0
C166 C 0.11519 0.9398 0.36397 0.0
C167 C 0.06279 0.91986 0.3142 0.0
C168 C 0.98446 0.90359 0.32542 0.0
C169 C 0.94259 0.8833 0.26331 0.0
C170 C 0.94159 0.85702 0.28729 0.0
C171 C 0.84495 0.88508 0.22627 0.0
C172 C 0.01084 0.89054 0.21644 0.0
C173 C 0.07981 0.9116 0.24735 0.0
C174 C 0.15286 0.92144 0.21616 0.0
C175 C 0.15404 0.90996 0.15022 0.0
C176 C 0.08209 0.88895 0.11571 0.0
C177 C 0.01021 0.87896 0.14995 0.0
H178 H 0.62728 0.66765 0.87993 0.0
H179 H 0.37208 0.61354 0.88633 0.0
H180 H 0.37149 0.59238 0.77119 0.0
H181 H 0.5641 0.67371 0.69446 0.0
H182 H 0.6794 0.67684 0.68057 0.0
H183 H 0.66349 0.68675 0.76632 0.0
H184 H 0.76311 0.65755 0.82405 0.0
H185 H 0.77752 0.64716 0.73799 0.0
H186 H 0.73034 0.62451 0.79299 0.0
H187 H 0.3948 0.57737 0.65694 0.0
H188 H 0.42587 0.57358 0.5379 0.0
H189 H 0.66434 0.63753 0.60123 0.0
C190 C 0.5713 0.65139 0.85688 0.0
C191 C 0.49982 0.64225 0.89202 0.0
C192 C 0.4272 0.62105 0.8601 0.0
C193 C 0.42684 0.60864 0.79519 0.0
C194 C 0.49919 0.61776 0.7627 0.0
C195 C 0.56909 0.63891 0.7914 0.0
C196 C 0.63405 0.64586 0.74208 0.0
C197 C 0.63525 0.67235 0.7195 0.0
C198 C 0.73207 0.64363 0.77635 0.0
C199 C 0.58789 0.62566 0.68051 0.0
C200 C 0.51167 0.60932 0.69469 0.0
C201 C 0.45448 0.58994 0.64511 0.0
C202 C 0.47283 0.58793 0.57768 0.0
C203 C 0.54746 0.60527 0.56047 0.0
C204 C 0.60773 0.62379 0.61334 0.0
H205 H 0.37449 0.36079 0.11404 0.0
H206 H 0.62682 0.41619 0.10779 0.0
H207 H 0.62495 0.43733 0.22201 0.0
H208 H 0.26719 0.40348 0.20057 0.0
H209 H 0.22142 0.38053 0.25538 0.0
H210 H 0.23627 0.37049 0.16916 0.0
H211 H 0.33807 0.34171 0.22644 0.0
H212 H 0.32189 0.35131 0.31234 0.0
H213 H 0.43731 0.35501 0.2982 0.0
H214 H 0.60371 0.45112 0.33712 0.0
H215 H 0.57436 0.45405 0.45687 0.0
H216 H 0.33535 0.39022 0.39186 0.0
C217 C 0.42918 0.37736 0.13687 0.0
C218 C 0.50079 0.38678 0.10223 0.0
C219 C 0.57171 0.40842 0.13375 0.0
C220 C 0.57066 0.42083 0.19812 0.0
C221 C 0.49856 0.41132 0.23038 0.0
C222 C 0.42985 0.38991 0.20176 0.0
C223 C 0.36527 0.38254 0.25103 0.0
C224 C 0.26669 0.38438 0.21698 0.0
C225 C 0.36575 0.35609 0.27334 0.0
C226 C 0.4107 0.40274 0.31264 0.0
C227 C 0.48618 0.41941 0.29855 0.0
C228 C 0.54418 0.43844 0.3488 0.0
C229 C 0.52704 0.43987 0.41666 0.0
C230 C 0.4523 0.42242 0.43334 0.0
C231 C 0.39162 0.40415 0.38002 0.0
H232 H 0.67545 0.14179 0.14529 0.0
H233 H 0.63277 0.07919 0.27343 0.0
H234 H 0.49767 0.09099 0.30043 0.0
H235 H 0.60279 0.18578 0.24927 0.0
H236 H 0.54232 0.19775 0.17342 0.0
H237 H 0.63872 0.18466 0.1666 0.0
H238 H 0.52954 0.15325 0.05819 0.0
H239 H 0.43613 0.16714 0.06815 0.0
H240 H 0.42262 0.13376 0.07048 0.0
H241 H 0.38996 0.11368 0.3334 0.0
H242 H 0.26317 0.13401 0.32842 0.0
H243 H 0.34945 0.17711 0.16182 0.0
C244 C 0.63623 0.13017 0.17739 0.0
C245 C 0.66694 0.11003 0.20895 0.0
C246 C 0.61247 0.09503 0.24964 0.0
C247 C 0.53597 0.10173 0.26621 0.0
C248 C 0.51245 0.12284 0.23941 0.0
C249 C 0.55693 0.13601 0.19262 0.0
C250 C 0.51074 0.15667 0.16725 0.0
C251 C 0.57759 0.18276 0.19044 0.0
C252 C 0.47246 0.15245 0.08622 0.0
C253 C 0.43359 0.15276 0.20724 0.0
C254 C 0.43966 0.13392 0.25098 0.0
C255 C 0.38171 0.12778 0.29725 0.0
C256 C 0.30963 0.13958 0.29406 0.0
C257 C 0.29286 0.15628 0.24234 0.0
C258 C 0.3591 0.16411 0.20118 0.0
H259 H 0.69773 0.86383 0.8541 0.0
H260 H 0.72973 0.87869 0.64147 0.0
H261 H 0.57954 0.89012 0.61655 0.0
H262 H 0.44124 0.8409 0.81564 0.0
H263 H 0.43897 0.85741 0.89858 0.0
H264 H 0.53752 0.84547 0.8913 0.0
H265 H 0.64054 0.89045 0.93482 0.0
H266 H 0.54069 0.90244 0.93718 0.0
H267 H 0.62028 0.9161 0.88455 0.0
H268 H 0.44631 0.90701 0.6229 0.0
H269 H 0.31775 0.9223 0.65107 0.0
H270 H 0.36901 0.89594 0.86025 0.0
C271 C 0.67087 0.86829 0.80113 0.0
C272 C 0.72387 0.87022 0.7492 0.0
C273 C 0.68924 0.87713 0.68152 0.0
C274 C 0.60441 0.88363 0.6671 0.0
C275 C 0.55659 0.88312 0.72124 0.0
C276 C 0.58762 0.87529 0.78652 0.0
C277 C 0.52904 0.87927 0.83822 0.0
C278 C 0.48383 0.85423 0.86223 0.0
C279 C 0.58609 0.89819 0.90244 0.0
C280 C 0.45908 0.89029 0.79139 0.0
C281 C 0.4778 0.89275 0.72469 0.0
C282 C 0.42942 0.90471 0.67421 0.0
C283 C 0.35761 0.91367 0.69135 0.0
C284 C 0.33432 0.91034 0.75813 0.0
C285 C 0.3857 0.89858 0.80894 0.0
H286 H 0.82517 0.62336 0.29636 0.0
H287 H 0.88766 0.70235 0.26386 0.0
H288 H 0.05022 0.70212 0.27077 0.0
H289 H 0.07422 0.62383 0.40725 0.0
H290 H 0.0616 0.59296 0.36395 0.0
H291 H 0.96236 0.60174 0.38487 0.0
H292 H 0.87722 0.58923 0.25285 0.0
H293 H 0.97736 0.58213 0.22979 0.0
H294 H 0.92545 0.60498 0.18478 0.0
H295 H 0.18006 0.69016 0.23634 0.0
H296 H 0.29715 0.67042 0.20469 0.0
H297 H 0.15154 0.59876 0.25842 0.0
C298 C 0.8745 0.64095 0.29554 0.0
C299 C 0.84474 0.66267 0.27792 0.0
C300 C 0.90992 0.68541 0.27625 0.0
C301 C 0.00223 0.68546 0.2801 0.0
C302 C 0.02718 0.66279 0.28737 0.0
C303 C 0.96664 0.64115 0.29859 0.0
C304 C 0.00631 0.61848 0.2937 0.0
C305 C 0.02744 0.60869 0.36681 0.0
C306 C 0.94276 0.59751 0.2369 0.0
C307 C 0.09401 0.63038 0.27138 0.0
C308 C 0.10503 0.65592 0.26865 0.0
C309 C 0.17482 0.6704 0.24144 0.0
C310 C 0.23962 0.65883 0.22187 0.0
C311 C 0.23401 0.6331 0.23021 0.0
C312 C 0.15821 0.61854 0.25255 0.0
H313 H 0.85222 0.42852 0.73612 0.0
H314 H 0.70601 0.3574 0.79228 0.0
H315 H 0.82415 0.33744 0.76337 0.0
H316 H 0.92904 0.40264 0.58883 0.0
H317 H 0.04067 0.42483 0.61038 0.0
H318 H 0.94141 0.43366 0.63108 0.0
H319 H 0.02595 0.44518 0.76445 0.0
H320 H 0.12637 0.43779 0.74265 0.0
H321 H 0.07748 0.42255 0.8111 0.0
H322 H 0.95489 0.3252 0.73002 0.0
H323 H 0.11691 0.32484 0.73445 0.0
H324 H 0.17735 0.40341 0.69697 0.0
C325 C 0.84573 0.40882 0.74317 0.0
C326 C 0.76974 0.39447 0.76572 0.0
C327 C 0.76405 0.36884 0.77541 0.0
C328 C 0.82937 0.35714 0.75727 0.0
C329 C 0.89943 0.37138 0.72982 0.0
C330 C 0.90999 0.39683 0.72521 0.0
C331 C -0.0025 0.40849 0.70227 0.0
C332 C 0.97579 0.41796 0.62876 0.0
C333 C 0.06056 0.42972 0.75848 0.0
C334 C 0.03712 0.3858 0.69863 0.0
C335 C 0.97719 0.36435 0.71146 0.0
C336 C 0.00234 0.34173 0.71935 0.0
C337 C 0.09429 0.34169 0.72163 0.0
C338 C 0.15894 0.36431 0.71777 0.0
C339 C 0.1286 0.38589 0.69956 0.0
H340 H 0.33949 0.32119 0.50315 0.0
H341 H 0.28207 0.30189 0.70632 0.0
H342 H 0.17887 0.26108 0.64784 0.0
H343 H 0.11746 0.29457 0.39522 0.0
H344 H 0.15629 0.28233 0.32178 0.0
H345 H 0.22854 0.30964 0.37908 0.0
H346 H 0.36376 0.28788 0.40694 0.0
H347 H 0.29333 0.26091 0.34749 0.0
H348 H 0.34374 0.2572 0.43812 0.0
H349 H 0.07287 0.22419 0.56563 0.0
H350 H 0.00246 0.1886 0.47237 0.0
H351 H 0.135 0.23046 0.32283 0.0
C352 C 0.30732 0.30797 0.53555 0.0
C353 C 0.31962 0.31439 0.60942 0.0
C354 C 0.27528 0.29698 0.65009 0.0
C355 C 0.21531 0.27401 0.61701 0.0
C356 C 0.20158 0.26871 0.54348 0.0
C357 C 0.24882 0.28479 0.50362 0.0
C358 C 0.22492 0.2741 0.426 0.0
C359 C 0.17909 0.29119 0.3777 0.0
C360 C 0.31157 0.26975 0.40332 0.0
C361 C 0.1563 0.24946 0.42818 0.0
C362 C 0.14234 0.24708 0.49627 0.0
C363 C 0.08332 0.22587 0.51223 0.0
C364 C 0.0423 0.20591 0.45857 0.0
C365 C 0.06115 0.20706 0.38992 0.0
C366 C 0.11643 0.22947 0.37389 0.0
H367 H 0.73567 0.31897 0.9331 0.0
H368 H 0.45027 0.27457 0.87625 0.0
H369 H 0.49989 0.23857 0.92649 0.0
H370 H 0.83818 0.26601 0.8938 0.0
H371 H 0.938 0.27698 0.96659 0.0
H372 H 0.88121 0.29916 0.92258 0.0
H373 H 0.86161 0.31659 0.04401 0.0
H374 H 0.91633 0.29407 0.08815 0.0
H375 H 0.80218 0.29553 0.09717 0.0
H376 H 0.57439 0.20902 0.99297 0.0
H377 H 0.6744 0.18362 0.05082 0.0
H378 H 0.91678 0.24493 0.06203 0.0
C379 C 0.68389 0.3015 0.92966 0.0
C380 C 0.58859 0.29983 0.90087 0.0
C381 C 0.5234 0.27656 0.89797 0.0
C382 C 0.55082 0.25595 0.92688 0.0
C383 C 0.64407 0.2586 0.95775 0.0
C384 C 0.71029 0.28046 0.9577 0.0
C385 C 0.80618 0.27783 0.99389 0.0
C386 C 0.86965 0.28013 0.94106 0.0
C387 C 0.84908 0.29716 0.05971 0.0
C388 C 0.7828 0.25122 0.01505 0.0
C389 C 0.68849 0.2408 -0.00574 0.0
C390 C 0.64851 0.21684 0.00875 0.0
C391 C 0.70645 0.20262 0.04265 0.0
C392 C 0.80423 0.21211 0.06182 0.0
C393 C 0.8426 0.23706 0.0488 0.0
H394 H 0.66246 0.70511 0.49472 0.0
H395 H 0.71006 0.72519 0.2895 0.0
H396 H 0.8073 0.76685 0.3463 0.0
H397 H 0.64643 0.76824 0.55858 0.0
H398 H 0.70057 0.76554 0.64917 0.0
H399 H 0.6336 0.73781 0.59128 0.0
H400 H 0.77493 0.71838 0.61808 0.0
H401 H 0.84348 0.7464 0.6741 0.0
H402 H 0.88337 0.73487 0.60029 0.0
H403 H 0.90973 0.80441 0.42647 0.0
H404 H 0.97946 0.8403 0.51872 0.0
H405 H 0.85727 0.79777 0.67209 0.0
C406 C 0.69135 0.71861 0.46159 0.0
C407 C 0.67806 0.71215 0.38755 0.0
C408 C 0.71779 0.73003 0.34589 0.0
C409 C 0.77431 0.75354 0.37797 0.0
C410 C 0.789 0.75895 0.45153 0.0
C411 C 0.74608 0.74239 0.49251 0.0
C412 C 0.77004 0.75339 0.56997 0.0
C413 C 0.68246 0.75644 0.59362 0.0
C414 C 0.82098 0.73729 0.61844 0.0
C415 C 0.83405 0.7787 0.56635 0.0
C416 C 0.84545 0.78116 0.49764 0.0
C417 C 0.90097 0.80272 0.48029 0.0
C418 C 0.94144 0.82288 0.53334 0.0
C419 C 0.92556 0.8216 0.60287 0.0
C420 C 0.87317 0.79895 0.62015 0.0
H421 H 0.28378 0.7166 0.09698 0.0
H422 H 0.55775 0.74764 0.06068 0.0
H423 H 0.49774 0.77851 0.99028 0.0
H424 H 0.15132 0.72356 0.92932 0.0
H425 H 0.06203 0.73394 0.96191 0.0
H426 H 0.12465 0.71406 0.01193 0.0
H427 H 0.173 0.74669 0.12314 0.0
H428 H 0.10816 0.76632 0.07417 0.0
H429 H 0.229 0.77881 0.11586 0.0
H430 H 0.4063 0.80211 0.91075 0.0
H431 H 0.29836 0.82676 0.85645 0.0
H432 H 0.08712 0.78527 0.95416 0.0
C433 C 0.33157 0.73028 0.07565 0.0
C434 C 0.42566 0.72942 0.0843 0.0
C435 C 0.48567 0.74777 0.05543 0.0
C436 C 0.45199 0.76526 0.01434 0.0
C437 C 0.35841 0.76475 0.00379 0.0
C438 C 0.29962 0.74852 0.03587 0.0
C439 C 0.20309 0.75322 0.01877 0.0
C440 C 0.13103 0.72979 0.97807 0.0
C441 C 0.17678 0.76178 0.08704 0.0
C442 C 0.21708 0.77436 0.9714 0.0
C443 C 0.3068 0.78012 0.96221 0.0
C444 C 0.33656 0.79827 0.91906 0.0
C445 C 0.27497 0.81213 0.88832 0.0
C446 C 0.18564 0.80842 0.90232 0.0
C447 C 0.15492 0.78853 0.94214 0.0
H448 H 0.86079 0.0493 0.9942 0.0
H449 H 0.09979 0.07388 0.17192 0.0
H450 H 0.17141 0.04266 0.12716 0.0
H451 H 0.85667 0.98277 0.98713 0.0
H452 H 0.82472 0.97748 0.89136 0.0
H453 H 0.79036 1.00189 0.93706 0.0
H454 H 0.86938 0.03437 0.86257 0.0
H455 H 0.90517 1.01005 0.81752 0.0
H456 H -0.00995 0.03779 0.863 0.0
H457 H 0.22156 1.01031 0.06383 0.0
H458 H 0.23927 0.97421 0.9925 0.0
H459 H 0.96885 0.9683 0.85456 0.0
C460 C 0.92756 0.04784 0.02415 0.0
C461 C 0.9733 0.06387 0.08781 0.0
C462 C 0.06145 0.06152 0.12449 0.0
C463 C 0.10376 0.04402 0.09884 0.0
C464 C 0.05775 0.02884 0.03595 0.0
C465 C 0.97121 0.03023 -0.00074 0.0
C466 C 0.93705 1.01101 0.93363 0.0
C467 C 0.84686 0.99217 0.93756 0.0
C468 C 0.92467 0.02409 0.86514 0.0
C469 C 0.01742 0.99848 0.94034 0.0
C470 C 0.08671 1.00952 -0.0008 0.0
C471 C 0.16771 1.00141 0.01768 0.0
C472 C 0.17715 0.98085 0.97653 0.0
C473 C 0.10566 0.96827 0.91766 0.0
C474 C 0.02543 0.97765 0.89849 0.0
H475 H 0.94564 0.02814 0.33501 0.0
H476 H 0.20023 0.08041 0.45072 0.0
H477 H 0.17532 0.06336 0.56254 0.0
H478 H 0.81007 0.02722 0.46713 0.0
H479 H 0.76015 0.99387 0.45038 0.0
H480 H 0.79487 1.01124 0.38005 0.0
H481 H 0.89788 0.98126 0.36102 0.0
H482 H 0.86447 0.96379 0.43145 0.0
H483 H 0.98518 0.97721 0.43496 0.0
H484 H 0.11525 0.04311 0.66342 0.0
H485 H 0.0593 1.01123 0.73948 0.0
H486 H 0.85215 0.96957 0.55665 0.0
C487 C -0.00359 0.03604 0.38378 0.0
C488 C 0.07332 0.0563 0.38404 0.0
C489 C 0.13983 0.06527 0.44887 0.0
C490 C 0.12576 0.05587 0.51294 0.0
C491 C 0.04603 0.03709 0.51126 0.0
C492 C 0.98433 0.02662 0.44801 0.0
C493 C 0.90994 1.00465 0.45972 0.0
C494 C 0.81309 1.00957 0.43803 0.0
C495 C 0.91452 0.98025 0.4194 0.0
C496 C 0.93917 1.00447 0.53969 0.0
C497 C 0.01594 0.02392 0.56857 0.0
C498 C 0.05626 0.02753 0.64116 0.0
C499 C 0.02302 1.00947 0.6842 0.0
C500 C 0.95236 0.98755 0.65411 0.0
C501 C 0.90585 0.98605 0.58179 0.0
H502 H 0.57058 0.55949 0.14335 0.0
H503 H 0.30683 0.56212 0.0084 0.0
H504 H 0.30893 0.52508 0.93302 0.0
H505 H 0.67244 0.54168 0.0073 0.0
H506 H 0.72849 0.51991 0.05433 0.0
H507 H 0.70566 0.54573 0.10316 0.0
H508 H 0.6144 0.51483 0.17467 0.0
H509 H 0.63849 0.48892 0.12708 0.0
H510 H 0.52058 0.48916 0.12778 0.0
H511 H 0.34293 0.49096 0.86576 0.0
H512 H 0.39569 0.45642 0.81762 0.0
H513 H 0.63765 0.47288 0.99391 0.0
C514 C 0.51217 0.55184 0.09907 0.0
C515 C 0.43855 0.56393 0.08193 0.0
C516 C 0.36418 0.55343 0.0228 0.0
C517 C 0.36475 0.53235 0.97931 0.0
C518 C 0.43965 0.52158 -0.00432 0.0
C519 C 0.51112 0.53043 0.05485 0.0
C520 C 0.58311 0.51497 0.05885 0.0
C521 C 0.67805 0.53157 0.05573 0.0
C522 C 0.58951 0.50115 0.12609 0.0
C523 C 0.54145 0.49657 0.9918 0.0
C524 C 0.45895 0.50104 0.95648 0.0
C525 C 0.40735 0.4872 0.89293 0.0
C526 C 0.43917 0.46776 0.86527 0.0
C527 C 0.52246 0.46207 0.90053 0.0
C528 C 0.5745 0.47686 0.96491 0.0
H529 H 0.32244 0.47202 0.55649 0.0
H530 H 0.54485 0.50655 0.73862 0.0
H531 H 0.60767 0.53882 0.66646 0.0
H532 H 0.43951 0.47676 0.43135 0.0
H533 H 0.35827 0.48545 0.36129 0.0
H534 H 0.31758 0.46842 0.43 0.0
H535 H 0.23953 0.50354 0.46037 0.0
H536 H 0.27907 0.52055 0.39097 0.0
H537 H 0.307 0.5356 0.48063 0.0
H538 H 0.67283 0.55751 0.56684 0.0
H539 H 0.70556 0.57361 0.45595 0.0
H540 H 0.43262 0.53089 0.3402 0.0
C541 C 0.38078 0.48726 0.58263 0.0
C542 C 0.4298 0.48636 0.65299 0.0
C543 C 0.50657 0.50664 0.6847 0.0
C544 C 0.54356 0.52493 0.64382 0.0
C545 C 0.50029 0.52343 0.57224 0.0
C546 C 0.41732 0.50615 0.54289 0.0
C547 C 0.38701 0.50821 0.4638 0.0
C548 C 0.37472 0.4832 0.41898 0.0
C549 C 0.29792 0.51755 0.44802 0.0
C550 C 0.46933 0.52789 0.45264 0.0
C551 C 0.53433 0.53618 0.51575 0.0
C552 C 0.62084 0.55198 0.51754 0.0
C553 C 0.63923 0.56079 0.4539 0.0
C554 C 0.57057 0.55429 0.38935 0.0
C555 C 0.48561 0.53694 0.38886 0.0
loop_
_geom_bond_atom_site_label_1
_geom_bond_atom_site_label_2
_geom_bond_distance
_geom_bond_site_symmetry_2
_ccdc_geom_bond_type
C0 O12 1.241 . S
C0 O13 1.280 1_455 S
C1 O14 1.277 . S
C1 O15 1.245 1_455 S
C2 O26 1.247 . S
C2 O28 1.289 . S
Mg3 O4 1.926 1_655 S
Mg3 O13 1.984 . S
Mg3 O15 1.988 . S
Mg3 O16 2.061 . S
O4 Mg3 1.926 1_455 S
O4 Mg5 1.986 . S
O4 Mg6 1.917 . S
Mg5 O4 1.986 . S
Mg5 O12 2.042 . S
Mg5 O14 2.041 . S
Mg5 O20 2.038 . S
Mg5 O28 2.238 . S
Mg6 O4 1.917 . S
Mg6 O7 1.917 . S
Mg6 O17 2.106 1_455 S
Mg6 O19 2.079 . S
Mg6 O28 2.106 . S
Mg6 O29 2.079 1_455 S
O7 Mg6 1.917 . S
O7 Mg8 1.926 . S
O7 Mg9 1.986 1_455 S
Mg8 O7 1.926 . S
Mg8 O22 1.984 . S
Mg8 O25 1.988 . S
Mg8 O26 2.061 . S
Mg9 O7 1.986 1_655 S
Mg9 O17 2.238 . S
Mg9 O21 2.042 . S
Mg9 O23 2.041 . S
Mg9 O30 2.038 . S
C10 O16 1.247 . S
C10 O17 1.289 . S
C11 O29 1.245 . S
C11 O30 1.274 . S
O12 C0 1.241 . S
O12 Mg5 2.042 . S
O13 C0 1.280 1_655 S
O13 Mg3 1.984 . S
O14 C1 1.277 . S
O14 Mg5 2.041 . S
O15 C1 1.245 1_655 S
O15 Mg3 1.988 . S
O16 Mg3 2.061 . S
O16 C10 1.247 . S
O17 Mg6 2.106 1_655 S
O17 Mg9 2.238 . S
O17 C10 1.289 . S
C18 O19 1.245 . S
C18 O20 1.274 . S
O19 Mg6 2.079 . S
O19 C18 1.245 . S
O20 Mg5 2.038 . S
O20 C18 1.274 . S
O21 Mg9 2.042 . S
O21 C24 1.241 1_654 S
O22 Mg8 1.984 . S
O22 C24 1.280 1_554 S
O23 Mg9 2.041 . S
O23 C27 1.277 . S
C24 O21 1.241 1_456 S
C24 O22 1.280 1_556 S
O25 Mg8 1.988 . S
O25 C27 1.245 1_455 S
O26 C2 1.247 . S
O26 Mg8 2.061 . S
C27 O23 1.277 . S
C27 O25 1.245 1_655 S
O28 C2 1.289 . S
O28 Mg5 2.238 . S
O28 Mg6 2.106 . S
O29 Mg6 2.079 1_655 S
O29 C11 1.245 . S
O30 Mg9 2.038 . S
O30 C11 1.274 . S
C31 O43 1.241 1_554 S
C31 O44 1.280 1_454 S
C32 O45 1.277 . S
C32 O46 1.245 1_455 S
C33 O57 1.247 . S
C33 O59 1.289 . S
Mg34 O35 1.926 1_655 S
Mg34 O44 1.984 . S
Mg34 O46 1.988 . S
Mg34 O47 2.061 . S
O35 Mg34 1.926 1_455 S
O35 Mg36 1.986 . S
O35 Mg37 1.917 . S
Mg36 O35 1.986 . S
Mg36 O43 2.042 . S
Mg36 O45 2.041 . S
Mg36 O51 2.038 . S
Mg36 O59 2.238 . S
Mg37 O35 1.917 . S
Mg37 O38 1.917 . S
Mg37 O48 2.106 1_455 S
Mg37 O50 2.079 . S
Mg37 O59 2.106 . S
Mg37 O60 2.079 1_455 S
O38 Mg37 1.917 . S
O38 Mg39 1.926 . S
O38 Mg40 1.986 1_455 S
Mg39 O38 1.926 . S
Mg39 O53 1.984 . S
Mg39 O56 1.988 . S
Mg39 O57 2.061 . S
Mg40 O38 1.986 1_655 S
Mg40 O48 2.238 . S
Mg40 O52 2.042 . S
Mg40 O54 2.041 . S
Mg40 O61 2.038 . S
C41 O47 1.247 . S
C41 O48 1.289 . S
C42 O60 1.245 . S
C42 O61 1.274 . S
O43 C31 1.241 1_556 S
O43 Mg36 2.042 . S
O44 C31 1.280 1_656 S
O44 Mg34 1.984 . S
O45 C32 1.277 . S
O45 Mg36 2.041 . S
O46 C32 1.245 1_655 S
O46 Mg34 1.988 . S
O47 Mg34 2.061 . S
O47 C41 1.247 . S
O48 Mg37 2.106 1_655 S
O48 Mg40 2.238 . S
O48 C41 1.289 . S
C49 O50 1.245 . S
C49 O51 1.274 . S
O50 Mg37 2.079 . S
O50 C49 1.245 . S
O51 Mg36 2.038 . S
O51 C49 1.274 . S
O52 Mg40 2.042 . S
O52 C55 1.241 1_655 S
O53 Mg39 1.984 . S
O53 C55 1.280 . S
O54 Mg40 2.041 . S
O54 C58 1.277 . S
C55 O52 1.241 1_455 S
C55 O53 1.280 . S
O56 Mg39 1.988 . S
O56 C58 1.245 1_455 S
O57 C33 1.247 . S
O57 Mg39 2.061 . S
C58 O54 1.277 . S
C58 O56 1.245 1_655 S
O59 C33 1.289 . S
O59 Mg36 2.238 . S
O59 Mg37 2.106 . S
O60 Mg37 2.079 1_655 S
O60 C42 1.245 . S
O61 Mg40 2.038 . S
O61 C42 1.274 . S
C62 O74 1.241 . S
C62 O75 1.280 . S
C63 O76 1.277 . S
C63 O77 1.245 . S
C64 O88 1.247 . S
C64 O90 1.289 . S
Mg65 O66 1.926 . S
Mg65 O75 1.984 . S
Mg65 O77 1.988 . S
Mg65 O78 2.061 . S
O66 Mg65 1.926 . S
O66 Mg67 1.986 . S
O66 Mg68 1.917 . S
Mg67 O66 1.986 . S
Mg67 O74 2.042 . S
Mg67 O76 2.041 . S
Mg67 O82 2.038 . S
Mg67 O90 2.238 . S
Mg68 O66 1.917 . S
Mg68 O69 1.917 . S
Mg68 O79 2.106 . S
Mg68 O81 2.079 . S
Mg68 O90 2.106 . S
Mg68 O91 2.079 . S
O69 Mg68 1.917 . S
O69 Mg70 1.926 . S
O69 Mg71 1.986 . S
Mg70 O69 1.926 . S
Mg70 O84 1.984 . S
Mg70 O87 1.988 . S
Mg70 O88 2.061 . S
Mg71 O69 1.986 . S
Mg71 O79 2.238 . S
Mg71 O83 2.042 . S
Mg71 O85 2.041 . S
Mg71 O92 2.038 . S
C72 O78 1.247 . S
C72 O79 1.289 . S
C73 O91 1.245 . S
C73 O92 1.274 . S
O74 C62 1.241 . S
O74 Mg67 2.042 . S
O75 C62 1.280 . S
O75 Mg65 1.984 . S
O76 C63 1.277 . S
O76 Mg67 2.041 . S
O77 C63 1.245 . S
O77 Mg65 1.988 . S
O78 Mg65 2.061 . S
O78 C72 1.247 . S
O79 Mg68 2.106 . S
O79 Mg71 2.238 . S
O79 C72 1.289 . S
C80 O81 1.245 . S
C80 O82 1.274 . S
O81 Mg68 2.079 . S
O81 C80 1.245 . S
O82 Mg67 2.038 . S
O82 C80 1.274 . S
O83 Mg71 2.042 . S
O83 C86 1.241 1_554 S
O84 Mg70 1.984 . S
O84 C86 1.280 1_554 S
O85 Mg71 2.041 . S
O85 C89 1.277 . S
C86 O83 1.241 1_556 S
C86 O84 1.280 1_556 S
O87 Mg70 1.988 . S
O87 C89 1.245 . S
O88 C64 1.247 . S
O88 Mg70 2.061 . S
C89 O85 1.277 . S
C89 O87 1.245 . S
O90 C64 1.289 . S
O90 Mg67 2.238 . S
O90 Mg68 2.106 . S
O91 Mg68 2.079 . S
O91 C73 1.245 . S
O92 Mg71 2.038 . S
O92 C73 1.274 . S
C93 O105 1.241 1_554 S
C93 O106 1.280 1_554 S
C94 O107 1.277 . S
C94 O108 1.245 . S
C95 O119 1.247 . S
C95 O121 1.289 . S
Mg96 O97 1.926 . S
Mg96 O106 1.984 . S
Mg96 O108 1.988 . S
Mg96 O109 2.061 . S
O97 Mg96 1.926 . S
O97 Mg98 1.986 . S
O97 Mg99 1.917 . S
Mg98 O97 1.986 . S
Mg98 O105 2.042 . S
Mg98 O107 2.041 . S
Mg98 O113 2.038 . S
Mg98 O121 2.238 . S
Mg99 O97 1.917 . S
Mg99 O100 1.917 . S
Mg99 O110 2.106 . S
Mg99 O112 2.079 . S
Mg99 O121 2.106 . S
Mg99 O122 2.079 . S
O100 Mg99 1.917 . S
O100 Mg101 1.926 . S
O100 Mg102 1.986 . S
Mg101 O100 1.926 . S
Mg101 O115 1.984 . S
Mg101 O118 1.988 . S
Mg101 O119 2.061 . S
Mg102 O100 1.986 . S
Mg102 O110 2.238 . S
Mg102 O114 2.042 . S
Mg102 O116 2.041 . S
Mg102 O123 2.038 . S
C103 O109 1.247 . S
C103 O110 1.289 . S
C104 O122 1.245 . S
C104 O123 1.274 . S
O105 C93 1.241 1_556 S
O105 Mg98 2.042 . S
O106 C93 1.280 1_556 S
O106 Mg96 1.984 . S
O107 C94 1.277 . S
O107 Mg98 2.041 . S
O108 C94 1.245 . S
O108 Mg96 1.988 . S
O109 Mg96 2.061 . S
O109 C103 1.247 . S
O110 Mg99 2.106 . S
O110 Mg102 2.238 . S
O110 C103 1.289 . S
C111 O112 1.245 . S
C111 O113 1.274 . S
O112 Mg99 2.079 . S
O112 C111 1.245 . S
O113 Mg98 2.038 . S
O113 C111 1.274 . S
O114 Mg102 2.042 . S
O114 C117 1.241 . S
O115 Mg101 1.984 . S
O115 C117 1.280 . S
O116 Mg102 2.041 . S
O116 C120 1.277 . S
C117 O114 1.241 . S
C117 O115 1.280 . S
O118 Mg101 1.988 . S
O118 C120 1.245 . S
O119 C95 1.247 . S
O119 Mg101 2.061 . S
C120 O116 1.277 . S
C120 O118 1.245 . S
O121 C95 1.289 . S
O121 Mg98 2.238 . S
O121 Mg99 2.106 . S
O122 Mg99 2.079 . S
O122 C104 1.245 . S
O123 Mg102 2.038 . S
O123 C104 1.274 . S
H124 C136 0.930 1_655 S
H125 C138 0.930 . S
H126 C139 0.930 . S
H127 C143 0.959 . S
H128 C143 0.959 . S
H129 C143 0.961 . S
H130 C144 0.960 . S
H131 C144 0.961 . S
H132 C144 0.959 . S
H133 C147 0.929 . S
H134 C148 0.931 . S
H135 C150 0.930 . S
C136 H124 0.930 1_455 S
C136 C137 1.399 . S
C136 C141 1.399 . S
C137 C136 1.399 . S
C137 C138 1.376 . S
C138 H125 0.930 . S
C138 C137 1.376 . S
C138 C139 1.388 . S
C139 H126 0.930 . S
C139 C138 1.388 . S
C139 C140 1.390 . S
C140 C139 1.390 . S
C140 C141 1.394 . S
C140 C146 1.465 . S
C141 C136 1.399 . S
C141 C140 1.394 . S
C141 C142 1.516 1_455 S
C142 C141 1.516 1_655 S
C142 C143 1.502 . S
C142 C144 1.561 1_655 S
C142 C145 1.526 1_655 S
C143 H127 0.959 . S
C143 H128 0.959 . S
C143 H129 0.961 . S
C143 C142 1.502 . S
C144 H130 0.960 . S
C144 H131 0.961 . S
C144 H132 0.959 . S
C144 C142 1.561 1_455 S
C145 C142 1.526 1_455 S
C145 C146 1.396 . S
C145 C150 1.390 1_455 S
C146 C140 1.465 . S
C146 C145 1.396 . S
C146 C147 1.399 . S
C147 H133 0.929 . S
C147 C146 1.399 . S
C147 C148 1.385 . S
C148 H134 0.931 . S
C148 C147 1.385 . S
C148 C149 1.389 . S
C149 C148 1.389 . S
C149 C150 1.387 1_455 S
C150 H135 0.930 . S
C150 C145 1.390 1_655 S
C150 C149 1.387 1_655 S
H151 C163 0.930 1_655 S
H152 C165 0.930 . S
H153 C166 0.930 . S
H154 C170 0.959 . S
H155 C170 0.959 . S
H156 C170 0.961 . S
H157 C171 0.960 . S
H158 C171 0.961 . S
H159 C171 0.959 . S
H160 C174 0.929 . S
H161 C175 0.931 . S
H162 C177 0.930 . S
C163 H151 0.930 1_455 S
C163 C164 1.399 . S
C163 C168 1.399 . S
C164 C163 1.399 . S
C164 C165 1.376 . S
C165 H152 0.930 . S
C165 C164 1.376 . S
C165 C166 1.388 . S
C166 H153 0.930 . S
C166 C165 1.388 . S
C166 C167 1.390 . S
C167 C166 1.390 . S
C167 C168 1.394 . S
C167 C173 1.465 . S
C168 C163 1.399 . S
C168 C167 1.394 . S
C168 C169 1.516 1_455 S
C169 C168 1.516 1_655 S
C169 C170 1.502 . S
C169 C171 1.561 1_655 S
C169 C172 1.526 1_655 S
C170 H154 0.959 . S
C170 H155 0.959 . S
C170 H156 0.961 . S
C170 C169 1.502 . S
C171 H157 0.960 . S
C171 H158 0.961 . S
C171 H159 0.959 . S
C171 C169 1.561 1_455 S
C172 C169 1.526 1_455 S
C172 C173 1.396 . S
C172 C177 1.390 1_455 S
C173 C167 1.465 . S
C173 C172 1.396 . S
C173 C174 1.399 . S
C174 H160 0.929 . S
C174 C173 1.399 . S
C174 C175 1.385 . S
C175 H161 0.931 . S
C175 C174 1.385 . S
C175 C176 1.389 . S
C176 C175 1.389 . S
C176 C177 1.387 1_455 S
C177 H162 0.930 . S
C177 C172 1.390 1_655 S
C177 C176 1.387 1_655 S
H178 C190 0.930 . S
H179 C192 0.930 . S
H180 C193 0.930 . S
H181 C197 0.959 . S
H182 C197 0.959 . S
H183 C197 0.961 . S
H184 C198 0.960 . S
H185 C198 0.961 . S
H186 C198 0.959 . S
H187 C201 0.929 . S
H188 C202 0.931 . S
H189 C204 0.930 . S
C190 H178 0.930 . S
C190 C191 1.399 . S
C190 C195 1.399 . S
C191 C190 1.399 . S
C191 C192 1.376 . S
C192 H179 0.930 . S
C192 C191 1.376 . S
C192 C193 1.388 . S
C193 H180 0.930 . S
C193 C192 1.388 . S
C193 C194 1.390 . S
C194 C193 1.390 . S
C194 C195 1.394 . S
C194 C200 1.465 . S
C195 C190 1.399 . S
C195 C194 1.394 . S
C195 C196 1.516 . S
C196 C195 1.516 . S
C196 C197 1.502 . S
C196 C198 1.561 . S
C196 C199 1.526 . S
C197 H181 0.959 . S
C197 H182 0.959 . S
C197 H183 0.961 . S
C197 C196 1.502 . S
C198 H184 0.960 . S
C198 H185 0.961 . S
C198 H186 0.959 . S
C198 C196 1.561 . S
C199 C196 1.526 . S
C199 C200 1.396 . S
C199 C204 1.390 . S
C200 C194 1.465 . S
C200 C199 1.396 . S
C200 C201 1.399 . S
C201 H187 0.929 . S
C201 C200 1.399 . S
C201 C202 1.385 . S
C202 H188 0.931 . S
C202 C201 1.385 . S
C202 C203 1.389 . S
C203 C202 1.389 . S
C203 C204 1.387 . S
C204 H189 0.930 . S
C204 C199 1.390 . S
C204 C203 1.387 . S
H205 C217 0.930 . S
H206 C219 0.930 . S
H207 C220 0.930 . S
H208 C224 0.959 . S
H209 C224 0.959 . S
H210 C224 0.961 . S
H211 C225 0.960 . S
H212 C225 0.961 . S
H213 C225 0.959 . S
H214 C228 0.929 . S
H215 C229 0.931 . S
H216 C231 0.930 . S
C217 H205 0.930 . S
C217 C218 1.399 . S
C217 C222 1.399 . S
C218 C217 1.399 . S
C218 C219 1.376 . S
C219 H206 0.930 . S
C219 C218 1.376 . S
C219 C220 1.388 . S
C220 H207 0.930 . S
C220 C219 1.388 . S
C220 C221 1.390 . S
C221 C220 1.390 . S
C221 C222 1.394 . S
C221 C227 1.465 . S
C222 C217 1.399 . S
C222 C221 1.394 . S
C222 C223 1.516 . S
C223 C222 1.516 . S
C223 C224 1.502 . S
C223 C225 1.561 . S
C223 C226 1.526 . S
C224 H208 0.959 . S
C224 H209 0.959 . S
C224 H210 0.961 . S
C224 C223 1.502 . S
C225 H211 0.960 . S
C225 H212 0.961 . S
C225 H213 0.959 . S
C225 C223 1.561 . S
C226 C223 1.526 . S
C226 C227 1.396 . S
C226 C231 1.390 . S
C227 C221 1.465 . S
C227 C226 1.396 . S
C227 C228 1.399 . S
C228 H214 0.929 . S
C228 C227 1.399 . S
C228 C229 1.385 . S
C229 H215 0.931 . S
C229 C228 1.385 . S
C229 C230 1.389 . S
C230 C229 1.389 . S
C230 C231 1.387 . S
C231 H216 0.930 . S
C231 C226 1.390 . S
C231 C230 1.387 . S
H232 C244 0.930 . S
H233 C246 0.930 . S
H234 C247 0.930 . S
H235 C251 0.959 . S
H236 C251 0.959 . S
H237 C251 0.961 . S
H238 C252 0.960 . S
H239 C252 0.961 . S
H240 C252 0.959 . S
H241 C255 0.929 . S
H242 C256 0.931 . S
H243 C258 0.930 . S
C244 H232 0.930 . S
C244 C245 1.399 . S
C244 C249 1.399 . S
C245 C244 1.399 . S
C245 C246 1.376 . S
C246 H233 0.930 . S
C246 C245 1.376 . S
C246 C247 1.388 . S
C247 H234 0.930 . S
C247 C246 1.388 . S
C247 C248 1.390 . S
C248 C247 1.390 . S
C248 C249 1.394 . S
C248 C254 1.465 . S
C249 C244 1.399 . S
C249 C248 1.394 . S
C249 C250 1.516 . S
C250 C249 1.516 . S
C250 C251 1.502 . S
C250 C252 1.561 . S
C250 C253 1.526 . S
C251 H235 0.959 . S
C251 H236 0.959 . S
C251 H237 0.961 . S
C251 C250 1.502 . S
C252 H238 0.960 . S
C252 H239 0.961 . S
C252 H240 0.959 . S
C252 C250 1.561 . S
C253 C250 1.526 . S
C253 C254 1.396 . S
C253 C258 1.390 . S
C254 C248 1.465 . S
C254 C253 1.396 . S
C254 C255 1.399 . S
C255 H241 0.929 . S
C255 C254 1.399 . S
C255 C256 1.385 . S
C256 H242 0.931 . S
C256 C255 1.385 . S
C256 C257 1.389 . S
C257 C256 1.389 . S
C257 C258 1.387 . S
C258 H243 0.930 . S
C258 C253 1.390 . S
C258 C257 1.387 . S
H259 C271 0.930 . S
H260 C273 0.930 . S
H261 C274 0.930 . S
H262 C278 0.959 . S
H263 C278 0.959 . S
H264 C278 0.961 . S
H265 C279 0.960 . S
H266 C279 0.961 . S
H267 C279 0.959 . S
H268 C282 0.929 . S
H269 C283 0.931 . S
H270 C285 0.930 . S
C271 H259 0.930 . S
C271 C272 1.399 . S
C271 C276 1.399 . S
C272 C271 1.399 . S
C272 C273 1.376 . S
C273 H260 0.930 . S
C273 C272 1.376 . S
C273 C274 1.388 . S
C274 H261 0.930 . S
C274 C273 1.388 . S
C274 C275 1.390 . S
C275 C274 1.390 . S
C275 C276 1.394 . S
C275 C281 1.465 . S
C276 C271 1.399 . S
C276 C275 1.394 . S
C276 C277 1.516 . S
C277 C276 1.516 . S
C277 C278 1.502 . S
C277 C279 1.561 . S
C277 C280 1.526 . S
C278 H262 0.959 . S
C278 H263 0.959 . S
C278 H264 0.961 . S
C278 C277 1.502 . S
C279 H265 0.960 . S
C279 H266 0.961 . S
C279 H267 0.959 . S
C279 C277 1.561 . S
C280 C277 1.526 . S
C280 C281 1.396 . S
C280 C285 1.390 . S
C281 C275 1.465 . S
C281 C280 1.396 . S
C281 C282 1.399 . S
C282 H268 0.929 . S
C282 C281 1.399 . S
C282 C283 1.385 . S
C283 H269 0.931 . S
C283 C282 1.385 . S
C283 C284 1.389 . S
C284 C283 1.389 . S
C284 C285 1.387 . S
C285 H270 0.930 . S
C285 C280 1.390 . S
C285 C284 1.387 . S
H286 C298 0.930 . S
H287 C300 0.930 . S
H288 C301 0.930 . S
H289 C305 0.959 . S
H290 C305 0.959 . S
H291 C305 0.961 1_655 S
H292 C306 0.960 . S
H293 C306 0.961 1_455 S
H294 C306 0.959 . S
H295 C309 0.929 . S
H296 C310 0.931 . S
H297 C312 0.930 . S
C298 H286 0.930 . S
C298 C299 1.399 . S
C298 C303 1.399 . S
C299 C298 1.399 . S
C299 C300 1.376 . S
C300 H287 0.930 . S
C300 C299 1.376 . S
C300 C301 1.388 . S
C301 H288 0.930 . S
C301 C300 1.388 . S
C301 C302 1.390 . S
C302 C301 1.390 . S
C302 C303 1.394 . S
C302 C308 1.465 1_655 S
C303 C298 1.399 . S
C303 C302 1.394 . S
C303 C304 1.516 1_655 S
C304 C303 1.516 1_455 S
C304 C305 1.502 . S
C304 C306 1.561 1_455 S
C304 C307 1.526 . S
C305 H289 0.959 . S
C305 H290 0.959 . S
C305 H291 0.961 1_455 S
C305 C304 1.502 . S
C306 H292 0.960 . S
C306 H293 0.961 1_655 S
C306 H294 0.959 . S
C306 C304 1.561 1_655 S
C307 C304 1.526 . S
C307 C308 1.396 . S
C307 C312 1.390 . S
C308 C302 1.465 1_455 S
C308 C307 1.396 . S
C308 C309 1.399 . S
C309 H295 0.929 . S
C309 C308 1.399 . S
C309 C310 1.385 . S
C310 H296 0.931 . S
C310 C309 1.385 . S
C310 C311 1.389 . S
C311 C310 1.389 . S
C311 C312 1.387 . S
C312 H297 0.930 . S
C312 C307 1.390 . S
C312 C311 1.387 . S
H313 C325 0.930 . S
H314 C327 0.930 . S
H315 C328 0.930 . S
H316 C332 0.959 . S
H317 C332 0.959 . S
H318 C332 0.961 . S
H319 C333 0.960 . S
H320 C333 0.961 . S
H321 C333 0.959 . S
H322 C336 0.929 . S
H323 C337 0.931 . S
H324 C339 0.930 . S
C325 H313 0.930 . S
C325 C326 1.399 . S
C325 C330 1.399 . S
C326 C325 1.399 . S
C326 C327 1.376 . S
C327 H314 0.930 . S
C327 C326 1.376 . S
C327 C328 1.388 . S
C328 H315 0.930 . S
C328 C327 1.388 . S
C328 C329 1.390 . S
C329 C328 1.390 . S
C329 C330 1.394 . S
C329 C335 1.465 1_655 S
C330 C325 1.399 . S
C330 C329 1.394 . S
C330 C331 1.516 1_655 S
C331 C330 1.516 1_455 S
C331 C332 1.502 . S
C331 C333 1.561 . S
C331 C334 1.526 . S
C332 H316 0.959 . S
C332 H317 0.959 . S
C332 H318 0.961 . S
C332 C331 1.502 . S
C333 H319 0.960 . S
C333 H320 0.961 . S
C333 H321 0.959 . S
C333 C331 1.561 . S
C334 C331 1.526 . S
C334 C335 1.396 . S
C334 C339 1.390 . S
C335 C329 1.465 1_455 S
C335 C334 1.396 . S
C335 C336 1.399 . S
C336 H322 0.929 . S
C336 C335 1.399 . S
C336 C337 1.385 . S
C337 H323 0.931 . S
C337 C336 1.385 . S
C337 C338 1.389 . S
C338 C337 1.389 . S
C338 C339 1.387 . S
C339 H324 0.930 . S
C339 C334 1.390 . S
C339 C338 1.387 . S
H340 C352 0.930 . S
H341 C354 0.930 . S
H342 C355 0.930 . S
H343 C359 0.959 . S
H344 C359 0.959 . S
H345 C359 0.961 . S
H346 C360 0.960 . S
H347 C360 0.961 . S
H348 C360 0.959 . S
H349 C363 0.929 . S
H350 C364 0.931 . S
H351 C366 0.930 . S
C352 H340 0.930 . S
C352 C353 1.399 . S
C352 C357 1.399 . S
C353 C352 1.399 . S
C353 C354 1.376 . S
C354 H341 0.930 . S
C354 C353 1.376 . S
C354 C355 1.388 . S
C355 H342 0.930 . S
C355 C354 1.388 . S
C355 C356 1.390 . S
C356 C355 1.390 . S
C356 C357 1.394 . S
C356 C362 1.465 . S
C357 C352 1.399 . S
C357 C356 1.394 . S
C357 C358 1.516 . S
C358 C357 1.516 . S
C358 C359 1.502 . S
C358 C360 1.561 . S
C358 C361 1.526 . S
C359 H343 0.959 . S
C359 H344 0.959 . S
C359 H345 0.961 . S
C359 C358 1.502 . S
C360 H346 0.960 . S
C360 H347 0.961 . S
C360 H348 0.959 . S
C360 C358 1.561 . S
C361 C358 1.526 . S
C361 C362 1.396 . S
C361 C366 1.390 . S
C362 C356 1.465 . S
C362 C361 1.396 . S
C362 C363 1.399 . S
C363 H349 0.929 . S
C363 C362 1.399 . S
C363 C364 1.385 . S
C364 H350 0.931 . S
C364 C363 1.385 . S
C364 C365 1.389 . S
C365 C364 1.389 . S
C365 C366 1.387 . S
C366 H351 0.930 . S
C366 C361 1.390 . S
C366 C365 1.387 . S
H367 C379 0.930 . S
H368 C381 0.930 1_554 S
H369 C382 0.930 . S
H370 C386 0.959 . S
H371 C386 0.959 . S
H372 C386 0.961 . S
H373 C387 0.960 . S
H374 C387 0.961 . S
H375 C387 0.959 . S
H376 C390 0.929 . S
H377 C391 0.931 . S
H378 C393 0.930 1_556 S
C379 H367 0.930 . S
C379 C380 1.399 . S
C379 C384 1.399 . S
C380 C379 1.399 . S
C380 C381 1.376 . S
C381 H368 0.930 1_556 S
C381 C380 1.376 . S
C381 C382 1.388 1_556 S
C382 H369 0.930 . S
C382 C381 1.388 1_554 S
C382 C383 1.390 . S
C383 C382 1.390 . S
C383 C384 1.394 1_554 S
C383 C389 1.465 . S
C384 C379 1.399 . S
C384 C383 1.394 1_556 S
C384 C385 1.516 . S
C385 C384 1.516 . S
C385 C386 1.502 . S
C385 C387 1.561 . S
C385 C388 1.526 1_556 S
C386 H370 0.959 . S
C386 H371 0.959 . S
C386 H372 0.961 . S
C386 C385 1.502 . S
C387 H373 0.960 . S
C387 H374 0.961 . S
C387 H375 0.959 . S
C387 C385 1.561 . S
C388 C385 1.526 1_554 S
C388 C389 1.396 . S
C388 C393 1.390 . S
C389 C383 1.465 . S
C389 C388 1.396 . S
C389 C390 1.399 . S
C390 H376 0.929 . S
C390 C389 1.399 . S
C390 C391 1.385 . S
C391 H377 0.931 . S
C391 C390 1.385 . S
C391 C392 1.389 . S
C392 C391 1.389 . S
C392 C393 1.387 . S
C393 H378 0.930 1_554 S
C393 C388 1.390 . S
C393 C392 1.387 . S
H394 C406 0.930 . S
H395 C408 0.930 . S
H396 C409 0.930 . S
H397 C413 0.959 . S
H398 C413 0.959 . S
H399 C413 0.961 . S
H400 C414 0.960 . S
H401 C414 0.961 . S
H402 C414 0.959 . S
H403 C417 0.929 . S
H404 C418 0.931 1_455 S
H405 C420 0.930 . S
C406 H394 0.930 . S
C406 C407 1.399 . S
C406 C411 1.399 . S
C407 C406 1.399 . S
C407 C408 1.376 . S
C408 H395 0.930 . S
C408 C407 1.376 . S
C408 C409 1.388 . S
C409 H396 0.930 . S
C409 C408 1.388 . S
C409 C410 1.390 . S
C410 C409 1.390 . S
C410 C411 1.394 . S
C410 C416 1.465 . S
C411 C406 1.399 . S
C411 C410 1.394 . S
C411 C412 1.516 . S
C412 C411 1.516 . S
C412 C413 1.502 . S
C412 C414 1.561 . S
C412 C415 1.526 . S
C413 H397 0.959 . S
C413 H398 0.959 . S
C413 H399 0.961 . S
C413 C412 1.502 . S
C414 H400 0.960 . S
C414 H401 0.961 . S
C414 H402 0.959 . S
C414 C412 1.561 . S
C415 C412 1.526 . S
C415 C416 1.396 . S
C415 C420 1.390 . S
C416 C410 1.465 . S
C416 C415 1.396 . S
C416 C417 1.399 . S
C417 H403 0.929 . S
C417 C416 1.399 . S
C417 C418 1.385 . S
C418 H404 0.931 1_655 S
C418 C417 1.385 . S
C418 C419 1.389 . S
C419 C418 1.389 . S
C419 C420 1.387 . S
C420 H405 0.930 . S
C420 C415 1.390 . S
C420 C419 1.387 . S
H421 C433 0.930 . S
H422 C435 0.930 . S
H423 C436 0.930 . S
H424 C440 0.959 . S
H425 C440 0.959 . S
H426 C440 0.961 . S
H427 C441 0.960 . S
H428 C441 0.961 . S
H429 C441 0.959 . S
H430 C444 0.929 . S
H431 C445 0.931 . S
H432 C447 0.930 . S
C433 H421 0.930 . S
C433 C434 1.399 . S
C433 C438 1.399 . S
C434 C433 1.399 . S
C434 C435 1.376 . S
C435 H422 0.930 . S
C435 C434 1.376 . S
C435 C436 1.388 1_554 S
C436 H423 0.930 . S
C436 C435 1.388 1_556 S
C436 C437 1.390 1_556 S
C437 C436 1.390 1_554 S
C437 C438 1.394 . S
C437 C443 1.465 1_554 S
C438 C433 1.399 . S
C438 C437 1.394 . S
C438 C439 1.516 . S
C439 C438 1.516 . S
C439 C440 1.502 . S
C439 C441 1.561 . S
C439 C442 1.526 1_554 S
C440 H424 0.959 . S
C440 H425 0.959 . S
C440 H426 0.961 . S
C440 C439 1.502 . S
C441 H427 0.960 . S
C441 H428 0.961 . S
C441 H429 0.959 . S
C441 C439 1.561 . S
C442 C439 1.526 1_556 S
C442 C443 1.396 . S
C442 C447 1.390 . S
C443 C437 1.465 1_556 S
C443 C442 1.396 . S
C443 C444 1.399 . S
C444 H430 0.929 . S
C444 C443 1.399 . S
C444 C445 1.385 . S
C445 H431 0.931 . S
C445 C444 1.385 . S
C445 C446 1.389 . S
C446 C445 1.389 . S
C446 C447 1.387 . S
C447 H432 0.930 . S
C447 C442 1.390 . S
C447 C446 1.387 . S
H448 C460 0.930 1_556 S
H449 C462 0.930 . S
H450 C463 0.930 . S
H451 C467 0.959 . S
H452 C467 0.959 . S
H453 C467 0.961 1_545 S
H454 C468 0.960 1_655 S
H455 C468 0.961 1_655 S
H456 C468 0.959 . S
H457 C471 0.929 . S
H458 C472 0.931 . S
H459 C474 0.930 1_655 S
C460 H448 0.930 1_554 S
C460 C461 1.399 . S
C460 C465 1.399 . S
C461 C460 1.399 . S
C461 C462 1.376 1_655 S
C462 H449 0.930 . S
C462 C461 1.376 1_455 S
C462 C463 1.388 . S
C463 H450 0.930 . S
C463 C462 1.388 . S
C463 C464 1.390 . S
C464 C463 1.390 . S
C464 C465 1.394 1_455 S
C464 C470 1.465 1_545 S
C465 C460 1.399 . S
C465 C464 1.394 1_655 S
C465 C466 1.516 1_554 S
C466 C465 1.516 1_556 S
C466 C467 1.502 1_545 S
C466 C468 1.561 1_655 S
C466 C469 1.526 1_645 S
C467 H451 0.959 . S
C467 H452 0.959 . S
C467 H453 0.961 1_565 S
C467 C466 1.502 1_565 S
C468 H454 0.960 1_455 S
C468 H455 0.961 1_455 S
C468 H456 0.959 . S
C468 C466 1.561 1_455 S
C469 C466 1.526 1_465 S
C469 C470 1.396 1_556 S
C469 C474 1.390 . S
C470 C464 1.465 1_565 S
C470 C469 1.396 1_554 S
C470 C471 1.399 . S
C471 H457 0.929 . S
C471 C470 1.399 . S
C471 C472 1.385 1_554 S
C472 H458 0.931 . S
C472 C471 1.385 1_556 S
C472 C473 1.389 . S
C473 C472 1.389 . S
C473 C474 1.387 . S
C474 H459 0.930 1_455 S
C474 C469 1.390 . S
C474 C473 1.387 . S
H475 C487 0.930 . S
H476 C489 0.930 . S
H477 C490 0.930 . S
H478 C494 0.959 . S
H479 C494 0.959 . S
H480 C494 0.961 . S
H481 C495 0.960 . S
H482 C495 0.961 1_655 S
H483 C495 0.959 . S
H484 C498 0.929 1_545 S
H485 C499 0.931 . S
H486 C501 0.930 . S
C487 H475 0.930 . S
C487 C488 1.399 . S
C487 C492 1.399 . S
C488 C487 1.399 . S
C488 C489 1.376 . S
C489 H476 0.930 . S
C489 C488 1.376 . S
C489 C490 1.388 . S
C490 H477 0.930 . S
C490 C489 1.388 . S
C490 C491 1.390 . S
C491 C490 1.390 . S
C491 C492 1.394 . S
C491 C497 1.465 1_545 S
C492 C487 1.399 . S
C492 C491 1.394 . S
C492 C493 1.516 1_445 S
C493 C492 1.516 1_665 S
C493 C494 1.502 . S
C493 C495 1.561 1_655 S
C493 C496 1.526 . S
C494 H478 0.959 . S
C494 H479 0.959 . S
C494 H480 0.961 . S
C494 C493 1.502 . S
C495 H481 0.960 . S
C495 H482 0.961 1_455 S
C495 H483 0.959 . S
C495 C493 1.561 1_455 S
C496 C493 1.526 . S
C496 C497 1.396 1_655 S
C496 C501 1.390 . S
C497 C491 1.465 1_565 S
C497 C496 1.396 1_455 S
C497 C498 1.399 . S
C498 H484 0.929 1_565 S
C498 C497 1.399 . S
C498 C499 1.385 . S
C499 H485 0.931 . S
C499 C498 1.385 . S
C499 C500 1.389 1_455 S
C500 C499 1.389 1_655 S
C500 C501 1.387 . S
C501 H486 0.930 . S
C501 C496 1.390 . S
C501 C500 1.387 . S
H502 C514 0.930 . S
H503 C516 0.935 . S
H504 C517 0.930 . S
H505 C521 0.959 . S
H506 C521 0.959 . S
H507 C521 0.961 . S
H508 C522 0.960 . S
H509 C522 0.961 . S
H510 C522 0.959 . S
H511 C525 0.929 . S
H512 C526 0.931 . S
H513 C528 0.930 1_554 S
C514 H502 0.930 . S
C514 C515 1.399 . S
C514 C519 1.399 . S
C515 C514 1.399 . S
C515 C516 1.376 . S
C516 H503 0.935 . S
C516 C515 1.376 . S
C516 C517 1.388 1_554 S
C517 H504 0.930 . S
C517 C516 1.388 1_556 S
C517 C518 1.390 . S
C518 C517 1.390 . S
C518 C519 1.394 1_556 S
C518 C524 1.465 . S
C519 C514 1.399 . S
C519 C518 1.394 1_554 S
C519 C520 1.516 . S
C520 C519 1.516 . S
C520 C521 1.502 . S
C520 C522 1.561 . S
C520 C523 1.526 1_554 S
C521 H505 0.959 . S
C521 H506 0.959 . S
C521 H507 0.961 . S
C521 C520 1.502 . S
C522 H508 0.960 . S
C522 H509 0.961 . S
C522 H510 0.959 . S
C522 C520 1.561 . S
C523 C520 1.526 1_556 S
C523 C524 1.396 . S
C523 C528 1.390 . S
C524 C518 1.465 . S
C524 C523 1.396 . S
C524 C525 1.399 . S
C525 H511 0.929 . S
C525 C524 1.399 . S
C525 C526 1.385 . S
C526 H512 0.931 . S
C526 C525 1.385 . S
C526 C527 1.389 . S
C527 C526 1.389 . S
C527 C528 1.387 . S
C528 H513 0.930 1_556 S
C528 C523 1.390 . S
C528 C527 1.387 . S
H529 C541 0.930 . S
H530 C543 0.930 . S
H531 C544 0.930 . S
H532 C548 0.959 . S
H533 C548 0.959 . S
H534 C548 0.961 . S
H535 C549 0.960 . S
H536 C549 0.961 . S
H537 C549 0.959 . S
H538 C552 0.929 . S
H539 C553 0.931 . S
H540 C555 0.930 . S
C541 H529 0.930 . S
C541 C542 1.399 . S
C541 C546 1.399 . S
C542 C541 1.399 . S
C542 C543 1.376 . S
C543 H530 0.930 . S
C543 C542 1.376 . S
C543 C544 1.388 . S
C544 H531 0.930 . S
C544 C543 1.388 . S
C544 C545 1.390 . S
C545 C544 1.390 . S
C545 C546 1.394 . S
C545 C551 1.465 . S
C546 C541 1.399 . S
C546 C545 1.394 . S
C546 C547 1.516 . S
C547 C546 1.516 . S
C547 C548 1.502 . S
C547 C549 1.561 . S
C547 C550 1.526 . S
C548 H532 0.959 . S
C548 H533 0.959 . S
C548 H534 0.961 . S
C548 C547 1.502 . S
C549 H535 0.960 . S
C549 H536 0.961 . S
C549 H537 0.959 . S
C549 C547 1.561 . S
C550 C547 1.526 . S
C550 C551 1.396 . S
C550 C555 1.390 . S
C551 C545 1.465 . S
C551 C550 1.396 . S
C551 C552 1.399 . S
C552 H538 0.929 . S
C552 C551 1.399 . S
C552 C553 1.385 . S
C553 H539 0.931 . S
C553 C552 1.385 . S
C553 C554 1.389 . S
C554 C553 1.389 . S
C554 C555 1.387 . S
C555 H540 0.930 . S
C555 C550 1.390 . S
C555 C554 1.387 . S
C137 C24 1.307 . S
C149 C0 1.210 . S
C164 C55 1.307 . S
C176 C31 1.210 . S
C191 C86 1.215 . S
C203 C62 1.309 . S
C218 C93 1.242 . S
C230 C117 1.292 . S
C245 C10 0.913 . S
C257 C2 1.015 . S
C272 C41 1.014 . S
C284 C33 0.919 . S
C299 C64 0.934 . S
C311 C72 1.004 . S
C326 C95 1.004 . S
C338 C103 0.936 . S
C353 C104 1.683 . S
C365 C18 1.595 . S
C380 C94 1.954 . S
C392 C27 2.000 . S
C407 C80 1.608 . S
C419 C42 1.657 . S
C434 C89 1.977 . S
C446 C32 1.987 . S
C461 C11 2.129 . S
C473 C49 2.119 . S
C488 C1 1.340 . S
C500 C58 1.351 . S
C515 C73 2.116 . S
C527 C111 2.141 . S
C542 C120 1.275 . S
C554 C63 1.399 . S
