# Generated by pormake.
# Topology uoz, (4)-cn, num edge types: 1
# Building blocks:
#     Node 0, Type 0, BuildingBlock: QUQFOY_clean_sbu_3, # of connection points: 4
#     Node 1, Type 0, BuildingBlock: QUQFOY_clean_sbu_3, # of connection points: 4
#     Node 2, Type 0, BuildingBlock: QUQFOY_clean_sbu_3, # of connection points: 4
#     Node 3, Type 0, BuildingBlock: QUQFOY_clean_sbu_3, # of connection points: 4
#     Node 4, Type 0, BuildingBlock: QUQFOY_clean_sbu_3, # of connection points: 4
#     Node 5, Type 0, BuildingBlock: QUQFOY_clean_sbu_3, # of connection points: 4
#     Node 6, Type 0, BuildingBlock: QUQFOY_clean_sbu_3, # of connection points: 4
#     Node 7, Type 0, BuildingBlock: QUQFOY_clean_sbu_3, # of connection points: 4
#     Node 8, Type 0, BuildingBlock: QUQFOY_clean_sbu_3, # of connection points: 4
#     Node 9, Type 0, BuildingBlock: QUQFOY_clean_sbu_3, # of connection points: 4
#     Node 10, Type 0, BuildingBlock: QUQFOY_clean_sbu_3, # of connection points: 4
#     Node 11, Type 0, BuildingBlock: QUQFOY_clean_sbu_3, # of connection points: 4
#     Node 12, Type 0, BuildingBlock: QUQFOY_clean_sbu_3, # of connection points: 4
#     Node 13, Type 0, BuildingBlock: QUQFOY_clean_sbu_3, # of connection points: 4
#     Node 14, Type 0, BuildingBlock: QUQFOY_clean_sbu_3, # of connection points: 4
#     Node 15, Type 0, BuildingBlock: QUQFOY_clean_sbu_3, # of connection points: 4
#     Edge 16, Type (0, 0), BuildingBlock: TEMPAE_clean_linker_10, # of connection points: 2
#     Edge 17, Type (0, 0), BuildingBlock: TEMPAE_clean_linker_10, # of connection points: 2
#     Edge 18, Type (0, 0), BuildingBlock: TEMPAE_clean_linker_10, # of connection points: 2
#     Edge 19, Type (0, 0), BuildingBlock: TEMPAE_clean_linker_10, # of connection points: 2
#     Edge 20, Type (0, 0), BuildingBlock: TEMPAE_clean_linker_10, # of connection points: 2
#     Edge 21, Type (0, 0), BuildingBlock: TEMPAE_clean_linker_10, # of connection points: 2
#     Edge 22, Type (0, 0), BuildingBlock: TEMPAE_clean_linker_10, # of connection points: 2
#     Edge 23, Type (0, 0), BuildingBlock: TEMPAE_clean_linker_10, # of connection points: 2
#     Edge 24, Type (0, 0), BuildingBlock: TEMPAE_clean_linker_10, # of connection points: 2
#     Edge 25, Type (0, 0), BuildingBlock: TEMPAE_clean_linker_10, # of connection points: 2
#     Edge 26, Type (0, 0), BuildingBlock: TEMPAE_clean_linker_10, # of connection points: 2
#     Edge 27, Type (0, 0), BuildingBlock: TEMPAE_clean_linker_10, # of connection points: 2
#     Edge 28, Type (0, 0), BuildingBlock: TEMPAE_clean_linker_10, # of connection points: 2
#     Edge 29, Type (0, 0), BuildingBlock: TEMPAE_clean_linker_10, # of connection points: 2
#     Edge 30, Type (0, 0), BuildingBlock: TEMPAE_clean_linker_10, # of connection points: 2
#     Edge 31, Type (0, 0), BuildingBlock: TEMPAE_clean_linker_10, # of connection points: 2
#     Edge 32, Type (0, 0), BuildingBlock: TEMPAE_clean_linker_10, # of connection points: 2
#     Edge 33, Type (0, 0), BuildingBlock: TEMPAE_clean_linker_10, # of connection points: 2
#     Edge 34, Type (0, 0), BuildingBlock: TEMPAE_clean_linker_10, # of connection points: 2
#     Edge 35, Type (0, 0), BuildingBlock: TEMPAE_clean_linker_10, # of connection points: 2
#     Edge 36, Type (0, 0), BuildingBlock: TEMPAE_clean_linker_10, # of connection points: 2
#     Edge 37, Type (0, 0), BuildingBlock: TEMPAE_clean_linker_10, # of connection points: 2
#     Edge 38, Type (0, 0), BuildingBlock: TEMPAE_clean_linker_10, # of connection points: 2
#     Edge 39, Type (0, 0), BuildingBlock: TEMPAE_clean_linker_10, # of connection points: 2
#     Edge 40, Type (0, 0), BuildingBlock: TEMPAE_clean_linker_10, # of connection points: 2
#     Edge 41, Type (0, 0), BuildingBlock: TEMPAE_clean_linker_10, # of connection points: 2
#     Edge 42, Type (0, 0), BuildingBlock: TEMPAE_clean_linker_10, # of connection points: 2
#     Edge 43, Type (0, 0), BuildingBlock: TEMPAE_clean_linker_10, # of connection points: 2
#     Edge 44, Type (0, 0), BuildingBlock: TEMPAE_clean_linker_10, # of connection points: 2
#     Edge 45, Type (0, 0), BuildingBlock: TEMPAE_clean_linker_10, # of connection points: 2
#     Edge 46, Type (0, 0), BuildingBlock: TEMPAE_clean_linker_10, # of connection points: 2
#     Edge 47, Type (0, 0), BuildingBlock: TEMPAE_clean_linker_10, # of connection points: 2
# Relax obj value: 0.179
# Max RMSD: 0.165
# Mean RMSD: 0.165
data_MOF--net-uoz--node1-QUQFOY_clean_sbu_3--edge1-TEMPAE_clean_linker_10
_symmetry_space_group_name_H-M    P1
_symmetry_Int_Tables_number       1
_symmetry_cell_setting            triclinic
loop_
_symmetry_equiv_pos_as_xyz
'x, y, z'
_cell_length_a     62.694698
_cell_length_b     62.695012
_cell_length_c     22.377146
_cell_angle_alpha  89.925218
_cell_angle_beta   89.952011
_cell_angle_gamma 90.008007
loop_
_atom_site_label
_atom_site_type_symbol
_atom_site_fract_x
_atom_site_fract_y
_atom_site_fract_z
_atom_type_partial_charge
C0 C 0.9483 0.57864 0.18454 0.0
O1 O 0.95601 0.57146 0.13615 0.0
Cd2 Cd 0.99133 0.55804 0.12763 0.0
O3 O 0.95851 0.57698 0.23359 0.0
Cd4 Cd -0.00763 0.561 0.27131 0.0
C5 C 0.01589 0.6011 0.19733 0.0
O6 O -0.00158 0.53243 0.20308 0.0
O7 O 0.02667 0.54444 0.24682 0.0
O8 O 0.97207 0.53811 0.33573 0.0
C9 C 0.01825 0.53059 0.21303 0.0
O10 O 0.01117 0.59024 0.15112 0.0
C11 C 0.98272 0.5416 0.38286 0.0
O12 O 0.01066 0.59487 0.24975 0.0
O13 O -0.00285 0.5559 0.37983 0.0
C14 C 0.6639 0.70094 0.4252 0.0
O15 O 0.67208 0.71041 0.38058 0.0
Cd16 Cd 0.69059 0.74378 0.38608 0.0
O17 O 0.66567 0.70858 0.47771 0.0
Cd18 Cd 0.6822 0.73973 0.52781 0.0
C19 C 0.6493 0.77201 0.45177 0.0
O20 O 0.71373 0.74469 0.46966 0.0
O21 O 0.70305 0.77261 0.5172 0.0
O22 O 0.69995 0.71541 0.5938 0.0
C23 C 0.71719 0.76384 0.48506 0.0
O24 O 0.66215 0.76879 0.40852 0.0
C25 C 0.696 0.72546 0.64169 0.0
O26 O 0.65118 0.76194 0.50123 0.0
O27 O 0.68356 0.74148 0.63769 0.0
C28 C 0.54393 0.39515 0.70644 0.0
O29 O 0.53735 0.40514 0.6607 0.0
Cd30 Cd 0.50257 0.42045 0.65504 0.0
O31 O 0.53309 0.39511 0.7547 0.0
Cd32 Cd 0.50066 0.41298 0.79528 0.0
C33 C 0.47199 0.37898 0.71498 0.0
O34 O 0.498 0.44446 0.73502 0.0
O35 O 0.46823 0.43316 0.77186 0.0
O36 O 0.52352 0.43153 0.86295 0.0
C37 C 0.47831 0.44766 0.74422 0.0
O38 O 0.47757 0.39116 0.67201 0.0
C39 C 0.51201 0.42921 0.9091 0.0
O40 O 0.47933 0.38174 0.76767 0.0
O41 O 0.49576 0.4171 0.90422 0.0
C42 C 0.85486 0.28672 0.94847 0.0
O43 O 0.84924 0.27867 0.89897 0.0
Cd44 Cd 0.83025 0.246 0.88698 0.0
O45 O 0.85029 0.27765 -0.00216 0.0
Cd46 Cd 0.83113 0.24478 0.0296 0.0
C47 C 0.8667 0.21373 0.95938 0.0
O48 O 0.80271 0.24269 0.95853 0.0
O49 O 0.81156 0.2128 -0.00021 0.0
O50 O 0.80839 0.26592 0.09157 0.0
C51 C 0.79868 0.2231 0.96703 0.0
O52 O 0.85628 0.21914 0.91291 0.0
C53 C 0.80983 0.25452 0.13819 0.0
O54 O 0.86276 0.22214 0.01028 0.0
O55 O 0.82329 0.23928 0.13698 0.0
C56 C 0.96416 0.40208 0.93171 0.0
O57 O 0.97388 0.40949 0.97683 0.0
Cd58 Cd 0.00811 0.42617 0.97179 0.0
O59 O 0.97197 0.40391 0.87936 0.0
Cd60 Cd 0.00387 0.41966 0.83034 0.0
C61 C 0.03383 0.38385 0.90305 0.0
O62 O 0.00996 0.45038 0.89047 0.0
O63 O 0.03779 0.43879 0.84399 0.0
O64 O 0.98005 0.43919 0.76693 0.0
C65 C 0.02925 0.45324 0.87548 0.0
O66 O 0.03123 0.39637 0.94731 0.0
C67 C 0.98983 0.43568 0.71832 0.0
O68 O 0.02418 0.38703 0.85351 0.0
O69 O 0.0055 0.42274 0.72042 0.0
C70 C 0.84219 0.69667 0.17801 0.0
O71 O 0.8373 0.70687 0.22497 0.0
Cd72 Cd 0.82024 0.74096 0.2259 0.0
O73 O 0.83816 0.70421 0.12634 0.0
Cd74 Cd 0.82153 0.73675 0.08347 0.0
C75 C 0.85858 0.7682 0.14493 0.0
O76 O 0.79309 0.74275 0.1526 0.0
O77 O 0.80302 0.77053 0.10291 0.0
O78 O 0.79893 0.71442 0.02383 0.0
C79 C 0.78986 0.7621 0.13885 0.0
O80 O 0.84775 0.76533 0.19247 0.0
C81 C 0.80194 0.72408 0.97476 0.0
O82 O 0.85437 0.75797 0.097 0.0
O83 O 0.81583 0.73892 0.97458 0.0
C84 C 0.54665 0.59345 0.40757 0.0
O85 O 0.53811 0.58951 0.4578 0.0
Cd86 Cd 0.50669 0.5689 0.4751 0.0
O87 O 0.53852 0.58647 0.35921 0.0
Cd88 Cd 0.50632 0.56526 0.33265 0.0
C89 C 0.4725 0.60046 0.39331 0.0
O90 O 0.50583 0.53904 0.41103 0.0
O91 O 0.47561 0.54494 0.36763 0.0
O92 O 0.52694 0.54135 0.27188 0.0
C93 C 0.48652 0.53368 0.40335 0.0
O94 O 0.47786 0.59168 0.44242 0.0
C95 C 0.51523 0.54243 0.22582 0.0
O96 O 0.48196 0.59597 0.3443 0.0
O97 O 0.50009 0.55597 0.22688 0.0
C98 C 0.66324 0.29054 0.6547 0.0
O99 O 0.67501 0.28643 0.69937 0.0
Cd100 Cd 0.69117 0.25208 0.71163 0.0
O101 O 0.66272 0.27797 0.61001 0.0
Cd102 Cd 0.68141 0.24572 0.57302 0.0
C103 C 0.64817 0.22075 0.66579 0.0
O104 O 0.71348 0.24324 0.63035 0.0
O105 O 0.70082 0.21331 0.59808 0.0
O106 O 0.69969 0.26762 0.50268 0.0
C107 C 0.71572 0.22323 0.62438 0.0
O108 O 0.66101 0.22765 0.7055 0.0
C109 C 0.69712 0.25557 0.45777 0.0
O110 O 0.65049 0.22579 0.61075 0.0
O111 O 0.68478 0.23955 0.46447 0.0
C112 C 0.33115 0.2091 0.69408 0.0
O113 O 0.32222 0.21984 0.73511 0.0
Cd114 Cd 0.30659 0.25405 0.71907 0.0
O115 O 0.33064 0.21553 0.63994 0.0
Cd116 Cd 0.31525 0.2455 0.5805 0.0
C117 C 0.35048 0.27695 0.64896 0.0
O118 O 0.28366 0.2533 0.63528 0.0
O119 O 0.29629 0.27999 0.58614 0.0
O120 O 0.29686 0.22023 0.51829 0.0
C121 C 0.28124 0.2723 0.6173 0.0
O122 O 0.33732 0.2759 0.69236 0.0
C123 C 0.30119 0.22919 0.4689 0.0
O124 O 0.34778 0.26593 0.60157 0.0
O125 O 0.3141 0.24488 0.47054 0.0
C126 C 0.14405 0.78867 0.13288 0.0
O127 O 0.14656 0.78276 0.18668 0.0
Cd128 Cd 0.15325 0.74733 0.21894 0.0
O129 O 0.14804 0.77613 0.08932 0.0
Cd130 Cd 0.16523 0.74032 0.07321 0.0
C131 C 0.1192 0.71895 0.12399 0.0
O132 O 0.18325 0.73653 0.16549 0.0
O133 O 0.18088 0.7073 0.11465 0.0
O134 O 0.19543 0.75647 0.02371 0.0
C135 C 0.18678 0.71668 0.16194 0.0
O136 O 0.12464 0.72647 0.17466 0.0
C137 C 0.19403 0.746 0.97539 0.0
O138 O 0.13069 0.72166 0.07732 0.0
O139 O 0.17817 0.73339 0.97043 0.0
C140 C 0.15696 0.19504 0.92872 0.0
O141 O 0.16282 0.20426 0.88096 0.0
Cd142 Cd 0.18068 0.23788 0.87523 0.0
O143 O 0.16076 0.20322 0.97972 0.0
Cd144 Cd 0.17838 0.23574 0.01972 0.0
C145 C 0.1422 0.26677 0.95122 0.0
O146 O 0.20697 0.24094 0.95027 0.0
O147 O 0.19731 0.26905 -0.00125 0.0
O148 O 0.2006 0.21409 0.08287 0.0
C149 C 0.21013 0.26046 0.96219 0.0
O150 O 0.15317 0.26284 0.90455 0.0
C151 C 0.19717 0.22429 0.13082 0.0
O152 O 0.14613 0.25746 0.00092 0.0
O153 O 0.18328 0.23911 0.12865 0.0
C154 C 0.34591 0.78015 0.45143 0.0
O155 O 0.33701 0.77401 0.4035 0.0
Cd156 Cd 0.31812 0.74169 0.38967 0.0
O157 O 0.34361 0.76983 0.50036 0.0
Cd158 Cd 0.32264 0.7384 0.53802 0.0
C159 C 0.35573 0.70796 0.45541 0.0
O160 O 0.29423 0.74116 0.4696 0.0
O161 O 0.29651 0.71027 0.51082 0.0
O162 O 0.30573 0.76022 0.61345 0.0
C163 C 0.28657 0.72266 0.47577 0.0
O164 O 0.34503 0.71457 0.41062 0.0
C165 C 0.30719 0.74673 0.65559 0.0
O166 O 0.35212 0.71489 0.50816 0.0
O167 O 0.31806 0.73 0.64499 0.0
C168 C 0.45531 0.11351 0.74005 0.0
O169 O 0.46423 0.11457 0.68918 0.0
Cd170 Cd 0.49499 0.09676 0.65272 0.0
O171 O 0.46306 0.10218 0.78225 0.0
Cd172 Cd 0.49595 0.07974 0.79499 0.0
C173 C 0.5306 0.1185 0.75278 0.0
O174 O 0.49479 0.06333 0.69884 0.0
O175 O 0.52427 0.05865 0.74665 0.0
O176 O 0.47752 0.05078 0.84589 0.0
C177 C 0.51322 0.05514 0.70033 0.0
O178 O 0.52417 0.11508 0.69974 0.0
C179 C 0.48908 0.05079 0.89239 0.0
O180 O 0.52201 0.1095 0.79808 0.0
O181 O 0.50314 0.06538 0.89591 0.0
C182 C 0.03722 0.90326 0.17268 0.0
O183 O 0.02995 0.91399 0.12912 0.0
Cd184 Cd -0.00568 0.92768 0.13177 0.0
O185 O 0.02719 0.90255 0.22224 0.0
Cd186 Cd -0.00422 0.91895 0.27202 0.0
C187 C 0.96872 0.88319 0.19315 0.0
O188 O 0.9893 0.95039 0.21491 0.0
O189 O 0.96137 0.93686 0.25676 0.0
O190 O 0.01958 0.93813 0.33599 0.0
C191 C 0.96964 0.95206 0.22738 0.0
O192 O 0.97237 0.89608 0.15018 0.0
C193 C 0.00965 0.93459 0.38439 0.0
O194 O 0.97656 0.88636 0.24509 0.0
O195 O -0.00605 0.92167 0.38194 0.0
C196 C 0.46066 0.88949 0.39881 0.0
O197 O 0.46771 0.89647 0.44823 0.0
Cd198 Cd 0.4996 0.91553 0.46529 0.0
O199 O 0.47016 0.89348 0.34941 0.0
Cd200 Cd 0.5014 0.91562 0.3149 0.0
C201 C 0.53448 0.88199 0.38821 0.0
O202 O 0.49766 0.94132 0.3907 0.0
O203 O 0.52785 0.94334 0.34562 0.0
O204 O 0.47868 0.93376 0.2436 0.0
C205 C 0.5153 0.95074 0.38486 0.0
O206 O 0.52771 0.89099 0.43564 0.0
C207 C 0.49186 0.93357 0.20054 0.0
O208 O 0.52678 0.88658 0.3369 0.0
O209 O 0.50895 0.92296 0.20843 0.0
C210 C 0.04555 0.08121 0.91866 0.0
O211 O 0.03659 0.075 0.96647 0.0
Cd212 Cd 0.00302 0.05709 0.97238 0.0
O213 O 0.03713 0.07769 0.86781 0.0
Cd214 Cd 0.00439 0.06017 0.82883 0.0
C215 C 0.9743 0.09646 0.90018 0.0
O216 O -0.00032 0.03104 0.89674 0.0
O217 O 0.97117 0.04127 0.85094 0.0
O218 O 0.02579 0.03825 0.76453 0.0
C219 C 0.98011 0.02792 0.88532 0.0
O220 O 0.97811 0.08506 0.94613 0.0
C221 C 0.01507 0.04135 0.71729 0.0
O222 O 0.98334 0.09268 0.85002 0.0
O223 O 0.00018 0.05516 0.72008 0.0
C224 C 0.08284 0.70926 0.15859 0.0
C225 C 0.10058 0.70468 0.12267 0.0
C226 C 0.06696 0.69393 0.16861 0.0
C227 C 0.0693 0.67335 0.14365 0.0
C228 C 0.0867 0.66897 0.10505 0.0
C229 C 0.10202 0.68485 0.09433 0.0
C230 C 0.04826 0.69945 0.20824 0.0
C231 C 0.0899 0.6471 0.07832 0.0
C232 C 0.0449 0.6263 0.22622 0.0
C233 C 0.02797 0.62099 0.18843 0.0
C234 C 0.05838 0.64352 0.21251 0.0
C235 C 0.05435 0.656 0.1608 0.0
C236 C 0.03653 0.65135 0.12441 0.0
C237 C 0.02374 0.63368 0.13817 0.0
C238 C 0.07746 0.64779 0.25186 0.0
C239 C 0.03128 0.6647 0.07015 0.0
H240 H 0.08178 0.72464 0.18052 0.0
H241 H 0.11593 0.68123 0.06734 0.0
H242 H 0.03309 0.69433 0.18717 0.0
H243 H 0.0497 0.69083 0.25136 0.0
H244 H 0.04737 0.71682 0.21766 0.0
H245 H 0.10364 0.64661 0.04695 0.0
H246 H 0.09275 0.63535 0.1146 0.0
H247 H 0.07537 0.64197 0.0541 0.0
H248 H 0.04825 0.61633 0.26472 0.0
H249 H 0.0105 0.62962 0.10916 0.0
H250 H 0.07702 0.66442 0.26863 0.0
H251 H 0.09234 0.646 0.2254 0.0
H252 H 0.0782 0.63678 0.29075 0.0
H253 H 0.03075 0.68185 0.08227 0.0
H254 H 0.01575 0.66018 0.04992 0.0
H255 H 0.04393 0.66276 0.03592 0.0
C256 C 0.55267 0.84834 0.35581 0.0
C257 C 0.5515 0.86588 0.39437 0.0
C258 C 0.56798 0.83228 0.36485 0.0
C259 C 0.58271 0.83419 0.41258 0.0
C260 C 0.58186 0.85215 0.45067 0.0
C261 C 0.56611 0.86763 0.44151 0.0
C262 C 0.56824 0.81315 0.32396 0.0
C263 C 0.59766 0.85509 0.50096 0.0
C264 C 0.61269 0.78612 0.47337 0.0
C265 C 0.63218 0.78788 0.44317 0.0
C266 C 0.59616 0.80077 0.46262 0.0
C267 C 0.59949 0.8178 0.42193 0.0
C268 C 0.61927 0.81976 0.39201 0.0
C269 C 0.63527 0.80466 0.40253 0.0
C270 C 0.57512 0.79801 0.49459 0.0
C271 C 0.62366 0.83801 0.34955 0.0
H272 H 0.54124 0.84688 0.3197 0.0
H273 H 0.56534 0.88128 0.47114 0.0
H274 H 0.5838 0.81215 0.30049 0.0
H275 H 0.56642 0.79832 0.35058 0.0
H276 H 0.55533 0.81378 0.29002 0.0
H277 H 0.59503 0.87019 0.52583 0.0
H278 H 0.59647 0.84159 0.53287 0.0
H279 H 0.61415 0.85512 0.48295 0.0
H280 H 0.61022 0.77305 0.50438 0.0
H281 H 0.65041 0.80617 0.37943 0.0
H282 H 0.56193 0.79726 0.46162 0.0
H283 H 0.57205 0.81197 0.52377 0.0
H284 H 0.57473 0.78334 0.52247 0.0
H285 H 0.61182 0.83799 0.31274 0.0
H286 H 0.6399 0.83718 0.32982 0.0
H287 H 0.62199 0.85342 0.37343 0.0
C288 C 0.44259 0.36419 0.65284 0.0
C289 C 0.45587 0.36229 0.70305 0.0
C290 C 0.42632 0.34941 0.64184 0.0
C291 C 0.42347 0.33204 0.68139 0.0
C292 C 0.43728 0.32956 0.73104 0.0
C293 C 0.4532 0.34489 0.74172 0.0
C294 C 0.41163 0.35291 0.58921 0.0
C295 C 0.43493 0.31099 0.77353 0.0
C296 C 0.36783 0.30891 0.69294 0.0
C297 C 0.36916 0.29111 0.65525 0.0
C298 C 0.38542 0.32229 0.70179 0.0
C299 C 0.40498 0.31752 0.67322 0.0
C300 C 0.4065 0.29948 0.63536 0.0
C301 C 0.38844 0.28659 0.62621 0.0
C302 C 0.38297 0.34168 0.74127 0.0
C303 C 0.42722 0.29375 0.60497 0.0
H304 H 0.44444 0.37768 0.62293 0.0
H305 H 0.46351 0.34327 0.78031 0.0
H306 H 0.41119 0.33848 0.56064 0.0
H307 H 0.39515 0.35577 0.60545 0.0
H308 H 0.41658 0.36672 0.5613 0.0
H309 H 0.44812 0.31027 0.80659 0.0
H310 H 0.41961 0.31234 0.79811 0.0
H311 H 0.4345 0.29577 0.74831 0.0
H312 H 0.35289 0.31253 0.71516 0.0
H313 H 0.38955 0.27271 0.59754 0.0
H314 H 0.38671 0.35633 0.71544 0.0
H315 H 0.3944 0.34086 0.77899 0.0
H316 H 0.36659 0.3432 0.75979 0.0
H317 H 0.43218 0.30681 0.57453 0.0
H318 H 0.42597 0.27877 0.57874 0.0
H319 H 0.44001 0.29184 0.63882 0.0
C320 C 0.8808 0.18186 0.907 0.0
C321 C 0.88311 0.19702 0.9526 0.0
C322 C 0.89617 0.16604 0.89766 0.0
C323 C 0.91458 0.16559 0.93408 0.0
C324 C 0.91716 0.18097 0.97993 0.0
C325 C 0.90121 0.1964 0.98919 0.0
C326 C 0.8925 0.14959 0.84944 0.0
C327 C 0.93677 0.18112 0.019 0.0
C328 C 0.94254 0.11236 0.94912 0.0
C329 C 0.95895 0.11415 0.90676 0.0
C330 C 0.92813 0.12905 0.95867 0.0
C331 C 0.93043 0.14822 0.92596 0.0
C332 C 0.94709 0.15024 0.88339 0.0
C333 C 0.96104 0.13302 0.8737 0.0
C334 C 0.91022 0.12601 0.00313 0.0
C335 C 0.95018 0.1706 0.84837 0.0
H336 H 0.86672 0.18216 0.87892 0.0
H337 H 0.9031 0.20823 0.0241 0.0
H338 H 0.90585 0.14985 0.81691 0.0
H339 H 0.89206 0.1334 0.86952 0.0
H340 H 0.87735 0.15228 0.82484 0.0
H341 H 0.9369 0.19481 0.05047 0.0
H342 H 0.93761 0.16612 0.04524 0.0
H343 H 0.95133 0.18186 0.99082 0.0
H344 H 0.9408 0.09771 0.97447 0.0
H345 H 0.97385 0.13449 0.84141 0.0
H346 H 0.89462 0.12775 0.98028 0.0
H347 H 0.91102 0.13846 0.0382 0.0
H348 H 0.91075 0.11011 0.02507 0.0
H349 H 0.93602 0.17364 0.81992 0.0
H350 H 0.96455 0.17002 0.81933 0.0
H351 H 0.95171 0.1843 0.87942 0.0
C352 C 0.06454 0.36664 0.95418 0.0
C353 C 0.04851 0.36561 0.91055 0.0
C354 C 0.07878 0.34973 0.96276 0.0
C355 C 0.07674 0.33112 0.9276 0.0
C356 C 0.06029 0.32973 0.88437 0.0
C357 C 0.04648 0.34714 0.87582 0.0
C358 C 0.09644 0.35208 0.00823 0.0
C359 C 0.05745 0.30997 0.84675 0.0
C360 C 0.12712 0.29912 0.90327 0.0
C361 C 0.1252 0.28299 0.94645 0.0
C362 C 0.11136 0.31471 0.89645 0.0
C363 C 0.09296 0.31396 0.93294 0.0
C364 C 0.09073 0.29756 0.97622 0.0
C365 C 0.10707 0.28237 0.98302 0.0
C366 C 0.11463 0.33224 0.85091 0.0
C367 C 0.07113 0.29612 0.01521 0.0
H368 H 0.06626 0.38093 0.98096 0.0
H369 H 0.03396 0.34621 0.84252 0.0
H370 H 0.09593 0.3387 0.04067 0.0
H371 H 0.11215 0.35142 0.98543 0.0
H372 H 0.09537 0.36733 0.03329 0.0
H373 H 0.04285 0.31071 0.81872 0.0
H374 H 0.07146 0.30791 0.81698 0.0
H375 H 0.05654 0.29564 0.8758 0.0
H376 H 0.14123 0.29979 0.87524 0.0
H377 H 0.10549 0.26981 0.01609 0.0
H378 H 0.11471 0.34798 0.87353 0.0
H379 H 0.10129 0.33235 0.81842 0.0
H380 H 0.12984 0.33043 0.82587 0.0
H381 H 0.06996 0.31048 0.04391 0.0
H382 H 0.07131 0.28176 0.04433 0.0
H383 H 0.05659 0.29568 0.98698 0.0
C384 C 0.94035 0.86532 0.13354 0.0
C385 C 0.95454 0.86476 0.18201 0.0
C386 C 0.9259 0.84867 0.12348 0.0
C387 C 0.92588 0.83082 0.16219 0.0
C388 C 0.94076 0.82973 0.20973 0.0
C389 C 0.95477 0.84686 0.21954 0.0
C390 C 0.90996 0.8507 0.07318 0.0
C391 C 0.94143 0.81075 0.25128 0.0
C392 C 0.87351 0.80193 0.18443 0.0
C393 C 0.87575 0.78427 0.14657 0.0
C394 C 0.88967 0.8172 0.18944 0.0
C395 C 0.90879 0.81452 0.15675 0.0
C396 C 0.91122 0.79671 0.11836 0.0
C397 C 0.89448 0.78187 0.11308 0.0
C398 C 0.88618 0.83625 0.22961 0.0
C399 C 0.93157 0.79321 0.08366 0.0
H400 H 0.94001 0.87915 0.10444 0.0
H401 H 0.96587 0.84625 0.25664 0.0
H402 H 0.9103 0.83627 0.0446 0.0
H403 H 0.89363 0.85202 0.09197 0.0
H404 H 0.91304 0.8649 0.04469 0.0
H405 H 0.95544 0.81123 0.28162 0.0
H406 H 0.92673 0.81037 0.2789 0.0
H407 H 0.94193 0.79571 0.22521 0.0
H408 H 0.85893 0.80393 0.20993 0.0
H409 H 0.89627 0.76813 0.08416 0.0
H410 H 0.88796 0.85122 0.20356 0.0
H411 H 0.8984 0.83649 0.26542 0.0
H412 H 0.87015 0.83617 0.25081 0.0
H413 H 0.93456 0.80694 0.05347 0.0
H414 H 0.93106 0.7784 0.05652 0.0
H415 H 0.94527 0.79224 0.11491 0.0
C416 C 0.37141 0.67844 0.39543 0.0
C417 C 0.37279 0.6922 0.44468 0.0
C418 C 0.38756 0.66362 0.3833 0.0
C419 C 0.40575 0.66286 0.42056 0.0
C420 C 0.4074 0.67693 0.46985 0.0
C421 C 0.39074 0.69128 0.48181 0.0
C422 C 0.38493 0.64847 0.33137 0.0
C423 C 0.42675 0.67679 0.50998 0.0
C424 C 0.43742 0.6117 0.43285 0.0
C425 C 0.45474 0.61578 0.3949 0.0
C426 C 0.4211 0.62668 0.44023 0.0
C427 C 0.42243 0.64647 0.4101 0.0
C428 C 0.43974 0.65058 0.37089 0.0
C429 C 0.45562 0.63499 0.36308 0.0
C430 C 0.40261 0.62142 0.48104 0.0
C431 C 0.44183 0.67168 0.33887 0.0
H432 H 0.35749 0.67904 0.36679 0.0
H433 H 0.39195 0.70206 0.5195 0.0
H434 H 0.39861 0.65001 0.3002 0.0
H435 H 0.38481 0.63177 0.34791 0.0
H436 H 0.36996 0.65139 0.30613 0.0
H437 H 0.4262 0.68967 0.54401 0.0
H438 H 0.42793 0.66123 0.53339 0.0
H439 H 0.44146 0.67872 0.48289 0.0
H440 H 0.43671 0.59673 0.45713 0.0
H441 H 0.46915 0.63817 0.33422 0.0
H442 H 0.38729 0.62356 0.45695 0.0
H443 H 0.40249 0.63249 0.51966 0.0
H444 H 0.40338 0.60481 0.49827 0.0
H445 H 0.42737 0.67485 0.31175 0.0
H446 H 0.45601 0.67221 0.30911 0.0
H447 H 0.44314 0.68475 0.37209 0.0
C448 C 0.63103 0.19743 0.74254 0.0
C449 C 0.63066 0.20645 0.685 0.0
C450 C 0.61499 0.18343 0.76166 0.0
C451 C 0.59805 0.17844 0.72254 0.0
C452 C 0.59729 0.18781 0.66488 0.0
C453 C 0.61369 0.20162 0.64663 0.0
C454 C 0.61649 0.17354 0.82311 0.0
C455 C 0.57933 0.18294 0.62208 0.0
C456 C 0.56844 0.12608 0.734 0.0
C457 C 0.5491 0.13252 0.75936 0.0
C458 C 0.58498 0.14071 0.7247 0.0
C459 C 0.58184 0.16236 0.74022 0.0
C460 C 0.56269 0.1687 0.76887 0.0
C461 C 0.54645 0.1536 0.77822 0.0
C462 C 0.60526 0.13323 0.69487 0.0
C463 C 0.55879 0.19165 0.78594 0.0
H464 H 0.64412 0.20099 0.77254 0.0
H465 H 0.61322 0.20862 0.60233 0.0
H466 H 0.60155 0.17637 0.84844 0.0
H467 H 0.61847 0.15602 0.81897 0.0
H468 H 0.63009 0.17996 0.8493 0.0
H469 H 0.58041 0.1925 0.58033 0.0
H470 H 0.57963 0.16578 0.61011 0.0
H471 H 0.56373 0.18618 0.6437 0.0
H472 H 0.5702 0.10977 0.71864 0.0
H473 H 0.53122 0.15855 0.79657 0.0
H474 H 0.6194 0.13876 0.72028 0.0
H475 H 0.60635 0.14019 0.64936 0.0
H476 H 0.60596 0.11558 0.69099 0.0
H477 H 0.57256 0.19808 0.81128 0.0
H478 H 0.54413 0.19354 0.81334 0.0
H479 H 0.55709 0.20143 0.74486 0.0
C480 C 0.94463 0.37409 0.9878 0.0
C481 C 0.94504 0.38885 0.94079 0.0
C482 C 0.92829 0.35891 0.99207 0.0
C483 C 0.91157 0.35909 0.94959 0.0
C484 C 0.91111 0.37503 0.90466 0.0
C485 C 0.92816 0.38945 0.89991 0.0
C486 C 0.92984 0.34172 0.03926 0.0
C487 C 0.8931 0.37626 0.86006 0.0
C488 C 0.88649 0.30599 0.91057 0.0
C489 C 0.86862 0.30568 0.94802 0.0
C490 C 0.90059 0.32329 0.91089 0.0
C491 C 0.89618 0.34109 0.9478 0.0
C492 C 0.87769 0.34116 0.98427 0.0
C493 C 0.86433 0.32315 0.98499 0.0
C494 C 0.92052 0.32223 0.87296 0.0
C495 C 0.87205 0.36021 0.02229 0.0
H496 H 0.95783 0.37353 0.01904 0.0
H497 H 0.92846 0.40099 0.8638 0.0
H498 H 0.91471 0.34051 0.06471 0.0
H499 H 0.93255 0.32607 0.01742 0.0
H500 H 0.94306 0.34467 0.07122 0.0
H501 H 0.89323 0.39155 0.83489 0.0
H502 H 0.89451 0.36299 0.82758 0.0
H503 H 0.87748 0.37455 0.88296 0.0
H504 H 0.88981 0.29232 0.8824 0.0
H505 H 0.85036 0.32285 0.01357 0.0
H506 H 0.93485 0.3242 0.90154 0.0
H507 H 0.92058 0.33542 0.83992 0.0
H508 H 0.92191 0.30689 0.84847 0.0
H509 H 0.88433 0.36255 0.05731 0.0
H510 H 0.85627 0.35838 0.04435 0.0
H511 H 0.87182 0.37486 -0.00558 0.0
C512 C 0.41695 0.11657 0.76922 0.0
C513 C 0.43582 0.12612 0.74902 0.0
C514 C 0.39752 0.12779 0.76714 0.0
C515 C 0.39728 0.14906 0.74562 0.0
C516 C 0.41662 0.15907 0.72876 0.0
C517 C 0.43559 0.14735 0.72987 0.0
C518 C 0.37719 0.11651 0.78458 0.0
C519 C 0.4172 0.1819 0.70704 0.0
C520 C 0.35154 0.17626 0.66661 0.0
C521 C 0.34467 0.19066 0.71042 0.0
C522 C 0.36739 0.16112 0.67929 0.0
C523 C 0.3769 0.16075 0.73669 0.0
C524 C 0.36894 0.17419 0.78226 0.0
C525 C 0.35276 0.18886 0.76871 0.0
C526 C 0.37506 0.14664 0.6299 0.0
C527 C 0.37878 0.17447 0.84381 0.0
H528 H 0.41719 0.10002 0.78328 0.0
H529 H 0.45028 0.15466 0.71438 0.0
H530 H 0.36735 0.12669 0.81426 0.0
H531 H 0.36764 0.11328 0.74385 0.0
H532 H 0.38035 0.10111 0.80753 0.0
H533 H 0.43375 0.18783 0.7008 0.0
H534 H 0.40871 0.18317 0.6637 0.0
H535 H 0.40891 0.19248 0.73926 0.0
H536 H 0.34514 0.17737 0.62172 0.0
H537 H 0.34751 0.19992 0.80291 0.0
H538 H 0.37705 0.1301 0.64664 0.0
H539 H 0.39086 0.1522 0.6138 0.0
H540 H 0.36389 0.14645 0.59138 0.0
H541 H 0.38149 0.15802 0.86045 0.0
H542 H 0.36868 0.18315 0.87653 0.0
H543 H 0.39455 0.18249 0.84156 0.0
C544 C 0.56516 0.62638 0.43918 0.0
C545 C 0.56534 0.60758 0.40562 0.0
C546 C 0.58257 0.64034 0.43825 0.0
C547 C 0.60096 0.63489 0.40479 0.0
C548 C 0.60138 0.61567 0.37158 0.0
C549 C 0.5833 0.60239 0.37139 0.0
C550 C 0.58117 0.66102 0.47263 0.0
C551 C 0.62099 0.609 0.3372 0.0
C552 C 0.63655 0.68168 0.36585 0.0
C553 C 0.65018 0.6822 0.41541 0.0
C554 C 0.62094 0.66579 0.36038 0.0
C555 C 0.6195 0.64965 0.40452 0.0
C556 C 0.6343 0.64924 0.4523 0.0
C557 C 0.64921 0.66582 0.4579 0.0
C558 C 0.60503 0.66723 0.3099 0.0
C559 C 0.63376 0.63186 0.49903 0.0
H560 H 0.55112 0.63039 0.46523 0.0
H561 H 0.5834 0.5877 0.34588 0.0
H562 H 0.59345 0.66133 0.50826 0.0
H563 H 0.58439 0.6747 0.4424 0.0
H564 H 0.56528 0.66335 0.49364 0.0
H565 H 0.61892 0.5933 0.315 0.0
H566 H 0.62489 0.62109 0.30269 0.0
H567 H 0.63486 0.60804 0.36789 0.0
H568 H 0.63719 0.69448 0.33326 0.0
H569 H 0.65989 0.66617 0.49598 0.0
H570 H 0.58906 0.67114 0.32833 0.0
H571 H 0.60362 0.6517 0.28659 0.0
H572 H 0.60943 0.67965 0.27665 0.0
H573 H 0.61969 0.63413 0.52845 0.0
H574 H 0.64831 0.63191 0.52732 0.0
H575 H 0.63217 0.61598 0.47762 0.0
C576 C 0.1164 0.81088 0.08336 0.0
C577 C 0.13375 0.80943 0.12247 0.0
C578 C 0.10267 0.82856 0.0853 0.0
C579 C 0.10684 0.84529 0.12621 0.0
C580 C 0.12567 0.84487 0.161 0.0
C581 C 0.13872 0.82673 0.15949 0.0
C582 C 0.0826 0.82822 0.04811 0.0
C583 C 0.13109 0.86271 0.20358 0.0
C584 C 0.07103 0.89421 0.11844 0.0
C585 C 0.05624 0.88971 0.16385 0.0
C586 C 0.08808 0.88027 0.10668 0.0
C587 C 0.08992 0.86114 0.13996 0.0
C588 C 0.07517 0.85671 0.18634 0.0
C589 C 0.05871 0.87119 0.19822 0.0
C590 C 0.10391 0.88582 0.05824 0.0
C591 C 0.07635 0.83633 0.22235 0.0
H592 H 0.11248 0.7974 0.05511 0.0
H593 H 0.15226 0.82561 0.18949 0.0
H594 H 0.0687 0.82503 0.07758 0.0
H595 H 0.07991 0.8439 0.02642 0.0
H596 H 0.08313 0.81571 0.01304 0.0
H597 H 0.14801 0.86199 0.21817 0.0
H598 H 0.12808 0.87847 0.1826 0.0
H599 H 0.12081 0.86154 0.24381 0.0
H600 H 0.06921 0.90857 0.09192 0.0
H601 H 0.04721 0.86753 0.23298 0.0
H602 H 0.10251 0.87428 0.02093 0.0
H603 H 0.12043 0.88466 0.0757 0.0
H604 H 0.10136 0.90215 0.04025 0.0
H605 H 0.07533 0.82235 0.19212 0.0
H606 H 0.06337 0.83513 0.256 0.0
H607 H 0.09187 0.83537 0.24596 0.0
C608 C 0.9141 0.59211 0.22808 0.0
C609 C 0.92916 0.59218 0.18186 0.0
C610 C 0.89718 0.60682 0.2282 0.0
C611 C 0.89608 0.62252 0.18268 0.0
C612 C 0.91106 0.62229 0.13532 0.0
C613 C 0.92715 0.60682 0.13489 0.0
C614 C 0.88093 0.606 0.27795 0.0
C615 C 0.91099 0.63921 0.08715 0.0
C616 C 0.84884 0.65863 0.15135 0.0
C617 C 0.85458 0.6769 0.18341 0.0
C618 C 0.86145 0.64015 0.15404 0.0
C619 C 0.88071 0.64047 0.1871 0.0
C620 C 0.88636 0.65889 0.22011 0.0
C621 C 0.87294 0.67674 0.21884 0.0
C622 C 0.85446 0.6205 0.12044 0.0
C623 C 0.90715 0.66021 0.25403 0.0
H624 H 0.91566 0.5807 0.26426 0.0
H625 H 0.939 0.60703 0.09955 0.0
H626 H 0.88359 0.61948 0.3091 0.0
H627 H 0.86456 0.60766 0.25969 0.0
H628 H 0.88193 0.59089 0.30377 0.0
H629 H 0.92354 0.63648 0.05291 0.0
H630 H 0.89529 0.6397 0.06448 0.0
H631 H 0.91365 0.65511 0.10759 0.0
H632 H 0.83448 0.65882 0.12436 0.0
H633 H 0.87737 0.69101 0.2432 0.0
H634 H 0.85596 0.60615 0.14925 0.0
H635 H 0.86492 0.61806 0.08105 0.0
H636 H 0.83772 0.62177 0.10465 0.0
H637 H 0.90822 0.64709 0.28713 0.0
H638 H 0.909 0.67563 0.2779 0.0
H639 H 0.92071 0.65834 0.22257 0.0
C640 C 0.08155 0.09267 0.88287 0.0
C641 C 0.0645 0.09496 0.92277 0.0
C642 C 0.09893 0.10682 0.88457 0.0
C643 C 0.09859 0.12417 0.9251 0.0
C644 C 0.08143 0.12634 0.96582 0.0
C645 C 0.06481 0.11143 0.96493 0.0
C646 C 0.11737 0.10351 0.84221 0.0
C647 C 0.08002 0.14505 0.00816 0.0
C648 C 0.14634 0.15872 0.96393 0.0
C649 C 0.14353 0.17586 0.92459 0.0
C650 C 0.1326 0.14103 0.96208 0.0
C651 C 0.11513 0.1411 0.92194 0.0
C652 C 0.11242 0.15836 0.88177 0.0
C653 C 0.12694 0.17533 0.8828 0.0
C654 C 0.13648 0.12251 0.00385 0.0
C655 C 0.09356 0.15947 0.83988 0.0
H656 H 0.0813 0.07982 0.85051 0.0
H657 H 0.05145 0.11328 -0.00469 0.0
H658 H 0.11733 0.11615 0.80753 0.0
H659 H 0.13273 0.10469 0.86659 0.0
H660 H 0.11658 0.08776 0.81957 0.0
H661 H 0.06568 0.14425 0.0373 0.0
H662 H 0.09438 0.14573 0.03694 0.0
H663 H 0.07944 0.16015 0.98223 0.0
H664 H 0.1593 0.15914 -0.00404 0.0
H665 H 0.12469 0.18874 0.85281 0.0
H666 H 0.1356 0.10722 0.97905 0.0
H667 H 0.12393 0.12211 0.03878 0.0
H668 H 0.15226 0.1236 0.0262 0.0
H669 H 0.09313 0.1452 0.81074 0.0
H670 H 0.09394 0.17392 0.81109 0.0
H671 H 0.07853 0.15961 0.86614 0.0
C672 C 0.62967 0.30858 0.62302 0.0
C673 C 0.64833 0.30878 0.65751 0.0
C674 C 0.61384 0.32411 0.63101 0.0
C675 C 0.61698 0.3405 0.67356 0.0
C676 C 0.63628 0.34145 0.70622 0.0
C677 C 0.65164 0.32541 0.69832 0.0
C678 C 0.59334 0.32236 0.59593 0.0
C679 C 0.64039 0.35902 0.75084 0.0
C680 C 0.57915 0.3874 0.65885 0.0
C681 C 0.56373 0.38247 0.70219 0.0
C682 C 0.59715 0.37442 0.6509 0.0
C683 C 0.59947 0.35581 0.68613 0.0
C684 C 0.58423 0.35106 0.73098 0.0
C685 C 0.56666 0.3646 0.73894 0.0
C686 C 0.61336 0.38029 0.6037 0.0
C687 C 0.58596 0.33115 0.76876 0.0
H688 H 0.62694 0.29569 0.59171 0.0
H689 H 0.66611 0.32571 0.72482 0.0
H690 H 0.5798 0.31971 0.62704 0.0
H691 H 0.59016 0.33743 0.57156 0.0
H692 H 0.59371 0.30906 0.56317 0.0
H693 H 0.65702 0.35873 0.76796 0.0
H694 H 0.6373 0.37482 0.73023 0.0
H695 H 0.62934 0.35732 0.78928 0.0
H696 H 0.57704 0.40133 0.63071 0.0
H697 H 0.55472 0.36067 0.77226 0.0
H698 H 0.61289 0.36843 0.56699 0.0
H699 H 0.62969 0.37995 0.62278 0.0
H700 H 0.61038 0.39635 0.58446 0.0
H701 H 0.58492 0.31685 0.73973 0.0
H702 H 0.57319 0.33017 0.80311 0.0
H703 H 0.60165 0.33061 0.79155 0.0
C704 C 0.35684 0.81465 0.40576 0.0
C705 C 0.36047 0.79855 0.44811 0.0
C706 C 0.37184 0.83088 0.39636 0.0
C707 C 0.39113 0.83064 0.42903 0.0
C708 C 0.39466 0.8147 0.47287 0.0
C709 C 0.37911 0.79896 0.48245 0.0
C710 C 0.36724 0.848 0.35059 0.0
C711 C 0.4152 0.81379 0.50799 0.0
C712 C 0.43999 0.85788 0.36381 0.0
C713 C 0.44154 0.87589 0.40042 0.0
C714 C 0.42341 0.84311 0.37199 0.0
C715 C 0.40783 0.84684 0.41674 0.0
C716 C 0.40872 0.86564 0.45145 0.0
C717 C 0.42574 0.8798 0.44339 0.0
C718 C 0.42312 0.82304 0.33475 0.0
C719 C 0.39206 0.87048 0.49833 0.0
H720 H 0.34235 0.81437 0.37935 0.0
H721 H 0.38202 0.78637 0.5147 0.0
H722 H 0.36926 0.86403 0.37079 0.0
H723 H 0.37877 0.84678 0.31312 0.0
H724 H 0.35084 0.84676 0.33218 0.0
H725 H 0.41538 0.80045 0.54072 0.0
H726 H 0.42887 0.8118 0.47695 0.0
H727 H 0.41769 0.82896 0.53242 0.0
H728 H 0.45234 0.85479 0.331 0.0
H729 H 0.42689 0.89385 0.47145 0.0
H730 H 0.40754 0.82136 0.3118 0.0
H731 H 0.42508 0.80892 0.3642 0.0
H732 H 0.43599 0.82287 0.30061 0.0
H733 H 0.37584 0.86918 0.47891 0.0
H734 H 0.39401 0.88668 0.51761 0.0
H735 H 0.39314 0.85864 0.53508 0.0
C736 C 0.05078 0.52408 0.15168 0.0
C737 C 0.03122 0.51688 0.17447 0.0
C738 C 0.06008 0.514 0.10211 0.0
C739 C 0.04945 0.49649 0.07574 0.0
C740 C 0.03132 0.4875 0.10423 0.0
C741 C 0.02232 0.498 0.15305 0.0
C742 C 0.07992 0.52353 0.0749 0.0
C743 C 0.01982 0.46829 0.0791 0.0
C744 C 0.03441 0.48879 0.91841 0.0
C745 C 0.04212 0.46813 0.91021 0.0
C746 C 0.04017 0.50045 0.96898 0.0
C747 C 0.05334 0.4907 0.0126 0.0
C748 C 0.06413 0.47152 -0.00109 0.0
C749 C 0.05831 0.46027 0.94729 0.0
C750 C 0.02919 0.5215 0.98035 0.0
C751 C 0.07924 0.46129 0.04274 0.0
H752 H 0.05784 0.53861 0.16896 0.0
H753 H 0.00743 0.49225 0.17189 0.0
H754 H 0.08883 0.51179 0.04747 0.0
H755 H 0.0754 0.53716 0.04588 0.0
H756 H 0.09063 0.52978 0.11033 0.0
H757 H 0.00752 0.46205 0.11032 0.0
H758 H 0.0118 0.47272 0.03664 0.0
H759 H 0.03124 0.45528 0.06924 0.0
H760 H 0.02214 0.49487 0.88876 0.0
H761 H 0.06444 0.44429 0.94028 0.0
H762 H 0.04044 0.53314 0.00025 0.0
H763 H 0.01588 0.51908 0.01241 0.0
H764 H 0.02253 0.52843 0.93862 0.0
H765 H 0.08773 0.47345 0.06974 0.0
H766 H 0.09113 0.45117 0.01926 0.0
H767 H 0.07009 0.4509 0.07371 0.0
C768 C 0.78518 0.79303 0.20654 0.0
C769 C 0.77652 0.77514 0.17794 0.0
C770 C 0.77588 0.80084 0.25919 0.0
C771 C 0.7577 0.7904 0.28262 0.0
C772 C 0.74713 0.77462 0.24819 0.0
C773 C 0.75692 0.76696 0.19646 0.0
C774 C 0.78706 0.81836 0.29296 0.0
C775 C 0.72715 0.7636 0.27015 0.0
C776 C 0.75163 0.76767 0.43391 0.0
C777 C 0.73207 0.77664 0.4497 0.0
C778 C 0.76254 0.77488 0.38337 0.0
C779 C 0.75313 0.79097 0.34744 0.0
C780 C 0.73529 0.80241 0.369 0.0
C781 C 0.72483 0.79505 0.42047 0.0
C782 C 0.78222 0.7629 0.36356 0.0
C783 C 0.72547 0.82038 0.33367 0.0
H784 H 0.80034 0.79945 0.19164 0.0
H785 H 0.75018 0.75333 0.17337 0.0
H786 H 0.77602 0.82702 0.32315 0.0
H787 H 0.80003 0.81134 0.32037 0.0
H788 H 0.79448 0.82991 0.2615 0.0
H789 H 0.71953 0.7539 0.23456 0.0
H790 H 0.73118 0.75285 0.30794 0.0
H791 H 0.71537 0.77542 0.28648 0.0
H792 H 0.75732 0.75367 0.45759 0.0
H793 H 0.70975 0.80215 0.43338 0.0
H794 H 0.79453 0.77409 0.34666 0.0
H795 H 0.778 0.75187 0.32664 0.0
H796 H 0.78922 0.75335 0.40051 0.0
H797 H 0.73755 0.82883 0.30618 0.0
H798 H 0.71755 0.83201 0.36382 0.0
H799 H 0.71314 0.81383 0.30325 0.0
C800 C 0.48747 0.50128 0.46536 0.0
C801 C 0.47629 0.51919 0.44583 0.0
C802 C 0.4803 0.48954 0.51444 0.0
C803 C 0.46182 0.49641 0.54557 0.0
C804 C 0.44946 0.51346 0.52286 0.0
C805 C 0.45682 0.52465 0.47258 0.0
C806 C 0.49364 0.47099 0.53607 0.0
C807 C 0.42965 0.52119 0.55436 0.0
C808 C 0.45205 0.45615 0.6655 0.0
C809 C 0.46719 0.4632 0.70696 0.0
C810 C 0.44749 0.46844 0.61471 0.0
C811 C 0.45825 0.48806 0.60657 0.0
C812 C 0.47074 0.49663 0.65346 0.0
C813 C 0.47541 0.48384 0.70289 0.0
C814 C 0.43365 0.45904 0.56636 0.0
C815 C 0.48178 0.51793 0.64754 0.0
H816 H 0.5024 0.49704 0.44386 0.0
H817 H 0.44821 0.53861 0.4572 0.0
H818 H 0.50198 0.47549 0.57794 0.0
H819 H 0.48341 0.457 0.54605 0.0
H820 H 0.50585 0.46615 0.5027 0.0
H821 H 0.41858 0.52915 0.52264 0.0
H822 H 0.4211 0.50796 0.57702 0.0
H823 H 0.43424 0.53303 0.58885 0.0
H824 H 0.4457 0.4401 0.66904 0.0
H825 H 0.48696 0.48923 0.73563 0.0
H826 H 0.44392 0.45066 0.53346 0.0
H827 H 0.4247 0.47164 0.54217 0.0
H828 H 0.42217 0.44728 0.58502 0.0
H829 H 0.49587 0.51622 0.61785 0.0
H830 H 0.48735 0.52399 0.69149 0.0
H831 H 0.47098 0.52993 0.62725 0.0
C832 C 0.76467 0.2218 0.91291 0.0
C833 C 0.78409 0.21214 0.92663 0.0
C834 C 0.75312 0.21545 0.86272 0.0
C835 C 0.76173 0.19953 0.82476 0.0
C836 C 0.78004 0.18799 0.84254 0.0
C837 C 0.79106 0.19442 0.89394 0.0
C838 C 0.73316 0.22768 0.84656 0.0
C839 C 0.78941 0.1706 0.80413 0.0
C840 C 0.72444 0.19412 0.69545 0.0
C841 C 0.731 0.21192 0.66224 0.0
C842 C 0.73606 0.18763 0.74577 0.0
C843 C 0.75452 0.1992 0.76195 0.0
C844 C 0.76284 0.21494 0.72284 0.0
C845 C 0.75074 0.22135 0.67368 0.0
C846 C 0.72706 0.17034 0.78532 0.0
C847 C 0.78299 0.22711 0.73725 0.0
H848 H 0.75928 0.23533 0.93909 0.0
H849 H 0.80614 0.18693 0.90503 0.0
H850 H 0.73668 0.23877 0.80912 0.0
H851 H 0.72041 0.21666 0.83164 0.0
H852 H 0.72704 0.23719 0.88476 0.0
H853 H 0.79838 0.1589 0.8317 0.0
H854 H 0.77691 0.16207 0.77849 0.0
H855 H 0.80074 0.17779 0.77174 0.0
H856 H 0.70918 0.1867 0.68603 0.0
H857 H 0.75589 0.23485 0.64698 0.0
H858 H 0.71644 0.17765 0.81928 0.0
H859 H 0.73987 0.16159 0.80919 0.0
H860 H 0.71744 0.1588 0.759 0.0
H861 H 0.77971 0.23864 0.77373 0.0
H862 H 0.78903 0.23614 0.69797 0.0
H863 H 0.79569 0.21613 0.75281 0.0
C864 C 0.21566 0.29332 0.90142 0.0
C865 C 0.22307 0.27345 0.9215 0.0
C866 C 0.22457 0.30287 0.85042 0.0
C867 C 0.24117 0.29221 0.81977 0.0
C868 C 0.25042 0.27358 0.84493 0.0
C869 C 0.24106 0.26432 0.89527 0.0
C870 C 0.21476 0.32315 0.82679 0.0
C871 C 0.26874 0.26202 0.81521 0.0
C872 C 0.246 0.27907 0.66047 0.0
C873 C 0.26685 0.28611 0.65099 0.0
C874 C 0.23513 0.28467 0.71267 0.0
C875 C 0.24587 0.297 0.75632 0.0
C876 C 0.26508 0.30751 0.74121 0.0
C877 C 0.27554 0.30185 0.68811 0.0
C878 C 0.21396 0.27417 0.72557 0.0
C879 C 0.27627 0.32189 0.78505 0.0
H880 H 0.20179 0.3005 0.92221 0.0
H881 H 0.24694 0.24915 0.91181 0.0
H882 H 0.22578 0.33199 0.79688 0.0
H883 H 0.20012 0.31919 0.80129 0.0
H884 H 0.20997 0.33372 0.86426 0.0
H885 H 0.27522 0.249 0.84361 0.0
H886 H 0.26329 0.25493 0.77244 0.0
H887 H 0.28188 0.27327 0.80498 0.0
H888 H 0.23925 0.26716 0.63086 0.0
H889 H 0.29165 0.30749 0.68017 0.0
H890 H 0.20302 0.28543 0.74832 0.0
H891 H 0.21646 0.2603 0.75569 0.0
H892 H 0.20618 0.26837 0.68405 0.0
H893 H 0.26467 0.3305 0.81368 0.0
H894 H 0.28651 0.33367 0.76144 0.0
H895 H 0.28667 0.31214 0.81446 0.0
C896 C 0.26085 0.69472 0.44035 0.0
C897 C 0.27035 0.71484 0.4337 0.0
C898 C 0.24546 0.6876 0.3993 0.0
C899 C 0.23966 0.70099 0.35099 0.0
C900 C 0.24968 0.72109 0.3436 0.0
C901 C 0.26474 0.72776 0.38521 0.0
C902 C 0.23506 0.66618 0.40906 0.0
C903 C 0.24422 0.73592 0.29238 0.0
C904 C 0.21417 0.69238 0.20369 0.0
C905 C 0.19622 0.70524 0.21231 0.0
C906 C 0.22739 0.68735 0.25223 0.0
C907 C 0.2222 0.6954 0.30952 0.0
C908 C 0.20205 0.70487 0.31943 0.0
C909 C 0.18941 0.7101 0.2702 0.0
C910 C 0.24842 0.67646 0.24053 0.0
C911 C 0.19544 0.71266 0.38045 0.0
H912 H 0.26522 0.68469 0.47788 0.0
H913 H 0.27218 0.74324 0.37949 0.0
H914 H 0.2203 0.6684 0.43573 0.0
H915 H 0.23057 0.6585 0.36623 0.0
H916 H 0.24571 0.65525 0.43428 0.0
H917 H 0.25436 0.75045 0.29175 0.0
H918 H 0.24623 0.72759 0.24904 0.0
H919 H 0.22733 0.74103 0.29588 0.0
H920 H 0.21912 0.68831 0.15868 0.0
H921 H 0.17506 0.71948 0.27667 0.0
H922 H 0.25309 0.66622 0.27884 0.0
H923 H 0.26099 0.68874 0.23442 0.0
H924 H 0.24776 0.66658 0.19939 0.0
H925 H 0.20041 0.70124 0.41565 0.0
H926 H 0.1779 0.71505 0.38328 0.0
H927 H 0.20333 0.72817 0.3896 0.0
C928 C 0.53874 0.9808 0.41865 0.0
C929 C 0.52211 0.96639 0.42976 0.0
C930 C 0.54355 -0.0031 0.46019 0.0
C931 C 0.53146 -0.0017 0.51351 0.0
C932 C 0.51566 0.98283 0.52635 0.0
C933 C 0.51112 0.9672 0.48415 0.0
C934 C 0.56064 0.01298 0.44526 0.0
C935 C 0.50255 0.98348 0.58314 0.0
C936 C 0.53883 0.02954 0.65422 0.0
C937 C 0.52194 0.04399 0.6481 0.0
C938 C 0.54438 0.016 0.60683 0.0
C939 C 0.53271 0.01717 0.55284 0.0
C940 C 0.51763 0.03366 0.54421 0.0
C941 C 0.51227 0.04678 0.59228 0.0
C942 C 0.56099 -0.00102 0.61688 0.0
C943 C 0.50524 0.03581 0.48667 0.0
H944 H 0.54736 0.98004 0.37669 0.0
H945 H 0.4985 0.95585 0.4934 0.0
H946 H 0.55317 0.02709 0.42387 0.0
H947 H 0.56909 0.0185 0.48596 0.0
H948 H 0.57249 0.00628 0.41346 0.0
H949 H 0.4921 0.96927 0.58809 0.0
H950 H 0.51311 0.98438 0.62279 0.0
H951 H 0.4923 -0.00209 0.58314 0.0
H952 H 0.54666 0.02772 0.69712 0.0
H953 H 0.49967 0.05847 0.58695 0.0
H954 H 0.57039 -0.00391 0.57564 0.0
H955 H 0.55295 0.98381 0.62911 0.0
H956 H 0.57204 0.00334 0.65369 0.0
H957 H 0.51588 0.03386 0.44748 0.0
H958 H 0.49709 0.0515 0.48331 0.0
H959 H 0.49293 0.02309 0.48461 0.0
C960 C 0.94759 0.02048 0.94582 0.0
C961 C 0.96755 0.01393 0.92427 0.0
C962 C 0.93847 0.01045 -0.00424 0.0
C963 C 0.94966 -0.00639 0.02379 0.0
C964 C 0.96835 0.9852 -0.00322 0.0
C965 C 0.97717 -0.00433 0.94755 0.0
C966 C 0.91812 0.01938 0.02154 0.0
C967 C 0.9805 0.96672 0.02381 0.0
C968 C 0.96359 0.98724 0.18253 0.0
C969 C 0.95653 0.96636 0.19122 0.0
C970 C 0.9579 -0.00158 0.13096 0.0
C971 C 0.94549 0.98797 0.08693 0.0
C972 C 0.93524 0.9685 0.10082 0.0
C973 C 0.94095 0.95776 0.15343 0.0
C974 C 0.96822 0.01979 0.11927 0.0
C975 C 0.92095 0.95749 0.05639 0.0
H976 H 0.94002 0.03455 0.92723 0.0
H977 H -0.0076 0.99044 0.9298 0.0
H978 H 0.9095 0.0075 0.0493 0.0
H979 H 0.92197 0.03336 0.04992 0.0
H980 H 0.90739 0.02499 0.98529 0.0
H981 H -0.00676 0.96076 0.99359 0.0
H982 H 0.98805 0.97182 0.06629 0.0
H983 H 0.96957 0.95331 0.03411 0.0
H984 H 0.97536 -0.00609 0.21271 0.0
H985 H 0.93531 0.94161 0.16078 0.0
H986 H 0.95678 0.03088 0.09775 0.0
H987 H 0.98195 0.01767 0.08849 0.0
H988 H 0.97416 0.02721 0.16113 0.0
H989 H 0.91218 0.96919 0.02846 0.0
H990 H 0.90932 0.94693 0.07942 0.0
H991 H 0.93081 0.94743 0.02634 0.0
C992 C -0.00218 0.44734 0.61346 0.0
C993 C 0.98506 0.44872 0.66476 0.0
C994 C -0.00419 0.46233 0.56707 0.0
C995 C 0.98083 0.47915 0.5725 0.0
C996 C 0.96722 0.48001 0.62284 0.0
C997 C 0.96941 0.46471 0.66814 0.0
C998 C 0.01031 0.46069 0.51338 0.0
C999 C 0.95107 0.49768 0.63031 0.0
C1000 C -0.00666 0.5298 0.48571 0.0
C1001 C 0.98021 0.52749 0.43551 0.0
C1002 C -0.00672 0.51444 0.53151 0.0
C1003 C 0.97992 0.49629 0.52656 0.0
C1004 C 0.96606 0.4943 0.47711 0.0
C1005 C 0.96627 0.50998 0.43241 0.0
C1006 C 0.00801 0.51729 0.58425 0.0
C1007 C 0.95161 0.47517 0.47016 0.0
H1008 H 0.00993 0.43505 0.61054 0.0
H1009 H 0.95945 0.46591 0.70761 0.0
H1010 H 0.0008 0.4611 0.47159 0.0
H1011 H 0.02128 0.47457 0.5123 0.0
H1012 H 0.01999 0.44585 0.51389 0.0
H1013 H 0.94078 0.49529 0.67021 0.0
H1014 H 0.95946 0.51317 0.63493 0.0
H1015 H 0.94074 0.49883 0.59022 0.0
H1016 H 0.00416 0.54326 0.48838 0.0
H1017 H 0.95607 0.50801 0.39372 0.0
H1018 H 0.02004 0.50431 0.58476 0.0
H1019 H -0.00114 0.51619 0.6266 0.0
H1020 H 0.01649 0.53284 0.58308 0.0
H1021 H 0.9614 0.46053 0.4654 0.0
H1022 H 0.94102 0.47655 0.43058 0.0
H1023 H 0.94157 0.47311 0.51058 0.0
C1024 C 0.78968 0.73192 0.87051 0.0
C1025 C 0.78767 0.72008 0.92334 0.0
C1026 C 0.7741 0.73066 0.82559 0.0
C1027 C 0.75603 0.7174 0.83411 0.0
C1028 C 0.75437 0.70475 0.88621 0.0
C1029 C 0.77028 0.70614 0.93001 0.0
C1030 C 0.77659 0.74409 0.76996 0.0
C1031 C 0.73533 0.69048 0.89698 0.0
C1032 C 0.70707 0.73426 0.74625 0.0
C1033 C 0.70834 0.72077 0.69649 0.0
C1034 C 0.72197 0.73269 0.79288 0.0
C1035 C 0.73855 0.71738 0.78928 0.0
C1036 C 0.73909 0.70287 0.74101 0.0
C1037 C 0.72389 0.70465 0.6954 0.0
C1038 C 0.72064 0.74815 0.84442 0.0
C1039 C 0.75648 0.6863 0.73561 0.0
H1040 H 0.80306 0.74271 0.86507 0.0
H1041 H 0.76855 0.69693 0.97077 0.0
H1042 H 0.77517 0.73396 0.72954 0.0
H1043 H 0.76365 0.75613 0.76798 0.0
H1044 H 0.79217 0.75252 0.76851 0.0
H1045 H 0.73716 0.68059 0.93788 0.0
H1046 H 0.72076 0.70038 0.90177 0.0
H1047 H 0.73279 0.67975 0.85827 0.0
H1048 H 0.69509 0.74672 0.74745 0.0
H1049 H 0.72496 0.69409 0.65719 0.0
H1050 H 0.73446 0.7592 0.84284 0.0
H1051 H 0.72143 0.73946 0.88758 0.0
H1052 H 0.70575 0.75774 0.84338 0.0
H1053 H 0.77199 0.69435 0.72759 0.0
H1054 H 0.7535 0.67499 0.69837 0.0
H1055 H 0.758 0.6771 0.77775 0.0
C1056 C 0.53065 0.50865 0.18625 0.0
C1057 C 0.51754 0.52654 0.17737 0.0
C1058 C 0.53092 0.49177 0.14528 0.0
C1059 C 0.51807 0.49294 0.09352 0.0
C1060 C 0.50541 0.51131 0.08305 0.0
C1061 C 0.50514 0.52783 0.12542 0.0
C1062 C 0.54447 0.47239 0.15833 0.0
C1063 C 0.49186 0.51331 0.02759 0.0
C1064 C 0.5317 0.45853 0.95977 0.0
C1065 C 0.51561 0.44296 0.96191 0.0
C1066 C 0.53292 0.47465 0.00292 0.0
C1067 C 0.51794 0.475 0.05013 0.0
C1068 C 0.50247 0.45859 0.05474 0.0
C1069 C 0.50138 0.4428 0.01025 0.0
C1070 C 0.54958 0.49191 -0.00379 0.0
C1071 C 0.48654 0.45818 0.10535 0.0
H1072 H 0.54017 0.50742 0.22653 0.0
H1073 H 0.49496 0.54158 0.11839 0.0
H1074 H 0.53414 0.45808 0.16233 0.0
H1075 H 0.5557 0.46944 0.12093 0.0
H1076 H 0.5538 0.47411 0.20023 0.0
H1077 H 0.48361 0.52897 0.02491 0.0
H1078 H 0.50189 0.51132 0.98711 0.0
H1079 H 0.47967 0.50049 0.02697 0.0
H1080 H 0.54278 0.45882 0.92257 0.0
H1081 H 0.4889 0.43085 0.01218 0.0
H1082 H 0.559 0.49347 0.0379 0.0
H1083 H 0.54163 0.50747 0.98823 0.0
H1084 H 0.56071 0.48875 0.95859 0.0
H1085 H 0.4949 0.45936 0.14892 0.0
H1086 H 0.4767 0.44345 0.10521 0.0
H1087 H 0.47576 0.47216 0.10179 0.0
C1088 C 0.79546 0.24493 0.23955 0.0
C1089 C 0.79421 0.2572 0.1873 0.0
C1090 C 0.77906 0.24559 0.28241 0.0
C1091 C 0.76086 0.2585 0.27209 0.0
C1092 C 0.75971 0.27118 0.21995 0.0
C1093 C 0.77648 0.27055 0.17858 0.0
C1094 C 0.78104 0.23222 0.3383 0.0
C1095 C 0.74049 0.28496 0.20697 0.0
C1096 C 0.71046 0.2436 0.35744 0.0
C1097 C 0.71095 0.25828 0.40459 0.0
C1098 C 0.72628 0.24387 0.31282 0.0
C1099 C 0.74309 0.25895 0.31615 0.0
C1100 C 0.74314 0.27433 0.36226 0.0
C1101 C 0.72697 0.27396 0.40545 0.0
C1102 C 0.72541 0.22758 0.26329 0.0
C1103 C 0.76084 0.29058 0.36766 0.0
H1104 H 0.80907 0.23455 0.24645 0.0
H1105 H 0.77525 0.27998 0.13809 0.0
H1106 H 0.77937 0.24246 0.37845 0.0
H1107 H 0.768 0.22028 0.33985 0.0
H1108 H 0.79655 0.22371 0.34074 0.0
H1109 H 0.74212 0.29394 0.16438 0.0
H1110 H 0.72598 0.27487 0.20439 0.0
H1111 H 0.73796 0.29653 0.24375 0.0
H1112 H 0.69818 0.23143 0.35652 0.0
H1113 H 0.72753 0.28538 0.44173 0.0
H1114 H 0.73921 0.21658 0.26709 0.0
H1115 H 0.72659 0.23559 0.21916 0.0
H1116 H 0.71051 0.21801 0.26453 0.0
H1117 H 0.77625 0.2823 0.37507 0.0
H1118 H 0.75816 0.3019 0.40509 0.0
H1119 H 0.76237 0.29985 0.32562 0.0
C1120 C 0.29075 0.23623 0.36272 0.0
C1121 C 0.28886 0.22381 0.41456 0.0
C1122 C 0.27603 0.23417 0.31578 0.0
C1123 C 0.259 0.21941 0.32108 0.0
C1124 C 0.25779 0.20594 0.37167 0.0
C1125 C 0.27279 0.20822 0.41766 0.0
C1126 C 0.27806 0.24855 0.26191 0.0
C1127 C 0.23993 0.18996 0.37891 0.0
C1128 C 0.20884 0.23364 0.23461 0.0
C1129 C 0.21095 0.22084 0.18368 0.0
C1130 C 0.22404 0.23282 0.28065 0.0
C1131 C 0.24181 0.21898 0.27532 0.0
C1132 C 0.24352 0.20535 0.22527 0.0
C1133 C 0.22802 0.20637 0.18022 0.0
C1134 C 0.22151 0.24735 0.33394 0.0
C1135 C 0.26222 0.19039 0.21794 0.0
H1136 H 0.30311 0.24829 0.35996 0.0
H1137 H 0.27122 0.1985 0.45751 0.0
H1138 H 0.27739 0.23904 0.2202 0.0
H1139 H 0.26449 0.2599 0.26088 0.0
H1140 H 0.29316 0.25784 0.26225 0.0
H1141 H 0.24238 0.17935 0.41812 0.0
H1142 H 0.2246 0.19855 0.38475 0.0
H1143 H 0.23843 0.17996 0.33829 0.0
H1144 H 0.19572 0.24485 0.23759 0.0
H1145 H 0.22981 0.1964 0.14099 0.0
H1146 H 0.23474 0.2591 0.33478 0.0
H1147 H 0.22239 0.23798 0.37597 0.0
H1148 H 0.20614 0.25617 0.33316 0.0
H1149 H 0.27709 0.19979 0.21237 0.0
H1150 H 0.26039 0.17975 0.17862 0.0
H1151 H 0.2642 0.18039 0.25848 0.0
C1152 C 0.27936 0.76592 0.71463 0.0
C1153 C 0.29387 0.74893 0.71012 0.0
C1154 C 0.26366 0.76627 0.75934 0.0
C1155 C 0.26256 0.74937 0.80118 0.0
C1156 C 0.27793 0.73281 0.79909 0.0
C1157 C 0.29335 0.73273 0.75339 0.0
C1158 C 0.24759 0.78422 0.75994 0.0
C1159 C 0.27754 0.71471 0.84365 0.0
C1160 C 0.2301 0.7583 0.94252 0.0
C1161 C 0.21103 0.74752 0.9294 0.0
C1162 C 0.24705 0.75887 0.90153 0.0
C1163 C 0.24482 0.74865 0.84558 0.0
C1164 C 0.22551 0.73799 0.83163 0.0
C1165 C 0.20888 0.73743 0.87388 0.0
C1166 C 0.26742 0.77022 0.91837 0.0
C1167 C 0.22242 0.72713 0.77207 0.0
H1168 H 0.27959 0.77851 0.6814 0.0
H1169 H 0.30447 0.71954 0.75024 0.0
H1170 H 0.23146 0.77779 0.75039 0.0
H1171 H 0.24696 0.79172 0.80477 0.0
H1172 H 0.25132 0.79675 0.72635 0.0
H1173 H 0.2916 0.70405 0.83905 0.0
H1174 H 0.27711 0.72105 0.8899 0.0
H1175 H 0.26287 0.70508 0.8372 0.0
H1176 H 0.23199 0.76601 0.98552 0.0
H1177 H 0.19423 0.72904 0.86347 0.0
H1178 H 0.2708 0.78318 0.88593 0.0
H1179 H 0.28103 0.75892 0.91646 0.0
H1180 H 0.26668 0.77721 0.96392 0.0
H1181 H 0.22457 0.73884 0.73532 0.0
H1182 H 0.20637 0.71978 0.7678 0.0
H1183 H 0.23464 0.71453 0.76605 0.0
C1184 C 0.47192 0.96251 0.14791 0.0
C1185 C 0.48881 0.94779 0.14813 0.0
C1186 C 0.4708 0.9788 0.10495 0.0
C1187 C 0.48677 0.98027 0.06043 0.0
C1188 C 0.50318 0.96474 0.05825 0.0
C1189 C 0.50409 0.94875 0.10238 0.0
C1190 C 0.4531 -0.00493 0.1091 0.0
C1191 C 0.52026 0.9655 0.01073 0.0
C1192 C 0.47574 0.01492 0.92417 0.0
C1193 C 0.4874 0.03345 0.93737 0.0
C1194 C 0.47547 -0.00254 0.96358 0.0
C1195 C 0.48685 -0.00135 0.01803 0.0
C1196 C 0.49825 0.01751 0.03228 0.0
C1197 C 0.49853 0.03461 0.99156 0.0
C1198 C 0.46333 0.97759 0.9464 0.0
C1199 C 0.51031 0.01954 0.09038 0.0
H1200 H 0.46006 0.96196 0.18313 0.0
H1201 H 0.51718 0.93746 0.10218 0.0
H1202 H 0.45996 0.01096 0.11948 0.0
H1203 H 0.44471 -0.00351 0.06567 0.0
H1204 H 0.44123 0.99098 0.14419 0.0
H1205 H 0.53078 0.95124 0.01199 0.0
H1206 H 0.51292 0.96666 0.96574 0.0
H1207 H 0.53026 0.97993 0.01705 0.0
H1208 H 0.46724 0.01379 0.88213 0.0
H1209 H 0.50759 0.04885 0.00203 0.0
H1210 H 0.45117 0.97382 0.98086 0.0
H1211 H 0.47441 0.96381 0.94421 0.0
H1212 H 0.45522 0.97924 0.90251 0.0
H1213 H 0.49935 0.01687 0.12863 0.0
H1214 H 0.51788 0.03546 0.0955 0.0
H1215 H 0.52291 0.00716 0.09283 0.0
C1216 C 0.03191 0.0097 0.66913 0.0
C1217 C 0.01792 0.02715 0.66503 0.0
C1218 C 0.03233 -0.00614 0.62501 0.0
C1219 C 0.01867 -0.00437 0.57505 0.0
C1220 C 0.00528 0.01373 0.56906 0.0
C1221 C 0.00498 0.02924 0.61435 0.0
C1222 C 0.04677 0.97478 0.63314 0.0
C1223 C 0.99078 0.01636 0.51573 0.0
C1224 C 0.0299 0.96365 0.4348 0.0
C1225 C 0.01424 0.94766 0.43797 0.0
C1226 C 0.03186 0.97907 0.47977 0.0
C1227 C 0.01801 0.97834 0.52961 0.0
C1228 C 0.00302 0.96151 0.53492 0.0
C1229 C 0.00124 0.94639 0.48884 0.0
C1230 C 0.04802 -0.00325 0.47238 0.0
C1231 C 0.98827 0.95998 0.58811 0.0
H1232 H 0.04195 0.0079 0.70823 0.0
H1233 H -0.00588 0.04264 0.61091 0.0
H1234 H 0.03697 0.96014 0.6381 0.0
H1235 H 0.05699 0.97258 0.59315 0.0
H1236 H 0.05719 0.97632 0.67303 0.0
H1237 H 0.98227 0.0319 0.51606 0.0
H1238 H 0.00012 0.01513 0.47373 0.0
H1239 H 0.97877 0.00336 0.51527 0.0
H1240 H 0.04005 0.96477 0.39568 0.0
H1241 H 0.9891 0.93412 0.4916 0.0
H1242 H 0.05815 -0.00196 0.51283 0.0
H1243 H 0.03963 0.01221 0.46697 0.0
H1244 H 0.05851 -0.00574 0.43296 0.0
H1245 H -0.00243 0.96058 0.63024 0.0
H1246 H 0.97866 0.94509 0.58774 0.0
H1247 H 0.97723 0.9738 0.58829 0.0
loop_
_geom_bond_atom_site_label_1
_geom_bond_atom_site_label_2
_geom_bond_distance
_geom_bond_site_symmetry_2
_ccdc_geom_bond_type
C0 O1 1.306 . S
C0 O3 1.160 . S
O1 C0 1.306 . S
O1 Cd2 2.228 . S
Cd2 O1 2.228 . S
Cd2 O6 2.273 . S
Cd2 O10 2.277 1_655 S
O3 C0 1.160 . S
O3 Cd4 2.203 1_655 S
Cd4 O3 2.203 1_455 S
Cd4 O6 2.411 1_455 S
Cd4 O7 2.333 . S
Cd4 O8 2.352 1_455 S
Cd4 O12 2.277 . S
Cd4 O13 2.356 . S
C5 O10 1.209 . S
C5 O12 1.226 . S
O6 Cd2 2.273 . S
O6 Cd4 2.411 1_655 S
O6 C9 1.320 1_655 S
O7 Cd4 2.333 . S
O7 C9 1.214 . S
O8 Cd4 2.352 1_655 S
O8 C11 1.258 1_655 S
C9 O6 1.320 1_455 S
C9 O7 1.214 . S
O10 Cd2 2.277 1_455 S
O10 C5 1.209 . S
C11 O8 1.258 1_455 S
C11 O13 1.282 . S
O12 Cd4 2.277 . S
O12 C5 1.226 . S
O13 Cd4 2.356 . S
O13 C11 1.282 . S
C14 O15 1.306 . S
C14 O17 1.160 . S
O15 C14 1.306 . S
O15 Cd16 2.228 . S
Cd16 O15 2.228 . S
Cd16 O20 2.273 . S
Cd16 O24 2.277 . S
O17 C14 1.160 . S
O17 Cd18 2.203 . S
Cd18 O17 2.203 . S
Cd18 O20 2.411 . S
Cd18 O21 2.333 . S
Cd18 O22 2.352 . S
Cd18 O26 2.277 . S
Cd18 O27 2.356 . S
C19 O24 1.209 . S
C19 O26 1.226 . S
O20 Cd16 2.273 . S
O20 Cd18 2.411 . S
O20 C23 1.320 . S
O21 Cd18 2.333 . S
O21 C23 1.214 . S
O22 Cd18 2.352 . S
O22 C25 1.258 . S
C23 O20 1.320 . S
C23 O21 1.214 . S
O24 Cd16 2.277 . S
O24 C19 1.209 . S
C25 O22 1.258 . S
C25 O27 1.282 . S
O26 Cd18 2.277 . S
O26 C19 1.226 . S
O27 Cd18 2.356 . S
O27 C25 1.282 . S
C28 O29 1.306 . S
C28 O31 1.160 . S
O29 C28 1.306 . S
O29 Cd30 2.228 . S
Cd30 O29 2.228 . S
Cd30 O34 2.273 . S
Cd30 O38 2.277 . S
O31 C28 1.160 . S
O31 Cd32 2.203 . S
Cd32 O31 2.203 . S
Cd32 O34 2.411 . S
Cd32 O35 2.333 . S
Cd32 O36 2.352 . S
Cd32 O40 2.277 . S
Cd32 O41 2.356 . S
C33 O38 1.209 . S
C33 O40 1.226 . S
O34 Cd30 2.273 . S
O34 Cd32 2.411 . S
O34 C37 1.320 . S
O35 Cd32 2.333 . S
O35 C37 1.214 . S
O36 Cd32 2.352 . S
O36 C39 1.258 . S
C37 O34 1.320 . S
C37 O35 1.214 . S
O38 Cd30 2.277 . S
O38 C33 1.209 . S
C39 O36 1.258 . S
C39 O41 1.282 . S
O40 Cd32 2.277 . S
O40 C33 1.226 . S
O41 Cd32 2.356 . S
O41 C39 1.282 . S
C42 O43 1.306 1_554 S
C42 O45 1.160 . S
O43 C42 1.306 1_556 S
O43 Cd44 2.228 . S
Cd44 O43 2.228 . S
Cd44 O48 2.273 . S
Cd44 O52 2.277 . S
O45 C42 1.160 . S
O45 Cd46 2.203 . S
Cd46 O45 2.203 . S
Cd46 O48 2.411 1_554 S
Cd46 O49 2.333 1_554 S
Cd46 O50 2.352 . S
Cd46 O54 2.277 . S
Cd46 O55 2.356 . S
C47 O52 1.209 . S
C47 O54 1.226 1_556 S
O48 Cd44 2.273 . S
O48 Cd46 2.411 1_556 S
O48 C51 1.320 . S
O49 Cd46 2.333 1_556 S
O49 C51 1.214 . S
O50 Cd46 2.352 . S
O50 C53 1.258 . S
C51 O48 1.320 . S
C51 O49 1.214 . S
O52 Cd44 2.277 . S
O52 C47 1.209 . S
C53 O50 1.258 . S
C53 O55 1.282 . S
O54 Cd46 2.277 . S
O54 C47 1.226 1_554 S
O55 Cd46 2.356 . S
O55 C53 1.282 . S
C56 O57 1.306 . S
C56 O59 1.160 . S
O57 C56 1.306 . S
O57 Cd58 2.228 . S
Cd58 O57 2.228 . S
Cd58 O62 2.273 . S
Cd58 O66 2.277 1_655 S
O59 C56 1.160 . S
O59 Cd60 2.203 1_655 S
Cd60 O59 2.203 1_455 S
Cd60 O62 2.411 1_455 S
Cd60 O63 2.333 . S
Cd60 O64 2.352 1_455 S
Cd60 O68 2.277 . S
Cd60 O69 2.356 . S
C61 O66 1.209 . S
C61 O68 1.226 . S
O62 Cd58 2.273 . S
O62 Cd60 2.411 1_655 S
O62 C65 1.320 1_655 S
O63 Cd60 2.333 . S
O63 C65 1.214 . S
O64 Cd60 2.352 1_655 S
O64 C67 1.258 1_655 S
C65 O62 1.320 1_455 S
C65 O63 1.214 . S
O66 Cd58 2.277 1_455 S
O66 C61 1.209 . S
C67 O64 1.258 1_455 S
C67 O69 1.282 . S
O68 Cd60 2.277 . S
O68 C61 1.226 . S
O69 Cd60 2.356 . S
O69 C67 1.282 . S
C70 O71 1.306 . S
C70 O73 1.160 . S
O71 C70 1.306 . S
O71 Cd72 2.228 . S
Cd72 O71 2.228 . S
Cd72 O76 2.273 . S
Cd72 O80 2.277 . S
O73 C70 1.160 . S
O73 Cd74 2.203 . S
Cd74 O73 2.203 . S
Cd74 O76 2.411 . S
Cd74 O77 2.333 . S
Cd74 O78 2.352 . S
Cd74 O82 2.277 . S
Cd74 O83 2.356 1_554 S
C75 O80 1.209 . S
C75 O82 1.226 . S
O76 Cd72 2.273 . S
O76 Cd74 2.411 . S
O76 C79 1.320 . S
O77 Cd74 2.333 . S
O77 C79 1.214 . S
O78 Cd74 2.352 . S
O78 C81 1.258 1_554 S
C79 O76 1.320 . S
C79 O77 1.214 . S
O80 Cd72 2.277 . S
O80 C75 1.209 . S
C81 O78 1.258 1_556 S
C81 O83 1.282 . S
O82 Cd74 2.277 . S
O82 C75 1.226 . S
O83 Cd74 2.356 1_556 S
O83 C81 1.282 . S
C84 O85 1.306 . S
C84 O87 1.160 . S
O85 C84 1.306 . S
O85 Cd86 2.228 . S
Cd86 O85 2.228 . S
Cd86 O90 2.273 . S
Cd86 O94 2.277 . S
O87 C84 1.160 . S
O87 Cd88 2.203 . S
Cd88 O87 2.203 . S
Cd88 O90 2.411 . S
Cd88 O91 2.333 . S
Cd88 O92 2.352 . S
Cd88 O96 2.277 . S
Cd88 O97 2.356 . S
C89 O94 1.209 . S
C89 O96 1.226 . S
O90 Cd86 2.273 . S
O90 Cd88 2.411 . S
O90 C93 1.320 . S
O91 Cd88 2.333 . S
O91 C93 1.214 . S
O92 Cd88 2.352 . S
O92 C95 1.258 . S
C93 O90 1.320 . S
C93 O91 1.214 . S
O94 Cd86 2.277 . S
O94 C89 1.209 . S
C95 O92 1.258 . S
C95 O97 1.282 . S
O96 Cd88 2.277 . S
O96 C89 1.226 . S
O97 Cd88 2.356 . S
O97 C95 1.282 . S
C98 O99 1.306 . S
C98 O101 1.160 . S
O99 C98 1.306 . S
O99 Cd100 2.228 . S
Cd100 O99 2.228 . S
Cd100 O104 2.273 . S
Cd100 O108 2.277 . S
O101 C98 1.160 . S
O101 Cd102 2.203 . S
Cd102 O101 2.203 . S
Cd102 O104 2.411 . S
Cd102 O105 2.333 . S
Cd102 O106 2.352 . S
Cd102 O110 2.277 . S
Cd102 O111 2.356 . S
C103 O108 1.209 . S
C103 O110 1.226 . S
O104 Cd100 2.273 . S
O104 Cd102 2.411 . S
O104 C107 1.320 . S
O105 Cd102 2.333 . S
O105 C107 1.214 . S
O106 Cd102 2.352 . S
O106 C109 1.258 . S
C107 O104 1.320 . S
C107 O105 1.214 . S
O108 Cd100 2.277 . S
O108 C103 1.209 . S
C109 O106 1.258 . S
C109 O111 1.282 . S
O110 Cd102 2.277 . S
O110 C103 1.226 . S
O111 Cd102 2.356 . S
O111 C109 1.282 . S
C112 O113 1.306 . S
C112 O115 1.160 . S
O113 C112 1.306 . S
O113 Cd114 2.228 . S
Cd114 O113 2.228 . S
Cd114 O118 2.273 . S
Cd114 O122 2.277 . S
O115 C112 1.160 . S
O115 Cd116 2.203 . S
Cd116 O115 2.203 . S
Cd116 O118 2.411 . S
Cd116 O119 2.333 . S
Cd116 O120 2.352 . S
Cd116 O124 2.277 . S
Cd116 O125 2.356 . S
C117 O122 1.209 . S
C117 O124 1.226 . S
O118 Cd114 2.273 . S
O118 Cd116 2.411 . S
O118 C121 1.320 . S
O119 Cd116 2.333 . S
O119 C121 1.214 . S
O120 Cd116 2.352 . S
O120 C123 1.258 . S
C121 O118 1.320 . S
C121 O119 1.214 . S
O122 Cd114 2.277 . S
O122 C117 1.209 . S
C123 O120 1.258 . S
C123 O125 1.282 . S
O124 Cd116 2.277 . S
O124 C117 1.226 . S
O125 Cd116 2.356 . S
O125 C123 1.282 . S
C126 O127 1.306 . S
C126 O129 1.160 . S
O127 C126 1.306 . S
O127 Cd128 2.228 . S
Cd128 O127 2.228 . S
Cd128 O132 2.273 . S
Cd128 O136 2.277 . S
O129 C126 1.160 . S
O129 Cd130 2.203 . S
Cd130 O129 2.203 . S
Cd130 O132 2.411 . S
Cd130 O133 2.333 . S
Cd130 O134 2.352 . S
Cd130 O138 2.277 . S
Cd130 O139 2.356 1_554 S
C131 O136 1.209 . S
C131 O138 1.226 . S
O132 Cd128 2.273 . S
O132 Cd130 2.411 . S
O132 C135 1.320 . S
O133 Cd130 2.333 . S
O133 C135 1.214 . S
O134 Cd130 2.352 . S
O134 C137 1.258 1_554 S
C135 O132 1.320 . S
C135 O133 1.214 . S
O136 Cd128 2.277 . S
O136 C131 1.209 . S
C137 O134 1.258 1_556 S
C137 O139 1.282 . S
O138 Cd130 2.277 . S
O138 C131 1.226 . S
O139 Cd130 2.356 1_556 S
O139 C137 1.282 . S
C140 O141 1.306 1_554 S
C140 O143 1.160 . S
O141 C140 1.306 1_556 S
O141 Cd142 2.228 . S
Cd142 O141 2.228 . S
Cd142 O146 2.273 . S
Cd142 O150 2.277 . S
O143 C140 1.160 . S
O143 Cd144 2.203 . S
Cd144 O143 2.203 . S
Cd144 O146 2.411 1_554 S
Cd144 O147 2.333 1_554 S
Cd144 O148 2.352 . S
Cd144 O152 2.277 . S
Cd144 O153 2.356 . S
C145 O150 1.209 . S
C145 O152 1.226 1_556 S
O146 Cd142 2.273 . S
O146 Cd144 2.411 1_556 S
O146 C149 1.320 . S
O147 Cd144 2.333 1_556 S
O147 C149 1.214 . S
O148 Cd144 2.352 . S
O148 C151 1.258 . S
C149 O146 1.320 . S
C149 O147 1.214 . S
O150 Cd142 2.277 . S
O150 C145 1.209 . S
C151 O148 1.258 . S
C151 O153 1.282 . S
O152 Cd144 2.277 . S
O152 C145 1.226 1_554 S
O153 Cd144 2.356 . S
O153 C151 1.282 . S
C154 O155 1.306 . S
C154 O157 1.160 . S
O155 C154 1.306 . S
O155 Cd156 2.228 . S
Cd156 O155 2.228 . S
Cd156 O160 2.273 . S
Cd156 O164 2.277 . S
O157 C154 1.160 . S
O157 Cd158 2.203 . S
Cd158 O157 2.203 . S
Cd158 O160 2.411 . S
Cd158 O161 2.333 . S
Cd158 O162 2.352 . S
Cd158 O166 2.277 . S
Cd158 O167 2.356 . S
C159 O164 1.209 . S
C159 O166 1.226 . S
O160 Cd156 2.273 . S
O160 Cd158 2.411 . S
O160 C163 1.320 . S
O161 Cd158 2.333 . S
O161 C163 1.214 . S
O162 Cd158 2.352 . S
O162 C165 1.258 . S
C163 O160 1.320 . S
C163 O161 1.214 . S
O164 Cd156 2.277 . S
O164 C159 1.209 . S
C165 O162 1.258 . S
C165 O167 1.282 . S
O166 Cd158 2.277 . S
O166 C159 1.226 . S
O167 Cd158 2.356 . S
O167 C165 1.282 . S
C168 O169 1.306 . S
C168 O171 1.160 . S
O169 C168 1.306 . S
O169 Cd170 2.228 . S
Cd170 O169 2.228 . S
Cd170 O174 2.273 . S
Cd170 O178 2.277 . S
O171 C168 1.160 . S
O171 Cd172 2.203 . S
Cd172 O171 2.203 . S
Cd172 O174 2.411 . S
Cd172 O175 2.333 . S
Cd172 O176 2.352 . S
Cd172 O180 2.277 . S
Cd172 O181 2.356 . S
C173 O178 1.209 . S
C173 O180 1.226 . S
O174 Cd170 2.273 . S
O174 Cd172 2.411 . S
O174 C177 1.320 . S
O175 Cd172 2.333 . S
O175 C177 1.214 . S
O176 Cd172 2.352 . S
O176 C179 1.258 . S
C177 O174 1.320 . S
C177 O175 1.214 . S
O178 Cd170 2.277 . S
O178 C173 1.209 . S
C179 O176 1.258 . S
C179 O181 1.282 . S
O180 Cd172 2.277 . S
O180 C173 1.226 . S
O181 Cd172 2.356 . S
O181 C179 1.282 . S
C182 O183 1.306 . S
C182 O185 1.160 . S
O183 C182 1.306 . S
O183 Cd184 2.228 . S
Cd184 O183 2.228 . S
Cd184 O188 2.273 . S
Cd184 O192 2.277 1_455 S
O185 C182 1.160 . S
O185 Cd186 2.203 . S
Cd186 O185 2.203 . S
Cd186 O188 2.411 . S
Cd186 O189 2.333 1_455 S
Cd186 O190 2.352 . S
Cd186 O194 2.277 1_455 S
Cd186 O195 2.356 1_455 S
C187 O192 1.209 . S
C187 O194 1.226 . S
O188 Cd184 2.273 . S
O188 Cd186 2.411 . S
O188 C191 1.320 . S
O189 Cd186 2.333 1_655 S
O189 C191 1.214 1_655 S
O190 Cd186 2.352 . S
O190 C193 1.258 . S
C191 O188 1.320 . S
C191 O189 1.214 1_455 S
O192 Cd184 2.277 1_655 S
O192 C187 1.209 . S
C193 O190 1.258 . S
C193 O195 1.282 1_455 S
O194 Cd186 2.277 1_655 S
O194 C187 1.226 . S
O195 Cd186 2.356 1_655 S
O195 C193 1.282 1_655 S
C196 O197 1.306 . S
C196 O199 1.160 . S
O197 C196 1.306 . S
O197 Cd198 2.228 . S
Cd198 O197 2.228 . S
Cd198 O202 2.273 . S
Cd198 O206 2.277 . S
O199 C196 1.160 . S
O199 Cd200 2.203 . S
Cd200 O199 2.203 . S
Cd200 O202 2.411 . S
Cd200 O203 2.333 . S
Cd200 O204 2.352 . S
Cd200 O208 2.277 . S
Cd200 O209 2.356 . S
C201 O206 1.209 . S
C201 O208 1.226 . S
O202 Cd198 2.273 . S
O202 Cd200 2.411 . S
O202 C205 1.320 . S
O203 Cd200 2.333 . S
O203 C205 1.214 . S
O204 Cd200 2.352 . S
O204 C207 1.258 . S
C205 O202 1.320 . S
C205 O203 1.214 . S
O206 Cd198 2.277 . S
O206 C201 1.209 . S
C207 O204 1.258 . S
C207 O209 1.282 . S
O208 Cd200 2.277 . S
O208 C201 1.226 . S
O209 Cd200 2.356 . S
O209 C207 1.282 . S
C210 O211 1.306 . S
C210 O213 1.160 . S
O211 C210 1.306 . S
O211 Cd212 2.228 . S
Cd212 O211 2.228 . S
Cd212 O216 2.273 . S
Cd212 O220 2.277 1_455 S
O213 C210 1.160 . S
O213 Cd214 2.203 . S
Cd214 O213 2.203 . S
Cd214 O216 2.411 . S
Cd214 O217 2.333 1_455 S
Cd214 O218 2.352 . S
Cd214 O222 2.277 1_455 S
Cd214 O223 2.356 1_455 S
C215 O220 1.209 . S
C215 O222 1.226 . S
O216 Cd212 2.273 . S
O216 Cd214 2.411 . S
O216 C219 1.320 . S
O217 Cd214 2.333 1_655 S
O217 C219 1.214 1_655 S
O218 Cd214 2.352 . S
O218 C221 1.258 . S
C219 O216 1.320 . S
C219 O217 1.214 1_455 S
O220 Cd212 2.277 1_655 S
O220 C215 1.209 . S
C221 O218 1.258 . S
C221 O223 1.282 1_455 S
O222 Cd214 2.277 1_655 S
O222 C215 1.226 . S
O223 Cd214 2.356 1_655 S
O223 C221 1.282 1_655 S
C224 C225 1.391 . S
C224 C226 1.394 . S
C224 H240 0.931 . S
C225 C224 1.391 . S
C225 C229 1.376 . S
C226 C224 1.394 . S
C226 C227 1.369 . S
C226 C230 1.531 . S
C227 C226 1.369 . S
C227 C228 1.410 . S
C227 C235 1.503 . S
C228 C227 1.410 . S
C228 C229 1.392 . S
C228 C231 1.511 . S
C229 C225 1.376 . S
C229 C228 1.392 . S
C229 H241 0.929 . S
C230 C226 1.531 . S
C230 H242 0.960 . S
C230 H243 0.962 . S
C230 H244 0.960 . S
C231 C228 1.511 . S
C231 H245 0.961 . S
C231 H246 0.961 . S
C231 H247 0.961 . S
C232 C233 1.370 . S
C232 C234 1.363 . S
C232 H248 0.931 . S
C233 C232 1.370 . S
C233 C237 1.408 . S
C234 C232 1.363 . S
C234 C235 1.370 . S
C234 C238 1.524 . S
C235 C227 1.503 . S
C235 C234 1.370 . S
C235 C236 1.403 . S
C236 C235 1.403 . S
C236 C237 1.404 . S
C236 C239 1.539 . S
C237 C233 1.408 . S
C237 C236 1.404 . S
C237 H249 0.930 . S
C238 C234 1.524 . S
C238 H250 0.956 . S
C238 H251 0.961 . S
C238 H252 0.961 . S
C239 C236 1.539 . S
C239 H253 0.958 . S
C239 H254 0.961 . S
C239 H255 0.960 . S
H240 C224 0.931 . S
H241 C229 0.929 . S
H242 C230 0.960 . S
H243 C230 0.962 . S
H244 C230 0.960 . S
H245 C231 0.961 . S
H246 C231 0.961 . S
H247 C231 0.961 . S
H248 C232 0.931 . S
H249 C237 0.930 . S
H250 C238 0.956 . S
H251 C238 0.961 . S
H252 C238 0.961 . S
H253 C239 0.958 . S
H254 C239 0.961 . S
H255 C239 0.960 . S
C256 C257 1.391 . S
C256 C258 1.394 . S
C256 H272 0.931 . S
C257 C256 1.391 . S
C257 C261 1.376 . S
C258 C256 1.394 . S
C258 C259 1.369 . S
C258 C262 1.531 . S
C259 C258 1.369 . S
C259 C260 1.410 . S
C259 C267 1.503 . S
C260 C259 1.410 . S
C260 C261 1.392 . S
C260 C263 1.511 . S
C261 C257 1.376 . S
C261 C260 1.392 . S
C261 H273 0.929 . S
C262 C258 1.531 . S
C262 H274 0.960 . S
C262 H275 0.962 . S
C262 H276 0.960 . S
C263 C260 1.511 . S
C263 H277 0.961 . S
C263 H278 0.961 . S
C263 H279 0.961 . S
C264 C265 1.370 . S
C264 C266 1.363 . S
C264 H280 0.931 . S
C265 C264 1.370 . S
C265 C269 1.408 . S
C266 C264 1.363 . S
C266 C267 1.370 . S
C266 C270 1.524 . S
C267 C259 1.503 . S
C267 C266 1.370 . S
C267 C268 1.403 . S
C268 C267 1.403 . S
C268 C269 1.404 . S
C268 C271 1.539 . S
C269 C265 1.408 . S
C269 C268 1.404 . S
C269 H281 0.930 . S
C270 C266 1.524 . S
C270 H282 0.956 . S
C270 H283 0.961 . S
C270 H284 0.961 . S
C271 C268 1.539 . S
C271 H285 0.958 . S
C271 H286 0.961 . S
C271 H287 0.960 . S
H272 C256 0.931 . S
H273 C261 0.929 . S
H274 C262 0.960 . S
H275 C262 0.962 . S
H276 C262 0.960 . S
H277 C263 0.961 . S
H278 C263 0.961 . S
H279 C263 0.961 . S
H280 C264 0.931 . S
H281 C269 0.930 . S
H282 C270 0.956 . S
H283 C270 0.961 . S
H284 C270 0.961 . S
H285 C271 0.958 . S
H286 C271 0.961 . S
H287 C271 0.960 . S
C288 C289 1.391 . S
C288 C290 1.394 . S
C288 H304 0.931 . S
C289 C288 1.391 . S
C289 C293 1.376 . S
C290 C288 1.394 . S
C290 C291 1.369 . S
C290 C294 1.531 . S
C291 C290 1.369 . S
C291 C292 1.410 . S
C291 C299 1.503 . S
C292 C291 1.410 . S
C292 C293 1.392 . S
C292 C295 1.511 . S
C293 C289 1.376 . S
C293 C292 1.392 . S
C293 H305 0.929 . S
C294 C290 1.531 . S
C294 H306 0.960 . S
C294 H307 0.962 . S
C294 H308 0.960 . S
C295 C292 1.511 . S
C295 H309 0.961 . S
C295 H310 0.961 . S
C295 H311 0.961 . S
C296 C297 1.370 . S
C296 C298 1.363 . S
C296 H312 0.931 . S
C297 C296 1.370 . S
C297 C301 1.408 . S
C298 C296 1.363 . S
C298 C299 1.370 . S
C298 C302 1.524 . S
C299 C291 1.503 . S
C299 C298 1.370 . S
C299 C300 1.403 . S
C300 C299 1.403 . S
C300 C301 1.404 . S
C300 C303 1.539 . S
C301 C297 1.408 . S
C301 C300 1.404 . S
C301 H313 0.930 . S
C302 C298 1.524 . S
C302 H314 0.956 . S
C302 H315 0.961 . S
C302 H316 0.961 . S
C303 C300 1.539 . S
C303 H317 0.958 . S
C303 H318 0.961 . S
C303 H319 0.960 . S
H304 C288 0.931 . S
H305 C293 0.929 . S
H306 C294 0.960 . S
H307 C294 0.962 . S
H308 C294 0.960 . S
H309 C295 0.961 . S
H310 C295 0.961 . S
H311 C295 0.961 . S
H312 C296 0.931 . S
H313 C301 0.930 . S
H314 C302 0.956 . S
H315 C302 0.961 . S
H316 C302 0.961 . S
H317 C303 0.958 . S
H318 C303 0.961 . S
H319 C303 0.960 . S
C320 C321 1.391 . S
C320 C322 1.394 . S
C320 H336 0.931 . S
C321 C320 1.391 . S
C321 C325 1.376 . S
C322 C320 1.394 . S
C322 C323 1.369 . S
C322 C326 1.531 . S
C323 C322 1.369 . S
C323 C324 1.410 . S
C323 C331 1.503 . S
C324 C323 1.410 . S
C324 C325 1.392 . S
C324 C327 1.511 1_556 S
C325 C321 1.376 . S
C325 C324 1.392 . S
C325 H337 0.929 1_556 S
C326 C322 1.531 . S
C326 H338 0.960 . S
C326 H339 0.962 . S
C326 H340 0.960 . S
C327 C324 1.511 1_554 S
C327 H341 0.961 . S
C327 H342 0.961 . S
C327 H343 0.961 1_554 S
C328 C329 1.370 . S
C328 C330 1.363 . S
C328 H344 0.931 . S
C329 C328 1.370 . S
C329 C333 1.408 . S
C330 C328 1.363 . S
C330 C331 1.370 . S
C330 C334 1.524 1_556 S
C331 C323 1.503 . S
C331 C330 1.370 . S
C331 C332 1.403 . S
C332 C331 1.403 . S
C332 C333 1.404 . S
C332 C335 1.539 . S
C333 C329 1.408 . S
C333 C332 1.404 . S
C333 H345 0.930 . S
C334 C330 1.524 1_554 S
C334 H346 0.956 1_554 S
C334 H347 0.961 . S
C334 H348 0.961 . S
C335 C332 1.539 . S
C335 H349 0.958 . S
C335 H350 0.961 . S
C335 H351 0.960 . S
H336 C320 0.931 . S
H337 C325 0.929 1_554 S
H338 C326 0.960 . S
H339 C326 0.962 . S
H340 C326 0.960 . S
H341 C327 0.961 . S
H342 C327 0.961 . S
H343 C327 0.961 1_556 S
H344 C328 0.931 . S
H345 C333 0.930 . S
H346 C334 0.956 1_556 S
H347 C334 0.961 . S
H348 C334 0.961 . S
H349 C335 0.958 . S
H350 C335 0.961 . S
H351 C335 0.960 . S
C352 C353 1.391 . S
C352 C354 1.394 . S
C352 H368 0.931 . S
C353 C352 1.391 . S
C353 C357 1.376 . S
C354 C352 1.394 . S
C354 C355 1.369 . S
C354 C358 1.531 1_556 S
C355 C354 1.369 . S
C355 C356 1.410 . S
C355 C363 1.503 . S
C356 C355 1.410 . S
C356 C357 1.392 . S
C356 C359 1.511 . S
C357 C353 1.376 . S
C357 C356 1.392 . S
C357 H369 0.929 . S
C358 C354 1.531 1_554 S
C358 H370 0.960 . S
C358 H371 0.962 1_554 S
C358 H372 0.960 . S
C359 C356 1.511 . S
C359 H373 0.961 . S
C359 H374 0.961 . S
C359 H375 0.961 . S
C360 C361 1.370 . S
C360 C362 1.363 . S
C360 H376 0.931 . S
C361 C360 1.370 . S
C361 C365 1.408 1_556 S
C362 C360 1.363 . S
C362 C363 1.370 . S
C362 C366 1.524 . S
C363 C355 1.503 . S
C363 C362 1.370 . S
C363 C364 1.403 . S
C364 C363 1.403 . S
C364 C365 1.404 1_556 S
C364 C367 1.539 1_556 S
C365 C361 1.408 1_554 S
C365 C364 1.404 1_554 S
C365 H377 0.930 . S
C366 C362 1.524 . S
C366 H378 0.956 . S
C366 H379 0.961 . S
C366 H380 0.961 . S
C367 C364 1.539 1_554 S
C367 H381 0.958 . S
C367 H382 0.961 . S
C367 H383 0.960 . S
H368 C352 0.931 . S
H369 C357 0.929 . S
H370 C358 0.960 . S
H371 C358 0.962 1_556 S
H372 C358 0.960 . S
H373 C359 0.961 . S
H374 C359 0.961 . S
H375 C359 0.961 . S
H376 C360 0.931 . S
H377 C365 0.930 . S
H378 C366 0.956 . S
H379 C366 0.961 . S
H380 C366 0.961 . S
H381 C367 0.958 . S
H382 C367 0.961 . S
H383 C367 0.960 . S
C384 C385 1.391 . S
C384 C386 1.394 . S
C384 H400 0.931 . S
C385 C384 1.391 . S
C385 C389 1.376 . S
C386 C384 1.394 . S
C386 C387 1.369 . S
C386 C390 1.531 . S
C387 C386 1.369 . S
C387 C388 1.410 . S
C387 C395 1.503 . S
C388 C387 1.410 . S
C388 C389 1.392 . S
C388 C391 1.511 . S
C389 C385 1.376 . S
C389 C388 1.392 . S
C389 H401 0.929 . S
C390 C386 1.531 . S
C390 H402 0.960 . S
C390 H403 0.962 . S
C390 H404 0.960 . S
C391 C388 1.511 . S
C391 H405 0.961 . S
C391 H406 0.961 . S
C391 H407 0.961 . S
C392 C393 1.370 . S
C392 C394 1.363 . S
C392 H408 0.931 . S
C393 C392 1.370 . S
C393 C397 1.408 . S
C394 C392 1.363 . S
C394 C395 1.370 . S
C394 C398 1.524 . S
C395 C387 1.503 . S
C395 C394 1.370 . S
C395 C396 1.403 . S
C396 C395 1.403 . S
C396 C397 1.404 . S
C396 C399 1.539 . S
C397 C393 1.408 . S
C397 C396 1.404 . S
C397 H409 0.930 . S
C398 C394 1.524 . S
C398 H410 0.956 . S
C398 H411 0.961 . S
C398 H412 0.961 . S
C399 C396 1.539 . S
C399 H413 0.958 . S
C399 H414 0.961 . S
C399 H415 0.960 . S
H400 C384 0.931 . S
H401 C389 0.929 . S
H402 C390 0.960 . S
H403 C390 0.962 . S
H404 C390 0.960 . S
H405 C391 0.961 . S
H406 C391 0.961 . S
H407 C391 0.961 . S
H408 C392 0.931 . S
H409 C397 0.930 . S
H410 C398 0.956 . S
H411 C398 0.961 . S
H412 C398 0.961 . S
H413 C399 0.958 . S
H414 C399 0.961 . S
H415 C399 0.960 . S
C416 C417 1.391 . S
C416 C418 1.394 . S
C416 H432 0.931 . S
C417 C416 1.391 . S
C417 C421 1.376 . S
C418 C416 1.394 . S
C418 C419 1.369 . S
C418 C422 1.531 . S
C419 C418 1.369 . S
C419 C420 1.410 . S
C419 C427 1.503 . S
C420 C419 1.410 . S
C420 C421 1.392 . S
C420 C423 1.511 . S
C421 C417 1.376 . S
C421 C420 1.392 . S
C421 H433 0.929 . S
C422 C418 1.531 . S
C422 H434 0.960 . S
C422 H435 0.962 . S
C422 H436 0.960 . S
C423 C420 1.511 . S
C423 H437 0.961 . S
C423 H438 0.961 . S
C423 H439 0.961 . S
C424 C425 1.370 . S
C424 C426 1.363 . S
C424 H440 0.931 . S
C425 C424 1.370 . S
C425 C429 1.408 . S
C426 C424 1.363 . S
C426 C427 1.370 . S
C426 C430 1.524 . S
C427 C419 1.503 . S
C427 C426 1.370 . S
C427 C428 1.403 . S
C428 C427 1.403 . S
C428 C429 1.404 . S
C428 C431 1.539 . S
C429 C425 1.408 . S
C429 C428 1.404 . S
C429 H441 0.930 . S
C430 C426 1.524 . S
C430 H442 0.956 . S
C430 H443 0.961 . S
C430 H444 0.961 . S
C431 C428 1.539 . S
C431 H445 0.958 . S
C431 H446 0.961 . S
C431 H447 0.960 . S
H432 C416 0.931 . S
H433 C421 0.929 . S
H434 C422 0.960 . S
H435 C422 0.962 . S
H436 C422 0.960 . S
H437 C423 0.961 . S
H438 C423 0.961 . S
H439 C423 0.961 . S
H440 C424 0.931 . S
H441 C429 0.930 . S
H442 C430 0.956 . S
H443 C430 0.961 . S
H444 C430 0.961 . S
H445 C431 0.958 . S
H446 C431 0.961 . S
H447 C431 0.960 . S
C448 C449 1.391 . S
C448 C450 1.394 . S
C448 H464 0.931 . S
C449 C448 1.391 . S
C449 C453 1.376 . S
C450 C448 1.394 . S
C450 C451 1.369 . S
C450 C454 1.531 . S
C451 C450 1.369 . S
C451 C452 1.410 . S
C451 C459 1.503 . S
C452 C451 1.410 . S
C452 C453 1.392 . S
C452 C455 1.511 . S
C453 C449 1.376 . S
C453 C452 1.392 . S
C453 H465 0.929 . S
C454 C450 1.531 . S
C454 H466 0.960 . S
C454 H467 0.962 . S
C454 H468 0.960 . S
C455 C452 1.511 . S
C455 H469 0.961 . S
C455 H470 0.961 . S
C455 H471 0.961 . S
C456 C457 1.370 . S
C456 C458 1.363 . S
C456 H472 0.931 . S
C457 C456 1.370 . S
C457 C461 1.408 . S
C458 C456 1.363 . S
C458 C459 1.370 . S
C458 C462 1.524 . S
C459 C451 1.503 . S
C459 C458 1.370 . S
C459 C460 1.403 . S
C460 C459 1.403 . S
C460 C461 1.404 . S
C460 C463 1.539 . S
C461 C457 1.408 . S
C461 C460 1.404 . S
C461 H473 0.930 . S
C462 C458 1.524 . S
C462 H474 0.956 . S
C462 H475 0.961 . S
C462 H476 0.961 . S
C463 C460 1.539 . S
C463 H477 0.958 . S
C463 H478 0.961 . S
C463 H479 0.960 . S
H464 C448 0.931 . S
H465 C453 0.929 . S
H466 C454 0.960 . S
H467 C454 0.962 . S
H468 C454 0.960 . S
H469 C455 0.961 . S
H470 C455 0.961 . S
H471 C455 0.961 . S
H472 C456 0.931 . S
H473 C461 0.930 . S
H474 C462 0.956 . S
H475 C462 0.961 . S
H476 C462 0.961 . S
H477 C463 0.958 . S
H478 C463 0.961 . S
H479 C463 0.960 . S
C480 C481 1.391 . S
C480 C482 1.394 . S
C480 H496 0.931 . S
C481 C480 1.391 . S
C481 C485 1.376 . S
C482 C480 1.394 . S
C482 C483 1.369 . S
C482 C486 1.531 1_556 S
C483 C482 1.369 . S
C483 C484 1.410 . S
C483 C491 1.503 . S
C484 C483 1.410 . S
C484 C485 1.392 . S
C484 C487 1.511 . S
C485 C481 1.376 . S
C485 C484 1.392 . S
C485 H497 0.929 . S
C486 C482 1.531 1_554 S
C486 H498 0.960 . S
C486 H499 0.962 1_554 S
C486 H500 0.960 . S
C487 C484 1.511 . S
C487 H501 0.961 . S
C487 H502 0.961 . S
C487 H503 0.961 . S
C488 C489 1.378 . S
C488 C490 1.363 . S
C488 H504 0.931 . S
C489 C488 1.378 . S
C489 C493 1.404 1_556 S
C490 C488 1.363 . S
C490 C491 1.370 . S
C490 C494 1.524 . S
C491 C483 1.503 . S
C491 C490 1.370 . S
C491 C492 1.403 1_556 S
C492 C491 1.403 1_554 S
C492 C493 1.404 . S
C492 C495 1.539 . S
C493 C489 1.404 1_554 S
C493 C492 1.404 . S
C493 H505 0.930 . S
C494 C490 1.524 . S
C494 H506 0.956 . S
C494 H507 0.961 . S
C494 H508 0.961 . S
C495 C492 1.539 . S
C495 H509 0.958 . S
C495 H510 0.961 . S
C495 H511 0.960 . S
H496 C480 0.931 . S
H497 C485 0.929 . S
H498 C486 0.960 . S
H499 C486 0.962 1_556 S
H500 C486 0.960 . S
H501 C487 0.961 . S
H502 C487 0.961 . S
H503 C487 0.961 . S
H504 C488 0.931 . S
H505 C493 0.930 . S
H506 C494 0.956 . S
H507 C494 0.961 . S
H508 C494 0.961 . S
H509 C495 0.958 . S
H510 C495 0.961 . S
H511 C495 0.960 . S
C512 C513 1.391 . S
C512 C514 1.394 . S
C512 H528 0.931 . S
C513 C512 1.391 . S
C513 C517 1.376 . S
C514 C512 1.394 . S
C514 C515 1.369 . S
C514 C518 1.531 . S
C515 C514 1.369 . S
C515 C516 1.410 . S
C515 C523 1.503 . S
C516 C515 1.410 . S
C516 C517 1.392 . S
C516 C519 1.511 . S
C517 C513 1.376 . S
C517 C516 1.392 . S
C517 H529 0.929 . S
C518 C514 1.531 . S
C518 H530 0.960 . S
C518 H531 0.962 . S
C518 H532 0.960 . S
C519 C516 1.511 . S
C519 H533 0.961 . S
C519 H534 0.961 . S
C519 H535 0.961 . S
C520 C521 1.370 . S
C520 C522 1.363 . S
C520 H536 0.931 . S
C521 C520 1.370 . S
C521 C525 1.408 . S
C522 C520 1.363 . S
C522 C523 1.370 . S
C522 C526 1.524 . S
C523 C515 1.503 . S
C523 C522 1.370 . S
C523 C524 1.403 . S
C524 C523 1.403 . S
C524 C525 1.404 . S
C524 C527 1.539 . S
C525 C521 1.408 . S
C525 C524 1.404 . S
C525 H537 0.930 . S
C526 C522 1.524 . S
C526 H538 0.956 . S
C526 H539 0.961 . S
C526 H540 0.961 . S
C527 C524 1.539 . S
C527 H541 0.958 . S
C527 H542 0.961 . S
C527 H543 0.960 . S
H528 C512 0.931 . S
H529 C517 0.929 . S
H530 C518 0.960 . S
H531 C518 0.962 . S
H532 C518 0.960 . S
H533 C519 0.961 . S
H534 C519 0.961 . S
H535 C519 0.961 . S
H536 C520 0.931 . S
H537 C525 0.930 . S
H538 C526 0.956 . S
H539 C526 0.961 . S
H540 C526 0.961 . S
H541 C527 0.958 . S
H542 C527 0.961 . S
H543 C527 0.960 . S
C544 C545 1.391 . S
C544 C546 1.394 . S
C544 H560 0.931 . S
C545 C544 1.391 . S
C545 C549 1.376 . S
C546 C544 1.394 . S
C546 C547 1.369 . S
C546 C550 1.531 . S
C547 C546 1.369 . S
C547 C548 1.410 . S
C547 C555 1.503 . S
C548 C547 1.410 . S
C548 C549 1.392 . S
C548 C551 1.511 . S
C549 C545 1.376 . S
C549 C548 1.392 . S
C549 H561 0.929 . S
C550 C546 1.531 . S
C550 H562 0.960 . S
C550 H563 0.962 . S
C550 H564 0.960 . S
C551 C548 1.511 . S
C551 H565 0.961 . S
C551 H566 0.961 . S
C551 H567 0.961 . S
C552 C553 1.370 . S
C552 C554 1.363 . S
C552 H568 0.931 . S
C553 C552 1.370 . S
C553 C557 1.408 . S
C554 C552 1.363 . S
C554 C555 1.370 . S
C554 C558 1.524 . S
C555 C547 1.503 . S
C555 C554 1.370 . S
C555 C556 1.403 . S
C556 C555 1.403 . S
C556 C557 1.404 . S
C556 C559 1.539 . S
C557 C553 1.408 . S
C557 C556 1.404 . S
C557 H569 0.930 . S
C558 C554 1.524 . S
C558 H570 0.956 . S
C558 H571 0.961 . S
C558 H572 0.961 . S
C559 C556 1.539 . S
C559 H573 0.958 . S
C559 H574 0.961 . S
C559 H575 0.960 . S
H560 C544 0.931 . S
H561 C549 0.929 . S
H562 C550 0.960 . S
H563 C550 0.962 . S
H564 C550 0.960 . S
H565 C551 0.961 . S
H566 C551 0.961 . S
H567 C551 0.961 . S
H568 C552 0.931 . S
H569 C557 0.930 . S
H570 C558 0.956 . S
H571 C558 0.961 . S
H572 C558 0.961 . S
H573 C559 0.958 . S
H574 C559 0.961 . S
H575 C559 0.960 . S
C576 C577 1.391 . S
C576 C578 1.394 . S
C576 H592 0.931 . S
C577 C576 1.391 . S
C577 C581 1.376 . S
C578 C576 1.394 . S
C578 C579 1.369 . S
C578 C582 1.531 . S
C579 C578 1.369 . S
C579 C580 1.410 . S
C579 C587 1.503 . S
C580 C579 1.410 . S
C580 C581 1.392 . S
C580 C583 1.511 . S
C581 C577 1.376 . S
C581 C580 1.392 . S
C581 H593 0.929 . S
C582 C578 1.531 . S
C582 H594 0.960 . S
C582 H595 0.962 . S
C582 H596 0.960 . S
C583 C580 1.511 . S
C583 H597 0.961 . S
C583 H598 0.961 . S
C583 H599 0.961 . S
C584 C585 1.370 . S
C584 C586 1.363 . S
C584 H600 0.931 . S
C585 C584 1.370 . S
C585 C589 1.408 . S
C586 C584 1.363 . S
C586 C587 1.370 . S
C586 C590 1.524 . S
C587 C579 1.503 . S
C587 C586 1.370 . S
C587 C588 1.403 . S
C588 C587 1.403 . S
C588 C589 1.404 . S
C588 C591 1.539 . S
C589 C585 1.408 . S
C589 C588 1.404 . S
C589 H601 0.930 . S
C590 C586 1.524 . S
C590 H602 0.956 . S
C590 H603 0.961 . S
C590 H604 0.961 . S
C591 C588 1.539 . S
C591 H605 0.958 . S
C591 H606 0.961 . S
C591 H607 0.960 . S
H592 C576 0.931 . S
H593 C581 0.929 . S
H594 C582 0.960 . S
H595 C582 0.962 . S
H596 C582 0.960 . S
H597 C583 0.961 . S
H598 C583 0.961 . S
H599 C583 0.961 . S
H600 C584 0.931 . S
H601 C589 0.930 . S
H602 C590 0.956 . S
H603 C590 0.961 . S
H604 C590 0.961 . S
H605 C591 0.958 . S
H606 C591 0.961 . S
H607 C591 0.960 . S
C608 C609 1.391 . S
C608 C610 1.394 . S
C608 H624 0.931 . S
C609 C608 1.391 . S
C609 C613 1.376 . S
C610 C608 1.394 . S
C610 C611 1.369 . S
C610 C614 1.531 . S
C611 C610 1.369 . S
C611 C612 1.410 . S
C611 C619 1.503 . S
C612 C611 1.410 . S
C612 C613 1.392 . S
C612 C615 1.511 . S
C613 C609 1.376 . S
C613 C612 1.392 . S
C613 H625 0.929 . S
C614 C610 1.531 . S
C614 H626 0.960 . S
C614 H627 0.962 . S
C614 H628 0.960 . S
C615 C612 1.511 . S
C615 H629 0.961 . S
C615 H630 0.961 . S
C615 H631 0.961 . S
C616 C617 1.370 . S
C616 C618 1.363 . S
C616 H632 0.931 . S
C617 C616 1.370 . S
C617 C621 1.408 . S
C618 C616 1.363 . S
C618 C619 1.370 . S
C618 C622 1.524 . S
C619 C611 1.503 . S
C619 C618 1.370 . S
C619 C620 1.403 . S
C620 C619 1.403 . S
C620 C621 1.404 . S
C620 C623 1.539 . S
C621 C617 1.408 . S
C621 C620 1.404 . S
C621 H633 0.930 . S
C622 C618 1.524 . S
C622 H634 0.956 . S
C622 H635 0.961 . S
C622 H636 0.961 . S
C623 C620 1.539 . S
C623 H637 0.958 . S
C623 H638 0.961 . S
C623 H639 0.960 . S
H624 C608 0.931 . S
H625 C613 0.929 . S
H626 C614 0.960 . S
H627 C614 0.962 . S
H628 C614 0.960 . S
H629 C615 0.961 . S
H630 C615 0.961 . S
H631 C615 0.961 . S
H632 C616 0.931 . S
H633 C621 0.930 . S
H634 C622 0.956 . S
H635 C622 0.961 . S
H636 C622 0.961 . S
H637 C623 0.958 . S
H638 C623 0.961 . S
H639 C623 0.960 . S
C640 C641 1.391 . S
C640 C642 1.394 . S
C640 H656 0.931 . S
C641 C640 1.391 . S
C641 C645 1.376 . S
C642 C640 1.394 . S
C642 C643 1.369 . S
C642 C646 1.531 . S
C643 C642 1.369 . S
C643 C644 1.410 . S
C643 C651 1.503 . S
C644 C643 1.410 . S
C644 C645 1.392 . S
C644 C647 1.511 . S
C645 C641 1.376 . S
C645 C644 1.392 . S
C645 H657 0.929 . S
C646 C642 1.531 . S
C646 H658 0.960 . S
C646 H659 0.962 . S
C646 H660 0.960 . S
C647 C644 1.511 . S
C647 H661 0.961 1_556 S
C647 H662 0.961 1_556 S
C647 H663 0.961 . S
C648 C649 1.370 1_554 S
C648 C650 1.363 1_554 S
C648 H664 0.931 . S
C649 C648 1.370 1_556 S
C649 C653 1.408 . S
C650 C648 1.363 1_556 S
C650 C651 1.370 . S
C650 C654 1.524 1_556 S
C651 C643 1.503 . S
C651 C650 1.370 . S
C651 C652 1.403 . S
C652 C651 1.403 . S
C652 C653 1.404 . S
C652 C655 1.539 . S
C653 C649 1.408 . S
C653 C652 1.404 . S
C653 H665 0.930 . S
C654 C650 1.524 1_554 S
C654 H666 0.956 1_554 S
C654 H667 0.961 . S
C654 H668 0.961 . S
C655 C652 1.539 . S
C655 H669 0.958 . S
C655 H670 0.961 . S
C655 H671 0.960 . S
H656 C640 0.931 . S
H657 C645 0.929 . S
H658 C646 0.960 . S
H659 C646 0.962 . S
H660 C646 0.960 . S
H661 C647 0.961 1_554 S
H662 C647 0.961 1_554 S
H663 C647 0.961 . S
H664 C648 0.931 . S
H665 C653 0.930 . S
H666 C654 0.956 1_556 S
H667 C654 0.961 . S
H668 C654 0.961 . S
H669 C655 0.958 . S
H670 C655 0.961 . S
H671 C655 0.960 . S
C672 C673 1.391 . S
C672 C674 1.394 . S
C672 H688 0.931 . S
C673 C672 1.391 . S
C673 C677 1.376 . S
C674 C672 1.394 . S
C674 C675 1.369 . S
C674 C678 1.531 . S
C675 C674 1.369 . S
C675 C676 1.410 . S
C675 C683 1.503 . S
C676 C675 1.410 . S
C676 C677 1.392 . S
C676 C679 1.511 . S
C677 C673 1.376 . S
C677 C676 1.392 . S
C677 H689 0.929 . S
C678 C674 1.531 . S
C678 H690 0.960 . S
C678 H691 0.962 . S
C678 H692 0.960 . S
C679 C676 1.511 . S
C679 H693 0.961 . S
C679 H694 0.961 . S
C679 H695 0.961 . S
C680 C681 1.370 . S
C680 C682 1.363 . S
C680 H696 0.931 . S
C681 C680 1.370 . S
C681 C685 1.408 . S
C682 C680 1.363 . S
C682 C683 1.370 . S
C682 C686 1.524 . S
C683 C675 1.503 . S
C683 C682 1.370 . S
C683 C684 1.403 . S
C684 C683 1.403 . S
C684 C685 1.404 . S
C684 C687 1.539 . S
C685 C681 1.408 . S
C685 C684 1.404 . S
C685 H697 0.930 . S
C686 C682 1.524 . S
C686 H698 0.956 . S
C686 H699 0.961 . S
C686 H700 0.961 . S
C687 C684 1.539 . S
C687 H701 0.958 . S
C687 H702 0.961 . S
C687 H703 0.960 . S
H688 C672 0.931 . S
H689 C677 0.929 . S
H690 C678 0.960 . S
H691 C678 0.962 . S
H692 C678 0.960 . S
H693 C679 0.961 . S
H694 C679 0.961 . S
H695 C679 0.961 . S
H696 C680 0.931 . S
H697 C685 0.930 . S
H698 C686 0.956 . S
H699 C686 0.961 . S
H700 C686 0.961 . S
H701 C687 0.958 . S
H702 C687 0.961 . S
H703 C687 0.960 . S
C704 C705 1.391 . S
C704 C706 1.394 . S
C704 H720 0.931 . S
C705 C704 1.391 . S
C705 C709 1.376 . S
C706 C704 1.394 . S
C706 C707 1.369 . S
C706 C710 1.531 . S
C707 C706 1.369 . S
C707 C708 1.410 . S
C707 C715 1.503 . S
C708 C707 1.410 . S
C708 C709 1.392 . S
C708 C711 1.511 . S
C709 C705 1.376 . S
C709 C708 1.392 . S
C709 H721 0.929 . S
C710 C706 1.531 . S
C710 H722 0.960 . S
C710 H723 0.962 . S
C710 H724 0.960 . S
C711 C708 1.511 . S
C711 H725 0.961 . S
C711 H726 0.961 . S
C711 H727 0.961 . S
C712 C713 1.370 . S
C712 C714 1.363 . S
C712 H728 0.931 . S
C713 C712 1.370 . S
C713 C717 1.408 . S
C714 C712 1.363 . S
C714 C715 1.370 . S
C714 C718 1.524 . S
C715 C707 1.503 . S
C715 C714 1.370 . S
C715 C716 1.403 . S
C716 C715 1.403 . S
C716 C717 1.404 . S
C716 C719 1.539 . S
C717 C713 1.408 . S
C717 C716 1.404 . S
C717 H729 0.930 . S
C718 C714 1.524 . S
C718 H730 0.956 . S
C718 H731 0.961 . S
C718 H732 0.961 . S
C719 C716 1.539 . S
C719 H733 0.958 . S
C719 H734 0.961 . S
C719 H735 0.960 . S
H720 C704 0.931 . S
H721 C709 0.929 . S
H722 C710 0.960 . S
H723 C710 0.962 . S
H724 C710 0.960 . S
H725 C711 0.961 . S
H726 C711 0.961 . S
H727 C711 0.961 . S
H728 C712 0.931 . S
H729 C717 0.930 . S
H730 C718 0.956 . S
H731 C718 0.961 . S
H732 C718 0.961 . S
H733 C719 0.958 . S
H734 C719 0.961 . S
H735 C719 0.960 . S
C736 C737 1.391 . S
C736 C738 1.394 . S
C736 H752 0.931 . S
C737 C736 1.391 . S
C737 C741 1.376 1_455 S
C738 C736 1.394 . S
C738 C739 1.369 . S
C738 C742 1.531 . S
C739 C738 1.369 . S
C739 C740 1.410 1_455 S
C739 C747 1.503 . S
C740 C739 1.410 1_655 S
C740 C741 1.392 . S
C740 C743 1.511 . S
C741 C737 1.376 1_655 S
C741 C740 1.392 . S
C741 H753 0.929 . S
C742 C738 1.531 . S
C742 H754 0.960 . S
C742 H755 0.962 . S
C742 H756 0.960 . S
C743 C740 1.511 . S
C743 H757 0.961 . S
C743 H758 0.961 . S
C743 H759 0.961 . S
C744 C745 1.370 . S
C744 C746 1.363 . S
C744 H760 0.931 . S
C745 C744 1.370 . S
C745 C749 1.408 1_556 S
C746 C744 1.363 . S
C746 C747 1.370 1_556 S
C746 C750 1.524 . S
C747 C739 1.503 . S
C747 C746 1.370 1_554 S
C747 C748 1.403 . S
C748 C747 1.403 . S
C748 C749 1.404 . S
C748 C751 1.539 . S
C749 C745 1.408 1_554 S
C749 C748 1.404 . S
C749 H761 0.930 . S
C750 C746 1.524 . S
C750 H762 0.956 . S
C750 H763 0.961 . S
C750 H764 0.961 . S
C751 C748 1.539 . S
C751 H765 0.958 . S
C751 H766 0.982 . S
C751 H767 0.960 . S
H752 C736 0.931 . S
H753 C741 0.929 . S
H754 C742 0.960 . S
H755 C742 0.962 . S
H756 C742 0.960 . S
H757 C743 0.961 . S
H758 C743 0.961 . S
H759 C743 0.961 . S
H760 C744 0.931 . S
H761 C749 0.930 . S
H762 C750 0.956 . S
H763 C750 0.961 . S
H764 C750 0.961 . S
H765 C751 0.958 . S
H766 C751 0.982 . S
H767 C751 0.960 . S
C768 C769 1.391 . S
C768 C770 1.394 . S
C768 H784 0.931 . S
C769 C768 1.391 . S
C769 C773 1.376 . S
C770 C768 1.394 . S
C770 C771 1.369 . S
C770 C774 1.531 . S
C771 C770 1.369 . S
C771 C772 1.410 . S
C771 C779 1.503 . S
C772 C771 1.410 . S
C772 C773 1.392 . S
C772 C775 1.511 . S
C773 C769 1.376 . S
C773 C772 1.392 . S
C773 H785 0.929 . S
C774 C770 1.531 . S
C774 H786 0.960 . S
C774 H787 0.962 . S
C774 H788 0.960 . S
C775 C772 1.511 . S
C775 H789 0.961 . S
C775 H790 0.961 . S
C775 H791 0.961 . S
C776 C777 1.370 . S
C776 C778 1.363 . S
C776 H792 0.931 . S
C777 C776 1.370 . S
C777 C781 1.408 . S
C778 C776 1.363 . S
C778 C779 1.370 . S
C778 C782 1.524 . S
C779 C771 1.503 . S
C779 C778 1.370 . S
C779 C780 1.403 . S
C780 C779 1.403 . S
C780 C781 1.404 . S
C780 C783 1.539 . S
C781 C777 1.408 . S
C781 C780 1.404 . S
C781 H793 0.930 . S
C782 C778 1.524 . S
C782 H794 0.956 . S
C782 H795 0.961 . S
C782 H796 0.961 . S
C783 C780 1.539 . S
C783 H797 0.958 . S
C783 H798 0.961 . S
C783 H799 0.960 . S
H784 C768 0.931 . S
H785 C773 0.929 . S
H786 C774 0.960 . S
H787 C774 0.962 . S
H788 C774 0.960 . S
H789 C775 0.961 . S
H790 C775 0.961 . S
H791 C775 0.961 . S
H792 C776 0.931 . S
H793 C781 0.930 . S
H794 C782 0.956 . S
H795 C782 0.961 . S
H796 C782 0.961 . S
H797 C783 0.958 . S
H798 C783 0.961 . S
H799 C783 0.960 . S
C800 C801 1.391 . S
C800 C802 1.394 . S
C800 H816 0.931 . S
C801 C800 1.391 . S
C801 C805 1.376 . S
C802 C800 1.394 . S
C802 C803 1.369 . S
C802 C806 1.531 . S
C803 C802 1.369 . S
C803 C804 1.410 . S
C803 C811 1.503 . S
C804 C803 1.410 . S
C804 C805 1.392 . S
C804 C807 1.511 . S
C805 C801 1.376 . S
C805 C804 1.392 . S
C805 H817 0.929 . S
C806 C802 1.531 . S
C806 H818 0.960 . S
C806 H819 0.962 . S
C806 H820 0.960 . S
C807 C804 1.511 . S
C807 H821 0.961 . S
C807 H822 0.961 . S
C807 H823 0.961 . S
C808 C809 1.370 . S
C808 C810 1.363 . S
C808 H824 0.931 . S
C809 C808 1.370 . S
C809 C813 1.408 . S
C810 C808 1.363 . S
C810 C811 1.370 . S
C810 C814 1.524 . S
C811 C803 1.503 . S
C811 C810 1.370 . S
C811 C812 1.403 . S
C812 C811 1.403 . S
C812 C813 1.404 . S
C812 C815 1.539 . S
C813 C809 1.408 . S
C813 C812 1.404 . S
C813 H825 0.930 . S
C814 C810 1.524 . S
C814 H826 0.956 . S
C814 H827 0.961 . S
C814 H828 0.961 . S
C815 C812 1.539 . S
C815 H829 0.958 . S
C815 H830 0.961 . S
C815 H831 0.960 . S
H816 C800 0.931 . S
H817 C805 0.929 . S
H818 C806 0.960 . S
H819 C806 0.962 . S
H820 C806 0.960 . S
H821 C807 0.961 . S
H822 C807 0.961 . S
H823 C807 0.961 . S
H824 C808 0.931 . S
H825 C813 0.930 . S
H826 C814 0.956 . S
H827 C814 0.961 . S
H828 C814 0.961 . S
H829 C815 0.958 . S
H830 C815 0.961 . S
H831 C815 0.960 . S
C832 C833 1.391 . S
C832 C834 1.394 . S
C832 H848 0.931 . S
C833 C832 1.391 . S
C833 C837 1.376 . S
C834 C832 1.394 . S
C834 C835 1.369 . S
C834 C838 1.531 . S
C835 C834 1.369 . S
C835 C836 1.410 . S
C835 C843 1.503 . S
C836 C835 1.410 . S
C836 C837 1.392 . S
C836 C839 1.511 . S
C837 C833 1.376 . S
C837 C836 1.392 . S
C837 H849 0.929 . S
C838 C834 1.531 . S
C838 H850 0.960 . S
C838 H851 0.962 . S
C838 H852 0.960 . S
C839 C836 1.511 . S
C839 H853 0.961 . S
C839 H854 0.961 . S
C839 H855 0.961 . S
C840 C841 1.370 . S
C840 C842 1.363 . S
C840 H856 0.931 . S
C841 C840 1.370 . S
C841 C845 1.408 . S
C842 C840 1.363 . S
C842 C843 1.370 . S
C842 C846 1.524 . S
C843 C835 1.503 . S
C843 C842 1.370 . S
C843 C844 1.403 . S
C844 C843 1.403 . S
C844 C845 1.404 . S
C844 C847 1.539 . S
C845 C841 1.408 . S
C845 C844 1.404 . S
C845 H857 0.930 . S
C846 C842 1.524 . S
C846 H858 0.956 . S
C846 H859 0.961 . S
C846 H860 0.961 . S
C847 C844 1.539 . S
C847 H861 0.958 . S
C847 H862 0.961 . S
C847 H863 0.960 . S
H848 C832 0.931 . S
H849 C837 0.929 . S
H850 C838 0.960 . S
H851 C838 0.962 . S
H852 C838 0.960 . S
H853 C839 0.961 . S
H854 C839 0.961 . S
H855 C839 0.961 . S
H856 C840 0.931 . S
H857 C845 0.930 . S
H858 C846 0.956 . S
H859 C846 0.961 . S
H860 C846 0.961 . S
H861 C847 0.958 . S
H862 C847 0.961 . S
H863 C847 0.960 . S
C864 C865 1.391 . S
C864 C866 1.394 . S
C864 H880 0.931 . S
C865 C864 1.391 . S
C865 C869 1.376 . S
C866 C864 1.394 . S
C866 C867 1.369 . S
C866 C870 1.531 . S
C867 C866 1.369 . S
C867 C868 1.410 . S
C867 C875 1.503 . S
C868 C867 1.410 . S
C868 C869 1.392 . S
C868 C871 1.511 . S
C869 C865 1.376 . S
C869 C868 1.392 . S
C869 H881 0.929 . S
C870 C866 1.531 . S
C870 H882 0.960 . S
C870 H883 0.962 . S
C870 H884 0.960 . S
C871 C868 1.511 . S
C871 H885 0.961 . S
C871 H886 0.961 . S
C871 H887 0.961 . S
C872 C873 1.370 . S
C872 C874 1.363 . S
C872 H888 0.931 . S
C873 C872 1.370 . S
C873 C877 1.408 . S
C874 C872 1.363 . S
C874 C875 1.370 . S
C874 C878 1.524 . S
C875 C867 1.503 . S
C875 C874 1.370 . S
C875 C876 1.403 . S
C876 C875 1.403 . S
C876 C877 1.404 . S
C876 C879 1.539 . S
C877 C873 1.408 . S
C877 C876 1.404 . S
C877 H889 0.930 . S
C878 C874 1.524 . S
C878 H890 0.956 . S
C878 H891 0.961 . S
C878 H892 0.961 . S
C879 C876 1.539 . S
C879 H893 0.958 . S
C879 H894 0.961 . S
C879 H895 0.960 . S
H880 C864 0.931 . S
H881 C869 0.929 . S
H882 C870 0.960 . S
H883 C870 0.962 . S
H884 C870 0.960 . S
H885 C871 0.961 . S
H886 C871 0.961 . S
H887 C871 0.961 . S
H888 C872 0.931 . S
H889 C877 0.930 . S
H890 C878 0.956 . S
H891 C878 0.961 . S
H892 C878 0.961 . S
H893 C879 0.958 . S
H894 C879 0.961 . S
H895 C879 0.960 . S
C896 C897 1.391 . S
C896 C898 1.394 . S
C896 H912 0.931 . S
C897 C896 1.391 . S
C897 C901 1.376 . S
C898 C896 1.394 . S
C898 C899 1.369 . S
C898 C902 1.531 . S
C899 C898 1.369 . S
C899 C900 1.410 . S
C899 C907 1.503 . S
C900 C899 1.410 . S
C900 C901 1.392 . S
C900 C903 1.511 . S
C901 C897 1.376 . S
C901 C900 1.392 . S
C901 H913 0.929 . S
C902 C898 1.531 . S
C902 H914 0.960 . S
C902 H915 0.962 . S
C902 H916 0.960 . S
C903 C900 1.511 . S
C903 H917 0.961 . S
C903 H918 0.961 . S
C903 H919 0.961 . S
C904 C905 1.370 . S
C904 C906 1.363 . S
C904 H920 0.931 . S
C905 C904 1.370 . S
C905 C909 1.408 . S
C906 C904 1.363 . S
C906 C907 1.370 . S
C906 C910 1.524 . S
C907 C899 1.503 . S
C907 C906 1.370 . S
C907 C908 1.403 . S
C908 C907 1.403 . S
C908 C909 1.404 . S
C908 C911 1.539 . S
C909 C905 1.408 . S
C909 C908 1.404 . S
C909 H921 0.930 . S
C910 C906 1.524 . S
C910 H922 0.956 . S
C910 H923 0.961 . S
C910 H924 0.961 . S
C911 C908 1.539 . S
C911 H925 0.958 . S
C911 H926 0.961 . S
C911 H927 0.960 . S
H912 C896 0.931 . S
H913 C901 0.929 . S
H914 C902 0.960 . S
H915 C902 0.962 . S
H916 C902 0.960 . S
H917 C903 0.961 . S
H918 C903 0.961 . S
H919 C903 0.961 . S
H920 C904 0.931 . S
H921 C909 0.930 . S
H922 C910 0.956 . S
H923 C910 0.961 . S
H924 C910 0.961 . S
H925 C911 0.958 . S
H926 C911 0.961 . S
H927 C911 0.960 . S
C928 C929 1.391 . S
C928 C930 1.394 . S
C928 H944 0.931 . S
C929 C928 1.391 . S
C929 C933 1.376 . S
C930 C928 1.394 . S
C930 C931 1.369 . S
C930 C934 1.531 1_565 S
C931 C930 1.369 . S
C931 C932 1.410 . S
C931 C939 1.503 1_565 S
C932 C931 1.410 . S
C932 C933 1.392 . S
C932 C935 1.511 . S
C933 C929 1.376 . S
C933 C932 1.392 . S
C933 H945 0.929 . S
C934 C930 1.531 1_545 S
C934 H946 0.960 . S
C934 H947 0.962 . S
C934 H948 0.960 . S
C935 C932 1.511 . S
C935 H949 0.961 . S
C935 H950 0.961 . S
C935 H951 0.961 . S
C936 C937 1.370 . S
C936 C938 1.363 . S
C936 H952 0.931 . S
C937 C936 1.370 . S
C937 C941 1.408 . S
C938 C936 1.363 . S
C938 C939 1.370 . S
C938 C942 1.524 1_545 S
C939 C931 1.503 1_545 S
C939 C938 1.370 . S
C939 C940 1.403 . S
C940 C939 1.403 . S
C940 C941 1.404 . S
C940 C943 1.539 . S
C941 C937 1.408 . S
C941 C940 1.404 . S
C941 H953 0.930 . S
C942 C938 1.524 1_565 S
C942 H954 0.956 . S
C942 H955 0.961 . S
C942 H956 0.961 . S
C943 C940 1.539 . S
C943 H957 0.958 . S
C943 H958 0.961 . S
C943 H959 0.960 . S
H944 C928 0.931 . S
H945 C933 0.929 . S
H946 C934 0.960 . S
H947 C934 0.962 . S
H948 C934 0.960 . S
H949 C935 0.961 . S
H950 C935 0.961 . S
H951 C935 0.961 . S
H952 C936 0.931 . S
H953 C941 0.930 . S
H954 C942 0.956 . S
H955 C942 0.961 . S
H956 C942 0.961 . S
H957 C943 0.958 . S
H958 C943 0.961 . S
H959 C943 0.960 . S
C960 C961 1.382 1_655 S
C960 C962 1.394 1_556 S
C960 H976 0.931 . S
C961 C960 1.382 1_455 S
C961 C965 1.385 . S
C962 C960 1.394 1_554 S
C962 C963 1.363 1_655 S
C962 C966 1.531 . S
C963 C962 1.363 1_455 S
C963 C964 1.416 . S
C963 C971 1.503 1_545 S
C964 C963 1.416 . S
C964 C965 1.392 1_554 S
C964 C967 1.511 . S
C965 C961 1.385 . S
C965 C964 1.392 1_556 S
C965 H977 0.929 . S
C966 C962 1.531 . S
C966 H978 0.960 1_545 S
C966 H979 0.962 . S
C966 H980 0.960 1_554 S
C967 C964 1.511 . S
C967 H981 0.961 . S
C967 H982 0.961 . S
C967 H983 0.961 1_545 S
C968 C969 1.369 1_655 S
C968 C970 1.363 . S
C968 H984 0.931 . S
C969 C968 1.369 1_455 S
C969 C973 1.409 . S
C970 C968 1.363 . S
C970 C971 1.370 1_655 S
C970 C974 1.524 1_565 S
C971 C963 1.503 1_565 S
C971 C970 1.370 1_455 S
C971 C972 1.403 . S
C972 C971 1.403 . S
C972 C973 1.404 . S
C972 C975 1.539 1_554 S
C973 C969 1.409 . S
C973 C972 1.404 . S
C973 H985 0.930 . S
C974 C970 1.524 1_545 S
C974 H986 0.956 . S
C974 H987 0.961 1_655 S
C974 H988 0.961 . S
C975 C972 1.539 1_556 S
C975 H989 0.958 1_455 S
C975 H990 0.961 . S
C975 H991 0.960 . S
H976 C960 0.931 . S
H977 C965 0.929 . S
H978 C966 0.960 1_565 S
H979 C966 0.962 . S
H980 C966 0.960 1_556 S
H981 C967 0.961 . S
H982 C967 0.961 . S
H983 C967 0.961 1_565 S
H984 C968 0.931 . S
H985 C973 0.930 . S
H986 C974 0.956 . S
H987 C974 0.961 1_455 S
H988 C974 0.961 . S
H989 C975 0.958 1_655 S
H990 C975 0.961 . S
H991 C975 0.960 . S
C992 C993 1.391 1_455 S
C992 C994 1.394 . S
C992 H1008 0.931 . S
C993 C992 1.391 1_655 S
C993 C997 1.376 . S
C994 C992 1.394 . S
C994 C995 1.369 1_455 S
C994 C998 1.531 . S
C995 C994 1.369 1_655 S
C995 C996 1.410 . S
C995 C1003 1.503 . S
C996 C995 1.410 . S
C996 C997 1.392 . S
C996 C999 1.511 . S
C997 C993 1.376 . S
C997 C996 1.392 . S
C997 H1009 0.929 . S
C998 C994 1.531 . S
C998 H1010 0.960 . S
C998 H1011 0.962 . S
C998 H1012 0.960 . S
C999 C996 1.511 . S
C999 H1013 0.961 . S
C999 H1014 0.961 . S
C999 H1015 0.961 . S
C1000 C1001 1.370 1_455 S
C1000 C1002 1.363 . S
C1000 H1016 0.931 . S
C1001 C1000 1.370 1_655 S
C1001 C1005 1.408 . S
C1002 C1000 1.363 . S
C1002 C1003 1.370 1_455 S
C1002 C1006 1.524 . S
C1003 C995 1.503 . S
C1003 C1002 1.370 1_655 S
C1003 C1004 1.403 . S
C1004 C1003 1.403 . S
C1004 C1005 1.404 . S
C1004 C1007 1.539 . S
C1005 C1001 1.408 . S
C1005 C1004 1.404 . S
C1005 H1017 0.930 . S
C1006 C1002 1.524 . S
C1006 H1018 0.956 . S
C1006 H1019 0.961 . S
C1006 H1020 0.961 . S
C1007 C1004 1.539 . S
C1007 H1021 0.958 . S
C1007 H1022 0.961 . S
C1007 H1023 0.960 . S
H1008 C992 0.931 . S
H1009 C997 0.929 . S
H1010 C998 0.960 . S
H1011 C998 0.962 . S
H1012 C998 0.960 . S
H1013 C999 0.961 . S
H1014 C999 0.961 . S
H1015 C999 0.961 . S
H1016 C1000 0.931 . S
H1017 C1005 0.930 . S
H1018 C1006 0.956 . S
H1019 C1006 0.961 . S
H1020 C1006 0.961 . S
H1021 C1007 0.958 . S
H1022 C1007 0.961 . S
H1023 C1007 0.960 . S
C1024 C1025 1.391 . S
C1024 C1026 1.394 . S
C1024 H1040 0.931 . S
C1025 C1024 1.391 . S
C1025 C1029 1.376 . S
C1026 C1024 1.394 . S
C1026 C1027 1.369 . S
C1026 C1030 1.531 . S
C1027 C1026 1.369 . S
C1027 C1028 1.410 . S
C1027 C1035 1.503 . S
C1028 C1027 1.410 . S
C1028 C1029 1.392 . S
C1028 C1031 1.511 . S
C1029 C1025 1.376 . S
C1029 C1028 1.392 . S
C1029 H1041 0.929 . S
C1030 C1026 1.531 . S
C1030 H1042 0.960 . S
C1030 H1043 0.962 . S
C1030 H1044 0.960 . S
C1031 C1028 1.511 . S
C1031 H1045 0.961 . S
C1031 H1046 0.961 . S
C1031 H1047 0.961 . S
C1032 C1033 1.370 . S
C1032 C1034 1.363 . S
C1032 H1048 0.931 . S
C1033 C1032 1.370 . S
C1033 C1037 1.408 . S
C1034 C1032 1.363 . S
C1034 C1035 1.370 . S
C1034 C1038 1.524 . S
C1035 C1027 1.503 . S
C1035 C1034 1.370 . S
C1035 C1036 1.403 . S
C1036 C1035 1.403 . S
C1036 C1037 1.404 . S
C1036 C1039 1.539 . S
C1037 C1033 1.408 . S
C1037 C1036 1.404 . S
C1037 H1049 0.930 . S
C1038 C1034 1.524 . S
C1038 H1050 0.956 . S
C1038 H1051 0.961 . S
C1038 H1052 0.961 . S
C1039 C1036 1.539 . S
C1039 H1053 0.958 . S
C1039 H1054 0.961 . S
C1039 H1055 0.960 . S
H1040 C1024 0.931 . S
H1041 C1029 0.929 . S
H1042 C1030 0.960 . S
H1043 C1030 0.962 . S
H1044 C1030 0.960 . S
H1045 C1031 0.961 . S
H1046 C1031 0.961 . S
H1047 C1031 0.961 . S
H1048 C1032 0.931 . S
H1049 C1037 0.930 . S
H1050 C1038 0.956 . S
H1051 C1038 0.961 . S
H1052 C1038 0.961 . S
H1053 C1039 0.958 . S
H1054 C1039 0.961 . S
H1055 C1039 0.960 . S
C1056 C1057 1.391 . S
C1056 C1058 1.394 . S
C1056 H1072 0.931 . S
C1057 C1056 1.391 . S
C1057 C1061 1.376 . S
C1058 C1056 1.394 . S
C1058 C1059 1.369 . S
C1058 C1062 1.531 . S
C1059 C1058 1.369 . S
C1059 C1060 1.410 . S
C1059 C1067 1.503 . S
C1060 C1059 1.410 . S
C1060 C1061 1.392 . S
C1060 C1063 1.511 . S
C1061 C1057 1.376 . S
C1061 C1060 1.392 . S
C1061 H1073 0.929 . S
C1062 C1058 1.531 . S
C1062 H1074 0.960 . S
C1062 H1075 0.962 . S
C1062 H1076 0.960 . S
C1063 C1060 1.511 . S
C1063 H1077 0.961 . S
C1063 H1078 0.961 . S
C1063 H1079 0.961 . S
C1064 C1065 1.370 . S
C1064 C1066 1.363 . S
C1064 H1080 0.931 . S
C1065 C1064 1.370 . S
C1065 C1069 1.408 . S
C1066 C1064 1.363 . S
C1066 C1067 1.370 1_556 S
C1066 C1070 1.524 . S
C1067 C1059 1.503 . S
C1067 C1066 1.370 1_554 S
C1067 C1068 1.403 . S
C1068 C1067 1.403 . S
C1068 C1069 1.404 1_554 S
C1068 C1071 1.539 . S
C1069 C1065 1.408 . S
C1069 C1068 1.404 1_556 S
C1069 H1081 0.930 . S
C1070 C1066 1.524 . S
C1070 H1082 0.956 1_556 S
C1070 H1083 0.961 . S
C1070 H1084 0.961 . S
C1071 C1068 1.539 . S
C1071 H1085 0.958 . S
C1071 H1086 0.961 . S
C1071 H1087 0.960 . S
H1072 C1056 0.931 . S
H1073 C1061 0.929 . S
H1074 C1062 0.960 . S
H1075 C1062 0.962 . S
H1076 C1062 0.960 . S
H1077 C1063 0.961 . S
H1078 C1063 0.961 . S
H1079 C1063 0.961 . S
H1080 C1064 0.931 . S
H1081 C1069 0.930 . S
H1082 C1070 0.956 1_554 S
H1083 C1070 0.961 . S
H1084 C1070 0.961 . S
H1085 C1071 0.958 . S
H1086 C1071 0.961 . S
H1087 C1071 0.960 . S
C1088 C1089 1.391 . S
C1088 C1090 1.394 . S
C1088 H1104 0.931 . S
C1089 C1088 1.391 . S
C1089 C1093 1.376 . S
C1090 C1088 1.394 . S
C1090 C1091 1.369 . S
C1090 C1094 1.531 . S
C1091 C1090 1.369 . S
C1091 C1092 1.410 . S
C1091 C1099 1.503 . S
C1092 C1091 1.410 . S
C1092 C1093 1.392 . S
C1092 C1095 1.511 . S
C1093 C1089 1.376 . S
C1093 C1092 1.392 . S
C1093 H1105 0.929 . S
C1094 C1090 1.531 . S
C1094 H1106 0.960 . S
C1094 H1107 0.962 . S
C1094 H1108 0.960 . S
C1095 C1092 1.511 . S
C1095 H1109 0.961 . S
C1095 H1110 0.961 . S
C1095 H1111 0.961 . S
C1096 C1097 1.370 . S
C1096 C1098 1.363 . S
C1096 H1112 0.931 . S
C1097 C1096 1.370 . S
C1097 C1101 1.408 . S
C1098 C1096 1.363 . S
C1098 C1099 1.370 . S
C1098 C1102 1.524 . S
C1099 C1091 1.503 . S
C1099 C1098 1.370 . S
C1099 C1100 1.403 . S
C1100 C1099 1.403 . S
C1100 C1101 1.404 . S
C1100 C1103 1.539 . S
C1101 C1097 1.408 . S
C1101 C1100 1.404 . S
C1101 H1113 0.930 . S
C1102 C1098 1.524 . S
C1102 H1114 0.956 . S
C1102 H1115 0.961 . S
C1102 H1116 0.961 . S
C1103 C1100 1.539 . S
C1103 H1117 0.958 . S
C1103 H1118 0.961 . S
C1103 H1119 0.960 . S
H1104 C1088 0.931 . S
H1105 C1093 0.929 . S
H1106 C1094 0.960 . S
H1107 C1094 0.962 . S
H1108 C1094 0.960 . S
H1109 C1095 0.961 . S
H1110 C1095 0.961 . S
H1111 C1095 0.961 . S
H1112 C1096 0.931 . S
H1113 C1101 0.930 . S
H1114 C1102 0.956 . S
H1115 C1102 0.961 . S
H1116 C1102 0.961 . S
H1117 C1103 0.958 . S
H1118 C1103 0.961 . S
H1119 C1103 0.960 . S
C1120 C1121 1.391 . S
C1120 C1122 1.394 . S
C1120 H1136 0.931 . S
C1121 C1120 1.391 . S
C1121 C1125 1.376 . S
C1122 C1120 1.394 . S
C1122 C1123 1.369 . S
C1122 C1126 1.531 . S
C1123 C1122 1.369 . S
C1123 C1124 1.410 . S
C1123 C1131 1.503 . S
C1124 C1123 1.410 . S
C1124 C1125 1.392 . S
C1124 C1127 1.511 . S
C1125 C1121 1.376 . S
C1125 C1124 1.392 . S
C1125 H1137 0.929 . S
C1126 C1122 1.531 . S
C1126 H1138 0.960 . S
C1126 H1139 0.962 . S
C1126 H1140 0.960 . S
C1127 C1124 1.511 . S
C1127 H1141 0.961 . S
C1127 H1142 0.961 . S
C1127 H1143 0.961 . S
C1128 C1129 1.370 . S
C1128 C1130 1.363 . S
C1128 H1144 0.931 . S
C1129 C1128 1.370 . S
C1129 C1133 1.408 . S
C1130 C1128 1.363 . S
C1130 C1131 1.370 . S
C1130 C1134 1.524 . S
C1131 C1123 1.503 . S
C1131 C1130 1.370 . S
C1131 C1132 1.403 . S
C1132 C1131 1.403 . S
C1132 C1133 1.404 . S
C1132 C1135 1.539 . S
C1133 C1129 1.408 . S
C1133 C1132 1.404 . S
C1133 H1145 0.930 . S
C1134 C1130 1.524 . S
C1134 H1146 0.956 . S
C1134 H1147 0.961 . S
C1134 H1148 0.961 . S
C1135 C1132 1.539 . S
C1135 H1149 0.958 . S
C1135 H1150 0.961 . S
C1135 H1151 0.960 . S
H1136 C1120 0.931 . S
H1137 C1125 0.929 . S
H1138 C1126 0.960 . S
H1139 C1126 0.962 . S
H1140 C1126 0.960 . S
H1141 C1127 0.961 . S
H1142 C1127 0.961 . S
H1143 C1127 0.961 . S
H1144 C1128 0.931 . S
H1145 C1133 0.930 . S
H1146 C1134 0.956 . S
H1147 C1134 0.961 . S
H1148 C1134 0.961 . S
H1149 C1135 0.958 . S
H1150 C1135 0.961 . S
H1151 C1135 0.960 . S
C1152 C1153 1.391 . S
C1152 C1154 1.394 . S
C1152 H1168 0.931 . S
C1153 C1152 1.391 . S
C1153 C1157 1.376 . S
C1154 C1152 1.394 . S
C1154 C1155 1.369 . S
C1154 C1158 1.531 . S
C1155 C1154 1.369 . S
C1155 C1156 1.410 . S
C1155 C1163 1.503 . S
C1156 C1155 1.410 . S
C1156 C1157 1.392 . S
C1156 C1159 1.511 . S
C1157 C1153 1.376 . S
C1157 C1156 1.392 . S
C1157 H1169 0.929 . S
C1158 C1154 1.531 . S
C1158 H1170 0.960 . S
C1158 H1171 0.962 . S
C1158 H1172 0.960 . S
C1159 C1156 1.511 . S
C1159 H1173 0.961 . S
C1159 H1174 0.961 . S
C1159 H1175 0.961 . S
C1160 C1161 1.370 . S
C1160 C1162 1.363 . S
C1160 H1176 0.931 . S
C1161 C1160 1.370 . S
C1161 C1165 1.408 . S
C1162 C1160 1.363 . S
C1162 C1163 1.370 . S
C1162 C1166 1.524 . S
C1163 C1155 1.503 . S
C1163 C1162 1.370 . S
C1163 C1164 1.403 . S
C1164 C1163 1.403 . S
C1164 C1165 1.404 . S
C1164 C1167 1.539 . S
C1165 C1161 1.408 . S
C1165 C1164 1.404 . S
C1165 H1177 0.930 . S
C1166 C1162 1.524 . S
C1166 H1178 0.956 . S
C1166 H1179 0.961 . S
C1166 H1180 0.961 . S
C1167 C1164 1.539 . S
C1167 H1181 0.958 . S
C1167 H1182 0.961 . S
C1167 H1183 0.960 . S
H1168 C1152 0.931 . S
H1169 C1157 0.929 . S
H1170 C1158 0.960 . S
H1171 C1158 0.962 . S
H1172 C1158 0.960 . S
H1173 C1159 0.961 . S
H1174 C1159 0.961 . S
H1175 C1159 0.961 . S
H1176 C1160 0.931 . S
H1177 C1165 0.930 . S
H1178 C1166 0.956 . S
H1179 C1166 0.961 . S
H1180 C1166 0.961 . S
H1181 C1167 0.958 . S
H1182 C1167 0.961 . S
H1183 C1167 0.960 . S
C1184 C1185 1.391 . S
C1184 C1186 1.394 . S
C1184 H1200 0.931 . S
C1185 C1184 1.391 . S
C1185 C1189 1.376 . S
C1186 C1184 1.394 . S
C1186 C1187 1.369 . S
C1186 C1190 1.531 . S
C1187 C1186 1.369 . S
C1187 C1188 1.410 . S
C1187 C1195 1.503 1_565 S
C1188 C1187 1.410 . S
C1188 C1189 1.392 . S
C1188 C1191 1.511 1_565 S
C1189 C1185 1.376 . S
C1189 C1188 1.392 . S
C1189 H1201 0.929 . S
C1190 C1186 1.531 . S
C1190 H1202 0.960 1_565 S
C1190 H1203 0.962 . S
C1190 H1204 0.960 . S
C1191 C1188 1.511 1_545 S
C1191 H1205 0.961 1_545 S
C1191 H1206 0.961 . S
C1191 H1207 0.961 . S
C1192 C1193 1.370 . S
C1192 C1194 1.363 . S
C1192 H1208 0.931 . S
C1193 C1192 1.370 . S
C1193 C1197 1.408 . S
C1194 C1192 1.363 . S
C1194 C1195 1.370 1_556 S
C1194 C1198 1.524 1_545 S
C1195 C1187 1.503 1_545 S
C1195 C1194 1.370 1_554 S
C1195 C1196 1.403 . S
C1196 C1195 1.403 . S
C1196 C1197 1.404 1_554 S
C1196 C1199 1.539 . S
C1197 C1193 1.408 . S
C1197 C1196 1.404 1_556 S
C1197 H1209 0.930 1_556 S
C1198 C1194 1.524 1_565 S
C1198 H1210 0.956 . S
C1198 H1211 0.961 1_556 S
C1198 H1212 0.961 . S
C1199 C1196 1.539 . S
C1199 H1213 0.958 . S
C1199 H1214 0.961 . S
C1199 H1215 0.960 . S
H1200 C1184 0.931 . S
H1201 C1189 0.929 . S
H1202 C1190 0.960 1_545 S
H1203 C1190 0.962 . S
H1204 C1190 0.960 . S
H1205 C1191 0.961 1_565 S
H1206 C1191 0.961 . S
H1207 C1191 0.961 . S
H1208 C1192 0.931 . S
H1209 C1197 0.930 1_554 S
H1210 C1198 0.956 . S
H1211 C1198 0.961 1_554 S
H1212 C1198 0.961 . S
H1213 C1199 0.958 . S
H1214 C1199 0.961 . S
H1215 C1199 0.960 . S
C1216 C1217 1.391 . S
C1216 C1218 1.402 . S
C1216 H1232 0.931 . S
C1217 C1216 1.391 . S
C1217 C1221 1.376 . S
C1218 C1216 1.402 . S
C1218 C1219 1.372 . S
C1218 C1222 1.519 1_545 S
C1219 C1218 1.372 . S
C1219 C1220 1.410 . S
C1219 C1227 1.503 1_545 S
C1220 C1219 1.410 . S
C1220 C1221 1.392 . S
C1220 C1223 1.511 1_455 S
C1221 C1217 1.376 . S
C1221 C1220 1.392 . S
C1221 H1233 0.929 . S
C1222 C1218 1.519 1_565 S
C1222 H1234 0.960 . S
C1222 H1235 0.962 . S
C1222 H1236 0.960 . S
C1223 C1220 1.511 1_655 S
C1223 H1237 0.961 1_655 S
C1223 H1238 0.961 1_655 S
C1223 H1239 0.961 . S
C1224 C1225 1.370 . S
C1224 C1226 1.363 . S
C1224 H1240 0.931 . S
C1225 C1224 1.370 . S
C1225 C1229 1.408 1_455 S
C1226 C1224 1.363 . S
C1226 C1227 1.370 . S
C1226 C1230 1.524 1_565 S
C1227 C1219 1.503 1_565 S
C1227 C1226 1.370 . S
C1227 C1228 1.403 1_455 S
C1228 C1227 1.403 1_655 S
C1228 C1229 1.404 . S
C1228 C1231 1.539 . S
C1229 C1225 1.408 1_655 S
C1229 C1228 1.404 . S
C1229 H1241 0.930 . S
C1230 C1226 1.524 1_545 S
C1230 H1242 0.950 1_545 S
C1230 H1243 0.961 . S
C1230 H1244 0.961 . S
C1231 C1228 1.539 . S
C1231 H1245 0.958 . S
C1231 H1246 0.961 . S
C1231 H1247 0.960 . S
H1232 C1216 0.931 . S
H1233 C1221 0.929 . S
H1234 C1222 0.960 . S
H1235 C1222 0.962 . S
H1236 C1222 0.960 . S
H1237 C1223 0.961 1_455 S
H1238 C1223 0.961 1_455 S
H1239 C1223 0.961 . S
H1240 C1224 0.931 . S
H1241 C1229 0.930 . S
H1242 C1230 0.950 1_565 S
H1243 C1230 0.961 . S
H1244 C1230 0.961 . S
H1245 C1231 0.958 . S
H1246 C1231 0.961 . S
H1247 C1231 0.960 . S
C225 C131 1.441 . S
C233 C5 1.452 . S
C257 C201 1.451 . S
C265 C19 1.456 . S
C289 C33 1.449 . S
C297 C117 1.449 . S
C321 C47 1.448 . S
C329 C215 1.449 . S
C353 C61 1.449 . S
C361 C145 1.449 . S
C385 C187 1.445 . S
C393 C75 1.450 . S
C417 C159 1.450 . S
C425 C89 1.449 . S
C449 C103 1.448 . S
C457 C173 1.449 . S
C481 C56 1.512 . S
C489 C42 1.543 1_556 S
C513 C168 1.553 . S
C521 C112 1.523 . S
C545 C84 1.505 . S
C553 C14 1.547 . S
C577 C126 1.503 . S
C585 C182 1.544 . S
C609 C0 1.543 . S
C617 C70 1.526 . S
C641 C210 1.550 . S
C649 C140 1.524 1_556 S
C673 C98 1.528 . S
C681 C28 1.532 . S
C705 C154 1.563 . S
C713 C196 1.522 . S
C737 C9 0.569 . S
C745 C65 0.587 . S
C769 C79 0.581 . S
C777 C23 0.590 . S
C801 C93 0.568 . S
C809 C37 0.578 . S
C833 C51 0.568 . S
C841 C107 0.579 . S
C865 C149 0.580 . S
C873 C121 0.590 . S
C897 C163 0.566 . S
C905 C135 0.584 . S
C929 C205 0.566 . S
C937 C177 0.579 . S
C961 C219 0.570 . S
C969 C191 0.588 . S
C993 C67 1.750 1_655 S
C1001 C11 1.742 1_655 S
C1025 C81 1.747 . S
C1033 C25 1.745 . S
C1057 C95 1.721 . S
C1065 C39 1.738 . S
C1089 C53 1.739 . S
C1097 C109 1.735 . S
C1121 C123 1.732 . S
C1129 C151 1.733 . S
C1153 C165 1.729 . S
C1161 C137 1.743 . S
C1185 C207 1.729 . S
C1193 C179 1.743 . S
C1217 C221 1.720 . S
C1225 C193 1.734 . S
