# Generated by pormake.
# Topology qtz-a, (4)-cn, num edge types: 1
# Building blocks:
#     Node 0, Type 0, BuildingBlock: UXUYUI_clean_sbu_0, # of connection points: 4
#     Node 1, Type 0, BuildingBlock: UXUYUI_clean_sbu_0, # of connection points: 4
#     Node 2, Type 0, BuildingBlock: UXUYUI_clean_sbu_0, # of connection points: 4
#     Node 3, Type 0, BuildingBlock: UXUYUI_clean_sbu_0, # of connection points: 4
#     Node 4, Type 0, BuildingBlock: UXUYUI_clean_sbu_0, # of connection points: 4
#     Node 5, Type 0, BuildingBlock: UXUYUI_clean_sbu_0, # of connection points: 4
#     Node 6, Type 0, BuildingBlock: UXUYUI_clean_sbu_0, # of connection points: 4
#     Node 7, Type 0, BuildingBlock: UXUYUI_clean_sbu_0, # of connection points: 4
#     Node 8, Type 0, BuildingBlock: UXUYUI_clean_sbu_0, # of connection points: 4
#     Node 9, Type 0, BuildingBlock: UXUYUI_clean_sbu_0, # of connection points: 4
#     Node 10, Type 0, BuildingBlock: UXUYUI_clean_sbu_0, # of connection points: 4
#     Node 11, Type 0, BuildingBlock: UXUYUI_clean_sbu_0, # of connection points: 4
#     Edge 12, Type (0, 0), BuildingBlock: OJICUG_clean_linker_0, # of connection points: 2
#     Edge 13, Type (0, 0), BuildingBlock: OJICUG_clean_linker_0, # of connection points: 2
#     Edge 14, Type (0, 0), BuildingBlock: OJICUG_clean_linker_0, # of connection points: 2
#     Edge 15, Type (0, 0), BuildingBlock: OJICUG_clean_linker_0, # of connection points: 2
#     Edge 16, Type (0, 0), BuildingBlock: OJICUG_clean_linker_0, # of connection points: 2
#     Edge 17, Type (0, 0), BuildingBlock: OJICUG_clean_linker_0, # of connection points: 2
#     Edge 18, Type (0, 0), BuildingBlock: OJICUG_clean_linker_0, # of connection points: 2
#     Edge 19, Type (0, 0), BuildingBlock: OJICUG_clean_linker_0, # of connection points: 2
#     Edge 20, Type (0, 0), BuildingBlock: OJICUG_clean_linker_0, # of connection points: 2
#     Edge 21, Type (0, 0), BuildingBlock: OJICUG_clean_linker_0, # of connection points: 2
#     Edge 22, Type (0, 0), BuildingBlock: OJICUG_clean_linker_0, # of connection points: 2
#     Edge 23, Type (0, 0), BuildingBlock: OJICUG_clean_linker_0, # of connection points: 2
#     Edge 24, Type (0, 0), BuildingBlock: OJICUG_clean_linker_0, # of connection points: 2
#     Edge 25, Type (0, 0), BuildingBlock: OJICUG_clean_linker_0, # of connection points: 2
#     Edge 26, Type (0, 0), BuildingBlock: OJICUG_clean_linker_0, # of connection points: 2
#     Edge 27, Type (0, 0), BuildingBlock: OJICUG_clean_linker_0, # of connection points: 2
#     Edge 28, Type (0, 0), BuildingBlock: OJICUG_clean_linker_0, # of connection points: 2
#     Edge 29, Type (0, 0), BuildingBlock: OJICUG_clean_linker_0, # of connection points: 2
#     Edge 30, Type (0, 0), BuildingBlock: OJICUG_clean_linker_0, # of connection points: 2
#     Edge 31, Type (0, 0), BuildingBlock: OJICUG_clean_linker_0, # of connection points: 2
#     Edge 32, Type (0, 0), BuildingBlock: OJICUG_clean_linker_0, # of connection points: 2
#     Edge 33, Type (0, 0), BuildingBlock: OJICUG_clean_linker_0, # of connection points: 2
#     Edge 34, Type (0, 0), BuildingBlock: OJICUG_clean_linker_0, # of connection points: 2
#     Edge 35, Type (0, 0), BuildingBlock: OJICUG_clean_linker_0, # of connection points: 2
# Relax obj value: 0.910
# Max RMSD: 0.301
# Mean RMSD: 0.301
data_MOF--net-qtz-a--node1-UXUYUI_clean_sbu_0--edge1-OJICUG_clean_linker_0
_symmetry_space_group_name_H-M    P1
_symmetry_Int_Tables_number       1
_symmetry_cell_setting            triclinic
loop_
_symmetry_equiv_pos_as_xyz
'x, y, z'
_cell_length_a     60.915053
_cell_length_b     60.91015
_cell_length_c     34.732008
_cell_angle_alpha  90.009598
_cell_angle_beta   89.996969
_cell_angle_gamma 119.99717
loop_
_atom_site_label
_atom_site_type_symbol
_atom_site_fract_x
_atom_site_fract_y
_atom_site_fract_z
_atom_type_partial_charge
Li0 Li 0.42206 0.06007 0.17717 0.0
Li1 Li 0.4437 0.10316 0.20441 0.0
Li2 Li 0.46873 0.0863 0.17221 0.0
Li3 Li 0.4492 0.07046 0.23472 0.0
C4 C 0.43906 0.09355 0.11261 0.0
N5 N 0.43105 0.09488 0.03458 0.0
C6 C 0.43229 0.11071 0.09797 0.0
C7 C 0.44191 0.07718 0.08758 0.0
C8 C 0.4283 0.11107 0.05842 0.0
C9 C 0.43772 0.0781 0.04823 0.0
C10 C 0.41063 0.07739 0.26405 0.0
C11 C 0.42343 0.10197 0.32262 0.0
N12 N 0.39887 0.08996 0.33452 0.0
C13 C 0.38553 0.06529 0.27686 0.0
C14 C 0.42976 0.0959 0.28709 0.0
C15 C 0.37996 0.07191 0.31258 0.0
C16 C 0.39025 0.01326 0.14171 0.0
N17 N 0.39391 0.03693 0.1471 0.0
C18 C 0.37051 0.0337 0.09021 0.0
C19 C 0.38277 0.04651 0.12387 0.0
C20 C 0.36965 0.01084 0.08103 0.0
C21 C 0.37804 -0.00026 0.10854 0.0
H22 H 0.39904 0.006 0.16099 0.0
H23 H 0.38587 0.06535 0.1291 0.0
C24 C 0.46289 0.15342 0.19052 0.0
N25 N 0.44195 0.133 0.20495 0.0
C26 C 0.46222 0.17522 0.18067 0.0
C27 C 0.41867 0.15491 0.20238 0.0
C28 C 0.42013 0.13332 0.2115 0.0
C29 C 0.43973 0.17602 0.1858 0.0
H30 H 0.47966 0.15216 0.18449 0.0
H31 H 0.40355 0.11646 0.22196 0.0
C32 C 0.45748 0.03507 0.17909 0.0
N33 N 0.47678 0.00389 0.15979 0.0
C34 C 0.47329 0.03168 0.20472 0.0
C35 C 0.45156 0.02253 0.14358 0.0
C36 C 0.48281 0.01584 0.19447 0.0
C37 C 0.46151 0.0069 0.13436 0.0
C38 C 0.49934 0.1139 0.2373 0.0
C39 C 0.51247 0.10096 0.23028 0.0
C40 C 0.51003 0.1352 0.26122 0.0
C41 C 0.53599 0.10934 0.24775 0.0
C42 C 0.53362 0.14303 0.27813 0.0
N43 N 0.54599 0.13003 0.27113 0.0
C44 C 0.50201 0.11784 0.11614 0.0
C45 C 0.50618 0.08173 0.12741 0.0
C46 C 0.51763 0.12425 0.08379 0.0
N47 N 0.4958 0.09634 0.13625 0.0
C48 C 0.52175 0.08734 0.09523 0.0
C49 C 0.52688 0.10833 0.07225 0.0
H50 H 0.49363 0.12923 0.12396 0.0
H51 H 0.50175 0.0652 0.14428 0.0
C52 C 0.43774 0.02979 0.28117 0.0
N53 N 0.45293 0.05537 0.28044 0.0
C54 C 0.44423 0.01501 0.30378 0.0
C55 C 0.47995 0.05336 0.3284 0.0
C56 C 0.47271 0.06744 0.30526 0.0
C57 C 0.4666 0.02675 0.32583 0.0
H58 H 0.42224 0.02075 0.26089 0.0
H59 H 0.48419 0.08783 0.30485 0.0
O60 O 0.44259 0.09265 0.15135 0.0
O61 O 0.41624 0.07107 0.22909 0.0
O62 O 0.44771 0.05033 0.18877 0.0
O63 O 0.47618 0.10595 0.22084 0.0
H64 H 0.42999 0.12349 0.11701 0.0
H65 H 0.44724 0.06389 0.09846 0.0
H66 H 0.42297 0.1242 0.04668 0.0
H67 H 0.43975 0.06545 0.02855 0.0
H68 H 0.43805 0.11625 0.34073 0.0
H69 H 0.3705 0.05093 0.25935 0.0
H70 H 0.44929 0.10552 0.27776 0.0
H71 H 0.36061 0.06269 0.32285 0.0
H72 H 0.36426 0.04291 0.06983 0.0
H73 H 0.37722 0.98186 0.10285 0.0
H74 H 0.47876 0.19072 0.16727 0.0
H75 H 0.40105 0.15478 0.20723 0.0
H76 H 0.47845 0.04131 0.23213 0.0
H77 H 0.43957 0.02492 0.12313 0.0
H78 H 0.49504 0.01311 0.21408 0.0
H79 H 0.45711 0.99718 0.10695 0.0
H80 H 0.50458 0.08462 0.21164 0.0
H81 H 0.50011 0.14548 0.26681 0.0
H82 H 0.5463 0.09942 0.2427 0.0
H83 H 0.54208 0.15942 0.29684 0.0
H84 H 0.52118 0.14061 0.06678 0.0
H85 H 0.52904 0.07493 0.08766 0.0
H86 H 0.43338 0.99461 0.30047 0.0
H87 H 0.49699 0.06319 0.34563 0.0
Li88 Li 0.38649 0.46604 0.55692 0.0
Li89 Li 0.38383 0.48269 0.49446 0.0
Li90 Li 0.34642 0.45144 0.53029 0.0
Li91 Li 0.37268 0.4374 0.50083 0.0
C92 C 0.38018 0.50594 0.57067 0.0
N93 N 0.40011 0.54434 0.62476 0.0
C94 C 0.39788 0.53068 0.55968 0.0
C95 C 0.3723 0.50082 0.60902 0.0
C96 C 0.40782 0.54981 0.58749 0.0
C97 C 0.38269 0.52046 0.63598 0.0
C98 C 0.42603 0.46551 0.51645 0.0
C99 C 0.47007 0.47768 0.50911 0.0
N100 N 0.46658 0.45867 0.53336 0.0
C101 C 0.42285 0.44594 0.54107 0.0
C102 C 0.44984 0.48149 0.5003 0.0
C103 C 0.4436 0.44289 0.54942 0.0
C104 C 0.40805 0.46001 0.62709 0.0
N105 N 0.4091 0.47651 0.59976 0.0
C106 C 0.45058 0.50772 0.6201 0.0
C107 C 0.42959 0.50012 0.59641 0.0
C108 C 0.45089 0.49054 0.64668 0.0
C109 C 0.42902 0.46664 0.6509 0.0
H110 H 0.39188 0.44102 0.62821 0.0
H111 H 0.43055 0.51232 0.57313 0.0
C112 C 0.38039 0.51172 0.43447 0.0
N113 N 0.39685 0.50985 0.45882 0.0
C114 C 0.38941 0.52706 0.40183 0.0
C115 C 0.4322 0.54012 0.42217 0.0
C116 C 0.42232 0.52432 0.4542 0.0
C117 C 0.4156 0.54081 0.39473 0.0
H118 H 0.3602 0.50002 0.43902 0.0
H119 H 0.43489 0.52255 0.47427 0.0
C120 C 0.33743 0.41412 0.57374 0.0
N121 N 0.29274 0.38302 0.61222 0.0
C122 C 0.31943 0.39109 0.55743 0.0
C123 C 0.33288 0.42118 0.60983 0.0
C124 C 0.2969 0.37567 0.57728 0.0
C125 C 0.31013 0.40523 0.62877 0.0
C126 C 0.35524 0.45015 0.4358 0.0
C127 C 0.33349 0.4417 0.41321 0.0
C128 C 0.37839 0.45676 0.41813 0.0
C129 C 0.33524 0.43991 0.37334 0.0
C130 C 0.37933 0.45468 0.37819 0.0
N131 N 0.35792 0.44635 0.35681 0.0
C132 C 0.30485 0.45559 0.55753 0.0
C133 C 0.29581 0.42417 0.51009 0.0
C134 C 0.28085 0.45285 0.55275 0.0
N135 N 0.31198 0.44183 0.53547 0.0
C136 C 0.27174 0.42091 0.5042 0.0
C137 C 0.26437 0.4361 0.52459 0.0
H138 H 0.31832 0.46981 0.57698 0.0
H139 H 0.30229 0.41388 0.49247 0.0
C140 C 0.3936 0.4128 0.45623 0.0
N141 N 0.37182 0.41121 0.46931 0.0
C142 C 0.39356 0.40087 0.422 0.0
C143 C 0.34838 0.38402 0.41697 0.0
C144 C 0.34921 0.39595 0.45173 0.0
C145 C 0.37106 0.38776 0.40061 0.0
H146 H 0.41146 0.42528 0.46984 0.0
H147 H 0.33228 0.39558 0.46205 0.0
O148 O 0.37031 0.48697 0.54384 0.0
O149 O 0.40612 0.46931 0.50883 0.0
O150 O 0.35934 0.42976 0.55441 0.0
O151 O 0.35365 0.45148 0.47502 0.0
H152 H 0.40403 0.53503 0.53005 0.0
H153 H 0.35838 0.48187 0.61791 0.0
H154 H 0.42167 0.569 0.57946 0.0
H155 H 0.37689 0.51673 0.66582 0.0
H156 H 0.48856 0.48987 0.49667 0.0
H157 H 0.40455 0.43323 0.55361 0.0
H158 H 0.4527 0.4966 0.48098 0.0
H159 H 0.44142 0.42794 0.56861 0.0
H160 H 0.46731 0.52599 0.61505 0.0
H161 H 0.42877 0.45275 0.67064 0.0
H162 H 0.37605 0.52733 0.38155 0.0
H163 H 0.45251 0.55034 0.41767 0.0
H164 H 0.32276 0.38526 0.52967 0.0
H165 H 0.34678 0.43877 0.62304 0.0
H166 H 0.28272 0.35787 0.56489 0.0
H167 H 0.30629 0.41052 0.65665 0.0
H168 H 0.31543 0.43651 0.42635 0.0
H169 H 0.39544 0.46329 0.43502 0.0
H170 H 0.31854 0.43334 0.35554 0.0
H171 H 0.39709 0.45963 0.36421 0.0
H172 H 0.27575 0.46461 0.56955 0.0
H173 H 0.25982 0.40798 0.48197 0.0
H174 H 0.41139 0.40376 0.41071 0.0
H175 H 0.33066 0.37421 0.40133 0.0
Li176 Li 0.91817 0.38657 0.84286 0.0
Li177 Li 0.93237 0.37997 0.90728 0.0
Li178 Li 0.94457 0.36611 0.84691 0.0
Li179 Li 0.90183 0.34527 0.87115 0.0
C180 C 0.9654 0.42624 0.87307 0.0
N181 N 0.98888 0.4759 0.89862 0.0
C182 C 0.95099 0.43635 0.88805 0.0
C183 C 0.99178 0.4414 0.8714 0.0
C184 C 0.9632 0.46151 0.90061 0.0
C185 C 0.00328 0.46646 0.8844 0.0
C186 C 0.87437 0.36134 0.9049 0.0
C187 C 0.84374 0.33252 0.95066 0.0
N188 N 0.82503 0.33364 0.93096 0.0
C189 C 0.85489 0.36243 0.88534 0.0
C190 C 0.86883 0.34649 0.93803 0.0
C191 C 0.83005 0.3482 0.89889 0.0
C192 C 0.88843 0.39317 0.78821 0.0
N193 N 0.91065 0.40612 0.80784 0.0
C194 C 0.92372 0.44231 0.76745 0.0
C195 C 0.92821 0.43027 0.79803 0.0
C196 C 0.90131 0.4291 0.74603 0.0
C197 C 0.88338 0.40432 0.75689 0.0
H198 H 0.87523 0.37367 0.7956 0.0
H199 H 0.94635 0.43982 0.81222 0.0
C200 C 0.97107 0.40813 0.9587 0.0
N201 N 0.94566 0.39763 0.95414 0.0
C202 C 0.9845 0.4302 0.98038 0.0
C203 C 0.94485 0.42782 0.99702 0.0
C204 C 0.9322 0.40601 0.97436 0.0
C205 C 0.97154 0.44137 0.99774 0.0
H206 H 0.98128 0.40139 0.94141 0.0
H207 H 0.91203 0.39756 0.96955 0.0
C208 C 0.91738 0.35828 0.77953 0.0
N209 N 0.9266 0.36371 0.70122 0.0
C210 C 0.902 0.3386 0.75442 0.0
C211 C 0.93749 0.38072 0.76479 0.0
C212 C 0.90698 0.3417 0.71492 0.0
C213 C 0.9418 0.38311 0.72513 0.0
C214 C 0.92713 0.32752 0.91855 0.0
C215 C 0.92834 0.30713 0.90243 0.0
C216 C 0.92088 0.32687 0.95741 0.0
C217 C 0.92269 0.28609 0.92534 0.0
C218 C 0.91535 0.30549 0.97935 0.0
N219 N 0.91633 0.2857 0.96298 0.0
C220 C 0.98949 0.3819 0.80489 0.0
C221 C 0.9574 0.33897 0.79689 0.0
C222 C 0.00081 0.38122 0.77033 0.0
N223 N 0.9675 0.36134 0.81626 0.0
C224 C 0.96798 0.3375 0.76202 0.0
C225 C 0.98903 0.35932 0.74726 0.0
H226 H 0.99666 0.39959 0.82026 0.0
H227 H 0.93937 0.32325 0.8059 0.0
C228 C 0.85615 0.31334 0.8393 0.0
N229 N 0.87121 0.31334 0.86813 0.0
C230 C 0.83449 0.29105 0.82853 0.0
C231 C 0.84371 0.26892 0.87792 0.0
C232 C 0.86507 0.29187 0.88824 0.0
C233 C 0.82837 0.26821 0.84707 0.0
H234 H 0.86136 0.33071 0.82396 0.0
H235 H 0.87692 0.29223 0.91151 0.0
O236 O 0.95386 0.4013 0.86204 0.0
O237 O 0.89874 0.37471 0.89164 0.0
O238 O 0.91293 0.35532 0.81837 0.0
O239 O 0.93303 0.34845 0.89681 0.0
H240 H 0.93058 0.42488 0.88999 0.0
H241 H 0.00332 0.43386 0.86059 0.0
H242 H 0.95227 0.46955 0.91213 0.0
H243 H 0.02368 0.47837 0.88333 0.0
H244 H 0.83916 0.32079 0.9761 0.0
H245 H 0.8589 0.37407 0.85993 0.0
H246 H 0.88371 0.3456 0.95363 0.0
H247 H 0.81475 0.34874 0.88391 0.0
H248 H 0.93825 0.46125 0.75928 0.0
H249 H 0.86597 0.39352 0.74078 0.0
H250 H 0.00499 0.43982 0.97945 0.0
H251 H 0.93396 0.43528 0.01065 0.0
H252 H 0.88646 0.32105 0.76537 0.0
H253 H 0.94974 0.39609 0.78378 0.0
H254 H 0.89525 0.3266 0.69517 0.0
H255 H 0.95728 0.40037 0.71336 0.0
H256 H 0.93345 0.30748 0.87252 0.0
H257 H 0.92047 0.34277 0.97055 0.0
H258 H 0.92337 0.27009 0.9132 0.0
H259 H 0.91037 0.30466 0.00942 0.0
H260 H 0.01725 0.39835 0.76011 0.0
H261 H 0.95815 0.32036 0.74499 0.0
H262 H 0.82288 0.29175 0.8055 0.0
H263 H 0.83983 0.25185 0.89316 0.0
Li264 Li 0.51896 0.90204 0.17208 0.0
Li265 Li 0.53349 0.92073 0.23676 0.0
Li266 Li 0.56467 0.93502 0.18255 0.0
Li267 Li 0.54734 0.89322 0.21284 0.0
C268 C 0.53433 0.95921 0.17565 0.0
N269 N 0.53623 0.00336 0.15125 0.0
C270 C 0.53784 0.97792 0.2023 0.0
C271 C 0.53188 0.96306 0.13655 0.0
C272 C 0.53869 6e-05 0.18941 0.0
C273 C 0.5329 0.98548 0.1248 0.0
C274 C 0.49259 0.87371 0.2482 0.0
C275 C 0.4778 0.86045 0.31305 0.0
N276 N 0.45379 0.85326 0.30154 0.0
C277 C 0.46775 0.86599 0.23689 0.0
C278 C 0.49767 0.87073 0.28647 0.0
C279 C 0.4484 0.85577 0.26434 0.0
C280 C 0.48893 0.87165 0.10937 0.0
N281 N 0.493 0.89048 0.13443 0.0
C282 C 0.46678 0.90123 0.09742 0.0
C283 C 0.48116 0.9042 0.13022 0.0
C284 C 0.46433 0.88369 0.0691 0.0
C285 C 0.47457 0.86793 0.07612 0.0
H286 H 0.49802 0.86053 0.11397 0.0
H287 H 0.48413 0.91853 0.15122 0.0
C288 C 0.5372 0.94928 0.30485 0.0
N289 N 0.52173 0.93317 0.27717 0.0
C290 C 0.52908 0.96304 0.32722 0.0
C291 C 0.4888 0.94174 0.29406 0.0
C292 C 0.49784 0.92896 0.27188 0.0
C293 C 0.5048 0.95977 0.32111 0.0
H294 H 0.55641 0.95285 0.30755 0.0
H295 H 0.48651 0.91723 0.24829 0.0
C296 C 0.55062 0.89556 0.1202 0.0
N297 N 0.55051 0.88252 0.04397 0.0
C298 C 0.54947 0.8727 0.11077 0.0
C299 C 0.55168 0.91177 0.09085 0.0
C300 C 0.54943 0.86645 0.07205 0.0
C301 C 0.55164 0.90486 0.0525 0.0
C302 C 0.587 0.92361 0.25451 0.0
C303 C 0.61138 0.93419 0.23904 0.0
C304 C 0.5808 0.90867 0.28765 0.0
C305 C 0.62909 0.92928 0.25669 0.0
C306 C 0.59904 0.90418 0.30443 0.0
N307 N 0.62259 0.91447 0.28871 0.0
C308 C 0.5949 0.98383 0.14853 0.0
C309 C 0.60467 0.9521 0.13097 0.0
C310 C 0.60746 0.99804 0.11602 0.0
N311 N 0.5922 0.96051 0.15368 0.0
C312 C 0.61737 0.96562 0.09806 0.0
C313 C 0.61732 0.98805 0.08898 0.0
H314 H 0.5855 0.99049 0.16762 0.0
H315 H 0.60242 0.93356 0.13603 0.0
C316 C 0.53491 0.84341 0.2271 0.0
N317 N 0.55463 0.86678 0.21876 0.0
C318 C 0.53638 0.82187 0.2181 0.0
C319 C 0.57917 0.84899 0.1951 0.0
C320 C 0.57677 0.87003 0.20411 0.0
C321 C 0.55833 0.8246 0.2004 0.0
H322 H 0.51728 0.84139 0.23751 0.0
H323 H 0.59161 0.88874 0.19591 0.0
O324 O 0.53318 0.93726 0.18782 0.0
O325 O 0.51176 0.88385 0.22175 0.0
O326 O 0.55044 0.90188 0.15798 0.0
O327 O 0.56937 0.92805 0.23748 0.0
H328 H 0.54005 0.9755 0.2326 0.0
H329 H 0.52919 0.94889 0.11544 0.0
H330 H 0.54136 0.01465 0.20975 0.0
H331 H 0.53103 0.98867 0.09464 0.0
H332 H 0.48147 0.85816 0.34283 0.0
H333 H 0.46352 0.86806 0.20729 0.0
H334 H 0.51676 0.87642 0.29555 0.0
H335 H 0.42911 0.84986 0.25608 0.0
H336 H 0.45863 0.91332 0.09339 0.0
H337 H 0.47294 0.85409 0.05503 0.0
H338 H 0.54208 0.97709 0.3474 0.0
H339 H 0.47029 0.93923 0.28751 0.0
H340 H 0.54835 0.85978 0.13306 0.0
H341 H 0.55261 0.92953 0.09762 0.0
H342 H 0.54848 0.84878 0.06434 0.0
H343 H 0.55249 0.91725 0.02952 0.0
H344 H 0.61652 0.94595 0.21355 0.0
H345 H 0.5621 0.90056 0.30017 0.0
H346 H 0.648 0.93722 0.24491 0.0
H347 H 0.59447 0.89252 0.32996 0.0
H348 H 0.60766 0.01564 0.11055 0.0
H349 H 0.62478 0.95727 0.07811 0.0
H350 H 0.51998 0.80329 0.22266 0.0
H351 H 0.59623 0.85177 0.18098 0.0
Li352 Li 0.62878 0.56861 0.50708 0.0
Li353 Li 0.65125 0.54881 0.53235 0.0
Li354 Li 0.61084 0.52174 0.50431 0.0
Li355 Li 0.61604 0.54321 0.56788 0.0
C356 C 0.63753 0.54978 0.44039 0.0
N357 N 0.63057 0.55266 0.36229 0.0
C358 C 0.65725 0.5553 0.41462 0.0
C359 C 0.61427 0.54576 0.42638 0.0
C360 C 0.65335 0.55665 0.37525 0.0
C361 C 0.61113 0.54728 0.38683 0.0
C362 C 0.66826 0.59191 0.57672 0.0
C363 C 0.69167 0.60579 0.63622 0.0
N364 N 0.71175 0.62441 0.61679 0.0
C365 C 0.689 0.61133 0.55738 0.0
C366 C 0.66947 0.58922 0.6165 0.0
C367 C 0.71087 0.62751 0.57814 0.0
C368 C 0.60942 0.59469 0.46559 0.0
N369 N 0.63116 0.59517 0.4758 0.0
C370 C 0.65297 0.62098 0.42151 0.0
C371 C 0.65303 0.60891 0.45564 0.0
C372 C 0.63013 0.61861 0.40821 0.0
C373 C 0.60852 0.60653 0.43176 0.0
H374 H 0.59218 0.58296 0.48135 0.0
H375 H 0.66975 0.60807 0.46359 0.0
C376 C 0.68548 0.5383 0.50031 0.0
N377 N 0.68381 0.55131 0.53089 0.0
C378 C 0.70793 0.53848 0.49241 0.0
C379 C 0.72685 0.56533 0.54798 0.0
C380 C 0.70373 0.56423 0.55526 0.0
C381 C 0.72904 0.55241 0.51605 0.0
H382 H 0.66925 0.52773 0.48185 0.0
H383 H 0.70184 0.57369 0.5802 0.0
C384 C 0.56981 0.52856 0.53544 0.0
N385 N 0.52144 0.50383 0.5661 0.0
C386 C 0.55904 0.50343 0.54788 0.0
C387 C 0.55603 0.54118 0.53904 0.0
C388 C 0.53451 0.49121 0.56303 0.0
C389 C 0.53159 0.52833 0.55455 0.0
C390 C 0.63817 0.50778 0.57063 0.0
C391 C 0.64202 0.48953 0.5524 0.0
C392 C 0.65008 0.51805 0.60576 0.0
C393 C 0.65814 0.48216 0.56936 0.0
C394 C 0.66603 0.51018 0.62181 0.0
N395 N 0.66973 0.49258 0.6034 0.0
C396 C 0.607 0.48535 0.45221 0.0
C397 C 0.56867 0.48617 0.45885 0.0
C398 C 0.59719 0.46893 0.42084 0.0
N399 N 0.59284 0.49387 0.47014 0.0
C400 C 0.55796 0.46942 0.42806 0.0
C401 C 0.57252 0.46113 0.40809 0.0
H402 H 0.62647 0.49254 0.4608 0.0
H403 H 0.55821 0.49419 0.47194 0.0
C404 C 0.58988 0.55575 0.62036 0.0
N405 N 0.59822 0.53912 0.61452 0.0
C406 C 0.56821 0.54862 0.64241 0.0
C407 C 0.56661 0.50903 0.65679 0.0
C408 C 0.58808 0.51675 0.63381 0.0
C409 C 0.55517 0.52418 0.65876 0.0
H410 H 0.59803 0.57315 0.60391 0.0
H411 H 0.59487 0.50371 0.62807 0.0
O412 O 0.64132 0.54893 0.47913 0.0
O413 O 0.64651 0.57622 0.55713 0.0
O414 O 0.59419 0.54108 0.52174 0.0
O415 O 0.62313 0.51587 0.55396 0.0
H416 H 0.67544 0.55867 0.42496 0.0
H417 H 0.59884 0.54173 0.44582 0.0
H418 H 0.66847 0.56095 0.35501 0.0
H419 H 0.59325 0.54427 0.37566 0.0
H420 H 0.69292 0.60389 0.66699 0.0
H421 H 0.68829 0.61378 0.52666 0.0
H422 H 0.65338 0.57459 0.63199 0.0
H423 H 0.72715 0.64252 0.56352 0.0
H424 H 0.66992 0.62983 0.40392 0.0
H425 H 0.5906 0.60446 0.42252 0.0
H426 H 0.70892 0.52825 0.46757 0.0
H427 H 0.74273 0.57591 0.5672 0.0
H428 H 0.56959 0.49351 0.5461 0.0
H429 H 0.56421 0.56081 0.53063 0.0
H430 H 0.52595 0.47176 0.57268 0.0
H431 H 0.52075 0.53789 0.55764 0.0
H432 H 0.63283 0.48128 0.52533 0.0
H433 H 0.64718 0.53211 0.62028 0.0
H434 H 0.66145 0.4682 0.55544 0.0
H435 H 0.67552 0.51811 0.64884 0.0
H436 H 0.60902 0.46305 0.40593 0.0
H437 H 0.53907 0.46428 0.41844 0.0
H438 H 0.56029 0.56104 0.6425 0.0
H439 H 0.55772 0.49036 0.66967 0.0
Li440 Li 0.05597 0.63049 0.84568 0.0
Li441 Li 0.09806 0.65323 0.87108 0.0
Li442 Li 0.08633 0.6148 0.83246 0.0
Li443 Li 0.07083 0.61322 0.89732 0.0
C444 C 0.08378 0.64673 0.77768 0.0
N445 N 0.07472 0.64656 0.69967 0.0
C446 C 0.09734 0.66888 0.75606 0.0
C447 C 0.06557 0.62448 0.75959 0.0
C448 C 0.09245 0.66842 0.71668 0.0
C449 C 0.06135 0.62477 0.72013 0.0
C450 C 0.07385 0.66451 0.92071 0.0
C451 C 0.09491 0.68947 0.97688 0.0
N452 N 0.09199 0.7087 0.96281 0.0
C453 C 0.07076 0.68436 0.90703 0.0
C454 C 0.08576 0.66693 0.95609 0.0
C455 C 0.08018 0.70661 0.92865 0.0
C456 C 0.00969 0.61385 0.80535 0.0
N457 N 0.03109 0.63458 0.81816 0.0
C458 C 0.02926 0.65972 0.76678 0.0
C459 C 0.03993 0.65763 0.80122 0.0
C460 C 0.00922 0.63786 0.7502 0.0
C461 C 0.99815 0.61519 0.77149 0.0
H462 H 0.00316 0.59561 0.81853 0.0
H463 H 0.05741 0.67365 0.81129 0.0
C464 C 0.14728 0.6912 0.89295 0.0
N465 N 0.1254 0.68666 0.8757 0.0
C466 C 0.16952 0.71423 0.88688 0.0
C467 C 0.14586 0.72787 0.84732 0.0
C468 C 0.12411 0.70458 0.85409 0.0
C469 C 0.16913 0.73249 0.86257 0.0
H470 H 0.14785 0.67638 0.90924 0.0
H471 H 0.10654 0.70009 0.83991 0.0
C472 C 0.02744 0.57643 0.86106 0.0
N473 N 0.98083 0.53768 0.88553 0.0
C474 C 0.01317 0.58127 0.88775 0.0
C475 C 0.01781 0.55189 0.84655 0.0
C476 C 0.98973 0.56142 0.89989 0.0
C477 C 0.99423 0.53258 0.85926 0.0
C478 C 0.11703 0.61673 0.90452 0.0
C479 C 0.1232 0.59878 0.8914 0.0
C480 C 0.12182 0.6248 0.94282 0.0
C481 C 0.13357 0.58879 0.91711 0.0
C482 C 0.13221 0.61435 0.96763 0.0
N483 N 0.13779 0.59669 0.95439 0.0
C484 C 0.11302 0.61321 0.7666 0.0
C485 C 0.08312 0.57341 0.79304 0.0
C486 C 0.11592 0.60141 0.73408 0.0
N487 N 0.09607 0.59911 0.7944 0.0
C488 C 0.08527 0.56085 0.76101 0.0
C489 C 0.10118 0.57497 0.73047 0.0
H490 H 0.12319 0.63367 0.76862 0.0
H491 H 0.07039 0.56278 0.81616 0.0
C492 C 0.04543 0.58977 0.96899 0.0
N493 N 0.05954 0.58952 0.93878 0.0
C494 C 0.0325 0.56824 0.99238 0.0
C495 C 0.05065 0.54779 0.95488 0.0
C496 C 0.06243 0.56918 0.93166 0.0
C497 C 0.03481 0.54681 0.98487 0.0
H498 H 0.04266 0.60583 0.97309 0.0
H499 H 0.07233 0.56879 0.90612 0.0
O500 O 0.08812 0.64704 0.81644 0.0
O501 O 0.06516 0.64275 0.89967 0.0
O502 O 0.05092 0.59549 0.85003 0.0
O503 O 0.10675 0.62661 0.87975 0.0
H504 H 0.11145 0.68627 0.7696 0.0
H505 H 0.05477 0.60716 0.7758 0.0
H506 H 0.10276 0.68545 0.69963 0.0
H507 H 0.0474 0.60768 0.70577 0.0
H508 H 0.10429 0.69166 0.00423 0.0
H509 H 0.06134 0.68268 0.8799 0.0
H510 H 0.08782 0.65153 0.96743 0.0
H511 H 0.0781 0.72222 0.91827 0.0
H512 H 0.03849 0.67752 0.75127 0.0
H513 H 0.98231 0.59801 0.76007 0.0
H514 H 0.18707 0.71722 0.89951 0.0
H515 H 0.14478 0.7413 0.8281 0.0
H516 H 0.0202 0.60013 0.8992 0.0
H517 H 0.02826 0.54771 0.82552 0.0
H518 H 0.97864 0.56489 0.92076 0.0
H519 H 0.98656 0.51353 0.84819 0.0
H520 H 0.11982 0.59249 0.86175 0.0
H521 H 0.1175 0.63892 0.95329 0.0
H522 H 0.13825 0.57475 0.90742 0.0
H523 H 0.13586 0.6203 0.99742 0.0
H524 H 0.1284 0.6129 0.71109 0.0
H525 H 0.07401 0.54036 0.75955 0.0
H526 H 0.0199 0.56784 0.01472 0.0
H527 H 0.05212 0.53132 0.94729 0.0
Li528 Li 0.89985 0.55763 0.46763 0.0
Li529 Li 0.94225 0.58144 0.49303 0.0
Li530 Li 0.93115 0.55018 0.43716 0.0
Li531 Li 0.91571 0.53491 0.50499 0.0
C532 C 0.92499 0.59702 0.41605 0.0
N533 N 0.91298 0.62569 0.36823 0.0
C534 C 0.92598 0.61902 0.42995 0.0
C535 C 0.91816 0.5897 0.37778 0.0
C536 C 0.91976 0.63324 0.40532 0.0
C537 C 0.91208 0.60443 0.35408 0.0
C538 C 0.91072 0.5721 0.55689 0.0
C539 C 0.92564 0.58034 0.62256 0.0
N540 N 0.91244 0.5926 0.6286 0.0
C541 C 0.89719 0.58468 0.56381 0.0
C542 C 0.92497 0.56981 0.58655 0.0
C543 C 0.89833 0.59494 0.60024 0.0
C544 C 0.8531 0.5429 0.49438 0.0
N545 N 0.86855 0.55763 0.46558 0.0
C546 C 0.83861 0.57035 0.44797 0.0
C547 C 0.86164 0.57098 0.44199 0.0
C548 C 0.82256 0.55544 0.47789 0.0
C549 C 0.82986 0.54132 0.50086 0.0
H550 H 0.85916 0.53269 0.51297 0.0
H551 H 0.87393 0.58236 0.41902 0.0
C552 C 0.98903 0.61254 0.52749 0.0
N553 N 0.96674 0.61131 0.51873 0.0
C554 C 0.00154 0.62425 0.5615 0.0
C555 C 0.97034 0.63696 0.5729 0.0
C556 C 0.95859 0.62522 0.53835 0.0
C557 C 0.99074 0.63451 0.58631 0.0
H558 H 0.99533 0.60171 0.51088 0.0
H559 H 0.94098 0.62422 0.53029 0.0
C560 C 0.87297 0.51049 0.44252 0.0
N561 N 0.82339 0.4841 0.41719 0.0
C562 C 0.85434 0.49128 0.46525 0.0
C563 C 0.86648 0.51611 0.40675 0.0
C564 C 0.82935 0.47819 0.45196 0.0
C565 C 0.84128 0.50261 0.39451 0.0
C566 C 0.96543 0.5447 0.50067 0.0
C567 C 0.97046 0.52854 0.47855 0.0
C568 C 0.97493 0.55079 0.53819 0.0
C569 C 0.98508 0.51895 0.4942 0.0
C570 C 0.98934 0.54067 0.55289 0.0
N571 N 0.99413 0.52513 0.53074 0.0
C572 C 0.96963 0.55469 0.38746 0.0
C573 C 0.92934 0.51818 0.37791 0.0
C574 C 0.98135 0.54372 0.36666 0.0
N575 N 0.94427 0.54126 0.39421 0.0
C576 C 0.94023 0.5066 0.35666 0.0
C577 C 0.96674 0.51875 0.3529 0.0
H578 H 0.98107 0.57272 0.40168 0.0
H579 H 0.9093 0.50774 0.38433 0.0
C580 C 0.89085 0.50816 0.5711 0.0
N581 N 0.90691 0.50928 0.54298 0.0
C582 C 0.88638 0.49285 0.6033 0.0
C583 C 0.91288 0.47799 0.57515 0.0
C584 C 0.91702 0.4938 0.54359 0.0
C585 C 0.89807 0.47809 0.60607 0.0
H586 H 0.88217 0.51984 0.56919 0.0
H587 H 0.9289 0.49424 0.52023 0.0
O588 O 0.93157 0.5832 0.43937 0.0
O589 O 0.91013 0.56227 0.52117 0.0
O590 O 0.8974 0.5239 0.45542 0.0
O591 O 0.95152 0.55467 0.48549 0.0
H592 H 0.93143 0.62501 0.45943 0.0
H593 H 0.91766 0.57288 0.36652 0.0
H594 H 0.92033 0.65026 0.41569 0.0
H595 H 0.90668 0.59897 0.32442 0.0
H596 H 0.93669 0.57879 0.64569 0.0
H597 H 0.88621 0.5868 0.54115 0.0
H598 H 0.93534 0.55997 0.58186 0.0
H599 H 0.88808 0.60484 0.60592 0.0
H600 H 0.83337 0.58133 0.42952 0.0
H601 H 0.81805 0.52978 0.52439 0.0
H602 H 0.01774 0.62266 0.5704 0.0
H603 H 0.96156 0.6449 0.591 0.0
H604 H 0.8591 0.48672 0.49301 0.0
H605 H 0.88071 0.53094 0.38886 0.0
H606 H 0.81468 0.46339 0.46934 0.0
H607 H 0.83593 0.50687 0.36701 0.0
H608 H 0.96295 0.52315 0.44979 0.0
H609 H 0.97134 0.56324 0.55585 0.0
H610 H 0.9892 0.50659 0.47725 0.0
H611 H 0.99679 0.54525 0.58188 0.0
H612 H 0.00184 0.55372 0.36491 0.0
H613 H 0.92822 0.4875 0.34607 0.0
H614 H 0.87439 0.493 0.62622 0.0
H615 H 0.92212 0.46673 0.57616 0.0
Li616 Li 0.3803 0.925 0.76415 0.0
Li617 Li 0.38241 0.90756 0.82542 0.0
Li618 Li 0.34096 0.89127 0.79487 0.0
Li619 Li 0.363 0.93404 0.8228 0.0
C620 C 0.38349 0.87605 0.77517 0.0
N621 N 0.40954 0.84972 0.7769 0.0
C622 C 0.40984 0.88893 0.77108 0.0
C623 C 0.37036 0.84973 0.77971 0.0
C624 C 0.42268 0.87531 0.77215 0.0
C625 C 0.38388 0.83677 0.78062 0.0
C626 C 0.42308 0.95646 0.82348 0.0
C627 C 0.45383 0.97682 0.87424 0.0
N628 N 0.47277 0.98172 0.84894 0.0
C629 C 0.44294 0.96185 0.79797 0.0
C630 C 0.42862 0.96415 0.86192 0.0
C631 C 0.4679 0.97462 0.81138 0.0
C632 C 0.41016 0.96567 0.71633 0.0
N633 N 0.3996 0.94011 0.71908 0.0
C634 C 0.43061 0.94062 0.67659 0.0
C635 C 0.40824 0.92728 0.69779 0.0
C636 C 0.44388 0.96726 0.67743 0.0
C637 C 0.43244 0.97974 0.69527 0.0
H638 H 0.40311 0.97533 0.73423 0.0
H639 H 0.39941 0.90693 0.70056 0.0
C640 C 0.3849 0.87876 0.88584 0.0
N641 N 0.39985 0.89681 0.85988 0.0
C642 C 0.39567 0.87333 0.91723 0.0
C643 C 0.43712 0.90316 0.89235 0.0
C644 C 0.42553 0.90791 0.86139 0.0
C645 C 0.4221 0.8865 0.92159 0.0
H646 H 0.36451 0.86956 0.88338 0.0
H647 H 0.43713 0.92121 0.83955 0.0
C648 C 0.33423 0.91879 0.7361 0.0
N649 N 0.30938 0.90818 0.66614 0.0
C650 C 0.32007 0.93025 0.7262 0.0
C651 C 0.33578 0.90194 0.7104 0.0
C652 C 0.30763 0.92464 0.6907 0.0
C653 C 0.32307 0.89683 0.67518 0.0
C654 C 0.34242 0.90103 0.88451 0.0
C655 C 0.3165 0.88794 0.89287 0.0
C656 C 0.35985 0.91432 0.91374 0.0
C657 C 0.30845 0.88866 0.93029 0.0
C658 C 0.35105 0.91464 0.95075 0.0
N659 N 0.32574 0.90192 0.95819 0.0
C660 C 0.30852 0.84321 0.8169 0.0
C661 C 0.28745 0.85935 0.77884 0.0
C662 C 0.28568 0.82154 0.8255 0.0
N663 N 0.30901 0.86155 0.79414 0.0
C664 C 0.26401 0.83785 0.78677 0.0
C665 C 0.26297 0.81876 0.81084 0.0
H666 H 0.32585 0.84612 0.83012 0.0
H667 H 0.28827 0.87462 0.76188 0.0
C668 C 0.37985 0.97891 0.86407 0.0
N669 N 0.35851 0.95738 0.85345 0.0
C670 C 0.38017 0.99116 0.89811 0.0
C671 C 0.33556 0.96108 0.90642 0.0
C672 C 0.33612 0.94943 0.87203 0.0
C673 C 0.35824 0.98113 0.921 0.0
H674 H 0.39723 0.98516 0.8482 0.0
H675 H 0.31934 0.93238 0.86259 0.0
O676 O 0.37065 0.88916 0.77466 0.0
O677 O 0.39845 0.94401 0.81083 0.0
O678 O 0.34639 0.92411 0.77088 0.0
O679 O 0.35062 0.90099 0.84782 0.0
H680 H 0.42032 0.90929 0.76764 0.0
H681 H 0.34994 0.83936 0.7822 0.0
H682 H 0.44309 0.88509 0.76932 0.0
H683 H 0.37395 0.8164 0.7842 0.0
H684 H 0.45833 0.98274 0.90394 0.0
H685 H 0.43924 0.95596 0.76827 0.0
H686 H 0.41367 0.9603 0.88216 0.0
H687 H 0.48339 0.97878 0.79196 0.0
H688 H 0.43868 0.9303 0.66284 0.0
H689 H 0.44212 0.00023 0.69699 0.0
H690 H 0.38341 0.86023 0.93905 0.0
H691 H 0.45762 0.91319 0.89421 0.0
H692 H 0.31868 0.94333 0.74581 0.0
H693 H 0.3466 0.89284 0.71744 0.0
H694 H 0.29658 0.93336 0.68268 0.0
H695 H 0.32409 0.88382 0.65503 0.0
H696 H 0.30271 0.87764 0.8706 0.0
H697 H 0.37995 0.92433 0.90789 0.0
H698 H 0.28844 0.87876 0.9371 0.0
H699 H 0.36434 0.92503 0.97355 0.0
H700 H 0.28575 0.80767 0.84494 0.0
H701 H 0.24691 0.8364 0.77486 0.0
H702 H 0.39789 0.007 0.90805 0.0
H703 H 0.31826 0.95289 0.92319 0.0
Li704 Li 0.47509 0.37897 0.15972 0.0
Li705 Li 0.4623 0.3836 0.0946 0.0
Li706 Li 0.42964 0.36695 0.14608 0.0
Li707 Li 0.44681 0.34272 0.11881 0.0
C708 C 0.4603 0.4223 0.14192 0.0
N709 N 0.45796 0.46644 0.13888 0.0
C710 C 0.44787 0.42652 0.11143 0.0
C711 C 0.47127 0.44041 0.1711 0.0
C712 C 0.44708 0.44904 0.11023 0.0
C713 C 0.46986 0.46258 0.16907 0.0
C714 C 0.50294 0.37788 0.08606 0.0
C715 C 0.5201 0.38184 0.02222 0.0
N716 N 0.54354 0.39869 0.03584 0.0
C717 C 0.52724 0.39503 0.09952 0.0
C718 C 0.49935 0.37102 0.0472 0.0
C719 C 0.5475 0.40542 0.07363 0.0
C720 C 0.50082 0.37598 0.22513 0.0
N721 N 0.50042 0.39207 0.19839 0.0
C722 C 0.53074 0.42798 0.23406 0.0
C723 C 0.51564 0.41758 0.20145 0.0
C724 C 0.52992 0.41188 0.26366 0.0
C725 C 0.51533 0.38555 0.25845 0.0
H726 H 0.48878 0.35574 0.22162 0.0
H727 H 0.51514 0.42985 0.17941 0.0
C728 C 0.46213 0.40822 0.02355 0.0
N729 N 0.47588 0.40809 0.05433 0.0
C730 C 0.47082 0.43027 0.0014 0.0
C731 C 0.50854 0.45038 0.0409 0.0
C732 C 0.49887 0.42838 0.06278 0.0
C733 C 0.49403 0.45189 0.01077 0.0
H734 H 0.44355 0.39205 0.01821 0.0
H735 H 0.50879 0.42822 0.08846 0.0
C736 C 0.43928 0.34798 0.21304 0.0
N737 N 0.43088 0.34796 0.29126 0.0
C738 C 0.43033 0.32565 0.23433 0.0
C739 C 0.44404 0.37034 0.23161 0.0
C740 C 0.4262 0.32603 0.27384 0.0
C741 C 0.43965 0.36992 0.27114 0.0
C742 C 0.41032 0.3338 0.07275 0.0
C743 C 0.38627 0.31738 0.08771 0.0
C744 C 0.41807 0.32754 0.03864 0.0
C745 C 0.37047 0.29466 0.06855 0.0
C746 C 0.40172 0.30464 0.02035 0.0
N747 N 0.37847 0.2888 0.03558 0.0
C748 C 0.40027 0.38675 0.17954 0.0
C749 C 0.38736 0.34405 0.19428 0.0
C750 C 0.38839 0.38872 0.21257 0.0
N751 N 0.40128 0.36531 0.17283 0.0
C752 C 0.37571 0.34535 0.22818 0.0
C753 C 0.37797 0.3686 0.23907 0.0
H754 H 0.4107 0.4032 0.16173 0.0
H755 H 0.38821 0.32709 0.18809 0.0
C756 C 0.45693 0.30423 0.09767 0.0
N757 N 0.43896 0.30884 0.11234 0.0
C758 C 0.45545 0.28094 0.10431 0.0
C759 C 0.41602 0.26705 0.13844 0.0
C760 C 0.41841 0.2907 0.13151 0.0
C761 C 0.43531 0.26244 0.12625 0.0
H762 H 0.47343 0.31926 0.08358 0.0
H763 H 0.405 0.29532 0.14419 0.0
O764 O 0.46166 0.40055 0.1434 0.0
O765 O 0.48286 0.36764 0.11095 0.0
O766 O 0.44298 0.3477 0.17416 0.0
O767 O 0.42619 0.35592 0.09141 0.0
H768 H 0.43844 0.41232 0.08939 0.0
H769 H 0.48051 0.43728 0.19534 0.0
H770 H 0.43761 0.45258 0.08673 0.0
H771 H 0.47815 0.47668 0.19158 0.0
H772 H 0.51757 0.37683 0.99202 0.0
H773 H 0.53038 0.40038 0.12957 0.0
H774 H 0.48073 0.35759 0.03643 0.0
H775 H 0.56638 0.41885 0.08358 0.0
H776 H 0.54172 0.4484 0.23712 0.0
H777 H 0.51448 0.37257 0.28049 0.0
H778 H 0.45895 0.43092 0.97873 0.0
H779 H 0.52614 0.46682 0.0498 0.0
H780 H 0.42652 0.30819 0.22041 0.0
H781 H 0.45088 0.38781 0.21571 0.0
H782 H 0.41923 0.30887 0.29065 0.0
H783 H 0.44312 0.38704 0.2858 0.0
H784 H 0.37995 0.32204 0.11397 0.0
H785 H 0.4365 0.34022 0.02647 0.0
H786 H 0.35186 0.28167 0.07993 0.0
H787 H 0.40751 0.29947 0.99402 0.0
H788 H 0.38965 0.4067 0.21917 0.0
H789 H 0.36769 0.32926 0.24754 0.0
H790 H 0.47062 0.27796 0.09441 0.0
H791 H 0.40042 0.25336 0.15588 0.0
Li792 Li 0.06765 0.44504 0.42789 0.0
Li793 Li 0.0825 0.46301 0.49512 0.0
Li794 Li 0.09867 0.43888 0.46176 0.0
Li795 Li 0.05623 0.41599 0.48691 0.0
C796 C 0.12555 0.48446 0.43203 0.0
N797 N 0.17483 0.50862 0.4053 0.0
C798 C 0.14498 0.50326 0.45424 0.0
C799 C 0.13107 0.47812 0.39608 0.0
C800 C 0.16981 0.51522 0.44025 0.0
C801 C 0.15614 0.49051 0.38311 0.0
C802 C 0.03016 0.44913 0.48828 0.0
C803 C 0.00622 0.45367 0.53998 0.0
N804 N 0.99509 0.46194 0.51431 0.0
C805 C 0.0186 0.45787 0.46254 0.0
C806 C 0.02389 0.44701 0.52737 0.0
C807 C 0.00084 0.46408 0.47616 0.0
C808 C 0.0316 0.43551 0.36922 0.0
N809 N 0.05448 0.45277 0.38396 0.0
C810 C 0.0512 0.48697 0.35682 0.0
C811 C 0.06506 0.47791 0.37635 0.0
C812 C 0.02618 0.46994 0.34528 0.0
C813 C 0.01711 0.44376 0.34922 0.0
H814 H 0.02345 0.41568 0.37654 0.0
H815 H 0.08302 0.4912 0.3893 0.0
C816 C 0.1081 0.49426 0.55713 0.0
N817 N 0.09026 0.48981 0.53002 0.0
C818 C 0.11227 0.51093 0.58741 0.0
C819 C 0.08073 0.51934 0.5599 0.0
C820 C 0.07737 0.50268 0.52992 0.0
C821 C 0.09787 0.52306 0.58966 0.0
H822 H 0.11834 0.48401 0.55612 0.0
H823 H 0.06382 0.49937 0.5074 0.0
C824 C 0.07401 0.39804 0.41225 0.0
N825 N 0.08668 0.36878 0.36694 0.0
C826 C 0.07388 0.37684 0.42787 0.0
C827 C 0.08028 0.40423 0.37354 0.0
C828 C 0.08043 0.36232 0.4045 0.0
C829 C 0.08672 0.38924 0.35112 0.0
C830 C 0.08817 0.42736 0.55113 0.0
C831 C 0.10021 0.41325 0.55754 0.0
C832 C 0.07595 0.43182 0.58167 0.0
C833 C 0.09953 0.40358 0.59427 0.0
C834 C 0.07562 0.42176 0.61795 0.0
N835 N 0.08731 0.40796 0.62344 0.0
C836 C 0.14473 0.45285 0.49141 0.0
C837 C 0.13707 0.42522 0.4387 0.0
C838 C 0.16721 0.4533 0.50001 0.0
N839 N 0.12989 0.4386 0.46174 0.0
C840 C 0.15946 0.42493 0.44654 0.0
C841 C 0.17462 0.43887 0.4779 0.0
H842 H 0.13863 0.46335 0.50926 0.0
H843 H 0.12542 0.41447 0.41476 0.0
C844 C 0.00992 0.38644 0.52455 0.0
N845 N 0.03185 0.38715 0.51491 0.0
C846 C 0.99805 0.3755 0.5593 0.0
C847 C 0.02891 0.36221 0.56972 0.0
C848 C 0.04011 0.37335 0.53459 0.0
C849 C 0.00893 0.36515 0.58374 0.0
H850 H 0.00324 0.39678 0.50761 0.0
H851 H 0.05732 0.37378 0.52575 0.0
O852 O 0.10125 0.47208 0.44563 0.0
O853 O 0.04722 0.44243 0.4751 0.0
O854 O 0.06708 0.41212 0.43434 0.0
O855 O 0.08823 0.43658 0.51512 0.0
H856 H 0.14095 0.50836 0.48214 0.0
H857 H 0.11618 0.46364 0.37857 0.0
H858 H 0.18509 0.52968 0.45722 0.0
H859 H 0.16074 0.48569 0.35545 0.0
H860 H 0.00124 0.45212 0.57015 0.0
H861 H 0.0231 0.45971 0.43228 0.0
H862 H 0.03244 0.44015 0.54774 0.0
H863 H 0.99155 0.47049 0.45629 0.0
H864 H 0.05901 0.50728 0.3549 0.0
H865 H 0.99809 0.42993 0.34027 0.0
H866 H 0.1256 0.51325 0.60986 0.0
H867 H 0.06959 0.52871 0.56036 0.0
H868 H 0.06886 0.37172 0.45772 0.0
H869 H 0.08008 0.42039 0.36094 0.0
H870 H 0.08054 0.34592 0.41621 0.0
H871 H 0.0917 0.39383 0.32114 0.0
H872 H 0.10956 0.40937 0.53423 0.0
H873 H 0.06684 0.44294 0.5775 0.0
H874 H 0.10859 0.39247 0.59953 0.0
H875 H 0.06606 0.42493 0.64173 0.0
H876 H 0.17823 0.46415 0.5246 0.0
H877 H 0.1648 0.41387 0.42846 0.0
H878 H 0.98213 0.37742 0.56869 0.0
H879 H 0.0377 0.35416 0.58754 0.0
Li880 Li 0.65769 0.10942 0.79572 0.0
Li881 Li 0.63368 0.0697 0.83059 0.0
Li882 Li 0.61585 0.07978 0.77092 0.0
Li883 Li 0.61894 0.10112 0.833 0.0
C884 C 0.6647 0.07633 0.75327 0.0
N885 N 0.70378 0.08097 0.70726 0.0
C886 C 0.68252 0.07048 0.76798 0.0
C887 C 0.66645 0.08406 0.71499 0.0
C888 C 0.70223 0.0731 0.74432 0.0
C889 C 0.68642 0.08641 0.69223 0.0
C890 C 0.65857 0.10544 0.8894 0.0
C891 C 0.64818 0.09337 0.95604 0.0
N892 N 0.67326 0.10602 0.96498 0.0
C893 C 0.68425 0.11863 0.89943 0.0
C894 C 0.64042 0.09301 0.91809 0.0
C895 C 0.69129 0.1186 0.93771 0.0
C896 C 0.69667 0.15812 0.77316 0.0
N897 N 0.69155 0.13511 0.78676 0.0
C898 C 0.73433 0.15199 0.80764 0.0
C899 C 0.70994 0.13152 0.80248 0.0
C900 C 0.73974 0.17624 0.79614 0.0
C901 C 0.72096 0.17908 0.77718 0.0
H902 H 0.68155 0.16066 0.76196 0.0
H903 H 0.70511 0.11325 0.81433 0.0
C904 C 0.61371 0.02415 0.87151 0.0
N905 N 0.63573 0.0454 0.86231 0.0
C906 C 0.61195 0.01132 0.90561 0.0
C907 C 0.65651 0.04029 0.91697 0.0
C908 C 0.6574 0.05253 0.88251 0.0
C909 C 0.63314 0.02049 0.93002 0.0
H910 H 0.59691 0.01863 0.85444 0.0
H911 H 0.67475 0.06935 0.87414 0.0
C912 C 0.62569 0.1292 0.75305 0.0
N913 N 0.61586 0.15414 0.6951 0.0
C914 C 0.60965 0.13902 0.75989 0.0
C915 C 0.63691 0.13224 0.71689 0.0
C916 C 0.60487 0.15152 0.73017 0.0
C917 C 0.63166 0.14486 0.68793 0.0
C918 C 0.57507 0.05237 0.83682 0.0
C919 C 0.55406 0.04709 0.81405 0.0
C920 C 0.57134 0.04536 0.87569 0.0
C921 C 0.52995 0.03571 0.83064 0.0
C922 C 0.54695 0.03401 0.89126 0.0
N923 N 0.52693 0.02953 0.86862 0.0
C924 C 0.59046 0.04265 0.71378 0.0
C925 C 0.57753 0.07333 0.71822 0.0
C926 C 0.56917 0.02697 0.69145 0.0
N927 N 0.59356 0.0648 0.72807 0.0
C928 C 0.55591 0.05817 0.69644 0.0
C929 C 0.55069 0.03395 0.68457 0.0
H930 H 0.6034 0.03622 0.72227 0.0
H931 H 0.57974 0.09046 0.73091 0.0
C932 C 0.61716 0.12922 0.89647 0.0
N933 N 0.60356 0.11439 0.86634 0.0
C934 C 0.60476 0.13269 0.92763 0.0
C935 C 0.56508 0.10847 0.89368 0.0
C936 C 0.57829 0.10559 0.86317 0.0
C937 C 0.57822 0.12097 0.92727 0.0
H938 H 0.63741 0.13678 0.89768 0.0
H939 H 0.56811 0.09492 0.83806 0.0
O940 O 0.64532 0.07394 0.776 0.0
O941 O 0.65129 0.10458 0.85176 0.0
O942 O 0.63043 0.1168 0.78179 0.0
O943 O 0.59897 0.06406 0.82103 0.0
H944 H 0.68122 0.06418 0.79747 0.0
H945 H 0.65243 0.08802 0.70293 0.0
H946 H 0.71629 0.06885 0.7554 0.0
H947 H 0.68808 0.09249 0.66258 0.0
H948 H 0.63425 0.08365 0.97838 0.0
H949 H 0.69866 0.12879 0.87803 0.0
H950 H 0.62056 0.08342 0.9112 0.0
H951 H 0.7111 0.1286 0.94573 0.0
H952 H 0.74838 0.14918 0.82248 0.0
H953 H 0.72444 0.19762 0.76838 0.0
H954 H 0.59373 0.99567 0.9143 0.0
H955 H 0.67329 0.04783 0.93487 0.0
H956 H 0.60089 0.13688 0.7878 0.0
H957 H 0.64961 0.12503 0.71132 0.0
H958 H 0.59241 0.15912 0.73498 0.0
H959 H 0.64016 0.14732 0.65977 0.0
H960 H 0.55624 0.05193 0.78398 0.0
H961 H 0.58695 0.04835 0.89377 0.0
H962 H 0.51365 0.03184 0.81329 0.0
H963 H 0.54393 0.0287 0.92134 0.0
H964 H 0.56633 0.00875 0.68218 0.0
H965 H 0.54224 0.06441 0.69261 0.0
H966 H 0.6156 0.14266 0.95289 0.0
H967 H 0.54465 0.09976 0.89193 0.0
Li968 Li 0.56943 0.63719 0.14957 0.0
Li969 Li 0.5496 0.6589 0.11783 0.0
Li970 Li 0.52278 0.61801 0.15157 0.0
Li971 Li 0.54366 0.61972 0.09082 0.0
C972 C 0.55353 0.65834 0.20946 0.0
N973 N 0.56347 0.67436 0.28513 0.0
C974 C 0.56318 0.68391 0.21848 0.0
C975 C 0.54872 0.64089 0.23895 0.0
C976 C 0.56812 0.69164 0.25691 0.0
C977 C 0.55393 0.64936 0.27701 0.0
C978 C 0.58381 0.66408 0.06129 0.0
C979 C 0.57305 0.67493 9e-05 0.0
N980 N 0.59793 0.68685 0.98981 0.0
C981 C 0.60925 0.67644 0.05013 0.0
C982 C 0.56553 0.66331 0.0361 0.0
C983 C 0.61601 0.68784 0.01388 0.0
C984 C 0.59903 0.62068 0.1876 0.0
N985 N 0.59646 0.64131 0.18161 0.0
C986 C 0.6195 0.66091 0.23901 0.0
C987 C 0.60806 0.66202 0.2048 0.0
C988 C 0.61914 0.63836 0.2487 0.0
C989 C 0.61038 0.61878 0.22131 0.0
H990 H 0.59002 0.60468 0.16824 0.0
H991 H 0.60612 0.67839 0.19887 0.0
C992 C 0.53101 0.69118 0.12318 0.0
N993 N 0.55252 0.6909 0.11416 0.0
C994 C 0.53206 0.71392 0.13247 0.0
C995 C 0.5773 0.73581 0.12099 0.0
C996 C 0.57538 0.71253 0.1121 0.0
C997 C 0.55555 0.73657 0.13257 0.0
H998 H 0.51332 0.67349 0.12592 0.0
H999 H 0.59227 0.71152 0.10606 0.0
C1000 C 0.53389 0.57785 0.15261 0.0
N1001 N 0.5156 0.52919 0.18035 0.0
C1002 C 0.52044 0.55692 0.1284 0.0
C1003 C 0.53797 0.57391 0.19101 0.0
C1004 C 0.5114 0.53252 0.14292 0.0
C1005 C 0.52856 0.5492 0.20448 0.0
C1006 C 0.49384 0.61316 0.08474 0.0
C1007 C 0.4821 0.58715 0.09186 0.0
C1008 C 0.48182 0.62265 0.06138 0.0
C1009 C 0.45853 0.57096 0.07526 0.0
C1010 C 0.45823 0.60586 0.04531 0.0
N1011 N 0.44718 0.58057 0.05251 0.0
C1012 C 0.48994 0.61787 0.207 0.0
C1013 C 0.48235 0.57651 0.19355 0.0
C1014 C 0.47373 0.60898 0.23869 0.0
N1015 N 0.49478 0.60183 0.18623 0.0
C1016 C 0.46579 0.56675 0.22476 0.0
C1017 C 0.46206 0.58324 0.24859 0.0
H1018 H 0.49977 0.63787 0.20019 0.0
H1019 H 0.486 0.56394 0.17636 0.0
C1020 C 0.55649 0.58975 0.04916 0.0
N1021 N 0.54083 0.59957 0.04718 0.0
C1022 C 0.5511 0.5682 0.02801 0.0
C1023 C 0.51543 0.56918 0.99946 0.0
C1024 C 0.52156 0.59083 0.02122 0.0
C1025 C 0.52937 0.55667 0.00456 0.0
H1026 H 0.57154 0.59702 0.07031 0.0
H1027 H 0.50967 0.59928 0.01956 0.0
O1028 O 0.54893 0.65052 0.17189 0.0
O1029 O 0.57703 0.65289 0.09677 0.0
O1030 O 0.54328 0.60197 0.13866 0.0
O1031 O 0.51697 0.62939 0.1005 0.0
H1032 H 0.56697 0.69767 0.19603 0.0
H1033 H 0.54099 0.62103 0.23254 0.0
H1034 H 0.5757 0.71138 0.2643 0.0
H1035 H 0.55038 0.63607 0.30009 0.0
H1036 H 0.55911 0.67447 0.98031 0.0
H1037 H 0.62363 0.67721 0.06933 0.0
H1038 H 0.54576 0.65388 0.04412 0.0
H1039 H 0.63564 0.69748 0.00487 0.0
H1040 H 0.62618 0.67648 0.25925 0.0
H1041 H 0.61032 0.6013 0.22739 0.0
H1042 H 0.51488 0.71341 0.14193 0.0
H1043 H 0.59573 0.75284 0.12032 0.0
H1044 H 0.51678 0.55938 0.09874 0.0
H1045 H 0.54832 0.58972 0.21027 0.0
H1046 H 0.50103 0.51623 0.12441 0.0
H1047 H 0.53159 0.54593 0.23412 0.0
H1048 H 0.49118 0.57955 0.10973 0.0
H1049 H 0.49069 0.64278 0.05565 0.0
H1050 H 0.44929 0.55076 0.08042 0.0
H1051 H 0.44873 0.61292 0.0271 0.0
H1052 H 0.47103 0.62223 0.25602 0.0
H1053 H 0.45718 0.54676 0.23145 0.0
H1054 H 0.56235 0.55926 0.03333 0.0
H1055 H 0.49884 0.56126 0.9811 0.0
C1056 C 0.55952 0.13626 0.02358 0.0
C1057 C 0.53991 0.11221 0.03483 0.0
H1058 H 0.58715 0.15801 0.98036 0.0
C1059 C 0.53227 0.0916 0.00969 0.0
H1060 H 0.56571 0.15245 0.04248 0.0
C1061 C 0.54423 0.0948 0.97429 0.0
C1062 C 0.56421 0.11868 0.96325 0.0
H1063 H 0.51694 0.07294 0.01739 0.0
H1064 H 0.53829 0.07837 0.956 0.0
C1065 C 0.57175 0.13942 0.98818 0.0
C1066 C 0.45872 0.58754 0.31967 0.0
C1067 C 0.44814 0.574 0.28543 0.0
H1068 H 0.45656 0.58772 0.38124 0.0
C1069 C 0.4255 0.55061 0.28727 0.0
H1070 H 0.47631 0.6055 0.31918 0.0
C1071 C 0.41422 0.54047 0.32278 0.0
C1072 C 0.42548 0.55343 0.35715 0.0
H1073 H 0.41688 0.53985 0.26132 0.0
H1074 H 0.39736 0.52189 0.32341 0.0
C1075 C 0.44755 0.5773 0.35521 0.0
C1076 C 0.9012 0.47723 0.67763 0.0
C1077 C 0.89647 0.46451 0.64219 0.0
H1078 H 0.90641 0.47589 0.73841 0.0
C1079 C 0.89173 0.43946 0.64148 0.0
H1080 H 0.90519 0.49666 0.67892 0.0
C1081 C 0.8922 0.42752 0.67559 0.0
C1082 C 0.89782 0.4406 0.7108 0.0
H1083 H 0.88797 0.42924 0.61453 0.0
H1084 H 0.88915 0.40842 0.67424 0.0
C1085 C 0.90204 0.46544 0.71159 0.0
C1086 C 0.46148 0.907 0.01224 0.0
C1087 C 0.45349 0.88381 0.03106 0.0
H1088 H 0.45791 0.92589 0.9629 0.0
C1089 C 0.43582 0.86118 0.01288 0.0
H1090 H 0.4754 0.92471 0.0253 0.0
C1091 C 0.42581 0.86184 0.97689 0.0
C1092 C 0.4337 0.88512 0.95829 0.0
H1093 H 0.42944 0.84306 0.02679 0.0
H1094 H 0.41192 0.84421 0.96362 0.0
C1095 C 0.45175 0.90764 0.97625 0.0
C1096 C 0.57731 0.45488 0.33813 0.0
C1097 C 0.56278 0.44654 0.372 0.0
H1098 H 0.57822 0.45037 0.27701 0.0
C1099 C 0.53816 0.42555 0.37039 0.0
H1100 H 0.59625 0.47122 0.33858 0.0
C1101 C 0.52797 0.41355 0.33532 0.0
C1102 C 0.54209 0.42256 0.30117 0.0
H1103 H 0.52662 0.41879 0.39613 0.0
H1104 H 0.50862 0.39792 0.33467 0.0
C1105 C 0.56697 0.4431 0.30295 0.0
C1106 C 0.12251 0.55502 0.64109 0.0
C1107 C 0.09911 0.53761 0.6245 0.0
H1108 H 0.14154 0.5807 0.68781 0.0
C1109 C 0.07659 0.53293 0.6427 0.0
H1110 H 0.14013 0.55898 0.62755 0.0
C1111 C 0.07741 0.54505 0.67714 0.0
C1112 C 0.10075 0.56228 0.69396 0.0
H1113 H 0.0583 0.51937 0.63081 0.0
H1114 H 0.05972 0.54103 0.69058 0.0
C1115 C 0.12332 0.56744 0.67541 0.0
C1116 C 0.38204 0.99549 0.02322 0.0
C1117 C 0.36489 0.00142 0.0408 0.0
H1118 H 0.39328 0.98455 0.97187 0.0
C1119 C 0.34514 0.00056 0.01862 0.0
H1120 H 0.39779 0.99649 0.03921 0.0
C1121 C 0.34268 0.99386 0.97955 0.0
C1122 C 0.36028 0.98852 0.96201 0.0
H1123 H 0.33174 0.00517 0.03144 0.0
H1124 H 0.32735 0.99329 0.96293 0.0
C1125 C 0.37976 0.98913 0.98439 0.0
C1126 C 0.39287 0.39611 0.29728 0.0
C1127 C 0.37451 0.37346 0.27991 0.0
H1128 H 0.40596 0.4183 0.34834 0.0
C1129 C 0.35476 0.35513 0.30275 0.0
H1130 H 0.40875 0.41042 0.28095 0.0
C1131 C 0.35349 0.35949 0.34215 0.0
C1132 C 0.37215 0.38208 0.35935 0.0
H1133 H 0.3404 0.33745 0.29022 0.0
H1134 H 0.33815 0.34511 0.3592 0.0
C1135 C 0.39164 0.4004 0.3363 0.0
C1136 C 0.00264 0.38262 0.64468 0.0
C1137 C 0.00313 0.36258 0.62545 0.0
H1138 H 0.99807 0.3973 0.69783 0.0
C1139 C 0.00011 0.34167 0.64687 0.0
H1140 H 0.00559 0.39931 0.62916 0.0
C1141 C 0.99603 0.34062 0.68674 0.0
C1142 C 0.99546 0.36072 0.70581 0.0
H1143 H 0.00071 0.32612 0.63276 0.0
H1144 H 0.99335 0.32417 0.70264 0.0
C1145 C -0.00112 0.38171 0.68425 0.0
C1146 C 0.64364 -0.00023 0.02832 0.0
C1147 C 0.62311 0.99822 0.04919 0.0
H1148 H 0.66301 0.00804 0.97391 0.0
C1149 C 0.60625 0.00411 0.03052 0.0
H1150 H 0.65689 0.99525 0.04197 0.0
C1151 C 0.60956 0.01106 0.99188 0.0
C1152 C 0.62982 0.0123 0.97078 0.0
H1153 H 0.58994 0.00262 0.04545 0.0
H1154 H 0.59627 0.01563 0.97853 0.0
C1155 C 0.64711 0.00699 0.98947 0.0
C1156 C 0.60542 0.61071 0.30666 0.0
C1157 C 0.62331 0.63347 0.28907 0.0
H1158 H 0.5936 0.58838 0.35781 0.0
C1159 C 0.64352 0.65181 0.31118 0.0
H1160 H 0.58932 0.59642 0.29067 0.0
C1161 C 0.64585 0.64725 0.35013 0.0
C1162 C 0.62771 0.62453 0.36762 0.0
H1163 H 0.65748 0.66958 0.29835 0.0
H1164 H 0.66164 0.66153 0.36663 0.0
C1165 C 0.60759 0.6063 0.34538 0.0
C1166 C 0.00115 0.61711 0.68599 0.0
C1167 C 0.00349 0.63731 0.70854 0.0
H1168 H 0.99549 0.6006 0.63027 0.0
C1169 C 0.00241 0.6574 0.69033 0.0
H1170 H 0.0024 0.60156 0.69879 0.0
C1171 C -0.00128 0.657 0.65038 0.0
C1172 C 0.99663 0.63678 0.62803 0.0
H1173 H 0.00427 0.67328 0.70697 0.0
H1174 H 0.9976 0.67245 0.63697 0.0
C1175 C 0.99777 0.61684 0.64641 0.0
C1176 C 0.51373 0.00405 0.32962 0.0
C1177 C 0.4976 0.97805 0.33625 0.0
H1178 H 0.51649 0.04001 0.32116 0.0
C1179 C 0.47269 0.96956 0.34878 0.0
H1180 H 0.53295 0.01112 0.31961 0.0
C1181 C 0.46319 0.98623 0.35001 0.0
C1182 C 0.47838 0.0116 0.33833 0.0
H1183 H 0.45995 0.94963 0.35446 0.0
H1184 H 0.44338 0.97876 0.35698 0.0
C1185 C 0.5042 0.02067 0.33056 0.0
C1186 C 0.51044 0.48767 0.65865 0.0
C1187 C 0.52781 0.5129 0.66917 0.0
H1188 H 0.47218 0.46076 0.64369 0.0
C1189 C 0.51813 0.52838 0.68181 0.0
H1190 H 0.51685 0.47501 0.64859 0.0
C1191 C 0.49227 0.52013 0.67842 0.0
C1192 C 0.47554 0.49607 0.66321 0.0
H1193 H 0.53073 0.5476 0.6914 0.0
H1194 H 0.48566 0.53327 0.68484 0.0
C1195 C 0.48459 0.47936 0.65576 0.0
C1196 C 0.99139 0.51076 0.9954 0.0
C1197 C 0.01748 0.52185 0.00218 0.0
H1198 H 0.95627 0.47654 0.98859 0.0
C1199 C 0.02705 0.50675 0.01654 0.0
H1200 H 0.98362 0.52197 0.98386 0.0
C1201 C 0.01125 0.48052 0.01996 0.0
C1202 C 0.98576 0.46887 0.00805 0.0
H1203 H 0.04715 0.51497 0.02209 0.0
H1204 H 0.01955 0.46923 0.02888 0.0
C1205 C 0.97568 0.48452 0.99819 0.0
C1206 C 0.97003 0.47955 0.3574 0.0
C1207 C 0.97927 0.50399 0.3421 0.0
H1208 H 0.97749 0.44975 0.37042 0.0
C1209 C 0.00234 0.51524 0.32181 0.0
H1210 H 0.9526 0.47042 0.37384 0.0
C1211 C 0.01674 0.50315 0.31956 0.0
C1212 C 0.00844 0.47964 0.33781 0.0
H1213 H 0.00983 0.53392 0.30928 0.0
H1214 H 0.035 0.51284 0.30536 0.0
C1215 C 0.9844 0.46756 0.35532 0.0
C1216 C 0.4873 0.97346 0.68437 0.0
C1217 C 0.47142 0.98172 0.66864 0.0
H1218 H 0.52456 0.98338 0.70204 0.0
C1219 C 0.48252 0.0058 0.65143 0.0
H1220 H 0.47939 0.95519 0.69844 0.0
C1221 C 0.5088 0.02208 0.65299 0.0
C1222 C 0.52444 0.01477 0.67244 0.0
H1223 H 0.47074 0.01257 0.63879 0.0
H1224 H 0.51663 0.04095 0.64104 0.0
C1225 C 0.51344 0.98978 0.68639 0.0
C1226 C 0.48413 0.48633 0.99945 0.0
C1227 C 0.50112 0.47725 0.99534 0.0
H1228 H 0.4798 0.51879 0.00565 0.0
C1229 C 0.52638 0.49431 0.98518 0.0
H1230 H 0.46461 0.47363 0.00769 0.0
C1231 C 0.53514 0.52033 0.98355 0.0
C1232 C 0.51887 0.52975 0.99266 0.0
H1233 H 0.5398 0.48771 0.98159 0.0
H1234 H 0.5551 0.53317 0.97826 0.0
C1235 C 0.49293 0.51235 0.99824 0.0
C1236 C 0.41485 0.21572 0.13892 0.0
C1237 C 0.4362 0.24008 0.14076 0.0
H1238 H 0.39931 0.17625 0.15098 0.0
C1239 C 0.45832 0.24341 0.15866 0.0
H1240 H 0.39755 0.21273 0.12536 0.0
C1241 C 0.45919 0.22276 0.17418 0.0
C1242 C 0.43806 0.1982 0.17172 0.0
H1243 H 0.47485 0.26212 0.16135 0.0
H1244 H 0.47645 0.22611 0.18831 0.0
C1245 C 0.41582 0.19492 0.15399 0.0
C1246 C 0.2199 0.4604 0.49893 0.0
C1247 C 0.19771 0.43802 0.48861 0.0
H1248 H 0.25826 0.47733 0.51798 0.0
C1249 C 0.19737 0.41482 0.4906 0.0
H1250 H 0.22078 0.47858 0.49724 0.0
C1251 C 0.21879 0.41402 0.50305 0.0
C1252 C 0.24099 0.43643 0.51356 0.0
H1253 H 0.18037 0.39724 0.48334 0.0
H1254 H 0.2179 0.39584 0.50474 0.0
C1255 C 0.24129 0.45963 0.51117 0.0
C1256 C 0.77846 0.21784 0.78189 0.0
C1257 C 0.76353 0.19882 0.80837 0.0
H1258 H 0.81119 0.25415 0.77301 0.0
C1259 C 0.77041 0.20221 0.84743 0.0
H1260 H 0.77353 0.21555 0.75161 0.0
C1261 C 0.79151 0.22459 0.86002 0.0
C1262 C 0.80639 0.24392 0.83369 0.0
H1263 H 0.75889 0.18792 0.86848 0.0
H1264 H 0.79567 0.22697 0.89054 0.0
C1265 C 0.79984 0.24003 0.79434 0.0
C1266 C 0.53775 0.76554 0.14107 0.0
C1267 C 0.55736 0.76021 0.14785 0.0
H1268 H 0.5227 0.78994 0.1527 0.0
C1269 C 0.57774 0.77669 0.17163 0.0
H1270 H 0.52202 0.75359 0.12235 0.0
C1271 C 0.57822 0.79772 0.18872 0.0
C1272 C 0.55816 0.80242 0.18283 0.0
H1273 H 0.59297 0.77296 0.17799 0.0
H1274 H 0.59397 0.81 0.20719 0.0
C1275 C 0.53807 0.7863 0.15854 0.0
C1276 C 0.7982 0.57746 0.49259 0.0
C1277 C 0.79853 0.55487 0.48618 0.0
H1278 H 0.77579 0.59432 0.50802 0.0
C1279 C 0.77601 0.53154 0.49009 0.0
H1280 H 0.81544 0.59564 0.49015 0.0
C1281 C 0.75348 0.53079 0.50007 0.0
C1282 C 0.75316 0.55334 0.50692 0.0
H1283 H 0.77587 0.51388 0.48535 0.0
H1284 H 0.7363 0.51257 0.50277 0.0
C1285 C 0.77569 0.5767 0.50323 0.0
C1286 C 0.21372 0.7519 0.83893 0.0
C1287 C 0.19312 0.75485 0.84977 0.0
H1288 H 0.25153 0.76953 0.81705 0.0
C1289 C 0.19526 0.77883 0.84628 0.0
H1290 H 0.21242 0.73352 0.84027 0.0
C1291 C 0.21774 0.79954 0.83283 0.0
C1292 C 0.23845 0.7966 0.82247 0.0
H1293 H 0.17968 0.78165 0.85444 0.0
H1294 H 0.21911 0.81795 0.83144 0.0
C1295 C 0.23608 0.77251 0.82539 0.0
loop_
_geom_bond_atom_site_label_1
_geom_bond_atom_site_label_2
_geom_bond_distance
_geom_bond_site_symmetry_2
_ccdc_geom_bond_type
Li0 N17 1.990 . S
Li0 O60 1.956 . S
Li0 O61 1.970 . S
Li0 O62 1.961 . S
Li1 N25 1.990 . S
Li1 O60 1.970 . S
Li1 O61 1.956 . S
Li1 O63 1.961 . S
Li2 N47 1.990 . S
Li2 O60 1.961 . S
Li2 O62 1.956 . S
Li2 O63 1.970 . S
Li3 N53 1.990 . S
Li3 O61 1.961 . S
Li3 O62 1.970 . S
Li3 O63 1.956 . S
C4 C6 1.348 . S
C4 C7 1.356 . S
C4 O60 1.325 . S
N5 C8 1.314 . S
N5 C9 1.279 . S
C6 C4 1.348 . S
C6 C8 1.353 . S
C6 H64 0.929 . S
C7 C4 1.356 . S
C7 C9 1.358 . S
C7 H65 0.930 . S
C8 N5 1.314 . S
C8 C6 1.353 . S
C8 H66 0.930 . S
C9 N5 1.279 . S
C9 C7 1.358 . S
C9 H67 0.930 . S
C10 C13 1.348 . S
C10 C14 1.356 . S
C10 O61 1.325 . S
C11 N12 1.279 . S
C11 C14 1.358 . S
C11 H68 0.930 . S
N12 C11 1.279 . S
N12 C15 1.314 . S
C13 C10 1.348 . S
C13 C15 1.353 . S
C13 H69 0.929 . S
C14 C10 1.356 . S
C14 C11 1.358 . S
C14 H70 0.930 . S
C15 N12 1.314 . S
C15 C13 1.353 . S
C15 H71 0.930 . S
C16 N17 1.314 . S
C16 C21 1.353 1_545 S
C16 H22 0.930 . S
N17 Li0 1.990 . S
N17 C16 1.314 . S
N17 C19 1.279 . S
C18 C19 1.358 . S
C18 C20 1.356 . S
C18 H72 0.930 . S
C19 N17 1.279 . S
C19 C18 1.358 . S
C19 H23 0.930 . S
C20 C18 1.356 . S
C20 C21 1.348 1_545 S
C21 C16 1.353 1_565 S
C21 C20 1.348 1_565 S
C21 H73 0.929 . S
H22 C16 0.930 . S
H23 C19 0.930 . S
C24 N25 1.314 . S
C24 C26 1.353 . S
C24 H30 0.930 . S
N25 Li1 1.990 . S
N25 C24 1.314 . S
N25 C28 1.279 . S
C26 C24 1.353 . S
C26 C29 1.348 . S
C26 H74 0.929 . S
C27 C28 1.358 . S
C27 C29 1.356 . S
C27 H75 0.930 . S
C28 N25 1.279 . S
C28 C27 1.358 . S
C28 H31 0.930 . S
C29 C26 1.348 . S
C29 C27 1.356 . S
H30 C24 0.930 . S
H31 C28 0.930 . S
C32 C34 1.348 . S
C32 C35 1.356 . S
C32 O62 1.325 . S
N33 C36 1.314 . S
N33 C37 1.279 . S
C34 C32 1.348 . S
C34 C36 1.353 . S
C34 H76 0.929 . S
C35 C32 1.356 . S
C35 C37 1.358 . S
C35 H77 0.930 . S
C36 N33 1.314 . S
C36 C34 1.353 . S
C36 H78 0.930 . S
C37 N33 1.279 . S
C37 C35 1.358 . S
C37 H79 0.930 . S
C38 C39 1.348 . S
C38 C40 1.356 . S
C38 O63 1.325 . S
C39 C38 1.348 . S
C39 C41 1.353 . S
C39 H80 0.929 . S
C40 C38 1.356 . S
C40 C42 1.358 . S
C40 H81 0.930 . S
C41 C39 1.353 . S
C41 N43 1.314 . S
C41 H82 0.930 . S
C42 C40 1.358 . S
C42 N43 1.279 . S
C42 H83 0.930 . S
N43 C41 1.314 . S
N43 C42 1.279 . S
C44 C46 1.353 . S
C44 N47 1.314 . S
C44 H50 0.930 . S
C45 N47 1.279 . S
C45 C48 1.358 . S
C45 H51 0.930 . S
C46 C44 1.353 . S
C46 C49 1.348 . S
C46 H84 0.929 . S
N47 Li2 1.990 . S
N47 C44 1.314 . S
N47 C45 1.279 . S
C48 C45 1.358 . S
C48 C49 1.356 . S
C48 H85 0.930 . S
C49 C46 1.348 . S
C49 C48 1.356 . S
H50 C44 0.930 . S
H51 C45 0.930 . S
C52 N53 1.314 . S
C52 C54 1.353 . S
C52 H58 0.930 . S
N53 Li3 1.990 . S
N53 C52 1.314 . S
N53 C56 1.279 . S
C54 C52 1.353 . S
C54 C57 1.348 . S
C54 H86 0.929 . S
C55 C56 1.358 . S
C55 C57 1.356 . S
C55 H87 0.930 . S
C56 N53 1.279 . S
C56 C55 1.358 . S
C56 H59 0.930 . S
C57 C54 1.348 . S
C57 C55 1.356 . S
H58 C52 0.930 . S
H59 C56 0.930 . S
O60 Li0 1.956 . S
O60 Li1 1.970 . S
O60 Li2 1.961 . S
O60 C4 1.325 . S
O61 Li0 1.970 . S
O61 Li1 1.956 . S
O61 Li3 1.961 . S
O61 C10 1.325 . S
O62 Li0 1.961 . S
O62 Li2 1.956 . S
O62 Li3 1.970 . S
O62 C32 1.325 . S
O63 Li1 1.961 . S
O63 Li2 1.970 . S
O63 Li3 1.956 . S
O63 C38 1.325 . S
H64 C6 0.929 . S
H65 C7 0.930 . S
H66 C8 0.930 . S
H67 C9 0.930 . S
H68 C11 0.930 . S
H69 C13 0.929 . S
H70 C14 0.930 . S
H71 C15 0.930 . S
H72 C18 0.930 . S
H73 C21 0.929 . S
H74 C26 0.929 . S
H75 C27 0.930 . S
H76 C34 0.929 . S
H77 C35 0.930 . S
H78 C36 0.930 . S
H79 C37 0.930 . S
H80 C39 0.929 . S
H81 C40 0.930 . S
H82 C41 0.930 . S
H83 C42 0.930 . S
H84 C46 0.929 . S
H85 C48 0.930 . S
H86 C54 0.929 . S
H87 C55 0.930 . S
Li88 N105 1.990 . S
Li88 O148 1.956 . S
Li88 O149 1.970 . S
Li88 O150 1.961 . S
Li89 N113 1.990 . S
Li89 O148 1.970 . S
Li89 O149 1.956 . S
Li89 O151 1.961 . S
Li90 N135 1.990 . S
Li90 O148 1.961 . S
Li90 O150 1.956 . S
Li90 O151 1.970 . S
Li91 N141 1.990 . S
Li91 O149 1.961 . S
Li91 O150 1.970 . S
Li91 O151 1.956 . S
C92 C94 1.348 . S
C92 C95 1.356 . S
C92 O148 1.325 . S
N93 C96 1.314 . S
N93 C97 1.279 . S
C94 C92 1.348 . S
C94 C96 1.353 . S
C94 H152 0.929 . S
C95 C92 1.356 . S
C95 C97 1.358 . S
C95 H153 0.930 . S
C96 N93 1.314 . S
C96 C94 1.353 . S
C96 H154 0.930 . S
C97 N93 1.279 . S
C97 C95 1.358 . S
C97 H155 0.930 . S
C98 C101 1.348 . S
C98 C102 1.356 . S
C98 O149 1.325 . S
C99 N100 1.279 . S
C99 C102 1.358 . S
C99 H156 0.930 . S
N100 C99 1.279 . S
N100 C103 1.314 . S
C101 C98 1.348 . S
C101 C103 1.353 . S
C101 H157 0.929 . S
C102 C98 1.356 . S
C102 C99 1.358 . S
C102 H158 0.930 . S
C103 N100 1.314 . S
C103 C101 1.353 . S
C103 H159 0.930 . S
C104 N105 1.314 . S
C104 C109 1.353 . S
C104 H110 0.930 . S
N105 Li88 1.990 . S
N105 C104 1.314 . S
N105 C107 1.279 . S
C106 C107 1.358 . S
C106 C108 1.356 . S
C106 H160 0.930 . S
C107 N105 1.279 . S
C107 C106 1.358 . S
C107 H111 0.930 . S
C108 C106 1.356 . S
C108 C109 1.348 . S
C109 C104 1.353 . S
C109 C108 1.348 . S
C109 H161 0.929 . S
H110 C104 0.930 . S
H111 C107 0.930 . S
C112 N113 1.314 . S
C112 C114 1.353 . S
C112 H118 0.930 . S
N113 Li89 1.990 . S
N113 C112 1.314 . S
N113 C116 1.279 . S
C114 C112 1.353 . S
C114 C117 1.348 . S
C114 H162 0.929 . S
C115 C116 1.358 . S
C115 C117 1.356 . S
C115 H163 0.930 . S
C116 N113 1.279 . S
C116 C115 1.358 . S
C116 H119 0.930 . S
C117 C114 1.348 . S
C117 C115 1.356 . S
H118 C112 0.930 . S
H119 C116 0.930 . S
C120 C122 1.348 . S
C120 C123 1.356 . S
C120 O150 1.325 . S
N121 C124 1.314 . S
N121 C125 1.279 . S
C122 C120 1.348 . S
C122 C124 1.353 . S
C122 H164 0.929 . S
C123 C120 1.356 . S
C123 C125 1.358 . S
C123 H165 0.930 . S
C124 N121 1.314 . S
C124 C122 1.353 . S
C124 H166 0.930 . S
C125 N121 1.279 . S
C125 C123 1.358 . S
C125 H167 0.930 . S
C126 C127 1.348 . S
C126 C128 1.356 . S
C126 O151 1.325 . S
C127 C126 1.348 . S
C127 C129 1.353 . S
C127 H168 0.929 . S
C128 C126 1.356 . S
C128 C130 1.358 . S
C128 H169 0.930 . S
C129 C127 1.353 . S
C129 N131 1.314 . S
C129 H170 0.930 . S
C130 C128 1.358 . S
C130 N131 1.279 . S
C130 H171 0.930 . S
N131 C129 1.314 . S
N131 C130 1.279 . S
C132 C134 1.353 . S
C132 N135 1.314 . S
C132 H138 0.930 . S
C133 N135 1.279 . S
C133 C136 1.358 . S
C133 H139 0.930 . S
C134 C132 1.353 . S
C134 C137 1.348 . S
C134 H172 0.929 . S
N135 Li90 1.990 . S
N135 C132 1.314 . S
N135 C133 1.279 . S
C136 C133 1.358 . S
C136 C137 1.356 . S
C136 H173 0.930 . S
C137 C134 1.348 . S
C137 C136 1.356 . S
H138 C132 0.930 . S
H139 C133 0.930 . S
C140 N141 1.314 . S
C140 C142 1.353 . S
C140 H146 0.930 . S
N141 Li91 1.990 . S
N141 C140 1.314 . S
N141 C144 1.279 . S
C142 C140 1.353 . S
C142 C145 1.348 . S
C142 H174 0.929 . S
C143 C144 1.358 . S
C143 C145 1.356 . S
C143 H175 0.930 . S
C144 N141 1.279 . S
C144 C143 1.358 . S
C144 H147 0.930 . S
C145 C142 1.348 . S
C145 C143 1.356 . S
H146 C140 0.930 . S
H147 C144 0.930 . S
O148 Li88 1.956 . S
O148 Li89 1.970 . S
O148 Li90 1.961 . S
O148 C92 1.325 . S
O149 Li88 1.970 . S
O149 Li89 1.956 . S
O149 Li91 1.961 . S
O149 C98 1.325 . S
O150 Li88 1.961 . S
O150 Li90 1.956 . S
O150 Li91 1.970 . S
O150 C120 1.325 . S
O151 Li89 1.961 . S
O151 Li90 1.970 . S
O151 Li91 1.956 . S
O151 C126 1.325 . S
H152 C94 0.929 . S
H153 C95 0.930 . S
H154 C96 0.930 . S
H155 C97 0.930 . S
H156 C99 0.930 . S
H157 C101 0.929 . S
H158 C102 0.930 . S
H159 C103 0.930 . S
H160 C106 0.930 . S
H161 C109 0.929 . S
H162 C114 0.929 . S
H163 C115 0.930 . S
H164 C122 0.929 . S
H165 C123 0.930 . S
H166 C124 0.930 . S
H167 C125 0.930 . S
H168 C127 0.929 . S
H169 C128 0.930 . S
H170 C129 0.930 . S
H171 C130 0.930 . S
H172 C134 0.929 . S
H173 C136 0.930 . S
H174 C142 0.929 . S
H175 C143 0.930 . S
Li176 N193 1.990 . S
Li176 O236 1.956 . S
Li176 O237 1.970 . S
Li176 O238 1.961 . S
Li177 N201 1.990 . S
Li177 O236 1.970 . S
Li177 O237 1.956 . S
Li177 O239 1.961 . S
Li178 N223 1.990 . S
Li178 O236 1.961 . S
Li178 O238 1.956 . S
Li178 O239 1.970 . S
Li179 N229 1.990 . S
Li179 O237 1.961 . S
Li179 O238 1.970 . S
Li179 O239 1.956 . S
C180 C182 1.348 . S
C180 C183 1.356 . S
C180 O236 1.325 . S
N181 C184 1.314 . S
N181 C185 1.279 . S
C182 C180 1.348 . S
C182 C184 1.353 . S
C182 H240 0.929 . S
C183 C180 1.356 . S
C183 C185 1.358 . S
C183 H241 0.930 . S
C184 N181 1.314 . S
C184 C182 1.353 . S
C184 H242 0.930 . S
C185 N181 1.279 . S
C185 C183 1.358 . S
C185 H243 0.930 . S
C186 C189 1.348 . S
C186 C190 1.356 . S
C186 O237 1.325 . S
C187 N188 1.279 . S
C187 C190 1.358 . S
C187 H244 0.930 . S
N188 C187 1.279 . S
N188 C191 1.314 . S
C189 C186 1.348 . S
C189 C191 1.353 . S
C189 H245 0.929 . S
C190 C186 1.356 . S
C190 C187 1.358 . S
C190 H246 0.930 . S
C191 N188 1.314 . S
C191 C189 1.353 . S
C191 H247 0.930 . S
C192 N193 1.314 . S
C192 C197 1.353 . S
C192 H198 0.930 . S
N193 Li176 1.990 . S
N193 C192 1.314 . S
N193 C195 1.279 . S
C194 C195 1.358 . S
C194 C196 1.356 . S
C194 H248 0.930 . S
C195 N193 1.279 . S
C195 C194 1.358 . S
C195 H199 0.930 . S
C196 C194 1.356 . S
C196 C197 1.348 . S
C197 C192 1.353 . S
C197 C196 1.348 . S
C197 H249 0.929 . S
H198 C192 0.930 . S
H199 C195 0.930 . S
C200 N201 1.314 . S
C200 C202 1.353 . S
C200 H206 0.930 . S
N201 Li177 1.990 . S
N201 C200 1.314 . S
N201 C204 1.279 . S
C202 C200 1.353 . S
C202 C205 1.348 . S
C202 H250 0.929 . S
C203 C204 1.358 . S
C203 C205 1.356 . S
C203 H251 0.930 . S
C204 N201 1.279 . S
C204 C203 1.358 . S
C204 H207 0.930 . S
C205 C202 1.348 . S
C205 C203 1.356 . S
H206 C200 0.930 . S
H207 C204 0.930 . S
C208 C210 1.348 . S
C208 C211 1.356 . S
C208 O238 1.325 . S
N209 C212 1.314 . S
N209 C213 1.279 . S
C210 C208 1.348 . S
C210 C212 1.353 . S
C210 H252 0.929 . S
C211 C208 1.356 . S
C211 C213 1.358 . S
C211 H253 0.930 . S
C212 N209 1.314 . S
C212 C210 1.353 . S
C212 H254 0.930 . S
C213 N209 1.279 . S
C213 C211 1.358 . S
C213 H255 0.930 . S
C214 C215 1.348 . S
C214 C216 1.356 . S
C214 O239 1.325 . S
C215 C214 1.348 . S
C215 C217 1.353 . S
C215 H256 0.929 . S
C216 C214 1.356 . S
C216 C218 1.358 . S
C216 H257 0.930 . S
C217 C215 1.353 . S
C217 N219 1.314 . S
C217 H258 0.930 . S
C218 C216 1.358 . S
C218 N219 1.279 . S
C218 H259 0.930 . S
N219 C217 1.314 . S
N219 C218 1.279 . S
C220 C222 1.353 1_655 S
C220 N223 1.314 . S
C220 H226 0.930 . S
C221 N223 1.279 . S
C221 C224 1.358 . S
C221 H227 0.930 . S
C222 C220 1.353 1_455 S
C222 C225 1.348 1_455 S
C222 H260 0.929 . S
N223 Li178 1.990 . S
N223 C220 1.314 . S
N223 C221 1.279 . S
C224 C221 1.358 . S
C224 C225 1.356 . S
C224 H261 0.930 . S
C225 C222 1.348 1_655 S
C225 C224 1.356 . S
H226 C220 0.930 . S
H227 C221 0.930 . S
C228 N229 1.314 . S
C228 C230 1.353 . S
C228 H234 0.930 . S
N229 Li179 1.990 . S
N229 C228 1.314 . S
N229 C232 1.279 . S
C230 C228 1.353 . S
C230 C233 1.348 . S
C230 H262 0.929 . S
C231 C232 1.358 . S
C231 C233 1.356 . S
C231 H263 0.930 . S
C232 N229 1.279 . S
C232 C231 1.358 . S
C232 H235 0.930 . S
C233 C230 1.348 . S
C233 C231 1.356 . S
H234 C228 0.930 . S
H235 C232 0.930 . S
O236 Li176 1.956 . S
O236 Li177 1.970 . S
O236 Li178 1.961 . S
O236 C180 1.325 . S
O237 Li176 1.970 . S
O237 Li177 1.956 . S
O237 Li179 1.961 . S
O237 C186 1.325 . S
O238 Li176 1.961 . S
O238 Li178 1.956 . S
O238 Li179 1.970 . S
O238 C208 1.325 . S
O239 Li177 1.961 . S
O239 Li178 1.970 . S
O239 Li179 1.956 . S
O239 C214 1.325 . S
H240 C182 0.929 . S
H241 C183 0.930 . S
H242 C184 0.930 . S
H243 C185 0.930 . S
H244 C187 0.930 . S
H245 C189 0.929 . S
H246 C190 0.930 . S
H247 C191 0.930 . S
H248 C194 0.930 . S
H249 C197 0.929 . S
H250 C202 0.929 . S
H251 C203 0.930 . S
H252 C210 0.929 . S
H253 C211 0.930 . S
H254 C212 0.930 . S
H255 C213 0.930 . S
H256 C215 0.929 . S
H257 C216 0.930 . S
H258 C217 0.930 . S
H259 C218 0.930 . S
H260 C222 0.929 . S
H261 C224 0.930 . S
H262 C230 0.929 . S
H263 C231 0.930 . S
Li264 N281 1.990 . S
Li264 O324 1.956 . S
Li264 O325 1.970 . S
Li264 O326 1.961 . S
Li265 N289 1.990 . S
Li265 O324 1.970 . S
Li265 O325 1.956 . S
Li265 O327 1.961 . S
Li266 N311 1.990 . S
Li266 O324 1.961 . S
Li266 O326 1.956 . S
Li266 O327 1.970 . S
Li267 N317 1.990 . S
Li267 O325 1.961 . S
Li267 O326 1.970 . S
Li267 O327 1.956 . S
C268 C270 1.348 . S
C268 C271 1.356 . S
C268 O324 1.325 . S
N269 C272 1.314 . S
N269 C273 1.279 . S
C270 C268 1.348 . S
C270 C272 1.353 . S
C270 H328 0.929 . S
C271 C268 1.356 . S
C271 C273 1.358 . S
C271 H329 0.930 . S
C272 N269 1.314 . S
C272 C270 1.353 . S
C272 H330 0.930 . S
C273 N269 1.279 . S
C273 C271 1.358 . S
C273 H331 0.930 . S
C274 C277 1.348 . S
C274 C278 1.356 . S
C274 O325 1.325 . S
C275 N276 1.279 . S
C275 C278 1.358 . S
C275 H332 0.930 . S
N276 C275 1.279 . S
N276 C279 1.314 . S
C277 C274 1.348 . S
C277 C279 1.353 . S
C277 H333 0.929 . S
C278 C274 1.356 . S
C278 C275 1.358 . S
C278 H334 0.930 . S
C279 N276 1.314 . S
C279 C277 1.353 . S
C279 H335 0.930 . S
C280 N281 1.314 . S
C280 C285 1.353 . S
C280 H286 0.930 . S
N281 Li264 1.990 . S
N281 C280 1.314 . S
N281 C283 1.279 . S
C282 C283 1.358 . S
C282 C284 1.356 . S
C282 H336 0.930 . S
C283 N281 1.279 . S
C283 C282 1.358 . S
C283 H287 0.930 . S
C284 C282 1.356 . S
C284 C285 1.348 . S
C285 C280 1.353 . S
C285 C284 1.348 . S
C285 H337 0.929 . S
H286 C280 0.930 . S
H287 C283 0.930 . S
C288 N289 1.314 . S
C288 C290 1.353 . S
C288 H294 0.930 . S
N289 Li265 1.990 . S
N289 C288 1.314 . S
N289 C292 1.279 . S
C290 C288 1.353 . S
C290 C293 1.348 . S
C290 H338 0.929 . S
C291 C292 1.358 . S
C291 C293 1.356 . S
C291 H339 0.930 . S
C292 N289 1.279 . S
C292 C291 1.358 . S
C292 H295 0.930 . S
C293 C290 1.348 . S
C293 C291 1.356 . S
H294 C288 0.930 . S
H295 C292 0.930 . S
C296 C298 1.348 . S
C296 C299 1.356 . S
C296 O326 1.325 . S
N297 C300 1.314 . S
N297 C301 1.279 . S
C298 C296 1.348 . S
C298 C300 1.353 . S
C298 H340 0.929 . S
C299 C296 1.356 . S
C299 C301 1.358 . S
C299 H341 0.930 . S
C300 N297 1.314 . S
C300 C298 1.353 . S
C300 H342 0.930 . S
C301 N297 1.279 . S
C301 C299 1.358 . S
C301 H343 0.930 . S
C302 C303 1.348 . S
C302 C304 1.356 . S
C302 O327 1.325 . S
C303 C302 1.348 . S
C303 C305 1.353 . S
C303 H344 0.929 . S
C304 C302 1.356 . S
C304 C306 1.358 . S
C304 H345 0.930 . S
C305 C303 1.353 . S
C305 N307 1.314 . S
C305 H346 0.930 . S
C306 C304 1.358 . S
C306 N307 1.279 . S
C306 H347 0.930 . S
N307 C305 1.314 . S
N307 C306 1.279 . S
C308 C310 1.353 1_565 S
C308 N311 1.314 . S
C308 H314 0.930 . S
C309 N311 1.279 . S
C309 C312 1.358 . S
C309 H315 0.930 . S
C310 C308 1.353 1_545 S
C310 C313 1.348 1_545 S
C310 H348 0.929 . S
N311 Li266 1.990 . S
N311 C308 1.314 . S
N311 C309 1.279 . S
C312 C309 1.358 . S
C312 C313 1.356 . S
C312 H349 0.930 . S
C313 C310 1.348 1_565 S
C313 C312 1.356 . S
H314 C308 0.930 . S
H315 C309 0.930 . S
C316 N317 1.314 . S
C316 C318 1.353 . S
C316 H322 0.930 . S
N317 Li267 1.990 . S
N317 C316 1.314 . S
N317 C320 1.279 . S
C318 C316 1.353 . S
C318 C321 1.348 . S
C318 H350 0.929 . S
C319 C320 1.358 . S
C319 C321 1.356 . S
C319 H351 0.930 . S
C320 N317 1.279 . S
C320 C319 1.358 . S
C320 H323 0.930 . S
C321 C318 1.348 . S
C321 C319 1.356 . S
H322 C316 0.930 . S
H323 C320 0.930 . S
O324 Li264 1.956 . S
O324 Li265 1.970 . S
O324 Li266 1.961 . S
O324 C268 1.325 . S
O325 Li264 1.970 . S
O325 Li265 1.956 . S
O325 Li267 1.961 . S
O325 C274 1.325 . S
O326 Li264 1.961 . S
O326 Li266 1.956 . S
O326 Li267 1.970 . S
O326 C296 1.325 . S
O327 Li265 1.961 . S
O327 Li266 1.970 . S
O327 Li267 1.956 . S
O327 C302 1.325 . S
H328 C270 0.929 . S
H329 C271 0.930 . S
H330 C272 0.930 . S
H331 C273 0.930 . S
H332 C275 0.930 . S
H333 C277 0.929 . S
H334 C278 0.930 . S
H335 C279 0.930 . S
H336 C282 0.930 . S
H337 C285 0.929 . S
H338 C290 0.929 . S
H339 C291 0.930 . S
H340 C298 0.929 . S
H341 C299 0.930 . S
H342 C300 0.930 . S
H343 C301 0.930 . S
H344 C303 0.929 . S
H345 C304 0.930 . S
H346 C305 0.930 . S
H347 C306 0.930 . S
H348 C310 0.929 . S
H349 C312 0.930 . S
H350 C318 0.929 . S
H351 C319 0.930 . S
Li352 N369 1.990 . S
Li352 O412 1.956 . S
Li352 O413 1.970 . S
Li352 O414 1.961 . S
Li353 N377 1.990 . S
Li353 O412 1.970 . S
Li353 O413 1.956 . S
Li353 O415 1.961 . S
Li354 N399 1.990 . S
Li354 O412 1.961 . S
Li354 O414 1.956 . S
Li354 O415 1.970 . S
Li355 N405 1.990 . S
Li355 O413 1.961 . S
Li355 O414 1.970 . S
Li355 O415 1.956 . S
C356 C358 1.348 . S
C356 C359 1.356 . S
C356 O412 1.325 . S
N357 C360 1.314 . S
N357 C361 1.279 . S
C358 C356 1.348 . S
C358 C360 1.353 . S
C358 H416 0.929 . S
C359 C356 1.356 . S
C359 C361 1.358 . S
C359 H417 0.930 . S
C360 N357 1.314 . S
C360 C358 1.353 . S
C360 H418 0.930 . S
C361 N357 1.279 . S
C361 C359 1.358 . S
C361 H419 0.930 . S
C362 C365 1.348 . S
C362 C366 1.356 . S
C362 O413 1.325 . S
C363 N364 1.279 . S
C363 C366 1.358 . S
C363 H420 0.930 . S
N364 C363 1.279 . S
N364 C367 1.314 . S
C365 C362 1.348 . S
C365 C367 1.353 . S
C365 H421 0.929 . S
C366 C362 1.356 . S
C366 C363 1.358 . S
C366 H422 0.930 . S
C367 N364 1.314 . S
C367 C365 1.353 . S
C367 H423 0.930 . S
C368 N369 1.314 . S
C368 C373 1.353 . S
C368 H374 0.930 . S
N369 Li352 1.990 . S
N369 C368 1.314 . S
N369 C371 1.279 . S
C370 C371 1.358 . S
C370 C372 1.356 . S
C370 H424 0.930 . S
C371 N369 1.279 . S
C371 C370 1.358 . S
C371 H375 0.930 . S
C372 C370 1.356 . S
C372 C373 1.348 . S
C373 C368 1.353 . S
C373 C372 1.348 . S
C373 H425 0.929 . S
H374 C368 0.930 . S
H375 C371 0.930 . S
C376 N377 1.314 . S
C376 C378 1.353 . S
C376 H382 0.930 . S
N377 Li353 1.990 . S
N377 C376 1.314 . S
N377 C380 1.279 . S
C378 C376 1.353 . S
C378 C381 1.348 . S
C378 H426 0.929 . S
C379 C380 1.358 . S
C379 C381 1.356 . S
C379 H427 0.930 . S
C380 N377 1.279 . S
C380 C379 1.358 . S
C380 H383 0.930 . S
C381 C378 1.348 . S
C381 C379 1.356 . S
H382 C376 0.930 . S
H383 C380 0.930 . S
C384 C386 1.348 . S
C384 C387 1.356 . S
C384 O414 1.325 . S
N385 C388 1.314 . S
N385 C389 1.279 . S
C386 C384 1.348 . S
C386 C388 1.353 . S
C386 H428 0.929 . S
C387 C384 1.356 . S
C387 C389 1.358 . S
C387 H429 0.930 . S
C388 N385 1.314 . S
C388 C386 1.353 . S
C388 H430 0.930 . S
C389 N385 1.279 . S
C389 C387 1.358 . S
C389 H431 0.930 . S
C390 C391 1.348 . S
C390 C392 1.356 . S
C390 O415 1.325 . S
C391 C390 1.348 . S
C391 C393 1.353 . S
C391 H432 0.929 . S
C392 C390 1.356 . S
C392 C394 1.358 . S
C392 H433 0.930 . S
C393 C391 1.353 . S
C393 N395 1.314 . S
C393 H434 0.930 . S
C394 C392 1.358 . S
C394 N395 1.279 . S
C394 H435 0.930 . S
N395 C393 1.314 . S
N395 C394 1.279 . S
C396 C398 1.353 . S
C396 N399 1.314 . S
C396 H402 0.930 . S
C397 N399 1.279 . S
C397 C400 1.358 . S
C397 H403 0.930 . S
C398 C396 1.353 . S
C398 C401 1.348 . S
C398 H436 0.929 . S
N399 Li354 1.990 . S
N399 C396 1.314 . S
N399 C397 1.279 . S
C400 C397 1.358 . S
C400 C401 1.356 . S
C400 H437 0.930 . S
C401 C398 1.348 . S
C401 C400 1.356 . S
H402 C396 0.930 . S
H403 C397 0.930 . S
C404 N405 1.314 . S
C404 C406 1.353 . S
C404 H410 0.930 . S
N405 Li355 1.990 . S
N405 C404 1.314 . S
N405 C408 1.279 . S
C406 C404 1.353 . S
C406 C409 1.348 . S
C406 H438 0.929 . S
C407 C408 1.358 . S
C407 C409 1.356 . S
C407 H439 0.930 . S
C408 N405 1.279 . S
C408 C407 1.358 . S
C408 H411 0.930 . S
C409 C406 1.348 . S
C409 C407 1.356 . S
H410 C404 0.930 . S
H411 C408 0.930 . S
O412 Li352 1.956 . S
O412 Li353 1.970 . S
O412 Li354 1.961 . S
O412 C356 1.325 . S
O413 Li352 1.970 . S
O413 Li353 1.956 . S
O413 Li355 1.961 . S
O413 C362 1.325 . S
O414 Li352 1.961 . S
O414 Li354 1.956 . S
O414 Li355 1.970 . S
O414 C384 1.325 . S
O415 Li353 1.961 . S
O415 Li354 1.970 . S
O415 Li355 1.956 . S
O415 C390 1.325 . S
H416 C358 0.929 . S
H417 C359 0.930 . S
H418 C360 0.930 . S
H419 C361 0.930 . S
H420 C363 0.930 . S
H421 C365 0.929 . S
H422 C366 0.930 . S
H423 C367 0.930 . S
H424 C370 0.930 . S
H425 C373 0.929 . S
H426 C378 0.929 . S
H427 C379 0.930 . S
H428 C386 0.929 . S
H429 C387 0.930 . S
H430 C388 0.930 . S
H431 C389 0.930 . S
H432 C391 0.929 . S
H433 C392 0.930 . S
H434 C393 0.930 . S
H435 C394 0.930 . S
H436 C398 0.929 . S
H437 C400 0.930 . S
H438 C406 0.929 . S
H439 C407 0.930 . S
Li440 N457 1.990 . S
Li440 O500 1.956 . S
Li440 O501 1.970 . S
Li440 O502 1.961 . S
Li441 N465 1.990 . S
Li441 O500 1.970 . S
Li441 O501 1.956 . S
Li441 O503 1.961 . S
Li442 N487 1.990 . S
Li442 O500 1.961 . S
Li442 O502 1.956 . S
Li442 O503 1.970 . S
Li443 N493 1.990 . S
Li443 O501 1.961 . S
Li443 O502 1.970 . S
Li443 O503 1.956 . S
C444 C446 1.348 . S
C444 C447 1.356 . S
C444 O500 1.325 . S
N445 C448 1.314 . S
N445 C449 1.279 . S
C446 C444 1.348 . S
C446 C448 1.353 . S
C446 H504 0.929 . S
C447 C444 1.356 . S
C447 C449 1.358 . S
C447 H505 0.930 . S
C448 N445 1.314 . S
C448 C446 1.353 . S
C448 H506 0.930 . S
C449 N445 1.279 . S
C449 C447 1.358 . S
C449 H507 0.930 . S
C450 C453 1.348 . S
C450 C454 1.356 . S
C450 O501 1.325 . S
C451 N452 1.279 . S
C451 C454 1.358 . S
C451 H508 0.930 . S
N452 C451 1.279 . S
N452 C455 1.314 . S
C453 C450 1.348 . S
C453 C455 1.353 . S
C453 H509 0.929 . S
C454 C450 1.356 . S
C454 C451 1.358 . S
C454 H510 0.930 . S
C455 N452 1.314 . S
C455 C453 1.353 . S
C455 H511 0.930 . S
C456 N457 1.314 . S
C456 C461 1.353 1_455 S
C456 H462 0.930 . S
N457 Li440 1.990 . S
N457 C456 1.314 . S
N457 C459 1.279 . S
C458 C459 1.358 . S
C458 C460 1.356 . S
C458 H512 0.930 . S
C459 N457 1.279 . S
C459 C458 1.358 . S
C459 H463 0.930 . S
C460 C458 1.356 . S
C460 C461 1.348 1_455 S
C461 C456 1.353 1_655 S
C461 C460 1.348 1_655 S
C461 H513 0.929 . S
H462 C456 0.930 . S
H463 C459 0.930 . S
C464 N465 1.314 . S
C464 C466 1.353 . S
C464 H470 0.930 . S
N465 Li441 1.990 . S
N465 C464 1.314 . S
N465 C468 1.279 . S
C466 C464 1.353 . S
C466 C469 1.348 . S
C466 H514 0.929 . S
C467 C468 1.358 . S
C467 C469 1.356 . S
C467 H515 0.930 . S
C468 N465 1.279 . S
C468 C467 1.358 . S
C468 H471 0.930 . S
C469 C466 1.348 . S
C469 C467 1.356 . S
H470 C464 0.930 . S
H471 C468 0.930 . S
C472 C474 1.348 . S
C472 C475 1.356 . S
C472 O502 1.325 . S
N473 C476 1.314 . S
N473 C477 1.279 . S
C474 C472 1.348 . S
C474 C476 1.353 . S
C474 H516 0.929 . S
C475 C472 1.356 . S
C475 C477 1.358 . S
C475 H517 0.930 . S
C476 N473 1.314 . S
C476 C474 1.353 . S
C476 H518 0.930 . S
C477 N473 1.279 . S
C477 C475 1.358 . S
C477 H519 0.930 . S
C478 C479 1.348 . S
C478 C480 1.356 . S
C478 O503 1.325 . S
C479 C478 1.348 . S
C479 C481 1.353 . S
C479 H520 0.929 . S
C480 C478 1.356 . S
C480 C482 1.358 . S
C480 H521 0.930 . S
C481 C479 1.353 . S
C481 N483 1.314 . S
C481 H522 0.930 . S
C482 C480 1.358 . S
C482 N483 1.279 . S
C482 H523 0.930 . S
N483 C481 1.314 . S
N483 C482 1.279 . S
C484 C486 1.353 . S
C484 N487 1.314 . S
C484 H490 0.930 . S
C485 N487 1.279 . S
C485 C488 1.358 . S
C485 H491 0.930 . S
C486 C484 1.353 . S
C486 C489 1.348 . S
C486 H524 0.929 . S
N487 Li442 1.990 . S
N487 C484 1.314 . S
N487 C485 1.279 . S
C488 C485 1.358 . S
C488 C489 1.356 . S
C488 H525 0.930 . S
C489 C486 1.348 . S
C489 C488 1.356 . S
H490 C484 0.930 . S
H491 C485 0.930 . S
C492 N493 1.314 . S
C492 C494 1.353 . S
C492 H498 0.930 . S
N493 Li443 1.990 . S
N493 C492 1.314 . S
N493 C496 1.279 . S
C494 C492 1.353 . S
C494 C497 1.348 . S
C494 H526 0.929 . S
C495 C496 1.358 . S
C495 C497 1.356 . S
C495 H527 0.930 . S
C496 N493 1.279 . S
C496 C495 1.358 . S
C496 H499 0.930 . S
C497 C494 1.348 . S
C497 C495 1.356 . S
H498 C492 0.930 . S
H499 C496 0.930 . S
O500 Li440 1.956 . S
O500 Li441 1.970 . S
O500 Li442 1.961 . S
O500 C444 1.325 . S
O501 Li440 1.970 . S
O501 Li441 1.956 . S
O501 Li443 1.961 . S
O501 C450 1.325 . S
O502 Li440 1.961 . S
O502 Li442 1.956 . S
O502 Li443 1.970 . S
O502 C472 1.325 . S
O503 Li441 1.961 . S
O503 Li442 1.970 . S
O503 Li443 1.956 . S
O503 C478 1.325 . S
H504 C446 0.929 . S
H505 C447 0.930 . S
H506 C448 0.930 . S
H507 C449 0.930 . S
H508 C451 0.930 . S
H509 C453 0.929 . S
H510 C454 0.930 . S
H511 C455 0.930 . S
H512 C458 0.930 . S
H513 C461 0.929 . S
H514 C466 0.929 . S
H515 C467 0.930 . S
H516 C474 0.929 . S
H517 C475 0.930 . S
H518 C476 0.930 . S
H519 C477 0.930 . S
H520 C479 0.929 . S
H521 C480 0.930 . S
H522 C481 0.930 . S
H523 C482 0.930 . S
H524 C486 0.929 . S
H525 C488 0.930 . S
H526 C494 0.929 . S
H527 C495 0.930 . S
Li528 N545 1.990 . S
Li528 O588 1.956 . S
Li528 O589 1.970 . S
Li528 O590 1.961 . S
Li529 N553 1.990 . S
Li529 O588 1.970 . S
Li529 O589 1.956 . S
Li529 O591 1.961 . S
Li530 N575 1.990 . S
Li530 O588 1.961 . S
Li530 O590 1.956 . S
Li530 O591 1.970 . S
Li531 N581 1.990 . S
Li531 O589 1.961 . S
Li531 O590 1.970 . S
Li531 O591 1.956 . S
C532 C534 1.348 . S
C532 C535 1.356 . S
C532 O588 1.325 . S
N533 C536 1.314 . S
N533 C537 1.279 . S
C534 C532 1.348 . S
C534 C536 1.353 . S
C534 H592 0.929 . S
C535 C532 1.356 . S
C535 C537 1.358 . S
C535 H593 0.930 . S
C536 N533 1.314 . S
C536 C534 1.353 . S
C536 H594 0.930 . S
C537 N533 1.279 . S
C537 C535 1.358 . S
C537 H595 0.930 . S
C538 C541 1.348 . S
C538 C542 1.356 . S
C538 O589 1.325 . S
C539 N540 1.279 . S
C539 C542 1.358 . S
C539 H596 0.930 . S
N540 C539 1.279 . S
N540 C543 1.314 . S
C541 C538 1.348 . S
C541 C543 1.353 . S
C541 H597 0.929 . S
C542 C538 1.356 . S
C542 C539 1.358 . S
C542 H598 0.930 . S
C543 N540 1.314 . S
C543 C541 1.353 . S
C543 H599 0.930 . S
C544 N545 1.314 . S
C544 C549 1.353 . S
C544 H550 0.930 . S
N545 Li528 1.990 . S
N545 C544 1.314 . S
N545 C547 1.279 . S
C546 C547 1.358 . S
C546 C548 1.356 . S
C546 H600 0.930 . S
C547 N545 1.279 . S
C547 C546 1.358 . S
C547 H551 0.930 . S
C548 C546 1.356 . S
C548 C549 1.348 . S
C549 C544 1.353 . S
C549 C548 1.348 . S
C549 H601 0.929 . S
H550 C544 0.930 . S
H551 C547 0.930 . S
C552 N553 1.314 . S
C552 C554 1.353 1_655 S
C552 H558 0.930 . S
N553 Li529 1.990 . S
N553 C552 1.314 . S
N553 C556 1.279 . S
C554 C552 1.353 1_455 S
C554 C557 1.348 1_455 S
C554 H602 0.929 . S
C555 C556 1.358 . S
C555 C557 1.356 . S
C555 H603 0.930 . S
C556 N553 1.279 . S
C556 C555 1.358 . S
C556 H559 0.930 . S
C557 C554 1.348 1_655 S
C557 C555 1.356 . S
H558 C552 0.930 . S
H559 C556 0.930 . S
C560 C562 1.348 . S
C560 C563 1.356 . S
C560 O590 1.325 . S
N561 C564 1.314 . S
N561 C565 1.279 . S
C562 C560 1.348 . S
C562 C564 1.353 . S
C562 H604 0.929 . S
C563 C560 1.356 . S
C563 C565 1.358 . S
C563 H605 0.930 . S
C564 N561 1.314 . S
C564 C562 1.353 . S
C564 H606 0.930 . S
C565 N561 1.279 . S
C565 C563 1.358 . S
C565 H607 0.930 . S
C566 C567 1.348 . S
C566 C568 1.356 . S
C566 O591 1.325 . S
C567 C566 1.348 . S
C567 C569 1.353 . S
C567 H608 0.929 . S
C568 C566 1.356 . S
C568 C570 1.358 . S
C568 H609 0.930 . S
C569 C567 1.353 . S
C569 N571 1.314 . S
C569 H610 0.930 . S
C570 C568 1.358 . S
C570 N571 1.279 . S
C570 H611 0.930 . S
N571 C569 1.314 . S
N571 C570 1.279 . S
C572 C574 1.353 . S
C572 N575 1.314 . S
C572 H578 0.930 . S
C573 N575 1.279 . S
C573 C576 1.358 . S
C573 H579 0.930 . S
C574 C572 1.353 . S
C574 C577 1.348 . S
C574 H612 0.929 . S
N575 Li530 1.990 . S
N575 C572 1.314 . S
N575 C573 1.279 . S
C576 C573 1.358 . S
C576 C577 1.356 . S
C576 H613 0.930 . S
C577 C574 1.348 . S
C577 C576 1.356 . S
H578 C572 0.930 . S
H579 C573 0.930 . S
C580 N581 1.314 . S
C580 C582 1.353 . S
C580 H586 0.930 . S
N581 Li531 1.990 . S
N581 C580 1.314 . S
N581 C584 1.279 . S
C582 C580 1.353 . S
C582 C585 1.348 . S
C582 H614 0.929 . S
C583 C584 1.358 . S
C583 C585 1.356 . S
C583 H615 0.930 . S
C584 N581 1.279 . S
C584 C583 1.358 . S
C584 H587 0.930 . S
C585 C582 1.348 . S
C585 C583 1.356 . S
H586 C580 0.930 . S
H587 C584 0.930 . S
O588 Li528 1.956 . S
O588 Li529 1.970 . S
O588 Li530 1.961 . S
O588 C532 1.325 . S
O589 Li528 1.970 . S
O589 Li529 1.956 . S
O589 Li531 1.961 . S
O589 C538 1.325 . S
O590 Li528 1.961 . S
O590 Li530 1.956 . S
O590 Li531 1.970 . S
O590 C560 1.325 . S
O591 Li529 1.961 . S
O591 Li530 1.970 . S
O591 Li531 1.956 . S
O591 C566 1.325 . S
H592 C534 0.929 . S
H593 C535 0.930 . S
H594 C536 0.930 . S
H595 C537 0.930 . S
H596 C539 0.930 . S
H597 C541 0.929 . S
H598 C542 0.930 . S
H599 C543 0.930 . S
H600 C546 0.930 . S
H601 C549 0.929 . S
H602 C554 0.929 . S
H603 C555 0.930 . S
H604 C562 0.929 . S
H605 C563 0.930 . S
H606 C564 0.930 . S
H607 C565 0.930 . S
H608 C567 0.929 . S
H609 C568 0.930 . S
H610 C569 0.930 . S
H611 C570 0.930 . S
H612 C574 0.929 . S
H613 C576 0.930 . S
H614 C582 0.929 . S
H615 C583 0.930 . S
Li616 N633 1.990 . S
Li616 O676 1.956 . S
Li616 O677 1.970 . S
Li616 O678 1.961 . S
Li617 N641 1.990 . S
Li617 O676 1.970 . S
Li617 O677 1.956 . S
Li617 O679 1.961 . S
Li618 N663 1.990 . S
Li618 O676 1.961 . S
Li618 O678 1.956 . S
Li618 O679 1.970 . S
Li619 N669 1.990 . S
Li619 O677 1.961 . S
Li619 O678 1.970 . S
Li619 O679 1.956 . S
C620 C622 1.348 . S
C620 C623 1.356 . S
C620 O676 1.325 . S
N621 C624 1.314 . S
N621 C625 1.279 . S
C622 C620 1.348 . S
C622 C624 1.353 . S
C622 H680 0.929 . S
C623 C620 1.356 . S
C623 C625 1.358 . S
C623 H681 0.930 . S
C624 N621 1.314 . S
C624 C622 1.353 . S
C624 H682 0.930 . S
C625 N621 1.279 . S
C625 C623 1.358 . S
C625 H683 0.930 . S
C626 C629 1.348 . S
C626 C630 1.356 . S
C626 O677 1.325 . S
C627 N628 1.279 . S
C627 C630 1.358 . S
C627 H684 0.930 . S
N628 C627 1.279 . S
N628 C631 1.314 . S
C629 C626 1.348 . S
C629 C631 1.353 . S
C629 H685 0.929 . S
C630 C626 1.356 . S
C630 C627 1.358 . S
C630 H686 0.930 . S
C631 N628 1.314 . S
C631 C629 1.353 . S
C631 H687 0.930 . S
C632 N633 1.314 . S
C632 C637 1.353 . S
C632 H638 0.930 . S
N633 Li616 1.990 . S
N633 C632 1.314 . S
N633 C635 1.279 . S
C634 C635 1.358 . S
C634 C636 1.356 . S
C634 H688 0.930 . S
C635 N633 1.279 . S
C635 C634 1.358 . S
C635 H639 0.930 . S
C636 C634 1.356 . S
C636 C637 1.348 . S
C637 C632 1.353 . S
C637 C636 1.348 . S
C637 H689 0.929 . S
H638 C632 0.930 . S
H639 C635 0.930 . S
C640 N641 1.314 . S
C640 C642 1.353 . S
C640 H646 0.930 . S
N641 Li617 1.990 . S
N641 C640 1.314 . S
N641 C644 1.279 . S
C642 C640 1.353 . S
C642 C645 1.348 . S
C642 H690 0.929 . S
C643 C644 1.358 . S
C643 C645 1.356 . S
C643 H691 0.930 . S
C644 N641 1.279 . S
C644 C643 1.358 . S
C644 H647 0.930 . S
C645 C642 1.348 . S
C645 C643 1.356 . S
H646 C640 0.930 . S
H647 C644 0.930 . S
C648 C650 1.348 . S
C648 C651 1.356 . S
C648 O678 1.325 . S
N649 C652 1.314 . S
N649 C653 1.279 . S
C650 C648 1.348 . S
C650 C652 1.353 . S
C650 H692 0.929 . S
C651 C648 1.356 . S
C651 C653 1.358 . S
C651 H693 0.930 . S
C652 N649 1.314 . S
C652 C650 1.353 . S
C652 H694 0.930 . S
C653 N649 1.279 . S
C653 C651 1.358 . S
C653 H695 0.930 . S
C654 C655 1.348 . S
C654 C656 1.356 . S
C654 O679 1.325 . S
C655 C654 1.348 . S
C655 C657 1.353 . S
C655 H696 0.929 . S
C656 C654 1.356 . S
C656 C658 1.358 . S
C656 H697 0.930 . S
C657 C655 1.353 . S
C657 N659 1.314 . S
C657 H698 0.930 . S
C658 C656 1.358 . S
C658 N659 1.279 . S
C658 H699 0.930 . S
N659 C657 1.314 . S
N659 C658 1.279 . S
C660 C662 1.353 . S
C660 N663 1.314 . S
C660 H666 0.930 . S
C661 N663 1.279 . S
C661 C664 1.358 . S
C661 H667 0.930 . S
C662 C660 1.353 . S
C662 C665 1.348 . S
C662 H700 0.929 . S
N663 Li618 1.990 . S
N663 C660 1.314 . S
N663 C661 1.279 . S
C664 C661 1.358 . S
C664 C665 1.356 . S
C664 H701 0.930 . S
C665 C662 1.348 . S
C665 C664 1.356 . S
H666 C660 0.930 . S
H667 C661 0.930 . S
C668 N669 1.314 . S
C668 C670 1.353 1_565 S
C668 H674 0.930 . S
N669 Li619 1.990 . S
N669 C668 1.314 . S
N669 C672 1.279 . S
C670 C668 1.353 1_545 S
C670 C673 1.348 1_545 S
C670 H702 0.929 . S
C671 C672 1.358 . S
C671 C673 1.356 . S
C671 H703 0.930 . S
C672 N669 1.279 . S
C672 C671 1.358 . S
C672 H675 0.930 . S
C673 C670 1.348 1_565 S
C673 C671 1.356 . S
H674 C668 0.930 . S
H675 C672 0.930 . S
O676 Li616 1.956 . S
O676 Li617 1.970 . S
O676 Li618 1.961 . S
O676 C620 1.325 . S
O677 Li616 1.970 . S
O677 Li617 1.956 . S
O677 Li619 1.961 . S
O677 C626 1.325 . S
O678 Li616 1.961 . S
O678 Li618 1.956 . S
O678 Li619 1.970 . S
O678 C648 1.325 . S
O679 Li617 1.961 . S
O679 Li618 1.970 . S
O679 Li619 1.956 . S
O679 C654 1.325 . S
H680 C622 0.929 . S
H681 C623 0.930 . S
H682 C624 0.930 . S
H683 C625 0.930 . S
H684 C627 0.930 . S
H685 C629 0.929 . S
H686 C630 0.930 . S
H687 C631 0.930 . S
H688 C634 0.930 . S
H689 C637 0.929 . S
H690 C642 0.929 . S
H691 C643 0.930 . S
H692 C650 0.929 . S
H693 C651 0.930 . S
H694 C652 0.930 . S
H695 C653 0.930 . S
H696 C655 0.929 . S
H697 C656 0.930 . S
H698 C657 0.930 . S
H699 C658 0.930 . S
H700 C662 0.929 . S
H701 C664 0.930 . S
H702 C670 0.929 . S
H703 C671 0.930 . S
Li704 N721 1.990 . S
Li704 O764 1.956 . S
Li704 O765 1.970 . S
Li704 O766 1.961 . S
Li705 N729 1.990 . S
Li705 O764 1.970 . S
Li705 O765 1.956 . S
Li705 O767 1.961 . S
Li706 N751 1.990 . S
Li706 O764 1.961 . S
Li706 O766 1.956 . S
Li706 O767 1.970 . S
Li707 N757 1.990 . S
Li707 O765 1.961 . S
Li707 O766 1.970 . S
Li707 O767 1.956 . S
C708 C710 1.348 . S
C708 C711 1.356 . S
C708 O764 1.325 . S
N709 C712 1.314 . S
N709 C713 1.279 . S
C710 C708 1.348 . S
C710 C712 1.353 . S
C710 H768 0.929 . S
C711 C708 1.356 . S
C711 C713 1.358 . S
C711 H769 0.930 . S
C712 N709 1.314 . S
C712 C710 1.353 . S
C712 H770 0.930 . S
C713 N709 1.279 . S
C713 C711 1.358 . S
C713 H771 0.930 . S
C714 C717 1.348 . S
C714 C718 1.356 . S
C714 O765 1.325 . S
C715 N716 1.279 . S
C715 C718 1.358 . S
C715 H772 0.930 . S
N716 C715 1.279 . S
N716 C719 1.314 . S
C717 C714 1.348 . S
C717 C719 1.353 . S
C717 H773 0.929 . S
C718 C714 1.356 . S
C718 C715 1.358 . S
C718 H774 0.930 . S
C719 N716 1.314 . S
C719 C717 1.353 . S
C719 H775 0.930 . S
C720 N721 1.314 . S
C720 C725 1.353 . S
C720 H726 0.930 . S
N721 Li704 1.990 . S
N721 C720 1.314 . S
N721 C723 1.279 . S
C722 C723 1.358 . S
C722 C724 1.356 . S
C722 H776 0.930 . S
C723 N721 1.279 . S
C723 C722 1.358 . S
C723 H727 0.930 . S
C724 C722 1.356 . S
C724 C725 1.348 . S
C725 C720 1.353 . S
C725 C724 1.348 . S
C725 H777 0.929 . S
H726 C720 0.930 . S
H727 C723 0.930 . S
C728 N729 1.314 . S
C728 C730 1.353 . S
C728 H734 0.930 . S
N729 Li705 1.990 . S
N729 C728 1.314 . S
N729 C732 1.279 . S
C730 C728 1.353 . S
C730 C733 1.348 . S
C730 H778 0.929 . S
C731 C732 1.358 . S
C731 C733 1.356 . S
C731 H779 0.930 . S
C732 N729 1.279 . S
C732 C731 1.358 . S
C732 H735 0.930 . S
C733 C730 1.348 . S
C733 C731 1.356 . S
H734 C728 0.930 . S
H735 C732 0.930 . S
C736 C738 1.348 . S
C736 C739 1.356 . S
C736 O766 1.325 . S
N737 C740 1.314 . S
N737 C741 1.279 . S
C738 C736 1.348 . S
C738 C740 1.353 . S
C738 H780 0.929 . S
C739 C736 1.356 . S
C739 C741 1.358 . S
C739 H781 0.930 . S
C740 N737 1.314 . S
C740 C738 1.353 . S
C740 H782 0.930 . S
C741 N737 1.279 . S
C741 C739 1.358 . S
C741 H783 0.930 . S
C742 C743 1.348 . S
C742 C744 1.356 . S
C742 O767 1.325 . S
C743 C742 1.348 . S
C743 C745 1.353 . S
C743 H784 0.929 . S
C744 C742 1.356 . S
C744 C746 1.358 . S
C744 H785 0.930 . S
C745 C743 1.353 . S
C745 N747 1.314 . S
C745 H786 0.930 . S
C746 C744 1.358 . S
C746 N747 1.279 . S
C746 H787 0.930 . S
N747 C745 1.314 . S
N747 C746 1.279 . S
C748 C750 1.353 . S
C748 N751 1.314 . S
C748 H754 0.930 . S
C749 N751 1.279 . S
C749 C752 1.358 . S
C749 H755 0.930 . S
C750 C748 1.353 . S
C750 C753 1.348 . S
C750 H788 0.929 . S
N751 Li706 1.990 . S
N751 C748 1.314 . S
N751 C749 1.279 . S
C752 C749 1.358 . S
C752 C753 1.356 . S
C752 H789 0.930 . S
C753 C750 1.348 . S
C753 C752 1.356 . S
H754 C748 0.930 . S
H755 C749 0.930 . S
C756 N757 1.314 . S
C756 C758 1.353 . S
C756 H762 0.930 . S
N757 Li707 1.990 . S
N757 C756 1.314 . S
N757 C760 1.279 . S
C758 C756 1.353 . S
C758 C761 1.348 . S
C758 H790 0.929 . S
C759 C760 1.358 . S
C759 C761 1.356 . S
C759 H791 0.930 . S
C760 N757 1.279 . S
C760 C759 1.358 . S
C760 H763 0.930 . S
C761 C758 1.348 . S
C761 C759 1.356 . S
H762 C756 0.930 . S
H763 C760 0.930 . S
O764 Li704 1.956 . S
O764 Li705 1.970 . S
O764 Li706 1.961 . S
O764 C708 1.325 . S
O765 Li704 1.970 . S
O765 Li705 1.956 . S
O765 Li707 1.961 . S
O765 C714 1.325 . S
O766 Li704 1.961 . S
O766 Li706 1.956 . S
O766 Li707 1.970 . S
O766 C736 1.325 . S
O767 Li705 1.961 . S
O767 Li706 1.970 . S
O767 Li707 1.956 . S
O767 C742 1.325 . S
H768 C710 0.929 . S
H769 C711 0.930 . S
H770 C712 0.930 . S
H771 C713 0.930 . S
H772 C715 0.930 . S
H773 C717 0.929 . S
H774 C718 0.930 . S
H775 C719 0.930 . S
H776 C722 0.930 . S
H777 C725 0.929 . S
H778 C730 0.929 . S
H779 C731 0.930 . S
H780 C738 0.929 . S
H781 C739 0.930 . S
H782 C740 0.930 . S
H783 C741 0.930 . S
H784 C743 0.929 . S
H785 C744 0.930 . S
H786 C745 0.930 . S
H787 C746 0.930 . S
H788 C750 0.929 . S
H789 C752 0.930 . S
H790 C758 0.929 . S
H791 C759 0.930 . S
Li792 N809 1.990 . S
Li792 O852 1.956 . S
Li792 O853 1.970 . S
Li792 O854 1.961 . S
Li793 N817 1.990 . S
Li793 O852 1.970 . S
Li793 O853 1.956 . S
Li793 O855 1.961 . S
Li794 N839 1.990 . S
Li794 O852 1.961 . S
Li794 O854 1.956 . S
Li794 O855 1.970 . S
Li795 N845 1.990 . S
Li795 O853 1.961 . S
Li795 O854 1.970 . S
Li795 O855 1.956 . S
C796 C798 1.348 . S
C796 C799 1.356 . S
C796 O852 1.325 . S
N797 C800 1.314 . S
N797 C801 1.279 . S
C798 C796 1.348 . S
C798 C800 1.353 . S
C798 H856 0.929 . S
C799 C796 1.356 . S
C799 C801 1.358 . S
C799 H857 0.930 . S
C800 N797 1.314 . S
C800 C798 1.353 . S
C800 H858 0.930 . S
C801 N797 1.279 . S
C801 C799 1.358 . S
C801 H859 0.930 . S
C802 C805 1.348 . S
C802 C806 1.356 . S
C802 O853 1.325 . S
C803 N804 1.279 . S
C803 C806 1.358 . S
C803 H860 0.930 . S
N804 C803 1.279 . S
N804 C807 1.314 . S
C805 C802 1.348 . S
C805 C807 1.353 . S
C805 H861 0.929 . S
C806 C802 1.356 . S
C806 C803 1.358 . S
C806 H862 0.930 . S
C807 N804 1.314 . S
C807 C805 1.353 . S
C807 H863 0.930 . S
C808 N809 1.314 . S
C808 C813 1.353 . S
C808 H814 0.930 . S
N809 Li792 1.990 . S
N809 C808 1.314 . S
N809 C811 1.279 . S
C810 C811 1.358 . S
C810 C812 1.356 . S
C810 H864 0.930 . S
C811 N809 1.279 . S
C811 C810 1.358 . S
C811 H815 0.930 . S
C812 C810 1.356 . S
C812 C813 1.348 . S
C813 C808 1.353 . S
C813 C812 1.348 . S
C813 H865 0.929 . S
H814 C808 0.930 . S
H815 C811 0.930 . S
C816 N817 1.314 . S
C816 C818 1.353 . S
C816 H822 0.930 . S
N817 Li793 1.990 . S
N817 C816 1.314 . S
N817 C820 1.279 . S
C818 C816 1.353 . S
C818 C821 1.348 . S
C818 H866 0.929 . S
C819 C820 1.358 . S
C819 C821 1.356 . S
C819 H867 0.930 . S
C820 N817 1.279 . S
C820 C819 1.358 . S
C820 H823 0.930 . S
C821 C818 1.348 . S
C821 C819 1.356 . S
H822 C816 0.930 . S
H823 C820 0.930 . S
C824 C826 1.348 . S
C824 C827 1.356 . S
C824 O854 1.325 . S
N825 C828 1.314 . S
N825 C829 1.279 . S
C826 C824 1.348 . S
C826 C828 1.353 . S
C826 H868 0.929 . S
C827 C824 1.356 . S
C827 C829 1.358 . S
C827 H869 0.930 . S
C828 N825 1.314 . S
C828 C826 1.353 . S
C828 H870 0.930 . S
C829 N825 1.279 . S
C829 C827 1.358 . S
C829 H871 0.930 . S
C830 C831 1.348 . S
C830 C832 1.356 . S
C830 O855 1.325 . S
C831 C830 1.348 . S
C831 C833 1.353 . S
C831 H872 0.929 . S
C832 C830 1.356 . S
C832 C834 1.358 . S
C832 H873 0.930 . S
C833 C831 1.353 . S
C833 N835 1.314 . S
C833 H874 0.930 . S
C834 C832 1.358 . S
C834 N835 1.279 . S
C834 H875 0.930 . S
N835 C833 1.314 . S
N835 C834 1.279 . S
C836 C838 1.353 . S
C836 N839 1.314 . S
C836 H842 0.930 . S
C837 N839 1.279 . S
C837 C840 1.358 . S
C837 H843 0.930 . S
C838 C836 1.353 . S
C838 C841 1.348 . S
C838 H876 0.929 . S
N839 Li794 1.990 . S
N839 C836 1.314 . S
N839 C837 1.279 . S
C840 C837 1.358 . S
C840 C841 1.356 . S
C840 H877 0.930 . S
C841 C838 1.348 . S
C841 C840 1.356 . S
H842 C836 0.930 . S
H843 C837 0.930 . S
C844 N845 1.314 . S
C844 C846 1.353 1_455 S
C844 H850 0.930 . S
N845 Li795 1.990 . S
N845 C844 1.314 . S
N845 C848 1.279 . S
C846 C844 1.353 1_655 S
C846 C849 1.348 1_655 S
C846 H878 0.929 . S
C847 C848 1.358 . S
C847 C849 1.356 . S
C847 H879 0.930 . S
C848 N845 1.279 . S
C848 C847 1.358 . S
C848 H851 0.930 . S
C849 C846 1.348 1_455 S
C849 C847 1.356 . S
H850 C844 0.930 . S
H851 C848 0.930 . S
O852 Li792 1.956 . S
O852 Li793 1.970 . S
O852 Li794 1.961 . S
O852 C796 1.325 . S
O853 Li792 1.970 . S
O853 Li793 1.956 . S
O853 Li795 1.961 . S
O853 C802 1.325 . S
O854 Li792 1.961 . S
O854 Li794 1.956 . S
O854 Li795 1.970 . S
O854 C824 1.325 . S
O855 Li793 1.961 . S
O855 Li794 1.970 . S
O855 Li795 1.956 . S
O855 C830 1.325 . S
H856 C798 0.929 . S
H857 C799 0.930 . S
H858 C800 0.930 . S
H859 C801 0.930 . S
H860 C803 0.930 . S
H861 C805 0.929 . S
H862 C806 0.930 . S
H863 C807 0.930 . S
H864 C810 0.930 . S
H865 C813 0.929 . S
H866 C818 0.929 . S
H867 C819 0.930 . S
H868 C826 0.929 . S
H869 C827 0.930 . S
H870 C828 0.930 . S
H871 C829 0.930 . S
H872 C831 0.929 . S
H873 C832 0.930 . S
H874 C833 0.930 . S
H875 C834 0.930 . S
H876 C838 0.929 . S
H877 C840 0.930 . S
H878 C846 0.929 . S
H879 C847 0.930 . S
Li880 N897 1.990 . S
Li880 O940 1.956 . S
Li880 O941 1.970 . S
Li880 O942 1.961 . S
Li881 N905 1.990 . S
Li881 O940 1.970 . S
Li881 O941 1.956 . S
Li881 O943 1.961 . S
Li882 N927 1.990 . S
Li882 O940 1.961 . S
Li882 O942 1.956 . S
Li882 O943 1.970 . S
Li883 N933 1.990 . S
Li883 O941 1.961 . S
Li883 O942 1.970 . S
Li883 O943 1.956 . S
C884 C886 1.348 . S
C884 C887 1.356 . S
C884 O940 1.325 . S
N885 C888 1.314 . S
N885 C889 1.279 . S
C886 C884 1.348 . S
C886 C888 1.353 . S
C886 H944 0.929 . S
C887 C884 1.356 . S
C887 C889 1.358 . S
C887 H945 0.930 . S
C888 N885 1.314 . S
C888 C886 1.353 . S
C888 H946 0.930 . S
C889 N885 1.279 . S
C889 C887 1.358 . S
C889 H947 0.930 . S
C890 C893 1.348 . S
C890 C894 1.356 . S
C890 O941 1.325 . S
C891 N892 1.279 . S
C891 C894 1.358 . S
C891 H948 0.930 . S
N892 C891 1.279 . S
N892 C895 1.314 . S
C893 C890 1.348 . S
C893 C895 1.353 . S
C893 H949 0.929 . S
C894 C890 1.356 . S
C894 C891 1.358 . S
C894 H950 0.930 . S
C895 N892 1.314 . S
C895 C893 1.353 . S
C895 H951 0.930 . S
C896 N897 1.314 . S
C896 C901 1.353 . S
C896 H902 0.930 . S
N897 Li880 1.990 . S
N897 C896 1.314 . S
N897 C899 1.279 . S
C898 C899 1.358 . S
C898 C900 1.356 . S
C898 H952 0.930 . S
C899 N897 1.279 . S
C899 C898 1.358 . S
C899 H903 0.930 . S
C900 C898 1.356 . S
C900 C901 1.348 . S
C901 C896 1.353 . S
C901 C900 1.348 . S
C901 H953 0.929 . S
H902 C896 0.930 . S
H903 C899 0.930 . S
C904 N905 1.314 . S
C904 C906 1.353 1_545 S
C904 H910 0.930 . S
N905 Li881 1.990 . S
N905 C904 1.314 . S
N905 C908 1.279 . S
C906 C904 1.353 1_565 S
C906 C909 1.348 1_565 S
C906 H954 0.929 . S
C907 C908 1.358 . S
C907 C909 1.356 . S
C907 H955 0.930 . S
C908 N905 1.279 . S
C908 C907 1.358 . S
C908 H911 0.930 . S
C909 C906 1.348 1_545 S
C909 C907 1.356 . S
H910 C904 0.930 . S
H911 C908 0.930 . S
C912 C914 1.348 . S
C912 C915 1.356 . S
C912 O942 1.325 . S
N913 C916 1.314 . S
N913 C917 1.279 . S
C914 C912 1.348 . S
C914 C916 1.353 . S
C914 H956 0.929 . S
C915 C912 1.356 . S
C915 C917 1.358 . S
C915 H957 0.930 . S
C916 N913 1.314 . S
C916 C914 1.353 . S
C916 H958 0.930 . S
C917 N913 1.279 . S
C917 C915 1.358 . S
C917 H959 0.930 . S
C918 C919 1.348 . S
C918 C920 1.356 . S
C918 O943 1.325 . S
C919 C918 1.348 . S
C919 C921 1.353 . S
C919 H960 0.929 . S
C920 C918 1.356 . S
C920 C922 1.358 . S
C920 H961 0.930 . S
C921 C919 1.353 . S
C921 N923 1.314 . S
C921 H962 0.930 . S
C922 C920 1.358 . S
C922 N923 1.279 . S
C922 H963 0.930 . S
N923 C921 1.314 . S
N923 C922 1.279 . S
C924 C926 1.353 . S
C924 N927 1.314 . S
C924 H930 0.930 . S
C925 N927 1.279 . S
C925 C928 1.358 . S
C925 H931 0.930 . S
C926 C924 1.353 . S
C926 C929 1.348 . S
C926 H964 0.929 . S
N927 Li882 1.990 . S
N927 C924 1.314 . S
N927 C925 1.279 . S
C928 C925 1.358 . S
C928 C929 1.356 . S
C928 H965 0.930 . S
C929 C926 1.348 . S
C929 C928 1.356 . S
H930 C924 0.930 . S
H931 C925 0.930 . S
C932 N933 1.314 . S
C932 C934 1.353 . S
C932 H938 0.930 . S
N933 Li883 1.990 . S
N933 C932 1.314 . S
N933 C936 1.279 . S
C934 C932 1.353 . S
C934 C937 1.348 . S
C934 H966 0.929 . S
C935 C936 1.358 . S
C935 C937 1.356 . S
C935 H967 0.930 . S
C936 N933 1.279 . S
C936 C935 1.358 . S
C936 H939 0.930 . S
C937 C934 1.348 . S
C937 C935 1.356 . S
H938 C932 0.930 . S
H939 C936 0.930 . S
O940 Li880 1.956 . S
O940 Li881 1.970 . S
O940 Li882 1.961 . S
O940 C884 1.325 . S
O941 Li880 1.970 . S
O941 Li881 1.956 . S
O941 Li883 1.961 . S
O941 C890 1.325 . S
O942 Li880 1.961 . S
O942 Li882 1.956 . S
O942 Li883 1.970 . S
O942 C912 1.325 . S
O943 Li881 1.961 . S
O943 Li882 1.970 . S
O943 Li883 1.956 . S
O943 C918 1.325 . S
H944 C886 0.929 . S
H945 C887 0.930 . S
H946 C888 0.930 . S
H947 C889 0.930 . S
H948 C891 0.930 . S
H949 C893 0.929 . S
H950 C894 0.930 . S
H951 C895 0.930 . S
H952 C898 0.930 . S
H953 C901 0.929 . S
H954 C906 0.929 . S
H955 C907 0.930 . S
H956 C914 0.929 . S
H957 C915 0.930 . S
H958 C916 0.930 . S
H959 C917 0.930 . S
H960 C919 0.929 . S
H961 C920 0.930 . S
H962 C921 0.930 . S
H963 C922 0.930 . S
H964 C926 0.929 . S
H965 C928 0.930 . S
H966 C934 0.929 . S
H967 C935 0.930 . S
Li968 N985 1.990 . S
Li968 O1028 1.956 . S
Li968 O1029 1.970 . S
Li968 O1030 1.961 . S
Li969 N993 1.990 . S
Li969 O1028 1.970 . S
Li969 O1029 1.956 . S
Li969 O1031 1.961 . S
Li970 N1015 1.990 . S
Li970 O1028 1.961 . S
Li970 O1030 1.956 . S
Li970 O1031 1.970 . S
Li971 N1021 1.990 . S
Li971 O1029 1.961 . S
Li971 O1030 1.970 . S
Li971 O1031 1.956 . S
C972 C974 1.348 . S
C972 C975 1.356 . S
C972 O1028 1.325 . S
N973 C976 1.314 . S
N973 C977 1.279 . S
C974 C972 1.348 . S
C974 C976 1.353 . S
C974 H1032 0.929 . S
C975 C972 1.356 . S
C975 C977 1.358 . S
C975 H1033 0.930 . S
C976 N973 1.314 . S
C976 C974 1.353 . S
C976 H1034 0.930 . S
C977 N973 1.279 . S
C977 C975 1.358 . S
C977 H1035 0.930 . S
C978 C981 1.348 . S
C978 C982 1.356 . S
C978 O1029 1.325 . S
C979 N980 1.279 . S
C979 C982 1.358 . S
C979 H1036 0.930 . S
N980 C979 1.279 . S
N980 C983 1.314 . S
C981 C978 1.348 . S
C981 C983 1.353 . S
C981 H1037 0.929 . S
C982 C978 1.356 . S
C982 C979 1.358 . S
C982 H1038 0.930 . S
C983 N980 1.314 . S
C983 C981 1.353 . S
C983 H1039 0.930 . S
C984 N985 1.314 . S
C984 C989 1.353 . S
C984 H990 0.930 . S
N985 Li968 1.990 . S
N985 C984 1.314 . S
N985 C987 1.279 . S
C986 C987 1.358 . S
C986 C988 1.356 . S
C986 H1040 0.930 . S
C987 N985 1.279 . S
C987 C986 1.358 . S
C987 H991 0.930 . S
C988 C986 1.356 . S
C988 C989 1.348 . S
C989 C984 1.353 . S
C989 C988 1.348 . S
C989 H1041 0.929 . S
H990 C984 0.930 . S
H991 C987 0.930 . S
C992 N993 1.314 . S
C992 C994 1.353 . S
C992 H998 0.930 . S
N993 Li969 1.990 . S
N993 C992 1.314 . S
N993 C996 1.279 . S
C994 C992 1.353 . S
C994 C997 1.348 . S
C994 H1042 0.929 . S
C995 C996 1.358 . S
C995 C997 1.356 . S
C995 H1043 0.930 . S
C996 N993 1.279 . S
C996 C995 1.358 . S
C996 H999 0.930 . S
C997 C994 1.348 . S
C997 C995 1.356 . S
H998 C992 0.930 . S
H999 C996 0.930 . S
C1000 C1002 1.348 . S
C1000 C1003 1.356 . S
C1000 O1030 1.325 . S
N1001 C1004 1.314 . S
N1001 C1005 1.279 . S
C1002 C1000 1.348 . S
C1002 C1004 1.353 . S
C1002 H1044 0.929 . S
C1003 C1000 1.356 . S
C1003 C1005 1.358 . S
C1003 H1045 0.930 . S
C1004 N1001 1.314 . S
C1004 C1002 1.353 . S
C1004 H1046 0.930 . S
C1005 N1001 1.279 . S
C1005 C1003 1.358 . S
C1005 H1047 0.930 . S
C1006 C1007 1.348 . S
C1006 C1008 1.356 . S
C1006 O1031 1.325 . S
C1007 C1006 1.348 . S
C1007 C1009 1.353 . S
C1007 H1048 0.929 . S
C1008 C1006 1.356 . S
C1008 C1010 1.358 . S
C1008 H1049 0.930 . S
C1009 C1007 1.353 . S
C1009 N1011 1.314 . S
C1009 H1050 0.930 . S
C1010 C1008 1.358 . S
C1010 N1011 1.279 . S
C1010 H1051 0.930 . S
N1011 C1009 1.314 . S
N1011 C1010 1.279 . S
C1012 C1014 1.353 . S
C1012 N1015 1.314 . S
C1012 H1018 0.930 . S
C1013 N1015 1.279 . S
C1013 C1016 1.358 . S
C1013 H1019 0.930 . S
C1014 C1012 1.353 . S
C1014 C1017 1.348 . S
C1014 H1052 0.929 . S
N1015 Li970 1.990 . S
N1015 C1012 1.314 . S
N1015 C1013 1.279 . S
C1016 C1013 1.358 . S
C1016 C1017 1.356 . S
C1016 H1053 0.930 . S
C1017 C1014 1.348 . S
C1017 C1016 1.356 . S
H1018 C1012 0.930 . S
H1019 C1013 0.930 . S
C1020 N1021 1.314 . S
C1020 C1022 1.353 . S
C1020 H1026 0.930 . S
N1021 Li971 1.990 . S
N1021 C1020 1.314 . S
N1021 C1024 1.279 . S
C1022 C1020 1.353 . S
C1022 C1025 1.348 . S
C1022 H1054 0.929 . S
C1023 C1024 1.358 . S
C1023 C1025 1.356 . S
C1023 H1055 0.930 . S
C1024 N1021 1.279 . S
C1024 C1023 1.358 . S
C1024 H1027 0.930 . S
C1025 C1022 1.348 . S
C1025 C1023 1.356 . S
H1026 C1020 0.930 . S
H1027 C1024 0.930 . S
O1028 Li968 1.956 . S
O1028 Li969 1.970 . S
O1028 Li970 1.961 . S
O1028 C972 1.325 . S
O1029 Li968 1.970 . S
O1029 Li969 1.956 . S
O1029 Li971 1.961 . S
O1029 C978 1.325 . S
O1030 Li968 1.961 . S
O1030 Li970 1.956 . S
O1030 Li971 1.970 . S
O1030 C1000 1.325 . S
O1031 Li969 1.961 . S
O1031 Li970 1.970 . S
O1031 Li971 1.956 . S
O1031 C1006 1.325 . S
H1032 C974 0.929 . S
H1033 C975 0.930 . S
H1034 C976 0.930 . S
H1035 C977 0.930 . S
H1036 C979 0.930 . S
H1037 C981 0.929 . S
H1038 C982 0.930 . S
H1039 C983 0.930 . S
H1040 C986 0.930 . S
H1041 C989 0.929 . S
H1042 C994 0.929 . S
H1043 C995 0.930 . S
H1044 C1002 0.929 . S
H1045 C1003 0.930 . S
H1046 C1004 0.930 . S
H1047 C1005 0.930 . S
H1048 C1007 0.929 . S
H1049 C1008 0.930 . S
H1050 C1009 0.930 . S
H1051 C1010 0.930 . S
H1052 C1014 0.929 . S
H1053 C1016 0.930 . S
H1054 C1022 0.929 . S
H1055 C1023 0.930 . S
C1056 C1057 1.387 . S
C1056 H1060 0.950 . S
C1056 C1065 1.390 1_554 S
C1057 C1056 1.387 . S
C1057 C1059 1.387 . S
H1058 C1065 0.950 . S
C1059 C1057 1.387 . S
C1059 C1061 1.390 1_554 S
C1059 H1063 0.950 . S
H1060 C1056 0.950 . S
C1061 C1059 1.390 1_556 S
C1061 C1062 1.387 . S
C1061 H1064 0.950 . S
C1062 C1061 1.387 . S
C1062 C1065 1.387 . S
H1063 C1059 0.950 . S
H1064 C1061 0.950 . S
C1065 C1056 1.390 1_556 S
C1065 H1058 0.950 . S
C1065 C1062 1.387 . S
C1066 C1067 1.387 . S
C1066 H1070 0.950 . S
C1066 C1075 1.390 . S
C1067 C1066 1.387 . S
C1067 C1069 1.387 . S
H1068 C1075 0.950 . S
C1069 C1067 1.387 . S
C1069 C1071 1.390 . S
C1069 H1073 0.950 . S
H1070 C1066 0.950 . S
C1071 C1069 1.390 . S
C1071 C1072 1.387 . S
C1071 H1074 0.950 . S
C1072 C1071 1.387 . S
C1072 C1075 1.387 . S
H1073 C1069 0.950 . S
H1074 C1071 0.950 . S
C1075 C1066 1.390 . S
C1075 H1068 0.950 . S
C1075 C1072 1.387 . S
C1076 C1077 1.387 . S
C1076 H1080 0.950 . S
C1076 C1085 1.390 . S
C1077 C1076 1.387 . S
C1077 C1079 1.387 . S
H1078 C1085 0.950 . S
C1079 C1077 1.387 . S
C1079 C1081 1.390 . S
C1079 H1083 0.950 . S
H1080 C1076 0.950 . S
C1081 C1079 1.390 . S
C1081 C1082 1.387 . S
C1081 H1084 0.950 . S
C1082 C1081 1.387 . S
C1082 C1085 1.387 . S
H1083 C1079 0.950 . S
H1084 C1081 0.950 . S
C1085 C1076 1.390 . S
C1085 H1078 0.950 . S
C1085 C1082 1.387 . S
C1086 C1087 1.387 . S
C1086 H1090 0.950 . S
C1086 C1095 1.390 1_554 S
C1087 C1086 1.387 . S
C1087 C1089 1.387 . S
H1088 C1095 0.950 . S
C1089 C1087 1.387 . S
C1089 C1091 1.390 1_554 S
C1089 H1093 0.950 . S
H1090 C1086 0.950 . S
C1091 C1089 1.390 1_556 S
C1091 C1092 1.387 . S
C1091 H1094 0.950 . S
C1092 C1091 1.387 . S
C1092 C1095 1.387 . S
H1093 C1089 0.950 . S
H1094 C1091 0.950 . S
C1095 C1086 1.390 1_556 S
C1095 H1088 0.950 . S
C1095 C1092 1.387 . S
C1096 C1097 1.387 . S
C1096 H1100 0.950 . S
C1096 C1105 1.390 . S
C1097 C1096 1.387 . S
C1097 C1099 1.387 . S
H1098 C1105 0.950 . S
C1099 C1097 1.387 . S
C1099 C1101 1.390 . S
C1099 H1103 0.950 . S
H1100 C1096 0.950 . S
C1101 C1099 1.390 . S
C1101 C1102 1.387 . S
C1101 H1104 0.950 . S
C1102 C1101 1.387 . S
C1102 C1105 1.387 . S
H1103 C1099 0.950 . S
H1104 C1101 0.950 . S
C1105 C1096 1.390 . S
C1105 H1098 0.950 . S
C1105 C1102 1.387 . S
C1106 C1107 1.387 . S
C1106 H1110 0.950 . S
C1106 C1115 1.390 . S
C1107 C1106 1.387 . S
C1107 C1109 1.387 . S
H1108 C1115 0.950 . S
C1109 C1107 1.387 . S
C1109 C1111 1.390 . S
C1109 H1113 0.950 . S
H1110 C1106 0.950 . S
C1111 C1109 1.390 . S
C1111 C1112 1.387 . S
C1111 H1114 0.950 . S
C1112 C1111 1.387 . S
C1112 C1115 1.387 . S
H1113 C1109 0.950 . S
H1114 C1111 0.950 . S
C1115 C1106 1.390 . S
C1115 H1108 0.950 . S
C1115 C1112 1.387 . S
C1116 C1117 1.387 . S
C1116 H1120 0.950 . S
C1116 C1125 1.390 1_564 S
C1117 C1116 1.387 . S
C1117 C1119 1.387 . S
H1118 C1125 0.950 . S
C1119 C1117 1.387 . S
C1119 C1121 1.390 1_564 S
C1119 H1123 0.950 . S
H1120 C1116 0.950 . S
C1121 C1119 1.390 1_546 S
C1121 C1122 1.387 . S
C1121 H1124 0.950 . S
C1122 C1121 1.387 . S
C1122 C1125 1.387 . S
H1123 C1119 0.950 . S
H1124 C1121 0.950 . S
C1125 C1116 1.390 1_546 S
C1125 H1118 0.950 . S
C1125 C1122 1.387 . S
C1126 C1127 1.387 . S
C1126 H1130 0.950 . S
C1126 C1135 1.390 . S
C1127 C1126 1.387 . S
C1127 C1129 1.387 . S
H1128 C1135 0.950 . S
C1129 C1127 1.387 . S
C1129 C1131 1.390 . S
C1129 H1133 0.950 . S
H1130 C1126 0.950 . S
C1131 C1129 1.390 . S
C1131 C1132 1.387 . S
C1131 H1134 0.950 . S
C1132 C1131 1.387 . S
C1132 C1135 1.387 . S
H1133 C1129 0.950 . S
H1134 C1131 0.950 . S
C1135 C1126 1.390 . S
C1135 H1128 0.950 . S
C1135 C1132 1.387 . S
C1136 C1137 1.387 1_455 S
C1136 H1140 0.950 . S
C1136 C1145 1.390 . S
C1137 C1136 1.387 1_655 S
C1137 C1139 1.387 . S
H1138 C1145 0.950 . S
C1139 C1137 1.387 . S
C1139 C1141 1.390 . S
C1139 H1143 0.950 . S
H1140 C1136 0.950 . S
C1141 C1139 1.390 . S
C1141 C1142 1.387 1_655 S
C1141 H1144 0.950 . S
C1142 C1141 1.387 1_455 S
C1142 C1145 1.387 . S
H1143 C1139 0.950 . S
H1144 C1141 0.950 . S
C1145 C1136 1.390 . S
C1145 H1138 0.950 . S
C1145 C1142 1.387 . S
C1146 C1147 1.387 . S
C1146 H1150 0.950 . S
C1146 C1155 1.390 1_544 S
C1147 C1146 1.387 . S
C1147 C1149 1.387 . S
H1148 C1155 0.950 . S
C1149 C1147 1.387 . S
C1149 C1151 1.390 1_544 S
C1149 H1153 0.950 . S
H1150 C1146 0.950 . S
C1151 C1149 1.390 1_566 S
C1151 C1152 1.387 . S
C1151 H1154 0.950 . S
C1152 C1151 1.387 . S
C1152 C1155 1.387 . S
H1153 C1149 0.950 . S
H1154 C1151 0.950 . S
C1155 C1146 1.390 1_566 S
C1155 H1148 0.950 . S
C1155 C1152 1.387 . S
C1156 C1157 1.387 . S
C1156 H1160 0.950 . S
C1156 C1165 1.390 . S
C1157 C1156 1.387 . S
C1157 C1159 1.387 . S
H1158 C1165 0.950 . S
C1159 C1157 1.387 . S
C1159 C1161 1.390 . S
C1159 H1163 0.950 . S
H1160 C1156 0.950 . S
C1161 C1159 1.390 . S
C1161 C1162 1.387 . S
C1161 H1164 0.950 . S
C1162 C1161 1.387 . S
C1162 C1165 1.387 . S
H1163 C1159 0.950 . S
H1164 C1161 0.950 . S
C1165 C1156 1.390 . S
C1165 H1158 0.950 . S
C1165 C1162 1.387 . S
C1166 C1167 1.387 . S
C1166 H1170 0.950 . S
C1166 C1175 1.390 . S
C1167 C1166 1.387 . S
C1167 C1169 1.387 1_655 S
H1168 C1175 0.950 . S
C1169 C1167 1.387 1_455 S
C1169 C1171 1.390 . S
C1169 H1173 0.950 . S
H1170 C1166 0.950 . S
C1171 C1169 1.390 . S
C1171 C1172 1.387 . S
C1171 H1174 0.950 . S
C1172 C1171 1.387 . S
C1172 C1175 1.387 1_455 S
H1173 C1169 0.950 . S
H1174 C1171 0.950 . S
C1175 C1166 1.390 . S
C1175 H1168 0.950 . S
C1175 C1172 1.387 1_655 S
C1176 C1177 1.387 . S
C1176 H1180 0.950 . S
C1176 C1185 1.390 1_565 S
C1177 C1176 1.387 . S
C1177 C1179 1.387 . S
H1178 C1185 0.950 . S
C1179 C1177 1.387 . S
C1179 C1181 1.390 1_565 S
C1179 H1183 0.950 . S
H1180 C1176 0.950 . S
C1181 C1179 1.390 1_545 S
C1181 C1182 1.387 . S
C1181 H1184 0.950 . S
C1182 C1181 1.387 . S
C1182 C1185 1.387 . S
H1183 C1179 0.950 . S
H1184 C1181 0.950 . S
C1185 C1176 1.390 1_545 S
C1185 H1178 0.950 . S
C1185 C1182 1.387 . S
C1186 C1187 1.387 . S
C1186 H1190 0.950 . S
C1186 C1195 1.390 . S
C1187 C1186 1.387 . S
C1187 C1189 1.387 . S
H1188 C1195 0.950 . S
C1189 C1187 1.387 . S
C1189 C1191 1.390 . S
C1189 H1193 0.950 . S
H1190 C1186 0.950 . S
C1191 C1189 1.390 . S
C1191 C1192 1.387 . S
C1191 H1194 0.950 . S
C1192 C1191 1.387 . S
C1192 C1195 1.387 . S
H1193 C1189 0.950 . S
H1194 C1191 0.950 . S
C1195 C1186 1.390 . S
C1195 H1188 0.950 . S
C1195 C1192 1.387 . S
C1196 C1197 1.387 . S
C1196 H1200 0.950 . S
C1196 C1205 1.390 1_455 S
C1197 C1196 1.387 . S
C1197 C1199 1.387 1_556 S
H1198 C1205 0.950 . S
C1199 C1197 1.387 1_554 S
C1199 C1201 1.390 1_455 S
C1199 H1203 0.950 . S
H1200 C1196 0.950 . S
C1201 C1199 1.390 1_655 S
C1201 C1202 1.387 1_554 S
C1201 H1204 0.950 . S
C1202 C1201 1.387 1_556 S
C1202 C1205 1.387 . S
H1203 C1199 0.950 . S
H1204 C1201 0.950 . S
C1205 C1196 1.390 1_655 S
C1205 H1198 0.950 . S
C1205 C1202 1.387 . S
C1206 C1207 1.387 . S
C1206 H1210 0.950 . S
C1206 C1215 1.390 1_655 S
C1207 C1206 1.387 . S
C1207 C1209 1.387 . S
H1208 C1215 0.950 . S
C1209 C1207 1.387 . S
C1209 C1211 1.390 1_655 S
C1209 H1213 0.950 . S
H1210 C1206 0.950 . S
C1211 C1209 1.390 1_455 S
C1211 C1212 1.387 . S
C1211 H1214 0.950 . S
C1212 C1211 1.387 . S
C1212 C1215 1.387 . S
H1213 C1209 0.950 . S
H1214 C1211 0.950 . S
C1215 C1206 1.390 1_455 S
C1215 H1208 0.950 . S
C1215 C1212 1.387 . S
C1216 C1217 1.387 . S
C1216 H1220 0.950 . S
C1216 C1225 1.390 1_565 S
C1217 C1216 1.387 . S
C1217 C1219 1.387 . S
H1218 C1225 0.950 . S
C1219 C1217 1.387 . S
C1219 C1221 1.390 1_565 S
C1219 H1223 0.950 . S
H1220 C1216 0.950 . S
C1221 C1219 1.390 1_545 S
C1221 C1222 1.387 . S
C1221 H1224 0.950 . S
C1222 C1221 1.387 . S
C1222 C1225 1.387 . S
H1223 C1219 0.950 . S
H1224 C1221 0.950 . S
C1225 C1216 1.390 1_545 S
C1225 H1218 0.950 . S
C1225 C1222 1.387 . S
C1226 C1227 1.387 . S
C1226 H1230 0.950 . S
C1226 C1235 1.390 . S
C1227 C1226 1.387 . S
C1227 C1229 1.387 1_554 S
H1228 C1235 0.950 . S
C1229 C1227 1.387 1_556 S
C1229 C1231 1.390 . S
C1229 H1233 0.950 . S
H1230 C1226 0.950 . S
C1231 C1229 1.390 . S
C1231 C1232 1.387 1_556 S
C1231 H1234 0.950 . S
C1232 C1231 1.387 1_554 S
C1232 C1235 1.387 . S
H1233 C1229 0.950 . S
H1234 C1231 0.950 . S
C1235 C1226 1.390 . S
C1235 H1228 0.950 . S
C1235 C1232 1.387 . S
C1236 C1237 1.387 . S
C1236 H1240 0.950 . S
C1236 C1245 1.390 . S
C1237 C1236 1.387 . S
C1237 C1239 1.387 . S
H1238 C1245 0.950 . S
C1239 C1237 1.387 . S
C1239 C1241 1.390 . S
C1239 H1243 0.950 . S
H1240 C1236 0.950 . S
C1241 C1239 1.390 . S
C1241 C1242 1.387 . S
C1241 H1244 0.950 . S
C1242 C1241 1.387 . S
C1242 C1245 1.387 . S
H1243 C1239 0.950 . S
H1244 C1241 0.950 . S
C1245 C1236 1.390 . S
C1245 H1238 0.950 . S
C1245 C1242 1.387 . S
C1246 C1247 1.387 . S
C1246 H1250 0.950 . S
C1246 C1255 1.390 . S
C1247 C1246 1.387 . S
C1247 C1249 1.387 . S
H1248 C1255 0.950 . S
C1249 C1247 1.387 . S
C1249 C1251 1.390 . S
C1249 H1253 0.950 . S
H1250 C1246 0.950 . S
C1251 C1249 1.390 . S
C1251 C1252 1.387 . S
C1251 H1254 0.950 . S
C1252 C1251 1.387 . S
C1252 C1255 1.387 . S
H1253 C1249 0.950 . S
H1254 C1251 0.950 . S
C1255 C1246 1.390 . S
C1255 H1248 0.950 . S
C1255 C1252 1.387 . S
C1256 C1257 1.387 . S
C1256 H1260 0.950 . S
C1256 C1265 1.390 . S
C1257 C1256 1.387 . S
C1257 C1259 1.387 . S
H1258 C1265 0.950 . S
C1259 C1257 1.387 . S
C1259 C1261 1.390 . S
C1259 H1263 0.950 . S
H1260 C1256 0.950 . S
C1261 C1259 1.390 . S
C1261 C1262 1.387 . S
C1261 H1264 0.950 . S
C1262 C1261 1.387 . S
C1262 C1265 1.387 . S
H1263 C1259 0.950 . S
H1264 C1261 0.950 . S
C1265 C1256 1.390 . S
C1265 H1258 0.950 . S
C1265 C1262 1.387 . S
C1266 C1267 1.387 . S
C1266 H1270 0.950 . S
C1266 C1275 1.390 . S
C1267 C1266 1.387 . S
C1267 C1269 1.387 . S
H1268 C1275 0.950 . S
C1269 C1267 1.387 . S
C1269 C1271 1.390 . S
C1269 H1273 0.950 . S
H1270 C1266 0.950 . S
C1271 C1269 1.390 . S
C1271 C1272 1.387 . S
C1271 H1274 0.950 . S
C1272 C1271 1.387 . S
C1272 C1275 1.387 . S
H1273 C1269 0.950 . S
H1274 C1271 0.950 . S
C1275 C1266 1.390 . S
C1275 H1268 0.950 . S
C1275 C1272 1.387 . S
C1276 C1277 1.387 . S
C1276 H1280 0.950 . S
C1276 C1285 1.390 . S
C1277 C1276 1.387 . S
C1277 C1279 1.387 . S
H1278 C1285 0.950 . S
C1279 C1277 1.387 . S
C1279 C1281 1.390 . S
C1279 H1283 0.950 . S
H1280 C1276 0.950 . S
C1281 C1279 1.390 . S
C1281 C1282 1.387 . S
C1281 H1284 0.950 . S
C1282 C1281 1.387 . S
C1282 C1285 1.387 . S
H1283 C1279 0.950 . S
H1284 C1281 0.950 . S
C1285 C1276 1.390 . S
C1285 H1278 0.950 . S
C1285 C1282 1.387 . S
C1286 C1287 1.387 . S
C1286 H1290 0.950 . S
C1286 C1295 1.390 . S
C1287 C1286 1.387 . S
C1287 C1289 1.387 . S
H1288 C1295 0.950 . S
C1289 C1287 1.387 . S
C1289 C1291 1.390 . S
C1289 H1293 0.950 . S
H1290 C1286 0.950 . S
C1291 C1289 1.390 . S
C1291 C1292 1.387 . S
C1291 H1294 0.950 . S
C1292 C1291 1.387 . S
C1292 C1295 1.387 . S
H1293 C1289 0.950 . S
H1294 C1291 0.950 . S
C1295 C1286 1.390 . S
C1295 H1288 0.950 . S
C1295 C1292 1.387 . S
C1057 C49 0.726 . S
C1062 C937 0.726 . S
C1067 C1017 0.725 . S
C1072 C117 0.727 . S
C1077 C585 0.732 . S
C1082 C196 0.733 . S
C1087 C284 0.733 . S
C1092 C645 0.733 . S
C1097 C401 0.727 . S
C1102 C724 0.732 . S
C1107 C821 0.725 . S
C1112 C489 0.726 . S
C1117 C20 1.201 1_565 S
C1122 C673 1.201 1_545 S
C1127 C753 1.200 . S
C1132 C145 1.202 . S
C1137 C849 1.203 1_655 S
C1142 C225 1.201 1_455 S
C1147 C313 1.206 1_545 S
C1152 C909 1.207 1_565 S
C1157 C988 1.200 . S
C1162 C372 1.202 . S
C1167 C460 1.201 1_655 S
C1172 C557 1.202 1_455 S
C1177 C293 1.537 . S
C1182 C57 1.537 . S
C1187 C409 1.536 . S
C1192 C108 1.536 . S
C1197 C497 1.537 . S
C1202 C205 1.537 . S
C1207 C577 1.537 . S
C1212 C812 1.537 . S
C1217 C636 1.537 . S
C1222 C929 1.537 . S
C1227 C733 1.537 . S
C1232 C1025 1.537 . S
C1237 C761 2.174 . S
C1242 C29 2.174 . S
C1247 C841 2.176 . S
C1252 C137 2.176 . S
C1257 C900 2.177 . S
C1262 C233 2.177 . S
C1267 C997 2.176 . S
C1272 C321 2.176 . S
C1277 C548 2.172 . S
C1282 C381 2.172 . S
C1287 C469 2.177 . S
C1292 C665 2.178 . S
