# Generated by pormake.
# Topology uks, (4)-cn, num edge types: 1
# Building blocks:
#     Node 0, Type 0, BuildingBlock: ESEHIV_clean_sbu_0, # of connection points: 4
#     Node 1, Type 0, BuildingBlock: ESEHIV_clean_sbu_0, # of connection points: 4
#     Node 2, Type 0, BuildingBlock: ESEHIV_clean_sbu_0, # of connection points: 4
#     Node 3, Type 0, BuildingBlock: ESEHIV_clean_sbu_0, # of connection points: 4
#     Node 4, Type 0, BuildingBlock: ESEHIV_clean_sbu_0, # of connection points: 4
#     Node 5, Type 0, BuildingBlock: ESEHIV_clean_sbu_0, # of connection points: 4
#     Node 6, Type 0, BuildingBlock: ESEHIV_clean_sbu_0, # of connection points: 4
#     Node 7, Type 0, BuildingBlock: ESEHIV_clean_sbu_0, # of connection points: 4
#     Node 8, Type 0, BuildingBlock: ESEHIV_clean_sbu_0, # of connection points: 4
#     Node 9, Type 0, BuildingBlock: ESEHIV_clean_sbu_0, # of connection points: 4
#     Node 10, Type 0, BuildingBlock: ESEHIV_clean_sbu_0, # of connection points: 4
#     Node 11, Type 0, BuildingBlock: ESEHIV_clean_sbu_0, # of connection points: 4
#     Node 12, Type 0, BuildingBlock: ESEHIV_clean_sbu_0, # of connection points: 4
#     Node 13, Type 0, BuildingBlock: ESEHIV_clean_sbu_0, # of connection points: 4
#     Node 14, Type 0, BuildingBlock: ESEHIV_clean_sbu_0, # of connection points: 4
#     Node 15, Type 0, BuildingBlock: ESEHIV_clean_sbu_0, # of connection points: 4
#     Node 16, Type 0, BuildingBlock: ESEHIV_clean_sbu_0, # of connection points: 4
#     Node 17, Type 0, BuildingBlock: ESEHIV_clean_sbu_0, # of connection points: 4
#     Node 18, Type 0, BuildingBlock: ESEHIV_clean_sbu_0, # of connection points: 4
#     Node 19, Type 0, BuildingBlock: ESEHIV_clean_sbu_0, # of connection points: 4
#     Node 20, Type 0, BuildingBlock: ESEHIV_clean_sbu_0, # of connection points: 4
#     Node 21, Type 0, BuildingBlock: ESEHIV_clean_sbu_0, # of connection points: 4
#     Node 22, Type 0, BuildingBlock: ESEHIV_clean_sbu_0, # of connection points: 4
#     Node 23, Type 0, BuildingBlock: ESEHIV_clean_sbu_0, # of connection points: 4
#     Edge 24, Type (0, 0), BuildingBlock: AJUNOK_clean_linker_0, # of connection points: 2
#     Edge 25, Type (0, 0), BuildingBlock: AJUNOK_clean_linker_0, # of connection points: 2
#     Edge 26, Type (0, 0), BuildingBlock: AJUNOK_clean_linker_0, # of connection points: 2
#     Edge 27, Type (0, 0), BuildingBlock: AJUNOK_clean_linker_0, # of connection points: 2
#     Edge 28, Type (0, 0), BuildingBlock: AJUNOK_clean_linker_0, # of connection points: 2
#     Edge 29, Type (0, 0), BuildingBlock: AJUNOK_clean_linker_0, # of connection points: 2
#     Edge 30, Type (0, 0), BuildingBlock: AJUNOK_clean_linker_0, # of connection points: 2
#     Edge 31, Type (0, 0), BuildingBlock: AJUNOK_clean_linker_0, # of connection points: 2
#     Edge 32, Type (0, 0), BuildingBlock: AJUNOK_clean_linker_0, # of connection points: 2
#     Edge 33, Type (0, 0), BuildingBlock: AJUNOK_clean_linker_0, # of connection points: 2
#     Edge 34, Type (0, 0), BuildingBlock: AJUNOK_clean_linker_0, # of connection points: 2
#     Edge 35, Type (0, 0), BuildingBlock: AJUNOK_clean_linker_0, # of connection points: 2
#     Edge 36, Type (0, 0), BuildingBlock: AJUNOK_clean_linker_0, # of connection points: 2
#     Edge 37, Type (0, 0), BuildingBlock: AJUNOK_clean_linker_0, # of connection points: 2
#     Edge 38, Type (0, 0), BuildingBlock: AJUNOK_clean_linker_0, # of connection points: 2
#     Edge 39, Type (0, 0), BuildingBlock: AJUNOK_clean_linker_0, # of connection points: 2
#     Edge 40, Type (0, 0), BuildingBlock: AJUNOK_clean_linker_0, # of connection points: 2
#     Edge 41, Type (0, 0), BuildingBlock: AJUNOK_clean_linker_0, # of connection points: 2
#     Edge 42, Type (0, 0), BuildingBlock: AJUNOK_clean_linker_0, # of connection points: 2
#     Edge 43, Type (0, 0), BuildingBlock: AJUNOK_clean_linker_0, # of connection points: 2
#     Edge 44, Type (0, 0), BuildingBlock: AJUNOK_clean_linker_0, # of connection points: 2
#     Edge 45, Type (0, 0), BuildingBlock: AJUNOK_clean_linker_0, # of connection points: 2
#     Edge 46, Type (0, 0), BuildingBlock: AJUNOK_clean_linker_0, # of connection points: 2
#     Edge 47, Type (0, 0), BuildingBlock: AJUNOK_clean_linker_0, # of connection points: 2
#     Edge 48, Type (0, 0), BuildingBlock: AJUNOK_clean_linker_0, # of connection points: 2
#     Edge 49, Type (0, 0), BuildingBlock: AJUNOK_clean_linker_0, # of connection points: 2
#     Edge 50, Type (0, 0), BuildingBlock: AJUNOK_clean_linker_0, # of connection points: 2
#     Edge 51, Type (0, 0), BuildingBlock: AJUNOK_clean_linker_0, # of connection points: 2
#     Edge 52, Type (0, 0), BuildingBlock: AJUNOK_clean_linker_0, # of connection points: 2
#     Edge 53, Type (0, 0), BuildingBlock: AJUNOK_clean_linker_0, # of connection points: 2
#     Edge 54, Type (0, 0), BuildingBlock: AJUNOK_clean_linker_0, # of connection points: 2
#     Edge 55, Type (0, 0), BuildingBlock: AJUNOK_clean_linker_0, # of connection points: 2
#     Edge 56, Type (0, 0), BuildingBlock: AJUNOK_clean_linker_0, # of connection points: 2
#     Edge 57, Type (0, 0), BuildingBlock: AJUNOK_clean_linker_0, # of connection points: 2
#     Edge 58, Type (0, 0), BuildingBlock: AJUNOK_clean_linker_0, # of connection points: 2
#     Edge 59, Type (0, 0), BuildingBlock: AJUNOK_clean_linker_0, # of connection points: 2
#     Edge 60, Type (0, 0), BuildingBlock: AJUNOK_clean_linker_0, # of connection points: 2
#     Edge 61, Type (0, 0), BuildingBlock: AJUNOK_clean_linker_0, # of connection points: 2
#     Edge 62, Type (0, 0), BuildingBlock: AJUNOK_clean_linker_0, # of connection points: 2
#     Edge 63, Type (0, 0), BuildingBlock: AJUNOK_clean_linker_0, # of connection points: 2
#     Edge 64, Type (0, 0), BuildingBlock: AJUNOK_clean_linker_0, # of connection points: 2
#     Edge 65, Type (0, 0), BuildingBlock: AJUNOK_clean_linker_0, # of connection points: 2
#     Edge 66, Type (0, 0), BuildingBlock: AJUNOK_clean_linker_0, # of connection points: 2
#     Edge 67, Type (0, 0), BuildingBlock: AJUNOK_clean_linker_0, # of connection points: 2
#     Edge 68, Type (0, 0), BuildingBlock: AJUNOK_clean_linker_0, # of connection points: 2
#     Edge 69, Type (0, 0), BuildingBlock: AJUNOK_clean_linker_0, # of connection points: 2
#     Edge 70, Type (0, 0), BuildingBlock: AJUNOK_clean_linker_0, # of connection points: 2
#     Edge 71, Type (0, 0), BuildingBlock: AJUNOK_clean_linker_0, # of connection points: 2
# Relax obj value: 0.052
# Max RMSD: 0.137
# Mean RMSD: 0.108
data_MOF--net-uks--node1-ESEHIV_clean_sbu_0--edge1-AJUNOK_clean_linker_0
_symmetry_space_group_name_H-M    P1
_symmetry_Int_Tables_number       1
_symmetry_cell_setting            triclinic
loop_
_symmetry_equiv_pos_as_xyz
'x, y, z'
_cell_length_a     37.816483
_cell_length_b     46.213476
_cell_length_c     46.132224
_cell_angle_alpha  89.736814
_cell_angle_beta   90.062963
_cell_angle_gamma 84.285706
loop_
_atom_site_label
_atom_site_type_symbol
_atom_site_fract_x
_atom_site_fract_y
_atom_site_fract_z
_atom_type_partial_charge
Cu0 Cu 0.10401 0.41467 0.7423 0.0
N1 N 0.08092 0.39031 0.76697 0.0
N2 N 0.06928 0.34466 0.77738 0.0
C3 C 0.09469 0.36291 0.77315 0.0
C4 C 0.03827 0.36177 0.7752 0.0
C5 C 0.0455 0.38974 0.76856 0.0
O6 O 0.08524 0.40544 0.70439 0.0
C7 C 0.16552 0.40884 0.7749 0.0
O8 O 0.14136 0.41475 0.79503 0.0
H9 H 0.12277 0.3561 0.77146 0.0
H10 H 0.02632 0.40728 0.76149 0.0
N11 N 0.09308 0.45456 0.74897 0.0
N12 N 0.09653 0.5023 0.74308 0.0
C13 C 0.09986 0.47594 0.73033 0.0
C14 C 0.08495 0.46796 0.7743 0.0
C15 C 0.08717 0.49744 0.77074 0.0
C16 C 0.08587 0.3788 0.69728 0.0
O17 O 0.10871 0.35981 0.71033 0.0
H18 H 0.10947 0.47202 0.70846 0.0
H19 H 0.0799 0.45689 0.79436 0.0
O20 O 0.15515 0.40665 0.74869 0.0
H21 H 0.01216 0.35407 0.77517 0.0
H22 H 0.08351 0.51389 0.78739 0.0
Cu23 Cu 0.61438 0.64102 0.26595 0.0
N24 N 0.59501 0.66072 0.29839 0.0
N25 N 0.58966 0.69736 0.32999 0.0
C26 C 0.60917 0.68416 0.30862 0.0
C27 C 0.56128 0.68209 0.33303 0.0
C28 C 0.56474 0.65925 0.31348 0.0
O29 O 0.58788 0.65743 0.23244 0.0
C30 C 0.68165 0.64165 0.28952 0.0
O31 O 0.6655 0.62888 0.31051 0.0
H32 H 0.6326 0.69231 0.29945 0.0
H33 H 0.54594 0.64348 0.30986 0.0
N34 N 0.6127 0.60071 0.26626 0.0
N35 N 0.62419 0.55489 0.25072 0.0
C36 C 0.63099 0.58286 0.24741 0.0
C37 C 0.5939 0.58348 0.28253 0.0
C38 C 0.60111 0.5551 0.27306 0.0
C39 C 0.5552 0.65301 0.23025 0.0
O40 O 0.5417 0.63653 0.2498 0.0
H41 H 0.64928 0.59042 0.23174 0.0
H42 H 0.57595 0.591 0.29975 0.0
O43 O 0.66444 0.6482 0.26616 0.0
H44 H 0.53946 0.68734 0.34788 0.0
H45 H 0.58976 0.53622 0.28157 0.0
Cu46 Cu 0.41343 0.15939 0.75032 0.0
N47 N 0.43035 0.18092 0.78074 0.0
N48 N 0.43968 0.22327 0.80132 0.0
C49 C 0.41576 0.20755 0.78862 0.0
C50 C 0.47028 0.2056 0.80214 0.0
C51 C 0.46442 0.17948 0.78954 0.0
O52 O 0.43881 0.1719 0.71604 0.0
C53 C 0.34576 0.15998 0.77382 0.0
O54 O 0.36565 0.15203 0.79641 0.0
H55 H 0.38979 0.21671 0.7813 0.0
H56 H 0.48457 0.16214 0.78394 0.0
N57 N 0.42578 0.11932 0.75496 0.0
N58 N 0.43084 0.07163 0.7447 0.0
C59 C 0.4244 0.09906 0.73413 0.0
C60 C 0.43379 0.10436 0.77955 0.0
C61 C 0.43705 0.07502 0.77329 0.0
C62 C 0.44448 0.19848 0.71271 0.0
O63 O 0.42607 0.2184 0.72819 0.0
H64 H 0.41852 0.10457 0.71173 0.0
H65 H 0.43591 0.11406 0.80069 0.0
O66 O 0.36126 0.16544 0.75007 0.0
H67 H 0.49577 0.21206 0.80888 0.0
H68 H 0.44221 0.05751 0.78885 0.0
Cu69 Cu 0.85347 0.9193 0.2283 0.0
N70 N 0.87465 0.89693 0.25852 0.0
N71 N 0.89606 0.85452 0.27843 0.0
C72 C 0.88988 0.8698 0.25371 0.0
C73 C 0.88412 0.87285 0.29981 0.0
C74 C 0.87096 0.89911 0.28744 0.0
O75 O 0.88329 0.90683 0.19528 0.0
C76 C 0.78391 0.92705 0.24684 0.0
O77 O 0.79866 0.94572 0.26311 0.0
H78 H 0.89292 0.86046 0.23227 0.0
H79 H 0.85713 0.91746 0.29851 0.0
N80 N 0.85462 0.9595 0.23122 0.0
N81 N 0.84113 1.006 0.21871 0.0
C82 C 0.84043 0.97805 0.21083 0.0
C83 C 0.8648 0.97622 0.25291 0.0
C84 C 0.85628 1.00506 0.24527 0.0
C85 C 0.91495 0.91409 0.1975 0.0
O86 O 0.92205 0.93118 0.21898 0.0
H87 H 0.82836 0.97105 0.19111 0.0
H88 H 0.87644 0.96804 0.27313 0.0
O89 O 0.80312 0.912 0.22845 0.0
H90 H 0.88285 0.86708 0.32252 0.0
H91 H 0.86054 1.02384 0.25827 0.0
Cu92 Cu 0.12775 0.14851 0.81647 0.0
N93 N 0.10112 0.17425 0.79138 0.0
N94 N 0.07999 0.21929 0.77773 0.0
C95 C 0.10904 0.20148 0.78541 0.0
C96 C 0.05282 0.20249 0.77838 0.0
C97 C 0.06588 0.17481 0.78682 0.0
O98 O 0.1065 0.15811 0.85418 0.0
C99 C 0.19225 0.1547 0.78767 0.0
O100 O 0.17201 0.15117 0.76506 0.0
H101 H 0.13449 0.20904 0.7906 0.0
H102 H 0.05007 0.15745 0.79272 0.0
N103 N 0.12099 0.10919 0.80948 0.0
N104 N 0.12306 0.06086 0.81644 0.0
C105 C 0.13571 0.08599 0.82471 0.0
C106 C 0.0982 0.0983 0.79095 0.0
C107 C 0.09929 0.06858 0.7953 0.0
C108 C 0.0972 0.18432 0.86166 0.0
O109 O 0.11169 0.2054 0.84845 0.0
H110 H 0.15444 0.08768 0.84223 0.0
H111 H 0.0814 0.11108 0.7757 0.0
O112 O 0.17835 0.15422 0.8129 0.0
H113 H 0.02508 0.21027 0.77545 0.0
H114 H 0.08383 0.05379 0.78381 0.0
Cu115 Cu 0.89928 0.65712 0.32156 0.0
N116 N 0.91204 0.68411 0.29417 0.0
N117 N 0.91782 0.72956 0.27911 0.0
C118 C 0.91058 0.71231 0.30151 0.0
C119 C 0.92451 0.71124 0.25655 0.0
C120 C 0.921 0.68309 0.26595 0.0
O121 O 0.92926 0.66416 0.35462 0.0
C122 C 0.83126 0.66016 0.3018 0.0
O123 O 0.85016 0.65524 0.27813 0.0
H124 H 0.90344 0.72003 0.32304 0.0
H125 H 0.92345 0.66359 0.25293 0.0
N126 N 0.90798 0.6174 0.31424 0.0
N127 N 0.90777 0.57064 0.32694 0.0
C128 C 0.89831 0.59851 0.33422 0.0
C129 C 0.92381 0.60104 0.29297 0.0
C130 C 0.9235 0.57199 0.30073 0.0
C131 C 0.96219 0.65782 0.34888 0.0
O132 O 0.9705 0.64632 0.3235 0.0
H133 H 0.88409 0.60535 0.35376 0.0
H134 H 0.9351 0.60951 0.27355 0.0
O135 O 0.84773 0.6633 0.32561 0.0
H136 H 0.92973 0.71771 0.23453 0.0
H137 H 0.93452 0.5534 0.28835 0.0
Cu138 Cu 0.37188 0.41807 0.84461 0.0
N139 N 0.40194 0.3936 0.82103 0.0
N140 N 0.42414 0.34812 0.81001 0.0
C141 C 0.39445 0.3667 0.81345 0.0
C142 C 0.45132 0.3644 0.81452 0.0
C143 C 0.43763 0.39229 0.82138 0.0
O144 O 0.39147 0.40987 0.88326 0.0
C145 C 0.31333 0.41276 0.81042 0.0
O146 O 0.33648 0.42046 0.79137 0.0
H147 H 0.36774 0.36033 0.81355 0.0
H148 H 0.45256 0.40905 0.83011 0.0
N149 N 0.37492 0.45786 0.838 0.0
N150 N 0.36529 0.5061 0.84406 0.0
C151 C 0.35373 0.47996 0.84989 0.0
C152 C 0.40049 0.47053 0.82393 0.0
C153 C 0.39461 0.50026 0.8276 0.0
C154 C 0.40665 0.38461 0.88909 0.0
O155 O 0.39364 0.36207 0.87745 0.0
H156 H 0.33118 0.47683 0.86358 0.0
H157 H 0.42245 0.45893 0.81252 0.0
O158 O 0.32298 0.41013 0.83693 0.0
H159 H 0.47897 0.35595 0.81621 0.0
H160 H 0.41084 0.51634 0.81908 0.0
Cu161 Cu 0.61951 0.89448 0.35386 0.0
N162 N 0.62685 0.85614 0.36728 0.0
N163 N 0.62329 0.80821 0.37045 0.0
C164 C 0.61037 0.83345 0.35769 0.0
C165 C 0.64857 0.81542 0.38901 0.0
C166 C 0.65094 0.84488 0.38679 0.0
O167 O 0.56816 0.90214 0.34816 0.0
C168 C 0.64942 0.91706 0.30173 0.0
O169 O 0.62652 0.94009 0.30519 0.0
H170 H 0.59036 0.83525 0.34079 0.0
H171 H 0.6696 0.85708 0.39809 0.0
N172 N 0.63528 0.91933 0.38219 0.0
N173 N 0.65481 0.9578 0.40448 0.0
C174 C 0.64622 0.94608 0.37882 0.0
C175 C 0.63658 0.91408 0.41086 0.0
C176 C 0.6488 0.93748 0.42456 0.0
C177 C 0.54916 0.92258 0.36094 0.0
O178 O 0.56492 0.94287 0.37418 0.0
H179 H 0.6464 0.95702 0.3581 0.0
H180 H 0.62859 0.89474 0.42122 0.0
O181 O 0.64888 0.89582 0.31926 0.0
H182 H 0.66456 0.80048 0.403 0.0
H183 H 0.65285 0.93928 0.44767 0.0
Cu184 Cu 0.70934 0.15502 0.42571 0.0
N185 N 0.74918 0.17222 0.43754 0.0
N186 N 0.77957 0.21065 0.44374 0.0
C187 C 0.74729 0.20097 0.44229 0.0
C188 C 0.80294 0.18695 0.43967 0.0
C189 C 0.78402 0.1631 0.43597 0.0
O190 O 0.67121 0.17654 0.44772 0.0
C191 C 0.73154 0.14501 0.36946 0.0
O192 O 0.75058 0.12361 0.38275 0.0
H193 H 0.72262 0.21502 0.44147 0.0
H194 H 0.79472 0.14134 0.43009 0.0
N195 N 0.71256 0.11514 0.43432 0.0
N196 N 0.70378 0.06814 0.4324 0.0
C197 C 0.69583 0.09471 0.42051 0.0
C198 C 0.73189 0.10085 0.45542 0.0
C199 C 0.72618 0.07187 0.45448 0.0
C200 C 0.67701 0.17538 0.47497 0.0
O201 O 0.70303 0.15689 0.48459 0.0
H202 H 0.67793 0.09927 0.40237 0.0
H203 H 0.74888 0.11083 0.47049 0.0
O204 O 0.70887 0.16128 0.38398 0.0
H205 H 0.83139 0.18722 0.43743 0.0
H206 H 0.7377 0.05479 0.46875 0.0
Cu207 Cu 0.88112 0.21613 0.90164 0.0
N208 N 0.87516 0.19974 0.86509 0.0
N209 N 0.88023 0.19522 0.81691 0.0
C210 C 0.89182 0.20784 0.84098 0.0
C211 C 0.85545 0.17824 0.82627 0.0
C212 C 0.85237 0.18109 0.85604 0.0
O213 O 0.93159 0.22228 0.90312 0.0
C214 C 0.81427 0.24588 0.90555 0.0
O215 O 0.80679 0.21873 0.90556 0.0
H216 H 0.91101 0.22374 0.84095 0.0
H217 H 0.83408 0.17096 0.8699 0.0
N218 N 0.87147 0.19199 0.93292 0.0
N219 N 0.86332 0.17854 0.9789 0.0
C220 C 0.86815 0.20076 0.9607 0.0
C221 C 0.86851 0.1632 0.93352 0.0
C222 C 0.86375 0.15481 0.96193 0.0
C223 C 0.95267 0.19892 0.90431 0.0
O224 O 0.93875 0.17408 0.90657 0.0
H225 H 0.87037 0.2229 0.9675 0.0
H226 H 0.87056 0.14919 0.91476 0.0
O227 O 0.84691 0.25076 0.90399 0.0
H228 H 0.84037 0.16498 0.8126 0.0
H229 H 0.86095 0.13296 0.96955 0.0
Cu230 Cu 0.86668 0.38606 0.40137 0.0
N231 N 0.82612 0.36925 0.41247 0.0
N232 N 0.79777 0.33095 0.42502 0.0
C233 C 0.82819 0.34027 0.41535 0.0
C234 C 0.77521 0.35533 0.42827 0.0
C235 C 0.79294 0.3791 0.42056 0.0
O236 O 0.90206 0.36565 0.42752 0.0
C237 C 0.8438 0.39437 0.34641 0.0
O238 O 0.81907 0.40866 0.36222 0.0
H239 H 0.85236 0.32632 0.41122 0.0
H240 H 0.7825 0.40175 0.42102 0.0
N241 N 0.86459 0.42647 0.40601 0.0
N242 N 0.87248 0.47221 0.39362 0.0
C243 C 0.88076 0.44382 0.38778 0.0
C244 C 0.84514 0.44455 0.42399 0.0
C245 C 0.85014 0.47286 0.41647 0.0
C246 C 0.89353 0.36948 0.45416 0.0
O247 O 0.868 0.38985 0.46043 0.0
H248 H 0.89754 0.43574 0.37 0.0
H249 H 0.82756 0.43776 0.44061 0.0
O250 O 0.86993 0.38008 0.35938 0.0
H251 H 0.74787 0.35607 0.43532 0.0
H252 H 0.83714 0.49237 0.42619 0.0
Cu253 Cu 0.63225 0.37164 0.89881 0.0
N254 N 0.63701 0.38507 0.86075 0.0
N255 N 0.63239 0.38642 0.81236 0.0
C256 C 0.61987 0.37597 0.83734 0.0
C257 C 0.65849 0.40261 0.82037 0.0
C258 C 0.66124 0.40179 0.85018 0.0
O259 O 0.58244 0.36408 0.90376 0.0
C260 C 0.69962 0.34111 0.90276 0.0
O261 O 0.70855 0.36769 0.89956 0.0
H262 H 0.60023 0.36049 0.83853 0.0
H263 H 0.68077 0.41152 0.86306 0.0
N264 N 0.644 0.39895 0.92625 0.0
N265 N 0.66251 0.41685 0.96784 0.0
C266 C 0.65164 0.39343 0.95443 0.0
C267 C 0.65005 0.42688 0.9219 0.0
C268 C 0.66182 0.4379 0.94752 0.0
C269 C 0.55912 0.3858 0.90683 0.0
O270 O 0.56989 0.41192 0.90814 0.0
H271 H 0.6507 0.37235 0.96458 0.0
H272 H 0.64692 0.43826 0.9014 0.0
O273 O 0.6666 0.33732 0.90343 0.0
H274 H 0.67523 0.41341 0.80564 0.0
H275 H 0.66981 0.45949 0.95091 0.0
Cu276 Cu 0.72384 0.40369 0.16947 0.0
N277 N 0.76784 0.39968 0.18847 0.0
N278 N 0.80659 0.39611 0.22535 0.0
C279 C 0.77348 0.40602 0.21646 0.0
C280 C 0.82232 0.38278 0.2021 0.0
C281 C 0.79837 0.3851 0.17934 0.0
O282 O 0.69218 0.43236 0.19056 0.0
C283 C 0.71868 0.34654 0.15084 0.0
O284 O 0.73873 0.35485 0.12976 0.0
H285 H 0.75295 0.41607 0.23053 0.0
H286 H 0.80232 0.37558 0.15807 0.0
N287 N 0.72838 0.41627 0.13098 0.0
N288 N 0.71789 0.42353 0.08348 0.0
C289 C 0.70675 0.41191 0.10848 0.0
C290 C 0.75412 0.4311 0.11998 0.0
C291 C 0.7477 0.43569 0.09084 0.0
C292 C 0.69641 0.45917 0.18704 0.0
O293 O 0.72172 0.46631 0.16977 0.0
H294 H 0.68426 0.39933 0.1104 0.0
H295 H 0.77607 0.43803 0.13232 0.0
O296 O 0.70741 0.36502 0.16997 0.0
H297 H 0.84883 0.37153 0.20182 0.0
H298 H 0.76387 0.44714 0.07623 0.0
Cu299 Cu 0.61935 0.27706 0.64576 0.0
N300 N 0.60565 0.31307 0.66273 0.0
N301 N 0.60181 0.34563 0.69862 0.0
C302 C 0.62036 0.32192 0.68733 0.0
C303 C 0.5743 0.35215 0.68026 0.0
C304 C 0.57663 0.33189 0.65819 0.0
O305 O 0.5898 0.25014 0.66519 0.0
C306 C 0.68908 0.29023 0.64325 0.0
O307 O 0.67215 0.31354 0.63141 0.0
H308 H 0.64293 0.30995 0.69785 0.0
H309 H 0.5574 0.33005 0.64111 0.0
N310 N 0.61244 0.27604 0.60558 0.0
N311 N 0.61986 0.25824 0.56067 0.0
C312 C 0.62875 0.25498 0.58892 0.0
C313 C 0.59254 0.29361 0.58723 0.0
C314 C 0.59708 0.28265 0.55942 0.0
C315 C 0.56911 0.23401 0.65242 0.0
O316 O 0.57068 0.2313 0.62414 0.0
H317 H 0.64653 0.23724 0.59762 0.0
H318 H 0.57615 0.31307 0.59346 0.0
O319 O 0.67092 0.26985 0.65173 0.0
H320 H 0.55342 0.36969 0.68302 0.0
H321 H 0.58524 0.29234 0.53986 0.0
Cu322 Cu 0.78612 0.17171 0.17176 0.0
N323 N 0.79742 0.17617 0.21078 0.0
N324 N 0.78823 0.17359 0.25845 0.0
C325 C 0.77783 0.16572 0.232 0.0
C326 C 0.81551 0.18976 0.2539 0.0
C327 C 0.82139 0.19112 0.22431 0.0
O328 O 0.77384 0.13181 0.1709 0.0
C329 C 0.75725 0.22729 0.16851 0.0
O330 O 0.78955 0.22984 0.17786 0.0
H331 H 0.7555 0.15332 0.22802 0.0
H332 H 0.84102 0.20279 0.21348 0.0
N333 N 0.82345 0.17638 0.14607 0.0
N334 N 0.84995 0.17973 0.10301 0.0
C335 C 0.81893 0.18253 0.11764 0.0
C336 C 0.85864 0.16969 0.1497 0.0
C337 C 0.87505 0.17157 0.12307 0.0
C338 C 0.79269 0.11172 0.15758 0.0
O339 O 0.8131 0.11873 0.13621 0.0
H340 H 0.79306 0.18677 0.10755 0.0
H341 H 0.87114 0.16227 0.16986 0.0
O342 O 0.7482 0.20208 0.16293 0.0
H343 H 0.83003 0.19982 0.2707 0.0
H344 H 0.90303 0.16625 0.11859 0.0
Cu345 Cu 0.91565 0.28869 0.6408 0.0
N346 N 0.92536 0.25466 0.66297 0.0
N347 N 0.92251 0.22596 0.70205 0.0
C348 C 0.90663 0.24859 0.68673 0.0
C349 C 0.95277 0.21761 0.68756 0.0
C350 C 0.95445 0.23532 0.66344 0.0
O351 O 0.94544 0.31622 0.65828 0.0
C352 C 0.84438 0.27855 0.63815 0.0
O353 O 0.85965 0.25322 0.62965 0.0
H354 H 0.88308 0.26193 0.69378 0.0
H355 H 0.97635 0.2352 0.64841 0.0
N356 N 0.92797 0.28466 0.60138 0.0
N357 N 0.92931 0.29661 0.55416 0.0
C358 C 0.91125 0.29988 0.57946 0.0
C359 C 0.9578 0.27136 0.58957 0.0
C360 C 0.9587 0.2787 0.5605 0.0
C361 C 0.9605 0.33585 0.64486 0.0
O362 O 0.95201 0.34185 0.61774 0.0
H363 H 0.8876 0.31474 0.58258 0.0
H364 H 0.97844 0.25855 0.60153 0.0
O365 O 0.86411 0.29876 0.64375 0.0
H366 H 0.97286 0.20067 0.69452 0.0
H367 H 0.97985 0.27208 0.54541 0.0
Cu368 Cu 0.39739 0.75818 0.14387 0.0
N369 N 0.41314 0.78451 0.17054 0.0
N370 N 0.42631 0.79975 0.21489 0.0
C371 C 0.42035 0.77682 0.19829 0.0
C372 C 0.42254 0.82297 0.19686 0.0
C373 C 0.41457 0.81348 0.16942 0.0
O374 O 0.42496 0.72189 0.1548 0.0
C375 C 0.32745 0.78308 0.14626 0.0
O376 O 0.34324 0.80563 0.13753 0.0
H377 H 0.41872 0.75503 0.20657 0.0
H378 H 0.40831 0.82698 0.15055 0.0
N379 N 0.4056 0.76658 0.10461 0.0
N380 N 0.40615 0.76217 0.05613 0.0
C381 C 0.39626 0.7509 0.08166 0.0
C382 C 0.42168 0.78867 0.0932 0.0
C383 C 0.42196 0.78608 0.06339 0.0
C384 C 0.45857 0.72184 0.1522 0.0
O385 O 0.47084 0.74394 0.13887 0.0
H386 H 0.38298 0.73129 0.0837 0.0
H387 H 0.43257 0.80546 0.10563 0.0
O388 O 0.34628 0.75883 0.14992 0.0
H389 H 0.42399 0.84531 0.2033 0.0
H390 H 0.4326 0.80093 0.04827 0.0
Cu391 Cu 0.38407 0.83716 0.40874 0.0
N392 N 0.41134 0.81159 0.38425 0.0
N393 N 0.42906 0.79795 0.33954 0.0
C394 C 0.40156 0.80816 0.35649 0.0
C395 C 0.4574 0.79448 0.35748 0.0
C396 C 0.44649 0.80323 0.38496 0.0
O397 O 0.39617 0.87436 0.39349 0.0
C398 C 0.32822 0.80283 0.40632 0.0
O399 O 0.35472 0.78308 0.4122 0.0
H400 H 0.37545 0.81589 0.34833 0.0
H401 H 0.46378 0.80654 0.40305 0.0
N402 N 0.3952 0.83295 0.44849 0.0
N403 N 0.39333 0.83973 0.49674 0.0
C404 C 0.37851 0.84761 0.47076 0.0
C405 C 0.4211 0.81497 0.46083 0.0
C406 C 0.42007 0.81912 0.49038 0.0
C407 C 0.41793 0.88912 0.4066 0.0
O408 O 0.4231 0.88501 0.43451 0.0
H409 H 0.35571 0.86345 0.46786 0.0
H410 H 0.43943 0.79979 0.44925 0.0
O411 O 0.33476 0.8293 0.4037 0.0
H412 H 0.48465 0.78918 0.35066 0.0
H413 H 0.43801 0.80794 0.506 0.0
Cu414 Cu 0.18398 0.89317 0.88222 0.0
N415 N 0.22614 0.90259 0.86524 0.0
N416 N 0.25942 0.9164 0.82861 0.0
C417 C 0.22792 0.90766 0.83655 0.0
C418 C 0.27852 0.91651 0.85341 0.0
C419 C 0.25779 0.90812 0.87607 0.0
O420 O 0.15037 0.92447 0.86596 0.0
C421 C 0.20668 0.83593 0.88472 0.0
O422 O 0.23039 0.84831 0.89986 0.0
H423 H 0.20603 0.90552 0.82184 0.0
H424 H 0.26524 0.9063 0.89868 0.0
N425 N 0.18284 0.89375 0.92305 0.0
N426 N 0.17029 0.87827 0.96774 0.0
C427 C 0.16398 0.87617 0.93902 0.0
C428 C 0.20197 0.90746 0.94232 0.0
C429 C 0.19424 0.89801 0.96985 0.0
C430 C 0.15938 0.94953 0.87289 0.0
O431 O 0.18358 0.9508 0.89314 0.0
H432 H 0.14748 0.86094 0.92946 0.0
H433 H 0.22096 0.9226 0.9368 0.0
O434 O 0.18126 0.85204 0.87268 0.0
H435 H 0.30574 0.92164 0.85505 0.0
H436 H 0.20579 0.90487 0.98985 0.0
Cu437 Cu 0.12229 0.74441 0.41663 0.0
N438 N 0.09574 0.77037 0.39174 0.0
N439 N 0.07502 0.78483 0.34796 0.0
C440 C 0.08933 0.76244 0.3643 0.0
C441 C 0.07228 0.808 0.36584 0.0
C442 C 0.08476 0.79896 0.39301 0.0
O443 O 0.10218 0.70837 0.408 0.0
C444 C 0.18217 0.77245 0.41058 0.0
O445 O 0.15858 0.79332 0.41936 0.0
H446 H 0.09765 0.741 0.35588 0.0
H447 H 0.08761 0.81261 0.41167 0.0
N448 N 0.11848 0.75035 0.45673 0.0
N449 N 0.12889 0.73969 0.50357 0.0
C450 C 0.12925 0.72948 0.47622 0.0
C451 C 0.11072 0.77472 0.4723 0.0
C452 C 0.11705 0.76817 0.50127 0.0
C453 C 0.06999 0.70826 0.41637 0.0
O454 O 0.05694 0.72907 0.43377 0.0
H455 H 0.13872 0.70743 0.47026 0.0
H456 H 0.10226 0.79589 0.46321 0.0
O457 O 0.1722 0.74707 0.40715 0.0
H458 H 0.06345 0.8301 0.35939 0.0
H459 H 0.1135 0.78322 0.51918 0.0
Cu460 Cu 0.32955 0.68056 0.8782 0.0
N461 N 0.34576 0.67775 0.83984 0.0
N462 N 0.34081 0.66505 0.79342 0.0
C463 C 0.32348 0.67323 0.81797 0.0
C464 C 0.37561 0.66503 0.7996 0.0
C465 C 0.37865 0.67277 0.82845 0.0
O466 O 0.32498 0.64003 0.88863 0.0
C467 C 0.26519 0.71731 0.89582 0.0
O468 O 0.26762 0.70448 0.92131 0.0
H469 H 0.29495 0.67407 0.82051 0.0
H470 H 0.40312 0.67279 0.84053 0.0
N471 N 0.36321 0.69388 0.90385 0.0
N472 N 0.38762 0.71267 0.94311 0.0
C473 C 0.35755 0.7111 0.92741 0.0
C474 C 0.39784 0.68391 0.90511 0.0
C475 C 0.41292 0.69548 0.92906 0.0
C476 C 0.30732 0.62287 0.87423 0.0
O477 O 0.28135 0.63386 0.85737 0.0
H478 H 0.33177 0.72156 0.93346 0.0
H479 H 0.41083 0.66791 0.89064 0.0
O480 O 0.28713 0.70859 0.87605 0.0
H481 H 0.39714 0.65801 0.785 0.0
H482 H 0.43996 0.69022 0.93649 0.0
Cu483 Cu 0.10395 0.81802 0.15034 0.0
N484 N 0.08844 0.79192 0.17772 0.0
N485 N 0.07599 0.77887 0.22329 0.0
C486 C 0.08101 0.80095 0.20494 0.0
C487 C 0.08 0.75478 0.20656 0.0
C488 C 0.08755 0.76291 0.17843 0.0
O489 O 0.06972 0.85214 0.15484 0.0
C490 C 0.17302 0.79681 0.15664 0.0
O491 O 0.15712 0.77378 0.14985 0.0
H492 H 0.08089 0.82345 0.21132 0.0
H493 H 0.09409 0.74853 0.16036 0.0
N494 N 0.10429 0.80852 0.1109 0.0
N495 N 0.1168 0.81592 0.06415 0.0
C496 C 0.12158 0.82408 0.09176 0.0
C497 C 0.08807 0.78943 0.0949 0.0
C498 C 0.0957 0.79403 0.06591 0.0
C499 C 0.03818 0.84727 0.14766 0.0
O500 O 0.03358 0.82184 0.13649 0.0
H501 H 0.13647 0.84189 0.09801 0.0
H502 H 0.0713 0.77383 0.10355 0.0
O503 O 0.15404 0.82118 0.15898 0.0
H504 H 0.08002 0.73265 0.21427 0.0
H505 H 0.08637 0.78227 0.04765 0.0
Cu506 Cu 0.19506 0.6703 0.6666 0.0
N507 N 0.19243 0.70659 0.68451 0.0
N508 N 0.2153 0.74781 0.69629 0.0
C509 C 0.22176 0.71893 0.69241 0.0
C510 C 0.18036 0.75406 0.69051 0.0
C511 C 0.16626 0.72853 0.68331 0.0
O512 O 0.19251 0.68023 0.62528 0.0
C513 C 0.242 0.64603 0.70701 0.0
O514 O 0.2123 0.64966 0.72187 0.0
H515 H 0.24816 0.70767 0.69171 0.0
H516 H 0.13988 0.72666 0.67492 0.0
N517 N 0.15808 0.64813 0.67817 0.0
N518 N 0.12921 0.61108 0.69418 0.0
C519 C 0.16109 0.62018 0.68744 0.0
C520 C 0.12301 0.65679 0.67892 0.0
C521 C 0.10515 0.63394 0.68858 0.0
C522 C 0.16858 0.67343 0.6078 0.0
O523 O 0.1473 0.6541 0.61581 0.0
H524 H 0.18614 0.60674 0.68921 0.0
H525 H 0.11125 0.67824 0.6728 0.0
O526 O 0.24098 0.65199 0.68 0.0
H527 H 0.16671 0.77576 0.68929 0.0
H528 H 0.07677 0.63426 0.69185 0.0
Cu529 Cu 0.35365 0.9013 0.66837 0.0
N530 N 0.35393 0.86331 0.68254 0.0
N531 N 0.32702 0.82357 0.69333 0.0
C532 C 0.32303 0.85133 0.68393 0.0
C533 C 0.36231 0.81777 0.69823 0.0
C534 C 0.3789 0.84246 0.69163 0.0
O535 O 0.34845 0.89798 0.62601 0.0
C536 C 0.32461 0.92105 0.7185 0.0
O537 O 0.35716 0.91097 0.7256 0.0
H538 H 0.29786 0.86301 0.67786 0.0
H539 H 0.40706 0.84472 0.69268 0.0
N540 N 0.39317 0.92162 0.6766 0.0
N541 N 0.42036 0.96007 0.69122 0.0
C542 C 0.38961 0.9503 0.68251 0.0
C543 C 0.4276 0.9127 0.68158 0.0
C544 C 0.44442 0.93638 0.6907 0.0
C545 C 0.37237 0.8799 0.61482 0.0
O546 O 0.39751 0.86769 0.63183 0.0
H547 H 0.36412 0.96319 0.68243 0.0
H548 H 0.4393 0.89045 0.6799 0.0
O549 O 0.3151 0.92031 0.69189 0.0
H550 H 0.37547 0.79697 0.70499 0.0
H551 H 0.47197 0.93598 0.69721 0.0
C552 C 0.04939 0.26728 0.791 0.0
C553 C 0.07736 0.25067 0.77683 0.0
C554 C 0.04748 0.2978 0.79157 0.0
C555 C 0.07322 0.31306 0.77774 0.0
H556 H 0.02916 0.25658 0.80221 0.0
H557 H 0.02568 0.30955 0.8031 0.0
S558 S 0.15006 0.2792 0.7352 0.0
N559 N 0.13032 0.25137 0.74754 0.0
N560 N 0.12653 0.30851 0.74763 0.0
C561 C 0.10104 0.29651 0.76297 0.0
C562 C 0.1031 0.26542 0.76274 0.0
C563 C 0.73961 0.65488 0.26954 0.0
C564 C 0.7189 0.6487 0.29361 0.0
C565 C 0.77546 0.65965 0.27272 0.0
C566 C 0.79215 0.65877 0.30015 0.0
H567 H 0.72838 0.65521 0.24791 0.0
H568 H 0.79041 0.6635 0.2533 0.0
S569 S 0.74871 0.64641 0.37054 0.0
N570 N 0.71707 0.64406 0.34623 0.0
N571 N 0.78435 0.65319 0.35206 0.0
C572 C 0.77133 0.65398 0.32457 0.0
C573 C 0.73481 0.64885 0.32134 0.0
C574 C 0.45663 0.30188 0.79392 0.0
C575 C 0.42708 0.31668 0.8079 0.0
C576 C 0.46102 0.27139 0.79237 0.0
C577 C 0.43592 0.25444 0.80461 0.0
H578 H 0.47641 0.31401 0.78384 0.0
H579 H 0.48383 0.261 0.78096 0.0
S580 S 0.35556 0.28159 0.84575 0.0
N581 N 0.37361 0.31129 0.83616 0.0
N582 N 0.38151 0.25417 0.83211 0.0
C583 C 0.40652 0.26872 0.81884 0.0
C584 C 0.40217 0.29976 0.82079 0.0
C585 C 0.68975 0.9451 0.27201 0.0
C586 C 0.68004 0.91803 0.28153 0.0
C587 C 0.72241 0.94742 0.25827 0.0
C588 C 0.74637 0.92275 0.25285 0.0
H589 H 0.67323 0.96496 0.27698 0.0
H590 H 0.7299 0.96893 0.25333 0.0
S591 S 0.7318 0.84641 0.26959 0.0
N592 N 0.69567 0.86558 0.28172 0.0
N593 N 0.75686 0.87017 0.25547 0.0
C594 C 0.73584 0.89534 0.25994 0.0
C595 C 0.70273 0.89293 0.2744 0.0
C596 C 0.76194 0.18834 0.30581 0.0
C597 C 0.77253 0.16648 0.28562 0.0
C598 C 0.74632 0.18154 0.33232 0.0
C599 C 0.74154 0.15258 0.33964 0.0
H600 H 0.76581 0.21076 0.301 0.0
H601 H 0.73941 0.19885 0.34767 0.0
S602 S 0.76461 0.08761 0.29401 0.0
N603 N 0.77645 0.11502 0.27438 0.0
N604 N 0.7481 0.10208 0.3244 0.0
C605 C 0.75168 0.13066 0.31944 0.0
C606 C 0.7669 0.13765 0.29235 0.0
C607 C 0.93696 0.21061 0.75256 0.0
C608 C 0.91183 0.21605 0.73017 0.0
C609 C 0.9265 0.20343 0.78073 0.0
C610 C 0.89062 0.20084 0.78743 0.0
H611 H 0.96473 0.21289 0.74849 0.0
H612 H 0.9466 0.20003 0.79747 0.0
S613 S 0.8147 0.21187 0.73621 0.0
N614 N 0.84969 0.21757 0.71638 0.0
N615 N 0.83006 0.20396 0.76914 0.0
C616 C 0.86538 0.20549 0.76504 0.0
C617 C 0.87597 0.21317 0.73649 0.0
C618 C 0.84898 0.37172 0.29671 0.0
C619 C 0.84005 0.39605 0.31441 0.0
C620 C 0.83928 0.37216 0.26716 0.0
C621 C 0.82038 0.39692 0.25449 0.0
H622 H 0.8618 0.35182 0.30604 0.0
H623 H 0.84507 0.35259 0.25452 0.0
S624 S 0.7965 0.46775 0.2903 0.0
N625 N 0.81528 0.44668 0.31615 0.0
N626 N 0.79737 0.44733 0.26098 0.0
C627 C 0.81351 0.42186 0.27155 0.0
C628 C 0.8233 0.42147 0.3014 0.0
C629 C 0.64351 0.36134 0.73514 0.0
C630 C 0.60841 0.3584 0.72635 0.0
C631 C 0.65104 0.37131 0.76294 0.0
C632 C 0.62379 0.37823 0.78324 0.0
H633 H 0.66535 0.35559 0.72042 0.0
H634 H 0.6785 0.3727 0.76893 0.0
S635 S 0.52741 0.37524 0.77081 0.0
N636 N 0.54607 0.36392 0.74001 0.0
N637 N 0.56027 0.38259 0.79231 0.0
C638 C 0.58854 0.37588 0.77461 0.0
C639 C 0.58083 0.36606 0.74615 0.0
C640 C 0.26865 0.81374 0.14684 0.0
C641 C 0.28832 0.78645 0.15139 0.0
C642 C 0.23152 0.81749 0.15008 0.0
C643 C 0.21249 0.79405 0.15786 0.0
H644 H 0.2819 0.83237 0.14011 0.0
H645 H 0.21754 0.83858 0.14529 0.0
S646 S 0.25122 0.71889 0.17531 0.0
N647 N 0.28578 0.73617 0.16632 0.0
N648 N 0.21627 0.74314 0.17235 0.0
C649 C 0.23189 0.76697 0.16368 0.0
C650 C 0.26967 0.76318 0.16046 0.0
C651 C 0.26226 0.81581 0.40569 0.0
C652 C 0.29128 0.79436 0.4047 0.0
C653 C 0.22726 0.80833 0.40672 0.0
C654 C 0.2196 0.77906 0.4066 0.0
H655 H 0.26655 0.83863 0.4065 0.0
H656 H 0.20603 0.82582 0.40812 0.0
S657 S 0.28584 0.71449 0.40157 0.0
N658 N 0.30989 0.74242 0.40173 0.0
N659 N 0.24403 0.72853 0.40363 0.0
C660 C 0.24824 0.75737 0.4044 0.0
C661 C 0.28403 0.76497 0.40349 0.0
C662 C 0.22655 0.78871 0.86109 0.0
C663 C 0.20984 0.80379 0.88448 0.0
C664 C 0.24204 0.75987 0.86436 0.0
C665 C 0.24176 0.7451 0.89128 0.0
H666 H 0.23021 0.79998 0.84083 0.0
H667 H 0.25632 0.74981 0.84608 0.0
S668 S 0.19717 0.77447 0.95824 0.0
N669 N 0.19087 0.80135 0.9345 0.0
N670 N 0.21946 0.74732 0.94084 0.0
C671 C 0.22251 0.75937 0.91414 0.0
C672 C 0.20682 0.78868 0.91071 0.0
C673 C 0.24174 0.79071 0.67739 0.0
C674 C 0.2422 0.76778 0.69747 0.0
C675 C 0.26962 0.80852 0.67612 0.0
C676 C 0.29903 0.80439 0.6951 0.0
H677 H 0.22024 0.79428 0.66186 0.0
H678 H 0.26837 0.82531 0.65963 0.0
S679 S 0.31119 0.74851 0.75329 0.0
N680 N 0.27348 0.74232 0.73745 0.0
N681 N 0.32549 0.77638 0.73582 0.0
C682 C 0.29938 0.7818 0.71573 0.0
C683 C 0.27107 0.76342 0.71675 0.0
C684 C 0.8846 0.80673 0.29838 0.0
C685 C 0.90445 0.82339 0.2802 0.0
C686 C 0.8893 0.77627 0.29788 0.0
C687 C 0.91425 0.76107 0.27932 0.0
H688 H 0.86424 0.81729 0.31229 0.0
H689 H 0.87238 0.76457 0.31163 0.0
S690 S 0.97536 0.79485 0.22938 0.0
N691 N 0.95151 0.82274 0.24434 0.0
N692 N 0.96076 0.7654 0.24364 0.0
C693 C 0.93505 0.77754 0.26159 0.0
C694 C 0.93009 0.80866 0.26202 0.0
C695 C 0.21337 0.40829 0.81267 0.0
C696 C 0.20383 0.40699 0.78313 0.0
C697 C 0.24883 0.40917 0.82139 0.0
C698 C 0.27637 0.40897 0.80096 0.0
H699 H 0.19318 0.40922 0.82936 0.0
H700 H 0.25449 0.41089 0.84431 0.0
S701 S 0.26635 0.40309 0.72103 0.0
N702 N 0.22543 0.40362 0.73355 0.0
N703 N 0.29196 0.40527 0.74978 0.0
C704 C 0.26745 0.40656 0.77138 0.0
C705 C 0.23129 0.40554 0.76252 0.0
C706 C 0.57923 0.77465 0.35611 0.0
C707 C 0.61445 0.77942 0.36324 0.0
C708 C 0.57067 0.74724 0.34682 0.0
C709 C 0.59716 0.72382 0.34406 0.0
H710 H 0.55829 0.79238 0.35728 0.0
H711 H 0.54357 0.7447 0.3405 0.0
S712 S 0.69296 0.72438 0.3609 0.0
N713 N 0.67569 0.75795 0.36736 0.0
N714 N 0.65939 0.70658 0.35062 0.0
C715 C 0.63212 0.72803 0.35207 0.0
C716 C 0.64084 0.75577 0.36149 0.0
C717 C 0.29097 0.1568 0.80398 0.0
C718 C 0.30623 0.16084 0.7765 0.0
C719 C 0.25424 0.15551 0.80747 0.0
C720 C 0.23092 0.15801 0.78362 0.0
H721 H 0.30758 0.15423 0.82314 0.0
H722 H 0.24421 0.15192 0.82903 0.0
S723 S 0.25668 0.17061 0.7071 0.0
N724 N 0.2946 0.16862 0.72512 0.0
N725 N 0.22574 0.16618 0.7315 0.0
C726 C 0.24564 0.1628 0.75605 0.0
C727 C 0.28313 0.16424 0.75254 0.0
C728 C 0.27367 0.90821 0.74808 0.0
C729 C 0.29962 0.92725 0.74263 0.0
C730 C 0.25933 0.90579 0.77599 0.0
C731 C 0.27062 0.92221 0.79938 0.0
H732 H 0.26678 0.89327 0.73143 0.0
H733 H 0.24111 0.88952 0.77968 0.0
S734 S 0.3333 0.97885 0.79469 0.0
N735 N 0.3329 0.9652 0.76168 0.0
N736 N 0.30533 0.96126 0.81387 0.0
C737 C 0.29427 0.94307 0.79345 0.0
C738 C 0.30887 0.94545 0.76512 0.0
C739 C 0.08629 0.80565 0.2999 0.0
C740 C 0.07146 0.78463 0.3168 0.0
C741 C 0.08723 0.80374 0.26956 0.0
C742 C 0.07299 0.78087 0.25465 0.0
H743 H 0.09866 0.82303 0.3103 0.0
H744 H 0.10041 0.8199 0.25786 0.0
S745 S 0.0271 0.72219 0.28928 0.0
N746 N 0.03994 0.74141 0.31678 0.0
N747 N 0.04067 0.73809 0.25971 0.0
C748 C 0.05674 0.7603 0.27143 0.0
C749 C 0.05619 0.76214 0.30244 0.0
C750 C 0.32533 0.66815 0.74141 0.0
C751 C 0.32456 0.65375 0.76825 0.0
C752 C 0.3012 0.66273 0.71926 0.0
C753 C 0.27558 0.64298 0.72365 0.0
H754 H 0.34254 0.68529 0.73846 0.0
H755 H 0.30046 0.67604 0.69986 0.0
S756 S 0.26923 0.59479 0.78742 0.0
N757 N 0.30133 0.61506 0.79577 0.0
N758 N 0.25559 0.60529 0.75466 0.0
C759 C 0.27771 0.62609 0.74906 0.0
C760 C 0.30228 0.63143 0.77131 0.0
C761 C 0.40919 0.82039 0.29272 0.0
C762 C 0.42952 0.79819 0.30819 0.0
C763 C 0.40923 0.8213 0.26233 0.0
C764 C 0.42917 0.79981 0.2461 0.0
H765 H 0.39337 0.83747 0.30419 0.0
H766 H 0.39277 0.83853 0.25142 0.0
S767 S 0.48777 0.73751 0.27587 0.0
N768 N 0.47092 0.75464 0.30485 0.0
N769 N 0.4707 0.75616 0.24765 0.0
C770 C 0.44996 0.77766 0.2612 0.0
C771 C 0.45027 0.77694 0.29223 0.0
C772 C 0.76401 0.32157 0.90063 0.0
C773 C 0.72815 0.31638 0.9046 0.0
C774 C 0.79166 0.29888 0.90142 0.0
C775 C 0.78476 0.26991 0.90622 0.0
H776 H 0.77095 0.34339 0.89652 0.0
H777 H 0.81861 0.30411 0.89783 0.0
S778 S 0.69575 0.24463 0.91965 0.0
N779 N 0.68755 0.28004 0.91468 0.0
N780 N 0.73918 0.23747 0.91631 0.0
C781 C 0.74906 0.26444 0.91083 0.0
C782 C 0.7209 0.2876 0.90998 0.0
C783 C 0.78576 0.25773 0.64292 0.0
C784 C 0.80496 0.28242 0.64162 0.0
C785 C 0.74844 0.26031 0.64467 0.0
C786 C 0.72866 0.2877 0.6448 0.0
H787 H 0.79962 0.23608 0.64233 0.0
H788 H 0.735 0.24068 0.64495 0.0
S789 S 0.76586 0.35923 0.64384 0.0
N790 N 0.80114 0.33518 0.64223 0.0
N791 N 0.73123 0.34014 0.64521 0.0
C792 C 0.74753 0.31259 0.64438 0.0
C793 C 0.78555 0.30993 0.6429 0.0
C794 C 0.72295 0.29604 0.13137 0.0
C795 C 0.71639 0.31496 0.1551 0.0
C796 C 0.73156 0.26607 0.13554 0.0
C797 C 0.73388 0.25413 0.16355 0.0
H798 H 0.72417 0.30472 0.10958 0.0
H799 H 0.73986 0.25275 0.11701 0.0
S800 S 0.71409 0.29308 0.23249 0.0
N801 N 0.70831 0.31867 0.20734 0.0
N802 N 0.72519 0.26242 0.215 0.0
C803 C 0.72405 0.2722 0.18715 0.0
C804 C 0.71497 0.30265 0.18297 0.0
C805 C 0.81161 0.27885 0.41413 0.0
C806 C 0.79237 0.30088 0.43041 0.0
C807 C 0.80862 0.2494 0.41953 0.0
C808 C 0.78595 0.24071 0.44121 0.0
H809 H 0.82878 0.28436 0.39663 0.0
H810 H 0.82314 0.23333 0.40589 0.0
S811 S 0.73077 0.28904 0.49095 0.0
N812 N 0.75074 0.31155 0.47005 0.0
N813 N 0.74463 0.25596 0.4797 0.0
C814 C 0.76668 0.26227 0.45784 0.0
C815 C 0.76989 0.29239 0.45251 0.0
C816 C 0.09521 0.56798 0.69424 0.0
C817 C 0.12213 0.5833 0.70611 0.0
C818 C 0.08739 0.5412 0.70607 0.0
C819 C 0.10546 0.52934 0.7307 0.0
H820 H 0.08034 0.5767 0.67555 0.0
H821 H 0.06664 0.52993 0.6963 0.0
S822 S 0.17783 0.56091 0.77007 0.0
N823 N 0.16698 0.58444 0.74368 0.0
N824 N 0.1515 0.53469 0.76638 0.0
C825 C 0.13227 0.54447 0.74281 0.0
C826 C 0.14082 0.57131 0.73038 0.0
C827 C 0.47085 0.68438 0.19152 0.0
C828 C 0.48357 0.7011 0.16897 0.0
C829 C 0.49427 0.66825 0.21055 0.0
C830 C 0.53146 0.66816 0.20794 0.0
H831 H 0.44256 0.68464 0.19531 0.0
H832 H 0.48294 0.65654 0.22807 0.0
S833 S 0.57856 0.70551 0.15044 0.0
N834 N 0.53602 0.71442 0.14353 0.0
N835 N 0.57983 0.68432 0.1794 0.0
C836 C 0.54457 0.68365 0.18466 0.0
C837 C 0.52071 0.70001 0.16518 0.0
C838 C 0.44833 0.99194 0.72585 0.0
C839 C 0.42481 0.98867 0.70267 0.0
C840 C 0.45056 1.0191 0.73901 0.0
C841 C 0.42945 0.04427 0.72959 0.0
H842 H 0.46441 0.9732 0.73452 0.0
H843 H 0.46888 1.02032 0.7569 0.0
S844 S 0.36475 0.04776 0.66865 0.0
N845 N 0.38154 1.01342 0.66967 0.0
N846 N 0.38442 0.06393 0.69513 0.0
C847 C 0.40635 0.04141 0.70598 0.0
C848 C 0.40433 1.01379 0.69243 0.0
C849 C 1.00997 0.89066 0.17459 0.0
C850 C 1.00641 0.86716 0.15599 0.0
C851 C 0.98004 0.90669 0.18647 0.0
C852 C 0.9452 0.89987 0.1804 0.0
H853 H 0.03607 0.89599 0.18109 0.0
H854 H 0.98452 0.92384 0.20155 0.0
S855 S 0.92107 0.84299 0.12968 0.0
N856 N 0.96493 0.83995 0.12939 0.0
N857 N 0.90894 0.86983 0.15215 0.0
C858 C 0.94116 0.87765 0.16037 0.0
C859 C 0.97166 0.86138 0.1481 0.0
C860 C 0.1147 0.98554 0.84717 0.0
C861 C 0.14992 0.97623 0.85518 0.0
C862 C 0.10606 1.013 0.83389 0.0
C863 C 0.13233 1.03201 0.82828 0.0
H864 H 0.0936 0.97212 0.8522 0.0
H865 H 0.07851 1.01983 0.82888 0.0
S866 S 0.22914 1.01556 0.84045 0.0
N867 N 0.21165 0.98676 0.85322 0.0
N868 N 0.19533 0.03784 0.82858 0.0
C869 C 0.16774 1.02215 0.8348 0.0
C870 C 0.17652 0.99441 0.84812 0.0
C871 C 0.98266 0.68069 0.39442 0.0
C872 C 0.99098 0.66638 0.36814 0.0
C873 C 1.00902 0.69232 0.4109 0.0
C874 C 0.04479 0.6903 0.40175 0.0
H875 H 0.9554 0.68391 0.40184 0.0
H876 H 1.00085 0.70414 0.43038 0.0
S877 S 0.08137 0.65218 0.33611 0.0
N878 N 0.03845 0.64848 0.33505 0.0
N879 N 0.08754 0.67069 0.36587 0.0
C880 C 0.05387 0.6745 0.37644 0.0
C881 C 0.02708 0.66252 0.35968 0.0
C882 C 0.29983 0.57128 0.8597 0.0
C883 C 0.32166 0.59177 0.87061 0.0
C884 C 0.31397 0.54298 0.85202 0.0
C885 C 0.35059 0.53427 0.85436 0.0
H886 H 0.27171 0.57737 0.85641 0.0
H887 H 0.29639 0.52815 0.84311 0.0
S888 S 0.41906 0.57853 0.88332 0.0
N889 N 0.38181 0.60037 0.88476 0.0
N890 N 0.40801 0.54757 0.86999 0.0
C891 C 0.3725 0.55411 0.86605 0.0
C892 C 0.35814 0.5827 0.87431 0.0
C893 C 0.46344 0.92452 0.40356 0.0
C894 C 0.44529 0.90316 0.38999 0.0
C895 C 0.49554 0.93261 0.39243 0.0
C896 C 0.51127 0.91918 0.36758 0.0
H897 H 0.45385 0.93384 0.42394 0.0
H898 H 0.50935 0.94794 0.40473 0.0
S899 S 0.47187 0.86525 0.32139 0.0
N900 N 0.44314 0.87147 0.34813 0.0
N901 N 0.50393 0.88617 0.32767 0.0
C902 C 0.49196 0.89956 0.35246 0.0
C903 C 0.45886 0.89169 0.36352 0.0
C904 C 0.66828 0.22553 0.53961 0.0
C905 C 0.63366 0.23954 0.5374 0.0
C906 C 0.68167 0.20522 0.5191 0.0
C907 C 0.66127 0.19805 0.49512 0.0
H908 H 0.68528 0.23018 0.55754 0.0
H909 H 0.7085 0.19506 0.52218 0.0
S910 S 0.56949 0.22932 0.4782 0.0
N911 N 0.57929 0.24531 0.50874 0.0
N912 N 0.60513 0.20745 0.46953 0.0
C913 C 0.62707 0.21262 0.49183 0.0
C914 C 0.61312 0.23328 0.51309 0.0
C915 C 0.87611 0.15856 0.05777 0.0
C916 C 0.85425 0.18053 0.07194 0.0
C917 C 0.87878 0.15794 1.02739 0.0
C918 C 0.86024 0.17958 1.01008 0.0
H919 H 0.89055 0.14133 0.07025 0.0
H920 H 0.89567 0.14054 1.01733 0.0
S921 S 0.80005 0.2421 0.03658 0.0
N922 N 0.81408 0.22458 0.06638 0.0
N923 N 0.81939 0.22361 1.00936 0.0
C924 C 0.83873 0.20189 1.024 0.0
C925 C 0.83562 0.20228 0.05489 0.0
C926 C 0.94765 0.32226 0.50978 0.0
C927 C 0.9208 0.31182 0.52711 0.0
C928 C 0.9392 0.3397 0.485 0.0
C929 C 0.90365 0.34728 0.47685 0.0
H930 H 0.97525 0.31797 0.51608 0.0
H931 H 0.96043 0.34838 0.47304 0.0
S932 S 0.82401 0.32192 0.51214 0.0
N933 N 0.85764 0.30759 0.53204 0.0
N934 N 0.84176 0.34063 0.48632 0.0
C935 C 0.87684 0.33567 0.49311 0.0
C936 C 0.8854 0.3179 0.51801 0.0
C937 C 0.7117 0.42175 1.00179 0.0
C938 C 0.67581 0.41821 0.99692 0.0
C939 C 0.72517 0.42324 1.03004 0.0
C940 C 0.70309 0.4218 0.05457 0.0
H941 H 0.72951 0.423 0.98356 0.0
H942 H 0.75326 0.42523 1.03255 0.0
S943 S 0.60595 0.41484 0.05247 0.0
N944 N 0.61804 0.41408 1.01807 0.0
N945 N 0.64246 0.41833 0.07129 0.0
C946 C 0.66675 0.41877 0.04969 0.0
C947 C 0.65334 0.41666 1.02084 0.0
C948 C 0.89218 0.51987 0.33025 0.0
C949 C 0.90147 0.54524 0.34386 0.0
C950 C 0.88319 0.49592 0.34661 0.0
C951 C 0.88291 0.49656 0.37715 0.0
H952 H 0.89089 0.51885 0.30684 0.0
H953 H 0.87551 0.47703 0.33532 0.0
S954 S 0.90995 0.55594 0.42326 0.0
N955 N 0.91357 0.56809 0.38979 0.0
N956 N 0.89572 0.52345 0.42025 0.0
C957 C 0.89326 0.52132 0.39097 0.0
C958 C 0.9028 0.54554 0.37441 0.0
C959 C 0.45922 0.40659 0.9098 0.0
C960 C 0.44467 0.38207 0.89865 0.0
C961 C 0.49601 0.40693 0.91358 0.0
C962 C 0.52014 0.38279 0.90636 0.0
H963 H 0.44217 0.42623 0.91457 0.0
H964 H 0.50565 0.42678 0.92138 0.0
S965 S 0.49593 0.31219 0.87833 0.0
N966 N 0.4575 0.33205 0.88224 0.0
N967 N 0.52652 0.33293 0.88908 0.0
C968 C 0.50594 0.35752 0.89664 0.0
C969 C 0.46831 0.3571 0.89289 0.0
C970 C 0.67224 1.02584 0.44474 0.0
C971 C 0.69019 0.04139 0.42428 0.0
C972 C 0.66008 0.99906 0.43779 0.0
C973 C 0.66617 0.98631 0.41025 0.0
H974 H 0.66745 1.0346 0.46628 0.0
H975 H 0.64576 0.98835 0.4543 0.0
S976 S 0.71391 1.0185 0.34946 0.0
N977 N 0.71387 0.0428 0.37561 0.0
N978 N 0.69281 0.99171 0.36261 0.0
C979 C 0.68434 1.00189 0.38954 0.0
C980 C 0.69597 1.02957 0.39657 0.0
C981 C 0.04803 0.16792 0.89194 0.0
C982 C 0.06356 0.19081 0.87833 0.0
C983 C 0.01295 0.17155 0.90203 0.0
C984 C 0.99161 0.1982 0.89889 0.0
H985 H 0.06244 0.14651 0.89354 0.0
H986 H 1.00201 0.15272 0.91113 0.0
S987 S 0.02114 0.26645 0.86903 0.0
N988 N 0.05612 0.24232 0.86554 0.0
N989 N 0.99003 0.2489 0.88432 0.0
C990 C 1.00761 0.22197 0.88751 0.0
C991 C 0.04359 0.21834 0.87729 0.0
C992 C 0.79418 0.07974 0.2017 0.0
C993 C 0.80032 0.08281 0.17174 0.0
C994 C 0.80747 0.05459 0.21689 0.0
C995 C 0.82685 1.03134 0.20266 0.0
H996 H 0.78039 0.09739 0.21387 0.0
H997 H 0.80277 0.05335 0.23999 0.0
S998 S 0.84855 1.02751 0.1243 0.0
N999 N 0.82585 0.05966 0.12827 0.0
N1000 N 0.85054 1.01242 0.15685 0.0
C1001 C 0.83197 1.03357 0.17258 0.0
C1002 C 0.81876 0.05926 0.15714 0.0
C1003 C 0.04326 0.34138 0.69057 0.0
C1004 C 0.05467 0.36835 0.68235 0.0
C1005 C 0.01228 0.33162 0.67899 0.0
C1006 C 0.99162 0.3481 0.65823 0.0
H1007 H 0.05793 0.32785 0.70664 0.0
H1008 H 1.00488 0.31066 0.68605 0.0
S1009 S 1.00974 0.42026 0.62933 0.0
N1010 N 0.04247 0.41163 0.65251 0.0
N1011 N 0.98483 0.39284 0.62992 0.0
C1012 C 1.0028 0.37503 0.64962 0.0
C1013 C 0.03408 0.38527 0.66191 0.0
C1014 C 0.6644 0.47924 0.23154 0.0
C1015 C 0.67415 0.48249 0.20237 0.0
C1016 C 0.64719 0.50275 0.2471 0.0
C1017 C 0.63894 0.5302 0.23394 0.0
H1018 H 0.67147 0.45883 0.24275 0.0
H1019 H 0.64148 0.49972 0.26984 0.0
S1020 S 0.65336 0.54816 0.15657 0.0
N1021 N 0.67097 0.51419 0.16014 0.0
N1022 N 0.6377 0.5578 0.18887 0.0
C1023 C 0.64667 0.53302 0.20428 0.0
C1024 C 0.6645 0.50932 0.18864 0.0
C1025 C 0.49361 0.23036 0.70624 0.0
C1026 C 0.47633 0.20645 0.69672 0.0
C1027 C 0.52445 0.23822 0.69263 0.0
C1028 C 0.53905 0.22288 0.66848 0.0
H1029 H 0.48345 0.24307 0.72465 0.0
H1030 H 0.53629 0.25705 0.70061 0.0
S1031 S 0.50465 0.15816 0.63529 0.0
N1032 N 0.47689 0.16689 0.66221 0.0
N1033 N 0.53419 0.1822 0.63593 0.0
C1034 C 0.52223 0.19878 0.65881 0.0
C1035 C 0.49114 0.1904 0.67311 0.0
C1036 C 0.3892 0.83122 0.54949 0.0
C1037 C 0.38339 0.85011 0.52557 0.0
C1038 C 0.38383 0.84105 0.57797 0.0
C1039 C 0.37194 0.87021 0.58408 0.0
H1040 H 0.39868 0.80859 0.54624 0.0
H1041 H 0.38981 0.82564 0.5955 0.0
S1042 S 0.35115 0.92864 0.52964 0.0
N1043 N 0.36397 0.89961 0.51008 0.0
N1044 N 0.35307 0.91782 0.56386 0.0
C1045 C 0.36431 0.8892 0.56051 0.0
C1046 C 0.3702 0.87923 0.53124 0.0
C1047 C 0.16484 0.8386 0.03909 0.0
C1048 C 0.13044 0.82945 0.03871 0.0
C1049 C 0.17774 0.85413 1.01579 0.0
C1050 C 0.1567 0.86142 0.9911 0.0
H1051 H 0.18191 0.8338 0.05772 0.0
H1052 H 0.20448 0.86046 1.01715 0.0
S1053 S 0.06395 0.8437 0.97995 0.0
N1054 N 0.07527 0.82924 1.01184 0.0
N1055 N 0.0991 0.85877 0.96822 0.0
C1056 C 0.12224 0.8522 0.99036 0.0
C1057 C 0.10923 0.83616 1.01408 0.0
C1058 C 0.14072 0.6787 0.55835 0.0
C1059 C 0.16127 0.69004 0.58027 0.0
C1060 C 0.13065 0.6949 0.53329 0.0
C1061 C 0.14007 0.72335 0.52935 0.0
H1062 H 0.13202 0.65717 0.56064 0.0
H1063 H 0.11465 0.68535 0.51713 0.0
S1064 S 0.19471 0.763 0.57949 0.0
N1065 N 0.19158 0.73145 0.59575 0.0
N1066 N 0.17231 0.76179 0.54883 0.0
C1067 C 0.16098 0.73488 0.55082 0.0
C1068 C 0.17172 0.71824 0.57617 0.0
C1069 C 0.37015 0.73796 1.02011 0.0
C1070 C 0.40132 0.75074 1.02732 0.0
C1071 C 0.36525 0.72641 0.99232 0.0
C1072 C 0.39158 0.72677 0.97076 0.0
H1073 H 0.34933 0.73698 0.03606 0.0
H1074 H 0.34111 0.71642 0.98792 0.0
S1075 S 0.47783 0.75792 0.97834 0.0
N1076 N 0.45881 0.76303 1.01035 0.0
N1077 N 0.44943 0.74178 0.95834 0.0
C1078 C 0.42263 0.73977 0.97761 0.0
C1079 C 0.42753 0.75164 1.00577 0.0
loop_
_geom_bond_atom_site_label_1
_geom_bond_atom_site_label_2
_geom_bond_distance
_geom_bond_site_symmetry_2
_ccdc_geom_bond_type
Cu0 N1 1.999 . S
Cu0 O6 1.974 . S
Cu0 N11 1.985 . S
Cu0 O20 1.959 . S
N1 Cu0 1.999 . S
N1 C3 1.263 . S
N1 C5 1.389 . S
N2 C3 1.358 . S
N2 C4 1.400 . S
C3 N1 1.263 . S
C3 N2 1.358 . S
C3 H9 0.930 . S
C4 N2 1.400 . S
C4 C5 1.351 . S
C4 H21 0.930 . S
C5 N1 1.389 . S
C5 C4 1.351 . S
C5 H10 0.930 . S
O6 Cu0 1.974 . S
O6 C16 1.282 . S
C7 O8 1.261 . S
C7 O20 1.251 . S
O8 C7 1.261 . S
H9 C3 0.930 . S
H10 C5 0.930 . S
N11 Cu0 1.985 . S
N11 C13 1.335 . S
N11 C14 1.390 . S
N12 C13 1.345 . S
N12 C15 1.336 . S
C13 N11 1.335 . S
C13 N12 1.345 . S
C13 H18 0.930 . S
C14 N11 1.390 . S
C14 C15 1.346 . S
C14 H19 0.930 . S
C15 N12 1.336 . S
C15 C14 1.346 . S
C15 H22 0.929 . S
C16 O6 1.282 . S
C16 O17 1.216 . S
O17 C16 1.216 . S
H18 C13 0.930 . S
H19 C14 0.930 . S
O20 Cu0 1.959 . S
O20 C7 1.251 . S
H21 C4 0.930 . S
H22 C15 0.929 . S
Cu23 N24 1.999 . S
Cu23 O29 1.974 . S
Cu23 N34 1.985 . S
Cu23 O43 1.959 . S
N24 Cu23 1.999 . S
N24 C26 1.263 . S
N24 C28 1.389 . S
N25 C26 1.358 . S
N25 C27 1.400 . S
C26 N24 1.263 . S
C26 N25 1.358 . S
C26 H32 0.930 . S
C27 N25 1.400 . S
C27 C28 1.351 . S
C27 H44 0.930 . S
C28 N24 1.389 . S
C28 C27 1.351 . S
C28 H33 0.930 . S
O29 Cu23 1.974 . S
O29 C39 1.282 . S
C30 O31 1.261 . S
C30 O43 1.251 . S
O31 C30 1.261 . S
H32 C26 0.930 . S
H33 C28 0.930 . S
N34 Cu23 1.985 . S
N34 C36 1.335 . S
N34 C37 1.390 . S
N35 C36 1.345 . S
N35 C38 1.336 . S
C36 N34 1.335 . S
C36 N35 1.345 . S
C36 H41 0.930 . S
C37 N34 1.390 . S
C37 C38 1.346 . S
C37 H42 0.930 . S
C38 N35 1.336 . S
C38 C37 1.346 . S
C38 H45 0.929 . S
C39 O29 1.282 . S
C39 O40 1.216 . S
O40 C39 1.216 . S
H41 C36 0.930 . S
H42 C37 0.930 . S
O43 Cu23 1.959 . S
O43 C30 1.251 . S
H44 C27 0.930 . S
H45 C38 0.929 . S
Cu46 N47 1.999 . S
Cu46 O52 1.974 . S
Cu46 N57 1.985 . S
Cu46 O66 1.959 . S
N47 Cu46 1.999 . S
N47 C49 1.263 . S
N47 C51 1.389 . S
N48 C49 1.358 . S
N48 C50 1.400 . S
C49 N47 1.263 . S
C49 N48 1.358 . S
C49 H55 0.930 . S
C50 N48 1.400 . S
C50 C51 1.351 . S
C50 H67 0.930 . S
C51 N47 1.389 . S
C51 C50 1.351 . S
C51 H56 0.930 . S
O52 Cu46 1.974 . S
O52 C62 1.282 . S
C53 O54 1.261 . S
C53 O66 1.251 . S
O54 C53 1.261 . S
H55 C49 0.930 . S
H56 C51 0.930 . S
N57 Cu46 1.985 . S
N57 C59 1.335 . S
N57 C60 1.390 . S
N58 C59 1.345 . S
N58 C61 1.336 . S
C59 N57 1.335 . S
C59 N58 1.345 . S
C59 H64 0.930 . S
C60 N57 1.390 . S
C60 C61 1.346 . S
C60 H65 0.930 . S
C61 N58 1.336 . S
C61 C60 1.346 . S
C61 H68 0.929 . S
C62 O52 1.282 . S
C62 O63 1.216 . S
O63 C62 1.216 . S
H64 C59 0.930 . S
H65 C60 0.930 . S
O66 Cu46 1.959 . S
O66 C53 1.251 . S
H67 C50 0.930 . S
H68 C61 0.929 . S
Cu69 N70 1.999 . S
Cu69 O75 1.974 . S
Cu69 N80 1.985 . S
Cu69 O89 1.959 . S
N70 Cu69 1.999 . S
N70 C72 1.263 . S
N70 C74 1.389 . S
N71 C72 1.358 . S
N71 C73 1.400 . S
C72 N70 1.263 . S
C72 N71 1.358 . S
C72 H78 0.930 . S
C73 N71 1.400 . S
C73 C74 1.351 . S
C73 H90 0.930 . S
C74 N70 1.389 . S
C74 C73 1.351 . S
C74 H79 0.930 . S
O75 Cu69 1.974 . S
O75 C85 1.282 . S
C76 O77 1.261 . S
C76 O89 1.251 . S
O77 C76 1.261 . S
H78 C72 0.930 . S
H79 C74 0.930 . S
N80 Cu69 1.985 . S
N80 C82 1.335 . S
N80 C83 1.390 . S
N81 C82 1.345 . S
N81 C84 1.336 . S
C82 N80 1.335 . S
C82 N81 1.345 . S
C82 H87 0.930 . S
C83 N80 1.390 . S
C83 C84 1.346 . S
C83 H88 0.930 . S
C84 N81 1.336 . S
C84 C83 1.346 . S
C84 H91 0.929 . S
C85 O75 1.282 . S
C85 O86 1.216 . S
O86 C85 1.216 . S
H87 C82 0.930 . S
H88 C83 0.930 . S
O89 Cu69 1.959 . S
O89 C76 1.251 . S
H90 C73 0.930 . S
H91 C84 0.929 . S
Cu92 N93 1.999 . S
Cu92 O98 1.974 . S
Cu92 N103 1.985 . S
Cu92 O112 1.959 . S
N93 Cu92 1.999 . S
N93 C95 1.263 . S
N93 C97 1.389 . S
N94 C95 1.358 . S
N94 C96 1.400 . S
C95 N93 1.263 . S
C95 N94 1.358 . S
C95 H101 0.930 . S
C96 N94 1.400 . S
C96 C97 1.351 . S
C96 H113 0.930 . S
C97 N93 1.389 . S
C97 C96 1.351 . S
C97 H102 0.930 . S
O98 Cu92 1.974 . S
O98 C108 1.282 . S
C99 O100 1.261 . S
C99 O112 1.251 . S
O100 C99 1.261 . S
H101 C95 0.930 . S
H102 C97 0.930 . S
N103 Cu92 1.985 . S
N103 C105 1.335 . S
N103 C106 1.390 . S
N104 C105 1.345 . S
N104 C107 1.336 . S
C105 N103 1.335 . S
C105 N104 1.345 . S
C105 H110 0.930 . S
C106 N103 1.390 . S
C106 C107 1.346 . S
C106 H111 0.930 . S
C107 N104 1.336 . S
C107 C106 1.346 . S
C107 H114 0.929 . S
C108 O98 1.282 . S
C108 O109 1.216 . S
O109 C108 1.216 . S
H110 C105 0.930 . S
H111 C106 0.930 . S
O112 Cu92 1.959 . S
O112 C99 1.251 . S
H113 C96 0.930 . S
H114 C107 0.929 . S
Cu115 N116 1.999 . S
Cu115 O121 1.974 . S
Cu115 N126 1.985 . S
Cu115 O135 1.959 . S
N116 Cu115 1.999 . S
N116 C118 1.263 . S
N116 C120 1.389 . S
N117 C118 1.358 . S
N117 C119 1.400 . S
C118 N116 1.263 . S
C118 N117 1.358 . S
C118 H124 0.930 . S
C119 N117 1.400 . S
C119 C120 1.351 . S
C119 H136 0.930 . S
C120 N116 1.389 . S
C120 C119 1.351 . S
C120 H125 0.930 . S
O121 Cu115 1.974 . S
O121 C131 1.282 . S
C122 O123 1.261 . S
C122 O135 1.251 . S
O123 C122 1.261 . S
H124 C118 0.930 . S
H125 C120 0.930 . S
N126 Cu115 1.985 . S
N126 C128 1.335 . S
N126 C129 1.390 . S
N127 C128 1.345 . S
N127 C130 1.336 . S
C128 N126 1.335 . S
C128 N127 1.345 . S
C128 H133 0.930 . S
C129 N126 1.390 . S
C129 C130 1.346 . S
C129 H134 0.930 . S
C130 N127 1.336 . S
C130 C129 1.346 . S
C130 H137 0.929 . S
C131 O121 1.282 . S
C131 O132 1.216 . S
O132 C131 1.216 . S
H133 C128 0.930 . S
H134 C129 0.930 . S
O135 Cu115 1.959 . S
O135 C122 1.251 . S
H136 C119 0.930 . S
H137 C130 0.929 . S
Cu138 N139 1.999 . S
Cu138 O144 1.974 . S
Cu138 N149 1.985 . S
Cu138 O158 1.959 . S
N139 Cu138 1.999 . S
N139 C141 1.263 . S
N139 C143 1.389 . S
N140 C141 1.358 . S
N140 C142 1.400 . S
C141 N139 1.263 . S
C141 N140 1.358 . S
C141 H147 0.930 . S
C142 N140 1.400 . S
C142 C143 1.351 . S
C142 H159 0.930 . S
C143 N139 1.389 . S
C143 C142 1.351 . S
C143 H148 0.930 . S
O144 Cu138 1.974 . S
O144 C154 1.282 . S
C145 O146 1.261 . S
C145 O158 1.251 . S
O146 C145 1.261 . S
H147 C141 0.930 . S
H148 C143 0.930 . S
N149 Cu138 1.985 . S
N149 C151 1.335 . S
N149 C152 1.390 . S
N150 C151 1.345 . S
N150 C153 1.336 . S
C151 N149 1.335 . S
C151 N150 1.345 . S
C151 H156 0.930 . S
C152 N149 1.390 . S
C152 C153 1.346 . S
C152 H157 0.930 . S
C153 N150 1.336 . S
C153 C152 1.346 . S
C153 H160 0.929 . S
C154 O144 1.282 . S
C154 O155 1.216 . S
O155 C154 1.216 . S
H156 C151 0.930 . S
H157 C152 0.930 . S
O158 Cu138 1.959 . S
O158 C145 1.251 . S
H159 C142 0.930 . S
H160 C153 0.929 . S
Cu161 N162 1.999 . S
Cu161 O167 1.974 . S
Cu161 N172 1.985 . S
Cu161 O181 1.959 . S
N162 Cu161 1.999 . S
N162 C164 1.263 . S
N162 C166 1.389 . S
N163 C164 1.358 . S
N163 C165 1.400 . S
C164 N162 1.263 . S
C164 N163 1.358 . S
C164 H170 0.930 . S
C165 N163 1.400 . S
C165 C166 1.351 . S
C165 H182 0.930 . S
C166 N162 1.389 . S
C166 C165 1.351 . S
C166 H171 0.930 . S
O167 Cu161 1.974 . S
O167 C177 1.282 . S
C168 O169 1.261 . S
C168 O181 1.251 . S
O169 C168 1.261 . S
H170 C164 0.930 . S
H171 C166 0.930 . S
N172 Cu161 1.985 . S
N172 C174 1.335 . S
N172 C175 1.390 . S
N173 C174 1.345 . S
N173 C176 1.336 . S
C174 N172 1.335 . S
C174 N173 1.345 . S
C174 H179 0.930 . S
C175 N172 1.390 . S
C175 C176 1.346 . S
C175 H180 0.930 . S
C176 N173 1.336 . S
C176 C175 1.346 . S
C176 H183 0.929 . S
C177 O167 1.282 . S
C177 O178 1.216 . S
O178 C177 1.216 . S
H179 C174 0.930 . S
H180 C175 0.930 . S
O181 Cu161 1.959 . S
O181 C168 1.251 . S
H182 C165 0.930 . S
H183 C176 0.929 . S
Cu184 N185 1.999 . S
Cu184 O190 1.974 . S
Cu184 N195 1.985 . S
Cu184 O204 1.959 . S
N185 Cu184 1.999 . S
N185 C187 1.263 . S
N185 C189 1.389 . S
N186 C187 1.358 . S
N186 C188 1.400 . S
C187 N185 1.263 . S
C187 N186 1.358 . S
C187 H193 0.930 . S
C188 N186 1.400 . S
C188 C189 1.351 . S
C188 H205 0.930 . S
C189 N185 1.389 . S
C189 C188 1.351 . S
C189 H194 0.930 . S
O190 Cu184 1.974 . S
O190 C200 1.282 . S
C191 O192 1.261 . S
C191 O204 1.251 . S
O192 C191 1.261 . S
H193 C187 0.930 . S
H194 C189 0.930 . S
N195 Cu184 1.985 . S
N195 C197 1.335 . S
N195 C198 1.390 . S
N196 C197 1.345 . S
N196 C199 1.336 . S
C197 N195 1.335 . S
C197 N196 1.345 . S
C197 H202 0.930 . S
C198 N195 1.390 . S
C198 C199 1.346 . S
C198 H203 0.930 . S
C199 N196 1.336 . S
C199 C198 1.346 . S
C199 H206 0.929 . S
C200 O190 1.282 . S
C200 O201 1.216 . S
O201 C200 1.216 . S
H202 C197 0.930 . S
H203 C198 0.930 . S
O204 Cu184 1.959 . S
O204 C191 1.251 . S
H205 C188 0.930 . S
H206 C199 0.929 . S
Cu207 N208 1.999 . S
Cu207 O213 1.974 . S
Cu207 N218 1.985 . S
Cu207 O227 1.959 . S
N208 Cu207 1.999 . S
N208 C210 1.263 . S
N208 C212 1.389 . S
N209 C210 1.358 . S
N209 C211 1.400 . S
C210 N208 1.263 . S
C210 N209 1.358 . S
C210 H216 0.930 . S
C211 N209 1.400 . S
C211 C212 1.351 . S
C211 H228 0.930 . S
C212 N208 1.389 . S
C212 C211 1.351 . S
C212 H217 0.930 . S
O213 Cu207 1.974 . S
O213 C223 1.282 . S
C214 O215 1.261 . S
C214 O227 1.251 . S
O215 C214 1.261 . S
H216 C210 0.930 . S
H217 C212 0.930 . S
N218 Cu207 1.985 . S
N218 C220 1.335 . S
N218 C221 1.390 . S
N219 C220 1.345 . S
N219 C222 1.336 . S
C220 N218 1.335 . S
C220 N219 1.345 . S
C220 H225 0.930 . S
C221 N218 1.390 . S
C221 C222 1.346 . S
C221 H226 0.930 . S
C222 N219 1.336 . S
C222 C221 1.346 . S
C222 H229 0.929 . S
C223 O213 1.282 . S
C223 O224 1.216 . S
O224 C223 1.216 . S
H225 C220 0.930 . S
H226 C221 0.930 . S
O227 Cu207 1.959 . S
O227 C214 1.251 . S
H228 C211 0.930 . S
H229 C222 0.929 . S
Cu230 N231 1.999 . S
Cu230 O236 1.974 . S
Cu230 N241 1.985 . S
Cu230 O250 1.959 . S
N231 Cu230 1.999 . S
N231 C233 1.263 . S
N231 C235 1.389 . S
N232 C233 1.358 . S
N232 C234 1.400 . S
C233 N231 1.263 . S
C233 N232 1.358 . S
C233 H239 0.930 . S
C234 N232 1.400 . S
C234 C235 1.351 . S
C234 H251 0.930 . S
C235 N231 1.389 . S
C235 C234 1.351 . S
C235 H240 0.930 . S
O236 Cu230 1.974 . S
O236 C246 1.282 . S
C237 O238 1.261 . S
C237 O250 1.251 . S
O238 C237 1.261 . S
H239 C233 0.930 . S
H240 C235 0.930 . S
N241 Cu230 1.985 . S
N241 C243 1.335 . S
N241 C244 1.390 . S
N242 C243 1.345 . S
N242 C245 1.336 . S
C243 N241 1.335 . S
C243 N242 1.345 . S
C243 H248 0.930 . S
C244 N241 1.390 . S
C244 C245 1.346 . S
C244 H249 0.930 . S
C245 N242 1.336 . S
C245 C244 1.346 . S
C245 H252 0.929 . S
C246 O236 1.282 . S
C246 O247 1.216 . S
O247 C246 1.216 . S
H248 C243 0.930 . S
H249 C244 0.930 . S
O250 Cu230 1.959 . S
O250 C237 1.251 . S
H251 C234 0.930 . S
H252 C245 0.929 . S
Cu253 N254 1.999 . S
Cu253 O259 1.974 . S
Cu253 N264 1.985 . S
Cu253 O273 1.959 . S
N254 Cu253 1.999 . S
N254 C256 1.263 . S
N254 C258 1.389 . S
N255 C256 1.358 . S
N255 C257 1.400 . S
C256 N254 1.263 . S
C256 N255 1.358 . S
C256 H262 0.930 . S
C257 N255 1.400 . S
C257 C258 1.351 . S
C257 H274 0.930 . S
C258 N254 1.389 . S
C258 C257 1.351 . S
C258 H263 0.930 . S
O259 Cu253 1.974 . S
O259 C269 1.282 . S
C260 O261 1.261 . S
C260 O273 1.251 . S
O261 C260 1.261 . S
H262 C256 0.930 . S
H263 C258 0.930 . S
N264 Cu253 1.985 . S
N264 C266 1.335 . S
N264 C267 1.390 . S
N265 C266 1.345 . S
N265 C268 1.336 . S
C266 N264 1.335 . S
C266 N265 1.345 . S
C266 H271 0.930 . S
C267 N264 1.390 . S
C267 C268 1.346 . S
C267 H272 0.930 . S
C268 N265 1.336 . S
C268 C267 1.346 . S
C268 H275 0.929 . S
C269 O259 1.282 . S
C269 O270 1.216 . S
O270 C269 1.216 . S
H271 C266 0.930 . S
H272 C267 0.930 . S
O273 Cu253 1.959 . S
O273 C260 1.251 . S
H274 C257 0.930 . S
H275 C268 0.929 . S
Cu276 N277 1.999 . S
Cu276 O282 1.974 . S
Cu276 N287 1.985 . S
Cu276 O296 1.959 . S
N277 Cu276 1.999 . S
N277 C279 1.263 . S
N277 C281 1.389 . S
N278 C279 1.358 . S
N278 C280 1.400 . S
C279 N277 1.263 . S
C279 N278 1.358 . S
C279 H285 0.930 . S
C280 N278 1.400 . S
C280 C281 1.351 . S
C280 H297 0.930 . S
C281 N277 1.389 . S
C281 C280 1.351 . S
C281 H286 0.930 . S
O282 Cu276 1.974 . S
O282 C292 1.282 . S
C283 O284 1.261 . S
C283 O296 1.251 . S
O284 C283 1.261 . S
H285 C279 0.930 . S
H286 C281 0.930 . S
N287 Cu276 1.985 . S
N287 C289 1.335 . S
N287 C290 1.390 . S
N288 C289 1.345 . S
N288 C291 1.336 . S
C289 N287 1.335 . S
C289 N288 1.345 . S
C289 H294 0.930 . S
C290 N287 1.390 . S
C290 C291 1.346 . S
C290 H295 0.930 . S
C291 N288 1.336 . S
C291 C290 1.346 . S
C291 H298 0.929 . S
C292 O282 1.282 . S
C292 O293 1.216 . S
O293 C292 1.216 . S
H294 C289 0.930 . S
H295 C290 0.930 . S
O296 Cu276 1.959 . S
O296 C283 1.251 . S
H297 C280 0.930 . S
H298 C291 0.929 . S
Cu299 N300 1.999 . S
Cu299 O305 1.974 . S
Cu299 N310 1.985 . S
Cu299 O319 1.959 . S
N300 Cu299 1.999 . S
N300 C302 1.263 . S
N300 C304 1.389 . S
N301 C302 1.358 . S
N301 C303 1.400 . S
C302 N300 1.263 . S
C302 N301 1.358 . S
C302 H308 0.930 . S
C303 N301 1.400 . S
C303 C304 1.351 . S
C303 H320 0.930 . S
C304 N300 1.389 . S
C304 C303 1.351 . S
C304 H309 0.930 . S
O305 Cu299 1.974 . S
O305 C315 1.282 . S
C306 O307 1.261 . S
C306 O319 1.251 . S
O307 C306 1.261 . S
H308 C302 0.930 . S
H309 C304 0.930 . S
N310 Cu299 1.985 . S
N310 C312 1.335 . S
N310 C313 1.390 . S
N311 C312 1.345 . S
N311 C314 1.336 . S
C312 N310 1.335 . S
C312 N311 1.345 . S
C312 H317 0.930 . S
C313 N310 1.390 . S
C313 C314 1.346 . S
C313 H318 0.930 . S
C314 N311 1.336 . S
C314 C313 1.346 . S
C314 H321 0.929 . S
C315 O305 1.282 . S
C315 O316 1.216 . S
O316 C315 1.216 . S
H317 C312 0.930 . S
H318 C313 0.930 . S
O319 Cu299 1.959 . S
O319 C306 1.251 . S
H320 C303 0.930 . S
H321 C314 0.929 . S
Cu322 N323 1.999 . S
Cu322 O328 1.974 . S
Cu322 N333 1.985 . S
Cu322 O342 1.959 . S
N323 Cu322 1.999 . S
N323 C325 1.263 . S
N323 C327 1.389 . S
N324 C325 1.358 . S
N324 C326 1.400 . S
C325 N323 1.263 . S
C325 N324 1.358 . S
C325 H331 0.930 . S
C326 N324 1.400 . S
C326 C327 1.351 . S
C326 H343 0.930 . S
C327 N323 1.389 . S
C327 C326 1.351 . S
C327 H332 0.930 . S
O328 Cu322 1.974 . S
O328 C338 1.282 . S
C329 O330 1.261 . S
C329 O342 1.251 . S
O330 C329 1.261 . S
H331 C325 0.930 . S
H332 C327 0.930 . S
N333 Cu322 1.985 . S
N333 C335 1.335 . S
N333 C336 1.390 . S
N334 C335 1.345 . S
N334 C337 1.336 . S
C335 N333 1.335 . S
C335 N334 1.345 . S
C335 H340 0.930 . S
C336 N333 1.390 . S
C336 C337 1.346 . S
C336 H341 0.930 . S
C337 N334 1.336 . S
C337 C336 1.346 . S
C337 H344 0.929 . S
C338 O328 1.282 . S
C338 O339 1.216 . S
O339 C338 1.216 . S
H340 C335 0.930 . S
H341 C336 0.930 . S
O342 Cu322 1.959 . S
O342 C329 1.251 . S
H343 C326 0.930 . S
H344 C337 0.929 . S
Cu345 N346 1.999 . S
Cu345 O351 1.974 . S
Cu345 N356 1.985 . S
Cu345 O365 1.959 . S
N346 Cu345 1.999 . S
N346 C348 1.263 . S
N346 C350 1.389 . S
N347 C348 1.358 . S
N347 C349 1.400 . S
C348 N346 1.263 . S
C348 N347 1.358 . S
C348 H354 0.930 . S
C349 N347 1.400 . S
C349 C350 1.351 . S
C349 H366 0.930 . S
C350 N346 1.389 . S
C350 C349 1.351 . S
C350 H355 0.930 . S
O351 Cu345 1.974 . S
O351 C361 1.282 . S
C352 O353 1.261 . S
C352 O365 1.251 . S
O353 C352 1.261 . S
H354 C348 0.930 . S
H355 C350 0.930 . S
N356 Cu345 1.985 . S
N356 C358 1.335 . S
N356 C359 1.390 . S
N357 C358 1.345 . S
N357 C360 1.336 . S
C358 N356 1.335 . S
C358 N357 1.345 . S
C358 H363 0.930 . S
C359 N356 1.390 . S
C359 C360 1.346 . S
C359 H364 0.930 . S
C360 N357 1.336 . S
C360 C359 1.346 . S
C360 H367 0.929 . S
C361 O351 1.282 . S
C361 O362 1.216 . S
O362 C361 1.216 . S
H363 C358 0.930 . S
H364 C359 0.930 . S
O365 Cu345 1.959 . S
O365 C352 1.251 . S
H366 C349 0.930 . S
H367 C360 0.929 . S
Cu368 N369 1.999 . S
Cu368 O374 1.974 . S
Cu368 N379 1.985 . S
Cu368 O388 1.959 . S
N369 Cu368 1.999 . S
N369 C371 1.263 . S
N369 C373 1.389 . S
N370 C371 1.358 . S
N370 C372 1.400 . S
C371 N369 1.263 . S
C371 N370 1.358 . S
C371 H377 0.930 . S
C372 N370 1.400 . S
C372 C373 1.351 . S
C372 H389 0.930 . S
C373 N369 1.389 . S
C373 C372 1.351 . S
C373 H378 0.930 . S
O374 Cu368 1.974 . S
O374 C384 1.282 . S
C375 O376 1.261 . S
C375 O388 1.251 . S
O376 C375 1.261 . S
H377 C371 0.930 . S
H378 C373 0.930 . S
N379 Cu368 1.985 . S
N379 C381 1.335 . S
N379 C382 1.390 . S
N380 C381 1.345 . S
N380 C383 1.336 . S
C381 N379 1.335 . S
C381 N380 1.345 . S
C381 H386 0.930 . S
C382 N379 1.390 . S
C382 C383 1.346 . S
C382 H387 0.930 . S
C383 N380 1.336 . S
C383 C382 1.346 . S
C383 H390 0.929 . S
C384 O374 1.282 . S
C384 O385 1.216 . S
O385 C384 1.216 . S
H386 C381 0.930 . S
H387 C382 0.930 . S
O388 Cu368 1.959 . S
O388 C375 1.251 . S
H389 C372 0.930 . S
H390 C383 0.929 . S
Cu391 N392 1.999 . S
Cu391 O397 1.974 . S
Cu391 N402 1.985 . S
Cu391 O411 1.959 . S
N392 Cu391 1.999 . S
N392 C394 1.263 . S
N392 C396 1.389 . S
N393 C394 1.358 . S
N393 C395 1.400 . S
C394 N392 1.263 . S
C394 N393 1.358 . S
C394 H400 0.930 . S
C395 N393 1.400 . S
C395 C396 1.351 . S
C395 H412 0.930 . S
C396 N392 1.389 . S
C396 C395 1.351 . S
C396 H401 0.930 . S
O397 Cu391 1.974 . S
O397 C407 1.282 . S
C398 O399 1.261 . S
C398 O411 1.251 . S
O399 C398 1.261 . S
H400 C394 0.930 . S
H401 C396 0.930 . S
N402 Cu391 1.985 . S
N402 C404 1.335 . S
N402 C405 1.390 . S
N403 C404 1.345 . S
N403 C406 1.336 . S
C404 N402 1.335 . S
C404 N403 1.345 . S
C404 H409 0.930 . S
C405 N402 1.390 . S
C405 C406 1.346 . S
C405 H410 0.930 . S
C406 N403 1.336 . S
C406 C405 1.346 . S
C406 H413 0.929 . S
C407 O397 1.282 . S
C407 O408 1.216 . S
O408 C407 1.216 . S
H409 C404 0.930 . S
H410 C405 0.930 . S
O411 Cu391 1.959 . S
O411 C398 1.251 . S
H412 C395 0.930 . S
H413 C406 0.929 . S
Cu414 N415 1.999 . S
Cu414 O420 1.974 . S
Cu414 N425 1.985 . S
Cu414 O434 1.959 . S
N415 Cu414 1.999 . S
N415 C417 1.263 . S
N415 C419 1.389 . S
N416 C417 1.358 . S
N416 C418 1.400 . S
C417 N415 1.263 . S
C417 N416 1.358 . S
C417 H423 0.930 . S
C418 N416 1.400 . S
C418 C419 1.351 . S
C418 H435 0.930 . S
C419 N415 1.389 . S
C419 C418 1.351 . S
C419 H424 0.930 . S
O420 Cu414 1.974 . S
O420 C430 1.282 . S
C421 O422 1.261 . S
C421 O434 1.251 . S
O422 C421 1.261 . S
H423 C417 0.930 . S
H424 C419 0.930 . S
N425 Cu414 1.985 . S
N425 C427 1.335 . S
N425 C428 1.390 . S
N426 C427 1.345 . S
N426 C429 1.336 . S
C427 N425 1.335 . S
C427 N426 1.345 . S
C427 H432 0.930 . S
C428 N425 1.390 . S
C428 C429 1.346 . S
C428 H433 0.930 . S
C429 N426 1.336 . S
C429 C428 1.346 . S
C429 H436 0.929 . S
C430 O420 1.282 . S
C430 O431 1.216 . S
O431 C430 1.216 . S
H432 C427 0.930 . S
H433 C428 0.930 . S
O434 Cu414 1.959 . S
O434 C421 1.251 . S
H435 C418 0.930 . S
H436 C429 0.929 . S
Cu437 N438 1.999 . S
Cu437 O443 1.974 . S
Cu437 N448 1.985 . S
Cu437 O457 1.959 . S
N438 Cu437 1.999 . S
N438 C440 1.263 . S
N438 C442 1.389 . S
N439 C440 1.358 . S
N439 C441 1.400 . S
C440 N438 1.263 . S
C440 N439 1.358 . S
C440 H446 0.930 . S
C441 N439 1.400 . S
C441 C442 1.351 . S
C441 H458 0.930 . S
C442 N438 1.389 . S
C442 C441 1.351 . S
C442 H447 0.930 . S
O443 Cu437 1.974 . S
O443 C453 1.282 . S
C444 O445 1.261 . S
C444 O457 1.251 . S
O445 C444 1.261 . S
H446 C440 0.930 . S
H447 C442 0.930 . S
N448 Cu437 1.985 . S
N448 C450 1.335 . S
N448 C451 1.390 . S
N449 C450 1.345 . S
N449 C452 1.336 . S
C450 N448 1.335 . S
C450 N449 1.345 . S
C450 H455 0.930 . S
C451 N448 1.390 . S
C451 C452 1.346 . S
C451 H456 0.930 . S
C452 N449 1.336 . S
C452 C451 1.346 . S
C452 H459 0.929 . S
C453 O443 1.282 . S
C453 O454 1.216 . S
O454 C453 1.216 . S
H455 C450 0.930 . S
H456 C451 0.930 . S
O457 Cu437 1.959 . S
O457 C444 1.251 . S
H458 C441 0.930 . S
H459 C452 0.929 . S
Cu460 N461 1.999 . S
Cu460 O466 1.974 . S
Cu460 N471 1.985 . S
Cu460 O480 1.959 . S
N461 Cu460 1.999 . S
N461 C463 1.263 . S
N461 C465 1.389 . S
N462 C463 1.358 . S
N462 C464 1.400 . S
C463 N461 1.263 . S
C463 N462 1.358 . S
C463 H469 0.930 . S
C464 N462 1.400 . S
C464 C465 1.351 . S
C464 H481 0.930 . S
C465 N461 1.389 . S
C465 C464 1.351 . S
C465 H470 0.930 . S
O466 Cu460 1.974 . S
O466 C476 1.282 . S
C467 O468 1.261 . S
C467 O480 1.251 . S
O468 C467 1.261 . S
H469 C463 0.930 . S
H470 C465 0.930 . S
N471 Cu460 1.985 . S
N471 C473 1.335 . S
N471 C474 1.390 . S
N472 C473 1.345 . S
N472 C475 1.336 . S
C473 N471 1.335 . S
C473 N472 1.345 . S
C473 H478 0.930 . S
C474 N471 1.390 . S
C474 C475 1.346 . S
C474 H479 0.930 . S
C475 N472 1.336 . S
C475 C474 1.346 . S
C475 H482 0.929 . S
C476 O466 1.282 . S
C476 O477 1.216 . S
O477 C476 1.216 . S
H478 C473 0.930 . S
H479 C474 0.930 . S
O480 Cu460 1.959 . S
O480 C467 1.251 . S
H481 C464 0.930 . S
H482 C475 0.929 . S
Cu483 N484 1.999 . S
Cu483 O489 1.974 . S
Cu483 N494 1.985 . S
Cu483 O503 1.959 . S
N484 Cu483 1.999 . S
N484 C486 1.263 . S
N484 C488 1.389 . S
N485 C486 1.358 . S
N485 C487 1.400 . S
C486 N484 1.263 . S
C486 N485 1.358 . S
C486 H492 0.930 . S
C487 N485 1.400 . S
C487 C488 1.351 . S
C487 H504 0.930 . S
C488 N484 1.389 . S
C488 C487 1.351 . S
C488 H493 0.930 . S
O489 Cu483 1.974 . S
O489 C499 1.282 . S
C490 O491 1.261 . S
C490 O503 1.251 . S
O491 C490 1.261 . S
H492 C486 0.930 . S
H493 C488 0.930 . S
N494 Cu483 1.985 . S
N494 C496 1.335 . S
N494 C497 1.390 . S
N495 C496 1.345 . S
N495 C498 1.336 . S
C496 N494 1.335 . S
C496 N495 1.345 . S
C496 H501 0.930 . S
C497 N494 1.390 . S
C497 C498 1.346 . S
C497 H502 0.930 . S
C498 N495 1.336 . S
C498 C497 1.346 . S
C498 H505 0.929 . S
C499 O489 1.282 . S
C499 O500 1.216 . S
O500 C499 1.216 . S
H501 C496 0.930 . S
H502 C497 0.930 . S
O503 Cu483 1.959 . S
O503 C490 1.251 . S
H504 C487 0.930 . S
H505 C498 0.929 . S
Cu506 N507 1.999 . S
Cu506 O512 1.974 . S
Cu506 N517 1.985 . S
Cu506 O526 1.959 . S
N507 Cu506 1.999 . S
N507 C509 1.263 . S
N507 C511 1.389 . S
N508 C509 1.358 . S
N508 C510 1.400 . S
C509 N507 1.263 . S
C509 N508 1.358 . S
C509 H515 0.930 . S
C510 N508 1.400 . S
C510 C511 1.351 . S
C510 H527 0.930 . S
C511 N507 1.389 . S
C511 C510 1.351 . S
C511 H516 0.930 . S
O512 Cu506 1.974 . S
O512 C522 1.282 . S
C513 O514 1.261 . S
C513 O526 1.251 . S
O514 C513 1.261 . S
H515 C509 0.930 . S
H516 C511 0.930 . S
N517 Cu506 1.985 . S
N517 C519 1.335 . S
N517 C520 1.390 . S
N518 C519 1.345 . S
N518 C521 1.336 . S
C519 N517 1.335 . S
C519 N518 1.345 . S
C519 H524 0.930 . S
C520 N517 1.390 . S
C520 C521 1.346 . S
C520 H525 0.930 . S
C521 N518 1.336 . S
C521 C520 1.346 . S
C521 H528 0.929 . S
C522 O512 1.282 . S
C522 O523 1.216 . S
O523 C522 1.216 . S
H524 C519 0.930 . S
H525 C520 0.930 . S
O526 Cu506 1.959 . S
O526 C513 1.251 . S
H527 C510 0.930 . S
H528 C521 0.929 . S
Cu529 N530 1.999 . S
Cu529 O535 1.974 . S
Cu529 N540 1.985 . S
Cu529 O549 1.959 . S
N530 Cu529 1.999 . S
N530 C532 1.263 . S
N530 C534 1.389 . S
N531 C532 1.358 . S
N531 C533 1.400 . S
C532 N530 1.263 . S
C532 N531 1.358 . S
C532 H538 0.930 . S
C533 N531 1.400 . S
C533 C534 1.351 . S
C533 H550 0.930 . S
C534 N530 1.389 . S
C534 C533 1.351 . S
C534 H539 0.930 . S
O535 Cu529 1.974 . S
O535 C545 1.282 . S
C536 O537 1.261 . S
C536 O549 1.251 . S
O537 C536 1.261 . S
H538 C532 0.930 . S
H539 C534 0.930 . S
N540 Cu529 1.985 . S
N540 C542 1.335 . S
N540 C543 1.390 . S
N541 C542 1.345 . S
N541 C544 1.336 . S
C542 N540 1.335 . S
C542 N541 1.345 . S
C542 H547 0.930 . S
C543 N540 1.390 . S
C543 C544 1.346 . S
C543 H548 0.930 . S
C544 N541 1.336 . S
C544 C543 1.346 . S
C544 H551 0.929 . S
C545 O535 1.282 . S
C545 O546 1.216 . S
O546 C545 1.216 . S
H547 C542 0.930 . S
H548 C543 0.930 . S
O549 Cu529 1.959 . S
O549 C536 1.251 . S
H550 C533 0.930 . S
H551 C544 0.929 . S
C552 C553 1.369 . S
C552 C554 1.419 . S
C552 H556 0.930 . S
C553 C552 1.369 . S
C553 C562 1.429 . S
C554 C552 1.419 . S
C554 C555 1.363 . S
C554 H557 0.929 . S
C555 C554 1.363 . S
C555 C561 1.428 . S
H556 C552 0.930 . S
H557 C554 0.929 . S
S558 N559 1.613 . S
S558 N560 1.610 . S
N559 S558 1.613 . S
N559 C562 1.350 . S
N560 S558 1.610 . S
N560 C561 1.351 . S
C561 C555 1.428 . S
C561 N560 1.351 . S
C561 C562 1.434 . S
C562 C553 1.429 . S
C562 N559 1.350 . S
C562 C561 1.434 . S
C563 C564 1.369 . S
C563 C565 1.419 . S
C563 H567 0.930 . S
C564 C563 1.369 . S
C564 C573 1.429 . S
C565 C563 1.419 . S
C565 C566 1.363 . S
C565 H568 0.929 . S
C566 C565 1.363 . S
C566 C572 1.428 . S
H567 C563 0.930 . S
H568 C565 0.929 . S
S569 N570 1.613 . S
S569 N571 1.610 . S
N570 S569 1.613 . S
N570 C573 1.350 . S
N571 S569 1.610 . S
N571 C572 1.351 . S
C572 C566 1.428 . S
C572 N571 1.351 . S
C572 C573 1.434 . S
C573 C564 1.429 . S
C573 N570 1.350 . S
C573 C572 1.434 . S
C574 C575 1.369 . S
C574 C576 1.419 . S
C574 H578 0.930 . S
C575 C574 1.369 . S
C575 C584 1.429 . S
C576 C574 1.419 . S
C576 C577 1.363 . S
C576 H579 0.929 . S
C577 C576 1.363 . S
C577 C583 1.428 . S
H578 C574 0.930 . S
H579 C576 0.929 . S
S580 N581 1.613 . S
S580 N582 1.610 . S
N581 S580 1.613 . S
N581 C584 1.350 . S
N582 S580 1.610 . S
N582 C583 1.351 . S
C583 C577 1.428 . S
C583 N582 1.351 . S
C583 C584 1.434 . S
C584 C575 1.429 . S
C584 N581 1.350 . S
C584 C583 1.434 . S
C585 C586 1.369 . S
C585 C587 1.419 . S
C585 H589 0.930 . S
C586 C585 1.369 . S
C586 C595 1.429 . S
C587 C585 1.419 . S
C587 C588 1.363 . S
C587 H590 0.929 . S
C588 C587 1.363 . S
C588 C594 1.428 . S
H589 C585 0.930 . S
H590 C587 0.929 . S
S591 N592 1.613 . S
S591 N593 1.610 . S
N592 S591 1.613 . S
N592 C595 1.350 . S
N593 S591 1.610 . S
N593 C594 1.351 . S
C594 C588 1.428 . S
C594 N593 1.351 . S
C594 C595 1.434 . S
C595 C586 1.429 . S
C595 N592 1.350 . S
C595 C594 1.434 . S
C596 C597 1.369 . S
C596 C598 1.419 . S
C596 H600 0.930 . S
C597 C596 1.369 . S
C597 C606 1.429 . S
C598 C596 1.419 . S
C598 C599 1.363 . S
C598 H601 0.929 . S
C599 C598 1.363 . S
C599 C605 1.428 . S
H600 C596 0.930 . S
H601 C598 0.929 . S
S602 N603 1.613 . S
S602 N604 1.610 . S
N603 S602 1.613 . S
N603 C606 1.350 . S
N604 S602 1.610 . S
N604 C605 1.351 . S
C605 C599 1.428 . S
C605 N604 1.351 . S
C605 C606 1.434 . S
C606 C597 1.429 . S
C606 N603 1.350 . S
C606 C605 1.434 . S
C607 C608 1.369 . S
C607 C609 1.419 . S
C607 H611 0.930 . S
C608 C607 1.369 . S
C608 C617 1.429 . S
C609 C607 1.419 . S
C609 C610 1.363 . S
C609 H612 0.929 . S
C610 C609 1.363 . S
C610 C616 1.428 . S
H611 C607 0.930 . S
H612 C609 0.929 . S
S613 N614 1.613 . S
S613 N615 1.610 . S
N614 S613 1.613 . S
N614 C617 1.350 . S
N615 S613 1.610 . S
N615 C616 1.351 . S
C616 C610 1.428 . S
C616 N615 1.351 . S
C616 C617 1.434 . S
C617 C608 1.429 . S
C617 N614 1.350 . S
C617 C616 1.434 . S
C618 C619 1.369 . S
C618 C620 1.419 . S
C618 H622 0.930 . S
C619 C618 1.369 . S
C619 C628 1.429 . S
C620 C618 1.419 . S
C620 C621 1.363 . S
C620 H623 0.929 . S
C621 C620 1.363 . S
C621 C627 1.428 . S
H622 C618 0.930 . S
H623 C620 0.929 . S
S624 N625 1.613 . S
S624 N626 1.610 . S
N625 S624 1.613 . S
N625 C628 1.350 . S
N626 S624 1.610 . S
N626 C627 1.351 . S
C627 C621 1.428 . S
C627 N626 1.351 . S
C627 C628 1.434 . S
C628 C619 1.429 . S
C628 N625 1.350 . S
C628 C627 1.434 . S
C629 C630 1.369 . S
C629 C631 1.419 . S
C629 H633 0.930 . S
C630 C629 1.369 . S
C630 C639 1.429 . S
C631 C629 1.419 . S
C631 C632 1.363 . S
C631 H634 0.929 . S
C632 C631 1.363 . S
C632 C638 1.428 . S
H633 C629 0.930 . S
H634 C631 0.929 . S
S635 N636 1.613 . S
S635 N637 1.610 . S
N636 S635 1.613 . S
N636 C639 1.350 . S
N637 S635 1.610 . S
N637 C638 1.351 . S
C638 C632 1.428 . S
C638 N637 1.351 . S
C638 C639 1.434 . S
C639 C630 1.429 . S
C639 N636 1.350 . S
C639 C638 1.434 . S
C640 C641 1.369 . S
C640 C642 1.419 . S
C640 H644 0.930 . S
C641 C640 1.369 . S
C641 C650 1.429 . S
C642 C640 1.419 . S
C642 C643 1.363 . S
C642 H645 0.929 . S
C643 C642 1.363 . S
C643 C649 1.428 . S
H644 C640 0.930 . S
H645 C642 0.929 . S
S646 N647 1.613 . S
S646 N648 1.610 . S
N647 S646 1.613 . S
N647 C650 1.350 . S
N648 S646 1.610 . S
N648 C649 1.351 . S
C649 C643 1.428 . S
C649 N648 1.351 . S
C649 C650 1.434 . S
C650 C641 1.429 . S
C650 N647 1.350 . S
C650 C649 1.434 . S
C651 C652 1.369 . S
C651 C653 1.419 . S
C651 H655 0.930 . S
C652 C651 1.369 . S
C652 C661 1.429 . S
C653 C651 1.419 . S
C653 C654 1.363 . S
C653 H656 0.929 . S
C654 C653 1.363 . S
C654 C660 1.428 . S
H655 C651 0.930 . S
H656 C653 0.929 . S
S657 N658 1.613 . S
S657 N659 1.610 . S
N658 S657 1.613 . S
N658 C661 1.350 . S
N659 S657 1.610 . S
N659 C660 1.351 . S
C660 C654 1.428 . S
C660 N659 1.351 . S
C660 C661 1.434 . S
C661 C652 1.429 . S
C661 N658 1.350 . S
C661 C660 1.434 . S
C662 C663 1.369 . S
C662 C664 1.419 . S
C662 H666 0.930 . S
C663 C662 1.369 . S
C663 C672 1.429 . S
C664 C662 1.419 . S
C664 C665 1.363 . S
C664 H667 0.929 . S
C665 C664 1.363 . S
C665 C671 1.428 . S
H666 C662 0.930 . S
H667 C664 0.929 . S
S668 N669 1.613 . S
S668 N670 1.610 . S
N669 S668 1.613 . S
N669 C672 1.350 . S
N670 S668 1.610 . S
N670 C671 1.351 . S
C671 C665 1.428 . S
C671 N670 1.351 . S
C671 C672 1.434 . S
C672 C663 1.429 . S
C672 N669 1.350 . S
C672 C671 1.434 . S
C673 C674 1.369 . S
C673 C675 1.419 . S
C673 H677 0.930 . S
C674 C673 1.369 . S
C674 C683 1.429 . S
C675 C673 1.419 . S
C675 C676 1.363 . S
C675 H678 0.929 . S
C676 C675 1.363 . S
C676 C682 1.428 . S
H677 C673 0.930 . S
H678 C675 0.929 . S
S679 N680 1.613 . S
S679 N681 1.610 . S
N680 S679 1.613 . S
N680 C683 1.350 . S
N681 S679 1.610 . S
N681 C682 1.351 . S
C682 C676 1.428 . S
C682 N681 1.351 . S
C682 C683 1.434 . S
C683 C674 1.429 . S
C683 N680 1.350 . S
C683 C682 1.434 . S
C684 C685 1.369 . S
C684 C686 1.419 . S
C684 H688 0.930 . S
C685 C684 1.369 . S
C685 C694 1.429 . S
C686 C684 1.419 . S
C686 C687 1.363 . S
C686 H689 0.929 . S
C687 C686 1.363 . S
C687 C693 1.428 . S
H688 C684 0.930 . S
H689 C686 0.929 . S
S690 N691 1.613 . S
S690 N692 1.610 . S
N691 S690 1.613 . S
N691 C694 1.350 . S
N692 S690 1.610 . S
N692 C693 1.351 . S
C693 C687 1.428 . S
C693 N692 1.351 . S
C693 C694 1.434 . S
C694 C685 1.429 . S
C694 N691 1.350 . S
C694 C693 1.434 . S
C695 C696 1.369 . S
C695 C697 1.419 . S
C695 H699 0.930 . S
C696 C695 1.369 . S
C696 C705 1.429 . S
C697 C695 1.419 . S
C697 C698 1.363 . S
C697 H700 0.929 . S
C698 C697 1.363 . S
C698 C704 1.428 . S
H699 C695 0.930 . S
H700 C697 0.929 . S
S701 N702 1.613 . S
S701 N703 1.610 . S
N702 S701 1.613 . S
N702 C705 1.350 . S
N703 S701 1.610 . S
N703 C704 1.351 . S
C704 C698 1.428 . S
C704 N703 1.351 . S
C704 C705 1.434 . S
C705 C696 1.429 . S
C705 N702 1.350 . S
C705 C704 1.434 . S
C706 C707 1.369 . S
C706 C708 1.419 . S
C706 H710 0.930 . S
C707 C706 1.369 . S
C707 C716 1.429 . S
C708 C706 1.419 . S
C708 C709 1.363 . S
C708 H711 0.929 . S
C709 C708 1.363 . S
C709 C715 1.428 . S
H710 C706 0.930 . S
H711 C708 0.929 . S
S712 N713 1.613 . S
S712 N714 1.610 . S
N713 S712 1.613 . S
N713 C716 1.350 . S
N714 S712 1.610 . S
N714 C715 1.351 . S
C715 C709 1.428 . S
C715 N714 1.351 . S
C715 C716 1.434 . S
C716 C707 1.429 . S
C716 N713 1.350 . S
C716 C715 1.434 . S
C717 C718 1.369 . S
C717 C719 1.419 . S
C717 H721 0.930 . S
C718 C717 1.369 . S
C718 C727 1.429 . S
C719 C717 1.419 . S
C719 C720 1.363 . S
C719 H722 0.929 . S
C720 C719 1.363 . S
C720 C726 1.428 . S
H721 C717 0.930 . S
H722 C719 0.929 . S
S723 N724 1.613 . S
S723 N725 1.610 . S
N724 S723 1.613 . S
N724 C727 1.350 . S
N725 S723 1.610 . S
N725 C726 1.351 . S
C726 C720 1.428 . S
C726 N725 1.351 . S
C726 C727 1.434 . S
C727 C718 1.429 . S
C727 N724 1.350 . S
C727 C726 1.434 . S
C728 C729 1.369 . S
C728 C730 1.419 . S
C728 H732 0.930 . S
C729 C728 1.369 . S
C729 C738 1.429 . S
C730 C728 1.419 . S
C730 C731 1.363 . S
C730 H733 0.929 . S
C731 C730 1.363 . S
C731 C737 1.428 . S
H732 C728 0.930 . S
H733 C730 0.929 . S
S734 N735 1.613 . S
S734 N736 1.610 . S
N735 S734 1.613 . S
N735 C738 1.350 . S
N736 S734 1.610 . S
N736 C737 1.351 . S
C737 C731 1.428 . S
C737 N736 1.351 . S
C737 C738 1.434 . S
C738 C729 1.429 . S
C738 N735 1.350 . S
C738 C737 1.434 . S
C739 C740 1.369 . S
C739 C741 1.419 . S
C739 H743 0.930 . S
C740 C739 1.369 . S
C740 C749 1.429 . S
C741 C739 1.419 . S
C741 C742 1.363 . S
C741 H744 0.929 . S
C742 C741 1.363 . S
C742 C748 1.428 . S
H743 C739 0.930 . S
H744 C741 0.929 . S
S745 N746 1.613 . S
S745 N747 1.610 . S
N746 S745 1.613 . S
N746 C749 1.350 . S
N747 S745 1.610 . S
N747 C748 1.351 . S
C748 C742 1.428 . S
C748 N747 1.351 . S
C748 C749 1.434 . S
C749 C740 1.429 . S
C749 N746 1.350 . S
C749 C748 1.434 . S
C750 C751 1.369 . S
C750 C752 1.419 . S
C750 H754 0.930 . S
C751 C750 1.369 . S
C751 C760 1.429 . S
C752 C750 1.419 . S
C752 C753 1.363 . S
C752 H755 0.929 . S
C753 C752 1.363 . S
C753 C759 1.428 . S
H754 C750 0.930 . S
H755 C752 0.929 . S
S756 N757 1.613 . S
S756 N758 1.610 . S
N757 S756 1.613 . S
N757 C760 1.350 . S
N758 S756 1.610 . S
N758 C759 1.351 . S
C759 C753 1.428 . S
C759 N758 1.351 . S
C759 C760 1.434 . S
C760 C751 1.429 . S
C760 N757 1.350 . S
C760 C759 1.434 . S
C761 C762 1.369 . S
C761 C763 1.419 . S
C761 H765 0.930 . S
C762 C761 1.369 . S
C762 C771 1.429 . S
C763 C761 1.419 . S
C763 C764 1.363 . S
C763 H766 0.929 . S
C764 C763 1.363 . S
C764 C770 1.428 . S
H765 C761 0.930 . S
H766 C763 0.929 . S
S767 N768 1.613 . S
S767 N769 1.610 . S
N768 S767 1.613 . S
N768 C771 1.350 . S
N769 S767 1.610 . S
N769 C770 1.351 . S
C770 C764 1.428 . S
C770 N769 1.351 . S
C770 C771 1.434 . S
C771 C762 1.429 . S
C771 N768 1.350 . S
C771 C770 1.434 . S
C772 C773 1.369 . S
C772 C774 1.419 . S
C772 H776 0.930 . S
C773 C772 1.369 . S
C773 C782 1.429 . S
C774 C772 1.419 . S
C774 C775 1.363 . S
C774 H777 0.929 . S
C775 C774 1.363 . S
C775 C781 1.428 . S
H776 C772 0.930 . S
H777 C774 0.929 . S
S778 N779 1.613 . S
S778 N780 1.610 . S
N779 S778 1.613 . S
N779 C782 1.350 . S
N780 S778 1.610 . S
N780 C781 1.351 . S
C781 C775 1.428 . S
C781 N780 1.351 . S
C781 C782 1.434 . S
C782 C773 1.429 . S
C782 N779 1.350 . S
C782 C781 1.434 . S
C783 C784 1.369 . S
C783 C785 1.419 . S
C783 H787 0.930 . S
C784 C783 1.369 . S
C784 C793 1.429 . S
C785 C783 1.419 . S
C785 C786 1.363 . S
C785 H788 0.929 . S
C786 C785 1.363 . S
C786 C792 1.428 . S
H787 C783 0.930 . S
H788 C785 0.929 . S
S789 N790 1.613 . S
S789 N791 1.610 . S
N790 S789 1.613 . S
N790 C793 1.350 . S
N791 S789 1.610 . S
N791 C792 1.351 . S
C792 C786 1.428 . S
C792 N791 1.351 . S
C792 C793 1.434 . S
C793 C784 1.429 . S
C793 N790 1.350 . S
C793 C792 1.434 . S
C794 C795 1.369 . S
C794 C796 1.419 . S
C794 H798 0.930 . S
C795 C794 1.369 . S
C795 C804 1.429 . S
C796 C794 1.419 . S
C796 C797 1.363 . S
C796 H799 0.929 . S
C797 C796 1.363 . S
C797 C803 1.428 . S
H798 C794 0.930 . S
H799 C796 0.929 . S
S800 N801 1.613 . S
S800 N802 1.610 . S
N801 S800 1.613 . S
N801 C804 1.350 . S
N802 S800 1.610 . S
N802 C803 1.351 . S
C803 C797 1.428 . S
C803 N802 1.351 . S
C803 C804 1.434 . S
C804 C795 1.429 . S
C804 N801 1.350 . S
C804 C803 1.434 . S
C805 C806 1.369 . S
C805 C807 1.419 . S
C805 H809 0.930 . S
C806 C805 1.369 . S
C806 C815 1.429 . S
C807 C805 1.419 . S
C807 C808 1.363 . S
C807 H810 0.929 . S
C808 C807 1.363 . S
C808 C814 1.428 . S
H809 C805 0.930 . S
H810 C807 0.929 . S
S811 N812 1.613 . S
S811 N813 1.610 . S
N812 S811 1.613 . S
N812 C815 1.350 . S
N813 S811 1.610 . S
N813 C814 1.351 . S
C814 C808 1.428 . S
C814 N813 1.351 . S
C814 C815 1.434 . S
C815 C806 1.429 . S
C815 N812 1.350 . S
C815 C814 1.434 . S
C816 C817 1.369 . S
C816 C818 1.419 . S
C816 H820 0.930 . S
C817 C816 1.369 . S
C817 C826 1.429 . S
C818 C816 1.419 . S
C818 C819 1.363 . S
C818 H821 0.929 . S
C819 C818 1.363 . S
C819 C825 1.428 . S
H820 C816 0.930 . S
H821 C818 0.929 . S
S822 N823 1.613 . S
S822 N824 1.610 . S
N823 S822 1.613 . S
N823 C826 1.350 . S
N824 S822 1.610 . S
N824 C825 1.351 . S
C825 C819 1.428 . S
C825 N824 1.351 . S
C825 C826 1.434 . S
C826 C817 1.429 . S
C826 N823 1.350 . S
C826 C825 1.434 . S
C827 C828 1.369 . S
C827 C829 1.419 . S
C827 H831 0.930 . S
C828 C827 1.369 . S
C828 C837 1.429 . S
C829 C827 1.419 . S
C829 C830 1.363 . S
C829 H832 0.929 . S
C830 C829 1.363 . S
C830 C836 1.428 . S
H831 C827 0.930 . S
H832 C829 0.929 . S
S833 N834 1.613 . S
S833 N835 1.610 . S
N834 S833 1.613 . S
N834 C837 1.350 . S
N835 S833 1.610 . S
N835 C836 1.351 . S
C836 C830 1.428 . S
C836 N835 1.351 . S
C836 C837 1.434 . S
C837 C828 1.429 . S
C837 N834 1.350 . S
C837 C836 1.434 . S
C838 C839 1.369 . S
C838 C840 1.419 . S
C838 H842 0.930 . S
C839 C838 1.369 . S
C839 C848 1.429 1_565 S
C840 C838 1.419 . S
C840 C841 1.363 1_565 S
C840 H843 0.929 . S
C841 C840 1.363 1_545 S
C841 C847 1.428 . S
H842 C838 0.930 . S
H843 C840 0.929 . S
S844 N845 1.613 . S
S844 N846 1.610 . S
N845 S844 1.613 . S
N845 C848 1.350 . S
N846 S844 1.610 . S
N846 C847 1.351 . S
C847 C841 1.428 . S
C847 N846 1.351 . S
C847 C848 1.434 . S
C848 C839 1.429 1_545 S
C848 N845 1.350 . S
C848 C847 1.434 . S
C849 C850 1.369 . S
C849 C851 1.419 . S
C849 H853 0.930 . S
C850 C849 1.369 . S
C850 C859 1.429 1_455 S
C851 C849 1.419 . S
C851 C852 1.363 1_455 S
C851 H854 0.929 . S
C852 C851 1.363 1_655 S
C852 C858 1.428 . S
H853 C849 0.930 . S
H854 C851 0.929 . S
S855 N856 1.613 . S
S855 N857 1.610 . S
N856 S855 1.613 . S
N856 C859 1.350 . S
N857 S855 1.610 . S
N857 C858 1.351 . S
C858 C852 1.428 . S
C858 N857 1.351 . S
C858 C859 1.434 . S
C859 C850 1.429 1_655 S
C859 N856 1.350 . S
C859 C858 1.434 . S
C860 C861 1.369 . S
C860 C862 1.419 . S
C860 H864 0.930 . S
C861 C860 1.369 . S
C861 C870 1.429 . S
C862 C860 1.419 . S
C862 C863 1.336 1_565 S
C862 H865 0.929 . S
C863 C862 1.336 1_545 S
C863 C869 1.432 . S
H864 C860 0.930 . S
H865 C862 0.929 . S
S866 N867 1.613 1_545 S
S866 N868 1.610 . S
N867 S866 1.613 1_565 S
N867 C870 1.350 . S
N868 S866 1.610 . S
N868 C869 1.351 . S
C869 C863 1.432 . S
C869 N868 1.351 . S
C869 C870 1.434 1_545 S
C870 C861 1.429 . S
C870 N867 1.350 . S
C870 C869 1.434 1_565 S
C871 C872 1.369 . S
C871 C873 1.419 . S
C871 H875 0.930 . S
C872 C871 1.369 . S
C872 C881 1.429 1_655 S
C873 C871 1.419 . S
C873 C874 1.363 1_655 S
C873 H876 0.929 . S
C874 C873 1.363 1_455 S
C874 C880 1.428 . S
H875 C871 0.930 . S
H876 C873 0.929 . S
S877 N878 1.613 . S
S877 N879 1.610 . S
N878 S877 1.613 . S
N878 C881 1.350 . S
N879 S877 1.610 . S
N879 C880 1.351 . S
C880 C874 1.428 . S
C880 N879 1.351 . S
C880 C881 1.434 . S
C881 C872 1.429 1_455 S
C881 N878 1.350 . S
C881 C880 1.434 . S
C882 C883 1.369 . S
C882 C884 1.419 . S
C882 H886 0.930 . S
C883 C882 1.369 . S
C883 C892 1.429 . S
C884 C882 1.419 . S
C884 C885 1.363 . S
C884 H887 0.929 . S
C885 C884 1.363 . S
C885 C891 1.428 . S
H886 C882 0.930 . S
H887 C884 0.929 . S
S888 N889 1.613 . S
S888 N890 1.610 . S
N889 S888 1.613 . S
N889 C892 1.350 . S
N890 S888 1.610 . S
N890 C891 1.351 . S
C891 C885 1.428 . S
C891 N890 1.351 . S
C891 C892 1.434 . S
C892 C883 1.429 . S
C892 N889 1.350 . S
C892 C891 1.434 . S
C893 C894 1.369 . S
C893 C895 1.419 . S
C893 H897 0.930 . S
C894 C893 1.369 . S
C894 C903 1.429 . S
C895 C893 1.419 . S
C895 C896 1.363 . S
C895 H898 0.929 . S
C896 C895 1.363 . S
C896 C902 1.428 . S
H897 C893 0.930 . S
H898 C895 0.929 . S
S899 N900 1.613 . S
S899 N901 1.610 . S
N900 S899 1.613 . S
N900 C903 1.350 . S
N901 S899 1.610 . S
N901 C902 1.351 . S
C902 C896 1.428 . S
C902 N901 1.351 . S
C902 C903 1.434 . S
C903 C894 1.429 . S
C903 N900 1.350 . S
C903 C902 1.434 . S
C904 C905 1.369 . S
C904 C906 1.419 . S
C904 H908 0.930 . S
C905 C904 1.369 . S
C905 C914 1.429 . S
C906 C904 1.419 . S
C906 C907 1.363 . S
C906 H909 0.929 . S
C907 C906 1.363 . S
C907 C913 1.428 . S
H908 C904 0.930 . S
H909 C906 0.929 . S
S910 N911 1.613 . S
S910 N912 1.610 . S
N911 S910 1.613 . S
N911 C914 1.350 . S
N912 S910 1.610 . S
N912 C913 1.351 . S
C913 C907 1.428 . S
C913 N912 1.351 . S
C913 C914 1.434 . S
C914 C905 1.429 . S
C914 N911 1.350 . S
C914 C913 1.434 . S
C915 C916 1.369 . S
C915 C917 1.419 . S
C915 H919 0.930 . S
C916 C915 1.369 . S
C916 C925 1.429 . S
C917 C915 1.419 . S
C917 C918 1.363 1_554 S
C917 H920 0.929 . S
C918 C917 1.363 1_556 S
C918 C924 1.428 . S
H919 C915 0.930 . S
H920 C917 0.929 . S
S921 N922 1.613 . S
S921 N923 1.610 . S
N922 S921 1.613 . S
N922 C925 1.350 1_556 S
N923 S921 1.610 . S
N923 C924 1.351 . S
C924 C918 1.428 . S
C924 N923 1.351 . S
C924 C925 1.434 1_556 S
C925 C916 1.429 . S
C925 N922 1.350 1_554 S
C925 C924 1.434 1_554 S
C926 C927 1.369 . S
C926 C928 1.419 . S
C926 H930 0.930 . S
C927 C926 1.369 . S
C927 C936 1.429 . S
C928 C926 1.419 . S
C928 C929 1.363 . S
C928 H931 0.929 . S
C929 C928 1.363 . S
C929 C935 1.428 . S
H930 C926 0.930 . S
H931 C928 0.929 . S
S932 N933 1.613 . S
S932 N934 1.610 . S
N933 S932 1.613 . S
N933 C936 1.350 . S
N934 S932 1.610 . S
N934 C935 1.351 . S
C935 C929 1.428 . S
C935 N934 1.351 . S
C935 C936 1.434 . S
C936 C927 1.429 . S
C936 N933 1.350 . S
C936 C935 1.434 . S
C937 C938 1.369 . S
C937 C939 1.419 1_556 S
C937 H941 0.930 . S
C938 C937 1.369 . S
C938 C947 1.429 1_556 S
C939 C937 1.419 1_554 S
C939 C940 1.363 . S
C939 H942 0.941 . S
C940 C939 1.363 . S
C940 C946 1.428 . S
H941 C937 0.930 . S
H942 C939 0.941 . S
S943 N944 1.613 . S
S943 N945 1.610 . S
N944 S943 1.613 . S
N944 C947 1.350 . S
N945 S943 1.610 . S
N945 C946 1.351 . S
C946 C940 1.428 . S
C946 N945 1.351 . S
C946 C947 1.434 . S
C947 C938 1.429 1_554 S
C947 N944 1.350 . S
C947 C946 1.434 . S
C948 C949 1.369 . S
C948 C950 1.419 . S
C948 H952 0.930 . S
C949 C948 1.369 . S
C949 C958 1.429 . S
C950 C948 1.419 . S
C950 C951 1.363 . S
C950 H953 0.929 . S
C951 C950 1.363 . S
C951 C957 1.428 . S
H952 C948 0.930 . S
H953 C950 0.929 . S
S954 N955 1.613 . S
S954 N956 1.610 . S
N955 S954 1.613 . S
N955 C958 1.350 . S
N956 S954 1.610 . S
N956 C957 1.351 . S
C957 C951 1.428 . S
C957 N956 1.351 . S
C957 C958 1.434 . S
C958 C949 1.429 . S
C958 N955 1.350 . S
C958 C957 1.434 . S
C959 C960 1.369 . S
C959 C961 1.419 . S
C959 H963 0.930 . S
C960 C959 1.369 . S
C960 C969 1.429 . S
C961 C959 1.419 . S
C961 C962 1.363 . S
C961 H964 0.929 . S
C962 C961 1.363 . S
C962 C968 1.428 . S
H963 C959 0.930 . S
H964 C961 0.929 . S
S965 N966 1.613 . S
S965 N967 1.610 . S
N966 S965 1.613 . S
N966 C969 1.350 . S
N967 S965 1.610 . S
N967 C968 1.351 . S
C968 C962 1.428 . S
C968 N967 1.351 . S
C968 C969 1.434 . S
C969 C960 1.429 . S
C969 N966 1.350 . S
C969 C968 1.434 . S
C970 C971 1.369 . S
C970 C972 1.419 . S
C970 H974 0.930 . S
C971 C970 1.369 . S
C971 C980 1.429 1_545 S
C972 C970 1.419 . S
C972 C973 1.363 1_545 S
C972 H975 0.929 . S
C973 C972 1.363 1_565 S
C973 C979 1.428 . S
H974 C970 0.930 . S
H975 C972 0.929 . S
S976 N977 1.613 . S
S976 N978 1.610 . S
N977 S976 1.613 . S
N977 C980 1.350 . S
N978 S976 1.610 . S
N978 C979 1.351 . S
C979 C973 1.428 . S
C979 N978 1.351 . S
C979 C980 1.434 . S
C980 C971 1.429 1_565 S
C980 N977 1.350 . S
C980 C979 1.434 . S
C981 C982 1.369 . S
C981 C983 1.419 1_455 S
C981 H985 0.930 . S
C982 C981 1.369 . S
C982 C991 1.429 . S
C983 C981 1.419 1_655 S
C983 C984 1.363 . S
C983 H986 0.929 . S
C984 C983 1.363 . S
C984 C990 1.428 1_655 S
H985 C981 0.930 . S
H986 C983 0.929 . S
S987 N988 1.613 . S
S987 N989 1.610 . S
N988 S987 1.613 . S
N988 C991 1.350 . S
N989 S987 1.610 . S
N989 C990 1.351 . S
C990 C984 1.428 1_455 S
C990 N989 1.351 . S
C990 C991 1.434 . S
C991 C982 1.429 . S
C991 N988 1.350 . S
C991 C990 1.434 . S
C992 C993 1.369 . S
C992 C994 1.419 . S
C992 H996 0.930 . S
C993 C992 1.369 . S
C993 C1002 1.429 . S
C994 C992 1.419 . S
C994 C995 1.363 1_545 S
C994 H997 0.929 1_545 S
C995 C994 1.363 1_565 S
C995 C1001 1.428 1_565 S
H996 C992 0.930 . S
H997 C994 0.929 1_565 S
S998 N999 1.613 . S
S998 N1000 1.610 . S
N999 S998 1.613 . S
N999 C1002 1.350 . S
N1000 S998 1.610 . S
N1000 C1001 1.351 . S
C1001 C995 1.428 1_545 S
C1001 N1000 1.351 . S
C1001 C1002 1.434 . S
C1002 C993 1.429 . S
C1002 N999 1.350 . S
C1002 C1001 1.434 . S
C1003 C1004 1.369 . S
C1003 C1005 1.419 1_455 S
C1003 H1007 0.930 . S
C1004 C1003 1.369 . S
C1004 C1013 1.429 1_455 S
C1005 C1003 1.419 1_655 S
C1005 C1006 1.363 . S
C1005 H1008 0.929 . S
C1006 C1005 1.363 . S
C1006 C1012 1.428 . S
H1007 C1003 0.930 . S
H1008 C1005 0.929 . S
S1009 N1010 1.613 . S
S1009 N1011 1.610 . S
N1010 S1009 1.613 . S
N1010 C1013 1.350 . S
N1011 S1009 1.610 . S
N1011 C1012 1.351 . S
C1012 C1006 1.428 . S
C1012 N1011 1.351 . S
C1012 C1013 1.434 . S
C1013 C1004 1.429 1_655 S
C1013 N1010 1.350 . S
C1013 C1012 1.434 . S
C1014 C1015 1.369 . S
C1014 C1016 1.419 . S
C1014 H1018 0.930 . S
C1015 C1014 1.369 . S
C1015 C1024 1.429 . S
C1016 C1014 1.419 . S
C1016 C1017 1.363 . S
C1016 H1019 0.929 . S
C1017 C1016 1.363 . S
C1017 C1023 1.428 . S
H1018 C1014 0.930 . S
H1019 C1016 0.929 . S
S1020 N1021 1.613 . S
S1020 N1022 1.610 . S
N1021 S1020 1.613 . S
N1021 C1024 1.350 . S
N1022 S1020 1.610 . S
N1022 C1023 1.351 . S
C1023 C1017 1.428 . S
C1023 N1022 1.351 . S
C1023 C1024 1.434 . S
C1024 C1015 1.429 . S
C1024 N1021 1.350 . S
C1024 C1023 1.434 . S
C1025 C1026 1.369 . S
C1025 C1027 1.419 . S
C1025 H1029 0.930 . S
C1026 C1025 1.369 . S
C1026 C1035 1.429 . S
C1027 C1025 1.419 . S
C1027 C1028 1.363 . S
C1027 H1030 0.929 . S
C1028 C1027 1.363 . S
C1028 C1034 1.428 . S
H1029 C1025 0.930 . S
H1030 C1027 0.929 . S
S1031 N1032 1.613 . S
S1031 N1033 1.610 . S
N1032 S1031 1.613 . S
N1032 C1035 1.350 . S
N1033 S1031 1.610 . S
N1033 C1034 1.351 . S
C1034 C1028 1.428 . S
C1034 N1033 1.351 . S
C1034 C1035 1.434 . S
C1035 C1026 1.429 . S
C1035 N1032 1.350 . S
C1035 C1034 1.434 . S
C1036 C1037 1.369 . S
C1036 C1038 1.419 . S
C1036 H1040 0.930 . S
C1037 C1036 1.369 . S
C1037 C1046 1.429 . S
C1038 C1036 1.419 . S
C1038 C1039 1.363 . S
C1038 H1041 0.929 . S
C1039 C1038 1.363 . S
C1039 C1045 1.428 . S
H1040 C1036 0.930 . S
H1041 C1038 0.929 . S
S1042 N1043 1.613 . S
S1042 N1044 1.610 . S
N1043 S1042 1.613 . S
N1043 C1046 1.350 . S
N1044 S1042 1.610 . S
N1044 C1045 1.351 . S
C1045 C1039 1.428 . S
C1045 N1044 1.351 . S
C1045 C1046 1.434 . S
C1046 C1037 1.429 . S
C1046 N1043 1.350 . S
C1046 C1045 1.434 . S
C1047 C1048 1.369 . S
C1047 C1049 1.419 1_554 S
C1047 H1051 0.930 . S
C1048 C1047 1.369 . S
C1048 C1057 1.429 1_554 S
C1049 C1047 1.419 1_556 S
C1049 C1050 1.363 . S
C1049 H1052 0.929 . S
C1050 C1049 1.363 . S
C1050 C1056 1.428 . S
H1051 C1047 0.930 . S
H1052 C1049 0.929 . S
S1053 N1054 1.613 . S
S1053 N1055 1.610 . S
N1054 S1053 1.613 . S
N1054 C1057 1.350 . S
N1055 S1053 1.610 . S
N1055 C1056 1.351 . S
C1056 C1050 1.428 . S
C1056 N1055 1.351 . S
C1056 C1057 1.434 . S
C1057 C1048 1.429 1_556 S
C1057 N1054 1.350 . S
C1057 C1056 1.434 . S
C1058 C1059 1.369 . S
C1058 C1060 1.419 . S
C1058 H1062 0.930 . S
C1059 C1058 1.369 . S
C1059 C1068 1.429 . S
C1060 C1058 1.419 . S
C1060 C1061 1.363 . S
C1060 H1063 0.929 . S
C1061 C1060 1.363 . S
C1061 C1067 1.428 . S
H1062 C1058 0.930 . S
H1063 C1060 0.929 . S
S1064 N1065 1.613 . S
S1064 N1066 1.610 . S
N1065 S1064 1.613 . S
N1065 C1068 1.350 . S
N1066 S1064 1.610 . S
N1066 C1067 1.351 . S
C1067 C1061 1.428 . S
C1067 N1066 1.351 . S
C1067 C1068 1.434 . S
C1068 C1059 1.429 . S
C1068 N1065 1.350 . S
C1068 C1067 1.434 . S
C1069 C1070 1.369 . S
C1069 C1071 1.419 1_554 S
C1069 H1073 0.930 . S
C1070 C1069 1.369 . S
C1070 C1079 1.429 1_554 S
C1071 C1069 1.419 1_556 S
C1071 C1072 1.363 . S
C1071 H1074 0.929 . S
C1072 C1071 1.363 . S
C1072 C1078 1.428 . S
H1073 C1069 0.930 . S
H1074 C1071 0.929 . S
S1075 N1076 1.613 . S
S1075 N1077 1.610 . S
N1076 S1075 1.613 . S
N1076 C1079 1.350 . S
N1077 S1075 1.610 . S
N1077 C1078 1.351 . S
C1078 C1072 1.428 . S
C1078 N1077 1.351 . S
C1078 C1079 1.434 . S
C1079 C1070 1.429 1_556 S
C1079 N1076 1.350 . S
C1079 C1078 1.434 . S
C553 N94 1.652 . S
C555 N2 1.632 . S
C564 C30 1.807 . S
C566 C122 1.806 . S
C575 N140 1.654 . S
C577 N48 1.637 . S
C586 C168 1.806 . S
C588 C76 1.806 . S
C597 N324 1.727 . S
C599 C191 1.696 . S
C608 N347 1.632 . S
C610 N209 1.626 . S
C619 C237 1.696 . S
C621 N278 1.727 . S
C630 N301 1.629 . S
C632 N255 1.628 . S
C641 C375 1.654 . S
C643 C490 1.655 . S
C652 C398 1.970 . S
C654 C444 1.968 . S
C663 C421 1.925 . S
C665 C467 1.927 . S
C674 N508 1.547 . S
C676 N531 1.548 . S
C685 N71 1.486 . S
C687 N117 1.427 . S
C696 C7 1.653 . S
C698 C145 1.640 . S
C707 N163 1.423 . S
C709 N25 1.485 . S
C718 C53 1.653 . S
C720 C99 1.640 . S
C729 C536 1.500 . S
C731 N416 1.449 . S
C740 N439 1.432 . S
C742 N485 1.435 . S
C751 N462 1.454 . S
C753 C513 1.504 . S
C762 N393 1.435 . S
C764 N370 1.434 . S
C773 C260 1.502 . S
C775 C214 1.502 . S
C784 C352 1.785 . S
C786 C306 1.785 . S
C795 C283 1.769 . S
C797 C329 1.769 . S
C806 N232 1.239 . S
C808 N186 1.234 . S
C817 N518 1.835 . S
C819 N12 1.819 . S
C828 C384 1.724 . S
C830 C39 1.720 . S
C839 N541 1.842 . S
C841 N58 1.812 . S
C850 C499 1.725 . S
C852 C85 1.718 . S
C861 C430 1.702 . S
C863 N104 1.691 . S
C872 C131 1.896 . S
C874 C453 1.890 . S
C883 C476 1.699 . S
C885 N150 1.667 . S
C894 C407 1.894 . S
C896 C177 1.892 . S
C905 N311 1.731 . S
C907 C200 1.797 . S
C916 N334 1.701 . S
C918 N219 1.718 . S
C927 N357 1.730 . S
C929 C246 1.800 . S
C938 N265 1.721 . S
C940 N288 1.695 . S
C949 N127 1.586 . S
C951 N242 1.599 . S
C960 C154 1.443 . S
C962 C269 1.448 . S
C971 N196 1.602 . S
C973 N173 1.588 . S
C982 C108 1.444 . S
C984 C223 1.448 . S
C993 C338 1.519 . S
C995 N81 1.529 . S
C1004 C16 1.546 . S
C1006 C361 1.541 . S
C1015 C292 1.521 . S
C1017 N35 1.529 . S
C1026 C62 1.545 . S
C1028 C315 1.541 . S
C1037 N403 1.517 . S
C1039 C545 1.493 . S
C1048 N495 1.546 . S
C1050 N426 1.531 . S
C1059 C522 1.485 . S
C1061 N449 1.519 . S
C1070 N380 1.546 . S
C1072 N472 1.531 . S
