# Generated by pormake.
# Topology eci, (8)-cn, num edge types: 1
# Building blocks:
#     Node 0, Type 0, BuildingBlock: AJUNOK_clean_sbu_0, # of connection points: 8
#     Node 1, Type 0, BuildingBlock: AJUNOK_clean_sbu_0, # of connection points: 8
#     Node 2, Type 0, BuildingBlock: AJUNOK_clean_sbu_0, # of connection points: 8
#     Node 3, Type 0, BuildingBlock: AJUNOK_clean_sbu_0, # of connection points: 8
#     Edge 4, Type (0, 0), BuildingBlock: XUDNAN_clean_linker_2, # of connection points: 2
#     Edge 5, Type (0, 0), BuildingBlock: XUDNAN_clean_linker_2, # of connection points: 2
#     Edge 6, Type (0, 0), BuildingBlock: XUDNAN_clean_linker_2, # of connection points: 2
#     Edge 7, Type (0, 0), BuildingBlock: XUDNAN_clean_linker_2, # of connection points: 2
#     Edge 8, Type (0, 0), BuildingBlock: XUDNAN_clean_linker_2, # of connection points: 2
#     Edge 9, Type (0, 0), BuildingBlock: XUDNAN_clean_linker_2, # of connection points: 2
#     Edge 10, Type (0, 0), BuildingBlock: XUDNAN_clean_linker_2, # of connection points: 2
#     Edge 11, Type (0, 0), BuildingBlock: XUDNAN_clean_linker_2, # of connection points: 2
#     Edge 12, Type (0, 0), BuildingBlock: XUDNAN_clean_linker_2, # of connection points: 2
#     Edge 13, Type (0, 0), BuildingBlock: XUDNAN_clean_linker_2, # of connection points: 2
#     Edge 14, Type (0, 0), BuildingBlock: XUDNAN_clean_linker_2, # of connection points: 2
#     Edge 15, Type (0, 0), BuildingBlock: XUDNAN_clean_linker_2, # of connection points: 2
#     Edge 16, Type (0, 0), BuildingBlock: XUDNAN_clean_linker_2, # of connection points: 2
#     Edge 17, Type (0, 0), BuildingBlock: XUDNAN_clean_linker_2, # of connection points: 2
#     Edge 18, Type (0, 0), BuildingBlock: XUDNAN_clean_linker_2, # of connection points: 2
#     Edge 19, Type (0, 0), BuildingBlock: XUDNAN_clean_linker_2, # of connection points: 2
# Relax obj value: 0.365
# Max RMSD: 0.287
# Mean RMSD: 0.287
data_MOF--net-eci--node1-AJUNOK_clean_sbu_0--edge1-XUDNAN_clean_linker_2
_symmetry_space_group_name_H-M    P1
_symmetry_Int_Tables_number       1
_symmetry_cell_setting            triclinic
loop_
_symmetry_equiv_pos_as_xyz
'x, y, z'
_cell_length_a     33.823683
_cell_length_b     33.743488
_cell_length_c     18.615734
_cell_angle_alpha  89.787858
_cell_angle_beta   90.228095
_cell_angle_gamma 89.75443
loop_
_atom_site_label
_atom_site_type_symbol
_atom_site_fract_x
_atom_site_fract_y
_atom_site_fract_z
_atom_type_partial_charge
Cd0 Cd 0.83522 0.78665 0.1031 0.0
Cd1 Cd 0.79255 0.82509 0.89475 0.0
C2 C 0.80766 0.70124 0.04604 0.0
N3 N 0.79142 0.7351 0.0726 0.0
C4 C 0.73354 0.69944 0.10802 0.0
C5 C 0.75121 0.66344 0.08673 0.0
C6 C 0.78804 0.66519 0.0523 0.0
C7 C 0.75454 0.73501 0.10143 0.0
H8 H 0.83753 0.70097 0.02637 0.0
H9 H 0.74267 0.76196 0.12434 0.0
C10 C 0.77755 0.87666 0.05102 0.0
C11 C 0.83815 0.91094 0.88305 0.0
C12 C 0.86902 0.93582 0.8622 0.0
C13 C 0.8971 0.92172 0.81343 0.0
C14 C 0.89316 0.88374 0.78465 0.0
C15 C 0.86253 0.85972 0.8079 0.0
N16 N 0.83606 0.87341 0.85664 0.0
H17 H 0.8169 0.92126 0.92189 0.0
H18 H 0.86049 0.82961 0.78867 0.0
C19 C 0.70194 0.84712 0.88051 0.0
N20 N 0.72478 0.81878 0.91229 0.0
C21 C 0.66736 0.7828 0.94828 0.0
C22 C 0.64316 0.81105 0.91383 0.0
C23 C 0.66087 0.84375 0.88039 0.0
C24 C 0.7085 0.78705 0.9461 0.0
H25 H 0.71582 0.87178 0.85336 0.0
H26 H 0.72747 0.76447 0.96909 0.0
C27 C 0.87207 0.7673 0.96282 0.0
C28 C 0.84018 0.77323 0.25175 0.0
N29 N 0.89141 0.82486 0.08453 0.0
C30 C 0.92508 0.81263 0.11814 0.0
C31 C 0.95899 0.83579 0.11536 0.0
C32 C 0.9578 0.87224 0.07915 0.0
C33 C 0.92317 0.88361 0.04268 0.0
C34 C 0.89008 0.85906 0.04564 0.0
C35 C 0.78706 0.79063 0.76065 0.0
O36 O 0.79654 0.85019 0.08646 0.0
O37 O 0.77241 0.8732 -0.01628 0.0
O38 O 0.83988 0.78676 0.96046 0.0
O39 O 0.88344 0.75575 0.02397 0.0
O40 O 0.82305 0.80304 0.22423 0.0
O41 O 0.8564 0.74889 0.20933 0.0
O42 O 0.79704 0.76935 0.81442 0.0
O43 O 0.778 0.82673 0.77186 0.0
H44 H 0.92514 0.78536 0.14886 0.0
H45 H 0.86303 0.86791 0.01893 0.0
H46 H 0.70489 0.69989 0.13372 0.0
H47 H 0.80359 0.63858 0.03621 0.0
H48 H 0.87163 0.9651 0.88534 0.0
H49 H 0.91425 0.87237 0.74619 0.0
H50 H 0.65469 0.75692 0.9738 0.0
H51 H 0.64312 0.86615 0.85347 0.0
H52 H 0.98508 0.8265 0.14499 0.0
H53 H 0.92136 0.91171 0.01448 0.0
Cd54 Cd 0.70518 0.30175 0.32747 0.0
Cd55 Cd 0.68768 0.30239 0.11552 0.0
C56 C 0.79273 0.30662 0.25365 0.0
N57 N 0.76697 0.28059 0.28388 0.0
C58 C 0.81979 0.23486 0.30782 0.0
C59 C 0.84713 0.26193 0.2798 0.0
C60 C 0.83304 0.29748 0.24978 0.0
C61 C 0.77962 0.24478 0.30913 0.0
H62 H 0.78289 0.33577 0.23802 0.0
H63 H 0.75888 0.2252 0.33532 0.0
C64 C 0.61962 0.27874 0.2497 0.0
C65 C 0.60038 0.33386 0.05746 0.0
C66 C 0.5712 0.36211 0.04077 0.0
C67 C 0.58154 0.4023 0.03585 0.0
C68 C 0.62145 0.41274 0.04293 0.0
C69 C 0.64953 0.38361 0.05865 0.0
N70 N 0.63848 0.34531 0.06872 0.0
H71 H 0.59228 0.30312 0.06464 0.0
H72 H 0.68008 0.39188 0.0648 0.0
C73 C 0.67201 0.20978 0.15421 0.0
N74 N 0.70207 0.23653 0.15277 0.0
C75 C 0.74972 0.18388 0.16366 0.0
C76 C 0.71925 0.1558 0.1645 0.0
C77 C 0.67999 0.16913 0.16018 0.0
C78 C 0.74043 0.22424 0.15616 0.0
H79 H 0.64186 0.21974 0.14666 0.0
H80 H 0.7639 0.24559 0.14977 0.0
C81 C 0.71944 0.38159 0.20757 0.0
C82 C 0.72448 0.27304 0.46569 0.0
N83 N 0.6769 0.35728 0.38232 0.0
C84 C 0.6974 0.3785 0.43195 0.0
C85 C 0.67985 0.4111 0.4654 0.0
C86 C 0.6409 0.42204 0.44737 0.0
C87 C 0.62066 0.39967 0.39547 0.0
C88 C 0.63919 0.36716 0.36392 0.0
C89 C 0.71179 0.28069 0.97743 0.0
O90 O 0.64521 0.26502 0.29337 0.0
O91 O 0.63009 0.29541 0.19172 0.0
O92 O 0.72666 0.36009 0.15325 0.0
O93 O 0.70911 0.36604 0.2667 0.0
O94 O 0.69253 0.26311 0.43476 0.0
O95 O 0.74729 0.29621 0.432 0.0
O96 O 0.73611 0.29595 0.02149 0.0
O97 O 0.67627 0.27644 -0.00204 0.0
H98 H 0.7274 0.37021 0.4456 0.0
H99 H 0.62364 0.35007 0.32398 0.0
H100 H 0.82964 0.20725 0.33193 0.0
H101 H 0.85337 0.31945 0.22917 0.0
H102 H 0.54068 0.35294 0.03548 0.0
H103 H 0.63073 0.44332 0.03799 0.0
H104 H 0.7804 0.17456 0.16524 0.0
H105 H 0.6558 0.1482 0.15927 0.0
H106 H 0.69646 0.42721 0.50556 0.0
H107 H 0.59092 0.40741 0.37864 0.0
Cd108 Cd 0.20507 0.18398 0.39986 0.0
Cd109 Cd 0.17514 0.22301 0.6032 0.0
C110 C 0.29966 0.18194 0.41208 0.0
N111 N 0.26883 0.20779 0.41614 0.0
C112 C 0.31279 0.26291 0.41283 0.0
C113 C 0.34517 0.23707 0.4038 0.0
C114 C 0.33831 0.19601 0.40598 0.0
C115 C 0.27464 0.24756 0.41772 0.0
H116 H 0.29403 0.15046 0.40902 0.0
H117 H 0.24949 0.26738 0.41868 0.0
C118 C 0.11748 0.23609 0.46966 0.0
C119 C 0.127 0.14126 0.55074 0.0
C120 C 0.10764 0.10547 0.56461 0.0
C121 C 0.10676 0.09063 0.63517 0.0
C122 C 0.12557 0.11181 0.68994 0.0
C123 C 0.14381 0.14744 0.67401 0.0
N124 N 0.14415 0.1616 0.60564 0.0
H125 H 0.12775 0.15274 0.49669 0.0
H126 H 0.15785 0.16404 0.71647 0.0
C127 C 0.19719 0.30412 0.52108 0.0
N128 N 0.21487 0.27314 0.55579 0.0
C129 C 0.26682 0.31513 0.59705 0.0
C130 C 0.24672 0.34834 0.56912 0.0
C131 C 0.21306 0.34224 0.52637 0.0
C132 C 0.25021 0.2775 0.5898 0.0
H133 H 0.16844 0.30045 0.49674 0.0
H134 H 0.26284 0.25277 0.61921 0.0
C135 C 0.23147 0.1361 0.56181 0.0
C136 C 0.20218 0.2051 0.25537 0.0
N137 N 0.17328 0.12644 0.3666 0.0
C138 C 0.19037 0.08992 0.36681 0.0
C139 C 0.17094 0.05806 0.33471 0.0
C140 C 0.1342 0.06426 0.30047 0.0
C141 C 0.11704 0.10225 0.30329 0.0
C142 C 0.13703 0.13287 0.33729 0.0
C143 C 0.16382 0.24616 0.7476 0.0
O144 O 0.14745 0.21814 0.44509 0.0
O145 O 0.11756 0.24518 0.53541 0.0
O146 O 0.21921 0.16353 0.60316 0.0
O147 O 0.22708 0.13862 0.49412 0.0
O148 O 0.19183 0.22949 0.30369 0.0
O149 O 0.2164 0.17181 0.27485 0.0
O150 O 0.19806 0.23932 0.72326 0.0
O151 O 0.13522 0.24426 0.70378 0.0
H152 H 0.21961 0.08582 0.38926 0.0
H153 H 0.12465 0.16247 0.33692 0.0
H154 H 0.31662 0.29475 0.41252 0.0
H155 H 0.36211 0.17493 0.39808 0.0
H156 H 0.09325 0.08983 0.52111 0.0
H157 H 0.12496 0.10172 0.74524 0.0
H158 H 0.29274 0.31876 0.63072 0.0
H159 H 0.19647 0.36716 0.5049 0.0
H160 H 0.18505 0.0292 0.33523 0.0
H161 H 0.08932 0.109 0.27661 0.0
Cd162 Cd 0.33071 0.70949 0.62306 0.0
Cd163 Cd 0.28006 0.70565 0.82517 0.0
C164 C 0.32957 0.80229 0.62502 0.0
N165 N 0.304 0.77331 0.64528 0.0
C166 C 0.25483 0.82239 0.67288 0.0
C167 C 0.28084 0.85269 0.65172 0.0
C168 C 0.31864 0.8421 0.62783 0.0
C169 C 0.26691 0.78255 0.66793 0.0
H170 H 0.35857 0.79439 0.60533 0.0
H171 H 0.24644 0.75915 0.67975 0.0
C172 C 0.27443 0.6294 0.70227 0.0
C173 C 0.30868 0.62533 0.91263 0.0
C174 C 0.33514 0.59637 0.93759 0.0
C175 C 0.37284 0.59357 0.907 0.0
C176 C 0.38283 0.61908 0.85057 0.0
C177 C 0.3557 0.64784 0.82789 0.0
N178 N 0.3197 0.65102 0.85981 0.0
H179 H 0.27981 0.62789 0.93683 0.0
H180 H 0.36376 0.66833 0.78591 0.0
C181 C 0.19448 0.70379 0.73641 0.0
N182 N 0.21521 0.72412 0.78709 0.0
C183 C 0.15589 0.75678 0.8255 0.0
C184 C 0.13321 0.73445 0.77687 0.0
C185 C 0.15344 0.7088 0.72997 0.0
C186 C 0.19683 0.75124 0.82947 0.0
H187 H 0.20929 0.68243 0.70281 0.0
H188 H 0.21355 0.76689 0.86984 0.0
C189 C 0.3723 0.75163 0.76835 0.0
C190 C 0.32486 0.72105 0.47455 0.0
N191 N 0.38953 0.67282 0.62429 0.0
C192 C 0.42272 0.68861 0.59501 0.0
C193 C 0.45728 0.666 0.59012 0.0
C194 C 0.45779 0.62685 0.61627 0.0
C195 C 0.42357 0.61211 0.64939 0.0
C196 C 0.38956 0.63551 0.65207 0.0
C197 C 0.27013 0.73214 0.96576 0.0
O198 O 0.29376 0.64837 0.65495 0.0
O199 O 0.26707 0.64481 0.76277 0.0
O200 O 0.34221 0.74148 0.80443 0.0
O201 O 0.37596 0.74076 0.70379 0.0
O202 O 0.2992 0.70115 0.50838 0.0
O203 O 0.35405 0.73423 0.50961 0.0
O204 O 0.28687 0.7534 0.91874 0.0
O205 O 0.2559 0.69919 0.94573 0.0
H206 H 0.42213 0.7185 0.57387 0.0
H207 H 0.36307 0.62353 0.67563 0.0
H208 H 0.22515 0.82937 0.69059 0.0
H209 H 0.33964 0.86447 0.61127 0.0
H210 H 0.32674 0.57714 0.98163 0.0
H211 H 0.4119 0.61786 0.82638 0.0
H212 H 0.14209 0.77661 0.86356 0.0
H213 H 0.13762 0.6916 0.69027 0.0
H214 H 0.48272 0.67863 0.56354 0.0
H215 H 0.42274 0.5825 0.67193 0.0
H216 H 0.82063 0.82755 0.35056 0.0
H217 H 0.85526 0.70433 0.32688 0.0
H218 H 0.84326 0.69334 0.45697 0.0
H219 H 0.86263 0.84206 0.52783 0.0
H220 H 0.8227 0.87442 0.55384 0.0
H221 H 0.83745 0.87185 0.46119 0.0
H222 H 0.7652 0.85473 0.42569 0.0
H223 H 0.75045 0.85616 0.51838 0.0
H224 H 0.74168 0.81227 0.46586 0.0
H225 H 0.82519 0.69686 0.59044 0.0
H226 H 0.8067 0.71553 0.71476 0.0
H227 H 0.78023 0.83497 0.64092 0.0
C228 C 0.82615 0.79829 0.37266 0.0
C229 C 0.83869 0.76673 0.32929 0.0
C230 C 0.84582 0.72892 0.35997 0.0
C231 C 0.83886 0.72239 0.43337 0.0
C232 C 0.82501 0.75408 0.47421 0.0
C233 C 0.81921 0.79133 0.44475 0.0
C234 C 0.80355 0.82051 0.49843 0.0
C235 C 0.83336 0.85417 0.51108 0.0
C236 C 0.7628 0.83684 0.4757 0.0
C237 C 0.80057 0.79376 0.5628 0.0
C238 C 0.81339 0.75565 0.54866 0.0
C239 C 0.81489 0.72656 0.60201 0.0
C240 C 0.80411 0.73729 0.67208 0.0
C241 C 0.79171 0.77654 0.68697 0.0
C242 C 0.789 0.80456 0.63112 0.0
H243 H 0.67153 0.2503 0.56632 0.0
H244 H 0.79628 0.27244 0.53266 0.0
H245 H 0.8085 0.26499 0.66289 0.0
H246 H 0.66341 0.30939 0.71024 0.0
H247 H 0.62809 0.27999 0.75904 0.0
H248 H 0.63036 0.2767 0.66293 0.0
H249 H 0.64141 0.20077 0.67156 0.0
H250 H 0.63866 0.20369 0.7681 0.0
H251 H 0.68123 0.18141 0.7262 0.0
H252 H 0.80516 0.26786 0.79571 0.0
H253 H 0.78656 0.28015 0.92186 0.0
H254 H 0.66372 0.25749 0.86835 0.0
C255 C 0.70164 0.25186 0.58611 0.0
C256 C 0.73306 0.26148 0.54001 0.0
C257 C 0.77191 0.26482 0.56761 0.0
C258 C 0.77913 0.26044 0.64127 0.0
C259 C 0.74715 0.25272 0.68604 0.0
C260 C 0.70917 0.24819 0.65946 0.0
C261 C 0.67912 0.2463 0.71915 0.0
C262 C 0.64848 0.2801 0.71241 0.0
C263 C 0.65893 0.2056 0.72138 0.0
C264 C 0.70592 0.25205 0.78324 0.0
C265 C 0.74511 0.25502 0.76327 0.0
C266 C 0.77472 0.26462 0.81237 0.0
C267 C 0.76387 0.27182 0.88366 0.0
C268 C 0.72377 0.26961 0.90455 0.0
C269 C 0.6947 0.25878 0.854 0.0
H270 H 0.21254 0.27677 0.85012 0.0
H271 H 0.10118 0.2159 0.81816 0.0
H272 H 0.09727 0.20243 0.94806 0.0
H273 H 0.25296 0.21518 0.9733 0.0
H274 H 0.27505 0.25188 0.03083 0.0
H275 H 0.26662 0.26289 0.93743 0.0
H276 H 0.22514 0.32485 0.97069 0.0
H277 H 0.23436 0.31474 0.06447 0.0
H278 H 0.18432 0.31989 0.03201 0.0
H279 H 0.11176 0.18439 0.07362 0.0
H280 H 0.13778 0.17323 0.19616 0.0
H281 H 0.23716 0.24988 0.15093 0.0
C282 C 0.18666 0.262 0.8712 0.0
C283 C 0.15701 0.2476 0.82495 0.0
C284 C 0.12376 0.2278 0.85335 0.0
C285 C 0.12142 0.21977 0.92684 0.0
C286 C 0.152 0.23286 0.97084 0.0
C287 C 0.18334 0.25469 0.94475 0.0
C288 C 0.21303 0.26373 0.00345 0.0
C289 C 0.25434 0.24742 -0.01489 0.0
C290 C 0.21428 0.30846 0.01855 0.0
C291 C 0.19471 0.24137 0.06535 0.0
C292 C 0.15946 0.22388 0.04519 0.0
C293 C 0.13864 0.19889 0.09085 0.0
C294 C 0.15374 0.19244 0.15977 0.0
C295 C 0.18901 0.21106 0.18186 0.0
C296 C 0.20984 0.23583 0.13461 0.0
H297 H 0.24963 0.68579 0.07871 0.0
H298 H 0.29829 0.80078 0.02331 0.0
H299 H 0.31595 0.81157 0.15043 0.0
H300 H 0.21108 0.71167 0.25739 0.0
H301 H 0.22538 0.66422 0.29424 0.0
H302 H 0.21188 0.66841 0.20081 0.0
H303 H 0.27916 0.63684 0.16595 0.0
H304 H 0.29332 0.63348 0.25904 0.0
H305 H 0.32436 0.65951 0.19632 0.0
H306 H 0.33652 0.80555 0.27865 0.0
H307 H 0.35046 0.78697 0.40495 0.0
H308 H 0.28732 0.67656 0.37502 0.0
C309 C 0.26272 0.71384 0.09362 0.0
C310 C 0.27245 0.74255 0.04172 0.0
C311 C 0.29041 0.77853 0.06277 0.0
C312 C 0.30068 0.78485 0.13459 0.0
C313 C 0.2925 0.75498 0.18394 0.0
C314 C 0.27333 0.72049 0.16467 0.0
C315 C 0.27048 0.69182 0.22672 0.0
C316 C 0.22712 0.68358 0.24594 0.0
C317 C 0.29318 0.65315 0.21103 0.0
C318 C 0.29091 0.71566 0.28402 0.0
C319 C 0.30387 0.75177 0.25815 0.0
C320 C 0.3259 0.77772 0.30006 0.0
C321 C 0.33397 0.7668 0.37114 0.0
C322 C 0.31953 0.7306 0.39889 0.0
C323 C 0.29806 0.70467 0.35484 0.0
H324 H 0.43979 0.78023 0.70704 0.0
H325 H 0.38419 0.75993 0.91366 0.0
H326 H 0.44687 0.77665 0.97478 0.0
H327 H 0.52943 0.73621 0.74848 0.0
H328 H 0.5595 0.77076 0.69908 0.0
H329 H 0.50917 0.76219 0.67188 0.0
H330 H 0.49367 0.83727 0.68181 0.0
H331 H 0.54418 0.84624 0.70802 0.0
H332 H 0.50429 0.86285 0.76448 0.0
H333 H 0.51837 0.78662 0.01218 0.0
H334 H 0.59084 0.79635 0.02284 0.0
H335 H 0.59832 0.81189 0.7921 0.0
C336 C 0.44042 0.78027 0.76522 0.0
C337 C 0.40702 0.7688 0.80549 0.0
C338 C 0.40927 0.7689 0.88156 0.0
C339 C 0.44483 0.77818 0.9168 0.0
C340 C 0.47766 0.7878 0.87525 0.0
C341 C 0.4755 0.78963 0.80114 0.0
C342 C 0.51534 0.79878 0.76851 0.0
C343 C 0.52916 0.76497 0.7191 0.0
C344 C 0.5143 0.83866 0.72835 0.0
C345 C 0.5405 0.80107 0.83571 0.0
C346 C 0.51835 0.79454 0.89683 0.0
C347 C 0.53584 0.79256 0.96481 0.0
C348 C 0.57694 0.79785 0.97038 0.0
C349 C 0.59986 0.8054 0.90843 0.0
C350 C 0.58127 0.80703 0.84046 0.0
H351 H 0.71174 0.10475 0.05212 0.0
H352 H 0.74805 0.11035 0.27508 0.0
H353 H 0.7633 0.03822 0.27357 0.0
H354 H 0.66718 0.00789 0.0551 0.0
H355 H 0.68577 0.99407 0.96805 0.0
H356 H 0.67634 0.04543 -0.01191 0.0
H357 H 0.74853 0.06289 0.9547 0.0
H358 H 0.7581 0.01165 0.93416 0.0
H359 H 0.78872 0.03704 -0.0015 0.0
H360 H 0.77543 0.96484 0.24567 0.0
H361 H 0.78716 0.89864 0.19275 0.0
H362 H 0.74398 0.94226 -0.01289 0.0
C363 C 0.72262 0.09058 0.10067 0.0
C364 C 0.72839 0.11274 0.16401 0.0
C365 C 0.74332 0.09363 0.22626 0.0
C366 C 0.75194 0.05275 0.22581 0.0
C367 C 0.74587 0.03156 0.16238 0.0
C368 C 0.7319 0.05 0.10075 0.0
C369 C 0.7299 0.02122 0.03853 0.0
C370 C 0.68725 0.0169 0.01084 0.0
C371 C 0.75798 0.03396 0.97791 0.0
C372 C 0.7443 0.98351 0.0748 0.0
C373 C 0.75338 0.98994 0.14623 0.0
C374 C 0.76828 0.95954 0.18982 0.0
C375 C 0.77473 0.92192 0.15931 0.0
C376 C 0.76634 0.91488 0.08575 0.0
C377 C 0.7504 0.94623 0.04365 0.0
H378 H 0.41959 0.20886 0.44182 0.0
H379 H 0.36012 0.29958 0.31444 0.0
H380 H 0.42411 0.32165 0.26786 0.0
H381 H 0.50966 0.26699 0.4817 0.0
H382 H 0.54184 0.22454 0.47364 0.0
H383 H 0.49167 0.21825 0.50378 0.0
H384 H 0.4796 0.16752 0.40201 0.0
H385 H 0.52955 0.17392 0.37114 0.0
H386 H 0.48872 0.18181 0.31016 0.0
H387 H 0.49245 0.33026 0.22583 0.0
H388 H 0.56293 0.32763 0.19556 0.0
H389 H 0.58026 0.23109 0.34758 0.0
C390 C 0.42007 0.23368 0.40483 0.0
C391 C 0.38459 0.25271 0.38265 0.0
C392 C 0.38669 0.28506 0.33397 0.0
C393 C 0.42297 0.29768 0.30657 0.0
C394 C 0.45709 0.27778 0.32827 0.0
C395 C 0.4562 0.24674 0.37676 0.0
C396 C 0.49732 0.2295 0.38835 0.0
C397 C 0.51092 0.23517 0.46652 0.0
C398 C 0.49887 0.18558 0.3666 0.0
C399 C 0.52113 0.25506 0.33723 0.0
C400 C 0.49716 0.28277 0.30353 0.0
C401 C 0.5116 0.30887 0.25212 0.0
C402 C 0.55169 0.30679 0.2347 0.0
C403 C 0.57711 0.2788 0.26842 0.0
C404 C 0.56158 0.25278 0.32088 0.0
H405 H 0.28732 0.90647 0.54227 0.0
H406 H 0.24843 0.89495 0.76288 0.0
H407 H 0.23518 0.96734 0.76682 0.0
H408 H 0.33615 0.99895 0.55836 0.0
H409 H 0.32013 0.01751 0.47206 0.0
H410 H 0.32576 0.96496 0.48627 0.0
H411 H 0.25309 0.95361 0.44658 0.0
H412 H 0.24756 0.00605 0.43097 0.0
H413 H 0.21399 0.98075 0.49022 0.0
H414 H 0.22923 0.04212 0.74707 0.0
H415 H 0.22281 0.11066 0.7015 0.0
H416 H 0.26434 0.07218 0.49264 0.0
C417 C 0.27587 0.9192 0.59134 0.0
C418 C 0.26912 0.89523 0.65253 0.0
C419 C 0.25364 0.91281 0.71542 0.0
C420 C 0.24633 0.95389 0.71821 0.0
C421 C 0.25422 0.97684 0.65735 0.0
C422 C 0.26796 0.95992 0.59468 0.0
C423 C 0.273 0.99072 0.536 0.0
C424 C 0.31634 0.99317 0.51178 0.0
C425 C 0.24526 0.98227 0.47219 0.0
C426 C 0.26053 0.02782 0.57558 0.0
C427 C 0.25001 0.01932 0.64562 0.0
C428 C 0.23728 0.04898 0.69223 0.0
C429 C 0.234 0.08798 0.66588 0.0
C430 C 0.24291 0.09703 0.59322 0.0
C431 C 0.25724 0.06646 0.54835 0.0
H432 H 0.92732 0.8185 0.91374 0.0
H433 H 0.88012 0.70086 0.88336 0.0
H434 H 0.93963 0.68207 0.81437 0.0
H435 H 0.98578 0.82275 0.73333 0.0
H436 H 0.02437 0.85018 0.778 0.0
H437 H 0.97369 0.85594 0.8052 0.0
H438 H 0.99509 0.83946 0.93533 0.0
H439 H 0.04518 0.8308 0.90769 0.0
H440 H 0.01841 0.79233 0.95385 0.0
H441 H 0.00945 0.67214 0.77219 0.0
H442 H 0.08146 0.67276 0.75429 0.0
H443 H 0.0839 0.79765 0.80991 0.0
C444 C 0.92855 0.78966 0.88847 0.0
C445 C 0.89859 0.76151 0.90121 0.0
C446 C 0.90211 0.72319 0.87155 0.0
C447 C 0.93599 0.71223 0.83282 0.0
C448 C 0.96607 0.74002 0.82416 0.0
C449 C 0.96229 0.77832 0.84972 0.0
C450 C 1.00074 0.8009 0.84123 0.0
C451 C 0.99593 0.83443 0.78603 0.0
C452 C 0.01573 0.81675 0.91384 0.0
C453 C 0.02742 0.76865 0.81208 0.0
C454 C 0.00669 0.73405 0.80087 0.0
C455 C 0.02568 0.69946 0.77881 0.0
C456 C 0.0668 0.70022 0.76832 0.0
C457 C 0.08888 0.73535 0.77993 0.0
C458 C 0.06837 0.77015 0.80079 0.0
H459 H 0.74598 0.42693 0.09379 0.0
H460 H 0.69424 0.43591 0.30628 0.0
H461 H 0.69079 0.50842 0.29331 0.0
H462 H 0.80602 0.51362 0.10614 0.0
H463 H 0.79879 0.52786 0.01359 0.0
H464 H 0.7962 0.47644 0.03916 0.0
H465 H 0.72618 0.47203 0.98262 0.0
H466 H 0.72841 0.52361 0.9575 0.0
H467 H 0.68807 0.50579 0.0116 0.0
H468 H 0.69498 0.58016 0.25934 0.0
H469 H 0.711 0.64593 0.21098 0.0
H470 H 0.75651 0.591 0.01707 0.0
C471 C 0.73399 0.44412 0.13768 0.0
C472 C 0.72048 0.42549 0.20118 0.0
C473 C 0.70507 0.44926 0.2573 0.0
C474 C 0.70266 0.49057 0.25022 0.0
C475 C 0.71567 0.50787 0.1866 0.0
C476 C 0.73125 0.48548 0.13145 0.0
C477 C 0.7443 0.51164 0.06962 0.0
C478 C 0.78897 0.50712 0.05638 0.0
C479 C 0.7203 0.50274 0.00129 0.0
C480 C 0.73426 0.55227 0.09922 0.0
C481 C 0.71748 0.54937 0.1665 0.0
C482 C 0.70768 0.58284 0.20629 0.0
C483 C 0.71654 0.62028 0.17775 0.0
C484 C 0.735 0.62419 0.10973 0.0
C485 C 0.74273 0.58945 0.06936 0.0
H486 H 0.88468 0.24843 0.40687 0.0
H487 H 0.90647 0.26417 0.17943 0.0
H488 H 0.97874 0.25834 0.20176 0.0
H489 H 0.965 0.30749 0.46595 0.0
H490 H 0.97594 0.27714 0.54346 0.0
H491 H 0.9263 0.27937 0.50839 0.0
H492 H 0.92557 0.20292 0.49544 0.0
H493 H 0.97511 0.2004 0.53105 0.0
H494 H 0.96407 0.17872 0.44498 0.0
H495 H 0.0493 0.24936 0.25096 0.0
H496 H 0.111 0.24301 0.32271 0.0
H497 H 0.04168 0.23907 0.51802 0.0
C498 C 0.90468 0.2499 0.36163 0.0
C499 C 0.89016 0.25591 0.29123 0.0
C500 C 0.91716 0.25906 0.2336 0.0
C501 C 0.95815 0.2558 0.24587 0.0
C502 C 0.97156 0.2501 0.31623 0.0
C503 C 0.94551 0.24754 0.37313 0.0
C504 C 0.96719 0.24366 0.44408 0.0
C505 C 0.95806 0.27903 0.49334 0.0
C506 C 0.95741 0.20407 0.48104 0.0
C507 C 0.00958 0.24443 0.41851 0.0
C508 C 0.01166 0.24758 0.34457 0.0
C509 C 0.04792 0.24729 0.30892 0.0
C510 C 0.0828 0.2437 0.35001 0.0
C511 C 0.08114 0.24122 0.42591 0.0
C512 C 0.04397 0.24175 0.46018 0.0
H513 H 0.25996 0.41962 0.49785 0.0
H514 H 0.24818 0.36699 0.70969 0.0
H515 H 0.2518 0.43312 0.76453 0.0
H516 H 0.33136 0.49609 0.55481 0.0
H517 H 0.31152 0.53323 0.49472 0.0
H518 H 0.30852 0.48156 0.47135 0.0
H519 H 0.23266 0.48866 0.45606 0.0
H520 H 0.2354 0.54021 0.48037 0.0
H521 H 0.20353 0.50725 0.52961 0.0
H522 H 0.25125 0.50381 0.79648 0.0
H523 H 0.25701 0.57597 0.80695 0.0
H524 H 0.27458 0.58531 0.57632 0.0
C525 C 0.25879 0.42219 0.55577 0.0
C526 C 0.25422 0.38817 0.59969 0.0
C527 C 0.25243 0.39256 0.67523 0.0
C528 C 0.25407 0.43002 0.70686 0.0
C529 C 0.25806 0.46296 0.66237 0.0
C530 C 0.26132 0.45959 0.58867 0.0
C531 C 0.26662 0.50016 0.5542 0.0
C532 C 0.3069 0.50292 0.51655 0.0
C533 C 0.23251 0.50961 0.50197 0.0
C534 C 0.26511 0.52667 0.62006 0.0
C535 C 0.25961 0.50436 0.68154 0.0
C536 C 0.25598 0.52165 0.74888 0.0
C537 C 0.25903 0.56284 0.7541 0.0
C538 C 0.26628 0.58654 0.69251 0.0
C539 C 0.26905 0.56808 0.6244 0.0
H540 H 0.05447 0.05115 0.28282 0.0
H541 H 0.16964 0.00488 0.22183 0.0
H542 H 0.13706 0.95341 0.14942 0.0
H543 H 0.00424 0.9609 0.29611 0.0
H544 H 0.9588 0.97961 0.25779 0.0
H545 H 0.99157 0.01264 0.3044 0.0
H546 H 0.99405 0.05794 0.19165 0.0
H547 H 0.9616 0.02471 0.14436 0.0
H548 H 0.00892 0.03734 0.10668 0.0
H549 H 0.09153 0.90419 0.09019 0.0
H550 H 0.03637 0.86138 0.05012 0.0
H551 H 0.95216 0.94476 0.13884 0.0
C552 C 0.07308 0.03074 0.25345 0.0
C553 C 0.11476 0.03225 0.25857 0.0
C554 C 0.13767 1.00406 0.22034 0.0
C555 C 0.11945 0.97498 0.17811 0.0
C556 C 0.07835 0.9749 0.17352 0.0
C557 C 0.0555 1.0022 0.20989 0.0
C558 C 0.01189 0.99551 0.19708 0.0
C559 C 0.99039 0.98662 0.26805 0.0
C560 C 0.99302 0.03099 0.15758 0.0
C561 C 0.0137 0.95944 0.14933 0.0
C562 C 0.05229 0.94798 0.13612 0.0
C563 C 0.06122 0.91334 0.09877 0.0
C564 C 0.02985 0.88933 0.076 0.0
C565 C 0.99028 0.90051 0.0899 0.0
C566 C 0.98219 0.9364 0.12543 0.0
H567 H 0.56336 0.42868 0.48859 0.0
H568 H 0.67386 0.49367 0.4839 0.0
H569 H 0.64036 0.5515 0.53777 0.0
H570 H 0.50323 0.50852 0.43345 0.0
H571 H 0.46187 0.49472 0.48879 0.0
H572 H 0.49566 0.45732 0.45756 0.0
H573 H 0.50815 0.43474 0.58919 0.0
H574 H 0.47454 0.47236 0.62075 0.0
H575 H 0.52448 0.47041 0.65467 0.0
H576 H 0.59351 0.60366 0.58608 0.0
H577 H 0.53699 0.64637 0.61928 0.0
H578 H 0.45725 0.54776 0.58343 0.0
C579 C 0.58065 0.455 0.49886 0.0
C580 C 0.62134 0.45648 0.4822 0.0
C581 C 0.64282 0.49149 0.49734 0.0
C582 C 0.62402 0.52456 0.52772 0.0
C583 C 0.58376 0.52215 0.54268 0.0
C584 C 0.56236 0.48825 0.52856 0.0
C585 C 0.51897 0.49396 0.545 0.0
C586 C 0.49345 0.48832 0.47716 0.0
C587 C 0.50578 0.46622 0.60603 0.0
C588 C 0.51911 0.53669 0.56904 0.0
C589 C 0.55677 0.55233 0.56848 0.0
C590 C 0.56389 0.59168 0.58682 0.0
C591 C 0.53154 0.61578 0.6051 0.0
C592 C 0.49252 0.60056 0.60402 0.0
C593 C 0.48661 0.56029 0.58647 0.0
H594 H 0.03019 0.07512 0.59868 0.0
H595 H 0.13023 0.02852 0.71914 0.0
H596 H 0.08671 0.9794 0.77705 0.0
H597 H 0.96234 0.07037 0.73467 0.0
H598 H 0.92066 0.05505 0.68109 0.0
H599 H 0.95995 0.083 0.64055 0.0
H600 H 0.97079 0.02816 0.54555 0.0
H601 H 0.93064 1.00053 0.58428 0.0
H602 H 0.97857 0.97767 0.5745 0.0
H603 H 0.03143 0.94402 0.83632 0.0
H604 H 0.96855 0.9142 0.87673 0.0
H605 H 0.90483 0.98011 0.71273 0.0
C606 C 0.04315 0.05348 0.63498 0.0
C607 C 0.08341 0.05545 0.65472 0.0
C608 C 0.09932 0.0274 0.70377 0.0
C609 C 0.07488 0.99955 0.73696 0.0
C610 C 0.03482 0.99991 0.71962 0.0
C611 C 0.01916 0.02532 0.66836 0.0
C612 C 0.97474 0.02071 0.66225 0.0
C613 C 0.95318 0.0596 0.68075 0.0
C614 C 0.963 0.00586 0.58719 0.0
C615 C 0.96788 0.9894 0.71917 0.0
C616 C 1.00292 0.97815 0.75208 0.0
C617 C 0.00394 0.95175 0.80974 0.0
C618 C 0.96827 0.93519 0.83251 0.0
C619 C 0.93257 0.94456 0.79664 0.0
C620 C 0.9321 0.97246 0.74027 0.0
H621 H 0.52082 0.408 0.93669 0.0
H622 H 0.57362 0.46758 0.11931 0.0
H623 H 0.52418 0.52128 0.10857 0.0
H624 H 0.5009 0.4961 0.83439 0.0
H625 H 0.45459 0.47888 0.79819 0.0
H626 H 0.49268 0.44379 0.82229 0.0
H627 H 0.44367 0.40721 0.90593 0.0
H628 H 0.4054 0.44224 0.88205 0.0
H629 H 0.41836 0.43453 0.97508 0.0
H630 H 0.4699 0.56853 0.07854 0.0
H631 H 0.41558 0.60879 0.02612 0.0
H632 H 0.399 0.52108 0.85943 0.0
C633 C 0.52163 0.43224 0.97464 0.0
C634 C 0.55098 0.43374 0.02887 0.0
C635 C 0.55152 0.46608 0.07712 0.0
C636 C 0.52348 0.49659 0.07167 0.0
C637 C 0.49515 0.49449 0.01738 0.0
C638 C 0.49407 0.46336 0.96932 0.0
C639 C 0.4614 0.46941 0.91411 0.0
C640 C 0.47842 0.47222 0.83774 0.0
C641 C 0.43037 0.43638 0.91965 0.0
C642 C 0.4446 0.50889 0.93844 0.0
C643 C 0.46427 0.5225 -0.00131 0.0
C644 C 0.45422 0.55819 0.03147 0.0
C645 C 0.42339 0.58077 0.0016 0.0
C646 C 0.40333 0.56773 0.9394 0.0
C647 C 0.41396 0.53138 0.90735 0.0
loop_
_geom_bond_atom_site_label_1
_geom_bond_atom_site_label_2
_geom_bond_distance
_geom_bond_site_symmetry_2
_ccdc_geom_bond_type
Cd0 N3 2.334 . S
Cd0 N29 2.304 . S
Cd0 O36 2.268 . S
Cd0 O39 2.273 . S
Cd0 O40 2.417 . S
Cd0 O41 2.330 . S
Cd1 N16 2.304 . S
Cd1 N20 2.334 . S
Cd1 O37 2.273 . S
Cd1 O38 2.268 . S
Cd1 O42 2.417 . S
Cd1 O43 2.330 . S
C2 N3 1.332 . S
C2 C6 1.381 . S
C2 H8 0.931 . S
N3 Cd0 2.334 . S
N3 C2 1.332 . S
N3 C7 1.328 . S
C4 C5 1.396 . S
C4 C7 1.378 . S
C4 H46 0.931 . S
C5 C4 1.396 . S
C5 C6 1.382 . S
C6 C2 1.381 . S
C6 C5 1.382 . S
C6 H47 0.930 . S
C7 N3 1.328 . S
C7 C4 1.378 . S
C7 H9 0.930 . S
H8 C2 0.931 . S
H9 C7 0.930 . S
C10 O36 1.238 . S
C10 O37 1.253 1_554 S
C11 C12 1.379 . S
C11 N16 1.337 . S
C11 H17 0.929 . S
C12 C11 1.379 . S
C12 C13 1.380 . S
C12 H48 0.929 . S
C13 C12 1.380 . S
C13 C14 1.399 . S
C14 C13 1.399 . S
C14 C15 1.376 . S
C14 H49 0.931 . S
C15 C14 1.376 . S
C15 N16 1.338 . S
C15 H18 0.930 . S
N16 Cd1 2.304 . S
N16 C11 1.337 . S
N16 C15 1.338 . S
H17 C11 0.929 . S
H18 C15 0.930 . S
C19 N20 1.332 . S
C19 C23 1.381 . S
C19 H25 0.931 . S
N20 Cd1 2.334 . S
N20 C19 1.332 . S
N20 C24 1.328 . S
C21 C22 1.396 . S
C21 C24 1.378 . S
C21 H50 0.931 . S
C22 C21 1.396 . S
C22 C23 1.382 . S
C23 C19 1.381 . S
C23 C22 1.382 . S
C23 H51 0.930 . S
C24 N20 1.328 . S
C24 C21 1.378 . S
C24 H26 0.930 . S
H25 C19 0.931 . S
H26 C24 0.930 . S
C27 O38 1.238 . S
C27 O39 1.253 1_556 S
C28 O40 1.239 . S
C28 O41 1.230 . S
N29 Cd0 2.304 . S
N29 C30 1.337 . S
N29 C34 1.338 . S
C30 N29 1.337 . S
C30 C31 1.379 . S
C30 H44 0.929 . S
C31 C30 1.379 . S
C31 C32 1.380 . S
C31 H52 0.929 . S
C32 C31 1.380 . S
C32 C33 1.399 . S
C33 C32 1.399 . S
C33 C34 1.376 . S
C33 H53 0.931 . S
C34 N29 1.338 . S
C34 C33 1.376 . S
C34 H45 0.930 . S
C35 O42 1.239 . S
C35 O43 1.230 . S
O36 Cd0 2.268 . S
O36 C10 1.238 . S
O37 Cd1 2.273 . S
O37 C10 1.253 1_556 S
O38 Cd1 2.268 . S
O38 C27 1.238 . S
O39 Cd0 2.273 . S
O39 C27 1.253 1_554 S
O40 Cd0 2.417 . S
O40 C28 1.239 . S
O41 Cd0 2.330 . S
O41 C28 1.230 . S
O42 Cd1 2.417 . S
O42 C35 1.239 . S
O43 Cd1 2.330 . S
O43 C35 1.230 . S
H44 C30 0.929 . S
H45 C34 0.930 . S
H46 C4 0.931 . S
H47 C6 0.930 . S
H48 C12 0.929 . S
H49 C14 0.931 . S
H50 C21 0.931 . S
H51 C23 0.930 . S
H52 C31 0.929 . S
H53 C33 0.931 . S
Cd54 N57 2.334 . S
Cd54 N83 2.304 . S
Cd54 O90 2.268 . S
Cd54 O93 2.273 . S
Cd54 O94 2.417 . S
Cd54 O95 2.330 . S
Cd55 N70 2.304 . S
Cd55 N74 2.334 . S
Cd55 O91 2.273 . S
Cd55 O92 2.268 . S
Cd55 O96 2.417 . S
Cd55 O97 2.330 . S
C56 N57 1.332 . S
C56 C60 1.381 . S
C56 H62 0.931 . S
N57 Cd54 2.334 . S
N57 C56 1.332 . S
N57 C61 1.328 . S
C58 C59 1.396 . S
C58 C61 1.378 . S
C58 H100 0.931 . S
C59 C58 1.396 . S
C59 C60 1.382 . S
C60 C56 1.381 . S
C60 C59 1.382 . S
C60 H101 0.930 . S
C61 N57 1.328 . S
C61 C58 1.378 . S
C61 H63 0.930 . S
H62 C56 0.931 . S
H63 C61 0.930 . S
C64 O90 1.238 . S
C64 O91 1.253 . S
C65 C66 1.379 . S
C65 N70 1.337 . S
C65 H71 0.929 . S
C66 C65 1.379 . S
C66 C67 1.380 . S
C66 H102 0.929 . S
C67 C66 1.380 . S
C67 C68 1.399 . S
C68 C67 1.399 . S
C68 C69 1.376 . S
C68 H103 0.931 . S
C69 C68 1.376 . S
C69 N70 1.338 . S
C69 H72 0.930 . S
N70 Cd55 2.304 . S
N70 C65 1.337 . S
N70 C69 1.338 . S
H71 C65 0.929 . S
H72 C69 0.930 . S
C73 N74 1.332 . S
C73 C77 1.381 . S
C73 H79 0.931 . S
N74 Cd55 2.334 . S
N74 C73 1.332 . S
N74 C78 1.328 . S
C75 C76 1.396 . S
C75 C78 1.378 . S
C75 H104 0.931 . S
C76 C75 1.396 . S
C76 C77 1.382 . S
C77 C73 1.381 . S
C77 C76 1.382 . S
C77 H105 0.930 . S
C78 N74 1.328 . S
C78 C75 1.378 . S
C78 H80 0.930 . S
H79 C73 0.931 . S
H80 C78 0.930 . S
C81 O92 1.238 . S
C81 O93 1.253 . S
C82 O94 1.239 . S
C82 O95 1.230 . S
N83 Cd54 2.304 . S
N83 C84 1.337 . S
N83 C88 1.338 . S
C84 N83 1.337 . S
C84 C85 1.379 . S
C84 H98 0.929 . S
C85 C84 1.379 . S
C85 C86 1.380 . S
C85 H106 0.929 . S
C86 C85 1.380 . S
C86 C87 1.399 . S
C87 C86 1.399 . S
C87 C88 1.376 . S
C87 H107 0.931 . S
C88 N83 1.338 . S
C88 C87 1.376 . S
C88 H99 0.930 . S
C89 O96 1.239 1_556 S
C89 O97 1.230 1_556 S
O90 Cd54 2.268 . S
O90 C64 1.238 . S
O91 Cd55 2.273 . S
O91 C64 1.253 . S
O92 Cd55 2.268 . S
O92 C81 1.238 . S
O93 Cd54 2.273 . S
O93 C81 1.253 . S
O94 Cd54 2.417 . S
O94 C82 1.239 . S
O95 Cd54 2.330 . S
O95 C82 1.230 . S
O96 Cd55 2.417 . S
O96 C89 1.239 1_554 S
O97 Cd55 2.330 . S
O97 C89 1.230 1_554 S
H98 C84 0.929 . S
H99 C88 0.930 . S
H100 C58 0.931 . S
H101 C60 0.930 . S
H102 C66 0.929 . S
H103 C68 0.931 . S
H104 C75 0.931 . S
H105 C77 0.930 . S
H106 C85 0.929 . S
H107 C87 0.931 . S
Cd108 N111 2.334 . S
Cd108 N137 2.304 . S
Cd108 O144 2.268 . S
Cd108 O147 2.273 . S
Cd108 O148 2.417 . S
Cd108 O149 2.330 . S
Cd109 N124 2.304 . S
Cd109 N128 2.334 . S
Cd109 O145 2.273 . S
Cd109 O146 2.268 . S
Cd109 O150 2.417 . S
Cd109 O151 2.330 . S
C110 N111 1.332 . S
C110 C114 1.381 . S
C110 H116 0.931 . S
N111 Cd108 2.334 . S
N111 C110 1.332 . S
N111 C115 1.328 . S
C112 C113 1.396 . S
C112 C115 1.378 . S
C112 H154 0.931 . S
C113 C112 1.396 . S
C113 C114 1.382 . S
C114 C110 1.381 . S
C114 C113 1.382 . S
C114 H155 0.930 . S
C115 N111 1.328 . S
C115 C112 1.378 . S
C115 H117 0.930 . S
H116 C110 0.931 . S
H117 C115 0.930 . S
C118 O144 1.238 . S
C118 O145 1.253 . S
C119 C120 1.379 . S
C119 N124 1.337 . S
C119 H125 0.929 . S
C120 C119 1.379 . S
C120 C121 1.380 . S
C120 H156 0.929 . S
C121 C120 1.380 . S
C121 C122 1.399 . S
C122 C121 1.399 . S
C122 C123 1.376 . S
C122 H157 0.931 . S
C123 C122 1.376 . S
C123 N124 1.338 . S
C123 H126 0.930 . S
N124 Cd109 2.304 . S
N124 C119 1.337 . S
N124 C123 1.338 . S
H125 C119 0.929 . S
H126 C123 0.930 . S
C127 N128 1.332 . S
C127 C131 1.381 . S
C127 H133 0.931 . S
N128 Cd109 2.334 . S
N128 C127 1.332 . S
N128 C132 1.328 . S
C129 C130 1.396 . S
C129 C132 1.378 . S
C129 H158 0.931 . S
C130 C129 1.396 . S
C130 C131 1.382 . S
C131 C127 1.381 . S
C131 C130 1.382 . S
C131 H159 0.930 . S
C132 N128 1.328 . S
C132 C129 1.378 . S
C132 H134 0.930 . S
H133 C127 0.931 . S
H134 C132 0.930 . S
C135 O146 1.238 . S
C135 O147 1.253 . S
C136 O148 1.239 . S
C136 O149 1.230 . S
N137 Cd108 2.304 . S
N137 C138 1.337 . S
N137 C142 1.338 . S
C138 N137 1.337 . S
C138 C139 1.379 . S
C138 H152 0.929 . S
C139 C138 1.379 . S
C139 C140 1.380 . S
C139 H160 0.929 . S
C140 C139 1.380 . S
C140 C141 1.399 . S
C141 C140 1.399 . S
C141 C142 1.376 . S
C141 H161 0.931 . S
C142 N137 1.338 . S
C142 C141 1.376 . S
C142 H153 0.930 . S
C143 O150 1.239 . S
C143 O151 1.230 . S
O144 Cd108 2.268 . S
O144 C118 1.238 . S
O145 Cd109 2.273 . S
O145 C118 1.253 . S
O146 Cd109 2.268 . S
O146 C135 1.238 . S
O147 Cd108 2.273 . S
O147 C135 1.253 . S
O148 Cd108 2.417 . S
O148 C136 1.239 . S
O149 Cd108 2.330 . S
O149 C136 1.230 . S
O150 Cd109 2.417 . S
O150 C143 1.239 . S
O151 Cd109 2.330 . S
O151 C143 1.230 . S
H152 C138 0.929 . S
H153 C142 0.930 . S
H154 C112 0.931 . S
H155 C114 0.930 . S
H156 C120 0.929 . S
H157 C122 0.931 . S
H158 C129 0.931 . S
H159 C131 0.930 . S
H160 C139 0.929 . S
H161 C141 0.931 . S
Cd162 N165 2.334 . S
Cd162 N191 2.304 . S
Cd162 O198 2.268 . S
Cd162 O201 2.273 . S
Cd162 O202 2.417 . S
Cd162 O203 2.330 . S
Cd163 N178 2.304 . S
Cd163 N182 2.334 . S
Cd163 O199 2.273 . S
Cd163 O200 2.268 . S
Cd163 O204 2.417 . S
Cd163 O205 2.330 . S
C164 N165 1.332 . S
C164 C168 1.381 . S
C164 H170 0.931 . S
N165 Cd162 2.334 . S
N165 C164 1.332 . S
N165 C169 1.328 . S
C166 C167 1.396 . S
C166 C169 1.378 . S
C166 H208 0.931 . S
C167 C166 1.396 . S
C167 C168 1.382 . S
C168 C164 1.381 . S
C168 C167 1.382 . S
C168 H209 0.930 . S
C169 N165 1.328 . S
C169 C166 1.378 . S
C169 H171 0.930 . S
H170 C164 0.931 . S
H171 C169 0.930 . S
C172 O198 1.238 . S
C172 O199 1.253 . S
C173 C174 1.379 . S
C173 N178 1.337 . S
C173 H179 0.929 . S
C174 C173 1.379 . S
C174 C175 1.380 . S
C174 H210 0.929 . S
C175 C174 1.380 . S
C175 C176 1.399 . S
C176 C175 1.399 . S
C176 C177 1.376 . S
C176 H211 0.931 . S
C177 C176 1.376 . S
C177 N178 1.338 . S
C177 H180 0.930 . S
N178 Cd163 2.304 . S
N178 C173 1.337 . S
N178 C177 1.338 . S
H179 C173 0.929 . S
H180 C177 0.930 . S
C181 N182 1.332 . S
C181 C185 1.381 . S
C181 H187 0.931 . S
N182 Cd163 2.334 . S
N182 C181 1.332 . S
N182 C186 1.328 . S
C183 C184 1.396 . S
C183 C186 1.378 . S
C183 H212 0.931 . S
C184 C183 1.396 . S
C184 C185 1.382 . S
C185 C181 1.381 . S
C185 C184 1.382 . S
C185 H213 0.930 . S
C186 N182 1.328 . S
C186 C183 1.378 . S
C186 H188 0.930 . S
H187 C181 0.931 . S
H188 C186 0.930 . S
C189 O200 1.238 . S
C189 O201 1.253 . S
C190 O202 1.239 . S
C190 O203 1.230 . S
N191 Cd162 2.304 . S
N191 C192 1.337 . S
N191 C196 1.338 . S
C192 N191 1.337 . S
C192 C193 1.379 . S
C192 H206 0.929 . S
C193 C192 1.379 . S
C193 C194 1.380 . S
C193 H214 0.929 . S
C194 C193 1.380 . S
C194 C195 1.399 . S
C195 C194 1.399 . S
C195 C196 1.376 . S
C195 H215 0.931 . S
C196 N191 1.338 . S
C196 C195 1.376 . S
C196 H207 0.930 . S
C197 O204 1.239 1_554 S
C197 O205 1.230 1_554 S
O198 Cd162 2.268 . S
O198 C172 1.238 . S
O199 Cd163 2.273 . S
O199 C172 1.253 . S
O200 Cd163 2.268 . S
O200 C189 1.238 . S
O201 Cd162 2.273 . S
O201 C189 1.253 . S
O202 Cd162 2.417 . S
O202 C190 1.239 . S
O203 Cd162 2.330 . S
O203 C190 1.230 . S
O204 Cd163 2.417 . S
O204 C197 1.239 1_556 S
O205 Cd163 2.330 . S
O205 C197 1.230 1_556 S
H206 C192 0.929 . S
H207 C196 0.930 . S
H208 C166 0.931 . S
H209 C168 0.930 . S
H210 C174 0.929 . S
H211 C176 0.931 . S
H212 C183 0.931 . S
H213 C185 0.930 . S
H214 C193 0.929 . S
H215 C195 0.931 . S
H216 C228 0.930 . S
H217 C230 0.930 . S
H218 C231 0.930 . S
H219 C235 0.959 . S
H220 C235 0.959 . S
H221 C235 0.961 . S
H222 C236 0.960 . S
H223 C236 0.961 . S
H224 C236 0.959 . S
H225 C239 0.929 . S
H226 C240 0.931 . S
H227 C242 0.930 . S
C228 H216 0.930 . S
C228 C229 1.399 . S
C228 C233 1.399 . S
C229 C228 1.399 . S
C229 C230 1.376 . S
C230 H217 0.930 . S
C230 C229 1.376 . S
C230 C231 1.388 . S
C231 H218 0.930 . S
C231 C230 1.388 . S
C231 C232 1.390 . S
C232 C231 1.390 . S
C232 C233 1.394 . S
C232 C238 1.465 . S
C233 C228 1.399 . S
C233 C232 1.394 . S
C233 C234 1.516 . S
C234 C233 1.516 . S
C234 C235 1.502 . S
C234 C236 1.561 . S
C234 C237 1.526 . S
C235 H219 0.959 . S
C235 H220 0.959 . S
C235 H221 0.961 . S
C235 C234 1.502 . S
C236 H222 0.960 . S
C236 H223 0.961 . S
C236 H224 0.959 . S
C236 C234 1.561 . S
C237 C234 1.526 . S
C237 C238 1.396 . S
C237 C242 1.390 . S
C238 C232 1.465 . S
C238 C237 1.396 . S
C238 C239 1.399 . S
C239 H225 0.929 . S
C239 C238 1.399 . S
C239 C240 1.385 . S
C240 H226 0.931 . S
C240 C239 1.385 . S
C240 C241 1.389 . S
C241 C240 1.389 . S
C241 C242 1.387 . S
C242 H227 0.930 . S
C242 C237 1.390 . S
C242 C241 1.387 . S
H243 C255 0.930 . S
H244 C257 0.930 . S
H245 C258 0.930 . S
H246 C262 0.959 . S
H247 C262 0.959 . S
H248 C262 0.961 . S
H249 C263 0.960 . S
H250 C263 0.961 . S
H251 C263 0.959 . S
H252 C266 0.929 . S
H253 C267 0.931 . S
H254 C269 0.930 . S
C255 H243 0.930 . S
C255 C256 1.399 . S
C255 C260 1.399 . S
C256 C255 1.399 . S
C256 C257 1.376 . S
C257 H244 0.930 . S
C257 C256 1.376 . S
C257 C258 1.388 . S
C258 H245 0.930 . S
C258 C257 1.388 . S
C258 C259 1.390 . S
C259 C258 1.390 . S
C259 C260 1.394 . S
C259 C265 1.465 . S
C260 C255 1.399 . S
C260 C259 1.394 . S
C260 C261 1.516 . S
C261 C260 1.516 . S
C261 C262 1.502 . S
C261 C263 1.561 . S
C261 C264 1.526 . S
C262 H246 0.959 . S
C262 H247 0.959 . S
C262 H248 0.961 . S
C262 C261 1.502 . S
C263 H249 0.960 . S
C263 H250 0.961 . S
C263 H251 0.959 . S
C263 C261 1.561 . S
C264 C261 1.526 . S
C264 C265 1.396 . S
C264 C269 1.390 . S
C265 C259 1.465 . S
C265 C264 1.396 . S
C265 C266 1.399 . S
C266 H252 0.929 . S
C266 C265 1.399 . S
C266 C267 1.385 . S
C267 H253 0.931 . S
C267 C266 1.385 . S
C267 C268 1.389 . S
C268 C267 1.389 . S
C268 C269 1.387 . S
C269 H254 0.930 . S
C269 C264 1.390 . S
C269 C268 1.387 . S
H270 C282 0.930 . S
H271 C284 0.930 . S
H272 C285 0.930 . S
H273 C289 0.959 . S
H274 C289 0.959 1_554 S
H275 C289 0.961 . S
H276 C290 0.960 1_556 S
H277 C290 0.961 . S
H278 C290 0.959 . S
H279 C293 0.929 . S
H280 C294 0.931 . S
H281 C296 0.930 . S
C282 H270 0.930 . S
C282 C283 1.399 . S
C282 C287 1.399 . S
C283 C282 1.399 . S
C283 C284 1.376 . S
C284 H271 0.930 . S
C284 C283 1.376 . S
C284 C285 1.388 . S
C285 H272 0.930 . S
C285 C284 1.388 . S
C285 C286 1.390 . S
C286 C285 1.390 . S
C286 C287 1.394 . S
C286 C292 1.465 1_556 S
C287 C282 1.399 . S
C287 C286 1.394 . S
C287 C288 1.513 1_556 S
C288 C287 1.513 1_554 S
C288 C289 1.501 1_554 S
C288 C290 1.562 . S
C288 C291 1.529 . S
C289 H273 0.959 . S
C289 H274 0.959 1_556 S
C289 H275 0.961 . S
C289 C288 1.501 1_556 S
C290 H276 0.960 1_554 S
C290 H277 0.961 . S
C290 H278 0.959 . S
C290 C288 1.562 . S
C291 C288 1.529 . S
C291 C292 1.396 . S
C291 C296 1.390 . S
C292 C286 1.465 1_554 S
C292 C291 1.396 . S
C292 C293 1.399 . S
C293 H279 0.929 . S
C293 C292 1.399 . S
C293 C294 1.385 . S
C294 H280 0.931 . S
C294 C293 1.385 . S
C294 C295 1.389 . S
C295 C294 1.389 . S
C295 C296 1.387 . S
C296 H281 0.930 . S
C296 C291 1.390 . S
C296 C295 1.387 . S
H297 C309 0.930 . S
H298 C311 0.930 . S
H299 C312 0.930 . S
H300 C316 0.959 . S
H301 C316 0.959 . S
H302 C316 0.961 . S
H303 C317 0.960 . S
H304 C317 0.961 . S
H305 C317 0.959 . S
H306 C320 0.929 . S
H307 C321 0.931 . S
H308 C323 0.930 . S
C309 H297 0.930 . S
C309 C310 1.399 . S
C309 C314 1.399 . S
C310 C309 1.399 . S
C310 C311 1.376 . S
C311 H298 0.930 . S
C311 C310 1.376 . S
C311 C312 1.388 . S
C312 H299 0.930 . S
C312 C311 1.388 . S
C312 C313 1.390 . S
C313 C312 1.390 . S
C313 C314 1.394 . S
C313 C319 1.465 . S
C314 C309 1.399 . S
C314 C313 1.394 . S
C314 C315 1.516 . S
C315 C314 1.516 . S
C315 C316 1.502 . S
C315 C317 1.561 . S
C315 C318 1.526 . S
C316 H300 0.959 . S
C316 H301 0.959 . S
C316 H302 0.961 . S
C316 C315 1.502 . S
C317 H303 0.960 . S
C317 H304 0.961 . S
C317 H305 0.959 . S
C317 C315 1.561 . S
C318 C315 1.526 . S
C318 C319 1.396 . S
C318 C323 1.390 . S
C319 C313 1.465 . S
C319 C318 1.396 . S
C319 C320 1.399 . S
C320 H306 0.929 . S
C320 C319 1.399 . S
C320 C321 1.385 . S
C321 H307 0.931 . S
C321 C320 1.385 . S
C321 C322 1.389 . S
C322 C321 1.389 . S
C322 C323 1.387 . S
C323 H308 0.930 . S
C323 C318 1.390 . S
C323 C322 1.387 . S
H324 C336 0.930 . S
H325 C338 0.930 . S
H326 C339 0.930 . S
H327 C343 0.959 . S
H328 C343 0.959 . S
H329 C343 0.961 . S
H330 C344 0.960 . S
H331 C344 0.961 . S
H332 C344 0.959 . S
H333 C347 0.929 . S
H334 C348 0.931 . S
H335 C350 0.930 . S
C336 H324 0.930 . S
C336 C337 1.399 . S
C336 C341 1.399 . S
C337 C336 1.399 . S
C337 C338 1.376 . S
C338 H325 0.930 . S
C338 C337 1.376 . S
C338 C339 1.388 . S
C339 H326 0.930 . S
C339 C338 1.388 . S
C339 C340 1.390 . S
C340 C339 1.390 . S
C340 C341 1.394 . S
C340 C346 1.465 . S
C341 C336 1.399 . S
C341 C340 1.394 . S
C341 C342 1.516 . S
C342 C341 1.516 . S
C342 C343 1.502 . S
C342 C344 1.561 . S
C342 C345 1.526 . S
C343 H327 0.959 . S
C343 H328 0.959 . S
C343 H329 0.961 . S
C343 C342 1.502 . S
C344 H330 0.960 . S
C344 H331 0.961 . S
C344 H332 0.959 . S
C344 C342 1.561 . S
C345 C342 1.526 . S
C345 C346 1.396 . S
C345 C350 1.390 . S
C346 C340 1.465 . S
C346 C345 1.396 . S
C346 C347 1.399 . S
C347 H333 0.929 . S
C347 C346 1.399 . S
C347 C348 1.385 . S
C348 H334 0.931 . S
C348 C347 1.385 . S
C348 C349 1.389 . S
C349 C348 1.389 . S
C349 C350 1.387 . S
C350 H335 0.930 . S
C350 C345 1.390 . S
C350 C349 1.387 . S
H351 C363 0.930 . S
H352 C365 0.930 . S
H353 C366 0.930 . S
H354 C370 0.959 1_554 S
H355 C370 0.959 . S
H356 C370 0.961 . S
H357 C371 0.960 . S
H358 C371 0.961 . S
H359 C371 0.959 . S
H360 C374 0.928 1_545 S
H361 C375 0.931 . S
H362 C377 0.930 1_556 S
C363 H351 0.930 . S
C363 C364 1.399 . S
C363 C368 1.399 . S
C364 C363 1.399 . S
C364 C365 1.376 . S
C365 H352 0.930 . S
C365 C364 1.376 . S
C365 C366 1.388 . S
C366 H353 0.930 . S
C366 C365 1.388 . S
C366 C367 1.390 . S
C367 C366 1.390 . S
C367 C368 1.394 . S
C367 C373 1.465 . S
C368 C363 1.399 . S
C368 C367 1.394 . S
C368 C369 1.516 . S
C369 C368 1.516 . S
C369 C370 1.502 1_554 S
C369 C371 1.561 1_554 S
C369 C372 1.526 . S
C370 H354 0.959 1_556 S
C370 H355 0.959 . S
C370 H356 0.961 . S
C370 C369 1.502 1_556 S
C371 H357 0.960 . S
C371 H358 0.961 . S
C371 H359 0.959 . S
C371 C369 1.561 1_556 S
C372 C369 1.526 . S
C372 C373 1.396 . S
C372 C377 1.390 1_545 S
C373 C367 1.465 . S
C373 C372 1.396 . S
C373 C374 1.399 1_545 S
C374 H360 0.928 1_565 S
C374 C373 1.399 1_565 S
C374 C375 1.385 . S
C375 H361 0.931 . S
C375 C374 1.385 . S
C375 C376 1.389 . S
C376 C375 1.389 . S
C376 C377 1.387 . S
C377 H362 0.930 1_554 S
C377 C372 1.390 1_565 S
C377 C376 1.387 . S
H378 C390 0.930 . S
H379 C392 0.930 . S
H380 C393 0.930 . S
H381 C397 0.959 . S
H382 C397 0.959 . S
H383 C397 0.961 . S
H384 C398 0.960 . S
H385 C398 0.961 . S
H386 C398 0.959 . S
H387 C401 0.929 . S
H388 C402 0.931 . S
H389 C404 0.930 . S
C390 H378 0.930 . S
C390 C391 1.399 . S
C390 C395 1.399 . S
C391 C390 1.399 . S
C391 C392 1.376 . S
C392 H379 0.930 . S
C392 C391 1.376 . S
C392 C393 1.388 . S
C393 H380 0.930 . S
C393 C392 1.388 . S
C393 C394 1.390 . S
C394 C393 1.390 . S
C394 C395 1.394 . S
C394 C400 1.465 . S
C395 C390 1.399 . S
C395 C394 1.394 . S
C395 C396 1.516 . S
C396 C395 1.516 . S
C396 C397 1.502 . S
C396 C398 1.561 . S
C396 C399 1.526 . S
C397 H381 0.959 . S
C397 H382 0.959 . S
C397 H383 0.961 . S
C397 C396 1.502 . S
C398 H384 0.960 . S
C398 H385 0.961 . S
C398 H386 0.959 . S
C398 C396 1.561 . S
C399 C396 1.526 . S
C399 C400 1.396 . S
C399 C404 1.390 . S
C400 C394 1.465 . S
C400 C399 1.396 . S
C400 C401 1.399 . S
C401 H387 0.929 . S
C401 C400 1.399 . S
C401 C402 1.385 . S
C402 H388 0.931 . S
C402 C401 1.385 . S
C402 C403 1.389 . S
C403 C402 1.389 . S
C403 C404 1.387 . S
C404 H389 0.930 . S
C404 C399 1.390 . S
C404 C403 1.387 . S
H405 C417 0.930 . S
H406 C419 0.930 . S
H407 C420 0.930 . S
H408 C424 0.959 . S
H409 C424 0.959 . S
H410 C424 0.961 . S
H411 C425 0.960 . S
H412 C425 0.961 . S
H413 C425 0.959 . S
H414 C428 0.929 . S
H415 C429 0.931 . S
H416 C431 0.930 . S
C417 H405 0.930 . S
C417 C418 1.399 . S
C417 C422 1.399 . S
C418 C417 1.399 . S
C418 C419 1.376 . S
C419 H406 0.930 . S
C419 C418 1.376 . S
C419 C420 1.388 . S
C420 H407 0.930 . S
C420 C419 1.388 . S
C420 C421 1.390 . S
C421 C420 1.390 . S
C421 C422 1.394 . S
C421 C427 1.465 . S
C422 C417 1.399 . S
C422 C421 1.394 . S
C422 C423 1.516 . S
C423 C422 1.516 . S
C423 C424 1.502 . S
C423 C425 1.561 . S
C423 C426 1.526 . S
C424 H408 0.959 . S
C424 H409 0.959 . S
C424 H410 0.961 . S
C424 C423 1.502 . S
C425 H411 0.960 . S
C425 H412 0.961 . S
C425 H413 0.959 . S
C425 C423 1.561 . S
C426 C423 1.526 . S
C426 C427 1.396 . S
C426 C431 1.390 1_565 S
C427 C421 1.465 . S
C427 C426 1.396 . S
C427 C428 1.399 1_565 S
C428 H414 0.929 . S
C428 C427 1.399 1_545 S
C428 C429 1.385 . S
C429 H415 0.931 . S
C429 C428 1.385 . S
C429 C430 1.389 . S
C430 C429 1.389 . S
C430 C431 1.387 . S
C431 H416 0.930 . S
C431 C426 1.390 1_545 S
C431 C430 1.387 . S
H432 C444 0.930 . S
H433 C446 0.930 . S
H434 C447 0.930 . S
H435 C451 0.959 . S
H436 C451 0.959 . S
H437 C451 0.961 . S
H438 C452 0.960 1_554 S
H439 C452 0.961 . S
H440 C452 0.959 1_554 S
H441 C455 0.929 . S
H442 C456 0.931 . S
H443 C458 0.930 . S
C444 H432 0.930 . S
C444 C445 1.399 . S
C444 C449 1.399 1_655 S
C445 C444 1.399 . S
C445 C446 1.376 . S
C446 H433 0.930 . S
C446 C445 1.376 . S
C446 C447 1.388 1_655 S
C447 H434 0.930 . S
C447 C446 1.388 1_455 S
C447 C448 1.390 . S
C448 C447 1.390 . S
C448 C449 1.394 . S
C448 C454 1.465 . S
C449 C444 1.399 1_455 S
C449 C448 1.394 . S
C449 C450 1.516 . S
C450 C449 1.516 . S
C450 C451 1.502 . S
C450 C452 1.561 . S
C450 C453 1.526 . S
C451 H435 0.959 . S
C451 H436 0.959 . S
C451 H437 0.961 . S
C451 C450 1.502 . S
C452 H438 0.960 1_556 S
C452 H439 0.961 . S
C452 H440 0.959 1_556 S
C452 C450 1.561 . S
C453 C450 1.526 . S
C453 C454 1.396 . S
C453 C458 1.390 . S
C454 C448 1.465 . S
C454 C453 1.396 . S
C454 C455 1.399 . S
C455 H441 0.929 . S
C455 C454 1.399 . S
C455 C456 1.385 . S
C456 H442 0.931 . S
C456 C455 1.385 . S
C456 C457 1.389 . S
C457 C456 1.389 . S
C457 C458 1.387 . S
C458 H443 0.930 . S
C458 C453 1.390 . S
C458 C457 1.387 . S
H459 C471 0.930 . S
H460 C473 0.930 . S
H461 C474 0.930 . S
H462 C478 0.959 . S
H463 C478 0.959 . S
H464 C478 0.961 . S
H465 C479 0.960 . S
H466 C479 0.961 . S
H467 C479 0.959 . S
H468 C482 0.929 . S
H469 C483 0.931 . S
H470 C485 0.930 . S
C471 H459 0.930 . S
C471 C472 1.399 . S
C471 C476 1.399 . S
C472 C471 1.399 . S
C472 C473 1.376 . S
C473 H460 0.930 . S
C473 C472 1.376 . S
C473 C474 1.388 . S
C474 H461 0.930 . S
C474 C473 1.388 . S
C474 C475 1.390 . S
C475 C474 1.390 . S
C475 C476 1.394 . S
C475 C481 1.465 . S
C476 C471 1.399 . S
C476 C475 1.394 . S
C476 C477 1.516 . S
C477 C476 1.516 . S
C477 C478 1.502 . S
C477 C479 1.561 . S
C477 C480 1.526 . S
C478 H462 0.959 . S
C478 H463 0.959 . S
C478 H464 0.961 . S
C478 C477 1.502 . S
C479 H465 0.960 . S
C479 H466 0.961 . S
C479 H467 0.959 . S
C479 C477 1.561 . S
C480 C477 1.526 . S
C480 C481 1.396 . S
C480 C485 1.390 . S
C481 C475 1.465 . S
C481 C480 1.396 . S
C481 C482 1.399 . S
C482 H468 0.929 . S
C482 C481 1.399 . S
C482 C483 1.385 . S
C483 H469 0.931 . S
C483 C482 1.385 . S
C483 C484 1.389 . S
C484 C483 1.389 . S
C484 C485 1.387 . S
C485 H470 0.930 . S
C485 C480 1.390 . S
C485 C484 1.387 . S
H486 C498 0.930 . S
H487 C500 0.930 . S
H488 C501 0.930 . S
H489 C505 0.959 . S
H490 C505 0.959 . S
H491 C505 0.961 . S
H492 C506 0.960 . S
H493 C506 0.961 . S
H494 C506 0.959 . S
H495 C509 0.930 . S
H496 C510 0.931 . S
H497 C512 0.930 . S
C498 H486 0.930 . S
C498 C499 1.399 . S
C498 C503 1.399 . S
C499 C498 1.399 . S
C499 C500 1.376 . S
C500 H487 0.930 . S
C500 C499 1.376 . S
C500 C501 1.388 . S
C501 H488 0.930 . S
C501 C500 1.388 . S
C501 C502 1.390 . S
C502 C501 1.390 . S
C502 C503 1.394 . S
C502 C508 1.465 . S
C503 C498 1.399 . S
C503 C502 1.394 . S
C503 C504 1.516 . S
C504 C503 1.516 . S
C504 C505 1.502 . S
C504 C506 1.561 . S
C504 C507 1.526 . S
C505 H489 0.959 . S
C505 H490 0.959 . S
C505 H491 0.961 . S
C505 C504 1.502 . S
C506 H492 0.960 . S
C506 H493 0.961 . S
C506 H494 0.959 . S
C506 C504 1.561 . S
C507 C504 1.526 . S
C507 C508 1.396 . S
C507 C512 1.390 1_655 S
C508 C502 1.465 . S
C508 C507 1.396 . S
C508 C509 1.399 1_655 S
C509 H495 0.930 . S
C509 C508 1.399 1_455 S
C509 C510 1.385 . S
C510 H496 0.931 . S
C510 C509 1.385 . S
C510 C511 1.389 . S
C511 C510 1.389 . S
C511 C512 1.387 . S
C512 H497 0.930 . S
C512 C507 1.390 1_455 S
C512 C511 1.387 . S
H513 C525 0.930 . S
H514 C527 0.930 . S
H515 C528 0.930 . S
H516 C532 0.959 . S
H517 C532 0.959 . S
H518 C532 0.961 . S
H519 C533 0.960 . S
H520 C533 0.961 . S
H521 C533 0.959 . S
H522 C536 0.929 . S
H523 C537 0.931 . S
H524 C539 0.930 . S
C525 H513 0.930 . S
C525 C526 1.399 . S
C525 C530 1.399 . S
C526 C525 1.399 . S
C526 C527 1.376 . S
C527 H514 0.930 . S
C527 C526 1.376 . S
C527 C528 1.388 . S
C528 H515 0.930 . S
C528 C527 1.388 . S
C528 C529 1.390 . S
C529 C528 1.390 . S
C529 C530 1.394 . S
C529 C535 1.465 . S
C530 C525 1.399 . S
C530 C529 1.394 . S
C530 C531 1.516 . S
C531 C530 1.516 . S
C531 C532 1.502 . S
C531 C533 1.561 . S
C531 C534 1.526 . S
C532 H516 0.959 . S
C532 H517 0.959 . S
C532 H518 0.961 . S
C532 C531 1.502 . S
C533 H519 0.960 . S
C533 H520 0.961 . S
C533 H521 0.959 . S
C533 C531 1.561 . S
C534 C531 1.526 . S
C534 C535 1.396 . S
C534 C539 1.390 . S
C535 C529 1.465 . S
C535 C534 1.396 . S
C535 C536 1.399 . S
C536 H522 0.929 . S
C536 C535 1.399 . S
C536 C537 1.385 . S
C537 H523 0.931 . S
C537 C536 1.385 . S
C537 C538 1.389 . S
C538 C537 1.389 . S
C538 C539 1.387 . S
C539 H524 0.930 . S
C539 C534 1.390 . S
C539 C538 1.387 . S
H540 C552 0.930 1_655 S
H541 C554 0.930 . S
H542 C555 0.930 . S
H543 C559 0.959 . S
H544 C559 0.959 . S
H545 C559 0.961 1_545 S
H546 C560 0.960 . S
H547 C560 0.961 . S
H548 C560 0.959 . S
H549 C563 0.929 . S
H550 C564 0.931 . S
H551 C566 0.930 . S
C552 H540 0.930 1_455 S
C552 C553 1.399 . S
C552 C557 1.399 . S
C553 C552 1.399 . S
C553 C554 1.376 . S
C554 H541 0.930 . S
C554 C553 1.376 . S
C554 C555 1.388 1_545 S
C555 H542 0.930 . S
C555 C554 1.388 1_565 S
C555 C556 1.390 . S
C556 C555 1.390 . S
C556 C557 1.394 1_565 S
C556 C562 1.465 . S
C557 C552 1.399 . S
C557 C556 1.394 1_545 S
C557 C558 1.516 1_455 S
C558 C557 1.516 1_655 S
C558 C559 1.502 1_545 S
C558 C560 1.561 . S
C558 C561 1.526 1_545 S
C559 H543 0.959 . S
C559 H544 0.959 . S
C559 H545 0.961 1_565 S
C559 C558 1.502 1_565 S
C560 H546 0.960 . S
C560 H547 0.961 . S
C560 H548 0.959 . S
C560 C558 1.561 . S
C561 C558 1.526 1_565 S
C561 C562 1.396 1_655 S
C561 C566 1.390 . S
C562 C556 1.465 . S
C562 C561 1.396 1_455 S
C562 C563 1.399 . S
C563 H549 0.929 . S
C563 C562 1.399 . S
C563 C564 1.385 . S
C564 H550 0.931 . S
C564 C563 1.385 . S
C564 C565 1.389 1_455 S
C565 C564 1.389 1_655 S
C565 C566 1.387 . S
C566 H551 0.930 . S
C566 C561 1.390 . S
C566 C565 1.387 . S
H567 C579 0.930 . S
H568 C581 0.930 . S
H569 C582 0.930 . S
H570 C586 0.959 . S
H571 C586 0.959 . S
H572 C586 0.961 . S
H573 C587 0.960 . S
H574 C587 0.961 . S
H575 C587 0.959 . S
H576 C590 0.929 . S
H577 C591 0.931 . S
H578 C593 0.930 . S
C579 H567 0.930 . S
C579 C580 1.399 . S
C579 C584 1.399 . S
C580 C579 1.399 . S
C580 C581 1.376 . S
C581 H568 0.930 . S
C581 C580 1.376 . S
C581 C582 1.388 . S
C582 H569 0.930 . S
C582 C581 1.388 . S
C582 C583 1.390 . S
C583 C582 1.390 . S
C583 C584 1.394 . S
C583 C589 1.465 . S
C584 C579 1.399 . S
C584 C583 1.394 . S
C584 C585 1.516 . S
C585 C584 1.516 . S
C585 C586 1.502 . S
C585 C587 1.561 . S
C585 C588 1.526 . S
C586 H570 0.959 . S
C586 H571 0.959 . S
C586 H572 0.961 . S
C586 C585 1.502 . S
C587 H573 0.960 . S
C587 H574 0.961 . S
C587 H575 0.959 . S
C587 C585 1.561 . S
C588 C585 1.526 . S
C588 C589 1.396 . S
C588 C593 1.390 . S
C589 C583 1.465 . S
C589 C588 1.396 . S
C589 C590 1.399 . S
C590 H576 0.929 . S
C590 C589 1.399 . S
C590 C591 1.385 . S
C591 H577 0.931 . S
C591 C590 1.385 . S
C591 C592 1.389 . S
C592 C591 1.389 . S
C592 C593 1.387 . S
C593 H578 0.930 . S
C593 C588 1.390 . S
C593 C592 1.387 . S
H594 C606 0.930 . S
H595 C608 0.930 . S
H596 C609 0.930 1_565 S
H597 C613 0.959 . S
H598 C613 0.959 . S
H599 C613 0.961 . S
H600 C614 0.960 . S
H601 C614 0.961 . S
H602 C614 0.959 1_565 S
H603 C617 0.929 . S
H604 C618 0.929 1_455 S
H605 C620 0.930 . S
C606 H594 0.930 . S
C606 C607 1.399 1_655 S
C606 C611 1.399 . S
C607 C606 1.399 1_455 S
C607 C608 1.376 . S
C608 H595 0.930 . S
C608 C607 1.376 . S
C608 C609 1.388 . S
C609 H596 0.930 1_545 S
C609 C608 1.388 . S
C609 C610 1.390 . S
C610 C609 1.390 . S
C610 C611 1.394 1_455 S
C610 C616 1.465 1_445 S
C611 C606 1.399 . S
C611 C610 1.394 1_655 S
C611 C612 1.516 . S
C612 C611 1.516 . S
C612 C613 1.502 . S
C612 C614 1.561 . S
C612 C615 1.526 . S
C613 H597 0.959 . S
C613 H598 0.959 . S
C613 H599 0.961 . S
C613 C612 1.502 . S
C614 H600 0.960 . S
C614 H601 0.961 . S
C614 H602 0.959 1_545 S
C614 C612 1.561 . S
C615 C612 1.526 . S
C615 C616 1.396 1_545 S
C615 C620 1.390 1_545 S
C616 C610 1.465 1_665 S
C616 C615 1.396 1_565 S
C616 C617 1.399 1_655 S
C617 H603 0.929 . S
C617 C616 1.399 1_455 S
C617 C618 1.385 1_455 S
C618 H604 0.929 1_655 S
C618 C617 1.385 1_655 S
C618 C619 1.389 . S
C619 C618 1.389 . S
C619 C620 1.387 . S
C620 H605 0.930 . S
C620 C615 1.390 1_565 S
C620 C619 1.387 . S
H621 C633 0.930 . S
H622 C635 0.930 . S
H623 C636 0.930 . S
H624 C640 0.959 . S
H625 C640 0.959 . S
H626 C640 0.961 . S
H627 C641 0.960 . S
H628 C641 0.961 . S
H629 C641 0.959 . S
H630 C644 0.929 1_554 S
H631 C645 0.931 . S
H632 C647 0.930 . S
C633 H621 0.930 . S
C633 C634 1.399 . S
C633 C638 1.399 . S
C634 C633 1.399 . S
C634 C635 1.376 . S
C635 H622 0.930 . S
C635 C634 1.376 . S
C635 C636 1.388 . S
C636 H623 0.930 . S
C636 C635 1.388 . S
C636 C637 1.390 . S
C637 C636 1.390 . S
C637 C638 1.394 . S
C637 C643 1.465 1_554 S
C638 C633 1.399 . S
C638 C637 1.394 . S
C638 C639 1.516 1_554 S
C639 C638 1.516 1_556 S
C639 C640 1.502 . S
C639 C641 1.561 . S
C639 C642 1.526 . S
C640 H624 0.959 . S
C640 H625 0.959 . S
C640 H626 0.961 . S
C640 C639 1.502 . S
C641 H627 0.960 . S
C641 H628 0.961 . S
C641 H629 0.959 . S
C641 C639 1.561 . S
C642 C639 1.526 . S
C642 C643 1.396 . S
C642 C647 1.390 . S
C643 C637 1.465 1_556 S
C643 C642 1.396 . S
C643 C644 1.399 . S
C644 H630 0.929 1_556 S
C644 C643 1.399 . S
C644 C645 1.385 . S
C645 H631 0.931 . S
C645 C644 1.385 . S
C645 C646 1.389 . S
C646 C645 1.389 . S
C646 C647 1.387 . S
C647 H632 0.930 . S
C647 C642 1.390 . S
C647 C646 1.387 . S
C229 C28 0.952 . S
C241 C35 0.960 . S
C256 C82 0.945 . S
C268 C89 0.968 . S
C283 C143 0.978 . S
C295 C136 0.957 . S
C310 C197 0.933 . S
C322 C190 0.988 . S
C337 C189 2.351 . S
C349 C22 2.377 . S
C364 C76 2.376 . S
C376 C10 2.353 . S
C391 C113 2.356 . S
C403 C64 2.325 . S
C418 C167 2.375 . S
C430 C135 2.356 . S
C445 C27 2.377 . S
C457 C184 2.312 . S
C472 C81 2.332 . S
C484 C5 2.378 . S
C499 C59 2.355 . S
C511 C118 2.379 . S
C526 C130 2.320 . S
C538 C172 2.350 . S
C553 C140 0.642 . S
C565 C32 0.806 . S
C580 C86 0.722 . S
C592 C194 0.729 . S
C607 C121 0.743 . S
C619 C13 0.767 . S
C634 C67 0.851 . S
C646 C175 0.626 . S
