# Generated by pormake.
# Topology smd, (6)-cn, num edge types: 1
# Building blocks:
#     Node 0, Type 0, BuildingBlock: UKALOJ_clean_sbu_0, # of connection points: 6
#     Node 1, Type 0, BuildingBlock: UKALOJ_clean_sbu_0, # of connection points: 6
#     Node 2, Type 0, BuildingBlock: UKALOJ_clean_sbu_0, # of connection points: 6
#     Node 3, Type 0, BuildingBlock: UKALOJ_clean_sbu_0, # of connection points: 6
#     Node 4, Type 0, BuildingBlock: UKALOJ_clean_sbu_0, # of connection points: 6
#     Node 5, Type 0, BuildingBlock: UKALOJ_clean_sbu_0, # of connection points: 6
#     Node 6, Type 0, BuildingBlock: UKALOJ_clean_sbu_0, # of connection points: 6
#     Node 7, Type 0, BuildingBlock: UKALOJ_clean_sbu_0, # of connection points: 6
#     Node 8, Type 0, BuildingBlock: UKALOJ_clean_sbu_0, # of connection points: 6
#     Node 9, Type 0, BuildingBlock: UKALOJ_clean_sbu_0, # of connection points: 6
#     Node 10, Type 0, BuildingBlock: UKALOJ_clean_sbu_0, # of connection points: 6
#     Node 11, Type 0, BuildingBlock: UKALOJ_clean_sbu_0, # of connection points: 6
#     Node 12, Type 0, BuildingBlock: UKALOJ_clean_sbu_0, # of connection points: 6
#     Node 13, Type 0, BuildingBlock: UKALOJ_clean_sbu_0, # of connection points: 6
#     Node 14, Type 0, BuildingBlock: UKALOJ_clean_sbu_0, # of connection points: 6
#     Node 15, Type 0, BuildingBlock: UKALOJ_clean_sbu_0, # of connection points: 6
#     Node 16, Type 0, BuildingBlock: UKALOJ_clean_sbu_0, # of connection points: 6
#     Node 17, Type 0, BuildingBlock: UKALOJ_clean_sbu_0, # of connection points: 6
#     Edge 18, Type (0, 0), BuildingBlock: UVAHIK_clean_linker_0, # of connection points: 2
#     Edge 19, Type (0, 0), BuildingBlock: UVAHIK_clean_linker_0, # of connection points: 2
#     Edge 20, Type (0, 0), BuildingBlock: UVAHIK_clean_linker_0, # of connection points: 2
#     Edge 21, Type (0, 0), BuildingBlock: UVAHIK_clean_linker_0, # of connection points: 2
#     Edge 22, Type (0, 0), BuildingBlock: UVAHIK_clean_linker_0, # of connection points: 2
#     Edge 23, Type (0, 0), BuildingBlock: UVAHIK_clean_linker_0, # of connection points: 2
#     Edge 24, Type (0, 0), BuildingBlock: UVAHIK_clean_linker_0, # of connection points: 2
#     Edge 25, Type (0, 0), BuildingBlock: UVAHIK_clean_linker_0, # of connection points: 2
#     Edge 26, Type (0, 0), BuildingBlock: UVAHIK_clean_linker_0, # of connection points: 2
#     Edge 27, Type (0, 0), BuildingBlock: UVAHIK_clean_linker_0, # of connection points: 2
#     Edge 28, Type (0, 0), BuildingBlock: UVAHIK_clean_linker_0, # of connection points: 2
#     Edge 29, Type (0, 0), BuildingBlock: UVAHIK_clean_linker_0, # of connection points: 2
#     Edge 30, Type (0, 0), BuildingBlock: UVAHIK_clean_linker_0, # of connection points: 2
#     Edge 31, Type (0, 0), BuildingBlock: UVAHIK_clean_linker_0, # of connection points: 2
#     Edge 32, Type (0, 0), BuildingBlock: UVAHIK_clean_linker_0, # of connection points: 2
#     Edge 33, Type (0, 0), BuildingBlock: UVAHIK_clean_linker_0, # of connection points: 2
#     Edge 34, Type (0, 0), BuildingBlock: UVAHIK_clean_linker_0, # of connection points: 2
#     Edge 35, Type (0, 0), BuildingBlock: UVAHIK_clean_linker_0, # of connection points: 2
#     Edge 36, Type (0, 0), BuildingBlock: UVAHIK_clean_linker_0, # of connection points: 2
#     Edge 37, Type (0, 0), BuildingBlock: UVAHIK_clean_linker_0, # of connection points: 2
#     Edge 38, Type (0, 0), BuildingBlock: UVAHIK_clean_linker_0, # of connection points: 2
#     Edge 39, Type (0, 0), BuildingBlock: UVAHIK_clean_linker_0, # of connection points: 2
#     Edge 40, Type (0, 0), BuildingBlock: UVAHIK_clean_linker_0, # of connection points: 2
#     Edge 41, Type (0, 0), BuildingBlock: UVAHIK_clean_linker_0, # of connection points: 2
#     Edge 42, Type (0, 0), BuildingBlock: UVAHIK_clean_linker_0, # of connection points: 2
#     Edge 43, Type (0, 0), BuildingBlock: UVAHIK_clean_linker_0, # of connection points: 2
#     Edge 44, Type (0, 0), BuildingBlock: UVAHIK_clean_linker_0, # of connection points: 2
#     Edge 45, Type (0, 0), BuildingBlock: UVAHIK_clean_linker_0, # of connection points: 2
#     Edge 46, Type (0, 0), BuildingBlock: UVAHIK_clean_linker_0, # of connection points: 2
#     Edge 47, Type (0, 0), BuildingBlock: UVAHIK_clean_linker_0, # of connection points: 2
#     Edge 48, Type (0, 0), BuildingBlock: UVAHIK_clean_linker_0, # of connection points: 2
#     Edge 49, Type (0, 0), BuildingBlock: UVAHIK_clean_linker_0, # of connection points: 2
#     Edge 50, Type (0, 0), BuildingBlock: UVAHIK_clean_linker_0, # of connection points: 2
#     Edge 51, Type (0, 0), BuildingBlock: UVAHIK_clean_linker_0, # of connection points: 2
#     Edge 52, Type (0, 0), BuildingBlock: UVAHIK_clean_linker_0, # of connection points: 2
#     Edge 53, Type (0, 0), BuildingBlock: UVAHIK_clean_linker_0, # of connection points: 2
#     Edge 54, Type (0, 0), BuildingBlock: UVAHIK_clean_linker_0, # of connection points: 2
#     Edge 55, Type (0, 0), BuildingBlock: UVAHIK_clean_linker_0, # of connection points: 2
#     Edge 56, Type (0, 0), BuildingBlock: UVAHIK_clean_linker_0, # of connection points: 2
#     Edge 57, Type (0, 0), BuildingBlock: UVAHIK_clean_linker_0, # of connection points: 2
#     Edge 58, Type (0, 0), BuildingBlock: UVAHIK_clean_linker_0, # of connection points: 2
#     Edge 59, Type (0, 0), BuildingBlock: UVAHIK_clean_linker_0, # of connection points: 2
#     Edge 60, Type (0, 0), BuildingBlock: UVAHIK_clean_linker_0, # of connection points: 2
#     Edge 61, Type (0, 0), BuildingBlock: UVAHIK_clean_linker_0, # of connection points: 2
#     Edge 62, Type (0, 0), BuildingBlock: UVAHIK_clean_linker_0, # of connection points: 2
#     Edge 63, Type (0, 0), BuildingBlock: UVAHIK_clean_linker_0, # of connection points: 2
#     Edge 64, Type (0, 0), BuildingBlock: UVAHIK_clean_linker_0, # of connection points: 2
#     Edge 65, Type (0, 0), BuildingBlock: UVAHIK_clean_linker_0, # of connection points: 2
#     Edge 66, Type (0, 0), BuildingBlock: UVAHIK_clean_linker_0, # of connection points: 2
#     Edge 67, Type (0, 0), BuildingBlock: UVAHIK_clean_linker_0, # of connection points: 2
#     Edge 68, Type (0, 0), BuildingBlock: UVAHIK_clean_linker_0, # of connection points: 2
#     Edge 69, Type (0, 0), BuildingBlock: UVAHIK_clean_linker_0, # of connection points: 2
#     Edge 70, Type (0, 0), BuildingBlock: UVAHIK_clean_linker_0, # of connection points: 2
#     Edge 71, Type (0, 0), BuildingBlock: UVAHIK_clean_linker_0, # of connection points: 2
# Relax obj value: 0.232
# Max RMSD: 0.232
# Mean RMSD: 0.200
data_MOF--net-smd--node1-UKALOJ_clean_sbu_0--edge1-UVAHIK_clean_linker_0
_symmetry_space_group_name_H-M    P1
_symmetry_Int_Tables_number       1
_symmetry_cell_setting            triclinic
loop_
_symmetry_equiv_pos_as_xyz
'x, y, z'
_cell_length_a     105.51675
_cell_length_b     97.727696
_cell_length_c     19.650126
_cell_angle_alpha  89.227959
_cell_angle_beta   89.192305
_cell_angle_gamma 120.12197
loop_
_atom_site_label
_atom_site_type_symbol
_atom_site_fract_x
_atom_site_fract_y
_atom_site_fract_z
_atom_type_partial_charge
Zn0 Zn 0.03864 0.32225 0.39242 0.0
O1 O 0.02128 0.29929 0.40978 0.0
C2 C 0.05086 0.32173 0.52758 0.0
Zn3 Zn 0.05405 0.31296 0.38919 0.0
C4 C 0.02315 0.28751 0.41611 0.0
O5 O 0.03602 0.28961 0.40979 0.0
C6 C 0.06912 0.34801 0.36581 0.0
O7 O 0.05038 0.30969 0.28494 0.0
O8 O 0.03555 0.31936 0.287 0.0
N9 N 0.06767 0.30385 0.38483 0.0
C10 C 0.07999 0.30783 0.34826 0.0
C11 C 0.0751 0.28751 0.40946 0.0
N12 N 0.06466 0.29122 0.42271 0.0
N13 N 0.08488 0.29776 0.36301 0.0
C14 C 0.01486 0.32887 0.44972 0.0
C15 C 0.01326 0.34337 0.37228 0.0
N16 N 0.02431 0.33055 0.399 0.0
N17 N 0.02323 0.33949 0.35067 0.0
N18 N 1.00789 0.33681 0.43427 0.0
H19 H 0.01477 0.30977 0.50804 0.0
H20 H 1.00043 0.31387 0.53088 0.0
H21 H 0.01887 0.32716 0.55489 0.0
C22 C 0.01209 0.31926 0.51417 0.0
C23 C 0.08673 0.32096 0.29573 0.0
H24 H 0.09253 0.31826 0.25528 0.0
H25 H 0.09479 0.332 0.32055 0.0
H26 H 0.07829 0.32297 0.2724 0.0
O27 O 0.07179 0.33667 0.36882 0.0
O28 O 0.05605 0.34513 0.37454 0.0
C29 C 0.04216 0.31361 0.25393 0.0
O30 O 0.04235 0.32532 0.49721 0.0
O31 O 0.05753 0.31616 0.49398 0.0
Zn32 Zn 0.82258 0.88872 0.49269 0.0
O33 O 0.82763 0.9121 0.47566 0.0
C34 C 0.83479 0.88802 0.35619 0.0
Zn35 Zn 0.8463 0.89647 0.49384 0.0
C36 C 0.84081 0.92315 0.46755 0.0
O37 O 0.85108 0.92 0.4722 0.0
C38 C 0.82763 0.86185 0.52067 0.0
O39 O 0.84595 0.90038 0.59807 0.0
O40 O 0.8223 0.89181 0.59841 0.0
N41 N 0.86821 0.90457 0.49488 0.0
C42 C 0.87647 0.90024 0.53073 0.0
C43 C 0.89088 0.91931 0.46383 0.0
N44 N 0.87719 0.91645 0.45356 0.0
N45 N 0.89074 0.90929 0.51193 0.0
C46 C 0.7926 0.88223 0.43894 0.0
C47 C 0.77761 0.86583 0.51342 0.0
N48 N 0.8006 0.88075 0.48845 0.0
N49 N 0.79126 0.87065 0.5349 0.0
N50 N 0.77813 0.8728 0.45296 0.0
H51 H 0.80955 0.90384 0.38992 0.0
H52 H 0.79131 0.89734 0.36151 0.0
H53 H 0.80087 0.88726 0.33591 0.0
C54 C 0.79895 0.89336 0.37845 0.0
C55 C 0.87064 0.88776 0.58619 0.0
H56 H 0.86069 0.88671 0.61093 0.0
H57 H 0.87904 0.89047 0.62515 0.0
H58 H 0.86767 0.87621 0.56379 0.0
O59 O 0.84106 0.87262 0.51623 0.0
O60 O 0.81779 0.86548 0.51099 0.0
C61 C 0.8342 0.89708 0.63032 0.0
O62 O 0.82321 0.88551 0.38756 0.0
O63 O 0.84648 0.89264 0.38891 0.0
Zn64 Zn 0.27478 0.1118 0.36981 0.0
O65 O 0.27121 0.13095 0.38308 0.0
C66 C 0.26154 0.09877 0.50685 0.0
Zn67 Zn 0.25057 0.09584 0.36818 0.0
C68 C 0.25847 0.12923 0.38798 0.0
O69 O 0.24733 0.11546 0.38373 0.0
C70 C 0.26739 0.07877 0.34885 0.0
O71 O 0.25152 0.09987 0.26323 0.0
O72 O 0.27549 0.11525 0.26339 0.0
N73 N 0.22838 0.08104 0.36725 0.0
C74 C 0.22002 0.067 0.3378 0.0
C75 C 0.20594 0.07116 0.40215 0.0
N76 N 0.21959 0.08366 0.40676 0.0
N77 N 0.20592 0.06047 0.35947 0.0
C78 C 0.30492 0.13578 0.42656 0.0
C79 C 0.31991 0.1348 0.35612 0.0
N80 N 0.29698 0.12658 0.37528 0.0
N81 N 0.30635 0.12615 0.33102 0.0
N82 N 0.31928 0.14098 0.41603 0.0
H83 H 0.28806 0.13858 0.47805 0.0
H84 H 0.30656 0.1518 0.50439 0.0
H85 H 0.29741 0.13143 0.53069 0.0
C86 C 0.29878 0.13961 0.48805 0.0
C87 C 0.22555 0.06008 0.28569 0.0
H88 H 0.23495 0.06954 0.25606 0.0
H89 H 0.21672 0.05257 0.25045 0.0
H90 H 0.22922 0.05261 0.31187 0.0
O91 O 0.25443 0.07655 0.35191 0.0
O92 O 0.2782 0.09261 0.35599 0.0
C93 C 0.26358 0.10847 0.2311 0.0
O94 O 0.27356 0.10768 0.47526 0.0
O95 O 0.24976 0.09201 0.47406 0.0
Zn96 Zn 0.06276 0.87207 0.48823 0.0
O97 O 0.08186 0.89413 0.46379 0.0
C98 C 0.05055 0.87286 0.35363 0.0
Zn99 Zn 0.04985 0.88441 0.49135 0.0
C100 C 0.08108 0.90662 0.45594 0.0
O101 O 0.06882 0.90589 0.46462 0.0
C102 C 0.03151 0.84989 0.52576 0.0
O103 O 0.05455 0.88883 0.59487 0.0
O104 O 0.06681 0.87614 0.59321 0.0
N105 N 0.03825 0.89599 0.4924 0.0
C106 C 0.02648 0.89371 0.52939 0.0
C107 C 0.03153 0.91236 0.4574 0.0
N108 N 0.04144 0.90766 0.44803 0.0
N109 N 0.02198 0.90373 0.50803 0.0
C110 C 0.08307 0.85993 0.43449 0.0
C111 C 0.08322 0.84587 0.51798 0.0
N112 N 0.0748 0.8609 0.48503 0.0
N113 N 0.07498 0.85223 0.53704 0.0
N114 N 0.08837 0.85052 0.45376 0.0
H115 H 0.08582 0.87952 0.37062 0.0
H116 H 0.09766 0.87178 0.34873 0.0
H117 H 0.0786 0.86081 0.3294 0.0
C118 C 0.08651 0.86862 0.36721 0.0
C119 C 0.01972 0.88213 0.58785 0.0
H120 H 0.02781 0.87966 0.61182 0.0
H121 H 0.0151 0.88667 0.62664 0.0
H122 H 1.01068 0.87093 0.56863 0.0
O123 O 0.03094 0.86253 0.51888 0.0
O124 O 0.04356 0.85025 0.5138 0.0
C125 C 0.06175 0.88356 0.626 0.0
O126 O 0.05814 0.86796 0.38384 0.0
O127 O 0.04536 0.88002 0.3872 0.0
Zn128 Zn 0.28392 0.31359 0.36831 0.0
O129 O 0.27877 0.29 0.38362 0.0
C130 C 0.27111 0.31321 0.50494 0.0
Zn131 Zn 0.26009 0.30557 0.36685 0.0
C132 C 0.2656 0.27871 0.38816 0.0
O133 O 0.25526 0.28173 0.38289 0.0
C134 C 0.27886 0.34062 0.34627 0.0
O135 O 0.26095 0.3029 0.26207 0.0
O136 O 0.2845 0.31094 0.26253 0.0
N137 N 0.23817 0.29751 0.36397 0.0
C138 C 0.23007 0.3023 0.32957 0.0
C139 C 0.21531 0.282 0.38978 0.0
N140 N 0.22897 0.28488 0.40121 0.0
N141 N 0.21569 0.29277 0.34511 0.0
C142 C 0.31327 0.31886 0.42444 0.0
C143 C 0.32896 0.33363 0.34827 0.0
N144 N 0.30581 0.32094 0.37402 0.0
N145 N 0.31558 0.33002 0.32644 0.0
N146 N 0.32774 0.32672 0.40961 0.0
H147 H 0.29506 0.29969 0.48107 0.0
H148 H 0.31297 0.30339 0.50419 0.0
H149 H 0.30694 0.31674 0.52957 0.0
C150 C 0.30656 0.309 0.48808 0.0
C151 C 0.23615 0.31571 0.27834 0.0
H152 H 0.22805 0.31355 0.23846 0.0
H153 H 0.23866 0.32674 0.30453 0.0
H154 H 0.24639 0.31738 0.25413 0.0
O155 O 0.26547 0.32971 0.35056 0.0
O156 O 0.28884 0.33705 0.35224 0.0
C157 C 0.27271 0.30609 0.23019 0.0
O158 O 0.28289 0.31644 0.47338 0.0
O159 O 0.25936 0.30815 0.47234 0.0
Zn160 Zn 0.82547 0.08367 0.47862 0.0
O161 O 0.82987 0.06524 0.46449 0.0
C162 C 0.83753 0.09727 0.34154 0.0
Zn163 Zn 0.84939 0.10099 0.47972 0.0
C164 C 0.84292 0.06806 0.4562 0.0
O165 O 0.85345 0.08221 0.45929 0.0
C166 C 0.83154 0.11626 0.50456 0.0
O167 O 0.84937 0.09669 0.58409 0.0
O168 O 0.82552 0.08054 0.58509 0.0
N169 N 0.87145 0.11612 0.47764 0.0
C170 C 0.88025 0.12981 0.50863 0.0
C171 C 0.89375 0.12509 0.44266 0.0
N172 N 0.87987 0.11318 0.43699 0.0
N173 N 0.89432 0.13573 0.48721 0.0
C174 C 0.79503 0.05788 0.42898 0.0
C175 C 0.78049 0.05804 0.50489 0.0
N176 N 0.80334 0.06817 0.47665 0.0
N177 N 0.79428 0.06818 0.52393 0.0
N178 N 0.78063 0.0515 0.44511 0.0
H179 H 0.81193 0.05514 0.3778 0.0
H180 H 0.79352 0.04113 0.35441 0.0
H181 H 0.80218 0.06139 0.32442 0.0
C182 C 0.80102 0.05358 0.3683 0.0
C183 C 0.87513 0.13681 0.56227 0.0
H184 H 0.88412 0.14415 0.59707 0.0
H185 H 0.87138 0.14438 0.53747 0.0
H186 H 0.86578 0.12735 0.59221 0.0
O187 O 0.84483 0.1195 0.50181 0.0
O188 O 0.82135 0.10225 0.49392 0.0
C189 C 0.83749 0.08767 0.61679 0.0
O190 O 0.82586 0.08733 0.37317 0.0
O191 O 0.84923 0.10511 0.37425 0.0
Zn192 Zn 0.71171 0.64825 0.96565 0.0
O193 O 0.71266 0.64848 0.07076 0.0
C194 C 0.69576 0.66671 0.96923 0.0
Zn195 Zn 0.72719 0.67433 0.96141 0.0
C196 C 0.72035 0.66138 0.10121 0.0
O197 O 0.72763 0.67427 0.06725 0.0
C198 C 0.71841 0.6611 0.82575 0.0
O199 O 0.74532 0.67042 0.95885 0.0
O200 O 0.73055 0.64474 0.96069 0.0
N201 N 0.74107 0.69831 0.95695 0.0
C202 C 0.75235 0.70761 0.91394 0.0
C203 C 0.74817 0.72284 0.97494 0.0
N204 N 0.7386 0.70782 -0.00474 0.0
N205 N 0.75702 0.723 0.92453 0.0
C206 C 0.68451 0.61442 -0.00561 0.0
C207 C 0.69108 0.60006 0.94115 0.0
N208 N 0.69799 0.62415 0.96706 0.0
N209 N 0.70202 0.61517 0.93417 0.0
N210 N 0.67989 0.59922 0.9785 0.0
H211 H 0.68407 0.63042 0.0675 0.0
H212 H 0.66912 0.61023 0.07658 0.0
H213 H 0.66946 0.62279 0.00775 0.0
C214 C 0.67635 0.61976 0.03955 0.0
C215 C 0.75794 0.70183 0.85706 0.0
H216 H 0.75352 0.68893 0.86036 0.0
H217 H 0.77008 0.70792 0.85788 0.0
H218 H 0.75494 0.70494 0.8077 0.0
O219 O 0.72628 0.67391 0.85617 0.0
O220 O 0.71097 0.64829 0.85984 0.0
C221 C 0.74357 0.65656 0.95869 0.0
O222 O 0.69334 0.65254 0.97104 0.0
O223 O 0.70893 0.67807 0.96463 0.0
Zn224 Zn 0.47251 0.19239 0.94979 0.0
O225 O 0.47978 0.2165 0.9351 0.0
C226 C 0.48396 0.19151 0.81245 0.0
Zn227 Zn 0.49561 0.19754 0.95009 0.0
C228 C 0.49327 0.22694 0.93247 0.0
O229 O 0.50277 0.2226 0.9381 0.0
C230 C 0.47385 0.16278 0.96862 0.0
O231 O 0.49552 0.19964 0.0553 0.0
O232 O 0.4729 0.19524 0.05527 0.0
N233 N 0.51708 0.20312 0.9483 0.0
C234 C 0.52447 0.19654 0.97596 0.0
C235 C 0.53943 0.21551 0.9101 0.0
N236 N 0.52645 0.21496 0.90788 0.0
N237 N 0.53851 0.20412 0.95259 0.0
C238 C 0.44409 0.19016 0.89715 0.0
C239 C 0.42797 0.1751 0.97109 0.0
N240 N 0.45117 0.18728 0.94687 0.0
N241 N 0.44114 0.17806 -0.00675 0.0
N242 N 0.42958 0.18266 0.91101 0.0
H243 H 0.46286 0.20861 0.84042 0.0
H244 H 0.44538 0.20648 0.81921 0.0
H245 H 0.45001 0.19217 0.79143 0.0
C246 C 0.45112 0.20002 0.83381 0.0
C247 C 0.51759 0.18197 0.02083 0.0
H248 H 0.50854 0.18146 0.05224 0.0
H249 H 0.52576 0.18161 0.05446 0.0
H250 H 0.51303 0.17141 -0.01157 0.0
O251 O 0.48764 0.17225 0.96224 0.0
O252 O 0.46528 0.16834 0.9656 0.0
C253 C 0.48434 0.19817 0.08738 0.0
O254 O 0.47255 0.18927 0.84458 0.0
O255 O 0.49559 0.19546 0.84456 0.0
Zn256 Zn 0.90326 0.38955 0.97602 0.0
O257 O 0.8819 0.37104 0.96478 0.0
C258 C 0.90254 0.40262 0.83895 0.0
Zn259 Zn 0.89544 0.40694 0.9781 0.0
C260 C 0.87086 0.37292 0.96385 0.0
O261 O 0.87287 0.3869 0.96915 0.0
C262 C 0.92827 0.42233 -0.00833 0.0
O263 O 0.89347 0.40387 0.08388 0.0
O264 O 0.90065 0.38626 0.08194 0.0
N265 N 0.88775 0.42261 0.98125 0.0
C266 C 0.89289 0.43697 0.00907 0.0
C267 C 0.87364 0.43191 0.95567 0.0
N268 N 0.87577 0.41951 0.9483 0.0
N269 N 0.88427 0.44311 -0.00669 0.0
C270 C 0.91077 0.36531 0.91704 0.0
C271 C 0.9269 0.36664 0.98455 0.0
N272 N 0.91118 0.37429 0.96931 0.0
N273 N 0.92105 0.37489 0.01189 0.0
N274 N 0.92062 0.36051 0.92489 0.0
H275 H 0.89124 0.36238 0.86872 0.0
H276 H 0.89747 0.34914 0.84078 0.0
H277 H 0.90715 0.36943 0.81358 0.0
C278 C 0.90101 0.36136 0.85697 0.0
C279 C 0.90576 0.44441 0.05484 0.0
H280 H 0.90459 0.45225 0.0916 0.0
H281 H 0.9159 0.4516 0.02355 0.0
H282 H 0.90687 0.43519 0.08316 0.0
O283 O 0.91836 0.42613 -0.01318 0.0
O284 O 0.92458 0.40787 -0.0114 0.0
C285 C 0.89636 0.39433 0.11517 0.0
O286 O 0.90604 0.39359 0.87014 0.0
O287 O 0.89737 0.4098 0.87228 0.0
Zn288 Zn 0.70725 0.1929 0.95255 0.0
O289 O 0.70811 0.1933 0.05762 0.0
C290 C 0.69324 0.15727 0.95887 0.0
Zn291 Zn 0.7238 0.18504 0.95008 0.0
C292 C 0.7165 0.18968 0.08899 0.0
O293 O 0.72454 0.18569 0.05601 0.0
C294 C 0.71414 0.18803 0.81356 0.0
O295 O 0.74078 0.20905 0.94485 0.0
O296 O 0.72498 0.21735 0.94763 0.0
N297 N 0.73905 0.17783 0.94543 0.0
C298 C 0.74929 0.18058 0.89695 0.0
C299 C 0.7495 0.16423 0.96903 0.0
N300 N 0.73928 0.16776 -0.00949 0.0
N301 N 0.75591 0.17212 0.91031 0.0
C302 C 0.6788 0.19482 0.98003 0.0
C303 C 0.68332 0.21473 0.91684 0.0
N304 N 0.69241 0.20059 0.95283 0.0
N305 N 0.69521 0.21304 0.91416 0.0
N306 N 0.67289 0.20349 0.95806 0.0
H307 H 0.6788 0.17773 0.05053 0.0
H308 H 0.66328 0.18071 0.05994 0.0
H309 H 0.66436 0.1699 -0.01073 0.0
C310 C 0.67091 0.17997 0.02284 0.0
C311 C 0.75324 0.19188 0.8374 0.0
H312 H 0.75084 0.20142 0.84838 0.0
H313 H 0.76505 0.19721 0.82359 0.0
H314 H 0.74686 0.18538 0.79287 0.0
O315 O 0.7224 0.18423 0.84463 0.0
O316 O 0.70653 0.19247 0.84691 0.0
C317 C 0.73825 0.22046 0.94493 0.0
O318 O 0.68998 0.1682 0.95765 0.0
O319 O 0.70668 0.1611 0.95637 0.0
Zn320 Zn 0.90121 0.64003 0.97613 0.0
O321 O 0.89966 0.64071 0.08157 0.0
C322 C 0.93423 0.65787 -0.01391 0.0
Zn323 Zn 0.91073 0.66626 0.97135 0.0
C324 C 0.90348 0.65359 0.11163 0.0
O325 O 0.90846 0.66645 0.07726 0.0
C326 C 0.90861 0.65236 0.83587 0.0
O327 O 0.88965 0.66333 0.96088 0.0
O328 O 0.87935 0.63748 0.96864 0.0
N329 N 0.92018 0.69038 0.96567 0.0
C330 C 0.92101 0.70005 0.91409 0.0
C331 C 0.93588 0.71456 -0.01096 0.0
N332 N 0.92931 0.69946 0.01262 0.0
N333 N 0.93085 0.71523 0.92719 0.0
C334 C 0.8966 0.60623 0.00797 0.0
C335 C 0.87714 0.59153 0.95426 0.0
N336 N 0.89214 0.61576 0.97995 0.0
N337 N 0.88002 0.60656 0.94684 0.0
N338 N 0.88743 0.59096 -0.00791 0.0
H339 H 0.91115 0.62239 0.08175 0.0
H340 H 0.90761 0.60234 0.09125 0.0
H341 H 0.9194 0.61502 0.023 0.0
C342 C 0.90939 0.61181 0.05399 0.0
C343 C 0.91203 0.69482 0.85132 0.0
H344 H 0.90168 0.6835 0.86077 0.0
H345 H 0.90951 0.70403 0.83396 0.0
H346 H 0.9184 0.69328 0.80998 0.0
O347 O 0.91308 0.66539 0.86561 0.0
O348 O 0.90276 0.63953 0.87053 0.0
C349 C 0.8781 0.64979 0.96235 0.0
O350 O 0.92344 0.64375 0.9833 0.0
O351 O 0.93173 0.66927 0.98267 0.0
Zn352 Zn 0.50702 0.4103 0.94147 0.0
O353 O 0.50572 0.40704 0.04661 0.0
C354 C 0.48761 0.42464 0.95213 0.0
Zn355 Zn 0.48316 0.39231 0.93944 0.0
C356 C 0.49389 0.39756 0.07854 0.0
O357 O 0.48217 0.38946 0.04601 0.0
C358 C 0.49649 0.40548 0.80244 0.0
O359 O 0.4884 0.37439 0.93023 0.0
O360 O 0.51203 0.39133 0.93164 0.0
N361 N 0.46124 0.37623 0.93263 0.0
C362 C 0.45379 0.36695 0.88059 0.0
C363 C 0.43808 0.36709 0.94911 0.0
N364 N 0.45142 0.3761 0.97574 0.0
N365 N 0.43927 0.36121 0.88929 0.0
C366 C 0.53635 0.4409 0.9754 0.0
C367 C 0.55204 0.43756 0.91986 0.0
N368 N 0.52898 0.42675 0.94524 0.0
N369 N 0.53878 0.42471 0.91097 0.0
N370 N 0.55084 0.44798 0.95981 0.0
H371 H 0.5198 0.43754 0.05006 0.0
H372 H 0.53746 0.45503 0.06101 0.0
H373 H 0.52583 0.45439 -0.00655 0.0
C374 C 0.52947 0.44729 0.02306 0.0
C375 C 0.46056 0.36344 0.8206 0.0
H376 H 0.47136 0.3649 0.83282 0.0
H377 H 0.45317 0.35117 0.80399 0.0
H378 H 0.46197 0.3715 0.77741 0.0
O379 O 0.48467 0.39592 0.83402 0.0
O380 O 0.50815 0.41333 0.83528 0.0
C381 C 0.5015 0.3771 0.92782 0.0
O382 O 0.5011 0.42858 0.9513 0.0
O383 O 0.47793 0.41016 0.94817 0.0
Zn384 Zn 0.3539 0.96821 0.07075 0.0
O385 O 0.33609 0.94502 0.08136 0.0
C386 C 0.36342 0.96614 0.20772 0.0
Zn387 Zn 0.36976 0.95929 0.06953 0.0
C388 C 0.33783 0.93306 0.08297 0.0
O389 O 0.35083 0.93525 0.07897 0.0
C390 C 0.38498 0.99478 0.05736 0.0
O391 O 0.36885 0.95769 0.96457 0.0
O392 O 0.35309 0.96616 0.96502 0.0
N393 N 0.38404 0.95061 0.07287 0.0
C394 C 0.39759 0.95589 0.04561 0.0
C395 C 0.39205 0.93515 0.10486 0.0
N396 N 0.38065 0.9377 0.10953 0.0
N397 N 0.40291 0.94645 0.06536 0.0
C398 C 0.33032 0.97727 0.11207 0.0
C399 C 0.33059 0.99053 0.02455 0.0
N400 N 0.33993 0.9771 0.06657 0.0
N401 N 0.33999 0.98526 0.01207 0.0
N402 N 0.3244 0.98569 0.08707 0.0
H403 H 0.32738 0.95798 0.17762 0.0
H404 H 0.3147 0.96499 0.19396 0.0
H405 H 0.33343 0.97659 0.2187 0.0
C406 C 0.32618 0.9686 0.17937 0.0
C407 C 0.40517 0.9697 -0.00327 0.0
H408 H 0.3971 0.97137 0.96775 0.0
H409 H 0.41241 0.96799 0.9606 0.0
H410 H 0.412 0.98057 0.02567 0.0
O411 O 0.38788 0.9836 0.06037 0.0
O412 O 0.37167 0.99136 0.06005 0.0
C413 C 0.36065 0.96147 0.93263 0.0
O414 O 0.35536 0.97023 0.17642 0.0
O415 O 0.37049 0.96095 0.17475 0.0
Zn416 Zn 0.12947 0.52942 0.09403 0.0
O417 O 0.1332 0.5523 0.07546 0.0
C418 C 0.13947 0.52907 0.95542 0.0
Zn419 Zn 0.15387 0.53851 0.09049 0.0
C420 C 0.14612 0.56416 0.07013 0.0
O421 O 0.15708 0.56203 0.07456 0.0
C422 C 0.13654 0.50375 0.11709 0.0
O423 O 0.15564 0.54208 0.19533 0.0
O424 O 0.13205 0.53388 0.19872 0.0
N425 N 0.17628 0.54693 0.07953 0.0
C426 C 0.18531 0.5425 0.10823 0.0
C427 C 0.19774 0.55977 0.03082 0.0
N428 N 0.18412 0.55775 0.03183 0.0
N429 N 0.19885 0.55039 0.07839 0.0
C430 C 0.09562 0.51749 0.06771 0.0
C431 C 0.08674 0.50859 0.16716 0.0
N432 N 0.107 0.52042 0.10793 0.0
N433 N 0.10136 0.51493 0.16963 0.0
N434 N 0.08278 0.51005 0.10386 0.0
H435 H 0.1069 0.53239 0.98067 0.0
H436 H 0.08723 0.52044 0.97198 0.0
H437 H 0.09846 0.51146 0.96718 0.0
C438 C 0.09706 0.52071 -0.00747 0.0
C439 C 0.18042 0.52935 0.16019 0.0
H440 H 0.17088 0.5279 0.19049 0.0
H441 H 0.18936 0.53151 0.19504 0.0
H442 H 0.17724 0.51817 0.1336 0.0
O443 O 0.14967 0.51492 0.10698 0.0
O444 O 0.12613 0.5067 0.11371 0.0
C445 C 0.1441 0.53896 0.22906 0.0
O446 O 0.12777 0.5253 -0.01071 0.0
O447 O 0.1516 0.53477 -0.01438 0.0
Zn448 Zn 0.58023 0.74404 0.05394 0.0
O449 O 0.5797 0.7453 0.94903 0.0
C450 C 0.59979 0.72984 0.04741 0.0
Zn451 Zn 0.60391 0.76257 0.05252 0.0
C452 C 0.59143 0.75434 0.91548 0.0
O453 O 0.6033 0.76279 0.94638 0.0
C454 C 0.59257 0.75201 0.19115 0.0
O455 O 0.59873 0.78069 0.0543 0.0
O456 O 0.57529 0.7633 0.06082 0.0
N457 N 0.6258 0.77881 0.04893 0.0
C458 C 0.63425 0.79043 0.09163 0.0
C459 C 0.64846 0.78913 0.01718 0.0
N460 N 0.63464 0.77809 0.00247 0.0
N461 N 0.64855 0.79697 0.07324 0.0
C462 C 0.54886 0.71394 0.03414 0.0
C463 C 0.53603 0.72007 0.09769 0.0
N464 N 0.5581 0.72807 0.06131 0.0
N465 N 0.55004 0.73178 0.10076 0.0
N466 N 0.53489 0.70864 0.05632 0.0
H467 H 0.56367 0.71463 0.95568 0.0
H468 H 0.54471 0.69927 0.94686 0.0
H469 H 0.55585 0.69743 0.011 0.0
C470 C 0.55353 0.7059 0.98356 0.0
C471 C 0.62844 0.7958 0.14927 0.0
H472 H 0.61731 0.79358 0.13936 0.0
H473 H 0.63577 0.80861 0.15788 0.0
H474 H 0.62782 0.78913 0.19641 0.0
O475 O 0.60407 0.76181 0.15811 0.0
O476 O 0.581 0.743 0.15967 0.0
C477 C 0.58559 0.77772 0.05919 0.0
O478 O 0.58616 0.72546 0.04625 0.0
O479 O 0.60915 0.74447 0.05086 0.0
Zn480 Zn 0.38358 0.52684 0.10388 0.0
O481 O 0.40091 0.54943 0.08257 0.0
C482 C 0.37295 0.52566 0.96651 0.0
Zn483 Zn 0.36747 0.53558 0.10252 0.0
C484 C 0.39915 0.56131 0.0764 0.0
O485 O 0.38624 0.55931 0.08261 0.0
C486 C 0.35293 0.50084 0.13229 0.0
O487 O 0.36913 0.53969 0.20725 0.0
O488 O 0.38526 0.53172 0.20843 0.0
N489 N 0.35292 0.54398 0.09218 0.0
C490 C 0.33948 0.53946 0.11933 0.0
C491 C 0.34408 0.55726 0.04362 0.0
N492 N 0.35573 0.55512 0.04556 0.0
N493 N 0.33369 0.54762 0.0895 0.0
C494 C 0.40721 0.51676 0.07247 0.0
C495 C 0.40869 0.50788 0.16984 0.0
N496 N 0.39792 0.51838 0.11518 0.0
N497 N 0.39894 0.51289 0.17563 0.0
N498 N 0.41405 0.51014 0.10553 0.0
H499 H 0.4092 0.53321 -0.00663 0.0
H500 H 0.42131 0.52524 0.98281 0.0
H501 H 0.40203 0.51305 0.96749 0.0
C502 C 0.41018 0.52249 -0.00017 0.0
C503 C 0.33158 0.52607 0.16996 0.0
H504 H 0.3395 0.52512 0.20334 0.0
H505 H 0.32364 0.5276 0.20168 0.0
H506 H 0.3254 0.51488 0.14214 0.0
O507 O 0.34972 0.51167 0.12294 0.0
O508 O 0.36619 0.50426 0.12614 0.0
C509 C 0.37787 0.53679 0.23983 0.0
O510 O 0.38131 0.52219 -0.00083 0.0
O511 O 0.36603 0.5313 -0.00215 0.0
Zn512 Zn 0.60476 0.95933 0.05011 0.0
O513 O 0.5988 0.93564 0.06097 0.0
C514 C 0.5936 0.95911 0.18821 0.0
Zn515 Zn 0.58137 0.95342 0.0511 0.0
C516 C 0.58551 0.92464 0.06433 0.0
O517 O 0.57546 0.92829 0.06133 0.0
C518 C 0.6022 0.98846 0.03518 0.0
O519 O 0.581 0.95156 0.94598 0.0
O520 O 0.60396 0.95713 0.94453 0.0
N521 N 0.55945 0.94677 0.05573 0.0
C522 C 0.55152 0.95292 0.02994 0.0
C523 C 0.5368 0.93226 0.08816 0.0
N524 N 0.55024 0.93394 0.0918 0.0
N525 N 0.53724 0.94404 0.04988 0.0
C526 C 0.63498 0.96426 0.09354 0.0
C527 C 0.64918 0.98005 0.01538 0.0
N528 N 0.62652 0.96612 0.04779 0.0
N529 N 0.63536 0.97583 -0.00098 0.0
N530 N 0.64931 0.97307 0.07481 0.0
H531 H 0.61807 0.94318 0.14538 0.0
H532 H 0.63655 0.94865 0.16725 0.0
H533 H 0.62831 0.95967 0.19864 0.0
C534 C 0.62914 0.95324 0.15444 0.0
C535 C 0.55765 0.96699 0.98228 0.0
H536 H 0.56699 0.96791 0.95189 0.0
H537 H 0.54912 0.96619 0.9475 0.0
H538 H 0.56167 0.97787 0.01234 0.0
O539 O 0.58841 0.9788 0.04046 0.0
O540 O 0.61084 0.98301 0.03812 0.0
C541 C 0.59235 0.95377 0.91312 0.0
O542 O 0.60507 0.9616 0.15568 0.0
O543 O 0.58196 0.95529 0.15643 0.0
Zn544 Zn 0.15798 0.74722 0.0733 0.0
O545 O 0.15857 0.74447 0.1782 0.0
C546 C 0.14181 0.76484 0.09424 0.0
Zn547 Zn 0.13332 0.73134 0.07479 0.0
C548 C 0.14661 0.73622 0.21165 0.0
O549 O 0.13451 0.72945 0.18077 0.0
C550 C 0.14476 0.74237 0.93642 0.0
O551 O 0.13649 0.71182 0.06241 0.0
O552 O 0.16047 0.72693 0.05915 0.0
N553 N 0.11073 0.71606 0.08048 0.0
C554 C 0.09913 0.71699 0.05759 0.0
C555 C 0.09065 0.69443 0.10677 0.0
N556 N 0.10536 0.70202 0.11103 0.0
N557 N 0.08634 0.70353 0.07367 0.0
C558 C 0.19003 0.77622 0.09351 0.0
C559 C 0.20261 0.77039 0.02688 0.0
N560 N 0.18064 0.76214 0.06602 0.0
N561 N 0.18856 0.75859 0.0248 0.0
N562 N 0.20391 0.78174 0.06931 0.0
H563 H 0.17596 0.77511 0.17656 0.0
H564 H 0.19483 0.79084 0.18142 0.0
H565 H 0.18282 0.79228 0.12114 0.0
C566 C 0.18567 0.78402 0.1466 0.0
C567 C 0.10046 0.73071 0.01661 0.0
H568 H 0.09177 0.72659 0.97814 0.0
H569 H 0.0992 0.73885 0.0512 0.0
H570 H 0.11133 0.7374 -0.00927 0.0
O571 O 0.13288 0.7336 0.96948 0.0
O572 O 0.15677 0.74956 0.96768 0.0
C573 C 0.14912 0.71321 0.05722 0.0
O574 O 0.15466 0.76675 0.08924 0.0
O575 O 0.13072 0.75111 0.08809 0.0
C576 C 0.11949 0.47719 0.16864 0.0
C577 C 0.13331 0.48776 0.13922 0.0
C578 C 0.11658 0.46266 0.19602 0.0
C579 C 0.12261 0.43052 0.18707 0.0
H580 H 0.11038 0.42344 0.37759 0.0
C581 C 0.09395 0.36793 0.3166 0.0
C582 C 0.0808 0.36446 0.35049 0.0
C583 C 0.10413 0.38355 0.29624 0.0
C584 C 0.11386 0.42523 0.32449 0.0
H585 H 0.15473 0.49107 0.11306 0.0
H586 H 0.14936 0.46515 0.15983 0.0
H587 H 0.12116 0.44999 0.32693 0.0
H588 H 0.06833 0.37465 0.39227 0.0
H589 H 0.08588 0.40159 0.35724 0.0
H590 H 0.11426 0.40551 0.18328 0.0
C591 C 0.14096 0.46842 0.16219 0.0
C592 C 0.12009 0.44042 0.29573 0.0
C593 C 0.144 0.48319 0.13562 0.0
C594 C 0.07832 0.37691 0.36605 0.0
C595 C 0.08848 0.39242 0.34647 0.0
C596 C 0.11622 0.41521 0.21578 0.0
C597 C 0.12731 0.45823 0.19377 0.0
C598 C 0.124 0.44306 0.22631 0.0
C599 C 0.1014 0.39593 0.31049 0.0
C600 C 0.11121 0.41233 0.28411 0.0
H601 H 0.111 0.48031 0.1725 0.0
H602 H 0.10593 0.45489 0.21965 0.0
H603 H 0.1255 0.43233 0.13327 0.0
H604 H 0.09611 0.35855 0.30366 0.0
H605 H 0.11401 0.38592 0.26865 0.0
C606 C 0.76673 0.86732 0.34003 0.0
C607 C 0.76575 0.8688 0.41064 0.0
C608 C 0.7545 0.86246 0.29973 0.0
C609 C 0.71575 0.85406 0.3025 0.0
H610 H 0.71254 0.82718 0.15246 0.0
C611 C 0.66194 0.80782 0.17956 0.0
C612 C 0.66145 0.80819 0.10812 0.0
C613 C 0.67484 0.81784 0.21289 0.0
C614 C 0.7134 0.83486 0.19357 0.0
H615 H 0.75104 0.86572 0.4947 0.0
H616 H 0.72936 0.85625 0.42513 0.0
H617 H 0.73465 0.83923 0.21869 0.0
H618 H 0.6742 0.81907 0.01565 0.0
H619 H 0.69706 0.83624 0.07419 0.0
H620 H 0.6939 0.84859 0.2793 0.0
C621 C 0.73977 0.85968 0.4001 0.0
C622 C 0.72611 0.84186 0.23153 0.0
C623 C 0.75214 0.86494 0.44023 0.0
C624 C 0.67423 0.8187 0.07074 0.0
C625 C 0.68725 0.8285 0.10407 0.0
C626 C 0.70289 0.84675 0.26529 0.0
C627 C 0.74077 0.85825 0.32925 0.0
C628 C 0.72745 0.8515 0.28684 0.0
C629 C 0.68764 0.82807 0.17541 0.0
C630 C 0.70162 0.83704 0.21081 0.0
H631 H 0.77677 0.86932 0.31574 0.0
H632 H 0.75582 0.86172 0.24541 0.0
H633 H 0.71645 0.86161 0.3438 0.0
H634 H 0.65261 0.79929 0.20989 0.0
H635 H 0.675 0.81701 0.26788 0.0
C636 C 0.26064 0.05344 0.29073 0.0
C637 C 0.27009 0.0657 0.33305 0.0
C638 C 0.26417 0.04212 0.26941 0.0
C639 C 0.28637 0.02381 0.30735 0.0
H640 H 0.28858 0.02032 0.11181 0.0
C641 C 0.31976 0.99837 0.18409 0.0
C642 C 0.31554 0.99094 0.12125 0.0
C643 C 0.31219 1.0052 0.21365 0.0
C644 C 0.28773 0.02079 0.16658 0.0
H645 H 0.29032 0.07545 0.38831 0.0
H646 H 0.29629 0.05544 0.35241 0.0
H647 H 0.2786 0.03598 0.15837 0.0
H648 H 0.30002 0.98445 0.04047 0.0
H649 H 0.28626 0.99572 0.09317 0.0
H650 H 0.29535 0.00854 0.31605 0.0
C651 C 0.28621 0.05462 0.3355 0.0
C652 C 0.28205 0.02985 0.19319 0.0
C653 C 0.28283 0.0661 0.35576 0.0
C654 C 0.30339 0.99009 0.08916 0.0
C655 C 0.29564 0.99668 0.11918 0.0
C656 C 0.29182 0.01451 0.28085 0.0
C657 C 0.27707 0.04272 0.29104 0.0
C658 C 0.28158 0.0317 0.26372 0.0
C659 C 0.30012 1.00463 0.18124 0.0
C660 C 0.29288 0.01314 0.20997 0.0
H661 H 0.25089 0.05299 0.27152 0.0
H662 H 0.25694 0.03305 0.23511 0.0
H663 H 0.28599 0.02494 0.36201 0.0
H664 H 0.32936 0.99957 0.20875 0.0
H665 H 0.31624 0.0115 0.26051 0.0
C666 C 0.32778 0.13709 0.52602 0.0
C667 C 0.33029 0.14635 0.46679 0.0
C668 C 0.33846 0.14183 0.57519 0.0
C669 C 0.3711 0.17579 0.64222 0.0
H670 H 0.37938 0.14369 0.71011 0.0
C671 C 0.40788 0.18383 0.87438 0.0
C672 C 0.41824 0.17906 0.86338 0.0
C673 C 0.3971 0.18053 0.82625 0.0
C674 C 0.37721 0.15279 0.69158 0.0
H675 H 0.3458 0.16763 0.41139 0.0
H676 H 0.36477 0.17615 0.49835 0.0
H677 H 0.36093 0.13696 0.62388 0.0
H678 H 0.42546 0.16694 0.79581 0.0
H679 H 0.40664 0.16107 0.71184 0.0
H680 H 0.38751 0.19163 0.71024 0.0
C681 C 0.35442 0.16531 0.50687 0.0
C682 C 0.36659 0.14891 0.64256 0.0
C683 C 0.34369 0.16045 0.45717 0.0
C684 C 0.4176 0.1708 0.80459 0.0
C685 C 0.40681 0.16739 0.75701 0.0
C686 C 0.38167 0.17964 0.69198 0.0
C687 C 0.35192 0.15593 0.56605 0.0
C688 C 0.36342 0.16036 0.61731 0.0
C689 C 0.39644 0.17221 0.76726 0.0
C690 C 0.38487 0.16818 0.71677 0.0
H691 H 0.3176 0.126 0.53358 0.0
H692 H 0.3362 0.13442 0.6204 0.0
H693 H 0.36878 0.18479 0.62387 0.0
H694 H 0.40827 0.1902 0.91968 0.0
H695 H 0.38915 0.18426 0.83556 0.0
C696 C 0.93376 0.36707 0.81487 0.0
C697 C 0.92757 0.35667 0.87123 0.0
C698 C 0.94149 0.36423 0.76445 0.0
C699 C 0.94763 0.33413 0.68761 0.0
H700 H 0.98563 0.37002 0.63649 0.0
C701 C 0.98398 0.33435 0.46152 0.0
C702 C 0.99857 0.33967 0.4782 0.0
C703 C 0.97465 0.33607 0.50754 0.0
C704 C 0.97504 0.3599 0.65023 0.0
H705 H 0.92461 0.33531 0.92008 0.0
H706 H 0.93822 0.33013 0.83071 0.0
H707 H 0.9703 0.37308 0.72188 0.0
H708 H 0.01513 0.35127 0.55362 0.0
H709 H 0.99898 0.35458 0.63382 0.0
H710 H 0.9525 0.32096 0.61572 0.0
C711 C 0.93687 0.34036 0.8254 0.0
C712 C 0.96624 0.36167 0.69876 0.0
C713 C 0.92918 0.34331 0.8764 0.0
C714 C 1.00387 0.34709 0.54028 0.0
C715 C 0.99466 0.349 0.58577 0.0
C716 C 0.9564 0.3324 0.63827 0.0
C717 C 0.94327 0.35096 0.76948 0.0
C718 C 0.95248 0.34881 0.71809 0.0
C719 C 0.97993 0.3434 0.57014 0.0
C720 C 0.97023 0.34527 0.61956 0.0
H721 H 0.93297 0.37767 0.81095 0.0
H722 H 0.94625 0.37254 0.72183 0.0
H723 H 0.93702 0.32406 0.70142 0.0
H724 H 0.97977 0.32853 0.41379 0.0
H725 H 0.96336 0.33177 0.49417 0.0
C726 C 0.83308 0.84193 0.57466 0.0
C727 C 0.82314 0.84553 0.54372 0.0
C728 C 0.82808 0.82712 0.60654 0.0
C729 C 0.79512 0.78669 0.6273 0.0
H730 H 0.80918 0.78841 0.8101 0.0
C731 C 0.75997 0.74331 0.84128 0.0
C732 C 0.7662 0.73619 0.8802 0.0
C733 C 0.76859 0.75553 0.7948 0.0
C734 C 0.80531 0.7877 0.75877 0.0
H735 H 0.80034 0.83608 0.51816 0.0
H736 H 0.79168 0.81062 0.57391 0.0
H737 H 0.82168 0.81163 0.73407 0.0
H738 H 0.78618 0.7362 0.90291 0.0
H739 H 0.80157 0.75813 0.82231 0.0
H740 H 0.77823 0.76307 0.65371 0.0
C741 C 0.80333 0.81902 0.57338 0.0
C742 C 0.8125 0.80096 0.71501 0.0
C743 C 0.8083 0.83374 0.54174 0.0
C744 C 0.78125 0.74162 0.87307 0.0
C745 C 0.78997 0.75408 0.82727 0.0
C746 C 0.78785 0.77355 0.67127 0.0
C747 C 0.81307 0.81564 0.60774 0.0
C748 C 0.8072 0.80078 0.64946 0.0
C749 C 0.78366 0.76101 0.78717 0.0
C750 C 0.79263 0.77409 0.73799 0.0
H751 H 0.84458 0.85075 0.57702 0.0
H752 H 0.83591 0.82482 0.63179 0.0
H753 H 0.79096 0.786 0.57665 0.0
H754 H 0.74835 0.73916 0.84605 0.0
H755 H 0.76349 0.76081 0.76512 0.0
C756 C 1.00828 0.8365 0.5953 0.0
C757 C 0.01876 0.83537 0.55468 0.0
C758 C 0.99716 0.82322 0.62974 0.0
C759 C 0.97622 0.78005 0.63611 0.0
H760 H 0.97372 0.78488 0.83061 0.0
C761 C 0.94462 0.72652 0.81982 0.0
C762 C 0.93811 0.72824 0.87936 0.0
C763 C 0.95304 0.73949 0.77632 0.0
C764 C 0.97399 0.78335 0.77625 0.0
H765 H 0.02553 0.81925 0.51657 0.0
H766 H 1.00581 0.79582 0.57611 0.0
H767 H 0.99085 0.80748 0.75991 0.0
H768 H 0.93508 0.74461 0.94041 0.0
H769 H 0.94932 0.76737 0.86296 0.0
H770 H 0.9592 0.75601 0.65187 0.0
C771 C 1.00629 0.80709 0.58115 0.0
C772 C 0.9839 0.79631 0.73583 0.0
C773 C 0.01758 0.82048 0.54732 0.0
C774 C 0.93995 0.74308 0.89434 0.0
C775 C 0.94821 0.75607 0.85026 0.0
C776 C 0.96611 0.76712 0.67637 0.0
C777 C 0.99619 0.80844 0.62383 0.0
C778 C 0.98521 0.79475 0.66555 0.0
C779 C 0.95508 0.7545 0.79117 0.0
C780 C 0.96499 0.76854 0.74721 0.0
H781 H 1.00902 0.84778 0.60321 0.0
H782 H 0.98948 0.82456 0.66211 0.0
H783 H 0.97694 0.77861 0.58188 0.0
H784 H 0.94372 0.71526 0.80853 0.0
H785 H 0.9584 0.73782 0.73249 0.0
C786 C 0.34035 0.33706 0.51664 0.0
C787 C 0.33942 0.32978 0.45447 0.0
C788 C 0.35143 0.33978 0.56163 0.0
C789 C 0.37638 0.32624 0.61343 0.0
H790 H 0.39865 0.36805 0.689 0.0
C791 C 0.4149 0.34227 0.84603 0.0
C792 C 0.42859 0.35604 0.83698 0.0
C793 C 0.40418 0.33804 0.79659 0.0
C794 C 0.39256 0.35633 0.66816 0.0
H795 H 0.34913 0.31966 0.38965 0.0
H796 H 0.36866 0.32426 0.46934 0.0
H797 H 0.37974 0.36282 0.60666 0.0
H798 H 0.44179 0.37645 0.77119 0.0
H799 H 0.42321 0.36913 0.68489 0.0
H800 H 0.38917 0.31976 0.67599 0.0
C801 C 0.36077 0.32782 0.48312 0.0
C802 C 0.3817 0.35333 0.62138 0.0
C803 C 0.34975 0.3253 0.43753 0.0
C804 C 0.43144 0.36554 0.77818 0.0
C805 C 0.42076 0.36145 0.72934 0.0
C806 C 0.38715 0.3292 0.66116 0.0
C807 C 0.36172 0.33514 0.54548 0.0
C808 C 0.37351 0.33827 0.59354 0.0
C809 C 0.40697 0.34777 0.73833 0.0
C810 C 0.39537 0.34431 0.68869 0.0
H811 H 0.33251 0.34069 0.53008 0.0
H812 H 0.35187 0.34537 0.60946 0.0
H813 H 0.37013 0.3145 0.593 0.0
H814 H 0.41249 0.33494 0.89159 0.0
H815 H 0.39357 0.32751 0.80495 0.0
C816 C 0.76116 0.16481 0.79866 0.0
C817 C 0.76525 0.16931 0.86592 0.0
C818 C 0.76981 0.1614 0.75583 0.0
C819 C 0.80659 0.16711 0.72702 0.0
H820 H 0.7857 0.1279 0.62991 0.0
C821 C 0.8349 0.1374 0.58451 0.0
C822 C 0.82752 0.12774 0.52968 0.0
C823 C 0.82869 0.14496 0.62056 0.0
C824 C 0.79173 0.13907 0.65529 0.0
H825 H 0.78141 0.17367 0.94174 0.0
H826 H 0.79679 0.16775 0.8662 0.0
H827 H 0.77221 0.13598 0.70408 0.0
H828 H 0.80875 0.11963 0.46508 0.0
H829 H 0.79837 0.13352 0.525 0.0
H830 H 0.82616 0.17022 0.67761 0.0
C831 C 0.78696 0.16706 0.84657 0.0
C832 C 0.78397 0.14363 0.69829 0.0
C833 C 0.77817 0.17035 0.88978 0.0
C834 C 0.81459 0.12694 0.50755 0.0
C835 C 0.80857 0.13473 0.54253 0.0
C836 C 0.8144 0.16261 0.68321 0.0
C837 C 0.78275 0.16239 0.77936 0.0
C838 C 0.79128 0.1577 0.73451 0.0
C839 C 0.81511 0.14315 0.60165 0.0
C840 C 0.80704 0.14853 0.64657 0.0
H841 H 0.75104 0.16352 0.77977 0.0
H842 H 0.76631 0.15786 0.70428 0.0
H843 H 0.81248 0.17806 0.75416 0.0
H844 H 0.84481 0.13806 0.60298 0.0
H845 H 0.83405 0.1513 0.66582 0.0
C846 C 0.67537 0.98068 0.07681 0.0
C847 C 0.66228 0.97682 0.11214 0.0
C848 C 0.68853 0.98655 0.11137 0.0
C849 C 0.70514 0.98965 0.27574 0.0
H850 H 0.73422 0.03213 0.21572 0.0
C851 C 0.75481 0.03019 0.43939 0.0
C852 C 0.76793 0.04135 0.4062 0.0
C853 C 0.7422 0.02095 0.40224 0.0
C854 C 0.72646 0.02014 0.2325 0.0
H855 H 0.653 0.97664 0.21175 0.0
H856 H 0.67569 0.98588 0.27221 0.0
H857 H 0.71198 0.01741 0.15186 0.0
H858 H 0.77774 0.05215 0.30797 0.0
H859 H 0.75645 0.03523 0.24299 0.0
H860 H 0.71966 0.99215 0.35562 0.0
C861 C 0.67567 0.98413 0.21786 0.0
C862 C 0.71366 0.01175 0.19588 0.0
C863 C 0.6626 0.9786 0.18315 0.0
C864 C 0.76813 0.04313 0.33509 0.0
C865 C 0.75568 0.03367 0.29782 0.0
C866 C 0.71812 0.9979 0.31167 0.0
C867 C 0.68878 0.98847 0.18207 0.0
C868 C 0.70284 0.99654 0.2176 0.0
C869 C 0.74245 0.02259 0.33081 0.0
C870 C 0.7289 0.01336 0.29101 0.0
H871 H 0.67549 0.97961 0.02206 0.0
H872 H 0.69856 0.98992 0.08273 0.0
H873 H 0.69689 0.9779 0.29332 0.0
H874 H 0.75429 0.02876 0.49429 0.0
H875 H 0.73219 0.01283 0.42988 0.0
C876 C 0.10902 0.84588 0.43515 0.0
C877 C 0.09598 0.84474 0.41291 0.0
C878 C 0.1163 0.84005 0.39535 0.0
C879 C 0.11718 0.8257 0.22051 0.0
H880 H 0.13471 0.80413 0.31235 0.0
C881 C 0.12636 0.77749 0.10236 0.0
C882 C 0.13962 0.77795 0.11539 0.0
C883 C 0.12325 0.78844 0.13178 0.0
C884 C 0.13006 0.81033 0.28599 0.0
H885 H 0.07991 0.83619 0.33393 0.0
H886 H 0.09222 0.82556 0.26528 0.0
H887 H 0.12483 0.81759 0.37919 0.0
H888 H 0.16021 0.79051 0.16765 0.0
H889 H 0.15466 0.80952 0.21987 0.0
H890 H 0.12173 0.81757 0.12749 0.0
C891 C 0.0973 0.83151 0.31168 0.0
C892 C 0.12442 0.8181 0.32426 0.0
C893 C 0.09018 0.83752 0.351 0.0
C894 C 0.14998 0.78998 0.15602 0.0
C895 C 0.14676 0.80077 0.1864 0.0
C896 C 0.12261 0.81771 0.18237 0.0
C897 C 0.11048 0.8327 0.33318 0.0
C898 C 0.11768 0.82568 0.29212 0.0
C899 C 0.13324 0.79987 0.17569 0.0
C900 C 0.12892 0.80978 0.21486 0.0
H901 H 0.11361 0.85141 0.48294 0.0
H902 H 0.1265 0.84136 0.41328 0.0
H903 H 0.1124 0.83172 0.19378 0.0
H904 H 0.11819 0.76834 0.07124 0.0
H905 H 0.1127 0.78743 0.12307 0.0
C906 C 0.3467 0.47447 0.18023 0.0
C907 C 0.34185 0.48458 0.1555 0.0
C908 C 0.3368 0.45946 0.20634 0.0
C909 C 0.30074 0.4262 0.19832 0.0
H910 H 0.31013 0.41551 0.3742 0.0
C911 C 0.27288 0.36159 0.31023 0.0
C912 C 0.28306 0.35736 0.33326 0.0
C913 C 0.27734 0.37745 0.29461 0.0
C914 C 0.3073 0.41829 0.32518 0.0
H915 H 0.32263 0.48661 0.13737 0.0
H916 H 0.30506 0.45979 0.18202 0.0
H917 H 0.32277 0.44298 0.33354 0.0
H918 H 0.3058 0.36654 0.35925 0.0
H919 H 0.31348 0.39394 0.33245 0.0
H920 H 0.28587 0.4013 0.18831 0.0
C921 C 0.31667 0.46381 0.18155 0.0
C922 C 0.31448 0.43402 0.30213 0.0
C923 C 0.3267 0.4791 0.15615 0.0
C924 C 0.29766 0.36934 0.34165 0.0
C925 C 0.30205 0.38511 0.32676 0.0
C926 C 0.29356 0.41036 0.22134 0.0
C927 C 0.32173 0.45401 0.20789 0.0
C928 C 0.31168 0.43805 0.23747 0.0
C929 C 0.292 0.38938 0.30273 0.0
C930 C 0.29723 0.4062 0.28386 0.0
H931 H 0.35826 0.47822 0.18077 0.0
H932 H 0.34097 0.45205 0.22543 0.0
H933 H 0.29846 0.42903 0.14812 0.0
H934 H 0.26157 0.35263 0.30299 0.0
H935 H 0.26935 0.3804 0.27625 0.0
C936 C 0.95018 0.45039 -0.0102 0.0
C937 C 0.94397 0.43405 0.00326 0.0
C938 C 0.96527 0.46082 -0.00067 0.0
C939 C 0.99639 0.46378 0.09553 0.0
H940 H 0.02204 0.49242 0.95247 0.0
C941 C 0.05799 0.48695 0.09941 0.0
C942 C 0.0678 0.50289 0.08235 0.0
C943 C 0.04302 0.48019 0.08755 0.0
C944 C 0.01501 0.48465 -0.00669 0.0
H945 H 0.9488 0.41601 0.03844 0.0
H946 H 0.97458 0.43395 0.05559 0.0
H947 H 0.99535 0.47822 0.9383 0.0
H948 H 0.06963 0.52433 0.03969 0.0
H949 H 0.04328 0.51247 0.01806 0.0
H950 H 0.01579 0.46988 0.15038 0.0
C951 C 0.96796 0.43881 0.03758 0.0
C952 C 0.99972 0.47655 -0.01478 0.0
C953 C 0.95312 0.42849 0.02726 0.0
C954 C 0.06233 0.51191 0.05173 0.0
C955 C 0.04725 0.50512 0.03978 0.0
C956 C 0.01155 0.47185 0.10366 0.0
C957 C 0.97429 0.4551 0.02384 0.0
C958 C 0.99027 0.46568 0.03555 0.0
C959 C 0.03735 0.48924 0.05896 0.0
C960 C 0.02113 0.48204 0.05193 0.0
H961 H 0.94346 0.45506 0.97109 0.0
H962 H 0.96984 0.47333 -0.01163 0.0
H963 H 0.98941 0.45573 0.13585 0.0
H964 H 0.06193 0.47978 0.12326 0.0
H965 H 0.03584 0.46785 0.10164 0.0
C966 C 0.6857 0.68488 0.94854 0.0
C967 C 0.68353 0.67024 0.97318 0.0
C968 C 0.67457 0.68868 0.95426 0.0
C969 C 0.64275 0.68114 0.05938 0.0
H970 H 0.63358 0.70046 0.9085 0.0
C971 C 0.61651 0.72064 0.08938 0.0
C972 C 0.60533 0.71854 0.04519 0.0
C973 C 0.62381 0.71209 0.08153 0.0
C974 C 0.63588 0.69493 0.95096 0.0
H975 H 0.66782 0.64814 0.02347 0.0
H976 H 0.64847 0.65499 0.03524 0.0
H977 H 0.65082 0.69086 0.89101 0.0
H978 H 0.59297 0.7057 0.95817 0.0
H979 H 0.60608 0.69095 0.94298 0.0
H980 H 0.62833 0.68587 0.12004 0.0
C981 C 0.65879 0.66343 0.01064 0.0
C982 C 0.64585 0.68954 0.94107 0.0
C983 C 0.66985 0.65946 0.00357 0.0
C984 C 0.60136 0.70737 -0.00634 0.0
C985 C 0.60897 0.69906 0.98463 0.0
C986 C 0.63301 0.68683 0.06959 0.0
C987 C 0.66101 0.6781 -0.01395 0.0
C988 C 0.64954 0.68271 -0.00469 0.0
C989 C 0.62042 0.70148 0.02804 0.0
C990 C 0.62955 0.69393 0.01566 0.0
H991 H 0.69608 0.69347 0.92479 0.0
H992 H 0.67672 0.70013 0.93532 0.0
H993 H 0.6454 0.67605 0.10233 0.0
H994 H 0.61991 0.7293 0.12911 0.0
H995 H 0.63263 0.71437 0.11546 0.0
C996 C 0.45243 0.1362 -0.00151 0.0
C997 C 0.46744 0.14546 0.98114 0.0
C998 C 0.44597 0.11996 0.01114 0.0
C999 C 0.44851 0.08475 0.97643 0.0
H1000 H 0.42057 0.06726 0.12801 0.0
C1001 C 0.4115 0.01653 0.03936 0.0
C1002 C 0.39666 0.01175 0.05204 0.0
C1003 C 0.42216 0.03272 0.03423 0.0
C1004 C 0.42833 0.07192 0.08542 0.0
H1005 H 0.48737 0.14469 0.96277 0.0
H1006 H 0.47589 0.11594 0.98436 0.0
H1007 H 0.43573 0.09582 0.11283 0.0
H1008 H 0.3815 0.02035 0.06914 0.0
H1009 H 0.39986 0.04814 0.0606 0.0
H1010 H 0.44067 0.06066 0.94812 0.0
C1011 C 0.46923 0.12148 -0.01171 0.0
C1012 C 0.43703 0.08831 0.07674 0.0
C1013 C 0.4758 0.13792 0.9762 0.0
C1014 C 0.39279 0.02349 0.05952 0.0
C1015 C 0.40337 0.03951 0.05508 0.0
C1016 C 0.43974 0.06824 0.98515 0.0
C1017 C 0.45424 0.11236 0.0066 0.0
C1018 C 0.44689 0.09496 0.02095 0.0
C1019 C 0.4182 0.04439 0.04271 0.0
C1020 C 0.4292 0.06166 0.03856 0.0
H1021 H 0.44558 0.14149 0.00274 0.0
H1022 H 0.43436 0.11329 0.02389 0.0
H1023 H 0.45599 0.08951 0.93289 0.0
H1024 H 0.41485 1.00781 0.03311 0.0
H1025 H 0.43351 0.0361 0.02466 0.0
C1026 C 0.66684 0.13526 0.97611 0.0
C1027 C 0.6817 0.14019 0.96295 0.0
C1028 C 0.65621 0.11906 0.98051 0.0
C1029 C 0.64996 0.07989 0.92721 0.0
H1030 H 0.62128 0.06218 0.07587 0.0
C1031 C 0.62383 0.01496 0.00697 0.0
C1032 C 0.60876 1.00588 0.02365 0.0
C1033 C 0.63065 0.03127 -0.00416 0.0
C1034 C 0.62904 0.06697 0.03336 0.0
H1035 H 0.69692 0.13178 0.94426 0.0
H1036 H 0.67858 0.10385 0.95149 0.0
H1037 H 0.63724 0.091 0.06356 0.0
H1038 H 0.58909 1.00714 0.04208 0.0
H1039 H 0.60121 0.03609 0.023 0.0
H1040 H 0.64211 0.05603 0.89763 0.0
C1041 C 0.67504 0.11243 0.95798 0.0
C1042 C 0.63821 0.08349 0.02635 0.0
C1043 C 0.68562 0.12851 0.95424 0.0
C1044 C 0.60069 0.01374 0.02918 0.0
C1045 C 0.60764 0.0303 0.01853 0.0
C1046 C 0.64084 0.0635 0.93409 0.0
C1047 C 0.66018 0.10743 0.97095 0.0
C1048 C 0.6491 0.09012 0.9743 0.0
C1049 C 0.62272 0.03922 0.00106 0.0
C1050 C 0.63056 0.05675 -0.01158 0.0
H1051 H 0.66341 0.1439 0.98336 0.0
H1052 H 0.64487 0.11565 -0.0096 0.0
H1053 H 0.65794 0.08456 0.88551 0.0
H1054 H 0.63052 0.00948 0.00218 0.0
H1055 H 0.6423 0.03771 0.98384 0.0
C1056 C 0.06619 0.7097 0.06381 0.0
C1057 C 0.07129 0.69891 0.05945 0.0
C1058 C 0.05139 0.70479 0.05316 0.0
C1059 C 0.01421 0.66903 0.05605 0.0
H1060 H 1.00386 0.69606 0.95396 0.0
C1061 C 0.95358 0.64968 -0.00883 0.0
C1062 C 0.94967 0.66148 -0.00643 0.0
C1063 C 0.96831 0.65363 -0.00272 0.0
C1064 C 1.00649 0.6884 0.98334 0.0
H1065 H 0.06469 0.67443 0.04187 0.0
H1066 H 0.03893 0.66585 0.02332 0.0
H1067 H 0.02956 0.7043 0.96877 0.0
H1068 H 0.9583 0.68667 0.00576 0.0
H1069 H 0.98355 0.69337 0.01753 0.0
H1070 H 0.99111 0.65322 0.07139 0.0
C1071 C 0.04635 0.67812 0.0349 0.0
C1072 C 0.0213 0.69316 -0.00822 0.0
C1073 C 0.06114 0.68306 0.04518 0.0
C1074 C 0.96082 0.67722 0.00297 0.0
C1075 C 0.97543 0.68113 0.00926 0.0
C1076 C 0.99937 0.6643 0.0479 0.0
C1077 C 0.04124 0.68891 0.03878 0.0
C1078 C 0.02539 0.68361 0.02863 0.0
C1079 C 0.97948 0.66946 0.00599 0.0
C1080 C 0.99527 0.67398 0.01194 0.0
H1081 H 0.0735 0.72182 0.07747 0.0
H1082 H 0.04783 0.71338 0.05797 0.0
H1083 H 0.01691 0.66142 0.08536 0.0
H1084 H 0.94531 0.63745 0.98389 0.0
H1085 H 0.97098 0.6443 -0.00596 0.0
C1086 C 0.42025 0.49571 0.02144 0.0
C1087 C 0.42373 0.5049 0.07991 0.0
C1088 C 0.42858 0.48883 0.00195 0.0
C1089 C 0.4639 0.49013 0.02178 0.0
H1090 H 0.44103 0.44513 -0.0096 0.0
C1091 C 0.4899 0.44974 -0.00188 0.0
C1092 C 0.48276 0.43643 0.95709 0.0
C1093 C 0.48378 0.45944 0.00916 0.0
C1094 C 0.44767 0.45775 -0.0025 0.0
H1095 H 0.43874 0.5144 0.16299 0.0
H1096 H 0.45354 0.50262 0.12826 0.0
H1097 H 0.42863 0.45984 0.0139 0.0
H1098 H 0.46431 0.42346 0.89161 0.0
H1099 H 0.45416 0.44065 0.90751 0.0
H1100 H 0.48299 0.48807 0.00438 0.0
C1101 C 0.44442 0.50078 0.09736 0.0
C1102 C 0.4405 0.46618 0.01132 0.0
C1103 C 0.43595 0.50747 0.11736 0.0
C1104 C 0.46994 0.43352 0.92435 0.0
C1105 C 0.46403 0.44333 0.93413 0.0
C1106 C 0.47113 0.48171 0.00688 0.0
C1107 C 0.44063 0.4911 0.04027 0.0
C1108 C 0.4485 0.48245 0.02361 0.0
C1109 C 0.47055 0.45614 0.97844 0.0
C1110 C 0.4631 0.46538 -0.00567 0.0
H1111 H 0.4107 0.49324 -0.00738 0.0
H1112 H 0.42542 0.48146 0.9576 0.0
H1113 H 0.47036 0.50268 0.03099 0.0
H1114 H 0.49976 0.45219 0.02426 0.0
H1115 H 0.48913 0.46913 0.04386 0.0
C1116 C 0.09691 0.28336 0.32263 0.0
C1117 C 0.09776 0.29772 0.33892 0.0
C1118 C 0.10959 0.28283 0.30708 0.0
C1119 C 0.14945 0.30752 0.26603 0.0
H1120 H 0.15107 0.27322 0.35924 0.0
C1121 C 0.20332 0.30816 0.3252 0.0
C1122 C 0.20319 0.29374 0.32394 0.0
C1123 C 0.19049 0.30861 0.31343 0.0
C1124 C 0.15074 0.28271 0.33171 0.0
H1125 H 0.11243 0.32278 0.35177 0.0
H1126 H 0.1347 0.32192 0.3251 0.0
H1127 H 0.1285 0.27408 0.36273 0.0
H1128 H 0.1899 0.26865 0.3073 0.0
H1129 H 0.16749 0.26938 0.28556 0.0
H1130 H 0.17194 0.31635 0.23675 0.0
C1131 C 0.12421 0.31112 0.3225 0.0
C1132 C 0.13777 0.2832 0.3337 0.0
C1133 C 0.11148 0.31164 0.33766 0.0
C1134 C 0.1902 0.27988 0.30849 0.0
C1135 C 0.17741 0.28032 0.29641 0.0
C1136 C 0.16248 0.30703 0.26407 0.0
C1137 C 0.12343 0.29663 0.30854 0.0
C1138 C 0.13699 0.29567 0.30146 0.0
C1139 C 0.17731 0.29462 0.30048 0.0
C1140 C 0.16329 0.29469 0.29746 0.0
H1141 H 0.08641 0.2725 0.32329 0.0
H1142 H 0.10859 0.27153 0.29548 0.0
H1143 H 0.14915 0.3172 0.24012 0.0
H1144 H 0.2131 0.31893 0.33886 0.0
H1145 H 0.19074 0.31978 0.31798 0.0
C1146 C 0.85996 0.05729 0.44385 0.0
C1147 C 0.84568 0.05496 0.44278 0.0
C1148 C 0.86234 0.04462 0.43318 0.0
C1149 C 0.84496 1.00432 0.36444 0.0
H1150 H 0.86658 0.99624 0.50185 0.0
C1151 C 0.83252 0.94221 0.4375 0.0
C1152 C 0.84403 0.93943 0.45224 0.0
C1153 C 0.83532 0.95752 0.4241 0.0
C1154 C 0.86078 0.99849 0.46219 0.0
H1155 H 0.82279 0.03766 0.42797 0.0
H1156 H 0.82694 0.01569 0.40957 0.0
H1157 H 0.86692 0.02142 0.49974 0.0
H1158 H 0.86755 0.9505 0.46359 0.0
H1159 H 0.87243 0.97745 0.44088 0.0
H1160 H 0.83831 0.98116 0.32868 0.0
C1161 C 0.8363 0.02728 0.41812 0.0
C1162 C 0.86098 0.0129 0.46098 0.0
C1163 C 0.83391 0.03985 0.42933 0.0
C1164 C 0.85846 0.95229 0.45252 0.0
C1165 C 0.86125 0.96769 0.43964 0.0
C1166 C 0.84476 0.98996 0.36564 0.0
C1167 C 0.85051 0.02949 0.42043 0.0
C1168 C 0.85261 0.01569 0.41368 0.0
C1169 C 0.84968 0.97043 0.42545 0.0
C1170 C 0.85222 0.98667 0.41612 0.0
H1171 H 0.86925 0.06882 0.45396 0.0
H1172 H 0.8734 0.04663 0.43507 0.0
H1173 H 0.83865 1.00631 0.32657 0.0
H1174 H 0.82128 0.93257 0.43675 0.0
H1175 H 0.82615 0.95928 0.41452 0.0
C1176 C 0.108 0.92302 0.42857 0.0
C1177 C 0.09423 0.92185 0.43639 0.0
C1178 C 0.1204 0.93753 0.41095 0.0
C1179 C 0.1321 0.97719 0.33641 0.0
H1180 H 0.16709 0.99003 0.44059 0.0
C1181 C 0.17953 0.04195 0.34722 0.0
C1182 C 0.19387 0.04467 0.35148 0.0
C1183 C 0.16758 0.02652 0.34819 0.0
C1184 C 0.15752 0.98655 0.41008 0.0
H1185 H 0.08262 0.93493 0.43069 0.0
H1186 H 0.10424 0.96019 0.40056 0.0
H1187 H 0.1459 0.96379 0.45974 0.0
H1188 H 0.20691 0.03331 0.36182 0.0
H1189 H 0.18625 1.00648 0.36024 0.0
H1190 H 0.14369 1.00007 0.28736 0.0
C1191 C 0.10545 0.94989 0.40739 0.0
C1192 C 0.14536 0.97149 0.42118 0.0
C1193 C 0.09308 0.93543 0.42522 0.0
C1194 C 0.19607 0.03165 0.35566 0.0
C1195 C 0.18417 0.01624 0.35626 0.0
C1196 C 0.1443 0.99225 0.32512 0.0
C1197 C 0.11925 0.95113 0.40048 0.0
C1198 C 0.13247 0.96671 0.38505 0.0
C1199 C 0.16977 0.01348 0.35395 0.0
C1200 C 0.15709 0.99716 0.36235 0.0
H1201 H 0.10923 0.91276 0.43641 0.0
H1202 H 0.13088 0.93811 0.40534 0.0
H1203 H 0.12237 0.97375 0.30715 0.0
H1204 H 0.17758 0.05182 0.34493 0.0
H1205 H 0.15663 0.02483 0.34729 0.0
C1206 C 0.27407 0.25949 0.41271 0.0
C1207 C 0.26253 0.2623 0.39881 0.0
C1208 C 0.27145 0.24408 0.42086 0.0
C1209 C 0.24614 0.20327 0.37334 0.0
H1210 H 0.26737 0.19377 0.50771 0.0
C1211 C 0.24311 0.14227 0.39384 0.0
C1212 C 0.25683 0.14324 0.39829 0.0
C1213 C 0.24188 0.15579 0.40162 0.0
C1214 C 0.26138 0.19624 0.46986 0.0
H1215 H 0.23913 0.25109 0.38347 0.0
H1216 H 0.23455 0.22403 0.39753 0.0
H1217 H 0.26861 0.21935 0.5079 0.0
H1218 H 0.27995 0.15911 0.41569 0.0
H1219 H 0.2778 0.18253 0.42899 0.0
H1220 H 0.23924 0.18026 0.33421 0.0
C1221 C 0.24564 0.23383 0.40183 0.0
C1222 C 0.26209 0.21089 0.46996 0.0
C1223 C 0.24825 0.24931 0.39407 0.0
C1224 C 0.26922 0.15793 0.41182 0.0
C1225 C 0.26797 0.17135 0.42003 0.0
C1226 C 0.24542 0.18857 0.37325 0.0
C1227 C 0.25724 0.23106 0.41515 0.0
C1228 C 0.25481 0.21474 0.42055 0.0
C1229 C 0.25432 0.17048 0.41472 0.0
C1230 C 0.25337 0.18508 0.42036 0.0
H1231 H 0.28521 0.26921 0.41682 0.0
H1232 H 0.28067 0.24237 0.43003 0.0
H1233 H 0.24048 0.20592 0.33435 0.0
H1234 H 0.23337 0.13112 0.38352 0.0
H1235 H 0.23121 0.15475 0.39759 0.0
C1236 C 0.92094 0.15193 0.50127 0.0
C1237 C 0.90714 0.15076 0.49906 0.0
C1238 C 0.93373 0.16671 0.50157 0.0
C1239 C 0.94671 0.20756 0.44403 0.0
H1240 H 0.98171 0.21727 0.54282 0.0
C1241 C 0.99644 0.27006 0.44112 0.0
C1242 C 1.01036 0.27168 0.43131 0.0
C1243 C 0.98418 0.25525 0.45439 0.0
C1244 C 0.97205 0.21464 0.51451 0.0
H1245 H 0.89591 0.1642 0.49557 0.0
H1246 H 0.91811 0.18995 0.49901 0.0
H1247 H 0.95941 0.19157 0.56124 0.0
H1248 H 0.02236 0.25904 0.42926 0.0
H1249 H 1.00074 0.23295 0.452 0.0
H1250 H 0.95925 0.23048 0.397 0.0
C1251 C 0.91909 0.17944 0.50008 0.0
C1252 C 0.95928 0.19997 0.52514 0.0
C1253 C 0.90633 0.16466 0.49948 0.0
C1254 C 0.01177 0.25815 0.43633 0.0
C1255 C 0.99943 0.24325 0.44974 0.0
C1256 C 0.9594 0.22217 0.43356 0.0
C1257 C 0.93294 0.18064 0.4992 0.0
C1258 C 0.94645 0.19631 0.49016 0.0
C1259 C 0.98549 0.24166 0.45814 0.0
C1260 C 0.97219 0.22592 0.46885 0.0
H1261 H 0.92183 0.14136 0.50033 0.0
H1262 H 0.94422 0.16721 0.50023 0.0
H1263 H 0.93715 0.20497 0.41486 0.0
H1264 H 0.99496 0.28025 0.43837 0.0
H1265 H 0.97363 0.25445 0.46185 0.0
C1266 C 0.99537 0.88974 0.53169 0.0
C1267 C 1.00884 0.90393 0.5259 0.0
C1268 C 0.98241 0.88994 0.54299 0.0
C1269 C 0.96707 0.91509 0.59432 0.0
H1270 H 0.93511 0.88694 0.48018 0.0
C1271 C 0.91687 0.92198 0.53843 0.0
C1272 C 0.90324 0.90817 0.53171 0.0
C1273 C 0.92948 0.92107 0.54916 0.0
C1274 C 0.94381 0.89467 0.51341 0.0
H1275 H 0.01937 0.92944 0.52666 0.0
H1276 H 0.99657 0.92991 0.54528 0.0
H1277 H 0.95776 0.88622 0.47759 0.0
H1278 H 0.89212 0.88257 0.53035 0.0
H1279 H 0.91398 0.88089 0.55152 0.0
H1280 H 0.95309 0.92376 0.62891 0.0
C1281 C 0.9961 0.9186 0.54293 0.0
C1282 C 0.95681 0.89427 0.51186 0.0
C1283 C 1.00911 0.91837 0.53185 0.0
C1284 C 0.90237 0.89339 0.53752 0.0
C1285 C 0.91495 0.89246 0.54844 0.0
C1286 C 0.95401 0.9155 0.59588 0.0
C1287 C 0.98258 0.90437 0.54753 0.0
C1288 C 0.96862 0.90451 0.55202 0.0
C1289 C 0.9287 0.90629 0.55281 0.0
C1290 C 0.94227 0.90533 0.55513 0.0
H1291 H 0.99475 0.87847 0.52458 0.0
H1292 H 0.97218 0.87878 0.54665 0.0
H1293 H 0.97595 0.92303 0.62626 0.0
H1294 H 0.91779 0.9335 0.53351 0.0
H1295 H 0.93993 0.93195 0.55143 0.0
C1296 C 0.86287 0.66279 0.95021 0.0
C1297 C 0.86351 0.64882 0.95878 0.0
C1298 C 0.84945 0.66243 0.95011 0.0
C1299 C 0.80932 0.63653 0.92868 0.0
H1300 H 0.8078 0.67037 0.02212 0.0
C1301 C 0.75533 0.6394 0.96217 0.0
C1302 C 0.75668 0.65447 0.95711 0.0
C1303 C 0.76785 0.63775 0.96262 0.0
C1304 C 0.80801 0.66092 -0.00501 0.0
H1305 H 0.85024 0.62336 0.97241 0.0
H1306 H 0.82665 0.62272 0.97232 0.0
H1307 H 0.8302 0.66909 0.02228 0.0
H1308 H 0.7724 0.67958 0.9468 0.0
H1309 H 0.79398 0.67672 0.94673 0.0
H1310 H 0.78706 0.62844 0.90113 0.0
C1311 C 0.83667 0.634 0.96546 0.0
C1312 C 0.82092 0.66017 -0.00483 0.0
C1313 C 0.8502 0.63436 0.96574 0.0
C1314 C 0.77086 0.66778 0.95144 0.0
C1315 C 0.78331 0.66614 0.95184 0.0
C1316 C 0.79634 0.63729 0.9284 0.0
C1317 C 0.83612 0.64808 0.95859 0.0
C1318 C 0.82189 0.64811 0.96123 0.0
C1319 C 0.78205 0.65113 0.95813 0.0
C1320 C 0.79556 0.64965 0.96078 0.0
H1321 H 0.87281 0.67417 0.94405 0.0
H1322 H 0.84954 0.67349 0.94313 0.0
H1323 H 0.80963 0.62711 0.90167 0.0
H1324 H 0.74461 0.62887 0.96661 0.0
H1325 H 0.76638 0.626 0.96796 0.0
C1326 C 0.51765 0.36478 0.93345 0.0
C1327 C 0.50404 0.36354 0.92017 0.0
C1328 C 0.51943 0.35148 0.92849 0.0
C1329 C 0.5027 0.31195 0.85051 0.0
H1330 H 0.51899 0.29994 -2e-05 0.0
C1331 C 0.48688 0.24763 0.90265 0.0
C1332 C 0.49749 0.24384 0.92322 0.0
C1333 C 0.49026 0.26334 0.8961 0.0
C1334 C 0.51466 0.30326 0.95721 0.0
H1335 H 0.48175 0.34737 0.89004 0.0
H1336 H 0.48486 0.32454 0.88106 0.0
H1337 H 0.52043 0.32578 -0.00059 0.0
H1338 H 0.52009 0.25376 0.95272 0.0
H1339 H 0.52601 0.28147 0.94182 0.0
H1340 H 0.49653 0.28937 0.80919 0.0
C1341 C 0.4942 0.3357 0.89508 0.0
C1342 C 0.51548 0.31806 0.9569 0.0
C1343 C 0.49239 0.34882 0.90076 0.0
C1344 C 0.51168 0.25627 0.93658 0.0
C1345 C 0.51504 0.27212 0.9307 0.0
C1346 C 0.50189 0.29724 0.85081 0.0
C1347 C 0.5077 0.33678 0.90902 0.0
C1348 C 0.50908 0.32235 0.90459 0.0
C1349 C 0.50434 0.27582 0.91027 0.0
C1350 C 0.50742 0.29247 0.90522 0.0
H1351 H 0.52683 0.37593 0.9487 0.0
H1352 H 0.52997 0.3527 0.93946 0.0
H1353 H 0.49795 0.31502 0.80867 0.0
H1354 H 0.47583 0.2384 0.89186 0.0
H1355 H 0.48167 0.2657 0.88133 0.0
C1356 C 0.76522 0.23997 0.93769 0.0
C1357 C 0.75078 0.23708 0.94383 0.0
C1358 C 0.77719 0.25535 0.94005 0.0
C1359 C 0.78887 0.29802 0.92268 0.0
H1360 H 0.8223 0.30274 0.02166 0.0
C1361 C 0.84295 0.359 0.96668 0.0
C1362 C 0.85603 0.35859 0.95819 0.0
C1363 C 0.82923 0.34493 0.96542 0.0
C1364 C 0.81311 0.30166 -0.00659 0.0
H1365 H 0.73768 0.24835 0.95555 0.0
H1366 H 0.7587 0.27534 0.96004 0.0
H1367 H 0.80019 0.27699 0.01846 0.0
H1368 H 0.86475 0.34302 0.93865 0.0
H1369 H 0.84123 0.31896 0.93628 0.0
H1370 H 0.80205 0.32288 0.89753 0.0
C1371 C 0.7607 0.26561 0.95309 0.0
C1372 C 0.8004 0.28684 -0.00857 0.0
C1373 C 0.74865 0.25012 0.95076 0.0
C1374 C 0.855 0.34389 0.94639 0.0
C1375 C 0.84144 0.32998 0.94533 0.0
C1376 C 0.80168 0.31297 0.92476 0.0
C1377 C 0.77516 0.2684 0.94881 0.0
C1378 C 0.78819 0.28467 0.9548 0.0
C1379 C 0.82835 0.33019 0.95606 0.0
C1380 C 0.81409 0.31488 0.9589 0.0
H1381 H 0.76735 0.2303 0.93157 0.0
H1382 H 0.78811 0.25701 0.93493 0.0
H1383 H 0.7797 0.29681 0.89392 0.0
H1384 H 0.84331 0.3701 0.97571 0.0
H1385 H 0.81934 0.34551 0.97373 0.0
C1386 C 0.87555 0.56241 0.01986 0.0
C1387 C 0.88836 0.57694 0.00588 0.0
C1388 C 0.87609 0.54845 0.0272 0.0
C1389 C 0.89873 0.53094 0.97748 0.0
H1390 H 0.87366 0.4979 0.10816 0.0
C1391 C 0.89959 0.47228 0.00116 0.0
C1392 C 0.88588 0.45835 0.00744 0.0
C1393 C 0.90078 0.48713 0.00818 0.0
C1394 C 0.88067 0.50696 0.07106 0.0
H1395 H 0.91176 0.58812 -0.01338 0.0
H1396 H 0.91284 0.56387 0.00128 0.0
H1397 H 0.87415 0.52312 0.10759 0.0
H1398 H 0.8627 0.44907 0.02573 0.0
H1399 H 0.86467 0.47491 0.03756 0.0
H1400 H 0.90507 0.51471 0.94019 0.0
C1401 C 0.90233 0.56325 0.00679 0.0
C1402 C 0.88094 0.52144 0.07072 0.0
C1403 C 0.90177 0.57722 -0.00043 0.0
C1404 C 0.87342 0.45961 0.02142 0.0
C1405 C 0.87459 0.47442 0.02858 0.0
C1406 C 0.89845 0.51646 0.97782 0.0
C1407 C 0.88947 0.54864 0.02007 0.0
C1408 C 0.88986 0.53357 0.02342 0.0
C1409 C 0.88826 0.48841 0.02128 0.0
C1410 C 0.88929 0.5042 0.0241 0.0
H1411 H 0.86505 0.56184 0.02415 0.0
H1412 H 0.86593 0.53742 0.03631 0.0
H1413 H 0.90556 0.53989 0.93962 0.0
H1414 H 0.90933 0.47174 -0.01169 0.0
H1415 H 0.9115 0.49763 0.00257 0.0
C1416 C 0.57649 0.46561 -0.00876 0.0
C1417 C 0.56265 0.46346 0.97609 0.0
C1418 C 0.58837 0.48075 0.00152 0.0
C1419 C 0.60176 0.52263 0.95702 0.0
H1420 H 0.63095 0.53038 0.09194 0.0
C1421 C 0.65275 0.58461 -0.01394 0.0
C1422 C 0.66614 0.58495 -0.00715 0.0
C1423 C 0.63945 0.5703 -0.0073 0.0
C1424 C 0.62294 0.5284 0.05375 0.0
H1425 H 0.55052 0.47557 0.95784 0.0
H1426 H 0.57114 0.502 0.97738 0.0
H1427 H 0.60892 0.50437 0.08759 0.0
H1428 H 0.67613 0.57067 0.01205 0.0
H1429 H 0.65301 0.54568 0.02308 0.0
H1430 H 0.6159 0.54652 0.92215 0.0
C1431 C 0.57281 0.49196 0.98165 0.0
C1432 C 0.6103 0.51348 0.05126 0.0
C1433 C 0.56092 0.47679 0.97155 0.0
C1434 C 0.66594 0.57074 0.00729 0.0
C1435 C 0.65269 0.55645 0.01402 0.0
C1436 C 0.6144 0.53753 0.95946 0.0
C1437 C 0.58673 0.49415 -0.00386 0.0
C1438 C 0.59965 0.51034 0.00226 0.0
C1439 C 0.63926 0.556 0.00588 0.0
C1440 C 0.62525 0.54055 0.00724 0.0
H1441 H 0.57813 0.45553 -0.00576 0.0
H1442 H 0.59896 0.482 0.0115 0.0
H1443 H 0.59389 0.52057 0.91798 0.0
H1444 H 0.65254 0.59528 0.97292 0.0
H1445 H 0.62932 0.57041 -0.01353 0.0
C1446 C 0.65187 0.20054 0.02719 0.0
C1447 C 0.65805 0.20023 0.96395 0.0
C1448 C 0.63797 0.19912 0.03092 0.0
C1449 C 0.6133 0.20601 0.92302 0.0
H1450 H 0.58364 0.18227 0.06299 0.0
C1451 C 0.55596 0.19741 0.90196 0.0
C1452 C 0.54978 0.20012 0.96016 0.0
C1453 C 0.5683 0.19577 0.90667 0.0
C1454 C 0.59188 0.18904 0.02392 0.0
H1455 H 0.65464 0.19774 0.8557 0.0
H1456 H 0.63031 0.19493 0.86174 0.0
H1457 H 0.60697 0.18243 0.0636 0.0
H1458 H 0.55142 0.20308 0.06906 0.0
H1459 H 0.57321 0.20021 0.07785 0.0
H1460 H 0.59843 0.21271 0.88332 0.0
C1461 C 0.63618 0.19654 0.90848 0.0
C1462 C 0.60523 0.18914 0.02428 0.0
C1463 C 0.65002 0.19804 0.90488 0.0
C1464 C 0.55588 0.20067 0.0238 0.0
C1465 C 0.56833 0.19908 0.02863 0.0
C1466 C 0.60004 0.20589 0.9226 0.0
C1467 C 0.6301 0.19743 0.97129 0.0
C1468 C 0.61602 0.19749 0.97324 0.0
C1469 C 0.5749 0.19702 0.96973 0.0
C1470 C 0.58909 0.19726 0.97245 0.0
H1471 H 0.65804 0.20252 0.07316 0.0
H1472 H 0.63365 0.19998 0.07999 0.0
H1473 H 0.62151 0.21294 0.88406 0.0
H1474 H 0.5514 0.19697 0.85247 0.0
H1475 H 0.57291 0.19389 0.86051 0.0
C1476 C 0.51102 0.93267 0.02654 0.0
C1477 C 0.52481 0.94602 0.03705 0.0
C1478 C 0.49852 0.93408 0.02094 0.0
C1479 C 0.4838 0.95988 0.07001 0.0
H1480 H 0.45273 0.93349 0.94817 0.0
C1481 C 0.43005 0.96239 0.05457 0.0
C1482 C 0.41697 0.94776 0.05165 0.0
C1483 C 0.44368 0.96331 0.0463 0.0
C1484 C 0.46125 0.94088 0.98285 0.0
H1485 H 0.53623 0.97134 0.05134 0.0
H1486 H 0.51444 0.97392 0.04003 0.0
H1487 H 0.47572 0.93326 0.9442 0.0
H1488 H 0.40793 0.92264 0.03865 0.0
H1489 H 0.43164 0.92414 0.02453 0.0
H1490 H 0.46923 0.96732 0.10935 0.0
C1491 C 0.5133 0.96232 0.03595 0.0
C1492 C 0.47446 0.94075 0.98056 0.0
C1493 C 0.52584 0.9609 0.04133 0.0
C1494 C 0.41783 0.93409 0.04033 0.0
C1495 C 0.43143 0.93499 0.03183 0.0
C1496 C 0.47058 0.96002 0.07226 0.0
C1497 C 0.49943 0.94889 0.02629 0.0
C1498 C 0.48584 0.95006 0.02481 0.0
C1499 C 0.44456 0.9496 0.03514 0.0
C1500 C 0.45904 0.95034 0.0294 0.0
H1501 H 0.50988 0.92105 0.02377 0.0
H1502 H 0.48804 0.92343 0.01468 0.0
H1503 H 0.49222 0.96706 0.10548 0.0
H1504 H 0.42978 0.97307 0.06535 0.0
H1505 H 0.45354 0.97476 0.04899 0.0
C1506 C 0.16401 0.69951 0.05476 0.0
C1507 C 0.15037 0.69878 0.05187 0.0
C1508 C 0.16483 0.6856 0.05438 0.0
C1509 C 0.14186 0.64277 0.09411 0.0
H1510 H 0.17121 0.63848 -0.00922 0.0
C1511 C 0.13576 0.58199 0.05356 0.0
C1512 C 0.1481 0.58025 0.06177 0.0
C1513 C 0.13717 0.59696 0.0507 0.0
C1514 C 0.16305 0.63957 0.0205 0.0
H1515 H 0.12695 0.68285 0.04363 0.0
H1516 H 0.12839 0.65885 0.04214 0.0
H1517 H 0.17163 0.66381 -0.01143 0.0
H1518 H 0.17173 0.59304 0.07107 0.0
H1519 H 0.17419 0.61937 0.06624 0.0
H1520 H 0.1332 0.61865 0.12582 0.0
C1521 C 0.13846 0.67008 0.04618 0.0
C1522 C 0.16329 0.65407 0.01925 0.0
C1523 C 0.13764 0.6839 0.0466 0.0
C1524 C 0.162 0.59396 0.06482 0.0
C1525 C 0.16341 0.60903 0.06187 0.0
C1526 C 0.14161 0.62836 0.09529 0.0
C1527 C 0.15201 0.6707 0.05125 0.0
C1528 C 0.15252 0.65574 0.05515 0.0
C1529 C 0.15095 0.61067 0.05607 0.0
C1530 C 0.15203 0.62647 0.05761 0.0
H1531 H 0.17403 0.71078 0.05883 0.0
H1532 H 0.17544 0.6865 0.05856 0.0
H1533 H 0.13363 0.64374 0.12385 0.0
H1534 H 0.12489 0.57174 0.05027 0.0
H1535 H 0.12738 0.59778 0.04465 0.0
C1536 C 0.50829 0.69496 0.03832 0.0
C1537 C 0.52132 0.69439 0.04236 0.0
C1538 C 0.49474 0.6811 0.03316 0.0
C1539 C 0.47703 0.63869 -0.00855 0.0
H1540 H 0.44554 0.63458 0.11001 0.0
C1541 C 0.42609 0.57836 0.05435 0.0
C1542 C 0.41231 0.57716 0.06344 0.0
C1543 C 0.43878 0.59305 0.04488 0.0
C1544 C 0.4541 0.6356 0.07563 0.0
H1545 H 0.53022 0.67868 0.04504 0.0
H1546 H 0.50657 0.65444 0.03458 0.0
H1547 H 0.46894 0.65932 0.10545 0.0
H1548 H 0.40111 0.59062 0.06845 0.0
H1549 H 0.42342 0.61647 0.05111 0.0
H1550 H 0.46226 0.61497 0.96181 0.0
C1551 C 0.50689 0.66569 0.03428 0.0
C1552 C 0.46755 0.6498 0.07314 0.0
C1553 C 0.52049 0.6796 0.03974 0.0
C1554 C 0.41154 0.59111 0.06172 0.0
C1555 C 0.42434 0.60592 0.05216 0.0
C1556 C 0.46356 0.62453 -0.00636 0.0
C1557 C 0.49382 0.66627 0.03208 0.0
C1558 C 0.47926 0.65144 0.03172 0.0
C1559 C 0.43815 0.60706 0.04388 0.0
C1560 C 0.45198 0.62269 0.03664 0.0
H1561 H 0.5086 0.70619 0.04034 0.0
H1562 H 0.48494 0.68201 0.03065 0.0
H1563 H 0.48572 0.63964 0.95813 0.0
H1564 H 0.42718 0.56791 0.05538 0.0
H1565 H 0.44918 0.59339 0.04005 0.0
C1566 C 0.56856 0.78909 0.05842 0.0
C1567 C 0.5827 0.79115 0.06437 0.0
C1568 C 0.56631 0.80211 0.06304 0.0
C1569 C 0.58339 0.84249 0.13207 0.0
H1570 H 0.56206 0.85141 -0.00387 0.0
C1571 C 0.59389 0.9052 0.086 0.0
C1572 C 0.58233 0.90796 0.07137 0.0
C1573 C 0.59163 0.88987 0.09042 0.0
C1574 C 0.56783 0.84896 0.03525 0.0
H1575 H 0.60551 0.80863 0.08008 0.0
H1576 H 0.60158 0.83095 0.08879 0.0
H1577 H 0.56224 0.82638 -0.0061 0.0
H1578 H 0.55917 0.89647 0.05004 0.0
H1579 H 0.55518 0.86938 0.05762 0.0
H1580 H 0.58922 0.86502 0.17298 0.0
C1581 C 0.59219 0.81935 0.08075 0.0
C1582 C 0.56795 0.83462 0.0339 0.0
C1583 C 0.59445 0.80649 0.07532 0.0
C1584 C 0.56831 0.8948 0.06164 0.0
C1585 C 0.56606 0.87929 0.06558 0.0
C1586 C 0.58323 0.85671 0.13361 0.0
C1587 C 0.57812 0.81739 0.07489 0.0
C1588 C 0.57612 0.83144 0.08112 0.0
C1589 C 0.57772 0.87666 0.08027 0.0
C1590 C 0.57585 0.86041 0.08399 0.0
H1591 H 0.55926 0.77747 0.04982 0.0
H1592 H 0.55532 0.80019 0.05837 0.0
H1593 H 0.58952 0.8403 0.17018 0.0
H1594 H 0.60486 0.91496 0.09373 0.0
H1595 H 0.60096 0.88842 0.10049 0.0
C1596 C 0.31057 0.9152 0.0936 0.0
C1597 C 0.32461 0.91689 0.08819 0.0
C1598 C 0.29795 0.90023 0.09672 0.0
C1599 C 0.284 0.85807 0.0563 0.0
H1600 H 0.25069 0.85141 0.16792 0.0
C1601 C 0.23082 0.7967 0.08201 0.0
C1602 C 0.21737 0.79643 0.08085 0.0
C1603 C 0.24409 0.81098 0.08743 0.0
C1604 C 0.25982 0.85308 0.13597 0.0
H1605 H 0.33626 0.90392 0.08245 0.0
H1606 H 0.31416 0.87767 0.0886 0.0
H1607 H 0.27348 0.8767 0.16999 0.0
H1608 H 0.20751 0.81126 0.08162 0.0
H1609 H 0.23054 0.8361 0.09243 0.0
H1610 H 0.27027 0.83443 0.02216 0.0
C1611 C 0.31295 0.88803 0.08964 0.0
C1612 C 0.27295 0.86763 0.13711 0.0
C1613 C 0.32565 0.90309 0.08652 0.0
C1614 C 0.21755 0.81089 0.08518 0.0
C1615 C 0.23083 0.82519 0.09083 0.0
C1616 C 0.27087 0.84348 0.05532 0.0
C1617 C 0.29889 0.88639 0.09472 0.0
C1618 C 0.2852 0.87044 0.09668 0.0
C1619 C 0.24431 0.82547 0.0915 0.0
C1620 C 0.25853 0.84082 0.09463 0.0
H1621 H 0.30925 0.92549 0.09485 0.0
H1622 H 0.28739 0.89956 0.09933 0.0
H1623 H 0.29308 0.85979 0.02377 0.0
H1624 H 0.23106 0.78579 0.07831 0.0
H1625 H 0.25419 0.81065 0.08852 0.0
C1626 C 0.31085 0.543 0.0369 0.0
C1627 C 0.31916 0.54555 0.09544 0.0
C1628 C 0.29722 0.54217 0.04047 0.0
C1629 C 0.27528 0.55448 0.14532 0.0
H1630 H 0.24361 0.52522 0.03276 0.0
C1631 C 0.21799 0.54999 0.14926 0.0
C1632 C 0.21131 0.54818 0.08609 0.0
C1633 C 0.23061 0.54869 0.15502 0.0
C1634 C 0.25236 0.53358 0.06412 0.0
H1635 H 0.31995 0.54981 0.20337 0.0
H1636 H 0.29592 0.54807 0.21038 0.0
H1637 H 0.26637 0.52457 0.03494 0.0
H1638 H 0.21276 0.54397 0.97939 0.0
H1639 H 0.23474 0.54179 -0.0112 0.0
H1640 H 0.2613 0.56362 0.17381 0.0
C1641 C 0.29991 0.54661 0.16151 0.0
C1642 C 0.26545 0.5332 0.06541 0.0
C1643 C 0.31357 0.54737 0.15785 0.0
C1644 C 0.21758 0.5452 0.02881 0.0
C1645 C 0.23013 0.54385 0.03446 0.0
C1646 C 0.26216 0.55487 0.144 0.0
C1647 C 0.29155 0.54405 0.10273 0.0
C1648 C 0.2772 0.54378 0.10529 0.0
C1649 C 0.23688 0.5456 0.09761 0.0
C1650 C 0.25056 0.54457 0.10264 0.0
H1651 H 0.31502 0.54179 -0.01196 0.0
H1652 H 0.2913 0.54048 -0.00613 0.0
H1653 H 0.2841 0.56294 0.17608 0.0
H1654 H 0.21366 0.55279 0.19381 0.0
H1655 H 0.23545 0.55008 0.20452 0.0
C1656 C 0.04814 0.30558 0.14386 0.0
C1657 C 0.04133 0.31262 0.17937 0.0
C1658 C 0.04889 0.30621 0.07302 0.0
C1659 C 0.0333 0.31393 0.92067 0.0
H1660 H 0.07099 0.32508 0.83787 0.0
C1661 C 0.04609 0.33083 0.63773 0.0
C1662 C 0.052 0.3229 0.60199 0.0
C1663 C 0.04543 0.33025 0.70858 0.0
C1664 C 0.06039 0.32187 0.86036 0.0
H1665 H 0.02944 0.32529 0.16875 0.0
H1666 H 0.0309 0.32655 0.04476 0.0
H1667 H 0.0676 0.32167 0.96122 0.0
H1668 H 0.06264 0.30891 0.6121 0.0
H1669 H 0.06155 0.30796 0.73628 0.0
H1670 H 0.02614 0.31425 0.81972 0.0
C1671 C 0.03554 0.32042 0.07174 0.0
C1672 C 0.05842 0.31985 0.93079 0.0
C1673 C 0.03474 0.31974 0.14271 0.0
C1674 C 0.058 0.31511 0.63836 0.0
C1675 C 0.05739 0.31458 0.70934 0.0
C1676 C 0.03529 0.31601 0.85027 0.0
C1677 C 0.04289 0.31394 0.03634 0.0
C1678 C 0.04484 0.31583 0.96159 0.0
C1679 C 0.05078 0.32182 0.74492 0.0
C1680 C 0.04885 0.31999 0.81956 0.0
H1681 H 0.05322 0.2999 0.17075 0.0
H1682 H 0.05435 0.30083 0.04697 0.0
H1683 H 0.02268 0.31065 0.94299 0.0
H1684 H 0.0417 0.33724 0.61102 0.0
H1685 H 0.04057 0.33621 0.73497 0.0
C1686 C 0.82161 0.8798 0.24683 0.0
C1687 C 0.83486 0.8868 0.28164 0.0
C1688 C 0.82164 0.88046 0.17597 0.0
C1689 C 0.84487 0.90468 0.03216 0.0
H1690 H 0.81659 0.87012 0.92453 0.0
C1691 C 0.84756 0.90428 0.73941 0.0
C1692 C 0.83427 0.8981 0.705 0.0
C1693 C 0.84759 0.90354 0.81023 0.0
C1694 C 0.82442 0.87992 0.95413 0.0
H1695 H 0.85855 0.89911 0.26973 0.0
H1696 H 0.85861 0.90001 0.1456 0.0
H1697 H 0.81707 0.86633 0.0472 0.0
H1698 H 0.81065 0.88691 0.7177 0.0
H1699 H 0.81074 0.8857 0.84185 0.0
H1700 H 0.85227 0.91824 0.93891 0.0
C1701 C 0.8482 0.89434 0.17328 0.0
C1702 C 0.82474 0.87774 0.0242 0.0
C1703 C 0.84816 0.8937 0.24424 0.0
C1704 C 0.82106 0.89174 0.74283 0.0
C1705 C 0.82109 0.89094 0.81376 0.0
C1706 C 0.84459 0.90685 0.96206 0.0
C1707 C 0.83494 0.88806 0.13857 0.0
C1708 C 0.83495 0.89011 0.0639 0.0
C1709 C 0.83434 0.89657 0.84794 0.0
C1710 C 0.83435 0.89449 0.92247 0.0
H1711 H 0.81118 0.87413 0.27429 0.0
H1712 H 0.81125 0.87555 0.15068 0.0
H1713 H 0.85268 0.91452 0.06166 0.0
H1714 H 0.85793 0.90927 0.71164 0.0
H1715 H 0.85795 0.90788 0.83531 0.0
C1716 C 0.25042 0.10302 0.12183 0.0
C1717 C 0.26371 0.1095 0.15632 0.0
C1718 C 0.25031 0.10231 0.05112 0.0
C1719 C 0.27148 0.09991 0.90906 0.0
H1720 H 0.24672 0.1097 0.79886 0.0
C1721 C 0.27439 0.10261 0.61631 0.0
C1722 C 0.26126 0.09734 0.5815 0.0
C1723 C 0.27448 0.10325 0.68705 0.0
C1724 C 0.25351 0.10669 0.82913 0.0
H1725 H 0.28735 0.12088 0.1439 0.0
H1726 H 0.28713 0.11964 0.01981 0.0
H1727 H 0.24778 0.11399 0.9211 0.0
H1728 H 0.23779 0.08762 0.59327 0.0
H1729 H 0.2379 0.08841 0.71732 0.0
H1730 H 0.27712 0.09248 0.81734 0.0
C1731 C 0.27682 0.115 0.04782 0.0
C1732 C 0.25418 0.10924 0.89891 0.0
C1733 C 0.27694 0.11581 0.11865 0.0
C1734 C 0.24809 0.09184 0.61882 0.0
C1735 C 0.24817 0.09244 0.68969 0.0
C1736 C 0.27076 0.09729 0.83932 0.0
C1737 C 0.26348 0.108 0.01364 0.0
C1738 C 0.26318 0.10589 0.93941 0.0
C1739 C 0.26142 0.09851 0.72433 0.0
C1740 C 0.26177 0.10067 0.79869 0.0
H1741 H 0.24004 0.09809 0.1495 0.0
H1742 H 0.23987 0.09676 0.02599 0.0
H1743 H 0.2783 0.09697 0.93948 0.0
H1744 H 0.28466 0.10659 0.58888 0.0
H1745 H 0.28487 0.10802 0.71227 0.0
C1746 C 0.05683 0.89243 0.73688 0.0
C1747 C 0.06273 0.8845 0.70081 0.0
C1748 C 0.05583 0.89148 0.80784 0.0
C1749 C 0.05276 0.86518 0.94905 0.0
H1750 H 0.06112 0.901 0.06095 0.0
C1751 C 0.05406 0.86299 0.24227 0.0
C1752 C 0.04917 0.87177 0.27898 0.0
C1753 C 0.05487 0.86388 0.17128 0.0
C1754 C 0.05852 0.89083 0.0303 0.0
H1755 H 0.07282 0.86996 0.71097 0.0
H1756 H 0.07115 0.8684 0.83509 0.0
H1757 H 0.06551 0.90487 0.93819 0.0
H1758 H 0.04034 0.88753 0.26999 0.0
H1759 H 0.04143 0.8888 0.14596 0.0
H1760 H 0.04567 0.8511 0.04096 0.0
C1761 C 0.06713 0.87517 0.80826 0.0
C1762 C 0.06112 0.89308 0.96009 0.0
C1763 C 0.0682 0.87618 0.73727 0.0
C1764 C 0.04426 0.8807 0.24319 0.0
C1765 C 0.04502 0.88156 0.17215 0.0
C1766 C 0.05011 0.86291 0.01923 0.0
C1767 C 0.06066 0.88253 0.84412 0.0
C1768 C 0.0583 0.88028 0.91881 0.0
C1769 C 0.0507 0.8735 0.13552 0.0
C1770 C 0.05298 0.87572 0.06065 0.0
H1771 H 0.0525 0.89893 0.7103 0.0
H1772 H 0.05072 0.8972 0.83411 0.0
H1773 H 0.05024 0.85504 0.91828 0.0
H1774 H 0.05767 0.85577 0.26834 0.0
H1775 H 0.05932 0.85754 0.14464 0.0
C1776 C 0.25937 0.29847 0.12135 0.0
C1777 C 0.27269 0.30514 0.15562 0.0
C1778 C 0.25929 0.29896 0.05057 0.0
C1779 C 0.28173 0.32261 0.90599 0.0
H1780 H 0.25458 0.28684 0.80041 0.0
C1781 C 0.2843 0.32214 0.61379 0.0
C1782 C 0.27101 0.31435 0.5794 0.0
C1783 C 0.28438 0.32163 0.68457 0.0
C1784 C 0.26206 0.29699 0.82937 0.0
H1785 H 0.29636 0.31704 0.14294 0.0
H1786 H 0.29619 0.31789 0.01865 0.0
H1787 H 0.25533 0.28369 0.92335 0.0
H1788 H 0.24734 0.30076 0.59181 0.0
H1789 H 0.24747 0.30016 0.71596 0.0
H1790 H 0.28837 0.33597 0.81227 0.0
C1791 C 0.28585 0.31241 0.04688 0.0
C1792 C 0.26255 0.29515 0.89952 0.0
C1793 C 0.28593 0.31182 0.11781 0.0
C1794 C 0.25775 0.30678 0.61706 0.0
C1795 C 0.25783 0.30631 0.68799 0.0
C1796 C 0.2812 0.32448 0.83588 0.0
C1797 C 0.27253 0.3062 0.01284 0.0
C1798 C 0.2724 0.30794 0.93833 0.0
C1799 C 0.27116 0.31343 0.72229 0.0
C1800 C 0.27136 0.31168 0.79692 0.0
H1801 H 0.24898 0.2932 0.14917 0.0
H1802 H 0.24889 0.29419 0.02547 0.0
H1803 H 0.28924 0.33272 0.9351 0.0
H1804 H 0.29467 0.32834 0.58605 0.0
H1805 H 0.29483 0.32718 0.70959 0.0
C1806 C 0.82447 0.09134 0.23165 0.0
C1807 C 0.83769 0.09865 0.2668 0.0
C1808 C 0.82459 0.09077 0.16087 0.0
C1809 C 0.84788 0.09162 0.01923 0.0
H1810 H 0.81993 0.09594 0.90821 0.0
C1811 C 0.85079 0.09471 0.7261 0.0
C1812 C 0.83751 0.08672 0.69163 0.0
C1813 C 0.85079 0.09553 0.79682 0.0
C1814 C 0.82767 0.0945 0.93877 0.0
H1815 H 0.86139 0.11193 0.25541 0.0
H1816 H 0.86159 0.11116 0.13138 0.0
H1817 H 0.82032 0.10022 0.03035 0.0
H1818 H 0.81385 0.07273 0.70428 0.0
H1819 H 0.81389 0.07408 0.8282 0.0
H1820 H 0.85526 0.08596 0.92753 0.0
C1821 C 0.85115 0.10557 0.15879 0.0
C1822 C 0.82793 0.09701 0.00853 0.0
C1823 C 0.85103 0.10613 0.22968 0.0
C1824 C 0.82426 0.07901 0.72942 0.0
C1825 C 0.82427 0.07988 0.80022 0.0
C1826 C 0.84764 0.08915 0.94944 0.0
C1827 C 0.83793 0.09756 0.12385 0.0
C1828 C 0.83803 0.09557 0.04945 0.0
C1829 C 0.83752 0.0884 0.83439 0.0
C1830 C 0.83751 0.09054 0.90863 0.0
H1831 H 0.81402 0.08569 0.25885 0.0
H1832 H 0.81423 0.08447 0.13538 0.0
H1833 H 0.8556 0.09013 0.04972 0.0
H1834 H 0.86119 0.10078 0.69839 0.0
H1835 H 0.86116 0.10226 0.82184 0.0
C1836 C 0.7124 0.64713 0.213 0.0
C1837 C 0.72064 0.66136 0.17559 0.0
C1838 C 0.71238 0.64713 0.28368 0.0
C1839 C 0.7181 0.67267 0.42616 0.0
H1840 H 0.72236 0.64109 0.52894 0.0
C1841 C 0.72627 0.67537 0.71402 0.0
C1842 C 0.71815 0.66111 0.75136 0.0
C1843 C 0.72642 0.67537 0.64335 0.0
C1844 C 0.721 0.64985 0.50071 0.0
H1845 H 0.73547 0.68668 0.18218 0.0
H1846 H 0.73546 0.68662 0.30617 0.0
H1847 H 0.7234 0.64125 0.40479 0.0
H1848 H 0.70363 0.63573 0.74465 0.0
H1849 H 0.70379 0.63581 0.62063 0.0
H1850 H 0.71566 0.68125 0.52202 0.0
C1851 C 0.72893 0.67554 0.2806 0.0
C1852 C 0.72162 0.64996 0.43002 0.0
C1853 C 0.72898 0.67556 0.20986 0.0
C1854 C 0.71002 0.64688 0.71701 0.0
C1855 C 0.71017 0.6469 0.64626 0.0
C1856 C 0.71746 0.67255 0.49684 0.0
C1857 C 0.72058 0.66134 0.31785 0.0
C1858 C 0.72017 0.66137 0.39238 0.0
C1859 C 0.71843 0.66114 0.60907 0.0
C1860 C 0.7189 0.66114 0.53451 0.0
H1861 H 0.70585 0.63601 0.18783 0.0
H1862 H 0.70574 0.63607 0.31161 0.0
H1863 H 0.71674 0.68143 0.39791 0.0
H1864 H 0.73261 0.68652 0.73924 0.0
H1865 H 0.73298 0.68647 0.61555 0.0
C1866 C 0.49715 0.19628 0.70088 0.0
C1867 C 0.48391 0.1904 0.73807 0.0
C1868 C 0.49721 0.19663 0.63003 0.0
C1869 C 0.47352 0.18054 0.48211 0.0
H1870 H 0.50306 0.21956 0.39295 0.0
C1871 C 0.47141 0.19429 0.19918 0.0
C1872 C 0.48446 0.19901 0.16186 0.0
C1873 C 0.47134 0.19373 0.27004 0.0
C1874 C 0.49481 0.20859 0.41732 0.0
H1875 H 0.4603 0.17929 0.73076 0.0
H1876 H 0.46044 0.18036 0.6071 0.0
H1877 H 0.50303 0.21656 0.51637 0.0
H1878 H 0.50775 0.20743 0.16895 0.0
H1879 H 0.50758 0.20649 0.29282 0.0
H1880 H 0.46523 0.17266 0.38287 0.0
C1881 C 0.47075 0.18464 0.63256 0.0
C1882 C 0.49483 0.20683 0.48769 0.0
C1883 C 0.47069 0.18422 0.70335 0.0
C1884 C 0.49752 0.2037 0.19646 0.0
C1885 C 0.49746 0.20325 0.26724 0.0
C1886 C 0.47345 0.18234 0.41176 0.0
C1887 C 0.48404 0.19113 0.59533 0.0
C1888 C 0.48421 0.19277 0.52066 0.0
C1889 C 0.48432 0.198 0.30444 0.0
C1890 C 0.48411 0.19636 0.37893 0.0
H1891 H 0.50751 0.201 0.72639 0.0
H1892 H 0.50758 0.20141 0.60241 0.0
H1893 H 0.46531 0.16951 0.50622 0.0
H1894 H 0.46119 0.19063 0.17375 0.0
H1895 H 0.46112 0.18981 0.29796 0.0
C1896 C 0.90202 0.38611 0.22603 0.0
C1897 C 0.89558 0.39347 0.18989 0.0
C1898 C 0.90259 0.38677 0.2968 0.0
C1899 C 0.88609 0.39354 0.44799 0.0
H1900 H 0.92414 0.40807 0.52688 0.0
C1901 C 0.89604 0.40996 0.72833 0.0
C1902 C 0.90361 0.40389 0.7643 0.0
C1903 C 0.8957 0.40948 0.65752 0.0
C1904 C 0.91343 0.40386 0.50564 0.0
H1905 H 0.88415 0.40667 0.1992 0.0
H1906 H 0.88507 0.40769 0.32283 0.0
H1907 H 0.9213 0.40407 0.40451 0.0
H1908 H 0.91773 0.39378 0.75462 0.0
H1909 H 0.91672 0.39243 0.63125 0.0
H1910 H 0.87813 0.39313 0.54894 0.0
C1911 C 0.88968 0.40146 0.29644 0.0
C1912 C 0.9118 0.40154 0.4358 0.0
C1913 C 0.88922 0.40093 0.22576 0.0
C1914 C 0.91148 0.39813 0.72823 0.0
C1915 C 0.91107 0.39757 0.65752 0.0
C1916 C 0.88768 0.39575 0.51786 0.0
C1917 C 0.8966 0.39464 0.33236 0.0
C1918 C 0.89813 0.39641 0.4065 0.0
C1919 C 0.90291 0.40292 0.62162 0.0
C1920 C 0.90137 0.40098 0.54731 0.0
H1921 H 0.907 0.38027 0.19963 0.0
H1922 H 0.90785 0.38128 0.32371 0.0
H1923 H 0.87541 0.38944 0.42645 0.0
H1924 H 0.88999 0.4146 0.75486 0.0
H1925 H 0.88958 0.414 0.63095 0.0
C1926 C 0.7089 0.19583 0.19906 0.0
C1927 C 0.71667 0.1899 0.16338 0.0
C1928 C 0.70867 0.19567 0.26973 0.0
C1929 C 0.71206 0.17487 0.41544 0.0
H1930 H 0.71948 0.21225 0.51379 0.0
C1931 C 0.71996 0.18005 0.70342 0.0
C1932 C 0.71349 0.18738 0.73931 0.0
C1933 C 0.71989 0.17998 0.63277 0.0
C1934 C 0.71719 0.20168 0.48687 0.0
H1935 H 0.7304 0.1793 0.17304 0.0
H1936 H 0.72993 0.179 0.29726 0.0
H1937 H 0.72081 0.21329 0.38966 0.0
H1938 H 0.70139 0.19987 0.7302 0.0
H1939 H 0.70104 0.19948 0.60627 0.0
H1940 H 0.70832 0.1632 0.51248 0.0
C1941 C 0.724 0.18369 0.2702 0.0
C1942 C 0.71801 0.2023 0.41617 0.0
C1943 C 0.72432 0.18394 0.1994 0.0
C1944 C 0.70655 0.19423 0.70363 0.0
C1945 C 0.70643 0.1941 0.63289 0.0
C1946 C 0.71116 0.17422 0.48615 0.0
C1947 C 0.71613 0.1895 0.30564 0.0
C1948 C 0.71548 0.18891 0.38014 0.0
C1949 C 0.71324 0.18712 0.59701 0.0
C1950 C 0.71375 0.18763 0.52232 0.0
H1951 H 0.70291 0.20052 0.1725 0.0
H1952 H 0.70243 0.20008 0.29633 0.0
H1953 H 0.70987 0.16435 0.38831 0.0
H1954 H 0.72512 0.1744 0.72975 0.0
H1955 H 0.72529 0.17461 0.60614 0.0
C1956 C 0.89586 0.63926 0.22351 0.0
C1957 C 0.90285 0.65364 0.18622 0.0
C1958 C 0.89627 0.6392 0.29422 0.0
C1959 C 0.9188 0.66232 0.43235 0.0
H1960 H 0.88426 0.63612 0.54567 0.0
C1961 C 0.91798 0.66621 0.7236 0.0
C1962 C 0.90953 0.6521 0.7614 0.0
C1963 C 0.9177 0.6662 0.65285 0.0
C1964 C 0.89403 0.6433 0.51457 0.0
H1965 H 0.91536 0.67922 0.19326 0.0
H1966 H 0.9161 0.67905 0.31738 0.0
H1967 H 0.88198 0.63684 0.42255 0.0
H1968 H 0.89488 0.62674 0.75522 0.0
H1969 H 0.89467 0.62668 0.6313 0.0
H1970 H 0.93091 0.66864 0.52408 0.0
C1971 C 0.9104 0.66789 0.29159 0.0
C1972 C 0.8927 0.64378 0.44436 0.0
C1973 C 0.9099 0.66797 0.22082 0.0
C1974 C 0.9014 0.63783 0.72729 0.0
C1975 C 0.90118 0.63781 0.65648 0.0
C1976 C 0.92016 0.66176 0.50254 0.0
C1977 C 0.90374 0.6535 0.32861 0.0
C1978 C 0.90506 0.65331 0.40286 0.0
C1979 C 0.90906 0.65205 0.61875 0.0
C1980 C 0.90778 0.65226 0.54424 0.0
H1981 H 0.89032 0.62804 0.19811 0.0
H1982 H 0.89114 0.62796 0.32187 0.0
H1983 H 0.92852 0.66956 0.40101 0.0
H1984 H 0.92466 0.6773 0.74857 0.0
H1985 H 0.92386 0.67736 0.62504 0.0
C1986 C 0.48058 0.38954 0.19102 0.0
C1987 C 0.49383 0.39668 0.15318 0.0
C1988 C 0.48072 0.39015 0.26189 0.0
C1989 C 0.50375 0.39644 0.4091 0.0
H1990 H 0.47986 0.41154 0.49486 0.0
C1991 C 0.50981 0.41292 0.6902 0.0
C1992 C 0.49662 0.40679 0.72796 0.0
C1993 C 0.50964 0.41251 0.61932 0.0
C1994 C 0.48649 0.40719 0.47166 0.0
H1995 H 0.51756 0.40944 0.15944 0.0
H1996 H 0.51774 0.4104 0.28296 0.0
H1997 H 0.47858 0.40747 0.37234 0.0
H1998 H 0.47308 0.3966 0.72173 0.0
H1999 H 0.47272 0.39545 0.59836 0.0
H2000 H 0.51159 0.396 0.50827 0.0
C2001 C 0.5073 0.40436 0.25797 0.0
C2002 C 0.48571 0.40481 0.40177 0.0
C2003 C 0.50717 0.40388 0.18732 0.0
C2004 C 0.48337 0.40103 0.69383 0.0
C2005 C 0.48318 0.40057 0.62315 0.0
C2006 C 0.50448 0.39873 0.47902 0.0
C2007 C 0.49409 0.39774 0.29572 0.0
C2008 C 0.49436 0.39946 0.37001 0.0
C2009 C 0.49628 0.40601 0.58531 0.0
C2010 C 0.49588 0.40416 0.5109 0.0
H2011 H 0.47014 0.38392 0.16591 0.0
H2012 H 0.47039 0.38483 0.29024 0.0
H2013 H 0.51044 0.39219 0.38564 0.0
H2014 H 0.52019 0.41754 0.71537 0.0
H2015 H 0.51992 0.41705 0.59117 0.0
C2016 C 0.3569 0.97305 0.31925 0.0
C2017 C 0.36435 0.96699 0.28201 0.0
C2018 C 0.35713 0.97299 0.38997 0.0
C2019 C 0.36211 0.95208 0.53255 0.0
H2020 H 0.36592 0.98736 0.6366 0.0
C2021 C 0.36892 0.95613 0.8222 0.0
C2022 C 0.36041 0.9611 0.8582 0.0
C2023 C 0.36939 0.95669 0.75144 0.0
C2024 C 0.36472 0.97739 0.60797 0.0
H2025 H 0.37844 0.95675 0.28908 0.0
H2026 H 0.379 0.95688 0.41274 0.0
H2027 H 0.36761 0.98948 0.51254 0.0
H2028 H 0.34547 0.9702 0.84891 0.0
H2029 H 0.34628 0.97109 0.72492 0.0
H2030 H 0.35924 0.94002 0.62804 0.0
C2031 C 0.37273 0.96136 0.38719 0.0
C2032 C 0.3657 0.97861 0.53729 0.0
C2033 C 0.37246 0.96137 0.31651 0.0
C2034 C 0.35216 0.96634 0.8224 0.0
C2035 C 0.35267 0.96694 0.75164 0.0
C2036 C 0.36117 0.95089 0.60321 0.0
C2037 C 0.36489 0.96695 0.42442 0.0
C2038 C 0.36435 0.96594 0.49911 0.0
C2039 C 0.3614 0.96227 0.71581 0.0
C2040 C 0.36241 0.96352 0.64129 0.0
H2041 H 0.35073 0.97765 0.29401 0.0
H2042 H 0.35091 0.97727 0.41769 0.0
H2043 H 0.36079 0.94205 0.50407 0.0
H2044 H 0.3754 0.95205 0.84858 0.0
H2045 H 0.37628 0.95314 0.72462 0.0
C2046 C 0.15216 0.53131 0.84461 0.0
C2047 C 0.13932 0.52798 0.88083 0.0
C2048 C 0.15261 0.53203 0.77378 0.0
C2049 C 0.12967 0.52084 0.62286 0.0
H2050 H 0.16363 0.5571 0.53862 0.0
C2051 C 0.13154 0.53673 0.34024 0.0
C2052 C 0.14432 0.53999 0.30364 0.0
C2053 C 0.13115 0.53591 0.41105 0.0
C2054 C 0.15415 0.54686 0.56146 0.0
H2055 H 0.11671 0.5222 0.87135 0.0
H2056 H 0.11753 0.52356 0.74739 0.0
H2057 H 0.16225 0.55325 0.66196 0.0
H2058 H 0.1669 0.54557 0.3123 0.0
H2059 H 0.16617 0.54405 0.43638 0.0
H2060 H 0.12156 0.51448 0.52235 0.0
C2061 C 0.12721 0.5255 0.7739 0.0
C2062 C 0.15338 0.54463 0.63189 0.0
C2063 C 0.12674 0.52475 0.84486 0.0
C2064 C 0.1569 0.54306 0.3392 0.0
C2065 C 0.1565 0.54222 0.41015 0.0
C2066 C 0.13044 0.52309 0.55244 0.0
C2067 C 0.14024 0.52946 0.73786 0.0
C2068 C 0.14113 0.5316 0.66317 0.0
C2069 C 0.14352 0.53832 0.44655 0.0
C2070 C 0.14268 0.53613 0.52118 0.0
H2071 H 0.162 0.53372 0.87092 0.0
H2072 H 0.16271 0.53482 0.74711 0.0
H2073 H 0.12019 0.51061 0.64569 0.0
H2074 H 0.12169 0.53443 0.31424 0.0
H2075 H 0.12109 0.53317 0.43804 0.0
C2076 C 0.60443 0.76391 0.80344 0.0
C2077 C 0.59134 0.75469 0.84103 0.0
C2078 C 0.60443 0.76369 0.73274 0.0
C2079 C 0.58381 0.73893 0.59238 0.0
H2080 H 0.60573 0.77768 0.48433 0.0
C2081 C 0.57931 0.74245 0.30259 0.0
C2082 C 0.59254 0.75137 0.26559 0.0
C2083 C 0.57918 0.7425 0.37333 0.0
C2084 C 0.5997 0.76678 0.51408 0.0
H2085 H 0.56794 0.73831 0.83466 0.0
H2086 H 0.56796 0.73812 0.71084 0.0
H2087 H 0.60522 0.77894 0.60815 0.0
H2088 H 0.61607 0.76672 0.27308 0.0
H2089 H 0.6158 0.76684 0.39694 0.0
H2090 H 0.57825 0.7268 0.49818 0.0
C2091 C 0.57822 0.74529 0.73619 0.0
C2092 C 0.59939 0.7675 0.58461 0.0
C2093 C 0.57821 0.74548 0.80689 0.0
C2094 C 0.60569 0.75999 0.30035 0.0
C2095 C 0.60555 0.76006 0.37105 0.0
C2096 C 0.58409 0.73822 0.52182 0.0
C2097 C 0.59135 0.75428 0.69871 0.0
C2098 C 0.59146 0.75358 0.6242 0.0
C2099 C 0.59228 0.75145 0.40789 0.0
C2100 C 0.59206 0.75214 0.48231 0.0
H2101 H 0.61472 0.7711 0.82853 0.0
H2102 H 0.61472 0.7706 0.70476 0.0
H2103 H 0.57781 0.72802 0.62206 0.0
H2104 H 0.56901 0.73569 0.27699 0.0
H2105 H 0.56881 0.73586 0.40094 0.0
C2106 C 0.38172 0.52132 0.85438 0.0
C2107 C 0.37208 0.52446 0.89189 0.0
C2108 C 0.38207 0.52218 0.7834 0.0
C2109 C 0.36137 0.52261 0.63478 0.0
H2110 H 0.3999 0.54674 0.54827 0.0
C2111 C 0.36876 0.54087 0.3515 0.0
C2112 C 0.37861 0.53795 0.31446 0.0
C2113 C 0.36833 0.54002 0.42251 0.0
C2114 C 0.38908 0.53988 0.5717 0.0
H2115 H 0.35471 0.53017 0.88455 0.0
H2116 H 0.35538 0.53169 0.76087 0.0
H2117 H 0.39775 0.54207 0.67121 0.0
H2118 H 0.39616 0.53255 0.32258 0.0
H2119 H 0.39532 0.531 0.44621 0.0
H2120 H 0.35271 0.52039 0.53526 0.0
C2121 C 0.36264 0.52854 0.78622 0.0
C2122 C 0.38785 0.53715 0.64192 0.0
C2123 C 0.36232 0.52774 0.85709 0.0
C2124 C 0.38842 0.53484 0.34969 0.0
C2125 C 0.388 0.53402 0.42055 0.0
C2126 C 0.36261 0.52533 0.56453 0.0
C2127 C 0.37273 0.52611 0.74878 0.0
C2128 C 0.37399 0.52847 0.67408 0.0
C2129 C 0.37775 0.53629 0.45759 0.0
C2130 C 0.37647 0.53399 0.53235 0.0
H2131 H 0.38934 0.51873 0.87969 0.0
H2132 H 0.38981 0.52001 0.7556 0.0
H2133 H 0.35056 0.51576 0.65826 0.0
H2134 H 0.36108 0.54332 0.32572 0.0
H2135 H 0.36047 0.54206 0.44995 0.0
C2136 C 0.57924 0.94887 0.80409 0.0
C2137 C 0.59222 0.95315 0.83869 0.0
C2138 C 0.57933 0.94931 0.73333 0.0
C2139 C 0.60365 0.96915 0.58823 0.0
H2140 H 0.5736 0.93493 0.4853 0.0
C2141 C 0.60672 0.96553 0.29776 0.0
C2142 C 0.59362 0.96003 0.26258 0.0
C2143 C 0.60654 0.96528 0.36854 0.0
C2144 C 0.58194 0.94466 0.51353 0.0
H2145 H 0.61536 0.96082 0.82689 0.0
H2146 H 0.61545 0.96156 0.70286 0.0
H2147 H 0.57328 0.93252 0.60909 0.0
H2148 H 0.57016 0.95069 0.27336 0.0
H2149 H 0.56991 0.95054 0.39722 0.0
H2150 H 0.61226 0.98135 0.49284 0.0
C2151 C 0.60529 0.95801 0.7307 0.0
C2152 C 0.58178 0.94324 0.58408 0.0
C2153 C 0.6052 0.95751 0.80147 0.0
C2154 C 0.58041 0.95488 0.29922 0.0
C2155 C 0.58024 0.95468 0.37 0.0
C2156 C 0.60378 0.9706 0.51769 0.0
C2157 C 0.59239 0.95409 0.69627 0.0
C2158 C 0.59265 0.95546 0.6218 0.0
C2159 C 0.59327 0.95963 0.40516 0.0
C2160 C 0.59293 0.95835 0.47983 0.0
H2161 H 0.56907 0.94545 0.83156 0.0
H2162 H 0.56927 0.94634 0.70763 0.0
H2163 H 0.61201 0.97882 0.61661 0.0
H2164 H 0.61708 0.96983 0.2708 0.0
H2165 H 0.61672 0.96909 0.39455 0.0
C2166 C 0.13341 0.72669 0.32361 0.0
C2167 C 0.14664 0.73542 0.28633 0.0
C2168 C 0.13324 0.72722 0.39436 0.0
C2169 C 0.15653 0.73728 0.54346 0.0
H2170 H 0.12679 0.74429 0.62719 0.0
C2171 C 0.15804 0.75226 0.82483 0.0
C2172 C 0.14478 0.74341 0.86179 0.0
C2173 C 0.15825 0.75199 0.75403 0.0
C2174 C 0.13508 0.74222 0.60447 0.0
H2175 H 0.17014 0.75108 0.29369 0.0
H2176 H 0.1698 0.75203 0.4174 0.0
H2177 H 0.12715 0.74135 0.50422 0.0
H2178 H 0.12128 0.72788 0.85385 0.0
H2179 H 0.12171 0.72732 0.73004 0.0
H2180 H 0.16444 0.73813 0.64369 0.0
C2181 C 0.1596 0.74473 0.39187 0.0
C2182 C 0.13526 0.74049 0.53432 0.0
C2183 C 0.15977 0.74421 0.32111 0.0
C2184 C 0.13167 0.73479 0.82668 0.0
C2185 C 0.1319 0.73452 0.75585 0.0
C2186 C 0.15635 0.73902 0.6136 0.0
C2187 C 0.1463 0.73646 0.42894 0.0
C2188 C 0.14597 0.73798 0.50329 0.0
C2189 C 0.14523 0.74287 0.71908 0.0
C2190 C 0.14562 0.7415 0.64465 0.0
H2191 H 0.12313 0.71973 0.29818 0.0
H2192 H 0.12288 0.72053 0.42199 0.0
H2193 H 0.1648 0.73519 0.52075 0.0
H2194 H 0.16831 0.75911 0.85052 0.0
H2195 H 0.16864 0.75874 0.72665 0.0
loop_
_geom_bond_atom_site_label_1
_geom_bond_atom_site_label_2
_geom_bond_distance
_geom_bond_site_symmetry_2
_ccdc_geom_bond_type
Zn0 O1 2.055 . S
Zn0 O8 2.046 . S
Zn0 N16 2.110 . S
Zn0 O28 2.053 . S
Zn0 O30 2.066 . S
O1 Zn0 2.055 . S
O1 C4 1.259 . S
C2 O30 1.256 . S
C2 O31 1.244 . S
Zn3 O5 2.046 . S
Zn3 O7 2.055 . S
Zn3 N9 2.036 . S
Zn3 O27 2.066 . S
Zn3 O31 2.053 . S
C4 O1 1.259 . S
C4 O5 1.254 . S
O5 Zn3 2.046 . S
O5 C4 1.254 . S
C6 O27 1.256 . S
C6 O28 1.244 . S
O7 Zn3 2.055 . S
O7 C29 1.259 . S
O8 Zn0 2.046 . S
O8 C29 1.254 . S
N9 Zn3 2.036 . S
N9 C10 1.298 . S
N9 N12 1.398 . S
C10 N9 1.298 . S
C10 N13 1.367 . S
C10 C23 1.481 . S
C11 N12 1.299 . S
C11 N13 1.379 . S
N12 N9 1.398 . S
N12 C11 1.299 . S
N13 C10 1.367 . S
N13 C11 1.379 . S
C14 N16 1.241 1_655 S
C14 N18 1.367 . S
C14 C22 1.481 . S
C15 N17 1.299 1_655 S
C15 N18 1.379 . S
N16 Zn0 2.110 . S
N16 C14 1.241 1_455 S
N16 N17 1.381 . S
N17 C15 1.299 1_455 S
N17 N16 1.381 . S
N18 C14 1.367 . S
N18 C15 1.379 . S
H19 C22 0.980 . S
H20 C22 0.981 . S
H21 C22 0.981 . S
C22 C14 1.481 . S
C22 H19 0.980 . S
C22 H20 0.981 . S
C22 H21 0.981 . S
C23 C10 1.481 . S
C23 H24 0.980 . S
C23 H25 0.981 . S
C23 H26 0.981 . S
H24 C23 0.980 . S
H25 C23 0.981 . S
H26 C23 0.981 . S
O27 Zn3 2.066 . S
O27 C6 1.256 . S
O28 Zn0 2.053 . S
O28 C6 1.244 . S
C29 O7 1.259 . S
C29 O8 1.254 . S
O30 Zn0 2.066 . S
O30 C2 1.256 . S
O31 C2 1.244 . S
O31 Zn3 2.053 . S
Zn32 O33 2.055 . S
Zn32 O40 2.046 . S
Zn32 N48 2.036 . S
Zn32 O60 2.053 . S
Zn32 O62 2.066 . S
O33 Zn32 2.055 . S
O33 C36 1.259 . S
C34 O62 1.256 . S
C34 O63 1.244 . S
Zn35 O37 2.046 . S
Zn35 O39 2.055 . S
Zn35 N41 2.036 . S
Zn35 O59 2.066 . S
Zn35 O63 2.053 . S
C36 O33 1.259 . S
C36 O37 1.254 . S
O37 Zn35 2.046 . S
O37 C36 1.254 . S
C38 O59 1.256 . S
C38 O60 1.244 . S
O39 Zn35 2.055 . S
O39 C61 1.259 . S
O40 Zn32 2.046 . S
O40 C61 1.254 . S
N41 Zn35 2.036 . S
N41 C42 1.298 . S
N41 N44 1.398 . S
C42 N41 1.298 . S
C42 N45 1.367 . S
C42 C55 1.481 . S
C43 N44 1.299 . S
C43 N45 1.379 . S
N44 N41 1.398 . S
N44 C43 1.299 . S
N45 C42 1.367 . S
N45 C43 1.379 . S
C46 N48 1.298 . S
C46 N50 1.367 . S
C46 C54 1.481 . S
C47 N49 1.299 . S
C47 N50 1.379 . S
N48 Zn32 2.036 . S
N48 C46 1.298 . S
N48 N49 1.398 . S
N49 C47 1.299 . S
N49 N48 1.398 . S
N50 C46 1.367 . S
N50 C47 1.379 . S
H51 C54 0.980 . S
H52 C54 0.981 . S
H53 C54 0.981 . S
C54 C46 1.481 . S
C54 H51 0.980 . S
C54 H52 0.981 . S
C54 H53 0.981 . S
C55 C42 1.481 . S
C55 H56 0.980 . S
C55 H57 0.981 . S
C55 H58 0.981 . S
H56 C55 0.980 . S
H57 C55 0.981 . S
H58 C55 0.981 . S
O59 Zn35 2.066 . S
O59 C38 1.256 . S
O60 Zn32 2.053 . S
O60 C38 1.244 . S
C61 O39 1.259 . S
C61 O40 1.254 . S
O62 Zn32 2.066 . S
O62 C34 1.256 . S
O63 C34 1.244 . S
O63 Zn35 2.053 . S
Zn64 O65 2.055 . S
Zn64 O72 2.046 . S
Zn64 N80 2.036 . S
Zn64 O92 2.053 . S
Zn64 O94 2.066 . S
O65 Zn64 2.055 . S
O65 C68 1.259 . S
C66 O94 1.256 . S
C66 O95 1.244 . S
Zn67 O69 2.046 . S
Zn67 O71 2.055 . S
Zn67 N73 2.036 . S
Zn67 O91 2.066 . S
Zn67 O95 2.053 . S
C68 O65 1.259 . S
C68 O69 1.254 . S
O69 Zn67 2.046 . S
O69 C68 1.254 . S
C70 O91 1.256 . S
C70 O92 1.244 . S
O71 Zn67 2.055 . S
O71 C93 1.259 . S
O72 Zn64 2.046 . S
O72 C93 1.254 . S
N73 Zn67 2.036 . S
N73 C74 1.298 . S
N73 N76 1.398 . S
C74 N73 1.298 . S
C74 N77 1.367 . S
C74 C87 1.481 . S
C75 N76 1.299 . S
C75 N77 1.379 . S
N76 N73 1.398 . S
N76 C75 1.299 . S
N77 C74 1.367 . S
N77 C75 1.379 . S
C78 N80 1.298 . S
C78 N82 1.367 . S
C78 C86 1.481 . S
C79 N81 1.299 . S
C79 N82 1.379 . S
N80 Zn64 2.036 . S
N80 C78 1.298 . S
N80 N81 1.398 . S
N81 C79 1.299 . S
N81 N80 1.398 . S
N82 C78 1.367 . S
N82 C79 1.379 . S
H83 C86 0.980 . S
H84 C86 0.981 . S
H85 C86 0.981 . S
C86 C78 1.481 . S
C86 H83 0.980 . S
C86 H84 0.981 . S
C86 H85 0.981 . S
C87 C74 1.481 . S
C87 H88 0.980 . S
C87 H89 0.981 . S
C87 H90 0.981 . S
H88 C87 0.980 . S
H89 C87 0.981 . S
H90 C87 0.981 . S
O91 Zn67 2.066 . S
O91 C70 1.256 . S
O92 Zn64 2.053 . S
O92 C70 1.244 . S
C93 O71 1.259 . S
C93 O72 1.254 . S
O94 Zn64 2.066 . S
O94 C66 1.256 . S
O95 C66 1.244 . S
O95 Zn67 2.053 . S
Zn96 O97 2.055 . S
Zn96 O104 2.046 . S
Zn96 N112 2.036 . S
Zn96 O124 2.053 . S
Zn96 O126 2.066 . S
O97 Zn96 2.055 . S
O97 C100 1.259 . S
C98 O126 1.256 . S
C98 O127 1.244 . S
Zn99 O101 2.046 . S
Zn99 O103 2.055 . S
Zn99 N105 2.036 . S
Zn99 O123 2.066 . S
Zn99 O127 2.053 . S
C100 O97 1.259 . S
C100 O101 1.254 . S
O101 Zn99 2.046 . S
O101 C100 1.254 . S
C102 O123 1.256 . S
C102 O124 1.244 . S
O103 Zn99 2.055 . S
O103 C125 1.259 . S
O104 Zn96 2.046 . S
O104 C125 1.254 . S
N105 Zn99 2.036 . S
N105 C106 1.298 . S
N105 N108 1.398 . S
C106 N105 1.298 . S
C106 N109 1.367 . S
C106 C119 1.481 . S
C107 N108 1.299 . S
C107 N109 1.379 . S
N108 N105 1.398 . S
N108 C107 1.299 . S
N109 C106 1.367 . S
N109 C107 1.379 . S
C110 N112 1.298 . S
C110 N114 1.367 . S
C110 C118 1.481 . S
C111 N113 1.299 . S
C111 N114 1.379 . S
N112 Zn96 2.036 . S
N112 C110 1.298 . S
N112 N113 1.398 . S
N113 C111 1.299 . S
N113 N112 1.398 . S
N114 C110 1.367 . S
N114 C111 1.379 . S
H115 C118 0.980 . S
H116 C118 0.981 . S
H117 C118 0.981 . S
C118 C110 1.481 . S
C118 H115 0.980 . S
C118 H116 0.981 . S
C118 H117 0.981 . S
C119 C106 1.481 . S
C119 H120 0.980 . S
C119 H121 0.981 . S
C119 H122 0.981 . S
H120 C119 0.980 . S
H121 C119 0.981 . S
H122 C119 0.981 . S
O123 Zn99 2.066 . S
O123 C102 1.256 . S
O124 Zn96 2.053 . S
O124 C102 1.244 . S
C125 O103 1.259 . S
C125 O104 1.254 . S
O126 Zn96 2.066 . S
O126 C98 1.256 . S
O127 C98 1.244 . S
O127 Zn99 2.053 . S
Zn128 O129 2.055 . S
Zn128 O136 2.046 . S
Zn128 N144 2.036 . S
Zn128 O156 2.053 . S
Zn128 O158 2.066 . S
O129 Zn128 2.055 . S
O129 C132 1.259 . S
C130 O158 1.256 . S
C130 O159 1.244 . S
Zn131 O133 2.046 . S
Zn131 O135 2.055 . S
Zn131 N137 2.036 . S
Zn131 O155 2.066 . S
Zn131 O159 2.053 . S
C132 O129 1.259 . S
C132 O133 1.254 . S
O133 Zn131 2.046 . S
O133 C132 1.254 . S
C134 O155 1.256 . S
C134 O156 1.244 . S
O135 Zn131 2.055 . S
O135 C157 1.259 . S
O136 Zn128 2.046 . S
O136 C157 1.254 . S
N137 Zn131 2.036 . S
N137 C138 1.298 . S
N137 N140 1.398 . S
C138 N137 1.298 . S
C138 N141 1.367 . S
C138 C151 1.481 . S
C139 N140 1.299 . S
C139 N141 1.379 . S
N140 N137 1.398 . S
N140 C139 1.299 . S
N141 C138 1.367 . S
N141 C139 1.379 . S
C142 N144 1.298 . S
C142 N146 1.367 . S
C142 C150 1.481 . S
C143 N145 1.299 . S
C143 N146 1.379 . S
N144 Zn128 2.036 . S
N144 C142 1.298 . S
N144 N145 1.398 . S
N145 C143 1.299 . S
N145 N144 1.398 . S
N146 C142 1.367 . S
N146 C143 1.379 . S
H147 C150 0.980 . S
H148 C150 0.981 . S
H149 C150 0.981 . S
C150 C142 1.481 . S
C150 H147 0.980 . S
C150 H148 0.981 . S
C150 H149 0.981 . S
C151 C138 1.481 . S
C151 H152 0.980 . S
C151 H153 0.981 . S
C151 H154 0.981 . S
H152 C151 0.980 . S
H153 C151 0.981 . S
H154 C151 0.981 . S
O155 Zn131 2.066 . S
O155 C134 1.256 . S
O156 Zn128 2.053 . S
O156 C134 1.244 . S
C157 O135 1.259 . S
C157 O136 1.254 . S
O158 Zn128 2.066 . S
O158 C130 1.256 . S
O159 C130 1.244 . S
O159 Zn131 2.053 . S
Zn160 O161 2.055 . S
Zn160 O168 2.046 . S
Zn160 N176 2.036 . S
Zn160 O188 2.053 . S
Zn160 O190 2.066 . S
O161 Zn160 2.055 . S
O161 C164 1.259 . S
C162 O190 1.256 . S
C162 O191 1.244 . S
Zn163 O165 2.046 . S
Zn163 O167 2.055 . S
Zn163 N169 2.036 . S
Zn163 O187 2.066 . S
Zn163 O191 2.053 . S
C164 O161 1.259 . S
C164 O165 1.254 . S
O165 Zn163 2.046 . S
O165 C164 1.254 . S
C166 O187 1.256 . S
C166 O188 1.244 . S
O167 Zn163 2.055 . S
O167 C189 1.259 . S
O168 Zn160 2.046 . S
O168 C189 1.254 . S
N169 Zn163 2.036 . S
N169 C170 1.298 . S
N169 N172 1.398 . S
C170 N169 1.298 . S
C170 N173 1.367 . S
C170 C183 1.481 . S
C171 N172 1.299 . S
C171 N173 1.379 . S
N172 N169 1.398 . S
N172 C171 1.299 . S
N173 C170 1.367 . S
N173 C171 1.379 . S
C174 N176 1.298 . S
C174 N178 1.367 . S
C174 C182 1.481 . S
C175 N177 1.299 . S
C175 N178 1.379 . S
N176 Zn160 2.036 . S
N176 C174 1.298 . S
N176 N177 1.398 . S
N177 C175 1.299 . S
N177 N176 1.398 . S
N178 C174 1.367 . S
N178 C175 1.379 . S
H179 C182 0.980 . S
H180 C182 0.981 . S
H181 C182 0.981 . S
C182 C174 1.481 . S
C182 H179 0.980 . S
C182 H180 0.981 . S
C182 H181 0.981 . S
C183 C170 1.481 . S
C183 H184 0.980 . S
C183 H185 0.981 . S
C183 H186 0.981 . S
H184 C183 0.980 . S
H185 C183 0.981 . S
H186 C183 0.981 . S
O187 Zn163 2.066 . S
O187 C166 1.256 . S
O188 Zn160 2.053 . S
O188 C166 1.244 . S
C189 O167 1.259 . S
C189 O168 1.254 . S
O190 Zn160 2.066 . S
O190 C162 1.256 . S
O191 C162 1.244 . S
O191 Zn163 2.053 . S
Zn192 O193 2.055 . S
Zn192 O200 2.046 . S
Zn192 N208 2.036 . S
Zn192 O220 2.053 . S
Zn192 O222 2.066 . S
O193 Zn192 2.055 . S
O193 C196 1.259 1_556 S
C194 O222 1.256 . S
C194 O223 1.244 . S
Zn195 O197 2.046 . S
Zn195 O199 2.055 . S
Zn195 N201 2.036 . S
Zn195 O219 2.066 . S
Zn195 O223 2.053 . S
C196 O193 1.259 1_554 S
C196 O197 1.254 1_554 S
O197 Zn195 2.046 . S
O197 C196 1.254 1_556 S
C198 O219 1.256 . S
C198 O220 1.244 . S
O199 Zn195 2.055 . S
O199 C221 1.259 . S
O200 Zn192 2.046 . S
O200 C221 1.254 . S
N201 Zn195 2.036 . S
N201 C202 1.298 . S
N201 N204 1.398 . S
C202 N201 1.298 . S
C202 N205 1.367 . S
C202 C215 1.481 . S
C203 N204 1.299 . S
C203 N205 1.379 . S
N204 N201 1.398 . S
N204 C203 1.299 . S
N205 C202 1.367 . S
N205 C203 1.379 . S
C206 N208 1.298 . S
C206 N210 1.367 . S
C206 C214 1.481 1_556 S
C207 N209 1.299 . S
C207 N210 1.379 . S
N208 Zn192 2.036 . S
N208 C206 1.298 . S
N208 N209 1.398 . S
N209 C207 1.299 . S
N209 N208 1.398 . S
N210 C206 1.367 . S
N210 C207 1.379 . S
H211 C214 0.980 . S
H212 C214 0.981 . S
H213 C214 0.981 . S
C214 C206 1.481 1_554 S
C214 H211 0.980 . S
C214 H212 0.981 . S
C214 H213 0.981 . S
C215 C202 1.481 . S
C215 H216 0.980 . S
C215 H217 0.981 . S
C215 H218 0.981 . S
H216 C215 0.980 . S
H217 C215 0.981 . S
H218 C215 0.981 . S
O219 Zn195 2.066 . S
O219 C198 1.256 . S
O220 Zn192 2.053 . S
O220 C198 1.244 . S
C221 O199 1.259 . S
C221 O200 1.254 . S
O222 Zn192 2.066 . S
O222 C194 1.256 . S
O223 C194 1.244 . S
O223 Zn195 2.053 . S
Zn224 O225 2.055 . S
Zn224 O232 2.046 . S
Zn224 N240 2.036 . S
Zn224 O252 2.053 . S
Zn224 O254 2.066 . S
O225 Zn224 2.055 . S
O225 C228 1.259 . S
C226 O254 1.256 . S
C226 O255 1.244 . S
Zn227 O229 2.046 . S
Zn227 O231 2.055 . S
Zn227 N233 2.036 . S
Zn227 O251 2.066 . S
Zn227 O255 2.053 . S
C228 O225 1.259 . S
C228 O229 1.254 . S
O229 Zn227 2.046 . S
O229 C228 1.254 . S
C230 O251 1.256 . S
C230 O252 1.244 . S
O231 Zn227 2.055 . S
O231 C253 1.259 . S
O232 Zn224 2.046 . S
O232 C253 1.254 . S
N233 Zn227 2.036 . S
N233 C234 1.298 . S
N233 N236 1.398 . S
C234 N233 1.298 . S
C234 N237 1.367 . S
C234 C247 1.481 . S
C235 N236 1.299 . S
C235 N237 1.379 . S
N236 N233 1.398 . S
N236 C235 1.299 . S
N237 C234 1.367 . S
N237 C235 1.379 . S
C238 N240 1.298 . S
C238 N242 1.367 . S
C238 C246 1.481 . S
C239 N241 1.299 . S
C239 N242 1.379 . S
N240 Zn224 2.036 . S
N240 C238 1.298 . S
N240 N241 1.398 . S
N241 C239 1.299 . S
N241 N240 1.398 . S
N242 C238 1.367 . S
N242 C239 1.379 . S
H243 C246 0.980 . S
H244 C246 0.981 . S
H245 C246 0.981 . S
C246 C238 1.481 . S
C246 H243 0.980 . S
C246 H244 0.981 . S
C246 H245 0.981 . S
C247 C234 1.481 . S
C247 H248 0.980 . S
C247 H249 0.981 1_556 S
C247 H250 0.981 . S
H248 C247 0.980 . S
H249 C247 0.981 1_554 S
H250 C247 0.981 . S
O251 Zn227 2.066 . S
O251 C230 1.256 . S
O252 Zn224 2.053 . S
O252 C230 1.244 . S
C253 O231 1.259 . S
C253 O232 1.254 . S
O254 Zn224 2.066 . S
O254 C226 1.256 . S
O255 C226 1.244 . S
O255 Zn227 2.053 . S
Zn256 O257 2.055 . S
Zn256 O264 2.046 . S
Zn256 N272 2.036 . S
Zn256 O284 2.053 . S
Zn256 O286 2.066 . S
O257 Zn256 2.055 . S
O257 C260 1.259 . S
C258 O286 1.256 . S
C258 O287 1.244 . S
Zn259 O261 2.046 . S
Zn259 O263 2.055 . S
Zn259 N265 2.036 . S
Zn259 O283 2.066 . S
Zn259 O287 2.053 . S
C260 O257 1.259 . S
C260 O261 1.254 . S
O261 Zn259 2.046 . S
O261 C260 1.254 . S
C262 O283 1.256 . S
C262 O284 1.244 . S
O263 Zn259 2.055 . S
O263 C285 1.259 1_556 S
O264 Zn256 2.046 . S
O264 C285 1.254 1_556 S
N265 Zn259 2.036 . S
N265 C266 1.298 . S
N265 N268 1.398 . S
C266 N265 1.298 . S
C266 N269 1.367 . S
C266 C279 1.481 1_556 S
C267 N268 1.299 . S
C267 N269 1.379 . S
N268 N265 1.398 . S
N268 C267 1.299 . S
N269 C266 1.367 . S
N269 C267 1.379 . S
C270 N272 1.298 . S
C270 N274 1.367 . S
C270 C278 1.481 . S
C271 N273 1.299 . S
C271 N274 1.379 . S
N272 Zn256 2.036 . S
N272 C270 1.298 . S
N272 N273 1.398 . S
N273 C271 1.299 . S
N273 N272 1.398 . S
N274 C270 1.367 . S
N274 C271 1.379 . S
H275 C278 0.980 . S
H276 C278 0.981 . S
H277 C278 0.981 . S
C278 C270 1.481 . S
C278 H275 0.980 . S
C278 H276 0.981 . S
C278 H277 0.981 . S
C279 C266 1.481 1_554 S
C279 H280 0.980 . S
C279 H281 0.981 . S
C279 H282 0.981 . S
H280 C279 0.980 . S
H281 C279 0.981 . S
H282 C279 0.981 . S
O283 Zn259 2.066 . S
O283 C262 1.256 . S
O284 Zn256 2.053 . S
O284 C262 1.244 . S
C285 O263 1.259 1_554 S
C285 O264 1.254 1_554 S
O286 Zn256 2.066 . S
O286 C258 1.256 . S
O287 C258 1.244 . S
O287 Zn259 2.053 . S
Zn288 O289 2.055 . S
Zn288 O296 2.046 . S
Zn288 N304 2.036 . S
Zn288 O316 2.053 . S
Zn288 O318 2.066 . S
O289 Zn288 2.055 . S
O289 C292 1.263 . S
C290 O318 1.256 . S
C290 O319 1.244 . S
Zn291 O293 2.046 . S
Zn291 O295 2.055 . S
Zn291 N297 2.036 . S
Zn291 O315 2.066 . S
Zn291 O319 2.053 . S
C292 O289 1.263 . S
C292 O293 1.259 . S
O293 Zn291 2.046 . S
O293 C292 1.259 . S
C294 O315 1.256 . S
C294 O316 1.244 . S
O295 Zn291 2.055 . S
O295 C317 1.259 . S
O296 Zn288 2.046 . S
O296 C317 1.254 . S
N297 Zn291 2.036 . S
N297 C298 1.298 . S
N297 N300 1.398 . S
C298 N297 1.298 . S
C298 N301 1.367 . S
C298 C311 1.481 . S
C299 N300 1.299 . S
C299 N301 1.379 . S
N300 N297 1.398 . S
N300 C299 1.299 . S
N301 C298 1.367 . S
N301 C299 1.379 . S
C302 N304 1.298 . S
C302 N306 1.367 . S
C302 C310 1.481 . S
C303 N305 1.299 . S
C303 N306 1.379 . S
N304 Zn288 2.036 . S
N304 C302 1.298 . S
N304 N305 1.398 . S
N305 C303 1.299 . S
N305 N304 1.398 . S
N306 C302 1.367 . S
N306 C303 1.379 . S
H307 C310 0.980 . S
H308 C310 0.981 1_554 S
H309 C310 0.981 . S
C310 C302 1.481 . S
C310 H307 0.980 . S
C310 H308 0.981 1_556 S
C310 H309 0.981 . S
C311 C298 1.481 . S
C311 H312 0.980 . S
C311 H313 0.981 . S
C311 H314 0.981 . S
H312 C311 0.980 . S
H313 C311 0.981 . S
H314 C311 0.981 . S
O315 Zn291 2.066 . S
O315 C294 1.256 . S
O316 Zn288 2.053 . S
O316 C294 1.244 . S
C317 O295 1.259 . S
C317 O296 1.254 . S
O318 Zn288 2.066 . S
O318 C290 1.256 . S
O319 C290 1.244 . S
O319 Zn291 2.053 . S
Zn320 O321 2.054 1_556 S
Zn320 O328 2.046 . S
Zn320 N336 2.036 . S
Zn320 O348 2.053 . S
Zn320 O350 2.066 . S
O321 Zn320 2.054 1_554 S
O321 C324 1.260 . S
C322 O350 1.256 . S
C322 O351 1.244 . S
Zn323 O325 2.046 . S
Zn323 O327 2.055 . S
Zn323 N329 2.036 . S
Zn323 O347 2.066 . S
Zn323 O351 2.053 . S
C324 O321 1.260 . S
C324 O325 1.254 1_554 S
O325 Zn323 2.046 . S
O325 C324 1.254 1_556 S
C326 O347 1.256 . S
C326 O348 1.244 . S
O327 Zn323 2.055 . S
O327 C349 1.259 . S
O328 Zn320 2.046 . S
O328 C349 1.254 . S
N329 Zn323 2.036 . S
N329 C330 1.298 . S
N329 N332 1.398 . S
C330 N329 1.298 . S
C330 N333 1.367 . S
C330 C343 1.481 . S
C331 N332 1.299 . S
C331 N333 1.379 . S
N332 N329 1.398 . S
N332 C331 1.299 . S
N333 C330 1.367 . S
N333 C331 1.379 . S
C334 N336 1.298 . S
C334 N338 1.367 . S
C334 C342 1.481 1_556 S
C335 N337 1.299 . S
C335 N338 1.379 . S
N336 Zn320 2.036 . S
N336 C334 1.298 . S
N336 N337 1.398 . S
N337 C335 1.299 . S
N337 N336 1.398 . S
N338 C334 1.367 . S
N338 C335 1.379 . S
H339 C342 0.980 . S
H340 C342 0.981 . S
H341 C342 0.981 . S
C342 C334 1.481 1_554 S
C342 H339 0.980 . S
C342 H340 0.981 . S
C342 H341 0.981 . S
C343 C330 1.481 . S
C343 H344 0.980 . S
C343 H345 0.981 . S
C343 H346 0.981 . S
H344 C343 0.980 . S
H345 C343 0.981 . S
H346 C343 0.981 . S
O347 Zn323 2.066 . S
O347 C326 1.256 . S
O348 Zn320 2.053 . S
O348 C326 1.244 . S
C349 O327 1.259 . S
C349 O328 1.254 . S
O350 Zn320 2.066 . S
O350 C322 1.256 . S
O351 C322 1.244 . S
O351 Zn323 2.053 . S
Zn352 O353 2.055 . S
Zn352 O360 2.046 . S
Zn352 N368 2.036 . S
Zn352 O380 2.053 . S
Zn352 O382 2.066 . S
O353 Zn352 2.055 . S
O353 C356 1.259 . S
C354 O382 1.256 . S
C354 O383 1.244 . S
Zn355 O357 2.046 . S
Zn355 O359 2.055 . S
Zn355 N361 2.036 . S
Zn355 O379 2.066 . S
Zn355 O383 2.053 . S
C356 O353 1.259 . S
C356 O357 1.254 . S
O357 Zn355 2.046 . S
O357 C356 1.254 . S
C358 O379 1.256 . S
C358 O380 1.244 . S
O359 Zn355 2.055 . S
O359 C381 1.259 . S
O360 Zn352 2.046 . S
O360 C381 1.254 . S
N361 Zn355 2.036 . S
N361 C362 1.298 . S
N361 N364 1.398 . S
C362 N361 1.298 . S
C362 N365 1.367 . S
C362 C375 1.481 . S
C363 N364 1.299 . S
C363 N365 1.379 . S
N364 N361 1.398 . S
N364 C363 1.299 . S
N365 C362 1.367 . S
N365 C363 1.379 . S
C366 N368 1.298 . S
C366 N370 1.367 . S
C366 C374 1.481 . S
C367 N369 1.299 . S
C367 N370 1.379 . S
N368 Zn352 2.036 . S
N368 C366 1.298 . S
N368 N369 1.398 . S
N369 C367 1.299 . S
N369 N368 1.398 . S
N370 C366 1.367 . S
N370 C367 1.379 . S
H371 C374 0.980 . S
H372 C374 0.981 1_554 S
H373 C374 0.981 . S
C374 C366 1.481 . S
C374 H371 0.980 . S
C374 H372 0.981 1_556 S
C374 H373 0.981 . S
C375 C362 1.481 . S
C375 H376 0.980 . S
C375 H377 0.981 . S
C375 H378 0.981 . S
H376 C375 0.980 . S
H377 C375 0.981 . S
H378 C375 0.981 . S
O379 Zn355 2.066 . S
O379 C358 1.256 . S
O380 Zn352 2.053 . S
O380 C358 1.244 . S
C381 O359 1.259 . S
C381 O360 1.254 . S
O382 Zn352 2.066 . S
O382 C354 1.256 . S
O383 C354 1.244 . S
O383 Zn355 2.053 . S
Zn384 O385 2.055 . S
Zn384 O392 2.046 . S
Zn384 N400 2.036 . S
Zn384 O412 2.053 . S
Zn384 O414 2.066 . S
O385 Zn384 2.055 . S
O385 C388 1.259 . S
C386 O414 1.256 . S
C386 O415 1.244 . S
Zn387 O389 2.046 . S
Zn387 O391 2.055 . S
Zn387 N393 2.036 . S
Zn387 O411 2.066 . S
Zn387 O415 2.053 . S
C388 O385 1.259 . S
C388 O389 1.254 . S
O389 Zn387 2.046 . S
O389 C388 1.254 . S
C390 O411 1.256 . S
C390 O412 1.244 . S
O391 Zn387 2.055 . S
O391 C413 1.259 1_554 S
O392 Zn384 2.046 . S
O392 C413 1.254 1_554 S
N393 Zn387 2.036 . S
N393 C394 1.298 . S
N393 N396 1.398 . S
C394 N393 1.298 . S
C394 N397 1.367 . S
C394 C407 1.481 . S
C395 N396 1.299 . S
C395 N397 1.379 . S
N396 N393 1.398 . S
N396 C395 1.299 . S
N397 C394 1.367 . S
N397 C395 1.379 . S
C398 N400 1.298 . S
C398 N402 1.367 . S
C398 C406 1.481 . S
C399 N401 1.299 1_545 S
C399 N402 1.379 1_545 S
N400 Zn384 2.036 . S
N400 C398 1.298 . S
N400 N401 1.398 . S
N401 C399 1.299 1_565 S
N401 N400 1.398 . S
N402 C398 1.367 . S
N402 C399 1.379 1_565 S
H403 C406 0.980 . S
H404 C406 0.981 . S
H405 C406 0.981 . S
C406 C398 1.481 . S
C406 H403 0.980 . S
C406 H404 0.981 . S
C406 H405 0.981 . S
C407 C394 1.481 . S
C407 H408 0.980 1_554 S
C407 H409 0.981 1_554 S
C407 H410 0.981 . S
H408 C407 0.980 1_556 S
H409 C407 0.981 1_556 S
H410 C407 0.981 . S
O411 Zn387 2.066 . S
O411 C390 1.256 . S
O412 Zn384 2.053 . S
O412 C390 1.244 . S
C413 O391 1.259 1_556 S
C413 O392 1.254 1_556 S
O414 Zn384 2.066 . S
O414 C386 1.256 . S
O415 C386 1.244 . S
O415 Zn387 2.053 . S
Zn416 O417 2.055 . S
Zn416 O424 2.046 . S
Zn416 N432 2.036 . S
Zn416 O444 2.053 . S
Zn416 O446 2.066 . S
O417 Zn416 2.055 . S
O417 C420 1.259 . S
C418 O446 1.256 . S
C418 O447 1.244 . S
Zn419 O421 2.046 . S
Zn419 O423 2.055 . S
Zn419 N425 2.036 . S
Zn419 O443 2.066 . S
Zn419 O447 2.053 . S
C420 O417 1.259 . S
C420 O421 1.254 . S
O421 Zn419 2.046 . S
O421 C420 1.254 . S
C422 O443 1.256 . S
C422 O444 1.244 . S
O423 Zn419 2.055 . S
O423 C445 1.259 . S
O424 Zn416 2.046 . S
O424 C445 1.254 . S
N425 Zn419 2.036 . S
N425 C426 1.298 . S
N425 N428 1.398 . S
C426 N425 1.298 . S
C426 N429 1.367 . S
C426 C439 1.481 . S
C427 N428 1.299 . S
C427 N429 1.379 . S
N428 N425 1.398 . S
N428 C427 1.299 . S
N429 C426 1.367 . S
N429 C427 1.379 . S
C430 N432 1.298 . S
C430 N434 1.367 . S
C430 C438 1.481 . S
C431 N433 1.299 . S
C431 N434 1.379 . S
N432 Zn416 2.036 . S
N432 C430 1.298 . S
N432 N433 1.398 . S
N433 C431 1.299 . S
N433 N432 1.398 . S
N434 C430 1.367 . S
N434 C431 1.379 . S
H435 C438 0.980 . S
H436 C438 0.981 . S
H437 C438 0.981 . S
C438 C430 1.481 . S
C438 H435 0.980 . S
C438 H436 0.981 . S
C438 H437 0.981 . S
C439 C426 1.481 . S
C439 H440 0.980 . S
C439 H441 0.981 . S
C439 H442 0.981 . S
H440 C439 0.980 . S
H441 C439 0.981 . S
H442 C439 0.981 . S
O443 Zn419 2.066 . S
O443 C422 1.256 . S
O444 Zn416 2.053 . S
O444 C422 1.244 . S
C445 O423 1.259 . S
C445 O424 1.254 . S
O446 Zn416 2.066 . S
O446 C418 1.256 . S
O447 C418 1.244 . S
O447 Zn419 2.053 . S
Zn448 O449 2.055 . S
Zn448 O456 2.046 . S
Zn448 N464 2.036 . S
Zn448 O476 2.053 . S
Zn448 O478 2.066 . S
O449 Zn448 2.055 . S
O449 C452 1.259 1_554 S
C450 O478 1.256 . S
C450 O479 1.244 . S
Zn451 O453 2.046 . S
Zn451 O455 2.055 . S
Zn451 N457 2.036 . S
Zn451 O475 2.066 . S
Zn451 O479 2.053 . S
C452 O449 1.259 1_556 S
C452 O453 1.254 1_556 S
O453 Zn451 2.046 . S
O453 C452 1.254 1_554 S
C454 O475 1.256 . S
C454 O476 1.244 . S
O455 Zn451 2.055 . S
O455 C477 1.259 . S
O456 Zn448 2.046 . S
O456 C477 1.254 . S
N457 Zn451 2.036 . S
N457 C458 1.298 . S
N457 N460 1.398 . S
C458 N457 1.298 . S
C458 N461 1.367 . S
C458 C471 1.481 . S
C459 N460 1.299 . S
C459 N461 1.379 . S
N460 N457 1.398 . S
N460 C459 1.299 . S
N461 C458 1.367 . S
N461 C459 1.379 . S
C462 N464 1.298 . S
C462 N466 1.367 . S
C462 C470 1.481 . S
C463 N465 1.299 . S
C463 N466 1.379 . S
N464 Zn448 2.036 . S
N464 C462 1.298 . S
N464 N465 1.398 . S
N465 C463 1.299 . S
N465 N464 1.398 . S
N466 C462 1.367 . S
N466 C463 1.379 . S
H467 C470 0.983 . S
H468 C470 0.981 1_556 S
H469 C470 0.981 . S
C470 C462 1.481 . S
C470 H467 0.983 . S
C470 H468 0.981 1_554 S
C470 H469 0.981 . S
C471 C458 1.481 . S
C471 H472 0.980 . S
C471 H473 0.981 . S
C471 H474 0.981 . S
H472 C471 0.980 . S
H473 C471 0.981 . S
H474 C471 0.981 . S
O475 Zn451 2.066 . S
O475 C454 1.256 . S
O476 Zn448 2.053 . S
O476 C454 1.244 . S
C477 O455 1.259 . S
C477 O456 1.254 . S
O478 Zn448 2.066 . S
O478 C450 1.256 . S
O479 C450 1.244 . S
O479 Zn451 2.053 . S
Zn480 O481 2.055 . S
Zn480 O488 2.046 . S
Zn480 N496 2.036 . S
Zn480 O508 2.053 . S
Zn480 O510 2.066 . S
O481 Zn480 2.055 . S
O481 C484 1.259 . S
C482 O510 1.256 . S
C482 O511 1.244 . S
Zn483 O485 2.046 . S
Zn483 O487 2.055 . S
Zn483 N489 2.036 . S
Zn483 O507 2.066 . S
Zn483 O511 2.053 . S
C484 O481 1.259 . S
C484 O485 1.254 . S
O485 Zn483 2.046 . S
O485 C484 1.254 . S
C486 O507 1.256 . S
C486 O508 1.244 . S
O487 Zn483 2.055 . S
O487 C509 1.259 . S
O488 Zn480 2.046 . S
O488 C509 1.254 . S
N489 Zn483 2.036 . S
N489 C490 1.298 . S
N489 N492 1.398 . S
C490 N489 1.298 . S
C490 N493 1.367 . S
C490 C503 1.481 . S
C491 N492 1.299 . S
C491 N493 1.379 . S
N492 N489 1.398 . S
N492 C491 1.299 . S
N493 C490 1.367 . S
N493 C491 1.379 . S
C494 N496 1.298 . S
C494 N498 1.367 . S
C494 C502 1.481 . S
C495 N497 1.299 . S
C495 N498 1.379 . S
N496 Zn480 2.036 . S
N496 C494 1.298 . S
N496 N497 1.398 . S
N497 C495 1.299 . S
N497 N496 1.398 . S
N498 C494 1.367 . S
N498 C495 1.379 . S
H499 C502 0.980 . S
H500 C502 0.981 . S
H501 C502 0.981 . S
C502 C494 1.481 . S
C502 H499 0.980 . S
C502 H500 0.981 . S
C502 H501 0.981 . S
C503 C490 1.481 . S
C503 H504 0.980 . S
C503 H505 0.981 . S
C503 H506 0.981 . S
H504 C503 0.980 . S
H505 C503 0.981 . S
H506 C503 0.981 . S
O507 Zn483 2.066 . S
O507 C486 1.256 . S
O508 Zn480 2.053 . S
O508 C486 1.244 . S
C509 O487 1.259 . S
C509 O488 1.254 . S
O510 Zn480 2.066 . S
O510 C482 1.256 . S
O511 C482 1.244 . S
O511 Zn483 2.053 . S
Zn512 O513 2.055 . S
Zn512 O520 2.046 . S
Zn512 N528 2.036 . S
Zn512 O540 2.053 . S
Zn512 O542 2.066 . S
O513 Zn512 2.055 . S
O513 C516 1.259 . S
C514 O542 1.256 . S
C514 O543 1.244 . S
Zn515 O517 2.046 . S
Zn515 O519 2.055 . S
Zn515 N521 2.036 . S
Zn515 O539 2.066 . S
Zn515 O543 2.053 . S
C516 O513 1.259 . S
C516 O517 1.254 . S
O517 Zn515 2.046 . S
O517 C516 1.254 . S
C518 O539 1.256 . S
C518 O540 1.244 . S
O519 Zn515 2.055 . S
O519 C541 1.259 1_554 S
O520 Zn512 2.046 . S
O520 C541 1.254 1_554 S
N521 Zn515 2.036 . S
N521 C522 1.298 . S
N521 N524 1.398 . S
C522 N521 1.298 . S
C522 N525 1.367 . S
C522 C535 1.481 . S
C523 N524 1.299 . S
C523 N525 1.379 . S
N524 N521 1.398 . S
N524 C523 1.299 . S
N525 C522 1.367 . S
N525 C523 1.379 . S
C526 N528 1.298 . S
C526 N530 1.367 . S
C526 C534 1.481 . S
C527 N529 1.299 . S
C527 N530 1.379 . S
N528 Zn512 2.036 . S
N528 C526 1.298 . S
N528 N529 1.398 . S
N529 C527 1.299 . S
N529 N528 1.398 . S
N530 C526 1.367 . S
N530 C527 1.379 . S
H531 C534 0.980 . S
H532 C534 0.981 . S
H533 C534 0.981 . S
C534 C526 1.481 . S
C534 H531 0.980 . S
C534 H532 0.981 . S
C534 H533 0.981 . S
C535 C522 1.481 . S
C535 H536 0.980 1_554 S
C535 H537 0.981 1_554 S
C535 H538 0.981 . S
H536 C535 0.980 1_556 S
H537 C535 0.981 1_556 S
H538 C535 0.981 . S
O539 Zn515 2.066 . S
O539 C518 1.256 . S
O540 Zn512 2.053 . S
O540 C518 1.244 . S
C541 O519 1.259 1_556 S
C541 O520 1.254 1_556 S
O542 Zn512 2.066 . S
O542 C514 1.256 . S
O543 C514 1.244 . S
O543 Zn515 2.053 . S
Zn544 O545 2.055 . S
Zn544 O552 2.046 . S
Zn544 N560 2.036 . S
Zn544 O572 2.053 . S
Zn544 O574 2.066 . S
O545 Zn544 2.055 . S
O545 C548 1.259 . S
C546 O574 1.256 . S
C546 O575 1.244 . S
Zn547 O549 2.046 . S
Zn547 O551 2.055 . S
Zn547 N553 2.036 . S
Zn547 O571 2.066 . S
Zn547 O575 2.053 . S
C548 O545 1.259 . S
C548 O549 1.254 . S
O549 Zn547 2.046 . S
O549 C548 1.254 . S
C550 O571 1.256 . S
C550 O572 1.244 . S
O551 Zn547 2.055 . S
O551 C573 1.259 . S
O552 Zn544 2.046 . S
O552 C573 1.254 . S
N553 Zn547 2.036 . S
N553 C554 1.298 . S
N553 N556 1.398 . S
C554 N553 1.298 . S
C554 N557 1.367 . S
C554 C567 1.481 . S
C555 N556 1.299 . S
C555 N557 1.379 . S
N556 N553 1.398 . S
N556 C555 1.299 . S
N557 C554 1.367 . S
N557 C555 1.379 . S
C558 N560 1.298 . S
C558 N562 1.367 . S
C558 C566 1.481 . S
C559 N561 1.299 . S
C559 N562 1.379 . S
N560 Zn544 2.036 . S
N560 C558 1.298 . S
N560 N561 1.398 . S
N561 C559 1.299 . S
N561 N560 1.398 . S
N562 C558 1.367 . S
N562 C559 1.379 . S
H563 C566 0.980 . S
H564 C566 0.981 . S
H565 C566 0.981 . S
C566 C558 1.481 . S
C566 H563 0.980 . S
C566 H564 0.981 . S
C566 H565 0.981 . S
C567 C554 1.481 . S
C567 H568 0.980 . S
C567 H569 0.981 . S
C567 H570 0.981 . S
H568 C567 0.980 . S
H569 C567 0.981 . S
H570 C567 0.981 . S
O571 Zn547 2.066 . S
O571 C550 1.256 . S
O572 Zn544 2.053 . S
O572 C550 1.244 . S
C573 O551 1.259 . S
C573 O552 1.254 . S
O574 Zn544 2.066 . S
O574 C546 1.256 . S
O575 C546 1.244 . S
O575 Zn547 2.053 . S
C576 C577 1.349 . S
C576 C578 1.327 . S
C576 H601 0.950 . S
C577 C576 1.349 . S
C577 C593 1.349 . S
C578 C576 1.327 . S
C578 C597 1.429 . S
C578 H602 0.950 . S
C579 C596 1.574 . S
C579 C598 1.368 . S
C579 H603 0.949 . S
H580 C584 0.949 . S
C581 C582 1.349 . S
C581 C583 1.327 . S
C581 H604 0.950 . S
C582 C581 1.349 . S
C582 C594 1.349 . S
C583 C581 1.327 . S
C583 C599 1.429 . S
C583 H605 0.950 . S
C584 H580 0.949 . S
C584 C592 1.574 . S
C584 C600 1.368 . S
H585 C593 0.950 . S
H586 C591 0.950 . S
H587 C592 0.949 . S
H588 C594 0.950 . S
H589 C595 0.950 . S
H590 C596 0.949 . S
C591 H586 0.950 . S
C591 C593 1.327 . S
C591 C597 1.429 . S
C592 C584 1.574 . S
C592 H587 0.949 . S
C592 C598 1.368 . S
C593 C577 1.349 . S
C593 H585 0.950 . S
C593 C591 1.327 . S
C594 C582 1.349 . S
C594 H588 0.950 . S
C594 C595 1.327 . S
C595 H589 0.950 . S
C595 C594 1.327 . S
C595 C599 1.429 . S
C596 C579 1.574 . S
C596 H590 0.949 . S
C596 C600 1.368 . S
C597 C578 1.429 . S
C597 C591 1.429 . S
C597 C598 1.523 . S
C598 C579 1.368 . S
C598 C592 1.368 . S
C598 C597 1.523 . S
C599 C583 1.429 . S
C599 C595 1.429 . S
C599 C600 1.523 . S
C600 C584 1.368 . S
C600 C596 1.368 . S
C600 C599 1.523 . S
H601 C576 0.950 . S
H602 C578 0.950 . S
H603 C579 0.949 . S
H604 C581 0.950 . S
H605 C583 0.950 . S
C606 C607 1.349 . S
C606 C608 1.327 . S
C606 H631 0.950 . S
C607 C606 1.349 . S
C607 C623 1.349 . S
C608 C606 1.327 . S
C608 C627 1.429 . S
C608 H632 0.950 . S
C609 C626 1.574 . S
C609 C628 1.368 . S
C609 H633 0.949 . S
H610 C614 0.949 . S
C611 C612 1.349 . S
C611 C613 1.327 . S
C611 H634 0.950 . S
C612 C611 1.349 . S
C612 C624 1.349 . S
C613 C611 1.327 . S
C613 C629 1.429 . S
C613 H635 0.950 . S
C614 H610 0.949 . S
C614 C622 1.574 . S
C614 C630 1.368 . S
H615 C623 0.950 . S
H616 C621 0.950 . S
H617 C622 0.949 . S
H618 C624 0.950 . S
H619 C625 0.950 . S
H620 C626 0.949 . S
C621 H616 0.950 . S
C621 C623 1.327 . S
C621 C627 1.429 . S
C622 C614 1.574 . S
C622 H617 0.949 . S
C622 C628 1.368 . S
C623 C607 1.349 . S
C623 H615 0.950 . S
C623 C621 1.327 . S
C624 C612 1.349 . S
C624 H618 0.950 . S
C624 C625 1.327 . S
C625 H619 0.950 . S
C625 C624 1.327 . S
C625 C629 1.429 . S
C626 C609 1.574 . S
C626 H620 0.949 . S
C626 C630 1.368 . S
C627 C608 1.429 . S
C627 C621 1.429 . S
C627 C628 1.523 . S
C628 C609 1.368 . S
C628 C622 1.368 . S
C628 C627 1.523 . S
C629 C613 1.429 . S
C629 C625 1.429 . S
C629 C630 1.523 . S
C630 C614 1.368 . S
C630 C626 1.368 . S
C630 C629 1.523 . S
H631 C606 0.950 . S
H632 C608 0.950 . S
H633 C609 0.949 . S
H634 C611 0.950 . S
H635 C613 0.950 . S
C636 C637 1.349 . S
C636 C638 1.327 . S
C636 H661 0.950 . S
C637 C636 1.349 . S
C637 C653 1.349 . S
C638 C636 1.327 . S
C638 C657 1.429 . S
C638 H662 0.950 . S
C639 C656 1.574 . S
C639 C658 1.368 . S
C639 H663 0.949 . S
H640 C644 0.949 . S
C641 C642 1.349 . S
C641 C643 1.327 . S
C641 H664 0.950 . S
C642 C641 1.349 . S
C642 C654 1.349 1_565 S
C643 C641 1.327 . S
C643 C659 1.429 1_565 S
C643 H665 0.950 . S
C644 H640 0.949 . S
C644 C652 1.574 . S
C644 C660 1.368 . S
H645 C653 0.950 . S
H646 C651 0.950 . S
H647 C652 0.949 . S
H648 C654 0.950 . S
H649 C655 0.950 . S
H650 C656 0.949 . S
C651 H646 0.950 . S
C651 C653 1.327 . S
C651 C657 1.429 . S
C652 C644 1.574 . S
C652 H647 0.949 . S
C652 C658 1.368 . S
C653 C637 1.349 . S
C653 H645 0.950 . S
C653 C651 1.327 . S
C654 C642 1.349 1_545 S
C654 H648 0.950 . S
C654 C655 1.327 . S
C655 H649 0.950 . S
C655 C654 1.327 . S
C655 C659 1.429 . S
C656 C639 1.574 . S
C656 H650 0.949 . S
C656 C660 1.368 . S
C657 C638 1.429 . S
C657 C651 1.429 . S
C657 C658 1.523 . S
C658 C639 1.368 . S
C658 C652 1.368 . S
C658 C657 1.523 . S
C659 C643 1.429 1_545 S
C659 C655 1.429 . S
C659 C660 1.523 . S
C660 C644 1.368 . S
C660 C656 1.368 . S
C660 C659 1.523 . S
H661 C636 0.950 . S
H662 C638 0.950 . S
H663 C639 0.949 . S
H664 C641 0.950 . S
H665 C643 0.950 . S
C666 C667 1.349 . S
C666 C668 1.327 . S
C666 H691 0.950 . S
C667 C666 1.349 . S
C667 C683 1.349 . S
C668 C666 1.327 . S
C668 C687 1.429 . S
C668 H692 0.950 . S
C669 C686 1.574 . S
C669 C688 1.368 . S
C669 H693 0.949 . S
H670 C674 0.949 . S
C671 C672 1.349 . S
C671 C673 1.327 . S
C671 H694 0.950 . S
C672 C671 1.349 . S
C672 C684 1.349 . S
C673 C671 1.327 . S
C673 C689 1.429 . S
C673 H695 0.950 . S
C674 H670 0.949 . S
C674 C682 1.574 . S
C674 C690 1.368 . S
H675 C683 0.950 . S
H676 C681 0.950 . S
H677 C682 0.949 . S
H678 C684 0.950 . S
H679 C685 0.950 . S
H680 C686 0.949 . S
C681 H676 0.950 . S
C681 C683 1.327 . S
C681 C687 1.429 . S
C682 C674 1.574 . S
C682 H677 0.949 . S
C682 C688 1.368 . S
C683 C667 1.349 . S
C683 H675 0.950 . S
C683 C681 1.327 . S
C684 C672 1.349 . S
C684 H678 0.950 . S
C684 C685 1.327 . S
C685 H679 0.950 . S
C685 C684 1.327 . S
C685 C689 1.429 . S
C686 C669 1.574 . S
C686 H680 0.949 . S
C686 C690 1.368 . S
C687 C668 1.429 . S
C687 C681 1.429 . S
C687 C688 1.523 . S
C688 C669 1.368 . S
C688 C682 1.368 . S
C688 C687 1.523 . S
C689 C673 1.429 . S
C689 C685 1.429 . S
C689 C690 1.523 . S
C690 C674 1.368 . S
C690 C686 1.368 . S
C690 C689 1.523 . S
H691 C666 0.950 . S
H692 C668 0.950 . S
H693 C669 0.949 . S
H694 C671 0.950 . S
H695 C673 0.950 . S
C696 C697 1.349 . S
C696 C698 1.327 . S
C696 H721 0.950 . S
C697 C696 1.349 . S
C697 C713 1.349 . S
C698 C696 1.327 . S
C698 C717 1.429 . S
C698 H722 0.950 . S
C699 C716 1.574 . S
C699 C718 1.368 . S
C699 H723 0.949 . S
H700 C704 0.949 . S
C701 C702 1.349 . S
C701 C703 1.327 . S
C701 H724 0.950 . S
C702 C701 1.349 . S
C702 C714 1.349 . S
C703 C701 1.327 . S
C703 C719 1.429 . S
C703 H725 0.950 . S
C704 H700 0.949 . S
C704 C712 1.574 . S
C704 C720 1.368 . S
H705 C713 0.950 . S
H706 C711 0.950 . S
H707 C712 0.949 . S
H708 C714 0.950 . S
H709 C715 0.950 . S
H710 C716 0.949 . S
C711 H706 0.950 . S
C711 C713 1.327 . S
C711 C717 1.429 . S
C712 C704 1.574 . S
C712 H707 0.949 . S
C712 C718 1.368 . S
C713 C697 1.349 . S
C713 H705 0.950 . S
C713 C711 1.327 . S
C714 C702 1.349 . S
C714 H708 0.950 . S
C714 C715 1.327 . S
C715 H709 0.950 . S
C715 C714 1.327 . S
C715 C719 1.429 . S
C716 C699 1.574 . S
C716 H710 0.949 . S
C716 C720 1.368 . S
C717 C698 1.429 . S
C717 C711 1.429 . S
C717 C718 1.523 . S
C718 C699 1.368 . S
C718 C712 1.368 . S
C718 C717 1.523 . S
C719 C703 1.429 . S
C719 C715 1.429 . S
C719 C720 1.523 . S
C720 C704 1.368 . S
C720 C716 1.368 . S
C720 C719 1.523 . S
H721 C696 0.950 . S
H722 C698 0.950 . S
H723 C699 0.949 . S
H724 C701 0.950 . S
H725 C703 0.950 . S
C726 C727 1.349 . S
C726 C728 1.327 . S
C726 H751 0.950 . S
C727 C726 1.349 . S
C727 C743 1.349 . S
C728 C726 1.327 . S
C728 C747 1.429 . S
C728 H752 0.950 . S
C729 C746 1.574 . S
C729 C748 1.368 . S
C729 H753 0.949 . S
H730 C734 0.949 . S
C731 C732 1.349 . S
C731 C733 1.327 . S
C731 H754 0.950 . S
C732 C731 1.349 . S
C732 C744 1.349 . S
C733 C731 1.327 . S
C733 C749 1.429 . S
C733 H755 0.950 . S
C734 H730 0.949 . S
C734 C742 1.574 . S
C734 C750 1.368 . S
H735 C743 0.950 . S
H736 C741 0.950 . S
H737 C742 0.949 . S
H738 C744 0.950 . S
H739 C745 0.950 . S
H740 C746 0.949 . S
C741 H736 0.950 . S
C741 C743 1.327 . S
C741 C747 1.429 . S
C742 C734 1.574 . S
C742 H737 0.949 . S
C742 C748 1.368 . S
C743 C727 1.349 . S
C743 H735 0.950 . S
C743 C741 1.327 . S
C744 C732 1.349 . S
C744 H738 0.950 . S
C744 C745 1.327 . S
C745 H739 0.950 . S
C745 C744 1.327 . S
C745 C749 1.429 . S
C746 C729 1.574 . S
C746 H740 0.949 . S
C746 C750 1.368 . S
C747 C728 1.429 . S
C747 C741 1.429 . S
C747 C748 1.523 . S
C748 C729 1.368 . S
C748 C742 1.368 . S
C748 C747 1.523 . S
C749 C733 1.429 . S
C749 C745 1.429 . S
C749 C750 1.523 . S
C750 C734 1.368 . S
C750 C746 1.368 . S
C750 C749 1.523 . S
H751 C726 0.950 . S
H752 C728 0.950 . S
H753 C729 0.949 . S
H754 C731 0.950 . S
H755 C733 0.950 . S
C756 C757 1.349 . S
C756 C758 1.327 1_455 S
C756 H781 0.950 . S
C757 C756 1.349 . S
C757 C773 1.349 . S
C758 C756 1.327 1_655 S
C758 C777 1.429 . S
C758 H782 0.950 . S
C759 C776 1.574 . S
C759 C778 1.368 . S
C759 H783 0.949 . S
H760 C764 0.949 . S
C761 C762 1.349 . S
C761 C763 1.327 . S
C761 H784 0.950 . S
C762 C761 1.349 . S
C762 C774 1.349 . S
C763 C761 1.327 . S
C763 C779 1.429 . S
C763 H785 0.950 . S
C764 H760 0.949 . S
C764 C772 1.574 . S
C764 C780 1.368 . S
H765 C773 0.950 . S
H766 C771 0.947 . S
H767 C772 0.949 . S
H768 C774 0.950 . S
H769 C775 0.950 . S
H770 C776 0.949 . S
C771 H766 0.947 . S
C771 C773 1.324 1_655 S
C771 C777 1.435 . S
C772 C764 1.574 . S
C772 H767 0.949 . S
C772 C778 1.368 . S
C773 C757 1.349 . S
C773 H765 0.950 . S
C773 C771 1.324 1_455 S
C774 C762 1.349 . S
C774 H768 0.950 . S
C774 C775 1.327 . S
C775 H769 0.950 . S
C775 C774 1.327 . S
C775 C779 1.429 . S
C776 C759 1.574 . S
C776 H770 0.949 . S
C776 C780 1.368 . S
C777 C758 1.429 . S
C777 C771 1.435 . S
C777 C778 1.523 . S
C778 C759 1.368 . S
C778 C772 1.368 . S
C778 C777 1.523 . S
C779 C763 1.429 . S
C779 C775 1.429 . S
C779 C780 1.523 . S
C780 C764 1.368 . S
C780 C776 1.368 . S
C780 C779 1.523 . S
H781 C756 0.950 . S
H782 C758 0.950 . S
H783 C759 0.949 . S
H784 C761 0.950 . S
H785 C763 0.950 . S
C786 C787 1.349 . S
C786 C788 1.327 . S
C786 H811 0.950 . S
C787 C786 1.349 . S
C787 C803 1.349 . S
C788 C786 1.327 . S
C788 C807 1.429 . S
C788 H812 0.950 . S
C789 C806 1.574 . S
C789 C808 1.368 . S
C789 H813 0.949 . S
H790 C794 0.949 . S
C791 C792 1.349 . S
C791 C793 1.327 . S
C791 H814 0.950 . S
C792 C791 1.349 . S
C792 C804 1.349 . S
C793 C791 1.327 . S
C793 C809 1.429 . S
C793 H815 0.950 . S
C794 H790 0.949 . S
C794 C802 1.574 . S
C794 C810 1.368 . S
H795 C803 0.950 . S
H796 C801 0.950 . S
H797 C802 0.949 . S
H798 C804 0.950 . S
H799 C805 0.950 . S
H800 C806 0.949 . S
C801 H796 0.950 . S
C801 C803 1.327 . S
C801 C807 1.429 . S
C802 C794 1.574 . S
C802 H797 0.949 . S
C802 C808 1.368 . S
C803 C787 1.349 . S
C803 H795 0.950 . S
C803 C801 1.327 . S
C804 C792 1.349 . S
C804 H798 0.950 . S
C804 C805 1.327 . S
C805 H799 0.950 . S
C805 C804 1.327 . S
C805 C809 1.429 . S
C806 C789 1.574 . S
C806 H800 0.949 . S
C806 C810 1.368 . S
C807 C788 1.429 . S
C807 C801 1.429 . S
C807 C808 1.523 . S
C808 C789 1.368 . S
C808 C802 1.368 . S
C808 C807 1.523 . S
C809 C793 1.429 . S
C809 C805 1.429 . S
C809 C810 1.523 . S
C810 C794 1.368 . S
C810 C806 1.368 . S
C810 C809 1.523 . S
H811 C786 0.950 . S
H812 C788 0.950 . S
H813 C789 0.949 . S
H814 C791 0.950 . S
H815 C793 0.950 . S
C816 C817 1.349 . S
C816 C818 1.327 . S
C816 H841 0.950 . S
C817 C816 1.349 . S
C817 C833 1.349 . S
C818 C816 1.327 . S
C818 C837 1.429 . S
C818 H842 0.950 . S
C819 C836 1.574 . S
C819 C838 1.368 . S
C819 H843 0.949 . S
H820 C824 0.949 . S
C821 C822 1.349 . S
C821 C823 1.327 . S
C821 H844 0.950 . S
C822 C821 1.349 . S
C822 C834 1.349 . S
C823 C821 1.327 . S
C823 C839 1.429 . S
C823 H845 0.950 . S
C824 H820 0.949 . S
C824 C832 1.574 . S
C824 C840 1.368 . S
H825 C833 0.950 . S
H826 C831 0.950 . S
H827 C832 0.949 . S
H828 C834 0.950 . S
H829 C835 0.950 . S
H830 C836 0.949 . S
C831 H826 0.950 . S
C831 C833 1.327 . S
C831 C837 1.429 . S
C832 C824 1.574 . S
C832 H827 0.949 . S
C832 C838 1.368 . S
C833 C817 1.349 . S
C833 H825 0.950 . S
C833 C831 1.327 . S
C834 C822 1.349 . S
C834 H828 0.950 . S
C834 C835 1.327 . S
C835 H829 0.950 . S
C835 C834 1.327 . S
C835 C839 1.429 . S
C836 C819 1.574 . S
C836 H830 0.949 . S
C836 C840 1.368 . S
C837 C818 1.429 . S
C837 C831 1.429 . S
C837 C838 1.523 . S
C838 C819 1.368 . S
C838 C832 1.368 . S
C838 C837 1.523 . S
C839 C823 1.429 . S
C839 C835 1.429 . S
C839 C840 1.523 . S
C840 C824 1.368 . S
C840 C836 1.368 . S
C840 C839 1.523 . S
H841 C816 0.950 . S
H842 C818 0.950 . S
H843 C819 0.949 . S
H844 C821 0.950 . S
H845 C823 0.950 . S
C846 C847 1.349 . S
C846 C848 1.327 . S
C846 H871 0.950 . S
C847 C846 1.349 . S
C847 C863 1.349 . S
C848 C846 1.327 . S
C848 C867 1.429 . S
C848 H872 0.950 . S
C849 C866 1.574 . S
C849 C868 1.368 . S
C849 H873 0.949 . S
H850 C854 0.949 . S
C851 C852 1.349 . S
C851 C853 1.327 1_545 S
C851 H874 1.008 . S
C852 C851 1.349 . S
C852 C864 1.349 . S
C853 C851 1.327 1_565 S
C853 C869 1.429 1_565 S
C853 H875 0.949 . S
C854 H850 0.949 . S
C854 C862 1.574 . S
C854 C870 1.392 . S
H855 C863 0.950 . S
H856 C861 0.950 . S
H857 C862 0.949 . S
H858 C864 0.950 . S
H859 C865 0.950 . S
H860 C866 0.949 . S
C861 H856 0.950 . S
C861 C863 1.327 . S
C861 C867 1.429 . S
C862 C854 1.574 . S
C862 H857 0.949 . S
C862 C868 1.368 1_545 S
C863 C847 1.349 . S
C863 H855 0.950 . S
C863 C861 1.327 . S
C864 C852 1.349 . S
C864 H858 0.950 . S
C864 C865 1.327 . S
C865 H859 0.950 . S
C865 C864 1.327 . S
C865 C869 1.429 . S
C866 C849 1.574 . S
C866 H860 0.949 . S
C866 C870 1.346 1_565 S
C867 C848 1.429 . S
C867 C861 1.429 . S
C867 C868 1.523 . S
C868 C849 1.368 . S
C868 C862 1.368 1_565 S
C868 C867 1.523 . S
C869 C853 1.429 1_545 S
C869 C865 1.429 . S
C869 C870 1.521 . S
C870 C854 1.392 . S
C870 C866 1.346 1_545 S
C870 C869 1.521 . S
H871 C846 0.950 . S
H872 C848 0.950 . S
H873 C849 0.949 . S
H874 C851 1.008 . S
H875 C853 0.949 . S
C876 C877 1.349 . S
C876 C878 1.327 . S
C876 H901 0.950 . S
C877 C876 1.349 . S
C877 C893 1.349 . S
C878 C876 1.327 . S
C878 C897 1.429 . S
C878 H902 0.950 . S
C879 C896 1.574 . S
C879 C898 1.368 . S
C879 H903 0.949 . S
H880 C884 0.949 . S
C881 C882 1.349 . S
C881 C883 1.327 . S
C881 H904 0.950 . S
C882 C881 1.349 . S
C882 C894 1.349 . S
C883 C881 1.327 . S
C883 C899 1.429 . S
C883 H905 0.950 . S
C884 H880 0.949 . S
C884 C892 1.574 . S
C884 C900 1.368 . S
H885 C893 0.950 . S
H886 C891 0.950 . S
H887 C892 0.949 . S
H888 C894 0.950 . S
H889 C895 0.950 . S
H890 C896 0.949 . S
C891 H886 0.950 . S
C891 C893 1.327 . S
C891 C897 1.429 . S
C892 C884 1.574 . S
C892 H887 0.949 . S
C892 C898 1.368 . S
C893 C877 1.349 . S
C893 H885 0.950 . S
C893 C891 1.327 . S
C894 C882 1.349 . S
C894 H888 0.950 . S
C894 C895 1.327 . S
C895 H889 0.950 . S
C895 C894 1.327 . S
C895 C899 1.429 . S
C896 C879 1.574 . S
C896 H890 0.949 . S
C896 C900 1.368 . S
C897 C878 1.429 . S
C897 C891 1.429 . S
C897 C898 1.523 . S
C898 C879 1.368 . S
C898 C892 1.368 . S
C898 C897 1.523 . S
C899 C883 1.429 . S
C899 C895 1.429 . S
C899 C900 1.523 . S
C900 C884 1.368 . S
C900 C896 1.368 . S
C900 C899 1.523 . S
H901 C876 0.950 . S
H902 C878 0.950 . S
H903 C879 0.949 . S
H904 C881 0.950 . S
H905 C883 0.950 . S
C906 C907 1.349 . S
C906 C908 1.327 . S
C906 H931 0.950 . S
C907 C906 1.349 . S
C907 C923 1.349 . S
C908 C906 1.327 . S
C908 C927 1.429 . S
C908 H932 0.950 . S
C909 C926 1.574 . S
C909 C928 1.368 . S
C909 H933 0.949 . S
H910 C914 0.949 . S
C911 C912 1.349 . S
C911 C913 1.327 . S
C911 H934 0.950 . S
C912 C911 1.349 . S
C912 C924 1.349 . S
C913 C911 1.327 . S
C913 C929 1.429 . S
C913 H935 0.950 . S
C914 H910 0.949 . S
C914 C922 1.574 . S
C914 C930 1.368 . S
H915 C923 0.950 . S
H916 C921 0.950 . S
H917 C922 0.949 . S
H918 C924 0.950 . S
H919 C925 0.950 . S
H920 C926 0.949 . S
C921 H916 0.950 . S
C921 C923 1.327 . S
C921 C927 1.429 . S
C922 C914 1.574 . S
C922 H917 0.949 . S
C922 C928 1.368 . S
C923 C907 1.349 . S
C923 H915 0.950 . S
C923 C921 1.327 . S
C924 C912 1.349 . S
C924 H918 0.950 . S
C924 C925 1.327 . S
C925 H919 0.950 . S
C925 C924 1.327 . S
C925 C929 1.429 . S
C926 C909 1.574 . S
C926 H920 0.949 . S
C926 C930 1.368 . S
C927 C908 1.429 . S
C927 C921 1.429 . S
C927 C928 1.523 . S
C928 C909 1.368 . S
C928 C922 1.368 . S
C928 C927 1.523 . S
C929 C913 1.429 . S
C929 C925 1.429 . S
C929 C930 1.523 . S
C930 C914 1.368 . S
C930 C926 1.368 . S
C930 C929 1.523 . S
H931 C906 0.950 . S
H932 C908 0.950 . S
H933 C909 0.949 . S
H934 C911 0.950 . S
H935 C913 0.950 . S
C936 C937 1.349 . S
C936 C938 1.327 . S
C936 H961 0.950 . S
C937 C936 1.349 . S
C937 C953 1.349 . S
C938 C936 1.327 . S
C938 C957 1.429 . S
C938 H962 0.950 . S
C939 C956 1.574 . S
C939 C958 1.368 1_554 S
C939 H963 0.949 . S
H940 C944 0.949 1_455 S
C941 C942 1.349 . S
C941 C943 1.327 . S
C941 H964 0.950 . S
C942 C941 1.349 . S
C942 C954 1.349 . S
C943 C941 1.327 . S
C943 C959 1.429 . S
C943 H965 0.950 . S
C944 H940 0.949 1_655 S
C944 C952 1.574 . S
C944 C960 1.368 1_656 S
H945 C953 0.950 . S
H946 C951 0.950 1_554 S
H947 C952 0.949 . S
H948 C954 0.950 . S
H949 C955 0.950 . S
H950 C956 0.947 . S
C951 H946 0.950 1_556 S
C951 C953 1.327 . S
C951 C957 1.429 . S
C952 C944 1.574 . S
C952 H947 0.949 . S
C952 C958 1.368 . S
C953 C937 1.349 . S
C953 H945 0.950 . S
C953 C951 1.327 . S
C954 C942 1.349 . S
C954 H948 0.950 . S
C954 C955 1.327 . S
C955 H949 0.950 . S
C955 C954 1.327 . S
C955 C959 1.429 . S
C956 C939 1.574 . S
C956 H950 0.947 . S
C956 C960 1.368 1_655 S
C957 C938 1.429 . S
C957 C951 1.429 . S
C957 C958 1.523 . S
C958 C939 1.368 1_556 S
C958 C952 1.368 . S
C958 C957 1.523 . S
C959 C943 1.429 . S
C959 C955 1.429 . S
C959 C960 1.523 . S
C960 C944 1.368 1_454 S
C960 C956 1.368 1_455 S
C960 C959 1.523 . S
H961 C936 0.950 . S
H962 C938 0.950 . S
H963 C939 0.949 . S
H964 C941 0.950 . S
H965 C943 0.950 . S
C966 C967 1.349 . S
C966 C968 1.327 . S
C966 H991 0.950 . S
C967 C966 1.349 . S
C967 C983 1.349 1_556 S
C968 C966 1.327 . S
C968 C987 1.429 . S
C968 H992 0.950 . S
C969 C986 1.574 . S
C969 C988 1.368 1_554 S
C969 H993 0.949 . S
H970 C974 0.949 . S
C971 C972 1.349 . S
C971 C973 1.327 . S
C971 H994 0.950 . S
C972 C971 1.349 . S
C972 C984 1.349 . S
C973 C971 1.327 . S
C973 C989 1.429 . S
C973 H995 0.950 . S
C974 H970 0.949 . S
C974 C982 1.574 . S
C974 C990 1.368 1_556 S
H975 C983 0.950 . S
H976 C981 0.950 . S
H977 C982 0.949 . S
H978 C984 0.950 1_556 S
H979 C985 0.950 . S
H980 C986 0.949 . S
C981 H976 0.950 . S
C981 C983 1.327 . S
C981 C987 1.429 1_554 S
C982 C974 1.574 . S
C982 H977 0.949 . S
C982 C988 1.368 . S
C983 C967 1.349 1_554 S
C983 H975 0.950 . S
C983 C981 1.327 . S
C984 C972 1.349 . S
C984 H978 0.950 1_554 S
C984 C985 1.327 1_554 S
C985 H979 0.950 . S
C985 C984 1.327 1_556 S
C985 C989 1.429 1_556 S
C986 C969 1.574 . S
C986 H980 0.949 . S
C986 C990 1.368 . S
C987 C968 1.429 . S
C987 C981 1.429 1_556 S
C987 C988 1.523 . S
C988 C969 1.368 1_556 S
C988 C982 1.368 . S
C988 C987 1.523 . S
C989 C973 1.429 . S
C989 C985 1.429 1_554 S
C989 C990 1.523 . S
C990 C974 1.368 1_554 S
C990 C986 1.368 . S
C990 C989 1.523 . S
H991 C966 0.950 . S
H992 C968 0.950 . S
H993 C969 0.949 . S
H994 C971 0.950 . S
H995 C973 0.950 . S
C996 C997 1.349 . S
C996 C998 1.327 . S
C996 H1021 0.950 . S
C997 C996 1.349 . S
C997 C1013 1.349 . S
C998 C996 1.327 . S
C998 C1017 1.429 . S
C998 H1022 0.950 1_556 S
C999 C1016 1.574 . S
C999 C1018 1.368 . S
C999 H1023 0.949 . S
H1000 C1004 0.949 . S
C1001 C1002 1.349 . S
C1001 C1003 1.327 1_554 S
C1001 H1024 0.950 1_554 S
C1002 C1001 1.349 . S
C1002 C1014 1.349 . S
C1003 C1001 1.327 1_556 S
C1003 C1019 1.429 1_556 S
C1003 H1025 0.950 . S
C1004 H1000 0.949 . S
C1004 C1012 1.574 . S
C1004 C1020 1.368 . S
H1005 C1013 0.950 . S
H1006 C1011 0.950 . S
H1007 C1012 0.949 . S
H1008 C1014 0.950 . S
H1009 C1015 0.950 . S
H1010 C1016 0.949 . S
C1011 H1006 0.950 . S
C1011 C1013 1.327 . S
C1011 C1017 1.429 . S
C1012 C1004 1.574 . S
C1012 H1007 0.949 . S
C1012 C1018 1.368 1_554 S
C1013 C997 1.349 . S
C1013 H1005 0.950 . S
C1013 C1011 1.327 . S
C1014 C1002 1.349 . S
C1014 H1008 0.950 . S
C1014 C1015 1.327 . S
C1015 H1009 0.950 . S
C1015 C1014 1.327 . S
C1015 C1019 1.429 . S
C1016 C999 1.574 . S
C1016 H1010 0.949 . S
C1016 C1020 1.368 1_556 S
C1017 C998 1.429 . S
C1017 C1011 1.429 . S
C1017 C1018 1.523 . S
C1018 C999 1.368 . S
C1018 C1012 1.368 1_556 S
C1018 C1017 1.523 . S
C1019 C1003 1.429 1_554 S
C1019 C1015 1.429 . S
C1019 C1020 1.523 . S
C1020 C1004 1.368 . S
C1020 C1016 1.368 1_554 S
C1020 C1019 1.523 . S
H1021 C996 0.950 . S
H1022 C998 0.950 1_554 S
H1023 C999 0.949 . S
H1024 C1001 0.950 1_556 S
H1025 C1003 0.950 . S
C1026 C1027 1.349 . S
C1026 C1028 1.327 . S
C1026 H1051 0.950 1_556 S
C1027 C1026 1.349 . S
C1027 C1043 1.349 . S
C1028 C1026 1.327 . S
C1028 C1047 1.429 . S
C1028 H1052 0.950 1_556 S
C1029 C1046 1.574 . S
C1029 C1048 1.368 . S
C1029 H1053 0.949 . S
H1030 C1034 0.949 . S
C1031 C1032 1.349 . S
C1031 C1033 1.327 1_554 S
C1031 H1054 0.950 1_554 S
C1032 C1031 1.349 . S
C1032 C1044 1.349 . S
C1033 C1031 1.327 1_556 S
C1033 C1049 1.429 1_556 S
C1033 H1055 0.950 . S
C1034 H1030 0.949 . S
C1034 C1042 1.574 . S
C1034 C1050 1.368 . S
H1035 C1043 0.950 . S
H1036 C1041 0.950 . S
H1037 C1042 0.949 . S
H1038 C1044 0.950 . S
H1039 C1045 0.950 . S
H1040 C1046 0.949 . S
C1041 H1036 0.950 . S
C1041 C1043 1.327 . S
C1041 C1047 1.429 . S
C1042 C1034 1.574 . S
C1042 H1037 0.949 . S
C1042 C1048 1.368 1_554 S
C1043 C1027 1.349 . S
C1043 H1035 0.950 . S
C1043 C1041 1.327 . S
C1044 C1032 1.349 . S
C1044 H1038 0.950 . S
C1044 C1045 1.327 . S
C1045 H1039 0.950 . S
C1045 C1044 1.327 . S
C1045 C1049 1.429 . S
C1046 C1029 1.574 . S
C1046 H1040 0.949 . S
C1046 C1050 1.368 1_556 S
C1047 C1028 1.429 . S
C1047 C1041 1.429 . S
C1047 C1048 1.523 . S
C1048 C1029 1.368 . S
C1048 C1042 1.368 1_556 S
C1048 C1047 1.523 . S
C1049 C1033 1.429 1_554 S
C1049 C1045 1.429 . S
C1049 C1050 1.523 . S
C1050 C1034 1.368 . S
C1050 C1046 1.368 1_554 S
C1050 C1049 1.523 . S
H1051 C1026 0.950 1_554 S
H1052 C1028 0.950 1_554 S
H1053 C1029 0.949 . S
H1054 C1031 0.950 1_556 S
H1055 C1033 0.950 . S
C1056 C1057 1.349 . S
C1056 C1058 1.327 . S
C1056 H1081 0.950 1_554 S
C1057 C1056 1.349 . S
C1057 C1073 1.349 . S
C1058 C1056 1.327 . S
C1058 C1077 1.429 . S
C1058 H1082 0.950 1_554 S
C1059 C1076 1.574 1_455 S
C1059 C1078 1.368 . S
C1059 H1083 0.949 . S
H1060 C1064 0.949 . S
C1061 C1062 1.337 1_554 S
C1061 C1063 1.331 . S
C1061 H1084 0.958 . S
C1062 C1061 1.337 1_556 S
C1062 C1074 1.349 . S
C1063 C1061 1.331 . S
C1063 C1079 1.429 1_554 S
C1063 H1085 0.950 . S
C1064 H1060 0.949 . S
C1064 C1072 1.574 1_655 S
C1064 C1080 1.368 . S
H1065 C1073 0.950 . S
H1066 C1071 0.950 . S
H1067 C1072 0.949 . S
H1068 C1074 0.950 . S
H1069 C1075 0.950 . S
H1070 C1076 0.949 . S
C1071 H1066 0.950 . S
C1071 C1073 1.327 . S
C1071 C1077 1.429 . S
C1072 C1064 1.574 1_455 S
C1072 H1067 0.949 . S
C1072 C1078 1.368 1_556 S
C1073 C1057 1.349 . S
C1073 H1065 0.950 . S
C1073 C1071 1.327 . S
C1074 C1062 1.349 . S
C1074 H1068 0.950 . S
C1074 C1075 1.327 . S
C1075 H1069 0.950 . S
C1075 C1074 1.327 . S
C1075 C1079 1.429 . S
C1076 C1059 1.574 1_655 S
C1076 H1070 0.949 . S
C1076 C1080 1.368 1_554 S
C1077 C1058 1.429 . S
C1077 C1071 1.429 . S
C1077 C1078 1.523 . S
C1078 C1059 1.368 . S
C1078 C1072 1.368 1_554 S
C1078 C1077 1.523 . S
C1079 C1063 1.429 1_556 S
C1079 C1075 1.429 . S
C1079 C1080 1.523 . S
C1080 C1064 1.368 . S
C1080 C1076 1.368 1_556 S
C1080 C1079 1.523 . S
H1081 C1056 0.950 1_556 S
H1082 C1058 0.950 1_556 S
H1083 C1059 0.949 . S
H1084 C1061 0.958 . S
H1085 C1063 0.950 . S
C1086 C1087 1.349 . S
C1086 C1088 1.327 . S
C1086 H1111 0.950 . S
C1087 C1086 1.349 . S
C1087 C1103 1.349 . S
C1088 C1086 1.327 . S
C1088 C1107 1.429 . S
C1088 H1112 0.950 1_554 S
C1089 C1106 1.574 . S
C1089 C1108 1.368 . S
C1089 H1113 0.949 . S
H1090 C1094 0.949 . S
C1091 C1092 1.349 . S
C1091 C1093 1.327 . S
C1091 H1114 0.950 . S
C1092 C1091 1.349 . S
C1092 C1104 1.349 . S
C1093 C1091 1.327 . S
C1093 C1109 1.429 . S
C1093 H1115 0.950 1_556 S
C1094 H1090 0.949 . S
C1094 C1102 1.574 . S
C1094 C1110 1.368 . S
H1095 C1103 0.950 . S
H1096 C1101 0.950 . S
H1097 C1102 0.949 . S
H1098 C1104 0.950 . S
H1099 C1105 0.950 . S
H1100 C1106 0.949 . S
C1101 H1096 0.950 . S
C1101 C1103 1.327 . S
C1101 C1107 1.429 . S
C1102 C1094 1.574 . S
C1102 H1097 0.949 . S
C1102 C1108 1.368 1_556 S
C1103 C1087 1.349 . S
C1103 H1095 0.950 . S
C1103 C1101 1.327 . S
C1104 C1092 1.349 . S
C1104 H1098 0.950 . S
C1104 C1105 1.327 . S
C1105 H1099 0.950 . S
C1105 C1104 1.327 . S
C1105 C1109 1.429 . S
C1106 C1089 1.574 . S
C1106 H1100 0.949 . S
C1106 C1110 1.368 1_554 S
C1107 C1088 1.429 . S
C1107 C1101 1.429 . S
C1107 C1108 1.523 . S
C1108 C1089 1.368 . S
C1108 C1102 1.368 1_554 S
C1108 C1107 1.523 . S
C1109 C1093 1.429 . S
C1109 C1105 1.429 . S
C1109 C1110 1.523 . S
C1110 C1094 1.368 . S
C1110 C1106 1.368 1_556 S
C1110 C1109 1.523 . S
H1111 C1086 0.950 . S
H1112 C1088 0.950 1_556 S
H1113 C1089 0.949 . S
H1114 C1091 0.950 . S
H1115 C1093 0.950 1_554 S
C1116 C1117 1.349 . S
C1116 C1118 1.327 . S
C1116 H1141 0.950 . S
C1117 C1116 1.349 . S
C1117 C1133 1.349 . S
C1118 C1116 1.327 . S
C1118 C1137 1.429 . S
C1118 H1142 0.950 . S
C1119 C1136 1.574 . S
C1119 C1138 1.368 . S
C1119 H1143 0.949 . S
H1120 C1124 0.949 . S
C1121 C1122 1.349 . S
C1121 C1123 1.327 . S
C1121 H1144 0.950 . S
C1122 C1121 1.349 . S
C1122 C1134 1.349 . S
C1123 C1121 1.327 . S
C1123 C1139 1.429 . S
C1123 H1145 0.950 . S
C1124 H1120 0.949 . S
C1124 C1132 1.574 . S
C1124 C1140 1.368 . S
H1125 C1133 0.950 . S
H1126 C1131 0.950 . S
H1127 C1132 0.949 . S
H1128 C1134 0.950 . S
H1129 C1135 0.950 . S
H1130 C1136 0.949 . S
C1131 H1126 0.950 . S
C1131 C1133 1.327 . S
C1131 C1137 1.429 . S
C1132 C1124 1.574 . S
C1132 H1127 0.949 . S
C1132 C1138 1.368 . S
C1133 C1117 1.349 . S
C1133 H1125 0.950 . S
C1133 C1131 1.327 . S
C1134 C1122 1.349 . S
C1134 H1128 0.950 . S
C1134 C1135 1.327 . S
C1135 H1129 0.950 . S
C1135 C1134 1.327 . S
C1135 C1139 1.429 . S
C1136 C1119 1.574 . S
C1136 H1130 0.949 . S
C1136 C1140 1.368 . S
C1137 C1118 1.429 . S
C1137 C1131 1.429 . S
C1137 C1138 1.523 . S
C1138 C1119 1.368 . S
C1138 C1132 1.368 . S
C1138 C1137 1.523 . S
C1139 C1123 1.429 . S
C1139 C1135 1.429 . S
C1139 C1140 1.523 . S
C1140 C1124 1.368 . S
C1140 C1136 1.368 . S
C1140 C1139 1.523 . S
H1141 C1116 0.950 . S
H1142 C1118 0.950 . S
H1143 C1119 0.949 . S
H1144 C1121 0.950 . S
H1145 C1123 0.950 . S
C1146 C1147 1.349 . S
C1146 C1148 1.327 . S
C1146 H1171 0.950 . S
C1147 C1146 1.349 . S
C1147 C1163 1.349 . S
C1148 C1146 1.327 . S
C1148 C1167 1.429 . S
C1148 H1172 0.950 . S
C1149 C1166 1.574 . S
C1149 C1168 1.368 1_565 S
C1149 H1173 0.949 . S
H1150 C1154 0.949 . S
C1151 C1152 1.349 . S
C1151 C1153 1.327 . S
C1151 H1174 0.950 . S
C1152 C1151 1.349 . S
C1152 C1164 1.349 . S
C1153 C1151 1.327 . S
C1153 C1169 1.429 . S
C1153 H1175 0.950 . S
C1154 H1150 0.949 . S
C1154 C1162 1.569 1_565 S
C1154 C1170 1.368 . S
H1155 C1163 0.950 . S
H1156 C1161 0.950 . S
H1157 C1162 0.951 . S
H1158 C1164 0.950 . S
H1159 C1165 0.950 . S
H1160 C1166 0.949 . S
C1161 H1156 0.950 . S
C1161 C1163 1.327 . S
C1161 C1167 1.429 . S
C1162 C1154 1.569 1_545 S
C1162 H1157 0.951 . S
C1162 C1168 1.370 . S
C1163 C1147 1.349 . S
C1163 H1155 0.950 . S
C1163 C1161 1.327 . S
C1164 C1152 1.349 . S
C1164 H1158 0.950 . S
C1164 C1165 1.327 . S
C1165 H1159 0.950 . S
C1165 C1164 1.327 . S
C1165 C1169 1.429 . S
C1166 C1149 1.574 . S
C1166 H1160 0.949 . S
C1166 C1170 1.368 . S
C1167 C1148 1.429 . S
C1167 C1161 1.429 . S
C1167 C1168 1.523 . S
C1168 C1149 1.368 1_545 S
C1168 C1162 1.370 . S
C1168 C1167 1.523 . S
C1169 C1153 1.429 . S
C1169 C1165 1.429 . S
C1169 C1170 1.523 . S
C1170 C1154 1.368 . S
C1170 C1166 1.368 . S
C1170 C1169 1.523 . S
H1171 C1146 0.950 . S
H1172 C1148 0.950 . S
H1173 C1149 0.949 . S
H1174 C1151 0.950 . S
H1175 C1153 0.950 . S
C1176 C1177 1.349 . S
C1176 C1178 1.327 . S
C1176 H1201 0.950 . S
C1177 C1176 1.349 . S
C1177 C1193 1.349 . S
C1178 C1176 1.327 . S
C1178 C1197 1.429 . S
C1178 H1202 0.950 . S
C1179 C1196 1.574 . S
C1179 C1198 1.368 . S
C1179 H1203 0.949 . S
H1180 C1184 0.949 . S
C1181 C1182 1.349 . S
C1181 C1183 1.327 . S
C1181 H1204 0.950 . S
C1182 C1181 1.349 . S
C1182 C1194 1.349 . S
C1183 C1181 1.327 . S
C1183 C1199 1.429 . S
C1183 H1205 0.950 . S
C1184 H1180 0.949 . S
C1184 C1192 1.574 . S
C1184 C1200 1.368 . S
H1185 C1193 0.950 . S
H1186 C1191 0.950 . S
H1187 C1192 0.949 . S
H1188 C1194 0.950 . S
H1189 C1195 0.950 . S
H1190 C1196 0.949 . S
C1191 H1186 0.950 . S
C1191 C1193 1.327 . S
C1191 C1197 1.429 . S
C1192 C1184 1.574 . S
C1192 H1187 0.949 . S
C1192 C1198 1.368 . S
C1193 C1177 1.349 . S
C1193 H1185 0.950 . S
C1193 C1191 1.327 . S
C1194 C1182 1.349 . S
C1194 H1188 0.950 . S
C1194 C1195 1.327 . S
C1195 H1189 0.950 . S
C1195 C1194 1.327 . S
C1195 C1199 1.429 . S
C1196 C1179 1.574 . S
C1196 H1190 0.949 . S
C1196 C1200 1.368 . S
C1197 C1178 1.429 . S
C1197 C1191 1.429 . S
C1197 C1198 1.523 . S
C1198 C1179 1.368 . S
C1198 C1192 1.368 . S
C1198 C1197 1.523 . S
C1199 C1183 1.429 . S
C1199 C1195 1.429 . S
C1199 C1200 1.523 1_545 S
C1200 C1184 1.368 . S
C1200 C1196 1.368 . S
C1200 C1199 1.523 1_565 S
H1201 C1176 0.950 . S
H1202 C1178 0.950 . S
H1203 C1179 0.949 . S
H1204 C1181 0.950 . S
H1205 C1183 0.950 . S
C1206 C1207 1.349 . S
C1206 C1208 1.327 . S
C1206 H1231 0.950 . S
C1207 C1206 1.349 . S
C1207 C1223 1.349 . S
C1208 C1206 1.327 . S
C1208 C1227 1.429 . S
C1208 H1232 0.950 . S
C1209 C1226 1.574 . S
C1209 C1228 1.368 . S
C1209 H1233 0.949 . S
H1210 C1214 0.949 . S
C1211 C1212 1.349 . S
C1211 C1213 1.327 . S
C1211 H1234 0.950 . S
C1212 C1211 1.349 . S
C1212 C1224 1.349 . S
C1213 C1211 1.327 . S
C1213 C1229 1.429 . S
C1213 H1235 0.950 . S
C1214 H1210 0.949 . S
C1214 C1222 1.574 . S
C1214 C1230 1.368 . S
H1215 C1223 0.950 . S
H1216 C1221 0.950 . S
H1217 C1222 0.949 . S
H1218 C1224 0.950 . S
H1219 C1225 0.950 . S
H1220 C1226 0.949 . S
C1221 H1216 0.950 . S
C1221 C1223 1.327 . S
C1221 C1227 1.429 . S
C1222 C1214 1.574 . S
C1222 H1217 0.949 . S
C1222 C1228 1.368 . S
C1223 C1207 1.349 . S
C1223 H1215 0.950 . S
C1223 C1221 1.327 . S
C1224 C1212 1.349 . S
C1224 H1218 0.950 . S
C1224 C1225 1.327 . S
C1225 H1219 0.950 . S
C1225 C1224 1.327 . S
C1225 C1229 1.429 . S
C1226 C1209 1.574 . S
C1226 H1220 0.949 . S
C1226 C1230 1.368 . S
C1227 C1208 1.429 . S
C1227 C1221 1.429 . S
C1227 C1228 1.523 . S
C1228 C1209 1.368 . S
C1228 C1222 1.368 . S
C1228 C1227 1.523 . S
C1229 C1213 1.429 . S
C1229 C1225 1.429 . S
C1229 C1230 1.523 . S
C1230 C1214 1.368 . S
C1230 C1226 1.368 . S
C1230 C1229 1.523 . S
H1231 C1206 0.950 . S
H1232 C1208 0.950 . S
H1233 C1209 0.949 . S
H1234 C1211 0.950 . S
H1235 C1213 0.950 . S
C1236 C1237 1.349 . S
C1236 C1238 1.327 . S
C1236 H1261 0.950 . S
C1237 C1236 1.349 . S
C1237 C1253 1.349 . S
C1238 C1236 1.327 . S
C1238 C1257 1.429 . S
C1238 H1262 0.950 . S
C1239 C1256 1.574 . S
C1239 C1258 1.368 . S
C1239 H1263 0.949 . S
H1240 C1244 0.949 . S
C1241 C1242 1.349 . S
C1241 C1243 1.327 . S
C1241 H1264 0.950 . S
C1242 C1241 1.349 . S
C1242 C1254 1.349 . S
C1243 C1241 1.327 . S
C1243 C1259 1.429 . S
C1243 H1265 0.950 . S
C1244 H1240 0.949 . S
C1244 C1252 1.574 . S
C1244 C1260 1.368 . S
H1245 C1253 0.950 . S
H1246 C1251 0.950 . S
H1247 C1252 0.949 . S
H1248 C1254 0.950 1_455 S
H1249 C1255 0.950 . S
H1250 C1256 0.949 . S
C1251 H1246 0.950 . S
C1251 C1253 1.327 . S
C1251 C1257 1.429 . S
C1252 C1244 1.574 . S
C1252 H1247 0.949 . S
C1252 C1258 1.368 . S
C1253 C1237 1.349 . S
C1253 H1245 0.950 . S
C1253 C1251 1.327 . S
C1254 C1242 1.349 . S
C1254 H1248 0.950 1_655 S
C1254 C1255 1.327 . S
C1255 H1249 0.950 . S
C1255 C1254 1.327 . S
C1255 C1259 1.429 . S
C1256 C1239 1.574 . S
C1256 H1250 0.949 . S
C1256 C1260 1.368 . S
C1257 C1238 1.429 . S
C1257 C1251 1.429 . S
C1257 C1258 1.523 . S
C1258 C1239 1.368 . S
C1258 C1252 1.368 . S
C1258 C1257 1.523 . S
C1259 C1243 1.429 . S
C1259 C1255 1.429 . S
C1259 C1260 1.523 . S
C1260 C1244 1.368 . S
C1260 C1256 1.368 . S
C1260 C1259 1.523 . S
H1261 C1236 0.950 . S
H1262 C1238 0.950 . S
H1263 C1239 0.949 . S
H1264 C1241 0.950 . S
H1265 C1243 0.950 . S
C1266 C1267 1.349 . S
C1266 C1268 1.327 . S
C1266 H1291 0.950 . S
C1267 C1266 1.349 . S
C1267 C1283 1.349 . S
C1268 C1266 1.327 . S
C1268 C1287 1.429 . S
C1268 H1292 0.950 . S
C1269 C1286 1.574 . S
C1269 C1288 1.368 . S
C1269 H1293 0.949 . S
H1270 C1274 0.949 . S
C1271 C1272 1.349 . S
C1271 C1273 1.327 . S
C1271 H1294 0.950 . S
C1272 C1271 1.349 . S
C1272 C1284 1.349 . S
C1273 C1271 1.327 . S
C1273 C1289 1.429 . S
C1273 H1295 0.950 . S
C1274 H1270 0.949 . S
C1274 C1282 1.574 . S
C1274 C1290 1.368 . S
H1275 C1283 0.950 . S
H1276 C1281 0.950 . S
H1277 C1282 0.949 . S
H1278 C1284 0.950 . S
H1279 C1285 0.950 . S
H1280 C1286 0.949 . S
C1281 H1276 0.950 . S
C1281 C1283 1.327 . S
C1281 C1287 1.429 . S
C1282 C1274 1.574 . S
C1282 H1277 0.949 . S
C1282 C1288 1.368 . S
C1283 C1267 1.349 . S
C1283 H1275 0.950 . S
C1283 C1281 1.327 . S
C1284 C1272 1.349 . S
C1284 H1278 0.950 . S
C1284 C1285 1.327 . S
C1285 H1279 0.950 . S
C1285 C1284 1.327 . S
C1285 C1289 1.429 . S
C1286 C1269 1.574 . S
C1286 H1280 0.949 . S
C1286 C1290 1.368 . S
C1287 C1268 1.429 . S
C1287 C1281 1.429 . S
C1287 C1288 1.523 . S
C1288 C1269 1.368 . S
C1288 C1282 1.368 . S
C1288 C1287 1.523 . S
C1289 C1273 1.429 . S
C1289 C1285 1.429 . S
C1289 C1290 1.523 . S
C1290 C1274 1.368 . S
C1290 C1286 1.368 . S
C1290 C1289 1.523 . S
H1291 C1266 0.950 . S
H1292 C1268 0.950 . S
H1293 C1269 0.949 . S
H1294 C1271 0.950 . S
H1295 C1273 0.950 . S
C1296 C1297 1.349 . S
C1296 C1298 1.327 . S
C1296 H1321 0.950 . S
C1297 C1296 1.349 . S
C1297 C1313 1.349 . S
C1298 C1296 1.327 . S
C1298 C1317 1.429 . S
C1298 H1322 0.950 . S
C1299 C1316 1.574 . S
C1299 C1318 1.368 . S
C1299 H1323 0.949 . S
H1300 C1304 0.949 . S
C1301 C1302 1.349 . S
C1301 C1303 1.327 . S
C1301 H1324 0.950 . S
C1302 C1301 1.349 . S
C1302 C1314 1.349 . S
C1303 C1301 1.327 . S
C1303 C1319 1.429 . S
C1303 H1325 0.950 . S
C1304 H1300 0.949 . S
C1304 C1312 1.574 . S
C1304 C1320 1.368 . S
H1305 C1313 0.950 . S
H1306 C1311 0.950 . S
H1307 C1312 0.949 . S
H1308 C1314 0.950 . S
H1309 C1315 0.950 . S
H1310 C1316 0.949 . S
C1311 H1306 0.950 . S
C1311 C1313 1.327 . S
C1311 C1317 1.429 . S
C1312 C1304 1.574 . S
C1312 H1307 0.949 . S
C1312 C1318 1.368 . S
C1313 C1297 1.349 . S
C1313 H1305 0.950 . S
C1313 C1311 1.327 . S
C1314 C1302 1.349 . S
C1314 H1308 0.950 . S
C1314 C1315 1.327 . S
C1315 H1309 0.950 . S
C1315 C1314 1.327 . S
C1315 C1319 1.429 . S
C1316 C1299 1.574 . S
C1316 H1310 0.949 . S
C1316 C1320 1.368 . S
C1317 C1298 1.429 . S
C1317 C1311 1.429 . S
C1317 C1318 1.523 . S
C1318 C1299 1.368 . S
C1318 C1312 1.368 . S
C1318 C1317 1.523 . S
C1319 C1303 1.429 . S
C1319 C1315 1.429 . S
C1319 C1320 1.523 . S
C1320 C1304 1.368 . S
C1320 C1316 1.368 . S
C1320 C1319 1.523 . S
H1321 C1296 0.950 . S
H1322 C1298 0.950 . S
H1323 C1299 0.949 . S
H1324 C1301 0.950 . S
H1325 C1303 0.950 . S
C1326 C1327 1.349 . S
C1326 C1328 1.327 . S
C1326 H1351 0.950 . S
C1327 C1326 1.349 . S
C1327 C1343 1.349 . S
C1328 C1326 1.327 . S
C1328 C1347 1.429 . S
C1328 H1352 0.950 . S
C1329 C1346 1.574 . S
C1329 C1348 1.368 . S
C1329 H1353 0.949 . S
H1330 C1334 0.949 . S
C1331 C1332 1.349 . S
C1331 C1333 1.327 . S
C1331 H1354 0.950 . S
C1332 C1331 1.349 . S
C1332 C1344 1.349 . S
C1333 C1331 1.327 . S
C1333 C1349 1.429 . S
C1333 H1355 0.950 . S
C1334 H1330 0.949 . S
C1334 C1342 1.574 . S
C1334 C1350 1.368 . S
H1335 C1343 0.950 . S
H1336 C1341 0.950 . S
H1337 C1342 0.949 . S
H1338 C1344 0.950 . S
H1339 C1345 0.950 . S
H1340 C1346 0.949 . S
C1341 H1336 0.950 . S
C1341 C1343 1.327 . S
C1341 C1347 1.429 . S
C1342 C1334 1.574 . S
C1342 H1337 0.949 . S
C1342 C1348 1.368 . S
C1343 C1327 1.349 . S
C1343 H1335 0.950 . S
C1343 C1341 1.327 . S
C1344 C1332 1.349 . S
C1344 H1338 0.950 . S
C1344 C1345 1.327 . S
C1345 H1339 0.950 . S
C1345 C1344 1.327 . S
C1345 C1349 1.429 . S
C1346 C1329 1.574 . S
C1346 H1340 0.949 . S
C1346 C1350 1.368 . S
C1347 C1328 1.429 . S
C1347 C1341 1.429 . S
C1347 C1348 1.523 . S
C1348 C1329 1.368 . S
C1348 C1342 1.368 . S
C1348 C1347 1.523 . S
C1349 C1333 1.429 . S
C1349 C1345 1.429 . S
C1349 C1350 1.523 . S
C1350 C1334 1.368 . S
C1350 C1346 1.368 . S
C1350 C1349 1.523 . S
H1351 C1326 0.950 . S
H1352 C1328 0.950 . S
H1353 C1329 0.949 . S
H1354 C1331 0.950 . S
H1355 C1333 0.950 . S
C1356 C1357 1.349 . S
C1356 C1358 1.327 . S
C1356 H1381 0.950 . S
C1357 C1356 1.349 . S
C1357 C1373 1.349 . S
C1358 C1356 1.327 . S
C1358 C1377 1.429 . S
C1358 H1382 0.950 . S
C1359 C1376 1.574 . S
C1359 C1378 1.368 . S
C1359 H1383 0.949 . S
H1360 C1364 0.949 . S
C1361 C1362 1.349 . S
C1361 C1363 1.327 . S
C1361 H1384 0.950 . S
C1362 C1361 1.349 . S
C1362 C1374 1.349 . S
C1363 C1361 1.327 . S
C1363 C1379 1.429 . S
C1363 H1385 0.950 . S
C1364 H1360 0.949 . S
C1364 C1372 1.574 . S
C1364 C1380 1.368 . S
H1365 C1373 0.950 . S
H1366 C1371 0.950 . S
H1367 C1372 0.949 . S
H1368 C1374 0.950 . S
H1369 C1375 0.950 . S
H1370 C1376 0.949 . S
C1371 H1366 0.950 . S
C1371 C1373 1.327 . S
C1371 C1377 1.429 . S
C1372 C1364 1.574 . S
C1372 H1367 0.949 . S
C1372 C1378 1.368 . S
C1373 C1357 1.349 . S
C1373 H1365 0.950 . S
C1373 C1371 1.327 . S
C1374 C1362 1.349 . S
C1374 H1368 0.950 . S
C1374 C1375 1.327 . S
C1375 H1369 0.950 . S
C1375 C1374 1.327 . S
C1375 C1379 1.429 . S
C1376 C1359 1.574 . S
C1376 H1370 0.949 . S
C1376 C1380 1.368 . S
C1377 C1358 1.429 . S
C1377 C1371 1.429 . S
C1377 C1378 1.523 . S
C1378 C1359 1.368 . S
C1378 C1372 1.368 . S
C1378 C1377 1.523 . S
C1379 C1363 1.429 . S
C1379 C1375 1.429 . S
C1379 C1380 1.523 . S
C1380 C1364 1.368 . S
C1380 C1376 1.368 . S
C1380 C1379 1.523 . S
H1381 C1356 0.950 . S
H1382 C1358 0.950 . S
H1383 C1359 0.949 . S
H1384 C1361 0.950 . S
H1385 C1363 0.950 . S
C1386 C1387 1.349 . S
C1386 C1388 1.327 . S
C1386 H1411 0.950 1_556 S
C1387 C1386 1.349 . S
C1387 C1403 1.349 . S
C1388 C1386 1.327 . S
C1388 C1407 1.429 . S
C1388 H1412 0.950 1_556 S
C1389 C1406 1.574 . S
C1389 C1408 1.368 . S
C1389 H1413 0.949 . S
H1390 C1394 0.949 1_554 S
C1391 C1392 1.349 . S
C1391 C1393 1.327 . S
C1391 H1414 0.950 . S
C1392 C1391 1.349 . S
C1392 C1404 1.349 . S
C1393 C1391 1.327 . S
C1393 C1409 1.429 . S
C1393 H1415 0.950 . S
C1394 H1390 0.949 1_556 S
C1394 C1402 1.574 . S
C1394 C1410 1.368 . S
H1395 C1403 0.950 . S
H1396 C1401 0.950 . S
H1397 C1402 0.949 1_554 S
H1398 C1404 0.950 1_554 S
H1399 C1405 0.950 1_554 S
H1400 C1406 0.949 . S
C1401 H1396 0.950 . S
C1401 C1403 1.327 . S
C1401 C1407 1.429 . S
C1402 C1394 1.574 . S
C1402 H1397 0.949 1_556 S
C1402 C1408 1.368 . S
C1403 C1387 1.349 . S
C1403 H1395 0.950 . S
C1403 C1401 1.327 . S
C1404 C1392 1.349 . S
C1404 H1398 0.950 1_556 S
C1404 C1405 1.327 . S
C1405 H1399 0.950 1_556 S
C1405 C1404 1.327 . S
C1405 C1409 1.429 . S
C1406 C1389 1.574 . S
C1406 H1400 0.949 . S
C1406 C1410 1.368 . S
C1407 C1388 1.429 . S
C1407 C1401 1.429 . S
C1407 C1408 1.523 . S
C1408 C1389 1.368 . S
C1408 C1402 1.368 . S
C1408 C1407 1.523 . S
C1409 C1393 1.429 . S
C1409 C1405 1.429 . S
C1409 C1410 1.523 . S
C1410 C1394 1.368 . S
C1410 C1406 1.368 . S
C1410 C1409 1.523 . S
H1411 C1386 0.950 1_554 S
H1412 C1388 0.950 1_554 S
H1413 C1389 0.949 . S
H1414 C1391 0.950 . S
H1415 C1393 0.950 . S
C1416 C1417 1.349 . S
C1416 C1418 1.327 . S
C1416 H1441 0.950 . S
C1417 C1416 1.349 . S
C1417 C1433 1.349 . S
C1418 C1416 1.327 . S
C1418 C1437 1.429 . S
C1418 H1442 0.950 . S
C1419 C1436 1.574 . S
C1419 C1438 1.368 . S
C1419 H1443 0.949 . S
H1420 C1424 0.949 . S
C1421 C1422 1.349 . S
C1421 C1423 1.327 . S
C1421 H1444 0.950 . S
C1422 C1421 1.349 . S
C1422 C1434 1.349 . S
C1423 C1421 1.327 . S
C1423 C1439 1.429 . S
C1423 H1445 0.950 . S
C1424 H1420 0.949 . S
C1424 C1432 1.574 . S
C1424 C1440 1.368 . S
H1425 C1433 0.950 . S
H1426 C1431 0.950 . S
H1427 C1432 0.949 . S
H1428 C1434 0.950 . S
H1429 C1435 0.950 . S
H1430 C1436 0.949 . S
C1431 H1426 0.950 . S
C1431 C1433 1.327 . S
C1431 C1437 1.429 . S
C1432 C1424 1.574 . S
C1432 H1427 0.949 . S
C1432 C1438 1.368 . S
C1433 C1417 1.349 . S
C1433 H1425 0.950 . S
C1433 C1431 1.327 . S
C1434 C1422 1.349 . S
C1434 H1428 0.950 . S
C1434 C1435 1.327 . S
C1435 H1429 0.950 . S
C1435 C1434 1.327 . S
C1435 C1439 1.429 . S
C1436 C1419 1.574 . S
C1436 H1430 0.949 . S
C1436 C1440 1.368 . S
C1437 C1418 1.429 . S
C1437 C1431 1.429 . S
C1437 C1438 1.523 . S
C1438 C1419 1.368 . S
C1438 C1432 1.368 . S
C1438 C1437 1.523 . S
C1439 C1423 1.429 . S
C1439 C1435 1.429 . S
C1439 C1440 1.523 . S
C1440 C1424 1.368 . S
C1440 C1436 1.368 . S
C1440 C1439 1.523 . S
H1441 C1416 0.950 . S
H1442 C1418 0.950 . S
H1443 C1419 0.949 . S
H1444 C1421 0.950 . S
H1445 C1423 0.950 . S
C1446 C1447 1.349 . S
C1446 C1448 1.327 . S
C1446 H1471 0.950 . S
C1447 C1446 1.349 . S
C1447 C1463 1.349 . S
C1448 C1446 1.327 . S
C1448 C1467 1.429 . S
C1448 H1472 0.950 . S
C1449 C1466 1.574 . S
C1449 C1468 1.368 . S
C1449 H1473 0.949 . S
H1450 C1454 0.949 . S
C1451 C1452 1.349 . S
C1451 C1453 1.327 . S
C1451 H1474 0.950 . S
C1452 C1451 1.349 . S
C1452 C1464 1.349 . S
C1453 C1451 1.327 . S
C1453 C1469 1.429 . S
C1453 H1475 0.950 . S
C1454 H1450 0.949 . S
C1454 C1462 1.574 . S
C1454 C1470 1.368 . S
H1455 C1463 0.950 . S
H1456 C1461 0.950 . S
H1457 C1462 0.949 . S
H1458 C1464 0.950 . S
H1459 C1465 0.950 . S
H1460 C1466 0.949 . S
C1461 H1456 0.950 . S
C1461 C1463 1.327 . S
C1461 C1467 1.429 . S
C1462 C1454 1.574 . S
C1462 H1457 0.949 . S
C1462 C1468 1.368 . S
C1463 C1447 1.349 . S
C1463 H1455 0.950 . S
C1463 C1461 1.327 . S
C1464 C1452 1.349 . S
C1464 H1458 0.950 . S
C1464 C1465 1.327 . S
C1465 H1459 0.950 . S
C1465 C1464 1.327 . S
C1465 C1469 1.429 . S
C1466 C1449 1.574 . S
C1466 H1460 0.949 . S
C1466 C1470 1.368 . S
C1467 C1448 1.429 . S
C1467 C1461 1.429 . S
C1467 C1468 1.523 . S
C1468 C1449 1.368 . S
C1468 C1462 1.368 . S
C1468 C1467 1.523 . S
C1469 C1453 1.429 . S
C1469 C1465 1.429 . S
C1469 C1470 1.523 . S
C1470 C1454 1.368 . S
C1470 C1466 1.368 . S
C1470 C1469 1.523 . S
H1471 C1446 0.950 . S
H1472 C1448 0.950 . S
H1473 C1449 0.949 . S
H1474 C1451 0.950 . S
H1475 C1453 0.950 . S
C1476 C1477 1.349 . S
C1476 C1478 1.327 . S
C1476 H1501 0.950 . S
C1477 C1476 1.349 . S
C1477 C1493 1.349 . S
C1478 C1476 1.327 . S
C1478 C1497 1.429 . S
C1478 H1502 0.950 . S
C1479 C1496 1.574 . S
C1479 C1498 1.368 . S
C1479 H1503 0.949 . S
H1480 C1484 0.949 . S
C1481 C1482 1.349 . S
C1481 C1483 1.327 . S
C1481 H1504 0.950 . S
C1482 C1481 1.349 . S
C1482 C1494 1.349 . S
C1483 C1481 1.327 . S
C1483 C1499 1.429 . S
C1483 H1505 0.950 . S
C1484 H1480 0.949 . S
C1484 C1492 1.574 . S
C1484 C1500 1.368 . S
H1485 C1493 0.950 . S
H1486 C1491 0.950 . S
H1487 C1492 0.949 . S
H1488 C1494 0.950 . S
H1489 C1495 0.950 . S
H1490 C1496 0.949 . S
C1491 H1486 0.950 . S
C1491 C1493 1.327 . S
C1491 C1497 1.429 . S
C1492 C1484 1.574 . S
C1492 H1487 0.949 . S
C1492 C1498 1.368 . S
C1493 C1477 1.349 . S
C1493 H1485 0.950 . S
C1493 C1491 1.327 . S
C1494 C1482 1.349 . S
C1494 H1488 0.950 . S
C1494 C1495 1.327 . S
C1495 H1489 0.950 . S
C1495 C1494 1.327 . S
C1495 C1499 1.429 . S
C1496 C1479 1.574 . S
C1496 H1490 0.949 . S
C1496 C1500 1.368 . S
C1497 C1478 1.429 . S
C1497 C1491 1.429 . S
C1497 C1498 1.523 . S
C1498 C1479 1.368 . S
C1498 C1492 1.368 . S
C1498 C1497 1.523 . S
C1499 C1483 1.429 . S
C1499 C1495 1.429 . S
C1499 C1500 1.523 . S
C1500 C1484 1.368 . S
C1500 C1496 1.368 . S
C1500 C1499 1.523 . S
H1501 C1476 0.950 . S
H1502 C1478 0.950 . S
H1503 C1479 0.949 . S
H1504 C1481 0.950 . S
H1505 C1483 0.950 . S
C1506 C1507 1.349 . S
C1506 C1508 1.327 . S
C1506 H1531 0.950 . S
C1507 C1506 1.349 . S
C1507 C1523 1.349 . S
C1508 C1506 1.327 . S
C1508 C1527 1.429 . S
C1508 H1532 0.950 . S
C1509 C1526 1.574 . S
C1509 C1528 1.368 . S
C1509 H1533 0.949 . S
H1510 C1514 0.949 . S
C1511 C1512 1.349 . S
C1511 C1513 1.327 . S
C1511 H1534 0.950 . S
C1512 C1511 1.349 . S
C1512 C1524 1.349 . S
C1513 C1511 1.327 . S
C1513 C1529 1.429 . S
C1513 H1535 0.950 . S
C1514 H1510 0.949 . S
C1514 C1522 1.574 . S
C1514 C1530 1.368 . S
H1515 C1523 0.950 . S
H1516 C1521 0.950 . S
H1517 C1522 0.949 . S
H1518 C1524 0.950 . S
H1519 C1525 0.950 . S
H1520 C1526 0.949 . S
C1521 H1516 0.950 . S
C1521 C1523 1.327 . S
C1521 C1527 1.429 . S
C1522 C1514 1.574 . S
C1522 H1517 0.949 . S
C1522 C1528 1.368 . S
C1523 C1507 1.349 . S
C1523 H1515 0.950 . S
C1523 C1521 1.327 . S
C1524 C1512 1.349 . S
C1524 H1518 0.950 . S
C1524 C1525 1.327 . S
C1525 H1519 0.950 . S
C1525 C1524 1.327 . S
C1525 C1529 1.429 . S
C1526 C1509 1.574 . S
C1526 H1520 0.949 . S
C1526 C1530 1.368 . S
C1527 C1508 1.429 . S
C1527 C1521 1.429 . S
C1527 C1528 1.523 . S
C1528 C1509 1.368 . S
C1528 C1522 1.368 . S
C1528 C1527 1.523 . S
C1529 C1513 1.429 . S
C1529 C1525 1.429 . S
C1529 C1530 1.523 . S
C1530 C1514 1.368 . S
C1530 C1526 1.368 . S
C1530 C1529 1.523 . S
H1531 C1506 0.950 . S
H1532 C1508 0.950 . S
H1533 C1509 0.949 . S
H1534 C1511 0.950 . S
H1535 C1513 0.950 . S
C1536 C1537 1.349 . S
C1536 C1538 1.327 . S
C1536 H1561 0.950 . S
C1537 C1536 1.349 . S
C1537 C1553 1.349 . S
C1538 C1536 1.327 . S
C1538 C1557 1.429 . S
C1538 H1562 0.950 . S
C1539 C1556 1.574 . S
C1539 C1558 1.368 . S
C1539 H1563 0.949 . S
H1540 C1544 0.949 . S
C1541 C1542 1.349 . S
C1541 C1543 1.327 . S
C1541 H1564 0.950 . S
C1542 C1541 1.349 . S
C1542 C1554 1.349 . S
C1543 C1541 1.327 . S
C1543 C1559 1.429 . S
C1543 H1565 0.950 . S
C1544 H1540 0.949 . S
C1544 C1552 1.574 . S
C1544 C1560 1.368 . S
H1545 C1553 0.950 . S
H1546 C1551 0.950 . S
H1547 C1552 0.949 . S
H1548 C1554 0.950 . S
H1549 C1555 0.950 . S
H1550 C1556 0.949 . S
C1551 H1546 0.950 . S
C1551 C1553 1.327 . S
C1551 C1557 1.429 . S
C1552 C1544 1.574 . S
C1552 H1547 0.949 . S
C1552 C1558 1.368 . S
C1553 C1537 1.349 . S
C1553 H1545 0.950 . S
C1553 C1551 1.327 . S
C1554 C1542 1.349 . S
C1554 H1548 0.950 . S
C1554 C1555 1.327 . S
C1555 H1549 0.950 . S
C1555 C1554 1.327 . S
C1555 C1559 1.429 . S
C1556 C1539 1.574 . S
C1556 H1550 0.949 . S
C1556 C1560 1.368 . S
C1557 C1538 1.429 . S
C1557 C1551 1.429 . S
C1557 C1558 1.523 . S
C1558 C1539 1.368 . S
C1558 C1552 1.368 . S
C1558 C1557 1.523 . S
C1559 C1543 1.429 . S
C1559 C1555 1.429 . S
C1559 C1560 1.523 . S
C1560 C1544 1.368 . S
C1560 C1556 1.368 . S
C1560 C1559 1.523 . S
H1561 C1536 0.950 . S
H1562 C1538 0.950 . S
H1563 C1539 0.949 . S
H1564 C1541 0.950 . S
H1565 C1543 0.950 . S
C1566 C1567 1.349 . S
C1566 C1568 1.327 . S
C1566 H1591 0.950 . S
C1567 C1566 1.349 . S
C1567 C1583 1.349 . S
C1568 C1566 1.327 . S
C1568 C1587 1.429 . S
C1568 H1592 0.950 . S
C1569 C1586 1.574 . S
C1569 C1588 1.368 . S
C1569 H1593 0.949 . S
H1570 C1574 0.949 . S
C1571 C1572 1.349 . S
C1571 C1573 1.327 . S
C1571 H1594 0.950 . S
C1572 C1571 1.349 . S
C1572 C1584 1.349 . S
C1573 C1571 1.327 . S
C1573 C1589 1.429 . S
C1573 H1595 0.950 . S
C1574 H1570 0.949 . S
C1574 C1582 1.574 . S
C1574 C1590 1.368 . S
H1575 C1583 0.950 . S
H1576 C1581 0.950 . S
H1577 C1582 0.949 . S
H1578 C1584 0.950 . S
H1579 C1585 0.950 . S
H1580 C1586 0.949 . S
C1581 H1576 0.950 . S
C1581 C1583 1.327 . S
C1581 C1587 1.429 . S
C1582 C1574 1.574 . S
C1582 H1577 0.949 . S
C1582 C1588 1.368 . S
C1583 C1567 1.349 . S
C1583 H1575 0.950 . S
C1583 C1581 1.327 . S
C1584 C1572 1.349 . S
C1584 H1578 0.950 . S
C1584 C1585 1.327 . S
C1585 H1579 0.950 . S
C1585 C1584 1.327 . S
C1585 C1589 1.429 . S
C1586 C1569 1.574 . S
C1586 H1580 0.949 . S
C1586 C1590 1.368 . S
C1587 C1568 1.429 . S
C1587 C1581 1.429 . S
C1587 C1588 1.523 . S
C1588 C1569 1.368 . S
C1588 C1582 1.368 . S
C1588 C1587 1.523 . S
C1589 C1573 1.429 . S
C1589 C1585 1.429 . S
C1589 C1590 1.523 . S
C1590 C1574 1.368 . S
C1590 C1586 1.368 . S
C1590 C1589 1.523 . S
H1591 C1566 0.950 . S
H1592 C1568 0.950 . S
H1593 C1569 0.949 . S
H1594 C1571 0.950 . S
H1595 C1573 0.950 . S
C1596 C1597 1.349 . S
C1596 C1598 1.327 . S
C1596 H1621 0.950 . S
C1597 C1596 1.349 . S
C1597 C1613 1.349 . S
C1598 C1596 1.327 . S
C1598 C1617 1.429 . S
C1598 H1622 0.950 . S
C1599 C1616 1.574 . S
C1599 C1618 1.368 . S
C1599 H1623 0.949 . S
H1600 C1604 0.949 . S
C1601 C1602 1.349 . S
C1601 C1603 1.327 . S
C1601 H1624 0.950 . S
C1602 C1601 1.349 . S
C1602 C1614 1.349 . S
C1603 C1601 1.327 . S
C1603 C1619 1.429 . S
C1603 H1625 0.950 . S
C1604 H1600 0.949 . S
C1604 C1612 1.574 . S
C1604 C1620 1.368 . S
H1605 C1613 0.950 . S
H1606 C1611 0.950 . S
H1607 C1612 0.949 . S
H1608 C1614 0.950 . S
H1609 C1615 0.950 . S
H1610 C1616 0.949 . S
C1611 H1606 0.950 . S
C1611 C1613 1.327 . S
C1611 C1617 1.429 . S
C1612 C1604 1.574 . S
C1612 H1607 0.949 . S
C1612 C1618 1.368 . S
C1613 C1597 1.349 . S
C1613 H1605 0.950 . S
C1613 C1611 1.327 . S
C1614 C1602 1.349 . S
C1614 H1608 0.950 . S
C1614 C1615 1.327 . S
C1615 H1609 0.950 . S
C1615 C1614 1.327 . S
C1615 C1619 1.429 . S
C1616 C1599 1.574 . S
C1616 H1610 0.949 . S
C1616 C1620 1.368 . S
C1617 C1598 1.429 . S
C1617 C1611 1.429 . S
C1617 C1618 1.523 . S
C1618 C1599 1.368 . S
C1618 C1612 1.368 . S
C1618 C1617 1.523 . S
C1619 C1603 1.429 . S
C1619 C1615 1.429 . S
C1619 C1620 1.523 . S
C1620 C1604 1.368 . S
C1620 C1616 1.368 . S
C1620 C1619 1.523 . S
H1621 C1596 0.950 . S
H1622 C1598 0.950 . S
H1623 C1599 0.949 . S
H1624 C1601 0.950 . S
H1625 C1603 0.950 . S
C1626 C1627 1.349 . S
C1626 C1628 1.327 . S
C1626 H1651 0.950 . S
C1627 C1626 1.349 . S
C1627 C1643 1.349 . S
C1628 C1626 1.327 . S
C1628 C1647 1.429 . S
C1628 H1652 0.950 . S
C1629 C1646 1.574 . S
C1629 C1648 1.368 . S
C1629 H1653 0.949 . S
H1630 C1634 0.949 . S
C1631 C1632 1.349 . S
C1631 C1633 1.327 . S
C1631 H1654 0.950 . S
C1632 C1631 1.349 . S
C1632 C1644 1.349 . S
C1633 C1631 1.327 . S
C1633 C1649 1.429 . S
C1633 H1655 0.950 . S
C1634 H1630 0.949 . S
C1634 C1642 1.574 . S
C1634 C1650 1.368 . S
H1635 C1643 0.950 . S
H1636 C1641 0.950 . S
H1637 C1642 0.949 . S
H1638 C1644 0.950 . S
H1639 C1645 0.950 . S
H1640 C1646 0.949 . S
C1641 H1636 0.950 . S
C1641 C1643 1.327 . S
C1641 C1647 1.429 . S
C1642 C1634 1.574 . S
C1642 H1637 0.949 . S
C1642 C1648 1.368 . S
C1643 C1627 1.349 . S
C1643 H1635 0.950 . S
C1643 C1641 1.327 . S
C1644 C1632 1.349 . S
C1644 H1638 0.950 . S
C1644 C1645 1.327 . S
C1645 H1639 0.950 . S
C1645 C1644 1.327 . S
C1645 C1649 1.429 . S
C1646 C1629 1.574 . S
C1646 H1640 0.949 . S
C1646 C1650 1.368 . S
C1647 C1628 1.429 . S
C1647 C1641 1.429 . S
C1647 C1648 1.523 . S
C1648 C1629 1.368 . S
C1648 C1642 1.368 . S
C1648 C1647 1.523 . S
C1649 C1633 1.429 . S
C1649 C1645 1.429 . S
C1649 C1650 1.523 . S
C1650 C1634 1.368 . S
C1650 C1646 1.368 . S
C1650 C1649 1.523 . S
H1651 C1626 0.950 . S
H1652 C1628 0.950 . S
H1653 C1629 0.949 . S
H1654 C1631 0.950 . S
H1655 C1633 0.950 . S
C1656 C1657 1.349 . S
C1656 C1658 1.327 . S
C1656 H1681 0.950 . S
C1657 C1656 1.349 . S
C1657 C1673 1.349 . S
C1658 C1656 1.327 . S
C1658 C1677 1.429 . S
C1658 H1682 0.950 . S
C1659 C1676 1.574 . S
C1659 C1678 1.368 1_556 S
C1659 H1683 0.949 1_556 S
H1660 C1664 0.949 . S
C1661 C1662 1.349 . S
C1661 C1663 1.327 . S
C1661 H1684 0.950 . S
C1662 C1661 1.349 . S
C1662 C1674 1.349 . S
C1663 C1661 1.327 . S
C1663 C1679 1.429 . S
C1663 H1685 0.950 . S
C1664 H1660 0.949 . S
C1664 C1672 1.574 . S
C1664 C1680 1.368 . S
H1665 C1673 0.950 . S
H1666 C1671 0.950 . S
H1667 C1672 0.949 1_554 S
H1668 C1674 0.950 . S
H1669 C1675 0.950 . S
H1670 C1676 0.949 . S
C1671 H1666 0.950 . S
C1671 C1673 1.327 . S
C1671 C1677 1.429 . S
C1672 C1664 1.574 . S
C1672 H1667 0.949 1_556 S
C1672 C1678 1.368 1_556 S
C1673 C1657 1.349 . S
C1673 H1665 0.950 . S
C1673 C1671 1.327 . S
C1674 C1662 1.349 . S
C1674 H1668 0.950 . S
C1674 C1675 1.327 . S
C1675 H1669 0.950 . S
C1675 C1674 1.327 . S
C1675 C1679 1.429 . S
C1676 C1659 1.574 . S
C1676 H1670 0.949 . S
C1676 C1680 1.368 . S
C1677 C1658 1.429 . S
C1677 C1671 1.429 . S
C1677 C1678 1.523 . S
C1678 C1659 1.368 1_554 S
C1678 C1672 1.368 1_554 S
C1678 C1677 1.523 . S
C1679 C1663 1.429 . S
C1679 C1675 1.429 . S
C1679 C1680 1.523 . S
C1680 C1664 1.368 . S
C1680 C1676 1.368 . S
C1680 C1679 1.523 . S
H1681 C1656 0.950 . S
H1682 C1658 0.950 . S
H1683 C1659 0.949 1_554 S
H1684 C1661 0.950 . S
H1685 C1663 0.950 . S
C1686 C1687 1.349 . S
C1686 C1688 1.327 . S
C1686 H1711 0.950 . S
C1687 C1686 1.349 . S
C1687 C1703 1.349 . S
C1688 C1686 1.327 . S
C1688 C1707 1.429 . S
C1688 H1712 0.950 . S
C1689 C1706 1.574 1_554 S
C1689 C1708 1.368 . S
C1689 H1713 0.949 . S
H1690 C1694 0.949 . S
C1691 C1692 1.349 . S
C1691 C1693 1.327 . S
C1691 H1714 0.950 . S
C1692 C1691 1.349 . S
C1692 C1704 1.349 . S
C1693 C1691 1.327 . S
C1693 C1709 1.429 . S
C1693 H1715 0.950 . S
C1694 H1690 0.949 . S
C1694 C1702 1.574 1_556 S
C1694 C1710 1.368 . S
H1695 C1703 0.950 . S
H1696 C1701 0.950 . S
H1697 C1702 0.949 . S
H1698 C1704 0.950 . S
H1699 C1705 0.950 . S
H1700 C1706 0.949 . S
C1701 H1696 0.950 . S
C1701 C1703 1.327 . S
C1701 C1707 1.429 . S
C1702 C1694 1.574 1_554 S
C1702 H1697 0.949 . S
C1702 C1708 1.368 . S
C1703 C1687 1.349 . S
C1703 H1695 0.950 . S
C1703 C1701 1.327 . S
C1704 C1692 1.349 . S
C1704 H1698 0.950 . S
C1704 C1705 1.327 . S
C1705 H1699 0.950 . S
C1705 C1704 1.327 . S
C1705 C1709 1.429 . S
C1706 C1689 1.574 1_556 S
C1706 H1700 0.949 . S
C1706 C1710 1.368 . S
C1707 C1688 1.429 . S
C1707 C1701 1.429 . S
C1707 C1708 1.523 . S
C1708 C1689 1.368 . S
C1708 C1702 1.368 . S
C1708 C1707 1.523 . S
C1709 C1693 1.429 . S
C1709 C1705 1.429 . S
C1709 C1710 1.523 . S
C1710 C1694 1.368 . S
C1710 C1706 1.368 . S
C1710 C1709 1.523 . S
H1711 C1686 0.950 . S
H1712 C1688 0.950 . S
H1713 C1689 0.949 . S
H1714 C1691 0.950 . S
H1715 C1693 0.950 . S
C1716 C1717 1.349 . S
C1716 C1718 1.327 . S
C1716 H1741 0.950 . S
C1717 C1716 1.349 . S
C1717 C1733 1.349 . S
C1718 C1716 1.327 . S
C1718 C1737 1.429 . S
C1718 H1742 0.950 . S
C1719 C1736 1.574 . S
C1719 C1738 1.368 1_556 S
C1719 H1743 0.949 1_556 S
H1720 C1724 0.949 . S
C1721 C1722 1.349 . S
C1721 C1723 1.327 . S
C1721 H1744 0.950 . S
C1722 C1721 1.349 . S
C1722 C1734 1.349 . S
C1723 C1721 1.327 . S
C1723 C1739 1.429 . S
C1723 H1745 0.950 . S
C1724 H1720 0.949 . S
C1724 C1732 1.574 . S
C1724 C1740 1.368 . S
H1725 C1733 0.950 . S
H1726 C1731 0.950 . S
H1727 C1732 0.949 1_554 S
H1728 C1734 0.950 . S
H1729 C1735 0.950 . S
H1730 C1736 0.949 . S
C1731 H1726 0.950 . S
C1731 C1733 1.327 . S
C1731 C1737 1.429 . S
C1732 C1724 1.574 . S
C1732 H1727 0.949 1_556 S
C1732 C1738 1.368 1_556 S
C1733 C1717 1.349 . S
C1733 H1725 0.950 . S
C1733 C1731 1.327 . S
C1734 C1722 1.349 . S
C1734 H1728 0.950 . S
C1734 C1735 1.327 . S
C1735 H1729 0.950 . S
C1735 C1734 1.327 . S
C1735 C1739 1.429 . S
C1736 C1719 1.574 . S
C1736 H1730 0.949 . S
C1736 C1740 1.368 . S
C1737 C1718 1.429 . S
C1737 C1731 1.429 . S
C1737 C1738 1.523 . S
C1738 C1719 1.368 1_554 S
C1738 C1732 1.368 1_554 S
C1738 C1737 1.523 . S
C1739 C1723 1.429 . S
C1739 C1735 1.429 . S
C1739 C1740 1.523 . S
C1740 C1724 1.368 . S
C1740 C1736 1.368 . S
C1740 C1739 1.523 . S
H1741 C1716 0.950 . S
H1742 C1718 0.950 . S
H1743 C1719 0.949 1_554 S
H1744 C1721 0.950 . S
H1745 C1723 0.950 . S
C1746 C1747 1.349 . S
C1746 C1748 1.327 . S
C1746 H1771 0.950 . S
C1747 C1746 1.349 . S
C1747 C1763 1.349 . S
C1748 C1746 1.327 . S
C1748 C1767 1.429 . S
C1748 H1772 0.950 . S
C1749 C1766 1.574 1_556 S
C1749 C1768 1.368 . S
C1749 H1773 0.949 . S
H1750 C1754 0.949 . S
C1751 C1752 1.349 . S
C1751 C1753 1.327 . S
C1751 H1774 0.950 . S
C1752 C1751 1.349 . S
C1752 C1764 1.349 . S
C1753 C1751 1.327 . S
C1753 C1769 1.429 . S
C1753 H1775 0.950 . S
C1754 H1750 0.949 . S
C1754 C1762 1.574 1_554 S
C1754 C1770 1.368 . S
H1755 C1763 0.950 . S
H1756 C1761 0.950 . S
H1757 C1762 0.949 . S
H1758 C1764 0.950 . S
H1759 C1765 0.950 . S
H1760 C1766 0.949 . S
C1761 H1756 0.950 . S
C1761 C1763 1.327 . S
C1761 C1767 1.429 . S
C1762 C1754 1.574 1_556 S
C1762 H1757 0.949 . S
C1762 C1768 1.368 . S
C1763 C1747 1.349 . S
C1763 H1755 0.950 . S
C1763 C1761 1.327 . S
C1764 C1752 1.349 . S
C1764 H1758 0.950 . S
C1764 C1765 1.327 . S
C1765 H1759 0.950 . S
C1765 C1764 1.327 . S
C1765 C1769 1.429 . S
C1766 C1749 1.574 1_554 S
C1766 H1760 0.949 . S
C1766 C1770 1.368 . S
C1767 C1748 1.429 . S
C1767 C1761 1.429 . S
C1767 C1768 1.523 . S
C1768 C1749 1.368 . S
C1768 C1762 1.368 . S
C1768 C1767 1.523 . S
C1769 C1753 1.429 . S
C1769 C1765 1.429 . S
C1769 C1770 1.523 . S
C1770 C1754 1.368 . S
C1770 C1766 1.368 . S
C1770 C1769 1.523 . S
H1771 C1746 0.950 . S
H1772 C1748 0.950 . S
H1773 C1749 0.949 . S
H1774 C1751 0.950 . S
H1775 C1753 0.950 . S
C1776 C1777 1.349 . S
C1776 C1778 1.327 . S
C1776 H1801 0.950 . S
C1777 C1776 1.349 . S
C1777 C1793 1.349 . S
C1778 C1776 1.327 . S
C1778 C1797 1.429 . S
C1778 H1802 0.950 . S
C1779 C1796 1.574 . S
C1779 C1798 1.368 1_556 S
C1779 H1803 0.949 1_556 S
H1780 C1784 0.949 . S
C1781 C1782 1.349 . S
C1781 C1783 1.327 . S
C1781 H1804 0.950 . S
C1782 C1781 1.349 . S
C1782 C1794 1.349 . S
C1783 C1781 1.327 . S
C1783 C1799 1.429 . S
C1783 H1805 0.950 . S
C1784 H1780 0.949 . S
C1784 C1792 1.574 . S
C1784 C1800 1.368 . S
H1785 C1793 0.950 . S
H1786 C1791 0.950 . S
H1787 C1792 0.949 1_554 S
H1788 C1794 0.950 . S
H1789 C1795 0.950 . S
H1790 C1796 0.949 . S
C1791 H1786 0.950 . S
C1791 C1793 1.327 . S
C1791 C1797 1.429 . S
C1792 C1784 1.574 . S
C1792 H1787 0.949 1_556 S
C1792 C1798 1.368 1_556 S
C1793 C1777 1.349 . S
C1793 H1785 0.950 . S
C1793 C1791 1.327 . S
C1794 C1782 1.349 . S
C1794 H1788 0.950 . S
C1794 C1795 1.327 . S
C1795 H1789 0.950 . S
C1795 C1794 1.327 . S
C1795 C1799 1.429 . S
C1796 C1779 1.574 . S
C1796 H1790 0.949 . S
C1796 C1800 1.368 . S
C1797 C1778 1.429 . S
C1797 C1791 1.429 . S
C1797 C1798 1.523 . S
C1798 C1779 1.368 1_554 S
C1798 C1792 1.368 1_554 S
C1798 C1797 1.523 . S
C1799 C1783 1.429 . S
C1799 C1795 1.429 . S
C1799 C1800 1.523 . S
C1800 C1784 1.368 . S
C1800 C1796 1.368 . S
C1800 C1799 1.523 . S
H1801 C1776 0.950 . S
H1802 C1778 0.950 . S
H1803 C1779 0.949 1_554 S
H1804 C1781 0.950 . S
H1805 C1783 0.950 . S
C1806 C1807 1.349 . S
C1806 C1808 1.327 . S
C1806 H1831 0.950 . S
C1807 C1806 1.349 . S
C1807 C1823 1.349 . S
C1808 C1806 1.327 . S
C1808 C1827 1.429 . S
C1808 H1832 0.950 . S
C1809 C1826 1.574 1_554 S
C1809 C1828 1.368 . S
C1809 H1833 0.949 . S
H1810 C1814 0.949 . S
C1811 C1812 1.349 . S
C1811 C1813 1.327 . S
C1811 H1834 0.950 . S
C1812 C1811 1.349 . S
C1812 C1824 1.349 . S
C1813 C1811 1.327 . S
C1813 C1829 1.429 . S
C1813 H1835 0.950 . S
C1814 H1810 0.949 . S
C1814 C1822 1.574 1_556 S
C1814 C1830 1.368 . S
H1815 C1823 0.950 . S
H1816 C1821 0.950 . S
H1817 C1822 0.949 . S
H1818 C1824 0.950 . S
H1819 C1825 0.950 . S
H1820 C1826 0.949 . S
C1821 H1816 0.950 . S
C1821 C1823 1.327 . S
C1821 C1827 1.429 . S
C1822 C1814 1.574 1_554 S
C1822 H1817 0.949 . S
C1822 C1828 1.368 . S
C1823 C1807 1.349 . S
C1823 H1815 0.950 . S
C1823 C1821 1.327 . S
C1824 C1812 1.349 . S
C1824 H1818 0.950 . S
C1824 C1825 1.327 . S
C1825 H1819 0.950 . S
C1825 C1824 1.327 . S
C1825 C1829 1.429 . S
C1826 C1809 1.574 1_556 S
C1826 H1820 0.949 . S
C1826 C1830 1.368 . S
C1827 C1808 1.429 . S
C1827 C1821 1.429 . S
C1827 C1828 1.523 . S
C1828 C1809 1.368 . S
C1828 C1822 1.368 . S
C1828 C1827 1.523 . S
C1829 C1813 1.429 . S
C1829 C1825 1.429 . S
C1829 C1830 1.523 . S
C1830 C1814 1.368 . S
C1830 C1826 1.368 . S
C1830 C1829 1.523 . S
H1831 C1806 0.950 . S
H1832 C1808 0.950 . S
H1833 C1809 0.949 . S
H1834 C1811 0.950 . S
H1835 C1813 0.950 . S
C1836 C1837 1.349 . S
C1836 C1838 1.327 . S
C1836 H1861 0.950 . S
C1837 C1836 1.349 . S
C1837 C1853 1.349 . S
C1838 C1836 1.327 . S
C1838 C1857 1.429 . S
C1838 H1862 0.950 . S
C1839 C1856 1.574 . S
C1839 C1858 1.368 . S
C1839 H1863 0.949 . S
H1840 C1844 0.949 . S
C1841 C1842 1.349 . S
C1841 C1843 1.327 . S
C1841 H1864 0.950 . S
C1842 C1841 1.349 . S
C1842 C1854 1.349 . S
C1843 C1841 1.327 . S
C1843 C1859 1.429 . S
C1843 H1865 0.950 . S
C1844 H1840 0.949 . S
C1844 C1852 1.574 . S
C1844 C1860 1.368 . S
H1845 C1853 0.950 . S
H1846 C1851 0.950 . S
H1847 C1852 0.949 . S
H1848 C1854 0.950 . S
H1849 C1855 0.950 . S
H1850 C1856 0.949 . S
C1851 H1846 0.950 . S
C1851 C1853 1.327 . S
C1851 C1857 1.429 . S
C1852 C1844 1.574 . S
C1852 H1847 0.949 . S
C1852 C1858 1.368 . S
C1853 C1837 1.349 . S
C1853 H1845 0.950 . S
C1853 C1851 1.327 . S
C1854 C1842 1.349 . S
C1854 H1848 0.950 . S
C1854 C1855 1.327 . S
C1855 H1849 0.950 . S
C1855 C1854 1.327 . S
C1855 C1859 1.429 . S
C1856 C1839 1.574 . S
C1856 H1850 0.949 . S
C1856 C1860 1.368 . S
C1857 C1838 1.429 . S
C1857 C1851 1.429 . S
C1857 C1858 1.523 . S
C1858 C1839 1.368 . S
C1858 C1852 1.368 . S
C1858 C1857 1.523 . S
C1859 C1843 1.429 . S
C1859 C1855 1.429 . S
C1859 C1860 1.523 . S
C1860 C1844 1.368 . S
C1860 C1856 1.368 . S
C1860 C1859 1.523 . S
H1861 C1836 0.950 . S
H1862 C1838 0.950 . S
H1863 C1839 0.949 . S
H1864 C1841 0.950 . S
H1865 C1843 0.950 . S
C1866 C1867 1.349 . S
C1866 C1868 1.327 . S
C1866 H1891 0.950 . S
C1867 C1866 1.349 . S
C1867 C1883 1.349 . S
C1868 C1866 1.327 . S
C1868 C1887 1.429 . S
C1868 H1892 0.950 . S
C1869 C1886 1.574 . S
C1869 C1888 1.368 . S
C1869 H1893 0.949 . S
H1870 C1874 0.949 . S
C1871 C1872 1.349 . S
C1871 C1873 1.327 . S
C1871 H1894 0.950 . S
C1872 C1871 1.349 . S
C1872 C1884 1.349 . S
C1873 C1871 1.327 . S
C1873 C1889 1.429 . S
C1873 H1895 0.950 . S
C1874 H1870 0.949 . S
C1874 C1882 1.574 . S
C1874 C1890 1.368 . S
H1875 C1883 0.950 . S
H1876 C1881 0.950 . S
H1877 C1882 0.949 . S
H1878 C1884 0.950 . S
H1879 C1885 0.950 . S
H1880 C1886 0.949 . S
C1881 H1876 0.950 . S
C1881 C1883 1.327 . S
C1881 C1887 1.429 . S
C1882 C1874 1.574 . S
C1882 H1877 0.949 . S
C1882 C1888 1.368 . S
C1883 C1867 1.349 . S
C1883 H1875 0.950 . S
C1883 C1881 1.327 . S
C1884 C1872 1.349 . S
C1884 H1878 0.950 . S
C1884 C1885 1.327 . S
C1885 H1879 0.950 . S
C1885 C1884 1.327 . S
C1885 C1889 1.429 . S
C1886 C1869 1.574 . S
C1886 H1880 0.949 . S
C1886 C1890 1.368 . S
C1887 C1868 1.429 . S
C1887 C1881 1.429 . S
C1887 C1888 1.523 . S
C1888 C1869 1.368 . S
C1888 C1882 1.368 . S
C1888 C1887 1.523 . S
C1889 C1873 1.429 . S
C1889 C1885 1.429 . S
C1889 C1890 1.523 . S
C1890 C1874 1.368 . S
C1890 C1886 1.368 . S
C1890 C1889 1.523 . S
H1891 C1866 0.950 . S
H1892 C1868 0.950 . S
H1893 C1869 0.949 . S
H1894 C1871 0.950 . S
H1895 C1873 0.950 . S
C1896 C1897 1.349 . S
C1896 C1898 1.327 . S
C1896 H1921 0.950 . S
C1897 C1896 1.349 . S
C1897 C1913 1.349 . S
C1898 C1896 1.327 . S
C1898 C1917 1.429 . S
C1898 H1922 0.950 . S
C1899 C1916 1.574 . S
C1899 C1918 1.368 . S
C1899 H1923 0.949 . S
H1900 C1904 0.949 . S
C1901 C1902 1.349 . S
C1901 C1903 1.327 . S
C1901 H1924 0.950 . S
C1902 C1901 1.349 . S
C1902 C1914 1.349 . S
C1903 C1901 1.327 . S
C1903 C1919 1.429 . S
C1903 H1925 0.950 . S
C1904 H1900 0.949 . S
C1904 C1912 1.574 . S
C1904 C1920 1.368 . S
H1905 C1913 0.950 . S
H1906 C1911 0.950 . S
H1907 C1912 0.949 . S
H1908 C1914 0.950 . S
H1909 C1915 0.950 . S
H1910 C1916 0.949 . S
C1911 H1906 0.950 . S
C1911 C1913 1.327 . S
C1911 C1917 1.429 . S
C1912 C1904 1.574 . S
C1912 H1907 0.949 . S
C1912 C1918 1.368 . S
C1913 C1897 1.349 . S
C1913 H1905 0.950 . S
C1913 C1911 1.327 . S
C1914 C1902 1.349 . S
C1914 H1908 0.950 . S
C1914 C1915 1.327 . S
C1915 H1909 0.950 . S
C1915 C1914 1.327 . S
C1915 C1919 1.429 . S
C1916 C1899 1.574 . S
C1916 H1910 0.949 . S
C1916 C1920 1.368 . S
C1917 C1898 1.429 . S
C1917 C1911 1.429 . S
C1917 C1918 1.523 . S
C1918 C1899 1.368 . S
C1918 C1912 1.368 . S
C1918 C1917 1.523 . S
C1919 C1903 1.429 . S
C1919 C1915 1.429 . S
C1919 C1920 1.523 . S
C1920 C1904 1.368 . S
C1920 C1916 1.368 . S
C1920 C1919 1.523 . S
H1921 C1896 0.950 . S
H1922 C1898 0.950 . S
H1923 C1899 0.949 . S
H1924 C1901 0.950 . S
H1925 C1903 0.950 . S
C1926 C1927 1.349 . S
C1926 C1928 1.327 . S
C1926 H1951 0.950 . S
C1927 C1926 1.349 . S
C1927 C1943 1.349 . S
C1928 C1926 1.327 . S
C1928 C1947 1.429 . S
C1928 H1952 0.950 . S
C1929 C1946 1.574 . S
C1929 C1948 1.368 . S
C1929 H1953 0.949 . S
H1930 C1934 0.949 . S
C1931 C1932 1.349 . S
C1931 C1933 1.327 . S
C1931 H1954 0.950 . S
C1932 C1931 1.349 . S
C1932 C1944 1.349 . S
C1933 C1931 1.327 . S
C1933 C1949 1.429 . S
C1933 H1955 0.950 . S
C1934 H1930 0.949 . S
C1934 C1942 1.574 . S
C1934 C1950 1.368 . S
H1935 C1943 0.950 . S
H1936 C1941 0.950 . S
H1937 C1942 0.949 . S
H1938 C1944 0.950 . S
H1939 C1945 0.950 . S
H1940 C1946 0.949 . S
C1941 H1936 0.950 . S
C1941 C1943 1.327 . S
C1941 C1947 1.429 . S
C1942 C1934 1.574 . S
C1942 H1937 0.949 . S
C1942 C1948 1.368 . S
C1943 C1927 1.349 . S
C1943 H1935 0.950 . S
C1943 C1941 1.327 . S
C1944 C1932 1.349 . S
C1944 H1938 0.950 . S
C1944 C1945 1.327 . S
C1945 H1939 0.950 . S
C1945 C1944 1.327 . S
C1945 C1949 1.429 . S
C1946 C1929 1.574 . S
C1946 H1940 0.949 . S
C1946 C1950 1.368 . S
C1947 C1928 1.429 . S
C1947 C1941 1.429 . S
C1947 C1948 1.523 . S
C1948 C1929 1.368 . S
C1948 C1942 1.368 . S
C1948 C1947 1.523 . S
C1949 C1933 1.429 . S
C1949 C1945 1.429 . S
C1949 C1950 1.523 . S
C1950 C1934 1.368 . S
C1950 C1946 1.368 . S
C1950 C1949 1.523 . S
H1951 C1926 0.950 . S
H1952 C1928 0.950 . S
H1953 C1929 0.949 . S
H1954 C1931 0.950 . S
H1955 C1933 0.950 . S
C1956 C1957 1.349 . S
C1956 C1958 1.327 . S
C1956 H1981 0.950 . S
C1957 C1956 1.349 . S
C1957 C1973 1.349 . S
C1958 C1956 1.327 . S
C1958 C1977 1.429 . S
C1958 H1982 0.950 . S
C1959 C1976 1.574 . S
C1959 C1978 1.368 . S
C1959 H1983 0.949 . S
H1960 C1964 0.949 . S
C1961 C1962 1.349 . S
C1961 C1963 1.327 . S
C1961 H1984 0.950 . S
C1962 C1961 1.349 . S
C1962 C1974 1.349 . S
C1963 C1961 1.327 . S
C1963 C1979 1.429 . S
C1963 H1985 0.950 . S
C1964 H1960 0.949 . S
C1964 C1972 1.574 . S
C1964 C1980 1.368 . S
H1965 C1973 0.950 . S
H1966 C1971 0.950 . S
H1967 C1972 0.949 . S
H1968 C1974 0.950 . S
H1969 C1975 0.950 . S
H1970 C1976 0.949 . S
C1971 H1966 0.950 . S
C1971 C1973 1.327 . S
C1971 C1977 1.429 . S
C1972 C1964 1.574 . S
C1972 H1967 0.949 . S
C1972 C1978 1.368 . S
C1973 C1957 1.349 . S
C1973 H1965 0.950 . S
C1973 C1971 1.327 . S
C1974 C1962 1.349 . S
C1974 H1968 0.950 . S
C1974 C1975 1.327 . S
C1975 H1969 0.950 . S
C1975 C1974 1.327 . S
C1975 C1979 1.429 . S
C1976 C1959 1.574 . S
C1976 H1970 0.949 . S
C1976 C1980 1.368 . S
C1977 C1958 1.429 . S
C1977 C1971 1.429 . S
C1977 C1978 1.523 . S
C1978 C1959 1.368 . S
C1978 C1972 1.368 . S
C1978 C1977 1.523 . S
C1979 C1963 1.429 . S
C1979 C1975 1.429 . S
C1979 C1980 1.523 . S
C1980 C1964 1.368 . S
C1980 C1976 1.368 . S
C1980 C1979 1.523 . S
H1981 C1956 0.950 . S
H1982 C1958 0.950 . S
H1983 C1959 0.949 . S
H1984 C1961 0.950 . S
H1985 C1963 0.950 . S
C1986 C1987 1.349 . S
C1986 C1988 1.327 . S
C1986 H2011 0.950 . S
C1987 C1986 1.349 . S
C1987 C2003 1.349 . S
C1988 C1986 1.327 . S
C1988 C2007 1.429 . S
C1988 H2012 0.950 . S
C1989 C2006 1.574 . S
C1989 C2008 1.368 . S
C1989 H2013 0.949 . S
H1990 C1994 0.949 . S
C1991 C1992 1.349 . S
C1991 C1993 1.327 . S
C1991 H2014 0.950 . S
C1992 C1991 1.349 . S
C1992 C2004 1.349 . S
C1993 C1991 1.327 . S
C1993 C2009 1.429 . S
C1993 H2015 0.950 . S
C1994 H1990 0.949 . S
C1994 C2002 1.574 . S
C1994 C2010 1.368 . S
H1995 C2003 0.950 . S
H1996 C2001 0.950 . S
H1997 C2002 0.949 . S
H1998 C2004 0.950 . S
H1999 C2005 0.950 . S
H2000 C2006 0.949 . S
C2001 H1996 0.950 . S
C2001 C2003 1.327 . S
C2001 C2007 1.429 . S
C2002 C1994 1.574 . S
C2002 H1997 0.949 . S
C2002 C2008 1.368 . S
C2003 C1987 1.349 . S
C2003 H1995 0.950 . S
C2003 C2001 1.327 . S
C2004 C1992 1.349 . S
C2004 H1998 0.950 . S
C2004 C2005 1.327 . S
C2005 H1999 0.950 . S
C2005 C2004 1.327 . S
C2005 C2009 1.429 . S
C2006 C1989 1.574 . S
C2006 H2000 0.949 . S
C2006 C2010 1.368 . S
C2007 C1988 1.429 . S
C2007 C2001 1.429 . S
C2007 C2008 1.523 . S
C2008 C1989 1.368 . S
C2008 C2002 1.368 . S
C2008 C2007 1.523 . S
C2009 C1993 1.429 . S
C2009 C2005 1.429 . S
C2009 C2010 1.523 . S
C2010 C1994 1.368 . S
C2010 C2006 1.368 . S
C2010 C2009 1.523 . S
H2011 C1986 0.950 . S
H2012 C1988 0.950 . S
H2013 C1989 0.949 . S
H2014 C1991 0.950 . S
H2015 C1993 0.950 . S
C2016 C2017 1.349 . S
C2016 C2018 1.327 . S
C2016 H2041 0.950 . S
C2017 C2016 1.349 . S
C2017 C2033 1.349 . S
C2018 C2016 1.327 . S
C2018 C2037 1.429 . S
C2018 H2042 0.950 . S
C2019 C2036 1.574 . S
C2019 C2038 1.368 . S
C2019 H2043 0.949 . S
H2020 C2024 0.949 . S
C2021 C2022 1.349 . S
C2021 C2023 1.327 . S
C2021 H2044 0.950 . S
C2022 C2021 1.349 . S
C2022 C2034 1.349 . S
C2023 C2021 1.327 . S
C2023 C2039 1.429 . S
C2023 H2045 0.950 . S
C2024 H2020 0.949 . S
C2024 C2032 1.574 . S
C2024 C2040 1.368 . S
H2025 C2033 0.950 . S
H2026 C2031 0.950 . S
H2027 C2032 0.949 . S
H2028 C2034 0.950 . S
H2029 C2035 0.950 . S
H2030 C2036 0.949 . S
C2031 H2026 0.950 . S
C2031 C2033 1.327 . S
C2031 C2037 1.429 . S
C2032 C2024 1.574 . S
C2032 H2027 0.949 . S
C2032 C2038 1.368 . S
C2033 C2017 1.349 . S
C2033 H2025 0.950 . S
C2033 C2031 1.327 . S
C2034 C2022 1.349 . S
C2034 H2028 0.950 . S
C2034 C2035 1.327 . S
C2035 H2029 0.950 . S
C2035 C2034 1.327 . S
C2035 C2039 1.429 . S
C2036 C2019 1.574 . S
C2036 H2030 0.949 . S
C2036 C2040 1.368 . S
C2037 C2018 1.429 . S
C2037 C2031 1.429 . S
C2037 C2038 1.523 . S
C2038 C2019 1.368 . S
C2038 C2032 1.368 . S
C2038 C2037 1.523 . S
C2039 C2023 1.429 . S
C2039 C2035 1.429 . S
C2039 C2040 1.523 . S
C2040 C2024 1.368 . S
C2040 C2036 1.368 . S
C2040 C2039 1.523 . S
H2041 C2016 0.950 . S
H2042 C2018 0.950 . S
H2043 C2019 0.949 . S
H2044 C2021 0.950 . S
H2045 C2023 0.950 . S
C2046 C2047 1.349 . S
C2046 C2048 1.327 . S
C2046 H2071 0.950 . S
C2047 C2046 1.349 . S
C2047 C2063 1.349 . S
C2048 C2046 1.327 . S
C2048 C2067 1.429 . S
C2048 H2072 0.950 . S
C2049 C2066 1.574 . S
C2049 C2068 1.368 . S
C2049 H2073 0.949 . S
H2050 C2054 0.949 . S
C2051 C2052 1.349 . S
C2051 C2053 1.327 . S
C2051 H2074 0.950 . S
C2052 C2051 1.349 . S
C2052 C2064 1.349 . S
C2053 C2051 1.327 . S
C2053 C2069 1.429 . S
C2053 H2075 0.950 . S
C2054 H2050 0.949 . S
C2054 C2062 1.574 . S
C2054 C2070 1.368 . S
H2055 C2063 0.950 . S
H2056 C2061 0.950 . S
H2057 C2062 0.949 . S
H2058 C2064 0.950 . S
H2059 C2065 0.950 . S
H2060 C2066 0.949 . S
C2061 H2056 0.950 . S
C2061 C2063 1.327 . S
C2061 C2067 1.429 . S
C2062 C2054 1.574 . S
C2062 H2057 0.949 . S
C2062 C2068 1.368 . S
C2063 C2047 1.349 . S
C2063 H2055 0.950 . S
C2063 C2061 1.327 . S
C2064 C2052 1.349 . S
C2064 H2058 0.950 . S
C2064 C2065 1.327 . S
C2065 H2059 0.950 . S
C2065 C2064 1.327 . S
C2065 C2069 1.429 . S
C2066 C2049 1.574 . S
C2066 H2060 0.949 . S
C2066 C2070 1.368 . S
C2067 C2048 1.429 . S
C2067 C2061 1.429 . S
C2067 C2068 1.523 . S
C2068 C2049 1.368 . S
C2068 C2062 1.368 . S
C2068 C2067 1.523 . S
C2069 C2053 1.429 . S
C2069 C2065 1.429 . S
C2069 C2070 1.523 . S
C2070 C2054 1.368 . S
C2070 C2066 1.368 . S
C2070 C2069 1.523 . S
H2071 C2046 0.950 . S
H2072 C2048 0.950 . S
H2073 C2049 0.949 . S
H2074 C2051 0.950 . S
H2075 C2053 0.950 . S
C2076 C2077 1.349 . S
C2076 C2078 1.327 . S
C2076 H2101 0.950 . S
C2077 C2076 1.349 . S
C2077 C2093 1.349 . S
C2078 C2076 1.327 . S
C2078 C2097 1.429 . S
C2078 H2102 0.950 . S
C2079 C2096 1.574 . S
C2079 C2098 1.368 . S
C2079 H2103 0.949 . S
H2080 C2084 0.949 . S
C2081 C2082 1.349 . S
C2081 C2083 1.327 . S
C2081 H2104 0.950 . S
C2082 C2081 1.349 . S
C2082 C2094 1.349 . S
C2083 C2081 1.327 . S
C2083 C2099 1.429 . S
C2083 H2105 0.950 . S
C2084 H2080 0.949 . S
C2084 C2092 1.574 . S
C2084 C2100 1.368 . S
H2085 C2093 0.950 . S
H2086 C2091 0.950 . S
H2087 C2092 0.949 . S
H2088 C2094 0.950 . S
H2089 C2095 0.950 . S
H2090 C2096 0.949 . S
C2091 H2086 0.950 . S
C2091 C2093 1.327 . S
C2091 C2097 1.429 . S
C2092 C2084 1.574 . S
C2092 H2087 0.949 . S
C2092 C2098 1.368 . S
C2093 C2077 1.349 . S
C2093 H2085 0.950 . S
C2093 C2091 1.327 . S
C2094 C2082 1.349 . S
C2094 H2088 0.950 . S
C2094 C2095 1.327 . S
C2095 H2089 0.950 . S
C2095 C2094 1.327 . S
C2095 C2099 1.429 . S
C2096 C2079 1.574 . S
C2096 H2090 0.949 . S
C2096 C2100 1.368 . S
C2097 C2078 1.429 . S
C2097 C2091 1.429 . S
C2097 C2098 1.523 . S
C2098 C2079 1.368 . S
C2098 C2092 1.368 . S
C2098 C2097 1.523 . S
C2099 C2083 1.429 . S
C2099 C2095 1.429 . S
C2099 C2100 1.523 . S
C2100 C2084 1.368 . S
C2100 C2096 1.368 . S
C2100 C2099 1.523 . S
H2101 C2076 0.950 . S
H2102 C2078 0.950 . S
H2103 C2079 0.949 . S
H2104 C2081 0.950 . S
H2105 C2083 0.950 . S
C2106 C2107 1.349 . S
C2106 C2108 1.327 . S
C2106 H2131 0.950 . S
C2107 C2106 1.349 . S
C2107 C2123 1.349 . S
C2108 C2106 1.327 . S
C2108 C2127 1.429 . S
C2108 H2132 0.950 . S
C2109 C2126 1.574 . S
C2109 C2128 1.368 . S
C2109 H2133 0.949 . S
H2110 C2114 0.949 . S
C2111 C2112 1.349 . S
C2111 C2113 1.327 . S
C2111 H2134 0.950 . S
C2112 C2111 1.349 . S
C2112 C2124 1.349 . S
C2113 C2111 1.327 . S
C2113 C2129 1.429 . S
C2113 H2135 0.950 . S
C2114 H2110 0.949 . S
C2114 C2122 1.574 . S
C2114 C2130 1.368 . S
H2115 C2123 0.950 . S
H2116 C2121 0.950 . S
H2117 C2122 0.949 . S
H2118 C2124 0.950 . S
H2119 C2125 0.950 . S
H2120 C2126 0.949 . S
C2121 H2116 0.950 . S
C2121 C2123 1.327 . S
C2121 C2127 1.429 . S
C2122 C2114 1.574 . S
C2122 H2117 0.949 . S
C2122 C2128 1.368 . S
C2123 C2107 1.349 . S
C2123 H2115 0.950 . S
C2123 C2121 1.327 . S
C2124 C2112 1.349 . S
C2124 H2118 0.950 . S
C2124 C2125 1.327 . S
C2125 H2119 0.950 . S
C2125 C2124 1.327 . S
C2125 C2129 1.429 . S
C2126 C2109 1.574 . S
C2126 H2120 0.949 . S
C2126 C2130 1.368 . S
C2127 C2108 1.429 . S
C2127 C2121 1.429 . S
C2127 C2128 1.523 . S
C2128 C2109 1.368 . S
C2128 C2122 1.368 . S
C2128 C2127 1.523 . S
C2129 C2113 1.429 . S
C2129 C2125 1.429 . S
C2129 C2130 1.523 . S
C2130 C2114 1.368 . S
C2130 C2126 1.368 . S
C2130 C2129 1.523 . S
H2131 C2106 0.950 . S
H2132 C2108 0.950 . S
H2133 C2109 0.949 . S
H2134 C2111 0.950 . S
H2135 C2113 0.950 . S
C2136 C2137 1.349 . S
C2136 C2138 1.327 . S
C2136 H2161 0.950 . S
C2137 C2136 1.349 . S
C2137 C2153 1.349 . S
C2138 C2136 1.327 . S
C2138 C2157 1.429 . S
C2138 H2162 0.950 . S
C2139 C2156 1.574 . S
C2139 C2158 1.368 . S
C2139 H2163 0.949 . S
H2140 C2144 0.949 . S
C2141 C2142 1.349 . S
C2141 C2143 1.327 . S
C2141 H2164 0.950 . S
C2142 C2141 1.349 . S
C2142 C2154 1.349 . S
C2143 C2141 1.327 . S
C2143 C2159 1.429 . S
C2143 H2165 0.950 . S
C2144 H2140 0.949 . S
C2144 C2152 1.574 . S
C2144 C2160 1.368 . S
H2145 C2153 0.950 . S
H2146 C2151 0.950 . S
H2147 C2152 0.949 . S
H2148 C2154 0.950 . S
H2149 C2155 0.950 . S
H2150 C2156 0.949 . S
C2151 H2146 0.950 . S
C2151 C2153 1.327 . S
C2151 C2157 1.429 . S
C2152 C2144 1.574 . S
C2152 H2147 0.949 . S
C2152 C2158 1.368 . S
C2153 C2137 1.349 . S
C2153 H2145 0.950 . S
C2153 C2151 1.327 . S
C2154 C2142 1.349 . S
C2154 H2148 0.950 . S
C2154 C2155 1.327 . S
C2155 H2149 0.950 . S
C2155 C2154 1.327 . S
C2155 C2159 1.429 . S
C2156 C2139 1.574 . S
C2156 H2150 0.949 . S
C2156 C2160 1.368 . S
C2157 C2138 1.429 . S
C2157 C2151 1.429 . S
C2157 C2158 1.523 . S
C2158 C2139 1.368 . S
C2158 C2152 1.368 . S
C2158 C2157 1.523 . S
C2159 C2143 1.429 . S
C2159 C2155 1.429 . S
C2159 C2160 1.523 . S
C2160 C2144 1.368 . S
C2160 C2156 1.368 . S
C2160 C2159 1.523 . S
H2161 C2136 0.950 . S
H2162 C2138 0.950 . S
H2163 C2139 0.949 . S
H2164 C2141 0.950 . S
H2165 C2143 0.950 . S
C2166 C2167 1.349 . S
C2166 C2168 1.327 . S
C2166 H2191 0.950 . S
C2167 C2166 1.349 . S
C2167 C2183 1.349 . S
C2168 C2166 1.327 . S
C2168 C2187 1.429 . S
C2168 H2192 0.950 . S
C2169 C2186 1.574 . S
C2169 C2188 1.368 . S
C2169 H2193 0.949 . S
H2170 C2174 0.949 . S
C2171 C2172 1.349 . S
C2171 C2173 1.327 . S
C2171 H2194 0.950 . S
C2172 C2171 1.349 . S
C2172 C2184 1.349 . S
C2173 C2171 1.327 . S
C2173 C2189 1.429 . S
C2173 H2195 0.950 . S
C2174 H2170 0.949 . S
C2174 C2182 1.574 . S
C2174 C2190 1.368 . S
H2175 C2183 0.950 . S
H2176 C2181 0.950 . S
H2177 C2182 0.949 . S
H2178 C2184 0.950 . S
H2179 C2185 0.950 . S
H2180 C2186 0.949 . S
C2181 H2176 0.950 . S
C2181 C2183 1.327 . S
C2181 C2187 1.429 . S
C2182 C2174 1.574 . S
C2182 H2177 0.949 . S
C2182 C2188 1.368 . S
C2183 C2167 1.349 . S
C2183 H2175 0.950 . S
C2183 C2181 1.327 . S
C2184 C2172 1.349 . S
C2184 H2178 0.950 . S
C2184 C2185 1.327 . S
C2185 H2179 0.950 . S
C2185 C2184 1.327 . S
C2185 C2189 1.429 . S
C2186 C2169 1.574 . S
C2186 H2180 0.949 . S
C2186 C2190 1.368 . S
C2187 C2168 1.429 . S
C2187 C2181 1.429 . S
C2187 C2188 1.523 . S
C2188 C2169 1.368 . S
C2188 C2182 1.368 . S
C2188 C2187 1.523 . S
C2189 C2173 1.429 . S
C2189 C2185 1.429 . S
C2189 C2190 1.523 . S
C2190 C2174 1.368 . S
C2190 C2186 1.368 . S
C2190 C2189 1.523 . S
H2191 C2166 0.950 . S
H2192 C2168 0.950 . S
H2193 C2169 0.949 . S
H2194 C2171 0.950 . S
H2195 C2173 0.950 . S
C577 C422 2.089 . S
C582 C6 2.079 . S
C607 N50 1.083 . S
C612 N461 1.099 . S
C637 C70 1.555 . S
C642 N402 1.514 . S
C667 N82 0.934 . S
C672 N242 0.947 . S
C697 N274 0.684 . S
C702 N18 0.669 . S
C727 C38 1.235 . S
C732 N205 1.201 . S
C757 C102 1.267 . S
C762 N333 1.194 . S
C787 N146 0.906 . S
C792 N365 0.892 . S
C817 N301 1.501 . S
C822 C166 1.532 . S
C847 N530 1.097 . S
C852 N178 1.089 . S
C877 N114 1.452 . S
C882 C546 1.512 . S
C907 C486 2.110 . S
C912 C134 2.105 . S
C937 C262 1.983 . S
C942 N434 1.910 . S
C967 C194 2.772 . S
C972 C450 2.738 . S
C997 C230 2.302 . S
C1002 C390 2.318 1_545 S
C1027 C290 2.410 . S
C1032 C518 2.391 1_545 S
C1057 N557 2.014 . S
C1062 C322 2.142 . S
C1087 N498 1.628 . S
C1092 C354 1.673 . S
C1117 N13 1.168 . S
C1122 N141 1.175 . S
C1147 C164 0.653 . S
C1152 C36 0.651 . S
C1177 C100 1.047 . S
C1182 N77 1.031 . S
C1207 C132 1.162 . S
C1212 C68 1.160 . S
C1237 N173 1.190 . S
C1242 C4 1.206 1_655 S
C1267 N109 1.234 1_655 S
C1272 N45 1.237 . S
C1297 C349 1.961 . S
C1302 C221 1.959 . S
C1327 C381 1.439 . S
C1332 C228 1.439 . S
C1357 C317 1.726 . S
C1362 C260 1.721 . S
C1387 N338 1.281 . S
C1392 N269 1.285 . S
C1417 N370 1.406 . S
C1422 N210 1.383 . S
C1447 N306 1.472 . S
C1452 N237 1.477 . S
C1477 N525 1.679 . S
C1482 N397 1.676 . S
C1507 C573 2.013 . S
C1512 C420 2.013 . S
C1537 N466 1.795 . S
C1542 C484 1.821 . S
C1567 C477 1.794 . S
C1572 C516 1.799 . S
C1597 C388 2.065 . S
C1602 N562 2.041 . S
C1627 N493 2.090 . S
C1632 N429 2.100 . S
C1657 C29 1.370 . S
C1662 C2 1.372 . S
C1687 C34 1.374 . S
C1692 C61 1.372 . S
C1717 C93 1.373 . S
C1722 C66 1.374 . S
C1747 C125 1.369 . S
C1752 C98 1.371 . S
C1777 C157 1.371 . S
C1782 C130 1.373 . S
C1807 C162 1.374 . S
C1812 C189 1.373 . S
C1837 C196 1.366 . S
C1842 C198 1.370 . S
C1867 C226 1.374 . S
C1872 C253 1.371 1_554 S
C1897 C285 1.375 . S
C1902 C258 1.376 . S
C1927 C292 1.358 1_554 S
C1932 C294 1.371 . S
C1957 C324 1.369 . S
C1962 C326 1.371 . S
C1987 C356 1.376 1_554 S
C1992 C358 1.377 . S
C2017 C386 1.370 . S
C2022 C413 1.367 . S
C2047 C418 1.370 1_556 S
C2052 C445 1.367 . S
C2077 C452 1.370 . S
C2082 C454 1.373 . S
C2107 C482 1.370 1_556 S
C2112 C509 1.366 . S
C2137 C541 1.369 . S
C2142 C514 1.372 . S
C2167 C548 1.369 . S
C2172 C550 1.371 1_556 S
