# Generated by pormake.
# Topology vcc, (6)-cn, num edge types: 1
# Building blocks:
#     Node 0, Type 0, BuildingBlock: VOLQOD_clean_sbu_1, # of connection points: 6
#     Node 1, Type 0, BuildingBlock: VOLQOD_clean_sbu_1, # of connection points: 6
#     Node 2, Type 0, BuildingBlock: VOLQOD_clean_sbu_1, # of connection points: 6
#     Node 3, Type 0, BuildingBlock: VOLQOD_clean_sbu_1, # of connection points: 6
#     Node 4, Type 0, BuildingBlock: VOLQOD_clean_sbu_1, # of connection points: 6
#     Node 5, Type 0, BuildingBlock: VOLQOD_clean_sbu_1, # of connection points: 6
#     Node 6, Type 0, BuildingBlock: VOLQOD_clean_sbu_1, # of connection points: 6
#     Node 7, Type 0, BuildingBlock: VOLQOD_clean_sbu_1, # of connection points: 6
#     Node 8, Type 0, BuildingBlock: VOLQOD_clean_sbu_1, # of connection points: 6
#     Node 9, Type 0, BuildingBlock: VOLQOD_clean_sbu_1, # of connection points: 6
#     Node 10, Type 0, BuildingBlock: VOLQOD_clean_sbu_1, # of connection points: 6
#     Node 11, Type 0, BuildingBlock: VOLQOD_clean_sbu_1, # of connection points: 6
#     Node 12, Type 0, BuildingBlock: VOLQOD_clean_sbu_1, # of connection points: 6
#     Node 13, Type 0, BuildingBlock: VOLQOD_clean_sbu_1, # of connection points: 6
#     Node 14, Type 0, BuildingBlock: VOLQOD_clean_sbu_1, # of connection points: 6
#     Node 15, Type 0, BuildingBlock: VOLQOD_clean_sbu_1, # of connection points: 6
#     Node 16, Type 0, BuildingBlock: VOLQOD_clean_sbu_1, # of connection points: 6
#     Node 17, Type 0, BuildingBlock: VOLQOD_clean_sbu_1, # of connection points: 6
#     Node 18, Type 0, BuildingBlock: VOLQOD_clean_sbu_1, # of connection points: 6
#     Node 19, Type 0, BuildingBlock: VOLQOD_clean_sbu_1, # of connection points: 6
#     Node 20, Type 0, BuildingBlock: VOLQOD_clean_sbu_1, # of connection points: 6
#     Node 21, Type 0, BuildingBlock: VOLQOD_clean_sbu_1, # of connection points: 6
#     Node 22, Type 0, BuildingBlock: VOLQOD_clean_sbu_1, # of connection points: 6
#     Node 23, Type 0, BuildingBlock: VOLQOD_clean_sbu_1, # of connection points: 6
#     Node 24, Type 0, BuildingBlock: VOLQOD_clean_sbu_1, # of connection points: 6
#     Node 25, Type 0, BuildingBlock: VOLQOD_clean_sbu_1, # of connection points: 6
#     Node 26, Type 0, BuildingBlock: VOLQOD_clean_sbu_1, # of connection points: 6
#     Node 27, Type 0, BuildingBlock: VOLQOD_clean_sbu_1, # of connection points: 6
#     Node 28, Type 0, BuildingBlock: VOLQOD_clean_sbu_1, # of connection points: 6
#     Node 29, Type 0, BuildingBlock: VOLQOD_clean_sbu_1, # of connection points: 6
#     Node 30, Type 0, BuildingBlock: VOLQOD_clean_sbu_1, # of connection points: 6
#     Node 31, Type 0, BuildingBlock: VOLQOD_clean_sbu_1, # of connection points: 6
#     Edge 32, Type (0, 0), BuildingBlock: CIFDUS_clean_linker_0, # of connection points: 2
#     Edge 33, Type (0, 0), BuildingBlock: CIFDUS_clean_linker_0, # of connection points: 2
#     Edge 34, Type (0, 0), BuildingBlock: CIFDUS_clean_linker_0, # of connection points: 2
#     Edge 35, Type (0, 0), BuildingBlock: CIFDUS_clean_linker_0, # of connection points: 2
#     Edge 36, Type (0, 0), BuildingBlock: CIFDUS_clean_linker_0, # of connection points: 2
#     Edge 37, Type (0, 0), BuildingBlock: CIFDUS_clean_linker_0, # of connection points: 2
#     Edge 38, Type (0, 0), BuildingBlock: CIFDUS_clean_linker_0, # of connection points: 2
#     Edge 39, Type (0, 0), BuildingBlock: CIFDUS_clean_linker_0, # of connection points: 2
#     Edge 40, Type (0, 0), BuildingBlock: CIFDUS_clean_linker_0, # of connection points: 2
#     Edge 41, Type (0, 0), BuildingBlock: CIFDUS_clean_linker_0, # of connection points: 2
#     Edge 42, Type (0, 0), BuildingBlock: CIFDUS_clean_linker_0, # of connection points: 2
#     Edge 43, Type (0, 0), BuildingBlock: CIFDUS_clean_linker_0, # of connection points: 2
#     Edge 44, Type (0, 0), BuildingBlock: CIFDUS_clean_linker_0, # of connection points: 2
#     Edge 45, Type (0, 0), BuildingBlock: CIFDUS_clean_linker_0, # of connection points: 2
#     Edge 46, Type (0, 0), BuildingBlock: CIFDUS_clean_linker_0, # of connection points: 2
#     Edge 47, Type (0, 0), BuildingBlock: CIFDUS_clean_linker_0, # of connection points: 2
#     Edge 48, Type (0, 0), BuildingBlock: CIFDUS_clean_linker_0, # of connection points: 2
#     Edge 49, Type (0, 0), BuildingBlock: CIFDUS_clean_linker_0, # of connection points: 2
#     Edge 50, Type (0, 0), BuildingBlock: CIFDUS_clean_linker_0, # of connection points: 2
#     Edge 51, Type (0, 0), BuildingBlock: CIFDUS_clean_linker_0, # of connection points: 2
#     Edge 52, Type (0, 0), BuildingBlock: CIFDUS_clean_linker_0, # of connection points: 2
#     Edge 53, Type (0, 0), BuildingBlock: CIFDUS_clean_linker_0, # of connection points: 2
#     Edge 54, Type (0, 0), BuildingBlock: CIFDUS_clean_linker_0, # of connection points: 2
#     Edge 55, Type (0, 0), BuildingBlock: CIFDUS_clean_linker_0, # of connection points: 2
#     Edge 56, Type (0, 0), BuildingBlock: CIFDUS_clean_linker_0, # of connection points: 2
#     Edge 57, Type (0, 0), BuildingBlock: CIFDUS_clean_linker_0, # of connection points: 2
#     Edge 58, Type (0, 0), BuildingBlock: CIFDUS_clean_linker_0, # of connection points: 2
#     Edge 59, Type (0, 0), BuildingBlock: CIFDUS_clean_linker_0, # of connection points: 2
#     Edge 60, Type (0, 0), BuildingBlock: CIFDUS_clean_linker_0, # of connection points: 2
#     Edge 61, Type (0, 0), BuildingBlock: CIFDUS_clean_linker_0, # of connection points: 2
#     Edge 62, Type (0, 0), BuildingBlock: CIFDUS_clean_linker_0, # of connection points: 2
#     Edge 63, Type (0, 0), BuildingBlock: CIFDUS_clean_linker_0, # of connection points: 2
#     Edge 64, Type (0, 0), BuildingBlock: CIFDUS_clean_linker_0, # of connection points: 2
#     Edge 65, Type (0, 0), BuildingBlock: CIFDUS_clean_linker_0, # of connection points: 2
#     Edge 66, Type (0, 0), BuildingBlock: CIFDUS_clean_linker_0, # of connection points: 2
#     Edge 67, Type (0, 0), BuildingBlock: CIFDUS_clean_linker_0, # of connection points: 2
#     Edge 68, Type (0, 0), BuildingBlock: CIFDUS_clean_linker_0, # of connection points: 2
#     Edge 69, Type (0, 0), BuildingBlock: CIFDUS_clean_linker_0, # of connection points: 2
#     Edge 70, Type (0, 0), BuildingBlock: CIFDUS_clean_linker_0, # of connection points: 2
#     Edge 71, Type (0, 0), BuildingBlock: CIFDUS_clean_linker_0, # of connection points: 2
#     Edge 72, Type (0, 0), BuildingBlock: CIFDUS_clean_linker_0, # of connection points: 2
#     Edge 73, Type (0, 0), BuildingBlock: CIFDUS_clean_linker_0, # of connection points: 2
#     Edge 74, Type (0, 0), BuildingBlock: CIFDUS_clean_linker_0, # of connection points: 2
#     Edge 75, Type (0, 0), BuildingBlock: CIFDUS_clean_linker_0, # of connection points: 2
#     Edge 76, Type (0, 0), BuildingBlock: CIFDUS_clean_linker_0, # of connection points: 2
#     Edge 77, Type (0, 0), BuildingBlock: CIFDUS_clean_linker_0, # of connection points: 2
#     Edge 78, Type (0, 0), BuildingBlock: CIFDUS_clean_linker_0, # of connection points: 2
#     Edge 79, Type (0, 0), BuildingBlock: CIFDUS_clean_linker_0, # of connection points: 2
#     Edge 80, Type (0, 0), BuildingBlock: CIFDUS_clean_linker_0, # of connection points: 2
#     Edge 81, Type (0, 0), BuildingBlock: CIFDUS_clean_linker_0, # of connection points: 2
#     Edge 82, Type (0, 0), BuildingBlock: CIFDUS_clean_linker_0, # of connection points: 2
#     Edge 83, Type (0, 0), BuildingBlock: CIFDUS_clean_linker_0, # of connection points: 2
#     Edge 84, Type (0, 0), BuildingBlock: CIFDUS_clean_linker_0, # of connection points: 2
#     Edge 85, Type (0, 0), BuildingBlock: CIFDUS_clean_linker_0, # of connection points: 2
#     Edge 86, Type (0, 0), BuildingBlock: CIFDUS_clean_linker_0, # of connection points: 2
#     Edge 87, Type (0, 0), BuildingBlock: CIFDUS_clean_linker_0, # of connection points: 2
#     Edge 88, Type (0, 0), BuildingBlock: CIFDUS_clean_linker_0, # of connection points: 2
#     Edge 89, Type (0, 0), BuildingBlock: CIFDUS_clean_linker_0, # of connection points: 2
#     Edge 90, Type (0, 0), BuildingBlock: CIFDUS_clean_linker_0, # of connection points: 2
#     Edge 91, Type (0, 0), BuildingBlock: CIFDUS_clean_linker_0, # of connection points: 2
#     Edge 92, Type (0, 0), BuildingBlock: CIFDUS_clean_linker_0, # of connection points: 2
#     Edge 93, Type (0, 0), BuildingBlock: CIFDUS_clean_linker_0, # of connection points: 2
#     Edge 94, Type (0, 0), BuildingBlock: CIFDUS_clean_linker_0, # of connection points: 2
#     Edge 95, Type (0, 0), BuildingBlock: CIFDUS_clean_linker_0, # of connection points: 2
#     Edge 96, Type (0, 0), BuildingBlock: CIFDUS_clean_linker_0, # of connection points: 2
#     Edge 97, Type (0, 0), BuildingBlock: CIFDUS_clean_linker_0, # of connection points: 2
#     Edge 98, Type (0, 0), BuildingBlock: CIFDUS_clean_linker_0, # of connection points: 2
#     Edge 99, Type (0, 0), BuildingBlock: CIFDUS_clean_linker_0, # of connection points: 2
#     Edge 100, Type (0, 0), BuildingBlock: CIFDUS_clean_linker_0, # of connection points: 2
#     Edge 101, Type (0, 0), BuildingBlock: CIFDUS_clean_linker_0, # of connection points: 2
#     Edge 102, Type (0, 0), BuildingBlock: CIFDUS_clean_linker_0, # of connection points: 2
#     Edge 103, Type (0, 0), BuildingBlock: CIFDUS_clean_linker_0, # of connection points: 2
#     Edge 104, Type (0, 0), BuildingBlock: CIFDUS_clean_linker_0, # of connection points: 2
#     Edge 105, Type (0, 0), BuildingBlock: CIFDUS_clean_linker_0, # of connection points: 2
#     Edge 106, Type (0, 0), BuildingBlock: CIFDUS_clean_linker_0, # of connection points: 2
#     Edge 107, Type (0, 0), BuildingBlock: CIFDUS_clean_linker_0, # of connection points: 2
#     Edge 108, Type (0, 0), BuildingBlock: CIFDUS_clean_linker_0, # of connection points: 2
#     Edge 109, Type (0, 0), BuildingBlock: CIFDUS_clean_linker_0, # of connection points: 2
#     Edge 110, Type (0, 0), BuildingBlock: CIFDUS_clean_linker_0, # of connection points: 2
#     Edge 111, Type (0, 0), BuildingBlock: CIFDUS_clean_linker_0, # of connection points: 2
#     Edge 112, Type (0, 0), BuildingBlock: CIFDUS_clean_linker_0, # of connection points: 2
#     Edge 113, Type (0, 0), BuildingBlock: CIFDUS_clean_linker_0, # of connection points: 2
#     Edge 114, Type (0, 0), BuildingBlock: CIFDUS_clean_linker_0, # of connection points: 2
#     Edge 115, Type (0, 0), BuildingBlock: CIFDUS_clean_linker_0, # of connection points: 2
#     Edge 116, Type (0, 0), BuildingBlock: CIFDUS_clean_linker_0, # of connection points: 2
#     Edge 117, Type (0, 0), BuildingBlock: CIFDUS_clean_linker_0, # of connection points: 2
#     Edge 118, Type (0, 0), BuildingBlock: CIFDUS_clean_linker_0, # of connection points: 2
#     Edge 119, Type (0, 0), BuildingBlock: CIFDUS_clean_linker_0, # of connection points: 2
#     Edge 120, Type (0, 0), BuildingBlock: CIFDUS_clean_linker_0, # of connection points: 2
#     Edge 121, Type (0, 0), BuildingBlock: CIFDUS_clean_linker_0, # of connection points: 2
#     Edge 122, Type (0, 0), BuildingBlock: CIFDUS_clean_linker_0, # of connection points: 2
#     Edge 123, Type (0, 0), BuildingBlock: CIFDUS_clean_linker_0, # of connection points: 2
#     Edge 124, Type (0, 0), BuildingBlock: CIFDUS_clean_linker_0, # of connection points: 2
#     Edge 125, Type (0, 0), BuildingBlock: CIFDUS_clean_linker_0, # of connection points: 2
#     Edge 126, Type (0, 0), BuildingBlock: CIFDUS_clean_linker_0, # of connection points: 2
#     Edge 127, Type (0, 0), BuildingBlock: CIFDUS_clean_linker_0, # of connection points: 2
# Relax obj value: 0.035
# Max RMSD: 0.059
# Mean RMSD: 0.059
data_MOF--net-vcc--node1-VOLQOD_clean_sbu_1--edge1-CIFDUS_clean_linker_0
_symmetry_space_group_name_H-M    P1
_symmetry_Int_Tables_number       1
_symmetry_cell_setting            triclinic
loop_
_symmetry_equiv_pos_as_xyz
'x, y, z'
_cell_length_a     51.801657
_cell_length_b     60.092186
_cell_length_c     33.588663
_cell_angle_alpha  90.198501
_cell_angle_beta   89.999777
_cell_angle_gamma 89.988021
loop_
_atom_site_label
_atom_site_type_symbol
_atom_site_fract_x
_atom_site_fract_y
_atom_site_fract_z
_atom_type_partial_charge
O0 O 0.30451 0.96511 0.03267 0.0
Zn1 Zn 0.33397 0.96361 0.0725 0.0
O2 O 0.3586 -0.01203 0.06699 0.0
Zn3 Zn 0.39229 0.97698 0.04876 0.0
Zn4 Zn 0.3433 0.0091 0.02997 0.0
Zn5 Zn 0.36391 0.00254 0.11779 0.0
O6 O 0.4221 -0.01317 0.08545 0.0
O7 O 0.40046 0.00105 0.13661 0.0
O8 O 0.35228 0.93415 0.06835 0.0
O9 O 0.39234 0.94337 0.05131 0.0
O10 O 0.39738 -0.01403 -0.00926 0.0
O11 O 0.36347 0.00802 0.98 0.0
O12 O 0.34205 0.0405 0.05224 0.0
O13 O 0.31693 0.96581 0.12577 0.0
O14 O 0.35499 0.0346 0.11429 0.0
O15 O 0.34047 -0.0095 0.15914 0.0
C16 C 0.29564 0.98147 0.01285 0.0
C17 C 0.42163 -0.00471 0.12042 0.0
C18 C 0.38366 -0.0019 0.96778 0.0
C19 C 0.37542 0.92872 0.05977 0.0
C20 C 0.34683 0.04757 0.08729 0.0
C21 C 0.32185 0.97678 0.15735 0.0
O22 O 0.30756 -0.0 0.0119 0.0
O23 O 0.95847 0.25717 0.04251 0.0
Zn24 Zn 0.9294 0.26014 0.08229 0.0
O25 O 0.90301 0.23745 0.07702 0.0
Zn26 Zn 0.86976 0.2517 0.06553 0.0
Zn27 Zn 0.91439 0.21861 0.03393 0.0
Zn28 Zn 0.90015 0.21902 0.12401 0.0
O29 O 0.84185 0.24078 0.10377 0.0
O30 O 0.86465 0.22192 0.14863 0.0
O31 O 0.91468 0.29065 0.07952 0.0
O32 O 0.87255 0.28509 0.07301 0.0
O33 O 0.86086 0.24746 0.00689 0.0
O34 O 0.89445 0.22699 0.98739 0.0
O35 O 0.90978 0.18623 0.04461 0.0
O36 O 0.94619 0.25702 0.13459 0.0
O37 O 0.90439 0.18653 0.1101 0.0
O38 O 0.92824 0.22732 0.16277 0.0
C39 C 0.96533 0.24086 0.0207 0.0
C40 C 0.84328 0.22999 0.13645 0.0
C41 C 0.87423 0.23805 0.97973 0.0
C42 C 0.89179 0.29813 0.07697 0.0
C43 C 0.90707 0.176 0.07738 0.0
C44 C 0.94467 0.24312 0.16287 0.0
O45 O 0.95112 0.22373 0.01725 0.0
O46 O 0.29514 0.25824 0.18201 0.0
Zn47 Zn 0.32538 0.26208 0.14399 0.0
O48 O 0.34998 0.23756 0.14578 0.0
Zn49 Zn 0.38286 0.24741 0.1683 0.0
Zn50 Zn 0.33366 0.21446 0.17735 0.0
Zn51 Zn 0.35726 0.22598 0.09292 0.0
O52 O 0.41346 0.24048 0.13212 0.0
O53 O 0.39416 0.23023 0.076 0.0
O54 O 0.34328 0.29113 0.15511 0.0
O55 O 0.38275 0.28086 0.17342 0.0
O56 O 0.38718 0.23428 0.22332 0.0
O57 O 0.35289 0.21201 0.22776 0.0
O58 O 0.3339 0.18478 0.14924 0.0
O59 O 0.30955 0.26285 0.08988 0.0
O60 O 0.35054 0.19323 0.09031 0.0
O61 O 0.33342 0.23958 0.05373 0.0
C62 C 0.28582 0.24086 0.19822 0.0
C63 C 0.41453 0.23498 0.09542 0.0
C64 C 0.37309 0.22065 0.24265 0.0
C65 C 0.36603 0.29595 0.16673 0.0
C66 C 0.34125 0.17909 0.11446 0.0
C67 C 0.31482 0.25328 0.05701 0.0
O68 O 0.29754 0.22227 0.19587 0.0
O69 O 0.96513 0.96209 0.16569 0.0
Zn70 Zn 0.93524 0.95969 0.12612 0.0
O71 O 0.91143 0.98476 0.12882 0.0
Zn72 Zn 0.87768 0.97505 0.14746 0.0
Zn73 Zn 0.92711 0.00506 0.16592 0.0
Zn74 Zn 0.90686 0.00028 0.07848 0.0
O75 O 0.84935 0.98344 0.10875 0.0
O76 O 0.87076 -0.00474 0.05542 0.0
O77 O 0.91664 0.93063 0.13497 0.0
O78 O 0.87683 0.94176 0.14951 0.0
O79 O 0.87128 0.98527 0.20428 0.0
O80 O 0.90837 0.00274 0.21575 0.0
O81 O 0.92475 0.03631 0.14826 0.0
O82 O 0.95189 0.96016 0.07273 0.0
O83 O 0.91057 0.03376 0.08613 0.0
O84 O 0.935 -0.01048 0.04159 0.0
C85 C 0.97462 0.97905 0.18331 0.0
C86 C 0.84967 -0.01028 0.07246 0.0
C87 C 0.88697 -0.00491 0.22772 0.0
C88 C 0.89331 0.92632 0.14422 0.0
C89 C 0.91773 0.04541 0.11597 0.0
C90 C 0.95097 0.97333 0.04313 0.0
O91 O 0.96329 -0.00222 0.18201 0.0
O92 O 0.71723 0.01352 0.90955 0.0
Zn93 Zn 0.68645 0.01534 0.87121 0.0
O94 O 0.66202 -0.0092 0.87807 0.0
Zn95 Zn 0.62917 0.0011 0.89957 0.0
Zn96 Zn 0.67839 0.96998 0.91394 0.0
Zn97 Zn 0.65439 0.97589 0.82793 0.0
O98 O 0.59847 -0.00777 0.86497 0.0
O99 O 0.61752 0.9801 0.80982 0.0
O100 O 0.66788 0.04504 0.87751 0.0
O101 O 0.62902 0.03432 0.89824 0.0
O102 O 0.62518 -0.00834 0.95731 0.0
O103 O 0.66062 0.9713 0.96575 0.0
O104 O 0.67689 0.93869 0.89318 0.0
O105 O 0.70204 0.01237 0.8166 0.0
O106 O 0.65983 0.94306 0.83306 0.0
O107 O 0.67907 -0.01402 0.78628 0.0
C108 C 0.72665 -0.00322 0.92781 0.0
C109 C 0.59721 0.98555 0.8289 0.0
C110 C 0.64026 0.98028 0.97933 0.0
C111 C 0.64489 0.04957 0.88872 0.0
C112 C 0.66892 0.93065 0.86028 0.0
C113 C 0.69738 9e-05 0.7864 0.0
O114 O 0.71479 0.97824 0.92835 0.0
O115 O 0.04942 0.7204 0.95574 0.0
Zn116 Zn 0.07572 0.71392 0.91232 0.0
O117 O 0.10497 0.73414 0.91323 0.0
Zn118 Zn 0.13594 0.71779 0.92824 0.0
Zn119 Zn 0.09665 0.75659 0.95247 0.0
Zn120 Zn 0.11069 0.74858 0.8622 0.0
O121 O 0.16572 0.72508 0.89119 0.0
O122 O 0.14619 0.74096 0.83951 0.0
O123 O 0.08721 0.68205 0.91517 0.0
O124 O 0.12969 0.68486 0.92214 0.0
O125 O 0.14386 0.72295 0.98691 0.0
O126 O 0.11606 0.75008 0.00107 0.0
O127 O 0.10384 0.78752 0.93374 0.0
O128 O 0.05739 0.71792 0.86103 0.0
O129 O 0.11059 0.78186 0.86926 0.0
O130 O 0.08126 0.74106 0.82473 0.0
C131 C 0.04497 0.73837 0.97479 0.0
C132 C 0.1664 0.73294 0.85589 0.0
C133 C 0.13325 0.73627 0.01162 0.0
C134 C 0.10941 0.6731 0.91801 0.0
C135 C 0.10835 0.79492 0.899 0.0
C136 C 0.06131 0.72885 0.82924 0.0
O137 O 0.06023 0.75488 0.97235 0.0
O138 O 0.71682 0.71813 0.81515 0.0
Zn139 Zn 0.68633 0.71422 0.85229 0.0
O140 O 0.66026 0.73742 0.84736 0.0
Zn141 Zn 0.62708 0.7244 0.83095 0.0
Zn142 Zn 0.67356 0.7584 0.80883 0.0
Zn143 Zn 0.65529 0.75327 0.89712 0.0
O144 O 0.59756 0.73354 0.86853 0.0
O145 O 0.61902 0.75068 0.91704 0.0
O146 O 0.67112 0.68411 0.84354 0.0
O147 O 0.62953 0.69071 0.83246 0.0
O148 O 0.62012 0.7326 0.77309 0.0
O149 O 0.65335 0.75497 0.76008 0.0
O150 O 0.67185 0.79005 0.8276 0.0
O151 O 0.70111 0.71525 0.90669 0.0
O152 O 0.66187 0.78587 0.89129 0.0
O153 O 0.68008 0.74245 0.93781 0.0
C154 C 0.72394 0.7346 0.79411 0.0
C155 C 0.59801 0.74334 0.90237 0.0
C156 C 0.63332 0.74447 0.74908 0.0
C157 C 0.64832 0.67721 0.83676 0.0
C158 C 0.66767 0.79821 0.86198 0.0
C159 C 0.69723 0.72732 0.93726 0.0
O160 O 0.70985 0.75184 0.79105 0.0
O161 O 0.05731 -0.00291 0.76581 0.0
Zn162 Zn 0.08283 0.00286 0.80975 0.0
O163 O 0.1114 0.98204 0.81011 0.0
Zn164 Zn 0.14242 -0.00182 0.79522 0.0
Zn165 Zn 0.10317 0.95913 0.77131 0.0
Zn166 Zn 0.11643 0.96833 0.86222 0.0
O167 O 0.17163 -0.00842 0.83324 0.0
O168 O 0.15189 0.97617 0.88518 0.0
O169 O 0.0945 0.03438 0.80664 0.0
O170 O 0.13687 0.03122 0.79951 0.0
O171 O 0.15122 -0.00866 0.73784 0.0
O172 O 0.12774 0.9609 0.72679 0.0
O173 O 0.10533 0.92868 0.79421 0.0
O174 O 0.0638 -9e-05 0.86021 0.0
O175 O 0.11526 0.93482 0.85756 0.0
O176 O 0.08677 0.97709 0.89854 0.0
C177 C 0.0533 0.98018 0.74379 0.0
C178 C 0.17212 0.98422 0.86884 0.0
C179 C 0.14438 0.97508 0.71581 0.0
C180 C 0.11672 0.04312 0.80346 0.0
C181 C 0.11053 0.92152 0.82886 0.0
C182 C 0.06719 -0.01044 0.89269 0.0
O183 O 0.06842 0.96348 0.74475 0.0
O184 O 0.2902 0.46063 0.55598 0.0
Zn185 Zn 0.32125 0.45871 0.59386 0.0
O186 O 0.34549 0.48334 0.58717 0.0
Zn187 Zn 0.37853 0.473 0.56608 0.0
Zn188 Zn 0.32881 0.50396 0.5515 0.0
Zn189 Zn 0.35283 0.49895 0.63653 0.0
O190 O 0.40887 0.48122 0.60162 0.0
O191 O 0.38914 0.49388 0.65579 0.0
O192 O 0.33977 0.42909 0.58629 0.0
O193 O 0.37868 0.4397 0.5657 0.0
O194 O 0.38318 0.48326 0.50913 0.0
O195 O 0.34682 0.50238 0.50062 0.0
O196 O 0.33113 0.53549 0.57022 0.0
O197 O 0.30633 0.46122 0.64893 0.0
O198 O 0.34875 0.53205 0.63006 0.0
O199 O 0.32787 0.48907 0.67767 0.0
C200 C 0.28063 0.47728 0.53762 0.0
C201 C 0.40961 0.4879 0.6377 0.0
C202 C 0.36766 0.49424 0.48723 0.0
C203 C 0.36265 0.42447 0.57469 0.0
C204 C 0.33988 0.54409 0.60212 0.0
C205 C 0.3105 0.47411 0.67848 0.0
O206 O 0.29238 0.49586 0.53697 0.0
O207 O 0.95945 0.75819 0.54307 0.0
Zn208 Zn 0.93298 0.76459 0.5877 0.0
O209 O 0.90616 0.74194 0.58995 0.0
Zn210 Zn 0.87337 0.75359 0.57211 0.0
Zn211 Zn 0.91798 0.71948 0.55454 0.0
Zn212 Zn 0.90148 0.72802 0.64118 0.0
O213 O 0.84486 0.7462 0.61089 0.0
O214 O 0.86683 0.73651 0.66517 0.0
O215 O 0.91668 0.79538 0.58183 0.0
O216 O 0.87538 0.78666 0.57274 0.0
O217 O 0.86606 0.74473 0.51476 0.0
O218 O 0.90087 0.72394 0.50418 0.0
O219 O 0.90973 0.68922 0.57234 0.0
O220 O 0.95261 0.76253 0.63906 0.0
O221 O 0.9002 0.69429 0.63598 0.0
O222 O 0.93196 0.73685 0.67498 0.0
C223 C 0.96706 0.73914 0.53073 0.0
C224 C 0.84565 0.7416 0.64796 0.0
C225 C 0.88081 0.73366 0.49166 0.0
C226 C 0.89316 0.8011 0.57655 0.0
C227 C 0.90316 0.68153 0.60593 0.0
C228 C 0.95055 0.75058 0.67023 0.0
O229 O 0.95493 0.72156 0.54017 0.0
O230 O 0.29947 0.75626 0.69352 0.0
Zn231 Zn 0.32993 0.75724 0.6544 0.0
O232 O 0.35552 0.73402 0.66446 0.0
Zn233 Zn 0.38754 0.74685 0.68426 0.0
Zn234 Zn 0.34022 0.71436 0.7032 0.0
Zn235 Zn 0.36401 0.7169 0.61697 0.0
O236 O 0.41868 0.73789 0.65126 0.0
O237 O 0.40057 0.72228 0.59817 0.0
O238 O 0.34691 0.78786 0.65455 0.0
O239 O 0.38606 0.7798 0.67746 0.0
O240 O 0.39199 0.74045 0.74297 0.0
O241 O 0.35805 0.71865 0.754 0.0
O242 O 0.34293 0.68229 0.68768 0.0
O243 O 0.31446 0.75074 0.60099 0.0
O244 O 0.3599 0.68409 0.62706 0.0
O245 O 0.33889 0.72415 0.574 0.0
C246 C 0.29084 0.73999 0.71396 0.0
C247 C 0.42041 0.7298 0.61619 0.0
C248 C 0.37768 0.72922 0.76635 0.0
C249 C 0.3696 0.79385 0.66492 0.0
C250 C 0.35119 0.67287 0.65621 0.0
C251 C 0.31978 0.73742 0.57252 0.0
O252 O 0.30353 0.72194 0.71668 0.0
O253 O 0.95138 0.47794 0.70327 0.0
Zn254 Zn 0.92416 0.47258 0.66082 0.0
O255 O 0.89447 0.49208 0.66628 0.0
Zn256 Zn 0.86468 0.4749 0.68375 0.0
Zn257 Zn 0.90392 0.51374 0.70589 0.0
Zn258 Zn 0.88619 0.50764 0.61726 0.0
O259 O 0.83324 0.48126 0.64934 0.0
O260 O 0.85067 0.49862 0.59738 0.0
O261 O 0.91359 0.44035 0.66098 0.0
O262 O 0.87182 0.44256 0.67515 0.0
O263 O 0.859 0.4788 0.74345 0.0
O264 O 0.88558 0.50702 0.75488 0.0
O265 O 0.89607 0.54466 0.69017 0.0
O266 O 0.94072 0.47899 0.60876 0.0
O267 O 0.88541 0.54098 0.62653 0.0
O268 O 0.91403 0.5016 0.57631 0.0
C269 C 0.95627 0.49544 0.72345 0.0
C270 C 0.8314 0.48935 0.6143 0.0
C271 C 0.86953 0.49271 0.7672 0.0
C272 C 0.89176 0.43115 0.66663 0.0
C273 C 0.88932 0.55309 0.65718 0.0
C274 C 0.93489 0.49034 0.57812 0.0
O275 O 0.94086 0.5119 0.72321 0.0
O276 O 0.70059 0.50476 0.44819 0.0
Zn277 Zn 0.67146 0.50777 0.40879 0.0
O278 O 0.64694 0.48329 0.41104 0.0
Zn279 Zn 0.61291 0.49417 0.42819 0.0
Zn280 Zn 0.66168 0.46124 0.44709 0.0
Zn281 Zn 0.64272 0.46994 0.35909 0.0
O282 O 0.58386 0.48508 0.38963 0.0
O283 O 0.60654 0.47198 0.33858 0.0
O284 O 0.65389 0.53687 0.41744 0.0
O285 O 0.613 0.52791 0.42925 0.0
O286 O 0.60677 0.48385 0.48497 0.0
O287 O 0.64053 0.46162 0.49594 0.0
O288 O 0.66264 0.43023 0.42274 0.0
O289 O 0.68837 0.50845 0.35567 0.0
O290 O 0.65098 0.43772 0.36066 0.0
O291 O 0.66732 0.48297 0.32042 0.0
C292 C 0.70922 0.48823 0.46769 0.0
C293 C 0.58503 0.47731 0.3542 0.0
C294 C 0.62009 0.47132 0.50773 0.0
C295 C 0.63069 0.54246 0.42485 0.0
C296 C 0.65827 0.424 0.38703 0.0
C297 C 0.68477 0.49773 0.32347 0.0
O298 O 0.69731 0.46968 0.46769 0.0
O299 O 0.04276 0.21325 0.43115 0.0
Zn300 Zn 0.0731 0.20879 0.39348 0.0
O301 O 0.10012 0.23109 0.39839 0.0
Zn302 Zn 0.13243 0.21687 0.4142 0.0
Zn303 Zn 0.08768 0.25137 0.43869 0.0
Zn304 Zn 0.10624 0.24755 0.34935 0.0
O305 O 0.16179 0.22443 0.37677 0.0
O306 O 0.14212 0.24139 0.32648 0.0
O307 O 0.08704 0.17805 0.39943 0.0
O308 O 0.12878 0.18364 0.41054 0.0
O309 O 0.1405 0.22378 0.47191 0.0
O310 O 0.10691 0.24527 0.48741 0.0
O311 O 0.09324 0.28298 0.42359 0.0
O312 O 0.0582 0.21113 0.3397 0.0
O313 O 0.10435 0.28068 0.35987 0.0
O314 O 0.07831 0.2394 0.31007 0.0
C315 C 0.03585 0.23013 0.45157 0.0
C316 C 0.16237 0.23296 0.34204 0.0
C317 C 0.12707 0.23462 0.49717 0.0
C318 C 0.10971 0.17061 0.40521 0.0
C319 C 0.09948 0.29218 0.39095 0.0
C320 C 0.06116 0.22416 0.31034 0.0
O321 O 0.05048 0.24705 0.45453 0.0
O322 O 0.70448 0.21551 0.27673 0.0
Zn323 Zn 0.67815 0.20986 0.32116 0.0
O324 O 0.6521 0.23345 0.32465 0.0
Zn325 Zn 0.61799 0.22261 0.30869 0.0
Zn326 Zn 0.66372 0.25741 0.29081 0.0
Zn327 Zn 0.64927 0.24491 0.37817 0.0
O328 O 0.58986 0.23172 0.34908 0.0
O329 O 0.61399 0.24084 0.40138 0.0
O330 O 0.66041 0.17995 0.3146 0.0
O331 O 0.61892 0.18893 0.30814 0.0
O332 O 0.61058 0.23292 0.25178 0.0
O333 O 0.64214 0.25754 0.24259 0.0
O334 O 0.66315 0.28743 0.31778 0.0
O335 O 0.6991 0.20976 0.37175 0.0
O336 O 0.655 0.27776 0.38007 0.0
O337 O 0.67688 0.23214 0.41195 0.0
C338 C 0.71142 0.23396 0.26128 0.0
C339 C 0.59196 0.23733 0.38573 0.0
C340 C 0.62267 0.24682 0.22991 0.0
C341 C 0.63677 0.17434 0.31042 0.0
C342 C 0.65993 0.29255 0.35425 0.0
C343 C 0.69603 0.2194 0.40526 0.0
O344 O 0.6989 0.2518 0.26808 0.0
O345 O 0.03701 0.49859 0.30078 0.0
Zn346 Zn 0.0649 0.5041 0.34327 0.0
O347 O 0.09396 0.48342 0.33919 0.0
Zn348 Zn 0.12528 0.49907 0.32381 0.0
Zn349 Zn 0.0843 0.46247 0.29854 0.0
Zn350 Zn 0.10093 0.46715 0.38808 0.0
O351 O 0.15551 0.49148 0.35984 0.0
O352 O 0.1366 0.47426 0.41056 0.0
O353 O 0.07748 0.53616 0.3415 0.0
O354 O 0.11952 0.53166 0.33108 0.0
O355 O 0.13276 0.49489 0.26485 0.0
O356 O 0.10207 0.4705 0.24939 0.0
O357 O 0.09257 0.43123 0.31292 0.0
O358 O 0.04799 0.49874 0.39588 0.0
O359 O 0.1007 0.43394 0.37762 0.0
O360 O 0.07275 0.47415 0.42757 0.0
C361 C 0.03199 0.48082 0.28132 0.0
C362 C 0.15657 0.48291 0.39456 0.0
C363 C 0.1203 0.48337 0.23935 0.0
C364 C 0.10012 0.5442 0.3372 0.0
C365 C 0.09798 0.42228 0.34612 0.0
C366 C 0.05286 0.48668 0.4261 0.0
O367 O 0.04734 0.46432 0.2822 0.0
O368 O 0.8082 0.97257 0.5194 0.0
Zn369 Zn 0.83491 0.97 0.56463 0.0
O370 O 0.86196 -0.00738 0.56062 0.0
Zn371 Zn 0.895 0.97972 0.54499 0.0
Zn372 Zn 0.85007 0.01374 0.52194 0.0
Zn373 Zn 0.86739 0.00846 0.60992 0.0
O374 O 0.92431 -0.01183 0.58262 0.0
O375 O 0.90225 0.00248 0.63334 0.0
O376 O 0.85142 0.93907 0.56518 0.0
O377 O 0.89226 0.94684 0.55015 0.0
O378 O 0.90261 -0.01371 0.48695 0.0
O379 O 0.87047 0.00969 0.47396 0.0
O380 O 0.85314 0.0453 0.53934 0.0
O381 O 0.81541 0.97575 0.61577 0.0
O382 O 0.86545 0.04147 0.60208 0.0
O383 O 0.83946 0.00079 0.64785 0.0
C384 C 0.80157 -0.01022 0.49963 0.0
C385 C 0.92337 -0.00432 0.61818 0.0
C386 C 0.88991 -0.00153 0.4629 0.0
C387 C 0.87466 0.93287 0.55859 0.0
C388 C 0.85959 0.0537 0.57262 0.0
C389 C 0.81968 -0.01172 0.64583 0.0
O390 O 0.81443 0.00775 0.50221 0.0
O391 O 0.45435 0.25281 0.53054 0.0
Zn392 Zn 0.42711 0.25705 0.57472 0.0
O393 O 0.40037 0.23393 0.57321 0.0
Zn394 Zn 0.36764 0.24543 0.55382 0.0
Zn395 Zn 0.41283 0.21064 0.53868 0.0
Zn396 Zn 0.39393 0.22147 0.62553 0.0
O397 O 0.33777 0.23893 0.59111 0.0
O398 O 0.35808 0.2277 0.64563 0.0
O399 O 0.40994 0.28767 0.57073 0.0
O400 O 0.3698 0.27853 0.55361 0.0
O401 O 0.36057 0.23458 0.49775 0.0
O402 O 0.39075 0.2085 0.49133 0.0
O403 O 0.41417 0.1812 0.56542 0.0
O404 O 0.44607 0.25404 0.62714 0.0
O405 O 0.39873 0.18831 0.62569 0.0
O406 O 0.42014 0.23269 0.66358 0.0
C407 C 0.46027 0.23524 0.51103 0.0
C408 C 0.33746 0.23344 0.62776 0.0
C409 C 0.37177 0.21938 0.47759 0.0
C410 C 0.38682 0.29314 0.56165 0.0
C411 C 0.40759 0.17474 0.59996 0.0
C412 C 0.44053 0.24427 0.65972 0.0
O413 O 0.44705 0.21753 0.51445 0.0
O414 O 0.79444 0.25659 0.69175 0.0
Zn415 Zn 0.8201 0.26218 0.64692 0.0
O416 O 0.84925 0.24198 0.64783 0.0
Zn417 Zn 0.88035 0.25803 0.6628 0.0
Zn418 Zn 0.84033 0.21996 0.68696 0.0
Zn419 Zn 0.8552 0.22718 0.5972 0.0
O420 O 0.91009 0.25086 0.62567 0.0
O421 O 0.89029 0.23517 0.57388 0.0
O422 O 0.83179 0.29406 0.64895 0.0
O423 O 0.8741 0.29078 0.65774 0.0
O424 O 0.88845 0.25296 0.72108 0.0
O425 O 0.85941 0.22692 0.73541 0.0
O426 O 0.84831 0.18912 0.66923 0.0
O427 O 0.80126 0.25685 0.59629 0.0
O428 O 0.85618 0.19405 0.60493 0.0
O429 O 0.82536 0.23354 0.56033 0.0
C430 C 0.78932 0.23859 0.71014 0.0
C431 C 0.91058 0.24313 0.5902 0.0
C432 C 0.87712 0.24027 0.74587 0.0
C433 C 0.85407 0.30275 0.65297 0.0
C434 C 0.85375 0.18138 0.63499 0.0
C435 C 0.80508 0.24535 0.56493 0.0
O436 O 0.80373 0.22159 0.70623 0.0
O437 O 0.4651 0.96104 0.66606 0.0
Zn438 Zn 0.43546 0.95886 0.62603 0.0
O439 O 0.41073 0.98334 0.63196 0.0
Zn440 Zn 0.37671 0.97316 0.65019 0.0
Zn441 Zn 0.42566 0.0044 0.66942 0.0
Zn442 Zn 0.40556 -0.00185 0.58158 0.0
O443 O 0.34725 0.98223 0.61244 0.0
O444 O 0.36948 -0.00441 0.56133 0.0
O445 O 0.41664 0.9293 0.63226 0.0
O446 O 0.37683 0.93982 0.64904 0.0
O447 O 0.37069 0.98273 0.70808 0.0
O448 O 0.40579 0.00316 0.71916 0.0
O449 O 0.4253 0.03584 0.64902 0.0
O450 O 0.45272 0.96113 0.57204 0.0
O451 O 0.41242 0.03051 0.5867 0.0
O452 O 0.4301 -0.01279 0.5408 0.0
C453 C 0.4736 0.97756 0.68615 0.0
C454 C 0.34815 -0.01 0.5771 0.0
C455 C 0.38505 -0.00577 0.73126 0.0
C456 C 0.39332 0.92465 0.64151 0.0
C457 C 0.41982 0.04329 0.61463 0.0
C458 C 0.44832 0.97308 0.54147 0.0
O459 O 0.4614 -0.00406 0.68715 0.0
O460 O 0.21456 -0.00186 0.42666 0.0
Zn461 Zn 0.18827 0.00372 0.38262 0.0
O462 O 0.15889 0.98352 0.38492 0.0
Zn463 Zn 0.12801 -0.00104 0.40244 0.0
Zn464 Zn 0.16826 0.96048 0.42197 0.0
Zn465 Zn 0.15144 0.97018 0.33352 0.0
O466 O 0.09704 -0.00715 0.36631 0.0
O467 O 0.11599 0.97784 0.31327 0.0
O468 O 0.17634 0.03565 0.38573 0.0
O469 O 0.13459 0.03153 0.39912 0.0
O470 O 0.12153 -0.00748 0.46072 0.0
O471 O 0.14677 0.96313 0.46979 0.0
O472 O 0.16447 0.93027 0.39882 0.0
O473 O 0.20643 -0.00167 0.33092 0.0
O474 O 0.15251 0.93698 0.33663 0.0
O475 O 0.17893 0.97822 0.29472 0.0
C476 C 0.21895 0.98066 0.44699 0.0
C477 C 0.09599 0.98555 0.33056 0.0
C478 C 0.13072 0.9773 0.48299 0.0
C479 C 0.15409 0.04387 0.39264 0.0
C480 C 0.1581 0.92346 0.36433 0.0
C481 C 0.20034 -0.01163 0.2987 0.0
O482 O 0.20393 0.96396 0.44476 0.0
O483 O 0.55093 0.71253 0.44901 0.0
Zn484 Zn 0.58035 0.71046 0.40946 0.0
O485 O 0.60534 0.73444 0.4151 0.0
Zn486 Zn 0.6391 0.72283 0.43174 0.0
Zn487 Zn 0.5907 0.7552 0.45347 0.0
Zn488 Zn 0.61007 0.7499 0.36529 0.0
O489 O 0.66835 0.73246 0.39407 0.0
O490 O 0.64609 0.74711 0.34406 0.0
O491 O 0.59741 0.6808 0.41544 0.0
O492 O 0.63811 0.6892 0.43016 0.0
O493 O 0.6456 0.73164 0.48952 0.0
O494 O 0.61123 0.75282 0.50213 0.0
O495 O 0.59135 0.787 0.43465 0.0
O496 O 0.56366 0.71237 0.35613 0.0
O497 O 0.60436 0.78236 0.37231 0.0
O498 O 0.58409 0.73993 0.32545 0.0
C499 C 0.54262 0.72863 0.47016 0.0
C500 C 0.66745 0.74106 0.35934 0.0
C501 C 0.63176 0.74319 0.51333 0.0
C502 C 0.6204 0.6749 0.42367 0.0
C503 C 0.59719 0.79492 0.40074 0.0
C504 C 0.56668 0.72502 0.32619 0.0
O505 O 0.55492 0.74693 0.47215 0.0
O506 O 0.21299 0.71443 0.30127 0.0
Zn507 Zn 0.18591 0.70919 0.34494 0.0
O508 O 0.15766 0.73075 0.34315 0.0
Zn509 Zn 0.12453 0.71686 0.32994 0.0
Zn510 Zn 0.16681 0.75263 0.30396 0.0
Zn511 Zn 0.15373 0.74579 0.39345 0.0
O512 O 0.09536 0.72719 0.36737 0.0
O513 O 0.11818 0.74339 0.41537 0.0
O514 O 0.17091 0.67805 0.34177 0.0
O515 O 0.12856 0.68379 0.33624 0.0
O516 O 0.11639 0.72204 0.27124 0.0
O517 O 0.14604 0.74748 0.25636 0.0
O518 O 0.1629 0.7839 0.32311 0.0
O519 O 0.20477 0.71269 0.39711 0.0
O520 O 0.15922 0.77833 0.38802 0.0
O521 O 0.17959 0.73536 0.43234 0.0
C522 C 0.21754 0.73201 0.2812 0.0
C523 C 0.09669 0.73691 0.40125 0.0
C524 C 0.12762 0.73476 0.24634 0.0
C525 C 0.14781 0.67069 0.33954 0.0
C526 C 0.16134 0.79133 0.3585 0.0
C527 C 0.19954 0.72317 0.42917 0.0
O528 O 0.20246 0.74867 0.28287 0.0
O529 O 0.55677 0.00055 0.27017 0.0
Zn530 Zn 0.58334 0.00385 0.31535 0.0
O531 O 0.61079 0.98131 0.312 0.0
Zn532 Zn 0.64406 -0.00558 0.29745 0.0
Zn533 Zn 0.59988 0.95958 0.27283 0.0
Zn534 Zn 0.61544 0.96603 0.36214 0.0
O535 O 0.67311 0.98578 0.33616 0.0
O536 O 0.6509 0.96987 0.38491 0.0
O537 O 0.59931 0.03499 0.31394 0.0
O538 O 0.64066 0.02762 0.30154 0.0
O539 O 0.65246 -0.01277 0.2394 0.0
O540 O 0.62191 0.96233 0.2257 0.0
O541 O 0.60048 0.92819 0.29261 0.0
O542 O 0.5638 -0.00093 0.36706 0.0
O543 O 0.61021 0.93325 0.35622 0.0
O544 O 0.58887 0.97571 0.40088 0.0
C545 C 0.55132 0.98363 0.24863 0.0
C546 C 0.67212 0.97698 0.37072 0.0
C547 C 0.64107 0.97407 0.2152 0.0
C548 C 0.6225 0.04148 0.30804 0.0
C549 C 0.60453 0.9205 0.32726 0.0
C550 C 0.56881 -0.0122 0.39829 0.0
O551 O 0.56504 0.96611 0.25009 0.0
O552 O 0.79177 0.4731 0.03535 0.0
Zn553 Zn 0.81452 0.46581 0.08244 0.0
O554 O 0.84306 0.4866 0.08852 0.0
Zn555 Zn 0.87543 0.47126 0.0785 0.0
Zn556 Zn 0.8373 0.51067 0.05118 0.0
Zn557 Zn 0.84464 0.49886 0.14167 0.0
O558 O 0.90272 0.47861 0.12071 0.0
O559 O 0.87823 0.49234 0.16924 0.0
O560 O 0.82699 0.43422 0.07861 0.0
O561 O 0.86959 0.43825 0.07995 0.0
O562 O 0.88684 0.47846 0.02255 0.0
O563 O 0.86383 0.50891 0.0093 0.0
O564 O 0.83868 0.54072 0.07694 0.0
O565 O 0.7918 0.4682 0.13003 0.0
O566 O 0.84252 0.53195 0.14067 0.0
O567 O 0.81407 0.48912 0.17271 0.0
C568 C 0.78863 0.49103 0.01578 0.0
C569 C 0.9001 0.48584 0.15632 0.0
C570 C 0.88093 0.49468 -4e-05 0.0
C571 C 0.8496 0.42591 0.07897 0.0
C572 C 0.84048 0.5464 0.11335 0.0
C573 C 0.79415 0.47779 0.16364 0.0
O574 O 0.80356 0.50761 0.02113 0.0
O575 O 0.46032 0.756 0.04457 0.0
Zn576 Zn 0.43489 0.76158 0.09025 0.0
O577 O 0.40881 0.73813 0.09441 0.0
Zn578 Zn 0.37449 0.74931 0.08177 0.0
Zn579 Zn 0.41921 0.71494 0.05812 0.0
Zn580 Zn 0.40711 0.72543 0.14689 0.0
O581 O 0.34761 0.74004 0.1232 0.0
O582 O 0.37285 0.73011 0.17359 0.0
O583 O 0.41753 0.79168 0.08436 0.0
O584 O 0.37587 0.78268 0.08197 0.0
O585 O 0.36492 0.74027 0.02537 0.0
O586 O 0.39663 0.71642 0.01185 0.0
O587 O 0.41772 0.68454 0.08153 0.0
O588 O 0.45667 0.76102 0.13984 0.0
O589 O 0.41134 0.69239 0.14522 0.0
O590 O 0.43639 0.73671 0.17875 0.0
C591 C 0.4667 0.73773 0.02772 0.0
C592 C 0.35052 0.73408 0.15942 0.0
C593 C 0.37665 0.72714 0.00158 0.0
C594 C 0.39377 0.79723 0.0822 0.0
C595 C 0.41496 0.67836 0.11741 0.0
C596 C 0.45496 0.75004 0.17213 0.0
O597 O 0.45406 0.71996 0.03407 0.0
O598 O 0.80581 0.75576 0.21836 0.0
Zn599 Zn 0.8304 0.76081 0.17145 0.0
O600 O 0.85591 0.73709 0.1657 0.0
Zn601 Zn 0.89011 0.74792 0.1788 0.0
Zn602 Zn 0.84523 0.71353 0.20059 0.0
Zn603 Zn 0.85761 0.72535 0.11248 0.0
O604 O 0.91717 0.73853 0.138 0.0
O605 O 0.89193 0.7304 0.08642 0.0
O606 O 0.84818 0.79079 0.17406 0.0
O607 O 0.88958 0.78114 0.17699 0.0
O608 O 0.89852 0.73915 0.23521 0.0
O609 O 0.86855 0.71332 0.24617 0.0
O610 O 0.84485 0.68364 0.17454 0.0
O611 O 0.80783 0.76018 0.12329 0.0
O612 O 0.85287 0.69237 0.11175 0.0
O613 O 0.82839 0.73739 0.08152 0.0
C614 C 0.79913 0.73743 0.23451 0.0
C615 C 0.91425 0.73368 0.10123 0.0
C616 C 0.88757 0.72496 0.25771 0.0
C617 C 0.87206 0.79598 0.17531 0.0
C618 C 0.84804 0.678 0.13837 0.0
C619 C 0.80956 0.75016 0.08997 0.0
O620 O 0.81102 0.71941 0.22667 0.0
O621 O 0.44999 0.46855 0.20485 0.0
Zn622 Zn 0.42359 0.46403 0.16008 0.0
O623 O 0.397 0.48726 0.15923 0.0
Zn624 Zn 0.36329 0.47561 0.17457 0.0
Zn625 Zn 0.4084 0.5104 0.19509 0.0
Zn626 Zn 0.39307 0.50012 0.107 0.0
O627 O 0.33465 0.48345 0.13518 0.0
O628 O 0.35762 0.4967 0.08482 0.0
O629 O 0.40665 0.4337 0.16529 0.0
O630 O 0.36533 0.44239 0.17478 0.0
O631 O 0.35495 0.48551 0.23067 0.0
O632 O 0.385 0.5114 0.24065 0.0
O633 O 0.41003 0.54035 0.17001 0.0
O634 O 0.44331 0.46552 0.1084 0.0
O635 O 0.40008 0.53284 0.10727 0.0
O636 O 0.41853 0.48699 0.0703 0.0
C637 C 0.45556 0.48601 0.2248 0.0
C638 C 0.33612 0.49087 0.0997 0.0
C639 C 0.36577 0.50017 0.25252 0.0
C640 C 0.38319 0.42797 0.17088 0.0
C641 C 0.40643 0.5466 0.13434 0.0
C642 C 0.43819 0.47466 0.07513 0.0
O643 O 0.44229 0.50369 0.22114 0.0
O644 O 0.20284 0.49712 0.94945 0.0
Zn645 Zn 0.1771 0.50213 0.90473 0.0
O646 O 0.14714 0.48264 0.90887 0.0
Zn647 Zn 0.11592 0.49971 0.92101 0.0
Zn648 Zn 0.15476 0.46138 0.95025 0.0
Zn649 Zn 0.14143 0.4663 0.86012 0.0
O650 O 0.08648 0.49265 0.88237 0.0
O651 O 0.10716 0.47311 0.836 0.0
O652 O 0.16613 0.53439 0.90493 0.0
O653 O 0.12378 0.53223 0.91491 0.0
O654 O 0.10612 0.49562 0.97918 0.0
O655 O 0.13398 0.46918 -0.00326 0.0
O656 O 0.14839 0.42972 0.93422 0.0
O657 O 0.19584 0.49511 0.85396 0.0
O658 O 0.1416 0.43356 0.86948 0.0
O659 O 0.16968 0.47197 0.82157 0.0
C660 C 0.20648 0.48028 0.97173 0.0
C661 C 0.08684 0.48267 0.84873 0.0
C662 C 0.11622 0.48292 0.00523 0.0
C663 C 0.14415 0.54366 0.90917 0.0
C664 C 0.14406 0.42136 0.90005 0.0
C665 C 0.19052 0.48308 0.82375 0.0
O666 O 0.1907 0.46408 0.97171 0.0
O667 O 0.54481 0.21469 0.9278 0.0
Zn668 Zn 0.57377 0.21403 0.88665 0.0
O669 O 0.59785 0.23881 0.89344 0.0
Zn670 Zn 0.63174 0.22879 0.91204 0.0
Zn671 Zn 0.58229 0.25943 0.93102 0.0
Zn672 Zn 0.60303 0.2538 0.84322 0.0
O673 O 0.66132 0.23915 0.87592 0.0
O674 O 0.63948 0.25255 0.82439 0.0
O675 O 0.59339 0.18478 0.88938 0.0
O676 O 0.6327 0.19551 0.90817 0.0
O677 O 0.63668 0.23744 0.97044 0.0
O678 O 0.60219 0.25877 0.98106 0.0
O679 O 0.58049 0.29075 0.90987 0.0
O680 O 0.55593 0.21714 0.83351 0.0
O681 O 0.59426 0.28583 0.84791 0.0
O682 O 0.57955 0.24222 0.80146 0.0
C683 C 0.5359 0.23082 0.94843 0.0
C684 C 0.66071 0.24731 0.84086 0.0
C685 C 0.62254 0.24926 -0.00657 0.0
C686 C 0.61676 0.18029 0.89851 0.0
C687 C 0.58567 0.29833 0.87542 0.0
C688 C 0.56081 0.22862 0.80257 0.0
O689 O 0.54723 0.2496 0.94927 0.0
O690 O 0.21201 0.21576 0.80193 0.0
Zn691 Zn 0.1832 0.21245 0.84184 0.0
O692 O 0.15464 0.23251 0.83172 0.0
Zn693 Zn 0.1244 0.21596 0.81413 0.0
Zn694 Zn 0.16663 0.25332 0.79177 0.0
Zn695 Zn 0.14514 0.24877 0.87941 0.0
O696 O 0.09308 0.22178 0.84896 0.0
O697 O 0.10993 0.24061 0.89966 0.0
O698 O 0.17188 0.18051 0.84089 0.0
O699 O 0.13175 0.18333 0.81814 0.0
O700 O 0.11711 0.22221 0.75625 0.0
O701 O 0.1475 0.24726 0.74266 0.0
O702 O 0.16072 0.28514 0.80777 0.0
O703 O 0.19893 0.22068 0.89369 0.0
O704 O 0.14423 0.2813 0.86834 0.0
O705 O 0.17201 0.24509 0.92136 0.0
C706 C 0.21821 0.23169 0.77898 0.0
C707 C 0.09089 0.23086 0.88318 0.0
C708 C 0.12897 0.23481 0.73193 0.0
C709 C 0.15083 0.1716 0.82948 0.0
C710 C 0.15124 0.29349 0.83943 0.0
C711 C 0.19282 0.23387 0.92186 0.0
O712 O 0.20356 0.24851 0.7748 0.0
O713 O 0.5366 0.5095 0.8096 0.0
Zn714 Zn 0.56576 0.51225 0.84942 0.0
O715 O 0.59275 0.49018 0.84184 0.0
Zn716 Zn 0.62481 0.50384 0.82239 0.0
Zn717 Zn 0.57879 0.46824 0.80505 0.0
Zn718 Zn 0.6003 0.47576 0.89198 0.0
O719 O 0.65624 0.496 0.85732 0.0
O720 O 0.63713 0.47865 0.90759 0.0
O721 O 0.58048 0.54296 0.84549 0.0
O722 O 0.62075 0.53736 0.82456 0.0
O723 O 0.63051 0.49433 0.76462 0.0
O724 O 0.59965 0.46887 0.75632 0.0
O725 O 0.57856 0.43733 0.82774 0.0
O726 O 0.54965 0.50759 0.90273 0.0
O727 O 0.59337 0.44328 0.88877 0.0
O728 O 0.57746 0.4863 0.93554 0.0
C729 C 0.52971 0.49341 0.78727 0.0
C730 C 0.65732 0.48628 0.89104 0.0
C731 C 0.61854 0.48009 0.74313 0.0
C732 C 0.6024 0.5504 0.83464 0.0
C733 C 0.58479 0.43023 0.86209 0.0
C734 C 0.55672 0.49752 0.93418 0.0
O735 O 0.54327 0.47581 0.78474 0.0
H736 H 0.42519 0.8327 0.06695 0.0
H737 H 0.34582 0.81525 0.0909 0.0
H738 H 0.33322 0.85414 0.08533 0.0
H739 H 0.3445 0.89307 0.07398 0.0
H740 H 0.42364 0.91086 0.04923 0.0
H741 H 0.43642 0.87188 0.05457 0.0
C742 C 0.40516 0.83742 0.07109 0.0
C743 C 0.38653 0.82103 0.07941 0.0
C744 C 0.39792 0.85987 0.06754 0.0
C745 C 0.3606 0.82745 0.08438 0.0
C746 C 0.35333 0.84972 0.08122 0.0
C747 C 0.36455 0.88847 0.06963 0.0
C748 C 0.38304 0.90495 0.06126 0.0
C749 C 0.3718 0.86606 0.07277 0.0
C750 C 0.40894 0.89858 0.05565 0.0
C751 C 0.41631 0.87627 0.0588 0.0
H752 H 0.89446 0.40281 0.08336 0.0
H753 H 0.81198 0.39396 0.07312 0.0
H754 H 0.81767 0.35361 0.0718 0.0
H755 H 0.84617 0.32085 0.07324 0.0
H756 H 0.9286 0.3303 0.08375 0.0
H757 H 0.92267 0.37042 0.08529 0.0
C758 C 0.87767 0.39211 0.08081 0.0
C759 C 0.85285 0.40145 0.07828 0.0
C760 C 0.88104 0.369 0.08013 0.0
C761 C 0.83135 0.38725 0.07512 0.0
C762 C 0.83457 0.36416 0.07435 0.0
C763 C 0.86283 0.33167 0.0759 0.0
C764 C 0.88778 0.3225 0.07832 0.0
C765 C 0.85934 0.35485 0.07679 0.0
C766 C 0.90915 0.33683 0.08181 0.0
C767 C 0.90582 0.35982 0.08268 0.0
H768 H 0.41528 0.392 0.17613 0.0
H769 H 0.33482 0.41032 0.16758 0.0
H770 H 0.32252 0.37127 0.16674 0.0
H771 H 0.3344 0.33195 0.1665 0.0
H772 H 0.4146 0.31316 0.17607 0.0
H773 H 0.42709 0.35232 0.17873 0.0
C774 C 0.39507 0.38744 0.17414 0.0
C775 C 0.37607 0.40412 0.17173 0.0
C776 C 0.38801 0.36486 0.17388 0.0
C777 C 0.34992 0.39789 0.16951 0.0
C778 C 0.3428 0.37552 0.16896 0.0
C779 C 0.35462 0.33638 0.16929 0.0
C780 C 0.37351 0.31962 0.17085 0.0
C781 C 0.36168 0.35889 0.17085 0.0
C782 C 0.39962 0.32571 0.17483 0.0
C783 C 0.4068 0.34811 0.17622 0.0
H784 H 0.84107 0.83248 0.16835 0.0
H785 H 0.92111 0.81256 0.17497 0.0
H786 H 0.93464 0.85093 0.16536 0.0
H787 H 0.92399 0.89005 0.15371 0.0
H788 H 0.84408 0.91024 0.14802 0.0
H789 H 0.83039 0.87186 0.15846 0.0
C790 C 0.86147 0.83653 0.16794 0.0
C791 C 0.87997 0.81959 0.17229 0.0
C792 C 0.86922 0.85868 0.16228 0.0
C793 C 0.90636 0.82521 0.17169 0.0
C794 C 0.91418 0.84717 0.16608 0.0
C795 C 0.90358 0.88606 0.15458 0.0
C796 C 0.88513 0.90298 0.14988 0.0
C797 C 0.8958 0.864 0.16099 0.0
C798 C 0.85873 0.89754 0.15156 0.0
C799 C 0.85085 0.87559 0.15754 0.0
H800 H 0.67397 0.08745 0.89072 0.0
H801 H 0.59515 0.06411 0.88972 0.0
H802 H 0.57948 0.10229 0.89219 0.0
H803 H 0.58796 0.1424 0.89495 0.0
H804 H 0.66671 0.16585 0.89832 0.0
H805 H 0.68246 0.12767 0.8947 0.0
C806 C 0.65338 0.09074 0.89092 0.0
C807 C 0.63582 0.07293 0.89002 0.0
C808 C 0.64441 0.1128 0.89288 0.0
C809 C 0.60916 0.07748 0.89062 0.0
C810 C 0.60012 0.09934 0.89195 0.0
C811 C 0.60856 0.13917 0.89484 0.0
C812 C 0.62606 0.15699 0.89687 0.0
C813 C 0.61755 0.11713 0.89317 0.0
C814 C 0.65273 0.15246 0.89698 0.0
C815 C 0.66181 0.13061 0.8948 0.0
H816 H 0.15341 0.64844 0.91235 0.0
H817 H 0.07041 0.64253 0.91921 0.0
H818 H 0.07395 0.60212 0.91625 0.0
H819 H 0.10041 0.56853 0.9125 0.0
H820 H 0.1834 0.57415 0.90508 0.0
H821 H 0.17994 0.61467 0.90724 0.0
C822 C 0.13608 0.63833 0.91328 0.0
C823 C 0.11169 0.64856 0.91616 0.0
C824 C 0.13821 0.61506 0.91135 0.0
C825 C 0.08944 0.63516 0.91701 0.0
C826 C 0.09143 0.61202 0.91532 0.0
C827 C 0.1178 0.57856 0.91127 0.0
C828 C 0.14214 0.56825 0.90875 0.0
C829 C 0.11569 0.60181 0.91257 0.0
C830 C 0.1644 0.5816 0.907 0.0
C831 C 0.16246 0.60479 0.90833 0.0
H832 H 0.60222 0.65544 0.83895 0.0
H833 H 0.68435 0.6444 0.82902 0.0
H834 H 0.67733 0.60433 0.82635 0.0
H835 H 0.64808 0.57236 0.82816 0.0
H836 H 0.56604 0.58321 0.8402 0.0
H837 H 0.57289 0.62337 0.84066 0.0
C838 C 0.61857 0.64428 0.836 0.0
C839 C 0.64375 0.65294 0.8342 0.0
C840 C 0.61446 0.62119 0.83495 0.0
C841 C 0.66475 0.63821 0.83065 0.0
C842 C 0.66077 0.61527 0.82906 0.0
C843 C 0.63167 0.58349 0.8307 0.0
C844 C 0.60661 0.57475 0.83413 0.0
C845 C 0.63574 0.60657 0.83139 0.0
C846 C 0.58558 0.58946 0.83767 0.0
C847 C 0.58945 0.61245 0.83788 0.0
H848 H 0.10797 0.14736 0.81329 0.0
H849 H 0.18903 0.14076 0.84101 0.0
H850 H 0.18576 0.10039 0.83421 0.0
H851 H 0.15993 0.06705 0.81982 0.0
H852 H 0.07872 0.07392 0.79349 0.0
H853 H 0.08214 0.11424 0.80002 0.0
C854 C 0.12496 0.13714 0.81794 0.0
C855 C 0.14871 0.1471 0.82755 0.0
C856 C 0.12297 0.11401 0.81398 0.0
C857 C 0.17047 0.13354 0.83368 0.0
C858 C 0.16866 0.11046 0.82964 0.0
C859 C 0.14303 0.07739 0.81525 0.0
C860 C 0.11915 0.06753 0.80601 0.0
C861 C 0.14503 0.10054 0.81959 0.0
C862 C 0.09733 0.08111 0.80066 0.0
C863 C 0.09925 0.10415 0.80441 0.0
H864 H 0.41718 0.33042 0.5652 0.0
H865 H 0.33762 0.30904 0.56078 0.0
H866 H 0.32317 0.34745 0.56502 0.0
H867 H 0.33279 0.38725 0.57066 0.0
H868 H 0.41216 0.40904 0.57274 0.0
H869 H 0.42683 0.37052 0.56879 0.0
C870 C 0.3967 0.33418 0.56508 0.0
C871 C 0.37861 0.31679 0.56269 0.0
C872 C 0.38837 0.35644 0.56721 0.0
C873 C 0.35209 0.32202 0.56238 0.0
C874 C 0.34372 0.34403 0.56495 0.0
C875 C 0.35328 0.38357 0.57034 0.0
C876 C 0.37128 0.40101 0.57213 0.0
C877 C 0.36165 0.36138 0.56753 0.0
C878 C 0.39782 0.39594 0.57127 0.0
C879 C 0.40628 0.37389 0.56908 0.0
H880 H 0.84308 0.89688 0.56884 0.0
H881 H 0.92318 0.91534 0.55527 0.0
H882 H 0.93605 0.87655 0.56053 0.0
H883 H 0.92479 0.83715 0.56846 0.0
H884 H 0.84467 0.81857 0.58073 0.0
H885 H 0.83181 0.85745 0.57661 0.0
C886 C 0.86334 0.89243 0.56705 0.0
C887 C 0.88203 0.90908 0.5616 0.0
C888 C 0.87073 0.86998 0.5699 0.0
C889 C 0.90825 0.90293 0.55929 0.0
C890 C 0.91572 0.8807 0.56237 0.0
C891 C 0.90454 0.84161 0.57038 0.0
C892 C 0.88581 0.82491 0.57484 0.0
C893 C 0.89715 0.86406 0.56763 0.0
C894 C 0.85959 0.83103 0.57708 0.0
C895 C 0.85214 0.8533 0.57478 0.0
H896 H 0.42336 0.8878 0.65019 0.0
H897 H 0.34405 0.90878 0.63843 0.0
H898 H 0.32959 0.87029 0.64401 0.0
H899 H 0.33936 0.83056 0.65315 0.0
H900 H 0.4187 0.80997 0.66743 0.0
H901 H 0.43308 0.84827 0.66007 0.0
C902 C 0.40293 0.88393 0.64863 0.0
C903 C 0.38487 0.90115 0.64385 0.0
C904 C 0.39466 0.86178 0.65251 0.0
C905 C 0.35841 0.89586 0.64227 0.0
C906 C 0.35008 0.87384 0.64542 0.0
C907 C 0.35978 0.83446 0.65462 0.0
C908 C 0.37784 0.81736 0.6609 0.0
C909 C 0.36802 0.85665 0.65074 0.0
C910 C 0.40427 0.82277 0.66289 0.0
C911 C 0.41259 0.84469 0.65855 0.0
H912 H 0.89857 0.32667 0.65351 0.0
H913 H 0.81558 0.33389 0.6536 0.0
H914 H 0.8201 0.37424 0.6576 0.0
H915 H 0.84745 0.40727 0.66261 0.0
H916 H 0.93043 0.40022 0.66178 0.0
H917 H 0.92598 0.35984 0.65653 0.0
C918 C 0.88144 0.33704 0.65432 0.0
C919 C 0.85677 0.32723 0.65345 0.0
C920 C 0.88415 0.36021 0.65662 0.0
C921 C 0.83481 0.34097 0.65423 0.0
C922 C 0.83736 0.36405 0.65662 0.0
C923 C 0.8646 0.39693 0.66136 0.0
C924 C 0.88924 0.40674 0.66287 0.0
C925 C 0.86192 0.37381 0.65814 0.0
C926 C 0.91123 0.39309 0.66073 0.0
C927 C 0.90871 0.37001 0.65776 0.0
H928 H 0.66418 0.57712 0.4277 0.0
H929 H 0.58275 0.56168 0.42705 0.0
H930 H 0.57246 0.60136 0.42708 0.0
H931 H 0.58662 0.6403 0.42532 0.0
H932 H 0.6681 0.65556 0.42674 0.0
H933 H 0.67829 0.61593 0.42836 0.0
C934 C 0.64415 0.58238 0.42764 0.0
C935 C 0.62427 0.56642 0.42712 0.0
C936 C 0.63838 0.60516 0.42765 0.0
C937 C 0.59844 0.57359 0.42745 0.0
C938 C 0.59254 0.59628 0.42734 0.0
C939 C 0.60663 0.63498 0.42596 0.0
C940 C 0.62657 0.6509 0.42564 0.0
C941 C 0.61236 0.61219 0.42709 0.0
C942 C 0.65237 0.64369 0.42693 0.0
C943 C 0.65823 0.62103 0.42781 0.0
H944 H 0.10895 0.06613 0.39954 0.0
H945 H 0.19118 0.07642 0.38879 0.0
H946 H 0.18471 0.11668 0.3928 0.0
H947 H 0.1556 0.14882 0.39933 0.0
H948 H 0.07339 0.13794 0.40896 0.0
H949 H 0.0801 0.09786 0.40565 0.0
C950 C 0.12554 0.07711 0.39809 0.0
C951 C 0.15052 0.06825 0.39396 0.0
C952 C 0.1217 0.1001 0.40035 0.0
C953 C 0.17173 0.0828 0.3919 0.0
C954 C 0.16805 0.10581 0.39429 0.0
C955 C 0.13916 0.13767 0.40094 0.0
C956 C 0.11404 0.14635 0.40448 0.0
C957 C 0.14311 0.11462 0.3986 0.0
C958 C 0.09293 0.1317 0.40616 0.0
C959 C 0.09673 0.10878 0.40426 0.0
H960 H 0.66919 0.13861 0.30973 0.0
H961 H 0.58833 0.15602 0.30855 0.0
H962 H 0.57666 0.11668 0.30826 0.0
H963 H 0.58939 0.07711 0.30864 0.0
H964 H 0.67043 0.06015 0.30888 0.0
H965 H 0.68186 0.0994 0.30933 0.0
C966 C 0.649 0.13386 0.30936 0.0
C967 C 0.62973 0.15036 0.3092 0.0
C968 C 0.64237 0.11118 0.30912 0.0
C969 C 0.60365 0.14376 0.30862 0.0
C970 C 0.59691 0.12121 0.30853 0.0
C971 C 0.60954 0.082 0.30889 0.0
C972 C 0.62895 0.06558 0.30876 0.0
C973 C 0.61611 0.10475 0.30887 0.0
C974 C 0.65499 0.07232 0.30886 0.0
C975 C 0.66162 0.09482 0.30915 0.0
H976 H 0.10141 0.64932 0.34153 0.0
H977 H 0.18364 0.63725 0.33932 0.0
H978 H 0.17592 0.59723 0.33893 0.0
H979 H 0.14609 0.5658 0.3381 0.0
H980 H 0.06383 0.57747 0.34074 0.0
H981 H 0.07142 0.61764 0.34219 0.0
C982 C 0.11769 0.63797 0.34098 0.0
C983 C 0.14309 0.64636 0.34029 0.0
C984 C 0.11313 0.61493 0.34081 0.0
C985 C 0.16389 0.63133 0.33983 0.0
C986 C 0.1595 0.60841 0.33957 0.0
C987 C 0.12974 0.57707 0.33898 0.0
C988 C 0.10439 0.56857 0.3391 0.0
C989 C 0.13423 0.60006 0.33985 0.0
C990 C 0.08353 0.58351 0.34058 0.0
C991 C 0.08786 0.60649 0.34136 0.0
H992 H 0.2714 0.96613 0.15243 0.0
H993 H 0.32995 -0.01141 0.23475 0.0
H994 H 0.297 -0.00488 0.28551 0.0
H995 H 0.25162 -0.00398 0.30511 0.0
H996 H 0.19297 0.97432 0.22218 0.0
H997 H 0.22609 0.96639 0.17245 0.0
C998 C 0.27703 0.97201 0.18175 0.0
C999 C 0.30302 0.97676 0.19001 0.0
C1000 C 0.25798 0.97639 0.2102 0.0
C1001 C 0.31001 0.98475 0.22785 0.0
C1002 C 0.2912 -0.01134 0.2567 0.0
C1003 C 0.24601 -0.01019 0.27601 0.0
C1004 C 0.21988 -0.01406 0.26721 0.0
C1005 C 0.2651 0.98497 0.24786 0.0
C1006 C 0.21298 0.97755 0.22958 0.0
C1007 C 0.23188 0.97286 0.20125 0.0
H1008 H 0.04243 0.25894 0.2691 0.0
H1009 H 0.03467 0.18799 0.28429 0.0
H1010 H 0.9962 0.18789 0.24224 0.0
H1011 H 0.96424 0.20817 0.20289 0.0
H1012 H 0.97182 0.27917 0.18806 0.0
H1013 H 0.0106 0.27919 0.22939 0.0
C1014 C 0.03262 0.24342 0.26243 0.0
C1015 C 0.04136 0.22349 0.27926 0.0
C1016 C 0.01014 0.2436 0.23938 0.0
C1017 C 0.02825 0.20351 0.27127 0.0
C1018 C 0.00616 0.20347 0.24764 0.0
C1019 C 0.97412 0.22368 0.20937 0.0
C1020 C 0.96516 0.24365 0.19293 0.0
C1021 C 0.99669 0.22348 0.23218 0.0
C1022 C 0.97838 0.26361 0.20074 0.0
C1023 C 1.00063 0.26361 0.224 0.0
H1024 H 0.2441 0.23048 0.91306 0.0
H1025 H 0.18526 0.25038 -0.00308 0.0
H1026 H 0.21863 0.26167 0.04456 0.0
H1027 H 0.26429 0.26382 0.06308 0.0
H1028 H 0.32278 0.24346 0.97883 0.0
H1029 H 0.28949 0.23518 0.92958 0.0
C1030 C 0.23855 0.23704 0.94196 0.0
C1031 C 0.21236 0.23912 0.95203 0.0
C1032 C 0.25767 0.24387 0.96853 0.0
C1033 C 0.20538 0.24832 0.98895 0.0
C1034 C 0.2244 0.25492 0.01594 0.0
C1035 C 0.26981 0.25813 0.03359 0.0
C1036 C 0.29589 0.25412 0.02457 0.0
C1037 C 0.25059 0.25267 0.00604 0.0
C1038 C 0.30277 0.2466 0.98639 0.0
C1039 C 0.28378 0.24165 0.95843 0.0
H1040 H 0.96711 0.00573 -0.0066 0.0
H1041 H 0.98224 0.93777 0.02758 0.0
H1042 H 0.02106 0.93736 0.98633 0.0
H1043 H 0.05118 0.95665 0.94161 0.0
H1044 H 0.03559 0.02448 0.9075 0.0
H1045 H 0.99675 0.02479 0.9486 0.0
C1046 C 0.97863 -0.00931 -0.00868 0.0
C1047 C 0.97176 0.9718 0.01333 0.0
C1048 C 1.00117 -0.00927 0.96837 0.0
C1049 C 0.98711 0.95254 0.01076 0.0
C1050 C 0.00941 0.95233 0.98748 0.0
C1051 C 0.03949 0.97159 0.94384 0.0
C1052 C 0.04626 -0.00942 0.92206 0.0
C1053 C 0.01684 0.97145 0.96667 0.0
C1054 C 0.03073 0.00971 0.92432 0.0
C1055 C 0.00846 0.00985 0.94751 0.0
H1056 H 0.74733 0.01265 0.78945 0.0
H1057 H 0.69005 0.9844 0.71081 0.0
H1058 H 0.72332 0.97711 0.6608 0.0
H1059 H 0.76888 0.97761 0.64064 0.0
H1060 H 0.826 0.00518 0.72043 0.0
H1061 H 0.79252 0.01343 0.76928 0.0
C1062 C 0.74201 0.0053 0.76107 0.0
C1063 C 0.71627 -0.00077 0.75368 0.0
C1064 C 0.76126 0.00054 0.73311 0.0
C1065 C 0.70976 -0.01068 0.71706 0.0
C1066 C 0.72878 0.98498 0.68863 0.0
C1067 C 0.77404 0.98513 0.66894 0.0
C1068 C 0.79988 -0.00937 0.67702 0.0
C1069 C 0.75466 -0.00985 0.69667 0.0
C1070 C 0.80623 0.00071 0.71356 0.0
C1071 C 0.7871 0.00557 0.7414 0.0
H1072 H 0.05165 0.7604 0.77333 0.0
H1073 H 0.0242 0.69751 0.81849 0.0
H1074 H 0.98673 0.69941 0.77485 0.0
H1075 H 0.96133 0.71913 0.72515 0.0
H1076 H 0.98842 0.78193 0.67912 0.0
H1077 H 0.02627 0.78003 0.72242 0.0
C1078 C 0.03766 0.74697 0.77313 0.0
C1079 C 0.04071 0.72883 0.79899 0.0
C1080 C 0.01587 0.74833 0.74843 0.0
C1081 C 0.02226 0.71167 0.79884 0.0
C1082 C 1.00076 0.71278 0.77407 0.0
C1083 C 0.97533 0.73256 0.72489 0.0
C1084 C 0.97196 0.75071 0.6992 0.0
C1085 C 0.9972 0.73117 0.74918 0.0
C1086 C 0.99052 0.76779 0.69879 0.0
C1087 C 0.01223 0.76667 0.72335 0.0
H1088 H 0.70692 0.75922 -0.00774 0.0
H1089 H 0.73058 0.69363 0.95369 0.0
H1090 H 0.76818 0.69557 -0.00286 0.0
H1091 H 0.79567 0.71682 0.04167 0.0
H1092 H 0.7725 0.78224 0.08133 0.0
H1093 H 0.73327 0.77965 0.04075 0.0
C1094 C 0.71999 0.74515 -0.00599 0.0
C1095 C 0.71615 0.72638 0.96965 0.0
C1096 C 0.74188 0.74662 0.01817 0.0
C1097 C 0.73326 0.7083 0.97207 0.0
C1098 C 0.75484 0.70947 -0.00342 0.0
C1099 C 0.78222 0.73067 0.04104 0.0
C1100 C 0.78712 0.74992 0.06352 0.0
C1101 C 0.75968 0.7288 0.01872 0.0
C1102 C 0.76918 0.76742 0.0636 0.0
C1103 C 0.74675 0.76585 0.04075 0.0
H1104 H 0.24107 0.49445 0.82688 0.0
H1105 H 0.18376 0.46417 0.75056 0.0
H1106 H 0.21672 0.45646 0.70058 0.0
H1107 H 0.2614 0.45917 0.67798 0.0
H1108 H 0.31854 0.49028 0.75337 0.0
H1109 H 0.28602 0.49632 0.80493 0.0
C1110 C 0.23573 0.48635 0.79918 0.0
C1111 C 0.20999 0.48006 0.7923 0.0
C1112 C 0.25476 0.48177 0.77078 0.0
C1113 C 0.20344 0.46928 0.75649 0.0
C1114 C 0.22228 0.46475 0.72799 0.0
C1115 C 0.26686 0.46687 0.706 0.0
C1116 C 0.29228 0.47421 0.712 0.0
C1117 C 0.24798 0.47088 0.73489 0.0
C1118 C 0.29903 0.48447 0.74818 0.0
C1119 C 0.28044 0.48807 0.7775 0.0
H1120 H 0.25055 0.71307 0.4249 0.0
H1121 H 0.19133 0.73608 0.50573 0.0
H1122 H 0.22385 0.74393 0.5562 0.0
H1123 H 0.26889 0.74557 0.57644 0.0
H1124 H 0.32845 0.72181 0.49717 0.0
H1125 H 0.29591 0.71336 0.44643 0.0
C1126 C 0.24473 0.71942 0.45381 0.0
C1127 C 0.21862 0.72404 0.46156 0.0
C1128 C 0.26356 0.72426 0.4825 0.0
C1129 C 0.21136 0.73244 0.49903 0.0
C1130 C 0.22992 0.73709 0.5278 0.0
C1131 C 0.27481 0.73887 0.54782 0.0
C1132 C 0.30098 0.73466 0.54016 0.0
C1133 C 0.25607 0.73348 0.51952 0.0
C1134 C 0.30836 0.7254 0.50343 0.0
C1135 C 0.28979 0.72042 0.47462 0.0
H1136 H 0.00538 0.50585 0.42789 0.0
H1137 H 0.05769 0.46594 0.49803 0.0
H1138 H 0.02537 0.4632 0.55059 0.0
H1139 H 0.98247 0.47171 0.57612 0.0
H1140 H 0.92993 0.51157 0.50635 0.0
H1141 H 0.96231 0.51453 0.45372 0.0
C1142 C 0.00984 0.49667 0.45477 0.0
C1143 C 0.03397 0.48615 0.45902 0.0
C1144 C 0.99112 0.49497 0.48469 0.0
C1145 C 0.0393 0.47421 0.49397 0.0
C1146 C 0.02081 0.47258 0.52399 0.0
C1147 C 0.97795 0.48099 0.54936 0.0
C1148 C 0.95374 0.49135 0.54517 0.0
C1149 C 0.99665 0.48277 0.51951 0.0
C1150 C 0.94837 0.50338 0.51032 0.0
C1151 C 0.9669 0.50514 0.48029 0.0
H1152 H 0.78404 0.50863 0.2198 0.0
H1153 H 0.75394 0.44854 0.16636 0.0
H1154 H 0.71545 0.45111 0.20823 0.0
H1155 H 0.6915 0.46965 0.26132 0.0
H1156 H 0.72192 0.52958 0.31512 0.0
H1157 H 0.75904 0.5282 0.27049 0.0
C1158 C 0.76919 0.49595 0.21762 0.0
C1159 C 0.77192 0.47822 0.19063 0.0
C1160 C 0.74708 0.49774 0.24113 0.0
C1161 C 0.75229 0.46222 0.18731 0.0
C1162 C 0.73027 0.46375 0.21099 0.0
C1163 C 0.70598 0.48266 0.26285 0.0
C1164 C 0.70408 0.49961 0.29163 0.0
C1165 C 0.72753 0.48143 0.238 0.0
C1166 C 0.72303 0.51631 0.29328 0.0
C1167 C 0.74433 0.51544 0.26805 0.0
H1168 H 0.70309 0.24851 0.46522 0.0
H1169 H 0.73724 0.19066 0.40969 0.0
H1170 H 0.77501 0.19418 0.45325 0.0
H1171 H 0.79846 0.21439 0.50619 0.0
H1172 H 0.76396 0.27309 0.55858 0.0
H1173 H 0.72629 0.26874 0.51619 0.0
C1174 C 0.71857 0.2364 0.46289 0.0
C1175 C 0.71725 0.21921 0.43453 0.0
C1176 C 0.74036 0.23896 0.48686 0.0
C1177 C 0.73774 0.20396 0.43154 0.0
C1178 C 0.75938 0.20607 0.45618 0.0
C1179 C 0.78285 0.22638 0.50793 0.0
C1180 C 0.78404 0.24403 0.53551 0.0
C1181 C 0.76103 0.22371 0.4836 0.0
C1182 C 0.76354 0.25933 0.53767 0.0
C1183 C 0.74191 0.2568 0.51361 0.0
H1184 H 0.5094 0.22279 0.80843 0.0
H1185 H 0.56987 0.23808 0.72458 0.0
H1186 H 0.53765 0.24615 0.67338 0.0
H1187 H 0.4923 0.24958 0.65316 0.0
H1188 H 0.43197 0.23501 0.73782 0.0
H1189 H 0.46421 0.22656 0.7885 0.0
C1190 C 0.51551 0.22743 0.77869 0.0
C1191 C 0.54189 0.22954 0.77 0.0
C1192 C 0.49695 0.23276 0.74998 0.0
C1193 C 0.5496 0.23613 0.73171 0.0
C1194 C 0.53122 0.24096 0.70262 0.0
C1195 C 0.48622 0.24497 0.68291 0.0
C1196 C 0.45983 0.24306 0.69183 0.0
C1197 C 0.50484 0.23967 0.71165 0.0
C1198 C 0.45222 0.23668 0.73031 0.0
C1199 C 0.47061 0.23166 0.75919 0.0
H1200 H 0.49947 0.96491 0.54613 0.0
H1201 H 0.43942 0.9841 0.46413 0.0
H1202 H 0.47174 -0.00809 0.41301 0.0
H1203 H 0.51714 -0.00561 0.39249 0.0
H1204 H 0.5771 0.97582 0.47522 0.0
H1205 H 0.54472 0.96722 0.5256 0.0
C1206 C 0.49344 0.97033 0.51678 0.0
C1207 C 0.46715 0.97369 0.50869 0.0
C1208 C 0.51212 0.97548 0.48808 0.0
C1209 C 0.45961 0.98123 0.47087 0.0
C1210 C 0.47805 0.9859 0.4418 0.0
C1211 C 0.52311 -0.01117 0.42177 0.0
C1212 C 0.54945 0.98593 0.43025 0.0
C1213 C 0.50439 0.98348 0.45034 0.0
C1214 C 0.55691 0.97829 0.46806 0.0
C1215 C 0.53842 0.9732 0.49678 0.0
H1216 H 0.46691 0.7172 0.2228 0.0
H1217 H 0.49326 0.78116 0.18103 0.0
H1218 H 0.53198 0.77793 0.22255 0.0
H1219 H 0.5575 0.75712 0.27144 0.0
H1220 H 0.53077 0.69291 0.3118 0.0
H1221 H 0.49309 0.69582 0.26873 0.0
C1222 C 0.48092 0.73062 0.2231 0.0
C1223 C 0.47707 0.74959 0.19951 0.0
C1224 C 0.5032 0.72838 0.24601 0.0
C1225 C 0.49573 0.76653 0.19939 0.0
C1226 C 0.51789 0.76461 0.22283 0.0
C1227 C 0.54369 0.74357 0.2703 0.0
C1228 C 0.54685 0.72486 0.29488 0.0
C1229 C 0.52181 0.74555 0.24614 0.0
C1230 C 0.52872 0.70751 0.29322 0.0
C1231 C 0.50709 0.70923 0.26887 0.0
H1232 H 0.48999 0.47271 0.08361 0.0
H1233 H 0.42942 0.47831 -0.00404 0.0
H1234 H 0.4611 0.48777 0.94505 0.0
H1235 H 0.50533 0.49641 0.92657 0.0
H1236 H 0.5665 0.49026 0.01299 0.0
H1237 H 0.53502 0.47968 0.064 0.0
C1238 C 0.48387 0.47542 0.05312 0.0
C1239 C 0.45754 0.47477 0.04334 0.0
C1240 C 0.50208 0.48149 0.02434 0.0
C1241 C 0.44968 0.47868 0.00397 0.0
C1242 C 0.4677 0.48432 0.97504 0.0
C1243 C 0.51173 0.49317 0.95677 0.0
C1244 C 0.53801 0.49456 0.96643 0.0
C1245 C 0.4938 0.48636 0.9852 0.0
C1246 C 0.54621 0.48962 0.00524 0.0
C1247 C 0.52831 0.48335 0.03417 0.0
H1248 H 0.34802 -0.00093 0.9097 0.0
H1249 H 0.43028 -0.00338 0.92946 0.0
H1250 H 0.43761 -0.00405 0.8573 0.0
H1251 H 0.42049 -0.00446 0.78941 0.0
H1252 H 0.33819 -0.00522 0.76951 0.0
H1253 H 0.33082 -0.00288 0.84165 0.0
C1254 C 0.36758 -0.00138 0.89818 0.0
C1255 C 0.38868 -0.00172 0.92465 0.0
C1256 C 0.37151 -0.00246 0.85698 0.0
C1257 C 0.41385 -0.00294 0.90953 0.0
C1258 C 0.41798 -0.00334 0.86841 0.0
C1259 C 0.4009 -0.00395 0.80083 0.0
C1260 C 0.37983 -0.00467 0.77433 0.0
C1261 C 0.39694 -0.00316 0.84199 0.0
C1262 C 0.35462 -0.00459 0.78944 0.0
C1263 C 0.35047 -0.00321 0.83054 0.0
H1264 H 0.90937 0.24793 0.92498 0.0
H1265 H 0.8277 0.23711 0.94085 0.0
H1266 H 0.82157 0.23804 0.86829 0.0
H1267 H 0.84036 0.23845 0.80143 0.0
H1268 H 0.92204 0.24959 0.78564 0.0
H1269 H 0.9275 0.25205 0.85816 0.0
C1270 C 0.89018 0.24596 0.91245 0.0
C1271 C 0.86899 0.24204 0.93763 0.0
C1272 C 0.88702 0.24633 0.87128 0.0
C1273 C 0.84415 0.24004 0.92167 0.0
C1274 C 0.84076 0.24042 0.88041 0.0
C1275 C 0.8594 0.24137 0.81391 0.0
C1276 C 0.88099 0.24324 0.78871 0.0
C1277 C 0.8622 0.24292 0.8551 0.0
C1278 C 0.90534 0.24781 0.80479 0.0
C1279 C 0.90839 0.24921 0.84603 0.0
H1280 H 0.33657 0.21917 0.29881 0.0
H1281 H 0.41905 0.21617 0.28169 0.0
H1282 H 0.42532 0.21324 0.35391 0.0
H1283 H 0.40734 0.21369 0.42108 0.0
H1284 H 0.32531 0.2214 0.4387 0.0
H1285 H 0.31859 0.22025 0.36631 0.0
C1286 C 0.3559 0.21755 0.31094 0.0
C1287 C 0.37739 0.21755 0.28535 0.0
C1288 C 0.35928 0.21682 0.35217 0.0
C1289 C 0.40235 0.21606 0.30111 0.0
C1290 C 0.40586 0.21442 0.34219 0.0
C1291 C 0.38792 0.21475 0.40906 0.0
C1292 C 0.36671 0.21725 0.43483 0.0
C1293 C 0.38447 0.21504 0.36788 0.0
C1294 C 0.34178 0.21931 0.41916 0.0
C1295 C 0.33802 0.21868 0.37798 0.0
H1296 H 0.92338 -0.00734 0.28388 0.0
H1297 H 0.84089 -0.00244 0.26755 0.0
H1298 H 0.835 -0.00078 0.34002 0.0
H1299 H 0.85356 -9e-05 0.40675 0.0
H1300 H 0.93583 -0.00692 0.42332 0.0
H1301 H 0.94177 -0.00852 0.3508 0.0
C1302 C 0.90408 -0.00576 0.29617 0.0
C1303 C 0.88253 -0.00458 0.27074 0.0
C1304 C 0.90097 -0.00517 0.33735 0.0
C1305 C 0.85764 -0.00321 0.28679 0.0
C1306 C 0.85435 -0.00223 0.328 0.0
C1307 C 0.87286 -0.00174 0.39449 0.0
C1308 C 0.89439 -0.00293 0.41995 0.0
C1309 C 0.87592 -0.00303 0.35336 0.0
C1310 C 0.91914 -0.00579 0.40402 0.0
C1311 C 0.92245 -0.00668 0.36278 0.0
H1312 H 0.67669 0.97985 0.03633 0.0
H1313 H 0.59417 0.97852 0.01867 0.0
H1314 H 0.58765 0.97581 0.09079 0.0
H1315 H 0.60547 0.97374 0.15791 0.0
H1316 H 0.6877 0.97806 0.17667 0.0
H1317 H 0.69451 0.97977 0.10426 0.0
C1318 C 0.65728 0.97883 0.04833 0.0
C1319 C 0.63587 0.97903 0.02247 0.0
C1320 C 0.65376 0.97785 0.08959 0.0
C1321 C 0.61083 0.97829 0.03817 0.0
C1322 C 0.60716 0.97671 0.07923 0.0
C1323 C 0.62494 0.97486 0.14613 0.0
C1324 C 0.64618 0.97532 0.17225 0.0
C1325 C 0.62849 0.97641 0.10505 0.0
C1326 C 0.67119 0.97749 0.15691 0.0
C1327 C 0.675 0.97845 0.11569 0.0
H1328 H 0.09597 0.73637 0.06641 0.0
H1329 H 0.17831 0.72896 0.05236 0.0
H1330 H 0.18324 0.72654 0.12501 0.0
H1331 H 0.16414 0.72894 0.1917 0.0
H1332 H 0.08167 0.73482 0.20575 0.0
H1333 H 0.07647 0.73516 0.13295 0.0
C1334 C 0.11501 0.73424 0.07934 0.0
C1335 C 0.13691 0.73336 0.05455 0.0
C1336 C 0.1175 0.73253 0.12061 0.0
C1337 C 0.16136 0.72991 0.07117 0.0
C1338 C 0.1641 0.72855 0.11248 0.0
C1339 C 0.145 0.73014 0.17869 0.0
C1340 C 0.12325 0.73221 0.20352 0.0
C1341 C 0.14233 0.7302 0.13735 0.0
C1342 C 0.09854 0.73329 0.18688 0.0
C1343 C 0.09566 0.7336 0.14548 0.0
H1344 H 0.66877 0.74472 0.69125 0.0
H1345 H 0.58652 0.74205 0.71122 0.0
H1346 H 0.57915 0.74175 0.63898 0.0
H1347 H 0.59631 0.7427 0.57116 0.0
H1348 H 0.67863 0.74288 0.55123 0.0
H1349 H 0.68598 0.74364 0.62345 0.0
C1350 C 0.64919 0.74423 0.67977 0.0
C1351 C 0.6281 0.74383 0.70619 0.0
C1352 C 0.64527 0.74358 0.63868 0.0
C1353 C 0.60292 0.74252 0.69122 0.0
C1354 C 0.59877 0.74238 0.65012 0.0
C1355 C 0.61589 0.74307 0.58264 0.0
C1356 C 0.637 0.74316 0.55623 0.0
C1357 C 0.61983 0.74303 0.62374 0.0
C1358 C 0.66221 0.74296 0.57122 0.0
C1359 C 0.66635 0.74342 0.61231 0.0
H1360 H 0.12561 0.00414 0.66392 0.0
H1361 H 0.1721 0.94499 0.67376 0.0
H1362 H 0.1696 0.9393 0.60159 0.0
H1363 H 0.15208 0.94993 0.53743 0.0
H1364 H 0.1045 0.00872 0.52684 0.0
H1365 H 0.10828 0.01515 0.59858 0.0
C1366 C 0.13593 -0.0095 0.64983 0.0
C1367 C 0.14982 0.9754 0.67334 0.0
C1368 C 0.13318 -0.01324 0.6089 0.0
C1369 C 0.16212 0.95715 0.65563 0.0
C1370 C 0.16022 0.95369 0.61469 0.0
C1371 C 0.14226 0.96409 0.55064 0.0
C1372 C 0.12799 0.97884 0.52667 0.0
C1373 C 0.14527 0.96809 0.59132 0.0
C1374 C 0.1154 -0.003 0.54459 0.0
C1375 C 0.11789 0.00088 0.58546 0.0
H1376 H 0.33117 0.49396 0.43094 0.0
H1377 H 0.41364 0.49803 0.44796 0.0
H1378 H 0.41968 0.50196 0.37588 0.0
H1379 H 0.40142 0.50363 0.30916 0.0
H1380 H 0.31937 0.49616 0.29123 0.0
H1381 H 0.31297 0.49437 0.36367 0.0
C1382 C 0.35047 0.49586 0.41883 0.0
C1383 C 0.372 0.49601 0.44435 0.0
C1384 C 0.35369 0.49759 0.37776 0.0
C1385 C 0.39691 0.49791 0.4286 0.0
C1386 C 0.40029 0.50023 0.38763 0.0
C1387 C 0.38205 0.50198 0.32113 0.0
C1388 C 0.36073 0.50053 0.29534 0.0
C1389 C 0.3788 0.50012 0.36212 0.0
C1390 C 0.33589 0.49758 0.31085 0.0
C1391 C 0.33232 0.49649 0.35202 0.0
H1392 H 0.91805 0.73539 0.43717 0.0
H1393 H 0.83526 0.7318 0.45034 0.0
H1394 H 0.83066 0.72778 0.37787 0.0
H1395 H 0.85047 0.72426 0.31231 0.0
H1396 H 0.93306 0.72998 0.29857 0.0
H1397 H 0.93773 0.73394 0.37109 0.0
C1398 C 0.89897 0.73372 0.42411 0.0
C1399 C 0.87695 0.73352 0.44861 0.0
C1400 C 0.89663 0.73155 0.38301 0.0
C1401 C 0.85234 0.73194 0.43172 0.0
C1402 C 0.8498 0.7295 0.39057 0.0
C1403 C 0.86957 0.72603 0.32525 0.0
C1404 C 0.89157 0.7262 0.30069 0.0
C1405 C 0.87186 0.72898 0.3662 0.0
C1406 C 0.91605 0.72942 0.31731 0.0
C1407 C 0.91862 0.73178 0.35848 0.0
H1408 H 0.34123 0.72669 0.82297 0.0
H1409 H 0.42344 0.73384 0.80588 0.0
H1410 H 0.42983 0.73383 0.87817 0.0
H1411 H 0.41207 0.73095 0.9451 0.0
H1412 H 0.32982 0.72594 0.96307 0.0
H1413 H 0.32316 0.72604 0.8905 0.0
C1414 C 0.36058 0.72812 0.8351 0.0
C1415 C 0.38198 0.72987 0.80944 0.0
C1416 C 0.36395 0.7285 0.87633 0.0
C1417 C 0.40682 0.73234 0.82527 0.0
C1418 C 0.41042 0.7323 0.8664 0.0
C1419 C 0.39266 0.72974 0.93307 0.0
C1420 C 0.3714 0.72794 0.95886 0.0
C1421 C 0.38914 0.73021 0.892 0.0
C1422 C 0.34634 0.72712 0.94341 0.0
C1423 C 0.34263 0.72715 0.90217 0.0
H1424 H 0.89059 0.51957 0.82273 0.0
H1425 H 0.84524 0.45961 0.80967 0.0
H1426 H 0.84904 0.45284 0.88137 0.0
H1427 H 0.86489 0.46449 0.94752 0.0
H1428 H 0.90893 0.52496 0.95931 0.0
H1429 H 0.90747 0.53033 0.88713 0.0
C1430 C 0.88137 0.50499 0.83533 0.0
C1431 C 0.86755 0.49013 0.81079 0.0
C1432 C 0.88433 0.5009 0.87588 0.0
C1433 C 0.85571 0.47145 0.82793 0.0
C1434 C 0.85822 0.46741 0.86875 0.0
C1435 C 0.875 0.47833 0.93387 0.0
C1436 C 0.88776 0.49398 0.95799 0.0
C1437 C 0.87274 0.4819 0.89284 0.0
C1438 C 0.8998 0.51243 0.94079 0.0
C1439 C 0.89847 0.5157 0.89981 0.0
H1440 H 0.58324 0.47495 0.68576 0.0
H1441 H 0.66521 0.48197 0.70482 0.0
H1442 H 0.67269 0.4783 0.63288 0.0
H1443 H 0.65564 0.47356 0.56531 0.0
H1444 H 0.5734 0.47016 0.54587 0.0
H1445 H 0.56607 0.47181 0.61806 0.0
C1446 C 0.60278 0.47552 0.67415 0.0
C1447 C 0.62377 0.47838 0.70028 0.0
C1448 C 0.60673 0.474 0.6331 0.0
C1449 C 0.64889 0.47969 0.68506 0.0
C1450 C 0.6531 0.47754 0.64412 0.0
C1451 C 0.63611 0.47289 0.57696 0.0
C1452 C 0.61501 0.47129 0.5507 0.0
C1453 C 0.63215 0.47467 0.618 0.0
C1454 C 0.58981 0.47116 0.56578 0.0
C1455 C 0.5857 0.47215 0.60686 0.0
H1456 H 0.16449 0.23565 0.67441 0.0
H1457 H 0.08254 0.22935 0.69456 0.0
H1458 H 0.07512 0.22806 0.62241 0.0
H1459 H 0.09203 0.23034 0.55462 0.0
H1460 H 0.1741 0.23476 0.53429 0.0
H1461 H 0.18168 0.23496 0.6065 0.0
C1462 C 0.14499 0.23407 0.66291 0.0
C1463 C 0.12394 0.23307 0.68925 0.0
C1464 C 0.14106 0.23296 0.6219 0.0
C1465 C 0.09887 0.23034 0.67448 0.0
C1466 C 0.09469 0.22963 0.63347 0.0
C1467 C 0.11159 0.23135 0.56608 0.0
C1468 C 0.13255 0.23297 0.5397 0.0
C1469 C 0.11565 0.2312 0.60707 0.0
C1470 C 0.15782 0.23365 0.55441 0.0
C1471 C 0.16206 0.23384 0.59546 0.0
H1472 H 0.58653 0.24859 0.0509 0.0
H1473 H 0.66895 0.25003 0.03247 0.0
H1474 H 0.67579 0.2505 0.10478 0.0
H1475 H 0.65822 0.25004 0.17243 0.0
H1476 H 0.57603 0.24505 0.19107 0.0
H1477 H 0.569 0.24643 0.11875 0.0
C1478 C 0.60601 0.2492 0.06275 0.0
C1479 C 0.62728 0.24965 0.03663 0.0
C1480 C 0.60969 0.24879 0.10403 0.0
C1481 C 0.65238 0.24981 0.05215 0.0
C1482 C 0.65623 0.25009 0.09334 0.0
C1483 C 0.63872 0.24948 0.16067 0.0
C1484 C 0.61755 0.24788 0.18685 0.0
C1485 C 0.63502 0.24958 0.11943 0.0
C1486 C 0.59249 0.24648 0.17136 0.0
C1487 C 0.58854 0.24726 0.13017 0.0
H1488 H 0.15239 0.48944 0.05993 0.0
H1489 H 0.06991 0.48485 0.04469 0.0
H1490 H 0.06415 0.48589 0.11737 0.0
H1491 H 0.08318 0.48477 0.1842 0.0
H1492 H 0.16568 0.49012 0.19931 0.0
H1493 H 0.17109 0.49229 0.12678 0.0
C1494 C 0.13314 0.48887 0.07267 0.0
C1495 C 0.11154 0.4867 0.04761 0.0
C1496 C 0.13016 0.48946 0.11392 0.0
C1497 C 0.08666 0.48644 0.0638 0.0
C1498 C 0.08347 0.48691 0.10512 0.0
C1499 C 0.10236 0.48646 0.17155 0.0
C1500 C 0.12415 0.48677 0.19659 0.0
C1501 C 0.10516 0.48784 0.13031 0.0
C1502 C 0.14879 0.48964 0.18031 0.0
C1503 C 0.15181 0.49083 0.13905 0.0
H1504 H 0.33548 0.14314 0.16214 0.0
H1505 H 0.34454 0.16207 0.03908 0.0
H1506 H 0.34536 0.12294 0.01923 0.0
H1507 H 0.34582 0.08324 0.03733 0.0
H1508 H 0.33899 0.06483 0.16102 0.0
H1509 H 0.33486 0.1038 0.17997 0.0
C1510 C 0.33738 0.13873 0.13093 0.0
C1511 C 0.34001 0.15548 0.1022 0.0
C1512 C 0.33837 0.11625 0.1198 0.0
C1513 C 0.34264 0.14947 0.06188 0.0
C1514 C 0.3431 0.1271 0.05046 0.0
C1515 C 0.3432 0.08779 0.06835 0.0
C1516 C 0.34285 0.0712 0.09769 0.0
C1517 C 0.34134 0.11033 0.07924 0.0
C1518 C 0.33958 0.07732 0.13784 0.0
C1519 C 0.33717 0.0996 0.14876 0.0
H1520 H 0.90906 0.07186 0.05121 0.0
H1521 H 0.92436 0.07428 0.17764 0.0
H1522 H 0.92173 0.11461 0.17682 0.0
H1523 H 0.91505 0.14925 0.1408 0.0
H1524 H 0.90108 0.14762 0.01415 0.0
H1525 H 0.90315 0.10698 0.0146 0.0
C1526 C 0.91185 0.08122 0.07854 0.0
C1527 C 0.91687 0.06999 0.11436 0.0
C1528 C 0.91047 0.10457 0.07794 0.0
C1529 C 0.92054 0.08241 0.14952 0.0
C1530 C 0.91897 0.10553 0.14919 0.0
C1531 C 0.91231 0.14003 0.1133 0.0
C1532 C 0.90779 0.15143 0.07759 0.0
C1533 C 0.91389 0.11677 0.11365 0.0
C1534 C 0.90461 0.13922 0.04211 0.0
C1535 C 0.90578 0.11599 0.04232 0.0
H1536 H 0.66684 0.83034 0.80545 0.0
H1537 H 0.67216 0.82049 0.93247 0.0
H1538 H 0.67413 0.86064 0.94297 0.0
H1539 H 0.67327 0.89849 0.91627 0.0
H1540 H 0.66602 0.90842 0.78951 0.0
H1541 H 0.66595 0.86823 0.77874 0.0
C1542 C 0.66857 0.83698 0.83541 0.0
C1543 C 0.66936 0.82248 0.8681 0.0
C1544 C 0.6693 0.86006 0.8413 0.0
C1545 C 0.67138 0.83132 0.90678 0.0
C1546 C 0.67256 0.85427 0.91283 0.0
C1547 C 0.67185 0.89186 0.88627 0.0
C1548 C 0.66969 0.90639 0.85376 0.0
C1549 C 0.67139 0.86878 0.88033 0.0
C1550 C 0.6676 0.89756 0.81508 0.0
C1551 C 0.66759 0.8746 0.80887 0.0
H1552 H 0.10923 0.81676 0.82852 0.0
H1553 H 0.1115 0.82767 0.95562 0.0
H1554 H 0.11311 0.86783 0.94513 0.0
H1555 H 0.1128 0.89984 0.89986 0.0
H1556 H 0.1093 0.8886 0.77286 0.0
H1557 H 0.10926 0.84854 0.78349 0.0
C1558 C 0.11023 0.82788 0.85398 0.0
C1559 C 0.11024 0.8192 0.89277 0.0
C1560 C 0.11083 0.85091 0.84779 0.0
C1561 C 0.11139 0.8339 0.9254 0.0
C1562 C 0.11231 0.85687 0.91945 0.0
C1563 C 0.11213 0.88863 0.8745 0.0
C1564 C 0.11101 0.89724 0.83566 0.0
C1565 C 0.11187 0.86556 0.88077 0.0
C1566 C 0.11005 0.88246 0.80312 0.0
C1567 C 0.11006 0.85952 0.80912 0.0
H1568 H 0.34673 0.64847 0.5888 0.0
H1569 H 0.35202 0.64265 0.71653 0.0
H1570 H 0.34902 0.60213 0.71113 0.0
H1571 H 0.34488 0.56844 0.67 0.0
H1572 H 0.33724 0.57462 0.5425 0.0
H1573 H 0.34098 0.61497 0.54798 0.0
C1574 C 0.34739 0.6383 0.61541 0.0
C1575 C 0.34981 0.64844 0.65295 0.0
C1576 C 0.34507 0.61513 0.61216 0.0
C1577 C 0.35017 0.63516 0.68728 0.0
C1578 C 0.34847 0.61203 0.68423 0.0
C1579 C 0.34401 0.57863 0.64343 0.0
C1580 C 0.34088 0.56855 0.60592 0.0
C1581 C 0.34587 0.60185 0.64681 0.0
C1582 C 0.33953 0.58197 0.57178 0.0
C1583 C 0.34178 0.60504 0.57484 0.0
H1584 H 0.89497 0.65735 0.67335 0.0
H1585 H 0.90093 0.65136 0.54544 0.0
H1586 H 0.89485 0.61136 0.54985 0.0
H1587 H 0.89024 0.57779 0.58989 0.0
H1588 H 0.8859 0.58322 0.7179 0.0
H1589 H 0.8886 0.62367 0.71343 0.0
C1590 C 0.89481 0.6473 0.64646 0.0
C1591 C 0.89863 0.65735 0.60924 0.0
C1592 C 0.89155 0.62417 0.64913 0.0
C1593 C 0.89831 0.64408 0.57462 0.0
C1594 C 0.89475 0.62116 0.57701 0.0
C1595 C 0.88953 0.58783 0.61678 0.0
C1596 C 0.88798 0.57753 0.6541 0.0
C1597 C 0.89167 0.61101 0.6141 0.0
C1598 C 0.88725 0.59076 0.68873 0.0
C1599 C 0.88884 0.61389 0.68625 0.0
H1600 H 0.66371 0.32916 0.30733 0.0
H1601 H 0.65946 0.30885 0.43034 0.0
H1602 H 0.6601 0.34768 0.45166 0.0
H1603 H 0.66 0.38757 0.43527 0.0
H1604 H 0.66292 0.40751 0.31196 0.0
H1605 H 0.66483 0.36874 0.29109 0.0
C1606 C 0.66307 0.33319 0.33882 0.0
C1607 C 0.66142 0.3161 0.36709 0.0
C1608 C 0.66316 0.35555 0.35092 0.0
C1609 C 0.66058 0.32167 0.40782 0.0
C1610 C 0.66097 0.34389 0.42012 0.0
C1611 C 0.66129 0.38341 0.40389 0.0
C1612 C 0.66118 0.40041 0.37529 0.0
C1613 C 0.662 0.36099 0.39191 0.0
C1614 C 0.66274 0.39475 0.33466 0.0
C1615 C 0.66386 0.37256 0.32261 0.0
H1616 H 0.10315 0.31815 0.32505 0.0
H1617 H 0.09842 0.32137 0.45333 0.0
H1618 H 0.09881 0.36189 0.45085 0.0
H1619 H 0.09894 0.39641 0.41231 0.0
H1620 H 0.10225 0.39318 0.28394 0.0
H1621 H 0.10409 0.35268 0.28656 0.0
C1622 C 0.10236 0.3277 0.35249 0.0
C1623 C 0.10068 0.31672 0.38926 0.0
C1624 C 0.10228 0.35101 0.35089 0.0
C1625 C 0.09957 0.32938 0.42454 0.0
C1626 C 0.09983 0.35257 0.42321 0.0
C1627 C 0.10026 0.38686 0.38491 0.0
C1628 C 0.10039 0.39782 0.34803 0.0
C1629 C 0.10095 0.36356 0.38654 0.0
C1630 C 0.10197 0.38518 0.31278 0.0
C1631 C 0.10304 0.362 0.3142 0.0
H1632 H 0.8626 0.07706 0.64162 0.0
H1633 H 0.85671 0.08508 0.5142 0.0
H1634 H 0.8555 0.12542 0.5223 0.0
H1635 H 0.85476 0.15824 0.56558 0.0
H1636 H 0.85912 0.15011 0.69313 0.0
H1637 H 0.86236 0.10987 0.68483 0.0
C1638 C 0.86121 0.08762 0.61558 0.0
C1639 C 0.85972 0.07809 0.5774 0.0
C1640 C 0.86018 0.11074 0.62044 0.0
C1641 C 0.85777 0.092 0.54397 0.0
C1642 C 0.8571 0.11506 0.54854 0.0
C1643 C 0.85659 0.14769 0.59156 0.0
C1644 C 0.85667 0.15714 0.62988 0.0
C1645 C 0.85809 0.12458 0.58665 0.0
C1646 C 0.85889 0.14323 0.66327 0.0
C1647 C 0.86077 0.12023 0.65859 0.0
H1648 H 0.41894 0.14092 0.54971 0.0
H1649 H 0.40259 0.1553 0.67323 0.0
H1650 H 0.40694 0.11584 0.68938 0.0
H1651 H 0.41378 0.07708 0.66771 0.0
H1652 H 0.42807 0.06314 0.54349 0.0
H1653 H 0.42643 0.10275 0.52841 0.0
C1654 C 0.41642 0.13549 0.58023 0.0
C1655 C 0.41038 0.15101 0.61017 0.0
C1656 C 0.41865 0.11288 0.58919 0.0
C1657 C 0.4071 0.14365 0.64954 0.0
C1658 C 0.40965 0.12112 0.65884 0.0
C1659 C 0.41685 0.0828 0.63748 0.0
C1660 C 0.42103 0.06731 0.60675 0.0
C1661 C 0.41525 0.10557 0.62883 0.0
C1662 C 0.42468 0.07481 0.56759 0.0
C1663 C 0.42373 0.09742 0.55893 0.0
H1664 H 0.15579 0.82421 0.30397 0.0
H1665 H 0.16739 0.81255 0.42959 0.0
H1666 H 0.16723 0.85246 0.44223 0.0
H1667 H 0.16374 0.89041 0.41793 0.0
H1668 H 0.15147 0.90248 0.29262 0.0
H1669 H 0.15184 0.86248 0.27963 0.0
C1670 C 0.15838 0.83041 0.33408 0.0
C1671 C 0.16163 0.81547 0.36575 0.0
C1672 C 0.15805 0.85336 0.34125 0.0
C1673 C 0.16478 0.82372 0.40466 0.0
C1674 C 0.16471 0.84652 0.41196 0.0
C1675 C 0.16115 0.88434 0.38773 0.0
C1676 C 0.15764 0.89938 0.35631 0.0
C1677 C 0.16132 0.86145 0.3805 0.0
C1678 C 0.15416 0.89122 0.31739 0.0
C1679 C 0.15443 0.86838 0.3099 0.0
H1680 H 0.59872 0.81599 0.32981 0.0
H1681 H 0.59404 0.82823 0.45638 0.0
H1682 H 0.59575 0.86834 0.44458 0.0
H1683 H 0.59997 0.89968 0.39843 0.0
H1684 H 0.60392 0.88719 0.27185 0.0
H1685 H 0.60114 0.84721 0.2837 0.0
C1686 C 0.59803 0.8274 0.35489 0.0
C1687 C 0.59646 0.81915 0.39394 0.0
C1688 C 0.599 0.85032 0.34791 0.0
C1689 C 0.59525 0.83417 0.42603 0.0
C1690 C 0.59632 0.85708 0.41931 0.0
C1691 C 0.60027 0.88822 0.37341 0.0
C1692 C 0.60237 0.89637 0.33433 0.0
C1693 C 0.59847 0.8653 0.3804 0.0
C1694 C 0.60236 0.88133 0.30222 0.0
C1695 C 0.6008 0.85849 0.30895 0.0
H1696 H 0.84365 0.58183 0.06361 0.0
H1697 H 0.8377 0.56433 0.18793 0.0
H1698 H 0.83904 0.60354 0.20645 0.0
H1699 H 0.84267 0.64262 0.1876 0.0
H1700 H 0.8494 0.66021 0.06342 0.0
H1701 H 0.84696 0.62103 0.0447 0.0
C1702 C 0.84253 0.58658 0.09474 0.0
C1703 C 0.84061 0.57018 0.12429 0.0
C1704 C 0.84352 0.60914 0.10527 0.0
C1705 C 0.83929 0.57662 0.16454 0.0
C1706 C 0.84004 0.59904 0.17521 0.0
C1707 C 0.84354 0.63792 0.15642 0.0
C1708 C 0.84624 0.65432 0.12701 0.0
C1709 C 0.84228 0.61541 0.14584 0.0
C1710 C 0.84739 0.64792 0.08673 0.0
C1711 C 0.84598 0.62552 0.07595 0.0
H1712 H 0.41269 0.58108 0.18566 0.0
H1713 H 0.40624 0.56544 0.06042 0.0
H1714 H 0.40941 0.60487 0.04412 0.0
H1715 H 0.41266 0.64373 0.06552 0.0
H1716 H 0.41782 0.65934 0.19091 0.0
H1717 H 0.4166 0.61983 0.20698 0.0
C1718 C 0.41211 0.58625 0.15476 0.0
C1719 C 0.40918 0.57035 0.12434 0.0
C1720 C 0.41366 0.60891 0.14561 0.0
C1721 C 0.40837 0.57736 0.08446 0.0
C1722 C 0.41021 0.59989 0.07508 0.0
C1723 C 0.41368 0.6385 0.09636 0.0
C1724 C 0.41527 0.65444 0.12695 0.0
C1725 C 0.41265 0.6158 0.10544 0.0
C1726 C 0.41646 0.6474 0.16678 0.0
C1727 C 0.41578 0.62481 0.17602 0.0
H1728 H 0.14809 0.39805 0.83125 0.0
H1729 H 0.13808 0.39001 0.95805 0.0
H1730 H 0.13835 0.3496 0.94995 0.0
H1731 H 0.14288 0.31681 0.9073 0.0
H1732 H 0.1548 0.32483 0.78088 0.0
H1733 H 0.15229 0.36522 0.78849 0.0
C1734 C 0.14576 0.38747 0.85712 0.0
C1735 C 0.14304 0.39699 0.89519 0.0
C1736 C 0.14638 0.36434 0.85234 0.0
C1737 C 0.14028 0.38307 0.92844 0.0
C1738 C 0.14042 0.35999 0.92383 0.0
C1739 C 0.14477 0.32736 0.88132 0.0
C1740 C 0.14901 0.31785 0.84357 0.0
C1741 C 0.14369 0.35048 0.88598 0.0
C1742 C 0.15162 0.33176 0.81029 0.0
C1743 C 0.15016 0.35483 0.8146 0.0
H1744 H 0.58369 0.33242 0.92858 0.0
H1745 H 0.58043 0.31763 0.80281 0.0
H1746 H 0.57815 0.35722 0.78766 0.0
H1747 H 0.57962 0.39602 0.8098 0.0
H1748 H 0.58505 0.41092 0.93537 0.0
H1749 H 0.58384 0.37133 0.95087 0.0
C1750 C 0.5822 0.33788 0.89791 0.0
C1751 C 0.58235 0.32218 0.8669 0.0
C1752 C 0.58145 0.36068 0.88932 0.0
C1753 C 0.58058 0.32945 0.82724 0.0
C1754 C 0.57925 0.35207 0.81851 0.0
C1755 C 0.58032 0.39061 0.84056 0.0
C1756 C 0.58256 0.40635 0.87132 0.0
C1757 C 0.58008 0.36783 0.84927 0.0
C1758 C 0.58355 0.39909 0.91107 0.0
C1759 C 0.58281 0.37647 0.92001 0.0
H1760 H 0.28014 0.00515 0.94837 0.0
H1761 H 0.25633 0.9519 0.02589 0.0
H1762 H 0.21583 0.94819 0.98887 0.0
H1763 H 0.18695 0.96029 0.93435 0.0
H1764 H 0.2124 0.0122 0.85499 0.0
H1765 H 0.25233 0.01615 0.89272 0.0
C1766 C 0.26606 -0.00723 0.95727 0.0
C1767 C 0.27121 0.97894 0.99007 0.0
C1768 C 0.24304 -0.00955 0.93541 0.0
C1769 C 0.25289 0.96275 0.00076 0.0
C1770 C 0.22968 0.96065 0.97963 0.0
C1771 C 0.20123 0.97247 0.92537 0.0
C1772 C 0.19656 -0.01403 0.8919 0.0
C1773 C 0.22451 0.97444 0.94691 0.0
C1774 C 0.21545 0.00151 0.88047 0.0
C1775 C 0.23831 0.00385 0.90212 0.0
H1776 H 0.07584 0.25615 0.94631 0.0
H1777 H 0.04944 0.20396 0.8676 0.0
H1778 H 0.00845 0.20229 0.90349 0.0
H1779 H 0.98022 0.21548 0.95748 0.0
H1780 H 0.00615 0.26859 0.03457 0.0
H1781 H 0.04722 0.27004 -0.00102 0.0
C1782 C 0.06116 0.24436 0.937 0.0
C1783 C 0.0658 0.23012 0.9044 0.0
C1784 C 0.03754 0.24365 0.95749 0.0
C1785 C 0.0464 0.21514 0.89253 0.0
C1786 C 0.02296 0.21414 0.9131 0.0
C1787 C 0.99488 0.22734 0.96658 0.0
C1788 C 0.99015 0.24183 -0.00119 0.0
C1789 C 0.01835 0.22827 0.94568 0.0
C1790 C 0.00925 0.25727 0.00987 0.0
C1791 C 0.03277 0.25808 0.98957 0.0
H1792 H 0.27035 0.21478 0.25975 0.0
H1793 H 0.24627 0.27055 0.18833 0.0
H1794 H 0.2058 0.27291 0.2258 0.0
H1795 H 0.17709 0.25902 0.27912 0.0
H1796 H 0.20286 0.20471 0.35291 0.0
H1797 H 0.24268 0.20198 0.31447 0.0
C1798 C 0.25619 0.22739 0.25225 0.0
C1799 C 0.26126 0.24234 0.22102 0.0
C1800 C 0.23323 0.22897 0.27451 0.0
C1801 C 0.24288 0.25883 0.21219 0.0
C1802 C 0.2197 0.26017 0.2336 0.0
C1803 C 0.19142 0.24659 0.28676 0.0
C1804 C 0.18686 0.23205 0.31887 0.0
C1805 C 0.21463 0.24533 0.26486 0.0
C1806 C 0.20582 0.21619 0.32854 0.0
C1807 C 0.22862 0.21455 0.30645 0.0
H1808 H 0.98827 0.00345 0.24801 0.0
H1809 H 0.01452 0.94974 0.1727 0.0
H1810 H 0.05438 0.94701 0.21167 0.0
H1811 H 0.08202 0.96034 0.26654 0.0
H1812 H 0.05444 0.01258 0.34411 0.0
H1813 H 0.01475 0.01533 0.305 0.0
C1814 C 1.00276 -0.00881 0.24003 0.0
C1815 C 0.99859 0.97699 0.20718 0.0
C1816 C 0.02533 -0.01058 0.26306 0.0
C1817 C 0.01731 0.9609 0.19775 0.0
C1818 C 0.0401 0.95936 0.22 0.0
C1819 C 0.06731 0.97232 0.27493 0.0
C1820 C 0.07131 -0.01364 0.3081 0.0
C1821 C 0.04436 0.97359 0.25262 0.0
C1822 C 0.05188 0.00156 0.31883 0.0
C1823 C 0.02921 0.0032 0.29637 0.0
H1824 H 0.83667 0.01379 0.00588 0.0
H1825 H 0.80734 0.96447 0.08736 0.0
H1826 H 0.76728 0.96218 0.04961 0.0
H1827 H 0.74054 0.97368 -0.00666 0.0
H1828 H 0.76771 0.02466 0.91367 0.0
H1829 H 0.80848 0.02686 0.95075 0.0
C1830 C 0.82149 0.00256 0.01532 0.0
C1831 C 0.82513 -0.01074 0.04941 0.0
C1832 C 0.79808 0.0016 -0.00623 0.0
C1833 C 0.8051 0.97498 0.06144 0.0
C1834 C 0.78216 0.97359 0.03977 0.0
C1835 C 0.75541 0.98525 0.98396 0.0
C1836 C 0.75119 -0.00119 0.9505 0.0
C1837 C 0.77846 -0.01326 0.00586 0.0
C1838 C 0.77047 0.01401 0.93927 0.0
C1839 C 0.79381 0.01523 0.96044 0.0
H1840 H 0.99982 0.71514 0.9711 0.0
H1841 H 0.03997 0.76499 0.04004 0.0
H1842 H 0.00375 0.76723 0.08637 0.0
H1843 H 0.96031 0.75531 0.10716 0.0
H1844 H 0.91902 0.70734 0.0357 0.0
H1845 H 0.95591 0.70402 -0.00921 0.0
C1846 C 1.00061 0.72647 -0.00372 0.0
C1847 C 0.02254 0.73987 0.00205 0.0
C1848 C 0.97948 0.728 0.02247 0.0
C1849 C 0.02322 0.75461 0.03468 0.0
C1850 C 1.00255 0.75585 0.06133 0.0
C1851 C 0.95949 0.74406 0.08187 0.0
C1852 C 0.93703 0.73153 0.07487 0.0
C1853 C 0.98055 0.74265 0.05552 0.0
C1854 C 0.93608 0.71722 0.04167 0.0
C1855 C 0.95718 0.71529 0.01598 0.0
H1856 H 0.83421 0.71985 0.717 0.0
H1857 H 0.80263 0.76584 0.63144 0.0
H1858 H 0.76268 0.76821 0.66969 0.0
H1859 H 0.73651 0.75715 0.7271 0.0
H1860 H 0.7666 0.70942 0.81075 0.0
H1861 H 0.80727 0.70779 0.77367 0.0
C1862 C 0.81859 0.73044 0.70684 0.0
C1863 C 0.82145 0.74271 0.67148 0.0
C1864 C 0.79539 0.7314 0.72863 0.0
C1865 C 0.80092 0.75614 0.65844 0.0
C1866 C 0.77807 0.75757 0.68036 0.0
C1867 C 0.75202 0.74647 0.73735 0.0
C1868 C 0.74861 0.73356 0.77181 0.0
C1869 C 0.77508 0.74527 0.71545 0.0
C1870 C 0.76873 0.71952 0.78431 0.0
C1871 C 0.792 0.71861 0.76315 0.0
H1872 H 0.96588 0.96888 0.61324 0.0
H1873 H 0.93346 0.02377 0.67969 0.0
H1874 H 0.97087 0.02403 0.72374 0.0
H1875 H 0.01218 0.00822 0.74462 0.0
H1876 H 0.0441 0.95218 0.68075 0.0
H1877 H 0.00751 0.95275 0.63474 0.0
C1878 C 0.96717 0.98101 0.63715 0.0
C1879 C 0.94695 -0.00367 0.64308 0.0
C1880 C 0.98854 0.98076 0.66308 0.0
C1881 C 0.94871 0.01175 0.67453 0.0
C1882 C 0.9701 0.01192 0.69978 0.0
C1883 C 0.01121 -0.00386 0.72061 0.0
C1884 C 0.0309 0.98019 0.71621 0.0
C1885 C 0.99001 -0.0036 0.69456 0.0
C1886 C 0.02916 0.96458 0.68502 0.0
C1887 C 0.00827 0.96494 0.65857 0.0
H1888 H 0.26506 0.50173 0.47433 0.0
H1889 H 0.24109 0.44754 0.5496 0.0
H1890 H 0.20048 0.44453 0.51243 0.0
H1891 H 0.17155 0.45766 0.45854 0.0
H1892 H 0.19733 0.51057 0.38154 0.0
H1893 H 0.23737 0.51363 0.41926 0.0
C1894 C 0.25092 0.4893 0.48277 0.0
C1895 C 0.25604 0.47504 0.51503 0.0
C1896 C 0.2279 0.48739 0.46081 0.0
C1897 C 0.23766 0.45876 0.52499 0.0
C1898 C 0.21441 0.45706 0.50374 0.0
C1899 C 0.18594 0.46985 0.45002 0.0
C1900 C 0.18128 0.48392 0.41723 0.0
C1901 C 0.20927 0.47133 0.47161 0.0
C1902 C 0.20032 0.49946 0.40645 0.0
C1903 C 0.22326 0.50129 0.42812 0.0
H1904 H 0.05187 0.71298 0.40341 0.0
H1905 H 0.08897 0.77095 0.45323 0.0
H1906 H 0.05182 0.77771 0.49624 0.0
H1907 H 0.00926 0.76624 0.52216 0.0
H1908 H 0.97361 0.70683 0.47519 0.0
H1909 H 0.00935 0.70164 0.429 0.0
C1910 C 0.05166 0.72719 0.4234 0.0
C1911 C 0.07315 0.7414 0.42507 0.0
C1912 C 0.03046 0.73068 0.44895 0.0
C1913 C 0.07272 0.75964 0.4515 0.0
C1914 C 0.05146 0.76356 0.47615 0.0
C1915 C 0.00932 0.75226 0.50167 0.0
C1916 C 0.98888 0.73691 0.50239 0.0
C1917 C 0.03031 0.74904 0.47555 0.0
C1918 C 0.98927 0.71878 0.47569 0.0
C1919 C 0.00967 0.7158 0.44907 0.0
H1920 H 0.27596 0.7162 0.7784 0.0
H1921 H 0.25025 0.76847 0.70016 0.0
H1922 H 0.20931 0.77079 0.73665 0.0
H1923 H 0.1806 0.75756 0.79074 0.0
H1924 H 0.20802 0.70648 0.87036 0.0
H1925 H 0.24841 0.70415 0.83339 0.0
C1926 C 0.26139 0.72807 0.76916 0.0
C1927 C 0.26612 0.742 0.73629 0.0
C1928 C 0.23815 0.72954 0.79061 0.0
C1929 C 0.24714 0.75754 0.72528 0.0
C1930 C 0.2237 0.75883 0.74611 0.0
C1931 C 0.19541 0.7459 0.79995 0.0
C1932 C 0.19112 0.73214 0.83328 0.0
C1933 C 0.21893 0.74485 0.7788 0.0
C1934 C 0.2107 0.71732 0.84499 0.0
C1935 C 0.23384 0.71592 0.82378 0.0
H1936 H 0.04555 0.511 0.84923 0.0
H1937 H 0.07578 0.45245 0.79082 0.0
H1938 H 0.03833 0.45121 0.747 0.0
H1939 H 0.9971 0.46681 0.72463 0.0
H1940 H 0.96738 0.52613 0.78119 0.0
H1941 H 0.00445 0.52704 0.82592 0.0
C1942 C 0.04383 0.49791 0.82707 0.0
C1943 C 0.06342 0.48184 0.82343 0.0
C1944 C 0.02238 0.49749 0.80134 0.0
C1945 C 0.06104 0.46511 0.79422 0.0
C1946 C 0.0396 0.46436 0.7691 0.0
C1947 C 0.99873 0.47996 0.74668 0.0
C1948 C 0.97944 0.49635 0.7494 0.0
C1949 C 0.02021 0.4805 0.77224 0.0
C1950 C 0.98198 0.51333 0.77815 0.0
C1951 C 1.00315 0.51384 0.80394 0.0
H1952 H 0.72415 0.46542 0.53398 0.0
H1953 H 0.74847 0.51734 0.45392 0.0
H1954 H 0.78818 0.52235 0.49209 0.0
H1955 H 0.81619 0.51196 0.54805 0.0
H1956 H 0.79105 0.46135 0.63024 0.0
H1957 H 0.75152 0.45603 0.5917 0.0
C1958 C 0.73822 0.47774 0.5248 0.0
C1959 C 0.73342 0.49086 0.49093 0.0
C1960 C 0.76084 0.48088 0.54743 0.0
C1961 C 0.75166 0.50702 0.47984 0.0
C1962 C 0.7744 0.5099 0.50165 0.0
C1963 C 0.80206 0.49978 0.55761 0.0
C1964 C 0.80672 0.48704 0.59199 0.0
C1965 C 0.77921 0.49694 0.53551 0.0
C1966 C 0.78801 0.47148 0.60404 0.0
C1967 C 0.7654 0.46834 0.58189 0.0
H1968 H 0.02129 0.25616 0.51414 0.0
H1969 H 0.99385 0.20361 0.43719 0.0
H1970 H 0.9525 0.20338 0.47237 0.0
H1971 H 0.92414 0.21794 0.52551 0.0
H1972 H 0.95274 0.26917 0.60436 0.0
H1973 H 0.99349 0.27005 0.56795 0.0
C1974 C 0.00624 0.24471 0.5049 0.0
C1975 C 0.01068 0.23001 0.47287 0.0
C1976 C 0.98266 0.2444 0.5257 0.0
C1977 C 0.99102 0.21509 0.46174 0.0
C1978 C 0.96732 0.21497 0.48182 0.0
C1979 C 0.93925 0.22936 0.53462 0.0
C1980 C 0.93527 0.24352 0.5676 0.0
C1981 C 0.96292 0.22953 0.51391 0.0
C1982 C 0.95523 0.25803 0.57923 0.0
C1983 C 0.97857 0.25858 0.55835 0.0
H1984 H 0.75389 0.20676 0.25854 0.0
H1985 H 0.71919 0.26374 0.2019 0.0
H1986 H 0.75605 0.26691 0.1572 0.0
H1987 H 0.79886 0.25436 0.13521 0.0
H1988 H 0.83499 0.19876 0.19403 0.0
H1989 H 0.79709 0.19423 0.23651 0.0
C1990 C 0.75438 0.21977 0.23625 0.0
C1991 C 0.7338 0.235 0.23371 0.0
C1992 C 0.776 0.22183 0.211 0.0
C1993 C 0.73484 0.25189 0.20482 0.0
C1994 C 0.75591 0.25371 0.17911 0.0
C1995 C 0.79838 0.24115 0.15713 0.0
C1996 C 0.81978 0.22692 0.16129 0.0
C1997 C 0.77671 0.2389 0.18209 0.0
C1998 C 0.81887 0.21004 0.19022 0.0
C1999 C 0.79716 0.2074 0.21455 0.0
H2000 H 0.94575 0.46321 0.15147 0.0
H2001 H 0.90547 0.51232 0.22192 0.0
H2002 H 0.94258 0.51563 0.26631 0.0
H2003 H 0.98677 0.50451 0.28556 0.0
H2004 H 0.02589 0.45392 0.21686 0.0
H2005 H 0.9892 0.45132 0.17177 0.0
C2006 C 0.94512 0.47466 0.17648 0.0
C2007 C 0.92284 0.4875 0.18319 0.0
C2008 C 0.96641 0.47623 0.20244 0.0
C2009 C 0.9223 0.50212 0.21605 0.0
C2010 C 0.94357 0.50409 0.24148 0.0
C2011 C 0.98723 0.49295 0.26072 0.0
C2012 C 0.00909 0.47944 0.25477 0.0
C2013 C 0.96576 0.49121 0.23504 0.0
C2014 C 0.00927 0.46441 0.22248 0.0
C2015 C 0.98829 0.46294 0.19649 0.0
H2016 H 0.76018 0.96122 0.49859 0.0
H2017 H 0.79366 0.01685 0.43618 0.0
H2018 H 0.75778 0.01694 0.38941 0.0
H2019 H 0.71589 0.00223 0.36715 0.0
H2020 H 0.68104 0.94794 0.43134 0.0
H2021 H 0.71822 0.94627 0.47588 0.0
C2022 C 0.75964 0.97328 0.47466 0.0
C2023 C 0.77956 -0.01094 0.47121 0.0
C2024 C 0.73859 0.97353 0.44798 0.0
C2025 C 0.77848 0.00464 0.44 0.0
C2026 C 0.75797 0.00469 0.41301 0.0
C2027 C 0.71657 -0.01011 0.39062 0.0
C2028 C 0.69569 0.97524 0.39577 0.0
C2029 C 0.73779 -0.01066 0.41685 0.0
C2030 C 0.69678 0.95951 0.42672 0.0
C2031 C 0.71806 0.95853 0.45229 0.0
H2032 H 0.50596 0.25814 0.51499 0.0
H2033 H 0.46336 0.21165 0.44228 0.0
H2034 H 0.49941 0.20907 0.39576 0.0
H2035 H 0.54402 0.21868 0.3769 0.0
H2036 H 0.5877 0.26324 0.45199 0.0
H2037 H 0.55059 0.26788 0.49591 0.0
C2038 C 0.50455 0.24762 0.48877 0.0
C2039 C 0.48202 0.23509 0.48222 0.0
C2040 C 0.52571 0.24573 0.4625 0.0
C2041 C 0.48057 0.22135 0.44826 0.0
C2042 C 0.50118 0.21987 0.42153 0.0
C2043 C 0.54533 0.22952 0.4027 0.0
C2044 C 0.56867 0.24053 0.41106 0.0
C2045 C 0.52401 0.23176 0.42854 0.0
C2046 C 0.57006 0.25439 0.44491 0.0
C2047 C 0.5488 0.25712 0.4701 0.0
H2048 H 0.74911 0.26776 0.71712 0.0
H2049 H 0.77996 0.20722 0.76694 0.0
H2050 H 0.7443 0.20561 0.81423 0.0
H2051 H 0.70332 0.2207 0.84033 0.0
H2052 H 0.67126 0.27992 0.78771 0.0
H2053 H 0.70842 0.28291 0.74329 0.0
C2054 C 0.74805 0.25423 0.73833 0.0
C2055 C 0.76718 0.2376 0.73821 0.0
C2056 C 0.72728 0.25322 0.76527 0.0
C2057 C 0.76542 0.22015 0.76597 0.0
C2058 C 0.74507 0.21926 0.79325 0.0
C2059 C 0.70473 0.23442 0.81954 0.0
C2060 C 0.68469 0.25014 0.81748 0.0
C2061 C 0.7258 0.23564 0.7931 0.0
C2062 C 0.68648 0.26762 0.78988 0.0
C2063 C 0.70768 0.2693 0.76437 0.0
H2064 H 0.48639 -0.00045 0.75402 0.0
H2065 H 0.51516 0.95073 0.67073 0.0
H2066 H 0.55587 0.94865 0.7077 0.0
H2067 H 0.58376 0.9616 0.76278 0.0
H2068 H 0.5537 0.00887 0.84799 0.0
H2069 H 0.51302 0.01054 0.81138 0.0
C2070 C 0.50158 -0.01155 0.74394 0.0
C2071 C 0.49786 0.97549 0.70939 0.0
C2072 C 0.5247 -0.01295 0.76576 0.0
C2073 C 0.51754 0.96089 0.69717 0.0
C2074 C 0.54084 0.95975 0.71826 0.0
C2075 C 0.56827 0.9722 0.77342 0.0
C2076 C 0.5719 0.9852 0.80801 0.0
C2077 C 0.54471 0.97287 0.75246 0.0
C2078 C 0.55147 -0.00136 0.82159 0.0
C2079 C 0.52821 -0.00031 0.80055 0.0
H2080 H 0.26034 0.0088 0.45109 0.0
H2081 H 0.22728 0.9508 0.5068 0.0
H2082 H 0.26307 0.94949 0.55391 0.0
H2083 H 0.3047 0.96417 0.57848 0.0
H2084 H 0.3387 0.0209 0.52027 0.0
H2085 H 0.30169 0.02347 0.47559 0.0
C2086 C 0.26093 -0.00411 0.47356 0.0
C2087 C 0.24112 0.9799 0.47515 0.0
C2088 C 0.28179 -0.00496 0.50041 0.0
C2089 C 0.24232 0.96325 0.50451 0.0
C2090 C 0.26277 0.96252 0.53168 0.0
C2091 C 0.30379 0.97724 0.55635 0.0
C2092 C 0.32437 -0.00763 0.55286 0.0
C2093 C 0.2827 0.97826 0.52986 0.0
C2094 C 0.32313 0.00902 0.52356 0.0
C2095 C 0.30198 0.01049 0.49791 0.0
H2096 H 0.43452 0.70724 0.54888 0.0
H2097 H 0.46281 0.75467 0.63529 0.0
H2098 H 0.50277 0.75873 0.59754 0.0
H2099 H 0.5293 0.74971 0.5389 0.0
H2100 H 0.50207 0.70098 0.45417 0.0
H2101 H 0.46213 0.69662 0.49222 0.0
C2102 C 0.44947 0.71839 0.55959 0.0
C2103 C 0.44553 0.7307 0.59485 0.0
C2104 C 0.47257 0.72054 0.53785 0.0
C2105 C 0.46527 0.74491 0.60838 0.0
C2106 C 0.48812 0.74735 0.58668 0.0
C2107 C 0.51457 0.73819 0.5287 0.0
C2108 C 0.51853 0.72588 0.4935 0.0
C2109 C 0.49188 0.73543 0.55116 0.0
C2110 C 0.49948 0.7107 0.4811 0.0
C2111 C 0.47663 0.7082 0.50284 0.0
H2112 H 0.3019 0.75079 0.14965 0.0
H2113 H 0.34783 0.71027 0.22834 0.0
H2114 H 0.31066 0.70492 0.27189 0.0
H2115 H 0.265 0.71236 0.28872 0.0
H2116 H 0.22007 0.75469 0.2118 0.0
H2117 H 0.25666 0.75854 0.16668 0.0
C2118 C 0.30376 0.74074 0.17625 0.0
C2119 C 0.32767 0.73099 0.1856 0.0
C2120 C 0.28238 0.73801 0.20165 0.0
C2121 C 0.32972 0.71812 0.22044 0.0
C2122 C 0.30843 0.71497 0.24539 0.0
C2123 C 0.26324 0.72229 0.26194 0.0
C2124 C 0.23987 0.73322 0.25368 0.0
C2125 C 0.28465 0.7249 0.23643 0.0
C2126 C 0.23793 0.74622 0.21904 0.0
C2127 C 0.25884 0.74843 0.19313 0.0
H2128 H 0.51017 0.01241 0.24666 0.0
H2129 H 0.54344 0.95608 0.18525 0.0
H2130 H 0.50769 0.95585 0.13821 0.0
H2131 H 0.46571 0.97044 0.11587 0.0
H2132 H 0.4312 0.02543 0.17922 0.0
H2133 H 0.46854 0.02751 0.22342 0.0
C2134 C 0.50964 0.00016 0.2229 0.0
C2135 C 0.52946 0.98422 0.21986 0.0
C2136 C 0.48871 -0.00013 0.19602 0.0
C2137 C 0.52837 0.96843 0.18878 0.0
C2138 C 0.50793 0.96831 0.16163 0.0
C2139 C 0.46656 0.98307 0.13898 0.0
C2140 C 0.4457 -0.00223 0.1441 0.0
C2141 C 0.48784 0.9838 0.16513 0.0
C2142 C 0.44696 0.01385 0.17463 0.0
C2143 C 0.46831 0.01504 0.20003 0.0
H2144 H 0.69964 0.51381 0.89239 0.0
H2145 H 0.67045 0.45161 0.9377 0.0
H2146 H 0.70893 0.44705 0.97847 0.0
H2147 H 0.74954 0.46153 0.00446 0.0
H2148 H 0.77858 0.52454 0.96251 0.0
H2149 H 0.74169 0.52795 0.91748 0.0
C2150 C 0.70196 0.49915 0.91079 0.0
C2151 C 0.68219 0.4831 0.91205 0.0
C2152 C 0.72401 0.49686 0.93515 0.0
C2153 C 0.6853 0.46429 0.93638 0.0
C2154 C 0.7073 0.46165 0.95977 0.0
C2155 C 0.74796 0.47598 0.98533 0.0
C2156 C 0.76683 0.49277 0.98711 0.0
C2157 C 0.72656 0.47799 0.95994 0.0
C2158 C 0.76431 0.51137 0.96202 0.0
C2159 C 0.7432 0.51334 0.93617 0.0
H2160 H 0.55414 0.71804 0.9006 0.0
H2161 H 0.58814 0.77541 0.95759 0.0
H2162 H 0.55017 0.77956 -9e-05 0.0
H2163 H 0.50793 0.766 0.02307 0.0
H2164 H 0.47503 0.70733 0.96882 0.0
H2165 H 0.51166 0.70465 0.92341 0.0
C2166 C 0.55309 0.73156 0.922 0.0
C2167 C 0.57397 0.74637 0.92585 0.0
C2168 C 0.53138 0.73357 0.94707 0.0
C2169 C 0.57242 0.76368 0.9541 0.0
C2170 C 0.55068 0.7661 0.97837 0.0
C2171 C 0.50872 0.75273 0.00114 0.0
C2172 C 0.48878 0.73687 -0.00046 0.0
C2173 C 0.53016 0.75099 0.9755 0.0
C2174 C 0.49021 0.71967 0.97104 0.0
C2175 C 0.51114 0.71814 0.94491 0.0
H2176 H 0.71271 0.71759 0.36299 0.0
H2177 H 0.6758 0.77208 0.30207 0.0
H2178 H 0.71374 0.77686 0.25996 0.0
H2179 H 0.7568 0.7645 0.23791 0.0
H2180 H 0.79258 0.70843 0.2957 0.0
H2181 H 0.75605 0.70544 0.34132 0.0
C2182 C 0.71311 0.73062 0.34075 0.0
C2183 C 0.6914 0.74442 0.33574 0.0
C2184 C 0.73483 0.73296 0.31578 0.0
C2185 C 0.69215 0.76111 0.30644 0.0
C2186 C 0.71388 0.76389 0.28231 0.0
C2187 C 0.75666 0.75176 0.26072 0.0
C2188 C 0.77737 0.7367 0.26328 0.0
C2189 C 0.73523 0.74976 0.28633 0.0
C2190 C 0.77679 0.72014 0.29282 0.0
C2191 C 0.7559 0.71843 0.31902 0.0
H2192 H 0.4976 0.45841 0.22695 0.0
H2193 H 0.46205 0.51362 0.28844 0.0
H2194 H 0.49773 0.51479 0.33575 0.0
H2195 H 0.54021 0.50125 0.3583 0.0
H2196 H 0.57695 0.44754 0.29438 0.0
H2197 H 0.53981 0.44457 0.24998 0.0
C2198 C 0.49761 0.4706 0.25083 0.0
C2199 C 0.4772 0.48595 0.2539 0.0
C2200 C 0.51851 0.47148 0.27768 0.0
C2201 C 0.47762 0.50173 0.285 0.0
C2202 C 0.498 0.50238 0.31225 0.0
C2203 C 0.53991 0.48874 0.33495 0.0
C2204 C 0.56133 0.47464 0.32976 0.0
C2205 C 0.51871 0.4875 0.3087 0.0
C2206 C 0.56077 0.45868 0.29898 0.0
C2207 C 0.53953 0.45697 0.2735 0.0
H2208 H 0.29195 0.46624 0.104 0.0
H2209 H 0.32822 0.51922 0.0381 0.0
H2210 H 0.29128 0.52098 -0.00679 0.0
H2211 H 0.24917 0.50682 0.97128 0.0
H2212 H 0.21367 0.45263 0.03511 0.0
H2213 H 0.24971 0.45195 0.0818 0.0
C2214 C 0.29161 0.4783 0.08004 0.0
C2215 C 0.31276 0.4926 0.07449 0.0
C2216 C 0.27052 0.47889 0.05364 0.0
C2217 C 0.31221 0.50795 0.04297 0.0
C2218 C 0.2911 0.50898 0.01723 0.0
C2219 C 0.2493 0.49488 -0.00458 0.0
C2220 C 0.22875 0.47978 -0.0005 0.0
C2221 C 0.27025 0.49439 0.02202 0.0
C2222 C 0.22931 0.46435 0.03095 0.0
C2223 C 0.24989 0.46399 0.05785 0.0
H2224 H 0.42747 0.21215 0.0281 0.0
H2225 H 0.45811 0.25812 0.11505 0.0
H2226 H 0.49833 0.26073 0.07731 0.0
H2227 H 0.52414 0.25116 0.01822 0.0
H2228 H 0.49473 0.20361 0.93315 0.0
H2229 H 0.45469 0.20036 0.97155 0.0
C2230 C 0.443 0.22267 0.03888 0.0
C2231 C 0.43968 0.23507 0.07421 0.0
C2232 C 0.46623 0.22388 0.01726 0.0
C2233 C 0.46014 0.24838 0.08803 0.0
C2234 C 0.48311 0.24996 0.06636 0.0
C2235 C 0.50895 0.24008 0.00811 0.0
C2236 C 0.51223 0.22785 0.97262 0.0
C2237 C 0.48625 0.238 0.03071 0.0
C2238 C 0.49263 0.21322 0.9603 0.0
C2239 C 0.46973 0.21141 0.98221 0.0
H2240 H 0.3269 0.21458 0.69946 0.0
H2241 H 0.29295 0.25514 0.60746 0.0
H2242 H 0.25345 0.2588 0.6467 0.0
H2243 H 0.22865 0.25079 0.70754 0.0
H2244 H 0.26188 0.20874 0.7979 0.0
H2245 H 0.30161 0.20548 0.75903 0.0
C2246 C 0.31086 0.2242 0.68793 0.0
C2247 C 0.31297 0.23463 0.65059 0.0
C2248 C 0.28811 0.22608 0.71048 0.0
C2249 C 0.29186 0.24686 0.636 0.0
C2250 C 0.26929 0.24905 0.65851 0.0
C2251 C 0.24467 0.24104 0.71882 0.0
C2252 C 0.24243 0.23019 0.75572 0.0
C2253 C 0.26725 0.23884 0.69589 0.0
C2254 C 0.26315 0.21727 0.76961 0.0
C2255 C 0.28586 0.2154 0.7474 0.0
H2256 H 0.51871 0.47245 0.71747 0.0
H2257 H 0.48724 0.51889 0.80284 0.0
H2258 H 0.4475 0.52158 0.76381 0.0
H2259 H 0.42136 0.51014 0.70613 0.0
H2260 H 0.45368 0.46508 0.61907 0.0
H2261 H 0.49348 0.46261 0.65785 0.0
C2262 C 0.50311 0.4831 0.72758 0.0
C2263 C 0.50581 0.49527 0.76324 0.0
C2264 C 0.48051 0.48489 0.7046 0.0
C2265 C 0.48563 0.50933 0.77556 0.0
C2266 C 0.46289 0.51085 0.75327 0.0
C2267 C 0.43714 0.49983 0.69555 0.0
C2268 C 0.43443 0.48771 0.65981 0.0
C2269 C 0.46008 0.49864 0.71783 0.0
C2270 C 0.45521 0.47463 0.64637 0.0
C2271 C 0.47796 0.47313 0.66864 0.0
loop_
_geom_bond_atom_site_label_1
_geom_bond_atom_site_label_2
_geom_bond_distance
_geom_bond_site_symmetry_2
_ccdc_geom_bond_type
O0 Zn1 1.953 . S
O0 C16 1.225 . S
Zn1 O0 1.953 . S
Zn1 O2 1.949 1_565 S
Zn1 O8 1.919 . S
Zn1 O13 1.924 . S
O2 Zn1 1.949 1_545 S
O2 Zn3 1.923 1_545 S
O2 Zn4 1.950 . S
O2 Zn5 1.945 . S
Zn3 O2 1.923 1_565 S
Zn3 O6 1.933 . S
Zn3 O9 1.941 . S
Zn3 O10 1.978 . S
Zn4 O2 1.950 . S
Zn4 O11 1.938 1_554 S
Zn4 O12 1.906 . S
Zn4 O22 1.953 . S
Zn5 O2 1.945 . S
Zn5 O7 1.932 . S
Zn5 O14 1.977 . S
Zn5 O15 1.910 . S
O6 Zn3 1.933 . S
O6 C17 1.226 1_565 S
O7 Zn5 1.932 . S
O7 C17 1.307 . S
O8 Zn1 1.919 . S
O8 C19 1.253 . S
O9 Zn3 1.941 . S
O9 C19 1.283 . S
O10 Zn3 1.978 . S
O10 C18 1.288 1_564 S
O11 Zn4 1.938 1_556 S
O11 C18 1.247 . S
O12 Zn4 1.906 . S
O12 C20 1.304 . S
O13 Zn1 1.924 . S
O13 C21 1.311 . S
O14 Zn5 1.977 . S
O14 C20 1.272 . S
O15 Zn5 1.910 . S
O15 C21 1.231 1_545 S
C16 O0 1.225 . S
C16 O22 1.298 1_565 S
C17 O6 1.226 1_545 S
C17 O7 1.307 . S
C18 O10 1.288 1_546 S
C18 O11 1.247 . S
C19 O8 1.253 . S
C19 O9 1.283 . S
C20 O12 1.304 . S
C20 O14 1.272 . S
C21 O13 1.311 . S
C21 O15 1.231 1_565 S
O22 Zn4 1.953 . S
O22 C16 1.298 1_545 S
O23 Zn24 1.953 . S
O23 C39 1.225 . S
Zn24 O23 1.953 . S
Zn24 O25 1.949 . S
Zn24 O31 1.919 . S
Zn24 O36 1.924 . S
O25 Zn24 1.949 . S
O25 Zn26 1.923 . S
O25 Zn27 1.950 . S
O25 Zn28 1.945 . S
Zn26 O25 1.923 . S
Zn26 O29 1.933 . S
Zn26 O32 1.941 . S
Zn26 O33 1.965 . S
Zn27 O25 1.950 . S
Zn27 O34 1.938 1_554 S
Zn27 O35 1.906 . S
Zn27 O45 1.953 . S
Zn28 O25 1.945 . S
Zn28 O30 1.932 . S
Zn28 O37 1.977 . S
Zn28 O38 1.910 . S
O29 Zn26 1.933 . S
O29 C40 1.226 . S
O30 Zn28 1.932 . S
O30 C40 1.307 . S
O31 Zn24 1.919 . S
O31 C42 1.253 . S
O32 Zn26 1.941 . S
O32 C42 1.283 . S
O33 Zn26 1.965 . S
O33 C41 1.303 1_554 S
O34 Zn27 1.938 1_556 S
O34 C41 1.247 . S
O35 Zn27 1.906 . S
O35 C43 1.304 . S
O36 Zn24 1.924 . S
O36 C44 1.311 . S
O37 Zn28 1.977 . S
O37 C43 1.272 . S
O38 Zn28 1.910 . S
O38 C44 1.231 . S
C39 O23 1.225 . S
C39 O45 1.298 . S
C40 O29 1.226 . S
C40 O30 1.307 . S
C41 O33 1.303 1_556 S
C41 O34 1.247 . S
C42 O31 1.253 . S
C42 O32 1.283 . S
C43 O35 1.304 . S
C43 O37 1.272 . S
C44 O36 1.311 . S
C44 O38 1.231 . S
O45 Zn27 1.953 . S
O45 C39 1.298 . S
O46 Zn47 1.953 . S
O46 C62 1.225 . S
Zn47 O46 1.953 . S
Zn47 O48 1.949 . S
Zn47 O54 1.919 . S
Zn47 O59 1.924 . S
O48 Zn47 1.949 . S
O48 Zn49 1.923 . S
O48 Zn50 1.950 . S
O48 Zn51 1.945 . S
Zn49 O48 1.923 . S
Zn49 O52 1.933 . S
Zn49 O55 1.941 . S
Zn49 O56 1.965 . S
Zn50 O48 1.950 . S
Zn50 O57 1.938 . S
Zn50 O58 1.906 . S
Zn50 O68 1.953 . S
Zn51 O48 1.945 . S
Zn51 O53 1.932 . S
Zn51 O60 1.977 . S
Zn51 O61 1.910 . S
O52 Zn49 1.933 . S
O52 C63 1.226 . S
O53 Zn51 1.932 . S
O53 C63 1.307 . S
O54 Zn47 1.919 . S
O54 C65 1.253 . S
O55 Zn49 1.941 . S
O55 C65 1.283 . S
O56 Zn49 1.965 . S
O56 C64 1.303 . S
O57 Zn50 1.938 . S
O57 C64 1.247 . S
O58 Zn50 1.906 . S
O58 C66 1.304 . S
O59 Zn47 1.924 . S
O59 C67 1.311 . S
O60 Zn51 1.977 . S
O60 C66 1.272 . S
O61 Zn51 1.910 . S
O61 C67 1.231 . S
C62 O46 1.225 . S
C62 O68 1.298 . S
C63 O52 1.226 . S
C63 O53 1.307 . S
C64 O56 1.303 . S
C64 O57 1.247 . S
C65 O54 1.253 . S
C65 O55 1.283 . S
C66 O58 1.304 . S
C66 O60 1.272 . S
C67 O59 1.311 . S
C67 O61 1.231 . S
O68 Zn50 1.953 . S
O68 C62 1.298 . S
O69 Zn70 1.953 . S
O69 C85 1.225 . S
Zn70 O69 1.953 . S
Zn70 O71 1.949 1_565 S
Zn70 O77 1.919 . S
Zn70 O82 1.924 . S
O71 Zn70 1.949 1_545 S
O71 Zn72 1.923 1_545 S
O71 Zn73 1.950 . S
O71 Zn74 1.945 . S
Zn72 O71 1.923 1_565 S
Zn72 O75 1.933 . S
Zn72 O78 1.941 . S
Zn72 O79 1.978 . S
Zn73 O71 1.950 . S
Zn73 O80 1.938 . S
Zn73 O81 1.906 . S
Zn73 O91 1.953 . S
Zn74 O71 1.945 . S
Zn74 O76 1.932 . S
Zn74 O83 1.977 . S
Zn74 O84 1.910 . S
O75 Zn72 1.933 . S
O75 C86 1.226 1_565 S
O76 Zn74 1.932 . S
O76 C86 1.307 . S
O77 Zn70 1.919 . S
O77 C88 1.253 . S
O78 Zn72 1.941 . S
O78 C88 1.283 . S
O79 Zn72 1.978 . S
O79 C87 1.288 1_565 S
O80 Zn73 1.938 . S
O80 C87 1.247 . S
O81 Zn73 1.906 . S
O81 C89 1.304 . S
O82 Zn70 1.924 . S
O82 C90 1.311 . S
O83 Zn74 1.977 . S
O83 C89 1.272 . S
O84 Zn74 1.910 . S
O84 C90 1.231 1_545 S
C85 O69 1.225 . S
C85 O91 1.298 1_565 S
C86 O75 1.226 1_545 S
C86 O76 1.307 . S
C87 O79 1.288 1_545 S
C87 O80 1.247 . S
C88 O77 1.253 . S
C88 O78 1.283 . S
C89 O81 1.304 . S
C89 O83 1.272 . S
C90 O82 1.311 . S
C90 O84 1.231 1_565 S
O91 Zn73 1.953 . S
O91 C85 1.298 1_545 S
O92 Zn93 1.953 . S
O92 C108 1.225 . S
Zn93 O92 1.953 . S
Zn93 O94 1.949 1_545 S
Zn93 O100 1.919 . S
Zn93 O105 1.924 . S
O94 Zn93 1.949 1_565 S
O94 Zn95 1.923 1_565 S
O94 Zn96 1.950 . S
O94 Zn97 1.945 . S
Zn95 O94 1.923 1_545 S
Zn95 O98 1.933 . S
Zn95 O101 1.941 . S
Zn95 O102 1.978 . S
Zn96 O94 1.950 . S
Zn96 O103 1.938 1_556 S
Zn96 O104 1.906 . S
Zn96 O114 1.953 . S
Zn97 O94 1.945 . S
Zn97 O99 1.932 . S
Zn97 O106 1.977 . S
Zn97 O107 1.910 . S
O98 Zn95 1.933 . S
O98 C109 1.226 1_545 S
O99 Zn97 1.932 . S
O99 C109 1.307 . S
O100 Zn93 1.919 . S
O100 C111 1.253 . S
O101 Zn95 1.941 . S
O101 C111 1.283 . S
O102 Zn95 1.978 . S
O102 C110 1.288 1_546 S
O103 Zn96 1.938 1_554 S
O103 C110 1.247 . S
O104 Zn96 1.906 . S
O104 C112 1.304 . S
O105 Zn93 1.924 . S
O105 C113 1.311 . S
O106 Zn97 1.977 . S
O106 C112 1.272 . S
O107 Zn97 1.910 . S
O107 C113 1.231 1_565 S
C108 O92 1.225 . S
C108 O114 1.298 1_545 S
C109 O98 1.226 1_565 S
C109 O99 1.307 . S
C110 O102 1.288 1_564 S
C110 O103 1.247 . S
C111 O100 1.253 . S
C111 O101 1.283 . S
C112 O104 1.304 . S
C112 O106 1.272 . S
C113 O105 1.311 . S
C113 O107 1.231 1_545 S
O114 Zn96 1.953 . S
O114 C108 1.298 1_565 S
O115 Zn116 1.953 . S
O115 C131 1.225 . S
Zn116 O115 1.953 . S
Zn116 O117 1.949 . S
Zn116 O123 1.919 . S
Zn116 O128 1.924 . S
O117 Zn116 1.949 . S
O117 Zn118 1.923 . S
O117 Zn119 1.950 . S
O117 Zn120 1.945 . S
Zn118 O117 1.923 . S
Zn118 O121 1.933 . S
Zn118 O124 1.941 . S
Zn118 O125 1.965 . S
Zn119 O117 1.950 . S
Zn119 O126 1.938 1_556 S
Zn119 O127 1.906 . S
Zn119 O137 1.953 . S
Zn120 O117 1.945 . S
Zn120 O122 1.932 . S
Zn120 O129 1.977 . S
Zn120 O130 1.910 . S
O121 Zn118 1.933 . S
O121 C132 1.226 . S
O122 Zn120 1.932 . S
O122 C132 1.307 . S
O123 Zn116 1.919 . S
O123 C134 1.253 . S
O124 Zn118 1.941 . S
O124 C134 1.283 . S
O125 Zn118 1.965 . S
O125 C133 1.303 1_556 S
O126 Zn119 1.938 1_554 S
O126 C133 1.247 . S
O127 Zn119 1.906 . S
O127 C135 1.304 . S
O128 Zn116 1.924 . S
O128 C136 1.311 . S
O129 Zn120 1.977 . S
O129 C135 1.272 . S
O130 Zn120 1.910 . S
O130 C136 1.231 . S
C131 O115 1.225 . S
C131 O137 1.298 . S
C132 O121 1.226 . S
C132 O122 1.307 . S
C133 O125 1.303 1_554 S
C133 O126 1.247 . S
C134 O123 1.253 . S
C134 O124 1.283 . S
C135 O127 1.304 . S
C135 O129 1.272 . S
C136 O128 1.311 . S
C136 O130 1.231 . S
O137 Zn119 1.953 . S
O137 C131 1.298 . S
O138 Zn139 1.953 . S
O138 C154 1.225 . S
Zn139 O138 1.953 . S
Zn139 O140 1.949 . S
Zn139 O146 1.919 . S
Zn139 O151 1.924 . S
O140 Zn139 1.949 . S
O140 Zn141 1.923 . S
O140 Zn142 1.950 . S
O140 Zn143 1.945 . S
Zn141 O140 1.923 . S
Zn141 O144 1.933 . S
Zn141 O147 1.941 . S
Zn141 O148 1.965 . S
Zn142 O140 1.950 . S
Zn142 O149 1.938 . S
Zn142 O150 1.906 . S
Zn142 O160 1.953 . S
Zn143 O140 1.945 . S
Zn143 O145 1.932 . S
Zn143 O152 1.977 . S
Zn143 O153 1.910 . S
O144 Zn141 1.933 . S
O144 C155 1.226 . S
O145 Zn143 1.932 . S
O145 C155 1.307 . S
O146 Zn139 1.919 . S
O146 C157 1.253 . S
O147 Zn141 1.941 . S
O147 C157 1.283 . S
O148 Zn141 1.965 . S
O148 C156 1.303 . S
O149 Zn142 1.938 . S
O149 C156 1.247 . S
O150 Zn142 1.906 . S
O150 C158 1.304 . S
O151 Zn139 1.924 . S
O151 C159 1.311 . S
O152 Zn143 1.977 . S
O152 C158 1.272 . S
O153 Zn143 1.910 . S
O153 C159 1.231 . S
C154 O138 1.225 . S
C154 O160 1.298 . S
C155 O144 1.226 . S
C155 O145 1.307 . S
C156 O148 1.303 . S
C156 O149 1.247 . S
C157 O146 1.253 . S
C157 O147 1.283 . S
C158 O150 1.304 . S
C158 O152 1.272 . S
C159 O151 1.311 . S
C159 O153 1.231 . S
O160 Zn142 1.953 . S
O160 C154 1.298 . S
O161 Zn162 1.953 . S
O161 C177 1.225 . S
Zn162 O161 1.953 . S
Zn162 O163 1.949 1_545 S
Zn162 O169 1.919 . S
Zn162 O174 1.924 . S
O163 Zn162 1.949 1_565 S
O163 Zn164 1.923 1_565 S
O163 Zn165 1.950 . S
O163 Zn166 1.945 . S
Zn164 O163 1.923 1_545 S
Zn164 O167 1.933 . S
Zn164 O170 1.941 . S
Zn164 O171 1.978 . S
Zn165 O163 1.950 . S
Zn165 O172 1.938 . S
Zn165 O173 1.906 . S
Zn165 O183 1.953 . S
Zn166 O163 1.945 . S
Zn166 O168 1.932 . S
Zn166 O175 1.977 . S
Zn166 O176 1.910 . S
O167 Zn164 1.933 . S
O167 C178 1.226 1_545 S
O168 Zn166 1.932 . S
O168 C178 1.307 . S
O169 Zn162 1.919 . S
O169 C180 1.253 . S
O170 Zn164 1.941 . S
O170 C180 1.283 . S
O171 Zn164 1.978 . S
O171 C179 1.288 1_545 S
O172 Zn165 1.938 . S
O172 C179 1.247 . S
O173 Zn165 1.906 . S
O173 C181 1.304 . S
O174 Zn162 1.924 . S
O174 C182 1.311 . S
O175 Zn166 1.977 . S
O175 C181 1.272 . S
O176 Zn166 1.910 . S
O176 C182 1.231 1_565 S
C177 O161 1.225 . S
C177 O183 1.298 1_545 S
C178 O167 1.226 1_565 S
C178 O168 1.307 . S
C179 O171 1.288 1_565 S
C179 O172 1.247 . S
C180 O169 1.253 . S
C180 O170 1.283 . S
C181 O173 1.304 . S
C181 O175 1.272 . S
C182 O174 1.311 . S
C182 O176 1.231 1_545 S
O183 Zn165 1.953 . S
O183 C177 1.298 1_565 S
O184 Zn185 1.953 . S
O184 C200 1.225 . S
Zn185 O184 1.953 . S
Zn185 O186 1.949 . S
Zn185 O192 1.919 . S
Zn185 O197 1.924 . S
O186 Zn185 1.949 . S
O186 Zn187 1.923 . S
O186 Zn188 1.950 . S
O186 Zn189 1.945 . S
Zn187 O186 1.923 . S
Zn187 O190 1.933 . S
Zn187 O193 1.941 . S
Zn187 O194 1.965 . S
Zn188 O186 1.950 . S
Zn188 O195 1.938 . S
Zn188 O196 1.906 . S
Zn188 O206 1.953 . S
Zn189 O186 1.945 . S
Zn189 O191 1.932 . S
Zn189 O198 1.977 . S
Zn189 O199 1.910 . S
O190 Zn187 1.933 . S
O190 C201 1.226 . S
O191 Zn189 1.932 . S
O191 C201 1.307 . S
O192 Zn185 1.919 . S
O192 C203 1.253 . S
O193 Zn187 1.941 . S
O193 C203 1.283 . S
O194 Zn187 1.965 . S
O194 C202 1.303 . S
O195 Zn188 1.938 . S
O195 C202 1.247 . S
O196 Zn188 1.906 . S
O196 C204 1.304 . S
O197 Zn185 1.924 . S
O197 C205 1.311 . S
O198 Zn189 1.977 . S
O198 C204 1.272 . S
O199 Zn189 1.910 . S
O199 C205 1.231 . S
C200 O184 1.225 . S
C200 O206 1.298 . S
C201 O190 1.226 . S
C201 O191 1.307 . S
C202 O194 1.303 . S
C202 O195 1.247 . S
C203 O192 1.253 . S
C203 O193 1.283 . S
C204 O196 1.304 . S
C204 O198 1.272 . S
C205 O197 1.311 . S
C205 O199 1.231 . S
O206 Zn188 1.953 . S
O206 C200 1.298 . S
O207 Zn208 1.953 . S
O207 C223 1.225 . S
Zn208 O207 1.953 . S
Zn208 O209 1.949 . S
Zn208 O215 1.919 . S
Zn208 O220 1.924 . S
O209 Zn208 1.949 . S
O209 Zn210 1.923 . S
O209 Zn211 1.950 . S
O209 Zn212 1.945 . S
Zn210 O209 1.923 . S
Zn210 O213 1.933 . S
Zn210 O216 1.941 . S
Zn210 O217 1.965 . S
Zn211 O209 1.950 . S
Zn211 O218 1.938 . S
Zn211 O219 1.906 . S
Zn211 O229 1.953 . S
Zn212 O209 1.945 . S
Zn212 O214 1.932 . S
Zn212 O221 1.977 . S
Zn212 O222 1.910 . S
O213 Zn210 1.933 . S
O213 C224 1.226 . S
O214 Zn212 1.932 . S
O214 C224 1.307 . S
O215 Zn208 1.919 . S
O215 C226 1.253 . S
O216 Zn210 1.941 . S
O216 C226 1.283 . S
O217 Zn210 1.965 . S
O217 C225 1.303 . S
O218 Zn211 1.938 . S
O218 C225 1.247 . S
O219 Zn211 1.906 . S
O219 C227 1.304 . S
O220 Zn208 1.924 . S
O220 C228 1.311 . S
O221 Zn212 1.977 . S
O221 C227 1.272 . S
O222 Zn212 1.910 . S
O222 C228 1.231 . S
C223 O207 1.225 . S
C223 O229 1.298 . S
C224 O213 1.226 . S
C224 O214 1.307 . S
C225 O217 1.303 . S
C225 O218 1.247 . S
C226 O215 1.253 . S
C226 O216 1.283 . S
C227 O219 1.304 . S
C227 O221 1.272 . S
C228 O220 1.311 . S
C228 O222 1.231 . S
O229 Zn211 1.953 . S
O229 C223 1.298 . S
O230 Zn231 1.953 . S
O230 C246 1.225 . S
Zn231 O230 1.953 . S
Zn231 O232 1.949 . S
Zn231 O238 1.919 . S
Zn231 O243 1.924 . S
O232 Zn231 1.949 . S
O232 Zn233 1.923 . S
O232 Zn234 1.950 . S
O232 Zn235 1.945 . S
Zn233 O232 1.923 . S
Zn233 O236 1.933 . S
Zn233 O239 1.941 . S
Zn233 O240 1.965 . S
Zn234 O232 1.950 . S
Zn234 O241 1.938 . S
Zn234 O242 1.906 . S
Zn234 O252 1.953 . S
Zn235 O232 1.945 . S
Zn235 O237 1.932 . S
Zn235 O244 1.977 . S
Zn235 O245 1.910 . S
O236 Zn233 1.933 . S
O236 C247 1.226 . S
O237 Zn235 1.932 . S
O237 C247 1.307 . S
O238 Zn231 1.919 . S
O238 C249 1.253 . S
O239 Zn233 1.941 . S
O239 C249 1.283 . S
O240 Zn233 1.965 . S
O240 C248 1.303 . S
O241 Zn234 1.938 . S
O241 C248 1.247 . S
O242 Zn234 1.906 . S
O242 C250 1.304 . S
O243 Zn231 1.924 . S
O243 C251 1.311 . S
O244 Zn235 1.977 . S
O244 C250 1.272 . S
O245 Zn235 1.910 . S
O245 C251 1.231 . S
C246 O230 1.225 . S
C246 O252 1.298 . S
C247 O236 1.226 . S
C247 O237 1.307 . S
C248 O240 1.303 . S
C248 O241 1.247 . S
C249 O238 1.253 . S
C249 O239 1.283 . S
C250 O242 1.304 . S
C250 O244 1.272 . S
C251 O243 1.311 . S
C251 O245 1.231 . S
O252 Zn234 1.953 . S
O252 C246 1.298 . S
O253 Zn254 1.953 . S
O253 C269 1.225 . S
Zn254 O253 1.953 . S
Zn254 O255 1.949 . S
Zn254 O261 1.919 . S
Zn254 O266 1.924 . S
O255 Zn254 1.949 . S
O255 Zn256 1.923 . S
O255 Zn257 1.950 . S
O255 Zn258 1.945 . S
Zn256 O255 1.923 . S
Zn256 O259 1.933 . S
Zn256 O262 1.941 . S
Zn256 O263 1.965 . S
Zn257 O255 1.950 . S
Zn257 O264 1.938 . S
Zn257 O265 1.906 . S
Zn257 O275 1.953 . S
Zn258 O255 1.945 . S
Zn258 O260 1.932 . S
Zn258 O267 1.977 . S
Zn258 O268 1.910 . S
O259 Zn256 1.933 . S
O259 C270 1.226 . S
O260 Zn258 1.932 . S
O260 C270 1.307 . S
O261 Zn254 1.919 . S
O261 C272 1.253 . S
O262 Zn256 1.941 . S
O262 C272 1.283 . S
O263 Zn256 1.965 . S
O263 C271 1.303 . S
O264 Zn257 1.938 . S
O264 C271 1.247 . S
O265 Zn257 1.906 . S
O265 C273 1.304 . S
O266 Zn254 1.924 . S
O266 C274 1.311 . S
O267 Zn258 1.977 . S
O267 C273 1.272 . S
O268 Zn258 1.910 . S
O268 C274 1.231 . S
C269 O253 1.225 . S
C269 O275 1.298 . S
C270 O259 1.226 . S
C270 O260 1.307 . S
C271 O263 1.303 . S
C271 O264 1.247 . S
C272 O261 1.253 . S
C272 O262 1.283 . S
C273 O265 1.304 . S
C273 O267 1.272 . S
C274 O266 1.311 . S
C274 O268 1.231 . S
O275 Zn257 1.953 . S
O275 C269 1.298 . S
O276 Zn277 1.953 . S
O276 C292 1.225 . S
Zn277 O276 1.953 . S
Zn277 O278 1.949 . S
Zn277 O284 1.919 . S
Zn277 O289 1.924 . S
O278 Zn277 1.949 . S
O278 Zn279 1.923 . S
O278 Zn280 1.950 . S
O278 Zn281 1.945 . S
Zn279 O278 1.923 . S
Zn279 O282 1.933 . S
Zn279 O285 1.941 . S
Zn279 O286 1.965 . S
Zn280 O278 1.950 . S
Zn280 O287 1.938 . S
Zn280 O288 1.906 . S
Zn280 O298 1.953 . S
Zn281 O278 1.945 . S
Zn281 O283 1.932 . S
Zn281 O290 1.977 . S
Zn281 O291 1.910 . S
O282 Zn279 1.933 . S
O282 C293 1.226 . S
O283 Zn281 1.932 . S
O283 C293 1.307 . S
O284 Zn277 1.919 . S
O284 C295 1.253 . S
O285 Zn279 1.941 . S
O285 C295 1.283 . S
O286 Zn279 1.965 . S
O286 C294 1.303 . S
O287 Zn280 1.938 . S
O287 C294 1.247 . S
O288 Zn280 1.906 . S
O288 C296 1.304 . S
O289 Zn277 1.924 . S
O289 C297 1.311 . S
O290 Zn281 1.977 . S
O290 C296 1.272 . S
O291 Zn281 1.910 . S
O291 C297 1.231 . S
C292 O276 1.225 . S
C292 O298 1.298 . S
C293 O282 1.226 . S
C293 O283 1.307 . S
C294 O286 1.303 . S
C294 O287 1.247 . S
C295 O284 1.253 . S
C295 O285 1.283 . S
C296 O288 1.304 . S
C296 O290 1.272 . S
C297 O289 1.311 . S
C297 O291 1.231 . S
O298 Zn280 1.953 . S
O298 C292 1.298 . S
O299 Zn300 1.953 . S
O299 C315 1.225 . S
Zn300 O299 1.953 . S
Zn300 O301 1.949 . S
Zn300 O307 1.919 . S
Zn300 O312 1.924 . S
O301 Zn300 1.949 . S
O301 Zn302 1.923 . S
O301 Zn303 1.950 . S
O301 Zn304 1.945 . S
Zn302 O301 1.923 . S
Zn302 O305 1.933 . S
Zn302 O308 1.941 . S
Zn302 O309 1.965 . S
Zn303 O301 1.950 . S
Zn303 O310 1.938 . S
Zn303 O311 1.906 . S
Zn303 O321 1.953 . S
Zn304 O301 1.945 . S
Zn304 O306 1.932 . S
Zn304 O313 1.977 . S
Zn304 O314 1.910 . S
O305 Zn302 1.933 . S
O305 C316 1.226 . S
O306 Zn304 1.932 . S
O306 C316 1.307 . S
O307 Zn300 1.919 . S
O307 C318 1.253 . S
O308 Zn302 1.941 . S
O308 C318 1.283 . S
O309 Zn302 1.965 . S
O309 C317 1.303 . S
O310 Zn303 1.938 . S
O310 C317 1.247 . S
O311 Zn303 1.906 . S
O311 C319 1.304 . S
O312 Zn300 1.924 . S
O312 C320 1.311 . S
O313 Zn304 1.977 . S
O313 C319 1.272 . S
O314 Zn304 1.910 . S
O314 C320 1.231 . S
C315 O299 1.225 . S
C315 O321 1.298 . S
C316 O305 1.226 . S
C316 O306 1.307 . S
C317 O309 1.303 . S
C317 O310 1.247 . S
C318 O307 1.253 . S
C318 O308 1.283 . S
C319 O311 1.304 . S
C319 O313 1.272 . S
C320 O312 1.311 . S
C320 O314 1.231 . S
O321 Zn303 1.953 . S
O321 C315 1.298 . S
O322 Zn323 1.953 . S
O322 C338 1.225 . S
Zn323 O322 1.953 . S
Zn323 O324 1.949 . S
Zn323 O330 1.919 . S
Zn323 O335 1.924 . S
O324 Zn323 1.949 . S
O324 Zn325 1.923 . S
O324 Zn326 1.950 . S
O324 Zn327 1.945 . S
Zn325 O324 1.923 . S
Zn325 O328 1.933 . S
Zn325 O331 1.941 . S
Zn325 O332 1.965 . S
Zn326 O324 1.950 . S
Zn326 O333 1.938 . S
Zn326 O334 1.906 . S
Zn326 O344 1.953 . S
Zn327 O324 1.945 . S
Zn327 O329 1.932 . S
Zn327 O336 1.977 . S
Zn327 O337 1.910 . S
O328 Zn325 1.933 . S
O328 C339 1.226 . S
O329 Zn327 1.932 . S
O329 C339 1.307 . S
O330 Zn323 1.919 . S
O330 C341 1.253 . S
O331 Zn325 1.941 . S
O331 C341 1.283 . S
O332 Zn325 1.965 . S
O332 C340 1.303 . S
O333 Zn326 1.938 . S
O333 C340 1.247 . S
O334 Zn326 1.906 . S
O334 C342 1.304 . S
O335 Zn323 1.924 . S
O335 C343 1.311 . S
O336 Zn327 1.977 . S
O336 C342 1.272 . S
O337 Zn327 1.910 . S
O337 C343 1.231 . S
C338 O322 1.225 . S
C338 O344 1.298 . S
C339 O328 1.226 . S
C339 O329 1.307 . S
C340 O332 1.303 . S
C340 O333 1.247 . S
C341 O330 1.253 . S
C341 O331 1.283 . S
C342 O334 1.304 . S
C342 O336 1.272 . S
C343 O335 1.311 . S
C343 O337 1.231 . S
O344 Zn326 1.953 . S
O344 C338 1.298 . S
O345 Zn346 1.953 . S
O345 C361 1.225 . S
Zn346 O345 1.953 . S
Zn346 O347 1.949 . S
Zn346 O353 1.919 . S
Zn346 O358 1.924 . S
O347 Zn346 1.949 . S
O347 Zn348 1.923 . S
O347 Zn349 1.950 . S
O347 Zn350 1.945 . S
Zn348 O347 1.923 . S
Zn348 O351 1.933 . S
Zn348 O354 1.941 . S
Zn348 O355 1.965 . S
Zn349 O347 1.950 . S
Zn349 O356 1.938 . S
Zn349 O357 1.906 . S
Zn349 O367 1.953 . S
Zn350 O347 1.945 . S
Zn350 O352 1.932 . S
Zn350 O359 1.977 . S
Zn350 O360 1.910 . S
O351 Zn348 1.933 . S
O351 C362 1.226 . S
O352 Zn350 1.932 . S
O352 C362 1.307 . S
O353 Zn346 1.919 . S
O353 C364 1.253 . S
O354 Zn348 1.941 . S
O354 C364 1.283 . S
O355 Zn348 1.965 . S
O355 C363 1.303 . S
O356 Zn349 1.938 . S
O356 C363 1.247 . S
O357 Zn349 1.906 . S
O357 C365 1.304 . S
O358 Zn346 1.924 . S
O358 C366 1.311 . S
O359 Zn350 1.977 . S
O359 C365 1.272 . S
O360 Zn350 1.910 . S
O360 C366 1.231 . S
C361 O345 1.225 . S
C361 O367 1.298 . S
C362 O351 1.226 . S
C362 O352 1.307 . S
C363 O355 1.303 . S
C363 O356 1.247 . S
C364 O353 1.253 . S
C364 O354 1.283 . S
C365 O357 1.304 . S
C365 O359 1.272 . S
C366 O358 1.311 . S
C366 O360 1.231 . S
O367 Zn349 1.953 . S
O367 C361 1.298 . S
O368 Zn369 1.953 . S
O368 C384 1.225 . S
Zn369 O368 1.953 . S
Zn369 O370 1.949 1_565 S
Zn369 O376 1.919 . S
Zn369 O381 1.924 . S
O370 Zn369 1.949 1_545 S
O370 Zn371 1.923 1_545 S
O370 Zn372 1.950 . S
O370 Zn373 1.945 . S
Zn371 O370 1.923 1_565 S
Zn371 O374 1.933 . S
Zn371 O377 1.941 . S
Zn371 O378 1.977 . S
Zn372 O370 1.950 . S
Zn372 O379 1.938 . S
Zn372 O380 1.906 . S
Zn372 O390 1.953 . S
Zn373 O370 1.945 . S
Zn373 O375 1.932 . S
Zn373 O382 1.977 . S
Zn373 O383 1.910 . S
O374 Zn371 1.933 . S
O374 C385 1.226 1_565 S
O375 Zn373 1.932 . S
O375 C385 1.307 . S
O376 Zn369 1.919 . S
O376 C387 1.253 . S
O377 Zn371 1.941 . S
O377 C387 1.283 . S
O378 Zn371 1.977 . S
O378 C386 1.288 1_565 S
O379 Zn372 1.938 . S
O379 C386 1.247 . S
O380 Zn372 1.906 . S
O380 C388 1.304 . S
O381 Zn369 1.924 . S
O381 C389 1.311 . S
O382 Zn373 1.977 . S
O382 C388 1.272 . S
O383 Zn373 1.910 . S
O383 C389 1.231 1_545 S
C384 O368 1.225 . S
C384 O390 1.298 1_565 S
C385 O374 1.226 1_545 S
C385 O375 1.307 . S
C386 O378 1.288 1_545 S
C386 O379 1.247 . S
C387 O376 1.253 . S
C387 O377 1.283 . S
C388 O380 1.304 . S
C388 O382 1.272 . S
C389 O381 1.311 . S
C389 O383 1.231 1_565 S
O390 Zn372 1.953 . S
O390 C384 1.298 1_545 S
O391 Zn392 1.953 . S
O391 C407 1.225 . S
Zn392 O391 1.953 . S
Zn392 O393 1.949 . S
Zn392 O399 1.919 . S
Zn392 O404 1.924 . S
O393 Zn392 1.949 . S
O393 Zn394 1.923 . S
O393 Zn395 1.950 . S
O393 Zn396 1.945 . S
Zn394 O393 1.923 . S
Zn394 O397 1.933 . S
Zn394 O400 1.941 . S
Zn394 O401 1.965 . S
Zn395 O393 1.950 . S
Zn395 O402 1.938 . S
Zn395 O403 1.906 . S
Zn395 O413 1.953 . S
Zn396 O393 1.945 . S
Zn396 O398 1.932 . S
Zn396 O405 1.977 . S
Zn396 O406 1.910 . S
O397 Zn394 1.933 . S
O397 C408 1.226 . S
O398 Zn396 1.932 . S
O398 C408 1.307 . S
O399 Zn392 1.919 . S
O399 C410 1.253 . S
O400 Zn394 1.941 . S
O400 C410 1.283 . S
O401 Zn394 1.965 . S
O401 C409 1.303 . S
O402 Zn395 1.938 . S
O402 C409 1.247 . S
O403 Zn395 1.906 . S
O403 C411 1.304 . S
O404 Zn392 1.924 . S
O404 C412 1.311 . S
O405 Zn396 1.977 . S
O405 C411 1.272 . S
O406 Zn396 1.910 . S
O406 C412 1.231 . S
C407 O391 1.225 . S
C407 O413 1.298 . S
C408 O397 1.226 . S
C408 O398 1.307 . S
C409 O401 1.303 . S
C409 O402 1.247 . S
C410 O399 1.253 . S
C410 O400 1.283 . S
C411 O403 1.304 . S
C411 O405 1.272 . S
C412 O404 1.311 . S
C412 O406 1.231 . S
O413 Zn395 1.953 . S
O413 C407 1.298 . S
O414 Zn415 1.953 . S
O414 C430 1.225 . S
Zn415 O414 1.953 . S
Zn415 O416 1.949 . S
Zn415 O422 1.919 . S
Zn415 O427 1.924 . S
O416 Zn415 1.949 . S
O416 Zn417 1.923 . S
O416 Zn418 1.950 . S
O416 Zn419 1.945 . S
Zn417 O416 1.923 . S
Zn417 O420 1.933 . S
Zn417 O423 1.941 . S
Zn417 O424 1.965 . S
Zn418 O416 1.950 . S
Zn418 O425 1.938 . S
Zn418 O426 1.906 . S
Zn418 O436 1.953 . S
Zn419 O416 1.945 . S
Zn419 O421 1.932 . S
Zn419 O428 1.977 . S
Zn419 O429 1.910 . S
O420 Zn417 1.933 . S
O420 C431 1.226 . S
O421 Zn419 1.932 . S
O421 C431 1.307 . S
O422 Zn415 1.919 . S
O422 C433 1.253 . S
O423 Zn417 1.941 . S
O423 C433 1.283 . S
O424 Zn417 1.965 . S
O424 C432 1.303 . S
O425 Zn418 1.938 . S
O425 C432 1.247 . S
O426 Zn418 1.906 . S
O426 C434 1.304 . S
O427 Zn415 1.924 . S
O427 C435 1.311 . S
O428 Zn419 1.977 . S
O428 C434 1.272 . S
O429 Zn419 1.910 . S
O429 C435 1.231 . S
C430 O414 1.225 . S
C430 O436 1.298 . S
C431 O420 1.226 . S
C431 O421 1.307 . S
C432 O424 1.303 . S
C432 O425 1.247 . S
C433 O422 1.253 . S
C433 O423 1.283 . S
C434 O426 1.304 . S
C434 O428 1.272 . S
C435 O427 1.311 . S
C435 O429 1.231 . S
O436 Zn418 1.953 . S
O436 C430 1.298 . S
O437 Zn438 1.953 . S
O437 C453 1.225 . S
Zn438 O437 1.953 . S
Zn438 O439 1.949 1_565 S
Zn438 O445 1.919 . S
Zn438 O450 1.924 . S
O439 Zn438 1.949 1_545 S
O439 Zn440 1.923 1_545 S
O439 Zn441 1.950 . S
O439 Zn442 1.945 . S
Zn440 O439 1.923 1_565 S
Zn440 O443 1.933 . S
Zn440 O446 1.941 . S
Zn440 O447 1.977 . S
Zn441 O439 1.950 . S
Zn441 O448 1.938 . S
Zn441 O449 1.906 . S
Zn441 O459 1.953 . S
Zn442 O439 1.945 . S
Zn442 O444 1.932 . S
Zn442 O451 1.977 . S
Zn442 O452 1.910 . S
O443 Zn440 1.933 . S
O443 C454 1.226 1_565 S
O444 Zn442 1.932 . S
O444 C454 1.307 . S
O445 Zn438 1.919 . S
O445 C456 1.253 . S
O446 Zn440 1.941 . S
O446 C456 1.283 . S
O447 Zn440 1.977 . S
O447 C455 1.288 1_565 S
O448 Zn441 1.938 . S
O448 C455 1.247 . S
O449 Zn441 1.906 . S
O449 C457 1.304 . S
O450 Zn438 1.924 . S
O450 C458 1.311 . S
O451 Zn442 1.977 . S
O451 C457 1.272 . S
O452 Zn442 1.910 . S
O452 C458 1.231 1_545 S
C453 O437 1.225 . S
C453 O459 1.298 1_565 S
C454 O443 1.226 1_545 S
C454 O444 1.307 . S
C455 O447 1.288 1_545 S
C455 O448 1.247 . S
C456 O445 1.253 . S
C456 O446 1.283 . S
C457 O449 1.304 . S
C457 O451 1.272 . S
C458 O450 1.311 . S
C458 O452 1.231 1_565 S
O459 Zn441 1.953 . S
O459 C453 1.298 1_545 S
O460 Zn461 1.953 . S
O460 C476 1.225 . S
Zn461 O460 1.953 . S
Zn461 O462 1.949 1_545 S
Zn461 O468 1.919 . S
Zn461 O473 1.924 . S
O462 Zn461 1.949 1_565 S
O462 Zn463 1.923 1_565 S
O462 Zn464 1.950 . S
O462 Zn465 1.945 . S
Zn463 O462 1.923 1_545 S
Zn463 O466 1.933 . S
Zn463 O469 1.941 . S
Zn463 O470 1.977 . S
Zn464 O462 1.950 . S
Zn464 O471 1.938 . S
Zn464 O472 1.906 . S
Zn464 O482 1.953 . S
Zn465 O462 1.945 . S
Zn465 O467 1.932 . S
Zn465 O474 1.977 . S
Zn465 O475 1.910 . S
O466 Zn463 1.933 . S
O466 C477 1.226 1_545 S
O467 Zn465 1.932 . S
O467 C477 1.307 . S
O468 Zn461 1.919 . S
O468 C479 1.253 . S
O469 Zn463 1.941 . S
O469 C479 1.283 . S
O470 Zn463 1.977 . S
O470 C478 1.288 1_545 S
O471 Zn464 1.938 . S
O471 C478 1.247 . S
O472 Zn464 1.906 . S
O472 C480 1.304 . S
O473 Zn461 1.924 . S
O473 C481 1.311 . S
O474 Zn465 1.977 . S
O474 C480 1.272 . S
O475 Zn465 1.910 . S
O475 C481 1.231 1_565 S
C476 O460 1.225 . S
C476 O482 1.298 1_545 S
C477 O466 1.226 1_565 S
C477 O467 1.307 . S
C478 O470 1.288 1_565 S
C478 O471 1.247 . S
C479 O468 1.253 . S
C479 O469 1.283 . S
C480 O472 1.304 . S
C480 O474 1.272 . S
C481 O473 1.311 . S
C481 O475 1.231 1_545 S
O482 Zn464 1.953 . S
O482 C476 1.298 1_565 S
O483 Zn484 1.953 . S
O483 C499 1.225 . S
Zn484 O483 1.953 . S
Zn484 O485 1.949 . S
Zn484 O491 1.919 . S
Zn484 O496 1.924 . S
O485 Zn484 1.949 . S
O485 Zn486 1.923 . S
O485 Zn487 1.950 . S
O485 Zn488 1.945 . S
Zn486 O485 1.923 . S
Zn486 O489 1.933 . S
Zn486 O492 1.941 . S
Zn486 O493 1.965 . S
Zn487 O485 1.950 . S
Zn487 O494 1.938 . S
Zn487 O495 1.906 . S
Zn487 O505 1.953 . S
Zn488 O485 1.945 . S
Zn488 O490 1.932 . S
Zn488 O497 1.977 . S
Zn488 O498 1.910 . S
O489 Zn486 1.933 . S
O489 C500 1.226 . S
O490 Zn488 1.932 . S
O490 C500 1.307 . S
O491 Zn484 1.919 . S
O491 C502 1.253 . S
O492 Zn486 1.941 . S
O492 C502 1.283 . S
O493 Zn486 1.965 . S
O493 C501 1.303 . S
O494 Zn487 1.938 . S
O494 C501 1.247 . S
O495 Zn487 1.906 . S
O495 C503 1.304 . S
O496 Zn484 1.924 . S
O496 C504 1.311 . S
O497 Zn488 1.977 . S
O497 C503 1.272 . S
O498 Zn488 1.910 . S
O498 C504 1.231 . S
C499 O483 1.225 . S
C499 O505 1.298 . S
C500 O489 1.226 . S
C500 O490 1.307 . S
C501 O493 1.303 . S
C501 O494 1.247 . S
C502 O491 1.253 . S
C502 O492 1.283 . S
C503 O495 1.304 . S
C503 O497 1.272 . S
C504 O496 1.311 . S
C504 O498 1.231 . S
O505 Zn487 1.953 . S
O505 C499 1.298 . S
O506 Zn507 1.953 . S
O506 C522 1.225 . S
Zn507 O506 1.953 . S
Zn507 O508 1.949 . S
Zn507 O514 1.919 . S
Zn507 O519 1.924 . S
O508 Zn507 1.949 . S
O508 Zn509 1.923 . S
O508 Zn510 1.950 . S
O508 Zn511 1.945 . S
Zn509 O508 1.923 . S
Zn509 O512 1.933 . S
Zn509 O515 1.941 . S
Zn509 O516 1.965 . S
Zn510 O508 1.950 . S
Zn510 O517 1.938 . S
Zn510 O518 1.906 . S
Zn510 O528 1.953 . S
Zn511 O508 1.945 . S
Zn511 O513 1.932 . S
Zn511 O520 1.977 . S
Zn511 O521 1.910 . S
O512 Zn509 1.933 . S
O512 C523 1.226 . S
O513 Zn511 1.932 . S
O513 C523 1.307 . S
O514 Zn507 1.919 . S
O514 C525 1.253 . S
O515 Zn509 1.941 . S
O515 C525 1.283 . S
O516 Zn509 1.965 . S
O516 C524 1.303 . S
O517 Zn510 1.938 . S
O517 C524 1.247 . S
O518 Zn510 1.906 . S
O518 C526 1.304 . S
O519 Zn507 1.924 . S
O519 C527 1.311 . S
O520 Zn511 1.977 . S
O520 C526 1.272 . S
O521 Zn511 1.910 . S
O521 C527 1.231 . S
C522 O506 1.225 . S
C522 O528 1.298 . S
C523 O512 1.226 . S
C523 O513 1.307 . S
C524 O516 1.303 . S
C524 O517 1.247 . S
C525 O514 1.253 . S
C525 O515 1.283 . S
C526 O518 1.304 . S
C526 O520 1.272 . S
C527 O519 1.311 . S
C527 O521 1.231 . S
O528 Zn510 1.953 . S
O528 C522 1.298 . S
O529 Zn530 1.953 . S
O529 C545 1.225 . S
Zn530 O529 1.953 . S
Zn530 O531 1.949 1_545 S
Zn530 O537 1.919 . S
Zn530 O542 1.924 . S
O531 Zn530 1.949 1_565 S
O531 Zn532 1.923 1_565 S
O531 Zn533 1.950 . S
O531 Zn534 1.945 . S
Zn532 O531 1.923 1_545 S
Zn532 O535 1.933 . S
Zn532 O538 1.941 . S
Zn532 O539 1.977 . S
Zn533 O531 1.950 . S
Zn533 O540 1.938 . S
Zn533 O541 1.906 . S
Zn533 O551 1.953 . S
Zn534 O531 1.945 . S
Zn534 O536 1.932 . S
Zn534 O543 1.977 . S
Zn534 O544 1.910 . S
O535 Zn532 1.933 . S
O535 C546 1.226 1_545 S
O536 Zn534 1.932 . S
O536 C546 1.307 . S
O537 Zn530 1.919 . S
O537 C548 1.253 . S
O538 Zn532 1.941 . S
O538 C548 1.283 . S
O539 Zn532 1.977 . S
O539 C547 1.288 1_545 S
O540 Zn533 1.938 . S
O540 C547 1.247 . S
O541 Zn533 1.906 . S
O541 C549 1.304 . S
O542 Zn530 1.924 . S
O542 C550 1.311 . S
O543 Zn534 1.977 . S
O543 C549 1.272 . S
O544 Zn534 1.910 . S
O544 C550 1.231 1_565 S
C545 O529 1.225 . S
C545 O551 1.298 1_545 S
C546 O535 1.226 1_565 S
C546 O536 1.307 . S
C547 O539 1.288 1_565 S
C547 O540 1.247 . S
C548 O537 1.253 . S
C548 O538 1.283 . S
C549 O541 1.304 . S
C549 O543 1.272 . S
C550 O542 1.311 . S
C550 O544 1.231 1_545 S
O551 Zn533 1.953 . S
O551 C545 1.298 1_565 S
O552 Zn553 1.953 . S
O552 C568 1.225 . S
Zn553 O552 1.953 . S
Zn553 O554 1.949 . S
Zn553 O560 1.919 . S
Zn553 O565 1.924 . S
O554 Zn553 1.949 . S
O554 Zn555 1.923 . S
O554 Zn556 1.950 . S
O554 Zn557 1.945 . S
Zn555 O554 1.923 . S
Zn555 O558 1.933 . S
Zn555 O561 1.941 . S
Zn555 O562 1.965 . S
Zn556 O554 1.950 . S
Zn556 O563 1.938 1_554 S
Zn556 O564 1.906 . S
Zn556 O574 1.953 . S
Zn557 O554 1.945 . S
Zn557 O559 1.932 . S
Zn557 O566 1.977 . S
Zn557 O567 1.910 . S
O558 Zn555 1.933 . S
O558 C569 1.226 . S
O559 Zn557 1.932 . S
O559 C569 1.307 . S
O560 Zn553 1.919 . S
O560 C571 1.253 . S
O561 Zn555 1.941 . S
O561 C571 1.283 . S
O562 Zn555 1.965 . S
O562 C570 1.303 1_554 S
O563 Zn556 1.938 1_556 S
O563 C570 1.247 . S
O564 Zn556 1.906 . S
O564 C572 1.304 . S
O565 Zn553 1.924 . S
O565 C573 1.311 . S
O566 Zn557 1.977 . S
O566 C572 1.272 . S
O567 Zn557 1.910 . S
O567 C573 1.231 . S
C568 O552 1.225 . S
C568 O574 1.298 . S
C569 O558 1.226 . S
C569 O559 1.307 . S
C570 O562 1.303 1_556 S
C570 O563 1.247 . S
C571 O560 1.253 . S
C571 O561 1.283 . S
C572 O564 1.304 . S
C572 O566 1.272 . S
C573 O565 1.311 . S
C573 O567 1.231 . S
O574 Zn556 1.953 . S
O574 C568 1.298 . S
O575 Zn576 1.953 . S
O575 C591 1.225 . S
Zn576 O575 1.953 . S
Zn576 O577 1.949 . S
Zn576 O583 1.919 . S
Zn576 O588 1.924 . S
O577 Zn576 1.949 . S
O577 Zn578 1.923 . S
O577 Zn579 1.950 . S
O577 Zn580 1.945 . S
Zn578 O577 1.923 . S
Zn578 O581 1.933 . S
Zn578 O584 1.941 . S
Zn578 O585 1.965 . S
Zn579 O577 1.950 . S
Zn579 O586 1.938 1_554 S
Zn579 O587 1.906 . S
Zn579 O597 1.953 . S
Zn580 O577 1.945 . S
Zn580 O582 1.932 . S
Zn580 O589 1.977 . S
Zn580 O590 1.910 . S
O581 Zn578 1.933 . S
O581 C592 1.226 . S
O582 Zn580 1.932 . S
O582 C592 1.307 . S
O583 Zn576 1.919 . S
O583 C594 1.253 . S
O584 Zn578 1.941 . S
O584 C594 1.283 . S
O585 Zn578 1.965 . S
O585 C593 1.303 1_554 S
O586 Zn579 1.938 1_556 S
O586 C593 1.247 . S
O587 Zn579 1.906 . S
O587 C595 1.304 . S
O588 Zn576 1.924 . S
O588 C596 1.311 . S
O589 Zn580 1.977 . S
O589 C595 1.272 . S
O590 Zn580 1.910 . S
O590 C596 1.231 . S
C591 O575 1.225 . S
C591 O597 1.298 . S
C592 O581 1.226 . S
C592 O582 1.307 . S
C593 O585 1.303 1_556 S
C593 O586 1.247 . S
C594 O583 1.253 . S
C594 O584 1.283 . S
C595 O587 1.304 . S
C595 O589 1.272 . S
C596 O588 1.311 . S
C596 O590 1.231 . S
O597 Zn579 1.953 . S
O597 C591 1.298 . S
O598 Zn599 1.953 . S
O598 C614 1.225 . S
Zn599 O598 1.953 . S
Zn599 O600 1.949 . S
Zn599 O606 1.919 . S
Zn599 O611 1.924 . S
O600 Zn599 1.949 . S
O600 Zn601 1.923 . S
O600 Zn602 1.950 . S
O600 Zn603 1.945 . S
Zn601 O600 1.923 . S
Zn601 O604 1.933 . S
Zn601 O607 1.941 . S
Zn601 O608 1.965 . S
Zn602 O600 1.950 . S
Zn602 O609 1.938 . S
Zn602 O610 1.906 . S
Zn602 O620 1.953 . S
Zn603 O600 1.945 . S
Zn603 O605 1.932 . S
Zn603 O612 1.977 . S
Zn603 O613 1.910 . S
O604 Zn601 1.933 . S
O604 C615 1.226 . S
O605 Zn603 1.932 . S
O605 C615 1.307 . S
O606 Zn599 1.919 . S
O606 C617 1.253 . S
O607 Zn601 1.941 . S
O607 C617 1.283 . S
O608 Zn601 1.965 . S
O608 C616 1.303 . S
O609 Zn602 1.938 . S
O609 C616 1.247 . S
O610 Zn602 1.906 . S
O610 C618 1.304 . S
O611 Zn599 1.924 . S
O611 C619 1.311 . S
O612 Zn603 1.977 . S
O612 C618 1.272 . S
O613 Zn603 1.910 . S
O613 C619 1.231 . S
C614 O598 1.225 . S
C614 O620 1.298 . S
C615 O604 1.226 . S
C615 O605 1.307 . S
C616 O608 1.303 . S
C616 O609 1.247 . S
C617 O606 1.253 . S
C617 O607 1.283 . S
C618 O610 1.304 . S
C618 O612 1.272 . S
C619 O611 1.311 . S
C619 O613 1.231 . S
O620 Zn602 1.953 . S
O620 C614 1.298 . S
O621 Zn622 1.953 . S
O621 C637 1.225 . S
Zn622 O621 1.953 . S
Zn622 O623 1.949 . S
Zn622 O629 1.919 . S
Zn622 O634 1.924 . S
O623 Zn622 1.949 . S
O623 Zn624 1.923 . S
O623 Zn625 1.950 . S
O623 Zn626 1.945 . S
Zn624 O623 1.923 . S
Zn624 O627 1.933 . S
Zn624 O630 1.941 . S
Zn624 O631 1.965 . S
Zn625 O623 1.950 . S
Zn625 O632 1.938 . S
Zn625 O633 1.906 . S
Zn625 O643 1.953 . S
Zn626 O623 1.945 . S
Zn626 O628 1.932 . S
Zn626 O635 1.977 . S
Zn626 O636 1.910 . S
O627 Zn624 1.933 . S
O627 C638 1.226 . S
O628 Zn626 1.932 . S
O628 C638 1.307 . S
O629 Zn622 1.919 . S
O629 C640 1.253 . S
O630 Zn624 1.941 . S
O630 C640 1.283 . S
O631 Zn624 1.965 . S
O631 C639 1.303 . S
O632 Zn625 1.938 . S
O632 C639 1.247 . S
O633 Zn625 1.906 . S
O633 C641 1.304 . S
O634 Zn622 1.924 . S
O634 C642 1.311 . S
O635 Zn626 1.977 . S
O635 C641 1.272 . S
O636 Zn626 1.910 . S
O636 C642 1.231 . S
C637 O621 1.225 . S
C637 O643 1.298 . S
C638 O627 1.226 . S
C638 O628 1.307 . S
C639 O631 1.303 . S
C639 O632 1.247 . S
C640 O629 1.253 . S
C640 O630 1.283 . S
C641 O633 1.304 . S
C641 O635 1.272 . S
C642 O634 1.311 . S
C642 O636 1.231 . S
O643 Zn625 1.953 . S
O643 C637 1.298 . S
O644 Zn645 1.953 . S
O644 C660 1.225 . S
Zn645 O644 1.953 . S
Zn645 O646 1.949 . S
Zn645 O652 1.919 . S
Zn645 O657 1.924 . S
O646 Zn645 1.949 . S
O646 Zn647 1.923 . S
O646 Zn648 1.950 . S
O646 Zn649 1.945 . S
Zn647 O646 1.923 . S
Zn647 O650 1.933 . S
Zn647 O653 1.941 . S
Zn647 O654 1.965 . S
Zn648 O646 1.950 . S
Zn648 O655 1.938 1_556 S
Zn648 O656 1.906 . S
Zn648 O666 1.953 . S
Zn649 O646 1.945 . S
Zn649 O651 1.932 . S
Zn649 O658 1.977 . S
Zn649 O659 1.910 . S
O650 Zn647 1.933 . S
O650 C661 1.226 . S
O651 Zn649 1.932 . S
O651 C661 1.307 . S
O652 Zn645 1.919 . S
O652 C663 1.253 . S
O653 Zn647 1.941 . S
O653 C663 1.283 . S
O654 Zn647 1.965 . S
O654 C662 1.303 1_556 S
O655 Zn648 1.938 1_554 S
O655 C662 1.247 . S
O656 Zn648 1.906 . S
O656 C664 1.304 . S
O657 Zn645 1.924 . S
O657 C665 1.311 . S
O658 Zn649 1.977 . S
O658 C664 1.272 . S
O659 Zn649 1.910 . S
O659 C665 1.231 . S
C660 O644 1.225 . S
C660 O666 1.298 . S
C661 O650 1.226 . S
C661 O651 1.307 . S
C662 O654 1.303 1_554 S
C662 O655 1.247 . S
C663 O652 1.253 . S
C663 O653 1.283 . S
C664 O656 1.304 . S
C664 O658 1.272 . S
C665 O657 1.311 . S
C665 O659 1.231 . S
O666 Zn648 1.953 . S
O666 C660 1.298 . S
O667 Zn668 1.953 . S
O667 C683 1.225 . S
Zn668 O667 1.953 . S
Zn668 O669 1.949 . S
Zn668 O675 1.919 . S
Zn668 O680 1.924 . S
O669 Zn668 1.949 . S
O669 Zn670 1.923 . S
O669 Zn671 1.950 . S
O669 Zn672 1.945 . S
Zn670 O669 1.923 . S
Zn670 O673 1.933 . S
Zn670 O676 1.941 . S
Zn670 O677 1.965 . S
Zn671 O669 1.950 . S
Zn671 O678 1.938 1_556 S
Zn671 O679 1.906 . S
Zn671 O689 1.953 . S
Zn672 O669 1.945 . S
Zn672 O674 1.932 . S
Zn672 O681 1.977 . S
Zn672 O682 1.910 . S
O673 Zn670 1.933 . S
O673 C684 1.226 . S
O674 Zn672 1.932 . S
O674 C684 1.307 . S
O675 Zn668 1.919 . S
O675 C686 1.253 . S
O676 Zn670 1.941 . S
O676 C686 1.283 . S
O677 Zn670 1.965 . S
O677 C685 1.303 1_556 S
O678 Zn671 1.938 1_554 S
O678 C685 1.247 . S
O679 Zn671 1.906 . S
O679 C687 1.304 . S
O680 Zn668 1.924 . S
O680 C688 1.311 . S
O681 Zn672 1.977 . S
O681 C687 1.272 . S
O682 Zn672 1.910 . S
O682 C688 1.231 . S
C683 O667 1.225 . S
C683 O689 1.298 . S
C684 O673 1.226 . S
C684 O674 1.307 . S
C685 O677 1.303 1_554 S
C685 O678 1.247 . S
C686 O675 1.253 . S
C686 O676 1.283 . S
C687 O679 1.304 . S
C687 O681 1.272 . S
C688 O680 1.311 . S
C688 O682 1.231 . S
O689 Zn671 1.953 . S
O689 C683 1.298 . S
O690 Zn691 1.953 . S
O690 C706 1.225 . S
Zn691 O690 1.953 . S
Zn691 O692 1.949 . S
Zn691 O698 1.919 . S
Zn691 O703 1.924 . S
O692 Zn691 1.949 . S
O692 Zn693 1.923 . S
O692 Zn694 1.950 . S
O692 Zn695 1.945 . S
Zn693 O692 1.923 . S
Zn693 O696 1.933 . S
Zn693 O699 1.941 . S
Zn693 O700 1.965 . S
Zn694 O692 1.950 . S
Zn694 O701 1.938 . S
Zn694 O702 1.906 . S
Zn694 O712 1.953 . S
Zn695 O692 1.945 . S
Zn695 O697 1.932 . S
Zn695 O704 1.977 . S
Zn695 O705 1.910 . S
O696 Zn693 1.933 . S
O696 C707 1.226 . S
O697 Zn695 1.932 . S
O697 C707 1.307 . S
O698 Zn691 1.919 . S
O698 C709 1.253 . S
O699 Zn693 1.941 . S
O699 C709 1.283 . S
O700 Zn693 1.965 . S
O700 C708 1.303 . S
O701 Zn694 1.938 . S
O701 C708 1.247 . S
O702 Zn694 1.906 . S
O702 C710 1.304 . S
O703 Zn691 1.924 . S
O703 C711 1.311 . S
O704 Zn695 1.977 . S
O704 C710 1.272 . S
O705 Zn695 1.910 . S
O705 C711 1.231 . S
C706 O690 1.225 . S
C706 O712 1.298 . S
C707 O696 1.226 . S
C707 O697 1.307 . S
C708 O700 1.303 . S
C708 O701 1.247 . S
C709 O698 1.253 . S
C709 O699 1.283 . S
C710 O702 1.304 . S
C710 O704 1.272 . S
C711 O703 1.311 . S
C711 O705 1.231 . S
O712 Zn694 1.953 . S
O712 C706 1.298 . S
O713 Zn714 1.953 . S
O713 C729 1.225 . S
Zn714 O713 1.953 . S
Zn714 O715 1.949 . S
Zn714 O721 1.919 . S
Zn714 O726 1.924 . S
O715 Zn714 1.949 . S
O715 Zn716 1.923 . S
O715 Zn717 1.950 . S
O715 Zn718 1.945 . S
Zn716 O715 1.923 . S
Zn716 O719 1.933 . S
Zn716 O722 1.941 . S
Zn716 O723 1.965 . S
Zn717 O715 1.950 . S
Zn717 O724 1.938 . S
Zn717 O725 1.906 . S
Zn717 O735 1.953 . S
Zn718 O715 1.945 . S
Zn718 O720 1.932 . S
Zn718 O727 1.977 . S
Zn718 O728 1.910 . S
O719 Zn716 1.933 . S
O719 C730 1.226 . S
O720 Zn718 1.932 . S
O720 C730 1.307 . S
O721 Zn714 1.919 . S
O721 C732 1.253 . S
O722 Zn716 1.941 . S
O722 C732 1.283 . S
O723 Zn716 1.965 . S
O723 C731 1.303 . S
O724 Zn717 1.938 . S
O724 C731 1.247 . S
O725 Zn717 1.906 . S
O725 C733 1.304 . S
O726 Zn714 1.924 . S
O726 C734 1.311 . S
O727 Zn718 1.977 . S
O727 C733 1.272 . S
O728 Zn718 1.910 . S
O728 C734 1.231 . S
C729 O713 1.225 . S
C729 O735 1.298 . S
C730 O719 1.226 . S
C730 O720 1.307 . S
C731 O723 1.303 . S
C731 O724 1.247 . S
C732 O721 1.253 . S
C732 O722 1.283 . S
C733 O725 1.304 . S
C733 O727 1.272 . S
C734 O726 1.311 . S
C734 O728 1.231 . S
O735 Zn717 1.953 . S
O735 C729 1.298 . S
H736 C742 0.930 . S
H737 C745 0.930 . S
H738 C746 0.930 . S
H739 C747 0.930 . S
H740 C750 0.930 . S
H741 C751 0.930 . S
C742 H736 0.930 . S
C742 C743 1.355 . S
C742 C744 1.415 . S
C743 C742 1.355 . S
C743 C745 1.419 . S
C744 C742 1.415 . S
C744 C749 1.425 . S
C744 C751 1.409 . S
C745 H737 0.930 . S
C745 C743 1.419 . S
C745 C746 1.362 . S
C746 H738 0.930 . S
C746 C745 1.362 . S
C746 C749 1.409 . S
C747 H739 0.930 . S
C747 C748 1.355 . S
C747 C749 1.415 . S
C748 C747 1.355 . S
C748 C750 1.419 . S
C749 C744 1.425 . S
C749 C746 1.409 . S
C749 C747 1.415 . S
C750 H740 0.930 . S
C750 C748 1.419 . S
C750 C751 1.362 . S
C751 H741 0.930 . S
C751 C744 1.409 . S
C751 C750 1.362 . S
H752 C758 0.930 . S
H753 C761 0.930 . S
H754 C762 0.930 . S
H755 C763 0.930 . S
H756 C766 0.930 . S
H757 C767 0.930 . S
C758 H752 0.930 . S
C758 C759 1.355 . S
C758 C760 1.415 . S
C759 C758 1.355 . S
C759 C761 1.419 . S
C760 C758 1.415 . S
C760 C765 1.425 . S
C760 C767 1.409 . S
C761 H753 0.930 . S
C761 C759 1.419 . S
C761 C762 1.362 . S
C762 H754 0.930 . S
C762 C761 1.362 . S
C762 C765 1.409 . S
C763 H755 0.930 . S
C763 C764 1.355 . S
C763 C765 1.415 . S
C764 C763 1.355 . S
C764 C766 1.419 . S
C765 C760 1.425 . S
C765 C762 1.409 . S
C765 C763 1.415 . S
C766 H756 0.930 . S
C766 C764 1.419 . S
C766 C767 1.362 . S
C767 H757 0.930 . S
C767 C760 1.409 . S
C767 C766 1.362 . S
H768 C774 0.930 . S
H769 C777 0.930 . S
H770 C778 0.930 . S
H771 C779 0.930 . S
H772 C782 0.930 . S
H773 C783 0.930 . S
C774 H768 0.930 . S
C774 C775 1.355 . S
C774 C776 1.415 . S
C775 C774 1.355 . S
C775 C777 1.419 . S
C776 C774 1.415 . S
C776 C781 1.425 . S
C776 C783 1.409 . S
C777 H769 0.930 . S
C777 C775 1.419 . S
C777 C778 1.362 . S
C778 H770 0.930 . S
C778 C777 1.362 . S
C778 C781 1.409 . S
C779 H771 0.930 . S
C779 C780 1.355 . S
C779 C781 1.415 . S
C780 C779 1.355 . S
C780 C782 1.419 . S
C781 C776 1.425 . S
C781 C778 1.409 . S
C781 C779 1.415 . S
C782 H772 0.930 . S
C782 C780 1.419 . S
C782 C783 1.362 . S
C783 H773 0.930 . S
C783 C776 1.409 . S
C783 C782 1.362 . S
H784 C790 0.930 . S
H785 C793 0.930 . S
H786 C794 0.930 . S
H787 C795 0.930 . S
H788 C798 0.930 . S
H789 C799 0.930 . S
C790 H784 0.930 . S
C790 C791 1.355 . S
C790 C792 1.415 . S
C791 C790 1.355 . S
C791 C793 1.419 . S
C792 C790 1.415 . S
C792 C797 1.425 . S
C792 C799 1.409 . S
C793 H785 0.930 . S
C793 C791 1.419 . S
C793 C794 1.362 . S
C794 H786 0.930 . S
C794 C793 1.362 . S
C794 C797 1.409 . S
C795 H787 0.930 . S
C795 C796 1.355 . S
C795 C797 1.415 . S
C796 C795 1.355 . S
C796 C798 1.419 . S
C797 C792 1.425 . S
C797 C794 1.409 . S
C797 C795 1.415 . S
C798 H788 0.930 . S
C798 C796 1.419 . S
C798 C799 1.362 . S
C799 H789 0.930 . S
C799 C792 1.409 . S
C799 C798 1.362 . S
H800 C806 0.930 . S
H801 C809 0.930 . S
H802 C810 0.930 . S
H803 C811 0.930 . S
H804 C814 0.930 . S
H805 C815 0.930 . S
C806 H800 0.930 . S
C806 C807 1.355 . S
C806 C808 1.415 . S
C807 C806 1.355 . S
C807 C809 1.419 . S
C808 C806 1.415 . S
C808 C813 1.425 . S
C808 C815 1.409 . S
C809 H801 0.930 . S
C809 C807 1.419 . S
C809 C810 1.362 . S
C810 H802 0.930 . S
C810 C809 1.362 . S
C810 C813 1.409 . S
C811 H803 0.930 . S
C811 C812 1.355 . S
C811 C813 1.415 . S
C812 C811 1.355 . S
C812 C814 1.419 . S
C813 C808 1.425 . S
C813 C810 1.409 . S
C813 C811 1.415 . S
C814 H804 0.930 . S
C814 C812 1.419 . S
C814 C815 1.362 . S
C815 H805 0.930 . S
C815 C808 1.409 . S
C815 C814 1.362 . S
H816 C822 0.930 . S
H817 C825 0.930 . S
H818 C826 0.930 . S
H819 C827 0.930 . S
H820 C830 0.930 . S
H821 C831 0.930 . S
C822 H816 0.930 . S
C822 C823 1.355 . S
C822 C824 1.415 . S
C823 C822 1.355 . S
C823 C825 1.419 . S
C824 C822 1.415 . S
C824 C829 1.425 . S
C824 C831 1.409 . S
C825 H817 0.930 . S
C825 C823 1.419 . S
C825 C826 1.362 . S
C826 H818 0.930 . S
C826 C825 1.362 . S
C826 C829 1.409 . S
C827 H819 0.930 . S
C827 C828 1.355 . S
C827 C829 1.415 . S
C828 C827 1.355 . S
C828 C830 1.419 . S
C829 C824 1.425 . S
C829 C826 1.409 . S
C829 C827 1.415 . S
C830 H820 0.930 . S
C830 C828 1.419 . S
C830 C831 1.362 . S
C831 H821 0.930 . S
C831 C824 1.409 . S
C831 C830 1.362 . S
H832 C838 0.930 . S
H833 C841 0.930 . S
H834 C842 0.930 . S
H835 C843 0.930 . S
H836 C846 0.930 . S
H837 C847 0.930 . S
C838 H832 0.930 . S
C838 C839 1.355 . S
C838 C840 1.415 . S
C839 C838 1.355 . S
C839 C841 1.419 . S
C840 C838 1.415 . S
C840 C845 1.425 . S
C840 C847 1.409 . S
C841 H833 0.930 . S
C841 C839 1.419 . S
C841 C842 1.362 . S
C842 H834 0.930 . S
C842 C841 1.362 . S
C842 C845 1.409 . S
C843 H835 0.930 . S
C843 C844 1.355 . S
C843 C845 1.415 . S
C844 C843 1.355 . S
C844 C846 1.419 . S
C845 C840 1.425 . S
C845 C842 1.409 . S
C845 C843 1.415 . S
C846 H836 0.930 . S
C846 C844 1.419 . S
C846 C847 1.362 . S
C847 H837 0.930 . S
C847 C840 1.409 . S
C847 C846 1.362 . S
H848 C854 0.930 . S
H849 C857 0.930 . S
H850 C858 0.930 . S
H851 C859 0.930 . S
H852 C862 0.930 . S
H853 C863 0.930 . S
C854 H848 0.930 . S
C854 C855 1.355 . S
C854 C856 1.415 . S
C855 C854 1.355 . S
C855 C857 1.419 . S
C856 C854 1.415 . S
C856 C861 1.425 . S
C856 C863 1.409 . S
C857 H849 0.930 . S
C857 C855 1.419 . S
C857 C858 1.362 . S
C858 H850 0.930 . S
C858 C857 1.362 . S
C858 C861 1.409 . S
C859 H851 0.930 . S
C859 C860 1.355 . S
C859 C861 1.415 . S
C860 C859 1.355 . S
C860 C862 1.419 . S
C861 C856 1.425 . S
C861 C858 1.409 . S
C861 C859 1.415 . S
C862 H852 0.930 . S
C862 C860 1.419 . S
C862 C863 1.362 . S
C863 H853 0.930 . S
C863 C856 1.409 . S
C863 C862 1.362 . S
H864 C870 0.930 . S
H865 C873 0.930 . S
H866 C874 0.930 . S
H867 C875 0.930 . S
H868 C878 0.930 . S
H869 C879 0.930 . S
C870 H864 0.930 . S
C870 C871 1.355 . S
C870 C872 1.415 . S
C871 C870 1.355 . S
C871 C873 1.419 . S
C872 C870 1.415 . S
C872 C877 1.425 . S
C872 C879 1.409 . S
C873 H865 0.930 . S
C873 C871 1.419 . S
C873 C874 1.362 . S
C874 H866 0.930 . S
C874 C873 1.362 . S
C874 C877 1.409 . S
C875 H867 0.930 . S
C875 C876 1.355 . S
C875 C877 1.415 . S
C876 C875 1.355 . S
C876 C878 1.419 . S
C877 C872 1.425 . S
C877 C874 1.409 . S
C877 C875 1.415 . S
C878 H868 0.930 . S
C878 C876 1.419 . S
C878 C879 1.362 . S
C879 H869 0.930 . S
C879 C872 1.409 . S
C879 C878 1.362 . S
H880 C886 0.930 . S
H881 C889 0.930 . S
H882 C890 0.930 . S
H883 C891 0.930 . S
H884 C894 0.930 . S
H885 C895 0.930 . S
C886 H880 0.930 . S
C886 C887 1.355 . S
C886 C888 1.415 . S
C887 C886 1.355 . S
C887 C889 1.419 . S
C888 C886 1.415 . S
C888 C893 1.425 . S
C888 C895 1.409 . S
C889 H881 0.930 . S
C889 C887 1.419 . S
C889 C890 1.362 . S
C890 H882 0.930 . S
C890 C889 1.362 . S
C890 C893 1.409 . S
C891 H883 0.930 . S
C891 C892 1.355 . S
C891 C893 1.415 . S
C892 C891 1.355 . S
C892 C894 1.419 . S
C893 C888 1.425 . S
C893 C890 1.409 . S
C893 C891 1.415 . S
C894 H884 0.930 . S
C894 C892 1.419 . S
C894 C895 1.362 . S
C895 H885 0.930 . S
C895 C888 1.409 . S
C895 C894 1.362 . S
H896 C902 0.930 . S
H897 C905 0.930 . S
H898 C906 0.930 . S
H899 C907 0.930 . S
H900 C910 0.930 . S
H901 C911 0.930 . S
C902 H896 0.930 . S
C902 C903 1.355 . S
C902 C904 1.415 . S
C903 C902 1.355 . S
C903 C905 1.419 . S
C904 C902 1.415 . S
C904 C909 1.425 . S
C904 C911 1.409 . S
C905 H897 0.930 . S
C905 C903 1.419 . S
C905 C906 1.362 . S
C906 H898 0.930 . S
C906 C905 1.362 . S
C906 C909 1.409 . S
C907 H899 0.930 . S
C907 C908 1.355 . S
C907 C909 1.415 . S
C908 C907 1.355 . S
C908 C910 1.419 . S
C909 C904 1.425 . S
C909 C906 1.409 . S
C909 C907 1.415 . S
C910 H900 0.930 . S
C910 C908 1.419 . S
C910 C911 1.362 . S
C911 H901 0.930 . S
C911 C904 1.409 . S
C911 C910 1.362 . S
H912 C918 0.930 . S
H913 C921 0.930 . S
H914 C922 0.930 . S
H915 C923 0.930 . S
H916 C926 0.930 . S
H917 C927 0.930 . S
C918 H912 0.930 . S
C918 C919 1.355 . S
C918 C920 1.415 . S
C919 C918 1.355 . S
C919 C921 1.419 . S
C920 C918 1.415 . S
C920 C925 1.425 . S
C920 C927 1.409 . S
C921 H913 0.930 . S
C921 C919 1.419 . S
C921 C922 1.362 . S
C922 H914 0.930 . S
C922 C921 1.362 . S
C922 C925 1.409 . S
C923 H915 0.930 . S
C923 C924 1.355 . S
C923 C925 1.415 . S
C924 C923 1.355 . S
C924 C926 1.419 . S
C925 C920 1.425 . S
C925 C922 1.409 . S
C925 C923 1.415 . S
C926 H916 0.930 . S
C926 C924 1.419 . S
C926 C927 1.362 . S
C927 H917 0.930 . S
C927 C920 1.409 . S
C927 C926 1.362 . S
H928 C934 0.930 . S
H929 C937 0.930 . S
H930 C938 0.930 . S
H931 C939 0.930 . S
H932 C942 0.930 . S
H933 C943 0.930 . S
C934 H928 0.930 . S
C934 C935 1.355 . S
C934 C936 1.415 . S
C935 C934 1.355 . S
C935 C937 1.419 . S
C936 C934 1.415 . S
C936 C941 1.425 . S
C936 C943 1.409 . S
C937 H929 0.930 . S
C937 C935 1.419 . S
C937 C938 1.362 . S
C938 H930 0.930 . S
C938 C937 1.362 . S
C938 C941 1.409 . S
C939 H931 0.930 . S
C939 C940 1.355 . S
C939 C941 1.415 . S
C940 C939 1.355 . S
C940 C942 1.419 . S
C941 C936 1.425 . S
C941 C938 1.409 . S
C941 C939 1.415 . S
C942 H932 0.930 . S
C942 C940 1.419 . S
C942 C943 1.362 . S
C943 H933 0.930 . S
C943 C936 1.409 . S
C943 C942 1.362 . S
H944 C950 0.930 . S
H945 C953 0.930 . S
H946 C954 0.930 . S
H947 C955 0.930 . S
H948 C958 0.930 . S
H949 C959 0.930 . S
C950 H944 0.930 . S
C950 C951 1.355 . S
C950 C952 1.415 . S
C951 C950 1.355 . S
C951 C953 1.419 . S
C952 C950 1.415 . S
C952 C957 1.425 . S
C952 C959 1.409 . S
C953 H945 0.930 . S
C953 C951 1.419 . S
C953 C954 1.362 . S
C954 H946 0.930 . S
C954 C953 1.362 . S
C954 C957 1.409 . S
C955 H947 0.930 . S
C955 C956 1.355 . S
C955 C957 1.415 . S
C956 C955 1.355 . S
C956 C958 1.419 . S
C957 C952 1.425 . S
C957 C954 1.409 . S
C957 C955 1.415 . S
C958 H948 0.930 . S
C958 C956 1.419 . S
C958 C959 1.362 . S
C959 H949 0.930 . S
C959 C952 1.409 . S
C959 C958 1.362 . S
H960 C966 0.930 . S
H961 C969 0.930 . S
H962 C970 0.930 . S
H963 C971 0.930 . S
H964 C974 0.930 . S
H965 C975 0.930 . S
C966 H960 0.930 . S
C966 C967 1.355 . S
C966 C968 1.415 . S
C967 C966 1.355 . S
C967 C969 1.419 . S
C968 C966 1.415 . S
C968 C973 1.425 . S
C968 C975 1.409 . S
C969 H961 0.930 . S
C969 C967 1.419 . S
C969 C970 1.362 . S
C970 H962 0.930 . S
C970 C969 1.362 . S
C970 C973 1.409 . S
C971 H963 0.930 . S
C971 C972 1.355 . S
C971 C973 1.415 . S
C972 C971 1.355 . S
C972 C974 1.419 . S
C973 C968 1.425 . S
C973 C970 1.409 . S
C973 C971 1.415 . S
C974 H964 0.930 . S
C974 C972 1.419 . S
C974 C975 1.362 . S
C975 H965 0.930 . S
C975 C968 1.409 . S
C975 C974 1.362 . S
H976 C982 0.930 . S
H977 C985 0.930 . S
H978 C986 0.930 . S
H979 C987 0.930 . S
H980 C990 0.930 . S
H981 C991 0.930 . S
C982 H976 0.930 . S
C982 C983 1.355 . S
C982 C984 1.415 . S
C983 C982 1.355 . S
C983 C985 1.419 . S
C984 C982 1.415 . S
C984 C989 1.425 . S
C984 C991 1.409 . S
C985 H977 0.930 . S
C985 C983 1.419 . S
C985 C986 1.362 . S
C986 H978 0.930 . S
C986 C985 1.362 . S
C986 C989 1.409 . S
C987 H979 0.930 . S
C987 C988 1.355 . S
C987 C989 1.415 . S
C988 C987 1.355 . S
C988 C990 1.419 . S
C989 C984 1.425 . S
C989 C986 1.409 . S
C989 C987 1.415 . S
C990 H980 0.930 . S
C990 C988 1.419 . S
C990 C991 1.362 . S
C991 H981 0.930 . S
C991 C984 1.409 . S
C991 C990 1.362 . S
H992 C998 0.930 . S
H993 C1001 0.930 . S
H994 C1002 0.930 . S
H995 C1003 0.930 . S
H996 C1006 0.930 . S
H997 C1007 0.930 . S
C998 H992 0.930 . S
C998 C999 1.355 1_545 S
C998 C1000 1.415 . S
C999 C998 1.355 1_565 S
C999 C1001 1.419 . S
C1000 C998 1.415 . S
C1000 C1005 1.425 1_545 S
C1000 C1007 1.409 . S
C1001 H993 0.930 . S
C1001 C999 1.419 . S
C1001 C1002 1.362 . S
C1002 H994 0.930 . S
C1002 C1001 1.362 . S
C1002 C1005 1.409 . S
C1003 H995 0.930 . S
C1003 C1004 1.355 1_565 S
C1003 C1005 1.415 . S
C1004 C1003 1.355 1_545 S
C1004 C1006 1.419 . S
C1005 C1000 1.425 1_565 S
C1005 C1002 1.409 . S
C1005 C1003 1.415 . S
C1006 H996 0.930 . S
C1006 C1004 1.419 . S
C1006 C1007 1.362 . S
C1007 H997 0.930 . S
C1007 C1000 1.409 . S
C1007 C1006 1.362 . S
H1008 C1014 0.930 . S
H1009 C1017 0.930 . S
H1010 C1018 0.930 . S
H1011 C1019 0.930 . S
H1012 C1022 0.930 . S
H1013 C1023 0.930 . S
C1014 H1008 0.930 . S
C1014 C1015 1.355 . S
C1014 C1016 1.415 . S
C1015 C1014 1.355 . S
C1015 C1017 1.419 . S
C1016 C1014 1.415 . S
C1016 C1021 1.425 1_455 S
C1016 C1023 1.409 . S
C1017 H1009 0.930 . S
C1017 C1015 1.419 . S
C1017 C1018 1.362 1_455 S
C1018 H1010 0.930 . S
C1018 C1017 1.362 1_655 S
C1018 C1021 1.409 . S
C1019 H1011 0.930 . S
C1019 C1020 1.355 . S
C1019 C1021 1.415 . S
C1020 C1019 1.355 . S
C1020 C1022 1.419 . S
C1021 C1016 1.425 1_655 S
C1021 C1018 1.409 . S
C1021 C1019 1.415 . S
C1022 H1012 0.930 . S
C1022 C1020 1.419 . S
C1022 C1023 1.362 1_655 S
C1023 H1013 0.930 . S
C1023 C1016 1.409 . S
C1023 C1022 1.362 1_455 S
H1024 C1030 0.930 . S
H1025 C1033 0.930 . S
H1026 C1034 0.930 . S
H1027 C1035 0.930 . S
H1028 C1038 0.930 . S
H1029 C1039 0.930 . S
C1030 H1024 0.930 . S
C1030 C1031 1.355 . S
C1030 C1032 1.415 . S
C1031 C1030 1.355 . S
C1031 C1033 1.419 . S
C1032 C1030 1.415 . S
C1032 C1037 1.425 1_556 S
C1032 C1039 1.409 . S
C1033 H1025 0.930 . S
C1033 C1031 1.419 . S
C1033 C1034 1.362 1_556 S
C1034 H1026 0.930 . S
C1034 C1033 1.362 1_554 S
C1034 C1037 1.409 . S
C1035 H1027 0.930 . S
C1035 C1036 1.355 . S
C1035 C1037 1.415 . S
C1036 C1035 1.355 . S
C1036 C1038 1.419 . S
C1037 C1032 1.425 1_554 S
C1037 C1034 1.409 . S
C1037 C1035 1.415 . S
C1038 H1028 0.930 . S
C1038 C1036 1.419 . S
C1038 C1039 1.362 1_554 S
C1039 H1029 0.930 . S
C1039 C1032 1.409 . S
C1039 C1038 1.362 1_556 S
H1040 C1046 0.930 . S
H1041 C1049 0.930 . S
H1042 C1050 0.930 . S
H1043 C1051 0.930 . S
H1044 C1054 0.930 . S
H1045 C1055 0.930 . S
C1046 H1040 0.930 . S
C1046 C1047 1.355 . S
C1046 C1048 1.415 1_554 S
C1047 C1046 1.355 . S
C1047 C1049 1.419 . S
C1048 C1046 1.415 1_556 S
C1048 C1053 1.425 1_666 S
C1048 C1055 1.409 1_565 S
C1049 H1041 0.930 . S
C1049 C1047 1.419 . S
C1049 C1050 1.362 1_655 S
C1050 H1042 0.930 . S
C1050 C1049 1.362 1_455 S
C1050 C1053 1.409 1_565 S
C1051 H1043 0.930 . S
C1051 C1052 1.355 . S
C1051 C1053 1.415 1_556 S
C1052 C1051 1.355 . S
C1052 C1054 1.419 . S
C1053 C1048 1.425 1_444 S
C1053 C1050 1.409 1_545 S
C1053 C1051 1.415 1_554 S
C1054 H1044 0.930 . S
C1054 C1052 1.419 . S
C1054 C1055 1.362 1_455 S
C1055 H1045 0.930 . S
C1055 C1048 1.409 1_545 S
C1055 C1054 1.362 1_655 S
H1056 C1062 0.930 . S
H1057 C1065 0.930 . S
H1058 C1066 0.930 . S
H1059 C1067 0.930 . S
H1060 C1070 0.930 . S
H1061 C1071 0.930 . S
C1062 H1056 0.930 . S
C1062 C1063 1.355 . S
C1062 C1064 1.415 . S
C1063 C1062 1.355 . S
C1063 C1065 1.419 1_545 S
C1064 C1062 1.415 . S
C1064 C1069 1.425 1_545 S
C1064 C1071 1.409 . S
C1065 H1057 0.930 . S
C1065 C1063 1.419 1_565 S
C1065 C1066 1.362 . S
C1066 H1058 0.930 . S
C1066 C1065 1.362 . S
C1066 C1069 1.409 . S
C1067 H1059 0.930 . S
C1067 C1068 1.355 . S
C1067 C1069 1.415 . S
C1068 C1067 1.355 . S
C1068 C1070 1.419 1_565 S
C1069 C1064 1.425 1_565 S
C1069 C1066 1.409 . S
C1069 C1067 1.415 . S
C1070 H1060 0.930 . S
C1070 C1068 1.419 1_545 S
C1070 C1071 1.362 . S
C1071 H1061 0.930 . S
C1071 C1064 1.409 . S
C1071 C1070 1.362 . S
H1072 C1078 0.930 . S
H1073 C1081 0.930 . S
H1074 C1082 0.930 . S
H1075 C1083 0.930 . S
H1076 C1086 0.930 . S
H1077 C1087 0.930 . S
C1078 H1072 0.930 . S
C1078 C1079 1.355 . S
C1078 C1080 1.415 . S
C1079 C1078 1.355 . S
C1079 C1081 1.419 . S
C1080 C1078 1.415 . S
C1080 C1085 1.425 1_455 S
C1080 C1087 1.409 . S
C1081 H1073 0.930 . S
C1081 C1079 1.419 . S
C1081 C1082 1.362 1_455 S
C1082 H1074 0.930 . S
C1082 C1081 1.362 1_655 S
C1082 C1085 1.409 . S
C1083 H1075 0.930 . S
C1083 C1084 1.355 . S
C1083 C1085 1.415 . S
C1084 C1083 1.355 . S
C1084 C1086 1.419 . S
C1085 C1080 1.425 1_655 S
C1085 C1082 1.409 . S
C1085 C1083 1.415 . S
C1086 H1076 0.930 . S
C1086 C1084 1.419 . S
C1086 C1087 1.362 1_655 S
C1087 H1077 0.930 . S
C1087 C1080 1.409 . S
C1087 C1086 1.362 1_455 S
H1088 C1094 0.930 . S
H1089 C1097 0.930 . S
H1090 C1098 0.930 . S
H1091 C1099 0.930 . S
H1092 C1102 0.930 . S
H1093 C1103 0.930 . S
C1094 H1088 0.930 . S
C1094 C1095 1.355 . S
C1094 C1096 1.415 1_556 S
C1095 C1094 1.355 . S
C1095 C1097 1.419 . S
C1096 C1094 1.415 1_554 S
C1096 C1101 1.425 1_554 S
C1096 C1103 1.409 . S
C1097 H1089 0.930 . S
C1097 C1095 1.419 . S
C1097 C1098 1.362 . S
C1098 H1090 0.930 . S
C1098 C1097 1.362 . S
C1098 C1101 1.409 . S
C1099 H1091 0.930 . S
C1099 C1100 1.355 . S
C1099 C1101 1.415 1_554 S
C1100 C1099 1.355 . S
C1100 C1102 1.419 . S
C1101 C1096 1.425 1_556 S
C1101 C1098 1.409 . S
C1101 C1099 1.415 1_556 S
C1102 H1092 0.930 . S
C1102 C1100 1.419 . S
C1102 C1103 1.362 . S
C1103 H1093 0.930 . S
C1103 C1096 1.409 . S
C1103 C1102 1.362 . S
H1104 C1110 0.930 . S
H1105 C1113 0.930 . S
H1106 C1114 0.930 . S
H1107 C1115 0.930 . S
H1108 C1118 0.930 . S
H1109 C1119 0.930 . S
C1110 H1104 0.930 . S
C1110 C1111 1.355 . S
C1110 C1112 1.415 . S
C1111 C1110 1.355 . S
C1111 C1113 1.419 . S
C1112 C1110 1.415 . S
C1112 C1117 1.425 . S
C1112 C1119 1.409 . S
C1113 H1105 0.930 . S
C1113 C1111 1.419 . S
C1113 C1114 1.362 . S
C1114 H1106 0.930 . S
C1114 C1113 1.362 . S
C1114 C1117 1.409 . S
C1115 H1107 0.930 . S
C1115 C1116 1.355 . S
C1115 C1117 1.415 . S
C1116 C1115 1.355 . S
C1116 C1118 1.419 . S
C1117 C1112 1.425 . S
C1117 C1114 1.409 . S
C1117 C1115 1.415 . S
C1118 H1108 0.930 . S
C1118 C1116 1.419 . S
C1118 C1119 1.362 . S
C1119 H1109 0.930 . S
C1119 C1112 1.409 . S
C1119 C1118 1.362 . S
H1120 C1126 0.930 . S
H1121 C1129 0.930 . S
H1122 C1130 0.930 . S
H1123 C1131 0.930 . S
H1124 C1134 0.930 . S
H1125 C1135 0.930 . S
C1126 H1120 0.930 . S
C1126 C1127 1.355 . S
C1126 C1128 1.415 . S
C1127 C1126 1.355 . S
C1127 C1129 1.419 . S
C1128 C1126 1.415 . S
C1128 C1133 1.425 . S
C1128 C1135 1.409 . S
C1129 H1121 0.930 . S
C1129 C1127 1.419 . S
C1129 C1130 1.362 . S
C1130 H1122 0.930 . S
C1130 C1129 1.362 . S
C1130 C1133 1.409 . S
C1131 H1123 0.930 . S
C1131 C1132 1.355 . S
C1131 C1133 1.415 . S
C1132 C1131 1.355 . S
C1132 C1134 1.419 . S
C1133 C1128 1.425 . S
C1133 C1130 1.409 . S
C1133 C1131 1.415 . S
C1134 H1124 0.930 . S
C1134 C1132 1.419 . S
C1134 C1135 1.362 . S
C1135 H1125 0.930 . S
C1135 C1128 1.409 . S
C1135 C1134 1.362 . S
H1136 C1142 0.932 . S
H1137 C1145 0.930 . S
H1138 C1146 0.930 . S
H1139 C1147 0.932 . S
H1140 C1150 0.930 . S
H1141 C1151 0.930 . S
C1142 H1136 0.932 . S
C1142 C1143 1.355 . S
C1142 C1144 1.415 1_455 S
C1143 C1142 1.355 . S
C1143 C1145 1.419 . S
C1144 C1142 1.415 1_655 S
C1144 C1149 1.425 1_655 S
C1144 C1151 1.409 . S
C1145 H1137 0.930 . S
C1145 C1143 1.419 . S
C1145 C1146 1.362 . S
C1146 H1138 0.930 . S
C1146 C1145 1.362 . S
C1146 C1149 1.409 . S
C1147 H1139 0.932 . S
C1147 C1148 1.355 . S
C1147 C1149 1.415 1_655 S
C1148 C1147 1.355 . S
C1148 C1150 1.419 . S
C1149 C1144 1.425 1_455 S
C1149 C1146 1.409 . S
C1149 C1147 1.415 1_455 S
C1150 H1140 0.930 . S
C1150 C1148 1.419 . S
C1150 C1151 1.362 . S
C1151 H1141 0.930 . S
C1151 C1144 1.409 . S
C1151 C1150 1.362 . S
H1152 C1158 0.930 . S
H1153 C1161 0.930 . S
H1154 C1162 0.930 . S
H1155 C1163 0.930 . S
H1156 C1166 0.930 . S
H1157 C1167 0.930 . S
C1158 H1152 0.930 . S
C1158 C1159 1.355 . S
C1158 C1160 1.415 . S
C1159 C1158 1.355 . S
C1159 C1161 1.419 . S
C1160 C1158 1.415 . S
C1160 C1165 1.425 . S
C1160 C1167 1.409 . S
C1161 H1153 0.930 . S
C1161 C1159 1.419 . S
C1161 C1162 1.362 . S
C1162 H1154 0.930 . S
C1162 C1161 1.362 . S
C1162 C1165 1.409 . S
C1163 H1155 0.930 . S
C1163 C1164 1.355 . S
C1163 C1165 1.415 . S
C1164 C1163 1.355 . S
C1164 C1166 1.419 . S
C1165 C1160 1.425 . S
C1165 C1162 1.409 . S
C1165 C1163 1.415 . S
C1166 H1156 0.930 . S
C1166 C1164 1.419 . S
C1166 C1167 1.362 . S
C1167 H1157 0.930 . S
C1167 C1160 1.409 . S
C1167 C1166 1.362 . S
H1168 C1174 0.930 . S
H1169 C1177 0.930 . S
H1170 C1178 0.930 . S
H1171 C1179 0.930 . S
H1172 C1182 0.930 . S
H1173 C1183 0.930 . S
C1174 H1168 0.930 . S
C1174 C1175 1.355 . S
C1174 C1176 1.415 . S
C1175 C1174 1.355 . S
C1175 C1177 1.419 . S
C1176 C1174 1.415 . S
C1176 C1181 1.425 . S
C1176 C1183 1.409 . S
C1177 H1169 0.930 . S
C1177 C1175 1.419 . S
C1177 C1178 1.362 . S
C1178 H1170 0.930 . S
C1178 C1177 1.362 . S
C1178 C1181 1.409 . S
C1179 H1171 0.930 . S
C1179 C1180 1.355 . S
C1179 C1181 1.415 . S
C1180 C1179 1.355 . S
C1180 C1182 1.419 . S
C1181 C1176 1.425 . S
C1181 C1178 1.409 . S
C1181 C1179 1.415 . S
C1182 H1172 0.930 . S
C1182 C1180 1.419 . S
C1182 C1183 1.362 . S
C1183 H1173 0.930 . S
C1183 C1176 1.409 . S
C1183 C1182 1.362 . S
H1184 C1190 0.930 . S
H1185 C1193 0.930 . S
H1186 C1194 0.930 . S
H1187 C1195 0.930 . S
H1188 C1198 0.930 . S
H1189 C1199 0.930 . S
C1190 H1184 0.930 . S
C1190 C1191 1.355 . S
C1190 C1192 1.415 . S
C1191 C1190 1.355 . S
C1191 C1193 1.419 . S
C1192 C1190 1.415 . S
C1192 C1197 1.425 . S
C1192 C1199 1.409 . S
C1193 H1185 0.930 . S
C1193 C1191 1.419 . S
C1193 C1194 1.362 . S
C1194 H1186 0.930 . S
C1194 C1193 1.362 . S
C1194 C1197 1.409 . S
C1195 H1187 0.930 . S
C1195 C1196 1.355 . S
C1195 C1197 1.415 . S
C1196 C1195 1.355 . S
C1196 C1198 1.419 . S
C1197 C1192 1.425 . S
C1197 C1194 1.409 . S
C1197 C1195 1.415 . S
C1198 H1188 0.930 . S
C1198 C1196 1.419 . S
C1198 C1199 1.362 . S
C1199 H1189 0.930 . S
C1199 C1192 1.409 . S
C1199 C1198 1.362 . S
H1200 C1206 0.930 . S
H1201 C1209 0.930 . S
H1202 C1210 0.930 . S
H1203 C1211 0.930 . S
H1204 C1214 0.930 . S
H1205 C1215 0.930 . S
C1206 H1200 0.930 . S
C1206 C1207 1.355 1_545 S
C1206 C1208 1.415 . S
C1207 C1206 1.355 1_565 S
C1207 C1209 1.419 . S
C1208 C1206 1.415 . S
C1208 C1213 1.425 1_545 S
C1208 C1215 1.409 . S
C1209 H1201 0.930 . S
C1209 C1207 1.419 . S
C1209 C1210 1.362 . S
C1210 H1202 0.930 . S
C1210 C1209 1.362 . S
C1210 C1213 1.409 . S
C1211 H1203 0.930 . S
C1211 C1212 1.355 1_565 S
C1211 C1213 1.415 . S
C1212 C1211 1.355 1_545 S
C1212 C1214 1.419 . S
C1213 C1208 1.425 1_565 S
C1213 C1210 1.409 . S
C1213 C1211 1.415 . S
C1214 H1204 0.930 . S
C1214 C1212 1.419 . S
C1214 C1215 1.362 . S
C1215 H1205 0.930 . S
C1215 C1208 1.409 . S
C1215 C1214 1.362 . S
H1216 C1222 0.930 . S
H1217 C1225 0.930 . S
H1218 C1226 0.930 . S
H1219 C1227 0.930 . S
H1220 C1230 0.930 . S
H1221 C1231 0.930 . S
C1222 H1216 0.930 . S
C1222 C1223 1.355 . S
C1222 C1224 1.415 . S
C1223 C1222 1.355 . S
C1223 C1225 1.419 . S
C1224 C1222 1.415 . S
C1224 C1229 1.425 . S
C1224 C1231 1.409 . S
C1225 H1217 0.930 . S
C1225 C1223 1.419 . S
C1225 C1226 1.362 . S
C1226 H1218 0.930 . S
C1226 C1225 1.362 . S
C1226 C1229 1.409 . S
C1227 H1219 0.930 . S
C1227 C1228 1.355 . S
C1227 C1229 1.415 . S
C1228 C1227 1.355 . S
C1228 C1230 1.419 . S
C1229 C1224 1.425 . S
C1229 C1226 1.409 . S
C1229 C1227 1.415 . S
C1230 H1220 0.930 . S
C1230 C1228 1.419 . S
C1230 C1231 1.362 . S
C1231 H1221 0.930 . S
C1231 C1224 1.409 . S
C1231 C1230 1.362 . S
H1232 C1238 0.930 . S
H1233 C1241 0.930 . S
H1234 C1242 0.930 . S
H1235 C1243 0.930 . S
H1236 C1246 0.930 . S
H1237 C1247 0.930 . S
C1238 H1232 0.930 . S
C1238 C1239 1.355 . S
C1238 C1240 1.415 . S
C1239 C1238 1.355 . S
C1239 C1241 1.419 . S
C1240 C1238 1.415 . S
C1240 C1245 1.425 1_554 S
C1240 C1247 1.409 . S
C1241 H1233 0.930 . S
C1241 C1239 1.419 . S
C1241 C1242 1.362 1_554 S
C1242 H1234 0.930 . S
C1242 C1241 1.362 1_556 S
C1242 C1245 1.409 . S
C1243 H1235 0.930 . S
C1243 C1244 1.355 . S
C1243 C1245 1.415 . S
C1244 C1243 1.355 . S
C1244 C1246 1.419 . S
C1245 C1240 1.425 1_556 S
C1245 C1242 1.409 . S
C1245 C1243 1.415 . S
C1246 H1236 0.930 . S
C1246 C1244 1.419 . S
C1246 C1247 1.362 1_556 S
C1247 H1237 0.930 . S
C1247 C1240 1.409 . S
C1247 C1246 1.362 1_554 S
H1248 C1254 0.942 . S
H1249 C1257 0.930 . S
H1250 C1258 0.930 . S
H1251 C1259 0.930 . S
H1252 C1262 0.930 . S
H1253 C1263 0.930 . S
C1254 H1248 0.942 . S
C1254 C1255 1.347 1_565 S
C1254 C1256 1.412 1_565 S
C1255 C1254 1.347 1_545 S
C1255 C1257 1.419 . S
C1256 C1254 1.412 1_545 S
C1256 C1261 1.425 . S
C1256 C1263 1.409 1_545 S
C1257 H1249 0.930 . S
C1257 C1255 1.419 . S
C1257 C1258 1.362 . S
C1258 H1250 0.930 . S
C1258 C1257 1.362 . S
C1258 C1261 1.409 . S
C1259 H1251 0.930 . S
C1259 C1260 1.355 . S
C1259 C1261 1.415 . S
C1260 C1259 1.355 . S
C1260 C1262 1.419 1_545 S
C1261 C1256 1.425 . S
C1261 C1258 1.409 . S
C1261 C1259 1.415 . S
C1262 H1252 0.930 . S
C1262 C1260 1.419 1_565 S
C1262 C1263 1.362 . S
C1263 H1253 0.930 . S
C1263 C1256 1.409 1_565 S
C1263 C1262 1.362 . S
H1264 C1270 0.930 . S
H1265 C1273 0.930 . S
H1266 C1274 0.930 . S
H1267 C1275 0.930 . S
H1268 C1278 0.930 . S
H1269 C1279 0.930 . S
C1270 H1264 0.930 . S
C1270 C1271 1.355 . S
C1270 C1272 1.415 . S
C1271 C1270 1.355 . S
C1271 C1273 1.419 . S
C1272 C1270 1.415 . S
C1272 C1277 1.425 . S
C1272 C1279 1.409 . S
C1273 H1265 0.930 . S
C1273 C1271 1.419 . S
C1273 C1274 1.362 . S
C1274 H1266 0.930 . S
C1274 C1273 1.362 . S
C1274 C1277 1.409 . S
C1275 H1267 0.930 . S
C1275 C1276 1.355 . S
C1275 C1277 1.415 . S
C1276 C1275 1.355 . S
C1276 C1278 1.419 . S
C1277 C1272 1.425 . S
C1277 C1274 1.409 . S
C1277 C1275 1.415 . S
C1278 H1268 0.930 . S
C1278 C1276 1.419 . S
C1278 C1279 1.362 . S
C1279 H1269 0.930 . S
C1279 C1272 1.409 . S
C1279 C1278 1.362 . S
H1280 C1286 0.930 . S
H1281 C1289 0.930 . S
H1282 C1290 0.930 . S
H1283 C1291 0.930 . S
H1284 C1294 0.930 . S
H1285 C1295 0.930 . S
C1286 H1280 0.930 . S
C1286 C1287 1.355 . S
C1286 C1288 1.415 . S
C1287 C1286 1.355 . S
C1287 C1289 1.419 . S
C1288 C1286 1.415 . S
C1288 C1293 1.425 . S
C1288 C1295 1.409 . S
C1289 H1281 0.930 . S
C1289 C1287 1.419 . S
C1289 C1290 1.362 . S
C1290 H1282 0.930 . S
C1290 C1289 1.362 . S
C1290 C1293 1.409 . S
C1291 H1283 0.930 . S
C1291 C1292 1.355 . S
C1291 C1293 1.415 . S
C1292 C1291 1.355 . S
C1292 C1294 1.419 . S
C1293 C1288 1.425 . S
C1293 C1290 1.409 . S
C1293 C1291 1.415 . S
C1294 H1284 0.930 . S
C1294 C1292 1.419 . S
C1294 C1295 1.362 . S
C1295 H1285 0.930 . S
C1295 C1288 1.409 . S
C1295 C1294 1.362 . S
H1296 C1302 0.930 . S
H1297 C1305 0.930 . S
H1298 C1306 0.930 . S
H1299 C1307 0.930 . S
H1300 C1310 0.930 . S
H1301 C1311 0.930 . S
C1302 H1296 0.930 . S
C1302 C1303 1.355 . S
C1302 C1304 1.415 . S
C1303 C1302 1.355 . S
C1303 C1305 1.419 1_545 S
C1304 C1302 1.415 . S
C1304 C1309 1.425 1_545 S
C1304 C1311 1.409 . S
C1305 H1297 0.930 . S
C1305 C1303 1.419 1_565 S
C1305 C1306 1.362 . S
C1306 H1298 0.930 . S
C1306 C1305 1.362 . S
C1306 C1309 1.409 . S
C1307 H1299 0.930 . S
C1307 C1308 1.355 1_565 S
C1307 C1309 1.415 . S
C1308 C1307 1.355 1_545 S
C1308 C1310 1.419 . S
C1309 C1304 1.425 1_565 S
C1309 C1306 1.409 . S
C1309 C1307 1.415 . S
C1310 H1300 0.930 . S
C1310 C1308 1.419 . S
C1310 C1311 1.362 . S
C1311 H1301 0.930 . S
C1311 C1304 1.409 . S
C1311 C1310 1.362 . S
H1312 C1318 0.930 . S
H1313 C1321 0.930 . S
H1314 C1322 0.930 . S
H1315 C1323 0.930 . S
H1316 C1326 0.930 . S
H1317 C1327 0.930 . S
C1318 H1312 0.930 . S
C1318 C1319 1.355 . S
C1318 C1320 1.415 . S
C1319 C1318 1.355 . S
C1319 C1321 1.419 1_565 S
C1320 C1318 1.415 . S
C1320 C1325 1.404 1_565 S
C1320 C1327 1.409 . S
C1321 H1313 0.930 . S
C1321 C1319 1.419 1_545 S
C1321 C1322 1.362 . S
C1322 H1314 0.930 . S
C1322 C1321 1.362 . S
C1322 C1325 1.426 . S
C1323 H1315 0.930 . S
C1323 C1324 1.355 1_545 S
C1323 C1325 1.421 . S
C1324 C1323 1.355 1_565 S
C1324 C1326 1.419 . S
C1325 C1320 1.404 1_545 S
C1325 C1322 1.426 . S
C1325 C1323 1.421 . S
C1326 H1316 0.930 . S
C1326 C1324 1.419 . S
C1326 C1327 1.362 . S
C1327 H1317 0.930 . S
C1327 C1320 1.409 . S
C1327 C1326 1.362 . S
H1328 C1334 0.930 . S
H1329 C1337 0.930 . S
H1330 C1338 0.930 . S
H1331 C1339 0.930 . S
H1332 C1342 0.930 . S
H1333 C1343 0.930 . S
C1334 H1328 0.930 . S
C1334 C1335 1.355 . S
C1334 C1336 1.415 . S
C1335 C1334 1.355 . S
C1335 C1337 1.419 . S
C1336 C1334 1.415 . S
C1336 C1341 1.425 . S
C1336 C1343 1.409 . S
C1337 H1329 0.930 . S
C1337 C1335 1.419 . S
C1337 C1338 1.362 . S
C1338 H1330 0.930 . S
C1338 C1337 1.362 . S
C1338 C1341 1.409 . S
C1339 H1331 0.930 . S
C1339 C1340 1.355 . S
C1339 C1341 1.415 . S
C1340 C1339 1.355 . S
C1340 C1342 1.419 . S
C1341 C1336 1.425 . S
C1341 C1338 1.409 . S
C1341 C1339 1.415 . S
C1342 H1332 0.930 . S
C1342 C1340 1.419 . S
C1342 C1343 1.362 . S
C1343 H1333 0.930 . S
C1343 C1336 1.409 . S
C1343 C1342 1.362 . S
H1344 C1350 0.930 . S
H1345 C1353 0.930 . S
H1346 C1354 0.930 . S
H1347 C1355 0.930 . S
H1348 C1358 0.930 . S
H1349 C1359 0.930 . S
C1350 H1344 0.930 . S
C1350 C1351 1.355 . S
C1350 C1352 1.415 . S
C1351 C1350 1.355 . S
C1351 C1353 1.419 . S
C1352 C1350 1.415 . S
C1352 C1357 1.425 . S
C1352 C1359 1.409 . S
C1353 H1345 0.930 . S
C1353 C1351 1.419 . S
C1353 C1354 1.362 . S
C1354 H1346 0.930 . S
C1354 C1353 1.362 . S
C1354 C1357 1.409 . S
C1355 H1347 0.930 . S
C1355 C1356 1.355 . S
C1355 C1357 1.415 . S
C1356 C1355 1.355 . S
C1356 C1358 1.419 . S
C1357 C1352 1.425 . S
C1357 C1354 1.409 . S
C1357 C1355 1.415 . S
C1358 H1348 0.930 . S
C1358 C1356 1.419 . S
C1358 C1359 1.362 . S
C1359 H1349 0.930 . S
C1359 C1352 1.409 . S
C1359 C1358 1.362 . S
H1360 C1366 0.930 . S
H1361 C1369 0.930 . S
H1362 C1370 0.930 . S
H1363 C1371 0.930 . S
H1364 C1374 0.930 . S
H1365 C1375 0.930 . S
C1366 H1360 0.930 . S
C1366 C1367 1.355 1_545 S
C1366 C1368 1.415 . S
C1367 C1366 1.355 1_565 S
C1367 C1369 1.419 . S
C1368 C1366 1.415 . S
C1368 C1373 1.425 1_545 S
C1368 C1375 1.409 . S
C1369 H1361 0.930 . S
C1369 C1367 1.419 . S
C1369 C1370 1.362 . S
C1370 H1362 0.930 . S
C1370 C1369 1.362 . S
C1370 C1373 1.409 . S
C1371 H1363 0.930 . S
C1371 C1372 1.355 . S
C1371 C1373 1.415 . S
C1372 C1371 1.355 . S
C1372 C1374 1.419 1_565 S
C1373 C1368 1.425 1_565 S
C1373 C1370 1.409 . S
C1373 C1371 1.415 . S
C1374 H1364 0.930 . S
C1374 C1372 1.419 1_545 S
C1374 C1375 1.362 . S
C1375 H1365 0.930 . S
C1375 C1368 1.409 . S
C1375 C1374 1.362 . S
H1376 C1382 0.930 . S
H1377 C1385 0.930 . S
H1378 C1386 0.930 . S
H1379 C1387 0.930 . S
H1380 C1390 0.930 . S
H1381 C1391 0.930 . S
C1382 H1376 0.930 . S
C1382 C1383 1.355 . S
C1382 C1384 1.415 . S
C1383 C1382 1.355 . S
C1383 C1385 1.419 . S
C1384 C1382 1.415 . S
C1384 C1389 1.425 . S
C1384 C1391 1.409 . S
C1385 H1377 0.930 . S
C1385 C1383 1.419 . S
C1385 C1386 1.362 . S
C1386 H1378 0.930 . S
C1386 C1385 1.362 . S
C1386 C1389 1.409 . S
C1387 H1379 0.930 . S
C1387 C1388 1.355 . S
C1387 C1389 1.415 . S
C1388 C1387 1.355 . S
C1388 C1390 1.419 . S
C1389 C1384 1.425 . S
C1389 C1386 1.409 . S
C1389 C1387 1.415 . S
C1390 H1380 0.930 . S
C1390 C1388 1.419 . S
C1390 C1391 1.362 . S
C1391 H1381 0.930 . S
C1391 C1384 1.409 . S
C1391 C1390 1.362 . S
H1392 C1398 0.930 . S
H1393 C1401 0.930 . S
H1394 C1402 0.930 . S
H1395 C1403 0.930 . S
H1396 C1406 0.930 . S
H1397 C1407 0.930 . S
C1398 H1392 0.930 . S
C1398 C1399 1.355 . S
C1398 C1400 1.415 . S
C1399 C1398 1.355 . S
C1399 C1401 1.419 . S
C1400 C1398 1.415 . S
C1400 C1405 1.425 . S
C1400 C1407 1.409 . S
C1401 H1393 0.930 . S
C1401 C1399 1.419 . S
C1401 C1402 1.362 . S
C1402 H1394 0.930 . S
C1402 C1401 1.362 . S
C1402 C1405 1.409 . S
C1403 H1395 0.930 . S
C1403 C1404 1.355 . S
C1403 C1405 1.415 . S
C1404 C1403 1.355 . S
C1404 C1406 1.419 . S
C1405 C1400 1.425 . S
C1405 C1402 1.409 . S
C1405 C1403 1.415 . S
C1406 H1396 0.930 . S
C1406 C1404 1.419 . S
C1406 C1407 1.362 . S
C1407 H1397 0.930 . S
C1407 C1400 1.409 . S
C1407 C1406 1.362 . S
H1408 C1414 0.930 . S
H1409 C1417 0.930 . S
H1410 C1418 0.930 . S
H1411 C1419 0.930 . S
H1412 C1422 0.930 . S
H1413 C1423 0.930 . S
C1414 H1408 0.930 . S
C1414 C1415 1.355 . S
C1414 C1416 1.415 . S
C1415 C1414 1.355 . S
C1415 C1417 1.419 . S
C1416 C1414 1.415 . S
C1416 C1421 1.425 . S
C1416 C1423 1.409 . S
C1417 H1409 0.930 . S
C1417 C1415 1.419 . S
C1417 C1418 1.362 . S
C1418 H1410 0.930 . S
C1418 C1417 1.362 . S
C1418 C1421 1.409 . S
C1419 H1411 0.930 . S
C1419 C1420 1.355 . S
C1419 C1421 1.415 . S
C1420 C1419 1.355 . S
C1420 C1422 1.419 . S
C1421 C1416 1.425 . S
C1421 C1418 1.409 . S
C1421 C1419 1.415 . S
C1422 H1412 0.930 . S
C1422 C1420 1.419 . S
C1422 C1423 1.362 . S
C1423 H1413 0.930 . S
C1423 C1416 1.409 . S
C1423 C1422 1.362 . S
H1424 C1430 0.930 . S
H1425 C1433 0.930 . S
H1426 C1434 0.930 . S
H1427 C1435 0.930 . S
H1428 C1438 0.930 . S
H1429 C1439 0.930 . S
C1430 H1424 0.930 . S
C1430 C1431 1.355 . S
C1430 C1432 1.415 . S
C1431 C1430 1.355 . S
C1431 C1433 1.419 . S
C1432 C1430 1.415 . S
C1432 C1437 1.425 . S
C1432 C1439 1.409 . S
C1433 H1425 0.930 . S
C1433 C1431 1.419 . S
C1433 C1434 1.362 . S
C1434 H1426 0.930 . S
C1434 C1433 1.362 . S
C1434 C1437 1.409 . S
C1435 H1427 0.930 . S
C1435 C1436 1.355 . S
C1435 C1437 1.415 . S
C1436 C1435 1.355 . S
C1436 C1438 1.419 . S
C1437 C1432 1.425 . S
C1437 C1434 1.409 . S
C1437 C1435 1.415 . S
C1438 H1428 0.930 . S
C1438 C1436 1.419 . S
C1438 C1439 1.362 . S
C1439 H1429 0.930 . S
C1439 C1432 1.409 . S
C1439 C1438 1.362 . S
H1440 C1446 0.930 . S
H1441 C1449 0.930 . S
H1442 C1450 0.930 . S
H1443 C1451 0.930 . S
H1444 C1454 0.930 . S
H1445 C1455 0.930 . S
C1446 H1440 0.930 . S
C1446 C1447 1.355 . S
C1446 C1448 1.415 . S
C1447 C1446 1.355 . S
C1447 C1449 1.419 . S
C1448 C1446 1.415 . S
C1448 C1453 1.425 . S
C1448 C1455 1.409 . S
C1449 H1441 0.930 . S
C1449 C1447 1.419 . S
C1449 C1450 1.362 . S
C1450 H1442 0.930 . S
C1450 C1449 1.362 . S
C1450 C1453 1.409 . S
C1451 H1443 0.930 . S
C1451 C1452 1.355 . S
C1451 C1453 1.415 . S
C1452 C1451 1.355 . S
C1452 C1454 1.419 . S
C1453 C1448 1.425 . S
C1453 C1450 1.409 . S
C1453 C1451 1.415 . S
C1454 H1444 0.930 . S
C1454 C1452 1.419 . S
C1454 C1455 1.362 . S
C1455 H1445 0.930 . S
C1455 C1448 1.409 . S
C1455 C1454 1.362 . S
H1456 C1462 0.930 . S
H1457 C1465 0.930 . S
H1458 C1466 0.930 . S
H1459 C1467 0.930 . S
H1460 C1470 0.930 . S
H1461 C1471 0.930 . S
C1462 H1456 0.930 . S
C1462 C1463 1.355 . S
C1462 C1464 1.415 . S
C1463 C1462 1.355 . S
C1463 C1465 1.419 . S
C1464 C1462 1.415 . S
C1464 C1469 1.425 . S
C1464 C1471 1.409 . S
C1465 H1457 0.930 . S
C1465 C1463 1.419 . S
C1465 C1466 1.362 . S
C1466 H1458 0.930 . S
C1466 C1465 1.362 . S
C1466 C1469 1.409 . S
C1467 H1459 0.930 . S
C1467 C1468 1.355 . S
C1467 C1469 1.415 . S
C1468 C1467 1.355 . S
C1468 C1470 1.419 . S
C1469 C1464 1.425 . S
C1469 C1466 1.409 . S
C1469 C1467 1.415 . S
C1470 H1460 0.930 . S
C1470 C1468 1.419 . S
C1470 C1471 1.362 . S
C1471 H1461 0.930 . S
C1471 C1464 1.409 . S
C1471 C1470 1.362 . S
H1472 C1478 0.930 . S
H1473 C1481 0.930 . S
H1474 C1482 0.930 . S
H1475 C1483 0.930 . S
H1476 C1486 0.930 . S
H1477 C1487 0.930 . S
C1478 H1472 0.930 . S
C1478 C1479 1.355 . S
C1478 C1480 1.415 . S
C1479 C1478 1.355 . S
C1479 C1481 1.419 . S
C1480 C1478 1.415 . S
C1480 C1485 1.425 . S
C1480 C1487 1.409 . S
C1481 H1473 0.930 . S
C1481 C1479 1.419 . S
C1481 C1482 1.362 . S
C1482 H1474 0.930 . S
C1482 C1481 1.362 . S
C1482 C1485 1.409 . S
C1483 H1475 0.930 . S
C1483 C1484 1.355 . S
C1483 C1485 1.415 . S
C1484 C1483 1.355 . S
C1484 C1486 1.419 . S
C1485 C1480 1.425 . S
C1485 C1482 1.409 . S
C1485 C1483 1.415 . S
C1486 H1476 0.930 . S
C1486 C1484 1.419 . S
C1486 C1487 1.362 . S
C1487 H1477 0.930 . S
C1487 C1480 1.409 . S
C1487 C1486 1.362 . S
H1488 C1494 0.930 . S
H1489 C1497 0.930 . S
H1490 C1498 0.930 . S
H1491 C1499 0.930 . S
H1492 C1502 0.930 . S
H1493 C1503 0.930 . S
C1494 H1488 0.930 . S
C1494 C1495 1.355 . S
C1494 C1496 1.415 . S
C1495 C1494 1.355 . S
C1495 C1497 1.419 . S
C1496 C1494 1.415 . S
C1496 C1501 1.425 . S
C1496 C1503 1.409 . S
C1497 H1489 0.930 . S
C1497 C1495 1.419 . S
C1497 C1498 1.362 . S
C1498 H1490 0.930 . S
C1498 C1497 1.362 . S
C1498 C1501 1.409 . S
C1499 H1491 0.930 . S
C1499 C1500 1.355 . S
C1499 C1501 1.415 . S
C1500 C1499 1.355 . S
C1500 C1502 1.419 . S
C1501 C1496 1.425 . S
C1501 C1498 1.409 . S
C1501 C1499 1.415 . S
C1502 H1492 0.930 . S
C1502 C1500 1.419 . S
C1502 C1503 1.362 . S
C1503 H1493 0.930 . S
C1503 C1496 1.409 . S
C1503 C1502 1.362 . S
H1504 C1510 0.930 . S
H1505 C1513 0.930 . S
H1506 C1514 0.930 . S
H1507 C1515 0.930 . S
H1508 C1518 0.930 . S
H1509 C1519 0.930 . S
C1510 H1504 0.930 . S
C1510 C1511 1.355 . S
C1510 C1512 1.415 . S
C1511 C1510 1.355 . S
C1511 C1513 1.419 . S
C1512 C1510 1.415 . S
C1512 C1517 1.425 . S
C1512 C1519 1.409 . S
C1513 H1505 0.930 . S
C1513 C1511 1.419 . S
C1513 C1514 1.362 . S
C1514 H1506 0.930 . S
C1514 C1513 1.362 . S
C1514 C1517 1.409 . S
C1515 H1507 0.930 . S
C1515 C1516 1.355 . S
C1515 C1517 1.415 . S
C1516 C1515 1.355 . S
C1516 C1518 1.419 . S
C1517 C1512 1.425 . S
C1517 C1514 1.409 . S
C1517 C1515 1.415 . S
C1518 H1508 0.930 . S
C1518 C1516 1.419 . S
C1518 C1519 1.362 . S
C1519 H1509 0.930 . S
C1519 C1512 1.409 . S
C1519 C1518 1.362 . S
H1520 C1526 0.930 . S
H1521 C1529 0.930 . S
H1522 C1530 0.930 . S
H1523 C1531 0.930 . S
H1524 C1534 0.930 . S
H1525 C1535 0.930 . S
C1526 H1520 0.930 . S
C1526 C1527 1.355 . S
C1526 C1528 1.415 . S
C1527 C1526 1.355 . S
C1527 C1529 1.419 . S
C1528 C1526 1.415 . S
C1528 C1533 1.425 . S
C1528 C1535 1.409 . S
C1529 H1521 0.930 . S
C1529 C1527 1.419 . S
C1529 C1530 1.362 . S
C1530 H1522 0.930 . S
C1530 C1529 1.362 . S
C1530 C1533 1.409 . S
C1531 H1523 0.930 . S
C1531 C1532 1.355 . S
C1531 C1533 1.415 . S
C1532 C1531 1.355 . S
C1532 C1534 1.419 . S
C1533 C1528 1.425 . S
C1533 C1530 1.409 . S
C1533 C1531 1.415 . S
C1534 H1524 0.930 . S
C1534 C1532 1.419 . S
C1534 C1535 1.362 . S
C1535 H1525 0.930 . S
C1535 C1528 1.409 . S
C1535 C1534 1.362 . S
H1536 C1542 0.930 . S
H1537 C1545 0.930 . S
H1538 C1546 0.930 . S
H1539 C1547 0.930 . S
H1540 C1550 0.930 . S
H1541 C1551 0.930 . S
C1542 H1536 0.930 . S
C1542 C1543 1.355 . S
C1542 C1544 1.415 . S
C1543 C1542 1.355 . S
C1543 C1545 1.419 . S
C1544 C1542 1.415 . S
C1544 C1549 1.425 . S
C1544 C1551 1.409 . S
C1545 H1537 0.930 . S
C1545 C1543 1.419 . S
C1545 C1546 1.362 . S
C1546 H1538 0.930 . S
C1546 C1545 1.362 . S
C1546 C1549 1.409 . S
C1547 H1539 0.930 . S
C1547 C1548 1.355 . S
C1547 C1549 1.415 . S
C1548 C1547 1.355 . S
C1548 C1550 1.419 . S
C1549 C1544 1.425 . S
C1549 C1546 1.409 . S
C1549 C1547 1.415 . S
C1550 H1540 0.930 . S
C1550 C1548 1.419 . S
C1550 C1551 1.362 . S
C1551 H1541 0.930 . S
C1551 C1544 1.409 . S
C1551 C1550 1.362 . S
H1552 C1558 0.930 . S
H1553 C1561 0.930 . S
H1554 C1562 0.930 . S
H1555 C1563 0.930 . S
H1556 C1566 0.930 . S
H1557 C1567 0.930 . S
C1558 H1552 0.930 . S
C1558 C1559 1.355 . S
C1558 C1560 1.415 . S
C1559 C1558 1.355 . S
C1559 C1561 1.419 . S
C1560 C1558 1.415 . S
C1560 C1565 1.425 . S
C1560 C1567 1.409 . S
C1561 H1553 0.930 . S
C1561 C1559 1.419 . S
C1561 C1562 1.362 . S
C1562 H1554 0.930 . S
C1562 C1561 1.362 . S
C1562 C1565 1.409 . S
C1563 H1555 0.930 . S
C1563 C1564 1.355 . S
C1563 C1565 1.415 . S
C1564 C1563 1.355 . S
C1564 C1566 1.419 . S
C1565 C1560 1.425 . S
C1565 C1562 1.409 . S
C1565 C1563 1.415 . S
C1566 H1556 0.930 . S
C1566 C1564 1.419 . S
C1566 C1567 1.362 . S
C1567 H1557 0.930 . S
C1567 C1560 1.409 . S
C1567 C1566 1.362 . S
H1568 C1574 0.930 . S
H1569 C1577 0.930 . S
H1570 C1578 0.930 . S
H1571 C1579 0.930 . S
H1572 C1582 0.930 . S
H1573 C1583 0.930 . S
C1574 H1568 0.930 . S
C1574 C1575 1.355 . S
C1574 C1576 1.415 . S
C1575 C1574 1.355 . S
C1575 C1577 1.419 . S
C1576 C1574 1.415 . S
C1576 C1581 1.425 . S
C1576 C1583 1.409 . S
C1577 H1569 0.930 . S
C1577 C1575 1.419 . S
C1577 C1578 1.362 . S
C1578 H1570 0.930 . S
C1578 C1577 1.362 . S
C1578 C1581 1.409 . S
C1579 H1571 0.930 . S
C1579 C1580 1.355 . S
C1579 C1581 1.415 . S
C1580 C1579 1.355 . S
C1580 C1582 1.419 . S
C1581 C1576 1.425 . S
C1581 C1578 1.409 . S
C1581 C1579 1.415 . S
C1582 H1572 0.930 . S
C1582 C1580 1.419 . S
C1582 C1583 1.362 . S
C1583 H1573 0.930 . S
C1583 C1576 1.409 . S
C1583 C1582 1.362 . S
H1584 C1590 0.930 . S
H1585 C1593 0.930 . S
H1586 C1594 0.930 . S
H1587 C1595 0.930 . S
H1588 C1598 0.930 . S
H1589 C1599 0.930 . S
C1590 H1584 0.930 . S
C1590 C1591 1.355 . S
C1590 C1592 1.415 . S
C1591 C1590 1.355 . S
C1591 C1593 1.419 . S
C1592 C1590 1.415 . S
C1592 C1597 1.425 . S
C1592 C1599 1.409 . S
C1593 H1585 0.930 . S
C1593 C1591 1.419 . S
C1593 C1594 1.362 . S
C1594 H1586 0.930 . S
C1594 C1593 1.362 . S
C1594 C1597 1.409 . S
C1595 H1587 0.930 . S
C1595 C1596 1.355 . S
C1595 C1597 1.415 . S
C1596 C1595 1.355 . S
C1596 C1598 1.419 . S
C1597 C1592 1.425 . S
C1597 C1594 1.409 . S
C1597 C1595 1.415 . S
C1598 H1588 0.930 . S
C1598 C1596 1.419 . S
C1598 C1599 1.362 . S
C1599 H1589 0.930 . S
C1599 C1592 1.409 . S
C1599 C1598 1.362 . S
H1600 C1606 0.930 . S
H1601 C1609 0.930 . S
H1602 C1610 0.930 . S
H1603 C1611 0.930 . S
H1604 C1614 0.930 . S
H1605 C1615 0.930 . S
C1606 H1600 0.930 . S
C1606 C1607 1.355 . S
C1606 C1608 1.415 . S
C1607 C1606 1.355 . S
C1607 C1609 1.419 . S
C1608 C1606 1.415 . S
C1608 C1613 1.425 . S
C1608 C1615 1.409 . S
C1609 H1601 0.930 . S
C1609 C1607 1.419 . S
C1609 C1610 1.362 . S
C1610 H1602 0.930 . S
C1610 C1609 1.362 . S
C1610 C1613 1.409 . S
C1611 H1603 0.930 . S
C1611 C1612 1.355 . S
C1611 C1613 1.415 . S
C1612 C1611 1.355 . S
C1612 C1614 1.419 . S
C1613 C1608 1.425 . S
C1613 C1610 1.409 . S
C1613 C1611 1.415 . S
C1614 H1604 0.930 . S
C1614 C1612 1.419 . S
C1614 C1615 1.362 . S
C1615 H1605 0.930 . S
C1615 C1608 1.409 . S
C1615 C1614 1.362 . S
H1616 C1622 0.930 . S
H1617 C1625 0.930 . S
H1618 C1626 0.930 . S
H1619 C1627 0.930 . S
H1620 C1630 0.930 . S
H1621 C1631 0.930 . S
C1622 H1616 0.930 . S
C1622 C1623 1.355 . S
C1622 C1624 1.415 . S
C1623 C1622 1.355 . S
C1623 C1625 1.419 . S
C1624 C1622 1.415 . S
C1624 C1629 1.425 . S
C1624 C1631 1.409 . S
C1625 H1617 0.930 . S
C1625 C1623 1.419 . S
C1625 C1626 1.362 . S
C1626 H1618 0.930 . S
C1626 C1625 1.362 . S
C1626 C1629 1.409 . S
C1627 H1619 0.930 . S
C1627 C1628 1.355 . S
C1627 C1629 1.415 . S
C1628 C1627 1.355 . S
C1628 C1630 1.419 . S
C1629 C1624 1.425 . S
C1629 C1626 1.409 . S
C1629 C1627 1.415 . S
C1630 H1620 0.930 . S
C1630 C1628 1.419 . S
C1630 C1631 1.362 . S
C1631 H1621 0.930 . S
C1631 C1624 1.409 . S
C1631 C1630 1.362 . S
H1632 C1638 0.930 . S
H1633 C1641 0.930 . S
H1634 C1642 0.930 . S
H1635 C1643 0.930 . S
H1636 C1646 0.930 . S
H1637 C1647 0.930 . S
C1638 H1632 0.930 . S
C1638 C1639 1.355 . S
C1638 C1640 1.415 . S
C1639 C1638 1.355 . S
C1639 C1641 1.419 . S
C1640 C1638 1.415 . S
C1640 C1645 1.425 . S
C1640 C1647 1.409 . S
C1641 H1633 0.930 . S
C1641 C1639 1.419 . S
C1641 C1642 1.362 . S
C1642 H1634 0.930 . S
C1642 C1641 1.362 . S
C1642 C1645 1.409 . S
C1643 H1635 0.930 . S
C1643 C1644 1.355 . S
C1643 C1645 1.415 . S
C1644 C1643 1.355 . S
C1644 C1646 1.419 . S
C1645 C1640 1.425 . S
C1645 C1642 1.409 . S
C1645 C1643 1.415 . S
C1646 H1636 0.930 . S
C1646 C1644 1.419 . S
C1646 C1647 1.362 . S
C1647 H1637 0.930 . S
C1647 C1640 1.409 . S
C1647 C1646 1.362 . S
H1648 C1654 0.930 . S
H1649 C1657 0.930 . S
H1650 C1658 0.930 . S
H1651 C1659 0.930 . S
H1652 C1662 0.930 . S
H1653 C1663 0.930 . S
C1654 H1648 0.930 . S
C1654 C1655 1.355 . S
C1654 C1656 1.415 . S
C1655 C1654 1.355 . S
C1655 C1657 1.419 . S
C1656 C1654 1.415 . S
C1656 C1661 1.425 . S
C1656 C1663 1.409 . S
C1657 H1649 0.930 . S
C1657 C1655 1.419 . S
C1657 C1658 1.362 . S
C1658 H1650 0.930 . S
C1658 C1657 1.362 . S
C1658 C1661 1.409 . S
C1659 H1651 0.930 . S
C1659 C1660 1.355 . S
C1659 C1661 1.415 . S
C1660 C1659 1.355 . S
C1660 C1662 1.419 . S
C1661 C1656 1.425 . S
C1661 C1658 1.409 . S
C1661 C1659 1.415 . S
C1662 H1652 0.930 . S
C1662 C1660 1.419 . S
C1662 C1663 1.362 . S
C1663 H1653 0.930 . S
C1663 C1656 1.409 . S
C1663 C1662 1.362 . S
H1664 C1670 0.930 . S
H1665 C1673 0.930 . S
H1666 C1674 0.930 . S
H1667 C1675 0.930 . S
H1668 C1678 0.930 . S
H1669 C1679 0.930 . S
C1670 H1664 0.930 . S
C1670 C1671 1.355 . S
C1670 C1672 1.415 . S
C1671 C1670 1.355 . S
C1671 C1673 1.419 . S
C1672 C1670 1.415 . S
C1672 C1677 1.425 . S
C1672 C1679 1.409 . S
C1673 H1665 0.930 . S
C1673 C1671 1.419 . S
C1673 C1674 1.362 . S
C1674 H1666 0.930 . S
C1674 C1673 1.362 . S
C1674 C1677 1.409 . S
C1675 H1667 0.930 . S
C1675 C1676 1.355 . S
C1675 C1677 1.415 . S
C1676 C1675 1.355 . S
C1676 C1678 1.419 . S
C1677 C1672 1.425 . S
C1677 C1674 1.409 . S
C1677 C1675 1.415 . S
C1678 H1668 0.930 . S
C1678 C1676 1.419 . S
C1678 C1679 1.362 . S
C1679 H1669 0.930 . S
C1679 C1672 1.409 . S
C1679 C1678 1.362 . S
H1680 C1686 0.930 . S
H1681 C1689 0.930 . S
H1682 C1690 0.930 . S
H1683 C1691 0.930 . S
H1684 C1694 0.930 . S
H1685 C1695 0.930 . S
C1686 H1680 0.930 . S
C1686 C1687 1.355 . S
C1686 C1688 1.415 . S
C1687 C1686 1.355 . S
C1687 C1689 1.419 . S
C1688 C1686 1.415 . S
C1688 C1693 1.425 . S
C1688 C1695 1.409 . S
C1689 H1681 0.930 . S
C1689 C1687 1.419 . S
C1689 C1690 1.362 . S
C1690 H1682 0.930 . S
C1690 C1689 1.362 . S
C1690 C1693 1.409 . S
C1691 H1683 0.930 . S
C1691 C1692 1.355 . S
C1691 C1693 1.415 . S
C1692 C1691 1.355 . S
C1692 C1694 1.419 . S
C1693 C1688 1.425 . S
C1693 C1690 1.409 . S
C1693 C1691 1.415 . S
C1694 H1684 0.930 . S
C1694 C1692 1.419 . S
C1694 C1695 1.362 . S
C1695 H1685 0.930 . S
C1695 C1688 1.409 . S
C1695 C1694 1.362 . S
H1696 C1702 0.930 . S
H1697 C1705 0.930 . S
H1698 C1706 0.930 . S
H1699 C1707 0.930 . S
H1700 C1710 0.930 . S
H1701 C1711 0.930 . S
C1702 H1696 0.930 . S
C1702 C1703 1.355 . S
C1702 C1704 1.415 . S
C1703 C1702 1.355 . S
C1703 C1705 1.419 . S
C1704 C1702 1.415 . S
C1704 C1709 1.425 . S
C1704 C1711 1.409 . S
C1705 H1697 0.930 . S
C1705 C1703 1.419 . S
C1705 C1706 1.362 . S
C1706 H1698 0.930 . S
C1706 C1705 1.362 . S
C1706 C1709 1.409 . S
C1707 H1699 0.930 . S
C1707 C1708 1.355 . S
C1707 C1709 1.415 . S
C1708 C1707 1.355 . S
C1708 C1710 1.419 . S
C1709 C1704 1.425 . S
C1709 C1706 1.409 . S
C1709 C1707 1.415 . S
C1710 H1700 0.930 . S
C1710 C1708 1.419 . S
C1710 C1711 1.362 . S
C1711 H1701 0.930 . S
C1711 C1704 1.409 . S
C1711 C1710 1.362 . S
H1712 C1718 0.930 . S
H1713 C1721 0.930 . S
H1714 C1722 0.930 . S
H1715 C1723 0.930 . S
H1716 C1726 0.930 . S
H1717 C1727 0.930 . S
C1718 H1712 0.930 . S
C1718 C1719 1.355 . S
C1718 C1720 1.415 . S
C1719 C1718 1.355 . S
C1719 C1721 1.419 . S
C1720 C1718 1.415 . S
C1720 C1725 1.425 . S
C1720 C1727 1.409 . S
C1721 H1713 0.930 . S
C1721 C1719 1.419 . S
C1721 C1722 1.362 . S
C1722 H1714 0.930 . S
C1722 C1721 1.362 . S
C1722 C1725 1.409 . S
C1723 H1715 0.930 . S
C1723 C1724 1.355 . S
C1723 C1725 1.415 . S
C1724 C1723 1.355 . S
C1724 C1726 1.419 . S
C1725 C1720 1.425 . S
C1725 C1722 1.409 . S
C1725 C1723 1.415 . S
C1726 H1716 0.930 . S
C1726 C1724 1.419 . S
C1726 C1727 1.362 . S
C1727 H1717 0.930 . S
C1727 C1720 1.409 . S
C1727 C1726 1.362 . S
H1728 C1734 0.930 . S
H1729 C1737 0.930 . S
H1730 C1738 0.930 . S
H1731 C1739 0.930 . S
H1732 C1742 0.930 . S
H1733 C1743 0.930 . S
C1734 H1728 0.930 . S
C1734 C1735 1.355 . S
C1734 C1736 1.415 . S
C1735 C1734 1.355 . S
C1735 C1737 1.419 . S
C1736 C1734 1.415 . S
C1736 C1741 1.425 . S
C1736 C1743 1.409 . S
C1737 H1729 0.930 . S
C1737 C1735 1.419 . S
C1737 C1738 1.362 . S
C1738 H1730 0.930 . S
C1738 C1737 1.362 . S
C1738 C1741 1.409 . S
C1739 H1731 0.930 . S
C1739 C1740 1.355 . S
C1739 C1741 1.415 . S
C1740 C1739 1.355 . S
C1740 C1742 1.419 . S
C1741 C1736 1.425 . S
C1741 C1738 1.409 . S
C1741 C1739 1.415 . S
C1742 H1732 0.930 . S
C1742 C1740 1.419 . S
C1742 C1743 1.362 . S
C1743 H1733 0.930 . S
C1743 C1736 1.409 . S
C1743 C1742 1.362 . S
H1744 C1750 0.930 . S
H1745 C1753 0.930 . S
H1746 C1754 0.930 . S
H1747 C1755 0.930 . S
H1748 C1758 0.930 . S
H1749 C1759 0.930 . S
C1750 H1744 0.930 . S
C1750 C1751 1.355 . S
C1750 C1752 1.415 . S
C1751 C1750 1.355 . S
C1751 C1753 1.419 . S
C1752 C1750 1.415 . S
C1752 C1757 1.425 . S
C1752 C1759 1.409 . S
C1753 H1745 0.930 . S
C1753 C1751 1.419 . S
C1753 C1754 1.362 . S
C1754 H1746 0.930 . S
C1754 C1753 1.362 . S
C1754 C1757 1.409 . S
C1755 H1747 0.930 . S
C1755 C1756 1.355 . S
C1755 C1757 1.415 . S
C1756 C1755 1.355 . S
C1756 C1758 1.419 . S
C1757 C1752 1.425 . S
C1757 C1754 1.409 . S
C1757 C1755 1.415 . S
C1758 H1748 0.930 . S
C1758 C1756 1.419 . S
C1758 C1759 1.362 . S
C1759 H1749 0.930 . S
C1759 C1752 1.409 . S
C1759 C1758 1.362 . S
H1760 C1766 0.927 1_545 S
H1761 C1769 0.930 . S
H1762 C1770 0.930 . S
H1763 C1771 0.930 . S
H1764 C1774 0.930 . S
H1765 C1775 0.930 . S
C1766 H1760 0.927 1_565 S
C1766 C1767 1.354 1_556 S
C1766 C1768 1.416 . S
C1767 C1766 1.354 1_554 S
C1767 C1769 1.422 . S
C1768 C1766 1.416 . S
C1768 C1773 1.425 . S
C1768 C1775 1.409 . S
C1769 H1761 0.930 . S
C1769 C1767 1.422 . S
C1769 C1770 1.362 . S
C1770 H1762 0.930 . S
C1770 C1769 1.362 . S
C1770 C1773 1.409 1_554 S
C1771 H1763 0.930 . S
C1771 C1772 1.355 . S
C1771 C1773 1.415 . S
C1772 C1771 1.355 . S
C1772 C1774 1.419 . S
C1773 C1768 1.425 . S
C1773 C1770 1.409 1_556 S
C1773 C1771 1.415 . S
C1774 H1764 0.930 . S
C1774 C1772 1.419 . S
C1774 C1775 1.362 . S
C1775 H1765 0.930 . S
C1775 C1768 1.409 . S
C1775 C1774 1.362 . S
H1776 C1782 0.930 . S
H1777 C1785 0.930 . S
H1778 C1786 0.930 . S
H1779 C1787 0.916 1_655 S
H1780 C1790 0.930 . S
H1781 C1791 0.930 . S
C1782 H1776 0.930 . S
C1782 C1783 1.355 . S
C1782 C1784 1.415 . S
C1783 C1782 1.355 . S
C1783 C1785 1.419 . S
C1784 C1782 1.415 . S
C1784 C1789 1.425 . S
C1784 C1791 1.409 1_556 S
C1785 H1777 0.930 . S
C1785 C1783 1.419 . S
C1785 C1786 1.362 . S
C1786 H1778 0.930 . S
C1786 C1785 1.362 . S
C1786 C1789 1.409 . S
C1787 H1779 0.916 1_455 S
C1787 C1788 1.352 1_456 S
C1787 C1789 1.431 . S
C1788 C1787 1.352 1_654 S
C1788 C1790 1.419 1_655 S
C1789 C1784 1.425 . S
C1789 C1786 1.409 . S
C1789 C1787 1.431 . S
C1790 H1780 0.930 . S
C1790 C1788 1.419 1_455 S
C1790 C1791 1.362 . S
C1791 H1781 0.930 . S
C1791 C1784 1.409 1_554 S
C1791 C1790 1.362 . S
H1792 C1798 0.930 . S
H1793 C1801 0.930 . S
H1794 C1802 0.930 . S
H1795 C1803 0.930 . S
H1796 C1806 0.930 . S
H1797 C1807 0.930 . S
C1798 H1792 0.930 . S
C1798 C1799 1.355 . S
C1798 C1800 1.415 . S
C1799 C1798 1.355 . S
C1799 C1801 1.419 . S
C1800 C1798 1.415 . S
C1800 C1805 1.425 . S
C1800 C1807 1.409 . S
C1801 H1793 0.930 . S
C1801 C1799 1.419 . S
C1801 C1802 1.362 . S
C1802 H1794 0.930 . S
C1802 C1801 1.362 . S
C1802 C1805 1.409 . S
C1803 H1795 0.930 . S
C1803 C1804 1.355 . S
C1803 C1805 1.415 . S
C1804 C1803 1.355 . S
C1804 C1806 1.419 . S
C1805 C1800 1.425 . S
C1805 C1802 1.409 . S
C1805 C1803 1.415 . S
C1806 H1796 0.930 . S
C1806 C1804 1.419 . S
C1806 C1807 1.362 . S
C1807 H1797 0.930 . S
C1807 C1800 1.409 . S
C1807 C1806 1.362 . S
H1808 C1814 0.930 . S
H1809 C1817 0.930 . S
H1810 C1818 0.930 . S
H1811 C1819 0.930 . S
H1812 C1822 0.930 . S
H1813 C1823 0.930 . S
C1814 H1808 0.930 . S
C1814 C1815 1.355 1_445 S
C1814 C1816 1.415 . S
C1815 C1814 1.355 1_665 S
C1815 C1817 1.419 . S
C1816 C1814 1.415 . S
C1816 C1821 1.425 1_545 S
C1816 C1823 1.409 . S
C1817 H1809 0.930 . S
C1817 C1815 1.419 . S
C1817 C1818 1.362 1_655 S
C1818 H1810 0.930 . S
C1818 C1817 1.362 1_455 S
C1818 C1821 1.409 . S
C1819 H1811 0.930 . S
C1819 C1820 1.370 . S
C1819 C1821 1.415 . S
C1820 C1819 1.370 . S
C1820 C1822 1.401 1_565 S
C1821 C1816 1.425 1_565 S
C1821 C1818 1.409 . S
C1821 C1819 1.415 . S
C1822 H1812 0.930 . S
C1822 C1820 1.401 1_545 S
C1822 C1823 1.362 . S
C1823 H1813 0.930 . S
C1823 C1816 1.409 . S
C1823 C1822 1.362 . S
H1824 C1830 0.930 . S
H1825 C1833 0.930 . S
H1826 C1834 0.930 . S
H1827 C1835 0.931 . S
H1828 C1838 0.930 . S
H1829 C1839 0.931 . S
C1830 H1824 0.930 . S
C1830 C1831 1.355 . S
C1830 C1832 1.415 . S
C1831 C1830 1.355 . S
C1831 C1833 1.419 . S
C1832 C1830 1.415 . S
C1832 C1837 1.425 . S
C1832 C1839 1.409 1_554 S
C1833 H1825 0.930 . S
C1833 C1831 1.419 . S
C1833 C1834 1.362 . S
C1834 H1826 0.930 . S
C1834 C1833 1.362 . S
C1834 C1837 1.409 . S
C1835 H1827 0.931 . S
C1835 C1836 1.356 1_554 S
C1835 C1837 1.415 . S
C1836 C1835 1.356 1_556 S
C1836 C1838 1.419 . S
C1837 C1832 1.425 . S
C1837 C1834 1.409 . S
C1837 C1835 1.415 . S
C1838 H1828 0.930 . S
C1838 C1836 1.419 . S
C1838 C1839 1.363 . S
C1839 H1829 0.931 . S
C1839 C1832 1.409 1_556 S
C1839 C1838 1.363 . S
H1840 C1846 0.930 . S
H1841 C1849 0.930 . S
H1842 C1850 0.930 . S
H1843 C1851 0.930 . S
H1844 C1854 0.930 . S
H1845 C1855 0.930 1_556 S
C1846 H1840 0.930 . S
C1846 C1847 1.355 1_655 S
C1846 C1848 1.415 1_556 S
C1847 C1846 1.355 1_455 S
C1847 C1849 1.419 1_556 S
C1848 C1846 1.415 1_554 S
C1848 C1853 1.425 . S
C1848 C1855 1.409 . S
C1849 H1841 0.930 . S
C1849 C1847 1.419 1_554 S
C1849 C1850 1.362 1_455 S
C1850 H1842 0.930 . S
C1850 C1849 1.362 1_655 S
C1850 C1853 1.409 . S
C1851 H1843 0.930 . S
C1851 C1852 1.355 . S
C1851 C1853 1.415 . S
C1852 C1851 1.355 . S
C1852 C1854 1.419 . S
C1853 C1848 1.425 . S
C1853 C1850 1.409 . S
C1853 C1851 1.415 . S
C1854 H1844 0.930 . S
C1854 C1852 1.419 . S
C1854 C1855 1.362 . S
C1855 H1845 0.930 1_554 S
C1855 C1848 1.409 . S
C1855 C1854 1.362 . S
H1856 C1862 0.930 . S
H1857 C1865 0.930 . S
H1858 C1866 0.930 . S
H1859 C1867 0.930 . S
H1860 C1870 0.930 . S
H1861 C1871 0.930 . S
C1862 H1856 0.930 . S
C1862 C1863 1.355 . S
C1862 C1864 1.415 . S
C1863 C1862 1.355 . S
C1863 C1865 1.419 . S
C1864 C1862 1.415 . S
C1864 C1869 1.425 . S
C1864 C1871 1.409 . S
C1865 H1857 0.930 . S
C1865 C1863 1.419 . S
C1865 C1866 1.362 . S
C1866 H1858 0.930 . S
C1866 C1865 1.362 . S
C1866 C1869 1.409 . S
C1867 H1859 0.930 . S
C1867 C1868 1.355 . S
C1867 C1869 1.415 . S
C1868 C1867 1.355 . S
C1868 C1870 1.419 . S
C1869 C1864 1.425 . S
C1869 C1866 1.409 . S
C1869 C1867 1.415 . S
C1870 H1860 0.930 . S
C1870 C1868 1.419 . S
C1870 C1871 1.362 . S
C1871 H1861 0.930 . S
C1871 C1864 1.409 . S
C1871 C1870 1.362 . S
H1872 C1878 0.930 . S
H1873 C1881 0.929 . S
H1874 C1882 0.930 1_565 S
H1875 C1883 0.930 . S
H1876 C1886 0.930 . S
H1877 C1887 0.931 1_455 S
C1878 H1872 0.930 . S
C1878 C1879 1.355 . S
C1878 C1880 1.415 . S
C1879 C1878 1.355 . S
C1879 C1881 1.421 . S
C1880 C1878 1.415 . S
C1880 C1885 1.425 . S
C1880 C1887 1.409 . S
C1881 H1873 0.929 . S
C1881 C1879 1.421 . S
C1881 C1882 1.362 . S
C1882 H1874 0.930 1_545 S
C1882 C1881 1.362 . S
C1882 C1885 1.409 . S
C1883 H1875 0.930 . S
C1883 C1884 1.355 1_655 S
C1883 C1885 1.415 . S
C1884 C1883 1.355 1_455 S
C1884 C1886 1.419 . S
C1885 C1880 1.425 . S
C1885 C1882 1.409 . S
C1885 C1883 1.415 . S
C1886 H1876 0.930 . S
C1886 C1884 1.419 . S
C1886 C1887 1.362 1_455 S
C1887 H1877 0.931 1_655 S
C1887 C1880 1.409 . S
C1887 C1886 1.362 1_655 S
H1888 C1894 0.930 . S
H1889 C1897 0.930 . S
H1890 C1898 0.930 . S
H1891 C1899 0.930 . S
H1892 C1902 0.930 . S
H1893 C1903 0.930 . S
C1894 H1888 0.930 . S
C1894 C1895 1.355 . S
C1894 C1896 1.415 . S
C1895 C1894 1.355 . S
C1895 C1897 1.419 . S
C1896 C1894 1.415 . S
C1896 C1901 1.425 . S
C1896 C1903 1.409 . S
C1897 H1889 0.930 . S
C1897 C1895 1.419 . S
C1897 C1898 1.362 . S
C1898 H1890 0.930 . S
C1898 C1897 1.362 . S
C1898 C1901 1.409 . S
C1899 H1891 0.930 . S
C1899 C1900 1.355 . S
C1899 C1901 1.415 . S
C1900 C1899 1.355 . S
C1900 C1902 1.419 . S
C1901 C1896 1.425 . S
C1901 C1898 1.409 . S
C1901 C1899 1.415 . S
C1902 H1892 0.930 . S
C1902 C1900 1.419 . S
C1902 C1903 1.362 . S
C1903 H1893 0.930 . S
C1903 C1896 1.409 . S
C1903 C1902 1.362 . S
H1904 C1910 0.930 . S
H1905 C1913 0.930 . S
H1906 C1914 0.930 . S
H1907 C1915 0.930 . S
H1908 C1918 0.930 . S
H1909 C1919 0.930 . S
C1910 H1904 0.930 . S
C1910 C1911 1.355 . S
C1910 C1912 1.415 . S
C1911 C1910 1.355 . S
C1911 C1913 1.419 . S
C1912 C1910 1.415 . S
C1912 C1917 1.425 . S
C1912 C1919 1.409 . S
C1913 H1905 0.930 . S
C1913 C1911 1.419 . S
C1913 C1914 1.362 . S
C1914 H1906 0.930 . S
C1914 C1913 1.362 . S
C1914 C1917 1.409 . S
C1915 H1907 0.930 . S
C1915 C1916 1.355 1_455 S
C1915 C1917 1.415 . S
C1916 C1915 1.355 1_655 S
C1916 C1918 1.419 . S
C1917 C1912 1.425 . S
C1917 C1914 1.409 . S
C1917 C1915 1.415 . S
C1918 H1908 0.930 . S
C1918 C1916 1.419 . S
C1918 C1919 1.362 1_655 S
C1919 H1909 0.930 . S
C1919 C1912 1.409 . S
C1919 C1918 1.362 1_455 S
H1920 C1926 0.930 . S
H1921 C1929 0.930 . S
H1922 C1930 0.930 . S
H1923 C1931 0.930 . S
H1924 C1934 0.930 . S
H1925 C1935 0.930 . S
C1926 H1920 0.930 . S
C1926 C1927 1.355 . S
C1926 C1928 1.415 . S
C1927 C1926 1.355 . S
C1927 C1929 1.419 . S
C1928 C1926 1.415 . S
C1928 C1933 1.425 . S
C1928 C1935 1.409 . S
C1929 H1921 0.930 . S
C1929 C1927 1.419 . S
C1929 C1930 1.362 . S
C1930 H1922 0.930 . S
C1930 C1929 1.362 . S
C1930 C1933 1.409 . S
C1931 H1923 0.930 . S
C1931 C1932 1.355 . S
C1931 C1933 1.415 . S
C1932 C1931 1.355 . S
C1932 C1934 1.419 . S
C1933 C1928 1.425 . S
C1933 C1930 1.409 . S
C1933 C1931 1.415 . S
C1934 H1924 0.930 . S
C1934 C1932 1.419 . S
C1934 C1935 1.362 . S
C1935 H1925 0.930 . S
C1935 C1928 1.409 . S
C1935 C1934 1.362 . S
H1936 C1942 0.930 . S
H1937 C1945 0.930 . S
H1938 C1946 0.930 . S
H1939 C1947 0.930 . S
H1940 C1950 0.930 . S
H1941 C1951 0.930 . S
C1942 H1936 0.930 . S
C1942 C1943 1.355 . S
C1942 C1944 1.415 . S
C1943 C1942 1.355 . S
C1943 C1945 1.419 . S
C1944 C1942 1.415 . S
C1944 C1949 1.425 . S
C1944 C1951 1.409 . S
C1945 H1937 0.930 . S
C1945 C1943 1.419 . S
C1945 C1946 1.362 . S
C1946 H1938 0.930 . S
C1946 C1945 1.362 . S
C1946 C1949 1.409 . S
C1947 H1939 0.930 . S
C1947 C1948 1.355 1_455 S
C1947 C1949 1.415 . S
C1948 C1947 1.355 1_655 S
C1948 C1950 1.419 . S
C1949 C1944 1.425 . S
C1949 C1946 1.409 . S
C1949 C1947 1.415 . S
C1950 H1940 0.930 . S
C1950 C1948 1.419 . S
C1950 C1951 1.362 1_655 S
C1951 H1941 0.930 . S
C1951 C1944 1.409 . S
C1951 C1950 1.362 1_455 S
H1952 C1958 0.930 . S
H1953 C1961 0.930 . S
H1954 C1962 0.930 . S
H1955 C1963 0.930 . S
H1956 C1966 0.930 . S
H1957 C1967 0.930 . S
C1958 H1952 0.930 . S
C1958 C1959 1.355 . S
C1958 C1960 1.415 . S
C1959 C1958 1.355 . S
C1959 C1961 1.419 . S
C1960 C1958 1.415 . S
C1960 C1965 1.425 . S
C1960 C1967 1.409 . S
C1961 H1953 0.930 . S
C1961 C1959 1.419 . S
C1961 C1962 1.362 . S
C1962 H1954 0.930 . S
C1962 C1961 1.362 . S
C1962 C1965 1.409 . S
C1963 H1955 0.930 . S
C1963 C1964 1.355 . S
C1963 C1965 1.415 . S
C1964 C1963 1.355 . S
C1964 C1966 1.419 . S
C1965 C1960 1.425 . S
C1965 C1962 1.409 . S
C1965 C1963 1.415 . S
C1966 H1956 0.930 . S
C1966 C1964 1.419 . S
C1966 C1967 1.362 . S
C1967 H1957 0.930 . S
C1967 C1960 1.409 . S
C1967 C1966 1.362 . S
H1968 C1974 0.940 . S
H1969 C1977 0.930 . S
H1970 C1978 0.930 . S
H1971 C1979 0.930 . S
H1972 C1982 0.930 . S
H1973 C1983 0.930 . S
C1974 H1968 0.940 . S
C1974 C1975 1.357 . S
C1974 C1976 1.402 1_455 S
C1975 C1974 1.357 . S
C1975 C1977 1.419 1_455 S
C1976 C1974 1.402 1_655 S
C1976 C1981 1.425 . S
C1976 C1983 1.409 . S
C1977 H1969 0.930 . S
C1977 C1975 1.419 1_655 S
C1977 C1978 1.362 . S
C1978 H1970 0.930 . S
C1978 C1977 1.362 . S
C1978 C1981 1.409 . S
C1979 H1971 0.930 . S
C1979 C1980 1.355 . S
C1979 C1981 1.415 . S
C1980 C1979 1.355 . S
C1980 C1982 1.419 . S
C1981 C1976 1.425 . S
C1981 C1978 1.409 . S
C1981 C1979 1.415 . S
C1982 H1972 0.930 . S
C1982 C1980 1.419 . S
C1982 C1983 1.362 . S
C1983 H1973 0.930 . S
C1983 C1976 1.409 . S
C1983 C1982 1.362 . S
H1984 C1990 0.930 . S
H1985 C1993 0.930 . S
H1986 C1994 0.930 . S
H1987 C1995 0.930 . S
H1988 C1998 0.930 . S
H1989 C1999 0.930 . S
C1990 H1984 0.930 . S
C1990 C1991 1.355 . S
C1990 C1992 1.415 . S
C1991 C1990 1.355 . S
C1991 C1993 1.419 . S
C1992 C1990 1.415 . S
C1992 C1997 1.425 . S
C1992 C1999 1.409 . S
C1993 H1985 0.930 . S
C1993 C1991 1.419 . S
C1993 C1994 1.362 . S
C1994 H1986 0.930 . S
C1994 C1993 1.362 . S
C1994 C1997 1.409 . S
C1995 H1987 0.930 . S
C1995 C1996 1.355 . S
C1995 C1997 1.415 . S
C1996 C1995 1.355 . S
C1996 C1998 1.419 . S
C1997 C1992 1.425 . S
C1997 C1994 1.409 . S
C1997 C1995 1.415 . S
C1998 H1988 0.930 . S
C1998 C1996 1.419 . S
C1998 C1999 1.362 . S
C1999 H1989 0.930 . S
C1999 C1992 1.409 . S
C1999 C1998 1.362 . S
H2000 C2006 0.930 . S
H2001 C2009 0.930 . S
H2002 C2010 0.930 . S
H2003 C2011 0.930 . S
H2004 C2014 0.930 1_455 S
H2005 C2015 0.930 . S
C2006 H2000 0.930 . S
C2006 C2007 1.355 . S
C2006 C2008 1.415 . S
C2007 C2006 1.355 . S
C2007 C2009 1.419 . S
C2008 C2006 1.415 . S
C2008 C2013 1.425 . S
C2008 C2015 1.409 . S
C2009 H2001 0.930 . S
C2009 C2007 1.419 . S
C2009 C2010 1.362 . S
C2010 H2002 0.930 . S
C2010 C2009 1.362 . S
C2010 C2013 1.409 . S
C2011 H2003 0.930 . S
C2011 C2012 1.355 1_655 S
C2011 C2013 1.415 . S
C2012 C2011 1.355 1_455 S
C2012 C2014 1.419 1_455 S
C2013 C2008 1.425 . S
C2013 C2010 1.409 . S
C2013 C2011 1.415 . S
C2014 H2004 0.930 1_655 S
C2014 C2012 1.419 1_655 S
C2014 C2015 1.362 . S
C2015 H2005 0.930 . S
C2015 C2008 1.409 . S
C2015 C2014 1.362 . S
H2016 C2022 0.930 . S
H2017 C2025 0.930 . S
H2018 C2026 0.930 . S
H2019 C2027 0.930 . S
H2020 C2030 0.930 . S
H2021 C2031 0.928 1_545 S
C2022 H2016 0.930 . S
C2022 C2023 1.355 . S
C2022 C2024 1.415 . S
C2023 C2022 1.355 . S
C2023 C2025 1.419 . S
C2024 C2022 1.415 . S
C2024 C2029 1.425 . S
C2024 C2031 1.410 . S
C2025 H2017 0.930 . S
C2025 C2023 1.419 . S
C2025 C2026 1.362 . S
C2026 H2018 0.930 . S
C2026 C2025 1.362 . S
C2026 C2029 1.409 . S
C2027 H2019 0.930 . S
C2027 C2028 1.355 . S
C2027 C2029 1.415 . S
C2028 C2027 1.355 . S
C2028 C2030 1.421 . S
C2029 C2024 1.425 . S
C2029 C2026 1.409 . S
C2029 C2027 1.415 . S
C2030 H2020 0.930 . S
C2030 C2028 1.421 . S
C2030 C2031 1.362 . S
C2031 H2021 0.928 1_565 S
C2031 C2024 1.410 . S
C2031 C2030 1.362 . S
H2032 C2038 0.930 . S
H2033 C2041 0.930 . S
H2034 C2042 0.930 . S
H2035 C2043 0.930 . S
H2036 C2046 0.930 . S
H2037 C2047 0.930 . S
C2038 H2032 0.930 . S
C2038 C2039 1.355 . S
C2038 C2040 1.415 . S
C2039 C2038 1.355 . S
C2039 C2041 1.419 . S
C2040 C2038 1.415 . S
C2040 C2045 1.425 . S
C2040 C2047 1.409 . S
C2041 H2033 0.930 . S
C2041 C2039 1.419 . S
C2041 C2042 1.362 . S
C2042 H2034 0.930 . S
C2042 C2041 1.362 . S
C2042 C2045 1.409 . S
C2043 H2035 0.930 . S
C2043 C2044 1.355 . S
C2043 C2045 1.415 . S
C2044 C2043 1.355 . S
C2044 C2046 1.419 . S
C2045 C2040 1.425 . S
C2045 C2042 1.409 . S
C2045 C2043 1.415 . S
C2046 H2036 0.930 . S
C2046 C2044 1.419 . S
C2046 C2047 1.362 . S
C2047 H2037 0.930 . S
C2047 C2040 1.409 . S
C2047 C2046 1.362 . S
H2048 C2054 0.930 . S
H2049 C2057 0.930 . S
H2050 C2058 0.930 . S
H2051 C2059 0.930 . S
H2052 C2062 0.930 . S
H2053 C2063 0.930 . S
C2054 H2048 0.930 . S
C2054 C2055 1.355 . S
C2054 C2056 1.415 . S
C2055 C2054 1.355 . S
C2055 C2057 1.419 . S
C2056 C2054 1.415 . S
C2056 C2061 1.425 . S
C2056 C2063 1.409 . S
C2057 H2049 0.930 . S
C2057 C2055 1.419 . S
C2057 C2058 1.362 . S
C2058 H2050 0.930 . S
C2058 C2057 1.362 . S
C2058 C2061 1.409 . S
C2059 H2051 0.930 . S
C2059 C2060 1.355 . S
C2059 C2061 1.415 . S
C2060 C2059 1.355 . S
C2060 C2062 1.419 . S
C2061 C2056 1.425 . S
C2061 C2058 1.409 . S
C2061 C2059 1.415 . S
C2062 H2052 0.930 . S
C2062 C2060 1.419 . S
C2062 C2063 1.362 . S
C2063 H2053 0.930 . S
C2063 C2056 1.409 . S
C2063 C2062 1.362 . S
H2064 C2070 0.930 . S
H2065 C2073 0.930 . S
H2066 C2074 0.930 . S
H2067 C2075 0.930 . S
H2068 C2078 0.930 . S
H2069 C2079 0.930 . S
C2070 H2064 0.930 . S
C2070 C2071 1.355 1_545 S
C2070 C2072 1.415 . S
C2071 C2070 1.355 1_565 S
C2071 C2073 1.419 . S
C2072 C2070 1.415 . S
C2072 C2077 1.425 1_545 S
C2072 C2079 1.409 . S
C2073 H2065 0.930 . S
C2073 C2071 1.419 . S
C2073 C2074 1.362 . S
C2074 H2066 0.930 . S
C2074 C2073 1.362 . S
C2074 C2077 1.409 . S
C2075 H2067 0.930 . S
C2075 C2076 1.355 . S
C2075 C2077 1.415 . S
C2076 C2075 1.355 . S
C2076 C2078 1.419 1_565 S
C2077 C2072 1.425 1_565 S
C2077 C2074 1.409 . S
C2077 C2075 1.415 . S
C2078 H2068 0.930 . S
C2078 C2076 1.419 1_545 S
C2078 C2079 1.362 . S
C2079 H2069 0.930 . S
C2079 C2072 1.409 . S
C2079 C2078 1.362 . S
H2080 C2086 0.930 . S
H2081 C2089 0.930 . S
H2082 C2090 0.930 . S
H2083 C2091 0.930 . S
H2084 C2094 0.930 . S
H2085 C2095 0.930 . S
C2086 H2080 0.930 . S
C2086 C2087 1.356 1_545 S
C2086 C2088 1.415 . S
C2087 C2086 1.356 1_565 S
C2087 C2089 1.417 . S
C2088 C2086 1.415 . S
C2088 C2093 1.425 1_545 S
C2088 C2095 1.409 . S
C2089 H2081 0.930 . S
C2089 C2087 1.417 . S
C2089 C2090 1.362 . S
C2090 H2082 0.930 . S
C2090 C2089 1.362 . S
C2090 C2093 1.409 . S
C2091 H2083 0.930 . S
C2091 C2092 1.355 1_565 S
C2091 C2093 1.415 . S
C2092 C2091 1.355 1_545 S
C2092 C2094 1.419 . S
C2093 C2088 1.425 1_565 S
C2093 C2090 1.409 . S
C2093 C2091 1.415 . S
C2094 H2084 0.930 . S
C2094 C2092 1.419 . S
C2094 C2095 1.362 . S
C2095 H2085 0.930 . S
C2095 C2088 1.409 . S
C2095 C2094 1.362 . S
H2096 C2102 0.930 . S
H2097 C2105 0.930 . S
H2098 C2106 0.930 . S
H2099 C2107 0.930 . S
H2100 C2110 0.930 . S
H2101 C2111 0.930 . S
C2102 H2096 0.930 . S
C2102 C2103 1.355 . S
C2102 C2104 1.415 . S
C2103 C2102 1.355 . S
C2103 C2105 1.419 . S
C2104 C2102 1.415 . S
C2104 C2109 1.425 . S
C2104 C2111 1.409 . S
C2105 H2097 0.930 . S
C2105 C2103 1.419 . S
C2105 C2106 1.362 . S
C2106 H2098 0.930 . S
C2106 C2105 1.362 . S
C2106 C2109 1.409 . S
C2107 H2099 0.930 . S
C2107 C2108 1.355 . S
C2107 C2109 1.415 . S
C2108 C2107 1.355 . S
C2108 C2110 1.419 . S
C2109 C2104 1.425 . S
C2109 C2106 1.409 . S
C2109 C2107 1.415 . S
C2110 H2100 0.930 . S
C2110 C2108 1.419 . S
C2110 C2111 1.362 . S
C2111 H2101 0.930 . S
C2111 C2104 1.409 . S
C2111 C2110 1.362 . S
H2112 C2118 0.930 . S
H2113 C2121 0.930 . S
H2114 C2122 0.930 . S
H2115 C2123 0.930 . S
H2116 C2126 0.930 . S
H2117 C2127 0.930 . S
C2118 H2112 0.930 . S
C2118 C2119 1.355 . S
C2118 C2120 1.415 . S
C2119 C2118 1.355 . S
C2119 C2121 1.419 . S
C2120 C2118 1.415 . S
C2120 C2125 1.425 . S
C2120 C2127 1.409 . S
C2121 H2113 0.930 . S
C2121 C2119 1.419 . S
C2121 C2122 1.362 . S
C2122 H2114 0.930 . S
C2122 C2121 1.362 . S
C2122 C2125 1.409 . S
C2123 H2115 0.930 . S
C2123 C2124 1.355 . S
C2123 C2125 1.415 . S
C2124 C2123 1.355 . S
C2124 C2126 1.419 . S
C2125 C2120 1.425 . S
C2125 C2122 1.409 . S
C2125 C2123 1.415 . S
C2126 H2116 0.930 . S
C2126 C2124 1.419 . S
C2126 C2127 1.362 . S
C2127 H2117 0.930 . S
C2127 C2120 1.409 . S
C2127 C2126 1.362 . S
H2128 C2134 0.930 . S
H2129 C2137 0.930 . S
H2130 C2138 0.930 . S
H2131 C2139 0.930 . S
H2132 C2142 0.930 . S
H2133 C2143 0.930 . S
C2134 H2128 0.930 . S
C2134 C2135 1.355 1_545 S
C2134 C2136 1.415 . S
C2135 C2134 1.355 1_565 S
C2135 C2137 1.418 . S
C2136 C2134 1.415 . S
C2136 C2141 1.425 1_545 S
C2136 C2143 1.409 . S
C2137 H2129 0.930 . S
C2137 C2135 1.418 . S
C2137 C2138 1.362 . S
C2138 H2130 0.930 . S
C2138 C2137 1.362 . S
C2138 C2141 1.409 . S
C2139 H2131 0.930 . S
C2139 C2140 1.355 1_565 S
C2139 C2141 1.415 . S
C2140 C2139 1.355 1_545 S
C2140 C2142 1.419 . S
C2141 C2136 1.425 1_565 S
C2141 C2138 1.409 . S
C2141 C2139 1.415 . S
C2142 H2132 0.930 . S
C2142 C2140 1.419 . S
C2142 C2143 1.362 . S
C2143 H2133 0.930 . S
C2143 C2136 1.409 . S
C2143 C2142 1.362 . S
H2144 C2150 0.930 . S
H2145 C2153 0.930 . S
H2146 C2154 0.930 . S
H2147 C2155 0.930 . S
H2148 C2158 0.930 . S
H2149 C2159 0.930 . S
C2150 H2144 0.930 . S
C2150 C2151 1.355 . S
C2150 C2152 1.415 . S
C2151 C2150 1.355 . S
C2151 C2153 1.419 . S
C2152 C2150 1.415 . S
C2152 C2157 1.425 . S
C2152 C2159 1.409 . S
C2153 H2145 0.930 . S
C2153 C2151 1.419 . S
C2153 C2154 1.362 . S
C2154 H2146 0.930 . S
C2154 C2153 1.362 . S
C2154 C2157 1.409 . S
C2155 H2147 0.930 . S
C2155 C2156 1.355 . S
C2155 C2157 1.415 1_554 S
C2156 C2155 1.355 . S
C2156 C2158 1.419 1_554 S
C2157 C2152 1.425 . S
C2157 C2154 1.409 . S
C2157 C2155 1.415 1_556 S
C2158 H2148 0.930 . S
C2158 C2156 1.419 1_556 S
C2158 C2159 1.362 . S
C2159 H2149 0.930 . S
C2159 C2152 1.409 . S
C2159 C2158 1.362 . S
H2160 C2166 0.930 . S
H2161 C2169 0.930 . S
H2162 C2170 0.930 . S
H2163 C2171 0.929 1_554 S
H2164 C2174 0.930 1_554 S
H2165 C2175 0.930 . S
C2166 H2160 0.930 . S
C2166 C2167 1.355 . S
C2166 C2168 1.415 . S
C2167 C2166 1.355 . S
C2167 C2169 1.419 . S
C2168 C2166 1.415 . S
C2168 C2173 1.425 . S
C2168 C2175 1.409 . S
C2169 H2161 0.930 . S
C2169 C2167 1.419 . S
C2169 C2170 1.362 . S
C2170 H2162 0.930 . S
C2170 C2169 1.362 . S
C2170 C2173 1.409 . S
C2171 H2163 0.929 1_556 S
C2171 C2172 1.355 1_556 S
C2171 C2173 1.415 . S
C2172 C2171 1.355 1_554 S
C2172 C2174 1.419 1_554 S
C2173 C2168 1.425 . S
C2173 C2170 1.409 . S
C2173 C2171 1.415 . S
C2174 H2164 0.930 1_556 S
C2174 C2172 1.419 1_556 S
C2174 C2175 1.362 . S
C2175 H2165 0.930 . S
C2175 C2168 1.409 . S
C2175 C2174 1.362 . S
H2176 C2182 0.930 . S
H2177 C2185 0.930 . S
H2178 C2186 0.930 . S
H2179 C2187 0.930 . S
H2180 C2190 0.930 . S
H2181 C2191 0.930 . S
C2182 H2176 0.930 . S
C2182 C2183 1.355 . S
C2182 C2184 1.415 . S
C2183 C2182 1.355 . S
C2183 C2185 1.419 . S
C2184 C2182 1.415 . S
C2184 C2189 1.425 . S
C2184 C2191 1.409 . S
C2185 H2177 0.930 . S
C2185 C2183 1.419 . S
C2185 C2186 1.362 . S
C2186 H2178 0.930 . S
C2186 C2185 1.362 . S
C2186 C2189 1.409 . S
C2187 H2179 0.930 . S
C2187 C2188 1.355 . S
C2187 C2189 1.415 . S
C2188 C2187 1.355 . S
C2188 C2190 1.419 . S
C2189 C2184 1.425 . S
C2189 C2186 1.409 . S
C2189 C2187 1.415 . S
C2190 H2180 0.930 . S
C2190 C2188 1.419 . S
C2190 C2191 1.362 . S
C2191 H2181 0.930 . S
C2191 C2184 1.409 . S
C2191 C2190 1.362 . S
H2192 C2198 0.930 . S
H2193 C2201 0.930 . S
H2194 C2202 0.930 . S
H2195 C2203 0.930 . S
H2196 C2206 0.930 . S
H2197 C2207 0.930 . S
C2198 H2192 0.930 . S
C2198 C2199 1.355 . S
C2198 C2200 1.415 . S
C2199 C2198 1.355 . S
C2199 C2201 1.419 . S
C2200 C2198 1.415 . S
C2200 C2205 1.425 . S
C2200 C2207 1.409 . S
C2201 H2193 0.930 . S
C2201 C2199 1.419 . S
C2201 C2202 1.362 . S
C2202 H2194 0.930 . S
C2202 C2201 1.362 . S
C2202 C2205 1.409 . S
C2203 H2195 0.930 . S
C2203 C2204 1.355 . S
C2203 C2205 1.415 . S
C2204 C2203 1.355 . S
C2204 C2206 1.419 . S
C2205 C2200 1.425 . S
C2205 C2202 1.409 . S
C2205 C2203 1.415 . S
C2206 H2196 0.930 . S
C2206 C2204 1.419 . S
C2206 C2207 1.362 . S
C2207 H2197 0.930 . S
C2207 C2200 1.409 . S
C2207 C2206 1.362 . S
H2208 C2214 0.930 . S
H2209 C2217 0.930 . S
H2210 C2218 0.930 1_556 S
H2211 C2219 0.930 . S
H2212 C2222 0.930 . S
H2213 C2223 0.930 . S
C2214 H2208 0.930 . S
C2214 C2215 1.355 . S
C2214 C2216 1.415 . S
C2215 C2214 1.355 . S
C2215 C2217 1.419 . S
C2216 C2214 1.415 . S
C2216 C2221 1.425 . S
C2216 C2223 1.409 . S
C2217 H2209 0.930 . S
C2217 C2215 1.419 . S
C2217 C2218 1.362 . S
C2218 H2210 0.930 1_554 S
C2218 C2217 1.362 . S
C2218 C2221 1.409 . S
C2219 H2211 0.930 . S
C2219 C2220 1.355 . S
C2219 C2221 1.415 1_556 S
C2220 C2219 1.355 . S
C2220 C2222 1.419 1_556 S
C2221 C2216 1.425 . S
C2221 C2218 1.409 . S
C2221 C2219 1.415 1_554 S
C2222 H2212 0.930 . S
C2222 C2220 1.419 1_554 S
C2222 C2223 1.362 . S
C2223 H2213 0.930 . S
C2223 C2216 1.409 . S
C2223 C2222 1.362 . S
H2224 C2230 0.930 . S
H2225 C2233 0.930 . S
H2226 C2234 0.930 1_556 S
H2227 C2235 0.930 . S
H2228 C2238 0.930 . S
H2229 C2239 0.930 . S
C2230 H2224 0.930 . S
C2230 C2231 1.355 . S
C2230 C2232 1.415 . S
C2231 C2230 1.355 . S
C2231 C2233 1.419 . S
C2232 C2230 1.415 . S
C2232 C2237 1.425 . S
C2232 C2239 1.409 . S
C2233 H2225 0.930 . S
C2233 C2231 1.419 . S
C2233 C2234 1.362 . S
C2234 H2226 0.930 1_554 S
C2234 C2233 1.362 . S
C2234 C2237 1.409 . S
C2235 H2227 0.930 . S
C2235 C2236 1.355 . S
C2235 C2237 1.415 1_556 S
C2236 C2235 1.355 . S
C2236 C2238 1.419 1_556 S
C2237 C2232 1.425 . S
C2237 C2234 1.409 . S
C2237 C2235 1.415 1_554 S
C2238 H2228 0.930 . S
C2238 C2236 1.419 1_554 S
C2238 C2239 1.362 . S
C2239 H2229 0.930 . S
C2239 C2232 1.409 . S
C2239 C2238 1.362 . S
H2240 C2246 0.930 . S
H2241 C2249 0.930 . S
H2242 C2250 0.930 . S
H2243 C2251 0.930 . S
H2244 C2254 0.930 . S
H2245 C2255 0.930 . S
C2246 H2240 0.930 . S
C2246 C2247 1.355 . S
C2246 C2248 1.415 . S
C2247 C2246 1.355 . S
C2247 C2249 1.419 . S
C2248 C2246 1.415 . S
C2248 C2253 1.425 . S
C2248 C2255 1.409 . S
C2249 H2241 0.930 . S
C2249 C2247 1.419 . S
C2249 C2250 1.362 . S
C2250 H2242 0.930 . S
C2250 C2249 1.362 . S
C2250 C2253 1.409 . S
C2251 H2243 0.930 . S
C2251 C2252 1.355 . S
C2251 C2253 1.415 . S
C2252 C2251 1.355 . S
C2252 C2254 1.419 . S
C2253 C2248 1.425 . S
C2253 C2250 1.409 . S
C2253 C2251 1.415 . S
C2254 H2244 0.930 . S
C2254 C2252 1.419 . S
C2254 C2255 1.362 . S
C2255 H2245 0.930 . S
C2255 C2248 1.409 . S
C2255 C2254 1.362 . S
H2256 C2262 0.930 . S
H2257 C2265 0.930 . S
H2258 C2266 0.930 . S
H2259 C2267 0.930 . S
H2260 C2270 0.930 . S
H2261 C2271 0.930 . S
C2262 H2256 0.930 . S
C2262 C2263 1.355 . S
C2262 C2264 1.415 . S
C2263 C2262 1.355 . S
C2263 C2265 1.419 . S
C2264 C2262 1.415 . S
C2264 C2269 1.425 . S
C2264 C2271 1.409 . S
C2265 H2257 0.930 . S
C2265 C2263 1.419 . S
C2265 C2266 1.362 . S
C2266 H2258 0.930 . S
C2266 C2265 1.362 . S
C2266 C2269 1.409 . S
C2267 H2259 0.930 . S
C2267 C2268 1.355 . S
C2267 C2269 1.415 . S
C2268 C2267 1.355 . S
C2268 C2270 1.419 . S
C2269 C2264 1.425 . S
C2269 C2266 1.409 . S
C2269 C2267 1.415 . S
C2270 H2260 0.930 . S
C2270 C2268 1.419 . S
C2270 C2271 1.362 . S
C2271 H2261 0.930 . S
C2271 C2264 1.409 . S
C2271 C2270 1.362 . S
C743 C594 1.661 . S
C748 C19 1.643 . S
C759 C571 1.626 . S
C764 C42 1.652 . S
C775 C640 1.664 . S
C780 C65 1.635 . S
C791 C617 1.651 . S
C796 C88 1.654 . S
C807 C111 1.634 . S
C812 C686 1.664 . S
C823 C134 1.631 . S
C828 C663 1.643 . S
C839 C157 1.638 . S
C844 C732 1.635 . S
C855 C709 1.662 . S
C860 C180 1.626 . S
C871 C410 1.659 . S
C876 C203 1.645 . S
C887 C387 1.648 . S
C892 C226 1.657 . S
C903 C456 1.665 . S
C908 C249 1.632 . S
C919 C433 1.641 . S
C924 C272 1.633 . S
C935 C295 1.651 . S
C940 C502 1.654 . S
C951 C479 1.652 . S
C956 C318 1.626 . S
C967 C341 1.636 . S
C972 C548 1.664 . S
C983 C525 1.628 . S
C988 C364 1.648 . S
C999 C21 1.190 . S
C1004 C481 1.190 . S
C1015 C320 1.219 . S
C1020 C44 1.219 . S
C1031 C711 1.189 . S
C1036 C67 1.189 . S
C1047 C90 1.223 . S
C1052 C182 1.223 . S
C1063 C113 1.188 . S
C1068 C389 1.188 . S
C1079 C136 1.213 . S
C1084 C228 1.213 . S
C1095 C159 1.222 . S
C1100 C619 1.222 . S
C1111 C665 1.188 . S
C1116 C205 1.188 . S
C1127 C527 1.188 . S
C1132 C251 1.188 . S
C1143 C366 1.188 . S
C1148 C274 1.188 . S
C1159 C573 1.223 . S
C1164 C297 1.223 . S
C1175 C343 1.224 . S
C1180 C435 1.224 . S
C1191 C688 1.188 . S
C1196 C412 1.188 . S
C1207 C458 1.188 . S
C1212 C550 1.188 . S
C1223 C596 1.215 . S
C1228 C504 1.215 . S
C1239 C642 1.188 . S
C1244 C734 1.188 . S
C1255 C18 1.255 . S
C1260 C455 1.253 . S
C1271 C41 1.273 . S
C1276 C432 1.232 . S
C1287 C64 1.251 . S
C1292 C409 1.257 . S
C1303 C87 1.267 . S
C1308 C386 1.237 . S
C1319 C110 1.257 . S
C1324 C547 1.250 . S
C1335 C133 1.270 . S
C1340 C524 1.237 . S
C1351 C156 1.238 . S
C1356 C501 1.269 . S
C1367 C179 1.232 . S
C1372 C478 1.272 . S
C1383 C202 1.235 . S
C1388 C639 1.271 . S
C1399 C225 1.252 . S
C1404 C616 1.256 . S
C1415 C248 1.274 . S
C1420 C593 1.232 . S
C1431 C271 1.267 . S
C1436 C570 1.237 . S
C1447 C731 1.262 . S
C1452 C294 1.245 . S
C1463 C708 1.244 . S
C1468 C317 1.263 . S
C1479 C685 1.237 . S
C1484 C340 1.270 . S
C1495 C662 1.239 . S
C1500 C363 1.268 . S
C1511 C66 1.312 . S
C1516 C20 1.260 . S
C1527 C89 1.315 . S
C1532 C43 1.283 . S
C1543 C158 1.263 . S
C1548 C112 1.294 . S
C1559 C135 1.316 . S
C1564 C181 1.262 . S
C1575 C250 1.307 . S
C1580 C204 1.296 . S
C1591 C227 1.287 . S
C1596 C273 1.313 . S
C1607 C342 1.260 . S
C1612 C296 1.300 . S
C1623 C319 1.289 . S
C1628 C365 1.312 . S
C1639 C388 1.286 . S
C1644 C434 1.314 . S
C1655 C411 1.290 . S
C1660 C457 1.265 . S
C1671 C526 1.267 . S
C1676 C480 1.318 . S
C1687 C503 1.313 . S
C1692 C549 1.260 . S
C1703 C572 1.299 . S
C1708 C618 1.261 . S
C1719 C641 1.299 . S
C1724 C595 1.261 . S
C1735 C664 1.283 . S
C1740 C710 1.316 . S
C1751 C687 1.285 . S
C1756 C733 1.269 . S
C1767 C16 1.638 . S
C1772 C178 1.634 . S
C1783 C707 1.633 . S
C1788 C39 1.635 . S
C1799 C62 1.629 . S
C1804 C316 1.632 . S
C1815 C85 1.629 . S
C1820 C477 1.636 . S
C1831 C86 1.634 . S
C1836 C108 1.638 . S
C1847 C131 1.630 . S
C1852 C615 1.632 . S
C1863 C224 1.633 . S
C1868 C154 1.636 . S
C1879 C385 1.633 . S
C1884 C177 1.629 . S
C1895 C200 1.634 . S
C1900 C362 1.634 . S
C1911 C523 1.632 . S
C1916 C223 1.631 . S
C1927 C246 1.634 . S
C1932 C132 1.632 . S
C1943 C661 1.632 . S
C1948 C269 1.629 . S
C1959 C292 1.629 . S
C1964 C270 1.632 . S
C1975 C315 1.633 . S
C1980 C431 1.633 . S
C1991 C338 1.631 . S
C1996 C40 1.632 . S
C2007 C569 1.632 . S
C2012 C361 1.633 . S
C2023 C384 1.629 . S
C2028 C546 1.633 . S
C2039 C407 1.629 . S
C2044 C339 1.632 . S
C2055 C430 1.629 . S
C2060 C684 1.632 . S
C2071 C453 1.636 . S
C2076 C109 1.634 . S
C2087 C476 1.631 1_565 S
C2092 C454 1.632 . S
C2103 C247 1.633 . S
C2108 C499 1.635 . S
C2119 C592 1.632 . S
C2124 C522 1.628 . S
C2135 C545 1.631 1_565 S
C2140 C17 1.632 . S
C2151 C730 1.632 . S
C2156 C568 1.633 . S
C2167 C155 1.632 . S
C2172 C591 1.634 . S
C2183 C500 1.632 . S
C2188 C614 1.631 . S
C2199 C637 1.630 . S
C2204 C293 1.632 . S
C2215 C638 1.632 . S
C2220 C660 1.629 . S
C2231 C63 1.633 . S
C2236 C683 1.629 . S
C2247 C408 1.633 . S
C2252 C706 1.635 . S
C2263 C729 1.636 . S
C2268 C201 1.634 . S
