# Generated by pormake.
# Topology wgw, (6)-cn, num edge types: 1
# Building blocks:
#     Node 0, Type 0, BuildingBlock: IZENUY_clean_sbu_0, # of connection points: 6
#     Node 1, Type 0, BuildingBlock: IZENUY_clean_sbu_0, # of connection points: 6
#     Node 2, Type 0, BuildingBlock: IZENUY_clean_sbu_0, # of connection points: 6
#     Node 3, Type 0, BuildingBlock: IZENUY_clean_sbu_0, # of connection points: 6
#     Node 4, Type 0, BuildingBlock: IZENUY_clean_sbu_0, # of connection points: 6
#     Node 5, Type 0, BuildingBlock: IZENUY_clean_sbu_0, # of connection points: 6
#     Node 6, Type 0, BuildingBlock: IZENUY_clean_sbu_0, # of connection points: 6
#     Node 7, Type 0, BuildingBlock: IZENUY_clean_sbu_0, # of connection points: 6
#     Edge 8, Type (0, 0), BuildingBlock: KIFKEQ_clean_linker_1, # of connection points: 2
#     Edge 9, Type (0, 0), BuildingBlock: KIFKEQ_clean_linker_1, # of connection points: 2
#     Edge 10, Type (0, 0), BuildingBlock: KIFKEQ_clean_linker_1, # of connection points: 2
#     Edge 11, Type (0, 0), BuildingBlock: KIFKEQ_clean_linker_1, # of connection points: 2
#     Edge 12, Type (0, 0), BuildingBlock: KIFKEQ_clean_linker_1, # of connection points: 2
#     Edge 13, Type (0, 0), BuildingBlock: KIFKEQ_clean_linker_1, # of connection points: 2
#     Edge 14, Type (0, 0), BuildingBlock: KIFKEQ_clean_linker_1, # of connection points: 2
#     Edge 15, Type (0, 0), BuildingBlock: KIFKEQ_clean_linker_1, # of connection points: 2
#     Edge 16, Type (0, 0), BuildingBlock: KIFKEQ_clean_linker_1, # of connection points: 2
#     Edge 17, Type (0, 0), BuildingBlock: KIFKEQ_clean_linker_1, # of connection points: 2
#     Edge 18, Type (0, 0), BuildingBlock: KIFKEQ_clean_linker_1, # of connection points: 2
#     Edge 19, Type (0, 0), BuildingBlock: KIFKEQ_clean_linker_1, # of connection points: 2
#     Edge 20, Type (0, 0), BuildingBlock: KIFKEQ_clean_linker_1, # of connection points: 2
#     Edge 21, Type (0, 0), BuildingBlock: KIFKEQ_clean_linker_1, # of connection points: 2
#     Edge 22, Type (0, 0), BuildingBlock: KIFKEQ_clean_linker_1, # of connection points: 2
#     Edge 23, Type (0, 0), BuildingBlock: KIFKEQ_clean_linker_1, # of connection points: 2
#     Edge 24, Type (0, 0), BuildingBlock: KIFKEQ_clean_linker_1, # of connection points: 2
#     Edge 25, Type (0, 0), BuildingBlock: KIFKEQ_clean_linker_1, # of connection points: 2
#     Edge 26, Type (0, 0), BuildingBlock: KIFKEQ_clean_linker_1, # of connection points: 2
#     Edge 27, Type (0, 0), BuildingBlock: KIFKEQ_clean_linker_1, # of connection points: 2
#     Edge 28, Type (0, 0), BuildingBlock: KIFKEQ_clean_linker_1, # of connection points: 2
#     Edge 29, Type (0, 0), BuildingBlock: KIFKEQ_clean_linker_1, # of connection points: 2
#     Edge 30, Type (0, 0), BuildingBlock: KIFKEQ_clean_linker_1, # of connection points: 2
#     Edge 31, Type (0, 0), BuildingBlock: KIFKEQ_clean_linker_1, # of connection points: 2
# Relax obj value: 0.276
# Max RMSD: 0.289
# Mean RMSD: 0.289
data_MOF--net-wgw--node1-IZENUY_clean_sbu_0--edge1-KIFKEQ_clean_linker_1
_symmetry_space_group_name_H-M    P1
_symmetry_Int_Tables_number       1
_symmetry_cell_setting            triclinic
loop_
_symmetry_equiv_pos_as_xyz
'x, y, z'
_cell_length_a     27.904366
_cell_length_b     27.809413
_cell_length_c     43.502526
_cell_angle_alpha  89.606771
_cell_angle_beta   90.050445
_cell_angle_gamma 89.981084
loop_
_atom_site_label
_atom_site_type_symbol
_atom_site_fract_x
_atom_site_fract_y
_atom_site_fract_z
_atom_type_partial_charge
Fe0 Fe 0.04505 0.40769 0.1728 0.0
Fe1 Fe 0.11879 0.48994 0.17326 0.0
O2 O 0.07362 0.45575 0.19212 0.0
Fe3 Fe 0.05746 0.47085 0.23017 0.0
O4 O 0.04223 0.40951 0.24252 0.0
O5 O 0.05959 0.36469 0.20272 0.0
O6 O 0.10098 0.38796 0.15359 0.0
C7 C 0.1446 0.39692 0.16022 0.0
C8 C 0.96915 0.45578 0.20371 0.0
O9 O 0.15671 0.43721 0.17114 0.0
C10 C 0.06531 0.56001 0.20011 0.0
O11 O 0.02702 0.44629 0.14101 0.0
O12 O 0.09664 0.48046 0.13405 0.0
O13 O 0.99653 0.4829 0.21871 0.0
O14 O 0.98515 0.41948 0.1894 0.0
C15 C 0.15319 0.48516 0.23444 0.0
O16 O 0.08212 0.54445 0.17503 0.0
O17 O 0.06818 0.53509 0.22451 0.0
C18 C 0.05518 0.47041 0.12448 0.0
O19 O 0.15077 0.50599 0.20854 0.0
O20 O 0.11828 0.4605 0.24417 0.0
C21 C 0.04937 0.36872 0.23075 0.0
Fe22 Fe 0.01984 0.11329 0.67514 0.0
Fe23 Fe 0.03769 0.0531 0.73307 0.0
O24 O 0.05297 0.06779 0.69458 0.0
Fe25 Fe 0.10026 0.03731 0.67573 0.0
O26 O 0.12163 0.09206 0.65554 0.0
O27 O 0.07297 0.14994 0.67101 0.0
O28 O 0.00646 0.14737 0.70998 0.0
C29 C 0.02844 0.15009 0.73541 0.0
C30 C 0.03844 0.04765 0.62706 0.0
O31 O 0.05054 0.11394 0.74603 0.0
C32 C 0.04965 0.96345 0.70789 0.0
O33 O 0.96458 0.07824 0.67848 0.0
O34 O 0.97424 0.06659 0.72809 0.0
O35 O 0.06205 0.01924 0.64389 0.0
O36 O 0.02761 0.08904 0.63648 0.0
C37 C 0.13867 0.04349 0.73368 0.0
O38 O 0.02335 0.99224 0.72243 0.0
O39 O 0.08663 0.97791 0.69345 0.0
C40 C 0.94895 0.06337 0.70411 0.0
O41 O 0.09802 0.03561 0.74528 0.0
O42 O 0.14294 0.05245 0.70545 0.0
C43 C 0.11269 0.13639 0.66009 0.0
Fe44 Fe 0.47672 0.0501 0.2326 0.0
Fe45 Fe 0.49149 0.11223 0.17509 0.0
O46 O 0.45932 0.06629 0.19471 0.0
Fe47 Fe 0.41058 0.03693 0.17659 0.0
O48 O 0.36983 0.05219 0.20728 0.0
O49 O 0.41663 0.03348 0.246 0.0
O50 O 0.46572 0.11071 0.24669 0.0
C51 C 0.48776 0.14689 0.23612 0.0
C52 C 0.46149 0.96138 0.20693 0.0
O53 O 0.5075 0.14507 0.20996 0.0
C54 C 0.46978 0.0478 0.12684 0.0
O55 O 0.54021 0.06249 0.22625 0.0
O56 O 0.54686 0.07702 0.17665 0.0
O57 O 0.42397 0.97696 0.19357 0.0
O58 O 0.48939 0.98933 0.22091 0.0
C59 C 0.39798 0.1364 0.16231 0.0
O60 O 0.48112 0.08903 0.13636 0.0
O61 O 0.44701 0.01907 0.1439 0.0
C62 C 0.56424 0.06132 0.20165 0.0
O63 O 0.43825 0.14937 0.17274 0.0
O64 O 0.38887 0.09228 0.1572 0.0
C65 C 0.37553 0.04274 0.23536 0.0
Fe66 Fe 0.39167 0.48876 0.672 0.0
Fe67 Fe 0.46379 0.40525 0.67256 0.0
O68 O 0.43594 0.45409 0.6913 0.0
Fe69 Fe 0.45202 0.46928 0.72933 0.0
O70 O 0.39096 0.45969 0.74303 0.0
O71 O 0.35929 0.50534 0.70704 0.0
O72 O 0.35291 0.43665 0.66963 0.0
C73 C 0.36474 0.39633 0.65863 0.0
C74 C 0.44614 0.55776 0.69902 0.0
O75 O 0.40833 0.3869 0.65242 0.0
C76 C 0.54013 0.45228 0.70356 0.0
O77 O 0.41475 0.4786 0.63313 0.0
O78 O 0.48373 0.44317 0.64087 0.0
O79 O 0.44172 0.5334 0.72349 0.0
O80 O 0.4293 0.54254 0.67388 0.0
C81 C 0.45629 0.36749 0.73065 0.0
O82 O 0.52351 0.41549 0.69006 0.0
O83 O 0.51311 0.48055 0.71792 0.0
C84 C 0.45632 0.46786 0.62404 0.0
O85 O 0.44636 0.3634 0.70256 0.0
O86 O 0.46666 0.40793 0.74187 0.0
C87 C 0.35633 0.48452 0.73296 0.0
Fe88 Fe 0.61962 0.52935 0.35872 0.0
Fe89 Fe 0.55809 0.54102 0.30091 0.0
O90 O 0.57391 0.5604 0.33831 0.0
Fe91 Fe 0.5442 0.60998 0.3552 0.0
O92 O 0.59873 0.63285 0.37434 0.0
O93 O 0.65612 0.58303 0.36005 0.0
O94 O 0.65305 0.51215 0.32419 0.0
C95 C 0.6544 0.52997 0.29732 0.0
C96 C 0.55375 0.55151 0.4059 0.0
O97 O 0.61846 0.55199 0.28646 0.0
C98 C 0.4697 0.55663 0.3263 0.0
O99 O 0.58529 0.47364 0.35841 0.0
O100 O 0.57122 0.47749 0.30871 0.0
O101 O 0.52601 0.57491 0.38854 0.0
O102 O 0.59545 0.54061 0.39712 0.0
C103 C 0.54882 0.64275 0.29589 0.0
O104 O 0.49788 0.52805 0.31314 0.0
O105 O 0.48492 0.59524 0.33842 0.0
C106 C 0.57058 0.45453 0.33392 0.0
O107 O 0.54034 0.60082 0.28619 0.0
O108 O 0.55971 0.64954 0.32356 0.0
C109 C 0.6428 0.62367 0.36967 0.0
Fe110 Fe 0.96659 0.61079 0.85529 0.0
Fe111 Fe 0.95025 0.54295 0.80059 0.0
O112 O 0.93607 0.56171 0.83836 0.0
Fe113 Fe 0.89108 0.53058 0.85916 0.0
O114 O 0.85491 0.58447 0.86095 0.0
O115 O 0.91284 0.63335 0.87552 0.0
O116 O 0.95006 0.65107 0.82421 0.0
C117 C 0.95978 0.64478 0.7963 0.0
C118 C 0.95858 0.55166 0.90565 0.0
O119 O 0.96746 0.60299 0.78608 0.0
C120 C 0.93895 0.45601 0.83328 0.0
O121 O 0.02512 0.5962 0.83751 0.0
O122 O 0.01093 0.52966 0.81177 0.0
O123 O 0.91647 0.54142 0.89734 0.0
O124 O 0.98596 0.57492 0.88804 0.0
C125 C 0.85382 0.53179 0.79831 0.0
O126 O 0.93729 0.47936 0.80822 0.0
O127 O 0.92542 0.47481 0.85814 0.0
C128 C 0.03969 0.55778 0.82484 0.0
O129 O 0.88926 0.55414 0.78707 0.0
O130 O 0.85638 0.51372 0.82507 0.0
C131 C 0.86862 0.62485 0.87081 0.0
Fe132 Fe 0.97761 0.96948 0.29859 0.0
Fe133 Fe 0.99333 0.90473 0.35488 0.0
O134 O 0.96053 0.95104 0.33612 0.0
Fe135 Fe 0.91119 0.97856 0.35467 0.0
O136 O 0.87093 0.96318 0.32371 0.0
O137 O 0.91705 0.98604 0.28559 0.0
O138 O 0.96722 0.90976 0.28319 0.0
C139 C 0.9883 0.87279 0.29339 0.0
C140 C 0.96054 0.05612 0.32577 0.0
O141 O 0.00894 0.87335 0.31934 0.0
C142 C 0.97146 0.96775 0.40397 0.0
O143 O 0.04129 0.95748 0.30462 0.0
O144 O 0.04821 0.9403 0.35385 0.0
O145 O 0.923 0.03909 0.33825 0.0
O146 O 0.98957 0.02956 0.31172 0.0
C147 C 0.90026 0.87889 0.36744 0.0
O148 O 0.98348 0.92686 0.39403 0.0
O149 O 0.94727 0.99618 0.38745 0.0
C150 C 0.06524 0.95769 0.3293 0.0
O151 O 0.94052 0.86703 0.3566 0.0
O152 O 0.89097 0.9225 0.37372 0.0
C153 C 0.87616 0.97505 0.29595 0.0
Fe154 Fe 0.5978 0.97863 0.8561 0.0
Fe155 Fe 0.52152 0.89829 0.85663 0.0
O156 O 0.55294 0.94478 0.8371 0.0
Fe157 Fe 0.53875 0.95693 0.79804 0.0
O158 O 0.59821 0.9782 0.78672 0.0
O159 O 0.64232 0.96446 0.82737 0.0
O160 O 0.62163 0.92638 0.87776 0.0
C161 C 0.61484 0.88146 0.8744 0.0
C162 C 0.54514 0.04779 0.82055 0.0
O163 O 0.57629 0.86532 0.86329 0.0
C164 C 0.44853 0.93901 0.8244 0.0
O165 O 0.55787 0.99592 0.887 0.0
O166 O 0.52454 0.92552 0.8948 0.0
O167 O 0.51991 0.01672 0.80722 0.0
O168 O 0.58131 0.03608 0.83683 0.0
C169 C 0.53675 0.86004 0.79705 0.0
O170 O 0.46429 0.92913 0.85091 0.0
O171 O 0.47612 0.93879 0.80141 0.0
C172 C 0.53408 0.96756 0.90372 0.0
O173 O 0.51352 0.86124 0.82211 0.0
O174 O 0.55672 0.8973 0.78657 0.0
C175 C 0.63871 0.97247 0.799 0.0
H176 H 0.39503 0.62107 0.32654 0.0
H177 H 0.42731 0.46974 0.31879 0.0
H178 H 0.31193 0.60485 0.31158 0.0
H179 H 0.34496 0.45369 0.30379 0.0
H180 H 0.18612 0.43569 0.28539 0.0
H181 H 0.25738 0.4546 0.31629 0.0
H182 H 0.28259 0.58061 0.26003 0.0
H183 H 0.21241 0.56206 0.22956 0.0
C184 C 0.38413 0.58429 0.32243 0.0
C185 C 0.4178 0.54681 0.32337 0.0
C186 C 0.33668 0.575 0.31373 0.0
C187 C 0.32206 0.52802 0.30619 0.0
C188 C 0.35491 0.49016 0.3096 0.0
C189 C 0.40226 0.49948 0.31796 0.0
C190 C 0.2067 0.46766 0.27996 0.0
C191 C 0.19399 0.49698 0.25482 0.0
C192 C 0.24739 0.47849 0.29759 0.0
C193 C 0.27544 0.51927 0.29069 0.0
C194 C 0.26142 0.54942 0.26631 0.0
C195 C 0.22143 0.53832 0.24855 0.0
H196 H 0.02132 0.40941 0.8485 0.0
H197 H 0.87975 0.38844 0.8112 0.0
H198 H 0.04551 0.32995 0.82944 0.0
H199 H 0.90336 0.30925 0.79256 0.0
H200 H 0.987 0.23359 0.71722 0.0
H201 H 0.96427 0.30156 0.7484 0.0
H202 H 0.02798 0.23425 0.82822 0.0
H203 H 0.05085 0.16465 0.79672 0.0
C204 C 0.99488 0.38673 0.83752 0.0
C205 C 0.94865 0.40436 0.83147 0.0
C206 C 0.0087 0.34151 0.82654 0.0
C207 C 0.97644 0.31391 0.80921 0.0
C208 C 0.92902 0.33008 0.80561 0.0
C209 C 0.91534 0.37506 0.81648 0.0
C210 C 0.99636 0.2329 0.74139 0.0
C211 C 0.02013 0.19321 0.75454 0.0
C212 C 0.98303 0.27187 0.75929 0.0
C213 C 0.99331 0.27257 0.79085 0.0
C214 C 0.01923 0.23421 0.80396 0.0
C215 C 0.03237 0.19459 0.78594 0.0
H216 H 0.37077 1.00634 0.29416 0.0
H217 H 0.28326 0.06609 0.22126 0.0
H218 H 0.29869 0.9914 0.32477 0.0
H219 H 0.21187 0.05042 0.25136 0.0
H220 H 0.0902 0.04713 0.31293 0.0
H221 H 0.16906 0.07453 0.29665 0.0
H222 H 0.22886 0.93657 0.32237 0.0
H223 H 0.14951 0.91008 0.33996 0.0
C224 C 0.33629 0.01672 0.28478 0.0
C225 C 0.33275 0.03723 0.25519 0.0
C226 C 0.29504 0.00791 0.30227 0.0
C227 C 0.24957 0.01985 0.2906 0.0
C228 C 0.24635 0.04155 0.26136 0.0
C229 C 0.28735 0.05017 0.24392 0.0
C230 C 0.12062 0.02342 0.31618 0.0
C231 C 0.11417 0.97671 0.32772 0.0
C232 C 0.16565 0.03883 0.30654 0.0
C233 C 0.20501 0.00735 0.30753 0.0
C234 C 0.19928 0.96175 0.32139 0.0
C235 C 0.15401 0.94653 0.33152 0.0
H236 H 0.41889 0.27878 0.72028 0.0
H237 H 0.51069 0.35644 0.78268 0.0
H238 H 0.44018 0.20371 0.74583 0.0
H239 H 0.53337 0.28076 0.80771 0.0
H240 H 0.53495 0.12855 0.85641 0.0
H241 H 0.5094 0.20881 0.8383 0.0
H242 H 0.5134 0.15829 0.74457 0.0
H243 H 0.5371 0.07916 0.76262 0.0
C244 C 0.44335 0.27982 0.73963 0.0
C245 C 0.46361 0.32337 0.74918 0.0
C246 C 0.45582 0.2368 0.75417 0.0
C247 C 0.48945 0.23617 0.7783 0.0
C248 C 0.50744 0.28005 0.78918 0.0
C249 C 0.49449 0.32335 0.7748 0.0
C250 C 0.53084 0.13524 0.83199 0.0
C251 C 0.53733 0.09791 0.81087 0.0
C252 C 0.51613 0.1809 0.82162 0.0
C253 C 0.50808 0.18948 0.79004 0.0
C254 C 0.51752 0.15252 0.76908 0.0
C255 C 0.53158 0.10731 0.77938 0.0
H256 H 0.71831 0.4577 0.30644 0.0
H257 H 0.68336 0.5728 0.24303 0.0
H258 H 0.78787 0.43734 0.27591 0.0
H259 H 0.75396 0.55205 0.21209 0.0
H260 H 0.9241 0.54195 0.20498 0.0
H261 H 0.84228 0.55805 0.22147 0.0
H262 H 0.81456 0.40533 0.22561 0.0
H263 H 0.89719 0.38933 0.20945 0.0
C264 C 0.72534 0.47862 0.28584 0.0
C265 C 0.69552 0.51733 0.27738 0.0
C266 C 0.76499 0.46642 0.26807 0.0
C267 C 0.7763 0.49281 0.24145 0.0
C268 C 0.74609 0.53105 0.23253 0.0
C269 C 0.70577 0.54295 0.25021 0.0
C270 C 0.90024 0.51187 0.20891 0.0
C271 C 0.91714 0.46442 0.20654 0.0
C272 C 0.8532 0.52109 0.21805 0.0
C273 C 0.82212 0.48298 0.22524 0.0
C274 C 0.83795 0.43544 0.22058 0.0
C275 C 0.88505 0.42623 0.21112 0.0
H276 H 0.96214 0.92276 0.7037 0.0
H277 H 0.1108 0.88756 0.71885 0.0
H278 H 0.93869 0.84233 0.72045 0.0
H279 H 0.0874 0.80592 0.73506 0.0
H280 H 0.02059 0.65247 0.74697 0.0
H281 H 0.04356 0.72618 0.71928 0.0
H282 H 0.94455 0.80748 0.77465 0.0
H283 H 0.92218 0.73446 0.80245 0.0
C284 C 0.98983 0.89752 0.71034 0.0
C285 C 0.03811 0.91171 0.71076 0.0
C286 C 0.97644 0.85142 0.71979 0.0
C287 C 0.01112 0.81813 0.72961 0.0
C288 C 0.05989 0.83089 0.7276 0.0
C289 C 0.07333 0.87746 0.71826 0.0
C290 C 1.0032 0.686 0.75282 0.0
C291 C 0.96942 0.68767 0.77682 0.0
C292 C 0.01668 0.72817 0.73717 0.0
C293 C 0.99583 0.77254 0.74477 0.0
C294 C 0.96092 0.77376 0.76805 0.0
C295 C 0.94817 0.73196 0.78403 0.0
H296 H 0.58827 0.97582 0.22491 0.0
H297 H 0.64968 0.10473 0.18618 0.0
H298 H 0.66681 0.94827 0.24071 0.0
H299 H 0.72922 0.07914 0.20449 0.0
H300 H 0.87076 0.0076 0.23607 0.0
H301 H 0.79814 0.02346 0.20593 0.0
H302 H 0.71184 0.97603 0.28281 0.0
H303 H 0.78337 0.95895 0.31217 0.0
C304 C 0.61904 0.99748 0.21885 0.0
C305 C 0.61312 0.04185 0.20388 0.0
C306 C 0.66405 0.98225 0.22851 0.0
C307 C 0.70421 0.01209 0.2247 0.0
C308 C 0.69901 0.05522 0.20775 0.0
C309 C 0.65362 0.06992 0.19722 0.0
C310 C 0.83619 0.99999 0.2463 0.0
C311 C 0.83294 0.98188 0.27655 0.0
C312 C 0.79464 0.00938 0.22908 0.0
C313 C 0.74911 1.00064 0.24177 0.0
C314 C 0.7462 0.98211 0.2719 0.0
C315 C 0.78741 0.97262 0.28894 0.0
H316 H 0.52767 0.57352 0.7292 0.0
H317 H 0.41794 0.64655 0.67677 0.0
H318 H 0.55893 0.64984 0.74651 0.0
H319 H 0.44848 0.7243 0.69548 0.0
H320 H 0.54181 0.85499 0.73415 0.0
H321 H 0.52687 0.78385 0.70227 0.0
H322 H 0.50645 0.69847 0.78449 0.0
H323 H 0.52082 0.7688 0.81608 0.0
C324 C 0.51137 0.60614 0.72042 0.0
C325 C 0.47049 0.6043 0.70166 0.0
C326 C 0.52907 0.64981 0.73055 0.0
C327 C 0.50554 0.69263 0.72276 0.0
C328 C 0.46723 0.69152 0.70168 0.0
C329 C 0.44979 0.64728 0.69101 0.0
C330 C 0.53475 0.82078 0.7453 0.0
C331 C 0.53259 0.81718 0.77758 0.0
C332 C 0.52586 0.78041 0.72708 0.0
C333 C 0.5158 0.73593 0.741 0.0
C334 C 0.51467 0.73235 0.77322 0.0
C335 C 0.52276 0.77256 0.7913 0.0
H336 H 0.82702 0.56854 0.74161 0.0
H337 H 0.78609 0.46442 0.81099 0.0
H338 H 0.75683 0.54552 0.7109 0.0
H339 H 0.71699 0.44198 0.78075 0.0
H340 H 0.60982 0.38563 0.71592 0.0
H341 H 0.69184 0.40258 0.73296 0.0
H342 H 0.66863 0.55416 0.71637 0.0
H343 H 0.58756 0.53686 0.69869 0.0
C344 C 0.80332 0.54073 0.75024 0.0
C345 C 0.81206 0.5187 0.77889 0.0
C346 C 0.76321 0.5275 0.73267 0.0
C347 C 0.73157 0.49152 0.74323 0.0
C348 C 0.74103 0.46907 0.77158 0.0
C349 C 0.78049 0.48254 0.78916 0.0
C350 C 0.62292 0.42228 0.71502 0.0
C351 C 0.59224 0.46008 0.70661 0.0
C352 C 0.66964 0.43212 0.72503 0.0
C353 C 0.68646 0.47987 0.72656 0.0
C354 C 0.65694 0.51706 0.71551 0.0
C355 C 0.6103 0.50723 0.70571 0.0
H356 H 0.09725 0.64639 0.17578 0.0
H357 H 0.98708 0.58236 0.2323 0.0
H358 H 0.07195 0.72679 0.19317 0.0
H359 H 0.96114 0.66141 0.24855 0.0
H360 H 1.00498 0.78258 0.31378 0.0
H361 H 0.01737 0.7104 0.2839 0.0
H362 H 0.99637 0.79115 0.19986 0.0
H363 H 0.98354 0.86468 0.23018 0.0
C364 C 0.06652 0.64963 0.19082 0.0
C365 C 0.04429 0.60836 0.20294 0.0
C366 C 0.05203 0.69545 0.20071 0.0
C367 C 0.01508 0.7 0.22253 0.0
C368 C 0.99006 0.65883 0.23202 0.0
C369 C 1.0048 0.61359 0.22259 0.0
C370 C 1.00284 0.78519 0.28895 0.0
C371 C 0.9933 0.8293 0.27434 0.0
C372 C 0.00973 0.74376 0.27183 0.0
C373 C 0.00755 0.74523 0.2396 0.0
C374 C 0.99822 0.78924 0.22471 0.0
C375 C 0.99059 0.83103 0.24202 0.0
H376 H 0.86163 0.09857 0.68441 0.0
H377 H 0.92891 0.98222 0.73429 0.0
H378 H 0.78299 0.07181 0.70362 0.0
H379 H 0.85159 0.95338 0.75118 0.0
H380 H 0.73112 0.96999 0.81903 0.0
H381 H 0.80298 0.98781 0.79009 0.0
H382 H 0.71846 0.01042 0.70795 0.0
H383 H 0.64554 0.99381 0.73741 0.0
C384 C 0.85933 0.06615 0.69826 0.0
C385 C 0.90108 0.04223 0.70781 0.0
C386 C 0.8145 0.0508 0.70928 0.0
C387 C 0.81129 0.01111 0.72954 0.0
C388 C 0.85289 0.98483 0.73637 0.0
C389 C 0.89722 1.00081 0.72619 0.0
C390 C 0.72765 0.97842 0.79478 0.0
C391 C 0.68254 0.9804 0.78058 0.0
C392 C 0.76899 0.98834 0.77805 0.0
C393 C 0.76651 0.99998 0.74655 0.0
C394 C 0.72147 1.00173 0.73218 0.0
C395 C 0.67983 0.99194 0.74903 0.0
H396 H 0.54697 0.91753 0.19941 0.0
H397 H 0.39907 0.8879 0.22081 0.0
H398 H 0.56941 0.83681 0.21632 0.0
H399 H 0.4213 0.80592 0.23703 0.0
H400 H 0.48497 0.65053 0.24813 0.0
H401 H 0.46191 0.72404 0.22016 0.0
H402 H 0.56655 0.80436 0.27182 0.0
H403 H 0.58892 0.73159 0.29998 0.0
C404 C 0.5192 0.89344 0.20743 0.0
C405 C 0.47156 0.9093 0.20958 0.0
C406 C 0.53199 0.84717 0.21694 0.0
C407 C 0.49726 0.81538 0.22851 0.0
C408 C 0.44883 0.82972 0.2282 0.0
C409 C 0.43605 0.87648 0.21883 0.0
C410 C 0.50354 0.68379 0.2531 0.0
C411 C 0.5389 0.6853 0.27617 0.0
C412 C 0.49004 0.72584 0.23729 0.0
C413 C 0.51247 0.76986 0.24378 0.0
C414 C 0.54893 0.77088 0.2661 0.0
C415 C 0.56169 0.72923 0.28228 0.0
H416 H 0.32267 0.4353 0.78373 0.0
H417 H 0.29699 0.56135 0.72745 0.0
H418 H 0.25111 0.45444 0.81421 0.0
H419 H 0.22651 0.58018 0.75754 0.0
H420 H 0.11476 0.62165 0.82455 0.0
H421 H 0.19755 0.60482 0.80922 0.0
H422 H 0.16336 0.45394 0.80143 0.0
H423 H 0.08126 0.47058 0.81684 0.0
C424 C 0.30215 0.46724 0.7781 0.0
C425 C 0.31517 0.49644 0.75298 0.0
C426 C 0.26128 0.4782 0.79549 0.0
C427 C 0.23335 0.519 0.78837 0.0
C428 C 0.24759 0.54897 0.76397 0.0
C429 C 0.28776 0.53773 0.74644 0.0
C430 C 0.12534 0.58481 0.82032 0.0
C431 C 0.09142 0.54758 0.82141 0.0
C432 C 0.17259 0.57517 0.81141 0.0
C433 C 0.18679 0.5281 0.80381 0.0
C434 C 0.1537 0.49048 0.80728 0.0
C435 C 0.10652 0.50014 0.81585 0.0
H436 H 0.05031 0.35639 0.29339 0.0
H437 H 0.02005 0.28243 0.20851 0.0
H438 H 0.02445 0.28489 0.32256 0.0
H439 H 0.9931 0.21224 0.23762 0.0
H440 H 0.89835 0.11981 0.30006 0.0
H441 H 0.9188 0.20008 0.28017 0.0
H442 H 0.05908 0.18872 0.32137 0.0
H443 H 0.03907 0.10806 0.34051 0.0
C444 C 0.0383 0.32494 0.28101 0.0
C445 C 0.03754 0.32489 0.24867 0.0
C446 C 0.02336 0.2843 0.29767 0.0
C447 C 0.00616 0.24364 0.28223 0.0
C448 C 0.0056 0.24352 0.24999 0.0
C449 C 0.02156 0.2835 0.23338 0.0
C450 C 0.93281 0.13533 0.3058 0.0
C451 C 0.96712 0.10821 0.32189 0.0
C452 C 0.94464 0.18088 0.29424 0.0
C453 C 0.99053 0.2002 0.29922 0.0
C454 C 0.02342 0.17463 0.31744 0.0
C455 C 0.01198 0.12868 0.32837 0.0
H456 H 0.38359 0.98969 0.85906 0.0
H457 H 0.3988 0.90829 0.77545 0.0
H458 H 0.30481 0.01889 0.84107 0.0
H459 H 0.32132 0.93712 0.75776 0.0
H460 H 0.23166 0.05362 0.71555 0.0
H461 H 0.30302 0.02697 0.74288 0.0
H462 H 0.21692 0.98646 0.8212 0.0
H463 H 0.14471 0.01311 0.79383 0.0
C464 C 0.36945 0.97695 0.8374 0.0
C465 C 0.39727 0.94728 0.81844 0.0
C466 C 0.32475 0.99382 0.82705 0.0
C467 C 0.30789 0.9811 0.79773 0.0
C468 C 0.33412 0.94832 0.78013 0.0
C469 C 0.37829 0.93163 0.79034 0.0
C470 C 0.22775 0.03968 0.73873 0.0
C471 C 0.18233 0.03467 0.75225 0.0
C472 C 0.26864 0.02436 0.75434 0.0
C473 C 0.26515 1.00394 0.78387 0.0
C474 C 0.22036 1.00196 0.7984 0.0
C475 C 0.17916 0.01711 0.78266 0.0
H476 H 0.48542 0.40975 0.34278 0.0
H477 H 0.63338 0.38482 0.31948 0.0
H478 H 0.46454 0.32914 0.32438 0.0
H479 H 0.61303 0.30423 0.30152 0.0
H480 H 0.54311 0.22384 0.22148 0.0
H481 H 0.56436 0.29159 0.25313 0.0
H482 H 0.47756 0.23527 0.32713 0.0
H483 H 0.45599 0.16588 0.29511 0.0
C484 C 0.51367 0.38607 0.33497 0.0
C485 C 0.56096 0.40284 0.33268 0.0
C486 C 0.50179 0.34009 0.32445 0.0
C487 C 0.53709 0.31077 0.31118 0.0
C488 C 0.58507 0.32631 0.31139 0.0
C489 C 0.59685 0.37211 0.32189 0.0
C490 C 0.52844 0.22539 0.2445 0.0
C491 C 0.49802 0.18904 0.25578 0.0
C492 C 0.54107 0.2642 0.26276 0.0
C493 C 0.52345 0.26819 0.29281 0.0
C494 C 0.49197 0.23273 0.30409 0.0
C495 C 0.47961 0.19319 0.28577 0.0
H496 H 0.23739 0.39907 0.17998 0.0
H497 H 0.13706 0.30944 0.13102 0.0
H498 H 0.29727 0.3363 0.1772 0.0
H499 H 0.19813 0.24675 0.12702 0.0
H500 H 0.30045 0.12503 0.15956 0.0
H501 H 0.23955 0.18782 0.15587 0.0
H502 H 0.35099 0.29489 0.14655 0.0
H503 H 0.41148 0.23241 0.15174 0.0
C504 C 0.22832 0.36625 0.16803 0.0
C505 C 0.18223 0.35957 0.15565 0.0
C506 C 0.263 0.33008 0.16626 0.0
C507 C 0.25304 0.2861 0.15173 0.0
C508 C 0.20715 0.27973 0.13876 0.0
C509 C 0.17215 0.3159 0.14082 0.0
C510 C 0.31185 0.16196 0.15635 0.0
C511 C 0.36088 0.17368 0.15615 0.0
C512 C 0.27686 0.19811 0.15412 0.0
C513 C 0.29 0.24689 0.15126 0.0
C514 C 0.33918 0.2581 0.14959 0.0
C515 C 0.37405 0.22212 0.1523 0.0
H516 H 0.21015 0.12505 0.65749 0.0
H517 H 0.09864 0.23166 0.64766 0.0
H518 H 0.27074 0.18806 0.65352 0.0
H519 H 0.15885 0.29433 0.64222 0.0
H520 H 0.27146 0.39882 0.67737 0.0
H521 H 0.21165 0.336 0.67381 0.0
H522 H 0.31191 0.24687 0.62429 0.0
H523 H 0.37277 0.30948 0.62904 0.0
C524 C 0.19861 0.16182 0.65371 0.0
C525 C 0.14957 0.17336 0.65312 0.0
C526 C 0.23339 0.19807 0.65134 0.0
C527 C 0.21995 0.24669 0.64794 0.0
C528 C 0.17078 0.25764 0.64568 0.0
C529 C 0.13613 0.22158 0.64853 0.0
C530 C 0.28074 0.36609 0.66539 0.0
C531 C 0.32706 0.3594 0.65345 0.0
C532 C 0.24616 0.32993 0.66317 0.0
C533 C 0.25656 0.28605 0.64864 0.0
C534 C 0.30262 0.27978 0.63603 0.0
C535 C 0.33748 0.31591 0.63852 0.0
H536 H 0.9029 0.78572 0.34829 0.0
H537 H 0.81347 0.88636 0.39715 0.0
H538 H 0.84073 0.72525 0.35223 0.0
H539 H 0.75147 0.82481 0.40225 0.0
H540 H 0.63079 0.72143 0.37084 0.0
H541 H 0.69302 0.78289 0.37347 0.0
H542 H 0.80026 0.67185 0.38459 0.0
H543 H 0.73833 0.61072 0.38053 0.0
C544 C 0.87026 0.79473 0.36043 0.0
C545 C 0.86337 0.84103 0.37246 0.0
C546 C 0.83449 0.75977 0.36287 0.0
C547 C 0.79082 0.76975 0.37771 0.0
C548 C 0.78426 0.81584 0.3903 0.0
C549 C 0.82001 0.8511 0.38759 0.0
C550 C 0.66762 0.71025 0.37424 0.0
C551 C 0.67961 0.66116 0.37526 0.0
C552 C 0.70341 0.74554 0.37585 0.0
C553 C 0.75203 0.73259 0.37889 0.0
C554 C 0.76352 0.6834 0.38141 0.0
C555 C 0.72789 0.64822 0.37934 0.0
H556 H 0.71198 0.8955 0.87271 0.0
H557 H 0.60447 0.78827 0.89265 0.0
H558 H 0.77428 0.83387 0.8759 0.0
H559 H 0.66647 0.72719 0.89733 0.0
H560 H 0.77333 0.62196 0.85711 0.0
H561 H 0.71416 0.68482 0.86278 0.0
H562 H 0.82076 0.77677 0.90416 0.0
H563 H 0.88098 0.71381 0.89733 0.0
C564 C 0.70184 0.85902 0.8787 0.0
C565 C 0.6533 0.84665 0.88218 0.0
C566 C 0.73757 0.82359 0.88056 0.0
C567 C 0.72553 0.77513 0.88632 0.0
C568 C 0.67715 0.7637 0.89191 0.0
C569 C 0.64152 0.79885 0.88954 0.0
C570 C 0.78427 0.65533 0.86772 0.0
C571 C 0.83207 0.66261 0.87682 0.0
C572 C 0.75005 0.69151 0.8712 0.0
C573 C 0.76229 0.73608 0.88419 0.0
C574 C 0.80999 0.74318 0.89379 0.0
C575 C 0.8445 0.70693 0.89007 0.0
H576 H 0.03277 0.59044 0.93862 0.0
H577 H 0.91939 0.48514 0.94445 0.0
H578 H 0.05553 0.57244 0.99157 0.0
H579 H 0.94336 0.46541 0.99676 0.0
H580 H 0.96509 0.47289 0.09968 0.0
H581 H 0.94234 0.4937 0.0472 0.0
H582 H 0.09152 0.51568 0.02421 0.0
H583 H 0.11383 0.4971 0.07704 0.0
C584 C 0.01305 0.56305 0.9511 0.0
C585 C 0.97411 0.53942 0.93736 0.0
C586 C 0.02624 0.55248 0.98148 0.0
C587 C 1.00125 0.51751 0.99872 0.0
C588 C 0.96284 0.49333 0.98463 0.0
C589 C 0.94926 0.50439 0.95447 0.0
C590 C 0.99298 0.48229 0.08341 0.0
C591 C 0.04125 0.4833 0.09256 0.0
C592 C 0.98 0.49393 0.05318 0.0
C593 C 0.01504 0.50621 0.03118 0.0
C594 C 0.06336 0.50724 0.04047 0.0
C595 C 0.07625 0.49627 0.0708 0.0
H596 H 0.04038 0.95849 0.60012 0.0
H597 H 0.01238 0.10835 0.58051 0.0
H598 H 0.02326 0.9389 0.54659 0.0
H599 H 0.99757 0.08938 0.52704 0.0
H600 H 0.92924 0.03727 0.43907 0.0
H601 H 0.94353 0.05468 0.49303 0.0
H602 H 0.05291 0.94456 0.49614 0.0
H603 H 0.03686 0.92575 0.44252 0.0
C604 C 0.03082 0.98726 0.58436 0.0
C605 C 0.02757 0.03493 0.59468 0.0
C606 C 0.02133 0.97614 0.55356 0.0
C607 C 0.00895 0.0125 0.53223 0.0
C608 C 0.00593 0.06015 0.54271 0.0
C609 C 0.01475 0.07113 0.57348 0.0
C610 C 0.95644 0.01688 0.45125 0.0
C611 C 0.98188 0.98012 0.43644 0.0
C612 C 0.96485 0.02699 0.48226 0.0
C613 C 0.9995 1.00112 0.49921 0.0
C614 C 0.02531 0.96469 0.48418 0.0
C615 C 0.01641 0.95414 0.45328 0.0
H616 H 0.57261 0.04034 0.93777 0.0
H617 H 0.46866 0.92551 0.94218 0.0
H618 H 0.5578 0.05852 0.99151 0.0
H619 H 0.452 0.94506 0.99562 0.0
H620 H 0.4683 0.95896 0.09959 0.0
H621 H 0.48324 0.94021 0.04569 0.0
H622 H 0.50384 0.09148 0.02616 0.0
H623 H 0.49127 0.10964 0.07999 0.0
C624 C 0.54594 0.0195 0.95008 0.0
C625 C 0.52187 0.98144 0.93565 0.0
C626 C 0.53724 0.03002 0.98098 0.0
C627 C 0.50367 1.00326 0.99819 0.0
C628 C 0.47882 0.96587 0.98345 0.0
C629 C 0.48803 0.95492 0.95266 0.0
C630 C 0.47621 0.98809 0.08374 0.0
C631 C 0.47885 0.03572 0.09417 0.0
C632 C 0.48444 0.97745 0.05273 0.0
C633 C 0.49484 0.01428 0.03132 0.0
C634 C 0.497 0.06193 0.04188 0.0
C635 C 0.4895 0.07243 0.07286 0.0
H636 H 0.59349 0.48472 0.44439 0.0
H637 H 0.48055 0.5907 0.43942 0.0
H638 H 0.56985 0.46438 0.49666 0.0
H639 H 0.45818 0.5721 0.4923 0.0
H640 H 0.39864 0.49516 0.57632 0.0
H641 H 0.4217 0.51451 0.52385 0.0
H642 H 0.57048 0.4911 0.54758 0.0
H643 H 0.5469 0.46948 0.59982 0.0
C644 C 0.56383 0.50402 0.45459 0.0
C645 C 0.5389 0.53934 0.43772 0.0
C646 C 0.55045 0.4926 0.48473 0.0
C647 C 0.51216 0.51666 0.49899 0.0
C648 C 0.48731 0.55214 0.48204 0.0
C649 C 0.50029 0.56307 0.45171 0.0
C650 C 0.4363 0.49415 0.57035 0.0
C651 C 0.47093 0.48063 0.59226 0.0
C652 C 0.44962 0.5056 0.54022 0.0
C653 C 0.49805 0.50455 0.53125 0.0
C654 C 0.53275 0.49148 0.55335 0.0
C655 C 0.51931 0.47934 0.58341 0.0
loop_
_geom_bond_atom_site_label_1
_geom_bond_atom_site_label_2
_geom_bond_distance
_geom_bond_site_symmetry_2
_ccdc_geom_bond_type
Fe0 O2 1.918 . S
Fe0 O5 1.997 . S
Fe0 O6 2.002 . S
Fe0 O11 1.976 . S
Fe0 O14 1.996 1_455 S
Fe1 O2 1.918 . S
Fe1 O9 1.997 . S
Fe1 O12 1.996 . S
Fe1 O16 1.976 . S
Fe1 O19 2.002 . S
O2 Fe0 1.918 . S
O2 Fe1 1.918 . S
O2 Fe3 1.918 . S
Fe3 O2 1.918 . S
Fe3 O4 2.002 . S
Fe3 O13 1.976 1_455 S
Fe3 O17 1.996 . S
Fe3 O20 1.997 . S
O4 Fe3 2.002 . S
O4 C21 1.295 . S
O5 Fe0 1.997 . S
O5 C21 1.235 . S
O6 Fe0 2.002 . S
O6 C7 1.295 . S
C7 O6 1.295 . S
C7 O9 1.235 . S
C8 O13 1.287 . S
C8 O14 1.255 . S
O9 Fe1 1.997 . S
O9 C7 1.235 . S
C10 O16 1.287 . S
C10 O17 1.255 . S
O11 Fe0 1.976 . S
O11 C18 1.287 . S
O12 Fe1 1.996 . S
O12 C18 1.255 . S
O13 Fe3 1.976 1_655 S
O13 C8 1.287 . S
O14 Fe0 1.996 1_655 S
O14 C8 1.255 . S
C15 O19 1.295 . S
C15 O20 1.235 . S
O16 Fe1 1.976 . S
O16 C10 1.287 . S
O17 Fe3 1.996 . S
O17 C10 1.255 . S
C18 O11 1.287 . S
C18 O12 1.255 . S
O19 Fe1 2.002 . S
O19 C15 1.295 . S
O20 Fe3 1.997 . S
O20 C15 1.235 . S
C21 O4 1.295 . S
C21 O5 1.235 . S
Fe22 O24 1.918 . S
Fe22 O27 1.997 . S
Fe22 O28 2.002 . S
Fe22 O33 1.976 1_455 S
Fe22 O36 1.996 . S
Fe23 O24 1.918 . S
Fe23 O31 1.997 . S
Fe23 O34 1.996 1_455 S
Fe23 O38 1.976 1_545 S
Fe23 O41 2.002 . S
O24 Fe22 1.918 . S
O24 Fe23 1.918 . S
O24 Fe25 1.918 . S
Fe25 O24 1.918 . S
Fe25 O26 2.002 . S
Fe25 O35 1.976 . S
Fe25 O39 1.996 1_545 S
Fe25 O42 1.997 . S
O26 Fe25 2.002 . S
O26 C43 1.295 . S
O27 Fe22 1.997 . S
O27 C43 1.235 . S
O28 Fe22 2.002 . S
O28 C29 1.295 . S
C29 O28 1.295 . S
C29 O31 1.235 . S
C30 O35 1.287 . S
C30 O36 1.255 . S
O31 Fe23 1.997 . S
O31 C29 1.235 . S
C32 O38 1.287 . S
C32 O39 1.255 . S
O33 Fe22 1.976 1_655 S
O33 C40 1.287 . S
O34 Fe23 1.996 1_655 S
O34 C40 1.255 . S
O35 Fe25 1.976 . S
O35 C30 1.287 . S
O36 Fe22 1.996 . S
O36 C30 1.255 . S
C37 O41 1.295 . S
C37 O42 1.235 . S
O38 Fe23 1.976 1_565 S
O38 C32 1.287 . S
O39 Fe25 1.996 1_565 S
O39 C32 1.255 . S
C40 O33 1.287 . S
C40 O34 1.255 . S
O41 Fe23 2.002 . S
O41 C37 1.295 . S
O42 Fe25 1.997 . S
O42 C37 1.235 . S
C43 O26 1.295 . S
C43 O27 1.235 . S
Fe44 O46 1.918 . S
Fe44 O49 1.997 . S
Fe44 O50 2.002 . S
Fe44 O55 1.976 . S
Fe44 O58 1.996 1_545 S
Fe45 O46 1.918 . S
Fe45 O53 1.997 . S
Fe45 O56 1.996 . S
Fe45 O60 1.976 . S
Fe45 O63 2.002 . S
O46 Fe44 1.918 . S
O46 Fe45 1.918 . S
O46 Fe47 1.918 . S
Fe47 O46 1.918 . S
Fe47 O48 2.002 . S
Fe47 O57 1.976 1_545 S
Fe47 O61 1.996 . S
Fe47 O64 1.997 . S
O48 Fe47 2.002 . S
O48 C65 1.295 . S
O49 Fe44 1.997 . S
O49 C65 1.235 . S
O50 Fe44 2.002 . S
O50 C51 1.295 . S
C51 O50 1.295 . S
C51 O53 1.235 . S
C52 O57 1.287 . S
C52 O58 1.255 . S
O53 Fe45 1.997 . S
O53 C51 1.235 . S
C54 O60 1.287 . S
C54 O61 1.255 . S
O55 Fe44 1.976 . S
O55 C62 1.287 . S
O56 Fe45 1.996 . S
O56 C62 1.255 . S
O57 Fe47 1.976 1_565 S
O57 C52 1.287 . S
O58 Fe44 1.996 1_565 S
O58 C52 1.255 . S
C59 O63 1.295 . S
C59 O64 1.235 . S
O60 Fe45 1.976 . S
O60 C54 1.287 . S
O61 Fe47 1.996 . S
O61 C54 1.255 . S
C62 O55 1.287 . S
C62 O56 1.255 . S
O63 Fe45 2.002 . S
O63 C59 1.295 . S
O64 Fe47 1.997 . S
O64 C59 1.235 . S
C65 O48 1.295 . S
C65 O49 1.235 . S
Fe66 O68 1.918 . S
Fe66 O71 1.997 . S
Fe66 O72 2.002 . S
Fe66 O77 1.976 . S
Fe66 O80 1.996 . S
Fe67 O68 1.918 . S
Fe67 O75 1.997 . S
Fe67 O78 1.996 . S
Fe67 O82 1.976 . S
Fe67 O85 2.002 . S
O68 Fe66 1.918 . S
O68 Fe67 1.918 . S
O68 Fe69 1.918 . S
Fe69 O68 1.918 . S
Fe69 O70 2.002 . S
Fe69 O79 1.976 . S
Fe69 O83 1.996 . S
Fe69 O86 1.997 . S
O70 Fe69 2.002 . S
O70 C87 1.295 . S
O71 Fe66 1.997 . S
O71 C87 1.235 . S
O72 Fe66 2.002 . S
O72 C73 1.295 . S
C73 O72 1.295 . S
C73 O75 1.235 . S
C74 O79 1.287 . S
C74 O80 1.255 . S
O75 Fe67 1.997 . S
O75 C73 1.235 . S
C76 O82 1.287 . S
C76 O83 1.255 . S
O77 Fe66 1.976 . S
O77 C84 1.287 . S
O78 Fe67 1.996 . S
O78 C84 1.255 . S
O79 Fe69 1.976 . S
O79 C74 1.287 . S
O80 Fe66 1.996 . S
O80 C74 1.255 . S
C81 O85 1.295 . S
C81 O86 1.235 . S
O82 Fe67 1.976 . S
O82 C76 1.287 . S
O83 Fe69 1.996 . S
O83 C76 1.255 . S
C84 O77 1.287 . S
C84 O78 1.255 . S
O85 Fe67 2.002 . S
O85 C81 1.295 . S
O86 Fe69 1.997 . S
O86 C81 1.235 . S
C87 O70 1.295 . S
C87 O71 1.235 . S
Fe88 O90 1.918 . S
Fe88 O93 1.997 . S
Fe88 O94 2.002 . S
Fe88 O99 1.976 . S
Fe88 O102 1.996 . S
Fe89 O90 1.918 . S
Fe89 O97 1.997 . S
Fe89 O100 1.996 . S
Fe89 O104 1.976 . S
Fe89 O107 2.002 . S
O90 Fe88 1.918 . S
O90 Fe89 1.918 . S
O90 Fe91 1.918 . S
Fe91 O90 1.918 . S
Fe91 O92 2.002 . S
Fe91 O101 1.976 . S
Fe91 O105 1.996 . S
Fe91 O108 1.997 . S
O92 Fe91 2.002 . S
O92 C109 1.295 . S
O93 Fe88 1.997 . S
O93 C109 1.235 . S
O94 Fe88 2.002 . S
O94 C95 1.295 . S
C95 O94 1.295 . S
C95 O97 1.235 . S
C96 O101 1.287 . S
C96 O102 1.255 . S
O97 Fe89 1.997 . S
O97 C95 1.235 . S
C98 O104 1.287 . S
C98 O105 1.255 . S
O99 Fe88 1.976 . S
O99 C106 1.287 . S
O100 Fe89 1.996 . S
O100 C106 1.255 . S
O101 Fe91 1.976 . S
O101 C96 1.287 . S
O102 Fe88 1.996 . S
O102 C96 1.255 . S
C103 O107 1.295 . S
C103 O108 1.235 . S
O104 Fe89 1.976 . S
O104 C98 1.287 . S
O105 Fe91 1.996 . S
O105 C98 1.255 . S
C106 O99 1.287 . S
C106 O100 1.255 . S
O107 Fe89 2.002 . S
O107 C103 1.295 . S
O108 Fe91 1.997 . S
O108 C103 1.235 . S
C109 O92 1.295 . S
C109 O93 1.235 . S
Fe110 O112 1.918 . S
Fe110 O115 1.997 . S
Fe110 O116 2.002 . S
Fe110 O121 1.976 1_655 S
Fe110 O124 1.996 . S
Fe111 O112 1.918 . S
Fe111 O119 1.997 . S
Fe111 O122 1.996 1_655 S
Fe111 O126 1.976 . S
Fe111 O129 2.002 . S
O112 Fe110 1.918 . S
O112 Fe111 1.918 . S
O112 Fe113 1.918 . S
Fe113 O112 1.918 . S
Fe113 O114 2.002 . S
Fe113 O123 1.976 . S
Fe113 O127 1.996 . S
Fe113 O130 1.997 . S
O114 Fe113 2.002 . S
O114 C131 1.295 . S
O115 Fe110 1.997 . S
O115 C131 1.235 . S
O116 Fe110 2.002 . S
O116 C117 1.295 . S
C117 O116 1.295 . S
C117 O119 1.235 . S
C118 O123 1.287 . S
C118 O124 1.255 . S
O119 Fe111 1.997 . S
O119 C117 1.235 . S
C120 O126 1.287 . S
C120 O127 1.255 . S
O121 Fe110 1.976 1_455 S
O121 C128 1.287 . S
O122 Fe111 1.996 1_455 S
O122 C128 1.255 . S
O123 Fe113 1.976 . S
O123 C118 1.287 . S
O124 Fe110 1.996 . S
O124 C118 1.255 . S
C125 O129 1.295 . S
C125 O130 1.235 . S
O126 Fe111 1.976 . S
O126 C120 1.287 . S
O127 Fe113 1.996 . S
O127 C120 1.255 . S
C128 O121 1.287 . S
C128 O122 1.255 . S
O129 Fe111 2.002 . S
O129 C125 1.295 . S
O130 Fe113 1.997 . S
O130 C125 1.235 . S
C131 O114 1.295 . S
C131 O115 1.235 . S
Fe132 O134 1.918 . S
Fe132 O137 1.997 . S
Fe132 O138 2.002 . S
Fe132 O143 1.976 1_655 S
Fe132 O146 1.996 1_565 S
Fe133 O134 1.918 . S
Fe133 O141 1.997 . S
Fe133 O144 1.996 1_655 S
Fe133 O148 1.976 . S
Fe133 O151 2.002 . S
O134 Fe132 1.918 . S
O134 Fe133 1.918 . S
O134 Fe135 1.918 . S
Fe135 O134 1.918 . S
Fe135 O136 2.002 . S
Fe135 O145 1.976 1_565 S
Fe135 O149 1.996 . S
Fe135 O152 1.997 . S
O136 Fe135 2.002 . S
O136 C153 1.295 . S
O137 Fe132 1.997 . S
O137 C153 1.235 . S
O138 Fe132 2.002 . S
O138 C139 1.295 . S
C139 O138 1.295 . S
C139 O141 1.235 . S
C140 O145 1.287 . S
C140 O146 1.255 . S
O141 Fe133 1.997 . S
O141 C139 1.235 . S
C142 O148 1.287 . S
C142 O149 1.255 . S
O143 Fe132 1.976 1_455 S
O143 C150 1.287 . S
O144 Fe133 1.996 1_455 S
O144 C150 1.255 . S
O145 Fe135 1.976 1_545 S
O145 C140 1.287 . S
O146 Fe132 1.996 1_545 S
O146 C140 1.255 . S
C147 O151 1.295 . S
C147 O152 1.235 . S
O148 Fe133 1.976 . S
O148 C142 1.287 . S
O149 Fe135 1.996 . S
O149 C142 1.255 . S
C150 O143 1.287 . S
C150 O144 1.255 . S
O151 Fe133 2.002 . S
O151 C147 1.295 . S
O152 Fe135 1.997 . S
O152 C147 1.235 . S
C153 O136 1.295 . S
C153 O137 1.235 . S
Fe154 O156 1.918 . S
Fe154 O159 1.997 . S
Fe154 O160 2.002 . S
Fe154 O165 1.976 . S
Fe154 O168 1.996 1_565 S
Fe155 O156 1.918 . S
Fe155 O163 1.997 . S
Fe155 O166 1.996 . S
Fe155 O170 1.976 . S
Fe155 O173 2.002 . S
O156 Fe154 1.918 . S
O156 Fe155 1.918 . S
O156 Fe157 1.918 . S
Fe157 O156 1.918 . S
Fe157 O158 2.002 . S
Fe157 O167 1.976 1_565 S
Fe157 O171 1.996 . S
Fe157 O174 1.997 . S
O158 Fe157 2.002 . S
O158 C175 1.295 . S
O159 Fe154 1.997 . S
O159 C175 1.235 . S
O160 Fe154 2.002 . S
O160 C161 1.295 . S
C161 O160 1.295 . S
C161 O163 1.235 . S
C162 O167 1.287 . S
C162 O168 1.255 . S
O163 Fe155 1.997 . S
O163 C161 1.235 . S
C164 O170 1.287 . S
C164 O171 1.255 . S
O165 Fe154 1.976 . S
O165 C172 1.287 . S
O166 Fe155 1.996 . S
O166 C172 1.255 . S
O167 Fe157 1.976 1_545 S
O167 C162 1.287 . S
O168 Fe154 1.996 1_545 S
O168 C162 1.255 . S
C169 O173 1.295 . S
C169 O174 1.235 . S
O170 Fe155 1.976 . S
O170 C164 1.287 . S
O171 Fe157 1.996 . S
O171 C164 1.255 . S
C172 O165 1.287 . S
C172 O166 1.255 . S
O173 Fe155 2.002 . S
O173 C169 1.295 . S
O174 Fe157 1.997 . S
O174 C169 1.235 . S
C175 O158 1.295 . S
C175 O159 1.235 . S
H176 C184 0.950 . S
H177 C189 0.950 . S
H178 C186 0.950 . S
H179 C188 0.950 . S
H180 C190 0.950 . S
H181 C192 0.950 . S
H182 C194 0.950 . S
H183 C195 0.950 . S
C184 H176 0.950 . S
C184 C185 1.386 . S
C184 C186 1.391 . S
C185 C184 1.386 . S
C185 C189 1.393 . S
C186 H178 0.950 . S
C186 C184 1.391 . S
C186 C187 1.400 . S
C187 C186 1.400 . S
C187 C188 1.398 . S
C187 C193 1.491 . S
C188 H179 0.950 . S
C188 C187 1.398 . S
C188 C189 1.391 . S
C189 H177 0.950 . S
C189 C185 1.393 . S
C189 C188 1.391 . S
C190 H180 0.950 . S
C190 C191 1.386 . S
C190 C192 1.391 . S
C191 C190 1.386 . S
C191 C195 1.393 . S
C192 H181 0.950 . S
C192 C190 1.391 . S
C192 C193 1.400 . S
C193 C187 1.491 . S
C193 C192 1.400 . S
C193 C194 1.398 . S
C194 H182 0.950 . S
C194 C193 1.398 . S
C194 C195 1.391 . S
C195 H183 0.950 . S
C195 C191 1.393 . S
C195 C194 1.391 . S
H196 C204 0.950 1_455 S
H197 C209 0.950 . S
H198 C206 0.950 . S
H199 C208 0.950 . S
H200 C210 0.950 . S
H201 C212 0.950 . S
H202 C214 0.950 . S
H203 C215 0.950 . S
C204 H196 0.950 1_655 S
C204 C205 1.386 . S
C204 C206 1.391 1_655 S
C205 C204 1.386 . S
C205 C209 1.393 . S
C206 H198 0.950 . S
C206 C204 1.391 1_455 S
C206 C207 1.400 1_455 S
C207 C206 1.400 1_655 S
C207 C208 1.398 . S
C207 C213 1.491 . S
C208 H199 0.950 . S
C208 C207 1.398 . S
C208 C209 1.391 . S
C209 H197 0.950 . S
C209 C205 1.393 . S
C209 C208 1.391 . S
C210 H200 0.950 . S
C210 C211 1.386 1_655 S
C210 C212 1.391 . S
C211 C210 1.386 1_455 S
C211 C215 1.393 . S
C212 H201 0.950 . S
C212 C210 1.391 . S
C212 C213 1.400 . S
C213 C207 1.491 . S
C213 C212 1.400 . S
C213 C214 1.398 1_655 S
C214 H202 0.950 . S
C214 C213 1.398 1_455 S
C214 C215 1.391 . S
C215 H203 0.950 . S
C215 C211 1.393 . S
C215 C214 1.391 . S
H216 C224 0.950 . S
H217 C229 0.950 . S
H218 C226 0.950 . S
H219 C228 0.950 . S
H220 C230 0.950 1_545 S
H221 C232 0.950 . S
H222 C234 0.950 . S
H223 C235 0.950 . S
C224 H216 0.950 . S
C224 C225 1.386 1_565 S
C224 C226 1.391 . S
C225 C224 1.386 1_545 S
C225 C229 1.393 . S
C226 H218 0.950 . S
C226 C224 1.391 . S
C226 C227 1.400 . S
C227 C226 1.400 . S
C227 C228 1.398 1_565 S
C227 C233 1.491 . S
C228 H219 0.950 . S
C228 C227 1.398 1_545 S
C228 C229 1.391 . S
C229 H217 0.950 . S
C229 C225 1.393 . S
C229 C228 1.391 . S
C230 H220 0.950 1_565 S
C230 C231 1.386 . S
C230 C232 1.391 1_565 S
C231 C230 1.386 . S
C231 C235 1.393 . S
C232 H221 0.950 . S
C232 C230 1.391 1_545 S
C232 C233 1.400 1_545 S
C233 C227 1.491 . S
C233 C232 1.400 1_565 S
C233 C234 1.398 . S
C234 H222 0.950 . S
C234 C233 1.398 . S
C234 C235 1.391 . S
C235 H223 0.950 . S
C235 C231 1.393 . S
C235 C234 1.391 . S
H236 C244 0.950 . S
H237 C249 0.950 . S
H238 C246 0.950 . S
H239 C248 0.950 . S
H240 C250 0.950 . S
H241 C252 0.950 . S
H242 C254 0.950 . S
H243 C255 0.950 . S
C244 H236 0.950 . S
C244 C245 1.386 . S
C244 C246 1.391 . S
C245 C244 1.386 . S
C245 C249 1.393 . S
C246 H238 0.950 . S
C246 C244 1.391 . S
C246 C247 1.400 . S
C247 C246 1.400 . S
C247 C248 1.398 . S
C247 C253 1.491 . S
C248 H239 0.950 . S
C248 C247 1.398 . S
C248 C249 1.391 . S
C249 H237 0.950 . S
C249 C245 1.393 . S
C249 C248 1.391 . S
C250 H240 0.950 . S
C250 C251 1.386 . S
C250 C252 1.391 . S
C251 C250 1.386 . S
C251 C255 1.393 . S
C252 H241 0.950 . S
C252 C250 1.391 . S
C252 C253 1.400 . S
C253 C247 1.491 . S
C253 C252 1.400 . S
C253 C254 1.398 . S
C254 H242 0.950 . S
C254 C253 1.398 . S
C254 C255 1.391 . S
C255 H243 0.950 . S
C255 C251 1.393 . S
C255 C254 1.391 . S
H256 C264 0.950 . S
H257 C269 0.950 . S
H258 C266 0.950 . S
H259 C268 0.950 . S
H260 C270 0.950 . S
H261 C272 0.950 . S
H262 C274 0.950 . S
H263 C275 0.950 . S
C264 H256 0.950 . S
C264 C265 1.386 . S
C264 C266 1.391 . S
C265 C264 1.386 . S
C265 C269 1.393 . S
C266 H258 0.950 . S
C266 C264 1.391 . S
C266 C267 1.400 . S
C267 C266 1.400 . S
C267 C268 1.398 . S
C267 C273 1.491 . S
C268 H259 0.950 . S
C268 C267 1.398 . S
C268 C269 1.391 . S
C269 H257 0.950 . S
C269 C265 1.393 . S
C269 C268 1.391 . S
C270 H260 0.950 . S
C270 C271 1.386 . S
C270 C272 1.391 . S
C271 C270 1.386 . S
C271 C275 1.393 . S
C272 H261 0.950 . S
C272 C270 1.391 . S
C272 C273 1.400 . S
C273 C267 1.491 . S
C273 C272 1.400 . S
C273 C274 1.398 . S
C274 H262 0.950 . S
C274 C273 1.398 . S
C274 C275 1.391 . S
C275 H263 0.950 . S
C275 C271 1.393 . S
C275 C274 1.391 . S
H276 C284 0.950 . S
H277 C289 0.950 . S
H278 C286 0.950 . S
H279 C288 0.950 . S
H280 C290 0.950 . S
H281 C292 0.950 . S
H282 C294 0.950 . S
H283 C295 0.950 . S
C284 H276 0.950 . S
C284 C285 1.386 1_655 S
C284 C286 1.391 . S
C285 C284 1.386 1_455 S
C285 C289 1.393 . S
C286 H278 0.950 . S
C286 C284 1.391 . S
C286 C287 1.400 1_655 S
C287 C286 1.400 1_455 S
C287 C288 1.398 . S
C287 C293 1.491 . S
C288 H279 0.950 . S
C288 C287 1.398 . S
C288 C289 1.391 . S
C289 H277 0.950 . S
C289 C285 1.393 . S
C289 C288 1.391 . S
C290 H280 0.950 . S
C290 C291 1.386 1_455 S
C290 C292 1.391 . S
C291 C290 1.386 1_655 S
C291 C295 1.393 . S
C292 H281 0.950 . S
C292 C290 1.391 . S
C292 C293 1.400 . S
C293 C287 1.491 . S
C293 C292 1.400 . S
C293 C294 1.398 1_455 S
C294 H282 0.950 . S
C294 C293 1.398 1_655 S
C294 C295 1.391 . S
C295 H283 0.950 . S
C295 C291 1.393 . S
C295 C294 1.391 . S
H296 C304 0.950 . S
H297 C309 0.950 . S
H298 C306 0.944 1_565 S
H299 C308 0.950 . S
H300 C310 0.950 . S
H301 C312 0.950 . S
H302 C314 0.950 . S
H303 C315 0.950 . S
C304 H296 0.950 . S
C304 C305 1.386 . S
C304 C306 1.394 . S
C305 C304 1.386 . S
C305 C309 1.393 . S
C306 H298 0.944 1_545 S
C306 C304 1.394 . S
C306 C307 1.403 . S
C307 C306 1.403 . S
C307 C308 1.398 . S
C307 C313 1.491 . S
C308 H299 0.950 . S
C308 C307 1.398 . S
C308 C309 1.391 . S
C309 H297 0.950 . S
C309 C305 1.393 . S
C309 C308 1.391 . S
C310 H300 0.950 . S
C310 C311 1.386 1_545 S
C310 C312 1.391 . S
C311 C310 1.386 1_565 S
C311 C315 1.393 . S
C312 H301 0.950 . S
C312 C310 1.391 . S
C312 C313 1.400 . S
C313 C307 1.491 . S
C313 C312 1.400 . S
C313 C314 1.398 1_545 S
C314 H302 0.950 . S
C314 C313 1.398 1_565 S
C314 C315 1.391 . S
C315 H303 0.950 . S
C315 C311 1.393 . S
C315 C314 1.391 . S
H316 C324 0.950 . S
H317 C329 0.950 . S
H318 C326 0.950 . S
H319 C328 0.950 . S
H320 C330 0.950 . S
H321 C332 0.950 . S
H322 C334 0.950 . S
H323 C335 0.950 . S
C324 H316 0.950 . S
C324 C325 1.386 . S
C324 C326 1.391 . S
C325 C324 1.386 . S
C325 C329 1.393 . S
C326 H318 0.950 . S
C326 C324 1.391 . S
C326 C327 1.400 . S
C327 C326 1.400 . S
C327 C328 1.398 . S
C327 C333 1.491 . S
C328 H319 0.950 . S
C328 C327 1.398 . S
C328 C329 1.391 . S
C329 H317 0.950 . S
C329 C325 1.393 . S
C329 C328 1.391 . S
C330 H320 0.950 . S
C330 C331 1.386 . S
C330 C332 1.391 . S
C331 C330 1.386 . S
C331 C335 1.393 . S
C332 H321 0.950 . S
C332 C330 1.391 . S
C332 C333 1.400 . S
C333 C327 1.491 . S
C333 C332 1.400 . S
C333 C334 1.398 . S
C334 H322 0.950 . S
C334 C333 1.398 . S
C334 C335 1.391 . S
C335 H323 0.950 . S
C335 C331 1.393 . S
C335 C334 1.391 . S
H336 C344 0.950 . S
H337 C349 0.950 . S
H338 C346 0.950 . S
H339 C348 0.950 . S
H340 C350 0.950 . S
H341 C352 0.950 . S
H342 C354 0.950 . S
H343 C355 0.950 . S
C344 H336 0.950 . S
C344 C345 1.386 . S
C344 C346 1.391 . S
C345 C344 1.386 . S
C345 C349 1.393 . S
C346 H338 0.950 . S
C346 C344 1.391 . S
C346 C347 1.400 . S
C347 C346 1.400 . S
C347 C348 1.398 . S
C347 C353 1.491 . S
C348 H339 0.950 . S
C348 C347 1.398 . S
C348 C349 1.391 . S
C349 H337 0.950 . S
C349 C345 1.393 . S
C349 C348 1.391 . S
C350 H340 0.950 . S
C350 C351 1.386 . S
C350 C352 1.391 . S
C351 C350 1.386 . S
C351 C355 1.393 . S
C352 H341 0.950 . S
C352 C350 1.391 . S
C352 C353 1.400 . S
C353 C347 1.491 . S
C353 C352 1.400 . S
C353 C354 1.398 . S
C354 H342 0.950 . S
C354 C353 1.398 . S
C354 C355 1.391 . S
C355 H343 0.950 . S
C355 C351 1.393 . S
C355 C354 1.391 . S
H356 C364 0.950 . S
H357 C369 0.950 1_655 S
H358 C366 0.950 . S
H359 C368 0.950 . S
H360 C370 0.950 . S
H361 C372 0.950 . S
H362 C374 0.950 . S
H363 C375 0.950 . S
C364 H356 0.950 . S
C364 C365 1.386 . S
C364 C366 1.391 . S
C365 C364 1.386 . S
C365 C369 1.393 . S
C366 H358 0.950 . S
C366 C364 1.391 . S
C366 C367 1.400 . S
C367 C366 1.400 . S
C367 C368 1.398 1_455 S
C367 C373 1.491 . S
C368 H359 0.950 . S
C368 C367 1.398 1_655 S
C368 C369 1.391 1_655 S
C369 H357 0.950 1_455 S
C369 C365 1.393 . S
C369 C368 1.391 1_455 S
C370 H360 0.950 . S
C370 C371 1.386 . S
C370 C372 1.391 . S
C371 C370 1.386 . S
C371 C375 1.393 1_655 S
C372 H361 0.950 . S
C372 C370 1.391 . S
C372 C373 1.400 1_655 S
C373 C367 1.491 . S
C373 C372 1.400 1_455 S
C373 C374 1.398 . S
C374 H362 0.950 . S
C374 C373 1.398 . S
C374 C375 1.391 . S
C375 H363 0.950 . S
C375 C371 1.393 1_455 S
C375 C374 1.391 . S
H376 C384 0.950 . S
H377 C389 0.950 1_565 S
H378 C386 0.950 . S
H379 C388 0.950 . S
H380 C390 0.950 . S
H381 C392 0.950 . S
H382 C394 0.950 . S
H383 C395 0.950 . S
C384 H376 0.950 . S
C384 C385 1.386 . S
C384 C386 1.391 . S
C385 C384 1.386 . S
C385 C389 1.393 . S
C386 H378 0.950 . S
C386 C384 1.391 . S
C386 C387 1.400 . S
C387 C386 1.400 . S
C387 C388 1.398 1_545 S
C387 C393 1.491 . S
C388 H379 0.950 . S
C388 C387 1.398 1_565 S
C388 C389 1.391 1_565 S
C389 H377 0.950 1_545 S
C389 C385 1.393 . S
C389 C388 1.391 1_545 S
C390 H380 0.950 . S
C390 C391 1.386 . S
C390 C392 1.391 . S
C391 C390 1.386 . S
C391 C395 1.393 1_565 S
C392 H381 0.950 . S
C392 C390 1.391 . S
C392 C393 1.400 1_565 S
C393 C387 1.491 . S
C393 C392 1.400 1_545 S
C393 C394 1.398 . S
C394 H382 0.950 . S
C394 C393 1.398 . S
C394 C395 1.391 . S
C395 H383 0.950 . S
C395 C391 1.393 1_545 S
C395 C394 1.391 . S
H396 C404 0.950 . S
H397 C409 0.950 . S
H398 C406 0.950 . S
H399 C408 0.950 . S
H400 C410 0.950 . S
H401 C412 0.950 . S
H402 C414 0.950 . S
H403 C415 0.950 . S
C404 H396 0.950 . S
C404 C405 1.386 . S
C404 C406 1.391 . S
C405 C404 1.386 . S
C405 C409 1.393 . S
C406 H398 0.950 . S
C406 C404 1.391 . S
C406 C407 1.400 . S
C407 C406 1.400 . S
C407 C408 1.398 . S
C407 C413 1.491 . S
C408 H399 0.950 . S
C408 C407 1.398 . S
C408 C409 1.391 . S
C409 H397 0.950 . S
C409 C405 1.393 . S
C409 C408 1.391 . S
C410 H400 0.950 . S
C410 C411 1.386 . S
C410 C412 1.391 . S
C411 C410 1.386 . S
C411 C415 1.393 . S
C412 H401 0.950 . S
C412 C410 1.391 . S
C412 C413 1.400 . S
C413 C407 1.491 . S
C413 C412 1.400 . S
C413 C414 1.398 . S
C414 H402 0.950 . S
C414 C413 1.398 . S
C414 C415 1.391 . S
C415 H403 0.950 . S
C415 C411 1.393 . S
C415 C414 1.391 . S
H416 C424 0.950 . S
H417 C429 0.950 . S
H418 C426 0.950 . S
H419 C428 0.950 . S
H420 C430 0.950 . S
H421 C432 0.950 . S
H422 C434 0.950 . S
H423 C435 0.950 . S
C424 H416 0.950 . S
C424 C425 1.386 . S
C424 C426 1.391 . S
C425 C424 1.386 . S
C425 C429 1.393 . S
C426 H418 0.950 . S
C426 C424 1.391 . S
C426 C427 1.400 . S
C427 C426 1.400 . S
C427 C428 1.398 . S
C427 C433 1.491 . S
C428 H419 0.950 . S
C428 C427 1.398 . S
C428 C429 1.391 . S
C429 H417 0.950 . S
C429 C425 1.393 . S
C429 C428 1.391 . S
C430 H420 0.950 . S
C430 C431 1.386 . S
C430 C432 1.391 . S
C431 C430 1.386 . S
C431 C435 1.393 . S
C432 H421 0.950 . S
C432 C430 1.391 . S
C432 C433 1.400 . S
C433 C427 1.491 . S
C433 C432 1.400 . S
C433 C434 1.398 . S
C434 H422 0.950 . S
C434 C433 1.398 . S
C434 C435 1.391 . S
C435 H423 0.950 . S
C435 C431 1.393 . S
C435 C434 1.391 . S
H436 C444 0.950 . S
H437 C449 0.950 . S
H438 C446 0.950 . S
H439 C448 0.950 . S
H440 C450 0.950 . S
H441 C452 0.950 . S
H442 C454 0.950 . S
H443 C455 0.950 1_455 S
C444 H436 0.950 . S
C444 C445 1.386 . S
C444 C446 1.391 . S
C445 C444 1.386 . S
C445 C449 1.393 1_455 S
C446 H438 0.950 . S
C446 C444 1.391 . S
C446 C447 1.400 1_455 S
C447 C446 1.400 1_655 S
C447 C448 1.398 . S
C447 C453 1.491 . S
C448 H439 0.950 . S
C448 C447 1.398 . S
C448 C449 1.391 . S
C449 H437 0.950 . S
C449 C445 1.393 1_655 S
C449 C448 1.391 . S
C450 H440 0.950 . S
C450 C451 1.386 . S
C450 C452 1.391 . S
C451 C450 1.386 . S
C451 C455 1.393 . S
C452 H441 0.950 . S
C452 C450 1.391 . S
C452 C453 1.400 . S
C453 C447 1.491 . S
C453 C452 1.400 . S
C453 C454 1.398 1_655 S
C454 H442 0.950 . S
C454 C453 1.398 1_455 S
C454 C455 1.391 1_455 S
C455 H443 0.950 1_655 S
C455 C451 1.393 . S
C455 C454 1.391 1_655 S
H456 C464 0.950 1_545 S
H457 C469 0.950 . S
H458 C466 0.950 . S
H459 C468 0.950 . S
H460 C470 0.950 . S
H461 C472 0.950 . S
H462 C474 0.950 . S
H463 C475 0.950 . S
C464 H456 0.950 1_565 S
C464 C465 1.386 . S
C464 C466 1.391 1_565 S
C465 C464 1.386 . S
C465 C469 1.393 . S
C466 H458 0.950 . S
C466 C464 1.391 1_545 S
C466 C467 1.400 1_545 S
C467 C466 1.400 1_565 S
C467 C468 1.398 . S
C467 C473 1.491 . S
C468 H459 0.950 . S
C468 C467 1.398 . S
C468 C469 1.391 . S
C469 H457 0.950 . S
C469 C465 1.393 . S
C469 C468 1.391 . S
C470 H460 0.950 . S
C470 C471 1.386 1_565 S
C470 C472 1.391 . S
C471 C470 1.386 1_545 S
C471 C475 1.393 . S
C472 H461 0.950 . S
C472 C470 1.391 . S
C472 C473 1.400 . S
C473 C467 1.491 . S
C473 C472 1.400 . S
C473 C474 1.398 1_565 S
C474 H462 0.950 . S
C474 C473 1.398 1_545 S
C474 C475 1.391 . S
C475 H463 0.950 . S
C475 C471 1.393 . S
C475 C474 1.391 . S
H476 C484 0.950 . S
H477 C489 0.950 . S
H478 C486 0.950 . S
H479 C488 0.950 . S
H480 C490 0.950 . S
H481 C492 0.950 . S
H482 C494 0.950 . S
H483 C495 0.950 . S
C484 H476 0.950 . S
C484 C485 1.386 . S
C484 C486 1.391 . S
C485 C484 1.386 . S
C485 C489 1.393 . S
C486 H478 0.950 . S
C486 C484 1.391 . S
C486 C487 1.400 . S
C487 C486 1.400 . S
C487 C488 1.398 . S
C487 C493 1.491 . S
C488 H479 0.950 . S
C488 C487 1.398 . S
C488 C489 1.391 . S
C489 H477 0.950 . S
C489 C485 1.393 . S
C489 C488 1.391 . S
C490 H480 0.950 . S
C490 C491 1.386 . S
C490 C492 1.391 . S
C491 C490 1.386 . S
C491 C495 1.393 . S
C492 H481 0.950 . S
C492 C490 1.391 . S
C492 C493 1.400 . S
C493 C487 1.491 . S
C493 C492 1.400 . S
C493 C494 1.398 . S
C494 H482 0.950 . S
C494 C493 1.398 . S
C494 C495 1.391 . S
C495 H483 0.950 . S
C495 C491 1.393 . S
C495 C494 1.391 . S
H496 C504 0.950 . S
H497 C509 0.950 . S
H498 C506 0.950 . S
H499 C508 0.950 . S
H500 C510 0.950 . S
H501 C512 0.950 . S
H502 C514 0.950 . S
H503 C515 0.950 . S
C504 H496 0.950 . S
C504 C505 1.386 . S
C504 C506 1.391 . S
C505 C504 1.386 . S
C505 C509 1.393 . S
C506 H498 0.950 . S
C506 C504 1.391 . S
C506 C507 1.400 . S
C507 C506 1.400 . S
C507 C508 1.398 . S
C507 C513 1.491 . S
C508 H499 0.950 . S
C508 C507 1.398 . S
C508 C509 1.391 . S
C509 H497 0.950 . S
C509 C505 1.393 . S
C509 C508 1.391 . S
C510 H500 0.950 . S
C510 C511 1.386 . S
C510 C512 1.391 . S
C511 C510 1.386 . S
C511 C515 1.393 . S
C512 H501 0.950 . S
C512 C510 1.391 . S
C512 C513 1.400 . S
C513 C507 1.491 . S
C513 C512 1.400 . S
C513 C514 1.398 . S
C514 H502 0.950 . S
C514 C513 1.398 . S
C514 C515 1.391 . S
C515 H503 0.950 . S
C515 C511 1.393 . S
C515 C514 1.391 . S
H516 C524 0.950 . S
H517 C529 0.950 . S
H518 C526 0.950 . S
H519 C528 0.950 . S
H520 C530 0.950 . S
H521 C532 0.950 . S
H522 C534 0.950 . S
H523 C535 0.950 . S
C524 H516 0.950 . S
C524 C525 1.386 . S
C524 C526 1.391 . S
C525 C524 1.386 . S
C525 C529 1.393 . S
C526 H518 0.950 . S
C526 C524 1.391 . S
C526 C527 1.400 . S
C527 C526 1.400 . S
C527 C528 1.398 . S
C527 C533 1.491 . S
C528 H519 0.950 . S
C528 C527 1.398 . S
C528 C529 1.391 . S
C529 H517 0.950 . S
C529 C525 1.393 . S
C529 C528 1.391 . S
C530 H520 0.950 . S
C530 C531 1.386 . S
C530 C532 1.391 . S
C531 C530 1.386 . S
C531 C535 1.393 . S
C532 H521 0.950 . S
C532 C530 1.391 . S
C532 C533 1.400 . S
C533 C527 1.491 . S
C533 C532 1.400 . S
C533 C534 1.398 . S
C534 H522 0.950 . S
C534 C533 1.398 . S
C534 C535 1.391 . S
C535 H523 0.950 . S
C535 C531 1.393 . S
C535 C534 1.391 . S
H536 C544 0.950 . S
H537 C549 0.950 . S
H538 C546 0.950 . S
H539 C548 0.950 . S
H540 C550 0.950 . S
H541 C552 0.950 . S
H542 C554 0.950 . S
H543 C555 0.950 . S
C544 H536 0.950 . S
C544 C545 1.386 . S
C544 C546 1.391 . S
C545 C544 1.386 . S
C545 C549 1.393 . S
C546 H538 0.950 . S
C546 C544 1.391 . S
C546 C547 1.400 . S
C547 C546 1.400 . S
C547 C548 1.398 . S
C547 C553 1.491 . S
C548 H539 0.950 . S
C548 C547 1.398 . S
C548 C549 1.391 . S
C549 H537 0.950 . S
C549 C545 1.393 . S
C549 C548 1.391 . S
C550 H540 0.950 . S
C550 C551 1.386 . S
C550 C552 1.391 . S
C551 C550 1.386 . S
C551 C555 1.393 . S
C552 H541 0.950 . S
C552 C550 1.391 . S
C552 C553 1.400 . S
C553 C547 1.491 . S
C553 C552 1.400 . S
C553 C554 1.398 . S
C554 H542 0.950 . S
C554 C553 1.398 . S
C554 C555 1.391 . S
C555 H543 0.950 . S
C555 C551 1.393 . S
C555 C554 1.391 . S
H556 C564 0.950 . S
H557 C569 0.950 . S
H558 C566 0.950 . S
H559 C568 0.950 . S
H560 C570 0.950 . S
H561 C572 0.950 . S
H562 C574 0.950 . S
H563 C575 0.950 . S
C564 H556 0.950 . S
C564 C565 1.386 . S
C564 C566 1.391 . S
C565 C564 1.386 . S
C565 C569 1.393 . S
C566 H558 0.950 . S
C566 C564 1.391 . S
C566 C567 1.400 . S
C567 C566 1.400 . S
C567 C568 1.398 . S
C567 C573 1.491 . S
C568 H559 0.950 . S
C568 C567 1.398 . S
C568 C569 1.391 . S
C569 H557 0.950 . S
C569 C565 1.393 . S
C569 C568 1.391 . S
C570 H560 0.950 . S
C570 C571 1.386 . S
C570 C572 1.391 . S
C571 C570 1.386 . S
C571 C575 1.393 . S
C572 H561 0.950 . S
C572 C570 1.391 . S
C572 C573 1.400 . S
C573 C567 1.491 . S
C573 C572 1.400 . S
C573 C574 1.398 . S
C574 H562 0.950 . S
C574 C573 1.398 . S
C574 C575 1.391 . S
C575 H563 0.950 . S
C575 C571 1.393 . S
C575 C574 1.391 . S
H576 C584 0.950 . S
H577 C589 0.950 . S
H578 C586 0.950 . S
H579 C588 0.950 . S
H580 C590 0.950 . S
H581 C592 0.950 . S
H582 C594 0.950 . S
H583 C595 0.950 . S
C584 H576 0.950 . S
C584 C585 1.386 1_455 S
C584 C586 1.391 . S
C585 C584 1.386 1_655 S
C585 C589 1.393 . S
C586 H578 0.950 . S
C586 C584 1.391 . S
C586 C587 1.400 1_455 S
C587 C586 1.400 1_655 S
C587 C588 1.398 . S
C587 C593 1.491 1_656 S
C588 H579 0.950 . S
C588 C587 1.398 . S
C588 C589 1.391 . S
C589 H577 0.950 . S
C589 C585 1.393 . S
C589 C588 1.391 . S
C590 H580 0.950 . S
C590 C591 1.386 1_655 S
C590 C592 1.391 . S
C591 C590 1.386 1_455 S
C591 C595 1.393 . S
C592 H581 0.950 . S
C592 C590 1.391 . S
C592 C593 1.400 1_655 S
C593 C587 1.491 1_454 S
C593 C592 1.400 1_455 S
C593 C594 1.398 . S
C594 H582 0.950 . S
C594 C593 1.398 . S
C594 C595 1.391 . S
C595 H583 0.950 . S
C595 C591 1.393 . S
C595 C594 1.391 . S
H596 C604 0.949 1_565 S
H597 C609 0.950 . S
H598 C606 0.950 . S
H599 C608 0.950 . S
H600 C610 0.950 . S
H601 C612 0.950 . S
H602 C614 0.950 . S
H603 C615 0.950 . S
C604 H596 0.949 1_545 S
C604 C605 1.387 . S
C604 C606 1.391 1_545 S
C605 C604 1.387 . S
C605 C609 1.393 1_455 S
C606 H598 0.950 . S
C606 C604 1.391 1_565 S
C606 C607 1.400 1_565 S
C607 C606 1.400 1_545 S
C607 C608 1.398 1_455 S
C607 C613 1.491 1_445 S
C608 H599 0.950 . S
C608 C607 1.398 1_655 S
C608 C609 1.391 . S
C609 H597 0.950 . S
C609 C605 1.393 1_655 S
C609 C608 1.391 . S
C610 H600 0.950 . S
C610 C611 1.386 1_545 S
C610 C612 1.391 . S
C611 C610 1.386 1_565 S
C611 C615 1.393 1_655 S
C612 H601 0.950 . S
C612 C610 1.391 . S
C612 C613 1.400 1_545 S
C613 C607 1.491 1_665 S
C613 C612 1.400 1_565 S
C613 C614 1.398 1_655 S
C614 H602 0.950 . S
C614 C613 1.398 1_455 S
C614 C615 1.391 . S
C615 H603 0.950 . S
C615 C611 1.393 1_455 S
C615 C614 1.391 . S
H616 C624 0.950 . S
H617 C629 0.950 . S
H618 C626 0.950 . S
H619 C628 0.950 . S
H620 C630 0.950 . S
H621 C632 0.950 . S
H622 C634 0.950 . S
H623 C635 0.950 . S
C624 H616 0.950 . S
C624 C625 1.386 1_545 S
C624 C626 1.391 . S
C625 C624 1.386 1_565 S
C625 C629 1.393 . S
C626 H618 0.950 . S
C626 C624 1.391 . S
C626 C627 1.400 1_545 S
C627 C626 1.400 1_565 S
C627 C628 1.398 . S
C627 C633 1.491 1_566 S
C628 H619 0.950 . S
C628 C627 1.398 . S
C628 C629 1.391 . S
C629 H617 0.950 . S
C629 C625 1.393 . S
C629 C628 1.391 . S
C630 H620 0.950 . S
C630 C631 1.386 1_565 S
C630 C632 1.391 . S
C631 C630 1.386 1_545 S
C631 C635 1.393 . S
C632 H621 0.950 . S
C632 C630 1.391 . S
C632 C633 1.400 1_565 S
C633 C627 1.491 1_544 S
C633 C632 1.400 1_545 S
C633 C634 1.398 . S
C634 H622 0.950 . S
C634 C633 1.398 . S
C634 C635 1.391 . S
C635 H623 0.950 . S
C635 C631 1.393 . S
C635 C634 1.391 . S
H636 C644 0.950 . S
H637 C649 0.950 . S
H638 C646 0.950 . S
H639 C648 0.950 . S
H640 C650 0.950 . S
H641 C652 0.950 . S
H642 C654 0.950 . S
H643 C655 0.950 . S
C644 H636 0.950 . S
C644 C645 1.386 . S
C644 C646 1.391 . S
C645 C644 1.386 . S
C645 C649 1.393 . S
C646 H638 0.950 . S
C646 C644 1.391 . S
C646 C647 1.400 . S
C647 C646 1.400 . S
C647 C648 1.398 . S
C647 C653 1.491 . S
C648 H639 0.950 . S
C648 C647 1.398 . S
C648 C649 1.391 . S
C649 H637 0.950 . S
C649 C645 1.393 . S
C649 C648 1.391 . S
C650 H640 0.950 . S
C650 C651 1.386 . S
C650 C652 1.391 . S
C651 C650 1.386 . S
C651 C655 1.393 . S
C652 H641 0.950 . S
C652 C650 1.391 . S
C652 C653 1.400 . S
C653 C647 1.491 . S
C653 C652 1.400 . S
C653 C654 1.398 . S
C654 H642 0.950 . S
C654 C653 1.398 . S
C654 C655 1.391 . S
C655 H643 0.950 . S
C655 C651 1.393 . S
C655 C654 1.391 . S
C185 C98 1.260 . S
C191 C15 1.246 . S
C205 C120 1.270 . S
C211 C29 1.261 . S
C225 C65 1.268 . S
C231 C150 1.257 . S
C245 C81 1.246 . S
C251 C162 1.258 . S
C265 C95 1.249 . S
C271 C8 1.253 . S
C285 C32 1.270 . S
C291 C117 1.253 . S
C305 C62 1.264 . S
C311 C153 1.246 . S
C325 C74 1.268 . S
C331 C169 1.250 . S
C345 C125 1.253 . S
C351 C76 1.253 . S
C365 C10 1.262 . S
C371 C139 1.255 . S
C385 C40 1.261 . S
C391 C175 1.254 . S
C405 C52 1.253 . S
C411 C103 1.273 . S
C425 C87 1.262 . S
C431 C128 1.244 . S
C445 C21 1.257 . S
C451 C140 1.245 . S
C465 C164 1.244 . S
C471 C37 1.262 . S
C485 C106 1.244 . S
C491 C51 1.263 . S
C505 C7 1.695 . S
C511 C59 1.701 . S
C525 C43 1.703 . S
C531 C73 1.695 . S
C545 C147 1.703 . S
C551 C109 1.695 . S
C565 C161 1.705 . S
C571 C131 1.693 . S
C585 C118 1.430 . S
C591 C18 1.431 . S
C605 C30 1.439 . S
C611 C142 1.439 . S
C625 C172 1.437 . S
C631 C54 1.438 . S
C645 C96 1.434 . S
C651 C84 1.432 . S
