# Generated by pormake.
# Topology unp, (4)-cn, num edge types: 1
# Building blocks:
#     Node 0, Type 0, BuildingBlock: KUFVIS_clean_sbu_0, # of connection points: 4
#     Node 1, Type 0, BuildingBlock: KUFVIS_clean_sbu_0, # of connection points: 4
#     Node 2, Type 0, BuildingBlock: KUFVIS_clean_sbu_0, # of connection points: 4
#     Node 3, Type 0, BuildingBlock: KUFVIS_clean_sbu_0, # of connection points: 4
#     Node 4, Type 0, BuildingBlock: KUFVIS_clean_sbu_0, # of connection points: 4
#     Node 5, Type 0, BuildingBlock: KUFVIS_clean_sbu_0, # of connection points: 4
#     Node 6, Type 0, BuildingBlock: KUFVIS_clean_sbu_0, # of connection points: 4
#     Node 7, Type 0, BuildingBlock: KUFVIS_clean_sbu_0, # of connection points: 4
#     Node 8, Type 0, BuildingBlock: KUFVIS_clean_sbu_0, # of connection points: 4
#     Node 9, Type 0, BuildingBlock: KUFVIS_clean_sbu_0, # of connection points: 4
#     Node 10, Type 0, BuildingBlock: KUFVIS_clean_sbu_0, # of connection points: 4
#     Node 11, Type 0, BuildingBlock: KUFVIS_clean_sbu_0, # of connection points: 4
#     Node 12, Type 0, BuildingBlock: KUFVIS_clean_sbu_0, # of connection points: 4
#     Node 13, Type 0, BuildingBlock: KUFVIS_clean_sbu_0, # of connection points: 4
#     Node 14, Type 0, BuildingBlock: KUFVIS_clean_sbu_0, # of connection points: 4
#     Node 15, Type 0, BuildingBlock: KUFVIS_clean_sbu_0, # of connection points: 4
#     Node 16, Type 0, BuildingBlock: KUFVIS_clean_sbu_0, # of connection points: 4
#     Node 17, Type 0, BuildingBlock: KUFVIS_clean_sbu_0, # of connection points: 4
#     Edge 18, Type (0, 0), BuildingBlock: EZIPEK_clean_linker_0, # of connection points: 2
#     Edge 19, Type (0, 0), BuildingBlock: EZIPEK_clean_linker_0, # of connection points: 2
#     Edge 20, Type (0, 0), BuildingBlock: EZIPEK_clean_linker_0, # of connection points: 2
#     Edge 21, Type (0, 0), BuildingBlock: EZIPEK_clean_linker_0, # of connection points: 2
#     Edge 22, Type (0, 0), BuildingBlock: EZIPEK_clean_linker_0, # of connection points: 2
#     Edge 23, Type (0, 0), BuildingBlock: EZIPEK_clean_linker_0, # of connection points: 2
#     Edge 24, Type (0, 0), BuildingBlock: EZIPEK_clean_linker_0, # of connection points: 2
#     Edge 25, Type (0, 0), BuildingBlock: EZIPEK_clean_linker_0, # of connection points: 2
#     Edge 26, Type (0, 0), BuildingBlock: EZIPEK_clean_linker_0, # of connection points: 2
#     Edge 27, Type (0, 0), BuildingBlock: EZIPEK_clean_linker_0, # of connection points: 2
#     Edge 28, Type (0, 0), BuildingBlock: EZIPEK_clean_linker_0, # of connection points: 2
#     Edge 29, Type (0, 0), BuildingBlock: EZIPEK_clean_linker_0, # of connection points: 2
#     Edge 30, Type (0, 0), BuildingBlock: EZIPEK_clean_linker_0, # of connection points: 2
#     Edge 31, Type (0, 0), BuildingBlock: EZIPEK_clean_linker_0, # of connection points: 2
#     Edge 32, Type (0, 0), BuildingBlock: EZIPEK_clean_linker_0, # of connection points: 2
#     Edge 33, Type (0, 0), BuildingBlock: EZIPEK_clean_linker_0, # of connection points: 2
#     Edge 34, Type (0, 0), BuildingBlock: EZIPEK_clean_linker_0, # of connection points: 2
#     Edge 35, Type (0, 0), BuildingBlock: EZIPEK_clean_linker_0, # of connection points: 2
#     Edge 36, Type (0, 0), BuildingBlock: EZIPEK_clean_linker_0, # of connection points: 2
#     Edge 37, Type (0, 0), BuildingBlock: EZIPEK_clean_linker_0, # of connection points: 2
#     Edge 38, Type (0, 0), BuildingBlock: EZIPEK_clean_linker_0, # of connection points: 2
#     Edge 39, Type (0, 0), BuildingBlock: EZIPEK_clean_linker_0, # of connection points: 2
#     Edge 40, Type (0, 0), BuildingBlock: EZIPEK_clean_linker_0, # of connection points: 2
#     Edge 41, Type (0, 0), BuildingBlock: EZIPEK_clean_linker_0, # of connection points: 2
#     Edge 42, Type (0, 0), BuildingBlock: EZIPEK_clean_linker_0, # of connection points: 2
#     Edge 43, Type (0, 0), BuildingBlock: EZIPEK_clean_linker_0, # of connection points: 2
#     Edge 44, Type (0, 0), BuildingBlock: EZIPEK_clean_linker_0, # of connection points: 2
#     Edge 45, Type (0, 0), BuildingBlock: EZIPEK_clean_linker_0, # of connection points: 2
#     Edge 46, Type (0, 0), BuildingBlock: EZIPEK_clean_linker_0, # of connection points: 2
#     Edge 47, Type (0, 0), BuildingBlock: EZIPEK_clean_linker_0, # of connection points: 2
#     Edge 48, Type (0, 0), BuildingBlock: EZIPEK_clean_linker_0, # of connection points: 2
#     Edge 49, Type (0, 0), BuildingBlock: EZIPEK_clean_linker_0, # of connection points: 2
#     Edge 50, Type (0, 0), BuildingBlock: EZIPEK_clean_linker_0, # of connection points: 2
#     Edge 51, Type (0, 0), BuildingBlock: EZIPEK_clean_linker_0, # of connection points: 2
#     Edge 52, Type (0, 0), BuildingBlock: EZIPEK_clean_linker_0, # of connection points: 2
#     Edge 53, Type (0, 0), BuildingBlock: EZIPEK_clean_linker_0, # of connection points: 2
# Relax obj value: 0.407
# Max RMSD: 0.192
# Mean RMSD: 0.190
data_MOF--net-unp--node1-KUFVIS_clean_sbu_0--edge1-EZIPEK_clean_linker_0
_symmetry_space_group_name_H-M    P1
_symmetry_Int_Tables_number       1
_symmetry_cell_setting            triclinic
loop_
_symmetry_equiv_pos_as_xyz
'x, y, z'
_cell_length_a     35.698988
_cell_length_b     35.556995
_cell_length_c     42.662375
_cell_angle_alpha  89.828101
_cell_angle_beta   89.824399
_cell_angle_gamma 120.33969
loop_
_atom_site_label
_atom_site_type_symbol
_atom_site_fract_x
_atom_site_fract_y
_atom_site_fract_z
_atom_type_partial_charge
Mn0 Mn 0.15184 0.16306 0.09577 0.0
Mn1 Mn 0.21721 0.12342 0.07554 0.0
C2 C 0.14083 0.0975 0.11688 0.0
C3 C 0.0886 0.16728 0.09089 0.0
C4 C 0.24512 0.20275 0.11587 0.0
O5 O 0.17797 0.19302 0.05357 0.0
O6 O 0.21391 0.15781 0.04016 0.0
C7 C 0.16751 0.06333 0.02403 0.0
N8 N 0.18555 0.07003 0.05303 0.0
C9 C 0.1626 0.99403 0.05859 0.0
C10 C 0.14367 0.9864 0.02883 0.0
C11 C 0.14566 0.02111 0.01165 0.0
C12 C 0.18341 0.03675 0.06991 0.0
H13 H 0.16983 0.08998 0.01043 0.0
C14 C 0.19942 0.18349 0.03408 0.0
O15 O 0.12313 0.19816 0.10389 0.0
O16 O 0.09211 0.1356 0.07919 0.0
N17 N 0.22079 0.08851 0.10839 0.0
C18 C 0.24078 0.10135 0.13673 0.0
C19 C 0.24095 0.0703 0.15704 0.0
C20 C 0.2208 0.02643 0.14797 0.0
C21 C 0.201 0.01409 0.11853 0.0
C22 C 0.20208 0.04652 0.09919 0.0
H23 H 0.25647 0.135 0.14387 0.0
O24 O 0.12757 0.12038 0.13194 0.0
O25 O 0.16268 0.11556 0.09166 0.0
O26 O 0.20868 0.20064 0.11758 0.0
O27 O 0.25254 0.17731 0.09945 0.0
C28 C 0.18028 0.97087 0.10759 0.0
C29 C 0.1612 0.96087 0.07761 0.0
H30 H 0.12747 0.95406 0.01891 0.0
H31 H 0.13088 0.01541 0.98873 0.0
H32 H 0.25654 0.08015 0.17965 0.0
H33 H 0.22084 0.00254 0.16376 0.0
H34 H 0.17886 0.94508 0.12204 0.0
H35 H 0.14551 0.92755 0.06949 0.0
Mn36 Mn 0.84213 0.0299 0.11536 0.0
Mn37 Mn 0.85451 0.10835 0.06589 0.0
C38 C 0.90787 0.09565 0.11337 0.0
C39 C 0.84842 0.96942 0.12977 0.0
C40 C 0.78762 0.0714 0.11721 0.0
O41 O 0.79879 -0.00181 0.0792 0.0
O42 O 0.82436 0.05331 0.04303 0.0
C43 C 0.91126 0.11241 0.01447 0.0
N44 N 0.9046 0.13126 0.03989 0.0
C45 C 0.97329 0.19692 0.03259 0.0
C46 C 0.98104 0.1782 0.00641 0.0
C47 C 0.94994 0.13556 -0.00254 0.0
C48 C 0.93395 0.1723 0.04855 0.0
H49 H 0.88744 0.07973 0.00751 0.0
C50 C 0.80163 0.01303 0.05106 0.0
O51 O 0.82018 0.97696 0.14301 0.0
O52 O 0.87122 -0.00443 0.10726 0.0
N53 N 0.88528 0.16227 0.08848 0.0
C54 C 0.87409 0.17463 0.11551 0.0
C55 C 0.90268 0.21545 0.12859 0.0
C56 C 0.94244 0.24336 0.11377 0.0
C57 C 0.95364 0.2298 0.0863 0.0
C58 C 0.92396 0.1886 0.07445 0.0
H59 H 0.84397 0.15345 0.12742 0.0
O60 O 0.89597 0.07283 0.13912 0.0
O61 O 0.8788 0.08124 0.09186 0.0
O62 O 0.80658 0.05555 0.13289 0.0
O63 O 0.80078 0.08737 0.0902 0.0
C64 C -0.00639 0.2551 0.07066 0.0
C65 C 0.00335 0.23875 0.04371 0.0
H66 H 0.01111 0.19635 0.99351 0.0
H67 H 0.9557 0.11988 0.97794 0.0
H68 H 0.89443 0.22515 0.15033 0.0
H69 H 0.96447 0.27472 0.12403 0.0
H70 H 0.01722 0.28704 0.07931 0.0
H71 H 0.03423 0.25841 0.03191 0.0
Mn72 Mn 0.96393 0.84493 0.13293 0.0
Mn73 Mn 0.86706 0.78281 0.10101 0.0
C74 C 0.90541 0.84828 0.15496 0.0
C75 C 0.02658 0.91325 0.13109 0.0
C76 C 0.91608 0.74799 0.13861 0.0
O77 O 0.97734 0.82898 0.09057 0.0
O78 O 0.91234 0.79934 0.06792 0.0
C79 C 0.86545 0.84966 0.06054 0.0
N80 N 0.84591 0.81712 0.08217 0.0
C81 C 0.78136 0.82228 0.08212 0.0
C82 C 0.80051 0.85561 0.05955 0.0
C83 C 0.84311 0.86997 0.04922 0.0
C84 C 0.80609 0.80489 0.09364 0.0
H85 H 0.89789 0.86006 0.0522 0.0
C86 C 0.95266 0.81119 0.06723 0.0
O87 O 0.0278 0.88026 0.14324 0.0
O88 O -0.01007 0.90591 0.12009 0.0
N89 N 0.81877 0.76267 0.12903 0.0
C90 C 0.8064 0.73242 0.15242 0.0
C91 C 0.76498 0.71513 0.16599 0.0
C92 C 0.7363 0.72822 0.15482 0.0
C93 C 0.74943 0.75877 0.13032 0.0
C94 C 0.79119 0.77508 0.11789 0.0
H95 H 0.8277 0.7211 0.16038 0.0
O96 O 0.93865 0.8555 0.17152 0.0
O97 O 0.90547 0.83332 0.12702 0.0
O98 O 0.947 0.7844 0.1479 0.0
O99 O 0.88595 0.7444 0.12048 0.0
C100 C 0.72283 0.77382 0.11778 0.0
C101 C 0.73899 0.80598 0.09396 0.0
H102 H 0.78304 0.87074 0.05027 0.0
H103 H 0.85836 0.89606 0.03214 0.0
H104 H 0.75493 0.69125 0.18468 0.0
H105 H 0.70429 0.7146 0.16522 0.0
H106 H 0.69033 0.76173 0.12685 0.0
H107 H 0.71878 0.81833 0.08521 0.0
Mn108 Mn 0.14753 0.1419 0.84121 0.0
Mn109 Mn 0.12705 0.2196 0.86642 0.0
C110 C 0.07949 0.13519 0.83291 0.0
C111 C 0.14692 0.07603 0.84502 0.0
C112 C 0.19555 0.2339 0.81892 0.0
O113 O 0.18842 0.17046 0.87928 0.0
O114 O 0.16056 0.21074 0.89921 0.0
C115 C 0.07166 0.18312 0.92228 0.0
N116 N 0.07689 0.19791 0.89228 0.0
C117 C 0.0052 0.18814 0.89145 0.0
C118 C -0.00103 0.1727 0.92234 0.0
C119 C 0.03228 0.16975 0.93767 0.0
C120 C 0.04517 0.20079 0.87722 0.0
H121 H 0.09712 0.18093 0.9342 0.0
C122 C 0.18386 0.19274 0.90135 0.0
O123 O 0.17523 0.10756 0.82775 0.0
O124 O 0.12067 0.08358 0.8612 0.0
N125 N 0.09319 0.22768 0.83515 0.0
C126 C 0.10464 0.24371 0.80543 0.0
C127 C 0.0747 0.24775 0.78654 0.0
C128 C 0.0334 0.23561 0.79848 0.0
C129 C 0.02247 0.2196 0.82922 0.0
C130 C 0.05368 0.2163 0.84691 0.0
H131 H 0.13645 0.2538 0.79624 0.0
O132 O 0.09379 0.11682 0.8137 0.0
O133 O 0.10758 0.16039 0.853 0.0
O134 O 0.18268 0.19438 0.81334 0.0
O135 O 0.17922 0.24652 0.83998 0.0
C136 C 0.9818 0.2067 0.84301 0.0
C137 C 0.97318 0.19102 0.87415 0.0
H138 H 0.96842 0.16244 0.93408 0.0
H139 H 0.02776 0.15641 0.96104 0.0
H140 H 0.08357 0.26047 0.76292 0.0
H141 H 0.01039 0.23882 0.78386 0.0
H142 H 0.95694 0.20874 0.8299 0.0
H143 H 0.9418 0.18115 0.88453 0.0
Mn144 Mn 0.8289 0.9679 0.86508 0.0
Mn145 Mn 0.75423 0.86821 0.89284 0.0
C146 C 0.8336 0.90661 0.85353 0.0
C147 C 0.8966 0.03115 0.86259 0.0
C148 C 0.7352 0.91955 0.8456 0.0
O149 O 0.80574 0.98159 0.90509 0.0
O150 O 0.76221 0.91263 0.92415 0.0
C151 C 0.79391 0.85507 0.94958 0.0
N152 N 0.77953 0.84391 0.91964 0.0
C153 C 0.79468 0.78516 0.92032 0.0
C154 C 0.81012 0.79638 0.951 0.0
C155 C 0.80963 0.8314 0.96568 0.0
C156 C 0.77895 0.80959 0.90552 0.0
H157 H 0.79332 0.88174 0.96111 0.0
C158 C 0.78161 0.95433 0.92654 0.0
O159 O 0.86295 0.02957 0.84997 0.0
O160 O 0.88963 -0.00167 0.88011 0.0
N161 N 0.7473 0.82457 0.86337 0.0
C162 C 0.73032 0.81718 0.83394 0.0
C163 C 0.72857 0.7833 0.81601 0.0
C164 C 0.74418 0.75728 0.82851 0.0
C165 C 0.76135 0.76536 0.85888 0.0
C166 C 0.7622 0.79958 0.87566 0.0
H167 H 0.71813 0.8369 0.82416 0.0
O168 O 0.84871 0.93902 0.8338 0.0
O169 O 0.81145 0.90914 0.87638 0.0
O170 O 0.77362 0.95067 0.842 0.0
O171 O 0.72405 0.88857 0.86516 0.0
C172 C 0.77777 0.74089 0.8731 0.0
C173 C 0.7943 0.75069 0.90385 0.0
H174 H 0.82256 0.77843 0.96349 0.0
H175 H 0.82139 0.84008 0.98932 0.0
H176 H 0.71517 0.77724 0.79262 0.0
H177 H 0.74282 0.7312 0.81459 0.0
H178 H 0.77769 0.71434 0.86066 0.0
H179 H 0.80662 0.73148 0.91461 0.0
Mn180 Mn 0.0106 0.83448 0.87333 0.0
Mn181 Mn 0.10451 0.85606 0.90534 0.0
C182 C 0.07467 0.89298 0.85488 0.0
C183 C 0.95034 0.84201 0.86841 0.0
C184 C 0.03966 0.7708 0.87616 0.0
O185 O -0.00379 0.81116 0.91853 0.0
O186 O 0.06374 0.84503 0.94067 0.0
C187 C 0.14808 0.93493 0.9445 0.0
N188 N 0.14399 0.91542 0.91633 0.0
C189 C 0.20977 0.9778 0.89725 0.0
C190 C 0.21265 -0.00034 0.92515 0.0
C191 C 0.18242 0.97765 0.94921 0.0
C192 C 0.17548 0.93482 0.89424 0.0
H193 H 0.1265 0.91722 0.96361 0.0
C194 C 0.02172 0.82424 0.94244 0.0
O195 O 0.94903 0.80649 0.85992 0.0
O196 O 0.98572 0.87214 0.88129 0.0
N197 N 0.14216 0.86733 0.86983 0.0
C198 C 0.13834 0.84007 0.84604 0.0
C199 C 0.16753 0.85606 0.8207 0.0
C200 C 0.2011 0.8997 0.82029 0.0
C201 C 0.20486 0.92707 0.84512 0.0
C202 C 0.17406 0.90958 0.86938 0.0
H203 H 0.11325 0.80638 0.84612 0.0
O204 O 0.04166 0.87306 0.83609 0.0
O205 O 0.0699 0.87392 0.88145 0.0
O206 O 0.02188 0.78681 0.85954 0.0
O207 O 0.06875 0.79378 0.89594 0.0
C208 C 0.23807 0.97103 0.84675 0.0
C209 C 0.24077 -0.00372 0.87297 0.0
H210 H 0.23899 0.03266 0.92889 0.0
H211 H 0.18639 0.99336 0.97151 0.0
H212 H 0.16433 0.83464 0.80163 0.0
H213 H 0.22394 0.91176 0.8009 0.0
H214 H 0.26224 0.98545 0.82831 0.0
H215 H 0.26729 0.02963 0.87452 0.0
Mn216 Mn 0.8153 0.48937 0.45912 0.0
Mn217 Mn 0.89067 0.46916 0.42867 0.0
C218 C 0.81425 0.42462 0.47112 0.0
C219 C 0.74734 0.48397 0.4611 0.0
C220 C 0.91036 0.54258 0.47309 0.0
O221 O 0.83545 0.52565 0.41811 0.0
O222 O 0.87548 0.49873 0.39635 0.0
C223 C 0.84737 0.40832 0.37692 0.0
N224 N 0.86665 0.41668 0.40544 0.0
C225 C 0.86119 0.34653 0.40733 0.0
C226 C 0.84136 0.33717 0.37788 0.0
C227 C 0.83393 0.36811 0.36286 0.0
C228 C 0.87374 0.38724 0.42029 0.0
H229 H 0.84189 0.43201 0.36513 0.0
C230 C 0.85569 0.52037 0.39495 0.0
O231 O 0.78074 0.5159 0.47438 0.0
O232 O 0.75412 0.45724 0.4448 0.0
N233 N 0.90533 0.43924 0.45937 0.0
C234 C 0.92614 0.45406 0.48726 0.0
C235 C 0.93512 0.42683 0.50573 0.0
C236 C 0.92291 0.38478 0.49527 0.0
C237 C 0.902 0.37042 0.46633 0.0
C238 C 0.8939 0.39903 0.44897 0.0
H239 H 0.93598 0.48641 0.4954 0.0
O240 O 0.79809 0.44063 0.49081 0.0
O241 O 0.83407 0.44945 0.44753 0.0
O242 O 0.87166 0.52982 0.48113 0.0
O243 O 0.92003 0.52366 0.45204 0.0
C244 C 0.88905 0.32894 0.45395 0.0
C245 C 0.86875 0.31704 0.42441 0.0
H246 H 0.8312 0.30605 0.36702 0.0
H247 H 0.81733 0.36132 0.34075 0.0
H248 H 0.95153 0.43829 0.52794 0.0
H249 H 0.92996 0.36389 0.50956 0.0
H250 H 0.89475 0.30605 0.46686 0.0
H251 H 0.85907 0.28514 0.41505 0.0
Mn252 Mn 0.49928 0.34306 0.46213 0.0
Mn253 Mn 0.51609 0.43995 0.43558 0.0
C254 C 0.56304 0.40758 0.47422 0.0
C255 C 0.50789 0.28264 0.46253 0.0
C256 C 0.44603 0.3827 0.48168 0.0
O257 O 0.46238 0.32721 0.42193 0.0
O258 O 0.48344 0.39529 0.40347 0.0
C259 C 0.57084 0.45837 0.37971 0.0
N260 N 0.56585 0.46883 0.40939 0.0
C261 C 0.63659 0.53312 0.40861 0.0
C262 C 0.64262 0.52291 0.37797 0.0
C263 C 0.60952 0.48512 0.36365 0.0
C264 C 0.59711 0.50507 0.42349 0.0
H265 H 0.5456 0.42967 0.36838 0.0
C266 C 0.46437 0.35377 0.40042 0.0
O267 O 0.47496 0.28153 0.47616 0.0
O268 O 0.53336 0.31718 0.44621 0.0
N269 N 0.54923 0.48442 0.46562 0.0
C270 C 0.53769 0.48977 0.49503 0.0
C271 C 0.56706 0.52573 0.51291 0.0
C272 C 0.60795 0.55578 0.50039 0.0
C273 C 0.61908 0.5496 0.47006 0.0
C274 C 0.58842 0.51323 0.45336 0.0
H275 H 0.50627 0.46693 0.50475 0.0
O276 O 0.54757 0.37463 0.49352 0.0
O277 O 0.53758 0.4031 0.45143 0.0
O278 O 0.45738 0.35475 0.48577 0.0
O279 O 0.46441 0.41425 0.46241 0.0
C280 C 0.65934 0.57809 0.45571 0.0
C281 C 0.66807 0.5699 0.42497 0.0
H282 H 0.6726 0.54367 0.36545 0.0
H283 H 0.61316 0.47582 0.3404 0.0
H284 H 0.55814 0.53036 0.53624 0.0
H285 H 0.6305 0.58349 0.51424 0.0
H286 H 0.68377 0.60646 0.46807 0.0
H287 H 0.69906 0.59209 0.41413 0.0
Mn288 Mn 0.64695 0.17115 0.46553 0.0
Mn289 Mn 0.54676 0.0951 0.44116 0.0
C290 C 0.58645 0.17702 0.47762 0.0
C291 C 0.7111 0.23869 0.46298 0.0
C292 C 0.59952 0.0784 0.48834 0.0
O293 O 0.65852 0.14476 0.42605 0.0
O294 O 0.58932 0.10234 0.40839 0.0
C295 C 0.5303 0.13183 0.38436 0.0
N296 N 0.52048 0.11841 0.41469 0.0
C297 C 0.45962 0.12988 0.41452 0.0
C298 C 0.46888 0.14352 0.38325 0.0
C299 C 0.50469 0.14491 0.36819 0.0
C300 C 0.48608 0.11684 0.42937 0.0
H301 H 0.55739 0.13247 0.37255 0.0
C302 C 0.63069 0.12132 0.4049 0.0
O303 O 0.70951 0.20627 0.47801 0.0
O304 O 0.67687 0.23052 0.44722 0.0
N305 N 0.50461 0.08879 0.47193 0.0
C306 C 0.49907 0.07336 0.50187 0.0
C307 C 0.46608 0.072 0.52069 0.0
C308 C 0.43843 0.0856 0.50833 0.0
C309 C 0.44418 0.10058 0.47728 0.0
C310 C 0.47806 0.10178 0.45981 0.0
H311 H 0.51955 0.06211 0.51135 0.0
O312 O 0.6199 0.19398 0.49612 0.0
O313 O 0.58805 0.15345 0.45546 0.0
O314 O 0.63008 0.11725 0.4916 0.0
O315 O 0.5691 0.06663 0.46857 0.0
C316 C 0.41768 0.11447 0.46299 0.0
C317 C 0.42521 0.12883 0.43154 0.0
H318 H 0.44876 0.15328 0.3709 0.0
H319 H 0.51294 0.15612 0.34427 0.0
H320 H 0.4617 0.06005 0.54456 0.0
H321 H 0.41281 0.08422 0.52284 0.0
H322 H 0.39129 0.114 0.47592 0.0
H323 H 0.40445 0.13915 0.4207 0.0
Mn324 Mn 0.80069 0.49026 0.20141 0.0
Mn325 Mn 0.77995 0.56759 0.22798 0.0
C326 C 0.73602 0.4883 0.18882 0.0
C327 C 0.79248 0.42038 0.20275 0.0
C328 C 0.85287 0.58529 0.18337 0.0
O329 O 0.83674 0.51266 0.24202 0.0
O330 O 0.81158 0.55586 0.26082 0.0
C331 C 0.72293 0.52959 0.28275 0.0
N332 N 0.72879 0.54461 0.25279 0.0
C333 C 0.65818 0.53743 0.25177 0.0
C334 C 0.65124 0.52164 0.28263 0.0
C335 C 0.68385 0.51761 0.29809 0.0
C336 C 0.69809 0.54924 0.23776 0.0
H337 H 0.74792 0.52685 0.2949 0.0
C338 C 0.8326 0.53557 0.26374 0.0
O339 O 0.82509 0.45243 0.18843 0.0
O340 O 0.76716 0.42981 0.21831 0.0
N341 N 0.74796 0.57856 0.19688 0.0
C342 C 0.76093 0.59666 0.1678 0.0
C343 C 0.73217 0.60269 0.14898 0.0
C344 C 0.6905 0.59033 0.16029 0.0
C345 C 0.67803 0.57215 0.1904 0.0
C346 C 0.70804 0.56677 0.20801 0.0
H347 H 0.79296 0.60649 0.159 0.0
O348 O 0.75215 0.47146 0.16985 0.0
O349 O 0.76115 0.51006 0.21151 0.0
O350 O 0.84248 0.54619 0.17762 0.0
O351 O 0.83277 0.59571 0.20286 0.0
C352 C 0.63713 0.55942 0.20373 0.0
C353 C 0.62728 0.54225 0.23448 0.0
H354 H 0.62093 0.51247 0.29443 0.0
H355 H 0.67951 0.50528 0.3217 0.0
H356 H 0.74217 0.61703 0.12585 0.0
H357 H 0.66847 0.5952 0.14576 0.0
H358 H 0.61319 0.56308 0.19067 0.0
H359 H 0.59593 0.53302 0.24463 0.0
Mn360 Mn 0.48197 0.31894 0.20599 0.0
Mn361 Mn 0.40419 0.22515 0.23843 0.0
C362 C 0.48101 0.25377 0.19684 0.0
C363 C 0.55108 0.38073 0.20298 0.0
C364 C 0.38734 0.27958 0.19235 0.0
O365 O 0.46268 0.33788 0.24587 0.0
O366 O 0.42074 0.27174 0.26943 0.0
C367 C 0.4469 0.2088 0.29125 0.0
N368 N 0.42691 0.19665 0.26299 0.0
C369 C 0.4325 0.13208 0.26236 0.0
C370 C 0.45325 0.14392 0.29148 0.0
C371 C 0.46096 0.18282 0.30572 0.0
C372 C 0.41955 0.15957 0.24888 0.0
H373 H 0.45286 0.23857 0.30234 0.0
C374 C 0.44161 0.31354 0.26955 0.0
O375 O 0.51836 0.37959 0.18913 0.0
O376 O 0.54296 0.34751 0.22041 0.0
N377 N 0.38836 0.179 0.20896 0.0
C378 C 0.36793 0.17241 0.18086 0.0
C379 C 0.35877 0.13559 0.16307 0.0
C380 C 0.37051 0.10585 0.17438 0.0
C381 C 0.39119 0.11313 0.20347 0.0
C382 C 0.39933 0.15031 0.22019 0.0
H383 H 0.35865 0.19499 0.17204 0.0
O384 O 0.49778 0.28494 0.17605 0.0
O385 O 0.46124 0.26037 0.21951 0.0
O386 O 0.42627 0.30319 0.18348 0.0
O387 O 0.37635 0.25084 0.21374 0.0
C388 C 0.40417 0.08506 0.2165 0.0
C389 C 0.4248 0.09451 0.24595 0.0
H390 H 0.46415 0.1238 0.30266 0.0
H391 H 0.47864 0.19373 0.32737 0.0
H392 H 0.34269 0.13015 0.14068 0.0
H393 H 0.36347 0.07754 0.16055 0.0
H394 H 0.39847 0.05613 0.20407 0.0
H395 H 0.43474 0.07277 0.25571 0.0
Mn396 Mn 0.64719 0.16769 0.21042 0.0
Mn397 Mn 0.74602 0.18885 0.23399 0.0
C398 C 0.70938 0.23297 0.19613 0.0
C399 C 0.58493 0.17338 0.21196 0.0
C400 C 0.68919 0.11662 0.18956 0.0
O401 O 0.63467 0.13124 0.25102 0.0
O402 O 0.70375 0.15607 0.26783 0.0
C403 C 0.76561 0.24598 0.28856 0.0
N404 N 0.77495 0.23997 0.25876 0.0
C405 C 0.83731 0.31213 0.2565 0.0
C406 C 0.82859 0.31899 0.2873 0.0
C407 C 0.79216 0.28584 0.30321 0.0
C408 C 0.80969 0.27153 0.24313 0.0
H409 H 0.73794 0.22066 0.30101 0.0
C410 C 0.66244 0.13515 0.27195 0.0
O411 O 0.58479 0.14084 0.1984 0.0
O412 O 0.61972 0.19992 0.22724 0.0
N413 N 0.78796 0.22219 0.20214 0.0
C414 C 0.79116 0.21053 0.1723 0.0
C415 C 0.82411 0.24077 0.15242 0.0
C416 C 0.85386 0.28253 0.16354 0.0
C417 C 0.8501 0.29374 0.1944 0.0
C418 C 0.81631 0.26231 0.21301 0.0
H419 H 0.76857 0.17863 0.16358 0.0
O420 O 0.67543 0.21604 0.17812 0.0
O421 O 0.70701 0.20842 0.21927 0.0
O422 O 0.66083 0.1275 0.18598 0.0
O423 O 0.72078 0.13578 0.2084 0.0
C424 C 0.87815 0.33504 0.20729 0.0
C425 C 0.87191 0.34415 0.23841 0.0
H426 H 0.84938 0.34986 0.29855 0.0
H427 H 0.78378 0.29056 0.32656 0.0
H428 H 0.82653 0.2319 0.12857 0.0
H429 H 0.87929 0.30576 0.14815 0.0
H430 H 0.90455 0.36004 0.19347 0.0
H431 H 0.89363 0.37603 0.24809 0.0
Mn432 Mn 0.491 0.78468 0.77964 0.0
Mn433 Mn 0.55919 0.75769 0.74522 0.0
C434 C 0.49549 0.72562 0.79833 0.0
C435 C 0.42392 0.7797 0.78619 0.0
C436 C 0.58723 0.84262 0.77908 0.0
O437 O 0.50073 0.81028 0.73522 0.0
O438 O 0.53517 0.77819 0.7121 0.0
C439 C 0.50903 0.68486 0.7017 0.0
N440 N 0.53233 0.7001 0.72859 0.0
C441 C 0.53312 0.6334 0.73613 0.0
C442 C 0.50903 0.61696 0.70858 0.0
C443 C 0.49656 0.64265 0.6915 0.0
C444 C 0.54491 0.67582 0.74502 0.0
H445 H 0.50006 0.70478 0.68815 0.0
C446 C 0.51547 0.79999 0.71121 0.0
O447 O 0.45946 0.8144 0.79425 0.0
O448 O 0.42745 0.74893 0.77268 0.0
N449 N 0.58172 0.73651 0.77701 0.0
C450 C 0.60523 0.75737 0.80291 0.0
C451 C 0.61796 0.73521 0.82365 0.0
C452 C 0.60695 0.69209 0.81734 0.0
C453 C 0.58271 0.6713 0.79055 0.0
C454 C 0.57023 0.69475 0.77105 0.0
H455 H 0.61393 0.79053 0.80789 0.0
O456 O 0.48322 0.74641 0.8169 0.0
O457 O 0.50807 0.74275 0.77079 0.0
O458 O 0.55136 0.83062 0.79265 0.0
O459 O 0.59253 0.81783 0.76045 0.0
C460 C 0.57022 0.62812 0.78252 0.0
C461 C 0.54581 0.60933 0.75516 0.0
H462 H 0.49909 0.58431 0.70069 0.0
H463 H 0.47706 0.6298 0.67071 0.0
H464 H 0.63626 0.75133 0.84445 0.0
H465 H 0.61713 0.67523 0.83328 0.0
H466 H 0.57944 0.60917 0.79712 0.0
H467 H 0.53675 0.57626 0.74905 0.0
Mn468 Mn 0.17742 0.66226 0.80649 0.0
Mn469 Mn 0.19818 0.7567 0.77228 0.0
C470 C 0.24482 0.72557 0.81162 0.0
C471 C 0.18518 0.60136 0.81229 0.0
C472 C 0.13058 0.70994 0.82288 0.0
O473 O 0.13619 0.64164 0.76861 0.0
O474 O 0.15944 0.70758 0.74481 0.0
C475 C 0.24612 0.76329 0.71391 0.0
N476 N 0.2454 0.77819 0.74313 0.0
C477 C 0.31924 0.83685 0.73769 0.0
C478 C 0.32105 0.82152 0.70782 0.0
C479 C 0.28427 0.78462 0.69589 0.0
C480 C 0.28024 0.81433 0.75454 0.0
H481 H 0.21787 0.73527 0.7045 0.0
C482 C 0.13726 0.66564 0.74545 0.0
O483 O 0.15486 0.60391 0.82711 0.0
O484 O 0.20658 0.63121 0.79135 0.0
N485 N 0.23711 0.8042 0.79834 0.0
C486 C 0.23028 0.81431 0.82779 0.0
C487 C 0.26374 0.85069 0.84302 0.0
C488 C 0.30409 0.87583 0.82805 0.0
C489 C 0.31062 0.86431 0.79797 0.0
C490 C 0.2759 0.82801 0.78382 0.0
H491 H 0.19954 0.7948 0.83959 0.0
O492 O 0.2296 0.69702 0.83419 0.0
O493 O 0.21707 0.71916 0.79018 0.0
O494 O 0.14002 0.68095 0.8291 0.0
O495 O 0.14957 0.7389 0.80174 0.0
C496 C 0.35033 0.88721 0.78159 0.0
C497 C 0.35461 0.87353 0.75144 0.0
H498 H 0.35049 0.83773 0.69386 0.0
H499 H 0.28535 0.7725 0.67295 0.0
H500 H 0.25849 0.85919 0.86631 0.0
H501 H 0.32992 0.9037 0.83996 0.0
H502 H 0.37779 0.91536 0.79196 0.0
H503 H 0.38527 0.89144 0.73905 0.0
Mn504 Mn 0.31962 0.48789 0.80411 0.0
Mn505 Mn 0.23233 0.44575 0.75724 0.0
C506 C 0.25682 0.48893 0.81976 0.0
C507 C 0.387 0.54875 0.81631 0.0
C508 C 0.27443 0.39661 0.78383 0.0
O509 O 0.34122 0.4872 0.75964 0.0
O510 O 0.28427 0.47943 0.73094 0.0
C511 C 0.23063 0.52331 0.73366 0.0
N512 N 0.2112 0.48476 0.74959 0.0
C513 C 0.14765 0.49011 0.75937 0.0
C514 C 0.16753 0.53048 0.74387 0.0
C515 C 0.20952 0.54746 0.73139 0.0
C516 C 0.17115 0.46851 0.7622 0.0
H517 H 0.26231 0.53583 0.72327 0.0
C518 C 0.32372 0.48847 0.73374 0.0
O519 O 0.37973 0.50976 0.82195 0.0
O520 O 0.35523 0.55176 0.80497 0.0
N521 N 0.18085 0.41298 0.78199 0.0
C522 C 0.16821 0.37618 0.7993 0.0
C523 C 0.12772 0.35606 0.81456 0.0
C524 C 0.1003 0.37347 0.8114 0.0
C525 C 0.11398 0.41135 0.79346 0.0
C526 C 0.15492 0.4303 0.77912 0.0
H527 H 0.18877 0.36219 0.80145 0.0
O528 O 0.28491 0.49233 0.84063 0.0
O529 O 0.26511 0.48051 0.79237 0.0
O530 O 0.29314 0.42245 0.8066 0.0
O531 O 0.2515 0.40298 0.76389 0.0
C532 C 0.08895 0.43151 0.78972 0.0
C533 C 0.10585 0.47098 0.77279 0.0
H534 H 0.1509 0.54872 0.74154 0.0
H535 H 0.22519 0.57868 0.71947 0.0
H536 H 0.1176 0.32718 0.82871 0.0
H537 H 0.06904 0.35776 0.82315 0.0
H538 H 0.05711 0.41753 0.80045 0.0
H539 H 0.08681 0.48682 0.77082 0.0
Mn540 Mn 0.45734 0.82728 0.52027 0.0
Mn541 Mn 0.41716 0.87025 0.56995 0.0
C542 C 0.39356 0.82658 0.50624 0.0
C543 C 0.46253 0.76703 0.50632 0.0
C544 C 0.5052 0.91982 0.53718 0.0
O545 O 0.48475 0.8294 0.5628 0.0
O546 O 0.43974 0.83937 0.59454 0.0
C547 C 0.34251 0.79216 0.59828 0.0
N548 N 0.35905 0.83121 0.58324 0.0
C549 C 0.29179 0.83071 0.58862 0.0
C550 C 0.27397 0.79059 0.60443 0.0
C551 C 0.29921 0.77083 0.60872 0.0
C552 C 0.33453 0.84949 0.57769 0.0
H553 H 0.36233 0.77761 0.60229 0.0
C554 C 0.46962 0.83031 0.5898 0.0
O555 O 0.4936 0.80605 0.49932 0.0
O556 O 0.42883 0.76338 0.52071 0.0
N557 N 0.39381 0.90124 0.5489 0.0
C558 C 0.41408 0.9366 0.5296 0.0
C559 C 0.39199 0.95814 0.52036 0.0
C560 C 0.35005 0.94412 0.532 0.0
C561 C 0.32997 0.90773 0.552 0.0
C562 C 0.35309 0.88687 0.55966 0.0
H563 H 0.44679 0.94829 0.5214 0.0
O564 O 0.41908 0.82532 0.48499 0.0
O565 O 0.40907 0.83226 0.53437 0.0
O566 O 0.49613 0.89206 0.51565 0.0
O567 O 0.47785 0.91444 0.55859 0.0
C568 C 0.28759 0.89071 0.56408 0.0
C569 C 0.26853 0.85224 0.58242 0.0
H570 H 0.24075 0.77428 0.61288 0.0
H571 H 0.28552 0.73957 0.62044 0.0
H572 H 0.40727 0.98557 0.50442 0.0
H573 H 0.33332 0.96109 0.52502 0.0
H574 H 0.26898 0.9063 0.55874 0.0
H575 H 0.2355 0.83876 0.5908 0.0
Mn576 Mn 0.15433 0.64485 0.55237 0.0
Mn577 Mn 0.08633 0.54646 0.58507 0.0
C578 C 0.16116 0.58452 0.54189 0.0
C579 C 0.22056 0.70893 0.54366 0.0
C580 C 0.05829 0.59216 0.5394 0.0
O581 O 0.13511 0.66104 0.59312 0.0
O582 O 0.09599 0.59296 0.61491 0.0
C583 C 0.13566 0.54163 0.63892 0.0
N584 N 0.11713 0.5268 0.61043 0.0
C585 C 0.13892 0.47284 0.60999 0.0
C586 C 0.15889 0.48807 0.6391 0.0
C587 C 0.15714 0.52256 0.65357 0.0
C588 C 0.11785 0.49306 0.59649 0.0
H589 H 0.13428 0.56794 0.65026 0.0
C590 C 0.1142 0.63474 0.61598 0.0
O591 O 0.18455 0.70364 0.53252 0.0
O592 O 0.21699 0.68001 0.5639 0.0
N593 N 0.07813 0.50124 0.55671 0.0
C594 C 0.05657 0.48991 0.52889 0.0
C595 C 0.05464 0.4555 0.51153 0.0
C596 C 0.07506 0.43324 0.52285 0.0
C597 C 0.09684 0.44533 0.55161 0.0
C598 C 0.09725 0.47956 0.56804 0.0
H599 H 0.04104 0.50703 0.51992 0.0
O600 O 0.1714 0.61433 0.52056 0.0
O601 O 0.14115 0.58794 0.56578 0.0
O602 O 0.09577 0.62364 0.53332 0.0
O603 O 0.05082 0.56225 0.55912 0.0
C604 C 0.11827 0.42484 0.56458 0.0
C605 C 0.13929 0.43858 0.59376 0.0
H606 H 0.17576 0.47367 0.65051 0.0
H607 H 0.1725 0.53466 0.67583 0.0
H608 H 0.03764 0.44629 0.4894 0.0
H609 H 0.07378 0.40692 0.50928 0.0
H610 H 0.11871 0.39842 0.55234 0.0
H611 H 0.15561 0.42255 0.60353 0.0
Mn612 Mn 0.35437 0.53181 0.54371 0.0
Mn613 Mn 0.4565 0.55899 0.56002 0.0
C614 C 0.41111 0.59074 0.51794 0.0
C615 C 0.29185 0.5356 0.54917 0.0
C616 C 0.38686 0.47163 0.53525 0.0
O617 O 0.35304 0.50911 0.58849 0.0
O618 O 0.42522 0.54551 0.60039 0.0
C619 C 0.49763 0.63868 0.59834 0.0
N620 N 0.49419 0.61872 0.57046 0.0
C621 C 0.55513 0.6835 0.54909 0.0
C622 C 0.55874 0.70507 0.57737 0.0
C623 C 0.53006 0.68242 0.60221 0.0
C624 C 0.52251 0.63972 0.5468 0.0
H625 H 0.47549 0.62125 0.6173 0.0
C626 C 0.38489 0.52271 0.60793 0.0
O627 O 0.29038 0.5006 0.53921 0.0
O628 O 0.32915 0.56734 0.55841 0.0
N629 N 0.48714 0.5733 0.52081 0.0
C630 C 0.48103 0.54705 0.49582 0.0
C631 C 0.50766 0.56439 0.46919 0.0
C632 C 0.54039 0.60847 0.46855 0.0
C633 C 0.54616 0.63483 0.49457 0.0
C634 C 0.5185 0.61579 0.52039 0.0
H635 H 0.45631 0.51305 0.49622 0.0
O636 O 0.37339 0.56884 0.50451 0.0
O637 O 0.41461 0.57367 0.54365 0.0
O638 O 0.36351 0.48569 0.52438 0.0
O639 O 0.42169 0.49616 0.55015 0.0
C640 C 0.5785 0.6792 0.49599 0.0
C641 C 0.58308 0.70348 0.52328 0.0
H642 H 0.58355 0.73891 0.58035 0.0
H643 H 0.53278 0.69872 0.62419 0.0
H644 H 0.50318 0.54373 0.4493 0.0
H645 H 0.56104 0.62164 0.44804 0.0
H646 H 0.60034 0.69484 0.47637 0.0
H647 H 0.60845 0.73739 0.52427 0.0
C648 C 0.35637 0.29025 0.14224 0.0
C649 C 0.35174 0.27973 0.17455 0.0
C650 C 0.27423 0.23104 0.16905 0.0
C651 C 0.28006 0.23431 0.13597 0.0
N652 N 0.32392 0.27104 0.09051 0.0
N653 N 0.30518 0.26285 0.21932 0.0
C654 C 0.32027 0.26576 0.12233 0.0
C655 C 0.30999 0.25794 0.18812 0.0
N656 N 0.39404 0.32487 0.13126 0.0
N657 N 0.23628 0.19951 0.18237 0.0
H658 H 0.33169 0.28376 0.23314 0.0
H659 H 0.27508 0.25045 0.23031 0.0
H660 H 0.20946 0.17714 0.16957 0.0
H661 H 0.23267 0.19296 0.20635 0.0
H662 H 0.39922 0.3355 0.10807 0.0
H663 H 0.41823 0.34658 0.14631 0.0
H664 H 0.35322 0.28966 0.07868 0.0
H665 H 0.29722 0.25557 0.07567 0.0
C666 C 0.73701 0.10312 0.12055 0.0
C667 C 0.75001 0.07302 0.1312 0.0
C668 C 0.70259 0.05618 0.17693 0.0
C669 C 0.69203 0.08735 0.16659 0.0
N670 N 0.67845 0.11866 0.12106 0.0
N671 N 0.72564 0.00598 0.16078 0.0
C672 C 0.70136 0.10241 0.13548 0.0
C673 C 0.72652 0.0445 0.15664 0.0
N674 N 0.75987 0.13516 0.09882 0.0
N675 N 0.69075 0.03878 0.20629 0.0
H676 H 0.73842 0.99386 0.14427 0.0
H677 H 0.707 0.98353 0.17816 0.0
H678 H 0.67128 0.04563 0.22075 0.0
H679 H 0.70167 0.0193 0.21632 0.0
H680 H 0.75221 0.15918 0.09365 0.0
H681 H 0.78922 0.14253 0.08871 0.0
H682 H 0.68316 0.12804 0.09752 0.0
H683 H 0.65104 0.11689 0.1313 0.0
C684 C 0.91673 0.65741 0.18621 0.0
C685 C 0.88904 0.62227 0.16686 0.0
C686 C 0.90253 0.67391 0.12487 0.0
C687 C 0.91545 0.70732 0.14765 0.0
N688 N 0.93496 0.72961 0.20193 0.0
N689 N 0.86023 0.59626 0.11546 0.0
C690 C 0.9241 0.69942 0.17878 0.0
C691 C 0.8843 0.63015 0.13512 0.0
N692 N 0.93232 0.64934 0.21293 0.0
N693 N 0.9084 0.68426 0.09375 0.0
H694 H 0.84832 0.56392 0.12211 0.0
H695 H 0.85125 0.60046 0.09308 0.0
H696 H 0.92506 0.71659 0.08609 0.0
H697 H 0.90183 0.66141 0.07623 0.0
H698 H 0.95466 0.67394 0.22746 0.0
H699 H 0.92593 0.61791 0.2182 0.0
H700 H 0.93734 0.72284 0.22538 0.0
H701 H 0.93759 0.75984 0.1987 0.0
C702 C 0.29153 0.34205 0.80736 0.0
C703 C 0.27347 0.35433 0.78275 0.0
C704 C 0.22308 0.27852 0.77053 0.0
C705 C 0.23143 0.26806 0.80071 0.0
N706 N 0.28054 0.28444 0.84362 0.0
N707 N 0.24577 0.33445 0.73035 0.0
C708 C 0.26894 0.298 0.81735 0.0
C709 C 0.24698 0.32249 0.76056 0.0
N710 N 0.33013 0.3721 0.82019 0.0
N711 N 0.19025 0.24748 0.75289 0.0
H712 H 0.26624 0.36633 0.72249 0.0
H713 H 0.22878 0.31231 0.71261 0.0
H714 H 0.17329 0.21473 0.75954 0.0
H715 H 0.1791 0.25441 0.73238 0.0
H716 H 0.34593 0.36495 0.83764 0.0
H717 H 0.34855 0.40336 0.81067 0.0
H718 H 0.30487 0.30525 0.85887 0.0
H719 H 0.26483 0.25157 0.85007 0.0
C720 C 0.70373 0.90839 0.79213 0.0
C721 C 0.70192 0.91708 0.82438 0.0
C722 C 0.62766 0.90208 0.81846 0.0
C723 C 0.62677 0.88306 0.78925 0.0
N724 N 0.66739 0.89315 0.74197 0.0
N725 N 0.66703 0.93214 0.86689 0.0
C726 C 0.66629 0.89504 0.77386 0.0
C727 C 0.66551 0.91783 0.83701 0.0
N728 N 0.73925 0.90871 0.77969 0.0
N729 N 0.59337 0.90651 0.82743 0.0
H730 H 0.6957 0.94667 0.87975 0.0
H731 H 0.64032 0.92929 0.87893 0.0
H732 H 0.5679 0.89955 0.81217 0.0
H733 H 0.59237 0.92152 0.84805 0.0
H734 H 0.73966 0.89719 0.75735 0.0
H735 H 0.76752 0.91776 0.79223 0.0
H736 H 0.69594 0.90458 0.72903 0.0
H737 H 0.63985 0.88458 0.72857 0.0
C738 C 0.05949 0.70746 0.82076 0.0
C739 C 0.09314 0.70793 0.83903 0.0
C740 C 0.05901 0.7148 0.88635 0.0
C741 C 0.03653 0.72911 0.86731 0.0
N742 N -0.00524 0.71425 0.82064 0.0
N743 N 0.12292 0.70835 0.89026 0.0
C744 C 0.02958 0.71674 0.8357 0.0
C745 C 0.09144 0.7087 0.87233 0.0
N746 N 0.05747 0.69987 0.78928 0.0
N747 N 0.0513 0.71083 0.91784 0.0
H748 H 0.14882 0.70624 0.88103 0.0
H749 H 0.12515 0.71335 0.91439 0.0
H750 H 0.02794 0.71681 0.92766 0.0
H751 H 0.06472 0.69806 0.93321 0.0
H752 H 0.03632 0.70278 0.77411 0.0
H753 H 0.07776 0.6909 0.77817 0.0
H754 H 0.98645 0.70421 0.79756 0.0
H755 H 0.97186 0.71876 0.83274 0.0
C756 C 0.98748 0.59681 0.47556 0.0
C757 C 0.94723 0.57633 0.4913 0.0
C758 C 0.98474 0.58477 0.5407 0.0
C759 C 0.02142 0.59098 0.52316 0.0
N760 N 0.0565 0.6005 0.47248 0.0
N761 N 0.90845 0.56295 0.54022 0.0
C762 C 0.02318 0.59765 0.49021 0.0
C763 C 0.94616 0.57483 0.52447 0.0
N764 N -0.00998 0.61181 0.44573 0.0
N765 N 0.98734 0.58966 0.57252 0.0
H766 H 0.88212 0.56274 0.52957 0.0
H767 H 0.90366 0.55436 0.56386 0.0
H768 H 0.01565 0.59832 0.58489 0.0
H769 H 0.96299 0.58913 0.58634 0.0
H770 H 0.01923 0.62942 0.43351 0.0
H771 H 0.96299 0.61013 0.43491 0.0
H772 H 0.05664 0.60152 0.44806 0.0
H773 H 0.08161 0.59701 0.4816 0.0
C774 C 0.36084 0.40828 0.49809 0.0
C775 C 0.37697 0.4269 0.52779 0.0
C776 C 0.41584 0.38782 0.53312 0.0
C777 C 0.41048 0.38026 0.50045 0.0
N778 N 0.36575 0.36576 0.4552 0.0
N779 N 0.39322 0.41178 0.57893 0.0
C780 C 0.37801 0.38399 0.48418 0.0
C781 C 0.39529 0.40848 0.54727 0.0
N782 N 0.32994 0.41394 0.48372 0.0
N783 N 0.44319 0.37912 0.54978 0.0
H784 H 0.37576 0.42525 0.58863 0.0
H785 H 0.40402 0.39714 0.59489 0.0
H786 H 0.45732 0.36216 0.54047 0.0
H787 H 0.45239 0.38944 0.57275 0.0
H788 H 0.31852 0.40333 0.4612 0.0
H789 H 0.31302 0.42637 0.49559 0.0
H790 H 0.34336 0.36803 0.44099 0.0
H791 H 0.37747 0.34641 0.44609 0.0
C792 C 0.57831 0.04029 0.53969 0.0
C793 C 0.59657 0.04448 0.50943 0.0
C794 C 0.5767 0.96834 0.51052 0.0
C795 C 0.54702 0.96197 0.53488 0.0
N796 N 0.5416 0.99228 0.58394 0.0
N797 N 0.62232 0.01638 0.46885 0.0
C798 C 0.55481 -0.00183 0.55337 0.0
C799 C 0.59976 0.00987 0.49616 0.0
N800 N 0.58058 0.07573 0.55393 0.0
N801 N 0.58347 0.93523 0.50215 0.0
H802 H 0.64086 0.04736 0.45888 0.0
H803 H 0.62167 0.9913 0.45587 0.0
H804 H 0.56951 0.90594 0.51471 0.0
H805 H 0.6065 0.93857 0.48563 0.0
H806 H 0.5632 0.07386 0.57408 0.0
H807 H 0.59897 0.10714 0.54474 0.0
H808 H 0.54831 0.01773 0.59916 0.0
H809 H 0.5289 0.96211 0.59512 0.0
C810 C 0.02993 0.1772 0.11807 0.0
C811 C 0.04507 0.16394 0.09173 0.0
C812 C 0.97096 0.10964 0.0782 0.0
C813 C 0.95487 0.12161 0.10479 0.0
N814 N 0.96828 0.17229 0.14646 0.0
N815 N 0.02909 0.13335 0.04016 0.0
C816 C 0.9842 0.15724 0.12361 0.0
C817 C 0.01499 0.1358 0.0695 0.0
N818 N 0.05878 0.20779 0.13821 0.0
N819 N 0.94565 0.07174 0.06236 0.0
H820 H 0.061 0.15449 0.03285 0.0
H821 H 0.00854 0.11409 0.02234 0.0
H822 H 0.91334 0.04995 0.06745 0.0
H823 H 0.95804 0.05973 0.0455 0.0
H824 H 0.05033 0.21328 0.1604 0.0
H825 H 0.09126 0.22854 0.13257 0.0
H826 H 0.9872 0.20096 0.15881 0.0
H827 H 0.93522 0.15776 0.15149 0.0
C828 C 0.90562 0.9558 0.15069 0.0
C829 C 0.86122 0.939 0.14355 0.0
C830 C 0.84596 0.86693 0.16174 0.0
C831 C 0.89048 0.88084 0.15887 0.0
N832 N 0.96379 0.94308 0.16325 0.0
N833 N 0.78725 0.87976 0.14824 0.0
C834 C 0.92076 0.92666 0.1573 0.0
C835 C 0.8306 0.89499 0.15134 0.0
N836 N 0.93259 -0.00016 0.15381 0.0
N837 N 0.81948 0.82865 0.17684 0.0
H838 H 0.77492 0.89864 0.1394 0.0
H839 H 0.76349 0.84783 0.15329 0.0
H840 H 0.83158 0.80972 0.18615 0.0
H841 H 0.78755 0.81847 0.18316 0.0
H842 H 0.96441 0.01457 0.16174 0.0
H843 H 0.92182 0.02198 0.15197 0.0
H844 H 0.9881 0.9733 0.15503 0.0
H845 H 0.97561 0.92763 0.1774 0.0
C846 C 0.09127 0.02313 0.09482 0.0
C847 C 0.11675 0.04925 0.1203 0.0
C848 C 0.08784 0.98345 0.1534 0.0
C849 C 0.06456 0.95772 0.12722 0.0
N850 N 0.05249 0.95201 0.07148 0.0
N851 N 0.14354 0.05409 0.17275 0.0
C852 C 0.06958 0.97739 0.09746 0.0
C853 C 0.11648 0.02927 0.14926 0.0
N854 N 0.08473 0.04146 0.0687 0.0
N855 N 0.08045 0.96479 0.18248 0.0
H856 H 0.16382 0.08777 0.17072 0.0
H857 H 0.14844 0.04108 0.19316 0.0
H858 H 0.06034 0.93146 0.1863 0.0
H859 H 0.09222 0.98252 0.20306 0.0
H860 H 0.06131 0.02361 0.05191 0.0
H861 H 0.09951 0.0746 0.06451 0.0
H862 H 0.05889 0.96414 0.04863 0.0
H863 H 0.03456 0.91823 0.07259 0.0
C864 C 0.10603 0.96793 0.87915 0.0
C865 C 0.10237 0.94129 0.85291 0.0
C866 C 0.1386 0.0071 0.82013 0.0
C867 C 0.14343 0.03275 0.84702 0.0
N868 N 0.1498 0.03845 0.90294 0.0
N869 N 0.12618 0.93756 0.80068 0.0
C870 C 0.1339 0.01324 0.87682 0.0
C871 C 0.12256 0.9616 0.82412 0.0
N872 N 0.08036 0.95156 0.90524 0.0
N873 N 0.14646 0.02503 0.79081 0.0
H874 H 0.11491 0.9043 0.80312 0.0
H875 H 0.14408 0.95144 0.78026 0.0
H876 H 0.15885 0.05808 0.78665 0.0
H877 H 0.13829 0.00645 0.77045 0.0
H878 H 0.08029 0.97145 0.92313 0.0
H879 H 0.05533 0.91965 0.90783 0.0
H880 H 0.14465 0.02553 0.92555 0.0
H881 H 0.1722 0.07179 0.90135 0.0
C882 C 0.01702 0.09555 0.8715 0.0
C883 C 0.03217 0.11344 0.84085 0.0
C884 C 0.95644 0.08029 0.82377 0.0
C885 C 0.94195 0.0659 0.85516 0.0
N886 N 0.95935 0.0716 0.90996 0.0
N887 N 0.01578 0.13019 0.78983 0.0
C888 C 0.97269 0.07776 0.87932 0.0
C889 C 0.00167 0.10836 0.8177 0.0
N890 N 0.04396 0.09297 0.89291 0.0
N891 N 0.92815 0.06465 0.79924 0.0
H892 H 0.04863 0.15014 0.78442 0.0
H893 H -0.00504 0.13172 0.77349 0.0
H894 H 0.8951 0.04278 0.80156 0.0
H895 H 0.93824 0.07031 0.7759 0.0
H896 H 0.0329 0.07495 0.91362 0.0
H897 H 0.07677 0.10553 0.88931 0.0
H898 H 0.98047 0.08091 0.92889 0.0
H899 H 0.92742 0.06151 0.9165 0.0
C900 C 0.90012 0.86218 0.89157 0.0
C901 C 0.91275 0.84813 0.86497 0.0
C902 C 0.86359 0.86102 0.83263 0.0
C903 C 0.85769 0.883 0.85817 0.0
N904 N 0.88064 0.91278 0.91087 0.0
N905 N 0.90923 0.83638 0.80903 0.0
C906 C 0.87834 0.88556 0.88749 0.0
C907 C 0.89472 0.84734 0.83516 0.0
N908 N 0.90975 0.85383 0.92087 0.0
N909 N 0.83964 0.85338 0.80604 0.0
H910 H 0.93206 0.82638 0.80979 0.0
H911 H 0.90091 0.84017 0.78634 0.0
H912 H 0.81714 0.86365 0.80332 0.0
H913 H 0.83927 0.8336 0.78794 0.0
H914 H 0.89889 0.8611 0.94141 0.0
H915 H 0.92467 0.83541 0.92458 0.0
H916 H 0.90013 0.91934 0.93057 0.0
H917 H 0.86697 0.93228 0.90984 0.0
C918 C 0.67671 0.46334 0.43746 0.0
C919 C 0.70266 0.47658 0.46446 0.0
C920 C 0.63765 0.45751 0.49613 0.0
C921 C 0.61112 0.43537 0.47006 0.0
N922 N 0.60863 0.40936 0.41669 0.0
N923 N 0.70725 0.48353 0.52102 0.0
C924 C 0.63135 0.43647 0.44076 0.0
C925 C 0.68326 0.47381 0.49427 0.0
N926 N 0.69567 0.47551 0.40849 0.0
N927 N 0.61932 0.4627 0.52268 0.0
H928 H 0.74045 0.49512 0.52115 0.0
H929 H 0.69348 0.47701 0.54337 0.0
H930 H 0.58603 0.45069 0.52481 0.0
H931 H 0.63752 0.48234 0.54125 0.0
H932 H 0.67799 0.46824 0.38778 0.0
H933 H 0.72891 0.497 0.4056 0.0
H934 H 0.62351 0.40606 0.39667 0.0
H935 H 0.57583 0.38684 0.41753 0.0
C936 C 0.52187 0.23256 0.49681 0.0
C937 C 0.51845 0.24767 0.46655 0.0
C938 C 0.56012 0.21759 0.44387 0.0
C939 C 0.56056 0.19886 0.47349 0.0
N940 N 0.5343 0.18173 0.52669 0.0
N941 N 0.52216 0.24244 0.41063 0.0
C942 C 0.53873 0.20395 0.49947 0.0
C943 C 0.53332 0.2358 0.4399 0.0
N944 N 0.51246 0.24792 0.52322 0.0
N945 N 0.5872 0.22103 0.41994 0.0
H946 H 0.50017 0.25321 0.40714 0.0
H947 H 0.53072 0.23276 0.39011 0.0
H948 H 0.60884 0.20985 0.42106 0.0
H949 H 0.59128 0.23911 0.39963 0.0
H950 H 0.51934 0.24173 0.54573 0.0
H951 H 0.50142 0.26995 0.52295 0.0
H952 H 0.51458 0.18046 0.5452 0.0
H953 H 0.54714 0.16132 0.52963 0.0
C954 C 0.77234 0.35488 0.44022 0.0
C955 C 0.79448 0.37647 0.46825 0.0
C956 C 0.7683 0.30505 0.49322 0.0
C957 C 0.74838 0.28424 0.46444 0.0
N958 N 0.74636 0.29026 0.4085 0.0
N959 N 0.82147 0.3718 0.51887 0.0
C960 C 0.756 0.30972 0.43725 0.0
C961 C 0.7952 0.3514 0.49389 0.0
N962 N 0.76385 0.3762 0.41715 0.0
N963 N 0.75952 0.28157 0.52037 0.0
H964 H 0.8408 0.40563 0.52027 0.0
H965 H 0.82706 0.35512 0.53666 0.0
H966 H 0.74114 0.24781 0.52154 0.0
H967 H 0.76857 0.29601 0.54236 0.0
H968 H 0.74346 0.3602 0.39833 0.0
H969 H 0.77332 0.40891 0.41784 0.0
H970 H 0.75186 0.30728 0.38748 0.0
H971 H 0.73724 0.25757 0.40568 0.0
C972 C 0.73993 0.30357 0.22683 0.0
C973 C 0.73734 0.28157 0.1982 0.0
C974 C 0.77712 0.35285 0.17162 0.0
C975 C 0.78205 0.37417 0.20085 0.0
N976 N 0.78067 0.36949 0.25703 0.0
N977 N 0.76097 0.28623 0.14466 0.0
C978 C 0.76785 0.34924 0.22866 0.0
C979 C 0.75861 0.3066 0.17105 0.0
N980 N 0.71352 0.28203 0.25176 0.0
N981 N 0.78695 0.37589 0.14418 0.0
H982 H 0.74688 0.25248 0.14322 0.0
H983 H 0.78011 0.30299 0.12532 0.0
H984 H 0.80014 0.40947 0.1431 0.0
H985 H 0.77895 0.36117 0.12224 0.0
H986 H 0.71112 0.29794 0.27147 0.0
H987 H 0.69064 0.24912 0.2519 0.0
H988 H 0.77288 0.35279 0.27834 0.0
H989 H 0.80318 0.40271 0.25892 0.0
C990 C 0.668 0.44742 0.22226 0.0
C991 C 0.688 0.46696 0.19289 0.0
C992 C 0.61567 0.43374 0.16916 0.0
C993 C 0.59644 0.41726 0.19914 0.0
N994 N 0.60447 0.42273 0.25507 0.0
N995 N 0.67976 0.48655 0.14034 0.0
C996 C 0.62283 0.4293 0.22592 0.0
C997 C 0.66141 0.46285 0.16699 0.0
N998 N 0.69083 0.44301 0.2462 0.0
N999 N 0.59136 0.41948 0.14254 0.0
H1000 H 0.71313 0.50768 0.13795 0.0
H1001 H 0.66157 0.4883 0.12194 0.0
H1002 H 0.55809 0.39774 0.14253 0.0
H1003 H 0.60494 0.42667 0.12012 0.0
H1004 H 0.67594 0.42419 0.26612 0.0
H1005 H 0.72378 0.4543 0.24561 0.0
H1006 H 0.62239 0.43208 0.27569 0.0
H1007 H 0.57166 0.41242 0.25826 0.0
C1008 C 0.50113 0.19928 0.17757 0.0
C1009 C 0.50094 0.22606 0.20201 0.0
C1010 C 0.54081 0.20171 0.23517 0.0
C1011 C 0.54884 0.18269 0.20902 0.0
N1012 N 0.53972 0.16751 0.15315 0.0
N1013 N 0.53091 0.25997 0.25248 0.0
C1014 C 0.52923 0.18173 0.17965 0.0
C1015 C 0.5233 0.2291 0.23052 0.0
N1016 N 0.47475 0.19084 0.15227 0.0
N1017 N 0.55078 0.19417 0.26459 0.0
H1018 H 0.5198 0.28168 0.25096 0.0
H1019 H 0.55179 0.26655 0.27135 0.0
H1020 H 0.56082 0.17168 0.26884 0.0
H1021 H 0.54462 0.20635 0.2849 0.0
H1022 H 0.46997 0.16774 0.13538 0.0
H1023 H 0.45449 0.2039 0.14983 0.0
H1024 H 0.53031 0.17131 0.13082 0.0
H1025 H 0.56059 0.15516 0.15268 0.0
C1026 C 0.30595 0.73883 0.77377 0.0
C1027 C 0.29201 0.74664 0.8034 0.0
C1028 C 0.36716 0.78021 0.822 0.0
C1029 C 0.38064 0.7748 0.79175 0.0
N1030 N 0.36514 0.76316 0.7367 0.0
N1031 N 0.31193 0.78384 0.85298 0.0
C1032 C 0.35074 0.75904 0.76696 0.0
C1033 C 0.32357 0.77054 0.82657 0.0
N1034 N 0.27742 0.70968 0.75269 0.0
N1035 N 0.39472 0.79157 0.8469 0.0
H1036 H 0.28024 0.77686 0.85715 0.0
H1037 H 0.33439 0.80518 0.86914 0.0
H1038 H 0.42644 0.79778 0.84502 0.0
H1039 H 0.38488 0.79114 0.86997 0.0
H1040 H 0.28735 0.69922 0.73322 0.0
H1041 H 0.24412 0.69276 0.75527 0.0
H1042 H 0.34468 0.75485 0.71739 0.0
H1043 H 0.39805 0.77937 0.73078 0.0
C1044 C 0.26058 0.56006 0.80969 0.0
C1045 C 0.23718 0.51701 0.82208 0.0
C1046 C 0.17657 0.52904 0.83395 0.0
C1047 C 0.20215 0.57255 0.82233 0.0
N1048 N 0.27612 0.63267 0.8191 0.0
N1049 N 0.17693 0.46442 0.85326 0.0
C1050 C 0.24676 0.58916 0.81717 0.0
C1051 C 0.19656 0.50285 0.83706 0.0
N1052 N 0.29378 0.57312 0.78869 0.0
N1053 N 0.13369 0.51222 0.84088 0.0
H1054 H 0.19057 0.44453 0.85485 0.0
H1055 H 0.14895 0.45387 0.86671 0.0
H1056 H 0.11779 0.52978 0.83849 0.0
H1057 H 0.11313 0.47984 0.84734 0.0
H1058 H 0.30959 0.60429 0.77876 0.0
H1059 H 0.30001 0.55158 0.77674 0.0
H1060 H 0.30948 0.6452 0.81664 0.0
H1061 H 0.26759 0.65483 0.82743 0.0
C1062 C 0.4793 0.66084 0.83275 0.0
C1063 C 0.47737 0.67803 0.80299 0.0
C1064 C 0.43957 0.60427 0.78248 0.0
C1065 C 0.43077 0.58732 0.81302 0.0
N1066 N 0.44308 0.59858 0.86825 0.0
N1067 N 0.43969 0.66131 0.7528 0.0
C1068 C 0.45161 0.61525 0.8386 0.0
C1069 C 0.45364 0.64863 0.77835 0.0
N1070 N 0.50667 0.68781 0.85524 0.0
N1071 N 0.42842 0.57659 0.75772 0.0
H1072 H 0.44308 0.69191 0.75022 0.0
H1073 H 0.41952 0.63948 0.73586 0.0
H1074 H 0.41999 0.54415 0.76103 0.0
H1075 H 0.43128 0.58664 0.73448 0.0
H1076 H 0.51143 0.67644 0.87653 0.0
H1077 H 0.52736 0.7211 0.85131 0.0
H1078 H 0.45368 0.61791 0.88824 0.0
H1079 H 0.42379 0.56512 0.8724 0.0
C1080 C 0.45759 0.70191 0.479 0.0
C1081 C 0.46828 0.72883 0.50568 0.0
C1082 C 0.44574 0.66718 0.54007 0.0
C1083 C 0.43628 0.639 0.51372 0.0
N1084 N 0.4441 0.6326 0.45811 0.0
N1085 N 0.49055 0.74048 0.55929 0.0
C1086 C 0.44616 0.65747 0.48306 0.0
C1087 C 0.4697 0.71245 0.53524 0.0
N1088 N 0.45637 0.71818 0.4503 0.0
N1089 N 0.42789 0.65196 0.569 0.0
H1090 H 0.50947 0.77401 0.5555 0.0
H1091 H 0.49271 0.73017 0.58175 0.0
H1092 H 0.40558 0.61976 0.57404 0.0
H1093 H 0.43131 0.67252 0.58751 0.0
H1094 H 0.44433 0.69892 0.43036 0.0
H1095 H 0.46593 0.75096 0.44706 0.0
H1096 H 0.45389 0.64524 0.43557 0.0
H1097 H 0.43637 0.60025 0.4607 0.0
C1098 C 0.27394 0.78208 0.51797 0.0
C1099 C 0.26308 0.73919 0.52801 0.0
C1100 C 0.33089 0.75111 0.50414 0.0
C1101 C 0.3461 0.7961 0.50277 0.0
N1102 N 0.32804 0.85081 0.49311 0.0
N1103 N 0.28136 0.68153 0.52628 0.0
C1104 C 0.31613 0.81056 0.50485 0.0
C1105 C 0.29154 0.72332 0.51986 0.0
N1106 N 0.2452 0.79629 0.5224 0.0
N1107 N 0.35168 0.73413 0.48757 0.0
H1108 H 0.25037 0.65617 0.53116 0.0
H1109 H 0.3046 0.67197 0.52652 0.0
H1110 H 0.37733 0.7527 0.47228 0.0
H1111 H 0.33978 0.70081 0.48527 0.0
H1112 H 0.25043 0.82642 0.51498 0.0
H1113 H 0.21647 0.77894 0.5351 0.0
H1114 H 0.30769 0.86371 0.49156 0.0
H1115 H 0.35851 0.87033 0.48277 0.0
C1116 C 0.22995 0.53492 0.52024 0.0
C1117 C 0.25309 0.54032 0.54855 0.0
C1118 C 0.2153 0.57328 0.57327 0.0
C1119 C 0.18937 0.56512 0.54572 0.0
N1120 N 0.16625 0.52953 0.49572 0.0
N1121 N 0.25783 0.55148 0.60425 0.0
C1122 C 0.19469 0.54286 0.52016 0.0
C1123 C 0.24228 0.55499 0.57579 0.0
N1124 N 0.24336 0.52533 0.49292 0.0
N1125 N 0.21737 0.60098 0.59623 0.0
H1126 H 0.27677 0.53697 0.60697 0.0
H1127 H 0.24806 0.55852 0.6254 0.0
H1128 H 0.19956 0.61656 0.59664 0.0
H1129 H 0.24025 0.61179 0.61413 0.0
H1130 H 0.23059 0.52589 0.47112 0.0
H1131 H 0.26989 0.52073 0.49141 0.0
H1132 H 0.16577 0.50912 0.47806 0.0
H1133 H 0.1405 0.53548 0.49471 0.0
C1134 C 0.23217 0.2234 0.98312 0.0
C1135 C 0.19633 0.19065 0.0003 0.0
C1136 C 0.16252 0.15334 0.9517 0.0
C1137 C 0.19517 0.18847 0.93404 0.0
N1138 N 0.25919 0.25959 0.93273 0.0
N1139 N 0.1228 0.12976 0.00033 0.0
C1140 C 0.22963 0.22438 0.94972 0.0
C1141 C 0.16001 0.15751 0.98434 0.0
N1142 N 0.26843 0.25317 -0.00133 0.0
N1143 N 0.13401 0.11542 0.93727 0.0
H1144 H 0.11971 0.1309 0.0245 0.0
H1145 H 0.09377 0.10825 0.98927 0.0
H1146 H 0.13615 0.11092 0.91352 0.0
H1147 H 0.11213 0.08712 0.94929 0.0
H1148 H 0.2973 0.27515 0.98743 0.0
H1149 H 0.26997 0.25428 0.02309 0.0
H1150 H 0.28247 0.28872 0.94283 0.0
H1151 H 0.25887 0.25999 0.90829 0.0
C1152 C 0.74897 0.97024 0.97361 0.0
C1153 C 0.78467 0.9701 0.95892 0.0
C1154 C 0.81728 0.97553 0.01001 0.0
C1155 C 0.786 0.9832 0.02421 0.0
N1156 N 0.722 0.98881 0.02006 0.0
N1157 N 0.85521 0.97639 0.96357 0.0
C1158 C 0.75136 0.98022 0.00617 0.0
C1159 C 0.81952 0.97414 0.97726 0.0
N1160 N 0.713 0.96068 0.95655 0.0
N1161 N 0.84709 0.97166 0.02727 0.0
H1162 H 0.86044 0.9796 0.93949 0.0
H1163 H 0.88096 0.97844 0.97651 0.0
H1164 H 0.84652 0.97046 0.05168 0.0
H1165 H 0.84652 0.97046 0.05168 0.0
H1166 H 0.68425 0.95602 0.96645 0.0
H1167 H 0.71138 0.95513 0.9325 0.0
H1168 H 0.69875 0.9922 0.00772 0.0
H1169 H 0.7223 0.99407 0.04416 0.0
C1170 C 0.96531 0.77775 0.98378 0.0
C1171 C 0.00212 0.81777 0.9742 0.0
C1172 C 0.01433 0.84076 0.02834 0.0
C1173 C 0.97211 0.8075 0.03699 0.0
N1174 N 0.90706 0.74068 0.02158 0.0
N1175 N 0.05049 0.89344 0.98874 0.0
C1176 C 0.94713 0.77492 0.01422 0.0
C1177 C 0.02324 0.85106 -0.00334 0.0
N1178 N 0.94929 0.74189 0.965 0.0
N1179 N 0.04682 0.86193 0.04946 0.0
H1180 H 0.05493 0.90509 0.96577 0.0
H1181 H 0.05493 0.90509 0.96577 0.0
H1182 H 0.04526 0.85124 0.07241 0.0
H1183 H 0.07758 0.88649 0.04234 0.0
H1184 H 0.92506 0.71102 0.97224 0.0
H1185 H 0.96333 0.74175 0.94359 0.0
H1186 H 0.88563 0.71986 0.00469 0.0
H1187 H 0.89478 0.73346 0.04432 0.0
C1188 C 0.81159 0.49464 0.31384 0.0
C1189 C 0.8432 0.53113 0.29654 0.0
C1190 C 0.8817 0.5648 0.34543 0.0
C1191 C 0.84802 0.52987 0.36265 0.0
N1192 N 0.7765 0.46616 0.36377 0.0
N1193 N 0.90504 0.60389 0.29586 0.0
C1194 C 0.81154 0.49636 0.34695 0.0
C1195 C 0.87736 0.56719 0.31237 0.0
N1196 N 0.78164 0.45794 0.29863 0.0
N1197 N 0.91806 0.59513 0.36065 0.0
H1198 H 0.90361 0.60569 0.27155 0.0
H1199 H 0.92769 0.63301 0.30632 0.0
H1200 H 0.92083 0.59533 0.385 0.0
H1201 H 0.94594 0.61864 0.34914 0.0
H1202 H 0.76101 0.42856 0.30995 0.0
H1203 H 0.78021 0.45539 0.27439 0.0
H1204 H 0.74698 0.44382 0.35372 0.0
H1205 H 0.77536 0.46634 0.38808 0.0
C1206 C 0.48581 0.33535 0.31732 0.0
C1207 C 0.44984 0.33243 0.30131 0.0
C1208 C 0.41999 0.33981 0.35145 0.0
C1209 C 0.45419 0.33862 0.36757 0.0
N1210 N 0.51885 0.33216 0.36432 0.0
N1211 N 0.38049 0.32808 0.30263 0.0
C1212 C 0.48632 0.3351 0.35022 0.0
C1213 C 0.41628 0.33374 0.31826 0.0
N1214 N 0.51955 0.33677 0.3011 0.0
N1215 N 0.39171 0.34761 0.36782 0.0
H1216 H 0.37842 0.32622 0.27822 0.0
H1217 H 0.3525 0.32359 0.31373 0.0
H1218 H 0.39252 0.35007 0.39218 0.0
H1219 H 0.369 0.35367 0.3573 0.0
H1220 H 0.54632 0.33805 0.31197 0.0
H1221 H 0.52171 0.33893 0.27683 0.0
H1222 H 0.52173 0.33012 0.38846 0.0
H1223 H 0.52173 0.33012 0.38846 0.0
C1224 C 0.6498 0.16195 0.35464 0.0
C1225 C 0.64508 0.12552 0.37173 0.0
C1226 C 0.64861 0.09203 0.32222 0.0
C1227 C 0.64871 0.12655 0.30531 0.0
N1228 N 0.64043 0.18988 0.30567 0.0
N1229 N 0.63512 0.05339 0.37198 0.0
C1230 C 0.64634 0.15994 0.32165 0.0
C1231 C 0.64301 0.08969 0.35554 0.0
N1232 N 0.65813 0.19905 0.36992 0.0
N1233 N 0.65439 0.06197 0.30645 0.0
H1234 H 0.63305 0.05187 0.39641 0.0
H1235 H 0.6287 0.02438 0.36141 0.0
H1236 H 0.65644 0.06189 0.28204 0.0
H1237 H 0.65918 0.03862 0.31755 0.0
H1238 H 0.667 0.22839 0.35858 0.0
H1239 H 0.66081 0.20196 0.39407 0.0
H1240 H 0.63316 0.21165 0.31651 0.0
H1241 H 0.63835 0.19017 0.28144 0.0
C1242 C 0.45914 0.77998 0.63326 0.0
C1243 C 0.48642 0.82004 0.61784 0.0
C1244 C 0.53435 0.84682 0.66333 0.0
C1245 C 0.50458 0.80852 0.67984 0.0
N1246 N 0.43693 0.74006 0.68238 0.0
N1247 N 0.54899 0.89235 0.61714 0.0
C1248 C 0.46653 0.77534 0.66527 0.0
C1249 C 0.52413 0.85355 0.63243 0.0
N1250 N 0.42652 0.74637 0.61696 0.0
N1251 N 0.57236 0.87645 0.67724 0.0
H1252 H 0.5436 0.89737 0.59388 0.0
H1253 H 0.57386 0.9201 0.62764 0.0
H1254 H 0.57923 0.8737 0.70058 0.0
H1255 H 0.5978 0.90263 0.66549 0.0
H1256 H 0.40766 0.71491 0.62584 0.0
H1257 H 0.42084 0.749 0.59329 0.0
H1258 H 0.40647 0.71695 0.67414 0.0
H1259 H 0.4414 0.73544 0.70591 0.0
C1260 C 0.08526 0.64619 0.66624 0.0
C1261 C 0.12114 0.65159 0.64821 0.0
C1262 C 0.15626 0.64667 0.69544 0.0
C1263 C 0.12329 0.64616 0.71413 0.0
N1264 N 0.05515 0.64365 0.71809 0.0
N1265 N 0.19466 0.66527 0.64664 0.0
C1266 C 0.08724 0.64538 0.69967 0.0
C1267 C 0.15804 0.65531 0.66327 0.0
N1268 N 0.04941 0.64129 0.6512 0.0
N1269 N 0.1873 0.63982 0.70793 0.0
H1270 H 0.19867 0.67487 0.62323 0.0
H1271 H 0.22204 0.66723 0.65703 0.0
H1272 H 0.18685 0.6305 0.73118 0.0
H1273 H 0.18685 0.6305 0.73118 0.0
H1274 H 0.02025 0.63293 0.66239 0.0
H1275 H 0.04922 0.6454 0.62699 0.0
H1276 H 0.03 0.64765 0.70978 0.0
H1277 H 0.05409 0.63769 0.74212 0.0
C1278 C 0.36267 0.54459 0.65669 0.0
C1279 C 0.37493 0.51695 0.64168 0.0
C1280 C 0.3642 0.47649 0.69055 0.0
C1281 C 0.35018 0.50311 0.70504 0.0
N1282 N 0.34768 0.56996 0.70393 0.0
N1283 N 0.40313 0.46826 0.64702 0.0
C1284 C 0.35347 0.53952 0.68894 0.0
C1285 C 0.38079 0.48653 0.65946 0.0
N1286 N 0.36054 0.57659 0.64044 0.0
N1287 N 0.3595 0.44042 0.70569 0.0
H1288 H 0.41741 0.4766 0.62485 0.0
H1289 H 0.41155 0.44869 0.65988 0.0
H1290 H 0.34833 0.43249 0.72872 0.0
H1291 H 0.36416 0.41695 0.69472 0.0
H1292 H 0.35143 0.59729 0.65095 0.0
H1293 H 0.36711 0.5819 0.61656 0.0
H1294 H 0.34306 0.56995 0.72809 0.0
H1295 H 0.34306 0.56995 0.72809 0.0
loop_
_geom_bond_atom_site_label_1
_geom_bond_atom_site_label_2
_geom_bond_distance
_geom_bond_site_symmetry_2
_ccdc_geom_bond_type
Mn0 O5 2.095 . S
Mn0 O15 2.162 . S
Mn0 O16 2.297 . S
Mn0 O24 2.385 . S
Mn0 O25 2.209 . S
Mn0 O26 2.094 . S
Mn1 O6 2.121 . S
Mn1 N8 2.257 . S
Mn1 N17 2.282 . S
Mn1 O25 2.215 . S
Mn1 O27 2.117 . S
C2 O24 1.234 . S
C2 O25 1.283 . S
C3 O15 1.281 . S
C3 O16 1.236 . S
C4 O26 1.240 . S
C4 O27 1.264 . S
O5 Mn0 2.095 . S
O5 C14 1.250 . S
O6 Mn1 2.121 . S
O6 C14 1.258 . S
C7 N8 1.326 . S
C7 C11 1.460 . S
C7 H13 0.929 . S
N8 Mn1 2.257 . S
N8 C7 1.326 . S
N8 C12 1.362 . S
C9 C10 1.258 . S
C9 C12 1.431 . S
C9 C29 1.449 1_545 S
C10 C9 1.258 . S
C10 C11 1.477 . S
C10 H30 0.931 1_545 S
C11 C7 1.460 . S
C11 C10 1.477 . S
C11 H31 0.930 . S
C12 N8 1.362 . S
C12 C9 1.431 . S
C12 C22 1.476 . S
H13 C7 0.929 . S
C14 O5 1.250 . S
C14 O6 1.258 . S
O15 Mn0 2.162 . S
O15 C3 1.281 . S
O16 Mn0 2.297 . S
O16 C3 1.236 . S
N17 Mn1 2.282 . S
N17 C18 1.328 . S
N17 C22 1.318 . S
C18 N17 1.328 . S
C18 C19 1.457 . S
C18 H23 0.929 . S
C19 C18 1.457 . S
C19 C20 1.291 . S
C19 H32 0.931 . S
C20 C19 1.291 . S
C20 C21 1.373 . S
C20 H33 0.929 . S
C21 C20 1.373 . S
C21 C22 1.396 . S
C21 C28 1.403 1_545 S
C22 C12 1.476 . S
C22 N17 1.318 . S
C22 C21 1.396 . S
H23 C18 0.929 . S
O24 Mn0 2.385 . S
O24 C2 1.234 . S
O25 Mn0 2.209 . S
O25 Mn1 2.215 . S
O25 C2 1.283 . S
O26 Mn0 2.094 . S
O26 C4 1.240 . S
O27 Mn1 2.117 . S
O27 C4 1.264 . S
C28 C21 1.403 1_565 S
C28 C29 1.399 . S
C28 H34 0.929 . S
C29 C9 1.449 1_565 S
C29 C28 1.399 . S
C29 H35 0.930 . S
H30 C10 0.931 1_565 S
H31 C11 0.930 . S
H32 C19 0.931 . S
H33 C20 0.929 . S
H34 C28 0.929 . S
H35 C29 0.930 . S
Mn36 O41 2.095 . S
Mn36 O51 2.162 . S
Mn36 O52 2.297 . S
Mn36 O60 2.385 1_565 S
Mn36 O61 2.209 1_565 S
Mn36 O62 2.094 1_565 S
Mn37 O42 2.121 . S
Mn37 N44 2.257 . S
Mn37 N53 2.282 . S
Mn37 O61 2.215 . S
Mn37 O63 2.117 . S
C38 O60 1.234 . S
C38 O61 1.283 . S
C39 O51 1.281 . S
C39 O52 1.236 . S
C40 O62 1.240 . S
C40 O63 1.264 . S
O41 Mn36 2.095 . S
O41 C50 1.257 . S
O42 Mn37 2.121 . S
O42 C50 1.242 1_545 S
C43 N44 1.326 . S
C43 C47 1.460 . S
C43 H49 0.929 . S
N44 Mn37 2.257 . S
N44 C43 1.326 . S
N44 C48 1.362 . S
C45 C46 1.258 . S
C45 C48 1.431 . S
C45 C65 1.449 1_655 S
C46 C45 1.258 . S
C46 C47 1.477 . S
C46 H66 0.931 1_655 S
C47 C43 1.460 . S
C47 C46 1.477 . S
C47 H67 0.930 . S
C48 N44 1.362 . S
C48 C45 1.431 . S
C48 C58 1.476 . S
H49 C43 0.929 . S
C50 O41 1.257 . S
C50 O42 1.242 1_565 S
O51 Mn36 2.162 . S
O51 C39 1.281 . S
O52 Mn36 2.297 . S
O52 C39 1.236 . S
N53 Mn37 2.282 . S
N53 C54 1.328 . S
N53 C58 1.318 . S
C54 N53 1.328 . S
C54 C55 1.457 . S
C54 H59 0.929 . S
C55 C54 1.457 . S
C55 C56 1.291 . S
C55 H68 0.931 . S
C56 C55 1.291 . S
C56 C57 1.373 . S
C56 H69 0.929 . S
C57 C56 1.373 . S
C57 C58 1.396 . S
C57 C64 1.403 1_655 S
C58 C48 1.476 . S
C58 N53 1.318 . S
C58 C57 1.396 . S
H59 C54 0.929 . S
O60 Mn36 2.385 1_545 S
O60 C38 1.234 . S
O61 Mn36 2.209 1_545 S
O61 Mn37 2.215 . S
O61 C38 1.283 . S
O62 Mn36 2.094 1_545 S
O62 C40 1.240 . S
O63 Mn37 2.117 . S
O63 C40 1.264 . S
C64 C57 1.403 1_455 S
C64 C65 1.399 . S
C64 H70 0.929 . S
C65 C45 1.449 1_455 S
C65 C64 1.399 . S
C65 H71 0.930 . S
H66 C46 0.931 1_455 S
H67 C47 0.930 . S
H68 C55 0.931 . S
H69 C56 0.929 . S
H70 C64 0.929 . S
H71 C65 0.930 . S
Mn72 O77 2.095 . S
Mn72 O87 2.162 . S
Mn72 O88 2.297 . S
Mn72 O96 2.385 1_455 S
Mn72 O97 2.209 1_455 S
Mn72 O98 2.094 1_455 S
Mn73 O78 2.121 . S
Mn73 N80 2.257 . S
Mn73 N89 2.282 . S
Mn73 O97 2.215 . S
Mn73 O99 2.117 . S
C74 O96 1.234 . S
C74 O97 1.283 . S
C75 O87 1.281 . S
C75 O88 1.236 . S
C76 O98 1.240 . S
C76 O99 1.264 . S
O77 Mn72 2.095 . S
O77 C86 1.259 . S
O78 Mn73 2.121 . S
O78 C86 1.240 1_655 S
C79 N80 1.326 . S
C79 C83 1.460 . S
C79 H85 0.929 . S
N80 Mn73 2.257 . S
N80 C79 1.326 . S
N80 C84 1.362 . S
C81 C82 1.258 . S
C81 C84 1.431 . S
C81 C101 1.449 . S
C82 C81 1.258 . S
C82 C83 1.477 . S
C82 H102 0.931 . S
C83 C79 1.460 . S
C83 C82 1.477 . S
C83 H103 0.930 . S
C84 N80 1.362 . S
C84 C81 1.431 . S
C84 C94 1.476 . S
H85 C79 0.929 . S
C86 O77 1.259 . S
C86 O78 1.240 1_455 S
O87 Mn72 2.162 . S
O87 C75 1.281 . S
O88 Mn72 2.297 . S
O88 C75 1.236 . S
N89 Mn73 2.282 . S
N89 C90 1.328 . S
N89 C94 1.318 . S
C90 N89 1.328 . S
C90 C91 1.457 . S
C90 H95 0.929 . S
C91 C90 1.457 . S
C91 C92 1.291 . S
C91 H104 0.931 . S
C92 C91 1.291 . S
C92 C93 1.373 . S
C92 H105 0.929 . S
C93 C92 1.373 . S
C93 C94 1.396 . S
C93 C100 1.403 . S
C94 C84 1.476 . S
C94 N89 1.318 . S
C94 C93 1.396 . S
H95 C90 0.929 . S
O96 Mn72 2.385 1_655 S
O96 C74 1.234 . S
O97 Mn72 2.209 1_655 S
O97 Mn73 2.215 . S
O97 C74 1.283 . S
O98 Mn72 2.094 1_655 S
O98 C76 1.240 . S
O99 Mn73 2.117 . S
O99 C76 1.264 . S
C100 C93 1.403 . S
C100 C101 1.399 . S
C100 H106 0.929 . S
C101 C81 1.449 . S
C101 C100 1.399 . S
C101 H107 0.930 . S
H102 C82 0.931 . S
H103 C83 0.930 . S
H104 C91 0.931 . S
H105 C92 0.929 . S
H106 C100 0.929 . S
H107 C101 0.930 . S
Mn108 O113 2.095 . S
Mn108 O123 2.162 . S
Mn108 O124 2.297 . S
Mn108 O132 2.385 . S
Mn108 O133 2.209 . S
Mn108 O134 2.094 . S
Mn109 O114 2.121 . S
Mn109 N116 2.257 . S
Mn109 N125 2.282 . S
Mn109 O133 2.215 . S
Mn109 O135 2.117 . S
C110 O132 1.234 . S
C110 O133 1.283 . S
C111 O123 1.281 . S
C111 O124 1.236 . S
C112 O134 1.240 . S
C112 O135 1.264 . S
O113 Mn108 2.095 . S
O113 C122 1.250 . S
O114 Mn109 2.121 . S
O114 C122 1.258 . S
C115 N116 1.326 . S
C115 C119 1.460 . S
C115 H121 0.929 . S
N116 Mn109 2.257 . S
N116 C115 1.326 . S
N116 C120 1.362 . S
C117 C118 1.258 . S
C117 C120 1.431 . S
C117 C137 1.449 1_455 S
C118 C117 1.258 . S
C118 C119 1.477 . S
C118 H138 0.931 1_455 S
C119 C115 1.460 . S
C119 C118 1.477 . S
C119 H139 0.930 . S
C120 N116 1.362 . S
C120 C117 1.431 . S
C120 C130 1.476 . S
H121 C115 0.929 . S
C122 O113 1.250 . S
C122 O114 1.258 . S
O123 Mn108 2.162 . S
O123 C111 1.281 . S
O124 Mn108 2.297 . S
O124 C111 1.236 . S
N125 Mn109 2.282 . S
N125 C126 1.328 . S
N125 C130 1.318 . S
C126 N125 1.328 . S
C126 C127 1.457 . S
C126 H131 0.929 . S
C127 C126 1.457 . S
C127 C128 1.291 . S
C127 H140 0.931 . S
C128 C127 1.291 . S
C128 C129 1.373 . S
C128 H141 0.929 . S
C129 C128 1.373 . S
C129 C130 1.396 . S
C129 C136 1.403 1_455 S
C130 C120 1.476 . S
C130 N125 1.318 . S
C130 C129 1.396 . S
H131 C126 0.929 . S
O132 Mn108 2.385 . S
O132 C110 1.234 . S
O133 Mn108 2.209 . S
O133 Mn109 2.215 . S
O133 C110 1.283 . S
O134 Mn108 2.094 . S
O134 C112 1.240 . S
O135 Mn109 2.117 . S
O135 C112 1.264 . S
C136 C129 1.403 1_655 S
C136 C137 1.399 . S
C136 H142 0.929 . S
C137 C117 1.449 1_655 S
C137 C136 1.399 . S
C137 H143 0.930 . S
H138 C118 0.931 1_655 S
H139 C119 0.930 . S
H140 C127 0.931 . S
H141 C128 0.929 . S
H142 C136 0.929 . S
H143 C137 0.930 . S
Mn144 O149 2.095 . S
Mn144 O159 2.162 . S
Mn144 O160 2.297 . S
Mn144 O168 2.385 1_545 S
Mn144 O169 2.209 1_545 S
Mn144 O170 2.094 1_545 S
Mn145 O150 2.121 . S
Mn145 N152 2.257 . S
Mn145 N161 2.282 . S
Mn145 O169 2.215 . S
Mn145 O171 2.117 . S
C146 O168 1.234 . S
C146 O169 1.283 . S
C147 O159 1.281 . S
C147 O160 1.236 . S
C148 O170 1.240 . S
C148 O171 1.264 . S
O149 Mn144 2.095 . S
O149 C158 1.259 . S
O150 Mn145 2.121 . S
O150 C158 1.239 1_565 S
C151 N152 1.326 . S
C151 C155 1.460 . S
C151 H157 0.929 . S
N152 Mn145 2.257 . S
N152 C151 1.326 . S
N152 C156 1.362 . S
C153 C154 1.258 . S
C153 C156 1.431 . S
C153 C173 1.449 . S
C154 C153 1.258 . S
C154 C155 1.477 . S
C154 H174 0.931 . S
C155 C151 1.460 . S
C155 C154 1.477 . S
C155 H175 0.930 . S
C156 N152 1.362 . S
C156 C153 1.431 . S
C156 C166 1.476 . S
H157 C151 0.929 . S
C158 O149 1.259 . S
C158 O150 1.239 1_545 S
O159 Mn144 2.162 . S
O159 C147 1.281 . S
O160 Mn144 2.297 . S
O160 C147 1.236 . S
N161 Mn145 2.282 . S
N161 C162 1.328 . S
N161 C166 1.318 . S
C162 N161 1.328 . S
C162 C163 1.457 . S
C162 H167 0.929 . S
C163 C162 1.457 . S
C163 C164 1.291 . S
C163 H176 0.931 . S
C164 C163 1.291 . S
C164 C165 1.373 . S
C164 H177 0.929 . S
C165 C164 1.373 . S
C165 C166 1.396 . S
C165 C172 1.403 . S
C166 C156 1.476 . S
C166 N161 1.318 . S
C166 C165 1.396 . S
H167 C162 0.929 . S
O168 Mn144 2.385 1_565 S
O168 C146 1.234 . S
O169 Mn144 2.209 1_565 S
O169 Mn145 2.215 . S
O169 C146 1.283 . S
O170 Mn144 2.094 1_565 S
O170 C148 1.240 . S
O171 Mn145 2.117 . S
O171 C148 1.264 . S
C172 C165 1.403 . S
C172 C173 1.399 . S
C172 H178 0.929 . S
C173 C153 1.449 . S
C173 C172 1.399 . S
C173 H179 0.930 . S
H174 C154 0.931 . S
H175 C155 0.930 . S
H176 C163 0.931 . S
H177 C164 0.929 . S
H178 C172 0.929 . S
H179 C173 0.930 . S
Mn180 O185 2.095 . S
Mn180 O195 2.162 . S
Mn180 O196 2.297 . S
Mn180 O204 2.385 1_655 S
Mn180 O205 2.209 1_655 S
Mn180 O206 2.094 1_655 S
Mn181 O186 2.121 . S
Mn181 N188 2.257 . S
Mn181 N197 2.282 . S
Mn181 O205 2.215 . S
Mn181 O207 2.117 . S
C182 O204 1.234 . S
C182 O205 1.283 . S
C183 O195 1.281 . S
C183 O196 1.236 . S
C184 O206 1.240 . S
C184 O207 1.264 . S
O185 Mn180 2.095 . S
O185 C194 1.257 . S
O186 Mn181 2.121 . S
O186 C194 1.242 1_455 S
C187 N188 1.326 . S
C187 C191 1.460 . S
C187 H193 0.929 . S
N188 Mn181 2.257 . S
N188 C187 1.326 . S
N188 C192 1.362 . S
C189 C190 1.258 . S
C189 C192 1.431 . S
C189 C209 1.449 1_565 S
C190 C189 1.258 . S
C190 C191 1.477 . S
C190 H210 0.931 1_565 S
C191 C187 1.460 . S
C191 C190 1.477 . S
C191 H211 0.930 . S
C192 N188 1.362 . S
C192 C189 1.431 . S
C192 C202 1.476 . S
H193 C187 0.929 . S
C194 O185 1.257 . S
C194 O186 1.242 1_655 S
O195 Mn180 2.162 . S
O195 C183 1.281 . S
O196 Mn180 2.297 . S
O196 C183 1.236 . S
N197 Mn181 2.282 . S
N197 C198 1.328 . S
N197 C202 1.318 . S
C198 N197 1.328 . S
C198 C199 1.457 . S
C198 H203 0.929 . S
C199 C198 1.457 . S
C199 C200 1.291 . S
C199 H212 0.931 . S
C200 C199 1.291 . S
C200 C201 1.373 . S
C200 H213 0.929 . S
C201 C200 1.373 . S
C201 C202 1.396 . S
C201 C208 1.403 1_565 S
C202 C192 1.476 . S
C202 N197 1.318 . S
C202 C201 1.396 . S
H203 C198 0.929 . S
O204 Mn180 2.385 1_455 S
O204 C182 1.234 . S
O205 Mn180 2.209 1_455 S
O205 Mn181 2.215 . S
O205 C182 1.283 . S
O206 Mn180 2.094 1_455 S
O206 C184 1.240 . S
O207 Mn181 2.117 . S
O207 C184 1.264 . S
C208 C201 1.403 1_545 S
C208 C209 1.399 . S
C208 H214 0.929 . S
C209 C189 1.449 1_545 S
C209 C208 1.399 . S
C209 H215 0.930 . S
H210 C190 0.931 1_545 S
H211 C191 0.930 . S
H212 C199 0.931 . S
H213 C200 0.929 . S
H214 C208 0.929 . S
H215 C209 0.930 . S
Mn216 O221 2.095 . S
Mn216 O231 2.162 . S
Mn216 O232 2.297 . S
Mn216 O240 2.385 . S
Mn216 O241 2.209 . S
Mn216 O242 2.094 . S
Mn217 O222 2.121 . S
Mn217 N224 2.257 . S
Mn217 N233 2.282 . S
Mn217 O241 2.215 . S
Mn217 O243 2.117 . S
C218 O240 1.234 . S
C218 O241 1.283 . S
C219 O231 1.281 . S
C219 O232 1.236 . S
C220 O242 1.240 . S
C220 O243 1.264 . S
O221 Mn216 2.095 . S
O221 C230 1.250 . S
O222 Mn217 2.121 . S
O222 C230 1.258 . S
C223 N224 1.326 . S
C223 C227 1.460 . S
C223 H229 0.929 . S
N224 Mn217 2.257 . S
N224 C223 1.326 . S
N224 C228 1.362 . S
C225 C226 1.258 . S
C225 C228 1.431 . S
C225 C245 1.449 . S
C226 C225 1.258 . S
C226 C227 1.477 . S
C226 H246 0.931 . S
C227 C223 1.460 . S
C227 C226 1.477 . S
C227 H247 0.930 . S
C228 N224 1.362 . S
C228 C225 1.431 . S
C228 C238 1.476 . S
H229 C223 0.929 . S
C230 O221 1.250 . S
C230 O222 1.258 . S
O231 Mn216 2.162 . S
O231 C219 1.281 . S
O232 Mn216 2.297 . S
O232 C219 1.236 . S
N233 Mn217 2.282 . S
N233 C234 1.328 . S
N233 C238 1.318 . S
C234 N233 1.328 . S
C234 C235 1.457 . S
C234 H239 0.929 . S
C235 C234 1.457 . S
C235 C236 1.291 . S
C235 H248 0.931 . S
C236 C235 1.291 . S
C236 C237 1.373 . S
C236 H249 0.929 . S
C237 C236 1.373 . S
C237 C238 1.396 . S
C237 C244 1.403 . S
C238 C228 1.476 . S
C238 N233 1.318 . S
C238 C237 1.396 . S
H239 C234 0.929 . S
O240 Mn216 2.385 . S
O240 C218 1.234 . S
O241 Mn216 2.209 . S
O241 Mn217 2.215 . S
O241 C218 1.283 . S
O242 Mn216 2.094 . S
O242 C220 1.240 . S
O243 Mn217 2.117 . S
O243 C220 1.264 . S
C244 C237 1.403 . S
C244 C245 1.399 . S
C244 H250 0.929 . S
C245 C225 1.449 . S
C245 C244 1.399 . S
C245 H251 0.930 . S
H246 C226 0.931 . S
H247 C227 0.930 . S
H248 C235 0.931 . S
H249 C236 0.929 . S
H250 C244 0.929 . S
H251 C245 0.930 . S
Mn252 O257 2.095 . S
Mn252 O267 2.162 . S
Mn252 O268 2.297 . S
Mn252 O276 2.385 . S
Mn252 O277 2.209 . S
Mn252 O278 2.094 . S
Mn253 O258 2.121 . S
Mn253 N260 2.257 . S
Mn253 N269 2.282 . S
Mn253 O277 2.215 . S
Mn253 O279 2.117 . S
C254 O276 1.234 . S
C254 O277 1.283 . S
C255 O267 1.281 . S
C255 O268 1.236 . S
C256 O278 1.240 . S
C256 O279 1.264 . S
O257 Mn252 2.095 . S
O257 C266 1.250 . S
O258 Mn253 2.121 . S
O258 C266 1.258 . S
C259 N260 1.326 . S
C259 C263 1.460 . S
C259 H265 0.929 . S
N260 Mn253 2.257 . S
N260 C259 1.326 . S
N260 C264 1.362 . S
C261 C262 1.258 . S
C261 C264 1.431 . S
C261 C281 1.449 . S
C262 C261 1.258 . S
C262 C263 1.477 . S
C262 H282 0.931 . S
C263 C259 1.460 . S
C263 C262 1.477 . S
C263 H283 0.930 . S
C264 N260 1.362 . S
C264 C261 1.431 . S
C264 C274 1.476 . S
H265 C259 0.929 . S
C266 O257 1.250 . S
C266 O258 1.258 . S
O267 Mn252 2.162 . S
O267 C255 1.281 . S
O268 Mn252 2.297 . S
O268 C255 1.236 . S
N269 Mn253 2.282 . S
N269 C270 1.328 . S
N269 C274 1.318 . S
C270 N269 1.328 . S
C270 C271 1.457 . S
C270 H275 0.929 . S
C271 C270 1.457 . S
C271 C272 1.291 . S
C271 H284 0.931 . S
C272 C271 1.291 . S
C272 C273 1.373 . S
C272 H285 0.929 . S
C273 C272 1.373 . S
C273 C274 1.396 . S
C273 C280 1.403 . S
C274 C264 1.476 . S
C274 N269 1.318 . S
C274 C273 1.396 . S
H275 C270 0.929 . S
O276 Mn252 2.385 . S
O276 C254 1.234 . S
O277 Mn252 2.209 . S
O277 Mn253 2.215 . S
O277 C254 1.283 . S
O278 Mn252 2.094 . S
O278 C256 1.240 . S
O279 Mn253 2.117 . S
O279 C256 1.264 . S
C280 C273 1.403 . S
C280 C281 1.399 . S
C280 H286 0.929 . S
C281 C261 1.449 . S
C281 C280 1.399 . S
C281 H287 0.930 . S
H282 C262 0.931 . S
H283 C263 0.930 . S
H284 C271 0.931 . S
H285 C272 0.929 . S
H286 C280 0.929 . S
H287 C281 0.930 . S
Mn288 O293 2.095 . S
Mn288 O303 2.162 . S
Mn288 O304 2.297 . S
Mn288 O312 2.385 . S
Mn288 O313 2.209 . S
Mn288 O314 2.094 . S
Mn289 O294 2.121 . S
Mn289 N296 2.257 . S
Mn289 N305 2.282 . S
Mn289 O313 2.215 . S
Mn289 O315 2.117 . S
C290 O312 1.234 . S
C290 O313 1.283 . S
C291 O303 1.281 . S
C291 O304 1.236 . S
C292 O314 1.240 . S
C292 O315 1.264 . S
O293 Mn288 2.095 . S
O293 C302 1.250 . S
O294 Mn289 2.121 . S
O294 C302 1.258 . S
C295 N296 1.326 . S
C295 C299 1.460 . S
C295 H301 0.929 . S
N296 Mn289 2.257 . S
N296 C295 1.326 . S
N296 C300 1.362 . S
C297 C298 1.258 . S
C297 C300 1.431 . S
C297 C317 1.449 . S
C298 C297 1.258 . S
C298 C299 1.477 . S
C298 H318 0.931 . S
C299 C295 1.460 . S
C299 C298 1.477 . S
C299 H319 0.930 . S
C300 N296 1.362 . S
C300 C297 1.431 . S
C300 C310 1.476 . S
H301 C295 0.929 . S
C302 O293 1.250 . S
C302 O294 1.258 . S
O303 Mn288 2.162 . S
O303 C291 1.281 . S
O304 Mn288 2.297 . S
O304 C291 1.236 . S
N305 Mn289 2.282 . S
N305 C306 1.328 . S
N305 C310 1.318 . S
C306 N305 1.328 . S
C306 C307 1.457 . S
C306 H311 0.929 . S
C307 C306 1.457 . S
C307 C308 1.291 . S
C307 H320 0.931 . S
C308 C307 1.291 . S
C308 C309 1.373 . S
C308 H321 0.929 . S
C309 C308 1.373 . S
C309 C310 1.396 . S
C309 C316 1.403 . S
C310 C300 1.476 . S
C310 N305 1.318 . S
C310 C309 1.396 . S
H311 C306 0.929 . S
O312 Mn288 2.385 . S
O312 C290 1.234 . S
O313 Mn288 2.209 . S
O313 Mn289 2.215 . S
O313 C290 1.283 . S
O314 Mn288 2.094 . S
O314 C292 1.240 . S
O315 Mn289 2.117 . S
O315 C292 1.264 . S
C316 C309 1.403 . S
C316 C317 1.399 . S
C316 H322 0.929 . S
C317 C297 1.449 . S
C317 C316 1.399 . S
C317 H323 0.930 . S
H318 C298 0.931 . S
H319 C299 0.930 . S
H320 C307 0.931 . S
H321 C308 0.929 . S
H322 C316 0.929 . S
H323 C317 0.930 . S
Mn324 O329 2.095 . S
Mn324 O339 2.162 . S
Mn324 O340 2.297 . S
Mn324 O348 2.385 . S
Mn324 O349 2.209 . S
Mn324 O350 2.094 . S
Mn325 O330 2.121 . S
Mn325 N332 2.257 . S
Mn325 N341 2.282 . S
Mn325 O349 2.215 . S
Mn325 O351 2.117 . S
C326 O348 1.234 . S
C326 O349 1.283 . S
C327 O339 1.281 . S
C327 O340 1.236 . S
C328 O350 1.240 . S
C328 O351 1.264 . S
O329 Mn324 2.095 . S
O329 C338 1.250 . S
O330 Mn325 2.121 . S
O330 C338 1.258 . S
C331 N332 1.326 . S
C331 C335 1.460 . S
C331 H337 0.929 . S
N332 Mn325 2.257 . S
N332 C331 1.326 . S
N332 C336 1.362 . S
C333 C334 1.258 . S
C333 C336 1.431 . S
C333 C353 1.449 . S
C334 C333 1.258 . S
C334 C335 1.477 . S
C334 H354 0.931 . S
C335 C331 1.460 . S
C335 C334 1.477 . S
C335 H355 0.930 . S
C336 N332 1.362 . S
C336 C333 1.431 . S
C336 C346 1.476 . S
H337 C331 0.929 . S
C338 O329 1.250 . S
C338 O330 1.258 . S
O339 Mn324 2.162 . S
O339 C327 1.281 . S
O340 Mn324 2.297 . S
O340 C327 1.236 . S
N341 Mn325 2.282 . S
N341 C342 1.328 . S
N341 C346 1.318 . S
C342 N341 1.328 . S
C342 C343 1.457 . S
C342 H347 0.929 . S
C343 C342 1.457 . S
C343 C344 1.291 . S
C343 H356 0.931 . S
C344 C343 1.291 . S
C344 C345 1.373 . S
C344 H357 0.929 . S
C345 C344 1.373 . S
C345 C346 1.396 . S
C345 C352 1.403 . S
C346 C336 1.476 . S
C346 N341 1.318 . S
C346 C345 1.396 . S
H347 C342 0.929 . S
O348 Mn324 2.385 . S
O348 C326 1.234 . S
O349 Mn324 2.209 . S
O349 Mn325 2.215 . S
O349 C326 1.283 . S
O350 Mn324 2.094 . S
O350 C328 1.240 . S
O351 Mn325 2.117 . S
O351 C328 1.264 . S
C352 C345 1.403 . S
C352 C353 1.399 . S
C352 H358 0.929 . S
C353 C333 1.449 . S
C353 C352 1.399 . S
C353 H359 0.930 . S
H354 C334 0.931 . S
H355 C335 0.930 . S
H356 C343 0.931 . S
H357 C344 0.929 . S
H358 C352 0.929 . S
H359 C353 0.930 . S
Mn360 O365 2.095 . S
Mn360 O375 2.162 . S
Mn360 O376 2.297 . S
Mn360 O384 2.385 . S
Mn360 O385 2.209 . S
Mn360 O386 2.094 . S
Mn361 O366 2.121 . S
Mn361 N368 2.257 . S
Mn361 N377 2.282 . S
Mn361 O385 2.215 . S
Mn361 O387 2.117 . S
C362 O384 1.234 . S
C362 O385 1.283 . S
C363 O375 1.281 . S
C363 O376 1.236 . S
C364 O386 1.240 . S
C364 O387 1.264 . S
O365 Mn360 2.095 . S
O365 C374 1.250 . S
O366 Mn361 2.121 . S
O366 C374 1.258 . S
C367 N368 1.326 . S
C367 C371 1.460 . S
C367 H373 0.929 . S
N368 Mn361 2.257 . S
N368 C367 1.326 . S
N368 C372 1.362 . S
C369 C370 1.258 . S
C369 C372 1.431 . S
C369 C389 1.449 . S
C370 C369 1.258 . S
C370 C371 1.477 . S
C370 H390 0.931 . S
C371 C367 1.460 . S
C371 C370 1.477 . S
C371 H391 0.930 . S
C372 N368 1.362 . S
C372 C369 1.431 . S
C372 C382 1.476 . S
H373 C367 0.929 . S
C374 O365 1.250 . S
C374 O366 1.258 . S
O375 Mn360 2.162 . S
O375 C363 1.281 . S
O376 Mn360 2.297 . S
O376 C363 1.236 . S
N377 Mn361 2.282 . S
N377 C378 1.328 . S
N377 C382 1.318 . S
C378 N377 1.328 . S
C378 C379 1.457 . S
C378 H383 0.929 . S
C379 C378 1.457 . S
C379 C380 1.291 . S
C379 H392 0.931 . S
C380 C379 1.291 . S
C380 C381 1.373 . S
C380 H393 0.929 . S
C381 C380 1.373 . S
C381 C382 1.396 . S
C381 C388 1.403 . S
C382 C372 1.476 . S
C382 N377 1.318 . S
C382 C381 1.396 . S
H383 C378 0.929 . S
O384 Mn360 2.385 . S
O384 C362 1.234 . S
O385 Mn360 2.209 . S
O385 Mn361 2.215 . S
O385 C362 1.283 . S
O386 Mn360 2.094 . S
O386 C364 1.240 . S
O387 Mn361 2.117 . S
O387 C364 1.264 . S
C388 C381 1.403 . S
C388 C389 1.399 . S
C388 H394 0.929 . S
C389 C369 1.449 . S
C389 C388 1.399 . S
C389 H395 0.930 . S
H390 C370 0.931 . S
H391 C371 0.930 . S
H392 C379 0.931 . S
H393 C380 0.929 . S
H394 C388 0.929 . S
H395 C389 0.930 . S
Mn396 O401 2.095 . S
Mn396 O411 2.162 . S
Mn396 O412 2.297 . S
Mn396 O420 2.385 . S
Mn396 O421 2.209 . S
Mn396 O422 2.094 . S
Mn397 O402 2.121 . S
Mn397 N404 2.257 . S
Mn397 N413 2.282 . S
Mn397 O421 2.215 . S
Mn397 O423 2.117 . S
C398 O420 1.234 . S
C398 O421 1.283 . S
C399 O411 1.281 . S
C399 O412 1.236 . S
C400 O422 1.240 . S
C400 O423 1.264 . S
O401 Mn396 2.095 . S
O401 C410 1.250 . S
O402 Mn397 2.121 . S
O402 C410 1.258 . S
C403 N404 1.326 . S
C403 C407 1.460 . S
C403 H409 0.929 . S
N404 Mn397 2.257 . S
N404 C403 1.326 . S
N404 C408 1.362 . S
C405 C406 1.258 . S
C405 C408 1.431 . S
C405 C425 1.449 . S
C406 C405 1.258 . S
C406 C407 1.477 . S
C406 H426 0.931 . S
C407 C403 1.460 . S
C407 C406 1.477 . S
C407 H427 0.930 . S
C408 N404 1.362 . S
C408 C405 1.431 . S
C408 C418 1.476 . S
H409 C403 0.929 . S
C410 O401 1.250 . S
C410 O402 1.258 . S
O411 Mn396 2.162 . S
O411 C399 1.281 . S
O412 Mn396 2.297 . S
O412 C399 1.236 . S
N413 Mn397 2.282 . S
N413 C414 1.328 . S
N413 C418 1.318 . S
C414 N413 1.328 . S
C414 C415 1.457 . S
C414 H419 0.929 . S
C415 C414 1.457 . S
C415 C416 1.291 . S
C415 H428 0.931 . S
C416 C415 1.291 . S
C416 C417 1.373 . S
C416 H429 0.929 . S
C417 C416 1.373 . S
C417 C418 1.396 . S
C417 C424 1.403 . S
C418 C408 1.476 . S
C418 N413 1.318 . S
C418 C417 1.396 . S
H419 C414 0.929 . S
O420 Mn396 2.385 . S
O420 C398 1.234 . S
O421 Mn396 2.209 . S
O421 Mn397 2.215 . S
O421 C398 1.283 . S
O422 Mn396 2.094 . S
O422 C400 1.240 . S
O423 Mn397 2.117 . S
O423 C400 1.264 . S
C424 C417 1.403 . S
C424 C425 1.399 . S
C424 H430 0.929 . S
C425 C405 1.449 . S
C425 C424 1.399 . S
C425 H431 0.930 . S
H426 C406 0.931 . S
H427 C407 0.930 . S
H428 C415 0.931 . S
H429 C416 0.929 . S
H430 C424 0.929 . S
H431 C425 0.930 . S
Mn432 O437 2.095 . S
Mn432 O447 2.162 . S
Mn432 O448 2.297 . S
Mn432 O456 2.385 . S
Mn432 O457 2.209 . S
Mn432 O458 2.094 . S
Mn433 O438 2.121 . S
Mn433 N440 2.257 . S
Mn433 N449 2.282 . S
Mn433 O457 2.215 . S
Mn433 O459 2.117 . S
C434 O456 1.234 . S
C434 O457 1.283 . S
C435 O447 1.281 . S
C435 O448 1.236 . S
C436 O458 1.240 . S
C436 O459 1.264 . S
O437 Mn432 2.095 . S
O437 C446 1.250 . S
O438 Mn433 2.121 . S
O438 C446 1.258 . S
C439 N440 1.326 . S
C439 C443 1.460 . S
C439 H445 0.929 . S
N440 Mn433 2.257 . S
N440 C439 1.326 . S
N440 C444 1.362 . S
C441 C442 1.258 . S
C441 C444 1.431 . S
C441 C461 1.449 . S
C442 C441 1.258 . S
C442 C443 1.477 . S
C442 H462 0.931 . S
C443 C439 1.460 . S
C443 C442 1.477 . S
C443 H463 0.930 . S
C444 N440 1.362 . S
C444 C441 1.431 . S
C444 C454 1.476 . S
H445 C439 0.929 . S
C446 O437 1.250 . S
C446 O438 1.258 . S
O447 Mn432 2.162 . S
O447 C435 1.281 . S
O448 Mn432 2.297 . S
O448 C435 1.236 . S
N449 Mn433 2.282 . S
N449 C450 1.328 . S
N449 C454 1.318 . S
C450 N449 1.328 . S
C450 C451 1.457 . S
C450 H455 0.929 . S
C451 C450 1.457 . S
C451 C452 1.291 . S
C451 H464 0.931 . S
C452 C451 1.291 . S
C452 C453 1.373 . S
C452 H465 0.929 . S
C453 C452 1.373 . S
C453 C454 1.396 . S
C453 C460 1.403 . S
C454 C444 1.476 . S
C454 N449 1.318 . S
C454 C453 1.396 . S
H455 C450 0.929 . S
O456 Mn432 2.385 . S
O456 C434 1.234 . S
O457 Mn432 2.209 . S
O457 Mn433 2.215 . S
O457 C434 1.283 . S
O458 Mn432 2.094 . S
O458 C436 1.240 . S
O459 Mn433 2.117 . S
O459 C436 1.264 . S
C460 C453 1.403 . S
C460 C461 1.399 . S
C460 H466 0.929 . S
C461 C441 1.449 . S
C461 C460 1.399 . S
C461 H467 0.930 . S
H462 C442 0.931 . S
H463 C443 0.930 . S
H464 C451 0.931 . S
H465 C452 0.929 . S
H466 C460 0.929 . S
H467 C461 0.930 . S
Mn468 O473 2.095 . S
Mn468 O483 2.162 . S
Mn468 O484 2.297 . S
Mn468 O492 2.385 . S
Mn468 O493 2.209 . S
Mn468 O494 2.094 . S
Mn469 O474 2.121 . S
Mn469 N476 2.257 . S
Mn469 N485 2.282 . S
Mn469 O493 2.215 . S
Mn469 O495 2.117 . S
C470 O492 1.234 . S
C470 O493 1.283 . S
C471 O483 1.281 . S
C471 O484 1.236 . S
C472 O494 1.240 . S
C472 O495 1.264 . S
O473 Mn468 2.095 . S
O473 C482 1.250 . S
O474 Mn469 2.121 . S
O474 C482 1.258 . S
C475 N476 1.326 . S
C475 C479 1.460 . S
C475 H481 0.929 . S
N476 Mn469 2.257 . S
N476 C475 1.326 . S
N476 C480 1.362 . S
C477 C478 1.258 . S
C477 C480 1.431 . S
C477 C497 1.449 . S
C478 C477 1.258 . S
C478 C479 1.477 . S
C478 H498 0.931 . S
C479 C475 1.460 . S
C479 C478 1.477 . S
C479 H499 0.930 . S
C480 N476 1.362 . S
C480 C477 1.431 . S
C480 C490 1.476 . S
H481 C475 0.929 . S
C482 O473 1.250 . S
C482 O474 1.258 . S
O483 Mn468 2.162 . S
O483 C471 1.281 . S
O484 Mn468 2.297 . S
O484 C471 1.236 . S
N485 Mn469 2.282 . S
N485 C486 1.328 . S
N485 C490 1.318 . S
C486 N485 1.328 . S
C486 C487 1.457 . S
C486 H491 0.929 . S
C487 C486 1.457 . S
C487 C488 1.291 . S
C487 H500 0.931 . S
C488 C487 1.291 . S
C488 C489 1.373 . S
C488 H501 0.929 . S
C489 C488 1.373 . S
C489 C490 1.396 . S
C489 C496 1.403 . S
C490 C480 1.476 . S
C490 N485 1.318 . S
C490 C489 1.396 . S
H491 C486 0.929 . S
O492 Mn468 2.385 . S
O492 C470 1.234 . S
O493 Mn468 2.209 . S
O493 Mn469 2.215 . S
O493 C470 1.283 . S
O494 Mn468 2.094 . S
O494 C472 1.240 . S
O495 Mn469 2.117 . S
O495 C472 1.264 . S
C496 C489 1.403 . S
C496 C497 1.399 . S
C496 H502 0.929 . S
C497 C477 1.449 . S
C497 C496 1.399 . S
C497 H503 0.930 . S
H498 C478 0.931 . S
H499 C479 0.930 . S
H500 C487 0.931 . S
H501 C488 0.929 . S
H502 C496 0.929 . S
H503 C497 0.930 . S
Mn504 O509 2.095 . S
Mn504 O519 2.162 . S
Mn504 O520 2.297 . S
Mn504 O528 2.385 . S
Mn504 O529 2.209 . S
Mn504 O530 2.094 . S
Mn505 O510 2.121 . S
Mn505 N512 2.257 . S
Mn505 N521 2.282 . S
Mn505 O529 2.215 . S
Mn505 O531 2.117 . S
C506 O528 1.234 . S
C506 O529 1.283 . S
C507 O519 1.281 . S
C507 O520 1.236 . S
C508 O530 1.240 . S
C508 O531 1.264 . S
O509 Mn504 2.095 . S
O509 C518 1.250 . S
O510 Mn505 2.121 . S
O510 C518 1.258 . S
C511 N512 1.326 . S
C511 C515 1.460 . S
C511 H517 0.929 . S
N512 Mn505 2.257 . S
N512 C511 1.326 . S
N512 C516 1.362 . S
C513 C514 1.258 . S
C513 C516 1.431 . S
C513 C533 1.449 . S
C514 C513 1.258 . S
C514 C515 1.477 . S
C514 H534 0.931 . S
C515 C511 1.460 . S
C515 C514 1.477 . S
C515 H535 0.930 . S
C516 N512 1.362 . S
C516 C513 1.431 . S
C516 C526 1.476 . S
H517 C511 0.929 . S
C518 O509 1.250 . S
C518 O510 1.258 . S
O519 Mn504 2.162 . S
O519 C507 1.281 . S
O520 Mn504 2.297 . S
O520 C507 1.236 . S
N521 Mn505 2.282 . S
N521 C522 1.328 . S
N521 C526 1.318 . S
C522 N521 1.328 . S
C522 C523 1.457 . S
C522 H527 0.929 . S
C523 C522 1.457 . S
C523 C524 1.291 . S
C523 H536 0.931 . S
C524 C523 1.291 . S
C524 C525 1.373 . S
C524 H537 0.929 . S
C525 C524 1.373 . S
C525 C526 1.396 . S
C525 C532 1.403 . S
C526 C516 1.476 . S
C526 N521 1.318 . S
C526 C525 1.396 . S
H527 C522 0.929 . S
O528 Mn504 2.385 . S
O528 C506 1.234 . S
O529 Mn504 2.209 . S
O529 Mn505 2.215 . S
O529 C506 1.283 . S
O530 Mn504 2.094 . S
O530 C508 1.240 . S
O531 Mn505 2.117 . S
O531 C508 1.264 . S
C532 C525 1.403 . S
C532 C533 1.399 . S
C532 H538 0.929 . S
C533 C513 1.449 . S
C533 C532 1.399 . S
C533 H539 0.930 . S
H534 C514 0.931 . S
H535 C515 0.930 . S
H536 C523 0.931 . S
H537 C524 0.929 . S
H538 C532 0.929 . S
H539 C533 0.930 . S
Mn540 O545 2.095 . S
Mn540 O555 2.162 . S
Mn540 O556 2.297 . S
Mn540 O564 2.385 . S
Mn540 O565 2.209 . S
Mn540 O566 2.094 . S
Mn541 O546 2.121 . S
Mn541 N548 2.257 . S
Mn541 N557 2.282 . S
Mn541 O565 2.215 . S
Mn541 O567 2.117 . S
C542 O564 1.234 . S
C542 O565 1.283 . S
C543 O555 1.281 . S
C543 O556 1.236 . S
C544 O566 1.240 . S
C544 O567 1.264 . S
O545 Mn540 2.095 . S
O545 C554 1.250 . S
O546 Mn541 2.121 . S
O546 C554 1.258 . S
C547 N548 1.326 . S
C547 C551 1.460 . S
C547 H553 0.929 . S
N548 Mn541 2.257 . S
N548 C547 1.326 . S
N548 C552 1.362 . S
C549 C550 1.258 . S
C549 C552 1.431 . S
C549 C569 1.449 . S
C550 C549 1.258 . S
C550 C551 1.477 . S
C550 H570 0.931 . S
C551 C547 1.460 . S
C551 C550 1.477 . S
C551 H571 0.930 . S
C552 N548 1.362 . S
C552 C549 1.431 . S
C552 C562 1.476 . S
H553 C547 0.929 . S
C554 O545 1.250 . S
C554 O546 1.258 . S
O555 Mn540 2.162 . S
O555 C543 1.281 . S
O556 Mn540 2.297 . S
O556 C543 1.236 . S
N557 Mn541 2.282 . S
N557 C558 1.328 . S
N557 C562 1.318 . S
C558 N557 1.328 . S
C558 C559 1.457 . S
C558 H563 0.929 . S
C559 C558 1.457 . S
C559 C560 1.291 . S
C559 H572 0.931 . S
C560 C559 1.291 . S
C560 C561 1.373 . S
C560 H573 0.929 . S
C561 C560 1.373 . S
C561 C562 1.396 . S
C561 C568 1.403 . S
C562 C552 1.476 . S
C562 N557 1.318 . S
C562 C561 1.396 . S
H563 C558 0.929 . S
O564 Mn540 2.385 . S
O564 C542 1.234 . S
O565 Mn540 2.209 . S
O565 Mn541 2.215 . S
O565 C542 1.283 . S
O566 Mn540 2.094 . S
O566 C544 1.240 . S
O567 Mn541 2.117 . S
O567 C544 1.264 . S
C568 C561 1.403 . S
C568 C569 1.399 . S
C568 H574 0.929 . S
C569 C549 1.449 . S
C569 C568 1.399 . S
C569 H575 0.930 . S
H570 C550 0.931 . S
H571 C551 0.930 . S
H572 C559 0.931 . S
H573 C560 0.929 . S
H574 C568 0.929 . S
H575 C569 0.930 . S
Mn576 O581 2.095 . S
Mn576 O591 2.162 . S
Mn576 O592 2.297 . S
Mn576 O600 2.385 . S
Mn576 O601 2.209 . S
Mn576 O602 2.094 . S
Mn577 O582 2.121 . S
Mn577 N584 2.257 . S
Mn577 N593 2.282 . S
Mn577 O601 2.215 . S
Mn577 O603 2.117 . S
C578 O600 1.234 . S
C578 O601 1.283 . S
C579 O591 1.281 . S
C579 O592 1.236 . S
C580 O602 1.240 . S
C580 O603 1.264 . S
O581 Mn576 2.095 . S
O581 C590 1.250 . S
O582 Mn577 2.121 . S
O582 C590 1.258 . S
C583 N584 1.326 . S
C583 C587 1.460 . S
C583 H589 0.929 . S
N584 Mn577 2.257 . S
N584 C583 1.326 . S
N584 C588 1.362 . S
C585 C586 1.258 . S
C585 C588 1.431 . S
C585 C605 1.449 . S
C586 C585 1.258 . S
C586 C587 1.477 . S
C586 H606 0.931 . S
C587 C583 1.460 . S
C587 C586 1.477 . S
C587 H607 0.930 . S
C588 N584 1.362 . S
C588 C585 1.431 . S
C588 C598 1.476 . S
H589 C583 0.929 . S
C590 O581 1.250 . S
C590 O582 1.258 . S
O591 Mn576 2.162 . S
O591 C579 1.281 . S
O592 Mn576 2.297 . S
O592 C579 1.236 . S
N593 Mn577 2.282 . S
N593 C594 1.328 . S
N593 C598 1.318 . S
C594 N593 1.328 . S
C594 C595 1.457 . S
C594 H599 0.929 . S
C595 C594 1.457 . S
C595 C596 1.291 . S
C595 H608 0.931 . S
C596 C595 1.291 . S
C596 C597 1.373 . S
C596 H609 0.929 . S
C597 C596 1.373 . S
C597 C598 1.396 . S
C597 C604 1.403 . S
C598 C588 1.476 . S
C598 N593 1.318 . S
C598 C597 1.396 . S
H599 C594 0.929 . S
O600 Mn576 2.385 . S
O600 C578 1.234 . S
O601 Mn576 2.209 . S
O601 Mn577 2.215 . S
O601 C578 1.283 . S
O602 Mn576 2.094 . S
O602 C580 1.240 . S
O603 Mn577 2.117 . S
O603 C580 1.264 . S
C604 C597 1.403 . S
C604 C605 1.399 . S
C604 H610 0.929 . S
C605 C585 1.449 . S
C605 C604 1.399 . S
C605 H611 0.930 . S
H606 C586 0.931 . S
H607 C587 0.930 . S
H608 C595 0.931 . S
H609 C596 0.929 . S
H610 C604 0.929 . S
H611 C605 0.930 . S
Mn612 O617 2.095 . S
Mn612 O627 2.162 . S
Mn612 O628 2.297 . S
Mn612 O636 2.385 . S
Mn612 O637 2.209 . S
Mn612 O638 2.094 . S
Mn613 O618 2.121 . S
Mn613 N620 2.257 . S
Mn613 N629 2.282 . S
Mn613 O637 2.215 . S
Mn613 O639 2.117 . S
C614 O636 1.234 . S
C614 O637 1.283 . S
C615 O627 1.281 . S
C615 O628 1.236 . S
C616 O638 1.240 . S
C616 O639 1.264 . S
O617 Mn612 2.095 . S
O617 C626 1.250 . S
O618 Mn613 2.121 . S
O618 C626 1.258 . S
C619 N620 1.326 . S
C619 C623 1.460 . S
C619 H625 0.929 . S
N620 Mn613 2.257 . S
N620 C619 1.326 . S
N620 C624 1.362 . S
C621 C622 1.258 . S
C621 C624 1.431 . S
C621 C641 1.449 . S
C622 C621 1.258 . S
C622 C623 1.477 . S
C622 H642 0.931 . S
C623 C619 1.460 . S
C623 C622 1.477 . S
C623 H643 0.930 . S
C624 N620 1.362 . S
C624 C621 1.431 . S
C624 C634 1.476 . S
H625 C619 0.929 . S
C626 O617 1.250 . S
C626 O618 1.258 . S
O627 Mn612 2.162 . S
O627 C615 1.281 . S
O628 Mn612 2.297 . S
O628 C615 1.236 . S
N629 Mn613 2.282 . S
N629 C630 1.328 . S
N629 C634 1.318 . S
C630 N629 1.328 . S
C630 C631 1.457 . S
C630 H635 0.929 . S
C631 C630 1.457 . S
C631 C632 1.291 . S
C631 H644 0.931 . S
C632 C631 1.291 . S
C632 C633 1.373 . S
C632 H645 0.929 . S
C633 C632 1.373 . S
C633 C634 1.396 . S
C633 C640 1.403 . S
C634 C624 1.476 . S
C634 N629 1.318 . S
C634 C633 1.396 . S
H635 C630 0.929 . S
O636 Mn612 2.385 . S
O636 C614 1.234 . S
O637 Mn612 2.209 . S
O637 Mn613 2.215 . S
O637 C614 1.283 . S
O638 Mn612 2.094 . S
O638 C616 1.240 . S
O639 Mn613 2.117 . S
O639 C616 1.264 . S
C640 C633 1.403 . S
C640 C641 1.399 . S
C640 H646 0.929 . S
C641 C621 1.449 . S
C641 C640 1.399 . S
C641 H647 0.930 . S
H642 C622 0.931 . S
H643 C623 0.930 . S
H644 C631 0.931 . S
H645 C632 0.929 . S
H646 C640 0.929 . S
H647 C641 0.930 . S
C648 C649 1.363 . S
C648 C654 1.379 . S
C648 N656 1.356 . S
C649 C648 1.363 . S
C649 C655 1.363 . S
C650 C651 1.363 . S
C650 C655 1.379 . S
C650 N657 1.356 . S
C651 C650 1.363 . S
C651 C654 1.363 . S
N652 C654 1.356 . S
N652 H664 0.984 . S
N652 H665 0.985 . S
N653 C655 1.356 . S
N653 H658 0.984 . S
N653 H659 0.985 . S
C654 C648 1.379 . S
C654 C651 1.363 . S
C654 N652 1.356 . S
C655 C649 1.363 . S
C655 C650 1.379 . S
C655 N653 1.356 . S
N656 C648 1.356 . S
N656 H662 0.984 . S
N656 H663 0.984 . S
N657 C650 1.356 . S
N657 H660 0.984 . S
N657 H661 0.985 . S
H658 N653 0.984 . S
H659 N653 0.985 . S
H660 N657 0.984 . S
H661 N657 0.985 . S
H662 N656 0.984 . S
H663 N656 0.984 . S
H664 N652 0.984 . S
H665 N652 0.985 . S
C666 C667 1.363 . S
C666 C672 1.379 . S
C666 N674 1.356 . S
C667 C666 1.363 . S
C667 C673 1.363 . S
C668 C669 1.363 . S
C668 C673 1.379 . S
C668 N675 1.356 . S
C669 C668 1.363 . S
C669 C672 1.363 . S
N670 C672 1.356 . S
N670 H682 0.984 . S
N670 H683 0.985 . S
N671 C673 1.356 1_565 S
N671 H676 0.984 . S
N671 H677 0.985 . S
C672 C666 1.379 . S
C672 C669 1.363 . S
C672 N670 1.356 . S
C673 C667 1.363 . S
C673 C668 1.379 . S
C673 N671 1.356 1_545 S
N674 C666 1.356 . S
N674 H680 0.984 . S
N674 H681 0.984 . S
N675 C668 1.356 . S
N675 H678 0.984 . S
N675 H679 0.985 . S
H676 N671 0.984 . S
H677 N671 0.985 . S
H678 N675 0.984 . S
H679 N675 0.985 . S
H680 N674 0.984 . S
H681 N674 0.984 . S
H682 N670 0.984 . S
H683 N670 0.985 . S
C684 C685 1.363 . S
C684 C690 1.379 . S
C684 N692 1.356 . S
C685 C684 1.363 . S
C685 C691 1.363 . S
C686 C687 1.363 . S
C686 C691 1.379 . S
C686 N693 1.356 . S
C687 C686 1.363 . S
C687 C690 1.363 . S
N688 C690 1.356 . S
N688 H700 0.984 . S
N688 H701 0.985 . S
N689 C691 1.356 . S
N689 H694 0.984 . S
N689 H695 0.985 . S
C690 C684 1.379 . S
C690 C687 1.363 . S
C690 N688 1.356 . S
C691 C685 1.363 . S
C691 C686 1.379 . S
C691 N689 1.356 . S
N692 C684 1.356 . S
N692 H698 0.984 . S
N692 H699 0.984 . S
N693 C686 1.356 . S
N693 H696 0.986 1_655 S
N693 H697 0.985 1_655 S
H694 N689 0.984 . S
H695 N689 0.985 . S
H696 N693 0.986 1_455 S
H697 N693 0.985 1_455 S
H698 N692 0.984 . S
H699 N692 0.984 . S
H700 N688 0.984 . S
H701 N688 0.985 . S
C702 C703 1.363 . S
C702 C708 1.379 . S
C702 N710 1.356 . S
C703 C702 1.363 . S
C703 C709 1.363 . S
C704 C705 1.363 . S
C704 C709 1.379 . S
C704 N711 1.356 . S
C705 C704 1.363 . S
C705 C708 1.363 . S
N706 C708 1.356 . S
N706 H718 0.984 . S
N706 H719 0.985 . S
N707 C709 1.356 . S
N707 H712 0.984 . S
N707 H713 0.985 . S
C708 C702 1.379 . S
C708 C705 1.363 . S
C708 N706 1.356 . S
C709 C703 1.363 . S
C709 C704 1.379 . S
C709 N707 1.356 . S
N710 C702 1.356 . S
N710 H716 0.984 . S
N710 H717 0.984 . S
N711 C704 1.356 . S
N711 H714 0.984 . S
N711 H715 0.985 . S
H712 N707 0.984 . S
H713 N707 0.985 . S
H714 N711 0.984 . S
H715 N711 0.985 . S
H716 N710 0.984 . S
H717 N710 0.984 . S
H718 N706 0.984 . S
H719 N706 0.985 . S
C720 C721 1.363 . S
C720 C726 1.379 . S
C720 N728 1.356 . S
C721 C720 1.363 . S
C721 C727 1.363 . S
C722 C723 1.363 . S
C722 C727 1.379 . S
C722 N729 1.356 . S
C723 C722 1.363 . S
C723 C726 1.363 . S
N724 C726 1.356 . S
N724 H736 0.984 . S
N724 H737 0.985 . S
N725 C727 1.356 . S
N725 H730 0.984 . S
N725 H731 0.985 . S
C726 C720 1.379 . S
C726 C723 1.363 . S
C726 N724 1.356 . S
C727 C721 1.363 . S
C727 C722 1.379 . S
C727 N725 1.356 . S
N728 C720 1.356 . S
N728 H734 0.984 1_565 S
N728 H735 0.990 1_565 S
N729 C722 1.356 . S
N729 H732 0.984 . S
N729 H733 0.985 . S
H730 N725 0.984 . S
H731 N725 0.985 . S
H732 N729 0.984 . S
H733 N729 0.985 . S
H734 N728 0.984 1_545 S
H735 N728 0.990 1_545 S
H736 N724 0.984 . S
H737 N724 0.985 . S
C738 C739 1.363 . S
C738 C744 1.379 . S
C738 N746 1.356 . S
C739 C738 1.363 . S
C739 C745 1.363 . S
C740 C741 1.363 . S
C740 C745 1.379 . S
C740 N747 1.356 . S
C741 C740 1.363 . S
C741 C744 1.363 . S
N742 C744 1.356 . S
N742 H754 0.984 . S
N742 H755 0.985 . S
N743 C745 1.356 . S
N743 H748 0.984 . S
N743 H749 0.985 . S
C744 C738 1.379 . S
C744 C741 1.363 . S
C744 N742 1.356 . S
C745 C739 1.363 . S
C745 C740 1.379 . S
C745 N743 1.356 . S
N746 C738 1.356 . S
N746 H752 0.984 . S
N746 H753 0.984 . S
N747 C740 1.356 . S
N747 H750 0.984 1_455 S
N747 H751 0.985 1_455 S
H748 N743 0.984 . S
H749 N743 0.985 . S
H750 N747 0.984 1_655 S
H751 N747 0.985 1_655 S
H752 N746 0.984 . S
H753 N746 0.984 . S
H754 N742 0.984 . S
H755 N742 0.985 . S
C756 C757 1.363 . S
C756 C762 1.379 1_655 S
C756 N764 1.356 . S
C757 C756 1.363 . S
C757 C763 1.363 . S
C758 C759 1.363 . S
C758 C763 1.379 1_455 S
C758 N765 1.356 . S
C759 C758 1.363 . S
C759 C762 1.363 . S
N760 C762 1.356 . S
N760 H772 0.984 . S
N760 H773 0.985 . S
N761 C763 1.356 . S
N761 H766 0.984 . S
N761 H767 0.985 . S
C762 C756 1.379 1_455 S
C762 C759 1.363 . S
C762 N760 1.356 . S
C763 C757 1.363 . S
C763 C758 1.379 1_655 S
C763 N761 1.356 . S
N764 C756 1.356 . S
N764 H770 0.984 . S
N764 H771 0.984 . S
N765 C758 1.356 . S
N765 H768 0.984 . S
N765 H769 0.985 . S
H766 N761 0.984 . S
H767 N761 0.985 . S
H768 N765 0.984 . S
H769 N765 0.985 . S
H770 N764 0.984 . S
H771 N764 0.984 . S
H772 N760 0.984 . S
H773 N760 0.985 . S
C774 C775 1.363 . S
C774 C780 1.379 . S
C774 N782 1.356 . S
C775 C774 1.363 . S
C775 C781 1.363 . S
C776 C777 1.363 . S
C776 C781 1.379 . S
C776 N783 1.356 . S
C777 C776 1.363 . S
C777 C780 1.363 . S
N778 C780 1.356 . S
N778 H790 0.984 . S
N778 H791 0.985 . S
N779 C781 1.356 . S
N779 H784 0.984 . S
N779 H785 0.985 . S
C780 C774 1.379 . S
C780 C777 1.363 . S
C780 N778 1.356 . S
C781 C775 1.363 . S
C781 C776 1.379 . S
C781 N779 1.356 . S
N782 C774 1.356 . S
N782 H788 0.984 . S
N782 H789 0.984 . S
N783 C776 1.356 . S
N783 H786 0.984 . S
N783 H787 0.985 . S
H784 N779 0.984 . S
H785 N779 0.985 . S
H786 N783 0.984 . S
H787 N783 0.985 . S
H788 N782 0.984 . S
H789 N782 0.984 . S
H790 N778 0.984 . S
H791 N778 0.985 . S
C792 C793 1.363 . S
C792 C798 1.379 1_545 S
C792 N800 1.356 . S
C793 C792 1.363 . S
C793 C799 1.363 . S
C794 C795 1.363 . S
C794 C799 1.379 1_565 S
C794 N801 1.356 . S
C795 C794 1.363 . S
C795 C798 1.363 . S
N796 C798 1.356 . S
N796 H808 0.984 . S
N796 H809 0.985 . S
N797 C799 1.356 . S
N797 H802 0.984 . S
N797 H803 0.985 . S
C798 C792 1.379 1_565 S
C798 C795 1.363 . S
C798 N796 1.356 . S
C799 C793 1.363 . S
C799 C794 1.379 1_545 S
C799 N797 1.356 . S
N800 C792 1.356 . S
N800 H806 0.984 . S
N800 H807 0.984 . S
N801 C794 1.356 . S
N801 H804 0.984 . S
N801 H805 0.985 . S
H802 N797 0.984 . S
H803 N797 0.985 . S
H804 N801 0.984 . S
H805 N801 0.985 . S
H806 N800 0.984 . S
H807 N800 0.984 . S
H808 N796 0.984 . S
H809 N796 0.985 . S
C810 C811 1.363 . S
C810 C816 1.379 1_455 S
C810 N818 1.356 . S
C811 C810 1.363 . S
C811 C817 1.363 . S
C812 C813 1.363 . S
C812 C817 1.379 1_655 S
C812 N819 1.356 . S
C813 C812 1.363 . S
C813 C816 1.363 . S
N814 C816 1.356 . S
N814 H826 0.984 . S
N814 H827 0.985 . S
N815 C817 1.356 . S
N815 H820 0.984 . S
N815 H821 0.985 . S
C816 C810 1.379 1_655 S
C816 C813 1.363 . S
C816 N814 1.356 . S
C817 C811 1.363 . S
C817 C812 1.379 1_455 S
C817 N815 1.356 . S
N818 C810 1.356 . S
N818 H824 0.984 . S
N818 H825 0.984 . S
N819 C812 1.356 . S
N819 H822 0.984 . S
N819 H823 0.985 . S
H820 N815 0.984 . S
H821 N815 0.985 . S
H822 N819 0.984 . S
H823 N819 0.985 . S
H824 N818 0.984 . S
H825 N818 0.984 . S
H826 N814 0.984 . S
H827 N814 0.985 . S
C828 C829 1.363 . S
C828 C834 1.379 . S
C828 N836 1.356 . S
C829 C828 1.363 . S
C829 C835 1.363 . S
C830 C831 1.363 . S
C830 C835 1.379 . S
C830 N837 1.356 . S
C831 C830 1.363 . S
C831 C834 1.363 . S
N832 C834 1.356 . S
N832 H844 0.984 . S
N832 H845 0.985 . S
N833 C835 1.356 . S
N833 H838 0.984 . S
N833 H839 0.985 . S
C834 C828 1.379 . S
C834 C831 1.363 . S
C834 N832 1.356 . S
C835 C829 1.363 . S
C835 C830 1.379 . S
C835 N833 1.356 . S
N836 C828 1.356 . S
N836 H842 0.984 . S
N836 H843 0.984 . S
N837 C830 1.356 . S
N837 H840 0.984 . S
N837 H841 0.985 . S
H838 N833 0.984 . S
H839 N833 0.985 . S
H840 N837 0.984 . S
H841 N837 0.985 . S
H842 N836 0.984 . S
H843 N836 0.984 . S
H844 N832 0.984 . S
H845 N832 0.985 . S
C846 C847 1.363 . S
C846 C852 1.379 1_545 S
C846 N854 1.356 . S
C847 C846 1.363 . S
C847 C853 1.363 . S
C848 C849 1.363 . S
C848 C853 1.379 1_565 S
C848 N855 1.356 . S
C849 C848 1.363 . S
C849 C852 1.363 . S
N850 C852 1.356 . S
N850 H862 0.984 . S
N850 H863 0.985 . S
N851 C853 1.356 . S
N851 H856 0.984 . S
N851 H857 0.985 . S
C852 C846 1.379 1_565 S
C852 C849 1.363 . S
C852 N850 1.356 . S
C853 C847 1.363 . S
C853 C848 1.379 1_545 S
C853 N851 1.356 . S
N854 C846 1.356 . S
N854 H860 0.984 . S
N854 H861 0.984 . S
N855 C848 1.356 . S
N855 H858 0.984 . S
N855 H859 0.985 . S
H856 N851 0.984 . S
H857 N851 0.985 . S
H858 N855 0.984 . S
H859 N855 0.985 . S
H860 N854 0.984 . S
H861 N854 0.984 . S
H862 N850 0.984 . S
H863 N850 0.985 . S
C864 C865 1.363 . S
C864 C870 1.379 1_565 S
C864 N872 1.356 . S
C865 C864 1.363 . S
C865 C871 1.363 . S
C866 C867 1.363 . S
C866 C871 1.379 1_545 S
C866 N873 1.356 . S
C867 C866 1.363 . S
C867 C870 1.363 . S
N868 C870 1.356 . S
N868 H880 0.984 . S
N868 H881 0.985 . S
N869 C871 1.356 . S
N869 H874 0.984 . S
N869 H875 0.985 . S
C870 C864 1.379 1_545 S
C870 C867 1.363 . S
C870 N868 1.356 . S
C871 C865 1.363 . S
C871 C866 1.379 1_565 S
C871 N869 1.356 . S
N872 C864 1.356 . S
N872 H878 0.984 . S
N872 H879 0.984 . S
N873 C866 1.356 . S
N873 H876 0.984 . S
N873 H877 0.985 . S
H874 N869 0.984 . S
H875 N869 0.985 . S
H876 N873 0.984 . S
H877 N873 0.985 . S
H878 N872 0.984 . S
H879 N872 0.984 . S
H880 N868 0.984 . S
H881 N868 0.985 . S
C882 C883 1.363 . S
C882 C888 1.379 1_455 S
C882 N890 1.356 . S
C883 C882 1.363 . S
C883 C889 1.363 . S
C884 C885 1.363 . S
C884 C889 1.379 1_655 S
C884 N891 1.356 . S
C885 C884 1.363 . S
C885 C888 1.363 . S
N886 C888 1.356 . S
N886 H898 0.984 . S
N886 H899 0.985 . S
N887 C889 1.356 . S
N887 H892 0.984 . S
N887 H893 0.985 . S
C888 C882 1.379 1_655 S
C888 C885 1.363 . S
C888 N886 1.356 . S
C889 C883 1.363 . S
C889 C884 1.379 1_455 S
C889 N887 1.356 . S
N890 C882 1.356 . S
N890 H896 0.984 . S
N890 H897 0.984 . S
N891 C884 1.356 . S
N891 H894 0.984 . S
N891 H895 0.985 . S
H892 N887 0.984 . S
H893 N887 0.985 . S
H894 N891 0.984 . S
H895 N891 0.985 . S
H896 N890 0.984 . S
H897 N890 0.984 . S
H898 N886 0.984 . S
H899 N886 0.985 . S
C900 C901 1.363 . S
C900 C906 1.379 . S
C900 N908 1.356 . S
C901 C900 1.363 . S
C901 C907 1.363 . S
C902 C903 1.363 . S
C902 C907 1.379 . S
C902 N909 1.356 . S
C903 C902 1.363 . S
C903 C906 1.363 . S
N904 C906 1.356 . S
N904 H916 0.984 . S
N904 H917 0.985 . S
N905 C907 1.356 . S
N905 H910 0.984 . S
N905 H911 0.985 . S
C906 C900 1.379 . S
C906 C903 1.363 . S
C906 N904 1.356 . S
C907 C901 1.363 . S
C907 C902 1.379 . S
C907 N905 1.356 . S
N908 C900 1.356 . S
N908 H914 0.984 . S
N908 H915 0.984 . S
N909 C902 1.356 . S
N909 H912 0.984 . S
N909 H913 0.985 . S
H910 N905 0.984 . S
H911 N905 0.985 . S
H912 N909 0.984 . S
H913 N909 0.985 . S
H914 N908 0.984 . S
H915 N908 0.984 . S
H916 N904 0.984 . S
H917 N904 0.985 . S
C918 C919 1.363 . S
C918 C924 1.379 . S
C918 N926 1.356 . S
C919 C918 1.363 . S
C919 C925 1.363 . S
C920 C921 1.363 . S
C920 C925 1.379 . S
C920 N927 1.356 . S
C921 C920 1.363 . S
C921 C924 1.363 . S
N922 C924 1.356 . S
N922 H934 0.984 . S
N922 H935 0.985 . S
N923 C925 1.356 . S
N923 H928 0.984 . S
N923 H929 0.985 . S
C924 C918 1.379 . S
C924 C921 1.363 . S
C924 N922 1.356 . S
C925 C919 1.363 . S
C925 C920 1.379 . S
C925 N923 1.356 . S
N926 C918 1.356 . S
N926 H932 0.984 . S
N926 H933 0.984 . S
N927 C920 1.356 . S
N927 H930 0.984 . S
N927 H931 0.985 . S
H928 N923 0.984 . S
H929 N923 0.985 . S
H930 N927 0.984 . S
H931 N927 0.985 . S
H932 N926 0.984 . S
H933 N926 0.984 . S
H934 N922 0.984 . S
H935 N922 0.985 . S
C936 C937 1.363 . S
C936 C942 1.379 . S
C936 N944 1.356 . S
C937 C936 1.363 . S
C937 C943 1.363 . S
C938 C939 1.363 . S
C938 C943 1.379 . S
C938 N945 1.356 . S
C939 C938 1.363 . S
C939 C942 1.363 . S
N940 C942 1.356 . S
N940 H952 0.984 . S
N940 H953 0.985 . S
N941 C943 1.356 . S
N941 H946 0.984 . S
N941 H947 0.985 . S
C942 C936 1.379 . S
C942 C939 1.363 . S
C942 N940 1.356 . S
C943 C937 1.363 . S
C943 C938 1.379 . S
C943 N941 1.356 . S
N944 C936 1.356 . S
N944 H950 0.984 . S
N944 H951 0.984 . S
N945 C938 1.356 . S
N945 H948 0.984 . S
N945 H949 0.985 . S
H946 N941 0.984 . S
H947 N941 0.985 . S
H948 N945 0.984 . S
H949 N945 0.985 . S
H950 N944 0.984 . S
H951 N944 0.984 . S
H952 N940 0.984 . S
H953 N940 0.985 . S
C954 C955 1.363 . S
C954 C960 1.379 . S
C954 N962 1.356 . S
C955 C954 1.363 . S
C955 C961 1.363 . S
C956 C957 1.363 . S
C956 C961 1.379 . S
C956 N963 1.356 . S
C957 C956 1.363 . S
C957 C960 1.363 . S
N958 C960 1.356 . S
N958 H970 0.984 . S
N958 H971 0.985 . S
N959 C961 1.356 . S
N959 H964 0.984 . S
N959 H965 0.985 . S
C960 C954 1.379 . S
C960 C957 1.363 . S
C960 N958 1.356 . S
C961 C955 1.363 . S
C961 C956 1.379 . S
C961 N959 1.356 . S
N962 C954 1.356 . S
N962 H968 0.984 . S
N962 H969 0.984 . S
N963 C956 1.356 . S
N963 H966 0.984 . S
N963 H967 0.985 . S
H964 N959 0.984 . S
H965 N959 0.985 . S
H966 N963 0.984 . S
H967 N963 0.985 . S
H968 N962 0.984 . S
H969 N962 0.984 . S
H970 N958 0.984 . S
H971 N958 0.985 . S
C972 C973 1.363 . S
C972 C978 1.379 . S
C972 N980 1.356 . S
C973 C972 1.363 . S
C973 C979 1.363 . S
C974 C975 1.363 . S
C974 C979 1.379 . S
C974 N981 1.356 . S
C975 C974 1.363 . S
C975 C978 1.363 . S
N976 C978 1.356 . S
N976 H988 0.984 . S
N976 H989 0.985 . S
N977 C979 1.356 . S
N977 H982 0.984 . S
N977 H983 0.985 . S
C978 C972 1.379 . S
C978 C975 1.363 . S
C978 N976 1.356 . S
C979 C973 1.363 . S
C979 C974 1.379 . S
C979 N977 1.356 . S
N980 C972 1.356 . S
N980 H986 0.984 . S
N980 H987 0.984 . S
N981 C974 1.356 . S
N981 H984 0.984 . S
N981 H985 0.985 . S
H982 N977 0.984 . S
H983 N977 0.985 . S
H984 N981 0.984 . S
H985 N981 0.985 . S
H986 N980 0.984 . S
H987 N980 0.984 . S
H988 N976 0.984 . S
H989 N976 0.985 . S
C990 C991 1.363 . S
C990 C996 1.379 . S
C990 N998 1.356 . S
C991 C990 1.363 . S
C991 C997 1.363 . S
C992 C993 1.363 . S
C992 C997 1.379 . S
C992 N999 1.356 . S
C993 C992 1.363 . S
C993 C996 1.363 . S
N994 C996 1.356 . S
N994 H1006 0.984 . S
N994 H1007 0.985 . S
N995 C997 1.356 . S
N995 H1000 0.984 . S
N995 H1001 0.985 . S
C996 C990 1.379 . S
C996 C993 1.363 . S
C996 N994 1.356 . S
C997 C991 1.363 . S
C997 C992 1.379 . S
C997 N995 1.356 . S
N998 C990 1.356 . S
N998 H1004 0.984 . S
N998 H1005 0.984 . S
N999 C992 1.356 . S
N999 H1002 0.984 . S
N999 H1003 0.985 . S
H1000 N995 0.984 . S
H1001 N995 0.985 . S
H1002 N999 0.984 . S
H1003 N999 0.985 . S
H1004 N998 0.984 . S
H1005 N998 0.984 . S
H1006 N994 0.984 . S
H1007 N994 0.985 . S
C1008 C1009 1.363 . S
C1008 C1014 1.379 . S
C1008 N1016 1.356 . S
C1009 C1008 1.363 . S
C1009 C1015 1.363 . S
C1010 C1011 1.363 . S
C1010 C1015 1.379 . S
C1010 N1017 1.356 . S
C1011 C1010 1.363 . S
C1011 C1014 1.363 . S
N1012 C1014 1.356 . S
N1012 H1024 0.984 . S
N1012 H1025 0.985 . S
N1013 C1015 1.356 . S
N1013 H1018 0.984 . S
N1013 H1019 0.985 . S
C1014 C1008 1.379 . S
C1014 C1011 1.363 . S
C1014 N1012 1.356 . S
C1015 C1009 1.363 . S
C1015 C1010 1.379 . S
C1015 N1013 1.356 . S
N1016 C1008 1.356 . S
N1016 H1022 0.984 . S
N1016 H1023 0.984 . S
N1017 C1010 1.356 . S
N1017 H1020 0.984 . S
N1017 H1021 0.985 . S
H1018 N1013 0.984 . S
H1019 N1013 0.985 . S
H1020 N1017 0.984 . S
H1021 N1017 0.985 . S
H1022 N1016 0.984 . S
H1023 N1016 0.984 . S
H1024 N1012 0.984 . S
H1025 N1012 0.985 . S
C1026 C1027 1.363 . S
C1026 C1032 1.379 . S
C1026 N1034 1.356 . S
C1027 C1026 1.363 . S
C1027 C1033 1.363 . S
C1028 C1029 1.363 . S
C1028 C1033 1.379 . S
C1028 N1035 1.356 . S
C1029 C1028 1.363 . S
C1029 C1032 1.363 . S
N1030 C1032 1.356 . S
N1030 H1042 0.984 . S
N1030 H1043 0.985 . S
N1031 C1033 1.356 . S
N1031 H1036 0.984 . S
N1031 H1037 0.985 . S
C1032 C1026 1.379 . S
C1032 C1029 1.363 . S
C1032 N1030 1.356 . S
C1033 C1027 1.363 . S
C1033 C1028 1.379 . S
C1033 N1031 1.356 . S
N1034 C1026 1.356 . S
N1034 H1040 0.984 . S
N1034 H1041 0.984 . S
N1035 C1028 1.356 . S
N1035 H1038 0.984 . S
N1035 H1039 0.985 . S
H1036 N1031 0.984 . S
H1037 N1031 0.985 . S
H1038 N1035 0.984 . S
H1039 N1035 0.985 . S
H1040 N1034 0.984 . S
H1041 N1034 0.984 . S
H1042 N1030 0.984 . S
H1043 N1030 0.985 . S
C1044 C1045 1.363 . S
C1044 C1050 1.379 . S
C1044 N1052 1.356 . S
C1045 C1044 1.363 . S
C1045 C1051 1.363 . S
C1046 C1047 1.363 . S
C1046 C1051 1.379 . S
C1046 N1053 1.356 . S
C1047 C1046 1.363 . S
C1047 C1050 1.363 . S
N1048 C1050 1.356 . S
N1048 H1060 0.984 . S
N1048 H1061 0.985 . S
N1049 C1051 1.356 . S
N1049 H1054 0.984 . S
N1049 H1055 0.985 . S
C1050 C1044 1.379 . S
C1050 C1047 1.363 . S
C1050 N1048 1.356 . S
C1051 C1045 1.363 . S
C1051 C1046 1.379 . S
C1051 N1049 1.356 . S
N1052 C1044 1.356 . S
N1052 H1058 0.984 . S
N1052 H1059 0.984 . S
N1053 C1046 1.356 . S
N1053 H1056 0.984 . S
N1053 H1057 0.985 . S
H1054 N1049 0.984 . S
H1055 N1049 0.985 . S
H1056 N1053 0.984 . S
H1057 N1053 0.985 . S
H1058 N1052 0.984 . S
H1059 N1052 0.984 . S
H1060 N1048 0.984 . S
H1061 N1048 0.985 . S
C1062 C1063 1.363 . S
C1062 C1068 1.379 . S
C1062 N1070 1.356 . S
C1063 C1062 1.363 . S
C1063 C1069 1.363 . S
C1064 C1065 1.363 . S
C1064 C1069 1.379 . S
C1064 N1071 1.356 . S
C1065 C1064 1.363 . S
C1065 C1068 1.363 . S
N1066 C1068 1.356 . S
N1066 H1078 0.984 . S
N1066 H1079 0.985 . S
N1067 C1069 1.356 . S
N1067 H1072 0.984 . S
N1067 H1073 0.985 . S
C1068 C1062 1.379 . S
C1068 C1065 1.363 . S
C1068 N1066 1.356 . S
C1069 C1063 1.363 . S
C1069 C1064 1.379 . S
C1069 N1067 1.356 . S
N1070 C1062 1.356 . S
N1070 H1076 0.984 . S
N1070 H1077 0.984 . S
N1071 C1064 1.356 . S
N1071 H1074 0.984 . S
N1071 H1075 0.985 . S
H1072 N1067 0.984 . S
H1073 N1067 0.985 . S
H1074 N1071 0.984 . S
H1075 N1071 0.985 . S
H1076 N1070 0.984 . S
H1077 N1070 0.984 . S
H1078 N1066 0.984 . S
H1079 N1066 0.985 . S
C1080 C1081 1.363 . S
C1080 C1086 1.379 . S
C1080 N1088 1.356 . S
C1081 C1080 1.363 . S
C1081 C1087 1.363 . S
C1082 C1083 1.363 . S
C1082 C1087 1.379 . S
C1082 N1089 1.356 . S
C1083 C1082 1.363 . S
C1083 C1086 1.363 . S
N1084 C1086 1.356 . S
N1084 H1096 0.984 . S
N1084 H1097 0.985 . S
N1085 C1087 1.356 . S
N1085 H1090 0.984 . S
N1085 H1091 0.985 . S
C1086 C1080 1.379 . S
C1086 C1083 1.363 . S
C1086 N1084 1.356 . S
C1087 C1081 1.363 . S
C1087 C1082 1.379 . S
C1087 N1085 1.356 . S
N1088 C1080 1.356 . S
N1088 H1094 0.984 . S
N1088 H1095 0.984 . S
N1089 C1082 1.356 . S
N1089 H1092 0.984 . S
N1089 H1093 0.985 . S
H1090 N1085 0.984 . S
H1091 N1085 0.985 . S
H1092 N1089 0.984 . S
H1093 N1089 0.985 . S
H1094 N1088 0.984 . S
H1095 N1088 0.984 . S
H1096 N1084 0.984 . S
H1097 N1084 0.985 . S
C1098 C1099 1.363 . S
C1098 C1104 1.379 . S
C1098 N1106 1.356 . S
C1099 C1098 1.363 . S
C1099 C1105 1.363 . S
C1100 C1101 1.363 . S
C1100 C1105 1.379 . S
C1100 N1107 1.356 . S
C1101 C1100 1.363 . S
C1101 C1104 1.363 . S
N1102 C1104 1.356 . S
N1102 H1114 0.984 . S
N1102 H1115 0.985 . S
N1103 C1105 1.356 . S
N1103 H1108 0.984 . S
N1103 H1109 0.985 . S
C1104 C1098 1.379 . S
C1104 C1101 1.363 . S
C1104 N1102 1.356 . S
C1105 C1099 1.363 . S
C1105 C1100 1.379 . S
C1105 N1103 1.356 . S
N1106 C1098 1.356 . S
N1106 H1112 0.984 . S
N1106 H1113 0.984 . S
N1107 C1100 1.356 . S
N1107 H1110 0.984 . S
N1107 H1111 0.985 . S
H1108 N1103 0.984 . S
H1109 N1103 0.985 . S
H1110 N1107 0.984 . S
H1111 N1107 0.985 . S
H1112 N1106 0.984 . S
H1113 N1106 0.984 . S
H1114 N1102 0.984 . S
H1115 N1102 0.985 . S
C1116 C1117 1.363 . S
C1116 C1122 1.379 . S
C1116 N1124 1.356 . S
C1117 C1116 1.363 . S
C1117 C1123 1.363 . S
C1118 C1119 1.363 . S
C1118 C1123 1.379 . S
C1118 N1125 1.356 . S
C1119 C1118 1.363 . S
C1119 C1122 1.363 . S
N1120 C1122 1.356 . S
N1120 H1132 0.984 . S
N1120 H1133 0.985 . S
N1121 C1123 1.356 . S
N1121 H1126 0.984 . S
N1121 H1127 0.985 . S
C1122 C1116 1.379 . S
C1122 C1119 1.363 . S
C1122 N1120 1.356 . S
C1123 C1117 1.363 . S
C1123 C1118 1.379 . S
C1123 N1121 1.356 . S
N1124 C1116 1.356 . S
N1124 H1130 0.984 . S
N1124 H1131 0.984 . S
N1125 C1118 1.356 . S
N1125 H1128 0.984 . S
N1125 H1129 0.985 . S
H1126 N1121 0.984 . S
H1127 N1121 0.985 . S
H1128 N1125 0.984 . S
H1129 N1125 0.985 . S
H1130 N1124 0.984 . S
H1131 N1124 0.984 . S
H1132 N1120 0.984 . S
H1133 N1120 0.985 . S
C1134 C1135 1.363 . S
C1134 C1140 1.379 1_554 S
C1134 N1142 1.356 . S
C1135 C1134 1.363 . S
C1135 C1141 1.363 . S
C1136 C1137 1.363 . S
C1136 C1141 1.379 1_556 S
C1136 N1143 1.356 . S
C1137 C1136 1.363 . S
C1137 C1140 1.363 . S
N1138 C1140 1.356 . S
N1138 H1150 0.984 . S
N1138 H1151 0.985 . S
N1139 C1141 1.356 . S
N1139 H1144 0.984 . S
N1139 H1145 0.985 . S
C1140 C1134 1.379 1_556 S
C1140 C1137 1.363 . S
C1140 N1138 1.356 . S
C1141 C1135 1.363 . S
C1141 C1136 1.379 1_554 S
C1141 N1139 1.356 . S
N1142 C1134 1.356 . S
N1142 H1148 0.984 . S
N1142 H1149 0.984 . S
N1143 C1136 1.356 . S
N1143 H1146 0.984 . S
N1143 H1147 0.985 . S
H1144 N1139 0.984 . S
H1145 N1139 0.985 . S
H1146 N1143 0.984 . S
H1147 N1143 0.985 . S
H1148 N1142 0.984 . S
H1149 N1142 0.984 . S
H1150 N1138 0.984 . S
H1151 N1138 0.985 . S
C1152 C1153 1.363 1_565 S
C1152 C1158 1.379 1_556 S
C1152 N1160 1.356 . S
C1153 C1152 1.363 1_545 S
C1153 C1159 1.363 . S
C1154 C1155 1.363 1_545 S
C1154 C1159 1.379 1_554 S
C1154 N1161 1.356 . S
C1155 C1154 1.363 1_565 S
C1155 C1158 1.363 . S
N1156 C1158 1.356 . S
N1156 H1168 0.984 . S
N1156 H1169 0.985 . S
N1157 C1159 1.356 . S
N1157 H1162 0.984 . S
N1157 H1163 0.985 . S
C1158 C1152 1.379 1_554 S
C1158 C1155 1.363 . S
C1158 N1156 1.356 . S
C1159 C1153 1.363 . S
C1159 C1154 1.379 1_556 S
C1159 N1157 1.356 . S
N1160 C1152 1.356 . S
N1160 H1166 0.984 . S
N1160 H1167 0.984 . S
N1161 C1154 1.356 . S
N1161 H1164 0.984 . S
N1161 H1165 0.985 . S
H1162 N1157 0.984 . S
H1163 N1157 0.985 . S
H1164 N1161 0.984 . S
H1165 N1161 0.985 . S
H1166 N1160 0.984 . S
H1167 N1160 0.984 . S
H1168 N1156 0.984 . S
H1169 N1156 0.985 . S
C1170 C1171 1.363 . S
C1170 C1176 1.379 1_556 S
C1170 N1178 1.356 . S
C1171 C1170 1.363 . S
C1171 C1177 1.363 1_655 S
C1172 C1173 1.363 . S
C1172 C1177 1.379 1_554 S
C1172 N1179 1.356 . S
C1173 C1172 1.363 . S
C1173 C1176 1.363 1_455 S
N1174 C1176 1.356 . S
N1174 H1186 0.984 . S
N1174 H1187 0.985 . S
N1175 C1177 1.356 . S
N1175 H1180 0.984 . S
N1175 H1181 0.985 . S
C1176 C1170 1.379 1_554 S
C1176 C1173 1.363 1_655 S
C1176 N1174 1.356 . S
C1177 C1171 1.363 1_455 S
C1177 C1172 1.379 1_556 S
C1177 N1175 1.356 . S
N1178 C1170 1.356 . S
N1178 H1184 0.984 . S
N1178 H1185 0.984 . S
N1179 C1172 1.356 . S
N1179 H1182 0.984 . S
N1179 H1183 0.985 . S
H1180 N1175 0.984 . S
H1181 N1175 0.985 . S
H1182 N1179 0.984 . S
H1183 N1179 0.985 . S
H1184 N1178 0.984 . S
H1185 N1178 0.984 . S
H1186 N1174 0.984 . S
H1187 N1174 0.985 . S
C1188 C1189 1.363 . S
C1188 C1194 1.379 . S
C1188 N1196 1.356 . S
C1189 C1188 1.363 . S
C1189 C1195 1.363 . S
C1190 C1191 1.363 . S
C1190 C1195 1.379 . S
C1190 N1197 1.356 . S
C1191 C1190 1.363 . S
C1191 C1194 1.363 . S
N1192 C1194 1.356 . S
N1192 H1204 0.984 . S
N1192 H1205 0.985 . S
N1193 C1195 1.356 . S
N1193 H1198 0.984 . S
N1193 H1199 0.985 . S
C1194 C1188 1.379 . S
C1194 C1191 1.363 . S
C1194 N1192 1.356 . S
C1195 C1189 1.363 . S
C1195 C1190 1.379 . S
C1195 N1193 1.356 . S
N1196 C1188 1.356 . S
N1196 H1202 0.984 . S
N1196 H1203 0.984 . S
N1197 C1190 1.356 . S
N1197 H1200 0.984 . S
N1197 H1201 0.985 . S
H1198 N1193 0.984 . S
H1199 N1193 0.985 . S
H1200 N1197 0.984 . S
H1201 N1197 0.985 . S
H1202 N1196 0.984 . S
H1203 N1196 0.984 . S
H1204 N1192 0.984 . S
H1205 N1192 0.985 . S
C1206 C1207 1.363 . S
C1206 C1212 1.379 . S
C1206 N1214 1.356 . S
C1207 C1206 1.363 . S
C1207 C1213 1.363 . S
C1208 C1209 1.363 . S
C1208 C1213 1.379 . S
C1208 N1215 1.356 . S
C1209 C1208 1.363 . S
C1209 C1212 1.363 . S
N1210 C1212 1.356 . S
N1210 H1222 0.984 . S
N1210 H1223 0.985 . S
N1211 C1213 1.356 . S
N1211 H1216 0.984 . S
N1211 H1217 0.985 . S
C1212 C1206 1.379 . S
C1212 C1209 1.363 . S
C1212 N1210 1.356 . S
C1213 C1207 1.363 . S
C1213 C1208 1.379 . S
C1213 N1211 1.356 . S
N1214 C1206 1.356 . S
N1214 H1220 0.984 . S
N1214 H1221 0.984 . S
N1215 C1208 1.356 . S
N1215 H1218 0.984 . S
N1215 H1219 0.985 . S
H1216 N1211 0.984 . S
H1217 N1211 0.985 . S
H1218 N1215 0.984 . S
H1219 N1215 0.985 . S
H1220 N1214 0.984 . S
H1221 N1214 0.984 . S
H1222 N1210 0.984 . S
H1223 N1210 0.985 . S
C1224 C1225 1.363 . S
C1224 C1230 1.379 . S
C1224 N1232 1.356 . S
C1225 C1224 1.363 . S
C1225 C1231 1.363 . S
C1226 C1227 1.363 . S
C1226 C1231 1.379 . S
C1226 N1233 1.356 . S
C1227 C1226 1.363 . S
C1227 C1230 1.363 . S
N1228 C1230 1.356 . S
N1228 H1240 0.984 . S
N1228 H1241 0.985 . S
N1229 C1231 1.356 . S
N1229 H1234 0.984 . S
N1229 H1235 0.985 . S
C1230 C1224 1.379 . S
C1230 C1227 1.363 . S
C1230 N1228 1.356 . S
C1231 C1225 1.363 . S
C1231 C1226 1.379 . S
C1231 N1229 1.356 . S
N1232 C1224 1.356 . S
N1232 H1238 0.984 . S
N1232 H1239 0.984 . S
N1233 C1226 1.356 . S
N1233 H1236 0.984 . S
N1233 H1237 0.985 . S
H1234 N1229 0.984 . S
H1235 N1229 0.985 . S
H1236 N1233 0.984 . S
H1237 N1233 0.985 . S
H1238 N1232 0.984 . S
H1239 N1232 0.984 . S
H1240 N1228 0.984 . S
H1241 N1228 0.985 . S
C1242 C1243 1.363 . S
C1242 C1248 1.379 . S
C1242 N1250 1.356 . S
C1243 C1242 1.363 . S
C1243 C1249 1.363 . S
C1244 C1245 1.363 . S
C1244 C1249 1.379 . S
C1244 N1251 1.356 . S
C1245 C1244 1.363 . S
C1245 C1248 1.363 . S
N1246 C1248 1.356 . S
N1246 H1258 0.984 . S
N1246 H1259 0.985 . S
N1247 C1249 1.356 . S
N1247 H1252 0.984 . S
N1247 H1253 0.985 . S
C1248 C1242 1.379 . S
C1248 C1245 1.363 . S
C1248 N1246 1.356 . S
C1249 C1243 1.363 . S
C1249 C1244 1.379 . S
C1249 N1247 1.356 . S
N1250 C1242 1.356 . S
N1250 H1256 0.984 . S
N1250 H1257 0.984 . S
N1251 C1244 1.356 . S
N1251 H1254 0.984 . S
N1251 H1255 0.985 . S
H1252 N1247 0.984 . S
H1253 N1247 0.985 . S
H1254 N1251 0.984 . S
H1255 N1251 0.985 . S
H1256 N1250 0.984 . S
H1257 N1250 0.984 . S
H1258 N1246 0.984 . S
H1259 N1246 0.985 . S
C1260 C1261 1.363 . S
C1260 C1266 1.379 . S
C1260 N1268 1.356 . S
C1261 C1260 1.363 . S
C1261 C1267 1.363 . S
C1262 C1263 1.363 . S
C1262 C1267 1.379 . S
C1262 N1269 1.356 . S
C1263 C1262 1.363 . S
C1263 C1266 1.363 . S
N1264 C1266 1.356 . S
N1264 H1276 0.984 . S
N1264 H1277 0.985 . S
N1265 C1267 1.356 . S
N1265 H1270 0.984 . S
N1265 H1271 0.985 . S
C1266 C1260 1.379 . S
C1266 C1263 1.363 . S
C1266 N1264 1.356 . S
C1267 C1261 1.363 . S
C1267 C1262 1.379 . S
C1267 N1265 1.356 . S
N1268 C1260 1.356 . S
N1268 H1274 0.984 . S
N1268 H1275 0.984 . S
N1269 C1262 1.356 . S
N1269 H1272 0.984 . S
N1269 H1273 0.985 . S
H1270 N1265 0.984 . S
H1271 N1265 0.985 . S
H1272 N1269 0.984 . S
H1273 N1269 0.985 . S
H1274 N1268 0.984 . S
H1275 N1268 0.984 . S
H1276 N1264 0.984 . S
H1277 N1264 0.985 . S
C1278 C1279 1.363 . S
C1278 C1284 1.379 . S
C1278 N1286 1.356 . S
C1279 C1278 1.363 . S
C1279 C1285 1.363 . S
C1280 C1281 1.363 . S
C1280 C1285 1.379 . S
C1280 N1287 1.356 . S
C1281 C1280 1.363 . S
C1281 C1284 1.363 . S
N1282 C1284 1.356 . S
N1282 H1294 0.984 . S
N1282 H1295 0.985 . S
N1283 C1285 1.356 . S
N1283 H1288 0.984 . S
N1283 H1289 0.985 . S
C1284 C1278 1.379 . S
C1284 C1281 1.363 . S
C1284 N1282 1.356 . S
C1285 C1279 1.363 . S
C1285 C1280 1.379 . S
C1285 N1283 1.356 . S
N1286 C1278 1.356 . S
N1286 H1292 0.984 . S
N1286 H1293 0.984 . S
N1287 C1280 1.356 . S
N1287 H1290 0.984 . S
N1287 H1291 0.985 . S
H1288 N1283 0.984 . S
H1289 N1283 0.985 . S
H1290 N1287 0.984 . S
H1291 N1287 0.985 . S
H1292 N1286 0.984 . S
H1293 N1286 0.984 . S
H1294 N1282 0.984 . S
H1295 N1282 0.985 . S
C649 C364 1.253 . S
C651 C4 1.250 . S
C667 C40 1.247 . S
C669 C400 1.238 . S
C685 C328 1.246 . S
C687 C76 1.250 . S
C703 C508 1.253 . S
C705 C112 1.250 . S
C721 C148 1.250 . S
C723 C436 1.245 . S
C739 C472 1.242 . S
C741 C184 1.245 . S
C757 C220 1.259 . S
C759 C580 1.262 . S
C775 C616 1.261 . S
C777 C256 1.261 . S
C793 C292 1.262 . S
C795 C544 1.258 . S
C811 C3 1.221 . S
C813 C38 1.285 . S
C829 C39 1.220 . S
C831 C74 1.275 . S
C847 C2 1.297 . S
C849 C75 1.236 . S
C865 C182 1.285 . S
C867 C111 1.222 . S
C883 C110 1.297 . S
C885 C147 1.235 . S
C901 C183 1.220 . S
C903 C146 1.275 . S
C919 C219 1.238 . S
C921 C254 1.304 . S
C937 C255 1.230 . S
C939 C290 1.295 . S
C955 C218 1.294 . S
C957 C291 1.232 . S
C973 C398 1.306 . S
C975 C327 1.240 . S
C991 C326 1.287 . S
C993 C363 1.224 . S
C1009 C362 1.293 . S
C1011 C399 1.228 . S
C1027 C470 1.306 . S
C1029 C435 1.240 . S
C1045 C506 1.293 . S
C1047 C471 1.228 . S
C1063 C434 1.287 . S
C1065 C507 1.224 . S
C1081 C543 1.238 . S
C1083 C614 1.304 . S
C1099 C579 1.232 . S
C1101 C542 1.294 . S
C1117 C615 1.230 . S
C1119 C578 1.295 . S
C1135 C14 1.562 . S
C1137 C122 1.562 . S
C1153 C158 1.562 . S
C1155 C50 1.562 . S
C1171 C194 1.561 . S
C1173 C86 1.563 . S
C1189 C338 1.565 . S
C1191 C230 1.565 . S
C1207 C374 1.558 . S
C1209 C266 1.557 . S
C1225 C302 1.567 . S
C1227 C410 1.566 . S
C1243 C554 1.565 . S
C1245 C446 1.565 . S
C1261 C590 1.567 . S
C1263 C482 1.566 . S
C1279 C626 1.557 . S
C1281 C518 1.558 . S
