# Generated by pormake.
# Topology wkb, (5)-cn, num edge types: 1
# Building blocks:
#     Node 0, Type 0, BuildingBlock: BEQFEK_clean_sbu_0, # of connection points: 5
#     Node 1, Type 0, BuildingBlock: BEQFEK_clean_sbu_0, # of connection points: 5
#     Node 2, Type 0, BuildingBlock: BEQFEK_clean_sbu_0, # of connection points: 5
#     Node 3, Type 0, BuildingBlock: BEQFEK_clean_sbu_0, # of connection points: 5
#     Node 4, Type 0, BuildingBlock: BEQFEK_clean_sbu_0, # of connection points: 5
#     Node 5, Type 0, BuildingBlock: BEQFEK_clean_sbu_0, # of connection points: 5
#     Node 6, Type 0, BuildingBlock: BEQFEK_clean_sbu_0, # of connection points: 5
#     Node 7, Type 0, BuildingBlock: BEQFEK_clean_sbu_0, # of connection points: 5
#     Node 8, Type 0, BuildingBlock: BEQFEK_clean_sbu_0, # of connection points: 5
#     Node 9, Type 0, BuildingBlock: BEQFEK_clean_sbu_0, # of connection points: 5
#     Node 10, Type 0, BuildingBlock: BEQFEK_clean_sbu_0, # of connection points: 5
#     Node 11, Type 0, BuildingBlock: BEQFEK_clean_sbu_0, # of connection points: 5
#     Edge 12, Type (0, 0), BuildingBlock: OJICUG_clean_linker_0, # of connection points: 2
#     Edge 13, Type (0, 0), BuildingBlock: OJICUG_clean_linker_0, # of connection points: 2
#     Edge 14, Type (0, 0), BuildingBlock: OJICUG_clean_linker_0, # of connection points: 2
#     Edge 15, Type (0, 0), BuildingBlock: OJICUG_clean_linker_0, # of connection points: 2
#     Edge 16, Type (0, 0), BuildingBlock: OJICUG_clean_linker_0, # of connection points: 2
#     Edge 17, Type (0, 0), BuildingBlock: OJICUG_clean_linker_0, # of connection points: 2
#     Edge 18, Type (0, 0), BuildingBlock: OJICUG_clean_linker_0, # of connection points: 2
#     Edge 19, Type (0, 0), BuildingBlock: OJICUG_clean_linker_0, # of connection points: 2
#     Edge 20, Type (0, 0), BuildingBlock: OJICUG_clean_linker_0, # of connection points: 2
#     Edge 21, Type (0, 0), BuildingBlock: OJICUG_clean_linker_0, # of connection points: 2
#     Edge 22, Type (0, 0), BuildingBlock: OJICUG_clean_linker_0, # of connection points: 2
#     Edge 23, Type (0, 0), BuildingBlock: OJICUG_clean_linker_0, # of connection points: 2
#     Edge 24, Type (0, 0), BuildingBlock: OJICUG_clean_linker_0, # of connection points: 2
#     Edge 25, Type (0, 0), BuildingBlock: OJICUG_clean_linker_0, # of connection points: 2
#     Edge 26, Type (0, 0), BuildingBlock: OJICUG_clean_linker_0, # of connection points: 2
#     Edge 27, Type (0, 0), BuildingBlock: OJICUG_clean_linker_0, # of connection points: 2
#     Edge 28, Type (0, 0), BuildingBlock: OJICUG_clean_linker_0, # of connection points: 2
#     Edge 29, Type (0, 0), BuildingBlock: OJICUG_clean_linker_0, # of connection points: 2
#     Edge 30, Type (0, 0), BuildingBlock: OJICUG_clean_linker_0, # of connection points: 2
#     Edge 31, Type (0, 0), BuildingBlock: OJICUG_clean_linker_0, # of connection points: 2
#     Edge 32, Type (0, 0), BuildingBlock: OJICUG_clean_linker_0, # of connection points: 2
#     Edge 33, Type (0, 0), BuildingBlock: OJICUG_clean_linker_0, # of connection points: 2
#     Edge 34, Type (0, 0), BuildingBlock: OJICUG_clean_linker_0, # of connection points: 2
#     Edge 35, Type (0, 0), BuildingBlock: OJICUG_clean_linker_0, # of connection points: 2
#     Edge 36, Type (0, 0), BuildingBlock: OJICUG_clean_linker_0, # of connection points: 2
#     Edge 37, Type (0, 0), BuildingBlock: OJICUG_clean_linker_0, # of connection points: 2
#     Edge 38, Type (0, 0), BuildingBlock: OJICUG_clean_linker_0, # of connection points: 2
#     Edge 39, Type (0, 0), BuildingBlock: OJICUG_clean_linker_0, # of connection points: 2
#     Edge 40, Type (0, 0), BuildingBlock: OJICUG_clean_linker_0, # of connection points: 2
#     Edge 41, Type (0, 0), BuildingBlock: OJICUG_clean_linker_0, # of connection points: 2
# Relax obj value: 0.147
# Max RMSD: 0.141
# Mean RMSD: 0.141
data_MOF--net-wkb--node1-BEQFEK_clean_sbu_0--edge1-OJICUG_clean_linker_0
_symmetry_space_group_name_H-M    P1
_symmetry_Int_Tables_number       1
_symmetry_cell_setting            triclinic
loop_
_symmetry_equiv_pos_as_xyz
'x, y, z'
_cell_length_a     31.732464
_cell_length_b     31.938859
_cell_length_c     33.244432
_cell_angle_alpha  90.095687
_cell_angle_beta   89.812692
_cell_angle_gamma 119.77773
loop_
_atom_site_label
_atom_site_type_symbol
_atom_site_fract_x
_atom_site_fract_y
_atom_site_fract_z
_atom_type_partial_charge
Co0 Co 0.07612 0.39401 0.98687 0.0
Co1 Co 0.12991 0.3962 0.06431 0.0
C2 C 1.02669 0.3227 0.05649 0.0
O3 O 1.02584 0.33873 0.0214 0.0
O4 O 0.0654 0.3412 0.07738 0.0
C5 C 1.03675 0.34866 0.91348 0.0
O6 O 1.03488 0.31193 0.93286 0.0
C7 C 0.17229 0.39274 0.14175 0.0
C8 C 0.24803 0.45127 0.1321 0.0
C9 C 0.21718 0.41835 0.16022 0.0
N10 N 0.17685 0.40944 0.10407 0.0
N11 N 0.22205 0.44437 0.09854 0.0
C12 C 0.1247 0.35789 0.16065 0.0
H13 H 0.09608 0.36564 0.15032 0.0
H14 H 0.1144 0.32077 0.15093 0.0
H15 H 0.12645 0.35981 0.19396 0.0
C16 C 0.16132 0.38889 0.95011 0.0
N17 N 0.13541 0.3916 0.98153 0.0
N18 N 0.15413 0.38635 0.01499 0.0
C19 C 0.18998 0.37665 0.00601 0.0
C20 C 0.19612 0.37834 0.9645 0.0
C21 C 0.15283 0.39536 0.90693 0.0
H22 H 0.13489 0.4174 0.90423 0.0
H23 H 0.13017 0.3594 0.89313 0.0
H24 H 0.18743 0.41343 0.88993 0.0
O25 O 0.08801 0.45723 0.00936 0.0
O26 O 0.12421 0.45517 0.06536 0.0
H27 H 0.25159 0.40058 0.04439 0.0
H28 H 0.22987 0.34132 0.02494 0.0
C29 C 0.21824 0.36644 0.03665 0.0
H30 H 0.19622 0.35071 0.0642 0.0
H31 H 0.23471 0.46458 0.07216 0.0
O32 O 0.04985 0.38773 0.93244 0.0
C33 C 0.10756 0.47573 0.04298 0.0
Co34 Co 0.71328 0.0598 0.15436 0.0
Co35 Co 0.76543 0.10603 0.23344 0.0
C36 C 0.72815 1.00225 0.2209 0.0
O37 O 0.71328 1.0047 0.18572 0.0
O38 O 0.74955 0.03934 0.24321 0.0
C39 C 0.72056 1.02568 0.07976 0.0
O40 O 0.75537 1.02336 0.09914 0.0
C41 C 0.81765 0.13708 0.3097 0.0
C42 C 0.84367 0.21543 0.30731 0.0
C43 C 0.84376 0.17973 0.33072 0.0
N44 N 0.80311 0.14723 0.27507 0.0
N45 N 0.81863 0.19401 0.27383 0.0
C46 C 0.80729 0.08771 0.3217 0.0
H47 H 0.81861 0.0719 0.29708 0.0
H48 H 0.82679 0.08856 0.34959 0.0
H49 H 0.76761 0.06422 0.32625 0.0
C50 C 0.80575 0.14366 0.12065 0.0
N51 N 0.77664 0.11606 0.15101 0.0
N52 N 0.80068 0.13068 0.18485 0.0
C53 C 0.8468 0.16523 0.17703 0.0
C54 C 0.85172 0.17567 0.13597 0.0
C55 C 0.7886 0.14303 0.07866 0.0
H56 H 0.74869 0.12783 0.07811 0.0
H57 H 0.79835 0.12075 0.0594 0.0
H58 H 0.80649 0.18008 0.06602 0.0
O59 O 0.66501 0.07519 0.17883 0.0
O60 O 0.70336 0.10744 0.23589 0.0
H61 H 0.89122 0.21736 0.22122 0.0
H62 H 0.92161 0.19186 0.19325 0.0
C63 C 0.88669 0.1837 0.20756 0.0
H64 H 0.87793 0.15661 0.23167 0.0
H65 H 0.81169 0.21119 0.25019 0.0
O66 O 0.69371 0.03789 0.09894 0.0
C67 C 0.66675 0.09403 0.21305 0.0
Co68 Co 0.68219 0.69222 0.31958 0.0
Co69 Co 0.69084 0.74682 0.39792 0.0
C70 C 0.76084 0.71424 0.38329 0.0
O71 O 0.73892 0.69422 0.35052 0.0
O72 O 0.74718 0.73822 0.40489 0.0
C73 C 0.72233 0.70127 0.24431 0.0
O74 O 0.75874 0.73656 0.26366 0.0
C75 C 0.71199 0.80147 0.47297 0.0
C76 C 0.65471 0.82179 0.47201 0.0
C77 C 0.69321 0.82569 0.49434 0.0
N78 N 0.68582 0.78419 0.43929 0.0
N79 N 0.65169 0.7964 0.43886 0.0
C80 C 0.75472 0.79583 0.4835 0.0
H81 H 0.78049 0.80801 0.4578 0.0
H82 H 0.7739 0.81717 0.5105 0.0
H83 H 0.74232 0.75712 0.48883 0.0
C84 C 0.68446 0.78138 0.28516 0.0
N85 N 0.68576 0.75401 0.31573 0.0
N86 N 0.69581 0.77905 0.34906 0.0
C87 C 0.70518 0.82416 0.34058 0.0
C88 C 0.69752 0.82725 0.2997 0.0
C89 C 0.66579 0.76269 0.24393 0.0
H90 H 0.64309 0.72282 0.24415 0.0
H91 H 0.69682 0.77362 0.22311 0.0
H92 H 0.64391 0.77855 0.23256 0.0
O93 O 0.62055 0.64405 0.3453 0.0
O94 O 0.63022 0.68231 0.40313 0.0
H95 H 0.69706 0.86867 0.38464 0.0
H96 H 0.75151 0.8994 0.35492 0.0
C97 C 0.72653 0.8649 0.37019 0.0
H98 H 0.74686 0.8579 0.39381 0.0
H99 H 0.62604 0.78697 0.41602 0.0
O100 O 0.68441 0.67273 0.26394 0.0
C101 C 0.60613 0.64556 0.38078 0.0
Co102 Co 1.02151 0.66322 0.48659 0.0
Co103 Co 0.96745 0.66294 0.56379 0.0
C104 C 0.07093 0.73544 0.55543 0.0
O105 O 0.07175 0.71856 0.52068 0.0
O106 O 1.03213 0.71783 0.57635 0.0
C107 C 0.06279 0.70849 0.41384 0.0
O108 O 0.06541 0.74536 0.43365 0.0
C109 C 0.92516 0.66778 0.64121 0.0
C110 C 0.84916 0.60983 0.63195 0.0
C111 C 0.88022 0.6427 0.6599 0.0
N112 N 0.92043 0.65081 0.60357 0.0
N113 N 0.87505 0.61625 0.59827 0.0
C114 C 0.97292 0.70221 0.65992 0.0
H115 H 1.00114 0.69376 0.64962 0.0
H116 H 0.98385 0.73939 0.64997 0.0
H117 H 0.97106 0.70061 0.69323 0.0
C118 C 0.93717 0.66844 0.44909 0.0
N119 N 0.96264 0.66604 0.48082 0.0
N120 N 0.94365 0.67189 0.51403 0.0
C121 C 0.90798 0.68155 0.50452 0.0
C122 C 0.90226 0.67922 0.46298 0.0
C123 C 0.94634 0.6617 0.40607 0.0
H124 H 0.96377 0.63914 0.40376 0.0
H125 H 0.96985 0.69756 0.39233 0.0
H126 H 0.91205 0.64415 0.38876 0.0
O127 O 1.00892 0.60035 0.50998 0.0
O128 O 0.97287 0.60384 0.56588 0.0
H129 H 0.84595 0.65877 0.54252 0.0
H130 H 0.86856 0.71786 0.52242 0.0
C131 C 0.87963 0.69259 0.53467 0.0
H132 H 0.90135 0.70854 0.56223 0.0
H133 H 0.86223 0.59582 0.57202 0.0
O134 O 0.04831 0.66891 0.43231 0.0
C135 C 0.98935 0.58267 0.54385 0.0
Co136 Co 0.38451 0.99767 0.65283 0.0
Co137 Co 0.33045 0.95228 0.73149 0.0
C138 C 0.36493 0.05469 0.7179 0.0
O139 O 0.38433 0.05252 0.6847 0.0
O140 O 0.34067 1.01733 0.73944 0.0
C141 C 0.37671 0.03194 0.57887 0.0
O142 O 0.34188 0.03377 0.5989 0.0
C143 C 0.27595 0.91937 0.8069 0.0
C144 C 0.25498 0.84215 0.80561 0.0
C145 C 0.25143 0.87667 0.8282 0.0
N146 N 0.29306 0.91036 0.77301 0.0
N147 N 0.28046 0.86424 0.77238 0.0
C148 C 0.28185 0.96752 0.81762 0.0
H149 H 0.26991 0.98123 0.79198 0.0
H150 H 0.26023 0.96543 0.84461 0.0
H151 H 0.32081 0.99344 0.8231 0.0
C152 C 0.29261 0.91322 0.61884 0.0
N153 N 0.32131 0.94092 0.64926 0.0
N154 N 0.29685 0.92608 0.68298 0.0
C155 C 0.25095 0.89134 0.6751 0.0
C156 C 0.24655 0.88097 0.63407 0.0
C157 C 0.31009 0.91428 0.5768 0.0
H158 H 0.35005 0.92985 0.57619 0.0
H159 H 0.30013 0.93642 0.5577 0.0
H160 H 0.29255 0.8773 0.56401 0.0
O161 O 0.43256 0.98262 0.67701 0.0
O162 O 0.39454 0.95426 0.73502 0.0
H163 H 0.20685 0.83977 0.71984 0.0
H164 H 0.17575 0.8638 0.6911 0.0
C165 C 0.21075 0.87285 0.70555 0.0
H166 H 0.21884 0.90033 0.7292 0.0
H167 H 0.28963 0.84798 0.74932 0.0
O168 O 0.40404 1.02002 0.59745 0.0
C169 C 0.43105 0.96613 0.71215 0.0
Co170 Co 0.41455 0.36545 0.81842 0.0
Co171 Co 0.40903 0.31114 0.89617 0.0
C172 C 0.33758 0.34277 0.88388 0.0
O173 O 0.35867 0.36295 0.85087 0.0
O174 O 0.35192 0.31882 0.90463 0.0
C175 C 0.37148 0.35933 0.74467 0.0
O176 O 0.33451 0.32523 0.76455 0.0
C177 C 0.38726 0.25382 0.96962 0.0
C178 C 0.45089 0.24303 0.97223 0.0
C179 C 0.40851 0.23294 0.9921 0.0
N180 N 0.41571 0.27508 0.9376 0.0
N181 N 0.45367 0.26857 0.93931 0.0
C182 C 0.34041 0.25292 0.97775 0.0
H183 H 0.34808 0.28981 0.98569 0.0
H184 H 0.31791 0.24165 0.95012 0.0
H185 H 0.31977 0.22772 0.00254 0.0
C186 C 0.4111 0.27614 0.78236 0.0
N187 N 0.41145 0.30372 0.81358 0.0
N188 N 0.40442 0.27923 0.84697 0.0
C189 C 0.39616 0.2345 0.83805 0.0
C190 C 0.40033 0.23099 0.79671 0.0
C191 C 0.42032 0.29194 0.73938 0.0
H192 H 0.44221 0.33173 0.73725 0.0
H193 H 0.38503 0.27858 0.72395 0.0
H194 H 0.44001 0.27627 0.72355 0.0
O195 O 0.47667 0.41425 0.84331 0.0
O196 O 0.46851 0.37591 0.90076 0.0
H197 H 0.3671 0.15949 0.85533 0.0
H198 H 0.36199 0.19761 0.89293 0.0
C199 C 0.38526 0.19605 0.86869 0.0
H200 H 0.41981 0.20211 0.882 0.0
H201 H 0.4817 0.28205 0.91813 0.0
O202 O 0.41072 0.38574 0.76347 0.0
C203 C 0.49174 0.41285 0.87848 0.0
Co204 Co 0.68044 0.99773 0.83263 0.0
Co205 Co 0.68912 0.95232 0.75398 0.0
C206 C 0.75703 0.05474 0.76757 0.0
O207 O 0.73546 0.05257 0.80077 0.0
O208 O 0.74394 1.01738 0.74603 0.0
C209 C 0.72248 0.03198 0.90659 0.0
O210 O 0.75914 0.0338 0.88657 0.0
C211 C 0.71073 0.91942 0.67857 0.0
C212 C 0.65449 0.84219 0.67985 0.0
C213 C 0.69256 0.87672 0.65727 0.0
N214 N 0.68461 0.91041 0.71245 0.0
N215 N 0.6511 0.86428 0.71308 0.0
C216 C 0.75296 0.96756 0.66785 0.0
H217 H 0.77861 0.98127 0.69349 0.0
H218 H 0.77248 0.96548 0.64086 0.0
H219 H 0.73991 0.99348 0.66237 0.0
C220 C 0.68789 0.91326 0.86663 0.0
N221 N 0.68689 0.94097 0.83621 0.0
N222 N 0.69652 0.92613 0.80249 0.0
C223 C 0.70769 0.89138 0.81037 0.0
C224 C 0.7017 0.88101 0.85139 0.0
C225 C 0.67145 0.91432 0.90866 0.0
H226 H 0.64707 0.9299 0.90926 0.0
H227 H 0.70354 0.93645 0.92777 0.0
H228 H 0.65201 0.87734 0.92144 0.0
O229 O 0.61734 0.98266 0.80845 0.0
O230 O 0.62701 0.9543 0.75043 0.0
H231 H 0.70023 0.83981 0.76563 0.0
H232 H 0.75534 0.86383 0.79438 0.0
C233 C 0.7294 0.87288 0.77993 0.0
H234 H 0.74879 0.90036 0.75627 0.0
H235 H 0.62568 0.84802 0.73614 0.0
O236 O 0.68324 1.02008 0.88801 0.0
C237 C 0.60236 0.96617 0.77331 0.0
Co238 Co 0.70893 0.6632 -0.00114 0.0
Co239 Co 0.76269 0.66288 0.92166 0.0
C240 C 0.73173 0.73542 0.93003 0.0
O241 O 0.71404 0.71856 0.96478 0.0
O242 O 0.75291 0.71779 0.90911 0.0
C243 C 0.71291 0.70848 0.07162 0.0
O244 O 0.74715 0.74535 0.05182 0.0
C245 C 0.80983 0.66774 0.84425 0.0
C246 C 0.82784 0.60975 0.85347 0.0
C247 C 0.82968 0.64265 0.82553 0.0
N248 N 0.79757 0.65075 0.88187 0.0
N249 N 0.80835 0.61615 0.88715 0.0
C250 C 0.79654 0.70222 0.82556 0.0
H251 H 0.75986 0.69376 0.83582 0.0
H252 H 0.82277 0.73938 0.83556 0.0
H253 H 0.79686 0.70068 0.79224 0.0
C254 C 0.7985 0.66842 0.03635 0.0
N255 N 0.77063 0.66601 0.00463 0.0
N256 N 0.79544 0.67183 0.97142 0.0
C257 C 0.84078 0.68149 0.98092 0.0
C258 C 0.84417 0.67918 0.02246 0.0
C259 C 0.78262 0.66172 0.07938 0.0
H260 H 0.74264 0.63916 0.08171 0.0
H261 H 0.79495 0.69759 0.09309 0.0
H262 H 0.79938 0.64421 0.09671 0.0
O263 O 0.65866 0.60034 0.97547 0.0
O264 O 0.69817 0.60379 0.91957 0.0
H265 H 0.87996 0.65865 0.9429 0.0
H266 H 0.91649 0.71772 0.96301 0.0
C267 C 0.88014 0.69249 0.95076 0.0
H268 H 0.87438 0.70846 0.92321 0.0
H269 H 0.80073 0.5957 0.91338 0.0
O270 O 0.68783 0.66889 0.05314 0.0
C271 C 0.66055 0.58265 0.9416 0.0
Co272 Co 0.07726 0.69224 0.16588 0.0
Co273 Co 0.1232 0.74682 0.08754 0.0
C274 C 1.02063 0.71425 0.10215 0.0
O275 O 1.02253 0.69424 0.13493 0.0
O276 O 0.05826 0.73823 0.08055 0.0
C277 C 1.04617 0.7013 0.24115 0.0
O278 O 1.04504 0.73659 0.2218 0.0
C279 C 0.1567 0.80144 0.01248 0.0
C280 C 0.23429 0.82176 0.01346 0.0
C281 C 0.19971 0.82566 0.99112 0.0
N282 N 0.16559 0.78417 0.04617 0.0
N283 N 0.21193 0.79638 0.04662 0.0
C284 C 0.10834 0.7958 0.00193 0.0
H285 H 0.08205 0.7571 -0.0034 0.0
H286 H 0.09474 0.80799 0.02761 0.0
H287 H 0.1105 0.81714 0.97492 0.0
C288 C 0.16413 0.78139 0.20029 0.0
N289 N 0.13547 0.75402 0.16972 0.0
N290 N 0.15045 0.77905 0.1364 0.0
C291 C 0.18619 0.82416 0.14487 0.0
C292 C 0.19694 0.82726 0.18576 0.0
C293 C 0.16411 0.7627 0.24153 0.0
H294 H 0.14695 0.72283 0.24131 0.0
H295 H 0.14401 0.77363 0.26235 0.0
H296 H 0.20184 0.77855 0.2529 0.0
O297 O 0.09072 0.64406 0.14017 0.0
O298 O 0.11931 0.6823 0.08233 0.0
H299 H 0.23882 0.86866 0.10083 0.0
H300 H 0.21509 0.8994 0.13054 0.0
C301 C 0.20558 0.8649 0.11527 0.0
H302 H 0.17825 0.8579 0.09165 0.0
H303 H 0.22813 0.78695 0.06946 0.0
O304 O 0.05555 0.67276 0.22151 0.0
C305 C 0.10665 0.64556 0.10468 0.0
Co306 Co 0.41372 0.05978 0.33111 0.0
Co307 Co 0.40778 0.10601 0.25202 0.0
C308 C 0.3413 1.00224 0.26456 0.0
O309 O 0.35863 1.00469 0.29974 0.0
O310 O 0.35698 0.03932 0.24226 0.0
C311 C 0.37234 1.02568 0.40571 0.0
O312 O 0.3352 1.02336 0.38633 0.0
C313 C 0.38661 0.13706 0.17577 0.0
C314 C 0.43891 0.21541 0.17817 0.0
C315 C 0.40314 0.17971 0.15475 0.0
N316 N 0.41129 0.14722 0.2104 0.0
N317 N 0.44254 0.19399 0.21165 0.0
C318 C 0.34763 0.08769 0.16376 0.0
H319 H 0.3205 0.07188 0.18837 0.0
H320 H 0.32899 0.08853 0.13585 0.0
H321 H 0.36383 0.0642 0.15922 0.0
C322 C 0.40511 0.14366 0.36482 0.0
N323 N 0.40662 0.11605 0.33445 0.0
N324 N 0.39719 0.13067 0.30063 0.0
C325 C 0.38562 0.16523 0.30845 0.0
C326 C 0.39114 0.17567 0.34951 0.0
C327 C 0.42163 0.14302 0.4068 0.0
H328 H 0.44635 0.12782 0.40735 0.0
H329 H 0.38961 0.12076 0.42607 0.0
H330 H 0.44079 0.18007 0.41945 0.0
O331 O 0.47737 0.07517 0.30663 0.0
O332 O 0.47127 0.10742 0.24958 0.0
H333 H 0.39331 0.21735 0.26426 0.0
H334 H 0.33743 0.19185 0.29224 0.0
C335 C 0.36418 0.1837 0.27792 0.0
H336 H 0.34586 0.1566 0.25381 0.0
H337 H 0.46664 0.21117 0.23529 0.0
O338 O 0.41139 0.03788 0.38652 0.0
C339 C 0.49446 0.09401 0.27242 0.0
Co340 Co 0.38513 0.39407 0.4986 0.0
Co341 Co 0.33353 0.39627 0.42116 0.0
C342 C 0.36324 0.32275 0.42899 0.0
O343 O 0.38012 0.33878 0.46408 0.0
O344 O 0.34304 0.34127 0.4081 0.0
C345 C 0.37915 0.34872 0.57198 0.0
O346 O 0.34431 0.31199 0.5526 0.0
C347 C 0.28767 0.39279 0.34373 0.0
C348 C 0.27049 0.45135 0.35336 0.0
C349 C 0.2684 0.41841 0.32525 0.0
N350 N 0.29984 0.40952 0.3814 0.0
N351 N 0.28958 0.44447 0.38692 0.0
C352 C 0.3004 0.35791 0.32484 0.0
H353 H 0.33678 0.36567 0.33515 0.0
H354 H 0.27359 0.3208 0.33459 0.0
H355 H 0.30053 0.35979 0.29154 0.0
C356 C 0.29481 0.38896 0.53536 0.0
N357 N 0.32344 0.39169 0.50395 0.0
N358 N 0.29948 0.38645 0.47048 0.0
C359 C 0.25393 0.37675 0.47946 0.0
C360 C 0.24946 0.37842 0.52097 0.0
C361 C 0.30976 0.39542 0.57855 0.0
H362 H 0.34973 0.41745 0.58126 0.0
H363 H 0.29646 0.35944 0.59233 0.0
H364 H 0.29322 0.41348 0.59555 0.0
O365 O 0.43645 0.45728 0.47611 0.0
O366 O 0.39821 0.45524 0.42011 0.0
H367 H 0.21627 0.40069 0.44107 0.0
H368 H 0.17871 0.34145 0.46053 0.0
C369 C 0.21546 0.36655 0.44881 0.0
H370 H 0.22174 0.35079 0.42127 0.0
H371 H 0.29714 0.4647 0.41329 0.0
O372 O 0.40511 0.38779 0.55304 0.0
C373 C 0.43541 0.47579 0.44249 0.0
Co374 Co 1.01813 0.36546 0.66705 0.0
Co375 Co 0.96936 0.31114 0.5893 0.0
C376 C 0.07243 0.34278 0.60159 0.0
O377 O 0.0715 0.36296 0.6346 0.0
O378 O 1.03415 0.31882 0.58084 0.0
C379 C 0.05507 0.35932 0.7408 0.0
O380 O 0.05792 0.32521 0.72091 0.0
C381 C 0.93382 0.25384 0.51584 0.0
C382 C 0.85938 0.24302 0.51326 0.0
C383 C 0.89167 0.23295 0.49337 0.0
N384 N 0.92661 0.27508 0.54787 0.0
N385 N 0.88215 0.26856 0.54618 0.0
C386 C 0.97977 0.25296 0.50769 0.0
H387 H 1.00897 0.28986 0.49976 0.0
H388 H 0.99102 0.24168 0.5353 0.0
H389 H 0.97522 0.22778 0.48288 0.0
C390 C 0.93228 0.27616 0.70311 0.0
N391 N 0.9595 0.30373 0.67189 0.0
N392 N 0.94206 0.27924 0.6385 0.0
C393 C 0.9056 0.23451 0.64743 0.0
C394 C 0.89792 0.23101 0.68876 0.0
C395 C 0.93884 0.29198 0.74609 0.0
H396 H 0.95674 0.33177 0.74821 0.0
H397 H 0.96074 0.2786 0.76154 0.0
H398 H 0.90347 0.27634 0.7619 0.0
O399 O 1.0048 0.41426 0.64217 0.0
O400 O 0.97463 0.37591 0.58472 0.0
H401 H 0.85972 0.15949 0.63015 0.0
H402 H 0.9029 0.19762 0.59254 0.0
C403 C 0.87807 0.19605 0.61678 0.0
H404 H 0.84955 0.20208 0.60349 0.0
H405 H 0.86759 0.28202 0.56738 0.0
O406 O 1.04224 0.38574 0.72201 0.0
C407 C 0.98833 0.41286 0.607 0.0
C408 C 0.27022 0.461 0.26276 0.0
C409 C 0.25495 0.41732 0.283 0.0
H410 H 0.2703 0.49522 0.20764 0.0
C411 C 0.22663 0.37348 0.26284 0.0
H412 H 0.29215 0.49524 0.27779 0.0
C413 C 0.21403 0.37347 0.22265 0.0
C414 C 0.22955 0.4173 0.20247 0.0
H415 H 0.21394 0.3394 0.27821 0.0
H416 H 0.19262 0.33938 0.2073 0.0
C417 C 0.25799 0.46099 0.22269 0.0
C418 C 0.90573 0.2259 0.38223 0.0
C419 C 0.86042 0.18653 0.37237 0.0
H420 H 0.95165 0.27114 0.42921 0.0
C421 C 0.82808 0.15877 0.40297 0.0
H422 H 0.93076 0.24803 0.35886 0.0
C423 C 0.83978 0.17214 0.44304 0.0
C424 C 0.88414 0.21289 0.45279 0.0
H425 H 0.79243 0.12897 0.39585 0.0
H426 H 0.81326 0.15216 0.46624 0.0
C427 C 0.91773 0.23883 0.42232 0.0
C428 C 0.70557 0.81486 0.56632 0.0
C429 C 0.70396 0.84402 0.53555 0.0
H430 H 0.70353 0.80306 0.62984 0.0
C431 C 0.70467 0.88709 0.54516 0.0
H432 H 0.70365 0.78078 0.55952 0.0
C433 C 0.70477 0.89984 0.58524 0.0
C434 C 0.70359 0.86929 0.61602 0.0
H435 H 0.70273 0.9096 0.52172 0.0
H436 H 0.70223 0.9317 0.59204 0.0
C437 C 0.70511 0.82734 0.6064 0.0
C438 C 0.88368 0.68763 0.72257 0.0
C439 C 0.86804 0.6438 0.70231 0.0
H440 H 0.88391 0.72169 0.77832 0.0
C441 C 0.83968 0.60012 0.7226 0.0
H442 H 0.90507 0.72171 0.70718 0.0
C443 C 0.82763 0.60011 0.7628 0.0
C444 C 0.84298 0.64378 0.78313 0.0
H445 H 0.82729 0.56589 0.7075 0.0
H446 H 0.80576 0.56587 0.77788 0.0
C447 C 0.8712 0.68762 0.7629 0.0
C448 C 0.26232 0.89979 0.90023 0.0
C449 C 0.23297 0.86924 0.86944 0.0
H450 H 0.27409 0.90956 0.96375 0.0
C451 C 0.1895 0.82729 0.87905 0.0
H452 H 0.29671 0.93165 0.89343 0.0
C453 C 0.17655 0.81482 0.91913 0.0
C454 C 0.2073 0.84398 0.94991 0.0
H455 H 0.16682 0.80302 0.8556 0.0
H456 H 0.14439 0.78074 0.92591 0.0
C457 C 0.24965 0.88705 0.9403 0.0
C458 C 0.39959 0.17213 0.04243 0.0
C459 C 0.39597 0.21287 0.03267 0.0
H460 H 0.40378 0.12896 0.08962 0.0
C461 C 0.38829 0.23881 0.06314 0.0
H462 H 0.40616 0.15216 0.01924 0.0
C463 C 0.38733 0.22587 0.10323 0.0
C464 C 0.3933 0.18651 0.11309 0.0
H465 H 0.38666 0.27111 0.05625 0.0
H466 H 0.38441 0.24799 0.1266 0.0
C467 C 0.3979 0.15875 0.0825 0.0
C468 C 0.10582 0.55304 0.03175 0.0
C469 C 0.10881 0.52021 0.05804 0.0
H470 H 0.10388 0.61899 0.02581 0.0
C471 C 0.11218 0.52964 0.09966 0.0
H472 H 0.10325 0.54688 -0.00042 0.0
C473 C 0.11161 0.57028 0.11471 0.0
C474 C 0.10877 0.60322 0.08852 0.0
H475 H 0.11427 0.50499 0.12084 0.0
H476 H 0.11354 0.57598 0.14694 0.0
C477 C 0.1064 0.59443 0.0468 0.0
C478 C 0.57449 0.09752 0.28419 0.0
C479 C 0.54024 0.09734 0.25742 0.0
H480 H 0.64168 0.0977 0.29117 0.0
C481 C 0.549 0.09811 0.21579 0.0
H482 H 0.56887 0.09698 0.31639 0.0
C483 C 0.59023 0.09752 0.20127 0.0
C484 C 0.6243 0.09735 0.22804 0.0
H485 H 0.5232 0.09769 0.1943 0.0
H486 H 0.5953 0.09699 0.16907 0.0
C487 C 0.6163 0.09811 0.26968 0.0
C488 C 0.5259 0.5703 0.37075 0.0
C489 C 0.56168 0.60323 0.39695 0.0
H490 H 0.45795 0.50502 0.36463 0.0
C491 C 0.55526 0.59445 0.43866 0.0
H492 H 0.52967 0.57599 0.33852 0.0
C493 C 0.51446 0.55308 0.45372 0.0
C494 C 0.47864 0.52025 0.42743 0.0
H495 H 0.58234 0.61901 0.45965 0.0
H496 H 0.51086 0.54692 0.48589 0.0
C497 C 0.48469 0.52967 0.38581 0.0
C498 C 0.98971 0.50468 0.5335 0.0
C499 C 0.98779 0.53839 0.5595 0.0
H500 H 0.99035 0.43808 0.52811 0.0
C501 C 0.98518 0.52999 0.60126 0.0
H502 H 0.99169 0.51007 0.50124 0.0
C503 C 0.98538 0.48935 0.61671 0.0
C504 C 0.98703 0.45549 0.59075 0.0
H505 H 0.98394 0.5554 0.62219 0.0
H506 H 0.98401 0.48434 0.64901 0.0
C507 C 0.98873 0.46337 0.54894 0.0
C508 C 0.4807 0.9624 0.76937 0.0
C509 C 0.47339 0.96312 0.72767 0.0
H510 H 0.52722 0.96337 0.81648 0.0
C511 C 0.50794 0.96291 0.70122 0.0
H512 H 0.45494 0.96276 0.79062 0.0
C513 C 0.54897 0.9624 0.71609 0.0
C514 C 0.557 0.96314 0.75778 0.0
H515 H 0.5034 0.96334 0.66897 0.0
H516 H 0.57509 0.96277 0.69483 0.0
C517 C 0.52224 0.96292 0.78423 0.0
C518 C 0.57117 0.48933 0.86875 0.0
C519 C 0.53567 0.45548 0.89471 0.0
H520 H 0.63865 0.55536 0.86327 0.0
C521 C 0.54186 0.46337 0.93653 0.0
H522 H 0.56752 0.48431 0.83646 0.0
C523 C 0.58219 0.50467 0.95197 0.0
C524 C 0.61781 0.53837 0.92596 0.0
H525 H 0.51496 0.43809 0.95736 0.0
H526 H 0.58562 0.51007 0.98423 0.0
C527 C 0.61201 0.52996 0.88419 0.0
C528 C 0.04857 0.39358 0.8067 0.0
C529 C 0.05322 0.35818 0.78519 0.0
H530 H 1.03859 0.41778 0.8641 0.0
C531 C 0.05005 0.31848 0.80606 0.0
H532 H 0.05031 0.42432 0.7914 0.0
C533 C 1.04182 0.31397 0.84748 0.0
C534 C 1.03775 0.34964 0.86907 0.0
H535 H 0.05273 0.29019 0.79029 0.0
H536 H 1.04006 0.28318 0.86269 0.0
C537 C 1.04113 0.38946 0.84824 0.0
C538 C 0.76038 0.03096 0.97192 0.0
C539 C 0.72299 0.03282 0.95094 0.0
H540 H 0.78813 1.02572 0.02899 0.0
C541 C 0.68395 0.03081 0.97261 0.0
H542 H 0.79067 0.03184 0.95605 0.0
C543 C 0.68243 1.02716 0.01448 0.0
C544 C 0.71968 1.02498 0.03541 0.0
H545 H 0.65441 0.03177 0.95722 0.0
H546 H 0.65219 1.02628 0.03044 0.0
C547 C 0.75856 1.02672 0.0137 0.0
C548 C 0.75161 0.74576 0.13716 0.0
C549 C 0.71284 0.70847 0.11603 0.0
H550 H 0.78603 0.7718 0.194 0.0
C551 C 0.6776 0.66827 0.1374 0.0
H552 H 0.77968 0.77696 0.12154 0.0
C553 C 0.68135 0.6652 0.17899 0.0
C554 C 0.72064 0.70208 0.19998 0.0
H555 H 0.64748 0.63876 0.12192 0.0
H556 H 0.65342 0.63398 0.19469 0.0
C557 C 0.75573 0.74237 0.17862 0.0
C558 C 0.0579 0.66828 0.34805 0.0
C559 C 0.06285 0.70849 0.36943 0.0
H560 H 1.0478 0.634 0.29076 0.0
C561 C 0.06137 0.74578 0.34831 0.0
H562 H 0.05851 0.63878 0.36353 0.0
C563 C 0.05387 0.7424 0.30684 0.0
C564 C 0.04867 0.70211 0.28548 0.0
H565 H 0.0645 0.77699 0.36393 0.0
H566 H 0.05299 0.77183 0.29147 0.0
C567 C 0.05108 0.66522 0.30646 0.0
C568 C 0.3378 0.03094 0.51355 0.0
C569 C 0.37704 0.03279 0.53453 0.0
H570 H 0.30481 1.02573 0.45648 0.0
C571 C 0.41406 0.03077 0.51285 0.0
H572 H 0.30838 0.03182 0.52942 0.0
C573 C 0.41194 1.02713 0.47098 0.0
C574 C 0.37252 1.02497 0.45005 0.0
H575 H 0.44457 0.03172 0.52823 0.0
H576 H 0.4413 1.02625 0.45502 0.0
C577 C 0.33538 1.02671 0.47177 0.0
C578 C 0.41556 0.3895 0.63724 0.0
C579 C 0.37913 0.34969 0.61639 0.0
H580 H 0.44123 0.42434 0.69408 0.0
C581 C 0.3394 0.31401 0.63798 0.0
H582 H 0.44642 0.41782 0.62138 0.0
C583 C 0.33567 0.31852 0.6794 0.0
C584 C 0.37219 0.35821 0.70028 0.0
H585 H 0.31037 0.28323 0.62276 0.0
H586 H 0.3047 0.29022 0.69516 0.0
C587 C 0.41223 0.3936 0.67878 0.0
C588 C 0.29816 0.39359 0.89454 0.0
C589 C 0.29812 0.34998 0.90051 0.0
H590 H 0.26718 0.43757 0.91141 0.0
C591 C 0.26259 0.31494 0.92586 0.0
H592 H 0.32545 0.42154 0.87561 0.0
C593 C 0.22851 0.32362 0.94538 0.0
C594 C 0.22998 0.36804 0.94098 0.0
H595 H 0.26146 0.2809 0.93096 0.0
H596 H 0.20141 0.29578 0.96451 0.0
C597 C 0.26476 0.40274 0.91497 0.0
C598 C 0.96929 0.29254 0.11447 0.0
C599 C 0.9811 0.28513 0.07539 0.0
H600 H 0.91816 0.26587 0.16276 0.0
C601 C 0.94943 0.24201 0.05544 0.0
H602 H 0.99268 0.3258 0.13032 0.0
C603 C 0.90755 0.20625 0.07496 0.0
C604 C 0.89566 0.21362 0.11429 0.0
H605 H 0.95782 0.23537 0.02531 0.0
H606 H 0.88517 0.17256 0.05948 0.0
C607 C 0.92672 0.25777 0.13329 0.0
C608 C 0.68805 0.90072 0.29589 0.0
C609 C 0.70207 0.86995 0.27734 0.0
H610 H 0.68623 0.96678 0.29277 0.0
C611 C 0.72193 0.88153 0.23822 0.0
H612 H 0.67108 0.89232 0.32527 0.0
C613 C 0.72864 0.92349 0.21872 0.0
C614 C 0.71683 0.95521 0.23846 0.0
H615 H 0.73386 0.85919 0.22315 0.0
H616 H 0.74494 0.93217 0.18903 0.0
C617 C 0.69617 0.94317 0.27706 0.0
C618 C 0.83697 0.7428 0.42319 0.0
C619 C 0.80073 0.7072 0.39878 0.0
H620 H 0.89844 0.76238 0.46124 0.0
C621 C 0.80021 0.66327 0.39331 0.0
H622 H 0.83851 0.77711 0.42784 0.0
C623 C 0.8337 0.6543 0.4136 0.0
C624 C 0.86888 0.68945 0.439 0.0
H625 H 0.77239 0.63495 0.37508 0.0
H626 H 0.83098 0.61928 0.41055 0.0
C627 C 0.871 0.73424 0.44262 0.0
C628 C 0.17151 0.79909 0.63136 0.0
C629 C 0.20272 0.84324 0.61238 0.0
H630 H 0.10509 0.73149 0.62866 0.0
C631 C 0.19081 0.85099 0.5733 0.0
H632 H 0.18012 0.79077 0.66067 0.0
C633 C 0.14861 0.81563 0.55404 0.0
C634 C 0.11672 0.7726 0.57405 0.0
H635 H 0.21336 0.88471 0.55787 0.0
H636 H 0.14014 0.82253 0.52409 0.0
C637 C 0.12865 0.76475 0.61283 0.0
C638 C 0.42587 0.18686 0.74809 0.0
C639 C 0.39034 0.18734 0.77318 0.0
H640 H 0.44533 0.14458 0.70996 0.0
C641 C 0.34519 0.14504 0.77691 0.0
H642 H 0.46124 0.21877 0.74506 0.0
C643 C 0.33656 0.10247 0.75781 0.0
C644 C 0.37243 0.10146 0.73356 0.0
H645 H 0.31685 0.14463 0.79546 0.0
H646 H 0.30192 0.07004 0.76249 0.0
C647 C 0.4168 0.1444 0.72807 0.0
C648 C 0.70334 0.76475 0.87262 0.0
C649 C 0.72311 0.77259 0.91141 0.0
H650 H 0.67793 0.7908 0.82478 0.0
C651 C 0.73425 0.81562 0.93142 0.0
H652 H 0.69365 0.73149 0.85679 0.0
C653 C 0.72742 0.851 0.91217 0.0
C654 C 0.70779 0.84327 0.87308 0.0
H655 H 0.7496 0.82251 0.96138 0.0
H656 H 0.73859 0.88471 0.92761 0.0
C657 C 0.69484 0.79911 0.85409 0.0
C658 C 0.88783 0.6543 0.07186 0.0
C659 C 0.88779 0.68943 0.04643 0.0
H660 H 0.9298 0.63497 0.11039 0.0
C661 C 0.93045 0.73421 0.0428 0.0
H662 H 0.85555 0.61928 0.07492 0.0
C663 C 0.97304 0.74278 0.06222 0.0
C664 C 0.9737 0.7072 0.08666 0.0
H665 H 0.93114 0.76233 0.02416 0.0
H666 H 1.00581 0.77709 0.05756 0.0
C667 C 0.9303 0.66328 0.09214 0.0
C668 C 0.27988 0.90071 0.18957 0.0
C669 C 0.23508 0.86995 0.20812 0.0
H670 H 0.34774 0.96676 0.19269 0.0
C671 C 0.22681 0.88153 0.24724 0.0
H672 H 0.28844 0.8923 0.16019 0.0
C673 C 0.26206 0.92349 0.26675 0.0
C674 C 0.30559 0.9552 0.24701 0.0
H675 H 0.19254 0.85921 0.26231 0.0
H676 H 0.25444 0.93218 0.29643 0.0
C677 C 0.3142 0.94316 0.2084 0.0
C678 C 0.39046 0.29256 0.371 0.0
C679 C 0.37125 0.28517 0.41009 0.0
H680 H 0.4149 0.26587 0.32271 0.0
C681 C 0.35981 0.24205 0.43004 0.0
H682 H 0.40032 0.32582 0.35516 0.0
C683 C 0.36592 0.20628 0.41052 0.0
C684 C 0.38516 0.21363 0.37119 0.0
H685 H 0.34478 0.23542 0.46017 0.0
H686 H 0.35461 0.17259 0.426 0.0
C687 C 0.39825 0.25778 0.35219 0.0
C688 C 0.16265 0.39362 0.59095 0.0
C689 C 0.1191 0.35001 0.58496 0.0
H690 H 0.23759 0.43761 0.57409 0.0
C691 C 0.11961 0.31498 0.55959 0.0
H692 H 0.16329 0.42155 0.60989 0.0
C693 C 0.16237 0.32368 0.54007 0.0
C694 C 0.20531 0.3681 0.54448 0.0
H695 H 0.08672 0.28094 0.55448 0.0
H696 H 0.16166 0.29586 0.52093 0.0
C697 C 0.2052 0.40279 0.57052 0.0
C698 C 0.82823 0.18689 0.73737 0.0
C699 C 0.86425 0.18737 0.7123 0.0
H700 H 0.76649 0.14463 0.77548 0.0
C701 C 0.86712 0.14507 0.70858 0.0
H702 H 0.82477 0.21881 0.74038 0.0
C703 C 0.83318 0.1025 0.72768 0.0
C704 C 0.79629 0.1015 0.75192 0.0
H705 H 0.89505 0.14465 0.69004 0.0
H706 H 0.8354 0.07007 0.72301 0.0
C707 C 0.79485 0.14445 0.75739 0.0
loop_
_geom_bond_atom_site_label_1
_geom_bond_atom_site_label_2
_geom_bond_distance
_geom_bond_site_symmetry_2
_ccdc_geom_bond_type
Co0 O3 1.970 1_456 S
Co0 N17 1.989 1_556 S
Co0 O25 1.967 1_556 S
Co0 O32 1.920 . S
Co1 O4 1.966 . S
Co1 N10 2.022 . S
Co1 N18 1.993 . S
Co1 O26 1.941 . S
C2 O3 1.258 . S
C2 O4 1.263 1_655 S
O3 Co0 1.970 1_654 S
O3 C2 1.258 . S
O4 Co1 1.966 . S
O4 C2 1.263 1_455 S
C5 O6 1.235 . S
C5 O32 1.289 . S
O6 C5 1.235 . S
C7 C9 1.400 . S
C7 N10 1.351 . S
C7 C12 1.501 . S
C8 C9 1.387 . S
C8 N11 1.341 . S
C9 C7 1.400 . S
C9 C8 1.387 . S
N10 Co1 2.022 . S
N10 C7 1.351 . S
N10 N11 1.365 . S
N11 C8 1.341 . S
N11 N10 1.365 . S
N11 H31 0.862 . S
C12 C7 1.501 . S
C12 H13 0.961 . S
C12 H14 0.961 . S
C12 H15 0.960 . S
H13 C12 0.961 . S
H14 C12 0.961 . S
H15 C12 0.960 . S
C16 N17 1.342 1_556 S
C16 C20 1.401 . S
C16 C21 1.499 . S
N17 Co0 1.989 1_554 S
N17 C16 1.342 1_554 S
N17 N18 1.388 . S
N18 Co1 1.993 . S
N18 N17 1.388 . S
N18 C19 1.346 . S
C19 N18 1.346 . S
C19 C20 1.396 1_554 S
C19 C29 1.510 . S
C20 C16 1.401 . S
C20 C19 1.396 1_556 S
C21 C16 1.499 . S
C21 H22 0.959 . S
C21 H23 0.960 . S
C21 H24 0.961 . S
H22 C21 0.959 . S
H23 C21 0.960 . S
H24 C21 0.961 . S
O25 Co0 1.967 1_554 S
O25 C33 1.258 . S
O26 Co1 1.941 . S
O26 C33 1.266 . S
H27 C29 0.959 . S
H28 C29 0.961 . S
C29 C19 1.510 . S
C29 H27 0.959 . S
C29 H28 0.961 . S
C29 H30 0.960 . S
H30 C29 0.960 . S
H31 N11 0.862 . S
O32 Co0 1.920 . S
O32 C5 1.289 . S
C33 O25 1.258 . S
C33 O26 1.266 . S
Co34 O37 1.970 1_545 S
Co34 N51 1.989 . S
Co34 O59 1.967 . S
Co34 O66 1.920 . S
Co35 O38 1.966 . S
Co35 N44 2.022 . S
Co35 N52 1.993 . S
Co35 O60 1.941 . S
C36 O37 1.258 . S
C36 O38 1.263 1_565 S
O37 Co34 1.970 1_565 S
O37 C36 1.258 . S
O38 Co35 1.966 . S
O38 C36 1.263 1_545 S
C39 O40 1.235 . S
C39 O66 1.289 . S
O40 C39 1.235 . S
C41 C43 1.400 . S
C41 N44 1.351 . S
C41 C46 1.501 . S
C42 C43 1.387 . S
C42 N45 1.341 . S
C43 C41 1.400 . S
C43 C42 1.387 . S
N44 Co35 2.022 . S
N44 C41 1.351 . S
N44 N45 1.365 . S
N45 C42 1.341 . S
N45 N44 1.365 . S
N45 H65 0.862 . S
C46 C41 1.501 . S
C46 H47 0.961 . S
C46 H48 0.961 . S
C46 H49 0.960 . S
H47 C46 0.961 . S
H48 C46 0.961 . S
H49 C46 0.960 . S
C50 N51 1.342 . S
C50 C54 1.401 . S
C50 C55 1.499 . S
N51 Co34 1.989 . S
N51 C50 1.342 . S
N51 N52 1.388 . S
N52 Co35 1.993 . S
N52 N51 1.388 . S
N52 C53 1.346 . S
C53 N52 1.346 . S
C53 C54 1.396 . S
C53 C63 1.510 . S
C54 C50 1.401 . S
C54 C53 1.396 . S
C55 C50 1.499 . S
C55 H56 0.959 . S
C55 H57 0.960 . S
C55 H58 0.961 . S
H56 C55 0.959 . S
H57 C55 0.960 . S
H58 C55 0.961 . S
O59 Co34 1.967 . S
O59 C67 1.258 . S
O60 Co35 1.941 . S
O60 C67 1.266 . S
H61 C63 0.959 . S
H62 C63 0.961 . S
C63 C53 1.510 . S
C63 H61 0.959 . S
C63 H62 0.961 . S
C63 H64 0.960 . S
H64 C63 0.960 . S
H65 N45 0.862 . S
O66 Co34 1.920 . S
O66 C39 1.289 . S
C67 O59 1.258 . S
C67 O60 1.266 . S
Co68 O71 1.970 . S
Co68 N85 1.989 . S
Co68 O93 1.967 . S
Co68 O100 1.920 . S
Co69 O72 1.966 . S
Co69 N78 2.022 . S
Co69 N86 1.993 . S
Co69 O94 1.941 . S
C70 O71 1.258 . S
C70 O72 1.263 . S
O71 Co68 1.970 . S
O71 C70 1.258 . S
O72 Co69 1.966 . S
O72 C70 1.263 . S
C73 O74 1.235 . S
C73 O100 1.289 . S
O74 C73 1.235 . S
C75 C77 1.400 . S
C75 N78 1.351 . S
C75 C80 1.501 . S
C76 C77 1.387 . S
C76 N79 1.341 . S
C77 C75 1.400 . S
C77 C76 1.387 . S
N78 Co69 2.022 . S
N78 C75 1.351 . S
N78 N79 1.365 . S
N79 C76 1.341 . S
N79 N78 1.365 . S
N79 H99 0.862 . S
C80 C75 1.501 . S
C80 H81 0.961 . S
C80 H82 0.961 . S
C80 H83 0.960 . S
H81 C80 0.961 . S
H82 C80 0.961 . S
H83 C80 0.960 . S
C84 N85 1.342 . S
C84 C88 1.401 . S
C84 C89 1.499 . S
N85 Co68 1.989 . S
N85 C84 1.342 . S
N85 N86 1.388 . S
N86 Co69 1.993 . S
N86 N85 1.388 . S
N86 C87 1.346 . S
C87 N86 1.346 . S
C87 C88 1.396 . S
C87 C97 1.510 . S
C88 C84 1.401 . S
C88 C87 1.396 . S
C89 C84 1.499 . S
C89 H90 0.959 . S
C89 H91 0.960 . S
C89 H92 0.961 . S
H90 C89 0.959 . S
H91 C89 0.960 . S
H92 C89 0.961 . S
O93 Co68 1.967 . S
O93 C101 1.258 . S
O94 Co69 1.941 . S
O94 C101 1.266 . S
H95 C97 0.959 . S
H96 C97 0.961 . S
C97 C87 1.510 . S
C97 H95 0.959 . S
C97 H96 0.961 . S
C97 H98 0.960 . S
H98 C97 0.960 . S
H99 N79 0.862 . S
O100 Co68 1.920 . S
O100 C73 1.289 . S
C101 O93 1.258 . S
C101 O94 1.266 . S
Co102 O105 1.970 1_655 S
Co102 N119 1.989 . S
Co102 O127 1.967 . S
Co102 O134 1.920 . S
Co103 O106 1.966 . S
Co103 N112 2.022 . S
Co103 N120 1.993 . S
Co103 O128 1.941 . S
C104 O105 1.258 . S
C104 O106 1.263 1_455 S
O105 Co102 1.970 1_455 S
O105 C104 1.258 . S
O106 Co103 1.966 . S
O106 C104 1.263 1_655 S
C107 O108 1.235 . S
C107 O134 1.289 . S
O108 C107 1.235 . S
C109 C111 1.400 . S
C109 N112 1.351 . S
C109 C114 1.501 . S
C110 C111 1.387 . S
C110 N113 1.341 . S
C111 C109 1.400 . S
C111 C110 1.387 . S
N112 Co103 2.022 . S
N112 C109 1.351 . S
N112 N113 1.365 . S
N113 C110 1.341 . S
N113 N112 1.365 . S
N113 H133 0.862 . S
C114 C109 1.501 . S
C114 H115 0.961 . S
C114 H116 0.961 . S
C114 H117 0.960 . S
H115 C114 0.961 . S
H116 C114 0.961 . S
H117 C114 0.960 . S
C118 N119 1.342 . S
C118 C122 1.401 . S
C118 C123 1.499 . S
N119 Co102 1.989 . S
N119 C118 1.342 . S
N119 N120 1.388 . S
N120 Co103 1.993 . S
N120 N119 1.388 . S
N120 C121 1.346 . S
C121 N120 1.346 . S
C121 C122 1.396 . S
C121 C131 1.510 . S
C122 C118 1.401 . S
C122 C121 1.396 . S
C123 C118 1.499 . S
C123 H124 0.959 . S
C123 H125 0.960 . S
C123 H126 0.961 . S
H124 C123 0.959 . S
H125 C123 0.960 . S
H126 C123 0.961 . S
O127 Co102 1.967 . S
O127 C135 1.258 . S
O128 Co103 1.941 . S
O128 C135 1.266 . S
H129 C131 0.959 . S
H130 C131 0.961 . S
C131 C121 1.510 . S
C131 H129 0.959 . S
C131 H130 0.961 . S
C131 H132 0.960 . S
H132 C131 0.960 . S
H133 N113 0.862 . S
O134 Co102 1.920 . S
O134 C107 1.289 . S
C135 O127 1.258 . S
C135 O128 1.266 . S
Co136 O139 1.970 1_565 S
Co136 N153 1.989 . S
Co136 O161 1.967 . S
Co136 O168 1.920 . S
Co137 O140 1.966 . S
Co137 N146 2.022 . S
Co137 N154 1.993 . S
Co137 O162 1.941 . S
C138 O139 1.258 . S
C138 O140 1.263 1_545 S
O139 Co136 1.970 1_545 S
O139 C138 1.258 . S
O140 Co137 1.966 . S
O140 C138 1.263 1_565 S
C141 O142 1.235 . S
C141 O168 1.289 . S
O142 C141 1.235 . S
C143 C145 1.400 . S
C143 N146 1.351 . S
C143 C148 1.501 . S
C144 C145 1.387 . S
C144 N147 1.341 . S
C145 C143 1.400 . S
C145 C144 1.387 . S
N146 Co137 2.022 . S
N146 C143 1.351 . S
N146 N147 1.365 . S
N147 C144 1.341 . S
N147 N146 1.365 . S
N147 H167 0.862 . S
C148 C143 1.501 . S
C148 H149 0.961 . S
C148 H150 0.961 . S
C148 H151 0.960 . S
H149 C148 0.961 . S
H150 C148 0.961 . S
H151 C148 0.960 . S
C152 N153 1.342 . S
C152 C156 1.401 . S
C152 C157 1.499 . S
N153 Co136 1.989 . S
N153 C152 1.342 . S
N153 N154 1.388 . S
N154 Co137 1.993 . S
N154 N153 1.388 . S
N154 C155 1.346 . S
C155 N154 1.346 . S
C155 C156 1.396 . S
C155 C165 1.510 . S
C156 C152 1.401 . S
C156 C155 1.396 . S
C157 C152 1.499 . S
C157 H158 0.959 . S
C157 H159 0.960 . S
C157 H160 0.961 . S
H158 C157 0.959 . S
H159 C157 0.960 . S
H160 C157 0.961 . S
O161 Co136 1.967 . S
O161 C169 1.258 . S
O162 Co137 1.941 . S
O162 C169 1.266 . S
H163 C165 0.959 . S
H164 C165 0.961 . S
C165 C155 1.510 . S
C165 H163 0.959 . S
C165 H164 0.961 . S
C165 H166 0.960 . S
H166 C165 0.960 . S
H167 N147 0.862 . S
O168 Co136 1.920 . S
O168 C141 1.289 . S
C169 O161 1.258 . S
C169 O162 1.266 . S
Co170 O173 1.970 . S
Co170 N187 1.989 . S
Co170 O195 1.967 . S
Co170 O202 1.920 . S
Co171 O174 1.966 . S
Co171 N180 2.022 . S
Co171 N188 1.993 . S
Co171 O196 1.941 . S
C172 O173 1.258 . S
C172 O174 1.263 . S
O173 Co170 1.970 . S
O173 C172 1.258 . S
O174 Co171 1.966 . S
O174 C172 1.263 . S
C175 O176 1.235 . S
C175 O202 1.289 . S
O176 C175 1.235 . S
C177 C179 1.396 1_556 S
C177 N180 1.357 . S
C177 C182 1.500 1_556 S
C178 C179 1.387 . S
C178 N181 1.341 1_554 S
C179 C177 1.396 1_554 S
C179 C178 1.387 . S
N180 Co171 2.022 . S
N180 C177 1.357 . S
N180 N181 1.365 . S
N181 C178 1.341 1_556 S
N181 N180 1.365 . S
N181 H201 0.862 . S
C182 C177 1.500 1_554 S
C182 H183 0.961 1_554 S
C182 H184 0.961 1_554 S
C182 H185 0.960 . S
H183 C182 0.961 1_556 S
H184 C182 0.961 1_556 S
H185 C182 0.960 . S
C186 N187 1.342 . S
C186 C190 1.401 . S
C186 C191 1.499 . S
N187 Co170 1.989 . S
N187 C186 1.342 . S
N187 N188 1.388 . S
N188 Co171 1.993 . S
N188 N187 1.388 . S
N188 C189 1.346 . S
C189 N188 1.346 . S
C189 C190 1.396 . S
C189 C199 1.510 . S
C190 C186 1.401 . S
C190 C189 1.396 . S
C191 C186 1.499 . S
C191 H192 0.959 . S
C191 H193 0.960 . S
C191 H194 0.961 . S
H192 C191 0.959 . S
H193 C191 0.960 . S
H194 C191 0.961 . S
O195 Co170 1.967 . S
O195 C203 1.258 . S
O196 Co171 1.941 . S
O196 C203 1.266 . S
H197 C199 0.959 . S
H198 C199 0.961 . S
C199 C189 1.510 . S
C199 H197 0.959 . S
C199 H198 0.961 . S
C199 H200 0.960 . S
H200 C199 0.960 . S
H201 N181 0.862 . S
O202 Co170 1.920 . S
O202 C175 1.289 . S
C203 O195 1.258 . S
C203 O196 1.266 . S
Co204 O207 1.970 1_565 S
Co204 N221 1.989 . S
Co204 O229 1.967 . S
Co204 O236 1.920 . S
Co205 O208 1.966 . S
Co205 N214 2.022 . S
Co205 N222 1.993 . S
Co205 O230 1.941 . S
C206 O207 1.258 . S
C206 O208 1.263 1_545 S
O207 Co204 1.970 1_545 S
O207 C206 1.258 . S
O208 Co205 1.966 . S
O208 C206 1.263 1_565 S
C209 O210 1.235 . S
C209 O236 1.289 . S
O210 C209 1.235 . S
C211 C213 1.400 . S
C211 N214 1.351 . S
C211 C216 1.501 . S
C212 C213 1.387 . S
C212 N215 1.341 . S
C213 C211 1.400 . S
C213 C212 1.387 . S
N214 Co205 2.022 . S
N214 C211 1.351 . S
N214 N215 1.365 . S
N215 C212 1.341 . S
N215 N214 1.365 . S
N215 H235 0.862 . S
C216 C211 1.501 . S
C216 H217 0.961 . S
C216 H218 0.961 . S
C216 H219 0.960 . S
H217 C216 0.961 . S
H218 C216 0.961 . S
H219 C216 0.960 . S
C220 N221 1.342 . S
C220 C224 1.401 . S
C220 C225 1.499 . S
N221 Co204 1.989 . S
N221 C220 1.342 . S
N221 N222 1.388 . S
N222 Co205 1.993 . S
N222 N221 1.388 . S
N222 C223 1.346 . S
C223 N222 1.346 . S
C223 C224 1.396 . S
C223 C233 1.510 . S
C224 C220 1.401 . S
C224 C223 1.396 . S
C225 C220 1.499 . S
C225 H226 0.959 . S
C225 H227 0.960 . S
C225 H228 0.961 . S
H226 C225 0.959 . S
H227 C225 0.960 . S
H228 C225 0.961 . S
O229 Co204 1.967 . S
O229 C237 1.258 . S
O230 Co205 1.941 . S
O230 C237 1.266 . S
H231 C233 0.959 . S
H232 C233 0.961 . S
C233 C223 1.510 . S
C233 H231 0.959 . S
C233 H232 0.961 . S
C233 H234 0.960 . S
H234 C233 0.960 . S
H235 N215 0.862 . S
O236 Co204 1.920 . S
O236 C209 1.289 . S
C237 O229 1.258 . S
C237 O230 1.266 . S
Co238 O241 1.970 1_554 S
Co238 N255 1.989 1_554 S
Co238 O263 1.967 1_554 S
Co238 O270 1.920 . S
Co239 O242 1.966 . S
Co239 N248 2.022 . S
Co239 N256 1.993 . S
Co239 O264 1.941 . S
C240 O241 1.258 . S
C240 O242 1.263 . S
O241 Co238 1.970 1_556 S
O241 C240 1.258 . S
O242 Co239 1.966 . S
O242 C240 1.263 . S
C243 O244 1.235 . S
C243 O270 1.289 . S
O244 C243 1.235 . S
C245 C247 1.400 . S
C245 N248 1.351 . S
C245 C250 1.501 . S
C246 C247 1.387 . S
C246 N249 1.341 . S
C247 C245 1.400 . S
C247 C246 1.387 . S
N248 Co239 2.022 . S
N248 C245 1.351 . S
N248 N249 1.365 . S
N249 C246 1.341 . S
N249 N248 1.365 . S
N249 H269 0.862 . S
C250 C245 1.501 . S
C250 H251 0.961 . S
C250 H252 0.961 . S
C250 H253 0.960 . S
H251 C250 0.961 . S
H252 C250 0.961 . S
H253 C250 0.960 . S
C254 N255 1.342 1_554 S
C254 C258 1.401 . S
C254 C259 1.499 . S
N255 Co238 1.989 1_556 S
N255 C254 1.342 1_556 S
N255 N256 1.388 . S
N256 Co239 1.993 . S
N256 N255 1.388 . S
N256 C257 1.346 . S
C257 N256 1.346 . S
C257 C258 1.396 1_556 S
C257 C267 1.510 . S
C258 C254 1.401 . S
C258 C257 1.396 1_554 S
C259 C254 1.499 . S
C259 H260 0.959 . S
C259 H261 0.960 . S
C259 H262 0.961 . S
H260 C259 0.959 . S
H261 C259 0.960 . S
H262 C259 0.961 . S
O263 Co238 1.967 1_556 S
O263 C271 1.258 . S
O264 Co239 1.941 . S
O264 C271 1.266 . S
H265 C267 0.959 . S
H266 C267 0.961 . S
C267 C257 1.510 . S
C267 H265 0.959 . S
C267 H266 0.961 . S
C267 H268 0.960 . S
H268 C267 0.960 . S
H269 N249 0.862 . S
O270 Co238 1.920 . S
O270 C243 1.289 . S
C271 O263 1.258 . S
C271 O264 1.266 . S
Co272 O275 1.970 1_455 S
Co272 N289 1.989 . S
Co272 O297 1.967 . S
Co272 O304 1.920 . S
Co273 O276 1.966 . S
Co273 N282 2.022 . S
Co273 N290 1.993 . S
Co273 O298 1.941 . S
C274 O275 1.258 . S
C274 O276 1.263 1_655 S
O275 Co272 1.970 1_655 S
O275 C274 1.258 . S
O276 Co273 1.966 . S
O276 C274 1.263 1_455 S
C277 O278 1.235 . S
C277 O304 1.289 . S
O278 C277 1.235 . S
C279 C281 1.396 1_554 S
C279 N282 1.357 . S
C279 C284 1.500 1_554 S
C280 C281 1.387 . S
C280 N283 1.341 1_556 S
C281 C279 1.396 1_556 S
C281 C280 1.387 . S
N282 Co273 2.022 . S
N282 C279 1.357 . S
N282 N283 1.365 . S
N283 C280 1.341 1_554 S
N283 N282 1.365 . S
N283 H303 0.862 . S
C284 C279 1.500 1_556 S
C284 H285 0.961 1_556 S
C284 H286 0.961 1_556 S
C284 H287 0.960 . S
H285 C284 0.961 1_554 S
H286 C284 0.961 1_554 S
H287 C284 0.960 . S
C288 N289 1.342 . S
C288 C292 1.401 . S
C288 C293 1.499 . S
N289 Co272 1.989 . S
N289 C288 1.342 . S
N289 N290 1.388 . S
N290 Co273 1.993 . S
N290 N289 1.388 . S
N290 C291 1.346 . S
C291 N290 1.346 . S
C291 C292 1.396 . S
C291 C301 1.510 . S
C292 C288 1.401 . S
C292 C291 1.396 . S
C293 C288 1.499 . S
C293 H294 0.959 . S
C293 H295 0.960 . S
C293 H296 0.961 . S
H294 C293 0.959 . S
H295 C293 0.960 . S
H296 C293 0.961 . S
O297 Co272 1.967 . S
O297 C305 1.258 . S
O298 Co273 1.941 . S
O298 C305 1.266 . S
H299 C301 0.959 . S
H300 C301 0.961 . S
C301 C291 1.510 . S
C301 H299 0.959 . S
C301 H300 0.961 . S
C301 H302 0.960 . S
H302 C301 0.960 . S
H303 N283 0.862 . S
O304 Co272 1.920 . S
O304 C277 1.289 . S
C305 O297 1.258 . S
C305 O298 1.266 . S
Co306 O309 1.970 1_545 S
Co306 N323 1.989 . S
Co306 O331 1.967 . S
Co306 O338 1.920 . S
Co307 O310 1.966 . S
Co307 N316 2.022 . S
Co307 N324 1.993 . S
Co307 O332 1.941 . S
C308 O309 1.258 . S
C308 O310 1.263 1_565 S
O309 Co306 1.970 1_565 S
O309 C308 1.258 . S
O310 Co307 1.966 . S
O310 C308 1.263 1_545 S
C311 O312 1.235 . S
C311 O338 1.289 . S
O312 C311 1.235 . S
C313 C315 1.400 . S
C313 N316 1.351 . S
C313 C318 1.501 . S
C314 C315 1.387 . S
C314 N317 1.341 . S
C315 C313 1.400 . S
C315 C314 1.387 . S
N316 Co307 2.022 . S
N316 C313 1.351 . S
N316 N317 1.365 . S
N317 C314 1.341 . S
N317 N316 1.365 . S
N317 H337 0.862 . S
C318 C313 1.501 . S
C318 H319 0.961 . S
C318 H320 0.961 . S
C318 H321 0.960 . S
H319 C318 0.961 . S
H320 C318 0.961 . S
H321 C318 0.960 . S
C322 N323 1.342 . S
C322 C326 1.401 . S
C322 C327 1.499 . S
N323 Co306 1.989 . S
N323 C322 1.342 . S
N323 N324 1.388 . S
N324 Co307 1.993 . S
N324 N323 1.388 . S
N324 C325 1.346 . S
C325 N324 1.346 . S
C325 C326 1.396 . S
C325 C335 1.510 . S
C326 C322 1.401 . S
C326 C325 1.396 . S
C327 C322 1.499 . S
C327 H328 0.959 . S
C327 H329 0.960 . S
C327 H330 0.961 . S
H328 C327 0.959 . S
H329 C327 0.960 . S
H330 C327 0.961 . S
O331 Co306 1.967 . S
O331 C339 1.258 . S
O332 Co307 1.941 . S
O332 C339 1.266 . S
H333 C335 0.959 . S
H334 C335 0.961 . S
C335 C325 1.510 . S
C335 H333 0.959 . S
C335 H334 0.961 . S
C335 H336 0.960 . S
H336 C335 0.960 . S
H337 N317 0.862 . S
O338 Co306 1.920 . S
O338 C311 1.289 . S
C339 O331 1.258 . S
C339 O332 1.266 . S
Co340 O343 1.970 . S
Co340 N357 1.989 . S
Co340 O365 1.967 . S
Co340 O372 1.920 . S
Co341 O344 1.966 . S
Co341 N350 2.022 . S
Co341 N358 1.993 . S
Co341 O366 1.941 . S
C342 O343 1.258 . S
C342 O344 1.263 . S
O343 Co340 1.970 . S
O343 C342 1.258 . S
O344 Co341 1.966 . S
O344 C342 1.263 . S
C345 O346 1.235 . S
C345 O372 1.289 . S
O346 C345 1.235 . S
C347 C349 1.400 . S
C347 N350 1.351 . S
C347 C352 1.501 . S
C348 C349 1.387 . S
C348 N351 1.341 . S
C349 C347 1.400 . S
C349 C348 1.387 . S
N350 Co341 2.022 . S
N350 C347 1.351 . S
N350 N351 1.365 . S
N351 C348 1.341 . S
N351 N350 1.365 . S
N351 H371 0.862 . S
C352 C347 1.501 . S
C352 H353 0.961 . S
C352 H354 0.961 . S
C352 H355 0.960 . S
H353 C352 0.961 . S
H354 C352 0.961 . S
H355 C352 0.960 . S
C356 N357 1.342 . S
C356 C360 1.401 . S
C356 C361 1.499 . S
N357 Co340 1.989 . S
N357 C356 1.342 . S
N357 N358 1.388 . S
N358 Co341 1.993 . S
N358 N357 1.388 . S
N358 C359 1.346 . S
C359 N358 1.346 . S
C359 C360 1.396 . S
C359 C369 1.510 . S
C360 C356 1.401 . S
C360 C359 1.396 . S
C361 C356 1.499 . S
C361 H362 0.959 . S
C361 H363 0.960 . S
C361 H364 0.961 . S
H362 C361 0.959 . S
H363 C361 0.960 . S
H364 C361 0.961 . S
O365 Co340 1.967 . S
O365 C373 1.258 . S
O366 Co341 1.941 . S
O366 C373 1.266 . S
H367 C369 0.959 . S
H368 C369 0.961 . S
C369 C359 1.510 . S
C369 H367 0.959 . S
C369 H368 0.961 . S
C369 H370 0.960 . S
H370 C369 0.960 . S
H371 N351 0.862 . S
O372 Co340 1.920 . S
O372 C345 1.289 . S
C373 O365 1.258 . S
C373 O366 1.266 . S
Co374 O377 1.970 1_655 S
Co374 N391 1.989 . S
Co374 O399 1.967 . S
Co374 O406 1.920 . S
Co375 O378 1.966 . S
Co375 N384 2.022 . S
Co375 N392 1.993 . S
Co375 O400 1.941 . S
C376 O377 1.258 . S
C376 O378 1.263 1_455 S
O377 Co374 1.970 1_455 S
O377 C376 1.258 . S
O378 Co375 1.966 . S
O378 C376 1.263 1_655 S
C379 O380 1.235 . S
C379 O406 1.289 . S
O380 C379 1.235 . S
C381 C383 1.400 . S
C381 N384 1.351 . S
C381 C386 1.501 . S
C382 C383 1.387 . S
C382 N385 1.341 . S
C383 C381 1.400 . S
C383 C382 1.387 . S
N384 Co375 2.022 . S
N384 C381 1.351 . S
N384 N385 1.365 . S
N385 C382 1.341 . S
N385 N384 1.365 . S
N385 H405 0.862 . S
C386 C381 1.501 . S
C386 H387 0.961 . S
C386 H388 0.961 . S
C386 H389 0.960 . S
H387 C386 0.961 . S
H388 C386 0.961 . S
H389 C386 0.960 . S
C390 N391 1.342 . S
C390 C394 1.401 . S
C390 C395 1.499 . S
N391 Co374 1.989 . S
N391 C390 1.342 . S
N391 N392 1.388 . S
N392 Co375 1.993 . S
N392 N391 1.388 . S
N392 C393 1.346 . S
C393 N392 1.346 . S
C393 C394 1.396 . S
C393 C403 1.510 . S
C394 C390 1.401 . S
C394 C393 1.396 . S
C395 C390 1.499 . S
C395 H396 0.959 . S
C395 H397 0.960 . S
C395 H398 0.961 . S
H396 C395 0.959 . S
H397 C395 0.960 . S
H398 C395 0.961 . S
O399 Co374 1.967 . S
O399 C407 1.258 . S
O400 Co375 1.941 . S
O400 C407 1.266 . S
H401 C403 0.959 . S
H402 C403 0.961 . S
C403 C393 1.510 . S
C403 H401 0.959 . S
C403 H402 0.961 . S
C403 H404 0.960 . S
H404 C403 0.960 . S
H405 N385 0.862 . S
O406 Co374 1.920 . S
O406 C379 1.289 . S
C407 O399 1.258 . S
C407 O400 1.266 . S
C408 C409 1.387 . S
C408 H412 0.950 . S
C408 C417 1.390 . S
C409 C408 1.387 . S
C409 C411 1.387 . S
H410 C417 0.950 . S
C411 C409 1.387 . S
C411 C413 1.390 . S
C411 H415 0.950 . S
H412 C408 0.950 . S
C413 C411 1.390 . S
C413 C414 1.387 . S
C413 H416 0.950 . S
C414 C413 1.387 . S
C414 C417 1.387 . S
H415 C411 0.950 . S
H416 C413 0.950 . S
C417 C408 1.390 . S
C417 H410 0.950 . S
C417 C414 1.387 . S
C418 C419 1.387 . S
C418 H422 0.950 . S
C418 C427 1.390 . S
C419 C418 1.387 . S
C419 C421 1.387 . S
H420 C427 0.950 . S
C421 C419 1.387 . S
C421 C423 1.390 . S
C421 H425 0.950 . S
H422 C418 0.950 . S
C423 C421 1.390 . S
C423 C424 1.387 . S
C423 H426 0.950 . S
C424 C423 1.387 . S
C424 C427 1.387 . S
H425 C421 0.950 . S
H426 C423 0.950 . S
C427 C418 1.390 . S
C427 H420 0.950 . S
C427 C424 1.387 . S
C428 C429 1.387 . S
C428 H432 0.950 . S
C428 C437 1.390 . S
C429 C428 1.387 . S
C429 C431 1.387 . S
H430 C437 0.950 . S
C431 C429 1.387 . S
C431 C433 1.390 . S
C431 H435 0.950 . S
H432 C428 0.950 . S
C433 C431 1.390 . S
C433 C434 1.387 . S
C433 H436 0.950 . S
C434 C433 1.387 . S
C434 C437 1.387 . S
H435 C431 0.950 . S
H436 C433 0.950 . S
C437 C428 1.390 . S
C437 H430 0.950 . S
C437 C434 1.387 . S
C438 C439 1.387 . S
C438 H442 0.950 . S
C438 C447 1.390 . S
C439 C438 1.387 . S
C439 C441 1.387 . S
H440 C447 0.950 . S
C441 C439 1.387 . S
C441 C443 1.390 . S
C441 H445 0.950 . S
H442 C438 0.950 . S
C443 C441 1.390 . S
C443 C444 1.387 . S
C443 H446 0.950 . S
C444 C443 1.387 . S
C444 C447 1.387 . S
H445 C441 0.950 . S
H446 C443 0.950 . S
C447 C438 1.390 . S
C447 H440 0.950 . S
C447 C444 1.387 . S
C448 C449 1.387 . S
C448 H452 0.950 . S
C448 C457 1.390 . S
C449 C448 1.387 . S
C449 C451 1.387 . S
H450 C457 0.950 . S
C451 C449 1.387 . S
C451 C453 1.390 . S
C451 H455 0.950 . S
H452 C448 0.950 . S
C453 C451 1.390 . S
C453 C454 1.387 . S
C453 H456 0.950 . S
C454 C453 1.387 . S
C454 C457 1.387 . S
H455 C451 0.950 . S
H456 C453 0.950 . S
C457 C448 1.390 . S
C457 H450 0.950 . S
C457 C454 1.387 . S
C458 C459 1.387 . S
C458 H462 0.950 . S
C458 C467 1.390 . S
C459 C458 1.387 . S
C459 C461 1.387 . S
H460 C467 0.950 . S
C461 C459 1.387 . S
C461 C463 1.390 . S
C461 H465 0.950 . S
H462 C458 0.950 . S
C463 C461 1.390 . S
C463 C464 1.387 . S
C463 H466 0.950 . S
C464 C463 1.387 . S
C464 C467 1.387 . S
H465 C461 0.950 . S
H466 C463 0.950 . S
C467 C458 1.390 . S
C467 H460 0.950 . S
C467 C464 1.387 . S
C468 C469 1.387 . S
C468 H472 0.950 . S
C468 C477 1.390 . S
C469 C468 1.387 . S
C469 C471 1.387 . S
H470 C477 0.950 . S
C471 C469 1.387 . S
C471 C473 1.390 . S
C471 H475 0.950 . S
H472 C468 0.950 . S
C473 C471 1.390 . S
C473 C474 1.387 . S
C473 H476 0.950 . S
C474 C473 1.387 . S
C474 C477 1.387 . S
H475 C471 0.950 . S
H476 C473 0.950 . S
C477 C468 1.390 . S
C477 H470 0.950 . S
C477 C474 1.387 . S
C478 C479 1.387 . S
C478 H482 0.950 . S
C478 C487 1.390 . S
C479 C478 1.387 . S
C479 C481 1.387 . S
H480 C487 0.950 . S
C481 C479 1.387 . S
C481 C483 1.390 . S
C481 H485 0.950 . S
H482 C478 0.950 . S
C483 C481 1.390 . S
C483 C484 1.387 . S
C483 H486 0.950 . S
C484 C483 1.387 . S
C484 C487 1.387 . S
H485 C481 0.950 . S
H486 C483 0.950 . S
C487 C478 1.390 . S
C487 H480 0.950 . S
C487 C484 1.387 . S
C488 C489 1.387 . S
C488 H492 0.950 . S
C488 C497 1.390 . S
C489 C488 1.387 . S
C489 C491 1.387 . S
H490 C497 0.950 . S
C491 C489 1.387 . S
C491 C493 1.390 . S
C491 H495 0.950 . S
H492 C488 0.950 . S
C493 C491 1.390 . S
C493 C494 1.387 . S
C493 H496 0.950 . S
C494 C493 1.387 . S
C494 C497 1.387 . S
H495 C491 0.950 . S
H496 C493 0.950 . S
C497 C488 1.390 . S
C497 H490 0.950 . S
C497 C494 1.387 . S
C498 C499 1.387 . S
C498 H502 0.950 . S
C498 C507 1.390 . S
C499 C498 1.387 . S
C499 C501 1.387 . S
H500 C507 0.950 . S
C501 C499 1.387 . S
C501 C503 1.390 . S
C501 H505 0.950 . S
H502 C498 0.950 . S
C503 C501 1.390 . S
C503 C504 1.387 . S
C503 H506 0.950 . S
C504 C503 1.387 . S
C504 C507 1.387 . S
H505 C501 0.950 . S
H506 C503 0.950 . S
C507 C498 1.390 . S
C507 H500 0.950 . S
C507 C504 1.387 . S
C508 C509 1.387 . S
C508 H512 0.950 . S
C508 C517 1.390 . S
C509 C508 1.387 . S
C509 C511 1.387 . S
H510 C517 0.950 . S
C511 C509 1.387 . S
C511 C513 1.390 . S
C511 H515 0.950 . S
H512 C508 0.950 . S
C513 C511 1.390 . S
C513 C514 1.387 . S
C513 H516 0.950 . S
C514 C513 1.387 . S
C514 C517 1.387 . S
H515 C511 0.950 . S
H516 C513 0.950 . S
C517 C508 1.390 . S
C517 H510 0.950 . S
C517 C514 1.387 . S
C518 C519 1.387 . S
C518 H522 0.950 . S
C518 C527 1.390 . S
C519 C518 1.387 . S
C519 C521 1.387 . S
H520 C527 0.950 . S
C521 C519 1.387 . S
C521 C523 1.390 . S
C521 H525 0.950 . S
H522 C518 0.950 . S
C523 C521 1.390 . S
C523 C524 1.387 . S
C523 H526 0.950 . S
C524 C523 1.387 . S
C524 C527 1.387 . S
H525 C521 0.950 . S
H526 C523 0.950 . S
C527 C518 1.390 . S
C527 H520 0.950 . S
C527 C524 1.387 . S
C528 C529 1.386 . S
C528 H532 0.950 . S
C528 C537 1.390 . S
C529 C528 1.386 . S
C529 C531 1.389 1_455 S
H530 C537 0.950 . S
C531 C529 1.389 1_655 S
C531 C533 1.390 . S
C531 H535 0.950 . S
H532 C528 0.950 . S
C533 C531 1.390 . S
C533 C534 1.386 . S
C533 H536 0.950 . S
C534 C533 1.386 . S
C534 C537 1.389 1_655 S
H535 C531 0.950 . S
H536 C533 0.950 . S
C537 C528 1.390 . S
C537 H530 0.950 . S
C537 C534 1.389 1_455 S
C538 C539 1.389 . S
C538 H542 0.949 . S
C538 C547 1.390 1_556 S
C539 C538 1.389 . S
C539 C541 1.389 1_545 S
H540 C547 0.954 . S
C541 C539 1.389 1_565 S
C541 C543 1.390 1_556 S
C541 H545 0.954 . S
H542 C538 0.949 . S
C543 C541 1.390 1_554 S
C543 C544 1.389 . S
C543 H546 0.949 . S
C544 C543 1.389 . S
C544 C547 1.389 1_565 S
H545 C541 0.954 . S
H546 C543 0.949 . S
C547 C538 1.390 1_554 S
C547 H540 0.954 . S
C547 C544 1.389 1_545 S
C548 C549 1.387 . S
C548 H552 0.950 . S
C548 C557 1.390 . S
C549 C548 1.387 . S
C549 C551 1.387 . S
H550 C557 0.950 . S
C551 C549 1.387 . S
C551 C553 1.390 . S
C551 H555 0.950 . S
H552 C548 0.950 . S
C553 C551 1.390 . S
C553 C554 1.387 . S
C553 H556 0.950 . S
C554 C553 1.387 . S
C554 C557 1.387 . S
H555 C551 0.950 . S
H556 C553 0.950 . S
C557 C548 1.390 . S
C557 H550 0.950 . S
C557 C554 1.387 . S
C558 C559 1.386 1_655 S
C558 H562 0.950 . S
C558 C567 1.390 . S
C559 C558 1.386 1_455 S
C559 C561 1.389 . S
H560 C567 0.950 . S
C561 C559 1.389 . S
C561 C563 1.390 . S
C561 H565 0.950 . S
H562 C558 0.950 . S
C563 C561 1.390 . S
C563 C564 1.386 1_455 S
C563 H566 0.950 . S
C564 C563 1.386 1_655 S
C564 C567 1.389 . S
H565 C561 0.950 . S
H566 C563 0.950 . S
C567 C558 1.390 . S
C567 H560 0.950 . S
C567 C564 1.389 . S
C568 C569 1.392 1_565 S
C568 H572 0.956 . S
C568 C577 1.390 . S
C569 C568 1.392 1_545 S
C569 C571 1.392 . S
H570 C577 0.952 . S
C571 C569 1.392 . S
C571 C573 1.390 . S
C571 H575 0.952 . S
H572 C568 0.956 . S
C573 C571 1.390 . S
C573 C574 1.392 1_545 S
C573 H576 0.956 . S
C574 C573 1.392 1_565 S
C574 C577 1.392 . S
H575 C571 0.952 . S
H576 C573 0.956 . S
C577 C568 1.390 . S
C577 H570 0.952 . S
C577 C574 1.392 . S
C578 C579 1.387 . S
C578 H582 0.950 . S
C578 C587 1.390 . S
C579 C578 1.387 . S
C579 C581 1.387 . S
H580 C587 0.950 . S
C581 C579 1.387 . S
C581 C583 1.390 . S
C581 H585 0.950 . S
H582 C578 0.950 . S
C583 C581 1.390 . S
C583 C584 1.387 . S
C583 H586 0.950 . S
C584 C583 1.387 . S
C584 C587 1.387 . S
H585 C581 0.950 . S
H586 C583 0.950 . S
C587 C578 1.390 . S
C587 H580 0.950 . S
C587 C584 1.387 . S
C588 C589 1.387 . S
C588 H592 0.950 . S
C588 C597 1.390 . S
C589 C588 1.387 . S
C589 C591 1.387 . S
H590 C597 0.950 . S
C591 C589 1.387 . S
C591 C593 1.390 . S
C591 H595 0.950 . S
H592 C588 0.950 . S
C593 C591 1.390 . S
C593 C594 1.387 . S
C593 H596 0.950 . S
C594 C593 1.387 . S
C594 C597 1.387 . S
H595 C591 0.950 . S
H596 C593 0.950 . S
C597 C588 1.390 . S
C597 H590 0.950 . S
C597 C594 1.387 . S
C598 C599 1.387 . S
C598 H602 0.950 . S
C598 C607 1.390 . S
C599 C598 1.387 . S
C599 C601 1.387 . S
H600 C607 0.950 . S
C601 C599 1.387 . S
C601 C603 1.390 . S
C601 H605 0.950 . S
H602 C598 0.950 . S
C603 C601 1.390 . S
C603 C604 1.387 . S
C603 H606 0.950 . S
C604 C603 1.387 . S
C604 C607 1.387 . S
H605 C601 0.950 . S
H606 C603 0.950 . S
C607 C598 1.390 . S
C607 H600 0.950 . S
C607 C604 1.387 . S
C608 C609 1.387 . S
C608 H612 0.950 . S
C608 C617 1.390 . S
C609 C608 1.387 . S
C609 C611 1.387 . S
H610 C617 0.950 . S
C611 C609 1.387 . S
C611 C613 1.390 . S
C611 H615 0.950 . S
H612 C608 0.950 . S
C613 C611 1.390 . S
C613 C614 1.387 . S
C613 H616 0.950 . S
C614 C613 1.387 . S
C614 C617 1.387 . S
H615 C611 0.950 . S
H616 C613 0.950 . S
C617 C608 1.390 . S
C617 H610 0.950 . S
C617 C614 1.387 . S
C618 C619 1.387 . S
C618 H622 0.950 . S
C618 C627 1.390 . S
C619 C618 1.387 . S
C619 C621 1.387 . S
H620 C627 0.950 . S
C621 C619 1.387 . S
C621 C623 1.390 . S
C621 H625 0.950 . S
H622 C618 0.950 . S
C623 C621 1.390 . S
C623 C624 1.387 . S
C623 H626 0.950 . S
C624 C623 1.387 . S
C624 C627 1.387 . S
H625 C621 0.950 . S
H626 C623 0.950 . S
C627 C618 1.390 . S
C627 H620 0.950 . S
C627 C624 1.387 . S
C628 C629 1.387 . S
C628 H632 0.950 . S
C628 C637 1.390 . S
C629 C628 1.387 . S
C629 C631 1.387 . S
H630 C637 0.950 . S
C631 C629 1.387 . S
C631 C633 1.390 . S
C631 H635 0.950 . S
H632 C628 0.950 . S
C633 C631 1.390 . S
C633 C634 1.387 . S
C633 H636 0.950 . S
C634 C633 1.387 . S
C634 C637 1.387 . S
H635 C631 0.950 . S
H636 C633 0.950 . S
C637 C628 1.390 . S
C637 H630 0.950 . S
C637 C634 1.387 . S
C638 C639 1.387 . S
C638 H642 0.950 . S
C638 C647 1.390 . S
C639 C638 1.387 . S
C639 C641 1.387 . S
H640 C647 0.950 . S
C641 C639 1.387 . S
C641 C643 1.390 . S
C641 H645 0.950 . S
H642 C638 0.950 . S
C643 C641 1.390 . S
C643 C644 1.387 . S
C643 H646 0.950 . S
C644 C643 1.387 . S
C644 C647 1.387 . S
H645 C641 0.950 . S
H646 C643 0.950 . S
C647 C638 1.390 . S
C647 H640 0.950 . S
C647 C644 1.387 . S
C648 C649 1.387 . S
C648 H652 0.950 . S
C648 C657 1.390 . S
C649 C648 1.387 . S
C649 C651 1.387 . S
H650 C657 0.950 . S
C651 C649 1.387 . S
C651 C653 1.390 . S
C651 H655 0.950 . S
H652 C648 0.950 . S
C653 C651 1.390 . S
C653 C654 1.387 . S
C653 H656 0.950 . S
C654 C653 1.387 . S
C654 C657 1.387 . S
H655 C651 0.950 . S
H656 C653 0.950 . S
C657 C648 1.390 . S
C657 H650 0.950 . S
C657 C654 1.387 . S
C658 C659 1.387 . S
C658 H662 0.950 . S
C658 C667 1.390 . S
C659 C658 1.387 . S
C659 C661 1.387 . S
H660 C667 0.950 . S
C661 C659 1.387 . S
C661 C663 1.390 . S
C661 H665 0.967 . S
H662 C658 0.950 . S
C663 C661 1.390 . S
C663 C664 1.387 . S
C663 H666 0.950 . S
C664 C663 1.387 . S
C664 C667 1.387 . S
H665 C661 0.967 . S
H666 C663 0.950 . S
C667 C658 1.390 . S
C667 H660 0.950 . S
C667 C664 1.387 . S
C668 C669 1.387 . S
C668 H672 0.950 . S
C668 C677 1.390 . S
C669 C668 1.387 . S
C669 C671 1.387 . S
H670 C677 0.950 . S
C671 C669 1.387 . S
C671 C673 1.390 . S
C671 H675 0.950 . S
H672 C668 0.950 . S
C673 C671 1.390 . S
C673 C674 1.387 . S
C673 H676 0.950 . S
C674 C673 1.387 . S
C674 C677 1.387 . S
H675 C671 0.950 . S
H676 C673 0.950 . S
C677 C668 1.390 . S
C677 H670 0.950 . S
C677 C674 1.387 . S
C678 C679 1.387 . S
C678 H682 0.950 . S
C678 C687 1.390 . S
C679 C678 1.387 . S
C679 C681 1.387 . S
H680 C687 0.950 . S
C681 C679 1.387 . S
C681 C683 1.390 . S
C681 H685 0.950 . S
H682 C678 0.950 . S
C683 C681 1.390 . S
C683 C684 1.387 . S
C683 H686 0.950 . S
C684 C683 1.387 . S
C684 C687 1.387 . S
H685 C681 0.950 . S
H686 C683 0.950 . S
C687 C678 1.390 . S
C687 H680 0.950 . S
C687 C684 1.387 . S
C688 C689 1.387 . S
C688 H692 0.950 . S
C688 C697 1.390 . S
C689 C688 1.387 . S
C689 C691 1.387 . S
H690 C697 0.950 . S
C691 C689 1.387 . S
C691 C693 1.390 . S
C691 H695 0.950 . S
H692 C688 0.950 . S
C693 C691 1.390 . S
C693 C694 1.387 . S
C693 H696 0.950 . S
C694 C693 1.387 . S
C694 C697 1.387 . S
H695 C691 0.950 . S
H696 C693 0.950 . S
C697 C688 1.390 . S
C697 H690 0.950 . S
C697 C694 1.387 . S
C698 C699 1.387 . S
C698 H702 0.950 . S
C698 C707 1.390 . S
C699 C698 1.387 . S
C699 C701 1.387 . S
H700 C707 0.950 . S
C701 C699 1.387 . S
C701 C703 1.390 . S
C701 H705 0.950 . S
H702 C698 0.950 . S
C703 C701 1.390 . S
C703 C704 1.387 . S
C703 H706 0.950 . S
C704 C703 1.387 . S
C704 C707 1.387 . S
H705 C701 0.950 . S
H706 C703 0.950 . S
C707 C698 1.390 . S
C707 H700 0.950 . S
C707 C704 1.387 . S
C409 C349 0.946 . S
C414 C9 0.946 . S
C419 C43 0.947 . S
C424 C383 0.944 . S
C429 C77 0.943 . S
C434 C213 0.948 . S
C439 C111 0.945 . S
C444 C247 0.945 . S
C449 C145 0.943 . S
C454 C281 0.948 . S
C459 C179 0.947 . S
C464 C315 0.944 . S
C469 C33 1.422 . S
C474 C305 1.422 . S
C479 C339 1.421 . S
C484 C67 1.421 . S
C489 C101 1.423 . S
C494 C373 1.423 . S
C499 C135 1.422 . S
C504 C407 1.422 . S
C509 C169 1.421 . S
C514 C237 1.421 . S
C519 C203 1.422 . S
C524 C271 1.422 . S
C529 C379 1.585 1_455 S
C534 C5 1.584 1_655 S
C539 C209 1.585 1_545 S
C544 C39 1.585 1_565 S
C549 C243 1.584 . S
C554 C73 1.585 . S
C559 C107 1.584 1_455 S
C564 C277 1.585 1_655 S
C569 C141 1.585 1_545 S
C574 C311 1.585 1_565 S
C579 C345 1.586 . S
C584 C175 1.587 . S
C589 C172 2.088 . S
C594 C20 2.069 . S
C599 C2 2.088 . S
C604 C54 2.069 . S
C609 C88 2.070 . S
C614 C36 2.088 . S
C619 C70 2.088 . S
C624 C122 2.069 . S
C629 C156 2.069 . S
C634 C104 2.088 . S
C639 C190 2.068 . S
C644 C138 2.088 . S
C649 C240 2.088 . S
C654 C224 2.069 . S
C659 C258 2.069 . S
C664 C274 2.088 . S
C669 C292 2.070 . S
C674 C308 2.088 . S
C679 C342 2.088 . S
C684 C326 2.069 . S
C689 C376 2.088 . S
C694 C360 2.069 . S
C699 C394 2.068 . S
C704 C206 2.088 . S
