# Generated by pormake.
# Topology wmi, (6)-cn, num edge types: 1
# Building blocks:
#     Node 0, Type 0, BuildingBlock: VOLQOD_clean_sbu_1, # of connection points: 6
#     Node 1, Type 0, BuildingBlock: VOLQOD_clean_sbu_1, # of connection points: 6
#     Node 2, Type 0, BuildingBlock: VOLQOD_clean_sbu_1, # of connection points: 6
#     Node 3, Type 0, BuildingBlock: VOLQOD_clean_sbu_1, # of connection points: 6
#     Node 4, Type 0, BuildingBlock: VOLQOD_clean_sbu_1, # of connection points: 6
#     Node 5, Type 0, BuildingBlock: VOLQOD_clean_sbu_1, # of connection points: 6
#     Node 6, Type 0, BuildingBlock: VOLQOD_clean_sbu_1, # of connection points: 6
#     Node 7, Type 0, BuildingBlock: VOLQOD_clean_sbu_1, # of connection points: 6
#     Node 8, Type 0, BuildingBlock: VOLQOD_clean_sbu_1, # of connection points: 6
#     Node 9, Type 0, BuildingBlock: VOLQOD_clean_sbu_1, # of connection points: 6
#     Node 10, Type 0, BuildingBlock: VOLQOD_clean_sbu_1, # of connection points: 6
#     Node 11, Type 0, BuildingBlock: VOLQOD_clean_sbu_1, # of connection points: 6
#     Node 12, Type 0, BuildingBlock: VOLQOD_clean_sbu_1, # of connection points: 6
#     Node 13, Type 0, BuildingBlock: VOLQOD_clean_sbu_1, # of connection points: 6
#     Node 14, Type 0, BuildingBlock: VOLQOD_clean_sbu_1, # of connection points: 6
#     Node 15, Type 0, BuildingBlock: VOLQOD_clean_sbu_1, # of connection points: 6
#     Node 16, Type 0, BuildingBlock: VOLQOD_clean_sbu_1, # of connection points: 6
#     Node 17, Type 0, BuildingBlock: VOLQOD_clean_sbu_1, # of connection points: 6
#     Edge 18, Type (0, 0), BuildingBlock: CIFDUS_clean_linker_0, # of connection points: 2
#     Edge 19, Type (0, 0), BuildingBlock: CIFDUS_clean_linker_0, # of connection points: 2
#     Edge 20, Type (0, 0), BuildingBlock: CIFDUS_clean_linker_0, # of connection points: 2
#     Edge 21, Type (0, 0), BuildingBlock: CIFDUS_clean_linker_0, # of connection points: 2
#     Edge 22, Type (0, 0), BuildingBlock: CIFDUS_clean_linker_0, # of connection points: 2
#     Edge 23, Type (0, 0), BuildingBlock: CIFDUS_clean_linker_0, # of connection points: 2
#     Edge 24, Type (0, 0), BuildingBlock: CIFDUS_clean_linker_0, # of connection points: 2
#     Edge 25, Type (0, 0), BuildingBlock: CIFDUS_clean_linker_0, # of connection points: 2
#     Edge 26, Type (0, 0), BuildingBlock: CIFDUS_clean_linker_0, # of connection points: 2
#     Edge 27, Type (0, 0), BuildingBlock: CIFDUS_clean_linker_0, # of connection points: 2
#     Edge 28, Type (0, 0), BuildingBlock: CIFDUS_clean_linker_0, # of connection points: 2
#     Edge 29, Type (0, 0), BuildingBlock: CIFDUS_clean_linker_0, # of connection points: 2
#     Edge 30, Type (0, 0), BuildingBlock: CIFDUS_clean_linker_0, # of connection points: 2
#     Edge 31, Type (0, 0), BuildingBlock: CIFDUS_clean_linker_0, # of connection points: 2
#     Edge 32, Type (0, 0), BuildingBlock: CIFDUS_clean_linker_0, # of connection points: 2
#     Edge 33, Type (0, 0), BuildingBlock: CIFDUS_clean_linker_0, # of connection points: 2
#     Edge 34, Type (0, 0), BuildingBlock: CIFDUS_clean_linker_0, # of connection points: 2
#     Edge 35, Type (0, 0), BuildingBlock: CIFDUS_clean_linker_0, # of connection points: 2
#     Edge 36, Type (0, 0), BuildingBlock: CIFDUS_clean_linker_0, # of connection points: 2
#     Edge 37, Type (0, 0), BuildingBlock: CIFDUS_clean_linker_0, # of connection points: 2
#     Edge 38, Type (0, 0), BuildingBlock: CIFDUS_clean_linker_0, # of connection points: 2
#     Edge 39, Type (0, 0), BuildingBlock: CIFDUS_clean_linker_0, # of connection points: 2
#     Edge 40, Type (0, 0), BuildingBlock: CIFDUS_clean_linker_0, # of connection points: 2
#     Edge 41, Type (0, 0), BuildingBlock: CIFDUS_clean_linker_0, # of connection points: 2
#     Edge 42, Type (0, 0), BuildingBlock: CIFDUS_clean_linker_0, # of connection points: 2
#     Edge 43, Type (0, 0), BuildingBlock: CIFDUS_clean_linker_0, # of connection points: 2
#     Edge 44, Type (0, 0), BuildingBlock: CIFDUS_clean_linker_0, # of connection points: 2
#     Edge 45, Type (0, 0), BuildingBlock: CIFDUS_clean_linker_0, # of connection points: 2
#     Edge 46, Type (0, 0), BuildingBlock: CIFDUS_clean_linker_0, # of connection points: 2
#     Edge 47, Type (0, 0), BuildingBlock: CIFDUS_clean_linker_0, # of connection points: 2
#     Edge 48, Type (0, 0), BuildingBlock: CIFDUS_clean_linker_0, # of connection points: 2
#     Edge 49, Type (0, 0), BuildingBlock: CIFDUS_clean_linker_0, # of connection points: 2
#     Edge 50, Type (0, 0), BuildingBlock: CIFDUS_clean_linker_0, # of connection points: 2
#     Edge 51, Type (0, 0), BuildingBlock: CIFDUS_clean_linker_0, # of connection points: 2
#     Edge 52, Type (0, 0), BuildingBlock: CIFDUS_clean_linker_0, # of connection points: 2
#     Edge 53, Type (0, 0), BuildingBlock: CIFDUS_clean_linker_0, # of connection points: 2
#     Edge 54, Type (0, 0), BuildingBlock: CIFDUS_clean_linker_0, # of connection points: 2
#     Edge 55, Type (0, 0), BuildingBlock: CIFDUS_clean_linker_0, # of connection points: 2
#     Edge 56, Type (0, 0), BuildingBlock: CIFDUS_clean_linker_0, # of connection points: 2
#     Edge 57, Type (0, 0), BuildingBlock: CIFDUS_clean_linker_0, # of connection points: 2
#     Edge 58, Type (0, 0), BuildingBlock: CIFDUS_clean_linker_0, # of connection points: 2
#     Edge 59, Type (0, 0), BuildingBlock: CIFDUS_clean_linker_0, # of connection points: 2
#     Edge 60, Type (0, 0), BuildingBlock: CIFDUS_clean_linker_0, # of connection points: 2
#     Edge 61, Type (0, 0), BuildingBlock: CIFDUS_clean_linker_0, # of connection points: 2
#     Edge 62, Type (0, 0), BuildingBlock: CIFDUS_clean_linker_0, # of connection points: 2
#     Edge 63, Type (0, 0), BuildingBlock: CIFDUS_clean_linker_0, # of connection points: 2
#     Edge 64, Type (0, 0), BuildingBlock: CIFDUS_clean_linker_0, # of connection points: 2
#     Edge 65, Type (0, 0), BuildingBlock: CIFDUS_clean_linker_0, # of connection points: 2
#     Edge 66, Type (0, 0), BuildingBlock: CIFDUS_clean_linker_0, # of connection points: 2
#     Edge 67, Type (0, 0), BuildingBlock: CIFDUS_clean_linker_0, # of connection points: 2
#     Edge 68, Type (0, 0), BuildingBlock: CIFDUS_clean_linker_0, # of connection points: 2
#     Edge 69, Type (0, 0), BuildingBlock: CIFDUS_clean_linker_0, # of connection points: 2
#     Edge 70, Type (0, 0), BuildingBlock: CIFDUS_clean_linker_0, # of connection points: 2
#     Edge 71, Type (0, 0), BuildingBlock: CIFDUS_clean_linker_0, # of connection points: 2
# Relax obj value: 0.312
# Max RMSD: 0.231
# Mean RMSD: 0.231
data_MOF--net-wmi--node1-VOLQOD_clean_sbu_1--edge1-CIFDUS_clean_linker_0
_symmetry_space_group_name_H-M    P1
_symmetry_Int_Tables_number       1
_symmetry_cell_setting            triclinic
loop_
_symmetry_equiv_pos_as_xyz
'x, y, z'
_cell_length_a     28.065227
_cell_length_b     28.133994
_cell_length_c     88.129559
_cell_angle_alpha  89.479475
_cell_angle_beta   90.534921
_cell_angle_gamma 120.48179
loop_
_atom_site_label
_atom_site_type_symbol
_atom_site_fract_x
_atom_site_fract_y
_atom_site_fract_z
_atom_type_partial_charge
O0 O 0.50521 0.03551 0.08532 0.0
Zn1 Zn 0.42951 0.97384 0.09035 0.0
O2 O 0.37584 0.96467 0.07456 0.0
Zn3 Zn 0.31524 0.96912 0.08398 0.0
Zn4 Zn 0.41132 0.02123 0.05938 0.0
Zn5 Zn 0.34949 0.89619 0.0638 0.0
O6 O 0.2412 0.90085 0.07931 0.0
O7 O 0.26902 0.85144 0.06648 0.0
O8 O 0.40619 0.98335 0.11126 0.0
O9 O 0.32251 0.97041 0.10671 0.0
O10 O 0.3198 0.04152 0.07827 0.0
O11 O 0.38737 0.07566 0.06122 0.0
O12 O 0.39814 -0.00625 0.03814 0.0
O13 O 0.43881 0.90805 0.09111 0.0
O14 O 0.3628 0.90402 0.04114 0.0
O15 O 0.3832 0.85443 0.07268 0.0
C16 C 0.52421 0.06362 0.07321 0.0
C17 C 0.23106 0.8572 0.07231 0.0
C18 C 0.35151 0.07931 0.069 0.0
C19 C 0.36091 0.97813 0.11593 0.0
C20 C 0.38088 0.94624 0.03258 0.0
C21 C 0.41788 0.86417 0.08332 0.0
O22 O 0.49259 0.06056 0.06238 0.0
O23 O 0.89803 0.44923 0.1036 0.0
Zn24 Zn 0.9653 0.44078 0.10243 0.0
O25 O 0.9635 0.39936 0.0847 0.0
Zn26 Zn 0.96057 0.33139 0.09068 0.0
Zn27 Zn 0.90136 0.38586 0.07281 0.0
Zn28 Zn 0.0256 0.44244 0.07199 0.0
O29 O 0.0275 0.33002 0.08315 0.0
O30 O 0.07926 0.41749 0.07542 0.0
O31 O 0.97619 0.40739 0.12151 0.0
O32 O 0.96929 0.32992 0.11308 0.0
O33 O 0.88657 0.26498 0.08511 0.0
O34 O 0.84464 0.30823 0.07564 0.0
O35 O 0.91593 0.39452 0.05056 0.0
O36 O 0.02592 0.51949 0.10032 0.0
O37 O 0.00658 0.43139 0.04979 0.0
O38 O 0.05668 0.52219 0.07695 0.0
C39 C 0.87213 0.45372 0.09224 0.0
C40 C 0.07343 0.37065 0.07874 0.0
C41 C 0.84393 0.2644 0.07973 0.0
C42 C 0.97654 0.36275 0.12383 0.0
C43 C 0.96019 0.41203 0.04306 0.0
C44 C 0.05455 0.54632 0.08888 0.0
O45 O 0.87363 0.43504 0.07926 0.0
O46 O 0.48053 0.41975 0.09585 0.0
Zn47 Zn 0.48589 0.49345 0.09648 0.0
O48 O 0.53782 0.54157 0.08115 0.0
Zn49 Zn 0.59865 0.60812 0.08949 0.0
Zn50 Zn 0.56089 0.50301 0.06844 0.0
Zn51 Zn 0.49989 0.56338 0.06809 0.0
O52 O 0.59325 0.67696 0.08467 0.0
O53 O 0.50691 0.63028 0.07608 0.0
O54 O 0.50904 0.52819 0.11749 0.0
O55 O 0.58907 0.60333 0.11171 0.0
O56 O 0.67096 0.6101 0.08551 0.0
O57 O 0.63868 0.52853 0.07407 0.0
O58 O 0.56091 0.52134 0.04607 0.0
O59 O 0.40726 0.47331 0.09083 0.0
O60 O 0.52786 0.57774 0.0472 0.0
O61 O 0.42139 0.50731 0.06744 0.0
C62 C 0.48538 0.39529 0.08438 0.0
C63 C 0.5472 0.67386 0.08154 0.0
C64 C 0.67791 0.57218 0.08 0.0
C65 C 0.55285 0.57264 0.12137 0.0
C66 C 0.54893 0.55482 0.03969 0.0
C67 C 0.38892 0.47711 0.07784 0.0
O68 O 0.51164 0.42168 0.07252 0.0
O69 O 0.04593 0.52637 0.89761 0.0
Zn70 Zn 0.97855 0.4509 0.89607 0.0
O71 O 0.97957 0.40007 0.91124 0.0
Zn72 Zn 0.97616 0.33685 0.90126 0.0
Zn73 Zn 0.04528 0.43826 0.92323 0.0
Zn74 Zn 0.91989 0.37777 0.92521 0.0
O75 O 0.9078 0.26582 0.90803 0.0
O76 O 0.86445 0.29959 0.9214 0.0
O77 O 0.96696 0.42019 0.87486 0.0
O78 O 0.96241 0.34 0.87912 0.0
O79 O 0.0506 0.33956 0.903 0.0
O80 O 0.09778 0.41573 0.91682 0.0
O81 O 0.03383 0.42479 0.94561 0.0
O82 O 0.91982 0.46886 0.90079 0.0
O83 O 0.94286 0.38351 0.94697 0.0
O84 O 0.88735 0.42619 0.92282 0.0
C85 C 0.07634 0.54805 0.90925 0.0
C86 C 0.86563 0.25949 0.91522 0.0
C87 C 0.09536 0.37614 0.90933 0.0
C88 C 0.95986 0.3743 0.87015 0.0
C89 C -0.01021 0.40322 0.95338 0.0
C90 C 0.8903 0.45957 0.91253 0.0
O91 O 0.07758 0.51864 0.92011 0.0
O92 O 0.4363 0.49378 0.89631 0.0
Zn93 Zn 0.51346 0.506 0.89281 0.0
O94 O 0.5665 0.55613 0.90803 0.0
Zn95 Zn 0.62715 0.62167 0.89888 0.0
Zn96 Zn 0.52837 0.57561 0.92192 0.0
Zn97 Zn 0.59546 0.52074 0.92005 0.0
O98 O 0.70293 0.63288 0.90477 0.0
O99 O 0.67247 0.54949 0.91483 0.0
O100 O 0.54293 0.5321 0.87126 0.0
O101 O 0.62246 0.60801 0.87686 0.0
O102 O 0.61552 0.68712 0.90095 0.0
O103 O 0.53977 0.64685 0.91516 0.0
O104 O 0.55162 0.57923 0.94373 0.0
O105 O 0.4999 0.42929 0.89649 0.0
O106 O 0.59535 0.53273 0.94218 0.0
O107 O 0.55182 0.44109 0.91687 0.0
C108 C 0.41644 0.49571 0.90912 0.0
C109 C 0.71153 0.59544 0.91006 0.0
C110 C 0.57447 0.68706 0.90709 0.0
C111 C 0.58905 0.57369 0.86722 0.0
C112 C 0.57731 0.55778 0.95 0.0
C113 C 0.51584 0.40993 0.90723 0.0
O114 O 0.44791 0.52182 0.92025 0.0
O115 O 0.44848 0.90211 0.88392 0.0
Zn116 Zn 0.4471 0.97284 0.88334 0.0
O117 O 0.40312 0.9744 0.90035 0.0
Zn118 Zn 0.33946 0.97856 0.89286 0.0
Zn119 Zn 0.37881 0.91178 0.91346 0.0
Zn120 Zn 0.44895 0.03594 0.91286 0.0
O121 O 0.34202 0.04768 0.90006 0.0
O122 O 0.42773 0.09158 0.90949 0.0
O123 O 0.41827 0.9839 0.8631 0.0
O124 O 0.34511 0.98825 0.87053 0.0
O125 O 0.26651 0.90829 0.89707 0.0
O126 O 0.29888 0.86478 0.91111 0.0
O127 O 0.39289 0.92839 0.93585 0.0
O128 O 0.52795 0.03032 0.88576 0.0
O129 O 0.4395 0.01934 0.93502 0.0
O130 O 0.52839 0.06568 0.90822 0.0
C131 C 0.43557 0.8668 0.89456 0.0
C132 C 0.38364 0.09069 0.90547 0.0
C133 C 0.25901 0.86653 0.90477 0.0
C134 C 0.37711 -0.00992 0.86015 0.0
C135 C 0.41702 0.97465 0.94257 0.0
C136 C 0.55387 0.06107 0.89699 0.0
O137 O 0.41166 0.86806 0.90661 0.0
O138 O 0.18925 0.33668 0.43474 0.0
Zn139 Zn 0.11113 0.28005 0.43049 0.0
O140 O 0.07548 0.30886 0.41758 0.0
Zn141 Zn 0.00851 0.29952 0.42675 0.0
Zn142 Zn 0.12621 0.38479 0.41255 0.0
Zn143 Zn 0.05545 0.26843 0.39925 0.0
O144 O 0.93949 0.23769 0.41704 0.0
O145 O 0.97721 0.21077 0.39965 0.0
O146 O 0.0721 0.25323 0.45028 0.0
O147 O 0.00556 0.27403 0.44817 0.0
O148 O 0.00948 0.37216 0.42705 0.0
O149 O 0.09861 0.42975 0.42187 0.0
O150 O 0.1304 0.4 0.38978 0.0
O151 O 0.12006 0.22316 0.41988 0.0
O152 O 0.067 0.31668 0.38191 0.0
O153 O 0.09904 0.23157 0.39602 0.0
C154 C 0.21974 0.38534 0.42976 0.0
C155 C 0.93517 0.20401 0.4068 0.0
C156 C 0.05154 0.42064 0.42615 0.0
C157 C 0.03137 0.25525 0.45576 0.0
C158 C 0.09975 0.36756 0.37934 0.0
C159 C 0.11947 0.21342 0.4058 0.0
O160 O 0.20139 0.40853 0.42093 0.0
O161 O 0.57392 0.79941 0.41905 0.0
Zn162 Zn 0.64215 0.7955 0.42289 0.0
O163 O 0.64202 0.73726 0.41091 0.0
Zn164 Zn 0.64771 0.68658 0.42472 0.0
Zn165 Zn 0.57482 0.69899 0.39929 0.0
Zn166 Zn 0.70117 0.76638 0.39661 0.0
O167 O 0.70614 0.66982 0.41846 0.0
O168 O 0.74948 0.73533 0.40095 0.0
O169 O 0.65586 0.79093 0.44541 0.0
O170 O 0.67263 0.72188 0.44489 0.0
O171 O 0.57292 0.61979 0.42832 0.0
O172 O 0.52332 0.62996 0.41006 0.0
O173 O 0.58416 0.68782 0.37715 0.0
O174 O 0.70204 0.86817 0.41541 0.0
O175 O 0.67394 0.7469 0.37537 0.0
O176 O 0.74392 0.8488 0.39729 0.0
C177 C 0.53969 0.77967 0.40807 0.0
C178 C 0.74569 0.69618 0.40919 0.0
C179 C 0.52731 0.60413 0.42145 0.0
C180 C 0.67156 0.76056 0.45192 0.0
C181 C 0.62756 0.71454 0.36919 0.0
C182 C 0.73853 0.8835 0.40515 0.0
O183 O 0.53846 0.74356 0.39927 0.0
O184 O 0.16802 0.7685 0.43648 0.0
Zn185 Zn 0.16737 0.83892 0.43417 0.0
O186 O 0.2008 0.87427 0.41505 0.0
Zn187 Zn 0.2695 0.94226 0.4187 0.0
Zn188 Zn 0.20993 0.82328 0.40311 0.0
Zn189 Zn 0.15209 0.88818 0.4035 0.0
O190 O 0.26818 0.00631 0.40865 0.0
O191 O 0.17736 0.96715 0.40454 0.0
O192 O 0.20611 0.8886 0.452 0.0
O193 O 0.2777 0.96005 0.44089 0.0
O194 O 0.33394 0.93345 0.4128 0.0
O195 O 0.28876 0.8467 0.40449 0.0
O196 O 0.19453 0.82546 0.38069 0.0
O197 O 0.08594 0.81308 0.43395 0.0
O198 O 0.15316 0.87437 0.38147 0.0
O199 O 0.07588 0.84017 0.41094 0.0
C200 C 0.15743 0.73347 0.42605 0.0
C201 C 0.22574 0.00939 0.405 0.0
C202 C 0.33348 0.89081 0.40781 0.0
C203 C 0.25 0.9358 0.45271 0.0
C204 C 0.1718 0.84911 0.37396 0.0
C205 C 0.05556 0.81354 0.4232 0.0
O206 O 0.16474 0.74713 0.41205 0.0
O207 O 0.72516 0.89995 0.22239 0.0
Zn208 Zn 0.6581 0.82292 0.22176 0.0
O209 O 0.65518 0.77839 0.23901 0.0
Zn210 Zn 0.65553 0.71318 0.2326 0.0
Zn211 Zn 0.71717 0.82328 0.25123 0.0
Zn212 Zn 0.59317 0.75978 0.2516 0.0
O213 O 0.58985 0.64516 0.24172 0.0
O214 O 0.53765 0.68124 0.24798 0.0
O215 O 0.64974 0.78332 0.20208 0.0
O216 O 0.64145 0.70437 0.21023 0.0
O217 O 0.73184 0.72219 0.23634 0.0
O218 O 0.77486 0.80644 0.24636 0.0
O219 O 0.70242 0.80748 0.27326 0.0
O220 O 0.59738 0.83974 0.22337 0.0
O221 O 0.61115 0.76248 0.27393 0.0
O222 O 0.56496 0.81121 0.24671 0.0
C223 C 0.74697 0.92677 0.23454 0.0
C224 C 0.54384 0.64002 0.24575 0.0
C225 C 0.77554 0.7646 0.24131 0.0
C226 C 0.64116 0.73501 0.19957 0.0
C227 C 0.65761 0.78235 0.28066 0.0
C228 C 0.56845 0.83805 0.23461 0.0
O229 O 0.74289 0.90211 0.24706 0.0
O230 O 0.11446 0.86392 0.23257 0.0
Zn231 Zn 0.19059 0.87685 0.22831 0.0
O232 O 0.24549 0.92465 0.24347 0.0
Zn233 Zn 0.30526 -0.01013 0.2333 0.0
Zn234 Zn 0.21031 0.94519 0.25849 0.0
Zn235 Zn 0.27493 0.88615 0.25463 0.0
O236 O 0.38064 0.00083 0.2388 0.0
O237 O 0.35576 0.927 0.25335 0.0
O238 O 0.21494 0.90583 0.20699 0.0
O239 O 0.29827 0.97933 0.21064 0.0
O240 O 0.29935 0.0572 0.23798 0.0
O241 O 0.23739 0.02446 0.25653 0.0
O242 O 0.21802 0.92586 0.27998 0.0
O243 O 0.18209 0.80198 0.22919 0.0
O244 O 0.25619 0.87469 0.27681 0.0
O245 O 0.24712 0.81243 0.24573 0.0
C246 C 0.09684 0.87682 0.24417 0.0
C247 C 0.39268 0.97101 0.24708 0.0
C248 C 0.27037 0.06374 0.2479 0.0
C249 C 0.26006 0.94555 0.20182 0.0
C250 C 0.23479 0.89484 0.28536 0.0
C251 C 0.20913 0.78358 0.23624 0.0
O252 O 0.12955 0.90651 0.25465 0.0
O253 O 0.12723 0.26149 0.23734 0.0
Zn254 Zn 0.12001 0.32802 0.23298 0.0
O255 O 0.08304 0.33936 0.24982 0.0
Zn256 Zn 0.02291 0.34905 0.24342 0.0
Zn257 Zn 0.05517 0.28008 0.26351 0.0
Zn258 Zn 0.13593 0.40139 0.2609 0.0
O259 O 0.03625 0.4246 0.24883 0.0
O260 O 0.12603 0.46199 0.25395 0.0
O261 O 0.08363 0.32762 0.21277 0.0
O262 O 0.02478 0.35225 0.22118 0.0
O263 O 0.94814 0.28183 0.2482 0.0
O264 O 0.977 0.22823 0.25861 0.0
O265 O 0.05806 0.30586 0.28462 0.0
O266 O 0.19993 0.38864 0.23226 0.0
O267 O 0.12301 0.39417 0.28334 0.0
O268 O 0.21278 0.42021 0.25584 0.0
C269 C 0.12385 0.2379 0.25007 0.0
C270 C 0.08458 0.46666 0.25037 0.0
C271 C 0.93873 0.23535 0.25336 0.0
C272 C 0.04795 0.34231 0.21037 0.0
C273 C 0.08774 0.35253 0.29086 0.0
C274 C 0.23187 0.41659 0.24313 0.0
O275 O 0.09979 0.24404 0.26143 0.0
O276 O 0.90307 0.73837 0.76217 0.0
Zn277 Zn 0.82527 0.67394 0.7649 0.0
O278 O 0.77881 0.66424 0.74725 0.0
Zn279 Zn 0.71271 0.66403 0.75355 0.0
Zn280 Zn 0.81918 0.7226 0.73327 0.0
Zn281 Zn 0.76138 0.59825 0.73662 0.0
O282 O 0.6447 0.59655 0.74523 0.0
O283 O 0.68217 0.54473 0.74008 0.0
O284 O 0.78872 0.67509 0.78437 0.0
O285 O 0.70528 0.65452 0.77615 0.0
O286 O 0.71922 0.73835 0.74873 0.0
O287 O 0.7983 0.77926 0.73593 0.0
O288 O 0.80724 0.69857 0.71162 0.0
O289 O 0.83921 0.61115 0.76661 0.0
O290 O 0.76945 0.60812 0.71385 0.0
O291 O 0.8098 0.56957 0.74427 0.0
C292 C 0.92662 0.76022 0.74963 0.0
C293 C 0.64041 0.55041 0.74198 0.0
C294 C 0.75789 0.78046 0.74195 0.0
C295 C 0.73893 0.66227 0.78693 0.0
C296 C 0.78799 0.65129 0.70566 0.0
C297 C 0.8355 0.57661 0.7568 0.0
O298 O 0.89879 0.75462 0.73763 0.0
O299 O 0.27138 0.134 0.75068 0.0
Zn300 Zn 0.3376 0.12444 0.75181 0.0
O301 O 0.34464 0.09055 0.73329 0.0
Zn302 Zn 0.34964 0.0261 0.73871 0.0
Zn303 Zn 0.28298 0.07035 0.71997 0.0
Zn304 Zn 0.40795 0.14286 0.72216 0.0
O305 O 0.41893 0.03124 0.73042 0.0
O306 O 0.46326 0.11949 0.72328 0.0
O307 O 0.33917 0.08425 0.77074 0.0
O308 O 0.35824 0.02313 0.76113 0.0
O309 O 0.278 0.95633 0.73369 0.0
O310 O 0.23111 -0.00993 0.7217 0.0
O311 O 0.30279 0.0908 0.69803 0.0
O312 O 0.39946 0.20286 0.7535 0.0
O313 O 0.39279 0.148 0.70023 0.0
O314 O 0.43869 0.21808 0.73083 0.0
C315 C 0.24339 0.13224 0.73902 0.0
C316 C 0.46241 0.07445 0.72582 0.0
C317 C 0.23439 0.94982 0.72716 0.0
C318 C 0.35125 0.04652 0.77246 0.0
C319 C 0.34921 0.12448 0.69215 0.0
C320 C 0.43308 0.23536 0.74359 0.0
O321 O 0.24609 0.11073 0.72666 0.0
O322 O 0.85624 0.11739 0.75403 0.0
Zn323 Zn 0.86336 0.19193 0.75769 0.0
O324 O 0.92446 0.2504 0.74606 0.0
Zn325 Zn -0.0165 0.30429 0.75897 0.0
Zn326 Zn 0.95154 0.21747 0.7326 0.0
Zn327 Zn 0.89908 0.2885 0.7335 0.0
O328 O -0.00155 0.38222 0.75518 0.0
O329 O 0.92181 0.36082 0.7421 0.0
O330 O 0.87198 0.21245 0.78016 0.0
O331 O 0.95497 0.289 0.77991 0.0
O332 O 0.0524 0.29731 0.75818 0.0
O333 O 0.02375 0.23385 0.74009 0.0
O334 O 0.96412 0.24775 0.7115 0.0
O335 O 0.79106 0.18053 0.74932 0.0
O336 O 0.9302 0.30336 0.71271 0.0
O337 O 0.81812 0.24464 0.7313 0.0
C338 C 0.8699 0.10146 0.74217 0.0
C339 C 0.96486 0.3952 0.74931 0.0
C340 C 0.05992 0.26535 0.74965 0.0
C341 C 0.91175 0.25377 0.7869 0.0
C342 C 0.95456 0.28321 0.70544 0.0
C343 C 0.78019 0.20317 0.73829 0.0
O344 O 0.90263 0.13593 0.73241 0.0
O345 O 0.42175 0.2946 0.54648 0.0
Zn346 Zn 0.35782 0.21594 0.54489 0.0
O347 O 0.3519 0.17433 0.56317 0.0
Zn348 Zn 0.36322 0.11381 0.55952 0.0
Zn349 Zn 0.40251 0.22299 0.57769 0.0
Zn350 Zn 0.28113 0.14532 0.57193 0.0
O351 O 0.29876 0.04288 0.56776 0.0
O352 O 0.23482 0.06739 0.56567 0.0
O353 O 0.35954 0.17469 0.52639 0.0
O354 O 0.3606 0.10299 0.53702 0.0
O355 O 0.43757 0.13056 0.56807 0.0
O356 O 0.46683 0.21254 0.57861 0.0
O357 O 0.37209 0.2064 0.59864 0.0
O358 O 0.29349 0.2286 0.54343 0.0
O359 O 0.28417 0.14405 0.59479 0.0
O360 O 0.25078 0.19238 0.56531 0.0
C361 C 0.43611 0.32286 0.55867 0.0
C362 C 0.24841 0.0307 0.56697 0.0
C363 C 0.4744 0.17314 0.57509 0.0
C364 C 0.35894 0.12914 0.52533 0.0
C365 C 0.32449 0.17215 0.60376 0.0
C366 C 0.25808 0.2214 0.55345 0.0
O367 O 0.42633 0.29985 0.57168 0.0
O368 O 0.7946 0.19487 0.56905 0.0
Zn369 Zn 0.87081 0.20728 0.56841 0.0
O370 O 0.92487 0.27602 0.57753 0.0
Zn371 Zn 0.97024 0.32734 0.56173 0.0
Zn372 Zn 0.88406 0.3015 0.58865 0.0
Zn373 Zn 0.97121 0.26576 0.59167 0.0
O374 O 0.05141 0.35688 0.56515 0.0
O375 O 0.04703 0.29999 0.58353 0.0
O376 O 0.88819 0.20029 0.5469 0.0
O377 O 0.9562 0.28608 0.54244 0.0
O378 O 0.95064 0.38641 0.55841 0.0
O379 O 0.89062 0.36442 0.57729 0.0
O380 O 0.91103 0.32374 0.61006 0.0
O381 O 0.86825 0.14726 0.58054 0.0
O382 O 0.97566 0.30083 0.61139 0.0
O383 O 0.9407 0.18542 0.59616 0.0
C384 C 0.7729 0.21031 0.57897 0.0
C385 C 0.07421 0.33739 0.57372 0.0
C386 C 0.91578 0.3934 0.56574 0.0
C387 C 0.92404 0.23678 0.53816 0.0
C388 C 0.94889 0.32105 0.61737 0.0
C389 C 0.89737 0.14342 0.59106 0.0
O390 O 0.80255 0.24706 0.58866 0.0
O391 O 0.82094 0.63205 0.556 0.0
Zn392 Zn 0.83097 0.70651 0.55718 0.0
O393 O 0.7938 0.71227 0.57484 0.0
Zn394 Zn 0.74062 0.73328 0.56778 0.0
Zn395 Zn 0.75602 0.64368 0.58621 0.0
Zn396 Zn 0.84897 0.76586 0.58829 0.0
O397 O 0.75162 0.79846 0.57971 0.0
O398 O 0.83232 0.82532 0.59119 0.0
O399 O 0.80383 0.72255 0.53806 0.0
O400 O 0.74878 0.75298 0.54535 0.0
O401 O 0.66269 0.66945 0.56981 0.0
O402 O 0.675 0.61087 0.58406 0.0
O403 O 0.77531 0.65133 0.60869 0.0
O404 O 0.9123 0.75878 0.55779 0.0
O405 O 0.84637 0.73669 0.60909 0.0
O406 O 0.92609 0.79755 0.58042 0.0
C407 C 0.7981 0.59034 0.56474 0.0
C408 C 0.79178 0.83206 0.5881 0.0
C409 C 0.64369 0.62419 0.57706 0.0
C410 C 0.77364 0.74303 0.53494 0.0
C411 C 0.81412 0.69169 0.61586 0.0
C412 C 0.94448 0.79117 0.56793 0.0
O413 O 0.77353 0.58995 0.57686 0.0
H414 H 0.52262 0.88385 0.08606 0.0
H415 H 0.35113 0.75492 0.08683 0.0
H416 H 0.37814 0.68518 0.08867 0.0
H417 H 0.44865 0.661 0.08737 0.0
H418 H 0.62082 0.78652 0.0837 0.0
H419 H 0.59574 0.85835 0.08605 0.0
C420 C 0.49152 0.84044 0.0869 0.0
C421 C 0.43508 0.82392 0.08631 0.0
C422 C 0.50745 0.80051 0.08731 0.0
C423 C 0.3947 0.76798 0.08721 0.0
C424 C 0.41012 0.72834 0.08825 0.0
C425 C 0.48102 0.7041 0.08706 0.0
C426 C 0.53638 0.71867 0.08496 0.0
C427 C 0.46615 0.74417 0.08784 0.0
C428 C 0.57786 0.7745 0.08514 0.0
C429 C 0.56343 0.81534 0.08641 0.0
H430 H 0.18337 0.80298 0.09786 0.0
H431 H 0.16395 0.79725 0.04928 0.0
H432 H 0.10286 0.69722 0.05037 0.0
H433 H 0.07054 0.61133 0.0646 0.0
H434 H 0.09419 0.61592 0.11312 0.0
H435 H 0.13925 0.71668 0.11266 0.0
C436 C 0.16333 0.77993 0.08765 0.0
C437 C 0.17728 0.80689 0.07353 0.0
C438 C 0.13145 0.72224 0.08831 0.0
C439 C 0.15269 0.77699 0.06026 0.0
C440 C 0.11886 0.71981 0.06087 0.0
C441 C 0.08562 0.63445 0.07507 0.0
C442 C 0.08082 0.60673 0.0888 0.0
C443 C 0.11081 0.69193 0.07472 0.0
C444 C 0.09862 0.63674 0.10237 0.0
C445 C 0.12395 0.69418 0.10212 0.0
H446 H 0.14874 0.4053 0.05687 0.0
H447 H 0.1101 0.32976 0.10118 0.0
H448 H 0.20602 0.3515 0.10449 0.0
H449 H 0.30358 0.40628 0.09627 0.0
H450 H 0.33958 0.4828 0.05183 0.0
H451 H 0.24207 0.44618 0.04707 0.0
C452 C 0.16113 0.39212 0.06703 0.0
C453 C 0.12332 0.36659 0.07881 0.0
C454 C 0.21609 0.40607 0.06897 0.0
C455 C 0.13898 0.34924 0.09194 0.0
C456 C 0.19386 0.36237 0.0939 0.0
C457 C 0.28995 0.41433 0.0855 0.0
C458 C 0.32903 0.44854 0.07463 0.0
C459 C 0.23333 0.39317 0.08276 0.0
C460 C 0.31065 0.4576 0.06057 0.0
C461 C 0.25476 0.43653 0.05776 0.0
H462 H 0.87967 0.52845 0.89249 0.0
H463 H 0.84217 0.46577 0.93846 0.0
H464 H 0.79752 0.519 0.94298 0.0
H465 H 0.75783 0.57188 0.93297 0.0
H466 H 0.7835 0.62535 0.88633 0.0
H467 H 0.84723 0.59051 0.88319 0.0
C468 C 0.86187 0.5266 0.9035 0.0
C469 C 0.86314 0.4921 0.915 0.0
C470 C 0.83532 0.55678 0.90599 0.0
C471 C 0.84065 0.49085 0.92928 0.0
C472 C 0.81562 0.52178 0.93195 0.0
C473 C 0.77925 0.57782 0.9223 0.0
C474 C 0.76615 0.60067 0.90988 0.0
C475 C 0.81148 0.5536 0.92029 0.0
C476 C 0.79366 0.60836 0.89608 0.0
C477 C 0.82891 0.58719 0.89421 0.0
H478 H 0.432 0.16631 0.92686 0.0
H479 H 0.34033 0.13271 0.88497 0.0
H480 H 0.37102 0.23107 0.88214 0.0
H481 H 0.43605 0.32755 0.88976 0.0
H482 H 0.53376 0.35782 0.93065 0.0
H483 H 0.48968 0.25978 0.93545 0.0
C484 C 0.4177 0.18047 0.91729 0.0
C485 C 0.38483 0.14316 0.90605 0.0
C486 C 0.43814 0.2366 0.91531 0.0
C487 C 0.36563 0.16116 0.8938 0.0
C488 C 0.38398 0.21735 0.89205 0.0
C489 C 0.44762 0.3126 0.8997 0.0
C490 C 0.48892 0.35001 0.90964 0.0
C491 C 0.42246 0.25569 0.90238 0.0
C492 C 0.50287 0.33007 0.92263 0.0
C493 C 0.47736 0.27395 0.9255 0.0
H494 H 0.61715 0.09118 0.92215 0.0
H495 H 0.6268 0.09299 0.87331 0.0
H496 H 0.72805 0.1461 0.87485 0.0
H497 H 0.81252 0.20242 0.89015 0.0
H498 H 0.80033 0.20349 0.93884 0.0
H499 H 0.70129 0.13697 0.93738 0.0
C500 C 0.64139 0.10303 0.91182 0.0
C501 C 0.61474 0.08959 0.89763 0.0
C502 C 0.69907 0.1333 0.91282 0.0
C503 C 0.64656 0.10369 0.88436 0.0
C504 C 0.70434 0.13387 0.88525 0.0
C505 C 0.78836 0.18616 0.90043 0.0
C506 C 0.8132 0.20708 0.9146 0.0
C507 C 0.73097 0.15012 0.89942 0.0
C508 C 0.78174 0.18719 0.92786 0.0
C509 C 0.72514 0.14987 0.92701 0.0
H510 H 0.17053 0.03387 0.38453 0.0
H511 H 0.28903 0.10319 0.4211 0.0
H512 H 0.2707 0.17915 0.42329 0.0
H513 H 0.20747 0.21372 0.41815 0.0
H514 H 0.08682 0.1423 0.38209 0.0
H515 H 0.11947 0.07878 0.37625 0.0
C516 C 0.19352 0.0667 0.39264 0.0
C517 C 0.23014 0.06297 0.40283 0.0
C518 C 0.18132 0.10868 0.39415 0.0
C519 C 0.26059 0.10561 0.41317 0.0
C520 C 0.24953 0.14845 0.41455 0.0
C521 C 0.18886 0.18457 0.40891 0.0
C522 C 0.14387 0.18105 0.40083 0.0
C523 C 0.20771 0.14841 0.40569 0.0
C524 C 0.12101 0.14477 0.38857 0.0
C525 C 0.13962 0.10862 0.38524 0.0
H526 H 0.91431 0.125 0.38633 0.0
H527 H 0.84089 0.16184 0.42394 0.0
H528 H 0.7696 0.06447 0.42586 0.0
H529 H 0.73783 0.96825 0.41945 0.0
H530 H 0.81735 0.93205 0.38326 0.0
H531 H 0.87773 0.03029 0.37846 0.0
C532 C 0.88219 0.11208 0.39481 0.0
C533 C 0.88364 0.15041 0.4052 0.0
C534 C 0.84352 0.05604 0.39639 0.0
C535 C 0.841 0.13309 0.41587 0.0
C536 C 0.80066 0.07734 0.4171 0.0
C537 C 0.76821 0.98177 0.41047 0.0
C538 C 0.77383 0.94288 0.40193 0.0
C539 C 0.80325 0.03828 0.40789 0.0
C540 C 0.81279 0.96111 0.39018 0.0
C541 C 0.8471 0.01725 0.38736 0.0
H542 H -0.01329 0.76157 0.40011 0.0
H543 H -0.00997 0.78559 0.44844 0.0
H544 H 0.88854 0.73563 0.44884 0.0
H545 H 0.80127 0.7007 0.43452 0.0
H546 H 0.80098 0.68483 0.38592 0.0
H547 H 0.89906 0.71378 0.38653 0.0
C548 C 0.96516 0.75553 0.41075 0.0
C549 C -0.00476 0.77861 0.42415 0.0
C550 C 0.90754 0.72752 0.41081 0.0
C551 C 0.96729 0.76894 0.43796 0.0
C552 C 0.90948 0.74036 0.43817 0.0
C553 C 0.82233 0.70123 0.42419 0.0
C554 C 0.79465 0.69081 0.41018 0.0
C555 C 0.87934 0.72135 0.42456 0.0
C556 C 0.82195 0.69249 0.39678 0.0
C557 C 0.87801 0.7098 0.39713 0.0
H558 H 0.44505 0.96821 0.22236 0.0
H559 H 0.45806 0.98128 0.27104 0.0
H560 H 0.51868 0.94246 0.27132 0.0
H561 H 0.55093 0.88759 0.25821 0.0
H562 H 0.53264 0.86875 0.20961 0.0
H563 H 0.4898 0.92579 0.20876 0.0
C564 C 0.4637 0.96525 0.23291 0.0
C565 C 0.44764 0.97755 0.24665 0.0
C566 C 0.49495 0.93914 0.23304 0.0
C567 C 0.47075 0.9726 0.26034 0.0
C568 C 0.50422 0.94919 0.26052 0.0
C569 C 0.53747 0.89598 0.24745 0.0
C570 C 0.54311 0.87269 0.23406 0.0
C571 C 0.51345 0.92907 0.24704 0.0
C572 C 0.52749 0.88538 0.2201 0.0
C573 C 0.50347 0.9183 0.2196 0.0
H574 H 0.10519 0.69645 0.23648 0.0
H575 H 0.27678 0.74246 0.23377 0.0
H576 H 0.25154 0.64628 0.23701 0.0
H577 H 0.18313 0.55279 0.24323 0.0
H578 H 0.01115 0.50427 0.24763 0.0
H579 H 0.0341 0.59869 0.24113 0.0
C580 C 0.13661 0.68485 0.23621 0.0
C581 C 0.19259 0.72568 0.23487 0.0
C582 C 0.12195 0.62987 0.23873 0.0
C583 C 0.23348 0.71115 0.23477 0.0
C584 C 0.21912 0.65649 0.23673 0.0
C585 C 0.15038 0.56258 0.24287 0.0
C586 C 0.09571 0.52211 0.24629 0.0
C587 C 0.16384 0.61609 0.23924 0.0
C588 C 0.0537 0.53517 0.24528 0.0
C589 C 0.0668 0.58891 0.24152 0.0
H590 H 0.47805 0.57423 0.22358 0.0
H591 H 0.49907 0.58824 0.2721 0.0
H592 H 0.40351 0.51362 0.27562 0.0
H593 H 0.3111 0.45611 0.26487 0.0
H594 H 0.28801 0.44554 0.21627 0.0
H595 H 0.38736 0.50682 0.21271 0.0
C596 C 0.46202 0.55917 0.23486 0.0
C597 C 0.49497 0.58553 0.24759 0.0
C598 C 0.40649 0.51805 0.23675 0.0
C599 C 0.47413 0.56741 0.26221 0.0
C600 C 0.41948 0.52539 0.2642 0.0
C601 C 0.32787 0.46674 0.25349 0.0
C602 C 0.29224 0.44741 0.24087 0.0
C603 C 0.3847 0.5023 0.25155 0.0
C604 C 0.31461 0.46045 0.22619 0.0
C605 C 0.37137 0.4955 0.22414 0.0
H606 H 0.90498 0.57129 0.73726 0.0
H607 H 0.83815 0.52246 0.78226 0.0
H608 H 0.88701 0.47131 0.78564 0.0
H609 H 0.93638 0.42931 0.77398 0.0
H610 H 0.00097 0.47729 0.72878 0.0
H611 H 0.96805 0.54268 0.72748 0.0
C612 C 0.9015 0.54959 0.74782 0.0
C613 C 0.8669 0.54865 0.75932 0.0
C614 C 0.93032 0.52143 0.74972 0.0
C615 C 0.86384 0.52237 0.77317 0.0
C616 C 0.89194 0.49355 0.77512 0.0
C617 C 0.94572 0.45637 0.76422 0.0
C618 C 0.97139 0.4494 0.75155 0.0
C619 C 0.92401 0.49153 0.76329 0.0
C620 C -0.01782 0.48316 0.73874 0.0
C621 C 0.96229 0.51953 0.73788 0.0
H622 H 0.58627 0.48001 0.76452 0.0
H623 H 0.57895 0.50819 0.71668 0.0
H624 H 0.50904 0.41092 0.7131 0.0
H625 H 0.46229 0.31642 0.723 0.0
H626 H 0.47113 0.28711 0.77079 0.0
H627 H 0.52855 0.38656 0.7751 0.0
C628 C 0.56738 0.46499 0.75347 0.0
C629 C 0.58646 0.50052 0.74089 0.0
C630 C 0.52912 0.40884 0.75147 0.0
C631 C 0.5635 0.48121 0.7265 0.0
C632 C 0.52439 0.42562 0.72445 0.0
C633 C 0.47663 0.33193 0.73437 0.0
C634 C 0.46405 0.2949 0.74652 0.0
C635 C 0.50901 0.38876 0.73673 0.0
C636 C 0.48122 0.31516 0.76126 0.0
C637 C 0.51382 0.37184 0.76372 0.0
H638 H 0.55171 0.1438 0.7097 0.0
H639 H 0.49342 0.01224 0.74273 0.0
H640 H 0.58894 0.0387 0.74896 0.0
H641 H 0.68832 0.10869 0.74781 0.0
H642 H 0.74375 0.24399 0.71588 0.0
H643 H 0.64984 0.20725 0.70672 0.0
C644 C 0.5599 0.1201 0.71803 0.0
C645 C 0.51595 0.07691 0.72594 0.0
C646 C 0.61438 0.13735 0.7221 0.0
C647 C 0.52678 0.04577 0.73648 0.0
C648 C 0.58135 0.06147 0.74023 0.0
C649 C 0.67981 0.13005 0.73884 0.0
C650 C 0.72288 0.17962 0.73279 0.0
C651 C 0.62539 0.10891 0.73363 0.0
C652 C 0.71135 0.20623 0.72095 0.0
C653 C 0.65768 0.18511 0.7156 0.0
H654 H 0.10676 0.32329 0.54654 0.0
H655 H 0.16011 0.36664 0.59294 0.0
H656 H 0.22974 0.34003 0.58965 0.0
H657 H 0.25889 0.285 0.57559 0.0
H658 H 0.20154 0.23447 0.52981 0.0
H659 H 0.14904 0.28271 0.53075 0.0
C660 C 0.13563 0.32945 0.55565 0.0
C661 C 0.12881 0.34672 0.56996 0.0
C662 C 0.17279 0.31049 0.55395 0.0
C663 C 0.16532 0.35372 0.58183 0.0
C664 C 0.2043 0.3376 0.58002 0.0
C665 C 0.23529 0.28518 0.56578 0.0
C666 C 0.23204 0.25507 0.55285 0.0
C667 C 0.2056 0.31255 0.56648 0.0
C668 C 0.20327 0.2567 0.53996 0.0
C669 C 0.17359 0.28432 0.54051 0.0
H670 H 0.87661 0.91665 0.60303 0.0
H671 H 0.7144 0.86288 0.58417 0.0
H672 H 0.72998 0.95593 0.58673 0.0
H673 H 0.79599 0.05393 0.58937 0.0
H674 H 0.96162 0.10928 0.60556 0.0
H675 H 0.9379 0.01349 0.60934 0.0
C676 C 0.84415 0.92491 0.59973 0.0
C677 C 0.79515 0.8835 0.59294 0.0
C678 C 0.85431 0.97874 0.6006 0.0
C679 C 0.753 0.89447 0.58909 0.0
C680 C 0.76192 0.94761 0.59052 0.0
C681 C 0.82672 0.04504 0.59393 0.0
C682 C 0.88092 0.08809 0.5967 0.0
C683 C 0.81351 -0.0096 0.59544 0.0
C684 C 0.91985 0.07648 0.60311 0.0
C685 C 0.90639 0.02185 0.60519 0.0
H686 H 0.1796 0.96649 0.5452 0.0
H687 H 0.21588 0.97136 0.59292 0.0
H688 H 0.12399 0.89105 0.59743 0.0
H689 H 0.02881 0.83095 0.58824 0.0
H690 H -0.0071 0.82648 0.54038 0.0
H691 H 0.08948 0.89476 0.53535 0.0
C692 C 0.16786 0.94834 0.55645 0.0
C693 C 0.20367 0.97387 0.56873 0.0
C694 C 0.11486 0.90324 0.55894 0.0
C695 C 0.18866 0.95129 0.58334 0.0
C696 C 0.13603 0.90602 0.58592 0.0
C697 C 0.04247 0.84438 0.5767 0.0
C698 C 0.0039 0.82494 0.56474 0.0
C699 C 0.09798 0.88346 0.5739 0.0
C700 C 0.02196 0.84143 0.54978 0.0
C701 C 0.07707 0.8805 0.5469 0.0
H702 H 0.43212 0.02904 0.01215 0.0
H703 H 0.33538 0.85154 0.01559 0.0
H704 H 0.3392 0.84427 0.98802 0.0
H705 H 0.36869 0.88892 0.96287 0.0
H706 H 0.46605 0.06677 0.96008 0.0
H707 H 0.46335 0.07302 0.9875 0.0
C708 C 0.4117 -0.01136 0.00692 0.0
C709 C 0.3832 0.94094 0.01594 0.0
C710 C 0.41426 0.98479 0.99115 0.0
C711 C 0.35754 0.88898 0.00892 0.0
C712 C 0.3597 0.88479 0.99315 0.0
C713 C 0.38956 0.92901 0.96826 0.0
C714 C 0.41736 0.97725 0.95936 0.0
C715 C 0.38781 0.9325 0.98414 0.0
C716 C 0.4442 0.02888 0.96658 0.0
C717 C 0.44266 0.0326 0.98229 0.0
H718 H 0.90624 0.3754 0.97318 0.0
H719 H 0.08145 0.43531 0.97123 0.0
H720 H 0.08787 0.4438 -0.00117 0.0
H721 H 0.04402 0.43609 0.02343 0.0
H722 H 0.86887 0.37713 0.02509 0.0
H723 H 0.86245 0.36684 -0.00237 0.0
C724 C 0.94583 0.38993 0.97877 0.0
C725 C -0.00674 0.40465 0.97013 0.0
C726 C 0.94939 0.39538 -0.00542 0.0
C727 C 0.04424 0.42368 0.97759 0.0
C728 C 0.04801 0.42871 -0.00662 0.0
C729 C 0.00446 0.42117 0.01779 0.0
C730 C 0.95708 0.4076 0.02634 0.0
C731 C 0.00092 0.41514 0.00197 0.0
C732 C 0.90609 0.38802 0.01882 0.0
C733 C 0.90229 0.38198 0.00311 0.0
H734 H 0.54634 0.60868 0.9704 0.0
H735 H 0.62097 0.50748 0.9671 0.0
H736 H 0.62158 0.49993 -0.00534 0.0
H737 H 0.59506 0.51674 0.01962 0.0
H738 H 0.52021 0.61789 0.0227 0.0
H739 H 0.52591 0.6308 -0.00466 0.0
C740 C 0.56318 0.58536 0.97569 0.0
C741 C 0.58298 0.55827 0.96668 0.0
C742 C 0.56311 0.58081 0.99153 0.0
C743 C 0.60513 0.52859 0.97376 0.0
C744 C 0.60541 0.52407 0.98953 0.0
C745 C 0.58034 0.54189 0.01432 0.0
C746 C 0.55673 0.56571 0.02321 0.0
C747 C 0.58352 0.54914 -0.00148 0.0
C748 C 0.5383 0.59866 0.01615 0.0
C749 C 0.54146 0.60612 0.00048 0.0
H750 H 0.01856 0.32519 0.35882 0.0
H751 H 0.18989 0.45049 0.36445 0.0
H752 H 0.19989 0.46207 0.33678 0.0
H753 H 0.16284 0.42511 0.31116 0.0
H754 H -0.00655 0.29279 0.30663 0.0
H755 H 0.97978 0.29488 0.33377 0.0
C756 C 0.05794 0.35574 0.354 0.0
C757 C 0.10369 0.38621 0.36353 0.0
C758 C 0.06388 0.35993 0.3383 0.0
C759 C 0.15414 0.42649 0.35726 0.0
C760 C 0.15996 0.43256 0.34147 0.0
C761 C 0.12287 0.39733 0.31615 0.0
C762 C 0.07948 0.35815 0.30703 0.0
C763 C 0.11568 0.39769 0.33189 0.0
C764 C 0.02774 0.32247 0.31352 0.0
C765 C 0.01977 0.32383 0.329 0.0
H766 H 0.71138 0.77093 0.3495 0.0
H767 H 0.53496 0.65871 0.35115 0.0
H768 H 0.52845 0.66983 0.32376 0.0
H769 H 0.57265 0.71557 0.29961 0.0
H770 H 0.74899 0.82949 0.29876 0.0
H771 H 0.75534 0.81401 0.3257 0.0
C772 C 0.67142 0.74834 0.34391 0.0
C773 C 0.62371 0.71419 0.35242 0.0
C774 C 0.66781 0.75593 0.32833 0.0
C775 C 0.57242 0.68522 0.34489 0.0
C776 C 0.5686 0.69188 0.32925 0.0
C777 C 0.61239 0.73721 0.30534 0.0
C778 C 0.66018 0.77396 0.29717 0.0
C779 C 0.61593 0.72799 0.32091 0.0
C780 C 0.71147 0.80115 0.30475 0.0
C781 C 0.71525 0.79221 0.32016 0.0
H782 H 0.16813 0.90692 0.30505 0.0
H783 H 0.2838 0.84907 0.30229 0.0
H784 H 0.27119 0.82543 0.3293 0.0
H785 H 0.2302 0.82502 0.35394 0.0
H786 H 0.11436 0.88293 0.35631 0.0
H787 H 0.12362 0.90184 0.32916 0.0
C788 C 0.19074 0.88928 0.31034 0.0
C789 C 0.22731 0.88038 0.3017 0.0
C790 C 0.18297 0.87538 0.3258 0.0
C791 C 0.25557 0.85662 0.3087 0.0
C792 C 0.24832 0.84299 0.32414 0.0
C793 C 0.20635 0.84097 0.34848 0.0
C794 C 0.17188 0.85277 0.3572 0.0
C795 C 0.21238 0.85253 0.33283 0.0
C796 C 0.14145 0.87369 0.34992 0.0
C797 C 0.14683 0.88475 0.33438 0.0
H798 H 0.85621 0.73038 0.68608 0.0
H799 H 0.72014 0.56262 0.68781 0.0
H800 H 0.71767 0.55872 0.66001 0.0
H801 H 0.75151 0.60533 0.63519 0.0
H802 H 0.88971 0.77267 0.63418 0.0
H803 H 0.89418 0.77396 0.66169 0.0
C804 C 0.826 0.6929 0.68038 0.0
C805 C 0.78797 0.64715 0.68895 0.0
C806 C 0.82523 0.69082 0.66451 0.0
C807 C 0.74979 0.5985 0.68143 0.0
C808 C 0.7483 0.5963 0.66555 0.0
C809 C 0.78293 0.64185 0.64098 0.0
C810 C 0.81977 0.68897 0.63255 0.0
C811 C 0.78546 0.64251 0.65695 0.0
C812 C 0.86048 0.73582 0.64029 0.0
C813 C 0.86309 0.73678 0.65608 0.0
H814 H 0.40554 0.21236 0.62501 0.0
H815 H 0.22914 0.10588 0.6196 0.0
H816 H 0.22102 0.08148 0.64655 0.0
H817 H 0.26483 0.0883 0.67146 0.0
H818 H 0.44187 0.19348 0.67616 0.0
H819 H 0.44872 0.21994 0.64958 0.0
C820 C 0.36511 0.1842 0.6297 0.0
C821 C 0.31801 0.1611 0.62028 0.0
C822 C 0.36091 0.16958 0.64506 0.0
C823 C 0.26609 0.12439 0.6266 0.0
C824 C 0.26145 0.11022 0.64199 0.0
C825 C 0.30492 0.11687 0.66666 0.0
C826 C 0.35274 0.13865 0.67583 0.0
C827 C 0.30872 0.13208 0.65129 0.0
C828 C 0.40433 0.17586 0.66941 0.0
C829 C 0.40836 0.19122 0.6542 0.0
H830 H 0.01467 0.30491 0.6367 0.0
H831 H 0.89939 0.36381 0.63488 0.0
H832 H 0.89697 0.36414 0.66259 0.0
H833 H 0.91676 0.33438 0.68689 0.0
H834 H 0.0255 0.26761 0.6882 0.0
H835 H 0.04124 0.28366 0.66099 0.0
C836 C -0.01032 0.31879 0.64231 0.0
C837 C 0.95643 0.33332 0.63374 0.0
C838 C -0.01338 0.31655 0.65813 0.0
C839 C 0.92489 0.35181 0.64123 0.0
C840 C 0.92325 0.35171 0.65706 0.0
C841 C 0.94455 0.32409 0.68126 0.0
C842 C 0.96924 0.29903 0.68946 0.0
C843 C 0.95216 0.33196 0.66557 0.0
C844 C 0.00532 0.28613 0.68206 0.0
C845 C 0.01444 0.29541 0.66653 0.0
H846 H 0.35888 -0.00518 0.18735 0.0
H847 H 0.18283 0.90668 0.17909 0.0
H848 H 0.19881 0.91129 0.15176 0.0
H849 H 0.26258 0.93764 0.13031 0.0
H850 H 0.43849 0.02065 0.13862 0.0
H851 H 0.42274 0.02072 0.16586 0.0
C852 C 0.324 0.97709 0.17956 0.0
C853 C 0.26972 0.95071 0.18524 0.0
C854 C 0.33347 0.9787 0.16389 0.0
C855 C 0.22498 0.92717 0.17501 0.0
C856 C 0.2341 0.92979 0.15938 0.0
C857 C 0.29755 0.95611 0.13806 0.0
C858 C 0.35167 0.9793 0.13242 0.0
C859 C 0.28814 0.95504 0.15371 0.0
C860 C 0.39643 0.00241 0.14266 0.0
C861 C 0.38745 0.00255 0.15823 0.0
H862 H 0.97746 0.41161 0.15021 0.0
H863 H 0.00518 0.28622 0.13167 0.0
H864 H 0.03192 0.26965 0.15672 0.0
H865 H 0.04831 0.29164 0.18406 0.0
H866 H 0.01734 0.41547 0.20219 0.0
H867 H -0.00841 0.43197 0.17716 0.0
C868 C -0.0108 0.38056 0.15164 0.0
C869 C -0.01065 0.35033 0.13911 0.0
C870 C 0.00433 0.3711 0.16602 0.0
C871 C 0.00439 0.30994 0.14117 0.0
C872 C 0.01999 0.30058 0.15548 0.0
C873 C 0.03619 0.32233 0.18245 0.0
C874 C 0.03464 0.35215 0.19491 0.0
C875 C 0.0204 0.33114 0.16799 0.0
C876 C 0.01842 0.39158 0.19276 0.0
C877 C 0.00372 0.40118 0.17846 0.0
H878 H 0.58155 0.62757 0.19129 0.0
H879 H 0.67176 0.79306 0.17307 0.0
H880 H 0.65142 0.75651 0.1473 0.0
H881 H 0.60935 0.67829 0.13013 0.0
H882 H 0.51523 0.51244 0.14781 0.0
H883 H 0.53533 0.54854 0.17381 0.0
C884 C 0.59696 0.65556 0.18166 0.0
C885 C 0.62864 0.71292 0.18403 0.0
C886 C 0.58424 0.63429 0.16689 0.0
C887 C 0.64742 0.74882 0.1715 0.0
C888 C 0.63585 0.72796 0.15679 0.0
C889 C 0.59333 0.64987 0.13967 0.0
C890 C 0.56151 0.59273 0.13712 0.0
C891 C 0.60452 0.67087 0.15439 0.0
C892 C 0.53993 0.55656 0.14954 0.0
C893 C 0.5516 0.5772 0.16436 0.0
H894 H 0.90786 0.27192 0.85788 0.0
H895 H -0.01374 0.44472 0.84611 0.0
H896 H 0.97426 0.4214 0.81917 0.0
H897 H 0.94762 0.35283 0.79918 0.0
H898 H 0.86719 0.17979 0.81048 0.0
H899 H 0.8731 0.20219 0.83758 0.0
C900 C 0.92217 0.30445 0.8494 0.0
C901 C 0.94873 0.36006 0.85394 0.0
C902 C 0.91475 0.29068 0.83396 0.0
C903 C 0.96598 0.40171 0.84288 0.0
C904 C 0.95924 0.3884 0.8275 0.0
C905 C 0.93108 0.31996 0.80759 0.0
C906 C 0.90784 0.26484 0.80298 0.0
C907 C 0.93463 0.33319 0.82296 0.0
C908 C 0.88537 0.22248 0.81386 0.0
C909 C 0.88908 0.23536 0.8293 0.0
H910 H 0.69274 0.63834 0.85697 0.0
H911 H 0.52545 0.53025 0.84141 0.0
H912 H 0.55709 0.55024 0.815 0.0
H913 H 0.6328 0.59869 0.79651 0.0
H914 H 0.7999 0.70356 0.81272 0.0
H915 H 0.76739 0.68489 0.83888 0.0
C916 C 0.66287 0.61918 0.84784 0.0
C917 C 0.60664 0.58315 0.85116 0.0
C918 C 0.68134 0.63053 0.83285 0.0
C919 C 0.56891 0.55809 0.83916 0.0
C920 C 0.58699 0.56969 0.82408 0.0
C921 C 0.66199 0.61784 0.80578 0.0
C922 C 0.71868 0.65283 0.8027 0.0
C923 C 0.64313 0.60601 0.82082 0.0
C924 C 0.75614 0.67657 0.8148 0.0
C925 C 0.73759 0.66587 0.82975 0.0
H926 H 0.31558 0.06482 0.79909 0.0
H927 H 0.40583 -0.00734 0.78033 0.0
H928 H 0.42258 0.96913 0.80576 0.0
H929 H 0.41256 0.9701 0.83349 0.0
H930 H 0.31896 0.03928 0.85192 0.0
H931 H 0.30272 0.06279 0.82653 0.0
C932 C 0.33889 0.04394 0.80057 0.0
C933 C 0.35952 0.03072 0.78786 0.0
C934 C 0.34788 0.02996 0.8152 0.0
C935 C 0.38924 0.00315 0.78994 0.0
C936 C 0.39904 -0.01019 0.80449 0.0
C937 C 0.38866 -0.00969 0.83192 0.0
C938 C 0.36713 0.0029 0.84457 0.0
C939 C 0.37873 0.0032 0.81722 0.0
C940 C 0.3358 0.02875 0.84236 0.0
C941 C 0.32655 0.04242 0.82784 0.0
H942 H 0.01599 0.24728 0.52633 0.0
H943 H 0.84631 0.19547 0.51586 0.0
H944 H 0.86331 0.19039 0.48882 0.0
H945 H 0.93019 0.2136 0.46819 0.0
H946 H 0.09946 0.26323 0.47894 0.0
H947 H 0.07879 0.25513 0.50601 0.0
C948 C -0.01737 0.2337 0.51809 0.0
C949 C 0.93034 0.22236 0.52278 0.0
C950 C -0.00722 0.23091 0.50274 0.0
C951 C 0.88685 0.2043 0.51229 0.0
C952 C 0.89669 0.20178 0.4969 0.0
C953 C 0.96221 0.22171 0.47649 0.0
C954 C 0.01642 0.24005 0.4717 0.0
C955 C 0.95002 0.21697 0.49198 0.0
C956 C 0.05748 0.24936 0.48244 0.0
C957 C 0.0458 0.24505 0.49789 0.0
H958 H 0.7496 0.74412 0.46413 0.0
H959 H 0.63482 0.79731 0.47539 0.0
H960 H 0.65889 0.80026 0.5024 0.0
H961 H 0.70736 0.77974 0.52285 0.0
H962 H 0.82243 0.72733 0.51056 0.0
H963 H 0.80351 0.73238 0.48389 0.0
C964 C 0.73005 0.75671 0.47249 0.0
C965 C 0.68994 0.76963 0.46789 0.0
C966 C 0.74393 0.75814 0.4878 0.0
C967 C 0.66577 0.78703 0.47874 0.0
C968 C 0.67932 0.78842 0.49415 0.0
C969 C 0.72866 0.76998 0.51433 0.0
C970 C 0.76562 0.75233 0.51878 0.0
C971 C 0.71754 0.77285 0.49884 0.0
C972 C 0.79328 0.74038 0.50755 0.0
C973 C 0.78255 0.74323 0.49224 0.0
H974 H 0.31422 0.04568 0.4577 0.0
H975 H 0.22782 0.88855 0.48085 0.0
H976 H 0.25833 0.93493 0.50532 0.0
H977 H 0.30637 0.01985 0.52008 0.0
H978 H 0.38657 0.17763 0.49722 0.0
H979 H 0.3621 0.13116 0.47258 0.0
C980 C 0.30241 0.02158 0.46811 0.0
C981 C 0.26896 0.96376 0.46749 0.0
C982 C 0.31907 0.04859 0.48213 0.0
C983 C 0.25334 0.9331 0.48104 0.0
C984 C 0.2709 0.95957 0.49502 0.0
C985 C 0.31926 0.04413 0.5097 0.0
C986 C 0.34878 0.10207 0.51043 0.0
C987 C 0.30344 0.01724 0.49569 0.0
C988 C 0.36404 0.13297 0.49691 0.0
C989 C 0.34994 0.10643 0.48286 0.0
H990 H 0.44865 0.3297 0.05975 0.0
H991 H 0.45073 0.32488 0.10869 0.0
H992 H 0.39767 0.22402 0.10824 0.0
H993 H 0.35889 0.13765 0.09379 0.0
H994 H 0.3608 0.14358 0.04491 0.0
H995 H 0.40199 0.24371 0.04543 0.0
C996 C 0.43774 0.30658 0.07032 0.0
C997 C 0.45466 0.33452 0.08422 0.0
C998 C 0.40683 0.24891 0.06997 0.0
C999 C 0.43884 0.30414 0.09784 0.0
C1000 C 0.40822 0.24656 0.09759 0.0
C1001 C 0.36631 0.16079 0.08329 0.0
C1002 C 0.35653 0.1337 0.06933 0.0
C1003 C 0.39264 0.21851 0.08371 0.0
C1004 C 0.36754 0.1639 0.05576 0.0
C1005 C 0.39186 0.22109 0.05607 0.0
H1006 H 0.6057 0.06912 0.09147 0.0
H1007 H 0.57758 0.13706 0.05044 0.0
H1008 H 0.67652 0.19826 0.04749 0.0
H1009 H 0.76925 0.239 0.05782 0.0
H1010 H 0.79942 0.17645 0.0994 0.0
H1011 H 0.70126 0.10472 0.10059 0.0
C1012 C 0.62126 0.09727 0.08188 0.0
C1013 C 0.5843 0.09932 0.07136 0.0
C1014 C 0.67836 0.13265 0.08026 0.0
C1015 C 0.60507 0.13516 0.05882 0.0
C1016 C 0.66163 0.17002 0.05706 0.0
C1017 C 0.75443 0.20892 0.06699 0.0
C1018 C 0.7907 0.21303 0.07861 0.0
C1019 C 0.69835 0.16988 0.06788 0.0
C1020 C 0.77183 0.17366 0.09032 0.0
C1021 C 0.71576 0.13332 0.0911 0.0
H1022 H 0.71859 0.55114 0.10513 0.0
H1023 H 0.75089 0.59253 0.05773 0.0
H1024 H 0.81925 0.56307 0.05782 0.0
H1025 H 0.85744 0.51186 0.07028 0.0
H1026 H 0.82259 0.46565 0.11743 0.0
H1027 H 0.76726 0.51059 0.11866 0.0
C1028 C 0.74254 0.55584 0.09505 0.0
C1029 C 0.73093 0.57467 0.0815 0.0
C1030 C 0.77967 0.5363 0.09506 0.0
C1031 C 0.76043 0.57916 0.06831 0.0
C1032 C 0.79871 0.56152 0.06833 0.0
C1033 C 0.83791 0.51183 0.08086 0.0
C1034 C 0.84261 0.48428 0.09364 0.0
C1035 C 0.80653 0.5376 0.08143 0.0
C1036 C 0.81869 0.48595 0.10739 0.0
C1037 C 0.78724 0.51169 0.10809 0.0
H1038 H 0.33226 0.4378 0.8885 0.0
H1039 H 0.36414 0.48694 0.93559 0.0
H1040 H 0.266 0.44389 0.94022 0.0
H1041 H 0.17227 0.40184 0.93064 0.0
H1042 H 0.13684 0.35583 0.88363 0.0
H1043 H 0.23467 0.38599 0.87935 0.0
C1044 C 0.31764 0.43878 0.89977 0.0
C1045 C 0.35589 0.46666 0.91157 0.0
C1046 C 0.26042 0.41397 0.90244 0.0
C1047 C 0.33606 0.46679 0.92618 0.0
C1048 C 0.27974 0.44184 0.92891 0.0
C1049 C 0.18578 0.39713 0.91953 0.0
C1050 C 0.14788 0.37706 0.90746 0.0
C1051 C 0.24179 0.41656 0.91709 0.0
C1052 C 0.16543 0.37077 0.89313 0.0
C1053 C 0.22146 0.38885 0.89065 0.0
H1054 H 0.53702 0.88307 0.88831 0.0
H1055 H 0.37021 0.7586 0.89988 0.0
H1056 H 0.39961 0.69158 0.90422 0.0
H1057 H 0.47265 0.67143 0.90707 0.0
H1058 H 0.64149 0.79393 0.89662 0.0
H1059 H 0.61149 0.85966 0.88954 0.0
C1060 C 0.50719 0.84079 0.89138 0.0
C1061 C 0.45162 0.82511 0.89372 0.0
C1062 C 0.52489 0.80309 0.89441 0.0
C1063 C 0.41307 0.77092 0.89797 0.0
C1064 C 0.42993 0.73294 0.90057 0.0
C1065 C 0.50335 0.71267 0.90338 0.0
C1066 C 0.55948 0.7285 0.90278 0.0
C1067 C 0.48586 0.74922 0.89931 0.0
C1068 C 0.59816 0.78132 0.89743 0.0
C1069 C 0.58096 0.8186 0.89333 0.0
H1070 H 0.21766 0.79615 0.92787 0.0
H1071 H 0.18372 0.8202 0.88157 0.0
H1072 H 0.11902 0.72074 0.87905 0.0
H1073 H 0.08627 0.62631 0.88877 0.0
H1074 H 0.13147 0.60535 0.93435 0.0
H1075 H 0.17918 0.70416 0.93822 0.0
C1076 C 0.19471 0.77968 0.91737 0.0
C1077 C 0.20565 0.81482 0.90488 0.0
C1078 C 0.16155 0.7228 0.91569 0.0
C1079 C 0.17556 0.79368 0.89137 0.0
C1080 C 0.1396 0.73676 0.88984 0.0
C1081 C 0.10658 0.64342 0.89953 0.0
C1082 C 0.10626 0.60844 0.91112 0.0
C1083 C 0.13483 0.70076 0.90167 0.0
C1084 C 0.13199 0.63121 0.9251 0.0
C1085 C 0.15884 0.68775 0.92741 0.0
H1086 H 0.07202 0.64508 0.41281 0.0
H1087 H 0.19184 0.69329 0.44902 0.0
H1088 H 0.16026 0.59634 0.45456 0.0
H1089 H 0.10838 0.49979 0.4464 0.0
H1090 H -0.01225 0.45104 0.41047 0.0
H1091 H 0.008 0.54632 0.40782 0.0
C1092 C 0.0907 0.63404 0.42198 0.0
C1093 C 0.13502 0.67557 0.43025 0.0
C1094 C 0.07168 0.57845 0.42523 0.0
C1095 C 0.15815 0.66152 0.44241 0.0
C1096 C 0.14006 0.60631 0.44558 0.0
C1097 C 0.08502 0.50991 0.43845 0.0
C1098 C 0.04678 0.46924 0.42864 0.0
C1099 C 0.09805 0.56464 0.43676 0.0
C1100 C 0.01681 0.48203 0.41825 0.0
C1101 C 0.02912 0.53653 0.41657 0.0
H1102 H 0.47325 0.4919 0.42218 0.0
H1103 H 0.46637 0.63375 0.43706 0.0
H1104 H 0.36909 0.57559 0.44357 0.0
H1105 H 0.28309 0.48799 0.44014 0.0
H1106 H 0.2879 0.34489 0.42553 0.0
H1107 H 0.389 0.39927 0.424 0.0
C1108 C 0.45063 0.50932 0.42736 0.0
C1109 C 0.47583 0.56645 0.42907 0.0
C1110 C 0.39441 0.47565 0.43086 0.0
C1111 C 0.44692 0.58947 0.43569 0.0
C1112 C 0.39143 0.55644 0.4393 0.0
C1113 C 0.30667 0.46865 0.43707 0.0
C1114 C 0.27905 0.4134 0.43272 0.0
C1115 C 0.3642 0.50002 0.4362 0.0
C1116 C 0.30911 0.38782 0.42889 0.0
C1117 C 0.36667 0.41889 0.42791 0.0
H1118 H 0.53757 0.86505 0.42176 0.0
H1119 H 0.45649 0.74026 0.38726 0.0
H1120 H 0.3914 0.77135 0.38239 0.0
H1121 H 0.35238 0.82738 0.3894 0.0
H1122 H 0.42823 0.94903 0.42471 0.0
H1123 H 0.50216 0.92725 0.42737 0.0
C1124 C 0.50569 0.84474 0.41318 0.0
C1125 C 0.50132 0.79982 0.40508 0.0
C1126 C 0.46803 0.86264 0.41044 0.0
C1127 C 0.46043 0.77452 0.39379 0.0
C1128 C 0.42329 0.79237 0.39093 0.0
C1129 C 0.38557 0.84973 0.39754 0.0
C1130 C 0.38466 0.88897 0.40702 0.0
C1131 C 0.4261 0.83554 0.39938 0.0
C1132 C 0.42828 0.91856 0.41729 0.0
C1133 C 0.47002 0.90562 0.41894 0.0
H1134 H 0.85701 0.81869 0.26124 0.0
H1135 H 0.81548 0.71991 0.22083 0.0
H1136 H 0.91266 0.74468 0.21828 0.0
H1137 H 0.01074 0.80236 0.2264 0.0
H1138 H 0.04876 0.90373 0.2664 0.0
H1139 H 0.95145 0.87069 0.27004 0.0
C1140 C 0.86906 0.80202 0.25194 0.0
C1141 C 0.82964 0.76816 0.24114 0.0
C1142 C 0.92448 0.81783 0.25031 0.0
C1143 C 0.84535 0.74597 0.22931 0.0
C1144 C 0.90089 0.76069 0.22777 0.0
C1145 C -0.00236 0.81718 0.23589 0.0
C1146 C 0.0372 0.85598 0.246 0.0
C1147 C 0.94111 0.79803 0.23797 0.0
C1148 C 0.01948 0.87424 0.25836 0.0
C1149 C 0.96373 0.85523 0.26052 0.0
H1150 H 0.22916 0.09695 0.27005 0.0
H1151 H 0.29687 0.13964 0.22491 0.0
H1152 H 0.25847 0.20026 0.22174 0.0
H1153 H 0.19426 0.22978 0.23052 0.0
H1154 H 0.12061 0.17857 0.27495 0.0
H1155 H 0.17124 0.13085 0.27941 0.0
C1156 C 0.23647 0.1203 0.2596 0.0
C1157 C 0.26484 0.11307 0.24764 0.0
C1158 C 0.21149 0.15191 0.25752 0.0
C1159 C 0.27505 0.14446 0.2343 0.0
C1160 C 0.25228 0.17833 0.23238 0.0
C1161 C 0.18909 0.20795 0.24114 0.0
C1162 C 0.15291 0.20699 0.25226 0.0
C1163 C 0.21821 0.18019 0.24366 0.0
C1164 C 0.14755 0.17942 0.26609 0.0
C1165 C 0.17682 0.15245 0.26873 0.0
H1166 H 0.76035 -0.00879 0.25845 0.0
H1167 H 0.79485 -0.00174 0.21061 0.0
H1168 H 0.8481 0.09926 0.21165 0.0
H1169 H 0.89608 0.18371 0.22712 0.0
H1170 H 0.86607 0.17428 0.27518 0.0
H1171 H 0.79784 0.07596 0.27308 0.0
C1172 C 0.77931 0.01482 0.24822 0.0
C1173 C 0.77514 0.98749 0.23456 0.0
C1174 C 0.80982 0.07238 0.24894 0.0
C1175 C 0.79836 0.01852 0.2213 0.0
C1176 C 0.82862 0.07616 0.22189 0.0
C1177 C 0.87253 0.16039 0.23695 0.0
C1178 C 0.88489 0.1857 0.25123 0.0
C1179 C 0.83596 0.10338 0.23575 0.0
C1180 C 0.85597 0.15538 0.26406 0.0
C1181 C 0.81782 0.09915 0.26288 0.0
H1182 H 0.81239 0.86433 0.72239 0.0
H1183 H 0.71135 0.8179 0.76251 0.0
H1184 H 0.73505 0.91399 0.76587 0.0
H1185 H 0.79313 0.01277 0.75879 0.0
H1186 H 0.89625 0.0563 0.71898 0.0
H1187 H 0.86358 0.95981 0.71429 0.0
C1188 C 0.79485 0.875 0.73177 0.0
C1189 C 0.76074 0.83431 0.74228 0.0
C1190 C 0.80996 0.93005 0.73387 0.0
C1191 C 0.73764 0.84856 0.75424 0.0
C1192 C 0.75173 0.90357 0.75625 0.0
C1193 C 0.80829 0.00107 0.74908 0.0
C1194 C 0.84776 0.04202 0.7394 0.0
C1195 C 0.78937 0.94498 0.7464 0.0
C1196 C 0.86636 0.02599 0.72674 0.0
C1197 C 0.84758 0.97067 0.72398 0.0
H1198 H 0.18638 0.90009 0.75322 0.0
H1199 H 0.16498 0.88812 0.70467 0.0
H1200 H 0.06603 0.82305 0.70766 0.0
H1201 H -0.01478 0.78264 0.72389 0.0
H1202 H 0.0042 0.80023 0.77255 0.0
H1203 H 0.10497 0.85088 0.76978 0.0
C1204 C 0.16019 0.88122 0.74336 0.0
C1205 C 0.18238 0.89774 0.72875 0.0
C1206 C 0.10302 0.84681 0.74521 0.0
C1207 C 0.14841 0.87486 0.71597 0.0
C1208 C 0.09191 0.83853 0.71771 0.0
C1209 C 0.01125 0.79748 0.73394 0.0
C1210 C -0.01265 0.78904 0.74839 0.0
C1211 C 0.0686 0.82653 0.73224 0.0
C1212 C 0.0217 0.80712 0.76129 0.0
C1213 C 0.07921 0.83578 0.7597 0.0
H1214 H 0.21851 0.17615 0.76327 0.0
H1215 H 0.2012 0.15707 0.71451 0.0
H1216 H 0.15453 0.20947 0.71359 0.0
H1217 H 0.11156 0.25308 0.72643 0.0
H1218 H 0.11671 0.26421 0.77519 0.0
H1219 H 0.17805 0.22547 0.7763 0.0
C1220 C 0.20436 0.18341 0.75247 0.0
C1221 C 0.21258 0.16184 0.73903 0.0
C1222 C 0.17654 0.21318 0.75199 0.0
C1223 C 0.19457 0.17213 0.72509 0.0
C1224 C 0.16836 0.20266 0.72449 0.0
C1225 C 0.12714 0.24812 0.7373 0.0
C1226 C 0.1096 0.26079 0.7507 0.0
C1227 C 0.15845 0.22252 0.73785 0.0
C1228 C 0.13023 0.25499 0.76472 0.0
C1229 C 0.16431 0.23189 0.76534 0.0
H1230 H 0.52267 0.11939 0.56281 0.0
H1231 H 0.54577 0.23898 0.59682 0.0
H1232 H 0.63841 0.25647 0.60216 0.0
H1233 H 0.71554 0.24457 0.59559 0.0
H1234 H 0.69552 0.12844 0.56086 0.0
H1235 H 0.59875 0.10229 0.55756 0.0
C1236 C 0.54777 0.14866 0.57152 0.0
C1237 C 0.52775 0.17835 0.57925 0.0
C1238 C 0.60161 0.1594 0.57437 0.0
C1239 C 0.56061 0.21618 0.59053 0.0
C1240 C 0.61357 0.22619 0.59363 0.0
C1241 C 0.68993 0.21299 0.58743 0.0
C1242 C 0.71288 0.18902 0.57837 0.0
C1243 C 0.63493 0.19908 0.58536 0.0
C1244 C 0.67896 0.14797 0.5679 0.0
C1245 C 0.62365 0.13303 0.56598 0.0
H1246 H 0.8155 0.3799 0.56836 0.0
H1247 H 0.97814 0.49251 0.55089 0.0
H1248 H 0.95102 0.56193 0.5463 0.0
H1249 H 0.88595 0.59423 0.55138 0.0
H1250 H 0.72752 0.4829 0.57152 0.0
H1251 H 0.74788 0.40828 0.57086 0.0
C1252 C 0.84501 0.4196 0.56345 0.0
C1253 C 0.89916 0.43223 0.56039 0.0
C1254 C 0.82983 0.45914 0.56143 0.0
C1255 C 0.93646 0.48263 0.55352 0.0
C1256 C 0.92101 0.52213 0.55098 0.0
C1257 C 0.85547 0.55323 0.55528 0.0
C1258 C 0.80567 0.54372 0.56167 0.0
C1259 C 0.86854 0.51147 0.5555 0.0
C1260 C 0.76637 0.49086 0.56675 0.0
C1261 C 0.77801 0.44844 0.56639 0.0
H1262 H 0.44584 0.39066 0.58136 0.0
H1263 H 0.49022 0.39129 0.53456 0.0
H1264 H 0.54899 0.49188 0.53521 0.0
H1265 H 0.6007 0.57574 0.5506 0.0
H1266 H 0.5639 0.5712 0.5981 0.0
H1267 H 0.48731 0.47626 0.59561 0.0
C1268 C 0.46794 0.41277 0.57124 0.0
C1269 C 0.46518 0.38359 0.55807 0.0
C1270 C 0.50244 0.46997 0.57183 0.0
C1271 C 0.49257 0.41287 0.54491 0.0
C1272 C 0.52608 0.4703 0.54529 0.0
C1273 C 0.57403 0.55457 0.56018 0.0
C1274 C 0.58696 0.57991 0.57447 0.0
C1275 C 0.53305 0.4989 0.55887 0.0
C1276 C 0.5537 0.55227 0.58698 0.0
C1277 C 0.51068 0.49786 0.58559 0.0
loop_
_geom_bond_atom_site_label_1
_geom_bond_atom_site_label_2
_geom_bond_distance
_geom_bond_site_symmetry_2
_ccdc_geom_bond_type
O0 Zn1 1.953 . S
O0 C16 1.225 . S
Zn1 O0 1.953 . S
Zn1 O2 1.949 . S
Zn1 O8 1.919 . S
Zn1 O13 1.924 1_545 S
O2 Zn1 1.949 . S
O2 Zn3 1.923 . S
O2 Zn4 1.950 . S
O2 Zn5 1.945 1_545 S
Zn3 O2 1.923 . S
Zn3 O6 1.933 1_545 S
Zn3 O9 1.941 . S
Zn3 O10 1.965 . S
Zn4 O2 1.950 . S
Zn4 O11 1.938 . S
Zn4 O12 1.906 . S
Zn4 O22 1.953 . S
Zn5 O2 1.945 1_565 S
Zn5 O7 1.932 . S
Zn5 O14 1.977 . S
Zn5 O15 1.910 . S
O6 Zn3 1.933 1_565 S
O6 C17 1.226 . S
O7 Zn5 1.932 . S
O7 C17 1.307 . S
O8 Zn1 1.919 . S
O8 C19 1.253 . S
O9 Zn3 1.941 . S
O9 C19 1.284 . S
O10 Zn3 1.965 . S
O10 C18 1.303 . S
O11 Zn4 1.938 . S
O11 C18 1.247 . S
O12 Zn4 1.906 . S
O12 C20 1.304 1_545 S
O13 Zn1 1.924 1_565 S
O13 C21 1.311 . S
O14 Zn5 1.977 . S
O14 C20 1.272 . S
O15 Zn5 1.910 . S
O15 C21 1.231 . S
C16 O0 1.225 . S
C16 O22 1.298 . S
C17 O6 1.226 . S
C17 O7 1.307 . S
C18 O10 1.303 . S
C18 O11 1.247 . S
C19 O8 1.253 . S
C19 O9 1.284 . S
C20 O12 1.304 1_565 S
C20 O14 1.272 . S
C21 O13 1.311 . S
C21 O15 1.231 . S
O22 Zn4 1.953 . S
O22 C16 1.298 . S
O23 Zn24 1.953 1_655 S
O23 C39 1.225 . S
Zn24 O23 1.953 1_455 S
Zn24 O25 1.949 . S
Zn24 O31 1.919 . S
Zn24 O36 1.924 . S
O25 Zn24 1.949 . S
O25 Zn26 1.923 . S
O25 Zn27 1.950 1_455 S
O25 Zn28 1.945 . S
Zn26 O25 1.923 . S
Zn26 O29 1.933 . S
Zn26 O32 1.941 . S
Zn26 O33 1.965 1_455 S
Zn27 O25 1.950 1_655 S
Zn27 O34 1.938 . S
Zn27 O35 1.906 . S
Zn27 O45 1.953 . S
Zn28 O25 1.945 . S
Zn28 O30 1.932 . S
Zn28 O37 1.977 . S
Zn28 O38 1.910 . S
O29 Zn26 1.933 . S
O29 C40 1.226 . S
O30 Zn28 1.932 . S
O30 C40 1.307 . S
O31 Zn24 1.919 . S
O31 C42 1.253 . S
O32 Zn26 1.941 . S
O32 C42 1.283 . S
O33 Zn26 1.965 1_655 S
O33 C41 1.303 . S
O34 Zn27 1.938 . S
O34 C41 1.247 . S
O35 Zn27 1.906 . S
O35 C43 1.304 1_655 S
O36 Zn24 1.924 . S
O36 C44 1.311 . S
O37 Zn28 1.977 . S
O37 C43 1.272 . S
O38 Zn28 1.910 . S
O38 C44 1.231 . S
C39 O23 1.225 . S
C39 O45 1.298 . S
C40 O29 1.226 . S
C40 O30 1.307 . S
C41 O33 1.303 . S
C41 O34 1.247 . S
C42 O31 1.253 . S
C42 O32 1.283 . S
C43 O35 1.304 1_455 S
C43 O37 1.272 . S
C44 O36 1.311 . S
C44 O38 1.231 . S
O45 Zn27 1.953 . S
O45 C39 1.298 . S
O46 Zn47 1.953 . S
O46 C62 1.225 . S
Zn47 O46 1.953 . S
Zn47 O48 1.949 . S
Zn47 O54 1.919 . S
Zn47 O59 1.924 . S
O48 Zn47 1.949 . S
O48 Zn49 1.923 . S
O48 Zn50 1.950 . S
O48 Zn51 1.945 . S
Zn49 O48 1.923 . S
Zn49 O52 1.933 . S
Zn49 O55 1.941 . S
Zn49 O56 1.965 . S
Zn50 O48 1.950 . S
Zn50 O57 1.938 . S
Zn50 O58 1.906 . S
Zn50 O68 1.953 . S
Zn51 O48 1.945 . S
Zn51 O53 1.932 . S
Zn51 O60 1.977 . S
Zn51 O61 1.910 . S
O52 Zn49 1.933 . S
O52 C63 1.226 . S
O53 Zn51 1.932 . S
O53 C63 1.307 . S
O54 Zn47 1.919 . S
O54 C65 1.253 . S
O55 Zn49 1.941 . S
O55 C65 1.283 . S
O56 Zn49 1.965 . S
O56 C64 1.303 . S
O57 Zn50 1.938 . S
O57 C64 1.247 . S
O58 Zn50 1.906 . S
O58 C66 1.304 . S
O59 Zn47 1.924 . S
O59 C67 1.311 . S
O60 Zn51 1.977 . S
O60 C66 1.272 . S
O61 Zn51 1.910 . S
O61 C67 1.231 . S
C62 O46 1.225 . S
C62 O68 1.298 . S
C63 O52 1.226 . S
C63 O53 1.307 . S
C64 O56 1.303 . S
C64 O57 1.247 . S
C65 O54 1.253 . S
C65 O55 1.283 . S
C66 O58 1.304 . S
C66 O60 1.272 . S
C67 O59 1.311 . S
C67 O61 1.231 . S
O68 Zn50 1.953 . S
O68 C62 1.298 . S
O69 Zn70 1.953 . S
O69 C85 1.225 . S
Zn70 O69 1.953 . S
Zn70 O71 1.949 . S
Zn70 O77 1.919 . S
Zn70 O82 1.924 1_455 S
O71 Zn70 1.949 . S
O71 Zn72 1.923 . S
O71 Zn73 1.950 . S
O71 Zn74 1.945 1_455 S
Zn72 O71 1.923 . S
Zn72 O75 1.933 1_455 S
Zn72 O78 1.941 . S
Zn72 O79 1.965 . S
Zn73 O71 1.950 . S
Zn73 O80 1.938 . S
Zn73 O81 1.906 . S
Zn73 O91 1.953 . S
Zn74 O71 1.945 1_655 S
Zn74 O76 1.932 . S
Zn74 O83 1.977 . S
Zn74 O84 1.910 . S
O75 Zn72 1.933 1_655 S
O75 C86 1.226 . S
O76 Zn74 1.932 . S
O76 C86 1.307 . S
O77 Zn70 1.919 . S
O77 C88 1.253 . S
O78 Zn72 1.941 . S
O78 C88 1.284 . S
O79 Zn72 1.965 . S
O79 C87 1.303 . S
O80 Zn73 1.938 . S
O80 C87 1.247 . S
O81 Zn73 1.906 . S
O81 C89 1.304 1_455 S
O82 Zn70 1.924 1_655 S
O82 C90 1.311 . S
O83 Zn74 1.977 . S
O83 C89 1.272 . S
O84 Zn74 1.910 . S
O84 C90 1.231 . S
C85 O69 1.225 . S
C85 O91 1.298 . S
C86 O75 1.226 . S
C86 O76 1.307 . S
C87 O79 1.303 . S
C87 O80 1.247 . S
C88 O77 1.253 . S
C88 O78 1.284 . S
C89 O81 1.304 1_655 S
C89 O83 1.272 . S
C90 O82 1.311 . S
C90 O84 1.231 . S
O91 Zn73 1.953 . S
O91 C85 1.298 . S
O92 Zn93 1.953 . S
O92 C108 1.225 . S
Zn93 O92 1.953 . S
Zn93 O94 1.949 . S
Zn93 O100 1.919 . S
Zn93 O105 1.924 . S
O94 Zn93 1.949 . S
O94 Zn95 1.923 . S
O94 Zn96 1.950 . S
O94 Zn97 1.945 . S
Zn95 O94 1.923 . S
Zn95 O98 1.933 . S
Zn95 O101 1.941 . S
Zn95 O102 1.965 . S
Zn96 O94 1.950 . S
Zn96 O103 1.938 . S
Zn96 O104 1.906 . S
Zn96 O114 1.953 . S
Zn97 O94 1.945 . S
Zn97 O99 1.932 . S
Zn97 O106 1.977 . S
Zn97 O107 1.910 . S
O98 Zn95 1.933 . S
O98 C109 1.226 . S
O99 Zn97 1.932 . S
O99 C109 1.307 . S
O100 Zn93 1.919 . S
O100 C111 1.253 . S
O101 Zn95 1.941 . S
O101 C111 1.283 . S
O102 Zn95 1.965 . S
O102 C110 1.303 . S
O103 Zn96 1.938 . S
O103 C110 1.247 . S
O104 Zn96 1.906 . S
O104 C112 1.304 . S
O105 Zn93 1.924 . S
O105 C113 1.311 . S
O106 Zn97 1.977 . S
O106 C112 1.272 . S
O107 Zn97 1.910 . S
O107 C113 1.231 . S
C108 O92 1.225 . S
C108 O114 1.298 . S
C109 O98 1.226 . S
C109 O99 1.307 . S
C110 O102 1.303 . S
C110 O103 1.247 . S
C111 O100 1.253 . S
C111 O101 1.283 . S
C112 O104 1.304 . S
C112 O106 1.272 . S
C113 O105 1.311 . S
C113 O107 1.231 . S
O114 Zn96 1.953 . S
O114 C108 1.298 . S
O115 Zn116 1.953 1_565 S
O115 C131 1.225 . S
Zn116 O115 1.953 1_545 S
Zn116 O117 1.949 . S
Zn116 O123 1.919 . S
Zn116 O128 1.924 . S
O117 Zn116 1.949 . S
O117 Zn118 1.923 . S
O117 Zn119 1.950 1_545 S
O117 Zn120 1.945 . S
Zn118 O117 1.923 . S
Zn118 O121 1.933 . S
Zn118 O124 1.941 . S
Zn118 O125 1.965 1_545 S
Zn119 O117 1.950 1_565 S
Zn119 O126 1.938 . S
Zn119 O127 1.906 . S
Zn119 O137 1.953 . S
Zn120 O117 1.945 . S
Zn120 O122 1.932 . S
Zn120 O129 1.977 . S
Zn120 O130 1.910 . S
O121 Zn118 1.933 . S
O121 C132 1.226 . S
O122 Zn120 1.932 . S
O122 C132 1.307 . S
O123 Zn116 1.919 . S
O123 C134 1.253 . S
O124 Zn118 1.941 . S
O124 C134 1.283 . S
O125 Zn118 1.965 1_565 S
O125 C133 1.303 . S
O126 Zn119 1.938 . S
O126 C133 1.247 . S
O127 Zn119 1.906 . S
O127 C135 1.304 1_565 S
O128 Zn116 1.924 . S
O128 C136 1.311 . S
O129 Zn120 1.977 . S
O129 C135 1.272 . S
O130 Zn120 1.910 . S
O130 C136 1.231 . S
C131 O115 1.225 . S
C131 O137 1.298 . S
C132 O121 1.226 . S
C132 O122 1.307 . S
C133 O125 1.303 . S
C133 O126 1.247 . S
C134 O123 1.253 . S
C134 O124 1.283 . S
C135 O127 1.304 1_545 S
C135 O129 1.272 . S
C136 O128 1.311 . S
C136 O130 1.231 . S
O137 Zn119 1.953 . S
O137 C131 1.298 . S
O138 Zn139 1.953 . S
O138 C154 1.225 . S
Zn139 O138 1.953 . S
Zn139 O140 1.949 . S
Zn139 O146 1.919 . S
Zn139 O151 1.924 . S
O140 Zn139 1.949 . S
O140 Zn141 1.923 . S
O140 Zn142 1.950 . S
O140 Zn143 1.945 . S
Zn141 O140 1.923 . S
Zn141 O144 1.933 1_455 S
Zn141 O147 1.941 . S
Zn141 O148 1.965 . S
Zn142 O140 1.950 . S
Zn142 O149 1.938 . S
Zn142 O150 1.906 . S
Zn142 O160 1.953 . S
Zn143 O140 1.945 . S
Zn143 O145 1.932 . S
Zn143 O152 1.977 . S
Zn143 O153 1.910 . S
O144 Zn141 1.933 1_655 S
O144 C155 1.226 . S
O145 Zn143 1.932 . S
O145 C155 1.307 1_455 S
O146 Zn139 1.919 . S
O146 C157 1.253 . S
O147 Zn141 1.941 . S
O147 C157 1.283 . S
O148 Zn141 1.965 . S
O148 C156 1.303 . S
O149 Zn142 1.938 . S
O149 C156 1.247 . S
O150 Zn142 1.906 . S
O150 C158 1.304 . S
O151 Zn139 1.924 . S
O151 C159 1.311 . S
O152 Zn143 1.977 . S
O152 C158 1.272 . S
O153 Zn143 1.910 . S
O153 C159 1.231 . S
C154 O138 1.225 . S
C154 O160 1.298 . S
C155 O144 1.226 . S
C155 O145 1.307 1_655 S
C156 O148 1.303 . S
C156 O149 1.247 . S
C157 O146 1.253 . S
C157 O147 1.283 . S
C158 O150 1.304 . S
C158 O152 1.272 . S
C159 O151 1.311 . S
C159 O153 1.231 . S
O160 Zn142 1.953 . S
O160 C154 1.298 . S
O161 Zn162 1.953 . S
O161 C177 1.225 . S
Zn162 O161 1.953 . S
Zn162 O163 1.949 . S
Zn162 O169 1.919 . S
Zn162 O174 1.924 . S
O163 Zn162 1.949 . S
O163 Zn164 1.923 . S
O163 Zn165 1.950 . S
O163 Zn166 1.945 . S
Zn164 O163 1.923 . S
Zn164 O167 1.933 . S
Zn164 O170 1.941 . S
Zn164 O171 1.965 . S
Zn165 O163 1.950 . S
Zn165 O172 1.938 . S
Zn165 O173 1.906 . S
Zn165 O183 1.953 . S
Zn166 O163 1.945 . S
Zn166 O168 1.932 . S
Zn166 O175 1.977 . S
Zn166 O176 1.910 . S
O167 Zn164 1.933 . S
O167 C178 1.226 . S
O168 Zn166 1.932 . S
O168 C178 1.307 . S
O169 Zn162 1.919 . S
O169 C180 1.253 . S
O170 Zn164 1.941 . S
O170 C180 1.283 . S
O171 Zn164 1.965 . S
O171 C179 1.303 . S
O172 Zn165 1.938 . S
O172 C179 1.247 . S
O173 Zn165 1.906 . S
O173 C181 1.304 . S
O174 Zn162 1.924 . S
O174 C182 1.311 . S
O175 Zn166 1.977 . S
O175 C181 1.272 . S
O176 Zn166 1.910 . S
O176 C182 1.231 . S
C177 O161 1.225 . S
C177 O183 1.298 . S
C178 O167 1.226 . S
C178 O168 1.307 . S
C179 O171 1.303 . S
C179 O172 1.247 . S
C180 O169 1.253 . S
C180 O170 1.283 . S
C181 O173 1.304 . S
C181 O175 1.272 . S
C182 O174 1.311 . S
C182 O176 1.231 . S
O183 Zn165 1.953 . S
O183 C177 1.298 . S
O184 Zn185 1.953 . S
O184 C200 1.225 . S
Zn185 O184 1.953 . S
Zn185 O186 1.949 . S
Zn185 O192 1.919 . S
Zn185 O197 1.924 . S
O186 Zn185 1.949 . S
O186 Zn187 1.923 . S
O186 Zn188 1.950 . S
O186 Zn189 1.945 . S
Zn187 O186 1.923 . S
Zn187 O190 1.933 1_565 S
Zn187 O193 1.941 . S
Zn187 O194 1.965 . S
Zn188 O186 1.950 . S
Zn188 O195 1.938 . S
Zn188 O196 1.906 . S
Zn188 O206 1.953 . S
Zn189 O186 1.945 . S
Zn189 O191 1.932 1_565 S
Zn189 O198 1.977 . S
Zn189 O199 1.910 . S
O190 Zn187 1.933 1_545 S
O190 C201 1.226 . S
O191 Zn189 1.932 1_545 S
O191 C201 1.307 . S
O192 Zn185 1.919 . S
O192 C203 1.253 . S
O193 Zn187 1.941 . S
O193 C203 1.283 . S
O194 Zn187 1.965 . S
O194 C202 1.303 . S
O195 Zn188 1.938 . S
O195 C202 1.247 . S
O196 Zn188 1.906 . S
O196 C204 1.304 . S
O197 Zn185 1.924 . S
O197 C205 1.311 . S
O198 Zn189 1.977 . S
O198 C204 1.272 . S
O199 Zn189 1.910 . S
O199 C205 1.231 . S
C200 O184 1.225 . S
C200 O206 1.298 . S
C201 O190 1.226 . S
C201 O191 1.307 . S
C202 O194 1.303 . S
C202 O195 1.247 . S
C203 O192 1.253 . S
C203 O193 1.283 . S
C204 O196 1.304 . S
C204 O198 1.272 . S
C205 O197 1.311 . S
C205 O199 1.231 . S
O206 Zn188 1.953 . S
O206 C200 1.298 . S
O207 Zn208 1.953 . S
O207 C223 1.225 . S
Zn208 O207 1.953 . S
Zn208 O209 1.949 . S
Zn208 O215 1.919 . S
Zn208 O220 1.924 . S
O209 Zn208 1.949 . S
O209 Zn210 1.923 . S
O209 Zn211 1.950 . S
O209 Zn212 1.945 . S
Zn210 O209 1.923 . S
Zn210 O213 1.933 . S
Zn210 O216 1.941 . S
Zn210 O217 1.965 . S
Zn211 O209 1.950 . S
Zn211 O218 1.938 . S
Zn211 O219 1.906 . S
Zn211 O229 1.953 . S
Zn212 O209 1.945 . S
Zn212 O214 1.932 . S
Zn212 O221 1.977 . S
Zn212 O222 1.910 . S
O213 Zn210 1.933 . S
O213 C224 1.226 . S
O214 Zn212 1.932 . S
O214 C224 1.307 . S
O215 Zn208 1.919 . S
O215 C226 1.253 . S
O216 Zn210 1.941 . S
O216 C226 1.283 . S
O217 Zn210 1.965 . S
O217 C225 1.303 . S
O218 Zn211 1.938 . S
O218 C225 1.247 . S
O219 Zn211 1.906 . S
O219 C227 1.304 . S
O220 Zn208 1.924 . S
O220 C228 1.311 . S
O221 Zn212 1.977 . S
O221 C227 1.272 . S
O222 Zn212 1.910 . S
O222 C228 1.231 . S
C223 O207 1.225 . S
C223 O229 1.298 . S
C224 O213 1.226 . S
C224 O214 1.307 . S
C225 O217 1.303 . S
C225 O218 1.247 . S
C226 O215 1.253 . S
C226 O216 1.283 . S
C227 O219 1.304 . S
C227 O221 1.272 . S
C228 O220 1.311 . S
C228 O222 1.231 . S
O229 Zn211 1.953 . S
O229 C223 1.298 . S
O230 Zn231 1.953 . S
O230 C246 1.225 . S
Zn231 O230 1.953 . S
Zn231 O232 1.949 . S
Zn231 O238 1.919 . S
Zn231 O243 1.924 . S
O232 Zn231 1.949 . S
O232 Zn233 1.923 . S
O232 Zn234 1.950 . S
O232 Zn235 1.945 . S
Zn233 O232 1.923 . S
Zn233 O236 1.933 . S
Zn233 O239 1.941 . S
Zn233 O240 1.965 1_565 S
Zn234 O232 1.950 . S
Zn234 O241 1.938 . S
Zn234 O242 1.906 . S
Zn234 O252 1.953 . S
Zn235 O232 1.945 . S
Zn235 O237 1.932 . S
Zn235 O244 1.977 . S
Zn235 O245 1.910 . S
O236 Zn233 1.933 . S
O236 C247 1.226 . S
O237 Zn235 1.932 . S
O237 C247 1.307 . S
O238 Zn231 1.919 . S
O238 C249 1.253 . S
O239 Zn233 1.941 . S
O239 C249 1.283 . S
O240 Zn233 1.965 1_545 S
O240 C248 1.303 . S
O241 Zn234 1.938 . S
O241 C248 1.247 1_565 S
O242 Zn234 1.906 . S
O242 C250 1.304 . S
O243 Zn231 1.924 . S
O243 C251 1.311 . S
O244 Zn235 1.977 . S
O244 C250 1.272 . S
O245 Zn235 1.910 . S
O245 C251 1.231 . S
C246 O230 1.225 . S
C246 O252 1.298 . S
C247 O236 1.226 . S
C247 O237 1.307 . S
C248 O240 1.303 . S
C248 O241 1.247 1_545 S
C249 O238 1.253 . S
C249 O239 1.283 . S
C250 O242 1.304 . S
C250 O244 1.272 . S
C251 O243 1.311 . S
C251 O245 1.231 . S
O252 Zn234 1.953 . S
O252 C246 1.298 . S
O253 Zn254 1.953 . S
O253 C269 1.225 . S
Zn254 O253 1.953 . S
Zn254 O255 1.949 . S
Zn254 O261 1.919 . S
Zn254 O266 1.924 . S
O255 Zn254 1.949 . S
O255 Zn256 1.923 . S
O255 Zn257 1.950 . S
O255 Zn258 1.945 . S
Zn256 O255 1.923 . S
Zn256 O259 1.933 . S
Zn256 O262 1.941 . S
Zn256 O263 1.965 1_455 S
Zn257 O255 1.950 . S
Zn257 O264 1.938 . S
Zn257 O265 1.906 . S
Zn257 O275 1.953 . S
Zn258 O255 1.945 . S
Zn258 O260 1.932 . S
Zn258 O267 1.977 . S
Zn258 O268 1.910 . S
O259 Zn256 1.933 . S
O259 C270 1.226 . S
O260 Zn258 1.932 . S
O260 C270 1.307 . S
O261 Zn254 1.919 . S
O261 C272 1.253 . S
O262 Zn256 1.941 . S
O262 C272 1.283 . S
O263 Zn256 1.965 1_655 S
O263 C271 1.303 . S
O264 Zn257 1.938 . S
O264 C271 1.247 1_455 S
O265 Zn257 1.906 . S
O265 C273 1.304 . S
O266 Zn254 1.924 . S
O266 C274 1.311 . S
O267 Zn258 1.977 . S
O267 C273 1.272 . S
O268 Zn258 1.910 . S
O268 C274 1.231 . S
C269 O253 1.225 . S
C269 O275 1.298 . S
C270 O259 1.226 . S
C270 O260 1.307 . S
C271 O263 1.303 . S
C271 O264 1.247 1_655 S
C272 O261 1.253 . S
C272 O262 1.283 . S
C273 O265 1.304 . S
C273 O267 1.272 . S
C274 O266 1.311 . S
C274 O268 1.231 . S
O275 Zn257 1.953 . S
O275 C269 1.298 . S
O276 Zn277 1.953 . S
O276 C292 1.225 . S
Zn277 O276 1.953 . S
Zn277 O278 1.949 . S
Zn277 O284 1.919 . S
Zn277 O289 1.924 . S
O278 Zn277 1.949 . S
O278 Zn279 1.923 . S
O278 Zn280 1.950 . S
O278 Zn281 1.945 . S
Zn279 O278 1.923 . S
Zn279 O282 1.933 . S
Zn279 O285 1.941 . S
Zn279 O286 1.965 . S
Zn280 O278 1.950 . S
Zn280 O287 1.938 . S
Zn280 O288 1.906 . S
Zn280 O298 1.953 . S
Zn281 O278 1.945 . S
Zn281 O283 1.932 . S
Zn281 O290 1.977 . S
Zn281 O291 1.910 . S
O282 Zn279 1.933 . S
O282 C293 1.226 . S
O283 Zn281 1.932 . S
O283 C293 1.307 . S
O284 Zn277 1.919 . S
O284 C295 1.253 . S
O285 Zn279 1.941 . S
O285 C295 1.283 . S
O286 Zn279 1.965 . S
O286 C294 1.303 . S
O287 Zn280 1.938 . S
O287 C294 1.247 . S
O288 Zn280 1.906 . S
O288 C296 1.304 . S
O289 Zn277 1.924 . S
O289 C297 1.311 . S
O290 Zn281 1.977 . S
O290 C296 1.272 . S
O291 Zn281 1.910 . S
O291 C297 1.231 . S
C292 O276 1.225 . S
C292 O298 1.298 . S
C293 O282 1.226 . S
C293 O283 1.307 . S
C294 O286 1.303 . S
C294 O287 1.247 . S
C295 O284 1.253 . S
C295 O285 1.283 . S
C296 O288 1.304 . S
C296 O290 1.272 . S
C297 O289 1.311 . S
C297 O291 1.231 . S
O298 Zn280 1.953 . S
O298 C292 1.298 . S
O299 Zn300 1.953 . S
O299 C315 1.225 . S
Zn300 O299 1.953 . S
Zn300 O301 1.949 . S
Zn300 O307 1.919 . S
Zn300 O312 1.924 . S
O301 Zn300 1.949 . S
O301 Zn302 1.923 . S
O301 Zn303 1.950 . S
O301 Zn304 1.945 . S
Zn302 O301 1.923 . S
Zn302 O305 1.933 . S
Zn302 O308 1.941 . S
Zn302 O309 1.965 1_545 S
Zn303 O301 1.950 . S
Zn303 O310 1.938 . S
Zn303 O311 1.906 . S
Zn303 O321 1.953 . S
Zn304 O301 1.945 . S
Zn304 O306 1.932 . S
Zn304 O313 1.977 . S
Zn304 O314 1.910 . S
O305 Zn302 1.933 . S
O305 C316 1.226 . S
O306 Zn304 1.932 . S
O306 C316 1.307 . S
O307 Zn300 1.919 . S
O307 C318 1.253 . S
O308 Zn302 1.941 . S
O308 C318 1.283 . S
O309 Zn302 1.965 1_565 S
O309 C317 1.303 . S
O310 Zn303 1.938 . S
O310 C317 1.247 1_545 S
O311 Zn303 1.906 . S
O311 C319 1.304 . S
O312 Zn300 1.924 . S
O312 C320 1.311 . S
O313 Zn304 1.977 . S
O313 C319 1.272 . S
O314 Zn304 1.910 . S
O314 C320 1.231 . S
C315 O299 1.225 . S
C315 O321 1.298 . S
C316 O305 1.226 . S
C316 O306 1.307 . S
C317 O309 1.303 . S
C317 O310 1.247 1_565 S
C318 O307 1.253 . S
C318 O308 1.283 . S
C319 O311 1.304 . S
C319 O313 1.272 . S
C320 O312 1.311 . S
C320 O314 1.231 . S
O321 Zn303 1.953 . S
O321 C315 1.298 . S
O322 Zn323 1.953 . S
O322 C338 1.225 . S
Zn323 O322 1.953 . S
Zn323 O324 1.949 . S
Zn323 O330 1.919 . S
Zn323 O335 1.924 . S
O324 Zn323 1.949 . S
O324 Zn325 1.923 . S
O324 Zn326 1.950 . S
O324 Zn327 1.945 . S
Zn325 O324 1.923 . S
Zn325 O328 1.933 . S
Zn325 O331 1.941 . S
Zn325 O332 1.965 1_655 S
Zn326 O324 1.950 . S
Zn326 O333 1.938 . S
Zn326 O334 1.906 . S
Zn326 O344 1.953 . S
Zn327 O324 1.945 . S
Zn327 O329 1.932 . S
Zn327 O336 1.977 . S
Zn327 O337 1.910 . S
O328 Zn325 1.933 . S
O328 C339 1.226 . S
O329 Zn327 1.932 . S
O329 C339 1.307 . S
O330 Zn323 1.919 . S
O330 C341 1.253 . S
O331 Zn325 1.941 . S
O331 C341 1.283 . S
O332 Zn325 1.965 1_455 S
O332 C340 1.303 . S
O333 Zn326 1.938 . S
O333 C340 1.247 1_655 S
O334 Zn326 1.906 . S
O334 C342 1.304 . S
O335 Zn323 1.924 . S
O335 C343 1.311 . S
O336 Zn327 1.977 . S
O336 C342 1.272 . S
O337 Zn327 1.910 . S
O337 C343 1.231 . S
C338 O322 1.225 . S
C338 O344 1.298 . S
C339 O328 1.226 . S
C339 O329 1.307 . S
C340 O332 1.303 . S
C340 O333 1.247 1_455 S
C341 O330 1.253 . S
C341 O331 1.283 . S
C342 O334 1.304 . S
C342 O336 1.272 . S
C343 O335 1.311 . S
C343 O337 1.231 . S
O344 Zn326 1.953 . S
O344 C338 1.298 . S
O345 Zn346 1.953 . S
O345 C361 1.225 . S
Zn346 O345 1.953 . S
Zn346 O347 1.949 . S
Zn346 O353 1.919 . S
Zn346 O358 1.924 . S
O347 Zn346 1.949 . S
O347 Zn348 1.923 . S
O347 Zn349 1.950 . S
O347 Zn350 1.945 . S
Zn348 O347 1.923 . S
Zn348 O351 1.933 1_545 S
Zn348 O354 1.941 . S
Zn348 O355 1.965 . S
Zn349 O347 1.950 . S
Zn349 O356 1.938 . S
Zn349 O357 1.906 . S
Zn349 O367 1.953 . S
Zn350 O347 1.945 . S
Zn350 O352 1.932 . S
Zn350 O359 1.977 . S
Zn350 O360 1.910 . S
O351 Zn348 1.933 1_565 S
O351 C362 1.226 . S
O352 Zn350 1.932 . S
O352 C362 1.307 1_545 S
O353 Zn346 1.919 . S
O353 C364 1.253 . S
O354 Zn348 1.941 . S
O354 C364 1.283 . S
O355 Zn348 1.965 . S
O355 C363 1.303 . S
O356 Zn349 1.938 . S
O356 C363 1.247 . S
O357 Zn349 1.906 . S
O357 C365 1.304 . S
O358 Zn346 1.924 . S
O358 C366 1.311 . S
O359 Zn350 1.977 . S
O359 C365 1.272 . S
O360 Zn350 1.910 . S
O360 C366 1.231 . S
C361 O345 1.225 . S
C361 O367 1.298 . S
C362 O351 1.226 . S
C362 O352 1.307 1_565 S
C363 O355 1.303 . S
C363 O356 1.247 . S
C364 O353 1.253 . S
C364 O354 1.283 . S
C365 O357 1.304 . S
C365 O359 1.272 . S
C366 O358 1.311 . S
C366 O360 1.231 . S
O367 Zn349 1.953 . S
O367 C361 1.298 . S
O368 Zn369 1.953 . S
O368 C384 1.225 . S
Zn369 O368 1.953 . S
Zn369 O370 1.949 . S
Zn369 O376 1.919 . S
Zn369 O381 1.924 . S
O370 Zn369 1.949 . S
O370 Zn371 1.923 . S
O370 Zn372 1.950 . S
O370 Zn373 1.945 . S
Zn371 O370 1.923 . S
Zn371 O374 1.933 1_655 S
Zn371 O377 1.941 . S
Zn371 O378 1.965 . S
Zn372 O370 1.950 . S
Zn372 O379 1.938 . S
Zn372 O380 1.906 . S
Zn372 O390 1.953 . S
Zn373 O370 1.945 . S
Zn373 O375 1.932 1_655 S
Zn373 O382 1.977 . S
Zn373 O383 1.910 . S
O374 Zn371 1.933 1_455 S
O374 C385 1.226 . S
O375 Zn373 1.932 1_455 S
O375 C385 1.307 . S
O376 Zn369 1.919 . S
O376 C387 1.253 . S
O377 Zn371 1.941 . S
O377 C387 1.283 . S
O378 Zn371 1.965 . S
O378 C386 1.303 . S
O379 Zn372 1.938 . S
O379 C386 1.247 . S
O380 Zn372 1.906 . S
O380 C388 1.304 . S
O381 Zn369 1.924 . S
O381 C389 1.311 . S
O382 Zn373 1.977 . S
O382 C388 1.272 . S
O383 Zn373 1.910 . S
O383 C389 1.231 . S
C384 O368 1.225 . S
C384 O390 1.298 . S
C385 O374 1.226 . S
C385 O375 1.307 . S
C386 O378 1.303 . S
C386 O379 1.247 . S
C387 O376 1.253 . S
C387 O377 1.283 . S
C388 O380 1.304 . S
C388 O382 1.272 . S
C389 O381 1.311 . S
C389 O383 1.231 . S
O390 Zn372 1.953 . S
O390 C384 1.298 . S
O391 Zn392 1.953 . S
O391 C407 1.225 . S
Zn392 O391 1.953 . S
Zn392 O393 1.949 . S
Zn392 O399 1.919 . S
Zn392 O404 1.924 . S
O393 Zn392 1.949 . S
O393 Zn394 1.923 . S
O393 Zn395 1.950 . S
O393 Zn396 1.945 . S
Zn394 O393 1.923 . S
Zn394 O397 1.933 . S
Zn394 O400 1.941 . S
Zn394 O401 1.965 . S
Zn395 O393 1.950 . S
Zn395 O402 1.938 . S
Zn395 O403 1.906 . S
Zn395 O413 1.953 . S
Zn396 O393 1.945 . S
Zn396 O398 1.932 . S
Zn396 O405 1.977 . S
Zn396 O406 1.910 . S
O397 Zn394 1.933 . S
O397 C408 1.226 . S
O398 Zn396 1.932 . S
O398 C408 1.307 . S
O399 Zn392 1.919 . S
O399 C410 1.253 . S
O400 Zn394 1.941 . S
O400 C410 1.283 . S
O401 Zn394 1.965 . S
O401 C409 1.303 . S
O402 Zn395 1.938 . S
O402 C409 1.247 . S
O403 Zn395 1.906 . S
O403 C411 1.304 . S
O404 Zn392 1.924 . S
O404 C412 1.311 . S
O405 Zn396 1.977 . S
O405 C411 1.272 . S
O406 Zn396 1.910 . S
O406 C412 1.231 . S
C407 O391 1.225 . S
C407 O413 1.298 . S
C408 O397 1.226 . S
C408 O398 1.307 . S
C409 O401 1.303 . S
C409 O402 1.247 . S
C410 O399 1.253 . S
C410 O400 1.283 . S
C411 O403 1.304 . S
C411 O405 1.272 . S
C412 O404 1.311 . S
C412 O406 1.231 . S
O413 Zn395 1.953 . S
O413 C407 1.298 . S
H414 C420 0.930 . S
H415 C423 0.930 . S
H416 C424 0.930 . S
H417 C425 0.930 . S
H418 C428 0.930 . S
H419 C429 0.930 . S
C420 H414 0.930 . S
C420 C421 1.355 . S
C420 C422 1.415 . S
C421 C420 1.355 . S
C421 C423 1.419 . S
C422 C420 1.415 . S
C422 C427 1.425 . S
C422 C429 1.409 . S
C423 H415 0.930 . S
C423 C421 1.419 . S
C423 C424 1.362 . S
C424 H416 0.930 . S
C424 C423 1.362 . S
C424 C427 1.409 . S
C425 H417 0.930 . S
C425 C426 1.355 . S
C425 C427 1.415 . S
C426 C425 1.355 . S
C426 C428 1.419 . S
C427 C422 1.425 . S
C427 C424 1.409 . S
C427 C425 1.415 . S
C428 H418 0.930 . S
C428 C426 1.419 . S
C428 C429 1.362 . S
C429 H419 0.930 . S
C429 C422 1.409 . S
C429 C428 1.362 . S
H430 C436 0.930 . S
H431 C439 0.930 . S
H432 C440 0.930 . S
H433 C441 0.930 . S
H434 C444 0.930 . S
H435 C445 0.930 . S
C436 H430 0.930 . S
C436 C437 1.355 . S
C436 C438 1.415 . S
C437 C436 1.355 . S
C437 C439 1.419 . S
C438 C436 1.415 . S
C438 C443 1.425 . S
C438 C445 1.409 . S
C439 H431 0.930 . S
C439 C437 1.419 . S
C439 C440 1.362 . S
C440 H432 0.930 . S
C440 C439 1.362 . S
C440 C443 1.409 . S
C441 H433 0.930 . S
C441 C442 1.355 . S
C441 C443 1.415 . S
C442 C441 1.355 . S
C442 C444 1.419 . S
C443 C438 1.425 . S
C443 C440 1.409 . S
C443 C441 1.415 . S
C444 H434 0.930 . S
C444 C442 1.419 . S
C444 C445 1.362 . S
C445 H435 0.930 . S
C445 C438 1.409 . S
C445 C444 1.362 . S
H446 C452 0.930 . S
H447 C455 0.930 . S
H448 C456 0.930 . S
H449 C457 0.930 . S
H450 C460 0.930 . S
H451 C461 0.930 . S
C452 H446 0.930 . S
C452 C453 1.355 . S
C452 C454 1.415 . S
C453 C452 1.355 . S
C453 C455 1.419 . S
C454 C452 1.415 . S
C454 C459 1.425 . S
C454 C461 1.409 . S
C455 H447 0.930 . S
C455 C453 1.419 . S
C455 C456 1.362 . S
C456 H448 0.930 . S
C456 C455 1.362 . S
C456 C459 1.409 . S
C457 H449 0.930 . S
C457 C458 1.355 . S
C457 C459 1.415 . S
C458 C457 1.355 . S
C458 C460 1.419 . S
C459 C454 1.425 . S
C459 C456 1.409 . S
C459 C457 1.415 . S
C460 H450 0.930 . S
C460 C458 1.419 . S
C460 C461 1.362 . S
C461 H451 0.930 . S
C461 C454 1.409 . S
C461 C460 1.362 . S
H462 C468 0.930 . S
H463 C471 0.930 . S
H464 C472 0.930 . S
H465 C473 0.930 . S
H466 C476 0.930 . S
H467 C477 0.930 . S
C468 H462 0.930 . S
C468 C469 1.355 . S
C468 C470 1.415 . S
C469 C468 1.355 . S
C469 C471 1.419 . S
C470 C468 1.415 . S
C470 C475 1.425 . S
C470 C477 1.409 . S
C471 H463 0.930 . S
C471 C469 1.419 . S
C471 C472 1.362 . S
C472 H464 0.930 . S
C472 C471 1.362 . S
C472 C475 1.409 . S
C473 H465 0.930 . S
C473 C474 1.355 . S
C473 C475 1.415 . S
C474 C473 1.355 . S
C474 C476 1.419 . S
C475 C470 1.425 . S
C475 C472 1.409 . S
C475 C473 1.415 . S
C476 H466 0.930 . S
C476 C474 1.419 . S
C476 C477 1.362 . S
C477 H467 0.930 . S
C477 C470 1.409 . S
C477 C476 1.362 . S
H478 C484 0.930 . S
H479 C487 0.930 . S
H480 C488 0.930 . S
H481 C489 0.930 . S
H482 C492 0.930 . S
H483 C493 0.930 . S
C484 H478 0.930 . S
C484 C485 1.355 . S
C484 C486 1.415 . S
C485 C484 1.355 . S
C485 C487 1.419 . S
C486 C484 1.415 . S
C486 C491 1.425 . S
C486 C493 1.409 . S
C487 H479 0.930 . S
C487 C485 1.419 . S
C487 C488 1.362 . S
C488 H480 0.930 . S
C488 C487 1.362 . S
C488 C491 1.409 . S
C489 H481 0.930 . S
C489 C490 1.355 . S
C489 C491 1.415 . S
C490 C489 1.355 . S
C490 C492 1.419 . S
C491 C486 1.425 . S
C491 C488 1.409 . S
C491 C489 1.415 . S
C492 H482 0.930 . S
C492 C490 1.419 . S
C492 C493 1.362 . S
C493 H483 0.930 . S
C493 C486 1.409 . S
C493 C492 1.362 . S
H494 C500 0.930 . S
H495 C503 0.930 . S
H496 C504 0.930 . S
H497 C505 0.930 . S
H498 C508 0.930 . S
H499 C509 0.930 . S
C500 H494 0.930 . S
C500 C501 1.355 . S
C500 C502 1.415 . S
C501 C500 1.355 . S
C501 C503 1.419 . S
C502 C500 1.415 . S
C502 C507 1.425 . S
C502 C509 1.409 . S
C503 H495 0.930 . S
C503 C501 1.419 . S
C503 C504 1.362 . S
C504 H496 0.930 . S
C504 C503 1.362 . S
C504 C507 1.409 . S
C505 H497 0.930 . S
C505 C506 1.355 . S
C505 C507 1.415 . S
C506 C505 1.355 . S
C506 C508 1.419 . S
C507 C502 1.425 . S
C507 C504 1.409 . S
C507 C505 1.415 . S
C508 H498 0.930 . S
C508 C506 1.419 . S
C508 C509 1.362 . S
C509 H499 0.930 . S
C509 C502 1.409 . S
C509 C508 1.362 . S
H510 C516 0.930 . S
H511 C519 0.930 . S
H512 C520 0.930 . S
H513 C521 0.930 . S
H514 C524 0.930 . S
H515 C525 0.930 . S
C516 H510 0.930 . S
C516 C517 1.355 . S
C516 C518 1.415 . S
C517 C516 1.355 . S
C517 C519 1.419 . S
C518 C516 1.415 . S
C518 C523 1.425 . S
C518 C525 1.409 . S
C519 H511 0.930 . S
C519 C517 1.419 . S
C519 C520 1.362 . S
C520 H512 0.930 . S
C520 C519 1.362 . S
C520 C523 1.409 . S
C521 H513 0.930 . S
C521 C522 1.355 . S
C521 C523 1.415 . S
C522 C521 1.355 . S
C522 C524 1.419 . S
C523 C518 1.425 . S
C523 C520 1.409 . S
C523 C521 1.415 . S
C524 H514 0.930 . S
C524 C522 1.419 . S
C524 C525 1.362 . S
C525 H515 0.930 . S
C525 C518 1.409 . S
C525 C524 1.362 . S
H526 C532 0.930 . S
H527 C535 0.930 . S
H528 C536 0.930 . S
H529 C537 0.930 . S
H530 C540 0.922 1_565 S
H531 C541 0.930 . S
C532 H526 0.930 . S
C532 C533 1.355 . S
C532 C534 1.415 . S
C533 C532 1.355 . S
C533 C535 1.419 . S
C534 C532 1.415 . S
C534 C539 1.425 . S
C534 C541 1.409 . S
C535 H527 0.930 . S
C535 C533 1.419 . S
C535 C536 1.362 . S
C536 H528 0.930 . S
C536 C535 1.362 . S
C536 C539 1.409 . S
C537 H529 0.930 . S
C537 C538 1.355 1_545 S
C537 C539 1.415 . S
C538 C537 1.355 1_565 S
C538 C540 1.417 1_565 S
C539 C534 1.425 . S
C539 C536 1.409 . S
C539 C537 1.415 . S
C540 H530 0.922 1_545 S
C540 C538 1.417 1_545 S
C540 C541 1.373 . S
C541 H531 0.930 . S
C541 C534 1.409 . S
C541 C540 1.373 . S
H542 C548 0.930 . S
H543 C551 0.919 1_455 S
H544 C552 0.930 . S
H545 C553 0.930 . S
H546 C556 0.930 . S
H547 C557 0.930 . S
C548 H542 0.930 . S
C548 C549 1.355 . S
C548 C550 1.415 1_455 S
C549 C548 1.355 . S
C549 C551 1.418 1_455 S
C550 C548 1.415 1_655 S
C550 C555 1.425 . S
C550 C557 1.409 . S
C551 H543 0.919 1_655 S
C551 C549 1.418 1_655 S
C551 C552 1.374 . S
C552 H544 0.930 . S
C552 C551 1.374 . S
C552 C555 1.409 . S
C553 H545 0.930 . S
C553 C554 1.355 . S
C553 C555 1.415 . S
C554 C553 1.355 . S
C554 C556 1.419 . S
C555 C550 1.425 . S
C555 C552 1.409 . S
C555 C553 1.415 . S
C556 H546 0.930 . S
C556 C554 1.419 . S
C556 C557 1.362 . S
C557 H547 0.930 . S
C557 C550 1.409 . S
C557 C556 1.362 . S
H558 C564 0.930 . S
H559 C567 0.930 . S
H560 C568 0.930 . S
H561 C569 0.930 . S
H562 C572 0.930 . S
H563 C573 0.930 . S
C564 H558 0.930 . S
C564 C565 1.355 . S
C564 C566 1.415 . S
C565 C564 1.355 . S
C565 C567 1.419 . S
C566 C564 1.415 . S
C566 C571 1.425 . S
C566 C573 1.409 . S
C567 H559 0.930 . S
C567 C565 1.419 . S
C567 C568 1.362 . S
C568 H560 0.930 . S
C568 C567 1.362 . S
C568 C571 1.409 . S
C569 H561 0.930 . S
C569 C570 1.355 . S
C569 C571 1.415 . S
C570 C569 1.355 . S
C570 C572 1.419 . S
C571 C566 1.425 . S
C571 C568 1.409 . S
C571 C569 1.415 . S
C572 H562 0.930 . S
C572 C570 1.419 . S
C572 C573 1.362 . S
C573 H563 0.930 . S
C573 C566 1.409 . S
C573 C572 1.362 . S
H574 C580 0.930 . S
H575 C583 0.930 . S
H576 C584 0.930 . S
H577 C585 0.930 . S
H578 C588 0.930 . S
H579 C589 0.930 . S
C580 H574 0.930 . S
C580 C581 1.355 . S
C580 C582 1.415 . S
C581 C580 1.355 . S
C581 C583 1.419 . S
C582 C580 1.415 . S
C582 C587 1.425 . S
C582 C589 1.409 . S
C583 H575 0.930 . S
C583 C581 1.419 . S
C583 C584 1.362 . S
C584 H576 0.930 . S
C584 C583 1.362 . S
C584 C587 1.409 . S
C585 H577 0.930 . S
C585 C586 1.355 . S
C585 C587 1.415 . S
C586 C585 1.355 . S
C586 C588 1.419 . S
C587 C582 1.425 . S
C587 C584 1.409 . S
C587 C585 1.415 . S
C588 H578 0.930 . S
C588 C586 1.419 . S
C588 C589 1.362 . S
C589 H579 0.930 . S
C589 C582 1.409 . S
C589 C588 1.362 . S
H590 C596 0.930 . S
H591 C599 0.930 . S
H592 C600 0.930 . S
H593 C601 0.930 . S
H594 C604 0.930 . S
H595 C605 0.930 . S
C596 H590 0.930 . S
C596 C597 1.355 . S
C596 C598 1.415 . S
C597 C596 1.355 . S
C597 C599 1.419 . S
C598 C596 1.415 . S
C598 C603 1.425 . S
C598 C605 1.409 . S
C599 H591 0.930 . S
C599 C597 1.419 . S
C599 C600 1.362 . S
C600 H592 0.930 . S
C600 C599 1.362 . S
C600 C603 1.409 . S
C601 H593 0.930 . S
C601 C602 1.355 . S
C601 C603 1.415 . S
C602 C601 1.355 . S
C602 C604 1.419 . S
C603 C598 1.425 . S
C603 C600 1.409 . S
C603 C601 1.415 . S
C604 H594 0.930 . S
C604 C602 1.419 . S
C604 C605 1.362 . S
C605 H595 0.930 . S
C605 C598 1.409 . S
C605 C604 1.362 . S
H606 C612 0.930 . S
H607 C615 0.930 . S
H608 C616 0.930 1_455 S
H609 C617 0.949 . S
H610 C620 0.930 . S
H611 C621 0.930 . S
C612 H606 0.930 . S
C612 C613 1.355 . S
C612 C614 1.415 . S
C613 C612 1.355 . S
C613 C615 1.419 . S
C614 C612 1.415 . S
C614 C619 1.425 . S
C614 C621 1.409 . S
C615 H607 0.930 . S
C615 C613 1.419 . S
C615 C616 1.362 . S
C616 H608 0.930 1_655 S
C616 C615 1.362 . S
C616 C619 1.409 . S
C617 H609 0.949 . S
C617 C618 1.355 . S
C617 C619 1.415 . S
C618 C617 1.355 . S
C618 C620 1.419 . S
C619 C614 1.425 . S
C619 C616 1.409 . S
C619 C617 1.415 . S
C620 H610 0.930 . S
C620 C618 1.419 . S
C620 C621 1.362 . S
C621 H611 0.930 . S
C621 C614 1.409 . S
C621 C620 1.362 . S
H622 C628 0.930 . S
H623 C631 0.930 . S
H624 C632 0.930 . S
H625 C633 0.930 . S
H626 C636 0.930 . S
H627 C637 0.930 . S
C628 H622 0.930 . S
C628 C629 1.355 . S
C628 C630 1.415 . S
C629 C628 1.355 . S
C629 C631 1.419 . S
C630 C628 1.415 . S
C630 C635 1.425 . S
C630 C637 1.409 . S
C631 H623 0.930 . S
C631 C629 1.419 . S
C631 C632 1.362 . S
C632 H624 0.930 . S
C632 C631 1.362 . S
C632 C635 1.409 . S
C633 H625 0.930 . S
C633 C634 1.355 . S
C633 C635 1.415 . S
C634 C633 1.355 . S
C634 C636 1.419 . S
C635 C630 1.425 . S
C635 C632 1.409 . S
C635 C633 1.415 . S
C636 H626 0.930 . S
C636 C634 1.419 . S
C636 C637 1.362 . S
C637 H627 0.930 . S
C637 C630 1.409 . S
C637 C636 1.362 . S
H638 C644 0.930 . S
H639 C647 0.930 . S
H640 C648 0.930 . S
H641 C649 0.930 . S
H642 C652 0.930 . S
H643 C653 0.930 . S
C644 H638 0.930 . S
C644 C645 1.355 . S
C644 C646 1.415 . S
C645 C644 1.355 . S
C645 C647 1.419 . S
C646 C644 1.415 . S
C646 C651 1.425 . S
C646 C653 1.409 . S
C647 H639 0.930 . S
C647 C645 1.419 . S
C647 C648 1.362 . S
C648 H640 0.930 . S
C648 C647 1.362 . S
C648 C651 1.409 . S
C649 H641 0.930 . S
C649 C650 1.355 . S
C649 C651 1.415 . S
C650 C649 1.355 . S
C650 C652 1.419 . S
C651 C646 1.425 . S
C651 C648 1.409 . S
C651 C649 1.415 . S
C652 H642 0.930 . S
C652 C650 1.419 . S
C652 C653 1.362 . S
C653 H643 0.930 . S
C653 C646 1.409 . S
C653 C652 1.362 . S
H654 C660 0.930 . S
H655 C663 0.930 . S
H656 C664 0.930 . S
H657 C665 0.930 . S
H658 C668 0.930 . S
H659 C669 0.930 . S
C660 H654 0.930 . S
C660 C661 1.355 . S
C660 C662 1.415 . S
C661 C660 1.355 . S
C661 C663 1.419 . S
C662 C660 1.415 . S
C662 C667 1.425 . S
C662 C669 1.409 . S
C663 H655 0.930 . S
C663 C661 1.419 . S
C663 C664 1.362 . S
C664 H656 0.930 . S
C664 C663 1.362 . S
C664 C667 1.409 . S
C665 H657 0.930 . S
C665 C666 1.355 . S
C665 C667 1.415 . S
C666 C665 1.355 . S
C666 C668 1.419 . S
C667 C662 1.425 . S
C667 C664 1.409 . S
C667 C665 1.415 . S
C668 H658 0.930 . S
C668 C666 1.419 . S
C668 C669 1.362 . S
C669 H659 0.930 . S
C669 C662 1.409 . S
C669 C668 1.362 . S
H670 C676 0.930 . S
H671 C679 0.930 . S
H672 C680 0.930 . S
H673 C681 0.925 1_545 S
H674 C684 0.930 . S
H675 C685 0.930 . S
C676 H670 0.930 . S
C676 C677 1.355 . S
C676 C678 1.415 . S
C677 C676 1.355 . S
C677 C679 1.419 . S
C678 C676 1.415 . S
C678 C683 1.425 . S
C678 C685 1.409 . S
C679 H671 0.930 . S
C679 C677 1.419 . S
C679 C680 1.362 . S
C680 H672 0.930 . S
C680 C679 1.362 . S
C680 C683 1.409 . S
C681 H673 0.925 1_565 S
C681 C682 1.355 1_565 S
C681 C683 1.415 . S
C682 C681 1.355 1_545 S
C682 C684 1.419 . S
C683 C678 1.425 . S
C683 C680 1.409 . S
C683 C681 1.415 . S
C684 H674 0.930 . S
C684 C682 1.419 . S
C684 C685 1.362 1_545 S
C685 H675 0.930 . S
C685 C678 1.409 . S
C685 C684 1.362 1_565 S
H686 C692 0.930 . S
H687 C695 0.930 . S
H688 C696 0.930 . S
H689 C697 0.930 . S
H690 C700 0.930 1_655 S
H691 C701 0.930 . S
C692 H686 0.930 . S
C692 C693 1.355 . S
C692 C694 1.415 . S
C693 C692 1.355 . S
C693 C695 1.419 . S
C694 C692 1.415 . S
C694 C699 1.425 . S
C694 C701 1.409 . S
C695 H687 0.930 . S
C695 C693 1.419 . S
C695 C696 1.362 . S
C696 H688 0.930 . S
C696 C695 1.362 . S
C696 C699 1.409 . S
C697 H689 0.930 . S
C697 C698 1.355 1_455 S
C697 C699 1.415 . S
C698 C697 1.355 1_655 S
C698 C700 1.419 1_655 S
C699 C694 1.425 . S
C699 C696 1.409 . S
C699 C697 1.415 . S
C700 H690 0.930 1_455 S
C700 C698 1.419 1_455 S
C700 C701 1.362 . S
C701 H691 0.930 . S
C701 C694 1.409 . S
C701 C700 1.362 . S
H702 C708 0.930 . S
H703 C711 0.930 . S
H704 C712 0.930 . S
H705 C713 0.930 . S
H706 C716 0.930 . S
H707 C717 0.930 . S
C708 H702 0.930 . S
C708 C709 1.355 1_545 S
C708 C710 1.415 . S
C709 C708 1.355 1_565 S
C709 C711 1.419 . S
C710 C708 1.415 . S
C710 C715 1.425 1_544 S
C710 C717 1.409 1_554 S
C711 H703 0.930 . S
C711 C709 1.419 . S
C711 C712 1.362 . S
C712 H704 0.930 . S
C712 C711 1.362 . S
C712 C715 1.409 1_554 S
C713 H705 0.930 . S
C713 C714 1.355 1_565 S
C713 C715 1.415 . S
C714 C713 1.355 1_545 S
C714 C716 1.419 . S
C715 C710 1.425 1_566 S
C715 C712 1.409 1_556 S
C715 C713 1.415 . S
C716 H706 0.930 . S
C716 C714 1.419 . S
C716 C717 1.362 . S
C717 H707 0.930 . S
C717 C710 1.409 1_556 S
C717 C716 1.362 . S
H718 C724 0.930 . S
H719 C727 0.930 . S
H720 C728 0.930 . S
H721 C729 0.930 . S
H722 C732 0.930 . S
H723 C733 0.930 . S
C724 H718 0.930 . S
C724 C725 1.355 1_655 S
C724 C726 1.415 . S
C725 C724 1.355 1_455 S
C725 C727 1.419 . S
C726 C724 1.415 . S
C726 C731 1.425 1_656 S
C726 C733 1.409 1_556 S
C727 H719 0.930 . S
C727 C725 1.419 . S
C727 C728 1.362 . S
C728 H720 0.930 . S
C728 C727 1.362 . S
C728 C731 1.409 1_556 S
C729 H721 0.930 . S
C729 C730 1.355 . S
C729 C731 1.415 . S
C730 C729 1.355 . S
C730 C732 1.419 1_455 S
C731 C726 1.425 1_454 S
C731 C728 1.409 1_554 S
C731 C729 1.415 . S
C732 H722 0.930 . S
C732 C730 1.419 1_655 S
C732 C733 1.362 . S
C733 H723 0.930 . S
C733 C726 1.409 1_554 S
C733 C732 1.362 . S
H734 C740 0.930 . S
H735 C743 0.930 . S
H736 C744 0.930 . S
H737 C745 0.930 . S
H738 C748 0.930 . S
H739 C749 0.930 . S
C740 H734 0.930 . S
C740 C741 1.355 . S
C740 C742 1.415 . S
C741 C740 1.355 . S
C741 C743 1.419 . S
C742 C740 1.415 . S
C742 C747 1.425 1_556 S
C742 C749 1.409 1_556 S
C743 H735 0.930 . S
C743 C741 1.419 . S
C743 C744 1.362 . S
C744 H736 0.930 . S
C744 C743 1.362 . S
C744 C747 1.409 1_556 S
C745 H737 0.930 . S
C745 C746 1.355 . S
C745 C747 1.415 . S
C746 C745 1.355 . S
C746 C748 1.419 . S
C747 C742 1.425 1_554 S
C747 C744 1.409 1_554 S
C747 C745 1.415 . S
C748 H738 0.930 . S
C748 C746 1.419 . S
C748 C749 1.362 . S
C749 H739 0.930 . S
C749 C742 1.409 1_554 S
C749 C748 1.362 . S
H750 C756 0.930 . S
H751 C759 0.930 . S
H752 C760 0.930 . S
H753 C761 0.930 . S
H754 C764 0.930 . S
H755 C765 0.930 . S
C756 H750 0.930 . S
C756 C757 1.355 . S
C756 C758 1.415 . S
C757 C756 1.355 . S
C757 C759 1.419 . S
C758 C756 1.415 . S
C758 C763 1.425 . S
C758 C765 1.409 . S
C759 H751 0.930 . S
C759 C757 1.419 . S
C759 C760 1.362 . S
C760 H752 0.930 . S
C760 C759 1.362 . S
C760 C763 1.409 . S
C761 H753 0.930 . S
C761 C762 1.355 . S
C761 C763 1.415 . S
C762 C761 1.355 . S
C762 C764 1.419 . S
C763 C758 1.425 . S
C763 C760 1.409 . S
C763 C761 1.415 . S
C764 H754 0.930 . S
C764 C762 1.419 . S
C764 C765 1.362 . S
C765 H755 0.930 . S
C765 C758 1.409 . S
C765 C764 1.362 . S
H766 C772 0.930 . S
H767 C775 0.930 . S
H768 C776 0.930 . S
H769 C777 0.930 . S
H770 C780 0.930 . S
H771 C781 0.930 . S
C772 H766 0.930 . S
C772 C773 1.355 . S
C772 C774 1.415 . S
C773 C772 1.355 . S
C773 C775 1.419 . S
C774 C772 1.415 . S
C774 C779 1.425 . S
C774 C781 1.409 . S
C775 H767 0.930 . S
C775 C773 1.419 . S
C775 C776 1.362 . S
C776 H768 0.930 . S
C776 C775 1.362 . S
C776 C779 1.409 . S
C777 H769 0.930 . S
C777 C778 1.355 . S
C777 C779 1.415 . S
C778 C777 1.355 . S
C778 C780 1.419 . S
C779 C774 1.425 . S
C779 C776 1.409 . S
C779 C777 1.415 . S
C780 H770 0.930 . S
C780 C778 1.419 . S
C780 C781 1.362 . S
C781 H771 0.930 . S
C781 C774 1.409 . S
C781 C780 1.362 . S
H782 C788 0.930 . S
H783 C791 0.930 . S
H784 C792 0.930 1_545 S
H785 C793 0.930 . S
H786 C796 0.930 . S
H787 C797 0.930 . S
C788 H782 0.930 . S
C788 C789 1.355 . S
C788 C790 1.415 . S
C789 C788 1.355 . S
C789 C791 1.419 . S
C790 C788 1.415 . S
C790 C795 1.425 . S
C790 C797 1.409 . S
C791 H783 0.930 . S
C791 C789 1.419 . S
C791 C792 1.362 . S
C792 H784 0.930 1_565 S
C792 C791 1.362 . S
C792 C795 1.409 . S
C793 H785 0.930 . S
C793 C794 1.355 . S
C793 C795 1.415 . S
C794 C793 1.355 . S
C794 C796 1.419 . S
C795 C790 1.425 . S
C795 C792 1.409 . S
C795 C793 1.415 . S
C796 H786 0.930 . S
C796 C794 1.419 . S
C796 C797 1.362 . S
C797 H787 0.930 . S
C797 C790 1.409 . S
C797 C796 1.362 . S
H798 C804 0.930 . S
H799 C807 0.930 . S
H800 C808 0.930 . S
H801 C809 0.930 . S
H802 C812 0.930 . S
H803 C813 0.930 . S
C804 H798 0.930 . S
C804 C805 1.355 . S
C804 C806 1.415 . S
C805 C804 1.355 . S
C805 C807 1.419 . S
C806 C804 1.415 . S
C806 C811 1.425 . S
C806 C813 1.409 . S
C807 H799 0.930 . S
C807 C805 1.419 . S
C807 C808 1.362 . S
C808 H800 0.930 . S
C808 C807 1.362 . S
C808 C811 1.409 . S
C809 H801 0.930 . S
C809 C810 1.355 . S
C809 C811 1.415 . S
C810 C809 1.355 . S
C810 C812 1.419 . S
C811 C806 1.425 . S
C811 C808 1.409 . S
C811 C809 1.415 . S
C812 H802 0.930 . S
C812 C810 1.419 . S
C812 C813 1.362 . S
C813 H803 0.930 . S
C813 C806 1.409 . S
C813 C812 1.362 . S
H814 C820 0.930 . S
H815 C823 0.930 . S
H816 C824 0.930 . S
H817 C825 0.930 . S
H818 C828 0.930 . S
H819 C829 0.930 . S
C820 H814 0.930 . S
C820 C821 1.355 . S
C820 C822 1.415 . S
C821 C820 1.355 . S
C821 C823 1.419 . S
C822 C820 1.415 . S
C822 C827 1.425 . S
C822 C829 1.409 . S
C823 H815 0.930 . S
C823 C821 1.419 . S
C823 C824 1.362 . S
C824 H816 0.930 . S
C824 C823 1.362 . S
C824 C827 1.409 . S
C825 H817 0.930 . S
C825 C826 1.355 . S
C825 C827 1.415 . S
C826 C825 1.355 . S
C826 C828 1.419 . S
C827 C822 1.425 . S
C827 C824 1.409 . S
C827 C825 1.415 . S
C828 H818 0.930 . S
C828 C826 1.419 . S
C828 C829 1.362 . S
C829 H819 0.930 . S
C829 C822 1.409 . S
C829 C828 1.362 . S
H830 C836 0.930 . S
H831 C839 0.930 . S
H832 C840 0.930 . S
H833 C841 0.930 . S
H834 C844 0.930 . S
H835 C845 0.930 . S
C836 H830 0.930 . S
C836 C837 1.355 . S
C836 C838 1.415 . S
C837 C836 1.355 . S
C837 C839 1.419 . S
C838 C836 1.415 . S
C838 C843 1.425 . S
C838 C845 1.409 . S
C839 H831 0.930 . S
C839 C837 1.419 . S
C839 C840 1.362 . S
C840 H832 0.930 . S
C840 C839 1.362 . S
C840 C843 1.409 . S
C841 H833 0.930 . S
C841 C842 1.355 . S
C841 C843 1.415 . S
C842 C841 1.355 . S
C842 C844 1.419 . S
C843 C838 1.425 . S
C843 C840 1.409 . S
C843 C841 1.415 . S
C844 H834 0.930 . S
C844 C842 1.419 . S
C844 C845 1.362 . S
C845 H835 0.930 . S
C845 C838 1.409 . S
C845 C844 1.362 . S
H846 C852 0.930 . S
H847 C855 0.930 . S
H848 C856 0.930 . S
H849 C857 0.930 . S
H850 C860 0.930 . S
H851 C861 0.930 . S
C852 H846 0.930 . S
C852 C853 1.355 . S
C852 C854 1.415 . S
C853 C852 1.355 . S
C853 C855 1.419 . S
C854 C852 1.415 . S
C854 C859 1.425 . S
C854 C861 1.409 1_565 S
C855 H847 0.930 . S
C855 C853 1.419 . S
C855 C856 1.362 . S
C856 H848 0.930 . S
C856 C855 1.362 . S
C856 C859 1.409 . S
C857 H849 0.930 . S
C857 C858 1.355 . S
C857 C859 1.415 . S
C858 C857 1.355 . S
C858 C860 1.419 1_565 S
C859 C854 1.425 . S
C859 C856 1.409 . S
C859 C857 1.415 . S
C860 H850 0.930 . S
C860 C858 1.419 1_545 S
C860 C861 1.362 . S
C861 H851 0.930 . S
C861 C854 1.409 1_545 S
C861 C860 1.362 . S
H862 C868 0.930 . S
H863 C871 0.930 . S
H864 C872 0.930 . S
H865 C873 0.930 . S
H866 C876 0.930 . S
H867 C877 0.930 . S
C868 H862 0.930 . S
C868 C869 1.355 . S
C868 C870 1.415 . S
C869 C868 1.355 . S
C869 C871 1.419 . S
C870 C868 1.415 . S
C870 C875 1.425 . S
C870 C877 1.409 . S
C871 H863 0.930 . S
C871 C869 1.419 . S
C871 C872 1.362 . S
C872 H864 0.930 . S
C872 C871 1.362 . S
C872 C875 1.409 . S
C873 H865 0.930 . S
C873 C874 1.355 . S
C873 C875 1.415 . S
C874 C873 1.355 . S
C874 C876 1.419 . S
C875 C870 1.425 . S
C875 C872 1.409 . S
C875 C873 1.415 . S
C876 H866 0.930 . S
C876 C874 1.419 . S
C876 C877 1.362 . S
C877 H867 0.930 . S
C877 C870 1.409 . S
C877 C876 1.362 . S
H878 C884 0.930 . S
H879 C887 0.930 . S
H880 C888 0.930 . S
H881 C889 0.930 . S
H882 C892 0.930 . S
H883 C893 0.930 . S
C884 H878 0.930 . S
C884 C885 1.355 . S
C884 C886 1.415 . S
C885 C884 1.355 . S
C885 C887 1.419 . S
C886 C884 1.415 . S
C886 C891 1.425 . S
C886 C893 1.409 . S
C887 H879 0.930 . S
C887 C885 1.419 . S
C887 C888 1.362 . S
C888 H880 0.930 . S
C888 C887 1.362 . S
C888 C891 1.409 . S
C889 H881 0.930 . S
C889 C890 1.355 . S
C889 C891 1.415 . S
C890 C889 1.355 . S
C890 C892 1.419 . S
C891 C886 1.425 . S
C891 C888 1.409 . S
C891 C889 1.415 . S
C892 H882 0.930 . S
C892 C890 1.419 . S
C892 C893 1.362 . S
C893 H883 0.930 . S
C893 C886 1.409 . S
C893 C892 1.362 . S
H894 C900 0.930 . S
H895 C903 0.930 . S
H896 C904 0.930 . S
H897 C905 0.930 . S
H898 C908 0.930 . S
H899 C909 0.930 . S
C900 H894 0.930 . S
C900 C901 1.355 . S
C900 C902 1.415 . S
C901 C900 1.355 . S
C901 C903 1.419 1_655 S
C902 C900 1.415 . S
C902 C907 1.425 . S
C902 C909 1.409 . S
C903 H895 0.930 . S
C903 C901 1.419 1_455 S
C903 C904 1.362 . S
C904 H896 0.930 . S
C904 C903 1.362 . S
C904 C907 1.409 1_455 S
C905 H897 0.930 . S
C905 C906 1.355 . S
C905 C907 1.415 . S
C906 C905 1.355 . S
C906 C908 1.419 . S
C907 C902 1.425 . S
C907 C904 1.409 1_655 S
C907 C905 1.415 . S
C908 H898 0.930 . S
C908 C906 1.419 . S
C908 C909 1.362 . S
C909 H899 0.930 . S
C909 C902 1.409 . S
C909 C908 1.362 . S
H910 C916 0.930 . S
H911 C919 0.930 . S
H912 C920 0.930 . S
H913 C921 0.930 . S
H914 C924 0.930 . S
H915 C925 0.930 . S
C916 H910 0.930 . S
C916 C917 1.355 . S
C916 C918 1.415 . S
C917 C916 1.355 . S
C917 C919 1.419 . S
C918 C916 1.415 . S
C918 C923 1.425 . S
C918 C925 1.409 . S
C919 H911 0.930 . S
C919 C917 1.419 . S
C919 C920 1.362 . S
C920 H912 0.930 . S
C920 C919 1.362 . S
C920 C923 1.409 . S
C921 H913 0.930 . S
C921 C922 1.355 . S
C921 C923 1.415 . S
C922 C921 1.355 . S
C922 C924 1.419 . S
C923 C918 1.425 . S
C923 C920 1.409 . S
C923 C921 1.415 . S
C924 H914 0.930 . S
C924 C922 1.419 . S
C924 C925 1.362 . S
C925 H915 0.930 . S
C925 C918 1.409 . S
C925 C924 1.362 . S
H926 C932 0.930 . S
H927 C935 0.930 . S
H928 C936 0.930 . S
H929 C937 0.930 . S
H930 C940 0.930 . S
H931 C941 0.930 . S
C932 H926 0.930 . S
C932 C933 1.355 . S
C932 C934 1.415 . S
C933 C932 1.355 . S
C933 C935 1.419 . S
C934 C932 1.415 . S
C934 C939 1.425 . S
C934 C941 1.409 . S
C935 H927 0.930 . S
C935 C933 1.419 . S
C935 C936 1.362 . S
C936 H928 0.930 . S
C936 C935 1.362 . S
C936 C939 1.409 . S
C937 H929 0.930 . S
C937 C938 1.355 . S
C937 C939 1.415 . S
C938 C937 1.355 . S
C938 C940 1.419 . S
C939 C934 1.425 . S
C939 C936 1.409 . S
C939 C937 1.415 . S
C940 H930 0.930 . S
C940 C938 1.419 . S
C940 C941 1.362 . S
C941 H931 0.930 . S
C941 C934 1.409 . S
C941 C940 1.362 . S
H942 C948 0.930 . S
H943 C951 0.930 . S
H944 C952 0.931 . S
H945 C953 0.930 . S
H946 C956 0.930 . S
H947 C957 0.930 . S
C948 H942 0.930 . S
C948 C949 1.355 . S
C948 C950 1.415 1_655 S
C949 C948 1.355 . S
C949 C951 1.419 . S
C950 C948 1.415 1_455 S
C950 C955 1.425 . S
C950 C957 1.409 . S
C951 H943 0.930 . S
C951 C949 1.419 . S
C951 C952 1.363 1_655 S
C952 H944 0.931 . S
C952 C951 1.363 1_455 S
C952 C955 1.409 . S
C953 H945 0.930 . S
C953 C954 1.355 . S
C953 C955 1.415 . S
C954 C953 1.355 . S
C954 C956 1.419 . S
C955 C950 1.425 . S
C955 C952 1.409 . S
C955 C953 1.415 . S
C956 H946 0.930 . S
C956 C954 1.419 . S
C956 C957 1.362 . S
C957 H947 0.930 . S
C957 C950 1.409 . S
C957 C956 1.362 . S
H958 C964 0.930 . S
H959 C967 0.930 . S
H960 C968 0.930 . S
H961 C969 0.930 . S
H962 C972 0.930 . S
H963 C973 0.930 . S
C964 H958 0.930 . S
C964 C965 1.355 . S
C964 C966 1.415 . S
C965 C964 1.355 . S
C965 C967 1.419 . S
C966 C964 1.415 . S
C966 C971 1.425 . S
C966 C973 1.409 . S
C967 H959 0.930 . S
C967 C965 1.419 . S
C967 C968 1.362 . S
C968 H960 0.930 . S
C968 C967 1.362 . S
C968 C971 1.409 . S
C969 H961 0.930 . S
C969 C970 1.355 . S
C969 C971 1.415 . S
C970 C969 1.355 . S
C970 C972 1.419 . S
C971 C966 1.425 . S
C971 C968 1.409 . S
C971 C969 1.415 . S
C972 H962 0.930 . S
C972 C970 1.419 . S
C972 C973 1.362 . S
C973 H963 0.930 . S
C973 C966 1.409 . S
C973 C972 1.362 . S
H974 C980 0.925 1_545 S
H975 C983 0.930 . S
H976 C984 0.930 . S
H977 C985 0.930 . S
H978 C988 0.930 . S
H979 C989 0.930 . S
C980 H974 0.925 1_565 S
C980 C981 1.355 . S
C980 C982 1.415 1_565 S
C981 C980 1.355 . S
C981 C983 1.419 . S
C982 C980 1.415 1_545 S
C982 C987 1.425 . S
C982 C989 1.409 . S
C983 H975 0.930 . S
C983 C981 1.419 . S
C983 C984 1.362 . S
C984 H976 0.930 . S
C984 C983 1.362 . S
C984 C987 1.409 1_565 S
C985 H977 0.930 . S
C985 C986 1.355 . S
C985 C987 1.415 . S
C986 C985 1.355 . S
C986 C988 1.419 . S
C987 C982 1.425 . S
C987 C984 1.409 1_545 S
C987 C985 1.415 . S
C988 H978 0.930 . S
C988 C986 1.419 . S
C988 C989 1.362 . S
C989 H979 0.930 . S
C989 C982 1.409 . S
C989 C988 1.362 . S
H990 C996 0.930 . S
H991 C999 0.930 . S
H992 C1000 0.930 . S
H993 C1001 0.930 . S
H994 C1004 0.930 . S
H995 C1005 0.930 . S
C996 H990 0.930 . S
C996 C997 1.355 . S
C996 C998 1.415 . S
C997 C996 1.355 . S
C997 C999 1.419 . S
C998 C996 1.415 . S
C998 C1003 1.425 . S
C998 C1005 1.409 . S
C999 H991 0.930 . S
C999 C997 1.419 . S
C999 C1000 1.362 . S
C1000 H992 0.930 . S
C1000 C999 1.362 . S
C1000 C1003 1.409 . S
C1001 H993 0.930 . S
C1001 C1002 1.355 . S
C1001 C1003 1.415 . S
C1002 C1001 1.355 . S
C1002 C1004 1.419 . S
C1003 C998 1.425 . S
C1003 C1000 1.409 . S
C1003 C1001 1.415 . S
C1004 H994 0.930 . S
C1004 C1002 1.419 . S
C1004 C1005 1.362 . S
C1005 H995 0.930 . S
C1005 C998 1.409 . S
C1005 C1004 1.362 . S
H1006 C1012 0.930 . S
H1007 C1015 0.930 . S
H1008 C1016 0.930 . S
H1009 C1017 0.930 . S
H1010 C1020 0.930 . S
H1011 C1021 0.930 . S
C1012 H1006 0.930 . S
C1012 C1013 1.355 . S
C1012 C1014 1.415 . S
C1013 C1012 1.355 . S
C1013 C1015 1.419 . S
C1014 C1012 1.415 . S
C1014 C1019 1.425 . S
C1014 C1021 1.409 . S
C1015 H1007 0.930 . S
C1015 C1013 1.419 . S
C1015 C1016 1.362 . S
C1016 H1008 0.930 . S
C1016 C1015 1.362 . S
C1016 C1019 1.409 . S
C1017 H1009 0.930 . S
C1017 C1018 1.355 . S
C1017 C1019 1.415 . S
C1018 C1017 1.355 . S
C1018 C1020 1.419 . S
C1019 C1014 1.425 . S
C1019 C1016 1.409 . S
C1019 C1017 1.415 . S
C1020 H1010 0.930 . S
C1020 C1018 1.419 . S
C1020 C1021 1.362 . S
C1021 H1011 0.930 . S
C1021 C1014 1.409 . S
C1021 C1020 1.362 . S
H1022 C1028 0.930 . S
H1023 C1031 0.930 . S
H1024 C1032 0.930 . S
H1025 C1033 0.930 . S
H1026 C1036 0.930 . S
H1027 C1037 0.930 . S
C1028 H1022 0.930 . S
C1028 C1029 1.355 . S
C1028 C1030 1.415 . S
C1029 C1028 1.355 . S
C1029 C1031 1.419 . S
C1030 C1028 1.415 . S
C1030 C1035 1.425 . S
C1030 C1037 1.409 . S
C1031 H1023 0.930 . S
C1031 C1029 1.419 . S
C1031 C1032 1.362 . S
C1032 H1024 0.930 . S
C1032 C1031 1.362 . S
C1032 C1035 1.409 . S
C1033 H1025 0.930 . S
C1033 C1034 1.355 . S
C1033 C1035 1.415 . S
C1034 C1033 1.355 . S
C1034 C1036 1.419 . S
C1035 C1030 1.425 . S
C1035 C1032 1.409 . S
C1035 C1033 1.415 . S
C1036 H1026 0.930 . S
C1036 C1034 1.419 . S
C1036 C1037 1.362 . S
C1037 H1027 0.930 . S
C1037 C1030 1.409 . S
C1037 C1036 1.362 . S
H1038 C1044 0.930 . S
H1039 C1047 0.930 . S
H1040 C1048 0.930 . S
H1041 C1049 0.930 . S
H1042 C1052 0.930 . S
H1043 C1053 0.930 . S
C1044 H1038 0.930 . S
C1044 C1045 1.355 . S
C1044 C1046 1.415 . S
C1045 C1044 1.355 . S
C1045 C1047 1.419 . S
C1046 C1044 1.415 . S
C1046 C1051 1.425 . S
C1046 C1053 1.409 . S
C1047 H1039 0.930 . S
C1047 C1045 1.419 . S
C1047 C1048 1.362 . S
C1048 H1040 0.930 . S
C1048 C1047 1.362 . S
C1048 C1051 1.409 . S
C1049 H1041 0.930 . S
C1049 C1050 1.355 . S
C1049 C1051 1.415 . S
C1050 C1049 1.355 . S
C1050 C1052 1.419 . S
C1051 C1046 1.425 . S
C1051 C1048 1.409 . S
C1051 C1049 1.415 . S
C1052 H1042 0.930 . S
C1052 C1050 1.419 . S
C1052 C1053 1.362 . S
C1053 H1043 0.930 . S
C1053 C1046 1.409 . S
C1053 C1052 1.362 . S
H1054 C1060 0.930 . S
H1055 C1063 0.930 . S
H1056 C1064 0.930 . S
H1057 C1065 0.930 . S
H1058 C1068 0.930 . S
H1059 C1069 0.930 . S
C1060 H1054 0.930 . S
C1060 C1061 1.355 . S
C1060 C1062 1.415 . S
C1061 C1060 1.355 . S
C1061 C1063 1.419 . S
C1062 C1060 1.415 . S
C1062 C1067 1.425 . S
C1062 C1069 1.409 . S
C1063 H1055 0.930 . S
C1063 C1061 1.419 . S
C1063 C1064 1.362 . S
C1064 H1056 0.930 . S
C1064 C1063 1.362 . S
C1064 C1067 1.409 . S
C1065 H1057 0.930 . S
C1065 C1066 1.355 . S
C1065 C1067 1.415 . S
C1066 C1065 1.355 . S
C1066 C1068 1.419 . S
C1067 C1062 1.425 . S
C1067 C1064 1.409 . S
C1067 C1065 1.415 . S
C1068 H1058 0.930 . S
C1068 C1066 1.419 . S
C1068 C1069 1.362 . S
C1069 H1059 0.930 . S
C1069 C1062 1.409 . S
C1069 C1068 1.362 . S
H1070 C1076 0.930 . S
H1071 C1079 0.930 . S
H1072 C1080 0.930 . S
H1073 C1081 0.930 . S
H1074 C1084 0.930 . S
H1075 C1085 0.930 . S
C1076 H1070 0.930 . S
C1076 C1077 1.355 . S
C1076 C1078 1.415 . S
C1077 C1076 1.355 . S
C1077 C1079 1.419 . S
C1078 C1076 1.415 . S
C1078 C1083 1.425 . S
C1078 C1085 1.409 . S
C1079 H1071 0.930 . S
C1079 C1077 1.419 . S
C1079 C1080 1.362 . S
C1080 H1072 0.930 . S
C1080 C1079 1.362 . S
C1080 C1083 1.409 . S
C1081 H1073 0.930 . S
C1081 C1082 1.355 . S
C1081 C1083 1.415 . S
C1082 C1081 1.355 . S
C1082 C1084 1.419 . S
C1083 C1078 1.425 . S
C1083 C1080 1.409 . S
C1083 C1081 1.415 . S
C1084 H1074 0.930 . S
C1084 C1082 1.419 . S
C1084 C1085 1.362 . S
C1085 H1075 0.930 . S
C1085 C1078 1.409 . S
C1085 C1084 1.362 . S
H1086 C1092 0.930 . S
H1087 C1095 0.930 . S
H1088 C1096 0.930 . S
H1089 C1097 0.930 . S
H1090 C1100 0.930 . S
H1091 C1101 0.930 . S
C1092 H1086 0.930 . S
C1092 C1093 1.355 . S
C1092 C1094 1.415 . S
C1093 C1092 1.355 . S
C1093 C1095 1.419 . S
C1094 C1092 1.415 . S
C1094 C1099 1.425 . S
C1094 C1101 1.409 . S
C1095 H1087 0.930 . S
C1095 C1093 1.419 . S
C1095 C1096 1.362 . S
C1096 H1088 0.930 . S
C1096 C1095 1.362 . S
C1096 C1099 1.409 . S
C1097 H1089 0.930 . S
C1097 C1098 1.355 . S
C1097 C1099 1.415 . S
C1098 C1097 1.355 . S
C1098 C1100 1.419 . S
C1099 C1094 1.425 . S
C1099 C1096 1.409 . S
C1099 C1097 1.415 . S
C1100 H1090 0.930 . S
C1100 C1098 1.419 . S
C1100 C1101 1.362 . S
C1101 H1091 0.930 . S
C1101 C1094 1.409 . S
C1101 C1100 1.362 . S
H1102 C1108 0.930 . S
H1103 C1111 0.930 . S
H1104 C1112 0.930 . S
H1105 C1113 0.930 . S
H1106 C1116 0.930 . S
H1107 C1117 0.930 . S
C1108 H1102 0.930 . S
C1108 C1109 1.355 . S
C1108 C1110 1.415 . S
C1109 C1108 1.355 . S
C1109 C1111 1.419 . S
C1110 C1108 1.415 . S
C1110 C1115 1.425 . S
C1110 C1117 1.409 . S
C1111 H1103 0.930 . S
C1111 C1109 1.419 . S
C1111 C1112 1.362 . S
C1112 H1104 0.930 . S
C1112 C1111 1.362 . S
C1112 C1115 1.409 . S
C1113 H1105 0.930 . S
C1113 C1114 1.355 . S
C1113 C1115 1.415 . S
C1114 C1113 1.355 . S
C1114 C1116 1.419 . S
C1115 C1110 1.425 . S
C1115 C1112 1.409 . S
C1115 C1113 1.415 . S
C1116 H1106 0.930 . S
C1116 C1114 1.419 . S
C1116 C1117 1.362 . S
C1117 H1107 0.930 . S
C1117 C1110 1.409 . S
C1117 C1116 1.362 . S
H1118 C1124 0.930 . S
H1119 C1127 0.930 . S
H1120 C1128 0.930 . S
H1121 C1129 0.930 . S
H1122 C1132 0.930 . S
H1123 C1133 0.930 . S
C1124 H1118 0.930 . S
C1124 C1125 1.355 . S
C1124 C1126 1.415 . S
C1125 C1124 1.355 . S
C1125 C1127 1.419 . S
C1126 C1124 1.415 . S
C1126 C1131 1.425 . S
C1126 C1133 1.409 . S
C1127 H1119 0.930 . S
C1127 C1125 1.419 . S
C1127 C1128 1.362 . S
C1128 H1120 0.930 . S
C1128 C1127 1.362 . S
C1128 C1131 1.409 . S
C1129 H1121 0.930 . S
C1129 C1130 1.355 . S
C1129 C1131 1.415 . S
C1130 C1129 1.355 . S
C1130 C1132 1.419 . S
C1131 C1126 1.425 . S
C1131 C1128 1.409 . S
C1131 C1129 1.415 . S
C1132 H1122 0.930 . S
C1132 C1130 1.419 . S
C1132 C1133 1.362 . S
C1133 H1123 0.930 . S
C1133 C1126 1.409 . S
C1133 C1132 1.362 . S
H1134 C1140 0.930 . S
H1135 C1143 0.930 . S
H1136 C1144 0.930 . S
H1137 C1145 0.930 . S
H1138 C1148 0.930 . S
H1139 C1149 0.930 . S
C1140 H1134 0.930 . S
C1140 C1141 1.355 . S
C1140 C1142 1.415 . S
C1141 C1140 1.355 . S
C1141 C1143 1.419 . S
C1142 C1140 1.415 . S
C1142 C1147 1.425 . S
C1142 C1149 1.409 . S
C1143 H1135 0.930 . S
C1143 C1141 1.419 . S
C1143 C1144 1.362 . S
C1144 H1136 0.930 . S
C1144 C1143 1.362 . S
C1144 C1147 1.409 . S
C1145 H1137 0.930 . S
C1145 C1146 1.355 . S
C1145 C1147 1.415 1_455 S
C1146 C1145 1.355 . S
C1146 C1148 1.419 . S
C1147 C1142 1.425 . S
C1147 C1144 1.409 . S
C1147 C1145 1.415 1_655 S
C1148 H1138 0.930 . S
C1148 C1146 1.419 . S
C1148 C1149 1.362 1_455 S
C1149 H1139 0.930 . S
C1149 C1142 1.409 . S
C1149 C1148 1.362 1_655 S
H1150 C1156 0.930 . S
H1151 C1159 0.930 1_565 S
H1152 C1160 0.930 . S
H1153 C1161 0.930 . S
H1154 C1164 0.930 . S
H1155 C1165 0.930 . S
C1156 H1150 0.930 . S
C1156 C1157 1.355 . S
C1156 C1158 1.415 . S
C1157 C1156 1.355 . S
C1157 C1159 1.419 . S
C1158 C1156 1.415 . S
C1158 C1163 1.425 . S
C1158 C1165 1.409 . S
C1159 H1151 0.930 1_545 S
C1159 C1157 1.419 . S
C1159 C1160 1.362 . S
C1160 H1152 0.930 . S
C1160 C1159 1.362 . S
C1160 C1163 1.409 . S
C1161 H1153 0.930 . S
C1161 C1162 1.355 . S
C1161 C1163 1.415 . S
C1162 C1161 1.355 . S
C1162 C1164 1.419 . S
C1163 C1158 1.425 . S
C1163 C1160 1.409 . S
C1163 C1161 1.415 . S
C1164 H1154 0.930 . S
C1164 C1162 1.419 . S
C1164 C1165 1.362 . S
C1165 H1155 0.930 . S
C1165 C1158 1.409 . S
C1165 C1164 1.362 . S
H1166 C1172 0.927 1_565 S
H1167 C1175 0.922 1_565 S
H1168 C1176 0.930 . S
H1169 C1177 0.930 . S
H1170 C1180 0.930 . S
H1171 C1181 0.930 . S
C1172 H1166 0.927 1_545 S
C1172 C1173 1.355 1_545 S
C1172 C1174 1.415 . S
C1173 C1172 1.355 1_565 S
C1173 C1175 1.416 1_565 S
C1174 C1172 1.415 . S
C1174 C1179 1.425 . S
C1174 C1181 1.409 . S
C1175 H1167 0.922 1_545 S
C1175 C1173 1.416 1_545 S
C1175 C1176 1.373 . S
C1176 H1168 0.930 . S
C1176 C1175 1.373 . S
C1176 C1179 1.409 . S
C1177 H1169 0.930 . S
C1177 C1178 1.355 . S
C1177 C1179 1.415 . S
C1178 C1177 1.355 . S
C1178 C1180 1.419 . S
C1179 C1174 1.425 . S
C1179 C1176 1.409 . S
C1179 C1177 1.415 . S
C1180 H1170 0.930 . S
C1180 C1178 1.419 . S
C1180 C1181 1.362 . S
C1181 H1171 0.930 . S
C1181 C1174 1.409 . S
C1181 C1180 1.362 . S
H1182 C1188 0.930 . S
H1183 C1191 0.930 . S
H1184 C1192 0.930 . S
H1185 C1193 0.920 1_545 S
H1186 C1196 0.930 . S
H1187 C1197 0.930 . S
C1188 H1182 0.930 . S
C1188 C1189 1.355 . S
C1188 C1190 1.415 . S
C1189 C1188 1.355 . S
C1189 C1191 1.419 . S
C1190 C1188 1.415 . S
C1190 C1195 1.425 . S
C1190 C1197 1.409 . S
C1191 H1183 0.930 . S
C1191 C1189 1.419 . S
C1191 C1192 1.362 . S
C1192 H1184 0.930 . S
C1192 C1191 1.362 . S
C1192 C1195 1.409 . S
C1193 H1185 0.920 1_565 S
C1193 C1194 1.349 1_565 S
C1193 C1195 1.430 . S
C1194 C1193 1.349 1_545 S
C1194 C1196 1.419 . S
C1195 C1190 1.425 . S
C1195 C1192 1.409 . S
C1195 C1193 1.430 . S
C1196 H1186 0.930 . S
C1196 C1194 1.419 . S
C1196 C1197 1.362 1_545 S
C1197 H1187 0.930 . S
C1197 C1190 1.409 . S
C1197 C1196 1.362 1_565 S
H1198 C1204 0.930 . S
H1199 C1207 0.930 1_545 S
H1200 C1208 0.930 . S
H1201 C1209 0.930 1_655 S
H1202 C1212 0.930 1_655 S
H1203 C1213 0.930 . S
C1204 H1198 0.930 . S
C1204 C1205 1.355 . S
C1204 C1206 1.415 . S
C1205 C1204 1.355 . S
C1205 C1207 1.419 . S
C1206 C1204 1.415 . S
C1206 C1211 1.425 . S
C1206 C1213 1.409 . S
C1207 H1199 0.930 1_565 S
C1207 C1205 1.419 . S
C1207 C1208 1.362 . S
C1208 H1200 0.930 . S
C1208 C1207 1.362 . S
C1208 C1211 1.409 . S
C1209 H1201 0.930 1_455 S
C1209 C1210 1.355 1_455 S
C1209 C1211 1.415 . S
C1210 C1209 1.355 1_655 S
C1210 C1212 1.419 1_655 S
C1211 C1206 1.425 . S
C1211 C1208 1.409 . S
C1211 C1209 1.415 . S
C1212 H1202 0.930 1_455 S
C1212 C1210 1.419 1_455 S
C1212 C1213 1.362 . S
C1213 H1203 0.930 . S
C1213 C1206 1.409 . S
C1213 C1212 1.362 . S
H1214 C1220 0.930 . S
H1215 C1223 0.930 . S
H1216 C1224 0.930 . S
H1217 C1225 0.930 . S
H1218 C1228 0.930 1_655 S
H1219 C1229 0.930 . S
C1220 H1214 0.930 . S
C1220 C1221 1.355 . S
C1220 C1222 1.415 . S
C1221 C1220 1.355 . S
C1221 C1223 1.419 . S
C1222 C1220 1.415 . S
C1222 C1227 1.425 . S
C1222 C1229 1.409 . S
C1223 H1215 0.930 . S
C1223 C1221 1.419 . S
C1223 C1224 1.362 . S
C1224 H1216 0.930 . S
C1224 C1223 1.362 . S
C1224 C1227 1.409 . S
C1225 H1217 0.930 . S
C1225 C1226 1.355 . S
C1225 C1227 1.415 . S
C1226 C1225 1.355 . S
C1226 C1228 1.419 . S
C1227 C1222 1.425 . S
C1227 C1224 1.409 . S
C1227 C1225 1.415 . S
C1228 H1218 0.930 1_455 S
C1228 C1226 1.419 . S
C1228 C1229 1.362 . S
C1229 H1219 0.930 . S
C1229 C1222 1.409 . S
C1229 C1228 1.362 . S
H1230 C1236 0.930 . S
H1231 C1239 0.930 . S
H1232 C1240 0.930 . S
H1233 C1241 0.930 . S
H1234 C1244 0.930 . S
H1235 C1245 0.930 . S
C1236 H1230 0.930 . S
C1236 C1237 1.355 . S
C1236 C1238 1.415 . S
C1237 C1236 1.355 . S
C1237 C1239 1.419 . S
C1238 C1236 1.415 . S
C1238 C1243 1.425 . S
C1238 C1245 1.409 . S
C1239 H1231 0.930 . S
C1239 C1237 1.419 . S
C1239 C1240 1.362 . S
C1240 H1232 0.930 . S
C1240 C1239 1.362 . S
C1240 C1243 1.409 . S
C1241 H1233 0.930 . S
C1241 C1242 1.355 . S
C1241 C1243 1.415 . S
C1242 C1241 1.355 . S
C1242 C1244 1.419 . S
C1243 C1238 1.425 . S
C1243 C1240 1.409 . S
C1243 C1241 1.415 . S
C1244 H1234 0.930 . S
C1244 C1242 1.419 . S
C1244 C1245 1.362 . S
C1245 H1235 0.930 . S
C1245 C1238 1.409 . S
C1245 C1244 1.362 . S
H1246 C1252 0.930 . S
H1247 C1255 0.930 . S
H1248 C1256 0.930 . S
H1249 C1257 0.930 . S
H1250 C1260 0.930 . S
H1251 C1261 0.930 . S
C1252 H1246 0.930 . S
C1252 C1253 1.355 . S
C1252 C1254 1.415 . S
C1253 C1252 1.355 . S
C1253 C1255 1.419 . S
C1254 C1252 1.415 . S
C1254 C1259 1.425 . S
C1254 C1261 1.409 . S
C1255 H1247 0.930 . S
C1255 C1253 1.419 . S
C1255 C1256 1.362 . S
C1256 H1248 0.930 . S
C1256 C1255 1.362 . S
C1256 C1259 1.409 . S
C1257 H1249 0.930 . S
C1257 C1258 1.355 . S
C1257 C1259 1.415 . S
C1258 C1257 1.355 . S
C1258 C1260 1.419 . S
C1259 C1254 1.425 . S
C1259 C1256 1.409 . S
C1259 C1257 1.415 . S
C1260 H1250 0.930 . S
C1260 C1258 1.419 . S
C1260 C1261 1.362 . S
C1261 H1251 0.930 . S
C1261 C1254 1.409 . S
C1261 C1260 1.362 . S
H1262 C1268 0.930 . S
H1263 C1271 0.930 . S
H1264 C1272 0.930 . S
H1265 C1273 0.930 . S
H1266 C1276 0.930 . S
H1267 C1277 0.930 . S
C1268 H1262 0.930 . S
C1268 C1269 1.355 . S
C1268 C1270 1.415 . S
C1269 C1268 1.355 . S
C1269 C1271 1.419 . S
C1270 C1268 1.415 . S
C1270 C1275 1.425 . S
C1270 C1277 1.409 . S
C1271 H1263 0.930 . S
C1271 C1269 1.419 . S
C1271 C1272 1.362 . S
C1272 H1264 0.930 . S
C1272 C1271 1.362 . S
C1272 C1275 1.409 . S
C1273 H1265 0.930 . S
C1273 C1274 1.355 . S
C1273 C1275 1.415 . S
C1274 C1273 1.355 . S
C1274 C1276 1.419 . S
C1275 C1270 1.425 . S
C1275 C1272 1.409 . S
C1275 C1273 1.415 . S
C1276 H1266 0.930 . S
C1276 C1274 1.419 . S
C1276 C1277 1.362 . S
C1277 H1267 0.930 . S
C1277 C1270 1.409 . S
C1277 C1276 1.362 . S
C421 C21 1.144 . S
C426 C63 1.200 . S
C437 C17 1.192 . S
C442 C44 1.158 . S
C453 C40 1.123 . S
C458 C67 1.196 . S
C469 C90 1.178 . S
C474 C109 1.145 . S
C485 C132 1.186 . S
C490 C113 1.150 . S
C501 C136 1.181 . S
C506 C86 1.165 . S
C517 C201 1.202 . S
C522 C159 1.144 . S
C533 C155 1.164 . S
C538 C182 1.164 . S
C549 C205 1.201 . S
C554 C178 1.134 . S
C565 C247 1.130 . S
C570 C228 1.203 . S
C581 C251 1.207 . S
C586 C270 1.114 . S
C597 C224 1.135 . S
C602 C274 1.200 . S
C613 C297 1.205 . S
C618 C339 1.127 . S
C629 C293 1.201 . S
C634 C320 1.148 . S
C645 C316 1.175 . S
C650 C343 1.157 . S
C661 C385 1.202 . S
C666 C366 1.146 . S
C677 C408 1.172 . S
C682 C389 1.159 . S
C693 C362 1.179 . S
C698 C412 1.170 . S
C709 C20 1.537 . S
C714 C135 1.508 . S
C725 C89 1.503 1_455 S
C730 C43 1.502 . S
C741 C112 1.537 . S
C746 C66 1.501 . S
C757 C158 1.532 . S
C762 C273 1.521 . S
C773 C181 1.494 . S
C778 C227 1.514 . S
C789 C250 1.527 . S
C794 C204 1.491 . S
C805 C296 1.537 . S
C810 C411 1.509 . S
C821 C365 1.535 . S
C826 C319 1.514 . S
C837 C388 1.499 . S
C842 C342 1.506 . S
C853 C249 1.543 . S
C858 C19 1.544 1_565 S
C869 C42 1.551 . S
C874 C272 1.539 . S
C885 C226 1.530 . S
C890 C65 1.557 . S
C901 C88 1.534 1_655 S
C906 C341 1.553 . S
C917 C111 1.557 . S
C922 C295 1.530 . S
C933 C318 1.557 . S
C938 C134 1.532 . S
C949 C387 1.530 . S
C954 C157 1.559 . S
C965 C180 1.530 . S
C970 C410 1.557 . S
C981 C203 1.529 . S
C986 C364 1.559 . S
C997 C62 1.063 . S
C1002 C18 1.034 . S
C1013 C16 1.053 . S
C1018 C41 1.060 . S
C1029 C64 1.037 . S
C1034 C39 1.079 . S
C1045 C108 1.053 . S
C1050 C87 1.073 . S
C1061 C131 1.075 . S
C1066 C110 1.067 . S
C1077 C133 1.085 . S
C1082 C85 1.056 . S
C1093 C200 1.074 . S
C1098 C156 1.028 . S
C1109 C179 1.032 . S
C1114 C154 1.064 . S
C1125 C177 1.062 . S
C1130 C202 1.086 . S
C1141 C225 1.039 . S
C1146 C246 1.060 . S
C1157 C248 1.037 . S
C1162 C269 1.061 . S
C1173 C223 1.076 . S
C1178 C271 1.030 . S
C1189 C294 1.075 . S
C1194 C338 1.072 . S
C1205 C317 1.027 . S
C1210 C292 1.069 . S
C1221 C315 1.055 . S
C1226 C340 1.053 . S
C1237 C363 1.027 . S
C1242 C384 1.071 . S
C1253 C386 1.080 . S
C1258 C407 1.068 . S
C1269 C361 1.079 . S
C1274 C409 1.044 . S
