# Generated by pormake.
# Topology unb, (4)-cn, num edge types: 1
# Building blocks:
#     Node 0, Type 0, BuildingBlock: AZAVOO_clean_sbu_0, # of connection points: 4
#     Node 1, Type 0, BuildingBlock: AZAVOO_clean_sbu_0, # of connection points: 4
#     Node 2, Type 0, BuildingBlock: AZAVOO_clean_sbu_0, # of connection points: 4
#     Node 3, Type 0, BuildingBlock: AZAVOO_clean_sbu_0, # of connection points: 4
#     Node 4, Type 0, BuildingBlock: AZAVOO_clean_sbu_0, # of connection points: 4
#     Node 5, Type 0, BuildingBlock: AZAVOO_clean_sbu_0, # of connection points: 4
#     Node 6, Type 0, BuildingBlock: AZAVOO_clean_sbu_0, # of connection points: 4
#     Node 7, Type 0, BuildingBlock: AZAVOO_clean_sbu_0, # of connection points: 4
#     Node 8, Type 0, BuildingBlock: AZAVOO_clean_sbu_0, # of connection points: 4
#     Node 9, Type 0, BuildingBlock: AZAVOO_clean_sbu_0, # of connection points: 4
#     Node 10, Type 0, BuildingBlock: AZAVOO_clean_sbu_0, # of connection points: 4
#     Node 11, Type 0, BuildingBlock: AZAVOO_clean_sbu_0, # of connection points: 4
#     Node 12, Type 0, BuildingBlock: AZAVOO_clean_sbu_0, # of connection points: 4
#     Node 13, Type 0, BuildingBlock: AZAVOO_clean_sbu_0, # of connection points: 4
#     Node 14, Type 0, BuildingBlock: AZAVOO_clean_sbu_0, # of connection points: 4
#     Node 15, Type 0, BuildingBlock: AZAVOO_clean_sbu_0, # of connection points: 4
#     Node 16, Type 0, BuildingBlock: AZAVOO_clean_sbu_0, # of connection points: 4
#     Node 17, Type 0, BuildingBlock: AZAVOO_clean_sbu_0, # of connection points: 4
#     Edge 18, Type (0, 0), BuildingBlock: TEMPAE_clean_linker_10, # of connection points: 2
#     Edge 19, Type (0, 0), BuildingBlock: TEMPAE_clean_linker_10, # of connection points: 2
#     Edge 20, Type (0, 0), BuildingBlock: TEMPAE_clean_linker_10, # of connection points: 2
#     Edge 21, Type (0, 0), BuildingBlock: TEMPAE_clean_linker_10, # of connection points: 2
#     Edge 22, Type (0, 0), BuildingBlock: TEMPAE_clean_linker_10, # of connection points: 2
#     Edge 23, Type (0, 0), BuildingBlock: TEMPAE_clean_linker_10, # of connection points: 2
#     Edge 24, Type (0, 0), BuildingBlock: TEMPAE_clean_linker_10, # of connection points: 2
#     Edge 25, Type (0, 0), BuildingBlock: TEMPAE_clean_linker_10, # of connection points: 2
#     Edge 26, Type (0, 0), BuildingBlock: TEMPAE_clean_linker_10, # of connection points: 2
#     Edge 27, Type (0, 0), BuildingBlock: TEMPAE_clean_linker_10, # of connection points: 2
#     Edge 28, Type (0, 0), BuildingBlock: TEMPAE_clean_linker_10, # of connection points: 2
#     Edge 29, Type (0, 0), BuildingBlock: TEMPAE_clean_linker_10, # of connection points: 2
#     Edge 30, Type (0, 0), BuildingBlock: TEMPAE_clean_linker_10, # of connection points: 2
#     Edge 31, Type (0, 0), BuildingBlock: TEMPAE_clean_linker_10, # of connection points: 2
#     Edge 32, Type (0, 0), BuildingBlock: TEMPAE_clean_linker_10, # of connection points: 2
#     Edge 33, Type (0, 0), BuildingBlock: TEMPAE_clean_linker_10, # of connection points: 2
#     Edge 34, Type (0, 0), BuildingBlock: TEMPAE_clean_linker_10, # of connection points: 2
#     Edge 35, Type (0, 0), BuildingBlock: TEMPAE_clean_linker_10, # of connection points: 2
#     Edge 36, Type (0, 0), BuildingBlock: TEMPAE_clean_linker_10, # of connection points: 2
#     Edge 37, Type (0, 0), BuildingBlock: TEMPAE_clean_linker_10, # of connection points: 2
#     Edge 38, Type (0, 0), BuildingBlock: TEMPAE_clean_linker_10, # of connection points: 2
#     Edge 39, Type (0, 0), BuildingBlock: TEMPAE_clean_linker_10, # of connection points: 2
#     Edge 40, Type (0, 0), BuildingBlock: TEMPAE_clean_linker_10, # of connection points: 2
#     Edge 41, Type (0, 0), BuildingBlock: TEMPAE_clean_linker_10, # of connection points: 2
#     Edge 42, Type (0, 0), BuildingBlock: TEMPAE_clean_linker_10, # of connection points: 2
#     Edge 43, Type (0, 0), BuildingBlock: TEMPAE_clean_linker_10, # of connection points: 2
#     Edge 44, Type (0, 0), BuildingBlock: TEMPAE_clean_linker_10, # of connection points: 2
#     Edge 45, Type (0, 0), BuildingBlock: TEMPAE_clean_linker_10, # of connection points: 2
#     Edge 46, Type (0, 0), BuildingBlock: TEMPAE_clean_linker_10, # of connection points: 2
#     Edge 47, Type (0, 0), BuildingBlock: TEMPAE_clean_linker_10, # of connection points: 2
#     Edge 48, Type (0, 0), BuildingBlock: TEMPAE_clean_linker_10, # of connection points: 2
#     Edge 49, Type (0, 0), BuildingBlock: TEMPAE_clean_linker_10, # of connection points: 2
#     Edge 50, Type (0, 0), BuildingBlock: TEMPAE_clean_linker_10, # of connection points: 2
#     Edge 51, Type (0, 0), BuildingBlock: TEMPAE_clean_linker_10, # of connection points: 2
#     Edge 52, Type (0, 0), BuildingBlock: TEMPAE_clean_linker_10, # of connection points: 2
#     Edge 53, Type (0, 0), BuildingBlock: TEMPAE_clean_linker_10, # of connection points: 2
# Relax obj value: 0.015
# Max RMSD: 0.022
# Mean RMSD: 0.022
data_MOF--net-unb--node1-AZAVOO_clean_sbu_0--edge1-TEMPAE_clean_linker_10
_symmetry_space_group_name_H-M    P1
_symmetry_Int_Tables_number       1
_symmetry_cell_setting            triclinic
loop_
_symmetry_equiv_pos_as_xyz
'x, y, z'
_cell_length_a     69.320286
_cell_length_b     69.36577
_cell_length_c     23.863428
_cell_angle_alpha  89.99593
_cell_angle_beta   90.018132
_cell_angle_gamma 119.98222
loop_
_atom_site_label
_atom_site_type_symbol
_atom_site_fract_x
_atom_site_fract_y
_atom_site_fract_z
_atom_type_partial_charge
Mg0 Mg 0.11528 0.24006 0.06991 0.0
O1 O 0.12236 0.26644 0.00259 0.0
O2 O 0.09921 0.27948 0.01934 0.0
Mg3 Mg 0.07592 0.25987 0.09193 0.0
C4 C 0.11492 0.27954 0.9912 0.0
C5 C 0.14464 0.22084 0.05253 0.0
O6 O 0.12463 0.20419 0.06363 0.0
O7 O 0.13212 0.26701 0.13618 0.0
O8 O 0.10518 0.27508 0.15369 0.0
O9 O 0.09008 0.21345 0.01438 0.0
O10 O 0.0824 0.23261 0.0752 0.0
C11 C 0.12412 0.27701 0.16444 0.0
C12 C 0.07562 0.21784 0.03623 0.0
O13 O 0.14749 0.24039 0.05096 0.0
Mg14 Mg 0.75715 0.87579 0.08229 0.0
O15 O 0.73166 0.85627 0.01306 0.0
O16 O 0.71837 0.82003 0.0291 0.0
Mg17 Mg 0.73548 0.81635 0.10653 0.0
C18 C 0.71884 0.83581 0.00049 0.0
C19 C 0.7644 0.91587 0.01042 0.0
O20 O 0.77064 0.90547 0.97521 0.0
O21 O 0.72917 0.86651 0.14444 0.0
O22 O 0.71742 0.83039 0.15827 0.0
O23 O 0.78439 0.87628 0.03164 0.0
O24 O 0.76378 0.84995 0.09247 0.0
C25 C 0.71629 0.84792 0.16798 0.0
C26 C 0.77917 0.85743 0.05494 0.0
O27 O 0.75697 0.9073 0.05816 0.0
Mg28 Mg 0.11975 0.88102 0.07986 0.0
O29 O 0.1399 0.87549 0.01156 0.0
O30 O 0.17603 0.89834 0.02933 0.0
Mg31 Mg 0.17898 0.91868 0.10715 0.0
C32 C 0.16046 0.88318 -9e-05 0.0
C33 C 0.0712 0.85158 0.05441 0.0
O34 O 0.07314 0.87039 0.07226 0.0
O35 O 0.12846 0.86197 0.14245 0.0
O36 O 0.16448 0.88635 0.15803 0.0
O37 O 0.11961 0.90792 0.02949 0.0
O38 O 0.14544 0.91346 0.09188 0.0
C39 C 0.1469 0.86765 0.16692 0.0
C40 C 0.13816 0.92151 0.05415 0.0
O41 O 0.0885 0.84973 0.05267 0.0
Mg42 Mg 0.24574 0.12359 0.91794 0.0
O43 O 0.27173 0.1299 0.98643 0.0
O44 O 0.28353 0.10557 0.97288 0.0
Mg45 Mg 0.26535 0.08387 0.89765 0.0
C46 C 0.28403 0.12172 -0.0002 0.0
C47 C 0.24604 0.16207 0.98777 0.0
O48 O 0.24724 0.15036 0.02952 0.0
O49 O 0.27338 0.14056 0.85399 0.0
O50 O 0.28386 0.11505 0.843 0.0
O51 O 0.21842 0.09825 0.97118 0.0
O52 O 0.23806 0.09073 0.91133 0.0
C53 C 0.28561 0.13384 0.83129 0.0
C54 C 0.22283 0.08382 0.94921 0.0
O55 O 0.24644 0.15593 0.93785 0.0
Mg56 Mg 0.87352 0.11891 0.89784 0.0
O57 O 0.86835 0.13833 0.96898 0.0
O58 O 0.89187 0.17453 0.95395 0.0
Mg59 Mg 0.9122 0.17831 0.8756 0.0
C60 C 0.87646 0.15878 0.98241 0.0
C61 C 0.84088 0.07937 0.97039 0.0
O62 O 0.85732 0.09059 0.00566 0.0
O63 O 0.8549 0.12914 0.83787 0.0
O64 O 0.87987 0.16518 0.82513 0.0
O65 O 0.90015 0.11737 0.94632 0.0
O66 O 0.90619 0.14436 0.88737 0.0
C67 C 0.86094 0.148 0.81541 0.0
C68 C 0.91398 0.13627 0.92356 0.0
O69 O 0.84182 0.08741 0.92201 0.0
Mg70 Mg 0.87342 0.74904 0.92298 0.0
O71 O 0.85355 0.72406 0.9928 0.0
O72 O 0.81744 0.71176 0.97716 0.0
Mg73 Mg 0.81424 0.72917 0.89971 0.0
C74 C 0.83303 0.71176 0.00563 0.0
C75 C 0.91939 0.75293 0.91077 0.0
O76 O 0.91516 0.75583 0.85873 0.0
O77 O 0.86314 0.7207 0.86138 0.0
O78 O 0.82724 0.71017 0.84789 0.0
O79 O 0.8752 0.77686 0.97314 0.0
O80 O 0.84831 0.75678 0.91292 0.0
C81 C 0.84435 0.70829 0.83805 0.0
C82 C 0.85648 0.77233 0.95005 0.0
O83 O 0.90454 0.74829 0.94776 0.0
Mg84 Mg 0.78243 0.57091 0.42155 0.0
O85 O 0.78887 0.59678 0.3529 0.0
O86 O 0.76564 0.60982 0.3683 0.0
Mg87 Mg 0.74424 0.59222 0.44444 0.0
C88 C 0.78121 0.60959 0.3403 0.0
C89 C 0.8159 0.56381 0.35179 0.0
O90 O 0.7995 0.55756 0.31576 0.0
O91 O 0.80048 0.59851 0.48506 0.0
O92 O 0.77589 0.61007 0.49797 0.0
O93 O 0.75626 0.54398 0.36913 0.0
O94 O 0.7498 0.56411 0.42987 0.0
C95 C 0.79449 0.6112 0.50855 0.0
C96 C 0.74234 0.549 0.39163 0.0
O97 O 0.81442 0.57127 0.39919 0.0
Mg98 Mg 0.4248 0.20879 0.41855 0.0
O99 O 0.39946 0.19083 0.34768 0.0
O100 O 0.38556 0.15429 0.36072 0.0
Mg101 Mg 0.40244 0.14898 0.43626 0.0
C102 C 0.38634 0.17057 0.33378 0.0
C103 C 0.44518 0.25779 0.40331 0.0
O104 O 0.46155 0.25434 0.4173 0.0
O105 O 0.39665 0.19876 0.4804 0.0
O106 O 0.38453 0.16241 0.49091 0.0
O107 O 0.45206 0.21005 0.36692 0.0
O108 O 0.43104 0.1826 0.42475 0.0
C109 C 0.3836 0.17992 0.50253 0.0
C110 C 0.44669 0.19079 0.38789 0.0
O111 O 0.42567 0.24116 0.39934 0.0
Mg112 Mg 0.78824 0.21219 0.39844 0.0
O113 O 0.80675 0.20423 0.33018 0.0
O114 O 0.84321 0.22649 0.34548 0.0
Mg115 Mg 0.84805 0.24875 0.4205 0.0
C116 C 0.82711 0.2111 0.31782 0.0
C117 C 0.73933 0.18443 0.37612 0.0
O118 O 0.74309 0.20474 0.38469 0.0
O119 O 0.79693 0.19373 0.46275 0.0
O120 O 0.83332 0.21742 0.4753 0.0
O121 O 0.78845 0.2386 0.34494 0.0
O122 O 0.81485 0.24436 0.40567 0.0
C123 C 0.81547 0.19922 0.48636 0.0
C124 C 0.80751 0.25215 0.36747 0.0
O125 O 0.75566 0.18099 0.37797 0.0
Mg126 Mg 0.91161 0.45563 0.2435 0.0
O127 O 0.93678 0.46106 0.31342 0.0
O128 O 0.95003 0.43813 0.2963 0.0
Mg129 Mg 0.93329 0.41789 0.21796 0.0
C130 C 0.9495 0.45324 0.32563 0.0
C131 C 0.90352 0.4875 0.31666 0.0
O132 O 0.89798 0.47083 0.35136 0.0
O133 O 0.93993 0.47476 0.18241 0.0
O134 O 0.95159 0.45034 0.16774 0.0
O135 O 0.88404 0.42853 0.29244 0.0
O136 O 0.90501 0.42322 0.23187 0.0
C137 C 0.95284 0.4691 0.15877 0.0
C138 C 0.88934 0.41505 0.26862 0.0
O139 O 0.91123 0.48695 0.2688 0.0
Mg140 Mg 0.54151 0.45361 0.24202 0.0
O141 O 0.53513 0.47343 0.30968 0.0
O142 O 0.55888 0.50962 0.29545 0.0
Mg143 Mg 0.58035 0.51296 0.21975 0.0
C144 C 0.54297 0.49387 0.32272 0.0
C145 C 0.5039 0.41629 0.3146 0.0
O146 O 0.5159 0.42999 0.35481 0.0
O147 O 0.52386 0.46343 0.17804 0.0
O148 O 0.5488 0.49949 0.16581 0.0
O149 O 0.56707 0.45229 0.2954 0.0
O150 O 0.5743 0.47912 0.23465 0.0
C151 C 0.53012 0.48219 0.15478 0.0
C152 C 0.58134 0.47113 0.27315 0.0
O153 O 0.50954 0.42195 0.26397 0.0
Mg154 Mg 0.54222 0.08582 0.23645 0.0
O155 O 0.52129 0.05965 0.30266 0.0
O156 O 0.4855 0.04827 0.28504 0.0
Mg157 Mg 0.4837 0.06847 0.21118 0.0
C158 C 0.5006 0.04741 0.31378 0.0
C159 C 0.5791 0.08456 0.30884 0.0
O160 O 0.56615 0.08439 0.34925 0.0
O161 O 0.53166 0.0589 0.16999 0.0
O162 O 0.49715 0.05211 0.15138 0.0
O163 O 0.54438 0.11285 0.29153 0.0
O164 O 0.51787 0.09469 0.22906 0.0
C165 C 0.51375 0.0494 0.14129 0.0
C166 C 0.52595 0.10924 0.2685 0.0
O167 O 0.57295 0.08372 0.25833 0.0
Mg168 Mg 0.45122 0.90787 0.72949 0.0
O169 O 0.4568 0.93403 0.66335 0.0
O170 O 0.43423 0.94739 0.68378 0.0
Mg171 Mg 0.41242 0.92785 0.75872 0.0
C172 C 0.44933 0.94719 0.6535 0.0
C173 C 0.49364 0.9046 0.74065 0.0
O174 O 0.48643 0.90137 0.79263 0.0
O175 O 0.46934 0.93487 0.79505 0.0
O176 O 0.4427 0.94288 0.81711 0.0
O177 O 0.4248 0.88118 0.67633 0.0
O178 O 0.41852 0.90042 0.74009 0.0
C179 C 0.46179 0.94479 0.82524 0.0
C180 C 0.41089 0.88566 0.70111 0.0
O181 O 0.48313 0.90887 0.70366 0.0
Mg182 Mg 0.0894 0.54392 0.74281 0.0
O183 O 0.06397 0.52397 0.67385 0.0
O184 O 0.05096 0.48785 0.69069 0.0
Mg185 Mg 0.06842 0.48473 0.76823 0.0
C186 C 0.05125 0.50346 0.66171 0.0
C187 C 0.09757 0.59127 0.75135 0.0
O188 O 0.1051 0.5886 0.79957 0.0
O189 O 0.06144 0.53457 0.80497 0.0
O190 O 0.05016 0.49861 0.81984 0.0
O191 O 0.11681 0.54476 0.6925 0.0
O192 O 0.09653 0.51846 0.7538 0.0
C193 C 0.0488 0.51605 0.82908 0.0
C194 C 0.11198 0.52611 0.71641 0.0
O195 O 0.08882 0.57503 0.71737 0.0
Mg196 Mg 0.45365 0.54451 0.74195 0.0
O197 O 0.47214 0.53738 0.67191 0.0
O198 O 0.50861 0.55985 0.68688 0.0
Mg199 Mg 0.5135 0.58118 0.76378 0.0
C200 C 0.49252 0.54462 0.65884 0.0
C201 C 0.40476 0.51709 0.72006 0.0
O202 O 0.40866 0.53728 0.73115 0.0
O203 O 0.46259 0.52549 0.80407 0.0
O204 O 0.49902 0.54922 0.81598 0.0
O205 O 0.4537 0.57134 0.69056 0.0
O206 O 0.4802 0.57666 0.75049 0.0
C207 C 0.48129 0.53085 0.82661 0.0
C208 C 0.47283 0.5847 0.71303 0.0
O209 O 0.42103 0.51351 0.72024 0.0
Mg210 Mg 0.57901 0.78736 0.58257 0.0
O211 O 0.6045 0.79338 0.652 0.0
O212 O 0.61773 0.77038 0.63564 0.0
Mg213 Mg 0.60066 0.74961 0.55823 0.0
C214 C 0.61731 0.78568 0.66437 0.0
C215 C 0.559 0.81598 0.59965 0.0
O216 O 0.54346 0.79717 0.57784 0.0
O217 O 0.60702 0.80624 0.52062 0.0
O218 O 0.61868 0.78178 0.50678 0.0
O219 O 0.55184 0.76081 0.63311 0.0
O220 O 0.57237 0.7549 0.57236 0.0
C221 C 0.61987 0.80047 0.49711 0.0
C222 C 0.55693 0.74709 0.60978 0.0
O223 O 0.57823 0.81846 0.60734 0.0
Mg224 Mg 0.20705 0.79074 0.58129 0.0
O225 O 0.20227 0.81064 0.65187 0.0
O226 O 0.22559 0.8467 0.63455 0.0
Mg227 Mg 0.24557 0.84985 0.5559 0.0
C228 C 0.21041 0.83121 0.66409 0.0
C229 C 0.17496 0.74212 0.58611 0.0
O230 O 0.19074 0.7448 0.55107 0.0
O231 O 0.18809 0.80042 0.52099 0.0
O232 O 0.21306 0.83628 0.50583 0.0
O233 O 0.23374 0.78934 0.62934 0.0
O234 O 0.23967 0.81602 0.56937 0.0
C235 C 0.19407 0.81902 0.49718 0.0
C236 C 0.24757 0.80799 0.60552 0.0
O237 O 0.17577 0.7593 0.60722 0.0
Mg238 Mg 0.20694 0.41928 0.57487 0.0
O239 O 0.18666 0.39306 0.64163 0.0
O240 O 0.15068 0.38097 0.62471 0.0
Mg241 Mg 0.1481 0.40103 0.55155 0.0
C242 C 0.16606 0.38044 0.65302 0.0
C243 C 0.24443 0.41855 0.64594 0.0
O244 O 0.23141 0.41788 0.68678 0.0
O245 O 0.19633 0.39219 0.50869 0.0
O246 O 0.16166 0.3851 0.49068 0.0
O247 O 0.209 0.44637 0.62972 0.0
O248 O 0.18218 0.42766 0.56845 0.0
C249 C 0.17834 0.38259 0.48026 0.0
C250 C 0.19039 0.44248 0.60725 0.0
O251 O 0.23816 0.41787 0.59559 0.0
C252 C 0.18305 0.35254 0.436 0.0
C253 C 0.17666 0.3687 0.432 0.0
C254 C 0.17836 0.33727 0.39218 0.0
C255 C 0.16757 0.33873 0.34326 0.0
C256 C 0.16278 0.35623 0.33761 0.0
C257 C 0.16708 0.37078 0.38243 0.0
C258 C 0.18346 0.31868 0.39996 0.0
C259 C 0.15176 0.35873 0.28564 0.0
C260 C 0.1593 0.30625 0.20897 0.0
C261 C 0.13653 0.29074 0.21274 0.0
C262 C 0.17025 0.32138 0.25283 0.0
C263 C 0.15814 0.32042 0.30158 0.0
C264 C 0.13557 0.30355 0.30701 0.0
C265 C 0.12496 0.28914 0.26212 0.0
C266 C 0.19423 0.33932 0.24527 0.0
C267 C 0.12217 0.30159 0.35881 0.0
H268 H 0.19049 0.35102 0.47452 0.0
H269 H 0.16248 0.38357 0.37922 0.0
H270 H 0.16775 0.30298 0.40886 0.0
H271 H 0.19068 0.31603 0.36125 0.0
H272 H 0.19515 0.32203 0.43531 0.0
H273 H 0.15198 0.37485 0.28482 0.0
H274 H 0.16017 0.35749 0.24739 0.0
H275 H 0.13416 0.34509 0.28401 0.0
H276 H 0.16819 0.30739 0.1706 0.0
H277 H 0.1074 0.27684 0.26515 0.0
H278 H 0.20394 0.34156 0.28408 0.0
H279 H 0.19495 0.35537 0.23637 0.0
H280 H 0.20228 0.33555 0.21001 0.0
H281 H 0.1316 0.30241 0.39717 0.0
H282 H 0.10591 0.28583 0.3595 0.0
H283 H 0.11892 0.31571 0.36032 0.0
C284 C 0.63022 0.82697 0.41707 0.0
C285 C 0.63586 0.81501 0.45453 0.0
C286 C 0.64336 0.83709 0.36952 0.0
C287 C 0.66262 0.83538 0.36025 0.0
C288 C 0.66944 0.82516 0.40099 0.0
C289 C 0.65582 0.81489 0.44737 0.0
C290 C 0.63559 0.84786 0.32708 0.0
C291 C 0.69017 0.82345 0.39336 0.0
C292 C 0.68054 0.82646 0.21866 0.0
C293 C 0.70037 0.84658 0.21065 0.0
C294 C 0.66695 0.82336 0.26496 0.0
C295 C 0.67366 0.8407 0.30475 0.0
C296 C 0.69278 0.86166 0.29464 0.0
C297 C 0.7059 0.86442 0.2472 0.0
C298 C 0.64637 0.80091 0.27352 0.0
C299 C 0.70043 0.88051 0.33608 0.0
H300 H 0.61475 0.82708 0.42272 0.0
H301 H 0.66034 0.80593 0.47696 0.0
H302 H 0.64983 0.86327 0.30991 0.0
H303 H 0.6275 0.83624 0.29155 0.0
H304 H 0.62335 0.85196 0.34539 0.0
H305 H 0.6947 0.81775 0.43213 0.0
H306 H 0.68738 0.8114 0.35938 0.0
H307 H 0.70445 0.83977 0.38087 0.0
H308 H 0.67609 0.81279 0.18977 0.0
H309 H 0.72125 0.88003 0.24091 0.0
H310 H 0.63198 0.80288 0.28536 0.0
H311 H 0.64928 0.79203 0.30827 0.0
H312 H 0.64192 0.79035 0.23536 0.0
H313 H 0.68612 0.88168 0.35281 0.0
H314 H 0.71255 0.89674 0.31702 0.0
H315 H 0.70865 0.87737 0.37202 0.0
C316 C 0.18009 0.84088 0.44705 0.0
C317 C 0.17946 0.82059 0.45493 0.0
C318 C 0.16978 0.84423 0.40067 0.0
C319 C 0.15905 0.82699 0.36066 0.0
C320 C 0.15685 0.80587 0.37071 0.0
C321 C 0.16699 0.80285 0.41825 0.0
C322 C 0.17202 0.86684 0.39222 0.0
C323 C 0.14555 0.78712 0.32904 0.0
C324 C 0.1302 0.84127 0.247 0.0
C325 C 0.14798 0.85303 0.20989 0.0
C326 C 0.1329 0.83111 0.29494 0.0
C327 C 0.15371 0.83255 0.30495 0.0
C328 C 0.17093 0.8426 0.26465 0.0
C329 C 0.16792 0.85294 0.21787 0.0
C330 C 0.11418 0.82055 0.33694 0.0
C331 C 0.19321 0.84403 0.27307 0.0
H332 H 0.18945 0.85448 0.47601 0.0
H333 H 0.1665 0.78713 0.42443 0.0
H334 H 0.18404 0.87571 0.35789 0.0
H335 H 0.15581 0.86513 0.37981 0.0
H336 H 0.17803 0.87726 0.43061 0.0
H337 H 0.14117 0.7708 0.34797 0.0
H338 H 0.13022 0.78621 0.31207 0.0
H339 H 0.15696 0.79018 0.29328 0.0
H340 H 0.11474 0.84135 0.24074 0.0
H341 H 0.18154 0.86177 0.1886 0.0
H342 H 0.11773 0.83223 0.37235 0.0
H343 H 0.11271 0.80506 0.35439 0.0
H344 H 0.09796 0.81665 0.31814 0.0
H345 H 0.20241 0.85599 0.30726 0.0
H346 H 0.20363 0.84967 0.23461 0.0
H347 H 0.19092 0.82762 0.28564 0.0
C348 C 0.37303 0.19589 0.58256 0.0
C349 C 0.36762 0.17823 0.54546 0.0
C350 C 0.35966 0.19295 0.62953 0.0
C351 C 0.34036 0.17203 0.63859 0.0
C352 C 0.33386 0.15485 0.59843 0.0
C353 C 0.34772 0.15809 0.55262 0.0
C354 C 0.36714 0.2116 0.67155 0.0
C355 C 0.3131 0.13245 0.60591 0.0
C356 C 0.32124 0.14655 0.78128 0.0
C357 C 0.30165 0.14744 0.78771 0.0
C358 C 0.33505 0.15625 0.73486 0.0
C359 C 0.32878 0.16665 0.69335 0.0
C360 C 0.30979 0.16894 0.7015 0.0
C361 C 0.29647 0.15941 0.74912 0.0
C362 C 0.35546 0.15391 0.72834 0.0
C363 C 0.30256 0.17983 0.65802 0.0
H364 H 0.38844 0.2115 0.57692 0.0
H365 H 0.34336 0.14457 0.52333 0.0
H366 H 0.35284 0.21314 0.68665 0.0
H367 H 0.37448 0.20789 0.70844 0.0
H368 H 0.37988 0.22782 0.6537 0.0
H369 H 0.30888 0.12205 0.56751 0.0
H370 H 0.31563 0.12335 0.64079 0.0
H371 H 0.29871 0.13453 0.61704 0.0
H372 H 0.32539 0.13756 0.81168 0.0
H373 H 0.28127 0.16008 0.75418 0.0
H374 H 0.37008 0.17006 0.71627 0.0
H375 H 0.35261 0.14182 0.69443 0.0
H376 H 0.35951 0.14797 0.76744 0.0
H377 H 0.31704 0.19524 0.64164 0.0
H378 H 0.29016 0.18398 0.67505 0.0
H379 H 0.29487 0.16829 0.62215 0.0
C380 C 0.79849 0.17304 0.56682 0.0
C381 C 0.81644 0.18482 0.53019 0.0
C382 C 0.80086 0.16259 0.6146 0.0
C383 C 0.82154 0.16378 0.62498 0.0
C384 C 0.839 0.17401 0.58536 0.0
C385 C 0.8363 0.1846 0.5387 0.0
C386 C 0.7819 0.15186 0.65591 0.0
C387 C 0.86116 0.17521 0.59423 0.0
C388 C 0.84718 0.17045 0.76737 0.0
C389 C 0.84646 0.15005 0.77369 0.0
C390 C 0.83709 0.17435 0.72144 0.0
C391 C 0.82644 0.15755 0.68034 0.0
C392 C 0.82405 0.13628 0.68891 0.0
C393 C 0.834 0.1327 0.736 0.0
C394 C 0.83952 0.19712 0.71454 0.0
C395 C 0.81279 0.11797 0.64607 0.0
H396 H 0.78309 0.17319 0.56014 0.0
H397 H 0.85005 0.19341 0.50977 0.0
H398 H 0.78017 0.13615 0.67261 0.0
H399 H 0.78539 0.16327 0.69191 0.0
H400 H 0.76584 0.14829 0.63678 0.0
H401 H 0.87188 0.18125 0.55635 0.0
H402 H 0.87013 0.18673 0.62936 0.0
H403 H 0.85867 0.15861 0.60568 0.0
H404 H 0.85651 0.18374 0.79715 0.0
H405 H 0.83341 0.11687 0.74101 0.0
H406 H 0.82344 0.19566 0.70193 0.0
H407 H 0.85179 0.20631 0.68091 0.0
H408 H 0.84535 0.20709 0.75367 0.0
H409 H 0.79756 0.11735 0.62928 0.0
H410 H 0.80824 0.10143 0.66389 0.0
H411 H 0.82429 0.12132 0.61036 0.0
C412 C 0.8219 0.67249 0.78831 0.0
C413 C 0.84233 0.69209 0.79541 0.0
C414 C 0.81818 0.65868 0.74211 0.0
C415 C 0.83516 0.66494 0.70146 0.0
C416 C 0.85638 0.68385 0.71054 0.0
C417 C 0.8598 0.69718 0.75795 0.0
C418 C 0.79547 0.63831 0.73468 0.0
C419 C 0.87485 0.69107 0.66807 0.0
C420 C 0.82065 0.62121 0.58935 0.0
C421 C 0.80875 0.62695 0.55193 0.0
C422 C 0.83082 0.63429 0.63695 0.0
C423 C 0.82927 0.65363 0.64629 0.0
C424 C 0.81898 0.66046 0.60583 0.0
C425 C 0.80861 0.64688 0.55942 0.0
C426 C 0.84159 0.62645 0.67925 0.0
C427 C 0.81744 0.68127 0.61355 0.0
H428 H 0.80852 0.6684 0.81787 0.0
H429 H 0.87562 0.71237 0.76353 0.0
H430 H 0.78643 0.64131 0.70047 0.0
H431 H 0.79705 0.62373 0.72259 0.0
H432 H 0.78526 0.63415 0.77341 0.0
H433 H 0.8913 0.70325 0.68605 0.0
H434 H 0.87575 0.67658 0.65168 0.0
H435 H 0.87143 0.69904 0.63205 0.0
H436 H 0.82075 0.60576 0.58348 0.0
H437 H 0.79969 0.65147 0.52989 0.0
H438 H 0.83015 0.61878 0.71533 0.0
H439 H 0.85726 0.6406 0.69561 0.0
H440 H 0.84526 0.61388 0.66115 0.0
H441 H 0.80562 0.67867 0.64799 0.0
H442 H 0.81156 0.68574 0.57501 0.0
H443 H 0.83389 0.69552 0.62544 0.0
C444 C 0.96308 0.49552 0.07866 0.0
C445 C 0.96887 0.48379 0.11649 0.0
C446 C 0.97619 0.50557 0.03101 0.0
C447 C 0.99555 0.50403 0.02204 0.0
C448 C 0.00255 0.49412 0.0632 0.0
C449 C 0.98896 0.48389 0.10967 0.0
C450 C 0.96822 0.516 0.9881 0.0
C451 C 0.02341 0.49262 0.05591 0.0
C452 C 0.0133 0.49453 0.88079 0.0
C453 C 0.03296 0.51474 0.87196 0.0
C454 C -0.00017 0.49156 0.92727 0.0
C455 C 0.00649 0.5091 0.96641 0.0
C456 C 0.02544 0.5301 0.9555 0.0
C457 C 0.03843 0.53274 0.9079 0.0
C458 C 0.97941 0.46904 0.93666 0.0
C459 C 0.03305 0.54917 0.99626 0.0
H460 H 0.94751 0.49545 0.08405 0.0
H461 H 0.99357 0.4751 0.13953 0.0
H462 H 0.98236 0.53138 0.97048 0.0
H463 H 0.96014 0.50417 0.95295 0.0
H464 H 0.95591 0.52007 0.00617 0.0
H465 H 0.02809 0.48727 0.09502 0.0
H466 H 0.02068 0.48038 0.02249 0.0
H467 H 0.03756 0.50892 0.04281 0.0
H468 H 0.0089 0.48073 0.85239 0.0
H469 H 0.05366 0.54841 0.90097 0.0
H470 H 0.96495 0.47091 0.94832 0.0
H471 H 0.98253 0.46047 0.9718 0.0
H472 H 0.97498 0.45826 0.89893 0.0
H473 H 0.0187 0.55027 0.01297 0.0
H474 H 0.04499 0.56533 0.97661 0.0
H475 H 0.04145 0.54634 0.03229 0.0
C476 C 0.50316 0.4662 0.07538 0.0
C477 C 0.516 0.48403 0.11152 0.0
C478 C 0.49284 0.46918 0.02816 0.0
C479 C 0.49527 0.49037 0.01781 0.0
C480 C 0.50658 0.50781 0.05701 0.0
C481 C 0.517 0.50447 0.10313 0.0
C482 C 0.48092 0.45023 0.9873 0.0
C483 C 0.50912 0.53054 0.04816 0.0
C484 C 0.50248 0.51571 0.87482 0.0
C485 C 0.48265 0.5162 0.869 0.0
C486 C 0.50591 0.50535 0.92091 0.0
C487 C 0.48925 0.49568 0.96267 0.0
C488 C 0.46847 0.49457 0.95477 0.0
C489 C 0.46534 0.50476 0.9075 0.0
C490 C 0.52812 0.50643 0.92711 0.0
C491 C 0.45032 0.48438 -0.00165 0.0
H492 H 0.50234 0.45034 0.08198 0.0
H493 H 0.5266 0.51815 0.1317 0.0
H494 H 0.46547 0.44939 0.97151 0.0
H495 H 0.49187 0.45299 0.95068 0.0
H496 H 0.47662 0.43397 0.00648 0.0
H497 H 0.51588 0.54128 0.08584 0.0
H498 H 0.52064 0.53895 0.01262 0.0
H499 H 0.49286 0.52902 0.03735 0.0
H500 H 0.51572 0.52425 0.84442 0.0
H501 H 0.44996 0.50512 0.90286 0.0
H502 H 0.52575 0.49 0.93979 0.0
H503 H 0.53797 0.51855 0.96044 0.0
H504 H 0.53795 0.51168 0.88768 0.0
H505 H 0.44882 0.46881 0.01537 0.0
H506 H 0.43394 0.48072 0.98113 0.0
H507 H 0.45455 0.49619 0.03378 0.0
C508 C 0.52102 0.02125 0.09503 0.0
C509 C 0.51208 0.03543 0.09312 0.0
C510 C 0.5171 0.00621 0.05111 0.0
C511 C 0.50439 0.00585 0.00421 0.0
C512 C 0.49679 0.02133 0.00059 0.0
C513 C 0.5005 0.03572 0.04541 0.0
C514 C 0.52527 0.98981 0.05662 0.0
C515 C 0.48356 0.02184 0.95081 0.0
C516 C 0.49677 0.97524 0.86736 0.0
C517 C 0.47471 0.95807 0.87343 0.0
C518 C 0.50759 0.99027 0.9115 0.0
C519 C 0.49609 0.98755 0.9626 0.0
C520 C 0.47455 0.96893 0.97019 0.0
C521 C 0.464 0.95461 0.92514 0.0
C522 C 0.53049 0.00999 0.90176 0.0
C523 C 0.46189 0.9651 0.02441 0.0
H524 H 0.53006 0.02112 0.13198 0.0
H525 H 0.49397 0.04703 0.04353 0.0
H526 H 0.51104 0.9732 0.06748 0.0
H527 H 0.53228 0.98806 0.01642 0.0
H528 H 0.53812 0.99479 0.08987 0.0
H529 H 0.48128 0.03659 0.95145 0.0
H530 H 0.49194 0.02197 0.91111 0.0
H531 H 0.46686 0.00664 0.95083 0.0
H532 H 0.50498 0.97778 0.82715 0.0
H533 H 0.44701 0.94104 0.92976 0.0
H534 H 0.54122 0.01336 0.93916 0.0
H535 H 0.52904 0.025 0.8941 0.0
H536 H 0.53877 0.00746 0.86493 0.0
H537 H 0.47272 0.96723 0.06084 0.0
H538 H 0.44694 0.94822 0.02636 0.0
H539 H 0.45637 0.97755 0.0284 0.0
C540 C 0.1218 0.31371 0.93906 0.0
C541 C 0.12426 0.29486 0.94275 0.0
C542 C 0.12969 0.32788 0.89238 0.0
C543 C 0.13993 0.32289 0.84775 0.0
C544 C 0.14268 0.30402 0.85142 0.0
C545 C 0.135 0.29035 0.89913 0.0
C546 C 0.12681 0.34807 0.89053 0.0
C547 C 0.1532 0.29796 0.80431 0.0
C548 C 0.13813 0.34681 0.7059 0.0
C549 C 0.15975 0.36512 0.70158 0.0
C550 C 0.13166 0.33261 0.75256 0.0
C551 C 0.14706 0.33704 0.79651 0.0
C552 C 0.16897 0.35537 0.79223 0.0
C553 C 0.17512 0.36908 0.74458 0.0
C554 C 0.10826 0.31299 0.7551 0.0
C555 C 0.18576 0.36085 0.8386 0.0
H556 H 0.11369 0.31741 0.97281 0.0
H557 H 0.13685 0.27575 0.90152 0.0
H558 H 0.14311 0.36328 0.88298 0.0
H559 H 0.11568 0.3465 0.85527 0.0
H560 H 0.11962 0.35028 0.92996 0.0
H561 H 0.1546 0.28305 0.81421 0.0
H562 H 0.14311 0.29458 0.76563 0.0
H563 H 0.17006 0.31207 0.79508 0.0
H564 H 0.12621 0.34353 0.67265 0.0
H565 H 0.19182 0.38327 0.74174 0.0
H566 H 0.09921 0.31498 0.79093 0.0
H567 H 0.10871 0.29741 0.76214 0.0
H568 H 0.09871 0.31115 0.71614 0.0
H569 H 0.1796 0.36459 0.8777 0.0
H570 H 0.20228 0.37536 0.8282 0.0
H571 H 0.18789 0.34632 0.84735 0.0
C572 C 0.65137 0.79247 0.71645 0.0
C573 C 0.6325 0.79492 0.713 0.0
C574 C 0.66579 0.80064 0.76253 0.0
C575 C 0.66106 0.81121 0.80679 0.0
C576 C 0.64222 0.81403 0.80334 0.0
C577 C 0.62824 0.80601 0.75619 0.0
C578 C 0.68591 0.79761 0.76425 0.0
C579 C 0.63648 0.82494 0.85014 0.0
C580 C 0.68497 0.80867 0.94761 0.0
C581 C 0.70372 0.83001 0.95175 0.0
C582 C 0.67058 0.80262 0.90149 0.0
C583 C 0.67523 0.81817 0.85789 0.0
C584 C 0.69398 0.83984 0.862 0.0
C585 C 0.70792 0.84558 0.90918 0.0
C586 C 0.65057 0.77945 0.89904 0.0
C587 C 0.69964 0.85674 0.81591 0.0
H588 H 0.65494 0.78417 0.68292 0.0
H589 H 0.61367 0.80792 0.7538 0.0
H590 H 0.70122 0.81385 0.77165 0.0
H591 H 0.68431 0.78649 0.79954 0.0
H592 H 0.68801 0.79033 0.72484 0.0
H593 H 0.62179 0.82669 0.83999 0.0
H594 H 0.63287 0.81489 0.88895 0.0
H595 H 0.65085 0.84166 0.85926 0.0
H596 H 0.68145 0.79663 0.98066 0.0
H597 H 0.72241 0.86209 0.91208 0.0
H598 H 0.65226 0.77021 0.86318 0.0
H599 H 0.63519 0.78031 0.89212 0.0
H600 H 0.64854 0.76983 0.93797 0.0
H601 H 0.7033 0.85058 0.77669 0.0
H602 H 0.71428 0.87315 0.82652 0.0
H603 H 0.68522 0.85909 0.80727 0.0
C604 C 0.15124 0.86278 0.90824 0.0
C605 C 0.16658 0.87405 0.95133 0.0
C606 C 0.15721 0.85465 0.86137 0.0
C607 C 0.17889 0.85753 0.85806 0.0
C608 C 0.19424 0.86838 0.90211 0.0
C609 C 0.18797 0.87667 0.94793 0.0
C610 C 0.14051 0.84347 0.81477 0.0
C611 C 0.21742 0.8715 0.90052 0.0
C612 C 0.19069 0.82232 0.75677 0.0
C613 C 0.20175 0.83752 0.71329 0.0
C614 C 0.18295 0.82851 0.80406 0.0
C615 C 0.18602 0.85025 0.80736 0.0
C616 C 0.1967 0.86547 0.76299 0.0
C617 C 0.20459 0.85898 0.71679 0.0
C618 C 0.17194 0.81196 0.85099 0.0
C619 C 0.19998 0.88869 0.76453 0.0
H620 H 0.1347 0.86074 0.91053 0.0
H621 H 0.19984 0.88512 0.98136 0.0
H622 H 0.14695 0.85321 0.77553 0.0
H623 H 0.13805 0.82665 0.80661 0.0
H624 H 0.12411 0.84187 0.82458 0.0
H625 H 0.22688 0.8791 0.93965 0.0
H626 H 0.21655 0.85525 0.89397 0.0
H627 H 0.22683 0.88237 0.86476 0.0
H628 H 0.18848 0.80573 0.75438 0.0
H629 H 0.21289 0.87074 0.68307 0.0
H630 H 0.15512 0.8095 0.85937 0.0
H631 H 0.1818 0.81853 0.89004 0.0
H632 H 0.17034 0.79555 0.84139 0.0
H633 H 0.18377 0.88793 0.77115 0.0
H634 H 0.20758 0.8981 0.72534 0.0
H635 H 0.21092 0.89808 0.80022 0.0
C636 C 0.35125 0.14504 0.28308 0.0
C637 C 0.37115 0.16552 0.28554 0.0
C638 C 0.33683 0.13948 0.23715 0.0
C639 C 0.34266 0.1546 0.19196 0.0
C640 C 0.36255 0.17548 0.1945 0.0
C641 C 0.37648 0.18081 0.24163 0.0
C642 C 0.31558 0.11721 0.2365 0.0
C643 C 0.36948 0.19185 0.14667 0.0
C644 C 0.31747 0.12726 0.05287 0.0
C645 C 0.29961 0.13126 0.04768 0.0
C646 C 0.33207 0.13549 0.0986 0.0
C647 C 0.32857 0.14778 0.14071 0.0
C648 C 0.31083 0.15226 0.13532 0.0
C649 C 0.29663 0.14407 0.08859 0.0
C650 C 0.35097 0.13062 0.10242 0.0
C651 C 0.30642 0.16506 0.17977 0.0
H652 H 0.34688 0.13328 0.31727 0.0
H653 H 0.39187 0.19664 0.24334 0.0
H654 H 0.30111 0.11949 0.228 0.0
H655 H 0.31628 0.10673 0.20234 0.0
H656 H 0.31269 0.1081 0.27672 0.0
H657 H 0.3848 0.20784 0.15642 0.0
H658 H 0.3726 0.18456 0.10874 0.0
H659 H 0.35591 0.19532 0.13626 0.0
H660 H 0.32006 0.11761 0.02111 0.0
H661 H 0.28287 0.14721 0.08488 0.0
H662 H 0.3484 0.11973 0.13903 0.0
H663 H 0.36699 0.14627 0.10889 0.0
H664 H 0.35236 0.12223 0.06422 0.0
H665 H 0.30183 0.15555 0.21963 0.0
H666 H 0.29277 0.16824 0.16777 0.0
H667 H 0.32169 0.18123 0.18793 0.0
C668 C 0.87065 0.18621 0.03668 0.0
C669 C 0.86745 0.16465 0.03167 0.0
C670 C 0.86249 0.19232 0.08302 0.0
C671 C 0.85113 0.17661 0.12599 0.0
C672 C 0.84763 0.15473 0.12107 0.0
C673 C 0.85568 0.14895 0.07366 0.0
C674 C 0.8663 0.21573 0.08633 0.0
C675 C 0.83588 0.13764 0.16648 0.0
C676 C 0.85342 0.20245 0.26745 0.0
C677 C 0.83249 0.20092 0.27019 0.0
C678 C 0.85931 0.19376 0.2218 0.0
C679 C 0.84404 0.1836 0.17724 0.0
C680 C 0.82269 0.18156 0.1802 0.0
C681 C 0.81708 0.19009 0.22695 0.0
C682 C 0.88212 0.19596 0.22064 0.0
C683 C 0.80609 0.1711 0.1331 0.0
H684 H 0.87948 0.19837 0.00409 0.0
H685 H 0.85317 0.13227 0.07008 0.0
H686 H 0.85026 0.2153 0.09297 0.0
H687 H 0.87715 0.22453 0.12267 0.0
H688 H 0.87426 0.22552 0.04785 0.0
H689 H 0.8337 0.12112 0.15528 0.0
H690 H 0.84558 0.14336 0.20599 0.0
H691 H 0.81927 0.13571 0.1749 0.0
H692 H 0.86531 0.21053 0.30108 0.0
H693 H 0.80089 0.18888 0.22881 0.0
H694 H 0.89209 0.20722 0.18603 0.0
H695 H 0.88066 0.17953 0.21251 0.0
H696 H 0.89134 0.2027 0.26053 0.0
H697 H 0.81272 0.18136 0.09468 0.0
H698 H 0.78974 0.16957 0.1433 0.0
H699 H 0.80346 0.15433 0.12331 0.0
C700 C 0.84235 0.70055 0.09713 0.0
C701 C 0.82692 0.69661 0.05436 0.0
C702 C 0.83635 0.68653 0.14417 0.0
C703 C 0.81456 0.66795 0.1479 0.0
C704 C 0.79913 0.66357 0.10412 0.0
C705 C 0.80543 0.67805 0.05817 0.0
C706 C 0.85313 0.69192 0.19049 0.0
C707 C 0.77583 0.64373 0.10615 0.0
C708 C 0.80182 0.62065 0.24894 0.0
C709 C 0.79073 0.62493 0.29208 0.0
C710 C 0.81001 0.63471 0.202 0.0
C711 C 0.80739 0.65366 0.19876 0.0
C712 C 0.79682 0.6584 0.24301 0.0
C713 C 0.78845 0.64389 0.28885 0.0
C714 C 0.82089 0.62894 0.15518 0.0
C715 C 0.79401 0.67864 0.24155 0.0
H716 H 0.85896 0.71489 0.09447 0.0
H717 H 0.79349 0.67473 0.02495 0.0
H718 H 0.84692 0.6955 0.22975 0.0
H719 H 0.85533 0.67741 0.19885 0.0
H720 H 0.86962 0.70651 0.18028 0.0
H721 H 0.76632 0.64191 0.06713 0.0
H722 H 0.7765 0.62824 0.11283 0.0
H723 H 0.76661 0.64543 0.14199 0.0
H724 H 0.80359 0.606 0.25117 0.0
H725 H 0.78014 0.64745 0.32237 0.0
H726 H 0.8377 0.64321 0.14632 0.0
H727 H 0.81092 0.62551 0.11627 0.0
H728 H 0.82247 0.61414 0.16514 0.0
H729 H 0.81033 0.69387 0.2344 0.0
H730 H 0.78672 0.68073 0.28096 0.0
H731 H 0.78297 0.67722 0.20621 0.0
C732 C 0.9602 0.47312 0.4181 0.0
C733 C 0.96451 0.46216 0.37469 0.0
C734 C 0.9741 0.48097 0.46543 0.0
C735 C 0.99293 0.47812 0.46884 0.0
C736 C -0.00234 0.46759 0.42447 0.0
C737 C 0.98331 0.45958 0.37822 0.0
C738 C 0.96836 0.49183 0.51235 0.0
C739 C 0.01776 0.46454 0.42611 0.0
C740 C 0.04002 0.51284 0.57031 0.0
C741 C 0.03601 0.49741 0.6131 0.0
C742 C 0.02594 0.50693 0.52339 0.0
C743 C 0.00723 0.48522 0.51973 0.0
C744 C 0.00278 0.46979 0.56351 0.0
C745 C 0.01732 0.47601 0.60939 0.0
C746 C 0.0314 0.52371 0.47707 0.0
C747 C 0.98282 0.44658 0.56154 0.0
H748 H 0.94568 0.47513 0.41567 0.0
H749 H 0.98691 0.45137 0.34454 0.0
H750 H 0.96498 0.48188 0.55125 0.0
H751 H 0.98265 0.50864 0.52113 0.0
H752 H 0.95354 0.4934 0.5025 0.0
H753 H 0.01975 0.45712 0.38682 0.0
H754 H 0.03309 0.48079 0.43312 0.0
H755 H 0.01624 0.45354 0.46161 0.0
H756 H 0.05446 0.52939 0.57287 0.0
H757 H 0.01395 0.46407 0.6426 0.0
H758 H 0.01694 0.52602 0.46876 0.0
H759 H 0.03491 0.51746 0.4378 0.0
H760 H 0.04607 0.54015 0.48726 0.0
H761 H 0.96739 0.44737 0.55484 0.0
H762 H 0.98094 0.43707 0.60059 0.0
H763 H 0.98444 0.43729 0.52573 0.0
C764 C 0.4825 0.52447 0.56672 0.0
C765 C 0.49794 0.53503 0.61004 0.0
C766 C 0.48812 0.51637 0.51915 0.0
C767 C 0.50952 0.51855 0.51547 0.0
C768 C 0.52488 0.52855 0.55992 0.0
C769 C 0.51898 0.53682 0.6064 0.0
C770 C 0.47144 0.50607 0.47217 0.0
C771 C 0.54774 0.53088 0.55799 0.0
C772 C 0.52136 0.48394 0.41256 0.0
C773 C 0.53331 0.49965 0.37074 0.0
C774 C 0.51303 0.48967 0.45944 0.0
C775 C 0.51646 0.51151 0.46406 0.0
C776 C 0.52786 0.5272 0.42106 0.0
C777 C 0.5363 0.52114 0.37519 0.0
C778 C 0.50123 0.47259 0.50487 0.0
C779 C 0.53158 0.55057 0.42407 0.0
H780 H 0.46624 0.52309 0.56928 0.0
H781 H 0.5309 0.5447 0.64005 0.0
H782 H 0.47809 0.51632 0.43374 0.0
H783 H 0.46865 0.48924 0.46225 0.0
H784 H 0.45517 0.50468 0.48258 0.0
H785 H 0.55718 0.53777 0.59754 0.0
H786 H 0.54632 0.51446 0.54997 0.0
H787 H 0.55749 0.54205 0.52301 0.0
H788 H 0.51903 0.46732 0.40946 0.0
H789 H 0.54528 0.53329 0.3427 0.0
H790 H 0.48475 0.47089 0.51378 0.0
H791 H 0.51108 0.47818 0.54417 0.0
H792 H 0.49878 0.45599 0.49342 0.0
H793 H 0.51554 0.55011 0.43124 0.0
H794 H 0.5393 0.56023 0.38526 0.0
H795 H 0.54262 0.55953 0.45999 0.0
C796 C 0.45552 0.98111 0.60107 0.0
C797 C 0.458 0.96227 0.60444 0.0
C798 C 0.46319 0.99523 0.55421 0.0
C799 C 0.4732 0.99015 0.50916 0.0
C800 C 0.47581 0.9712 0.51236 0.0
C801 C 0.46836 0.95761 0.56018 0.0
C802 C 0.46048 0.01551 0.55278 0.0
C803 C 0.48607 0.96504 0.46481 0.0
C804 C 0.47205 0.01429 0.36708 0.0
C805 C 0.49388 0.03224 0.36271 0.0
C806 C 0.46524 0.00022 0.41403 0.0
C807 C 0.4805 0.00443 0.45819 0.0
C808 C 0.50259 0.02247 0.45396 0.0
C809 C 0.50907 0.03604 0.40604 0.0
C810 C 0.44167 0.9809 0.41652 0.0
C811 C 0.51924 0.02771 0.50054 0.0
H812 H 0.44768 0.98492 0.63527 0.0
H813 H 0.47021 0.943 0.56229 0.0
H814 H 0.47686 0.03068 0.54568 0.0
H815 H 0.44949 0.01418 0.5174 0.0
H816 H 0.45322 0.01763 0.59221 0.0
H817 H 0.48705 0.94986 0.47402 0.0
H818 H 0.47609 0.96212 0.42612 0.0
H819 H 0.50309 0.97895 0.45598 0.0
H820 H 0.46027 0.01115 0.33361 0.0
H821 H 0.52592 0.04997 0.40319 0.0
H822 H 0.4328 0.98298 0.45263 0.0
H823 H 0.44179 0.96513 0.42307 0.0
H824 H 0.43214 0.97936 0.37773 0.0
H825 H 0.513 0.03129 0.53975 0.0
H826 H 0.53581 0.04223 0.49058 0.0
H827 H 0.5213 0.01311 0.50885 0.0
C828 C 0.15858 0.1946 0.03559 0.0
C829 C 0.16321 0.21655 0.04267 0.0
C830 C 0.17568 0.18978 0.02712 0.0
C831 C 0.19808 0.20734 0.02615 0.0
C832 C 0.20296 0.2296 0.03323 0.0
C833 C 0.1854 0.23397 0.04116 0.0
C834 C 0.16971 0.16579 0.01918 0.0
C835 C 0.22666 0.24867 0.0329 0.0
C836 C 0.23556 0.18352 0.05307 0.0
C837 C 0.23925 0.17887 -0.0018 0.0
C838 C 0.22407 0.19505 0.06312 0.0
C839 C 0.21602 0.20191 0.01718 0.0
C840 C 0.22182 0.19939 0.96192 0.0
C841 C 0.23347 0.18797 0.95309 0.0
C842 C 0.21864 0.19785 0.12275 0.0
C843 C 0.21369 0.20659 0.91176 0.0
H844 H 0.14148 0.18105 0.03643 0.0
H845 H 0.18906 0.25098 0.04686 0.0
H846 H 0.17616 0.16379 0.97833 0.0
H847 H 0.1776 0.1609 0.05247 0.0
H848 H 0.15144 0.15416 0.0204 0.0
H849 H 0.22762 0.26505 0.03797 0.0
H850 H 0.23618 0.24654 0.06734 0.0
H851 H 0.23496 0.24877 0.99308 0.0
H852 H 0.24034 0.17692 0.08823 0.0
H853 H 0.23659 0.18481 0.91051 0.0
H854 H 0.20112 0.18513 0.13202 0.0
H855 H 0.22028 0.21446 0.12895 0.0
H856 H 0.22959 0.1958 0.15328 0.0
H857 H 0.19576 0.19452 0.90496 0.0
H858 H 0.2229 0.20726 0.87302 0.0
H859 H 0.21538 0.22316 0.91884 0.0
C860 C 0.82818 0.04429 0.02399 0.0
C861 C 0.82406 0.05598 0.98223 0.0
C862 C 0.81486 0.02115 0.02876 0.0
C863 C 0.79668 0.00951 0.9917 0.0
C864 C 0.79126 0.02145 0.95274 0.0
C865 C 0.8052 0.04458 0.94796 0.0
C866 C 0.82132 0.00902 0.07064 0.0
C867 C 0.77154 0.0097 0.9139 0.0
C868 C 0.78572 0.95162 0.95873 0.0
C869 C 0.76961 0.9389 -0.00107 0.0
C870 C 0.79388 0.97454 0.95401 0.0
C871 C 0.78531 0.98485 0.98949 0.0
C872 C 0.76773 0.97177 0.02693 0.0
C873 C 0.76026 0.94893 0.03174 0.0
C874 C 0.81277 0.98794 0.91383 0.0
C875 C 0.75766 0.98205 0.06403 0.0
H876 H 0.84268 0.053 0.05073 0.0
H877 H 0.80178 0.0536 0.91607 0.0
H878 H 0.80678 0.99764 0.09662 0.0
H879 H 0.82691 -0.00131 0.04801 0.0
H880 H 0.83496 0.02061 0.09886 0.0
H881 H 0.76715 0.02148 0.89399 0.0
H882 H 0.77551 0.00119 0.88026 0.0
H883 H 0.75679 0.99679 0.9368 0.0
H884 H 0.79298 0.94396 0.93317 0.0
H885 H 0.74758 0.93908 0.0624 0.0
H886 H 0.82799 -0.00065 0.93783 0.0
H887 H 0.8087 -0.00165 0.88654 0.0
H888 H 0.81659 0.97723 0.88683 0.0
H889 H 0.76938 0.99136 0.09854 0.0
H890 H 0.74166 0.96927 0.08279 0.0
H891 H 0.75474 0.99407 0.04006 0.0
C892 C 0.96019 0.77208 0.89134 0.0
C893 C 0.94245 0.76001 0.92836 0.0
C894 C 0.9822 0.78368 0.91089 0.0
C895 C 0.98648 0.78294 0.96862 0.0
C896 C 0.96891 0.76878 0.00486 0.0
C897 C 0.94703 0.75753 0.98432 0.0
C898 C 0.00051 0.79851 0.87079 0.0
C899 C 0.97286 0.76715 0.06645 0.0
C900 C 0.04674 0.81283 0.01787 0.0
C901 C 0.04946 0.83347 0.03439 0.0
C902 C 0.02621 0.79593 0.9972 0.0
C903 C 0.00816 0.79994 0.99254 0.0
C904 C 0.01079 0.82066 0.00973 0.0
C905 C 0.03135 0.8371 0.03063 0.0
C906 C 0.02388 0.77395 0.97982 0.0
C907 C 0.99196 0.82564 0.00528 0.0
H908 H 0.95683 0.77386 0.84786 0.0
H909 H 0.93341 0.74788 0.01298 0.0
H910 H 0.00517 0.8161 0.8784 0.0
H911 H 0.0156 0.79714 0.87758 0.0
H912 H 0.99523 0.79442 0.82636 0.0
H913 H 0.9586 0.75242 0.08623 0.0
H914 H 0.98819 0.76616 0.07299 0.0
H915 H 0.97519 0.78231 0.0882 0.0
H916 H 0.06068 0.80991 0.02086 0.0
H917 H 0.0333 0.85298 0.04328 0.0
H918 H 0.02063 0.77146 0.93414 0.0
H919 H 0.00945 0.76005 0.00136 0.0
H920 H 0.03905 0.77297 0.98945 0.0
H921 H 0.98651 0.82421 0.961 0.0
H922 H 0.99676 0.84258 0.02061 0.0
H923 H 0.97743 0.81333 0.02997 0.0
C924 C 0.82503 0.77987 0.93883 0.0
C925 C 0.84474 0.78433 0.96623 0.0
C926 C 0.81405 0.79158 0.95249 0.0
C927 C 0.82311 0.80827 0.99424 0.0
C928 C 0.843 0.81289 0.02207 0.0
C929 C 0.85357 0.80082 0.00779 0.0
C930 C 0.7928 0.78615 0.92213 0.0
C931 C 0.85317 0.83064 0.06672 0.0
C932 C 0.80595 0.85235 0.99529 0.0
C933 C 0.79004 0.84463 0.03828 0.0
C934 C 0.81686 0.84066 0.98042 0.0
C935 C 0.81165 0.82078 0.00915 0.0
C936 C 0.79551 0.81284 0.0523 0.0
C937 C 0.78498 0.82492 0.06651 0.0
C938 C 0.83405 0.84964 0.93427 0.0
C939 C 0.78948 0.79165 0.08371 0.0
H940 H 0.81823 0.76735 0.90622 0.0
H941 H 0.86885 0.80442 0.02897 0.0
H942 H 0.77903 0.78111 0.95269 0.0
H943 H 0.79487 0.80114 0.90002 0.0
H944 H 0.78785 0.77254 0.89106 0.0
H945 H 0.86878 0.83227 0.08413 0.0
H946 H 0.85688 0.84695 0.04914 0.0
H947 H 0.84116 0.82672 0.10152 0.0
H948 H 0.81 0.86761 0.97343 0.0
H949 H 0.77292 0.81898 0.10024 0.0
H950 H 0.82921 0.83712 0.90035 0.0
H951 H 0.85038 0.85288 0.95076 0.0
H952 H 0.83614 0.8653 0.91598 0.0
H953 H 0.78359 0.77753 0.05394 0.0
H954 H 0.77628 0.78755 0.11553 0.0
H955 H 0.80442 0.79325 0.10513 0.0
C956 C 0.17041 0.95986 0.06777 0.0
C957 C 0.1508 0.94532 0.03892 0.0
C958 C 0.18236 0.98258 0.05465 0.0
C959 C 0.17441 0.99098 0.012 0.0
C960 C 0.15456 0.97645 0.98294 0.0
C961 C 0.14301 0.95375 0.99667 0.0
C962 C 0.20354 0.99759 0.08633 0.0
C963 C 0.14555 0.98487 0.93733 0.0
C964 C 0.19479 0.05295 0.00925 0.0
C965 C 0.21099 0.06026 0.96701 0.0
C966 C 0.18276 0.03041 0.02451 0.0
C967 C 0.18713 0.01492 0.99698 0.0
C968 C 0.20362 0.02224 0.95477 0.0
C969 C 0.21527 0.04481 0.94013 0.0
C970 C 0.1652 0.02313 0.06961 0.0
C971 C 0.20881 0.0062 0.92468 0.0
H972 H 0.1764 0.95356 0.10096 0.0
H973 H 0.1278 0.94263 0.97442 0.0
H974 H 0.21774 0.00563 0.05672 0.0
H975 H 0.2021 0.01107 0.1074 0.0
H976 H 0.20743 0.98843 0.11844 0.0
H977 H 0.12967 0.97147 0.91951 0.0
H978 H 0.1427 -0.00184 0.9541 0.0
H979 H 0.15791 0.99232 0.90298 0.0
H980 H 0.19134 0.06479 0.03004 0.0
H981 H 0.22755 0.05024 0.90697 0.0
H982 H 0.16903 0.01487 0.10418 0.0
H983 H 0.14873 0.01075 0.05232 0.0
H984 H 0.16395 0.03729 0.08722 0.0
H985 H 0.21364 0.99735 0.95539 0.0
H986 H 0.22248 0.01468 0.8937 0.0
H987 H 0.19375 0.99343 0.90249 0.0
C988 C 0.94577 0.13995 0.98116 0.0
C989 C 0.93775 0.14841 0.93953 0.0
C990 C 0.96838 0.15112 0.99586 0.0
C991 C 0.98326 0.17124 0.96837 0.0
C992 C 0.97529 0.17984 0.92627 0.0
C993 C 0.95264 0.16827 0.91219 0.0
C994 C 0.97634 0.14143 0.04088 0.0
C995 C 0.99069 0.20131 0.89625 0.0
C996 C 0.0367 0.21073 0.04397 0.0
C997 C 0.05222 0.20652 0.01712 0.0
C998 C 0.01425 0.19952 0.02807 0.0
C999 C 0.00711 0.18357 0.98458 0.0
C1000 C 0.02267 0.17929 0.95702 0.0
C1001 C 0.04509 0.19087 0.97358 0.0
C1002 C -0.00187 0.20458 0.05824 0.0
C1003 C 0.01557 0.16231 0.91054 0.0
H1004 H 0.93437 0.12456 0.00226 0.0
H1005 H 0.94665 0.17477 0.87946 0.0
H1006 H 0.98968 0.13864 0.02407 0.0
H1007 H 0.98362 0.15334 0.07621 0.0
H1008 H 0.96271 0.1254 0.05737 0.0
H1009 H 0.98185 0.20568 0.86427 0.0
H1010 H -0.0014 0.21515 0.92692 0.0
H1011 H 0.00425 0.19997 0.87531 0.0
H1012 H 0.04199 0.22258 0.07808 0.0
H1013 H 0.05698 0.18748 0.9528 0.0
H1014 H 0.98509 0.18935 0.07924 0.0
H1015 H 0.98962 0.2099 0.02774 0.0
H1016 H 0.00649 0.21787 0.09025 0.0
H1017 H 0.00297 0.14569 0.92647 0.0
H1018 H 0.02978 0.16113 0.89295 0.0
H1019 H 0.00763 0.16666 0.87622 0.0
C1020 C 0.85281 0.56764 0.37565 0.0
C1021 C 0.83377 0.55854 0.34156 0.0
C1022 C 0.86819 0.56012 0.37183 0.0
C1023 C 0.86405 0.54275 0.33406 0.0
C1024 C 0.84553 0.53442 0.29739 0.0
C1025 C 0.83075 0.54261 0.30117 0.0
C1026 C 0.88816 0.56994 0.41025 0.0
C1027 C 0.84042 0.51575 0.25679 0.0
C1028 C 0.90442 0.52322 0.29462 0.0
C1029 C 0.8967 0.50417 0.32823 0.0
C1030 C 0.89512 0.53708 0.29898 0.0
C1031 C 0.87737 0.53139 0.33686 0.0
C1032 C 0.87051 0.51299 0.37331 0.0
C1033 C 0.88046 0.49975 0.36898 0.0
C1034 C 0.90339 0.55701 0.26081 0.0
C1035 C 0.85151 0.50625 0.41404 0.0
H1036 H 0.85537 0.58018 0.40648 0.0
H1037 H 0.81611 0.53554 0.27462 0.0
H1038 H 0.88543 0.55799 0.4444 0.0
H1039 H 0.90334 0.57304 0.38717 0.0
H1040 H 0.89115 0.58579 0.42947 0.0
H1041 H 0.82614 0.51208 0.22895 0.0
H1042 H 0.85516 0.51996 0.23035 0.0
H1043 H 0.83641 0.50041 0.28046 0.0
H1044 H 0.9172 0.52687 0.26352 0.0
H1045 H 0.87446 0.4851 0.39522 0.0
H1046 H 0.90503 0.57161 0.28402 0.0
H1047 H 0.8912 0.55325 0.22654 0.0
H1048 H 0.91973 0.56151 0.24173 0.0
H1049 H 0.85436 0.52061 0.44032 0.0
H1050 H 0.84924 0.49246 0.44201 0.0
H1051 H 0.83581 0.50076 0.39044 0.0
C1052 C 0.47886 0.37692 0.28517 0.0
C1053 C 0.48734 0.39293 0.32795 0.0
C1054 C 0.46765 0.35415 0.29782 0.0
C1055 C 0.46467 0.34732 0.35454 0.0
C1056 C 0.47093 0.36334 0.39771 0.0
C1057 C 0.48232 0.38603 0.38389 0.0
C1058 C 0.46116 0.33759 0.2505 0.0
C1059 C 0.46756 0.35668 0.45869 0.0
C1060 C 0.43233 0.28528 0.38604 0.0
C1061 C 0.44973 0.28059 0.3916 0.0
C1062 C 0.43683 0.30704 0.37489 0.0
C1063 C 0.45918 0.32428 0.36847 0.0
C1064 C 0.47674 0.31957 0.3741 0.0
C1065 C 0.4718 0.29783 0.38591 0.0
C1066 C 0.41775 0.31157 0.36987 0.0
C1067 C 0.50083 0.33747 0.36707 0.0
H1068 H 0.48236 0.38209 0.24174 0.0
H1069 H 0.48844 0.39831 0.41717 0.0
H1070 H 0.47328 0.33158 0.2482 0.0
H1071 H 0.44447 0.3229 0.25786 0.0
H1072 H 0.46106 0.34507 0.20941 0.0
H1073 H 0.46914 0.37035 0.48606 0.0
H1074 H 0.45096 0.34177 0.4655 0.0
H1075 H 0.48031 0.35237 0.47173 0.0
H1076 H 0.41524 0.272 0.39072 0.0
H1077 H 0.48531 0.29432 0.38998 0.0
H1078 H 0.41745 0.31774 0.32718 0.0
H1079 H 0.42006 0.32481 0.39978 0.0
H1080 H 0.40138 0.2965 0.37816 0.0
H1081 H 0.50344 0.345 0.32473 0.0
H1082 H 0.51247 0.33098 0.37252 0.0
H1083 H 0.5052 0.35095 0.3981 0.0
C1084 C 0.61061 0.0957 0.37597 0.0
C1085 C 0.6025 0.09098 0.32089 0.0
C1086 C 0.63358 0.10707 0.38665 0.0
C1087 C 0.64867 0.11388 0.34113 0.0
C1088 C 0.64054 0.10698 0.2861 0.0
C1089 C 0.61751 0.09551 0.27664 0.0
C1090 C 0.64162 0.1137 0.44611 0.0
C1091 C 0.65607 0.11373 0.23643 0.0
C1092 C 0.6995 0.17107 0.35517 0.0
C1093 C 0.7164 0.1661 0.36587 0.0
C1094 C 0.67749 0.15416 0.34676 0.0
C1095 C 0.67216 0.13163 0.34955 0.0
C1096 C 0.68913 0.12642 0.36011 0.0
C1097 C 0.71115 0.14377 0.36793 0.0
C1098 C 0.65991 0.16046 0.33502 0.0
C1099 C 0.68397 0.10258 0.36382 0.0
H1100 H 0.59912 0.09189 0.41054 0.0
H1101 H 0.61138 0.09156 0.23398 0.0
H1102 H 0.65632 0.11183 0.45463 0.0
H1103 H 0.64676 0.13149 0.45235 0.0
H1104 H 0.62839 0.10366 0.47709 0.0
H1105 H 0.64759 0.10377 0.19855 0.0
H1106 H 0.66229 0.13154 0.22677 0.0
H1107 H 0.67073 0.11188 0.2458 0.0
H1108 H 0.70345 0.18828 0.35324 0.0
H1109 H 0.72416 0.13984 0.37646 0.0
H1110 H 0.64692 0.15354 0.36805 0.0
H1111 H 0.65163 0.15325 0.29442 0.0
H1112 H 0.66692 0.17877 0.3334 0.0
H1113 H 0.67233 0.0941 0.39907 0.0
H1114 H 0.69918 0.10134 0.37032 0.0
H1115 H 0.67554 0.09345 0.325 0.0
C1116 C 0.52227 0.13568 0.33288 0.0
C1117 C 0.5142 0.1209 0.28747 0.0
C1118 C 0.51148 0.14724 0.35004 0.0
C1119 C 0.49217 0.14383 0.32117 0.0
C1120 C 0.4839 0.12885 0.27553 0.0
C1121 C 0.49508 0.11766 0.25907 0.0
C1122 C 0.5208 0.1632 0.39878 0.0
C1123 C 0.4633 0.12473 0.24388 0.0
C1124 C 0.45238 0.15804 0.39436 0.0
C1125 C 0.45799 0.17856 0.36989 0.0
C1126 C 0.46341 0.14655 0.37894 0.0
C1127 C 0.48058 0.15595 0.33846 0.0
C1128 C 0.48639 0.17669 0.31371 0.0
C1129 C 0.47497 0.18774 0.32963 0.0
C1130 C 0.45668 0.12437 0.40591 0.0
C1131 C 0.5047 0.18723 0.2705 0.0
H1132 H 0.53708 0.13832 0.35486 0.0
H1133 H 0.48891 0.10652 0.22345 0.0
H1134 H 0.52504 0.18016 0.38509 0.0
H1135 H 0.50807 0.15813 0.43227 0.0
H1136 H 0.53594 0.16396 0.41677 0.0
H1137 H 0.45882 0.11224 0.20995 0.0
H1138 H 0.44899 0.1188 0.27306 0.0
H1139 H 0.46595 0.1405 0.22507 0.0
H1140 H 0.43947 0.15095 0.42597 0.0
H1141 H 0.47947 0.20366 0.31077 0.0
H1142 H 0.47117 0.1251 0.42769 0.0
H1143 H 0.45122 0.11127 0.37329 0.0
H1144 H 0.44295 0.11936 0.43665 0.0
H1145 H 0.52053 0.18957 0.28823 0.0
H1146 H 0.50742 0.20361 0.25595 0.0
H1147 H 0.50055 0.17606 0.23371 0.0
C1148 C 0.84029 0.29037 0.3779 0.0
C1149 C 0.82038 0.27574 0.35032 0.0
C1150 C 0.85208 0.31306 0.36439 0.0
C1151 C 0.84366 0.32132 0.32256 0.0
C1152 C 0.82372 0.30663 0.29405 0.0
C1153 C 0.81232 0.28397 0.30824 0.0
C1154 C 0.87335 0.32824 0.39549 0.0
C1155 C 0.81425 0.31491 0.24923 0.0
C1156 C 0.86183 0.38276 0.32572 0.0
C1157 C 0.8781 0.39121 0.28361 0.0
C1158 C 0.85047 0.36 0.33886 0.0
C1159 C 0.85557 0.34543 0.30923 0.0
C1160 C 0.87207 0.35388 0.26696 0.0
C1161 C 0.88309 0.37667 0.25453 0.0
C1162 C 0.83292 0.35153 0.38417 0.0
C1163 C 0.87799 0.33883 0.23466 0.0
H1164 H 0.84653 0.28422 0.41085 0.0
H1165 H 0.79691 0.27277 0.28686 0.0
H1166 H 0.88724 0.33715 0.36537 0.0
H1167 H 0.87145 0.34103 0.41881 0.0
H1168 H 0.87801 0.31905 0.42565 0.0
H1169 H 0.7988 0.30124 0.2303 0.0
H1170 H 0.81043 0.32736 0.2673 0.0
H1171 H 0.8267 0.32335 0.21552 0.0
H1172 H 0.85784 0.39389 0.34823 0.0
H1173 H 0.89544 0.38301 0.22148 0.0
H1174 H 0.83732 0.34332 0.41769 0.0
H1175 H 0.81664 0.33884 0.36659 0.0
H1176 H 0.83095 0.36505 0.40326 0.0
H1177 H 0.88346 0.33008 0.26396 0.0
H1178 H 0.89146 0.3481 0.20359 0.0
H1179 H 0.8631 0.32591 0.21222 0.0
C1180 C 0.61209 0.47441 0.33435 0.0
C1181 C 0.60482 0.48318 0.29171 0.0
C1182 C 0.63451 0.48518 0.35072 0.0
C1183 C 0.64998 0.50524 0.32393 0.0
C1184 C 0.64272 0.5143 0.28126 0.0
C1185 C 0.62023 0.5031 0.26548 0.0
C1186 C 0.6417 0.475 0.3963 0.0
C1187 C 0.65874 0.53573 0.25199 0.0
C1188 C 0.70387 0.54315 0.40013 0.0
C1189 C 0.71888 0.53822 0.37319 0.0
C1190 C 0.68143 0.53268 0.38416 0.0
C1191 C 0.67378 0.51675 0.34053 0.0
C1192 C 0.68882 0.5117 0.31306 0.0
C1193 C 0.71123 0.52255 0.32967 0.0
C1194 C 0.66587 0.53854 0.41423 0.0
C1195 C 0.68119 0.49472 0.26647 0.0
H1196 H 0.60028 0.45898 0.35467 0.0
H1197 H 0.61482 0.50988 0.2321 0.0
H1198 H 0.65452 0.47137 0.37985 0.0
H1199 H 0.6494 0.48695 0.43139 0.0
H1200 H 0.62759 0.45934 0.41301 0.0
H1201 H 0.65033 0.54077 0.22037 0.0
H1202 H 0.66708 0.54933 0.28311 0.0
H1203 H 0.67194 0.53385 0.23071 0.0
H1204 H 0.70956 0.55503 0.43424 0.0
H1205 H 0.72272 0.51861 0.30877 0.0
H1206 H 0.65237 0.52352 0.43494 0.0
H1207 H 0.65789 0.54444 0.38369 0.0
H1208 H 0.67458 0.55165 0.44644 0.0
H1209 H 0.66801 0.47831 0.28215 0.0
H1210 H 0.69501 0.49279 0.24922 0.0
H1211 H 0.67382 0.49964 0.23195 0.0
C1212 C 0.57007 0.8539 0.63744 0.0
C1213 C 0.55349 0.83297 0.61829 0.0
C1214 C 0.56452 0.86958 0.65748 0.0
C1215 C 0.54189 0.86395 0.65907 0.0
C1216 C 0.52518 0.84298 0.63895 0.0
C1217 C 0.53121 0.82784 0.61851 0.0
C1218 C 0.58276 0.89194 0.67774 0.0
C1219 C 0.5008 0.83625 0.64021 0.0
C1220 C 0.51688 0.88716 0.76003 0.0
C1221 C 0.51067 0.89891 0.72337 0.0
C1222 C 0.52892 0.8772 0.74064 0.0
C1223 C 0.53511 0.87935 0.68348 0.0
C1224 C 0.53098 0.89319 0.64783 0.0
C1225 C 0.51865 0.90271 0.66813 0.0
C1226 C 0.53299 0.86257 0.78004 0.0
C1227 C 0.53781 0.89634 0.58697 0.0
H1228 H 0.58734 0.858 0.6371 0.0
H1229 H 0.5183 0.81171 0.60381 0.0
H1230 H 0.58119 0.90551 0.65763 0.0
H1231 H 0.58117 0.89334 0.7236 0.0
H1232 H 0.59961 0.8945 0.66883 0.0
H1233 H 0.48994 0.81935 0.62271 0.0
H1234 H 0.49555 0.83653 0.68398 0.0
H1235 H 0.49806 0.84828 0.61581 0.0
H1236 H 0.51099 0.88435 0.80296 0.0
H1237 H 0.51425 0.91214 0.63982 0.0
H1238 H 0.55018 0.86555 0.77531 0.0
H1239 H 0.52138 0.84485 0.76965 0.0
H1240 H 0.53034 0.86537 0.82453 0.0
H1241 H 0.55481 0.89878 0.58208 0.0
H1242 H 0.53741 0.91079 0.56819 0.0
H1243 H 0.52621 0.8812 0.56306 0.0
C1244 C 0.14088 0.71618 0.6411 0.0
C1245 C 0.15861 0.71961 0.60621 0.0
C1246 C 0.12686 0.69521 0.6651 0.0
C1247 C 0.13106 0.67755 0.65478 0.0
C1248 C 0.14836 0.68073 0.61774 0.0
C1249 C 0.16176 0.70165 0.5935 0.0
C1250 C 0.10817 0.69223 0.70313 0.0
C1251 C 0.15351 0.66236 0.60592 0.0
C1252 C 0.11942 0.63254 0.76032 0.0
C1253 C 0.1028 0.61368 0.73278 0.0
C1254 C 0.12775 0.6538 0.73723 0.0
C1255 C 0.11891 0.65626 0.68597 0.0
C1256 C 0.10069 0.63755 0.66082 0.0
C1257 C 0.09298 0.61638 0.68422 0.0
C1258 C 0.14732 0.67332 0.76519 0.0
C1259 C 0.09036 0.63963 0.60713 0.0
H1260 H 0.13824 0.72996 0.65064 0.0
H1261 H 0.17537 0.70414 0.56644 0.0
H1262 H 0.09266 0.67645 0.69344 0.0
H1263 H 0.11262 0.69126 0.74728 0.0
H1264 H 0.10481 0.70625 0.69945 0.0
H1265 H 0.16706 0.66737 0.57464 0.0
H1266 H 0.15861 0.65761 0.64528 0.0
H1267 H 0.13845 0.64736 0.5901 0.0
H1268 H 0.12699 0.63059 0.79806 0.0
H1269 H 0.07986 0.60187 0.66325 0.0
H1270 H 0.14435 0.68756 0.76904 0.0
H1271 H 0.16243 0.67889 0.73903 0.0
H1272 H 0.15071 0.66906 0.80756 0.0
H1273 H 0.08826 0.65447 0.60837 0.0
H1274 H 0.07389 0.62464 0.59908 0.0
H1275 H 0.1015 0.64177 0.57143 0.0
C1276 C 0.36501 0.5044 0.6998 0.0
C1277 C 0.38179 0.49907 0.70849 0.0
C1278 C 0.34299 0.48779 0.6899 0.0
C1279 C 0.33751 0.4652 0.68909 0.0
C1280 C 0.35434 0.45963 0.69768 0.0
C1281 C 0.37638 0.47669 0.70706 0.0
C1282 C 0.32557 0.49448 0.68038 0.0
C1283 C 0.34901 0.4357 0.69754 0.0
C1284 C 0.2758 0.42875 0.71295 0.0
C1285 C 0.2679 0.42511 0.65766 0.0
C1286 C 0.29874 0.43995 0.72419 0.0
C1287 C 0.31401 0.44776 0.67901 0.0
C1288 C 0.3061 0.44208 0.62339 0.0
C1289 C 0.2831 0.43073 0.61337 0.0
C1290 C 0.30653 0.44528 0.78419 0.0
C1291 C 0.32183 0.44997 0.57403 0.0
H1292 H 0.36908 0.52165 0.70057 0.0
H1293 H 0.3893 0.47248 0.71399 0.0
H1294 H 0.31743 0.48825 0.6391 0.0
H1295 H 0.31244 0.48688 0.71293 0.0
H1296 H 0.33269 0.51282 0.68153 0.0
H1297 H 0.3641 0.43419 0.70357 0.0
H1298 H 0.33698 0.42639 0.73148 0.0
H1299 H 0.34098 0.4276 0.65741 0.0
H1300 H 0.26416 0.42411 0.74749 0.0
H1301 H 0.27714 0.42767 0.57048 0.0
H1302 H 0.31175 0.46293 0.79304 0.0
H1303 H 0.32113 0.44312 0.79157 0.0
H1304 H 0.29315 0.43464 0.81423 0.0
H1305 H 0.32818 0.46799 0.5673 0.0
H1306 H 0.31349 0.44095 0.53493 0.0
H1307 H 0.3364 0.44782 0.58208 0.0
C1308 C 0.1875 0.47015 0.66878 0.0
C1309 C 0.17877 0.45437 0.62556 0.0
C1310 C 0.177 0.48215 0.68471 0.0
C1311 C 0.1573 0.47814 0.65687 0.0
C1312 C 0.14832 0.46211 0.61359 0.0
C1313 C 0.15923 0.45051 0.59827 0.0
C1314 C 0.18709 0.49922 0.73092 0.0
C1315 C 0.12726 0.45731 0.58315 0.0
C1316 C 0.11841 0.49398 0.7285 0.0
C1317 C 0.12348 0.51379 0.70075 0.0
C1318 C 0.12939 0.48228 0.71485 0.0
C1319 C 0.14599 0.49071 0.67282 0.0
C1320 C 0.15136 0.5108 0.64498 0.0
C1321 C 0.13997 0.52208 0.65919 0.0
C1322 C 0.12314 0.46082 0.74517 0.0
C1323 C 0.16906 0.52032 0.60009 0.0
H1324 H 0.20265 0.47329 0.68987 0.0
H1325 H 0.15251 0.43859 0.56433 0.0
H1326 H 0.19122 0.51585 0.71476 0.0
H1327 H 0.17487 0.49504 0.76533 0.0
H1328 H 0.20245 0.50031 0.74844 0.0
H1329 H 0.12223 0.444 0.55117 0.0
H1330 H 0.11341 0.45215 0.61351 0.0
H1331 H 0.12966 0.47261 0.56208 0.0
H1332 H 0.10591 0.48761 0.76118 0.0
H1333 H 0.14407 0.53746 0.63782 0.0
H1334 H 0.138 0.46206 0.76618 0.0
H1335 H 0.1171 0.44692 0.71467 0.0
H1336 H 0.10998 0.45662 0.77713 0.0
H1337 H 0.1851 0.52293 0.61705 0.0
H1338 H 0.17165 0.53641 0.58351 0.0
H1339 H 0.16434 0.50838 0.5648 0.0
C1340 C 0.50586 0.62273 0.72367 0.0
C1341 C 0.48596 0.60827 0.69586 0.0
C1342 C 0.51808 0.64534 0.70955 0.0
C1343 C 0.51008 0.65369 0.66689 0.0
C1344 C 0.49011 0.63917 0.63828 0.0
C1345 C 0.47827 0.61659 0.65309 0.0
C1346 C 0.53937 0.66034 0.74082 0.0
C1347 C 0.48108 0.64755 0.5926 0.0
C1348 C 0.52923 0.71532 0.66779 0.0
C1349 C 0.54556 0.72336 0.62583 0.0
C1350 C 0.51757 0.69265 0.68167 0.0
C1351 C 0.52243 0.67774 0.65296 0.0
C1352 C 0.53905 0.68577 0.61098 0.0
C1353 C 0.55037 0.7085 0.59777 0.0
C1354 C 0.49991 0.68464 0.72667 0.0
C1355 C 0.54472 0.67032 0.57969 0.0
H1356 H 0.5118 0.61651 0.75718 0.0
H1357 H 0.46288 0.60551 0.63151 0.0
H1358 H 0.55338 0.6689 0.71088 0.0
H1359 H 0.53772 0.67342 0.76343 0.0
H1360 H 0.54367 0.65107 0.77164 0.0
H1361 H 0.46554 0.63401 0.57372 0.0
H1362 H 0.47758 0.66035 0.60983 0.0
H1363 H 0.49368 0.65562 0.559 0.0
H1364 H 0.52538 0.72671 0.68953 0.0
H1365 H 0.5628 0.71453 0.56491 0.0
H1366 H 0.50397 0.67634 0.76067 0.0
H1367 H 0.48357 0.67212 0.70897 0.0
H1368 H 0.49821 0.69841 0.74517 0.0
H1369 H 0.54982 0.66146 0.60967 0.0
H1370 H 0.55837 0.6793 0.54891 0.0
H1371 H 0.52982 0.65751 0.55709 0.0
C1372 C 0.28635 0.8396 0.59224 0.0
C1373 C 0.27154 0.81969 0.61948 0.0
C1374 C 0.30922 0.85053 0.60388 0.0
C1375 C 0.31748 0.84121 0.64331 0.0
C1376 C 0.30265 0.82106 0.67075 0.0
C1377 C 0.27983 0.81057 0.65862 0.0
C1378 C 0.32455 0.8721 0.57414 0.0
C1379 C 0.31091 0.8106 0.71294 0.0
C1380 C 0.37901 0.85937 0.64056 0.0
C1381 C 0.38716 0.87468 0.68486 0.0
C1382 C 0.35632 0.84835 0.62635 0.0
C1383 C 0.34156 0.85287 0.65708 0.0
C1384 C 0.34973 0.86843 0.70149 0.0
C1385 C 0.3724 0.87905 0.71502 0.0
C1386 C 0.34811 0.83174 0.57887 0.0
C1387 C 0.33449 0.87375 0.73507 0.0
H1388 H 0.28014 0.84663 0.56148 0.0
H1389 H 0.2685 0.79511 0.67958 0.0
H1390 H 0.33328 0.88563 0.60524 0.0
H1391 H 0.33749 0.87049 0.55067 0.0
H1392 H 0.31548 0.87706 0.54438 0.0
H1393 H 0.29727 0.79462 0.72962 0.0
H1394 H 0.32363 0.80751 0.69342 0.0
H1395 H 0.31903 0.82217 0.74854 0.0
H1396 H 0.39031 0.85585 0.61724 0.0
H1397 H 0.37846 0.8906 0.74983 0.0
H1398 H 0.33997 0.83671 0.54646 0.0
H1399 H 0.3354 0.81512 0.59463 0.0
H1400 H 0.36177 0.83023 0.55889 0.0
H1401 H 0.3258 0.87964 0.70682 0.0
H1402 H 0.34361 0.88669 0.76743 0.0
H1403 H 0.32152 0.85849 0.75615 0.0
loop_
_geom_bond_atom_site_label_1
_geom_bond_atom_site_label_2
_geom_bond_distance
_geom_bond_site_symmetry_2
_ccdc_geom_bond_type
Mg0 O1 2.028 . S
Mg0 O7 1.986 . S
Mg0 O9 2.114 . S
Mg0 O10 2.251 . S
Mg0 O13 2.010 . S
O1 Mg0 2.028 . S
O1 C4 1.250 1_554 S
O2 Mg3 2.028 . S
O2 C4 1.248 1_554 S
Mg3 O2 2.028 . S
Mg3 O8 2.032 . S
Mg3 O10 2.079 . S
C4 O1 1.250 1_556 S
C4 O2 1.248 1_556 S
C5 O6 1.264 . S
C5 O13 1.249 . S
O6 C5 1.264 . S
O7 Mg0 1.986 . S
O7 C11 1.246 . S
O8 Mg3 2.032 . S
O8 C11 1.259 . S
O9 Mg0 2.114 . S
O9 C12 1.252 . S
O10 Mg0 2.251 . S
O10 Mg3 2.079 . S
O10 C12 1.273 . S
C11 O7 1.246 . S
C11 O8 1.259 . S
C12 O9 1.252 . S
C12 O10 1.273 . S
O13 Mg0 2.010 . S
O13 C5 1.249 . S
Mg14 O15 2.028 . S
Mg14 O21 1.986 . S
Mg14 O23 2.114 . S
Mg14 O24 2.251 . S
Mg14 O27 2.010 . S
O15 Mg14 2.028 . S
O15 C18 1.250 1_554 S
O16 Mg17 2.028 . S
O16 C18 1.248 1_554 S
Mg17 O16 2.028 . S
Mg17 O22 2.032 . S
Mg17 O24 2.079 . S
C18 O15 1.250 1_556 S
C18 O16 1.248 1_556 S
C19 O20 1.264 . S
C19 O27 1.249 . S
O20 C19 1.264 . S
O21 Mg14 1.986 . S
O21 C25 1.246 . S
O22 Mg17 2.032 . S
O22 C25 1.259 . S
O23 Mg14 2.114 . S
O23 C26 1.252 . S
O24 Mg14 2.251 . S
O24 Mg17 2.079 . S
O24 C26 1.273 . S
C25 O21 1.246 . S
C25 O22 1.259 . S
C26 O23 1.252 . S
C26 O24 1.273 . S
O27 Mg14 2.010 . S
O27 C19 1.249 . S
Mg28 O29 2.028 . S
Mg28 O35 1.986 . S
Mg28 O37 2.114 . S
Mg28 O38 2.251 . S
Mg28 O41 2.010 . S
O29 Mg28 2.028 . S
O29 C32 1.250 1_554 S
O30 Mg31 2.028 . S
O30 C32 1.248 1_554 S
Mg31 O30 2.028 . S
Mg31 O36 2.032 . S
Mg31 O38 2.079 . S
C32 O29 1.250 1_556 S
C32 O30 1.248 1_556 S
C33 O34 1.264 . S
C33 O41 1.249 . S
O34 C33 1.264 . S
O35 Mg28 1.986 . S
O35 C39 1.246 . S
O36 Mg31 2.032 . S
O36 C39 1.259 . S
O37 Mg28 2.114 . S
O37 C40 1.252 . S
O38 Mg28 2.251 . S
O38 Mg31 2.079 . S
O38 C40 1.273 . S
C39 O35 1.246 . S
C39 O36 1.259 . S
C40 O37 1.252 . S
C40 O38 1.273 . S
O41 Mg28 2.010 . S
O41 C33 1.249 . S
Mg42 O43 2.028 . S
Mg42 O49 1.986 . S
Mg42 O51 2.114 . S
Mg42 O52 2.251 . S
Mg42 O55 2.010 . S
O43 Mg42 2.028 . S
O43 C46 1.250 1_556 S
O44 Mg45 2.028 . S
O44 C46 1.248 1_556 S
Mg45 O44 2.028 . S
Mg45 O50 2.032 . S
Mg45 O52 2.079 . S
C46 O43 1.250 1_554 S
C46 O44 1.248 1_554 S
C47 O48 1.264 . S
C47 O55 1.249 . S
O48 C47 1.264 . S
O49 Mg42 1.986 . S
O49 C53 1.246 . S
O50 Mg45 2.032 . S
O50 C53 1.259 . S
O51 Mg42 2.114 . S
O51 C54 1.252 . S
O52 Mg42 2.251 . S
O52 Mg45 2.079 . S
O52 C54 1.273 . S
C53 O49 1.246 . S
C53 O50 1.259 . S
C54 O51 1.252 . S
C54 O52 1.273 . S
O55 Mg42 2.010 . S
O55 C47 1.249 . S
Mg56 O57 2.028 . S
Mg56 O63 1.986 . S
Mg56 O65 2.114 . S
Mg56 O66 2.251 . S
Mg56 O69 2.010 . S
O57 Mg56 2.028 . S
O57 C60 1.250 1_556 S
O58 Mg59 2.028 . S
O58 C60 1.248 1_556 S
Mg59 O58 2.028 . S
Mg59 O64 2.032 . S
Mg59 O66 2.079 . S
C60 O57 1.250 1_554 S
C60 O58 1.248 1_554 S
C61 O62 1.264 . S
C61 O69 1.249 . S
O62 C61 1.264 . S
O63 Mg56 1.986 . S
O63 C67 1.246 . S
O64 Mg59 2.032 . S
O64 C67 1.259 . S
O65 Mg56 2.114 . S
O65 C68 1.252 . S
O66 Mg56 2.251 . S
O66 Mg59 2.079 . S
O66 C68 1.273 . S
C67 O63 1.246 . S
C67 O64 1.259 . S
C68 O65 1.252 . S
C68 O66 1.273 . S
O69 Mg56 2.010 . S
O69 C61 1.249 . S
Mg70 O71 2.028 . S
Mg70 O77 1.986 . S
Mg70 O79 2.114 . S
Mg70 O80 2.251 . S
Mg70 O83 2.010 . S
O71 Mg70 2.028 . S
O71 C74 1.250 1_556 S
O72 Mg73 2.028 . S
O72 C74 1.248 1_556 S
Mg73 O72 2.028 . S
Mg73 O78 2.032 . S
Mg73 O80 2.079 . S
C74 O71 1.250 1_554 S
C74 O72 1.248 1_554 S
C75 O76 1.264 . S
C75 O83 1.249 . S
O76 C75 1.264 . S
O77 Mg70 1.986 . S
O77 C81 1.246 . S
O78 Mg73 2.032 . S
O78 C81 1.259 . S
O79 Mg70 2.114 . S
O79 C82 1.252 . S
O80 Mg70 2.251 . S
O80 Mg73 2.079 . S
O80 C82 1.273 . S
C81 O77 1.246 . S
C81 O78 1.259 . S
C82 O79 1.252 . S
C82 O80 1.273 . S
O83 Mg70 2.010 . S
O83 C75 1.249 . S
Mg84 O85 2.028 . S
Mg84 O91 1.986 . S
Mg84 O93 2.114 . S
Mg84 O94 2.251 . S
Mg84 O97 2.010 . S
O85 Mg84 2.028 . S
O85 C88 1.250 . S
O86 Mg87 2.028 . S
O86 C88 1.248 . S
Mg87 O86 2.028 . S
Mg87 O92 2.032 . S
Mg87 O94 2.079 . S
C88 O85 1.250 . S
C88 O86 1.248 . S
C89 O90 1.264 . S
C89 O97 1.249 . S
O90 C89 1.264 . S
O91 Mg84 1.986 . S
O91 C95 1.246 . S
O92 Mg87 2.032 . S
O92 C95 1.259 . S
O93 Mg84 2.114 . S
O93 C96 1.252 . S
O94 Mg84 2.251 . S
O94 Mg87 2.079 . S
O94 C96 1.273 . S
C95 O91 1.246 . S
C95 O92 1.259 . S
C96 O93 1.252 . S
C96 O94 1.273 . S
O97 Mg84 2.010 . S
O97 C89 1.249 . S
Mg98 O99 2.028 . S
Mg98 O105 1.986 . S
Mg98 O107 2.114 . S
Mg98 O108 2.251 . S
Mg98 O111 2.010 . S
O99 Mg98 2.028 . S
O99 C102 1.250 . S
O100 Mg101 2.028 . S
O100 C102 1.248 . S
Mg101 O100 2.028 . S
Mg101 O106 2.032 . S
Mg101 O108 2.079 . S
C102 O99 1.250 . S
C102 O100 1.248 . S
C103 O104 1.264 . S
C103 O111 1.249 . S
O104 C103 1.264 . S
O105 Mg98 1.986 . S
O105 C109 1.246 . S
O106 Mg101 2.032 . S
O106 C109 1.259 . S
O107 Mg98 2.114 . S
O107 C110 1.252 . S
O108 Mg98 2.251 . S
O108 Mg101 2.079 . S
O108 C110 1.273 . S
C109 O105 1.246 . S
C109 O106 1.259 . S
C110 O107 1.252 . S
C110 O108 1.273 . S
O111 Mg98 2.010 . S
O111 C103 1.249 . S
Mg112 O113 2.028 . S
Mg112 O119 1.986 . S
Mg112 O121 2.114 . S
Mg112 O122 2.251 . S
Mg112 O125 2.010 . S
O113 Mg112 2.028 . S
O113 C116 1.250 . S
O114 Mg115 2.028 . S
O114 C116 1.248 . S
Mg115 O114 2.028 . S
Mg115 O120 2.032 . S
Mg115 O122 2.079 . S
C116 O113 1.250 . S
C116 O114 1.248 . S
C117 O118 1.264 . S
C117 O125 1.249 . S
O118 C117 1.264 . S
O119 Mg112 1.986 . S
O119 C123 1.246 . S
O120 Mg115 2.032 . S
O120 C123 1.259 . S
O121 Mg112 2.114 . S
O121 C124 1.252 . S
O122 Mg112 2.251 . S
O122 Mg115 2.079 . S
O122 C124 1.273 . S
C123 O119 1.246 . S
C123 O120 1.259 . S
C124 O121 1.252 . S
C124 O122 1.273 . S
O125 Mg112 2.010 . S
O125 C117 1.249 . S
Mg126 O127 2.028 . S
Mg126 O133 1.986 . S
Mg126 O135 2.114 . S
Mg126 O136 2.251 . S
Mg126 O139 2.010 . S
O127 Mg126 2.028 . S
O127 C130 1.250 . S
O128 Mg129 2.028 . S
O128 C130 1.248 . S
Mg129 O128 2.028 . S
Mg129 O134 2.032 . S
Mg129 O136 2.079 . S
C130 O127 1.250 . S
C130 O128 1.248 . S
C131 O132 1.264 . S
C131 O139 1.249 . S
O132 C131 1.264 . S
O133 Mg126 1.986 . S
O133 C137 1.246 . S
O134 Mg129 2.032 . S
O134 C137 1.259 . S
O135 Mg126 2.114 . S
O135 C138 1.252 . S
O136 Mg126 2.251 . S
O136 Mg129 2.079 . S
O136 C138 1.273 . S
C137 O133 1.246 . S
C137 O134 1.259 . S
C138 O135 1.252 . S
C138 O136 1.273 . S
O139 Mg126 2.010 . S
O139 C131 1.249 . S
Mg140 O141 2.028 . S
Mg140 O147 1.986 . S
Mg140 O149 2.114 . S
Mg140 O150 2.251 . S
Mg140 O153 2.010 . S
O141 Mg140 2.028 . S
O141 C144 1.250 . S
O142 Mg143 2.028 . S
O142 C144 1.248 . S
Mg143 O142 2.028 . S
Mg143 O148 2.032 . S
Mg143 O150 2.079 . S
C144 O141 1.250 . S
C144 O142 1.248 . S
C145 O146 1.264 . S
C145 O153 1.249 . S
O146 C145 1.264 . S
O147 Mg140 1.986 . S
O147 C151 1.246 . S
O148 Mg143 2.032 . S
O148 C151 1.259 . S
O149 Mg140 2.114 . S
O149 C152 1.252 . S
O150 Mg140 2.251 . S
O150 Mg143 2.079 . S
O150 C152 1.273 . S
C151 O147 1.246 . S
C151 O148 1.259 . S
C152 O149 1.252 . S
C152 O150 1.273 . S
O153 Mg140 2.010 . S
O153 C145 1.249 . S
Mg154 O155 2.028 . S
Mg154 O161 1.986 . S
Mg154 O163 2.114 . S
Mg154 O164 2.251 . S
Mg154 O167 2.010 . S
O155 Mg154 2.028 . S
O155 C158 1.250 . S
O156 Mg157 2.028 . S
O156 C158 1.248 . S
Mg157 O156 2.028 . S
Mg157 O162 2.032 . S
Mg157 O164 2.079 . S
C158 O155 1.250 . S
C158 O156 1.248 . S
C159 O160 1.264 . S
C159 O167 1.249 . S
O160 C159 1.264 . S
O161 Mg154 1.986 . S
O161 C165 1.246 . S
O162 Mg157 2.032 . S
O162 C165 1.259 . S
O163 Mg154 2.114 . S
O163 C166 1.252 . S
O164 Mg154 2.251 . S
O164 Mg157 2.079 . S
O164 C166 1.273 . S
C165 O161 1.246 . S
C165 O162 1.259 . S
C166 O163 1.252 . S
C166 O164 1.273 . S
O167 Mg154 2.010 . S
O167 C159 1.249 . S
Mg168 O169 2.028 . S
Mg168 O175 1.986 . S
Mg168 O177 2.114 . S
Mg168 O178 2.251 . S
Mg168 O181 2.010 . S
O169 Mg168 2.028 . S
O169 C172 1.250 . S
O170 Mg171 2.028 . S
O170 C172 1.248 . S
Mg171 O170 2.028 . S
Mg171 O176 2.032 . S
Mg171 O178 2.079 . S
C172 O169 1.250 . S
C172 O170 1.248 . S
C173 O174 1.264 . S
C173 O181 1.249 . S
O174 C173 1.264 . S
O175 Mg168 1.986 . S
O175 C179 1.246 . S
O176 Mg171 2.032 . S
O176 C179 1.259 . S
O177 Mg168 2.114 . S
O177 C180 1.252 . S
O178 Mg168 2.251 . S
O178 Mg171 2.079 . S
O178 C180 1.273 . S
C179 O175 1.246 . S
C179 O176 1.259 . S
C180 O177 1.252 . S
C180 O178 1.273 . S
O181 Mg168 2.010 . S
O181 C173 1.249 . S
Mg182 O183 2.028 . S
Mg182 O189 1.986 . S
Mg182 O191 2.114 . S
Mg182 O192 2.251 . S
Mg182 O195 2.010 . S
O183 Mg182 2.028 . S
O183 C186 1.250 . S
O184 Mg185 2.028 . S
O184 C186 1.248 . S
Mg185 O184 2.028 . S
Mg185 O190 2.032 . S
Mg185 O192 2.079 . S
C186 O183 1.250 . S
C186 O184 1.248 . S
C187 O188 1.264 . S
C187 O195 1.249 . S
O188 C187 1.264 . S
O189 Mg182 1.986 . S
O189 C193 1.246 . S
O190 Mg185 2.032 . S
O190 C193 1.259 . S
O191 Mg182 2.114 . S
O191 C194 1.252 . S
O192 Mg182 2.251 . S
O192 Mg185 2.079 . S
O192 C194 1.273 . S
C193 O189 1.246 . S
C193 O190 1.259 . S
C194 O191 1.252 . S
C194 O192 1.273 . S
O195 Mg182 2.010 . S
O195 C187 1.249 . S
Mg196 O197 2.028 . S
Mg196 O203 1.986 . S
Mg196 O205 2.114 . S
Mg196 O206 2.251 . S
Mg196 O209 2.010 . S
O197 Mg196 2.028 . S
O197 C200 1.250 . S
O198 Mg199 2.028 . S
O198 C200 1.248 . S
Mg199 O198 2.028 . S
Mg199 O204 2.032 . S
Mg199 O206 2.079 . S
C200 O197 1.250 . S
C200 O198 1.248 . S
C201 O202 1.264 . S
C201 O209 1.249 . S
O202 C201 1.264 . S
O203 Mg196 1.986 . S
O203 C207 1.246 . S
O204 Mg199 2.032 . S
O204 C207 1.259 . S
O205 Mg196 2.114 . S
O205 C208 1.252 . S
O206 Mg196 2.251 . S
O206 Mg199 2.079 . S
O206 C208 1.273 . S
C207 O203 1.246 . S
C207 O204 1.259 . S
C208 O205 1.252 . S
C208 O206 1.273 . S
O209 Mg196 2.010 . S
O209 C201 1.249 . S
Mg210 O211 2.028 . S
Mg210 O217 1.986 . S
Mg210 O219 2.114 . S
Mg210 O220 2.251 . S
Mg210 O223 2.010 . S
O211 Mg210 2.028 . S
O211 C214 1.250 . S
O212 Mg213 2.028 . S
O212 C214 1.248 . S
Mg213 O212 2.028 . S
Mg213 O218 2.032 . S
Mg213 O220 2.079 . S
C214 O211 1.250 . S
C214 O212 1.248 . S
C215 O216 1.264 . S
C215 O223 1.249 . S
O216 C215 1.264 . S
O217 Mg210 1.986 . S
O217 C221 1.246 . S
O218 Mg213 2.032 . S
O218 C221 1.259 . S
O219 Mg210 2.114 . S
O219 C222 1.252 . S
O220 Mg210 2.251 . S
O220 Mg213 2.079 . S
O220 C222 1.273 . S
C221 O217 1.246 . S
C221 O218 1.259 . S
C222 O219 1.252 . S
C222 O220 1.273 . S
O223 Mg210 2.010 . S
O223 C215 1.249 . S
Mg224 O225 2.028 . S
Mg224 O231 1.986 . S
Mg224 O233 2.114 . S
Mg224 O234 2.251 . S
Mg224 O237 2.010 . S
O225 Mg224 2.028 . S
O225 C228 1.250 . S
O226 Mg227 2.028 . S
O226 C228 1.248 . S
Mg227 O226 2.028 . S
Mg227 O232 2.032 . S
Mg227 O234 2.079 . S
C228 O225 1.250 . S
C228 O226 1.248 . S
C229 O230 1.264 . S
C229 O237 1.249 . S
O230 C229 1.264 . S
O231 Mg224 1.986 . S
O231 C235 1.246 . S
O232 Mg227 2.032 . S
O232 C235 1.259 . S
O233 Mg224 2.114 . S
O233 C236 1.252 . S
O234 Mg224 2.251 . S
O234 Mg227 2.079 . S
O234 C236 1.273 . S
C235 O231 1.246 . S
C235 O232 1.259 . S
C236 O233 1.252 . S
C236 O234 1.273 . S
O237 Mg224 2.010 . S
O237 C229 1.249 . S
Mg238 O239 2.028 . S
Mg238 O245 1.986 . S
Mg238 O247 2.114 . S
Mg238 O248 2.251 . S
Mg238 O251 2.010 . S
O239 Mg238 2.028 . S
O239 C242 1.250 . S
O240 Mg241 2.028 . S
O240 C242 1.248 . S
Mg241 O240 2.028 . S
Mg241 O246 2.032 . S
Mg241 O248 2.079 . S
C242 O239 1.250 . S
C242 O240 1.248 . S
C243 O244 1.264 . S
C243 O251 1.249 . S
O244 C243 1.264 . S
O245 Mg238 1.986 . S
O245 C249 1.246 . S
O246 Mg241 2.032 . S
O246 C249 1.259 . S
O247 Mg238 2.114 . S
O247 C250 1.252 . S
O248 Mg238 2.251 . S
O248 Mg241 2.079 . S
O248 C250 1.273 . S
C249 O245 1.246 . S
C249 O246 1.259 . S
C250 O247 1.252 . S
C250 O248 1.273 . S
O251 Mg238 2.010 . S
O251 C243 1.249 . S
C252 C253 1.391 . S
C252 C254 1.394 . S
C252 H268 0.931 . S
C253 C252 1.391 . S
C253 C257 1.376 . S
C254 C252 1.394 . S
C254 C255 1.369 . S
C254 C258 1.531 . S
C255 C254 1.369 . S
C255 C256 1.410 . S
C255 C263 1.503 . S
C256 C255 1.410 . S
C256 C257 1.392 . S
C256 C259 1.511 . S
C257 C253 1.376 . S
C257 C256 1.392 . S
C257 H269 0.929 . S
C258 C254 1.531 . S
C258 H270 0.960 . S
C258 H271 0.962 . S
C258 H272 0.960 . S
C259 C256 1.511 . S
C259 H273 0.961 . S
C259 H274 0.961 . S
C259 H275 0.961 . S
C260 C261 1.370 . S
C260 C262 1.363 . S
C260 H276 0.931 . S
C261 C260 1.370 . S
C261 C265 1.408 . S
C262 C260 1.363 . S
C262 C263 1.370 . S
C262 C266 1.524 . S
C263 C255 1.503 . S
C263 C262 1.370 . S
C263 C264 1.403 . S
C264 C263 1.403 . S
C264 C265 1.404 . S
C264 C267 1.539 . S
C265 C261 1.408 . S
C265 C264 1.404 . S
C265 H277 0.930 . S
C266 C262 1.524 . S
C266 H278 0.956 . S
C266 H279 0.961 . S
C266 H280 0.961 . S
C267 C264 1.539 . S
C267 H281 0.958 . S
C267 H282 0.961 . S
C267 H283 0.960 . S
H268 C252 0.931 . S
H269 C257 0.929 . S
H270 C258 0.960 . S
H271 C258 0.962 . S
H272 C258 0.960 . S
H273 C259 0.961 . S
H274 C259 0.961 . S
H275 C259 0.961 . S
H276 C260 0.931 . S
H277 C265 0.930 . S
H278 C266 0.956 . S
H279 C266 0.961 . S
H280 C266 0.961 . S
H281 C267 0.958 . S
H282 C267 0.961 . S
H283 C267 0.960 . S
C284 C285 1.391 . S
C284 C286 1.394 . S
C284 H300 0.931 . S
C285 C284 1.391 . S
C285 C289 1.376 . S
C286 C284 1.394 . S
C286 C287 1.369 . S
C286 C290 1.531 . S
C287 C286 1.369 . S
C287 C288 1.410 . S
C287 C295 1.503 . S
C288 C287 1.410 . S
C288 C289 1.392 . S
C288 C291 1.511 . S
C289 C285 1.376 . S
C289 C288 1.392 . S
C289 H301 0.929 . S
C290 C286 1.531 . S
C290 H302 0.960 . S
C290 H303 0.962 . S
C290 H304 0.960 . S
C291 C288 1.511 . S
C291 H305 0.961 . S
C291 H306 0.961 . S
C291 H307 0.961 . S
C292 C293 1.370 . S
C292 C294 1.363 . S
C292 H308 0.931 . S
C293 C292 1.370 . S
C293 C297 1.408 . S
C294 C292 1.363 . S
C294 C295 1.370 . S
C294 C298 1.524 . S
C295 C287 1.503 . S
C295 C294 1.370 . S
C295 C296 1.403 . S
C296 C295 1.403 . S
C296 C297 1.404 . S
C296 C299 1.539 . S
C297 C293 1.408 . S
C297 C296 1.404 . S
C297 H309 0.930 . S
C298 C294 1.524 . S
C298 H310 0.956 . S
C298 H311 0.961 . S
C298 H312 0.961 . S
C299 C296 1.539 . S
C299 H313 0.958 . S
C299 H314 0.961 . S
C299 H315 0.960 . S
H300 C284 0.931 . S
H301 C289 0.929 . S
H302 C290 0.960 . S
H303 C290 0.962 . S
H304 C290 0.960 . S
H305 C291 0.961 . S
H306 C291 0.961 . S
H307 C291 0.961 . S
H308 C292 0.931 . S
H309 C297 0.930 . S
H310 C298 0.956 . S
H311 C298 0.961 . S
H312 C298 0.961 . S
H313 C299 0.958 . S
H314 C299 0.961 . S
H315 C299 0.960 . S
C316 C317 1.391 . S
C316 C318 1.394 . S
C316 H332 0.931 . S
C317 C316 1.391 . S
C317 C321 1.376 . S
C318 C316 1.394 . S
C318 C319 1.369 . S
C318 C322 1.531 . S
C319 C318 1.369 . S
C319 C320 1.410 . S
C319 C327 1.503 . S
C320 C319 1.410 . S
C320 C321 1.392 . S
C320 C323 1.511 . S
C321 C317 1.376 . S
C321 C320 1.392 . S
C321 H333 0.929 . S
C322 C318 1.531 . S
C322 H334 0.960 . S
C322 H335 0.962 . S
C322 H336 0.960 . S
C323 C320 1.511 . S
C323 H337 0.961 . S
C323 H338 0.961 . S
C323 H339 0.961 . S
C324 C325 1.370 . S
C324 C326 1.363 . S
C324 H340 0.931 . S
C325 C324 1.370 . S
C325 C329 1.408 . S
C326 C324 1.363 . S
C326 C327 1.370 . S
C326 C330 1.524 . S
C327 C319 1.503 . S
C327 C326 1.370 . S
C327 C328 1.403 . S
C328 C327 1.403 . S
C328 C329 1.404 . S
C328 C331 1.539 . S
C329 C325 1.408 . S
C329 C328 1.404 . S
C329 H341 0.930 . S
C330 C326 1.524 . S
C330 H342 0.956 . S
C330 H343 0.961 . S
C330 H344 0.961 . S
C331 C328 1.539 . S
C331 H345 0.958 . S
C331 H346 0.961 . S
C331 H347 0.960 . S
H332 C316 0.931 . S
H333 C321 0.929 . S
H334 C322 0.960 . S
H335 C322 0.962 . S
H336 C322 0.960 . S
H337 C323 0.961 . S
H338 C323 0.961 . S
H339 C323 0.961 . S
H340 C324 0.931 . S
H341 C329 0.930 . S
H342 C330 0.956 . S
H343 C330 0.961 . S
H344 C330 0.961 . S
H345 C331 0.958 . S
H346 C331 0.961 . S
H347 C331 0.960 . S
C348 C349 1.391 . S
C348 C350 1.394 . S
C348 H364 0.931 . S
C349 C348 1.391 . S
C349 C353 1.376 . S
C350 C348 1.394 . S
C350 C351 1.369 . S
C350 C354 1.531 . S
C351 C350 1.369 . S
C351 C352 1.410 . S
C351 C359 1.503 . S
C352 C351 1.410 . S
C352 C353 1.392 . S
C352 C355 1.511 . S
C353 C349 1.376 . S
C353 C352 1.392 . S
C353 H365 0.929 . S
C354 C350 1.531 . S
C354 H366 0.960 . S
C354 H367 0.962 . S
C354 H368 0.960 . S
C355 C352 1.511 . S
C355 H369 0.961 . S
C355 H370 0.961 . S
C355 H371 0.961 . S
C356 C357 1.370 . S
C356 C358 1.363 . S
C356 H372 0.931 . S
C357 C356 1.370 . S
C357 C361 1.408 . S
C358 C356 1.363 . S
C358 C359 1.370 . S
C358 C362 1.524 . S
C359 C351 1.503 . S
C359 C358 1.370 . S
C359 C360 1.403 . S
C360 C359 1.403 . S
C360 C361 1.404 . S
C360 C363 1.539 . S
C361 C357 1.408 . S
C361 C360 1.404 . S
C361 H373 0.930 . S
C362 C358 1.524 . S
C362 H374 0.956 . S
C362 H375 0.961 . S
C362 H376 0.961 . S
C363 C360 1.539 . S
C363 H377 0.958 . S
C363 H378 0.961 . S
C363 H379 0.960 . S
H364 C348 0.931 . S
H365 C353 0.929 . S
H366 C354 0.960 . S
H367 C354 0.962 . S
H368 C354 0.960 . S
H369 C355 0.961 . S
H370 C355 0.961 . S
H371 C355 0.961 . S
H372 C356 0.931 . S
H373 C361 0.930 . S
H374 C362 0.956 . S
H375 C362 0.961 . S
H376 C362 0.961 . S
H377 C363 0.958 . S
H378 C363 0.961 . S
H379 C363 0.960 . S
C380 C381 1.391 . S
C380 C382 1.394 . S
C380 H396 0.931 . S
C381 C380 1.391 . S
C381 C385 1.376 . S
C382 C380 1.394 . S
C382 C383 1.369 . S
C382 C386 1.531 . S
C383 C382 1.369 . S
C383 C384 1.410 . S
C383 C391 1.503 . S
C384 C383 1.410 . S
C384 C385 1.392 . S
C384 C387 1.511 . S
C385 C381 1.376 . S
C385 C384 1.392 . S
C385 H397 0.929 . S
C386 C382 1.531 . S
C386 H398 0.960 . S
C386 H399 0.962 . S
C386 H400 0.960 . S
C387 C384 1.511 . S
C387 H401 0.961 . S
C387 H402 0.961 . S
C387 H403 0.961 . S
C388 C389 1.370 . S
C388 C390 1.363 . S
C388 H404 0.931 . S
C389 C388 1.370 . S
C389 C393 1.408 . S
C390 C388 1.363 . S
C390 C391 1.370 . S
C390 C394 1.524 . S
C391 C383 1.503 . S
C391 C390 1.370 . S
C391 C392 1.403 . S
C392 C391 1.403 . S
C392 C393 1.404 . S
C392 C395 1.539 . S
C393 C389 1.408 . S
C393 C392 1.404 . S
C393 H405 0.930 . S
C394 C390 1.524 . S
C394 H406 0.956 . S
C394 H407 0.961 . S
C394 H408 0.961 . S
C395 C392 1.539 . S
C395 H409 0.958 . S
C395 H410 0.961 . S
C395 H411 0.960 . S
H396 C380 0.931 . S
H397 C385 0.929 . S
H398 C386 0.960 . S
H399 C386 0.962 . S
H400 C386 0.960 . S
H401 C387 0.961 . S
H402 C387 0.961 . S
H403 C387 0.961 . S
H404 C388 0.931 . S
H405 C393 0.930 . S
H406 C394 0.956 . S
H407 C394 0.961 . S
H408 C394 0.961 . S
H409 C395 0.958 . S
H410 C395 0.961 . S
H411 C395 0.960 . S
C412 C413 1.391 . S
C412 C414 1.394 . S
C412 H428 0.931 . S
C413 C412 1.391 . S
C413 C417 1.376 . S
C414 C412 1.394 . S
C414 C415 1.369 . S
C414 C418 1.531 . S
C415 C414 1.369 . S
C415 C416 1.410 . S
C415 C423 1.503 . S
C416 C415 1.410 . S
C416 C417 1.392 . S
C416 C419 1.511 . S
C417 C413 1.376 . S
C417 C416 1.392 . S
C417 H429 0.929 . S
C418 C414 1.531 . S
C418 H430 0.960 . S
C418 H431 0.962 . S
C418 H432 0.960 . S
C419 C416 1.511 . S
C419 H433 0.961 . S
C419 H434 0.961 . S
C419 H435 0.961 . S
C420 C421 1.370 . S
C420 C422 1.363 . S
C420 H436 0.931 . S
C421 C420 1.370 . S
C421 C425 1.408 . S
C422 C420 1.363 . S
C422 C423 1.370 . S
C422 C426 1.524 . S
C423 C415 1.503 . S
C423 C422 1.370 . S
C423 C424 1.403 . S
C424 C423 1.403 . S
C424 C425 1.404 . S
C424 C427 1.539 . S
C425 C421 1.408 . S
C425 C424 1.404 . S
C425 H437 0.930 . S
C426 C422 1.524 . S
C426 H438 0.956 . S
C426 H439 0.961 . S
C426 H440 0.961 . S
C427 C424 1.539 . S
C427 H441 0.958 . S
C427 H442 0.961 . S
C427 H443 0.960 . S
H428 C412 0.931 . S
H429 C417 0.929 . S
H430 C418 0.960 . S
H431 C418 0.962 . S
H432 C418 0.960 . S
H433 C419 0.961 . S
H434 C419 0.961 . S
H435 C419 0.961 . S
H436 C420 0.931 . S
H437 C425 0.930 . S
H438 C426 0.956 . S
H439 C426 0.961 . S
H440 C426 0.961 . S
H441 C427 0.958 . S
H442 C427 0.961 . S
H443 C427 0.960 . S
C444 C445 1.391 . S
C444 C446 1.394 . S
C444 H460 0.931 . S
C445 C444 1.391 . S
C445 C449 1.376 . S
C446 C444 1.394 . S
C446 C447 1.369 . S
C446 C450 1.531 . S
C447 C446 1.369 . S
C447 C448 1.410 . S
C447 C455 1.503 1_654 S
C448 C447 1.410 . S
C448 C449 1.392 . S
C448 C451 1.511 1_655 S
C449 C445 1.376 . S
C449 C448 1.392 . S
C449 H461 0.929 . S
C450 C446 1.531 . S
C450 H462 0.960 1_654 S
C450 H463 0.962 1_554 S
C450 H464 0.960 . S
C451 C448 1.511 1_455 S
C451 H465 0.960 1_455 S
C451 H466 0.961 . S
C451 H467 0.961 . S
C452 C453 1.370 . S
C452 C454 1.386 . S
C452 H468 0.931 . S
C453 C452 1.370 . S
C453 C457 1.408 . S
C454 C452 1.386 . S
C454 C455 1.382 . S
C454 C458 1.492 1_455 S
C455 C447 1.503 1_456 S
C455 C454 1.382 . S
C455 C456 1.403 . S
C456 C455 1.403 . S
C456 C457 1.404 . S
C456 C459 1.539 1_556 S
C457 C453 1.408 . S
C457 C456 1.404 . S
C457 H469 0.930 . S
C458 C454 1.492 1_655 S
C458 H470 0.956 . S
C458 H471 0.961 . S
C458 H472 0.961 . S
C459 C456 1.539 1_554 S
C459 H473 0.958 . S
C459 H474 0.961 . S
C459 H475 0.960 . S
H460 C444 0.931 . S
H461 C449 0.929 . S
H462 C450 0.960 1_456 S
H463 C450 0.962 1_556 S
H464 C450 0.960 . S
H465 C451 0.960 1_655 S
H466 C451 0.961 . S
H467 C451 0.961 . S
H468 C452 0.931 . S
H469 C457 0.930 . S
H470 C458 0.956 . S
H471 C458 0.961 . S
H472 C458 0.961 . S
H473 C459 0.958 . S
H474 C459 0.961 . S
H475 C459 0.960 . S
C476 C477 1.391 . S
C476 C478 1.394 . S
C476 H492 0.931 . S
C477 C476 1.391 . S
C477 C481 1.376 . S
C478 C476 1.394 . S
C478 C479 1.369 . S
C478 C482 1.531 1_554 S
C479 C478 1.369 . S
C479 C480 1.410 . S
C479 C487 1.503 1_554 S
C480 C479 1.410 . S
C480 C481 1.392 . S
C480 C483 1.511 . S
C481 C477 1.376 . S
C481 C480 1.392 . S
C481 H493 0.929 . S
C482 C478 1.531 1_556 S
C482 H494 0.960 . S
C482 H495 0.962 . S
C482 H496 0.960 . S
C483 C480 1.511 . S
C483 H497 0.961 . S
C483 H498 0.961 . S
C483 H499 0.961 . S
C484 C485 1.370 . S
C484 C486 1.363 . S
C484 H500 0.931 . S
C485 C484 1.370 . S
C485 C489 1.408 . S
C486 C484 1.363 . S
C486 C487 1.370 . S
C486 C490 1.524 1_556 S
C487 C479 1.503 1_556 S
C487 C486 1.370 . S
C487 C488 1.403 . S
C488 C487 1.403 . S
C488 C489 1.404 . S
C488 C491 1.539 . S
C489 C485 1.408 . S
C489 C488 1.404 . S
C489 H501 0.930 . S
C490 C486 1.524 1_554 S
C490 H502 0.956 . S
C490 H503 0.961 . S
C490 H504 0.961 1_554 S
C491 C488 1.539 . S
C491 H505 0.958 . S
C491 H506 0.961 . S
C491 H507 0.960 . S
H492 C476 0.931 . S
H493 C481 0.929 . S
H494 C482 0.960 . S
H495 C482 0.962 . S
H496 C482 0.960 . S
H497 C483 0.961 . S
H498 C483 0.961 . S
H499 C483 0.961 . S
H500 C484 0.931 . S
H501 C489 0.930 . S
H502 C490 0.956 . S
H503 C490 0.961 . S
H504 C490 0.961 1_556 S
H505 C491 0.958 . S
H506 C491 0.961 . S
H507 C491 0.960 . S
C508 C509 1.391 . S
C508 C510 1.394 . S
C508 H524 0.931 . S
C509 C508 1.391 . S
C509 C513 1.376 . S
C510 C508 1.394 . S
C510 C511 1.369 . S
C510 C514 1.531 1_545 S
C511 C510 1.369 . S
C511 C512 1.410 . S
C511 C519 1.503 1_544 S
C512 C511 1.410 . S
C512 C513 1.392 . S
C512 C515 1.507 1_554 S
C513 C509 1.376 . S
C513 C512 1.392 . S
C513 H525 0.929 . S
C514 C510 1.531 1_565 S
C514 H526 0.960 . S
C514 H527 0.962 . S
C514 H528 0.960 . S
C515 C512 1.507 1_556 S
C515 H529 0.960 . S
C515 H530 0.967 . S
C515 H531 0.959 1_556 S
C516 C517 1.370 . S
C516 C518 1.363 . S
C516 H532 0.931 . S
C517 C516 1.370 . S
C517 C521 1.408 . S
C518 C516 1.363 . S
C518 C519 1.370 . S
C518 C522 1.524 1_565 S
C519 C511 1.503 1_566 S
C519 C518 1.370 . S
C519 C520 1.403 . S
C520 C519 1.403 . S
C520 C521 1.404 . S
C520 C523 1.539 1_556 S
C521 C517 1.408 . S
C521 C520 1.404 . S
C521 H533 0.930 . S
C522 C518 1.524 1_545 S
C522 H534 0.956 . S
C522 H535 0.961 . S
C522 H536 0.961 . S
C523 C520 1.539 1_554 S
C523 H537 0.958 . S
C523 H538 0.961 . S
C523 H539 0.960 . S
H524 C508 0.931 . S
H525 C513 0.929 . S
H526 C514 0.960 . S
H527 C514 0.962 . S
H528 C514 0.960 . S
H529 C515 0.960 . S
H530 C515 0.967 . S
H531 C515 0.959 1_554 S
H532 C516 0.931 . S
H533 C521 0.930 . S
H534 C522 0.956 . S
H535 C522 0.961 . S
H536 C522 0.961 . S
H537 C523 0.958 . S
H538 C523 0.961 . S
H539 C523 0.960 . S
C540 C541 1.391 . S
C540 C542 1.394 . S
C540 H556 0.931 . S
C541 C540 1.391 . S
C541 C545 1.376 . S
C542 C540 1.394 . S
C542 C543 1.369 . S
C542 C546 1.531 . S
C543 C542 1.369 . S
C543 C544 1.410 . S
C543 C551 1.503 . S
C544 C543 1.410 . S
C544 C545 1.392 . S
C544 C547 1.511 . S
C545 C541 1.376 . S
C545 C544 1.392 . S
C545 H557 0.929 . S
C546 C542 1.531 . S
C546 H558 0.960 . S
C546 H559 0.962 . S
C546 H560 0.960 . S
C547 C544 1.511 . S
C547 H561 0.961 . S
C547 H562 0.961 . S
C547 H563 0.961 . S
C548 C549 1.370 . S
C548 C550 1.363 . S
C548 H564 0.931 . S
C549 C548 1.370 . S
C549 C553 1.408 . S
C550 C548 1.363 . S
C550 C551 1.370 . S
C550 C554 1.524 . S
C551 C543 1.503 . S
C551 C550 1.370 . S
C551 C552 1.403 . S
C552 C551 1.403 . S
C552 C553 1.404 . S
C552 C555 1.539 . S
C553 C549 1.408 . S
C553 C552 1.404 . S
C553 H565 0.930 . S
C554 C550 1.524 . S
C554 H566 0.956 . S
C554 H567 0.961 . S
C554 H568 0.961 . S
C555 C552 1.539 . S
C555 H569 0.958 . S
C555 H570 0.961 . S
C555 H571 0.960 . S
H556 C540 0.931 . S
H557 C545 0.929 . S
H558 C546 0.960 . S
H559 C546 0.962 . S
H560 C546 0.960 . S
H561 C547 0.961 . S
H562 C547 0.961 . S
H563 C547 0.961 . S
H564 C548 0.931 . S
H565 C553 0.930 . S
H566 C554 0.956 . S
H567 C554 0.961 . S
H568 C554 0.961 . S
H569 C555 0.958 . S
H570 C555 0.961 . S
H571 C555 0.960 . S
C572 C573 1.391 . S
C572 C574 1.394 . S
C572 H588 0.931 . S
C573 C572 1.391 . S
C573 C577 1.376 . S
C574 C572 1.394 . S
C574 C575 1.369 . S
C574 C578 1.531 . S
C575 C574 1.369 . S
C575 C576 1.410 . S
C575 C583 1.503 . S
C576 C575 1.410 . S
C576 C577 1.392 . S
C576 C579 1.511 . S
C577 C573 1.376 . S
C577 C576 1.392 . S
C577 H589 0.929 . S
C578 C574 1.531 . S
C578 H590 0.960 . S
C578 H591 0.962 . S
C578 H592 0.960 . S
C579 C576 1.511 . S
C579 H593 0.961 . S
C579 H594 0.961 . S
C579 H595 0.961 . S
C580 C581 1.370 . S
C580 C582 1.363 . S
C580 H596 0.931 . S
C581 C580 1.370 . S
C581 C585 1.408 . S
C582 C580 1.363 . S
C582 C583 1.370 . S
C582 C586 1.524 . S
C583 C575 1.503 . S
C583 C582 1.370 . S
C583 C584 1.403 . S
C584 C583 1.403 . S
C584 C585 1.404 . S
C584 C587 1.539 . S
C585 C581 1.408 . S
C585 C584 1.404 . S
C585 H597 0.930 . S
C586 C582 1.524 . S
C586 H598 0.956 . S
C586 H599 0.961 . S
C586 H600 0.961 . S
C587 C584 1.539 . S
C587 H601 0.958 . S
C587 H602 0.961 . S
C587 H603 0.960 . S
H588 C572 0.931 . S
H589 C577 0.929 . S
H590 C578 0.960 . S
H591 C578 0.962 . S
H592 C578 0.960 . S
H593 C579 0.961 . S
H594 C579 0.961 . S
H595 C579 0.961 . S
H596 C580 0.931 . S
H597 C585 0.930 . S
H598 C586 0.956 . S
H599 C586 0.961 . S
H600 C586 0.961 . S
H601 C587 0.958 . S
H602 C587 0.961 . S
H603 C587 0.960 . S
C604 C605 1.391 . S
C604 C606 1.394 . S
C604 H620 0.931 . S
C605 C604 1.391 . S
C605 C609 1.376 . S
C606 C604 1.394 . S
C606 C607 1.369 . S
C606 C610 1.531 . S
C607 C606 1.369 . S
C607 C608 1.410 . S
C607 C615 1.503 . S
C608 C607 1.410 . S
C608 C609 1.392 . S
C608 C611 1.511 . S
C609 C605 1.376 . S
C609 C608 1.392 . S
C609 H621 0.929 . S
C610 C606 1.531 . S
C610 H622 0.960 . S
C610 H623 0.962 . S
C610 H624 0.960 . S
C611 C608 1.511 . S
C611 H625 0.961 . S
C611 H626 0.961 . S
C611 H627 0.961 . S
C612 C613 1.370 . S
C612 C614 1.363 . S
C612 H628 0.931 . S
C613 C612 1.370 . S
C613 C617 1.408 . S
C614 C612 1.363 . S
C614 C615 1.370 . S
C614 C618 1.524 . S
C615 C607 1.503 . S
C615 C614 1.370 . S
C615 C616 1.403 . S
C616 C615 1.403 . S
C616 C617 1.404 . S
C616 C619 1.539 . S
C617 C613 1.408 . S
C617 C616 1.404 . S
C617 H629 0.930 . S
C618 C614 1.524 . S
C618 H630 0.956 . S
C618 H631 0.961 . S
C618 H632 0.961 . S
C619 C616 1.539 . S
C619 H633 0.958 . S
C619 H634 0.961 . S
C619 H635 0.960 . S
H620 C604 0.931 . S
H621 C609 0.929 . S
H622 C610 0.960 . S
H623 C610 0.962 . S
H624 C610 0.960 . S
H625 C611 0.961 . S
H626 C611 0.961 . S
H627 C611 0.961 . S
H628 C612 0.931 . S
H629 C617 0.930 . S
H630 C618 0.956 . S
H631 C618 0.961 . S
H632 C618 0.961 . S
H633 C619 0.958 . S
H634 C619 0.961 . S
H635 C619 0.960 . S
C636 C637 1.391 . S
C636 C638 1.394 . S
C636 H652 0.931 . S
C637 C636 1.391 . S
C637 C641 1.376 . S
C638 C636 1.394 . S
C638 C639 1.369 . S
C638 C642 1.531 . S
C639 C638 1.369 . S
C639 C640 1.410 . S
C639 C647 1.503 . S
C640 C639 1.410 . S
C640 C641 1.392 . S
C640 C643 1.511 . S
C641 C637 1.376 . S
C641 C640 1.392 . S
C641 H653 0.929 . S
C642 C638 1.531 . S
C642 H654 0.960 . S
C642 H655 0.962 . S
C642 H656 0.960 . S
C643 C640 1.511 . S
C643 H657 0.961 . S
C643 H658 0.961 . S
C643 H659 0.961 . S
C644 C645 1.370 . S
C644 C646 1.363 . S
C644 H660 0.931 . S
C645 C644 1.370 . S
C645 C649 1.408 . S
C646 C644 1.363 . S
C646 C647 1.370 . S
C646 C650 1.524 . S
C647 C639 1.503 . S
C647 C646 1.370 . S
C647 C648 1.403 . S
C648 C647 1.403 . S
C648 C649 1.404 . S
C648 C651 1.539 . S
C649 C645 1.408 . S
C649 C648 1.404 . S
C649 H661 0.930 . S
C650 C646 1.524 . S
C650 H662 0.956 . S
C650 H663 0.961 . S
C650 H664 0.961 . S
C651 C648 1.539 . S
C651 H665 0.958 . S
C651 H666 0.961 . S
C651 H667 0.960 . S
H652 C636 0.931 . S
H653 C641 0.929 . S
H654 C642 0.960 . S
H655 C642 0.962 . S
H656 C642 0.960 . S
H657 C643 0.961 . S
H658 C643 0.961 . S
H659 C643 0.961 . S
H660 C644 0.931 . S
H661 C649 0.930 . S
H662 C650 0.956 . S
H663 C650 0.961 . S
H664 C650 0.961 . S
H665 C651 0.958 . S
H666 C651 0.961 . S
H667 C651 0.960 . S
C668 C669 1.391 . S
C668 C670 1.394 . S
C668 H684 0.931 . S
C669 C668 1.391 . S
C669 C673 1.376 . S
C670 C668 1.394 . S
C670 C671 1.369 . S
C670 C674 1.531 . S
C671 C670 1.369 . S
C671 C672 1.410 . S
C671 C679 1.503 . S
C672 C671 1.410 . S
C672 C673 1.392 . S
C672 C675 1.511 . S
C673 C669 1.376 . S
C673 C672 1.392 . S
C673 H685 0.929 . S
C674 C670 1.531 . S
C674 H686 0.960 . S
C674 H687 0.962 . S
C674 H688 0.960 . S
C675 C672 1.511 . S
C675 H689 0.961 . S
C675 H690 0.961 . S
C675 H691 0.961 . S
C676 C677 1.370 . S
C676 C678 1.363 . S
C676 H692 0.931 . S
C677 C676 1.370 . S
C677 C681 1.408 . S
C678 C676 1.363 . S
C678 C679 1.370 . S
C678 C682 1.524 . S
C679 C671 1.503 . S
C679 C678 1.370 . S
C679 C680 1.403 . S
C680 C679 1.403 . S
C680 C681 1.404 . S
C680 C683 1.539 . S
C681 C677 1.408 . S
C681 C680 1.404 . S
C681 H693 0.930 . S
C682 C678 1.524 . S
C682 H694 0.956 . S
C682 H695 0.961 . S
C682 H696 0.961 . S
C683 C680 1.539 . S
C683 H697 0.958 . S
C683 H698 0.961 . S
C683 H699 0.960 . S
H684 C668 0.931 . S
H685 C673 0.929 . S
H686 C674 0.960 . S
H687 C674 0.962 . S
H688 C674 0.960 . S
H689 C675 0.961 . S
H690 C675 0.961 . S
H691 C675 0.961 . S
H692 C676 0.931 . S
H693 C681 0.930 . S
H694 C682 0.956 . S
H695 C682 0.961 . S
H696 C682 0.961 . S
H697 C683 0.958 . S
H698 C683 0.961 . S
H699 C683 0.960 . S
C700 C701 1.391 . S
C700 C702 1.394 . S
C700 H716 0.931 . S
C701 C700 1.391 . S
C701 C705 1.376 . S
C702 C700 1.394 . S
C702 C703 1.369 . S
C702 C706 1.531 . S
C703 C702 1.369 . S
C703 C704 1.410 . S
C703 C711 1.503 . S
C704 C703 1.410 . S
C704 C705 1.392 . S
C704 C707 1.511 . S
C705 C701 1.376 . S
C705 C704 1.392 . S
C705 H717 0.929 . S
C706 C702 1.531 . S
C706 H718 0.960 . S
C706 H719 0.962 . S
C706 H720 0.960 . S
C707 C704 1.511 . S
C707 H721 0.961 . S
C707 H722 0.961 . S
C707 H723 0.961 . S
C708 C709 1.370 . S
C708 C710 1.363 . S
C708 H724 0.931 . S
C709 C708 1.370 . S
C709 C713 1.408 . S
C710 C708 1.363 . S
C710 C711 1.370 . S
C710 C714 1.524 . S
C711 C703 1.503 . S
C711 C710 1.370 . S
C711 C712 1.403 . S
C712 C711 1.403 . S
C712 C713 1.404 . S
C712 C715 1.539 . S
C713 C709 1.408 . S
C713 C712 1.404 . S
C713 H725 0.930 . S
C714 C710 1.524 . S
C714 H726 0.956 . S
C714 H727 0.961 . S
C714 H728 0.961 . S
C715 C712 1.539 . S
C715 H729 0.958 . S
C715 H730 0.961 . S
C715 H731 0.960 . S
H716 C700 0.931 . S
H717 C705 0.929 . S
H718 C706 0.960 . S
H719 C706 0.962 . S
H720 C706 0.960 . S
H721 C707 0.961 . S
H722 C707 0.961 . S
H723 C707 0.961 . S
H724 C708 0.931 . S
H725 C713 0.930 . S
H726 C714 0.956 . S
H727 C714 0.961 . S
H728 C714 0.961 . S
H729 C715 0.958 . S
H730 C715 0.961 . S
H731 C715 0.960 . S
C732 C733 1.391 . S
C732 C734 1.394 . S
C732 H748 0.931 . S
C733 C732 1.391 . S
C733 C737 1.376 . S
C734 C732 1.394 . S
C734 C735 1.369 . S
C734 C738 1.531 . S
C735 C734 1.369 . S
C735 C736 1.409 . S
C735 C743 1.503 1_655 S
C736 C735 1.409 . S
C736 C737 1.403 . S
C736 C739 1.501 1_655 S
C737 C733 1.376 . S
C737 C736 1.403 . S
C737 H749 0.929 . S
C738 C734 1.531 . S
C738 H750 0.960 . S
C738 H751 0.962 . S
C738 H752 0.960 . S
C739 C736 1.501 1_455 S
C739 H753 0.961 . S
C739 H754 0.961 . S
C739 H755 0.961 . S
C740 C741 1.370 . S
C740 C742 1.363 . S
C740 H756 0.931 . S
C741 C740 1.370 . S
C741 C745 1.408 . S
C742 C740 1.363 . S
C742 C743 1.370 . S
C742 C746 1.524 1_455 S
C743 C735 1.503 1_455 S
C743 C742 1.370 . S
C743 C744 1.403 . S
C744 C743 1.403 . S
C744 C745 1.404 . S
C744 C747 1.539 . S
C745 C741 1.408 . S
C745 C744 1.404 . S
C745 H757 0.930 . S
C746 C742 1.524 1_655 S
C746 H758 0.956 . S
C746 H759 0.961 . S
C746 H760 0.961 . S
C747 C744 1.539 . S
C747 H761 0.958 . S
C747 H762 0.961 . S
C747 H763 0.960 . S
H748 C732 0.931 . S
H749 C737 0.929 . S
H750 C738 0.960 . S
H751 C738 0.962 . S
H752 C738 0.960 . S
H753 C739 0.961 . S
H754 C739 0.961 . S
H755 C739 0.961 . S
H756 C740 0.931 . S
H757 C745 0.930 . S
H758 C746 0.956 . S
H759 C746 0.961 . S
H760 C746 0.961 . S
H761 C747 0.958 . S
H762 C747 0.961 . S
H763 C747 0.960 . S
C764 C765 1.391 . S
C764 C766 1.394 . S
C764 H780 0.931 . S
C765 C764 1.391 . S
C765 C769 1.376 . S
C766 C764 1.394 . S
C766 C767 1.369 . S
C766 C770 1.531 . S
C767 C766 1.369 . S
C767 C768 1.410 . S
C767 C775 1.503 . S
C768 C767 1.410 . S
C768 C769 1.392 . S
C768 C771 1.511 . S
C769 C765 1.376 . S
C769 C768 1.392 . S
C769 H781 0.929 . S
C770 C766 1.531 . S
C770 H782 0.960 . S
C770 H783 0.962 . S
C770 H784 0.960 . S
C771 C768 1.511 . S
C771 H785 0.961 . S
C771 H786 0.961 . S
C771 H787 0.961 . S
C772 C773 1.370 . S
C772 C774 1.363 . S
C772 H788 0.931 . S
C773 C772 1.370 . S
C773 C777 1.408 . S
C774 C772 1.363 . S
C774 C775 1.370 . S
C774 C778 1.524 . S
C775 C767 1.503 . S
C775 C774 1.370 . S
C775 C776 1.403 . S
C776 C775 1.403 . S
C776 C777 1.404 . S
C776 C779 1.539 . S
C777 C773 1.408 . S
C777 C776 1.404 . S
C777 H789 0.930 . S
C778 C774 1.524 . S
C778 H790 0.956 . S
C778 H791 0.961 . S
C778 H792 0.961 . S
C779 C776 1.539 . S
C779 H793 0.958 . S
C779 H794 0.961 . S
C779 H795 0.960 . S
H780 C764 0.931 . S
H781 C769 0.929 . S
H782 C770 0.960 . S
H783 C770 0.962 . S
H784 C770 0.960 . S
H785 C771 0.961 . S
H786 C771 0.961 . S
H787 C771 0.961 . S
H788 C772 0.931 . S
H789 C777 0.930 . S
H790 C778 0.956 . S
H791 C778 0.961 . S
H792 C778 0.961 . S
H793 C779 0.958 . S
H794 C779 0.961 . S
H795 C779 0.960 . S
C796 C797 1.391 . S
C796 C798 1.394 . S
C796 H812 0.931 . S
C797 C796 1.391 . S
C797 C801 1.376 . S
C798 C796 1.394 . S
C798 C799 1.369 . S
C798 C802 1.531 1_565 S
C799 C798 1.369 . S
C799 C800 1.410 . S
C799 C807 1.503 1_565 S
C800 C799 1.410 . S
C800 C801 1.392 . S
C800 C803 1.511 . S
C801 C797 1.376 . S
C801 C800 1.392 . S
C801 H813 0.929 . S
C802 C798 1.531 1_545 S
C802 H814 0.960 . S
C802 H815 0.962 . S
C802 H816 0.960 . S
C803 C800 1.511 . S
C803 H817 0.961 . S
C803 H818 0.961 . S
C803 H819 0.961 . S
C804 C805 1.370 . S
C804 C806 1.363 . S
C804 H820 0.931 . S
C805 C804 1.370 . S
C805 C809 1.408 . S
C806 C804 1.363 . S
C806 C807 1.370 . S
C806 C810 1.524 1_545 S
C807 C799 1.503 1_545 S
C807 C806 1.370 . S
C807 C808 1.403 . S
C808 C807 1.403 . S
C808 C809 1.404 . S
C808 C811 1.539 . S
C809 C805 1.408 . S
C809 C808 1.404 . S
C809 H821 0.930 . S
C810 C806 1.524 1_565 S
C810 H822 0.956 . S
C810 H823 0.961 . S
C810 H824 0.961 . S
C811 C808 1.539 . S
C811 H825 0.958 . S
C811 H826 0.961 . S
C811 H827 0.960 . S
H812 C796 0.931 . S
H813 C801 0.929 . S
H814 C802 0.960 . S
H815 C802 0.962 . S
H816 C802 0.960 . S
H817 C803 0.961 . S
H818 C803 0.961 . S
H819 C803 0.961 . S
H820 C804 0.931 . S
H821 C809 0.930 . S
H822 C810 0.956 . S
H823 C810 0.961 . S
H824 C810 0.961 . S
H825 C811 0.958 . S
H826 C811 0.961 . S
H827 C811 0.960 . S
C828 C829 1.391 . S
C828 C830 1.394 . S
C828 H844 0.931 . S
C829 C828 1.391 . S
C829 C833 1.376 . S
C830 C828 1.394 . S
C830 C831 1.369 1_554 S
C830 C834 1.531 1_554 S
C831 C830 1.369 1_556 S
C831 C832 1.410 . S
C831 C839 1.503 . S
C832 C831 1.410 . S
C832 C833 1.392 1_556 S
C832 C835 1.511 . S
C833 C829 1.376 . S
C833 C832 1.392 1_554 S
C833 H845 0.929 . S
C834 C830 1.531 1_556 S
C834 H846 0.960 . S
C834 H847 0.962 1_556 S
C834 H848 0.960 . S
C835 C832 1.511 . S
C835 H849 0.961 1_556 S
C835 H850 0.961 . S
C835 H851 0.961 . S
C836 C837 1.370 1_554 S
C836 C838 1.363 . S
C836 H852 0.931 . S
C837 C836 1.370 1_556 S
C837 C841 1.408 . S
C838 C836 1.363 . S
C838 C839 1.370 1_554 S
C838 C842 1.524 . S
C839 C831 1.503 . S
C839 C838 1.370 1_556 S
C839 C840 1.403 . S
C840 C839 1.403 . S
C840 C841 1.404 . S
C840 C843 1.539 . S
C841 C837 1.408 . S
C841 C840 1.404 . S
C841 H853 0.930 . S
C842 C838 1.524 . S
C842 H854 0.956 . S
C842 H855 0.961 . S
C842 H856 0.961 . S
C843 C840 1.539 . S
C843 H857 0.958 . S
C843 H858 0.961 . S
C843 H859 0.960 . S
H844 C828 0.931 . S
H845 C833 0.929 . S
H846 C834 0.960 . S
H847 C834 0.962 1_554 S
H848 C834 0.960 . S
H849 C835 0.961 1_554 S
H850 C835 0.961 . S
H851 C835 0.961 . S
H852 C836 0.931 . S
H853 C841 0.930 . S
H854 C842 0.956 . S
H855 C842 0.961 . S
H856 C842 0.961 . S
H857 C843 0.958 . S
H858 C843 0.961 . S
H859 C843 0.960 . S
C860 C861 1.391 1_554 S
C860 C862 1.394 . S
C860 H876 0.931 . S
C861 C860 1.391 1_556 S
C861 C865 1.376 . S
C862 C860 1.394 . S
C862 C863 1.369 . S
C862 C866 1.531 . S
C863 C862 1.369 . S
C863 C864 1.410 1_554 S
C863 C871 1.503 1_545 S
C864 C863 1.410 1_556 S
C864 C865 1.392 . S
C864 C867 1.511 . S
C865 C861 1.376 . S
C865 C864 1.392 . S
C865 H877 0.929 . S
C866 C862 1.531 . S
C866 H878 0.960 . S
C866 H879 0.962 . S
C866 H880 0.960 . S
C867 C864 1.511 . S
C867 H881 0.961 . S
C867 H882 0.961 1_545 S
C867 H883 0.961 . S
C868 C869 1.370 1_556 S
C868 C870 1.363 . S
C868 H884 0.931 . S
C869 C868 1.370 1_554 S
C869 C873 1.408 . S
C870 C868 1.363 . S
C870 C871 1.370 1_556 S
C870 C874 1.524 . S
C871 C863 1.503 1_565 S
C871 C870 1.370 1_554 S
C871 C872 1.403 . S
C872 C871 1.403 . S
C872 C873 1.404 . S
C872 C875 1.539 . S
C873 C869 1.408 . S
C873 C872 1.404 . S
C873 H885 0.930 . S
C874 C870 1.524 . S
C874 H886 0.956 . S
C874 H887 0.961 . S
C874 H888 0.961 . S
C875 C872 1.539 . S
C875 H889 0.958 . S
C875 H890 0.961 . S
C875 H891 0.960 1_565 S
H876 C860 0.931 . S
H877 C865 0.929 . S
H878 C866 0.960 . S
H879 C866 0.962 . S
H880 C866 0.960 . S
H881 C867 0.961 . S
H882 C867 0.961 1_565 S
H883 C867 0.961 . S
H884 C868 0.931 . S
H885 C873 0.930 . S
H886 C874 0.956 . S
H887 C874 0.961 . S
H888 C874 0.961 . S
H889 C875 0.958 . S
H890 C875 0.961 . S
H891 C875 0.960 1_545 S
C892 C893 1.391 . S
C892 C894 1.394 . S
C892 H908 0.931 . S
C893 C892 1.391 . S
C893 C897 1.376 1_556 S
C894 C892 1.394 . S
C894 C895 1.369 . S
C894 C898 1.531 . S
C895 C894 1.369 . S
C895 C896 1.410 1_556 S
C895 C903 1.503 1_656 S
C896 C895 1.410 1_554 S
C896 C897 1.392 . S
C896 C899 1.511 . S
C897 C893 1.376 1_554 S
C897 C896 1.392 . S
C897 H909 0.929 . S
C898 C894 1.531 . S
C898 H910 0.960 1_655 S
C898 H911 0.962 1_655 S
C898 H912 0.960 . S
C899 C896 1.511 . S
C899 H913 0.961 . S
C899 H914 0.961 . S
C899 H915 0.961 . S
C900 C901 1.370 . S
C900 C902 1.363 . S
C900 H916 0.931 . S
C901 C900 1.370 . S
C901 C905 1.408 . S
C902 C900 1.363 . S
C902 C903 1.370 . S
C902 C906 1.524 . S
C903 C895 1.503 1_454 S
C903 C902 1.370 . S
C903 C904 1.403 . S
C904 C903 1.403 . S
C904 C905 1.404 . S
C904 C907 1.539 . S
C905 C901 1.408 . S
C905 C904 1.404 . S
C905 H917 0.930 . S
C906 C902 1.524 . S
C906 H918 0.956 1_554 S
C906 H919 0.961 1_455 S
C906 H920 0.961 . S
C907 C904 1.539 . S
C907 H921 0.958 1_554 S
C907 H922 0.961 . S
C907 H923 0.917 1_455 S
H908 C892 0.931 . S
H909 C897 0.929 . S
H910 C898 0.960 1_455 S
H911 C898 0.962 1_455 S
H912 C898 0.960 . S
H913 C899 0.961 . S
H914 C899 0.961 . S
H915 C899 0.961 . S
H916 C900 0.931 . S
H917 C905 0.930 . S
H918 C906 0.956 1_556 S
H919 C906 0.961 1_655 S
H920 C906 0.961 . S
H921 C907 0.958 1_556 S
H922 C907 0.961 . S
H923 C907 0.917 1_655 S
C924 C925 1.391 . S
C924 C926 1.394 . S
C924 H940 0.931 . S
C925 C924 1.391 . S
C925 C929 1.376 . S
C926 C924 1.394 . S
C926 C927 1.369 1_556 S
C926 C930 1.531 . S
C927 C926 1.369 1_554 S
C927 C928 1.410 . S
C927 C935 1.503 . S
C928 C927 1.410 . S
C928 C929 1.392 1_554 S
C928 C931 1.511 . S
C929 C925 1.376 . S
C929 C928 1.392 1_556 S
C929 H941 0.929 . S
C930 C926 1.531 . S
C930 H942 0.960 1_556 S
C930 H943 0.962 . S
C930 H944 0.960 . S
C931 C928 1.511 . S
C931 H945 0.961 . S
C931 H946 0.961 . S
C931 H947 0.961 . S
C932 C933 1.370 1_556 S
C932 C934 1.363 . S
C932 H948 0.931 . S
C933 C932 1.370 1_554 S
C933 C937 1.408 . S
C934 C932 1.363 . S
C934 C935 1.370 1_556 S
C934 C938 1.524 . S
C935 C927 1.503 . S
C935 C934 1.370 1_554 S
C935 C936 1.403 . S
C936 C935 1.403 . S
C936 C937 1.404 . S
C936 C939 1.539 . S
C937 C933 1.408 . S
C937 C936 1.404 . S
C937 H949 0.930 . S
C938 C934 1.524 . S
C938 H950 0.956 . S
C938 H951 0.961 . S
C938 H952 0.961 . S
C939 C936 1.539 . S
C939 H953 0.958 . S
C939 H954 0.961 . S
C939 H955 0.960 . S
H940 C924 0.931 . S
H941 C929 0.929 . S
H942 C930 0.960 1_554 S
H943 C930 0.962 . S
H944 C930 0.960 . S
H945 C931 0.961 . S
H946 C931 0.961 . S
H947 C931 0.961 . S
H948 C932 0.931 . S
H949 C937 0.930 . S
H950 C938 0.956 . S
H951 C938 0.961 . S
H952 C938 0.961 . S
H953 C939 0.958 . S
H954 C939 0.961 . S
H955 C939 0.960 . S
C956 C957 1.391 . S
C956 C958 1.394 . S
C956 H972 0.931 . S
C957 C956 1.391 . S
C957 C961 1.376 1_554 S
C958 C956 1.394 . S
C958 C959 1.369 . S
C958 C962 1.531 . S
C959 C958 1.369 . S
C959 C960 1.410 1_554 S
C959 C967 1.503 1_564 S
C960 C959 1.410 1_556 S
C960 C961 1.392 . S
C960 C963 1.511 . S
C961 C957 1.376 1_556 S
C961 C960 1.392 . S
C961 H973 0.929 . S
C962 C958 1.531 . S
C962 H974 0.960 1_565 S
C962 H975 0.962 1_565 S
C962 H976 0.960 . S
C963 C960 1.511 . S
C963 H977 0.961 . S
C963 H978 0.961 . S
C963 H979 0.961 . S
C964 C965 1.370 . S
C964 C966 1.363 . S
C964 H980 0.931 . S
C965 C964 1.370 . S
C965 C969 1.408 . S
C966 C964 1.363 . S
C966 C967 1.370 . S
C966 C970 1.524 . S
C967 C959 1.503 1_546 S
C967 C966 1.370 . S
C967 C968 1.403 . S
C968 C967 1.403 . S
C968 C969 1.404 . S
C968 C971 1.539 . S
C969 C965 1.408 . S
C969 C968 1.404 . S
C969 H981 0.930 . S
C970 C966 1.524 . S
C970 H982 0.956 1_556 S
C970 H983 0.961 1_545 S
C970 H984 0.961 . S
C971 C968 1.539 . S
C971 H985 0.958 1_556 S
C971 H986 0.961 . S
C971 H987 0.960 1_545 S
H972 C956 0.931 . S
H973 C961 0.929 . S
H974 C962 0.960 1_545 S
H975 C962 0.962 1_545 S
H976 C962 0.960 . S
H977 C963 0.961 . S
H978 C963 0.961 . S
H979 C963 0.961 . S
H980 C964 0.931 . S
H981 C969 0.930 . S
H982 C970 0.956 1_554 S
H983 C970 0.961 1_565 S
H984 C970 0.961 . S
H985 C971 0.958 1_554 S
H986 C971 0.961 . S
H987 C971 0.960 1_565 S
C988 C989 1.391 1_554 S
C988 C990 1.394 . S
C988 H1004 0.931 . S
C989 C988 1.391 1_556 S
C989 C993 1.376 . S
C990 C988 1.394 . S
C990 C991 1.370 1_554 S
C990 C994 1.531 . S
C991 C990 1.370 1_556 S
C991 C992 1.408 . S
C991 C999 1.504 1_656 S
C992 C991 1.408 . S
C992 C993 1.392 . S
C992 C995 1.511 . S
C993 C989 1.376 . S
C993 C992 1.392 . S
C993 H1005 0.929 . S
C994 C990 1.531 . S
C994 H1006 0.960 . S
C994 H1007 0.962 . S
C994 H1008 0.960 . S
C995 C992 1.511 . S
C995 H1009 0.961 . S
C995 H1010 0.961 1_655 S
C995 H1011 0.961 . S
C996 C997 1.370 . S
C996 C998 1.363 1_554 S
C996 H1012 0.931 1_554 S
C997 C996 1.370 . S
C997 C1001 1.408 . S
C998 C996 1.363 1_556 S
C998 C999 1.370 1_556 S
C998 C1002 1.524 . S
C999 C991 1.504 1_454 S
C999 C998 1.370 1_554 S
C999 C1000 1.403 . S
C1000 C999 1.403 . S
C1000 C1001 1.404 . S
C1000 C1003 1.539 . S
C1001 C997 1.408 . S
C1001 C1000 1.404 . S
C1001 H1013 0.930 . S
C1002 C998 1.524 . S
C1002 H1014 0.956 . S
C1002 H1015 0.961 . S
C1002 H1016 0.961 . S
C1003 C1000 1.539 . S
C1003 H1017 0.958 . S
C1003 H1018 0.961 . S
C1003 H1019 0.960 1_455 S
H1004 C988 0.931 . S
H1005 C993 0.929 . S
H1006 C994 0.960 . S
H1007 C994 0.962 . S
H1008 C994 0.960 . S
H1009 C995 0.961 . S
H1010 C995 0.961 1_455 S
H1011 C995 0.961 . S
H1012 C996 0.931 1_556 S
H1013 C1001 0.930 . S
H1014 C1002 0.956 . S
H1015 C1002 0.961 . S
H1016 C1002 0.961 . S
H1017 C1003 0.958 . S
H1018 C1003 0.961 . S
H1019 C1003 0.960 1_655 S
C1020 C1021 1.391 . S
C1020 C1022 1.394 . S
C1020 H1036 0.931 . S
C1021 C1020 1.391 . S
C1021 C1025 1.376 . S
C1022 C1020 1.394 . S
C1022 C1023 1.369 . S
C1022 C1026 1.531 . S
C1023 C1022 1.369 . S
C1023 C1024 1.410 . S
C1023 C1031 1.503 . S
C1024 C1023 1.410 . S
C1024 C1025 1.392 . S
C1024 C1027 1.511 . S
C1025 C1021 1.376 . S
C1025 C1024 1.392 . S
C1025 H1037 0.929 . S
C1026 C1022 1.531 . S
C1026 H1038 0.960 . S
C1026 H1039 0.962 . S
C1026 H1040 0.960 . S
C1027 C1024 1.511 . S
C1027 H1041 0.961 . S
C1027 H1042 0.961 . S
C1027 H1043 0.961 . S
C1028 C1029 1.370 . S
C1028 C1030 1.363 . S
C1028 H1044 0.931 . S
C1029 C1028 1.370 . S
C1029 C1033 1.408 . S
C1030 C1028 1.363 . S
C1030 C1031 1.370 . S
C1030 C1034 1.524 . S
C1031 C1023 1.503 . S
C1031 C1030 1.370 . S
C1031 C1032 1.403 . S
C1032 C1031 1.403 . S
C1032 C1033 1.404 . S
C1032 C1035 1.539 . S
C1033 C1029 1.408 . S
C1033 C1032 1.404 . S
C1033 H1045 0.930 . S
C1034 C1030 1.524 . S
C1034 H1046 0.956 . S
C1034 H1047 0.961 . S
C1034 H1048 0.961 . S
C1035 C1032 1.539 . S
C1035 H1049 0.958 . S
C1035 H1050 0.961 . S
C1035 H1051 0.960 . S
H1036 C1020 0.931 . S
H1037 C1025 0.929 . S
H1038 C1026 0.960 . S
H1039 C1026 0.962 . S
H1040 C1026 0.960 . S
H1041 C1027 0.961 . S
H1042 C1027 0.961 . S
H1043 C1027 0.961 . S
H1044 C1028 0.931 . S
H1045 C1033 0.930 . S
H1046 C1034 0.956 . S
H1047 C1034 0.961 . S
H1048 C1034 0.961 . S
H1049 C1035 0.958 . S
H1050 C1035 0.961 . S
H1051 C1035 0.960 . S
C1052 C1053 1.391 . S
C1052 C1054 1.394 . S
C1052 H1068 0.931 . S
C1053 C1052 1.391 . S
C1053 C1057 1.376 . S
C1054 C1052 1.394 . S
C1054 C1055 1.369 . S
C1054 C1058 1.531 . S
C1055 C1054 1.369 . S
C1055 C1056 1.410 . S
C1055 C1063 1.503 . S
C1056 C1055 1.410 . S
C1056 C1057 1.392 . S
C1056 C1059 1.511 . S
C1057 C1053 1.376 . S
C1057 C1056 1.392 . S
C1057 H1069 0.929 . S
C1058 C1054 1.531 . S
C1058 H1070 0.960 . S
C1058 H1071 0.962 . S
C1058 H1072 0.960 . S
C1059 C1056 1.511 . S
C1059 H1073 0.961 . S
C1059 H1074 0.961 . S
C1059 H1075 0.961 . S
C1060 C1061 1.370 . S
C1060 C1062 1.363 . S
C1060 H1076 0.931 . S
C1061 C1060 1.370 . S
C1061 C1065 1.408 . S
C1062 C1060 1.363 . S
C1062 C1063 1.370 . S
C1062 C1066 1.524 . S
C1063 C1055 1.503 . S
C1063 C1062 1.370 . S
C1063 C1064 1.403 . S
C1064 C1063 1.403 . S
C1064 C1065 1.404 . S
C1064 C1067 1.539 . S
C1065 C1061 1.408 . S
C1065 C1064 1.404 . S
C1065 H1077 0.930 . S
C1066 C1062 1.524 . S
C1066 H1078 0.956 . S
C1066 H1079 0.961 . S
C1066 H1080 0.961 . S
C1067 C1064 1.539 . S
C1067 H1081 0.958 . S
C1067 H1082 0.961 . S
C1067 H1083 0.960 . S
H1068 C1052 0.931 . S
H1069 C1057 0.929 . S
H1070 C1058 0.960 . S
H1071 C1058 0.962 . S
H1072 C1058 0.960 . S
H1073 C1059 0.961 . S
H1074 C1059 0.961 . S
H1075 C1059 0.961 . S
H1076 C1060 0.931 . S
H1077 C1065 0.930 . S
H1078 C1066 0.956 . S
H1079 C1066 0.961 . S
H1080 C1066 0.961 . S
H1081 C1067 0.958 . S
H1082 C1067 0.961 . S
H1083 C1067 0.960 . S
C1084 C1085 1.391 . S
C1084 C1086 1.394 . S
C1084 H1100 0.931 . S
C1085 C1084 1.391 . S
C1085 C1089 1.376 . S
C1086 C1084 1.394 . S
C1086 C1087 1.369 . S
C1086 C1090 1.531 . S
C1087 C1086 1.369 . S
C1087 C1088 1.410 . S
C1087 C1095 1.503 . S
C1088 C1087 1.410 . S
C1088 C1089 1.392 . S
C1088 C1091 1.511 . S
C1089 C1085 1.376 . S
C1089 C1088 1.392 . S
C1089 H1101 0.929 . S
C1090 C1086 1.531 . S
C1090 H1102 0.960 . S
C1090 H1103 0.962 . S
C1090 H1104 0.960 . S
C1091 C1088 1.511 . S
C1091 H1105 0.961 . S
C1091 H1106 0.961 . S
C1091 H1107 0.961 . S
C1092 C1093 1.370 . S
C1092 C1094 1.363 . S
C1092 H1108 0.931 . S
C1093 C1092 1.370 . S
C1093 C1097 1.408 . S
C1094 C1092 1.363 . S
C1094 C1095 1.370 . S
C1094 C1098 1.524 . S
C1095 C1087 1.503 . S
C1095 C1094 1.370 . S
C1095 C1096 1.403 . S
C1096 C1095 1.403 . S
C1096 C1097 1.404 . S
C1096 C1099 1.539 . S
C1097 C1093 1.408 . S
C1097 C1096 1.404 . S
C1097 H1109 0.930 . S
C1098 C1094 1.524 . S
C1098 H1110 0.956 . S
C1098 H1111 0.961 . S
C1098 H1112 0.961 . S
C1099 C1096 1.539 . S
C1099 H1113 0.958 . S
C1099 H1114 0.961 . S
C1099 H1115 0.960 . S
H1100 C1084 0.931 . S
H1101 C1089 0.929 . S
H1102 C1090 0.960 . S
H1103 C1090 0.962 . S
H1104 C1090 0.960 . S
H1105 C1091 0.961 . S
H1106 C1091 0.961 . S
H1107 C1091 0.961 . S
H1108 C1092 0.931 . S
H1109 C1097 0.930 . S
H1110 C1098 0.956 . S
H1111 C1098 0.961 . S
H1112 C1098 0.961 . S
H1113 C1099 0.958 . S
H1114 C1099 0.961 . S
H1115 C1099 0.960 . S
C1116 C1117 1.391 . S
C1116 C1118 1.394 . S
C1116 H1132 0.931 . S
C1117 C1116 1.391 . S
C1117 C1121 1.376 . S
C1118 C1116 1.394 . S
C1118 C1119 1.369 . S
C1118 C1122 1.531 . S
C1119 C1118 1.369 . S
C1119 C1120 1.410 . S
C1119 C1127 1.503 . S
C1120 C1119 1.410 . S
C1120 C1121 1.392 . S
C1120 C1123 1.511 . S
C1121 C1117 1.376 . S
C1121 C1120 1.392 . S
C1121 H1133 0.929 . S
C1122 C1118 1.531 . S
C1122 H1134 0.960 . S
C1122 H1135 0.962 . S
C1122 H1136 0.960 . S
C1123 C1120 1.511 . S
C1123 H1137 0.961 . S
C1123 H1138 0.961 . S
C1123 H1139 0.961 . S
C1124 C1125 1.370 . S
C1124 C1126 1.363 . S
C1124 H1140 0.931 . S
C1125 C1124 1.370 . S
C1125 C1129 1.408 . S
C1126 C1124 1.363 . S
C1126 C1127 1.370 . S
C1126 C1130 1.524 . S
C1127 C1119 1.503 . S
C1127 C1126 1.370 . S
C1127 C1128 1.403 . S
C1128 C1127 1.403 . S
C1128 C1129 1.404 . S
C1128 C1131 1.539 . S
C1129 C1125 1.408 . S
C1129 C1128 1.404 . S
C1129 H1141 0.930 . S
C1130 C1126 1.524 . S
C1130 H1142 0.956 . S
C1130 H1143 0.961 . S
C1130 H1144 0.961 . S
C1131 C1128 1.539 . S
C1131 H1145 0.958 . S
C1131 H1146 0.961 . S
C1131 H1147 0.960 . S
H1132 C1116 0.931 . S
H1133 C1121 0.929 . S
H1134 C1122 0.960 . S
H1135 C1122 0.962 . S
H1136 C1122 0.960 . S
H1137 C1123 0.961 . S
H1138 C1123 0.961 . S
H1139 C1123 0.961 . S
H1140 C1124 0.931 . S
H1141 C1129 0.930 . S
H1142 C1130 0.956 . S
H1143 C1130 0.961 . S
H1144 C1130 0.961 . S
H1145 C1131 0.958 . S
H1146 C1131 0.961 . S
H1147 C1131 0.960 . S
C1148 C1149 1.391 . S
C1148 C1150 1.394 . S
C1148 H1164 0.931 . S
C1149 C1148 1.391 . S
C1149 C1153 1.376 . S
C1150 C1148 1.394 . S
C1150 C1151 1.369 . S
C1150 C1154 1.531 . S
C1151 C1150 1.369 . S
C1151 C1152 1.410 . S
C1151 C1159 1.503 . S
C1152 C1151 1.410 . S
C1152 C1153 1.392 . S
C1152 C1155 1.511 . S
C1153 C1149 1.376 . S
C1153 C1152 1.392 . S
C1153 H1165 0.929 . S
C1154 C1150 1.531 . S
C1154 H1166 0.960 . S
C1154 H1167 0.962 . S
C1154 H1168 0.960 . S
C1155 C1152 1.511 . S
C1155 H1169 0.961 . S
C1155 H1170 0.961 . S
C1155 H1171 0.961 . S
C1156 C1157 1.370 . S
C1156 C1158 1.363 . S
C1156 H1172 0.931 . S
C1157 C1156 1.370 . S
C1157 C1161 1.408 . S
C1158 C1156 1.363 . S
C1158 C1159 1.370 . S
C1158 C1162 1.524 . S
C1159 C1151 1.503 . S
C1159 C1158 1.370 . S
C1159 C1160 1.403 . S
C1160 C1159 1.403 . S
C1160 C1161 1.404 . S
C1160 C1163 1.539 . S
C1161 C1157 1.408 . S
C1161 C1160 1.404 . S
C1161 H1173 0.930 . S
C1162 C1158 1.524 . S
C1162 H1174 0.956 . S
C1162 H1175 0.961 . S
C1162 H1176 0.961 . S
C1163 C1160 1.539 . S
C1163 H1177 0.958 . S
C1163 H1178 0.961 . S
C1163 H1179 0.960 . S
H1164 C1148 0.931 . S
H1165 C1153 0.929 . S
H1166 C1154 0.960 . S
H1167 C1154 0.962 . S
H1168 C1154 0.960 . S
H1169 C1155 0.961 . S
H1170 C1155 0.961 . S
H1171 C1155 0.961 . S
H1172 C1156 0.931 . S
H1173 C1161 0.930 . S
H1174 C1162 0.956 . S
H1175 C1162 0.961 . S
H1176 C1162 0.961 . S
H1177 C1163 0.958 . S
H1178 C1163 0.961 . S
H1179 C1163 0.960 . S
C1180 C1181 1.391 . S
C1180 C1182 1.394 . S
C1180 H1196 0.931 . S
C1181 C1180 1.391 . S
C1181 C1185 1.376 . S
C1182 C1180 1.394 . S
C1182 C1183 1.369 . S
C1182 C1186 1.531 . S
C1183 C1182 1.369 . S
C1183 C1184 1.410 . S
C1183 C1191 1.503 . S
C1184 C1183 1.410 . S
C1184 C1185 1.392 . S
C1184 C1187 1.511 . S
C1185 C1181 1.376 . S
C1185 C1184 1.392 . S
C1185 H1197 0.929 . S
C1186 C1182 1.531 . S
C1186 H1198 0.960 . S
C1186 H1199 0.962 . S
C1186 H1200 0.960 . S
C1187 C1184 1.511 . S
C1187 H1201 0.961 . S
C1187 H1202 0.961 . S
C1187 H1203 0.961 . S
C1188 C1189 1.370 . S
C1188 C1190 1.363 . S
C1188 H1204 0.931 . S
C1189 C1188 1.370 . S
C1189 C1193 1.408 . S
C1190 C1188 1.363 . S
C1190 C1191 1.370 . S
C1190 C1194 1.524 . S
C1191 C1183 1.503 . S
C1191 C1190 1.370 . S
C1191 C1192 1.403 . S
C1192 C1191 1.403 . S
C1192 C1193 1.404 . S
C1192 C1195 1.539 . S
C1193 C1189 1.408 . S
C1193 C1192 1.404 . S
C1193 H1205 0.930 . S
C1194 C1190 1.524 . S
C1194 H1206 0.956 . S
C1194 H1207 0.961 . S
C1194 H1208 0.961 . S
C1195 C1192 1.539 . S
C1195 H1209 0.958 . S
C1195 H1210 0.961 . S
C1195 H1211 0.960 . S
H1196 C1180 0.931 . S
H1197 C1185 0.929 . S
H1198 C1186 0.960 . S
H1199 C1186 0.962 . S
H1200 C1186 0.960 . S
H1201 C1187 0.961 . S
H1202 C1187 0.961 . S
H1203 C1187 0.961 . S
H1204 C1188 0.931 . S
H1205 C1193 0.930 . S
H1206 C1194 0.956 . S
H1207 C1194 0.961 . S
H1208 C1194 0.961 . S
H1209 C1195 0.958 . S
H1210 C1195 0.961 . S
H1211 C1195 0.960 . S
C1212 C1213 1.391 . S
C1212 C1214 1.394 . S
C1212 H1228 0.931 . S
C1213 C1212 1.391 . S
C1213 C1217 1.376 . S
C1214 C1212 1.394 . S
C1214 C1215 1.369 . S
C1214 C1218 1.531 . S
C1215 C1214 1.369 . S
C1215 C1216 1.410 . S
C1215 C1223 1.503 . S
C1216 C1215 1.410 . S
C1216 C1217 1.392 . S
C1216 C1219 1.511 . S
C1217 C1213 1.376 . S
C1217 C1216 1.392 . S
C1217 H1229 0.929 . S
C1218 C1214 1.531 . S
C1218 H1230 0.960 . S
C1218 H1231 0.962 . S
C1218 H1232 0.960 . S
C1219 C1216 1.511 . S
C1219 H1233 0.961 . S
C1219 H1234 0.961 . S
C1219 H1235 0.961 . S
C1220 C1221 1.370 . S
C1220 C1222 1.363 . S
C1220 H1236 0.931 . S
C1221 C1220 1.370 . S
C1221 C1225 1.408 . S
C1222 C1220 1.363 . S
C1222 C1223 1.370 . S
C1222 C1226 1.524 . S
C1223 C1215 1.503 . S
C1223 C1222 1.370 . S
C1223 C1224 1.403 . S
C1224 C1223 1.403 . S
C1224 C1225 1.404 . S
C1224 C1227 1.539 . S
C1225 C1221 1.408 . S
C1225 C1224 1.404 . S
C1225 H1237 0.930 . S
C1226 C1222 1.524 . S
C1226 H1238 0.956 . S
C1226 H1239 0.961 . S
C1226 H1240 0.961 . S
C1227 C1224 1.539 . S
C1227 H1241 0.958 . S
C1227 H1242 0.961 . S
C1227 H1243 0.960 . S
H1228 C1212 0.931 . S
H1229 C1217 0.929 . S
H1230 C1218 0.960 . S
H1231 C1218 0.962 . S
H1232 C1218 0.960 . S
H1233 C1219 0.961 . S
H1234 C1219 0.961 . S
H1235 C1219 0.961 . S
H1236 C1220 0.931 . S
H1237 C1225 0.930 . S
H1238 C1226 0.956 . S
H1239 C1226 0.961 . S
H1240 C1226 0.961 . S
H1241 C1227 0.958 . S
H1242 C1227 0.961 . S
H1243 C1227 0.960 . S
C1244 C1245 1.391 . S
C1244 C1246 1.394 . S
C1244 H1260 0.931 . S
C1245 C1244 1.391 . S
C1245 C1249 1.376 . S
C1246 C1244 1.394 . S
C1246 C1247 1.369 . S
C1246 C1250 1.531 . S
C1247 C1246 1.369 . S
C1247 C1248 1.410 . S
C1247 C1255 1.503 . S
C1248 C1247 1.410 . S
C1248 C1249 1.392 . S
C1248 C1251 1.511 . S
C1249 C1245 1.376 . S
C1249 C1248 1.392 . S
C1249 H1261 0.929 . S
C1250 C1246 1.531 . S
C1250 H1262 0.960 . S
C1250 H1263 0.962 . S
C1250 H1264 0.960 . S
C1251 C1248 1.511 . S
C1251 H1265 0.961 . S
C1251 H1266 0.961 . S
C1251 H1267 0.961 . S
C1252 C1253 1.370 . S
C1252 C1254 1.363 . S
C1252 H1268 0.931 . S
C1253 C1252 1.370 . S
C1253 C1257 1.408 . S
C1254 C1252 1.363 . S
C1254 C1255 1.370 . S
C1254 C1258 1.524 . S
C1255 C1247 1.503 . S
C1255 C1254 1.370 . S
C1255 C1256 1.403 . S
C1256 C1255 1.403 . S
C1256 C1257 1.404 . S
C1256 C1259 1.539 . S
C1257 C1253 1.408 . S
C1257 C1256 1.404 . S
C1257 H1269 0.930 . S
C1258 C1254 1.524 . S
C1258 H1270 0.956 . S
C1258 H1271 0.961 . S
C1258 H1272 0.961 . S
C1259 C1256 1.539 . S
C1259 H1273 0.958 . S
C1259 H1274 0.961 . S
C1259 H1275 0.960 . S
H1260 C1244 0.931 . S
H1261 C1249 0.929 . S
H1262 C1250 0.960 . S
H1263 C1250 0.962 . S
H1264 C1250 0.960 . S
H1265 C1251 0.961 . S
H1266 C1251 0.961 . S
H1267 C1251 0.961 . S
H1268 C1252 0.931 . S
H1269 C1257 0.930 . S
H1270 C1258 0.956 . S
H1271 C1258 0.961 . S
H1272 C1258 0.961 . S
H1273 C1259 0.958 . S
H1274 C1259 0.961 . S
H1275 C1259 0.960 . S
C1276 C1277 1.391 . S
C1276 C1278 1.394 . S
C1276 H1292 0.931 . S
C1277 C1276 1.391 . S
C1277 C1281 1.376 . S
C1278 C1276 1.394 . S
C1278 C1279 1.369 . S
C1278 C1282 1.531 . S
C1279 C1278 1.369 . S
C1279 C1280 1.410 . S
C1279 C1287 1.503 . S
C1280 C1279 1.410 . S
C1280 C1281 1.392 . S
C1280 C1283 1.511 . S
C1281 C1277 1.376 . S
C1281 C1280 1.392 . S
C1281 H1293 0.929 . S
C1282 C1278 1.531 . S
C1282 H1294 0.960 . S
C1282 H1295 0.962 . S
C1282 H1296 0.960 . S
C1283 C1280 1.511 . S
C1283 H1297 0.961 . S
C1283 H1298 0.961 . S
C1283 H1299 0.961 . S
C1284 C1285 1.370 . S
C1284 C1286 1.363 . S
C1284 H1300 0.931 . S
C1285 C1284 1.370 . S
C1285 C1289 1.408 . S
C1286 C1284 1.363 . S
C1286 C1287 1.370 . S
C1286 C1290 1.524 . S
C1287 C1279 1.503 . S
C1287 C1286 1.370 . S
C1287 C1288 1.403 . S
C1288 C1287 1.403 . S
C1288 C1289 1.404 . S
C1288 C1291 1.539 . S
C1289 C1285 1.408 . S
C1289 C1288 1.404 . S
C1289 H1301 0.930 . S
C1290 C1286 1.524 . S
C1290 H1302 0.956 . S
C1290 H1303 0.961 . S
C1290 H1304 0.961 . S
C1291 C1288 1.539 . S
C1291 H1305 0.958 . S
C1291 H1306 0.961 . S
C1291 H1307 0.960 . S
H1292 C1276 0.931 . S
H1293 C1281 0.929 . S
H1294 C1282 0.960 . S
H1295 C1282 0.962 . S
H1296 C1282 0.960 . S
H1297 C1283 0.961 . S
H1298 C1283 0.961 . S
H1299 C1283 0.961 . S
H1300 C1284 0.931 . S
H1301 C1289 0.930 . S
H1302 C1290 0.956 . S
H1303 C1290 0.961 . S
H1304 C1290 0.961 . S
H1305 C1291 0.958 . S
H1306 C1291 0.961 . S
H1307 C1291 0.960 . S
C1308 C1309 1.391 . S
C1308 C1310 1.394 . S
C1308 H1324 0.931 . S
C1309 C1308 1.391 . S
C1309 C1313 1.376 . S
C1310 C1308 1.394 . S
C1310 C1311 1.369 . S
C1310 C1314 1.531 . S
C1311 C1310 1.369 . S
C1311 C1312 1.410 . S
C1311 C1319 1.503 . S
C1312 C1311 1.410 . S
C1312 C1313 1.392 . S
C1312 C1315 1.511 . S
C1313 C1309 1.376 . S
C1313 C1312 1.392 . S
C1313 H1325 0.929 . S
C1314 C1310 1.531 . S
C1314 H1326 0.960 . S
C1314 H1327 0.962 . S
C1314 H1328 0.960 . S
C1315 C1312 1.511 . S
C1315 H1329 0.961 . S
C1315 H1330 0.961 . S
C1315 H1331 0.961 . S
C1316 C1317 1.370 . S
C1316 C1318 1.363 . S
C1316 H1332 0.931 . S
C1317 C1316 1.370 . S
C1317 C1321 1.408 . S
C1318 C1316 1.363 . S
C1318 C1319 1.370 . S
C1318 C1322 1.524 . S
C1319 C1311 1.503 . S
C1319 C1318 1.370 . S
C1319 C1320 1.403 . S
C1320 C1319 1.403 . S
C1320 C1321 1.404 . S
C1320 C1323 1.539 . S
C1321 C1317 1.408 . S
C1321 C1320 1.404 . S
C1321 H1333 0.930 . S
C1322 C1318 1.524 . S
C1322 H1334 0.956 . S
C1322 H1335 0.961 . S
C1322 H1336 0.961 . S
C1323 C1320 1.539 . S
C1323 H1337 0.958 . S
C1323 H1338 0.961 . S
C1323 H1339 0.960 . S
H1324 C1308 0.931 . S
H1325 C1313 0.929 . S
H1326 C1314 0.960 . S
H1327 C1314 0.962 . S
H1328 C1314 0.960 . S
H1329 C1315 0.961 . S
H1330 C1315 0.961 . S
H1331 C1315 0.961 . S
H1332 C1316 0.931 . S
H1333 C1321 0.930 . S
H1334 C1322 0.956 . S
H1335 C1322 0.961 . S
H1336 C1322 0.961 . S
H1337 C1323 0.958 . S
H1338 C1323 0.961 . S
H1339 C1323 0.960 . S
C1340 C1341 1.391 . S
C1340 C1342 1.394 . S
C1340 H1356 0.931 . S
C1341 C1340 1.391 . S
C1341 C1345 1.376 . S
C1342 C1340 1.394 . S
C1342 C1343 1.369 . S
C1342 C1346 1.531 . S
C1343 C1342 1.369 . S
C1343 C1344 1.410 . S
C1343 C1351 1.503 . S
C1344 C1343 1.410 . S
C1344 C1345 1.392 . S
C1344 C1347 1.511 . S
C1345 C1341 1.376 . S
C1345 C1344 1.392 . S
C1345 H1357 0.929 . S
C1346 C1342 1.531 . S
C1346 H1358 0.960 . S
C1346 H1359 0.962 . S
C1346 H1360 0.960 . S
C1347 C1344 1.511 . S
C1347 H1361 0.961 . S
C1347 H1362 0.961 . S
C1347 H1363 0.961 . S
C1348 C1349 1.370 . S
C1348 C1350 1.363 . S
C1348 H1364 0.931 . S
C1349 C1348 1.370 . S
C1349 C1353 1.408 . S
C1350 C1348 1.363 . S
C1350 C1351 1.370 . S
C1350 C1354 1.524 . S
C1351 C1343 1.503 . S
C1351 C1350 1.370 . S
C1351 C1352 1.403 . S
C1352 C1351 1.403 . S
C1352 C1353 1.404 . S
C1352 C1355 1.539 . S
C1353 C1349 1.408 . S
C1353 C1352 1.404 . S
C1353 H1365 0.930 . S
C1354 C1350 1.524 . S
C1354 H1366 0.956 . S
C1354 H1367 0.961 . S
C1354 H1368 0.961 . S
C1355 C1352 1.539 . S
C1355 H1369 0.958 . S
C1355 H1370 0.961 . S
C1355 H1371 0.960 . S
H1356 C1340 0.931 . S
H1357 C1345 0.929 . S
H1358 C1346 0.960 . S
H1359 C1346 0.962 . S
H1360 C1346 0.960 . S
H1361 C1347 0.961 . S
H1362 C1347 0.961 . S
H1363 C1347 0.961 . S
H1364 C1348 0.931 . S
H1365 C1353 0.930 . S
H1366 C1354 0.956 . S
H1367 C1354 0.961 . S
H1368 C1354 0.961 . S
H1369 C1355 0.958 . S
H1370 C1355 0.961 . S
H1371 C1355 0.960 . S
C1372 C1373 1.391 . S
C1372 C1374 1.394 . S
C1372 H1388 0.931 . S
C1373 C1372 1.391 . S
C1373 C1377 1.376 . S
C1374 C1372 1.394 . S
C1374 C1375 1.369 . S
C1374 C1378 1.531 . S
C1375 C1374 1.369 . S
C1375 C1376 1.410 . S
C1375 C1383 1.503 . S
C1376 C1375 1.410 . S
C1376 C1377 1.392 . S
C1376 C1379 1.511 . S
C1377 C1373 1.376 . S
C1377 C1376 1.392 . S
C1377 H1389 0.929 . S
C1378 C1374 1.531 . S
C1378 H1390 0.960 . S
C1378 H1391 0.962 . S
C1378 H1392 0.960 . S
C1379 C1376 1.511 . S
C1379 H1393 0.961 . S
C1379 H1394 0.961 . S
C1379 H1395 0.961 . S
C1380 C1381 1.370 . S
C1380 C1382 1.363 . S
C1380 H1396 0.931 . S
C1381 C1380 1.370 . S
C1381 C1385 1.408 . S
C1382 C1380 1.363 . S
C1382 C1383 1.370 . S
C1382 C1386 1.524 . S
C1383 C1375 1.503 . S
C1383 C1382 1.370 . S
C1383 C1384 1.403 . S
C1384 C1383 1.403 . S
C1384 C1385 1.404 . S
C1384 C1387 1.539 . S
C1385 C1381 1.408 . S
C1385 C1384 1.404 . S
C1385 H1397 0.930 . S
C1386 C1382 1.524 . S
C1386 H1398 0.956 . S
C1386 H1399 0.961 . S
C1386 H1400 0.961 . S
C1387 C1384 1.539 . S
C1387 H1401 0.958 . S
C1387 H1402 0.961 . S
C1387 H1403 0.960 . S
H1388 C1372 0.931 . S
H1389 C1377 0.929 . S
H1390 C1378 0.960 . S
H1391 C1378 0.962 . S
H1392 C1378 0.960 . S
H1393 C1379 0.961 . S
H1394 C1379 0.961 . S
H1395 C1379 0.961 . S
H1396 C1380 0.931 . S
H1397 C1385 0.930 . S
H1398 C1386 0.956 . S
H1399 C1386 0.961 . S
H1400 C1386 0.961 . S
H1401 C1387 0.958 . S
H1402 C1387 0.961 . S
H1403 C1387 0.960 . S
C253 C249 1.602 . S
C261 C11 1.627 . S
C285 C221 1.618 . S
C293 C25 1.635 . S
C317 C235 1.607 . S
C325 C39 1.620 . S
C349 C109 1.638 . S
C357 C53 1.634 . S
C381 C123 1.615 . S
C389 C67 1.634 . S
C413 C81 1.637 . S
C421 C95 1.621 . S
C445 C137 1.613 . S
C453 C193 1.634 . S
C477 C151 1.642 . S
C485 C207 1.632 . S
C509 C165 1.602 . S
C517 C179 1.627 . S
C541 C4 1.191 . S
C549 C242 1.202 . S
C573 C214 1.201 . S
C581 C18 1.202 . S
C605 C32 1.215 . S
C613 C228 1.189 . S
C637 C102 1.216 . S
C645 C46 1.190 . S
C669 C60 1.168 . S
C677 C116 1.196 . S
C701 C74 1.180 . S
C709 C88 1.176 . S
C733 C130 1.154 . S
C741 C186 1.184 . S
C765 C200 1.159 . S
C773 C144 1.177 . S
C797 C172 1.197 . S
C805 C158 1.202 . S
C829 C5 1.352 . S
C837 C47 1.292 . S
C861 C61 1.365 . S
C869 C19 1.306 . S
C893 C75 1.268 . S
C901 C33 1.292 . S
C925 C82 1.438 . S
C933 C26 1.452 . S
C957 C40 1.445 . S
C965 C54 1.449 . S
C989 C68 1.442 . S
C997 C12 1.450 . S
C1021 C89 1.246 . S
C1029 C131 1.310 . S
C1053 C145 1.250 . S
C1061 C103 1.302 . S
C1085 C159 1.350 . S
C1093 C117 1.325 . S
C1117 C166 1.452 . S
C1125 C110 1.446 . S
C1149 C124 1.442 . S
C1157 C138 1.451 . S
C1181 C152 1.451 . S
C1189 C96 1.446 . S
C1213 C215 1.260 . S
C1221 C173 1.326 . S
C1245 C229 1.287 . S
C1253 C187 1.333 . S
C1277 C201 1.359 . S
C1285 C243 1.297 . S
C1309 C250 1.452 . S
C1317 C194 1.446 . S
C1341 C208 1.438 . S
C1349 C222 1.452 . S
C1373 C236 1.439 . S
C1381 C180 1.451 . S
