# Generated by pormake.
# Topology sod, (4)-cn, num edge types: 1
# Building blocks:
#     Node 0, Type 0, BuildingBlock: NAHDIM_clean_sbu_0, # of connection points: 4
#     Node 1, Type 0, BuildingBlock: NAHDIM_clean_sbu_0, # of connection points: 4
#     Node 2, Type 0, BuildingBlock: NAHDIM_clean_sbu_0, # of connection points: 4
#     Node 3, Type 0, BuildingBlock: NAHDIM_clean_sbu_0, # of connection points: 4
#     Node 4, Type 0, BuildingBlock: NAHDIM_clean_sbu_0, # of connection points: 4
#     Node 5, Type 0, BuildingBlock: NAHDIM_clean_sbu_0, # of connection points: 4
#     Node 6, Type 0, BuildingBlock: NAHDIM_clean_sbu_0, # of connection points: 4
#     Node 7, Type 0, BuildingBlock: NAHDIM_clean_sbu_0, # of connection points: 4
#     Node 8, Type 0, BuildingBlock: NAHDIM_clean_sbu_0, # of connection points: 4
#     Node 9, Type 0, BuildingBlock: NAHDIM_clean_sbu_0, # of connection points: 4
#     Node 10, Type 0, BuildingBlock: NAHDIM_clean_sbu_0, # of connection points: 4
#     Node 11, Type 0, BuildingBlock: NAHDIM_clean_sbu_0, # of connection points: 4
#     Edge 12, Type (0, 0), BuildingBlock: EZIPEK_clean_linker_0, # of connection points: 2
#     Edge 13, Type (0, 0), BuildingBlock: EZIPEK_clean_linker_0, # of connection points: 2
#     Edge 14, Type (0, 0), BuildingBlock: EZIPEK_clean_linker_0, # of connection points: 2
#     Edge 15, Type (0, 0), BuildingBlock: EZIPEK_clean_linker_0, # of connection points: 2
#     Edge 16, Type (0, 0), BuildingBlock: EZIPEK_clean_linker_0, # of connection points: 2
#     Edge 17, Type (0, 0), BuildingBlock: EZIPEK_clean_linker_0, # of connection points: 2
#     Edge 18, Type (0, 0), BuildingBlock: EZIPEK_clean_linker_0, # of connection points: 2
#     Edge 19, Type (0, 0), BuildingBlock: EZIPEK_clean_linker_0, # of connection points: 2
#     Edge 20, Type (0, 0), BuildingBlock: EZIPEK_clean_linker_0, # of connection points: 2
#     Edge 21, Type (0, 0), BuildingBlock: EZIPEK_clean_linker_0, # of connection points: 2
#     Edge 22, Type (0, 0), BuildingBlock: EZIPEK_clean_linker_0, # of connection points: 2
#     Edge 23, Type (0, 0), BuildingBlock: EZIPEK_clean_linker_0, # of connection points: 2
#     Edge 24, Type (0, 0), BuildingBlock: EZIPEK_clean_linker_0, # of connection points: 2
#     Edge 25, Type (0, 0), BuildingBlock: EZIPEK_clean_linker_0, # of connection points: 2
#     Edge 26, Type (0, 0), BuildingBlock: EZIPEK_clean_linker_0, # of connection points: 2
#     Edge 27, Type (0, 0), BuildingBlock: EZIPEK_clean_linker_0, # of connection points: 2
#     Edge 28, Type (0, 0), BuildingBlock: EZIPEK_clean_linker_0, # of connection points: 2
#     Edge 29, Type (0, 0), BuildingBlock: EZIPEK_clean_linker_0, # of connection points: 2
#     Edge 30, Type (0, 0), BuildingBlock: EZIPEK_clean_linker_0, # of connection points: 2
#     Edge 31, Type (0, 0), BuildingBlock: EZIPEK_clean_linker_0, # of connection points: 2
#     Edge 32, Type (0, 0), BuildingBlock: EZIPEK_clean_linker_0, # of connection points: 2
#     Edge 33, Type (0, 0), BuildingBlock: EZIPEK_clean_linker_0, # of connection points: 2
#     Edge 34, Type (0, 0), BuildingBlock: EZIPEK_clean_linker_0, # of connection points: 2
#     Edge 35, Type (0, 0), BuildingBlock: EZIPEK_clean_linker_0, # of connection points: 2
# Relax obj value: 0.091
# Max RMSD: 0.132
# Mean RMSD: 0.128
data_MOF--net-sod--node1-NAHDIM_clean_sbu_0--edge1-EZIPEK_clean_linker_0
_symmetry_space_group_name_H-M    P1
_symmetry_Int_Tables_number       1
_symmetry_cell_setting            triclinic
loop_
_symmetry_equiv_pos_as_xyz
'x, y, z'
_cell_length_a     31.484763
_cell_length_b     31.32907
_cell_length_c     30.992539
_cell_angle_alpha  90.663498
_cell_angle_beta   91.090285
_cell_angle_gamma 94.234271
loop_
_atom_site_label
_atom_site_type_symbol
_atom_site_fract_x
_atom_site_fract_y
_atom_site_fract_z
_atom_type_partial_charge
C0 C 0.10277 0.23054 0.53524 0.0
O1 O 0.11669 0.26974 0.54645 0.0
O2 O 0.03491 0.30817 0.47348 0.0
Zn3 Zn 0.02213 0.2675 0.52212 0.0
O4 O 0.96372 0.23773 0.5156 0.0
C5 C 0.01785 0.3396 0.57818 0.0
O6 O 0.00651 0.35756 0.5421 0.0
O7 O 0.06418 0.2226 0.52328 0.0
C8 C 0.92909 0.25543 0.52045 0.0
O9 O 0.92961 0.29629 0.53047 0.0
C10 C 0.01234 0.30867 0.43915 0.0
O11 O 0.9798 0.28042 0.43307 0.0
O12 O 0.02634 0.30061 0.57802 0.0
C13 C 0.80379 0.94739 0.48264 0.0
O14 O 0.76287 0.93613 0.47873 0.0
O15 O 0.73467 0.02465 0.5379 0.0
Zn16 Zn 0.77598 0.03316 0.48957 0.0
O17 O 0.81022 0.08892 0.49886 0.0
C18 C 0.70556 0.0419 0.43099 0.0
O19 O 0.68647 0.05217 0.46653 0.0
O20 O 0.81638 0.98652 0.48842 0.0
C21 C 0.79424 0.12495 0.49838 0.0
O22 O 0.7531 0.12702 0.49204 0.0
C23 C 0.7471 0.02324 0.57703 0.0
O24 O 0.78802 0.02629 0.58669 0.0
O25 O 0.74435 0.03333 0.43257 0.0
C26 C 0.93574 0.82981 0.46517 0.0
O27 O 0.96133 0.83461 0.43232 0.0
O28 O 0.9881 0.73042 0.43478 0.0
Zn29 Zn 0.99295 0.76662 0.48944 0.0
O30 O 0.04556 0.80794 0.48915 0.0
C31 C 0.01331 0.69567 0.54503 0.0
O32 O 0.03699 0.68473 0.51288 0.0
O33 O 0.94231 0.80183 0.49335 0.0
C34 C 0.08081 0.80176 0.50787 0.0
O35 O 0.08539 0.76618 0.52878 0.0
C36 C 0.02107 0.71814 0.41669 0.0
O37 O 0.05892 0.73084 0.4325 0.0
O38 O 0.99247 0.72879 0.54204 0.0
C39 C 0.20364 0.08395 0.54007 0.0
O40 O 0.19418 0.05457 0.56895 0.0
O41 O 0.29917 0.0174 0.56044 0.0
Zn42 Zn 0.25805 0.02145 0.5099 0.0
O43 O 0.21109 0.97407 0.50889 0.0
C44 C 0.32796 0.03872 0.45529 0.0
O45 O 0.34298 0.05893 0.49032 0.0
O46 O 0.23132 0.07747 0.51196 0.0
C47 C 0.21857 0.93483 0.51037 0.0
O48 O 0.25817 0.9243 0.51253 0.0
C49 C 0.29344 0.99469 0.5938 0.0
O50 O 0.2575 0.97145 0.59864 0.0
O51 O 0.29116 0.0192 0.45528 0.0
C52 C 0.44306 0.04619 0.31301 0.0
O53 O 0.46368 0.0836 0.30725 0.0
O54 O 0.49642 0.06531 0.20835 0.0
Zn55 Zn 0.50434 0.02166 0.25406 0.0
O56 O 0.55496 0.03743 0.29266 0.0
C57 C 0.48428 0.94943 0.19912 0.0
O58 O 0.44627 0.96406 0.19951 0.0
O59 O 0.45346 0.01377 0.29181 0.0
C60 C 0.59232 0.02858 0.28299 0.0
O61 O 0.59927 0.01112 0.24528 0.0
C62 C 0.51146 0.10401 0.20955 0.0
O63 O 0.53287 0.11933 0.24378 0.0
O64 O 0.5142 0.96773 0.22209 0.0
C65 C 0.1077 0.534 0.19856 0.0
O66 O 0.08824 0.56963 0.19876 0.0
O67 O 0.03797 0.55706 0.29117 0.0
Zn68 Zn 0.03847 0.50504 0.25243 0.0
O69 O 0.99095 0.50466 0.20858 0.0
C70 C 0.0477 0.45059 0.32498 0.0
O71 O 0.07402 0.48259 0.33862 0.0
O72 O 0.09327 0.50248 0.22066 0.0
C73 C 0.95233 0.50018 0.21981 0.0
O74 O 0.94316 0.49666 0.26083 0.0
C75 C 0.02353 0.59211 0.27969 0.0
O76 O 0.00882 0.59636 0.24017 0.0
O77 O 0.02899 0.45255 0.28849 0.0
C78 C 0.61544 0.00915 0.70435 0.0
O79 O 0.62248 0.01515 0.74596 0.0
O80 O 0.53058 0.04333 0.77188 0.0
Zn81 Zn 0.52818 0.99356 0.7299 0.0
O82 O 0.47368 0.9908 0.69457 0.0
C83 C 0.51735 0.93984 0.80251 0.0
O84 O 0.49922 0.97347 0.81694 0.0
O85 O 0.57777 -5e-05 0.69004 0.0
C86 C 0.43744 0.99287 0.71147 0.0
O87 O 0.43437 -0.00399 0.75352 0.0
C88 C 0.52738 0.08238 0.76287 0.0
O89 O 0.52189 0.09377 0.72261 0.0
O90 O 0.53217 0.93997 0.76467 0.0
C91 C 0.0023 0.5899 0.69684 0.0
O92 O 0.96897 0.56245 0.7004 0.0
O93 O 0.98058 0.54232 0.80292 0.0
Zn94 Zn 0.02976 0.5379 0.76256 0.0
O95 O 0.02045 0.48679 0.72273 0.0
C96 C 0.08623 0.51301 0.83001 0.0
O97 O 0.05122 0.49232 0.8432 0.0
O98 O 0.03374 0.58793 0.72282 0.0
C99 C 0.03382 0.44997 0.72826 0.0
O100 O 0.05423 0.44129 0.764 0.0
C101 C 0.95936 0.50898 0.81585 0.0
O102 O 0.96778 0.47129 0.80065 0.0
O103 O 0.08524 0.53542 0.79616 0.0
C104 C 0.33518 0.42418 0.02051 0.0
O105 O 0.32875 0.43175 0.06154 0.0
O106 O 0.2608 0.49574 0.06288 0.0
Zn107 Zn 0.2932 0.50218 0.00784 0.0
O108 O 0.33725 0.55162 0.01421 0.0
C109 C 0.22895 0.48417 0.94155 0.0
O110 O 0.23544 0.44416 0.94994 0.0
O111 O 0.3221 0.44933 0.99219 0.0
C112 C 0.33943 0.58191 0.98727 0.0
O113 O 0.31262 0.58115 0.95424 0.0
C114 C 0.23771 0.52628 0.07119 0.0
O115 O 0.2388 0.55958 0.04578 0.0
O116 O 0.25061 0.51423 0.96148 0.0
C117 C 0.43789 0.28559 0.97591 0.0
O118 O 0.42468 0.25058 0.95441 0.0
O119 O 0.51225 0.21508 0.92646 0.0
Zn120 Zn 0.52234 0.25092 0.98045 0.0
O121 O 0.57691 0.28782 0.97573 0.0
C122 C 0.49326 0.19971 0.05294 0.0
O123 O 0.45519 0.20739 0.0384 0.0
O124 O 0.47644 0.29129 0.98879 0.0
C125 C 0.61039 0.28075 -0.00286 0.0
O126 O 0.61075 0.24727 0.0222 0.0
C127 C 0.5428 0.19528 0.91181 0.0
O128 O 0.57984 0.19839 0.93225 0.0
O129 O 0.52604 0.21403 0.03296 0.0
C130 C 0.74901 0.59616 0.00809 0.0
O131 O 0.79019 0.60542 0.00486 0.0
O132 O 0.81264 0.51382 0.06351 0.0
Zn133 Zn 0.77189 0.50865 0.01193 0.0
O134 O 0.73288 0.45466 0.01251 0.0
C135 C 0.84285 0.50016 0.95702 0.0
O136 O 0.85951 0.48567 0.99258 0.0
O137 O 0.73461 0.55756 0.01244 0.0
C138 C 0.74313 0.41815 -0.0001 0.0
O139 O 0.7819 0.41361 0.98652 0.0
C140 C 0.82146 0.48192 0.08611 0.0
O141 O 0.80294 0.44396 0.07699 0.0
O142 O 0.80509 0.51182 0.95699 0.0
C143 C 0.6158 0.71153 0.99037 0.0
O144 O 0.59176 0.70535 0.95543 0.0
O145 O 0.55723 0.80346 0.95618 0.0
Zn146 Zn 0.55164 0.76667 0.00944 0.0
O147 O 0.50486 0.71957 0.00148 0.0
C148 C 0.51886 0.83472 0.05992 0.0
O149 O 0.50241 0.84514 0.02265 0.0
O150 O 0.60587 0.73824 0.01889 0.0
C151 C 0.46609 0.72388 0.00999 0.0
O152 O 0.45457 0.76081 0.02427 0.0
C153 C 0.52509 0.81191 0.93322 0.0
O154 O 0.48717 0.79487 0.94281 0.0
O155 O 0.54117 0.80263 0.0623 0.0
C156 C 0.99053 0.37519 0.40363 0.0
C157 C 0.02047 0.34374 0.40824 0.0
C158 C 0.06921 0.38346 0.35971 0.0
C159 C 0.03813 0.41342 0.353 0.0
N160 N 0.96733 0.43579 0.36392 0.0
N161 N 0.08518 0.31378 0.38655 0.0
C162 C -0.00191 0.40849 0.37336 0.0
C163 C 0.05905 0.34678 0.38521 0.0
N164 N 0.95611 0.37463 0.42998 0.0
N165 N 0.10852 0.39029 0.34194 0.0
H166 H 0.0786 0.28638 0.40478 0.0
H167 H 0.11154 0.31177 0.36708 0.0
H168 H 0.11637 0.41551 0.32118 0.0
H169 H 0.13425 0.37258 0.34965 0.0
H170 H 0.93579 0.3993 0.43177 0.0
H171 H 0.94963 0.35112 0.45296 0.0
H172 H 0.93583 0.43069 0.37339 0.0
H173 H 0.97246 0.46237 0.34425 0.0
C174 C 0.67028 -0.00188 0.37051 0.0
C175 C 0.68126 0.03892 0.38966 0.0
C176 C 0.64126 0.0732 0.33266 0.0
C177 C 0.62609 0.03216 0.31683 0.0
N178 N 0.62203 0.9552 0.32281 0.0
N179 N 0.67724 0.11549 0.39045 0.0
C180 C 0.63996 0.99447 0.33587 0.0
C181 C 0.66683 0.07658 0.37106 0.0
N182 N 0.68836 0.96273 0.38574 0.0
N183 N 0.63203 0.10879 0.31019 0.0
H184 H 0.69827 0.11954 0.41683 0.0
H185 H 0.66365 0.14352 0.38179 0.0
H186 H 0.61376 0.10714 0.2817 0.0
H187 H 0.64521 0.13952 0.31749 0.0
H188 H 0.68578 0.93317 0.36983 0.0
H189 H 0.70859 0.96336 0.41277 0.0
H190 H 0.62674 0.92693 0.33895 0.0
H191 H 0.59965 0.95091 0.29762 0.0
C192 C 0.04423 0.66583 0.30932 0.0
C193 C 0.01951 0.62633 0.31227 0.0
C194 C 0.99385 0.64753 0.38289 0.0
C195 C 0.01733 0.68785 0.37938 0.0
N196 N 0.05644 0.73919 0.33503 0.0
N197 N 0.96297 0.58365 0.34612 0.0
C198 C 0.04004 0.69815 0.34127 0.0
C199 C 0.99189 0.61846 0.34732 0.0
N200 N 0.07297 0.67184 0.27704 0.0
N201 N 0.97532 0.63585 0.42091 0.0
H202 H 0.96037 0.56179 0.32041 0.0
H203 H 0.93886 0.5787 0.36847 0.0
H204 H 0.97554 0.65596 0.44783 0.0
H205 H 0.96262 0.6049 0.42698 0.0
H206 H 0.0954 0.69795 0.27605 0.0
H207 H 0.07664 0.64907 0.25284 0.0
H208 H 0.0697 0.74969 0.30614 0.0
H209 H 0.05299 0.76392 0.35724 0.0
C210 C 0.34638 0.0631 0.38079 0.0
C211 C 0.35478 0.03736 0.41687 0.0
C212 C 0.42082 0.01698 0.38466 0.0
C213 C 0.41153 0.04115 0.34761 0.0
N214 N 0.3625 0.08101 0.30659 0.0
N215 N 0.39449 0.98308 0.44983 0.0
C216 C 0.37337 0.06241 0.34454 0.0
C217 C 0.39034 0.01218 0.41774 0.0
N218 N 0.31361 0.08939 0.38192 0.0
N219 N 0.45971 0.00058 0.38938 0.0
H220 H 0.37277 0.97886 0.47472 0.0
H221 H 0.41716 0.96051 0.44973 0.0
H222 H 0.48328 0.0037 0.36621 0.0
H223 H 0.47011 0.98698 0.41782 0.0
H224 H 0.30881 0.1126 0.35891 0.0
H225 H 0.29267 0.09006 0.40756 0.0
H226 H 0.33312 0.09326 0.30073 0.0
H227 H 0.3816 0.08104 0.27943 0.0
C228 C 0.00326 0.59811 0.61686 0.0
C229 C 0.00615 0.61743 0.6585 0.0
C230 C 0.01882 0.68798 0.62584 0.0
C231 C 0.01044 0.66905 0.58433 0.0
N232 N 0.98517 0.60687 0.54171 0.0
N233 N 0.01062 0.68119 0.70316 0.0
C234 C 9e-05 0.62429 0.58018 0.0
C235 C 0.01229 0.66254 0.66321 0.0
N236 N 0.00525 0.55485 0.6121 0.0
N237 N 0.0348 0.72965 0.62965 0.0
H238 H 0.00594 0.66356 0.73124 0.0
H239 H 0.0102 0.71411 0.70803 0.0
H240 H 0.0411 0.74917 0.6032 0.0
H241 H 0.04565 0.74367 0.65884 0.0
H242 H 0.00774 0.53983 0.58216 0.0
H243 H 0.00911 0.53448 0.63804 0.0
H244 H 0.97316 0.5751 0.53818 0.0
H245 H 0.98028 0.62515 0.51451 0.0
C246 C 0.38384 0.95435 0.66162 0.0
C247 C 0.39888 0.99263 0.68355 0.0
C248 C 0.34063 0.03023 0.65155 0.0
C249 C 0.32834 0.99322 0.62622 0.0
N250 N 0.34086 0.92159 0.60275 0.0
N251 N 0.39524 0.06832 0.69648 0.0
C252 C 0.35047 0.95555 0.63023 0.0
C253 C 0.37813 0.03093 0.67795 0.0
N254 N 0.40078 0.91666 0.67166 0.0
N255 N 0.31576 0.06423 0.6512 0.0
H256 H 0.42244 0.07003 0.71635 0.0
H257 H 0.38446 0.09819 0.68969 0.0
H258 H 0.28809 0.06476 0.6322 0.0
H259 H 0.32041 0.09035 0.67227 0.0
H260 H 0.38815 0.8869 0.6603 0.0
H261 H 0.42542 0.91466 0.69438 0.0
H262 H 0.35909 0.89527 0.60063 0.0
H263 H 0.31644 0.92105 0.57952 0.0
C264 C -0.003 0.35702 0.65368 0.0
C265 C 0.02381 0.36569 0.61804 0.0
C266 C 0.05785 0.42889 0.65532 0.0
C267 C 0.032 0.4195 0.69154 0.0
N268 N 0.98208 0.37169 0.72878 0.0
N269 N 0.08544 0.40373 0.58789 0.0
C270 C 0.00331 0.38244 0.69192 0.0
C271 C 0.05581 0.39998 0.61964 0.0
N272 N 0.96422 0.32591 0.65014 0.0
N273 N 0.08416 0.46566 0.65489 0.0
H274 H 0.0854 0.38269 0.56155 0.0
H275 H 0.1123 0.4252 0.58942 0.0
H276 H 0.0893 0.48606 0.68162 0.0
H277 H 0.09926 0.47726 0.62735 0.0
H278 H 0.94063 0.32112 0.67301 0.0
H279 H 0.95865 0.30661 0.62267 0.0
H280 H 0.96423 0.34274 0.73271 0.0
H281 H 0.98473 0.39049 0.75683 0.0
C282 C 0.68057 0.9821 0.67134 0.0
C283 C 0.651 0.01409 0.67388 0.0
C284 C 0.68855 0.05481 0.61724 0.0
C285 C 0.71531 0.02072 0.61163 0.0
N286 N 0.73452 0.94989 0.62949 0.0
N287 N 0.62436 0.07956 0.64803 0.0
C288 C 0.71103 0.98395 0.63793 0.0
C289 C 0.65426 0.05006 0.64641 0.0
N290 N 0.67941 0.94988 0.7008 0.0
N291 N 0.69708 0.09241 0.59598 0.0
H292 H 0.60041 0.07881 0.67086 0.0
H293 H 0.62173 0.10348 0.62531 0.0
H294 H 0.72226 0.09727 0.57479 0.0
H295 H 0.68172 0.1201 0.602 0.0
H296 H 0.70298 0.92844 0.70388 0.0
H297 H 0.65626 0.94618 0.72436 0.0
H298 H 0.72957 0.92026 0.64413 0.0
H299 H 0.75709 0.95002 0.60528 0.0
C300 C 0.37236 0.31177 0.00971 0.0
C301 C 0.40884 0.31973 0.98394 0.0
C302 C 0.39815 0.39634 0.98416 0.0
C303 C 0.36003 0.38809 0.00734 0.0
N304 N 0.30609 0.33725 0.03456 0.0
N305 N 0.45053 0.36752 0.93806 0.0
C306 C 0.34571 0.34556 0.01793 0.0
C307 C 0.41992 0.36144 0.96855 0.0
N308 N 0.36417 0.27259 0.02795 0.0
N309 N 0.41483 0.43747 0.97891 0.0
H310 H 0.46656 0.34251 0.92511 0.0
H311 H 0.45688 0.39648 0.92241 0.0
H312 H 0.40066 0.46411 0.99089 0.0
H313 H 0.44489 0.44504 0.96639 0.0
H314 H 0.34105 0.26651 0.05112 0.0
H315 H 0.38264 0.24687 0.02252 0.0
H316 H 0.29213 0.30641 0.03866 0.0
H317 H 0.28547 0.36111 0.04058 0.0
C318 C 0.40119 0.62809 0.95978 0.0
C319 C 0.37203 0.61802 0.99314 0.0
C320 C 0.40825 0.6738 0.0393 0.0
C321 C 0.43404 0.6872 0.00419 0.0
N322 N 0.44967 0.68199 0.92832 0.0
N323 N 0.34237 0.63666 0.06155 0.0
C324 C 0.4291 0.66569 0.96363 0.0
C325 C 0.37401 0.64235 0.03211 0.0
N326 N 0.4035 0.60089 0.92522 0.0
N327 N 0.41752 0.68966 0.07995 0.0
H328 H 0.31609 0.6147 0.05705 0.0
H329 H 0.34 0.65665 0.08837 0.0
H330 H 0.44335 0.71155 0.08696 0.0
H331 H 0.40237 0.67774 0.10737 0.0
H332 H 0.42726 0.60439 0.90232 0.0
H333 H 0.38433 0.57242 0.92165 0.0
H334 H 0.44353 0.67014 0.8971 0.0
H335 H 0.46987 0.70988 0.9294 0.0
C336 C 0.654 0.33909 0.03653 0.0
C337 C 0.64635 0.3137 -0.00135 0.0
C338 C 0.70081 0.35785 0.9608 0.0
C339 C 0.71094 0.38113 -0.00025 0.0
N340 N 0.70262 0.38851 0.07681 0.0
N341 N 0.66672 0.29355 0.92717 0.0
C342 C 0.6891 0.3702 0.03825 0.0
C343 C 0.67112 0.32143 0.9615 0.0
N344 N 0.62658 0.33491 0.07021 0.0
N345 N 0.71756 0.37191 0.92266 0.0
H346 H 0.64501 0.26672 0.92658 0.0
H347 H 0.68704 0.29487 0.90102 0.0
H348 H 0.73829 0.39925 0.92032 0.0
H349 H 0.7078 0.35889 0.89271 0.0
H350 H 0.62757 0.35612 0.0964 0.0
H351 H 0.60041 0.31249 0.07042 0.0
H352 H 0.6911 0.37811 0.10647 0.0
H353 H 0.72807 0.41154 0.07972 0.0
C354 C 0.69009 0.63433 0.0401 0.0
C355 C 0.71878 0.63005 0.00589 0.0
C356 C 0.68518 0.68623 0.96625 0.0
C357 C 0.65268 0.68562 -0.00266 0.0
N358 N 0.62057 0.65422 0.06095 0.0
N359 N 0.74053 0.64792 0.93352 0.0
C360 C 0.65428 0.65866 0.03376 0.0
C361 C 0.71583 0.6552 0.96828 0.0
N362 N 0.69755 0.61578 0.07896 0.0
N363 N 0.6873 0.71706 0.93535 0.0
H364 H 0.763 0.62511 0.93325 0.0
H365 H 0.73619 0.66192 0.90359 0.0
H366 H 0.6657 0.74069 0.93329 0.0
H367 H 0.71278 0.72176 0.91454 0.0
H368 H 0.68007 0.62136 0.10641 0.0
H369 H 0.72398 0.59834 0.08497 0.0
H370 H 0.61817 0.63138 0.08512 0.0
H371 H 0.59305 0.67044 0.05701 0.0
C372 C 0.51084 0.831 0.85632 0.0
C373 C 0.52938 0.84273 0.8973 0.0
C374 C 0.54999 0.91434 0.87029 0.0
C375 C 0.52503 0.90479 0.83245 0.0
N376 N 0.4791 0.85504 0.78983 0.0
N377 N 0.56275 0.89777 0.94499 0.0
C378 C 0.50508 0.86323 0.82525 0.0
C379 C 0.54846 0.88483 0.90467 0.0
N380 N 0.49977 0.78889 0.84676 0.0
N381 N 0.57578 0.95139 0.87305 0.0
H382 H 0.56226 0.87774 0.97148 0.0
H383 H 0.57185 0.92955 0.95308 0.0
H384 H 0.57814 0.97351 0.84812 0.0
H385 H 0.59803 0.95804 0.89799 0.0
H386 H 0.48979 0.77789 0.81612 0.0
H387 H 0.50474 0.76435 0.86835 0.0
H388 H 0.45978 0.82682 0.78548 0.0
H389 H 0.47446 0.87772 0.76616 0.0
C390 C 0.19587 0.483 0.86732 0.0
C391 C 0.19414 0.4943 0.91168 0.0
C392 C 0.12734 0.52761 0.8985 0.0
C393 C 0.12593 0.51101 0.8558 0.0
N394 N 0.15737 0.47104 0.79922 0.0
N395 N 0.15545 0.52207 0.97113 0.0
C396 C 0.15999 0.48849 0.83989 0.0
C397 C 0.15926 0.51546 0.92773 0.0
N398 N 0.23225 0.4682 0.85124 0.0
N399 N 0.09881 0.55607 0.91067 0.0
H400 H 0.17771 0.51293 0.99384 0.0
H401 H 0.12831 0.533 0.98496 0.0
H402 H 0.07623 0.56702 0.88924 0.0
H403 H 0.10059 0.57238 0.9402 0.0
H404 H 0.23719 0.46361 0.81845 0.0
H405 H 0.25912 0.46385 0.87045 0.0
H406 H 0.17849 0.44973 0.78772 0.0
H407 H 0.13259 0.47602 0.77752 0.0
C408 C 0.5623 0.14732 0.80129 0.0
C409 C 0.52884 0.11444 0.79846 0.0
C410 C 0.50516 0.13384 0.87048 0.0
C411 C 0.53681 0.1685 0.87217 0.0
N412 N 0.58935 0.21406 0.83552 0.0
N413 N 0.4624 0.08316 0.82531 0.0
C414 C 0.5636 0.177 0.83645 0.0
C415 C 0.49842 0.10976 0.83158 0.0
N416 N 0.59393 0.14906 0.7716 0.0
N417 N 0.48298 0.12243 0.9066 0.0
H418 H 0.45585 0.0661 0.79661 0.0
H419 H 0.4371 0.08157 0.84655 0.0
H420 H 0.48753 0.13853 0.93615 0.0
H421 H 0.46296 0.09454 0.9084 0.0
H422 H 0.62163 0.16925 0.77486 0.0
H423 H 0.59425 0.12788 0.74543 0.0
H424 H 0.60633 0.22404 0.80846 0.0
H425 H 0.5906 0.23696 0.8603 0.0
C426 C 0.93854 0.53265 0.8901 0.0
C427 C 0.9273 0.51178 0.85004 0.0
C428 C 0.85893 0.48451 0.87951 0.0
C429 C 0.86968 0.50677 0.91876 0.0
N430 N 0.91374 0.56143 0.9571 0.0
N431 N 0.87269 0.47741 0.80318 0.0
C432 C 0.90763 0.53382 0.92266 0.0
C433 C 0.88616 0.49061 0.84369 0.0
N434 N 0.97932 0.54916 0.89832 0.0
N435 N 0.82383 0.45613 0.87696 0.0
H436 H 0.89135 0.48251 0.776 0.0
H437 H 0.8416 0.46548 0.79586 0.0
H438 H 0.80299 0.45091 0.90243 0.0
H439 H 0.81717 0.43536 0.85083 0.0
H440 H 0.99026 0.55976 0.92881 0.0
H441 H 0.0034 0.54895 0.87591 0.0
H442 H 0.93879 0.58507 0.95933 0.0
H443 H 0.89136 0.56376 0.98126 0.0
C444 C 0.52872 0.1173 0.13233 0.0
C445 C 0.50841 0.13008 0.17034 0.0
C446 C 0.48201 0.1913 0.13246 0.0
C447 C 0.49821 0.17565 0.09331 0.0
N448 N 0.53068 0.11978 0.05435 0.0
N449 N 0.46088 0.17552 0.20575 0.0
C450 C 0.51996 0.13759 0.09277 0.0
C451 C 0.48377 0.16614 0.17026 0.0
N452 N 0.55754 0.08675 0.13432 0.0
N453 N 0.46658 0.23095 0.13401 0.0
H454 H 0.46171 0.15805 0.23417 0.0
H455 H 0.43852 0.19841 0.20588 0.0
H456 H 0.46546 0.25076 0.10726 0.0
H457 H 0.45855 0.24588 0.1626 0.0
H458 H 0.57657 0.07925 0.1086 0.0
H459 H 0.56544 0.07171 0.16293 0.0
H460 H 0.54239 0.08963 0.05177 0.0
H461 H 0.52414 0.13321 0.02454 0.0
C462 C 0.91849 0.46158 0.15554 0.0
C463 C 0.91814 0.49528 0.18641 0.0
C464 C 0.85165 0.51746 0.15434 0.0
C465 C 0.85474 0.48683 0.1206 0.0
N466 N 0.89617 0.43562 0.08443 0.0
N467 N 0.88847 0.55968 0.21154 0.0
C468 C 0.88953 0.46044 0.1199 0.0
C469 C 0.88581 0.52447 0.18489 0.0
N470 N 0.94537 0.42963 0.16108 0.0
N471 N 0.81541 0.53857 0.15833 0.0
H472 H 0.91311 0.56602 0.23422 0.0
H473 H 0.86838 0.5845 0.20861 0.0
H474 H 0.78926 0.53367 0.13724 0.0
H475 H 0.80964 0.5579 0.18484 0.0
H476 H 0.94368 0.4019 0.14205 0.0
H477 H 0.96647 0.42862 0.18734 0.0
H478 H 0.92368 0.41957 0.08041 0.0
H479 H 0.87643 0.43431 0.05703 0.0
C480 C 0.48787 0.84699 0.1328 0.0
C481 C 0.51345 0.8622 0.09815 0.0
C482 C 0.51846 0.93449 0.12923 0.0
C483 C 0.49472 0.91901 0.16499 0.0
N484 N 0.46226 0.86013 0.20486 0.0
N485 N 0.56164 0.91713 0.06862 0.0
C486 C 0.48101 0.87506 0.16801 0.0
C487 C 0.53129 0.90502 0.09793 0.0
N488 N 0.46888 0.80632 0.13124 0.0
N489 N 0.52722 0.97755 0.12418 0.0
H490 H 0.57284 0.89585 0.04616 0.0
H491 H 0.57888 0.94682 0.0695 0.0
H492 H 0.51805 0.00039 0.14617 0.0
H493 H 0.5402 0.99092 0.09631 0.0
H494 H 0.4459 0.79491 0.1528 0.0
H495 H 0.47425 0.78453 0.10666 0.0
H496 H 0.45554 0.82777 0.21104 0.0
H497 H 0.45624 0.88008 0.23089 0.0
C498 C 0.17085 0.49476 0.10443 0.0
C499 C 0.20759 0.52384 0.10727 0.0
C500 C 0.1818 0.55438 0.17434 0.0
C501 C 0.14297 0.52888 0.16854 0.0
N502 N 0.09763 0.47904 0.12516 0.0
N503 N 0.2483 0.58237 0.14346 0.0
C504 C 0.13685 0.49978 0.13312 0.0
C505 C 0.21318 0.55393 0.14191 0.0
N506 N 0.16811 0.46262 0.07403 0.0
N507 N 0.18908 0.57803 0.21147 0.0
H508 H 0.27343 0.58091 0.12216 0.0
H509 H 0.25181 0.60856 0.16453 0.0
H510 H 0.16676 0.57893 0.23586 0.0
H511 H 0.21828 0.59401 0.21984 0.0
H512 H 0.1445 0.43752 0.07372 0.0
H513 H 0.19119 0.45887 0.05094 0.0
H514 H 0.08969 0.46155 0.09702 0.0
H515 H 0.07154 0.48221 0.14485 0.0
C516 C 0.83816 0.89067 0.44051 0.0
C517 C 0.83558 0.91503 0.47918 0.0
C518 C 0.90008 0.88525 0.50762 0.0
C519 C 0.9007 0.85836 0.47047 0.0
N520 N 0.86571 0.82914 0.4056 0.0
N521 N 0.85838 0.92887 0.55308 0.0
C522 C 0.86837 0.85921 0.43805 0.0
C523 C 0.86488 0.91035 0.51382 0.0
N524 N 0.81328 0.89895 0.40539 0.0
N525 N 0.93404 0.88846 0.53596 0.0
H526 H 0.83251 0.94691 0.55906 0.0
H527 H 0.87617 0.92291 0.58074 0.0
H528 H 0.96097 0.8714 0.5322 0.0
H529 H 0.93732 0.91103 0.56096 0.0
H530 H 0.81722 0.88554 0.37495 0.0
H531 H 0.79114 0.92211 0.40551 0.0
H532 H 0.84017 0.82534 0.3837 0.0
H533 H 0.887 0.80532 0.40295 0.0
C534 C 0.86283 0.22798 0.48044 0.0
C535 C 0.88864 0.22852 0.51842 0.0
C536 C 0.84348 0.16918 0.54757 0.0
C537 C 0.82232 0.16408 0.50687 0.0
N538 N 0.8115 0.1873 0.4338 0.0
N539 N 0.90404 0.20126 0.58896 0.0
C540 C 0.83126 0.19362 0.47328 0.0
C541 C 0.87882 0.19983 0.55246 0.0
N542 N 0.86885 0.26008 0.45119 0.0
N543 N 0.82909 0.14519 0.58164 0.0
H544 H 0.92853 0.22506 0.59475 0.0
H545 H 0.90203 0.17798 0.61266 0.0
H546 H 0.80284 0.12288 0.57904 0.0
H547 H 0.8405 0.14988 0.61319 0.0
H548 H 0.84862 0.26386 0.42479 0.0
H549 H 0.89222 0.28525 0.45533 0.0
H550 H 0.82017 0.2046 0.40648 0.0
H551 H 0.78786 0.16281 0.42749 0.0
C552 C 0.11349 0.87225 0.53556 0.0
C553 C 0.11586 0.83584 0.50836 0.0
C554 C 0.18272 0.86687 0.47896 0.0
C555 C 0.18281 0.90113 0.5094 0.0
N556 N 0.15174 0.9325 0.57197 0.0
N557 N 0.15555 0.79489 0.45894 0.0
C558 C 0.14899 0.90296 0.53901 0.0
C559 C 0.15144 0.83197 0.48164 0.0
N560 N 0.07733 0.87753 0.55819 0.0
N561 N 0.21098 0.86875 0.44594 0.0
H562 H 0.13274 0.76904 0.45911 0.0
H563 H 0.18312 0.78844 0.44279 0.0
H564 H 0.23317 0.89464 0.44153 0.0
H565 H 0.20953 0.84687 0.42031 0.0
H566 H 0.07166 0.90587 0.57425 0.0
H567 H 0.0515 0.85468 0.55849 0.0
H568 H 0.13046 0.9322 0.59729 0.0
H569 H 0.17743 0.95507 0.57651 0.0
C570 C 0.13647 0.17101 0.49778 0.0
C571 C 0.13169 0.1954 0.53596 0.0
C572 C 0.17987 0.15059 0.57489 0.0
C573 C 0.17991 0.12296 0.53831 0.0
N574 N 0.15178 0.10261 0.46728 0.0
N575 N 0.14364 0.20482 0.61284 0.0
C576 C 0.15663 0.13206 0.50025 0.0
C577 C 0.15218 0.18444 0.57508 0.0
N578 N 0.12281 0.18565 0.45889 0.0
N579 N 0.20717 0.1453 0.60892 0.0
H580 H 0.12306 0.22934 0.61462 0.0
H581 H 0.15399 0.19488 0.64296 0.0
H582 H 0.22832 0.12121 0.60968 0.0
H583 H 0.2117 0.16717 0.63446 0.0
H584 H 0.12938 0.17135 0.42949 0.0
H585 H 0.10876 0.21461 0.45563 0.0
H586 H 0.13131 0.10575 0.44088 0.0
H587 H 0.16478 0.07297 0.46815 0.0
loop_
_geom_bond_atom_site_label_1
_geom_bond_atom_site_label_2
_geom_bond_distance
_geom_bond_site_symmetry_2
_ccdc_geom_bond_type
C0 O1 1.160 . S
C0 O7 1.185 . S
O1 C0 1.160 . S
O2 Zn3 1.899 . S
O2 C10 1.284 . S
Zn3 O2 1.899 . S
Zn3 O4 2.032 1_455 S
Zn3 O7 2.086 . S
Zn3 O12 1.977 . S
O4 Zn3 2.032 1_655 S
O4 C8 1.278 . S
C5 O6 1.203 1_455 S
C5 O12 1.267 . S
O6 C5 1.203 1_655 S
O7 C0 1.185 . S
O7 Zn3 2.086 . S
C8 O4 1.278 . S
C8 O9 1.211 . S
O9 C8 1.211 . S
C10 O2 1.284 . S
C10 O11 1.273 1_455 S
O11 C10 1.273 1_655 S
O12 Zn3 1.977 . S
O12 C5 1.267 . S
C13 O14 1.160 . S
C13 O20 1.185 . S
O14 C13 1.160 . S
O15 Zn16 1.901 . S
O15 C23 1.290 . S
Zn16 O15 1.901 . S
Zn16 O17 2.032 . S
Zn16 O20 2.086 1_545 S
Zn16 O25 1.977 . S
O17 Zn16 2.032 . S
O17 C21 1.278 . S
C18 O19 1.203 . S
C18 O25 1.267 . S
O19 C18 1.203 . S
O20 C13 1.185 . S
O20 Zn16 2.086 1_565 S
C21 O17 1.278 . S
C21 O22 1.211 . S
O22 C21 1.211 . S
C23 O15 1.290 . S
C23 O24 1.273 . S
O24 C23 1.273 . S
O25 Zn16 1.977 . S
O25 C18 1.267 . S
C26 O27 1.160 . S
C26 O33 1.185 . S
O27 C26 1.160 . S
O28 Zn29 1.899 . S
O28 C36 1.284 . S
Zn29 O28 1.899 . S
Zn29 O30 2.032 . S
Zn29 O33 2.086 1_455 S
Zn29 O38 1.977 . S
O30 Zn29 2.032 . S
O30 C34 1.278 . S
C31 O32 1.203 . S
C31 O38 1.267 . S
O32 C31 1.203 . S
O33 C26 1.185 . S
O33 Zn29 2.086 1_655 S
C34 O30 1.278 . S
C34 O35 1.211 . S
O35 C34 1.211 . S
C36 O28 1.284 . S
C36 O37 1.273 . S
O37 C36 1.273 . S
O38 Zn29 1.977 . S
O38 C31 1.267 . S
C39 O40 1.160 . S
C39 O46 1.185 . S
O40 C39 1.160 . S
O41 Zn42 1.899 . S
O41 C49 1.284 . S
Zn42 O41 1.899 . S
Zn42 O43 2.032 1_545 S
Zn42 O46 2.086 . S
Zn42 O51 1.977 . S
O43 Zn42 2.032 1_565 S
O43 C47 1.278 . S
C44 O45 1.203 1_545 S
C44 O51 1.267 . S
O45 C44 1.203 1_565 S
O46 C39 1.185 . S
O46 Zn42 2.086 . S
C47 O43 1.278 . S
C47 O48 1.211 . S
O48 C47 1.211 . S
C49 O41 1.284 . S
C49 O50 1.273 1_545 S
O50 C49 1.273 1_565 S
O51 Zn42 1.977 . S
O51 C44 1.267 . S
C52 O53 1.160 . S
C52 O59 1.185 . S
O53 C52 1.160 . S
O54 Zn55 1.899 . S
O54 C62 1.284 . S
Zn55 O54 1.899 . S
Zn55 O56 2.032 . S
Zn55 O59 2.086 . S
Zn55 O64 1.977 1_545 S
O56 Zn55 2.032 . S
O56 C60 1.278 . S
C57 O58 1.203 . S
C57 O64 1.267 . S
O58 C57 1.203 . S
O59 C52 1.185 . S
O59 Zn55 2.086 . S
C60 O56 1.278 . S
C60 O61 1.223 . S
O61 C60 1.223 . S
C62 O54 1.284 . S
C62 O63 1.273 . S
O63 C62 1.273 . S
O64 Zn55 1.977 1_565 S
O64 C57 1.267 . S
C65 O66 1.160 . S
C65 O72 1.185 . S
O66 C65 1.160 . S
O67 Zn68 1.899 . S
O67 C75 1.284 . S
Zn68 O67 1.899 . S
Zn68 O69 2.032 . S
Zn68 O72 2.086 . S
Zn68 O77 1.977 . S
O69 Zn68 2.032 . S
O69 C73 1.278 1_455 S
C70 O71 1.203 . S
C70 O77 1.267 . S
O71 C70 1.203 . S
O72 C65 1.185 . S
O72 Zn68 2.086 . S
C73 O69 1.278 1_655 S
C73 O74 1.211 . S
O74 C73 1.211 . S
C75 O67 1.284 . S
C75 O76 1.273 1_455 S
O76 C75 1.273 1_655 S
O77 Zn68 1.977 . S
O77 C70 1.267 . S
C78 O79 1.160 . S
C78 O85 1.185 . S
O79 C78 1.160 . S
O80 Zn81 1.899 . S
O80 C88 1.284 . S
Zn81 O80 1.899 . S
Zn81 O82 2.032 . S
Zn81 O85 2.086 . S
Zn81 O90 1.977 1_545 S
O82 Zn81 2.032 . S
O82 C86 1.278 . S
C83 O84 1.203 . S
C83 O90 1.267 . S
O84 C83 1.203 . S
O85 C78 1.185 . S
O85 Zn81 2.086 . S
C86 O82 1.278 . S
C86 O87 1.211 1_545 S
O87 C86 1.211 1_565 S
C88 O80 1.284 . S
C88 O89 1.273 . S
O89 C88 1.273 . S
O90 Zn81 1.977 1_565 S
O90 C83 1.267 . S
C91 O92 1.160 1_455 S
C91 O98 1.185 . S
O92 C91 1.160 1_655 S
O93 Zn94 1.899 1_655 S
O93 C101 1.284 . S
Zn94 O93 1.899 1_455 S
Zn94 O95 2.032 . S
Zn94 O98 2.086 . S
Zn94 O103 1.977 . S
O95 Zn94 2.032 . S
O95 C99 1.278 . S
C96 O97 1.203 . S
C96 O103 1.267 . S
O97 C96 1.203 . S
O98 C91 1.185 . S
O98 Zn94 2.086 . S
C99 O95 1.278 . S
C99 O100 1.211 . S
O100 C99 1.211 . S
C101 O93 1.284 . S
C101 O102 1.273 . S
O102 C101 1.273 . S
O103 Zn94 1.977 . S
O103 C96 1.267 . S
C104 O105 1.160 . S
C104 O111 1.185 1_554 S
O105 C104 1.160 . S
O106 Zn107 1.899 . S
O106 C114 1.284 . S
Zn107 O106 1.899 . S
Zn107 O108 2.032 . S
Zn107 O111 2.086 1_554 S
Zn107 O116 1.977 1_554 S
O108 Zn107 2.032 . S
O108 C112 1.278 1_554 S
C109 O110 1.203 . S
C109 O116 1.267 . S
O110 C109 1.203 . S
O111 C104 1.185 1_556 S
O111 Zn107 2.086 1_556 S
C112 O108 1.278 1_556 S
C112 O113 1.211 . S
O113 C112 1.211 . S
C114 O106 1.284 . S
C114 O115 1.273 . S
O115 C114 1.273 . S
O116 Zn107 1.977 1_556 S
O116 C109 1.267 . S
C117 O118 1.160 . S
C117 O124 1.185 1_556 S
O118 C117 1.160 . S
O119 Zn120 1.899 1_556 S
O119 C127 1.284 . S
Zn120 O119 1.899 1_554 S
Zn120 O121 2.032 . S
Zn120 O124 2.086 . S
Zn120 O129 1.977 . S
O121 Zn120 2.032 . S
O121 C125 1.278 . S
C122 O123 1.203 . S
C122 O129 1.267 . S
O123 C122 1.203 . S
O124 C117 1.185 1_554 S
O124 Zn120 2.086 . S
C125 O121 1.278 . S
C125 O126 1.211 . S
O126 C125 1.211 . S
C127 O119 1.284 . S
C127 O128 1.273 . S
O128 C127 1.273 . S
O129 Zn120 1.977 . S
O129 C122 1.267 . S
C130 O131 1.160 . S
C130 O137 1.185 1_554 S
O131 C130 1.160 . S
O132 Zn133 1.899 . S
O132 C140 1.284 . S
Zn133 O132 1.899 . S
Zn133 O134 2.032 . S
Zn133 O137 2.086 1_554 S
Zn133 O142 1.977 1_554 S
O134 Zn133 2.032 . S
O134 C138 1.284 . S
C135 O136 1.203 . S
C135 O142 1.267 . S
O136 C135 1.203 . S
O137 C130 1.185 1_556 S
O137 Zn133 2.086 1_556 S
C138 O134 1.284 . S
C138 O139 1.201 1_554 S
O139 C138 1.201 1_556 S
C140 O132 1.284 . S
C140 O141 1.273 . S
O141 C140 1.273 . S
O142 Zn133 1.977 1_556 S
O142 C135 1.267 . S
C143 O144 1.160 . S
C143 O150 1.185 1_556 S
O144 C143 1.160 . S
O145 Zn146 1.899 1_556 S
O145 C153 1.284 . S
Zn146 O145 1.899 1_554 S
Zn146 O147 2.035 . S
Zn146 O150 2.086 . S
Zn146 O155 1.977 . S
O147 Zn146 2.035 . S
O147 C151 1.286 . S
C148 O149 1.203 . S
C148 O155 1.267 . S
O149 C148 1.203 . S
O150 C143 1.185 1_554 S
O150 Zn146 2.086 . S
C151 O147 1.286 . S
C151 O152 1.211 . S
O152 C151 1.211 . S
C153 O145 1.284 . S
C153 O154 1.273 . S
O154 C153 1.273 . S
O155 Zn146 1.977 . S
O155 C148 1.267 . S
C156 C157 1.366 . S
C156 C162 1.378 1_455 S
C156 N164 1.354 1_455 S
C157 C156 1.366 . S
C157 C163 1.363 . S
C158 C159 1.363 . S
C158 C163 1.379 . S
C158 N165 1.356 . S
C159 C158 1.363 . S
C159 C162 1.359 1_455 S
N160 C162 1.360 . S
N160 H172 0.984 . S
N160 H173 0.985 . S
N161 C163 1.356 . S
N161 H166 0.984 . S
N161 H167 0.985 . S
C162 C156 1.378 1_655 S
C162 C159 1.359 1_655 S
C162 N160 1.360 . S
C163 C157 1.363 . S
C163 C158 1.379 . S
C163 N161 1.356 . S
N164 C156 1.354 1_655 S
N164 H170 0.984 . S
N164 H171 0.984 . S
N165 C158 1.356 . S
N165 H168 0.984 . S
N165 H169 0.985 . S
H166 N161 0.984 . S
H167 N161 0.985 . S
H168 N165 0.984 . S
H169 N165 0.985 . S
H170 N164 0.984 . S
H171 N164 0.984 . S
H172 N160 0.984 . S
H173 N160 0.985 . S
C174 C175 1.363 1_565 S
C174 C180 1.379 . S
C174 N182 1.356 . S
C175 C174 1.363 1_545 S
C175 C181 1.363 . S
C176 C177 1.363 . S
C176 C181 1.379 . S
C176 N183 1.356 . S
C177 C176 1.363 . S
C177 C180 1.363 1_545 S
N178 C180 1.356 . S
N178 H190 0.984 . S
N178 H191 0.985 . S
N179 C181 1.356 . S
N179 H184 0.984 . S
N179 H185 0.985 . S
C180 C174 1.379 . S
C180 C177 1.363 1_565 S
C180 N178 1.356 . S
C181 C175 1.363 . S
C181 C176 1.379 . S
C181 N179 1.356 . S
N182 C174 1.356 . S
N182 H188 0.984 . S
N182 H189 0.984 . S
N183 C176 1.356 . S
N183 H186 0.984 . S
N183 H187 0.985 . S
H184 N179 0.984 . S
H185 N179 0.985 . S
H186 N183 0.984 . S
H187 N183 0.985 . S
H188 N182 0.984 . S
H189 N182 0.984 . S
H190 N178 0.984 . S
H191 N178 0.985 . S
C192 C193 1.363 . S
C192 C198 1.379 . S
C192 N200 1.356 . S
C193 C192 1.363 . S
C193 C199 1.362 . S
C194 C195 1.363 1_655 S
C194 C199 1.379 1_655 S
C194 N201 1.356 . S
C195 C194 1.363 1_455 S
C195 C198 1.363 . S
N196 C198 1.356 . S
N196 H208 0.984 . S
N196 H209 0.985 . S
N197 C199 1.357 1_655 S
N197 H202 0.984 . S
N197 H203 0.985 . S
C198 C192 1.379 . S
C198 C195 1.363 . S
C198 N196 1.356 . S
C199 C193 1.362 . S
C199 C194 1.379 1_455 S
C199 N197 1.357 1_455 S
N200 C192 1.356 . S
N200 H206 0.984 . S
N200 H207 0.984 . S
N201 C194 1.356 . S
N201 H204 0.984 . S
N201 H205 0.985 . S
H202 N197 0.984 . S
H203 N197 0.985 . S
H204 N201 0.984 . S
H205 N201 0.985 . S
H206 N200 0.984 . S
H207 N200 0.984 . S
H208 N196 0.984 . S
H209 N196 0.985 . S
C210 C211 1.363 . S
C210 C216 1.379 . S
C210 N218 1.356 . S
C211 C210 1.363 . S
C211 C217 1.363 1_545 S
C212 C213 1.363 1_565 S
C212 C217 1.379 . S
C212 N219 1.356 . S
C213 C212 1.363 1_545 S
C213 C216 1.363 . S
N214 C216 1.356 . S
N214 H226 0.984 . S
N214 H227 0.985 . S
N215 C217 1.356 . S
N215 H220 0.984 . S
N215 H221 0.985 . S
C216 C210 1.379 . S
C216 C213 1.363 . S
C216 N214 1.356 . S
C217 C211 1.363 1_565 S
C217 C212 1.379 . S
C217 N215 1.356 . S
N218 C210 1.356 . S
N218 H224 0.984 . S
N218 H225 0.984 . S
N219 C212 1.356 . S
N219 H222 0.984 . S
N219 H223 0.985 . S
H220 N215 0.984 . S
H221 N215 0.985 . S
H222 N219 0.984 . S
H223 N219 0.985 . S
H224 N218 0.984 . S
H225 N218 0.984 . S
H226 N214 0.984 . S
H227 N214 0.985 . S
C228 C229 1.363 . S
C228 C234 1.379 . S
C228 N236 1.356 . S
C229 C228 1.363 . S
C229 C235 1.363 . S
C230 C231 1.363 . S
C230 C235 1.379 . S
C230 N237 1.356 . S
C231 C230 1.363 . S
C231 C234 1.363 . S
N232 C234 1.356 . S
N232 H244 0.984 . S
N232 H245 0.985 . S
N233 C235 1.356 . S
N233 H238 0.984 . S
N233 H239 0.985 . S
C234 C228 1.379 . S
C234 C231 1.363 . S
C234 N232 1.356 . S
C235 C229 1.363 . S
C235 C230 1.379 . S
C235 N233 1.356 . S
N236 C228 1.356 . S
N236 H242 0.984 . S
N236 H243 0.984 . S
N237 C230 1.356 . S
N237 H240 0.984 . S
N237 H241 0.985 . S
H238 N233 0.984 . S
H239 N233 0.985 . S
H240 N237 0.984 . S
H241 N237 0.985 . S
H242 N236 0.984 . S
H243 N236 0.984 . S
H244 N232 0.984 . S
H245 N232 0.985 . S
C246 C247 1.363 1_565 S
C246 C252 1.379 . S
C246 N254 1.356 . S
C247 C246 1.363 1_545 S
C247 C253 1.363 . S
C248 C249 1.363 . S
C248 C253 1.379 . S
C248 N255 1.356 . S
C249 C248 1.363 . S
C249 C252 1.363 1_545 S
N250 C252 1.356 . S
N250 H262 0.984 . S
N250 H263 0.985 . S
N251 C253 1.356 . S
N251 H256 0.984 . S
N251 H257 0.985 . S
C252 C246 1.379 . S
C252 C249 1.363 1_565 S
C252 N250 1.356 . S
C253 C247 1.363 . S
C253 C248 1.379 . S
C253 N251 1.356 . S
N254 C246 1.356 . S
N254 H260 0.984 . S
N254 H261 0.984 . S
N255 C248 1.356 . S
N255 H258 0.984 . S
N255 H259 0.985 . S
H256 N251 0.984 . S
H257 N251 0.985 . S
H258 N255 0.984 . S
H259 N255 0.985 . S
H260 N254 0.984 . S
H261 N254 0.984 . S
H262 N250 0.984 . S
H263 N250 0.985 . S
C264 C265 1.363 1_655 S
C264 C270 1.379 . S
C264 N272 1.356 . S
C265 C264 1.363 1_455 S
C265 C271 1.363 . S
C266 C267 1.363 . S
C266 C271 1.379 . S
C266 N273 1.356 . S
C267 C266 1.363 . S
C267 C270 1.363 1_455 S
N268 C270 1.356 . S
N268 H280 0.984 . S
N268 H281 0.985 . S
N269 C271 1.356 . S
N269 H274 0.984 . S
N269 H275 0.985 . S
C270 C264 1.379 . S
C270 C267 1.363 1_655 S
C270 N268 1.356 . S
C271 C265 1.363 . S
C271 C266 1.379 . S
C271 N269 1.356 . S
N272 C264 1.356 . S
N272 H278 0.984 . S
N272 H279 0.984 . S
N273 C266 1.356 . S
N273 H276 0.984 . S
N273 H277 0.985 . S
H274 N269 0.984 . S
H275 N269 0.985 . S
H276 N273 0.984 . S
H277 N273 0.985 . S
H278 N272 0.984 . S
H279 N272 0.984 . S
H280 N268 0.984 . S
H281 N268 0.985 . S
C282 C283 1.363 1_565 S
C282 C288 1.379 . S
C282 N290 1.356 . S
C283 C282 1.363 1_545 S
C283 C289 1.363 . S
C284 C285 1.363 . S
C284 C289 1.379 . S
C284 N291 1.356 . S
C285 C284 1.363 . S
C285 C288 1.363 1_545 S
N286 C288 1.356 . S
N286 H298 0.984 . S
N286 H299 0.985 . S
N287 C289 1.356 . S
N287 H292 0.984 . S
N287 H293 0.985 . S
C288 C282 1.379 . S
C288 C285 1.363 1_565 S
C288 N286 1.356 . S
C289 C283 1.363 . S
C289 C284 1.379 . S
C289 N287 1.356 . S
N290 C282 1.356 . S
N290 H296 0.984 . S
N290 H297 0.984 . S
N291 C284 1.356 . S
N291 H294 0.984 . S
N291 H295 0.985 . S
H292 N287 0.984 . S
H293 N287 0.985 . S
H294 N291 0.984 . S
H295 N291 0.985 . S
H296 N290 0.984 . S
H297 N290 0.984 . S
H298 N286 0.984 . S
H299 N286 0.985 . S
C300 C301 1.363 . S
C300 C306 1.379 . S
C300 N308 1.356 . S
C301 C300 1.363 . S
C301 C307 1.363 1_554 S
C302 C303 1.363 1_556 S
C302 C307 1.379 . S
C302 N309 1.356 . S
C303 C302 1.363 1_554 S
C303 C306 1.363 . S
N304 C306 1.356 . S
N304 H316 0.984 . S
N304 H317 0.985 . S
N305 C307 1.356 . S
N305 H310 0.984 . S
N305 H311 0.985 . S
C306 C300 1.379 . S
C306 C303 1.363 . S
C306 N304 1.356 . S
C307 C301 1.363 1_556 S
C307 C302 1.379 . S
C307 N305 1.356 . S
N308 C300 1.356 . S
N308 H314 0.984 . S
N308 H315 0.984 . S
N309 C302 1.356 . S
N309 H312 0.984 . S
N309 H313 0.985 . S
H310 N305 0.984 . S
H311 N305 0.985 . S
H312 N309 0.984 . S
H313 N309 0.985 . S
H314 N308 0.984 . S
H315 N308 0.984 . S
H316 N304 0.984 . S
H317 N304 0.985 . S
C318 C319 1.363 1_556 S
C318 C324 1.379 . S
C318 N326 1.356 . S
C319 C318 1.363 1_554 S
C319 C325 1.363 . S
C320 C321 1.363 . S
C320 C325 1.379 . S
C320 N327 1.356 . S
C321 C320 1.363 . S
C321 C324 1.363 1_554 S
N322 C324 1.356 . S
N322 H334 0.984 . S
N322 H335 0.985 . S
N323 C325 1.356 . S
N323 H328 0.984 . S
N323 H329 0.985 . S
C324 C318 1.379 . S
C324 C321 1.363 1_556 S
C324 N322 1.356 . S
C325 C319 1.363 . S
C325 C320 1.379 . S
C325 N323 1.356 . S
N326 C318 1.356 . S
N326 H332 0.984 . S
N326 H333 0.984 . S
N327 C320 1.356 . S
N327 H330 0.984 . S
N327 H331 0.985 . S
H328 N323 0.984 . S
H329 N323 0.985 . S
H330 N327 0.984 . S
H331 N327 0.985 . S
H332 N326 0.984 . S
H333 N326 0.984 . S
H334 N322 0.984 . S
H335 N322 0.985 . S
C336 C337 1.363 . S
C336 C342 1.379 . S
C336 N344 1.356 . S
C337 C336 1.363 . S
C337 C343 1.363 1_554 S
C338 C339 1.363 1_556 S
C338 C343 1.379 . S
C338 N345 1.356 . S
C339 C338 1.363 1_554 S
C339 C342 1.363 . S
N340 C342 1.356 . S
N340 H352 0.984 . S
N340 H353 0.985 . S
N341 C343 1.356 . S
N341 H346 0.984 . S
N341 H347 0.985 . S
C342 C336 1.379 . S
C342 C339 1.363 . S
C342 N340 1.356 . S
C343 C337 1.363 1_556 S
C343 C338 1.379 . S
C343 N341 1.356 . S
N344 C336 1.356 . S
N344 H350 0.984 . S
N344 H351 0.984 . S
N345 C338 1.356 . S
N345 H348 0.984 . S
N345 H349 0.985 . S
H346 N341 0.984 . S
H347 N341 0.985 . S
H348 N345 0.984 . S
H349 N345 0.985 . S
H350 N344 0.984 . S
H351 N344 0.984 . S
H352 N340 0.984 . S
H353 N340 0.985 . S
C354 C355 1.363 . S
C354 C360 1.379 . S
C354 N362 1.356 . S
C355 C354 1.363 . S
C355 C361 1.363 1_554 S
C356 C357 1.363 1_556 S
C356 C361 1.379 . S
C356 N363 1.356 . S
C357 C356 1.363 1_554 S
C357 C360 1.363 . S
N358 C360 1.356 . S
N358 H370 0.984 . S
N358 H371 0.985 . S
N359 C361 1.356 . S
N359 H364 0.984 . S
N359 H365 0.985 . S
C360 C354 1.379 . S
C360 C357 1.363 . S
C360 N358 1.356 . S
C361 C355 1.363 1_556 S
C361 C356 1.379 . S
C361 N359 1.356 . S
N362 C354 1.356 . S
N362 H368 0.984 . S
N362 H369 0.984 . S
N363 C356 1.356 . S
N363 H366 0.984 . S
N363 H367 0.985 . S
H364 N359 0.984 . S
H365 N359 0.985 . S
H366 N363 0.984 . S
H367 N363 0.985 . S
H368 N362 0.984 . S
H369 N362 0.984 . S
H370 N358 0.984 . S
H371 N358 0.985 . S
C372 C373 1.363 . S
C372 C378 1.379 . S
C372 N380 1.356 . S
C373 C372 1.363 . S
C373 C379 1.363 . S
C374 C375 1.363 . S
C374 C379 1.379 . S
C374 N381 1.356 . S
C375 C374 1.363 . S
C375 C378 1.363 . S
N376 C378 1.356 . S
N376 H388 0.984 . S
N376 H389 0.985 . S
N377 C379 1.356 . S
N377 H382 0.984 . S
N377 H383 0.985 . S
C378 C372 1.379 . S
C378 C375 1.363 . S
C378 N376 1.356 . S
C379 C373 1.363 . S
C379 C374 1.379 . S
C379 N377 1.356 . S
N380 C372 1.356 . S
N380 H386 0.984 . S
N380 H387 0.984 . S
N381 C374 1.356 . S
N381 H384 0.984 . S
N381 H385 0.985 . S
H382 N377 0.984 . S
H383 N377 0.985 . S
H384 N381 0.984 . S
H385 N381 0.985 . S
H386 N380 0.984 . S
H387 N380 0.984 . S
H388 N376 0.984 . S
H389 N376 0.985 . S
C390 C391 1.363 . S
C390 C396 1.379 . S
C390 N398 1.356 . S
C391 C390 1.363 . S
C391 C397 1.363 . S
C392 C393 1.363 . S
C392 C397 1.379 . S
C392 N399 1.356 . S
C393 C392 1.363 . S
C393 C396 1.363 . S
N394 C396 1.356 . S
N394 H406 0.984 . S
N394 H407 0.985 . S
N395 C397 1.356 . S
N395 H400 0.984 . S
N395 H401 0.985 . S
C396 C390 1.379 . S
C396 C393 1.363 . S
C396 N394 1.356 . S
C397 C391 1.363 . S
C397 C392 1.379 . S
C397 N395 1.356 . S
N398 C390 1.356 . S
N398 H404 0.984 . S
N398 H405 0.984 . S
N399 C392 1.356 . S
N399 H402 0.984 . S
N399 H403 0.985 . S
H400 N395 0.984 . S
H401 N395 0.985 . S
H402 N399 0.984 . S
H403 N399 0.985 . S
H404 N398 0.984 . S
H405 N398 0.984 . S
H406 N394 0.984 . S
H407 N394 0.985 . S
C408 C409 1.363 . S
C408 C414 1.379 . S
C408 N416 1.356 . S
C409 C408 1.363 . S
C409 C415 1.363 . S
C410 C411 1.363 . S
C410 C415 1.379 . S
C410 N417 1.356 . S
C411 C410 1.363 . S
C411 C414 1.363 . S
N412 C414 1.356 . S
N412 H424 0.984 . S
N412 H425 0.985 . S
N413 C415 1.356 . S
N413 H418 0.984 . S
N413 H419 0.985 . S
C414 C408 1.379 . S
C414 C411 1.363 . S
C414 N412 1.356 . S
C415 C409 1.363 . S
C415 C410 1.379 . S
C415 N413 1.356 . S
N416 C408 1.356 . S
N416 H422 0.984 . S
N416 H423 0.984 . S
N417 C410 1.356 . S
N417 H420 0.984 . S
N417 H421 0.985 . S
H418 N413 0.984 . S
H419 N413 0.985 . S
H420 N417 0.984 . S
H421 N417 0.985 . S
H422 N416 0.984 . S
H423 N416 0.984 . S
H424 N412 0.984 . S
H425 N412 0.985 . S
C426 C427 1.363 . S
C426 C432 1.379 . S
C426 N434 1.356 . S
C427 C426 1.363 . S
C427 C433 1.363 . S
C428 C429 1.363 . S
C428 C433 1.379 . S
C428 N435 1.356 . S
C429 C428 1.363 . S
C429 C432 1.363 . S
N430 C432 1.356 . S
N430 H442 0.984 . S
N430 H443 0.985 . S
N431 C433 1.356 . S
N431 H436 0.984 . S
N431 H437 0.985 . S
C432 C426 1.379 . S
C432 C429 1.363 . S
C432 N430 1.356 . S
C433 C427 1.363 . S
C433 C428 1.379 . S
C433 N431 1.356 . S
N434 C426 1.356 . S
N434 H440 0.984 . S
N434 H441 0.984 . S
N435 C428 1.356 . S
N435 H438 0.984 . S
N435 H439 0.985 . S
H436 N431 0.984 . S
H437 N431 0.985 . S
H438 N435 0.984 . S
H439 N435 0.985 . S
H440 N434 0.984 . S
H441 N434 0.984 . S
H442 N430 0.984 . S
H443 N430 0.985 . S
C444 C445 1.363 . S
C444 C450 1.379 . S
C444 N452 1.356 . S
C445 C444 1.363 . S
C445 C451 1.363 . S
C446 C447 1.363 . S
C446 C451 1.379 . S
C446 N453 1.356 . S
C447 C446 1.363 . S
C447 C450 1.363 . S
N448 C450 1.356 . S
N448 H460 0.984 . S
N448 H461 0.985 . S
N449 C451 1.356 . S
N449 H454 0.984 . S
N449 H455 0.985 . S
C450 C444 1.379 . S
C450 C447 1.363 . S
C450 N448 1.356 . S
C451 C445 1.363 . S
C451 C446 1.379 . S
C451 N449 1.356 . S
N452 C444 1.356 . S
N452 H458 0.984 . S
N452 H459 0.984 . S
N453 C446 1.356 . S
N453 H456 0.984 . S
N453 H457 0.985 . S
H454 N449 0.984 . S
H455 N449 0.985 . S
H456 N453 0.984 . S
H457 N453 0.985 . S
H458 N452 0.984 . S
H459 N452 0.984 . S
H460 N448 0.984 . S
H461 N448 0.985 . S
C462 C463 1.363 . S
C462 C468 1.379 . S
C462 N470 1.356 . S
C463 C462 1.363 . S
C463 C469 1.363 . S
C464 C465 1.363 . S
C464 C469 1.379 . S
C464 N471 1.356 . S
C465 C464 1.363 . S
C465 C468 1.363 . S
N466 C468 1.356 . S
N466 H478 0.984 . S
N466 H479 0.985 . S
N467 C469 1.356 . S
N467 H472 0.984 . S
N467 H473 0.985 . S
C468 C462 1.379 . S
C468 C465 1.363 . S
C468 N466 1.356 . S
C469 C463 1.363 . S
C469 C464 1.379 . S
C469 N467 1.356 . S
N470 C462 1.356 . S
N470 H476 0.984 . S
N470 H477 0.984 . S
N471 C464 1.356 . S
N471 H474 0.984 . S
N471 H475 0.985 . S
H472 N467 0.984 . S
H473 N467 0.985 . S
H474 N471 0.984 . S
H475 N471 0.985 . S
H476 N470 0.984 . S
H477 N470 0.984 . S
H478 N466 0.984 . S
H479 N466 0.985 . S
C480 C481 1.363 . S
C480 C486 1.379 . S
C480 N488 1.356 . S
C481 C480 1.363 . S
C481 C487 1.363 . S
C482 C483 1.363 . S
C482 C487 1.379 . S
C482 N489 1.356 . S
C483 C482 1.363 . S
C483 C486 1.363 . S
N484 C486 1.356 . S
N484 H496 0.984 . S
N484 H497 0.985 . S
N485 C487 1.356 . S
N485 H490 0.984 . S
N485 H491 0.985 . S
C486 C480 1.379 . S
C486 C483 1.363 . S
C486 N484 1.356 . S
C487 C481 1.363 . S
C487 C482 1.379 . S
C487 N485 1.356 . S
N488 C480 1.356 . S
N488 H494 0.984 . S
N488 H495 0.984 . S
N489 C482 1.356 . S
N489 H492 0.984 . S
N489 H493 0.985 . S
H490 N485 0.984 . S
H491 N485 0.985 . S
H492 N489 0.984 . S
H493 N489 0.985 . S
H494 N488 0.984 . S
H495 N488 0.984 . S
H496 N484 0.984 . S
H497 N484 0.985 . S
C498 C499 1.363 . S
C498 C504 1.379 . S
C498 N506 1.356 . S
C499 C498 1.363 . S
C499 C505 1.363 . S
C500 C501 1.363 . S
C500 C505 1.379 . S
C500 N507 1.356 . S
C501 C500 1.363 . S
C501 C504 1.363 . S
N502 C504 1.356 . S
N502 H514 0.984 . S
N502 H515 0.985 . S
N503 C505 1.356 . S
N503 H508 0.984 . S
N503 H509 0.985 . S
C504 C498 1.379 . S
C504 C501 1.363 . S
C504 N502 1.356 . S
C505 C499 1.363 . S
C505 C500 1.379 . S
C505 N503 1.356 . S
N506 C498 1.356 . S
N506 H512 0.984 . S
N506 H513 0.984 . S
N507 C500 1.356 . S
N507 H510 0.984 . S
N507 H511 0.985 . S
H508 N503 0.984 . S
H509 N503 0.985 . S
H510 N507 0.984 . S
H511 N507 0.985 . S
H512 N506 0.984 . S
H513 N506 0.984 . S
H514 N502 0.984 . S
H515 N502 0.985 . S
C516 C517 1.363 . S
C516 C522 1.379 . S
C516 N524 1.356 . S
C517 C516 1.363 . S
C517 C523 1.363 . S
C518 C519 1.363 . S
C518 C523 1.379 . S
C518 N525 1.356 . S
C519 C518 1.363 . S
C519 C522 1.363 . S
N520 C522 1.356 . S
N520 H532 0.984 . S
N520 H533 0.985 . S
N521 C523 1.356 . S
N521 H526 0.984 . S
N521 H527 0.985 . S
C522 C516 1.379 . S
C522 C519 1.363 . S
C522 N520 1.356 . S
C523 C517 1.363 . S
C523 C518 1.379 . S
C523 N521 1.356 . S
N524 C516 1.356 . S
N524 H530 0.984 . S
N524 H531 0.984 . S
N525 C518 1.356 . S
N525 H528 0.984 . S
N525 H529 0.985 . S
H526 N521 0.984 . S
H527 N521 0.985 . S
H528 N525 0.984 . S
H529 N525 0.985 . S
H530 N524 0.984 . S
H531 N524 0.984 . S
H532 N520 0.984 . S
H533 N520 0.985 . S
C534 C535 1.363 . S
C534 C540 1.379 . S
C534 N542 1.356 . S
C535 C534 1.363 . S
C535 C541 1.363 . S
C536 C537 1.363 . S
C536 C541 1.379 . S
C536 N543 1.356 . S
C537 C536 1.363 . S
C537 C540 1.363 . S
N538 C540 1.356 . S
N538 H550 0.984 . S
N538 H551 0.985 . S
N539 C541 1.356 . S
N539 H544 0.984 . S
N539 H545 0.985 . S
C540 C534 1.379 . S
C540 C537 1.363 . S
C540 N538 1.356 . S
C541 C535 1.363 . S
C541 C536 1.379 . S
C541 N539 1.356 . S
N542 C534 1.356 . S
N542 H548 0.984 . S
N542 H549 0.984 . S
N543 C536 1.356 . S
N543 H546 0.984 . S
N543 H547 0.985 . S
H544 N539 0.984 . S
H545 N539 0.985 . S
H546 N543 0.984 . S
H547 N543 0.985 . S
H548 N542 0.984 . S
H549 N542 0.984 . S
H550 N538 0.984 . S
H551 N538 0.985 . S
C552 C553 1.363 . S
C552 C558 1.379 . S
C552 N560 1.356 . S
C553 C552 1.363 . S
C553 C559 1.363 . S
C554 C555 1.363 . S
C554 C559 1.379 . S
C554 N561 1.356 . S
C555 C554 1.363 . S
C555 C558 1.363 . S
N556 C558 1.356 . S
N556 H568 0.984 . S
N556 H569 0.985 . S
N557 C559 1.356 . S
N557 H562 0.984 . S
N557 H563 0.985 . S
C558 C552 1.379 . S
C558 C555 1.363 . S
C558 N556 1.356 . S
C559 C553 1.363 . S
C559 C554 1.379 . S
C559 N557 1.356 . S
N560 C552 1.356 . S
N560 H566 0.984 . S
N560 H567 0.984 . S
N561 C554 1.356 . S
N561 H564 0.984 . S
N561 H565 0.985 . S
H562 N557 0.984 . S
H563 N557 0.985 . S
H564 N561 0.984 . S
H565 N561 0.985 . S
H566 N560 0.984 . S
H567 N560 0.984 . S
H568 N556 0.984 . S
H569 N556 0.985 . S
C570 C571 1.363 . S
C570 C576 1.379 . S
C570 N578 1.356 . S
C571 C570 1.363 . S
C571 C577 1.363 . S
C572 C573 1.363 . S
C572 C577 1.379 . S
C572 N579 1.356 . S
C573 C572 1.363 . S
C573 C576 1.363 . S
N574 C576 1.356 . S
N574 H586 0.984 . S
N574 H587 0.985 . S
N575 C577 1.356 . S
N575 H580 0.984 . S
N575 H581 0.985 . S
C576 C570 1.379 . S
C576 C573 1.363 . S
C576 N574 1.356 . S
C577 C571 1.363 . S
C577 C572 1.379 . S
C577 N575 1.356 . S
N578 C570 1.356 . S
N578 H584 0.984 . S
N578 H585 0.984 . S
N579 C572 1.356 . S
N579 H582 0.984 . S
N579 H583 0.985 . S
H580 N575 0.984 . S
H581 N575 0.985 . S
H582 N579 0.984 . S
H583 N579 0.985 . S
H584 N578 0.984 . S
H585 N578 0.984 . S
H586 N574 0.984 . S
H587 N574 0.985 . S
C157 C10 1.469 . S
C159 C70 1.449 . S
C175 C18 1.266 . S
C177 C60 1.287 . S
C193 C75 1.421 . S
C195 C36 1.423 . S
C211 C44 1.337 . S
C213 C52 1.354 . S
C229 C91 1.318 . S
C231 C31 1.301 . S
C247 C86 1.436 . S
C249 C49 1.431 . S
C265 C5 1.283 . S
C267 C99 1.300 . S
C283 C78 1.441 . S
C285 C23 1.439 . S
C301 C117 1.420 1_554 S
C303 C104 1.420 . S
C319 C112 1.318 1_554 S
C321 C151 1.317 . S
C337 C125 1.379 . S
C339 C138 1.383 . S
C355 C130 1.447 . S
C357 C143 1.447 1_554 S
C373 C153 1.425 . S
C375 C83 1.408 . S
C391 C109 1.262 . S
C393 C96 1.273 . S
C409 C88 1.455 . S
C411 C127 1.457 . S
C427 C101 1.391 . S
C429 C135 1.378 . S
C445 C62 1.350 . S
C447 C122 1.339 . S
C463 C73 1.467 . S
C465 C140 1.465 . S
C481 C148 1.276 . S
C483 C57 1.279 . S
C499 C114 1.395 . S
C501 C65 1.399 . S
C517 C13 1.404 . S
C519 C26 1.409 . S
C535 C8 1.323 . S
C537 C21 1.323 . S
C553 C34 1.342 . S
C555 C47 1.341 . S
C571 C0 1.431 . S
C573 C39 1.435 . S
