# Generated by pormake.
# Topology umr, (4)-cn, num edge types: 1
# Building blocks:
#     Node 0, Type 0, BuildingBlock: AZAVOO_clean_sbu_0, # of connection points: 4
#     Node 1, Type 0, BuildingBlock: AZAVOO_clean_sbu_0, # of connection points: 4
#     Node 2, Type 0, BuildingBlock: AZAVOO_clean_sbu_0, # of connection points: 4
#     Node 3, Type 0, BuildingBlock: AZAVOO_clean_sbu_0, # of connection points: 4
#     Node 4, Type 0, BuildingBlock: AZAVOO_clean_sbu_0, # of connection points: 4
#     Node 5, Type 0, BuildingBlock: AZAVOO_clean_sbu_0, # of connection points: 4
#     Node 6, Type 0, BuildingBlock: AZAVOO_clean_sbu_0, # of connection points: 4
#     Node 7, Type 0, BuildingBlock: AZAVOO_clean_sbu_0, # of connection points: 4
#     Node 8, Type 0, BuildingBlock: AZAVOO_clean_sbu_0, # of connection points: 4
#     Node 9, Type 0, BuildingBlock: AZAVOO_clean_sbu_0, # of connection points: 4
#     Node 10, Type 0, BuildingBlock: AZAVOO_clean_sbu_0, # of connection points: 4
#     Node 11, Type 0, BuildingBlock: AZAVOO_clean_sbu_0, # of connection points: 4
#     Node 12, Type 0, BuildingBlock: AZAVOO_clean_sbu_0, # of connection points: 4
#     Node 13, Type 0, BuildingBlock: AZAVOO_clean_sbu_0, # of connection points: 4
#     Node 14, Type 0, BuildingBlock: AZAVOO_clean_sbu_0, # of connection points: 4
#     Node 15, Type 0, BuildingBlock: AZAVOO_clean_sbu_0, # of connection points: 4
#     Node 16, Type 0, BuildingBlock: AZAVOO_clean_sbu_0, # of connection points: 4
#     Node 17, Type 0, BuildingBlock: AZAVOO_clean_sbu_0, # of connection points: 4
#     Node 18, Type 0, BuildingBlock: AZAVOO_clean_sbu_0, # of connection points: 4
#     Node 19, Type 0, BuildingBlock: AZAVOO_clean_sbu_0, # of connection points: 4
#     Node 20, Type 0, BuildingBlock: AZAVOO_clean_sbu_0, # of connection points: 4
#     Node 21, Type 0, BuildingBlock: AZAVOO_clean_sbu_0, # of connection points: 4
#     Node 22, Type 0, BuildingBlock: AZAVOO_clean_sbu_0, # of connection points: 4
#     Node 23, Type 0, BuildingBlock: AZAVOO_clean_sbu_0, # of connection points: 4
#     Node 24, Type 0, BuildingBlock: AZAVOO_clean_sbu_0, # of connection points: 4
#     Node 25, Type 0, BuildingBlock: AZAVOO_clean_sbu_0, # of connection points: 4
#     Node 26, Type 0, BuildingBlock: AZAVOO_clean_sbu_0, # of connection points: 4
#     Node 27, Type 0, BuildingBlock: AZAVOO_clean_sbu_0, # of connection points: 4
#     Node 28, Type 0, BuildingBlock: AZAVOO_clean_sbu_0, # of connection points: 4
#     Node 29, Type 0, BuildingBlock: AZAVOO_clean_sbu_0, # of connection points: 4
#     Node 30, Type 0, BuildingBlock: AZAVOO_clean_sbu_0, # of connection points: 4
#     Node 31, Type 0, BuildingBlock: AZAVOO_clean_sbu_0, # of connection points: 4
#     Edge 32, Type (0, 0), BuildingBlock: XIVTED_clean_linker_0, # of connection points: 2
#     Edge 33, Type (0, 0), BuildingBlock: XIVTED_clean_linker_0, # of connection points: 2
#     Edge 34, Type (0, 0), BuildingBlock: XIVTED_clean_linker_0, # of connection points: 2
#     Edge 35, Type (0, 0), BuildingBlock: XIVTED_clean_linker_0, # of connection points: 2
#     Edge 36, Type (0, 0), BuildingBlock: XIVTED_clean_linker_0, # of connection points: 2
#     Edge 37, Type (0, 0), BuildingBlock: XIVTED_clean_linker_0, # of connection points: 2
#     Edge 38, Type (0, 0), BuildingBlock: XIVTED_clean_linker_0, # of connection points: 2
#     Edge 39, Type (0, 0), BuildingBlock: XIVTED_clean_linker_0, # of connection points: 2
#     Edge 40, Type (0, 0), BuildingBlock: XIVTED_clean_linker_0, # of connection points: 2
#     Edge 41, Type (0, 0), BuildingBlock: XIVTED_clean_linker_0, # of connection points: 2
#     Edge 42, Type (0, 0), BuildingBlock: XIVTED_clean_linker_0, # of connection points: 2
#     Edge 43, Type (0, 0), BuildingBlock: XIVTED_clean_linker_0, # of connection points: 2
#     Edge 44, Type (0, 0), BuildingBlock: XIVTED_clean_linker_0, # of connection points: 2
#     Edge 45, Type (0, 0), BuildingBlock: XIVTED_clean_linker_0, # of connection points: 2
#     Edge 46, Type (0, 0), BuildingBlock: XIVTED_clean_linker_0, # of connection points: 2
#     Edge 47, Type (0, 0), BuildingBlock: XIVTED_clean_linker_0, # of connection points: 2
#     Edge 48, Type (0, 0), BuildingBlock: XIVTED_clean_linker_0, # of connection points: 2
#     Edge 49, Type (0, 0), BuildingBlock: XIVTED_clean_linker_0, # of connection points: 2
#     Edge 50, Type (0, 0), BuildingBlock: XIVTED_clean_linker_0, # of connection points: 2
#     Edge 51, Type (0, 0), BuildingBlock: XIVTED_clean_linker_0, # of connection points: 2
#     Edge 52, Type (0, 0), BuildingBlock: XIVTED_clean_linker_0, # of connection points: 2
#     Edge 53, Type (0, 0), BuildingBlock: XIVTED_clean_linker_0, # of connection points: 2
#     Edge 54, Type (0, 0), BuildingBlock: XIVTED_clean_linker_0, # of connection points: 2
#     Edge 55, Type (0, 0), BuildingBlock: XIVTED_clean_linker_0, # of connection points: 2
#     Edge 56, Type (0, 0), BuildingBlock: XIVTED_clean_linker_0, # of connection points: 2
#     Edge 57, Type (0, 0), BuildingBlock: XIVTED_clean_linker_0, # of connection points: 2
#     Edge 58, Type (0, 0), BuildingBlock: XIVTED_clean_linker_0, # of connection points: 2
#     Edge 59, Type (0, 0), BuildingBlock: XIVTED_clean_linker_0, # of connection points: 2
#     Edge 60, Type (0, 0), BuildingBlock: XIVTED_clean_linker_0, # of connection points: 2
#     Edge 61, Type (0, 0), BuildingBlock: XIVTED_clean_linker_0, # of connection points: 2
#     Edge 62, Type (0, 0), BuildingBlock: XIVTED_clean_linker_0, # of connection points: 2
#     Edge 63, Type (0, 0), BuildingBlock: XIVTED_clean_linker_0, # of connection points: 2
#     Edge 64, Type (0, 0), BuildingBlock: XIVTED_clean_linker_0, # of connection points: 2
#     Edge 65, Type (0, 0), BuildingBlock: XIVTED_clean_linker_0, # of connection points: 2
#     Edge 66, Type (0, 0), BuildingBlock: XIVTED_clean_linker_0, # of connection points: 2
#     Edge 67, Type (0, 0), BuildingBlock: XIVTED_clean_linker_0, # of connection points: 2
#     Edge 68, Type (0, 0), BuildingBlock: XIVTED_clean_linker_0, # of connection points: 2
#     Edge 69, Type (0, 0), BuildingBlock: XIVTED_clean_linker_0, # of connection points: 2
#     Edge 70, Type (0, 0), BuildingBlock: XIVTED_clean_linker_0, # of connection points: 2
#     Edge 71, Type (0, 0), BuildingBlock: XIVTED_clean_linker_0, # of connection points: 2
#     Edge 72, Type (0, 0), BuildingBlock: XIVTED_clean_linker_0, # of connection points: 2
#     Edge 73, Type (0, 0), BuildingBlock: XIVTED_clean_linker_0, # of connection points: 2
#     Edge 74, Type (0, 0), BuildingBlock: XIVTED_clean_linker_0, # of connection points: 2
#     Edge 75, Type (0, 0), BuildingBlock: XIVTED_clean_linker_0, # of connection points: 2
#     Edge 76, Type (0, 0), BuildingBlock: XIVTED_clean_linker_0, # of connection points: 2
#     Edge 77, Type (0, 0), BuildingBlock: XIVTED_clean_linker_0, # of connection points: 2
#     Edge 78, Type (0, 0), BuildingBlock: XIVTED_clean_linker_0, # of connection points: 2
#     Edge 79, Type (0, 0), BuildingBlock: XIVTED_clean_linker_0, # of connection points: 2
#     Edge 80, Type (0, 0), BuildingBlock: XIVTED_clean_linker_0, # of connection points: 2
#     Edge 81, Type (0, 0), BuildingBlock: XIVTED_clean_linker_0, # of connection points: 2
#     Edge 82, Type (0, 0), BuildingBlock: XIVTED_clean_linker_0, # of connection points: 2
#     Edge 83, Type (0, 0), BuildingBlock: XIVTED_clean_linker_0, # of connection points: 2
#     Edge 84, Type (0, 0), BuildingBlock: XIVTED_clean_linker_0, # of connection points: 2
#     Edge 85, Type (0, 0), BuildingBlock: XIVTED_clean_linker_0, # of connection points: 2
#     Edge 86, Type (0, 0), BuildingBlock: XIVTED_clean_linker_0, # of connection points: 2
#     Edge 87, Type (0, 0), BuildingBlock: XIVTED_clean_linker_0, # of connection points: 2
#     Edge 88, Type (0, 0), BuildingBlock: XIVTED_clean_linker_0, # of connection points: 2
#     Edge 89, Type (0, 0), BuildingBlock: XIVTED_clean_linker_0, # of connection points: 2
#     Edge 90, Type (0, 0), BuildingBlock: XIVTED_clean_linker_0, # of connection points: 2
#     Edge 91, Type (0, 0), BuildingBlock: XIVTED_clean_linker_0, # of connection points: 2
#     Edge 92, Type (0, 0), BuildingBlock: XIVTED_clean_linker_0, # of connection points: 2
#     Edge 93, Type (0, 0), BuildingBlock: XIVTED_clean_linker_0, # of connection points: 2
#     Edge 94, Type (0, 0), BuildingBlock: XIVTED_clean_linker_0, # of connection points: 2
#     Edge 95, Type (0, 0), BuildingBlock: XIVTED_clean_linker_0, # of connection points: 2
# Relax obj value: 0.170
# Max RMSD: 0.152
# Mean RMSD: 0.152
data_MOF--net-umr--node1-AZAVOO_clean_sbu_0--edge1-XIVTED_clean_linker_0
_symmetry_space_group_name_H-M    P1
_symmetry_Int_Tables_number       1
_symmetry_cell_setting            triclinic
loop_
_symmetry_equiv_pos_as_xyz
'x, y, z'
_cell_length_a     84.242107
_cell_length_b     84.264614
_cell_length_c     25.299398
_cell_angle_alpha  90.001686
_cell_angle_beta   90.037983
_cell_angle_gamma 90.011429
loop_
_atom_site_label
_atom_site_type_symbol
_atom_site_fract_x
_atom_site_fract_y
_atom_site_fract_z
_atom_type_partial_charge
Mg0 Mg 0.15604 0.29322 0.07934 0.0
O1 O 0.18263 0.2917 0.076 0.0
O2 O 0.19408 0.29742 0.15275 0.0
Mg3 Mg 0.17294 0.30149 0.20927 0.0
C4 C 0.19498 0.29368 0.104 0.0
C5 C 0.14599 0.29135 0.95712 0.0
O6 O 0.13127 0.29271 0.97363 0.0
O7 O 0.15761 0.32016 0.08201 0.0
O8 O 0.16604 0.32434 0.16482 0.0
O9 O 0.1544 0.26784 0.10359 0.0
O10 O 0.1559 0.28801 0.15943 0.0
C11 C 0.16113 0.32949 0.12013 0.0
C12 C 0.15495 0.27293 0.15186 0.0
O13 O 0.15728 0.29213 0.9902 0.0
Mg14 Mg 0.95115 0.90703 0.34297 0.0
O15 O 0.95173 0.93349 0.32844 0.0
O16 O 0.94463 0.94652 0.40126 0.0
Mg17 Mg 0.94048 0.92747 0.46501 0.0
C18 C 0.94887 0.94638 0.35283 0.0
C19 C 0.96456 0.89403 0.24231 0.0
O20 O 0.97108 0.88551 0.28003 0.0
O21 O 0.92421 0.9075 0.34121 0.0
O22 O 0.91855 0.91806 0.42023 0.0
O23 O 0.97624 0.90733 0.37045 0.0
O24 O 0.95548 0.91003 0.42314 0.0
C25 C 0.91424 0.91164 0.37669 0.0
C26 C 0.97066 0.90942 0.41758 0.0
O27 O 0.95364 0.90372 0.25459 0.0
Mg28 Mg 0.33758 0.6989 0.59917 0.0
O29 O 0.31146 0.69946 0.57807 0.0
O30 O 0.29715 0.69186 0.64757 0.0
Mg31 Mg 0.31477 0.68758 0.7157 0.0
C32 C 0.29817 0.69633 0.59947 0.0
C33 C 0.35244 0.71283 0.5019 0.0
O34 O 0.36008 0.71948 0.54142 0.0
O35 O 0.33726 0.67197 0.59608 0.0
O36 O 0.3253 0.6659 0.67252 0.0
O37 O 0.33672 0.72388 0.62807 0.0
O38 O 0.33291 0.70286 0.6787 0.0
C39 C 0.33257 0.66183 0.63027 0.0
C40 C 0.33371 0.71806 0.67433 0.0
O41 O 0.34272 0.70173 0.51197 0.0
Mg42 Mg 0.54179 0.08881 0.82786 0.0
O43 O 0.54042 0.06223 0.82241 0.0
O44 O 0.54588 0.05045 0.89878 0.0
Mg45 Mg 0.54937 0.07125 0.95716 0.0
C46 C 0.54239 0.04976 0.84976 0.0
C47 C 0.54069 0.09985 0.7068 0.0
O48 O 0.54191 0.11438 0.72516 0.0
O49 O 0.56872 0.08738 0.83233 0.0
O50 O 0.57246 0.07866 0.91505 0.0
O51 O 0.51625 0.09026 0.85058 0.0
O52 O 0.53611 0.0885 0.90759 0.0
C53 C 0.57784 0.08382 0.87099 0.0
C54 C 0.52108 0.08955 0.89914 0.0
O55 O 0.54127 0.08823 0.73859 0.0
Mg56 Mg 0.15886 0.70298 0.40204 0.0
O57 O 0.18548 0.70184 0.40835 0.0
O58 O 0.19803 0.69533 0.33453 0.0
Mg59 Mg 0.17722 0.69206 0.27583 0.0
C60 C 0.19821 0.69904 0.38337 0.0
C61 C 0.16774 0.71696 0.50599 0.0
O62 O 0.17508 0.72517 0.46929 0.0
O63 O 0.15831 0.67598 0.40295 0.0
O64 O 0.16804 0.67045 0.32259 0.0
O65 O 0.15936 0.72802 0.37408 0.0
O66 O 0.16037 0.70723 0.3209 0.0
C67 C 0.16194 0.66608 0.36656 0.0
C68 C 0.16024 0.72241 0.3266 0.0
O69 O 0.15855 0.70572 0.492 0.0
Mg70 Mg 0.54743 0.90898 0.65031 0.0
O71 O 0.54605 0.93535 0.66669 0.0
O72 O 0.553 0.94883 0.59463 0.0
Mg73 Mg 0.55803 0.93028 0.52996 0.0
C74 C 0.5486 0.94839 0.64289 0.0
C75 C 0.53374 0.89559 0.75003 0.0
O76 O 0.52707 0.88737 0.71186 0.0
O77 O 0.57431 0.91015 0.65322 0.0
O78 O 0.58007 0.92118 0.57501 0.0
O79 O 0.52242 0.90883 0.62198 0.0
O80 O 0.54325 0.91229 0.5701 0.0
C81 C 0.58433 0.91467 0.61845 0.0
C82 C 0.52807 0.91133 0.57516 0.0
O83 O 0.54483 0.90515 0.73832 0.0
Mg84 Mg 0.33651 0.29644 0.90835 0.0
O85 O 0.31011 0.29539 0.92513 0.0
O86 O 0.29675 0.30249 0.85288 0.0
Mg87 Mg 0.31522 0.30727 0.78792 0.0
C88 C 0.29711 0.29812 0.90117 0.0
C89 C 0.35072 0.28287 0.00685 0.0
O90 O 0.35899 0.27673 0.96789 0.0
O91 O 0.33577 0.3234 0.91114 0.0
O92 O 0.32473 0.32909 0.83284 0.0
O93 O 0.33643 0.27144 0.87958 0.0
O94 O 0.333 0.29238 0.82827 0.0
C95 C 0.33136 0.33339 0.87603 0.0
C96 C 0.3339 0.2772 0.83291 0.0
O97 O 0.34065 0.29362 0.99622 0.0
Mg98 Mg 0.94955 0.08765 0.15565 0.0
O99 O 0.95044 0.06123 0.1716 0.0
O100 O 0.94325 0.04788 0.09947 0.0
Mg101 Mg 0.93867 0.06653 0.03485 0.0
C102 C 0.94764 0.04823 0.14775 0.0
C103 C 0.96358 0.10123 0.25436 0.0
O104 O 0.96981 0.10949 0.21549 0.0
O105 O 0.92256 0.08698 0.15837 0.0
O106 O 0.91691 0.07601 0.07991 0.0
O107 O 0.97453 0.08753 0.12682 0.0
O108 O 0.95354 0.08428 0.07549 0.0
C109 C 0.91259 0.08262 0.1231 0.0
C110 C 0.96873 0.08516 0.08011 0.0
O111 O 0.95254 0.09148 0.24371 0.0
Mg112 Mg 0.83662 0.69812 0.89547 0.0
O113 O 0.81045 0.69867 0.91523 0.0
O114 O 0.79615 0.69101 0.84574 0.0
Mg115 Mg 0.81405 0.68645 0.77869 0.0
C116 C 0.79716 0.69559 0.89372 0.0
C117 C 0.85054 0.71277 0.99321 0.0
O118 O 0.85811 0.71961 0.95395 0.0
O119 O 0.83644 0.6712 0.8993 0.0
O120 O 0.82443 0.6649 0.82316 0.0
O121 O 0.83574 0.72298 0.86593 0.0
O122 O 0.83221 0.70183 0.81558 0.0
C123 C 0.83173 0.66094 0.86552 0.0
C124 C 0.83293 0.71705 0.81968 0.0
O125 O 0.84133 0.70125 0.98292 0.0
Mg126 Mg 0.04794 0.0899 0.65579 0.0
O127 O 0.04767 0.06338 0.66956 0.0
O128 O 0.05542 0.05067 0.59686 0.0
Mg129 Mg 0.05994 0.06998 0.53434 0.0
C130 C 0.05084 0.05061 0.64494 0.0
C131 C 0.03348 0.10213 0.7559 0.0
O132 O 0.02666 0.11034 0.71798 0.0
O133 O 0.07481 0.08986 0.66011 0.0
O134 O 0.08141 0.07943 0.58179 0.0
O135 O 0.02309 0.08921 0.62657 0.0
O136 O 0.04419 0.08705 0.57506 0.0
C137 C 0.0852 0.08583 0.6259 0.0
C138 C 0.02896 0.08732 0.57974 0.0
O139 O 0.04487 0.09296 0.744 0.0
Mg140 Mg 0.66098 0.29605 0.38817 0.0
O141 O 0.68735 0.29657 0.40488 0.0
O142 O 0.6999 0.3078 0.33683 0.0
Mg143 Mg 0.68122 0.31085 0.27102 0.0
C144 C 0.69992 0.30174 0.38305 0.0
C145 C 0.6484 0.2797 0.48458 0.0
O146 O 0.64095 0.273 0.44476 0.0
O147 O 0.65955 0.3229 0.3959 0.0
O148 O 0.66946 0.33098 0.31832 0.0
O149 O 0.66299 0.27171 0.35589 0.0
O150 O 0.66478 0.29351 0.3075 0.0
C151 C 0.66269 0.33385 0.36252 0.0
C152 C 0.66502 0.27822 0.31007 0.0
O153 O 0.65716 0.29165 0.47544 0.0
Mg154 Mg 0.44933 0.91039 0.14904 0.0
O155 O 0.45033 0.93693 0.16227 0.0
O156 O 0.44276 0.94964 0.08931 0.0
Mg157 Mg 0.43795 0.93038 0.02679 0.0
C158 C 0.44742 0.94971 0.13732 0.0
C159 C 0.46333 0.89739 0.24864 0.0
O160 O 0.46949 0.88886 0.21031 0.0
O161 O 0.42241 0.91102 0.15268 0.0
O162 O 0.41631 0.92114 0.07336 0.0
O163 O 0.47421 0.9103 0.11978 0.0
O164 O 0.45313 0.91306 0.06847 0.0
C165 C 0.41224 0.91493 0.11748 0.0
C166 C 0.46834 0.91229 0.07297 0.0
O167 O 0.45244 0.90723 0.23733 0.0
Mg168 Mg 0.83431 0.29579 0.61064 0.0
O169 O 0.80791 0.29606 0.59445 0.0
O170 O 0.79531 0.3068 0.66325 0.0
Mg171 Mg 0.81408 0.30974 0.72887 0.0
C172 C 0.79532 0.30095 0.61675 0.0
C173 C 0.84695 0.28033 0.51264 0.0
O174 O 0.85467 0.27353 0.55168 0.0
O175 O 0.83546 0.32269 0.60454 0.0
O176 O 0.82558 0.33028 0.6827 0.0
O177 O 0.83256 0.27125 0.64128 0.0
O178 O 0.83069 0.29273 0.69123 0.0
C179 C 0.83227 0.33344 0.63857 0.0
C180 C 0.83054 0.27746 0.68758 0.0
O181 O 0.83798 0.29202 0.52301 0.0
Mg182 Mg 0.45108 0.09222 0.32672 0.0
O183 O 0.4528 0.06579 0.30994 0.0
O184 O 0.44936 0.05246 0.38525 0.0
Mg185 Mg 0.44714 0.07089 0.45176 0.0
C186 C 0.4516 0.05279 0.33534 0.0
C187 C 0.45728 0.10794 0.22205 0.0
O188 O 0.46345 0.11768 0.25709 0.0
O189 O 0.42452 0.08977 0.33832 0.0
O190 O 0.42288 0.07921 0.41934 0.0
O191 O 0.47707 0.09406 0.34031 0.0
O192 O 0.45956 0.08871 0.403 0.0
C193 C 0.41641 0.08523 0.3782 0.0
C194 C 0.47417 0.09056 0.38915 0.0
O195 O 0.44909 0.09632 0.23853 0.0
Mg196 Mg 0.65903 0.7015 0.11039 0.0
O197 O 0.68529 0.70138 0.09281 0.0
O198 O 0.69898 0.69329 0.16308 0.0
Mg199 Mg 0.68046 0.68935 0.22889 0.0
C200 C 0.69837 0.69791 0.11507 0.0
C201 C 0.64651 0.71661 0.01157 0.0
O202 O 0.639 0.72381 0.05024 0.0
O203 O 0.6587 0.67462 0.10658 0.0
O204 O 0.66983 0.66799 0.18395 0.0
O205 O 0.66037 0.72633 0.13955 0.0
O206 O 0.66294 0.70518 0.1906 0.0
C207 C 0.66285 0.66425 0.14077 0.0
C208 C 0.66268 0.72041 0.18611 0.0
O209 O 0.65508 0.70467 0.02253 0.0
Mg210 Mg 0.04848 0.90996 0.84342 0.0
O211 O 0.04776 0.93645 0.82863 0.0
O212 O 0.05472 0.9494 0.9018 0.0
Mg213 Mg 0.05896 0.93042 0.9656 0.0
C214 C 0.05054 0.94931 0.85331 0.0
C215 C 0.03561 0.89609 0.74351 0.0
O216 O 0.02954 0.88746 0.78175 0.0
O217 O 0.07542 0.91054 0.84187 0.0
O218 O 0.08095 0.92113 0.92094 0.0
O219 O 0.02337 0.91004 0.87071 0.0
O220 O 0.04409 0.91293 0.92352 0.0
C221 C 0.08534 0.91473 0.8775 0.0
C222 C 0.02892 0.91213 0.91791 0.0
O223 O 0.04604 0.90638 0.75517 0.0
Mg224 Mg 0.66065 0.79967 0.61013 0.0
O225 O 0.6869 0.79902 0.59177 0.0
O226 O 0.7009 0.80678 0.66183 0.0
Mg227 Mg 0.68271 0.81157 0.72777 0.0
C228 C 0.7001 0.8021 0.61393 0.0
C229 C 0.64713 0.78473 0.51246 0.0
O230 O 0.63943 0.77804 0.55174 0.0
O231 O 0.66091 0.82657 0.60556 0.0
O232 O 0.6726 0.83302 0.68212 0.0
O233 O 0.66137 0.77489 0.64021 0.0
O234 O 0.6647 0.79613 0.69031 0.0
C235 C 0.66551 0.8369 0.63928 0.0
C236 C 0.664 0.78091 0.68645 0.0
O237 O 0.6563 0.79629 0.52257 0.0
Mg238 Mg 0.44733 0.40969 0.86646 0.0
O239 O 0.44749 0.43583 0.847 0.0
O240 O 0.43981 0.4501 0.91641 0.0
Mg241 Mg 0.43573 0.43209 0.98362 0.0
C242 C 0.44429 0.4491 0.86834 0.0
C243 C 0.46239 0.39669 0.76827 0.0
O244 O 0.46943 0.38914 0.80719 0.0
O245 O 0.42037 0.4096 0.86323 0.0
O246 O 0.41421 0.4214 0.9399 0.0
O247 O 0.47223 0.4109 0.89541 0.0
O248 O 0.45115 0.41405 0.94632 0.0
C249 C 0.41019 0.41412 0.89755 0.0
C250 C 0.46637 0.41355 0.94183 0.0
O251 O 0.45045 0.40531 0.77884 0.0
Mg252 Mg 0.8345 0.19778 0.10991 0.0
O253 O 0.80826 0.19746 0.09128 0.0
O254 O 0.79447 0.18967 0.16167 0.0
Mg255 Mg 0.81274 0.18604 0.22831 0.0
C256 C 0.79515 0.19406 0.11343 0.0
C257 C 0.84774 0.21267 0.01217 0.0
O258 O 0.85543 0.2194 0.05146 0.0
O259 O 0.83504 0.17082 0.10725 0.0
O260 O 0.82365 0.16467 0.18461 0.0
O261 O 0.83303 0.22271 0.13847 0.0
O262 O 0.83033 0.20165 0.18978 0.0
C263 C 0.83083 0.16066 0.14211 0.0
C264 C 0.83063 0.21686 0.18507 0.0
O265 O 0.83877 0.20096 0.02224 0.0
Mg266 Mg 0.04658 0.58747 0.35198 0.0
O267 O 0.04707 0.56111 0.33539 0.0
O268 O 0.05466 0.54788 0.40724 0.0
Mg269 Mg 0.05794 0.56662 0.47262 0.0
C270 C 0.05045 0.54819 0.35878 0.0
C271 C 0.03248 0.60055 0.25259 0.0
O272 O 0.02573 0.60853 0.29112 0.0
O273 O 0.07355 0.58815 0.35066 0.0
O274 O 0.07946 0.57735 0.42917 0.0
O275 O 0.02151 0.58609 0.37946 0.0
O276 O 0.04238 0.58381 0.43191 0.0
C277 C 0.0836 0.58426 0.3863 0.0
C278 C 0.02718 0.58401 0.42649 0.0
O279 O 0.04386 0.59127 0.26383 0.0
Mg280 Mg 0.65828 0.19728 0.88925 0.0
O281 O 0.68452 0.19673 0.90746 0.0
O282 O 0.69821 0.18837 0.83762 0.0
Mg283 Mg 0.67976 0.18443 0.77165 0.0
C284 C 0.69759 0.19307 0.88552 0.0
C285 C 0.64621 0.2133 0.98693 0.0
O286 O 0.6389 0.22048 0.94777 0.0
O287 O 0.65734 0.17038 0.89396 0.0
O288 O 0.66864 0.16347 0.81721 0.0
O289 O 0.66018 0.22198 0.8592 0.0
O290 O 0.66241 0.20063 0.80894 0.0
C291 C 0.66142 0.15989 0.86008 0.0
C292 C 0.66246 0.21587 0.81291 0.0
O293 O 0.65432 0.20097 0.97685 0.0
Mg294 Mg 0.04907 0.40972 0.14424 0.0
O295 O 0.04916 0.43605 0.16168 0.0
O296 O 0.05669 0.44957 0.09038 0.0
Mg297 Mg 0.06051 0.43104 0.02474 0.0
C298 C 0.05237 0.44908 0.13869 0.0
C299 C 0.03497 0.39621 0.243 0.0
O300 O 0.02832 0.38827 0.20416 0.0
O301 O 0.07602 0.4093 0.14639 0.0
O302 O 0.08207 0.42052 0.06875 0.0
O303 O 0.02406 0.41088 0.11614 0.0
O304 O 0.04499 0.41352 0.06422 0.0
C305 C 0.08616 0.41347 0.11145 0.0
C306 C 0.02979 0.41313 0.06929 0.0
O307 O 0.04625 0.40565 0.23217 0.0
Mg308 Mg 0.83749 0.79603 0.39481 0.0
O309 O 0.81116 0.79599 0.41179 0.0
O310 O 0.79754 0.80343 0.34057 0.0
Mg311 Mg 0.8161 0.80732 0.2751 0.0
C312 C 0.79809 0.79913 0.38891 0.0
C313 C 0.84999 0.7814 0.49441 0.0
O314 O 0.85768 0.77424 0.45605 0.0
O315 O 0.83765 0.82298 0.39703 0.0
O316 O 0.8263 0.82895 0.31946 0.0
O317 O 0.83647 0.77104 0.36653 0.0
O318 O 0.83378 0.79199 0.31469 0.0
C319 C 0.83329 0.83309 0.36222 0.0
C320 C 0.83424 0.77679 0.31969 0.0
O321 O 0.84128 0.79321 0.48297 0.0
Mg322 Mg 0.44846 0.58451 0.63517 0.0
O323 O 0.4483 0.55838 0.65493 0.0
O324 O 0.44018 0.54421 0.58579 0.0
Mg325 Mg 0.43617 0.56222 0.51855 0.0
C326 C 0.44482 0.54515 0.63372 0.0
C327 C 0.46405 0.59742 0.7325 0.0
O328 O 0.47117 0.60466 0.69309 0.0
O329 O 0.42153 0.58498 0.63926 0.0
O330 O 0.41493 0.57324 0.56288 0.0
O331 O 0.47324 0.58294 0.60563 0.0
O332 O 0.45199 0.58005 0.55519 0.0
C333 C 0.41117 0.58058 0.60534 0.0
C334 C 0.46723 0.58037 0.55934 0.0
O335 O 0.45191 0.58901 0.7226 0.0
Mg336 Mg 0.33852 0.1982 0.40729 0.0
O337 O 0.31186 0.19898 0.41803 0.0
O338 O 0.2997 0.19183 0.34356 0.0
Mg339 Mg 0.31952 0.1871 0.28305 0.0
C340 C 0.29926 0.19624 0.39179 0.0
C341 C 0.3502 0.21218 0.50873 0.0
O342 O 0.35886 0.21878 0.47156 0.0
O343 O 0.33808 0.17128 0.41022 0.0
O344 O 0.32826 0.16538 0.33039 0.0
O345 O 0.33855 0.22317 0.37897 0.0
O346 O 0.33649 0.20228 0.32648 0.0
C347 C 0.33425 0.16118 0.37473 0.0
C348 C 0.33698 0.21748 0.33176 0.0
O349 O 0.34084 0.20101 0.49598 0.0
Mg350 Mg 0.5469 0.58477 0.13496 0.0
O351 O 0.54684 0.55848 0.15287 0.0
O352 O 0.55764 0.54525 0.0855 0.0
Mg353 Mg 0.56119 0.56356 0.01896 0.0
C354 C 0.55161 0.54566 0.13171 0.0
C355 C 0.53054 0.59732 0.23172 0.0
O356 O 0.52354 0.60459 0.19211 0.0
O357 O 0.5738 0.58577 0.14244 0.0
O358 O 0.5816 0.57502 0.06583 0.0
O359 O 0.52251 0.58305 0.10283 0.0
O360 O 0.54425 0.58066 0.05442 0.0
C361 C 0.58467 0.58208 0.1094 0.0
C362 C 0.52896 0.58068 0.05709 0.0
O363 O 0.54267 0.58887 0.22221 0.0
Mg364 Mg 0.15911 0.79847 0.90495 0.0
O365 O 0.18533 0.79807 0.92653 0.0
O366 O 0.19954 0.80405 0.85485 0.0
Mg367 Mg 0.18207 0.80718 0.78601 0.0
C368 C 0.1986 0.80055 0.90386 0.0
C369 C 0.14302 0.78756 0.00396 0.0
O370 O 0.13485 0.781 0.96544 0.0
O371 O 0.15976 0.82535 0.90148 0.0
O372 O 0.17169 0.82981 0.82388 0.0
O373 O 0.15962 0.77286 0.88422 0.0
O374 O 0.16451 0.79227 0.82754 0.0
C375 C 0.1645 0.83476 0.8652 0.0
C376 C 0.16377 0.77726 0.83724 0.0
O377 O 0.1535 0.79779 0.99221 0.0
Mg378 Mg 0.95145 0.40832 0.64426 0.0
O379 O 0.95125 0.43468 0.66106 0.0
O380 O 0.94366 0.44806 0.5895 0.0
Mg381 Mg 0.93991 0.42937 0.52427 0.0
C382 C 0.94798 0.44766 0.63785 0.0
C383 C 0.96573 0.39533 0.74364 0.0
O384 O 0.97255 0.38737 0.70518 0.0
O385 O 0.9245 0.40788 0.64647 0.0
O386 O 0.91837 0.41899 0.56868 0.0
O387 O 0.97644 0.40953 0.61615 0.0
O388 O 0.95547 0.41198 0.56417 0.0
C389 C 0.91433 0.41204 0.61158 0.0
C390 C 0.97068 0.41169 0.56927 0.0
O391 O 0.95429 0.40452 0.73233 0.0
Mg392 Mg 0.3392 0.79676 0.10085 0.0
O393 O 0.31266 0.79604 0.08801 0.0
O394 O 0.29976 0.80294 0.16122 0.0
Mg395 Mg 0.31911 0.80726 0.22387 0.0
C396 C 0.29981 0.79873 0.11278 0.0
C397 C 0.35075 0.78254 -0.00057 0.0
O398 O 0.35906 0.77557 0.03675 0.0
O399 O 0.33862 0.82374 0.09923 0.0
O400 O 0.32805 0.8292 0.17837 0.0
O401 O 0.33916 0.7717 0.12869 0.0
O402 O 0.33664 0.79249 0.18134 0.0
C403 C 0.33438 0.83364 0.13485 0.0
C404 C 0.33735 0.77731 0.17589 0.0
O405 O 0.34188 0.79411 0.01204 0.0
Mg406 Mg 0.94903 0.58611 0.85155 0.0
O407 O 0.94955 0.55976 0.83495 0.0
O408 O 0.94207 0.54627 0.90637 0.0
Mg409 Mg 0.93784 0.56491 0.97149 0.0
C410 C 0.9465 0.54673 0.85816 0.0
C411 C 0.9628 0.59967 0.7522 0.0
O412 O 0.96933 0.60788 0.79065 0.0
O413 O 0.92212 0.58578 0.84877 0.0
O414 O 0.91608 0.57483 0.9269 0.0
O415 O 0.97402 0.58559 0.87987 0.0
O416 O 0.95311 0.5826 0.9317 0.0
C417 C 0.91198 0.58154 0.88361 0.0
C418 C 0.96831 0.58327 0.92672 0.0
O419 O 0.95178 0.58999 0.76355 0.0
Mg420 Mg 0.15671 0.20145 0.57835 0.0
O421 O 0.18328 0.20276 0.56288 0.0
O422 O 0.1961 0.19906 0.63909 0.0
Mg423 Mg 0.17734 0.19697 0.70446 0.0
C424 C 0.19611 0.20135 0.58919 0.0
C425 C 0.14086 0.20748 0.47407 0.0
O426 O 0.13102 0.21326 0.50948 0.0
O427 O 0.15862 0.17488 0.58965 0.0
O428 O 0.1689 0.17288 0.67095 0.0
O429 O 0.15521 0.22742 0.59213 0.0
O430 O 0.15997 0.20976 0.65492 0.0
C431 C 0.16292 0.16659 0.62943 0.0
C432 C 0.15836 0.22441 0.64117 0.0
O433 O 0.15277 0.19962 0.49009 0.0
Mg434 Mg 0.54498 0.41286 0.36838 0.0
O435 O 0.54549 0.43915 0.35032 0.0
O436 O 0.55597 0.45213 0.41881 0.0
Mg437 Mg 0.55854 0.43381 0.48585 0.0
C438 C 0.55035 0.45186 0.37198 0.0
C439 C 0.52977 0.39952 0.27102 0.0
O440 O 0.52297 0.39203 0.31053 0.0
O441 O 0.57192 0.41149 0.3637 0.0
O442 O 0.57918 0.42198 0.44133 0.0
O443 O 0.52033 0.41485 0.3982 0.0
O444 O 0.5417 0.41697 0.44855 0.0
C445 C 0.58253 0.41492 0.398 0.0
C446 C 0.52645 0.41704 0.44457 0.0
O447 O 0.54141 0.40861 0.28089 0.0
H448 H 0.26668 0.29781 0.86252 0.0
H449 H 0.22503 0.29746 0.14614 0.0
H450 H 0.2933 0.2948 0.00816 0.0
H451 H 0.20047 0.28776 -0.00036 0.0
H452 H 0.25022 0.29769 0.09734 0.0
H453 H 0.24212 0.29562 0.91316 0.0
C454 C 0.26738 0.29668 0.90511 0.0
C455 C 0.28209 0.29649 0.93104 0.0
C456 C 0.23928 0.29541 0.07615 0.0
C457 C 0.25399 0.29404 0.98939 0.0
C458 C 0.22492 0.29527 0.10396 0.0
C459 C 0.21057 0.29266 0.07706 0.0
C460 C 0.23923 0.29309 0.02109 0.0
C461 C 0.21117 0.28989 0.02226 0.0
C462 C 0.25334 0.29537 0.93403 0.0
C463 C 0.28223 0.29495 0.98642 0.0
N464 N 0.22521 0.29029 0.99617 0.0
N465 N 0.26839 0.29387 0.01378 0.0
H466 H 0.95326 0.95009 0.24648 0.0
H467 H 0.95199 0.04477 0.25432 0.0
H468 H 0.94673 0.97698 0.39023 0.0
H469 H 0.94622 0.01757 0.11085 0.0
H470 H 0.95319 0.02012 0.30459 0.0
H471 H 0.95384 0.97479 0.19653 0.0
C472 C 0.95202 0.96119 0.2677 0.0
C473 C 0.94989 0.96143 0.3228 0.0
C474 C 0.95168 0.01955 0.26212 0.0
C475 C 0.95056 0.98981 0.26544 0.0
C476 C 0.95105 0.03362 0.23325 0.0
C477 C 0.94895 0.03327 0.17812 0.0
C478 C 0.95034 0.00497 0.23579 0.0
C479 C 0.94778 0.01843 0.15322 0.0
C480 C 0.9523 0.97529 0.23899 0.0
C481 C 0.94834 0.97621 0.34786 0.0
N482 N 0.9485 0.00487 0.18225 0.0
N483 N 0.94871 0.98982 0.31897 0.0
H484 H 0.20164 0.70351 0.48944 0.0
H485 H 0.29618 0.7 0.49203 0.0
H486 H 0.22909 0.69561 0.34762 0.0
H487 H 0.26707 0.69508 0.63156 0.0
H488 H 0.27214 0.70118 0.43801 0.0
H489 H 0.22589 0.70343 0.54091 0.0
C490 C 0.21278 0.70182 0.46886 0.0
C491 C 0.21325 0.69952 0.41381 0.0
C492 C 0.27104 0.69984 0.48043 0.0
C493 C 0.24127 0.69938 0.47337 0.0
C494 C 0.28474 0.69923 0.51142 0.0
C495 C 0.28366 0.69743 0.56659 0.0
C496 C 0.25613 0.69882 0.50474 0.0
C497 C 0.26851 0.69643 0.58929 0.0
C498 C 0.22665 0.70171 0.49857 0.0
C499 C 0.22813 0.69737 0.38987 0.0
N500 N 0.25535 0.69718 0.55828 0.0
N501 N 0.24158 0.69736 0.41985 0.0
H502 H 0.54595 0.01956 0.8906 0.0
H503 H 0.54833 0.97894 0.60513 0.0
H504 H 0.53745 0.04474 0.74451 0.0
H505 H 0.54475 0.95192 0.74972 0.0
H506 H 0.54576 0.00336 0.65651 0.0
H507 H 0.54667 0.9946 0.84059 0.0
C508 C 0.54413 0.01985 0.84823 0.0
C509 C 0.5417 0.03431 0.82185 0.0
C510 C 0.54547 0.99207 0.67695 0.0
C511 C 0.54268 0.0059 0.76447 0.0
C512 C 0.54699 0.97813 0.64762 0.0
C513 C 0.54676 0.96335 0.67305 0.0
C514 C 0.54388 0.99126 0.73221 0.0
C515 C 0.54495 0.96305 0.72833 0.0
C516 C 0.54455 0.00562 0.81972 0.0
C517 C 0.53941 0.03394 0.76677 0.0
N518 N 0.54366 0.97679 0.75607 0.0
N519 N 0.54007 0.02002 0.74 0.0
H520 H 0.7007 0.70256 0.00846 0.0
H521 H 0.79531 0.69974 0.00077 0.0
H522 H 0.72944 0.69473 0.14753 0.0
H523 H 0.76595 0.69419 0.86194 0.0
H524 H 0.77145 0.70099 0.05509 0.0
H525 H 0.72465 0.70265 0.95465 0.0
C526 C 0.71205 0.70093 0.02785 0.0
C527 C 0.71303 0.69859 0.08279 0.0
C528 C 0.77023 0.69951 0.01276 0.0
C529 C 0.74056 0.69871 0.02094 0.0
C530 C 0.78385 0.69885 0.98157 0.0
C531 C 0.78266 0.69683 0.92654 0.0
C532 C 0.75526 0.6983 0.98886 0.0
C533 C 0.76745 0.69571 0.90413 0.0
C534 C 0.72573 0.70093 0.99692 0.0
C535 C 0.72811 0.69652 0.10539 0.0
N536 N 0.75435 0.69649 0.93538 0.0
N537 N 0.74129 0.69665 0.07435 0.0
H538 H 0.05188 0.97978 0.89199 0.0
H539 H 0.05315 0.02018 0.6062 0.0
H540 H 0.04697 0.9533 0.74666 0.0
H541 H 0.04619 0.04645 0.75097 0.0
H542 H 0.05226 0.99547 0.65703 0.0
H543 H 0.05116 0.00442 0.84093 0.0
C544 C 0.05061 0.97913 0.84944 0.0
C545 C 0.04951 0.96443 0.82366 0.0
C546 C 0.05086 0.00666 0.67754 0.0
C547 C 0.04878 0.99257 0.76498 0.0
C548 C 0.05139 0.02077 0.64856 0.0
C549 C 0.04976 0.03543 0.67427 0.0
C550 C 0.04884 0.00724 0.73266 0.0
C551 C 0.04748 0.03545 0.72933 0.0
C552 C 0.05017 0.99321 0.82031 0.0
C553 C 0.04784 0.96435 0.76834 0.0
N554 N 0.04718 0.02159 0.75666 0.0
N555 N 0.04762 0.97819 0.74088 0.0
H556 H 0.72245 0.32489 0.39244 0.0
H557 H 0.78413 0.27624 0.55893 0.0
H558 H 0.71053 0.27772 0.44534 0.0
H559 H 0.77346 0.3245 0.60299 0.0
H560 H 0.76079 0.27618 0.50061 0.0
H561 H 0.7455 0.32473 0.45245 0.0
C562 C 0.72486 0.31444 0.41603 0.0
C563 C 0.7147 0.30128 0.41405 0.0
C564 C 0.76355 0.28672 0.52336 0.0
C565 C 0.74083 0.30099 0.48168 0.0
C566 C 0.77677 0.28676 0.55655 0.0
C567 C 0.78051 0.30034 0.58601 0.0
C568 C 0.75442 0.30053 0.5183 0.0
C569 C 0.77076 0.31375 0.58135 0.0
C570 C 0.73784 0.31443 0.45047 0.0
C571 C 0.71813 0.28808 0.44588 0.0
N572 N 0.75823 0.3136 0.54739 0.0
N573 N 0.73103 0.2882 0.47811 0.0
H574 H 0.45405 0.95409 0.24215 0.0
H575 H 0.45233 0.0488 0.22788 0.0
H576 H 0.44466 0.9801 0.09831 0.0
H577 H 0.45219 0.02235 0.37414 0.0
H578 H 0.45218 0.02386 0.17893 0.0
H579 H 0.45604 0.9791 0.28987 0.0
C580 C 0.45246 0.96506 0.22043 0.0
C581 C 0.44912 0.96495 0.16599 0.0
C582 C 0.45221 0.02352 0.22172 0.0
C583 C 0.45142 0.99371 0.2208 0.0
C584 C 0.45235 0.03776 0.2498 0.0
C585 C 0.45222 0.0377 0.30536 0.0
C586 C 0.45205 0.00907 0.24928 0.0
C587 C 0.45223 0.023 0.33141 0.0
C588 C 0.45356 0.97935 0.24787 0.0
C589 C 0.44719 0.97958 0.14023 0.0
N590 N 0.45214 0.00928 0.30314 0.0
N591 N 0.44836 0.99338 0.16788 0.0
H592 H 0.73116 0.80367 0.64723 0.0
H593 H 0.76713 0.80168 0.35503 0.0
H594 H 0.70242 0.79758 0.5072 0.0
H595 H 0.79547 0.7953 0.49582 0.0
H596 H 0.74322 0.8017 0.41003 0.0
H597 H 0.75498 0.80218 0.59214 0.0
C598 C 0.72984 0.80198 0.60501 0.0
C599 C 0.71475 0.80075 0.5819 0.0
C600 C 0.75469 0.80022 0.42875 0.0
C601 C 0.74194 0.79915 0.51863 0.0
C602 C 0.76834 0.80023 0.39738 0.0
C603 C 0.78335 0.7985 0.42074 0.0
C604 C 0.75608 0.79865 0.48388 0.0
C605 C 0.78417 0.79665 0.47593 0.0
C606 C 0.74345 0.8011 0.57359 0.0
C607 C 0.71379 0.79855 0.52688 0.0
N608 N 0.77075 0.79687 0.50558 0.0
N609 N 0.72718 0.79791 0.49714 0.0
H610 H 0.4422 0.48039 0.89894 0.0
H611 H 0.44215 0.51391 0.60323 0.0
H612 H 0.44824 0.45067 0.76127 0.0
H613 H 0.449 0.54354 0.74072 0.0
H614 H 0.44258 0.49051 0.66065 0.0
H615 H 0.44289 0.50379 0.84153 0.0
C616 C 0.44371 0.47877 0.85677 0.0
C617 C 0.44517 0.46353 0.835 0.0
C618 C 0.44405 0.50215 0.67811 0.0
C619 C 0.44585 0.4902 0.76911 0.0
C620 C 0.44378 0.5155 0.64537 0.0
C621 C 0.44555 0.53072 0.66707 0.0
C622 C 0.44592 0.50405 0.73298 0.0
C623 C 0.44764 0.53206 0.72207 0.0
C624 C 0.44413 0.49212 0.82403 0.0
C625 C 0.44711 0.46217 0.77997 0.0
N626 N 0.44768 0.51891 0.75309 0.0
N627 N 0.4473 0.47531 0.74896 0.0
H628 H 0.72863 0.19035 0.8529 0.0
H629 H 0.7641 0.19167 0.14616 0.0
H630 H 0.69989 0.19736 0.9923 0.0
H631 H 0.79289 0.19752 0.00627 0.0
H632 H 0.74034 0.19185 0.09035 0.0
H633 H 0.75242 0.19105 0.9086 0.0
C634 C 0.72731 0.19206 0.8951 0.0
C635 C 0.71223 0.19381 0.91785 0.0
C636 C 0.75188 0.19315 0.07199 0.0
C637 C 0.73935 0.1945 0.98179 0.0
C638 C 0.76544 0.19302 0.10382 0.0
C639 C 0.78053 0.1946 0.08097 0.0
C640 C 0.75343 0.19468 0.0169 0.0
C641 C 0.78152 0.19633 0.02577 0.0
C642 C 0.74089 0.19249 0.92686 0.0
C643 C 0.71125 0.19601 0.97287 0.0
N644 N 0.76818 0.19624 0.99566 0.0
N645 N 0.7246 0.19621 0.00292 0.0
H646 H 0.05427 0.47993 0.10369 0.0
H647 H 0.05321 0.51742 0.39413 0.0
H648 H 0.0486 0.45199 0.24559 0.0
H649 H 0.04692 0.54507 0.25187 0.0
H650 H 0.05326 0.49326 0.34039 0.0
H651 H 0.05335 0.50404 0.15753 0.0
C652 C 0.05282 0.47885 0.14607 0.0
C653 C 0.0515 0.46389 0.17006 0.0
C654 C 0.05181 0.50463 0.32105 0.0
C655 C 0.05054 0.49142 0.23191 0.0
C656 C 0.05181 0.51843 0.35171 0.0
C657 C 0.05005 0.53332 0.32758 0.0
C658 C 0.05022 0.50575 0.26586 0.0
C659 C 0.04827 0.53387 0.27234 0.0
C660 C 0.05225 0.49262 0.17678 0.0
C661 C 0.04961 0.46325 0.22525 0.0
N662 N 0.04847 0.52031 0.24339 0.0
N663 N 0.04926 0.47679 0.25427 0.0
H664 H 0.26919 0.19382 0.34985 0.0
H665 H 0.22624 0.20179 0.6305 0.0
H666 H 0.29408 0.2024 0.49646 0.0
H667 H 0.20088 0.20172 0.48203 0.0
H668 H 0.25125 0.20131 0.58185 0.0
H669 H 0.24398 0.19593 0.39742 0.0
C670 C 0.26937 0.19617 0.39193 0.0
C671 C 0.2838 0.19789 0.41912 0.0
C672 C 0.24021 0.20147 0.55991 0.0
C673 C 0.25502 0.20027 0.47378 0.0
C674 C 0.22591 0.20172 0.5877 0.0
C675 C 0.21141 0.20176 0.5604 0.0
C676 C 0.24004 0.20112 0.50438 0.0
C677 C 0.21176 0.20171 0.50483 0.0
C678 C 0.25498 0.19741 0.41904 0.0
C679 C 0.28328 0.20098 0.4737 0.0
N680 N 0.22584 0.2013 0.47869 0.0
N681 N 0.26915 0.20199 0.49919 0.0
H682 H 0.57354 0.47435 0.36333 0.0
H683 H 0.52645 0.53511 0.18865 0.0
H684 H 0.5268 0.46208 0.30693 0.0
H685 H 0.57486 0.52371 0.14866 0.0
H686 H 0.52583 0.51218 0.24866 0.0
H687 H 0.57387 0.49702 0.30179 0.0
C688 C 0.56327 0.47661 0.33865 0.0
C689 C 0.5501 0.46646 0.34008 0.0
C690 C 0.53652 0.51469 0.22642 0.0
C691 C 0.55036 0.49216 0.27073 0.0
C692 C 0.53688 0.52767 0.19229 0.0
C693 C 0.55067 0.53109 0.16348 0.0
C694 C 0.55023 0.50548 0.23309 0.0
C695 C 0.56396 0.52126 0.16976 0.0
C696 C 0.56354 0.48937 0.30336 0.0
C697 C 0.53716 0.46969 0.30684 0.0
N698 N 0.5635 0.50897 0.20462 0.0
N699 N 0.53754 0.48238 0.27378 0.0
H700 H 0.29594 0.79294 0.00731 0.0
H701 H 0.20131 0.79823 0.0116 0.0
H702 H 0.26922 0.8022 0.14975 0.0
H703 H 0.22942 0.80047 0.86905 0.0
H704 H 0.22573 0.79688 0.06358 0.0
H705 H 0.2713 0.79265 0.95722 0.0
C706 C 0.28489 0.79484 0.02824 0.0
C707 C 0.2847 0.79768 0.08298 0.0
C708 C 0.22653 0.79766 0.02093 0.0
C709 C 0.25634 0.79737 0.02536 0.0
C710 C 0.2126 0.79839 0.99115 0.0
C711 C 0.2133 0.79951 0.93576 0.0
C712 C 0.24127 0.7979 0.99519 0.0
C713 C 0.22828 0.7997 0.91159 0.0
C714 C 0.27081 0.79472 -0.00057 0.0
C715 C 0.26996 0.80003 0.10765 0.0
N716 N 0.24166 0.79887 0.94145 0.0
N717 N 0.25635 0.79984 0.07862 0.0
H718 H 0.94556 0.47848 0.60277 0.0
H719 H 0.94464 0.51587 0.89329 0.0
H720 H 0.9517 0.45067 0.74476 0.0
H721 H 0.95064 0.54377 0.75145 0.0
H722 H 0.94561 0.49173 0.83946 0.0
H723 H 0.9458 0.5026 0.65668 0.0
C724 C 0.94699 0.47743 0.64518 0.0
C725 C 0.94861 0.4625 0.66917 0.0
C726 C 0.94678 0.50316 0.82025 0.0
C727 C 0.94878 0.49003 0.7311 0.0
C728 C 0.9462 0.51693 0.85095 0.0
C729 C 0.94756 0.53188 0.82696 0.0
C730 C 0.94856 0.50435 0.76514 0.0
C731 C 0.94957 0.53252 0.77181 0.0
C732 C 0.94716 0.4912 0.67593 0.0
C733 C 0.95045 0.4619 0.7244 0.0
N734 N 0.94993 0.51897 0.74281 0.0
N735 N 0.9504 0.47544 0.75346 0.0
H736 H 0.17449 0.28116 0.91876 0.0
H737 H 0.14189 0.25217 0.6398 0.0
H738 H 0.12563 0.28835 0.87253 0.0
H739 H 0.17578 0.22566 0.73227 0.0
H740 H 0.14012 0.27178 0.71142 0.0
H741 H 0.17926 0.2674 0.83555 0.0
C742 C 0.1648 0.28013 0.89077 0.0
C743 C 0.14952 0.28569 0.90307 0.0
C744 C 0.14808 0.26176 0.71548 0.0
C745 C 0.15507 0.27006 0.80767 0.0
C746 C 0.14918 0.25065 0.67474 0.0
C747 C 0.1589 0.23723 0.68057 0.0
C748 C 0.15707 0.25959 0.76152 0.0
C749 C 0.16801 0.23573 0.7266 0.0
C750 C 0.16757 0.27221 0.84341 0.0
C751 C 0.13752 0.28408 0.86492 0.0
N752 N 0.16688 0.2468 0.76541 0.0
N753 N 0.14052 0.27628 0.81889 0.0
H754 H 0.99638 0.91432 0.92112 0.0
H755 H 0.99238 0.88032 0.21229 0.0
H756 H 0.03761 0.90808 0.02047 0.0
H757 H 0.95466 0.91029 0.15386 0.0
H758 H 0.00739 0.88559 0.13196 0.0
H759 H 0.97935 0.90935 -0.00167 0.0
C760 C 0.00183 0.91212 0.9592 0.0
C761 C 0.01842 0.91159 0.96448 0.0
C762 C 0.99578 0.89093 0.13664 0.0
C763 C -0.00087 0.90547 0.0517 0.0
C764 C 0.98712 0.88782 0.18224 0.0
C765 C 0.9723 0.89501 0.19006 0.0
C766 C 0.98951 0.90112 0.09814 0.0
C767 C 0.9661 0.9046 0.14952 0.0
C768 C 0.99213 0.90924 0.00299 0.0
C769 C 0.02489 0.90864 0.0146 0.0
N770 N 0.97477 0.90742 0.10514 0.0
N771 N 0.01523 0.90548 0.0561 0.0
H772 H 0.36653 0.74073 0.47448 0.0
H773 H 0.33486 0.74483 0.17942 0.0
H774 H 0.33766 0.70292 0.41069 0.0
H775 H 0.34168 0.78604 0.27831 0.0
H776 H 0.33946 0.7278 0.25686 0.0
H777 H 0.36236 0.75581 0.39353 0.0
C778 C 0.35952 0.73547 0.44315 0.0
C779 C 0.35228 0.72061 0.44961 0.0
C780 C 0.33981 0.74058 0.26138 0.0
C781 C 0.34742 0.7379 0.357 0.0
C782 C 0.33714 0.75028 0.21744 0.0
C783 C 0.33789 0.76686 0.22255 0.0
C784 C 0.34358 0.74757 0.31012 0.0
C785 C 0.34093 0.77333 0.27259 0.0
C786 C 0.35703 0.74417 0.39716 0.0
C787 C 0.34336 0.7144 0.40744 0.0
N788 N 0.34385 0.76366 0.3143 0.0
N789 N 0.34111 0.72312 0.3628 0.0
H790 H 0.53126 0.07167 0.66383 0.0
H791 H 0.50159 0.10762 0.39015 0.0
H792 H 0.53765 0.1212 0.62505 0.0
H793 H 0.47593 0.07185 0.47713 0.0
H794 H 0.5213 0.10872 0.46173 0.0
H795 H 0.51775 0.06775 0.57962 0.0
C796 C 0.53011 0.08169 0.63726 0.0
C797 C 0.53534 0.0969 0.652 0.0
C798 C 0.51145 0.1005 0.46456 0.0
C799 C 0.52 0.09233 0.55545 0.0
C800 C 0.50028 0.09979 0.42385 0.0
C801 C 0.48706 0.08974 0.42824 0.0
C802 C 0.50954 0.09078 0.50906 0.0
C803 C 0.48582 0.07991 0.47267 0.0
C804 C 0.52234 0.07941 0.58931 0.0
C805 C 0.53361 0.10934 0.61556 0.0
N806 N 0.49694 0.08067 0.51145 0.0
N807 N 0.52595 0.10682 0.56896 0.0
H808 H 0.1516 0.74737 0.82831 0.0
H809 H 0.19201 0.73399 0.54681 0.0
H810 H 0.18335 0.78034 0.75197 0.0
H811 H 0.1484 0.71069 0.5915 0.0
H812 H 0.19357 0.74584 0.63429 0.0
H813 H 0.15474 0.72917 0.75312 0.0
C814 C 0.15942 0.75066 0.79613 0.0
C815 C 0.16706 0.76547 0.7958 0.0
C816 C 0.18373 0.73802 0.62523 0.0
C817 C 0.17078 0.74478 0.71069 0.0
C818 C 0.18282 0.73125 0.57531 0.0
C819 C 0.16984 0.72167 0.56159 0.0
C820 C 0.17156 0.73527 0.66178 0.0
C821 C 0.1585 0.71818 0.60045 0.0
C822 C 0.16113 0.74032 0.75333 0.0
C823 C 0.17701 0.7692 0.75334 0.0
N824 N 0.15948 0.7252 0.64883 0.0
N825 N 0.17855 0.75894 0.71241 0.0
H826 H 0.45899 0.90936 0.97051 0.0
H827 H 0.54434 0.91059 0.83994 0.0
H828 H 0.50085 0.91389 0.068 0.0
H829 H 0.50507 0.88333 0.77806 0.0
H830 H 0.52888 0.91559 0.9206 0.0
H831 H 0.47592 0.90472 0.89396 0.0
C832 C 0.47176 0.90962 0.9757 0.0
C833 C 0.47854 0.91192 0.02572 0.0
C834 C 0.5238 0.90839 0.88942 0.0
C835 C 0.49793 0.90651 0.93834 0.0
C836 C 0.53259 0.90548 0.84359 0.0
C837 C 0.52594 0.89659 0.80213 0.0
C838 C 0.50821 0.90263 0.89302 0.0
C839 C 0.51068 0.89027 0.80888 0.0
C840 C 0.48139 0.90681 0.9321 0.0
C841 C 0.49516 0.91209 0.03009 0.0
N842 N 0.50225 0.8936 0.85311 0.0
N843 N 0.50435 0.9094 0.98681 0.0
H844 H 0.36562 0.25541 0.03433 0.0
H845 H 0.33326 0.24982 0.32805 0.0
H846 H 0.33504 0.29194 0.09732 0.0
H847 H 0.34209 0.20892 0.22956 0.0
H848 H 0.33734 0.26702 0.25076 0.0
H849 H 0.36172 0.24003 0.11478 0.0
C850 C 0.35827 0.26033 0.06538 0.0
C851 C 0.35051 0.27493 0.05886 0.0
C852 C 0.33825 0.25427 0.24627 0.0
C853 C 0.34597 0.25729 0.15091 0.0
C854 C 0.33589 0.24446 0.29013 0.0
C855 C 0.33734 0.22793 0.28509 0.0
C856 C 0.34243 0.24745 0.19766 0.0
C857 C 0.3408 0.22159 0.23519 0.0
C858 C 0.35595 0.25146 0.11107 0.0
C859 C 0.34116 0.28069 0.10064 0.0
N860 N 0.34341 0.23138 0.19354 0.0
N861 N 0.33909 0.27181 0.14503 0.0
H862 H 0.99665 0.08343 0.57538 0.0
H863 H 0.99148 0.11541 0.28131 0.0
H864 H 0.03773 0.09173 0.47729 0.0
H865 H 0.95446 0.08548 0.34473 0.0
H866 H 0.00696 0.1111 0.36135 0.0
H867 H 0.97958 0.08725 0.49761 0.0
C868 C 0.00207 0.08587 0.53743 0.0
C869 C 0.01862 0.08729 0.5327 0.0
C870 C 0.99541 0.10554 0.35782 0.0
C871 C -0.00076 0.09207 0.44463 0.0
C872 C 0.98648 0.10811 0.31236 0.0
C873 C 0.97169 0.10068 0.30611 0.0
C874 C 0.98945 0.09567 0.39774 0.0
C875 C 0.96585 0.09136 0.34786 0.0
C876 C 0.99234 0.08807 0.49328 0.0
C877 C 0.02505 0.09049 0.48272 0.0
N878 N 0.97478 0.08909 0.39207 0.0
N879 N 0.01533 0.09297 0.44077 0.0
H880 H 0.86323 0.74135 0.02029 0.0
H881 H 0.83215 0.74428 0.31561 0.0
H882 H 0.83587 0.70246 0.08412 0.0
H883 H 0.83726 0.78578 0.21696 0.0
H884 H 0.83667 0.72748 0.2376 0.0
H885 H 0.85829 0.75638 0.10082 0.0
C886 C 0.85638 0.73586 0.05154 0.0
C887 C 0.84983 0.72067 0.04524 0.0
C888 C 0.83662 0.74027 0.23324 0.0
C889 C 0.84407 0.73791 0.1374 0.0
C890 C 0.834 0.74984 0.27751 0.0
C891 C 0.83436 0.76644 0.2727 0.0
C892 C 0.83996 0.74741 0.18442 0.0
C893 C 0.83685 0.77305 0.22251 0.0
C894 C 0.85344 0.74452 0.09727 0.0
C895 C 0.84106 0.71418 0.08727 0.0
N896 N 0.83976 0.76351 0.18047 0.0
N897 N 0.83839 0.72287 0.13172 0.0
H898 H 0.95934 0.08671 0.97741 0.0
H899 H 0.04454 0.08745 0.84582 0.0
H900 H 0.00131 0.08441 0.07525 0.0
H901 H 0.00444 0.11343 0.78387 0.0
H902 H 0.02932 0.08218 0.92686 0.0
H903 H 0.97611 0.09117 0.90042 0.0
C904 C 0.97211 0.08689 0.98263 0.0
C905 C 0.97895 0.08529 0.03286 0.0
C906 C 0.024 0.08915 0.89555 0.0
C907 C 0.99816 0.09051 0.94489 0.0
C908 C 0.03265 0.09221 0.84951 0.0
C909 C 0.02571 0.10084 0.80797 0.0
C910 C 0.00827 0.09449 0.89924 0.0
C911 C 0.01027 0.10671 0.81475 0.0
C912 C 0.98165 0.08959 0.93873 0.0
C913 C 0.99558 0.08567 0.03718 0.0
N914 N 0.002 0.10324 0.85918 0.0
N915 N 0.00468 0.08827 0.99361 0.0
H916 H 0.63666 0.25051 0.50903 0.0
H917 H 0.66534 0.24826 0.80735 0.0
H918 H 0.6624 0.28993 0.57677 0.0
H919 H 0.66012 0.20642 0.71033 0.0
H920 H 0.66172 0.26478 0.72831 0.0
H921 H 0.64136 0.23536 0.58944 0.0
C922 C 0.64314 0.25608 0.54106 0.0
C923 C 0.64925 0.27148 0.53602 0.0
C924 C 0.66156 0.25198 0.72448 0.0
C925 C 0.65475 0.2541 0.62807 0.0
C926 C 0.66367 0.24256 0.76938 0.0
C927 C 0.66297 0.22595 0.76535 0.0
C928 C 0.65844 0.24469 0.67572 0.0
C929 C 0.66075 0.21917 0.71529 0.0
C930 C 0.64594 0.24734 0.58675 0.0
C931 C 0.65755 0.27805 0.57897 0.0
N932 N 0.65835 0.22857 0.67254 0.0
N933 N 0.66008 0.2693 0.62338 0.0
H934 H 0.49127 0.88346 0.27622 0.0
H935 H 0.4956 0.91399 0.57159 0.0
H936 H 0.45384 0.91301 0.33884 0.0
H937 H 0.53686 0.90813 0.47235 0.0
H938 H 0.47859 0.91022 0.49352 0.0
H939 H 0.50646 0.88776 0.35686 0.0
C940 C 0.48612 0.89067 0.30722 0.0
C941 C 0.4713 0.898 0.30059 0.0
C942 C 0.49138 0.90993 0.48907 0.0
C943 C 0.48873 0.90299 0.3929 0.0
C944 C 0.50107 0.9121 0.53337 0.0
C945 C 0.51765 0.91135 0.52835 0.0
C946 C 0.49838 0.90661 0.44002 0.0
C947 C 0.52414 0.90884 0.47803 0.0
C948 C 0.49488 0.89323 0.35301 0.0
C949 C 0.46526 0.90722 0.34228 0.0
N950 N 0.51449 0.90636 0.43594 0.0
N951 N 0.47403 0.90948 0.38686 0.0
H952 H 0.82874 0.24937 0.18965 0.0
H953 H 0.85888 0.25141 0.48598 0.0
H954 H 0.83282 0.20765 0.28782 0.0
H955 H 0.83244 0.29088 0.42173 0.0
H956 H 0.85372 0.2365 0.40534 0.0
H957 H 0.83305 0.26598 0.26823 0.0
C958 C 0.8303 0.24372 0.22775 0.0
C959 C 0.83048 0.22711 0.23226 0.0
C960 C 0.84911 0.24846 0.40884 0.0
C961 C 0.83583 0.24592 0.32122 0.0
C962 C 0.85217 0.25705 0.45463 0.0
C963 C 0.84597 0.27237 0.46078 0.0
C964 C 0.83995 0.25528 0.36852 0.0
C965 C 0.83737 0.27905 0.41867 0.0
C966 C 0.83281 0.25319 0.27235 0.0
C967 C 0.83259 0.22039 0.28247 0.0
N968 N 0.83458 0.27043 0.37413 0.0
N969 N 0.8354 0.22982 0.32486 0.0
H970 H 0.48032 0.12692 0.18072 0.0
H971 H 0.48864 0.0854 0.90087 0.0
H972 H 0.44851 0.08869 0.13905 0.0
H973 H 0.52845 0.09893 -0.00148 0.0
H974 H 0.47069 0.09143 0.97529 0.0
H975 H 0.49452 0.12282 0.09793 0.0
C976 C 0.47609 0.11789 0.15372 0.0
C977 C 0.46338 0.10794 0.1673 0.0
C978 C 0.48338 0.09299 0.98004 0.0
C979 C 0.47962 0.10323 0.07261 0.0
C980 C 0.49358 0.08953 0.93792 0.0
C981 C 0.51003 0.09159 0.94377 0.0
C982 C 0.48972 0.09898 0.02728 0.0
C983 C 0.51586 0.09704 0.99241 0.0
C984 C 0.48428 0.11549 0.10669 0.0
C985 C 0.45838 0.0965 0.13037 0.0
N986 N 0.50571 0.10071 0.03205 0.0
N987 N 0.46663 0.09434 0.08468 0.0
H988 H 0.66036 0.70518 0.92072 0.0
H989 H 0.66309 0.7906 0.78904 0.0
H990 H 0.63654 0.74627 0.98498 0.0
H991 H 0.66467 0.74838 0.6924 0.0
H992 H 0.65868 0.77405 0.86668 0.0
H993 H 0.66604 0.72039 0.83997 0.0
C994 C 0.65616 0.7173 0.91761 0.0
C995 C 0.648 0.72449 0.95969 0.0
C996 C 0.6601 0.76842 0.8285 0.0
C997 C 0.65484 0.74191 0.86869 0.0
C998 C 0.66277 0.77783 0.78423 0.0
C999 C 0.66412 0.77085 0.73413 0.0
C1000 C 0.65894 0.7519 0.8228 0.0
C1001 C 0.66359 0.75423 0.73033 0.0
C1002 C 0.65946 0.72594 0.87174 0.0
C1003 C 0.64286 0.74022 0.95365 0.0
N1004 N 0.661 0.74526 0.77421 0.0
N1005 N 0.64655 0.74845 0.90931 0.0
H1006 H 0.00308 0.91281 0.42073 0.0
H1007 H 0.00849 0.88085 0.71439 0.0
H1008 H 0.96214 0.90524 0.52018 0.0
H1009 H 0.04478 0.91219 0.6539 0.0
H1010 H 0.99333 0.88477 0.63347 0.0
H1011 H 0.0203 0.90893 0.49827 0.0
C1012 C 0.99773 0.91052 0.45888 0.0
C1013 C 0.98117 0.90933 0.46414 0.0
C1014 C 0.00466 0.8907 0.63783 0.0
C1015 C 0.00069 0.90446 0.55175 0.0
C1016 C 0.01341 0.88837 0.68378 0.0
C1017 C 0.02786 0.89634 0.69116 0.0
C1018 C 0.01048 0.90089 0.59857 0.0
C1019 C 0.03363 0.90591 0.64991 0.0
C1020 C 0.00753 0.90828 0.50286 0.0
C1021 C 0.97483 0.9063 0.51434 0.0
N1022 N 0.02488 0.90797 0.60521 0.0
N1023 N 0.9846 0.90377 0.55606 0.0
H1024 H 0.63461 0.75599 0.4863 0.0
H1025 H 0.66542 0.75283 0.19075 0.0
H1026 H 0.6619 0.79477 0.42143 0.0
H1027 H 0.65971 0.71128 0.28879 0.0
H1028 H 0.66128 0.76959 0.269 0.0
H1029 H 0.63956 0.74078 0.40617 0.0
C1030 C 0.64146 0.76142 0.45492 0.0
C1031 C 0.64796 0.77664 0.46076 0.0
C1032 C 0.66112 0.7568 0.27321 0.0
C1033 C 0.65374 0.75919 0.36906 0.0
C1034 C 0.66352 0.74725 0.22879 0.0
C1035 C 0.66286 0.73065 0.23334 0.0
C1036 C 0.65771 0.74966 0.32197 0.0
C1037 C 0.66034 0.72401 0.28345 0.0
C1038 C 0.64441 0.75265 0.40941 0.0
C1039 C 0.65674 0.78304 0.41861 0.0
N1040 N 0.65764 0.73354 0.32568 0.0
N1041 N 0.65941 0.77425 0.37437 0.0
H1042 H 0.49158 0.38541 0.74139 0.0
H1043 H 0.49406 0.41982 0.45014 0.0
H1044 H 0.45202 0.41205 0.6787 0.0
H1045 H 0.53581 0.4134 0.54692 0.0
H1046 H 0.47745 0.41461 0.52789 0.0
H1047 H 0.50682 0.39185 0.6625 0.0
C1048 C 0.48599 0.39243 0.71072 0.0
C1049 C 0.47052 0.3983 0.71686 0.0
C1050 C 0.49024 0.41455 0.53201 0.0
C1051 C 0.48801 0.40581 0.62661 0.0
C1052 C 0.49972 0.41758 0.48786 0.0
C1053 C 0.51633 0.41697 0.4921 0.0
C1054 C 0.49748 0.4106 0.58019 0.0
C1055 C 0.52306 0.41399 0.54183 0.0
C1056 C 0.49478 0.39624 0.66595 0.0
C1057 C 0.46393 0.40734 0.67564 0.0
N1058 N 0.5136 0.41068 0.58377 0.0
N1059 N 0.47274 0.41085 0.63212 0.0
H1060 H 0.82666 0.24523 0.69347 0.0
H1061 H 0.86014 0.24149 0.98612 0.0
H1062 H 0.83482 0.28674 0.78976 0.0
H1063 H 0.83232 0.20297 0.92188 0.0
H1064 H 0.85463 0.25698 0.90698 0.0
H1065 H 0.83112 0.22848 0.77141 0.0
C1066 C 0.82915 0.25082 0.73113 0.0
C1067 C 0.83042 0.26739 0.73521 0.0
C1068 C 0.84978 0.24511 0.91014 0.0
C1069 C 0.83594 0.24836 0.82357 0.0
C1070 C 0.85305 0.23618 0.95507 0.0
C1071 C 0.84658 0.22093 0.96082 0.0
C1072 C 0.84015 0.23872 0.87026 0.0
C1073 C 0.83748 0.2147 0.91912 0.0
C1074 C 0.83174 0.24126 0.7754 0.0
C1075 C 0.8337 0.27403 0.78484 0.0
N1076 N 0.8345 0.22365 0.87546 0.0
N1077 N 0.83656 0.26447 0.82694 0.0
H1078 H 0.0041 0.61343 0.2243 0.0
H1079 H 0.00082 0.58112 0.93073 0.0
H1080 H 0.04262 0.58509 0.16283 0.0
H1081 H 0.95938 0.58658 0.0294 0.0
H1082 H 0.01768 0.58577 0.00858 0.0
H1083 H 0.98905 0.60819 0.14399 0.0
C1084 C 0.00951 0.60629 0.19361 0.0
C1085 C 0.0246 0.59957 0.20053 0.0
C1086 C 0.0049 0.58577 0.01298 0.0
C1087 C 0.00733 0.59348 0.10859 0.0
C1088 C 0.99529 0.58308 0.9688 0.0
C1089 C 0.97868 0.5835 0.97367 0.0
C1090 C 0.99779 0.58925 0.06174 0.0
C1091 C 0.97211 0.58612 0.02382 0.0
C1092 C 0.00083 0.60319 0.148 0.0
C1093 C 0.03098 0.59043 0.15919 0.0
N1094 N 0.98168 0.58911 0.06575 0.0
N1095 N 0.02228 0.58761 0.11481 0.0
H1096 H 0.66241 0.28833 0.20805 0.0
H1097 H 0.66048 0.20234 0.07767 0.0
H1098 H 0.66759 0.24591 0.3022 0.0
H1099 H 0.63678 0.24328 0.01189 0.0
H1100 H 0.66679 0.21795 0.1569 0.0
H1101 H 0.65786 0.27183 0.13022 0.0
C1102 C 0.66287 0.27555 0.2122 0.0
C1103 C 0.66525 0.26847 0.26171 0.0
C1104 C 0.66011 0.22341 0.12514 0.0
C1105 C 0.65989 0.24956 0.17299 0.0
C1106 C 0.65644 0.21452 0.08013 0.0
C1107 C 0.64811 0.22153 0.03807 0.0
C1108 C 0.65564 0.23944 0.12748 0.0
C1109 C 0.64321 0.23736 0.04327 0.0
C1110 C 0.66011 0.26615 0.16788 0.0
C1111 C 0.6657 0.25183 0.26475 0.0
N1112 N 0.6472 0.24583 0.08687 0.0
N1113 N 0.66296 0.2429 0.22094 0.0
H1114 H 0.00317 0.41436 0.56536 0.0
H1115 H 0.00676 0.38285 0.27078 0.0
H1116 H 0.96178 0.40844 0.46652 0.0
H1117 H 0.04494 0.4115 0.33329 0.0
H1118 H 0.99168 0.38763 0.35128 0.0
H1119 H 0.02007 0.41013 0.48742 0.0
C1120 C 0.99765 0.41239 0.52724 0.0
C1121 C 0.98105 0.41172 0.52234 0.0
C1122 C 0.0034 0.3928 0.34745 0.0
C1123 C 0.00021 0.40644 0.43416 0.0
C1124 C 0.0121 0.38996 0.30173 0.0
C1125 C 0.02709 0.39691 0.29507 0.0
C1126 C 0.00979 0.40247 0.38721 0.0
C1127 C 0.03338 0.40599 0.33673 0.0
C1128 C 0.00728 0.40993 0.48301 0.0
C1129 C 0.9745 0.40909 0.47214 0.0
N1130 N 0.02466 0.40856 0.3812 0.0
N1131 N 0.9841 0.40634 0.43015 0.0
H1132 H 0.83348 0.70749 0.71694 0.0
H1133 H 0.83592 0.79281 0.58498 0.0
H1134 H 0.83234 0.7496 0.81414 0.0
H1135 H 0.8602 0.75189 0.52157 0.0
H1136 H 0.83031 0.77765 0.66592 0.0
H1137 H 0.83774 0.7241 0.63937 0.0
C1138 C 0.83385 0.72025 0.7219 0.0
C1139 C 0.83268 0.72717 0.77213 0.0
C1140 C 0.83697 0.77212 0.63428 0.0
C1141 C 0.83768 0.7462 0.6835 0.0
C1142 C 0.84023 0.78075 0.5883 0.0
C1143 C 0.84851 0.77359 0.54641 0.0
C1144 C 0.84174 0.7562 0.63759 0.0
C1145 C 0.85379 0.75791 0.55273 0.0
C1146 C 0.83644 0.7297 0.67766 0.0
C1147 C 0.83328 0.7438 0.77609 0.0
N1148 N 0.85014 0.74969 0.59713 0.0
N1149 N 0.83579 0.7528 0.73223 0.0
H1150 H 0.53902 0.58281 0.95493 0.0
H1151 H 0.45311 0.58357 0.82393 0.0
H1152 H 0.49661 0.57825 0.04952 0.0
H1153 H 0.49386 0.60742 0.75745 0.0
H1154 H 0.4687 0.57791 0.90379 0.0
H1155 H 0.52249 0.58697 0.8769 0.0
C1156 C 0.52623 0.58241 0.95916 0.0
C1157 C 0.51917 0.5803 0.00881 0.0
C1158 C 0.47412 0.58448 0.87174 0.0
C1159 C 0.50022 0.58521 0.91985 0.0
C1160 C 0.46524 0.58778 0.82637 0.0
C1161 C 0.47221 0.59596 0.78393 0.0
C1162 C 0.4901 0.58914 0.87405 0.0
C1163 C 0.48798 0.60109 0.78911 0.0
C1164 C 0.51681 0.58494 0.91471 0.0
C1165 C 0.50252 0.57993 0.01195 0.0
N1166 N 0.49643 0.59745 0.83307 0.0
N1167 N 0.49357 0.58242 0.96799 0.0
H1168 H 0.33488 0.20139 0.5979 0.0
H1169 H 0.33524 0.2865 0.73011 0.0
H1170 H 0.36181 0.24103 0.53729 0.0
H1171 H 0.33287 0.24462 0.82821 0.0
H1172 H 0.33933 0.26964 0.65306 0.0
H1173 H 0.32966 0.21667 0.67895 0.0
C1174 C 0.33984 0.21319 0.60187 0.0
C1175 C 0.34875 0.21998 0.56074 0.0
C1176 C 0.33781 0.26415 0.69144 0.0
C1177 C 0.34245 0.23749 0.65195 0.0
C1178 C 0.33532 0.27374 0.73538 0.0
C1179 C 0.33383 0.26694 0.7857 0.0
C1180 C 0.3386 0.24764 0.69764 0.0
C1181 C 0.33406 0.25032 0.79007 0.0
C1182 C 0.33681 0.22187 0.6479 0.0
C1183 C 0.35488 0.23531 0.56786 0.0
N1184 N 0.33645 0.24117 0.74645 0.0
N1185 N 0.35143 0.24362 0.61224 0.0
H1186 H 0.49972 0.57862 0.55404 0.0
H1187 H 0.50099 0.60804 0.25671 0.0
H1188 H 0.45775 0.58221 0.45666 0.0
H1189 H 0.54131 0.58349 0.32347 0.0
H1190 H 0.48602 0.60253 0.33692 0.0
H1191 H 0.51613 0.58296 0.47518 0.0
C1192 C 0.49397 0.58007 0.51603 0.0
C1193 C 0.47735 0.58012 0.51186 0.0
C1194 C 0.49817 0.59839 0.33406 0.0
C1195 C 0.49596 0.58549 0.42246 0.0
C1196 C 0.50679 0.60167 0.2885 0.0
C1197 C 0.5224 0.59612 0.28322 0.0
C1198 C 0.50524 0.58969 0.37502 0.0
C1199 C 0.52927 0.58792 0.32587 0.0
C1200 C 0.50334 0.5826 0.47124 0.0
C1201 C 0.47051 0.58208 0.46174 0.0
N1202 N 0.52062 0.58493 0.37015 0.0
N1203 N 0.47984 0.58491 0.41912 0.0
H1204 H 0.16424 0.75472 0.32289 0.0
H1205 H 0.1272 0.76094 0.03499 0.0
H1206 H 0.1532 0.71412 0.22544 0.0
H1207 H 0.15939 0.7969 0.09275 0.0
H1208 H 0.13166 0.74572 0.11552 0.0
H1209 H 0.1588 0.77213 0.24702 0.0
C1210 C 0.16084 0.74948 0.28546 0.0
C1211 C 0.15918 0.73297 0.28032 0.0
C1212 C 0.13764 0.75702 0.11069 0.0
C1213 C 0.15252 0.75272 0.19467 0.0
C1214 C 0.13499 0.7658 0.06498 0.0
C1215 C 0.1431 0.78012 0.05679 0.0
C1216 C 0.14831 0.76267 0.14882 0.0
C1217 C 0.153 0.78583 0.0973 0.0
C1218 C 0.1577 0.7594 0.24245 0.0
C1219 C 0.1547 0.72677 0.2311 0.0
N1220 N 0.15542 0.77703 0.14163 0.0
N1221 N 0.15135 0.73666 0.19035 0.0
H1222 H 0.99424 0.38274 0.77202 0.0
H1223 H 0.99726 0.41523 0.06529 0.0
H1224 H 0.95546 0.41078 0.83321 0.0
H1225 H 0.03873 0.41008 0.96654 0.0
H1226 H 0.98042 0.4105 0.98744 0.0
H1227 H 0.00925 0.38821 0.85224 0.0
C1228 C 0.98876 0.38986 0.80263 0.0
C1229 C 0.97361 0.39643 0.79567 0.0
C1230 C 0.99321 0.41059 0.98302 0.0
C1231 C 0.99083 0.40279 0.88748 0.0
C1232 C 0.00281 0.41334 0.0272 0.0
C1233 C 0.01941 0.413 0.02233 0.0
C1234 C 0.00034 0.40715 0.93426 0.0
C1235 C 0.026 0.41046 0.97215 0.0
C1236 C 0.99742 0.39309 0.84818 0.0
C1237 C 0.96715 0.40555 0.8369 0.0
N1238 N 0.01644 0.40741 0.93023 0.0
N1239 N 0.97583 0.40851 0.88122 0.0
H1240 H 0.33589 0.79383 0.90991 0.0
H1241 H 0.3338 0.70865 0.77721 0.0
H1242 H 0.3611 0.75318 0.97132 0.0
H1243 H 0.33319 0.75065 0.67939 0.0
H1244 H 0.33781 0.72535 0.85475 0.0
H1245 H 0.33014 0.77869 0.82887 0.0
C1246 C 0.34036 0.78183 0.90614 0.0
C1247 C 0.34897 0.77474 0.94746 0.0
C1248 C 0.33666 0.7309 0.81632 0.0
C1249 C 0.34204 0.75739 0.85628 0.0
C1250 C 0.33422 0.72141 0.77208 0.0
C1251 C 0.33329 0.72827 0.72169 0.0
C1252 C 0.33798 0.7474 0.81033 0.0
C1253 C 0.33395 0.74489 0.71755 0.0
C1254 C 0.33703 0.77323 0.86012 0.0
C1255 C 0.35444 0.75915 0.9406 0.0
N1256 N 0.33631 0.75395 0.76143 0.0
N1257 N 0.35071 0.75095 0.89623 0.0
H1258 H 0.99072 0.61344 0.72352 0.0
H1259 H 0.99469 0.58127 0.42996 0.0
H1260 H 0.95293 0.584 0.66253 0.0
H1261 H 0.03595 0.58739 0.52927 0.0
H1262 H 0.97769 0.58558 0.50765 0.0
H1263 H 0.00578 0.60865 0.64297 0.0
C1264 C 0.98546 0.60616 0.69288 0.0
C1265 C 0.9706 0.59898 0.70001 0.0
C1266 C 0.99047 0.5858 0.5122 0.0
C1267 C 0.98786 0.59341 0.60783 0.0
C1268 C 0.00016 0.58329 0.46813 0.0
C1269 C 0.01675 0.584 0.47323 0.0
C1270 C 0.99749 0.58938 0.56106 0.0
C1271 C 0.02323 0.58671 0.52349 0.0
C1272 C 0.99415 0.60332 0.64714 0.0
C1273 C 0.9644 0.58968 0.65873 0.0
N1274 N 0.01358 0.58952 0.56529 0.0
N1275 N 0.9731 0.58711 0.61423 0.0
H1276 H 0.14627 0.2807 0.25164 0.0
H1277 H 0.15969 0.19895 0.38982 0.0
H1278 H 0.15931 0.24055 0.15492 0.0
H1279 H 0.12163 0.23057 0.43443 0.0
H1280 H 0.16259 0.21371 0.30658 0.0
H1281 H 0.14108 0.26274 0.32505 0.0
C1282 C 0.14821 0.2681 0.24599 0.0
C1283 C 0.15323 0.26208 0.19716 0.0
C1284 C 0.15344 0.21716 0.33436 0.0
C1285 C 0.14727 0.2415 0.28109 0.0
C1286 C 0.15175 0.20877 0.38171 0.0
C1287 C 0.14054 0.21369 0.41947 0.0
C1288 C 0.14411 0.23067 0.3256 0.0
C1289 C 0.13053 0.22644 0.40684 0.0
C1290 C 0.14507 0.25786 0.28773 0.0
C1291 C 0.15542 0.24563 0.19202 0.0
N1292 N 0.13277 0.23469 0.36147 0.0
N1293 N 0.15254 0.23584 0.23379 0.0
H1294 H 0.50098 0.38714 0.24484 0.0
H1295 H 0.49888 0.41556 0.94659 0.0
H1296 H 0.54026 0.41353 0.17921 0.0
H1297 H 0.45711 0.41164 0.04458 0.0
H1298 H 0.51547 0.41174 0.02552 0.0
H1299 H 0.48608 0.39163 0.16371 0.0
C1300 C 0.50658 0.3937 0.2131 0.0
C1301 C 0.52185 0.40009 0.219 0.0
C1302 C 0.50267 0.4119 0.02952 0.0
C1303 C 0.50477 0.40534 0.12614 0.0
C1304 C 0.49321 0.41412 0.98471 0.0
C1305 C 0.4766 0.41387 0.98909 0.0
C1306 C 0.4954 0.40908 0.07848 0.0
C1307 C 0.46986 0.41193 0.03934 0.0
C1308 C 0.49799 0.39638 0.16701 0.0
C1309 C 0.52848 0.40848 0.17636 0.0
N1310 N 0.47928 0.4094 0.08195 0.0
N1311 N 0.51987 0.41089 0.13155 0.0
H1312 H 0.1529 0.34608 0.03087 0.0
H1313 H 0.10982 0.41446 0.03698 0.0
H1314 H 0.15936 0.35159 0.19922 0.0
H1315 H 0.10017 0.39874 0.19627 0.0
H1316 H 0.13399 0.3985 0.03687 0.0
H1317 H 0.13965 0.37173 0.02825 0.0
C1318 C 0.15195 0.35289 0.06705 0.0
C1319 C 0.15696 0.3465 0.11548 0.0
C1320 C 0.12664 0.39866 0.07195 0.0
C1321 C 0.14182 0.37598 0.11285 0.0
C1322 C 0.1129 0.4079 0.07235 0.0
C1323 C 0.10264 0.40752 0.11612 0.0
C1324 C 0.13008 0.38897 0.11559 0.0
C1325 C 0.10749 0.39907 0.16111 0.0
C1326 C 0.14447 0.36765 0.06549 0.0
C1327 C 0.1555 0.35593 0.16104 0.0
N1328 N 0.12073 0.38991 0.15935 0.0
N1329 N 0.14766 0.36999 0.15884 0.0
H1330 H 0.83187 0.85682 0.28809 0.0
H1331 H 0.89884 0.90223 0.28651 0.0
H1332 H 0.84743 0.84734 0.44772 0.0
H1333 H 0.89171 0.909 0.45399 0.0
H1334 H 0.87383 0.88778 0.28221 0.0
H1335 H 0.84697 0.88154 0.28918 0.0
C1336 C 0.83821 0.86004 0.32376 0.0
C1337 C 0.83881 0.8497 0.36733 0.0
C1338 C 0.8774 0.89292 0.31957 0.0
C1339 C 0.85633 0.8778 0.36822 0.0
C1340 C 0.89179 0.90107 0.3221 0.0
C1341 C 0.89752 0.90658 0.37082 0.0
C1342 C 0.86883 0.89007 0.36628 0.0
C1343 C 0.88783 0.90483 0.41563 0.0
C1344 C 0.84695 0.8741 0.32407 0.0
C1345 C 0.84696 0.85472 0.41273 0.0
N1346 N 0.87417 0.89632 0.41256 0.0
N1347 N 0.85562 0.86831 0.41169 0.0
H1348 H 0.33473 0.63927 0.70767 0.0
H1349 H 0.38843 0.58322 0.52863 0.0
H1350 H 0.34289 0.64656 0.54092 0.0
H1351 H 0.39648 0.59153 0.69495 0.0
H1352 H 0.36403 0.5988 0.53407 0.0
H1353 H 0.34948 0.61435 0.70258 0.0
C1354 C 0.33922 0.63544 0.66965 0.0
C1355 C 0.33789 0.64519 0.62481 0.0
C1356 C 0.37097 0.59686 0.56956 0.0
C1357 C 0.35465 0.6167 0.61898 0.0
C1358 C 0.38486 0.58793 0.56665 0.0
C1359 C 0.39471 0.58638 0.61122 0.0
C1360 C 0.3668 0.6041 0.61746 0.0
C1361 C 0.38941 0.59269 0.65941 0.0
C1362 C 0.34769 0.62125 0.66694 0.0
C1363 C 0.3439 0.63956 0.57664 0.0
N1364 N 0.3759 0.60147 0.66112 0.0
N1365 N 0.35222 0.62575 0.57512 0.0
H1366 H 0.64971 0.14578 0.94967 0.0
H1367 H 0.59516 0.09175 0.78299 0.0
H1368 H 0.65883 0.13684 0.7844 0.0
H1369 H 0.59913 0.08645 0.95226 0.0
H1370 H 0.6207 0.10543 0.78233 0.0
H1371 H 0.63374 0.12163 0.95318 0.0
C1372 C 0.64865 0.13856 0.91442 0.0
C1373 C 0.65531 0.14355 0.86639 0.0
C1374 C 0.61618 0.10093 0.81947 0.0
C1375 C 0.63681 0.11607 0.86986 0.0
C1376 C 0.60156 0.09314 0.81986 0.0
C1377 C 0.5948 0.08829 0.86789 0.0
C1378 C 0.62388 0.10419 0.86754 0.0
C1379 C 0.60375 0.09021 0.91436 0.0
C1380 C 0.63955 0.12474 0.91644 0.0
C1381 C 0.65373 0.13359 0.82213 0.0
N1382 N 0.61764 0.09838 0.91322 0.0
N1383 N 0.64429 0.12054 0.82458 0.0
H1384 H 0.10566 0.58735 0.46504 0.0
H1385 H 0.16013 0.64349 0.28906 0.0
H1386 H 0.09897 0.5951 0.29775 0.0
H1387 H 0.15138 0.65066 0.45558 0.0
H1388 H 0.14547 0.61854 0.29343 0.0
H1389 H 0.12996 0.60313 0.46142 0.0
C1390 C 0.1095 0.59198 0.42722 0.0
C1391 C 0.10006 0.5902 0.38178 0.0
C1392 C 0.1471 0.62542 0.32918 0.0
C1393 C 0.12786 0.60817 0.37765 0.0
C1394 C 0.1555 0.63966 0.32689 0.0
C1395 C 0.15665 0.6494 0.37183 0.0
C1396 C 0.13997 0.62083 0.3768 0.0
C1397 C 0.15051 0.64369 0.41975 0.0
C1398 C 0.12334 0.60103 0.42536 0.0
C1399 C 0.10572 0.59642 0.33392 0.0
N1400 N 0.14222 0.62986 0.42083 0.0
N1401 N 0.11916 0.60533 0.33323 0.0
H1402 H 0.66689 0.86107 0.71184 0.0
H1403 H 0.59967 0.90594 0.70941 0.0
H1404 H 0.65163 0.85069 0.5525 0.0
H1405 H 0.60705 0.91204 0.54179 0.0
H1406 H 0.62484 0.89182 0.71501 0.0
H1407 H 0.65178 0.88577 0.70889 0.0
C1408 C 0.66063 0.8641 0.67582 0.0
C1409 C 0.6601 0.8535 0.63292 0.0
C1410 C 0.62129 0.89675 0.67731 0.0
C1411 C 0.64256 0.88158 0.62991 0.0
C1412 C 0.60681 0.90472 0.67405 0.0
C1413 C 0.60111 0.90993 0.62493 0.0
C1414 C 0.62998 0.89377 0.63094 0.0
C1415 C 0.61091 0.90809 0.58044 0.0
C1416 C 0.65188 0.87815 0.67445 0.0
C1417 C 0.65204 0.85827 0.58702 0.0
N1418 N 0.62466 0.89975 0.58423 0.0
N1419 N 0.64336 0.87185 0.58704 0.0
H1420 H 0.38772 0.41184 0.97514 0.0
H1421 H 0.33306 0.35599 0.7986 0.0
H1422 H 0.39501 0.40329 0.80861 0.0
H1423 H 0.34168 0.34884 0.96522 0.0
H1424 H 0.34779 0.38091 0.80308 0.0
H1425 H 0.36312 0.39653 0.97084 0.0
C1426 C 0.38394 0.40715 0.93731 0.0
C1427 C 0.39363 0.40853 0.89234 0.0
C1428 C 0.3461 0.37405 0.83884 0.0
C1429 C 0.3655 0.39112 0.88741 0.0
C1430 C 0.33764 0.35984 0.83649 0.0
C1431 C 0.33647 0.3501 0.88142 0.0
C1432 C 0.35323 0.37862 0.88652 0.0
C1433 C 0.34258 0.35581 0.92941 0.0
C1434 C 0.36993 0.39836 0.93505 0.0
C1435 C 0.38807 0.40224 0.84444 0.0
N1436 N 0.35091 0.36961 0.93056 0.0
N1437 N 0.37445 0.39361 0.84337 0.0
H1438 H 0.83344 0.13839 0.22028 0.0
H1439 H 0.88995 0.08396 0.04564 0.0
H1440 H 0.84197 0.14547 0.05363 0.0
H1441 H 0.89711 0.09319 0.21191 0.0
H1442 H 0.86492 0.0985 0.0496 0.0
H1443 H 0.84913 0.11404 0.21675 0.0
C1444 C 0.83822 0.13462 0.18259 0.0
C1445 C 0.8367 0.14419 0.13735 0.0
C1446 C 0.87181 0.09699 0.08541 0.0
C1447 C 0.85454 0.11633 0.13331 0.0
C1448 C 0.88608 0.08865 0.08336 0.0
C1449 C 0.89585 0.08769 0.12832 0.0
C1450 C 0.86719 0.10422 0.13283 0.0
C1451 C 0.89012 0.09392 0.17607 0.0
C1452 C 0.84722 0.12075 0.18078 0.0
C1453 C 0.8431 0.13862 0.08964 0.0
N1454 N 0.87624 0.10213 0.17692 0.0
N1455 N 0.85194 0.12514 0.08901 0.0
H1456 H 0.83022 0.63698 0.79225 0.0
H1457 H 0.89686 0.59097 0.79301 0.0
H1458 H 0.84581 0.64693 0.95153 0.0
H1459 H 0.88942 0.58472 0.96054 0.0
H1460 H 0.87205 0.60575 0.78792 0.0
H1461 H 0.84517 0.61217 0.79435 0.0
C1462 C 0.83653 0.63384 0.82807 0.0
C1463 C 0.83717 0.64433 0.87124 0.0
C1464 C 0.8755 0.60065 0.82547 0.0
C1465 C 0.85452 0.61613 0.8733 0.0
C1466 C 0.88977 0.59231 0.82845 0.0
C1467 C 0.89535 0.58683 0.87739 0.0
C1468 C 0.8669 0.60373 0.87196 0.0
C1469 C 0.88564 0.58884 0.92201 0.0
C1470 C 0.84518 0.61973 0.82896 0.0
C1471 C 0.8453 0.63943 0.91684 0.0
N1472 N 0.8721 0.59753 0.9185 0.0
N1473 N 0.85387 0.62578 0.91637 0.0
H1474 H 0.16305 0.14625 0.7143 0.0
H1475 H 0.09891 0.09729 0.71653 0.0
H1476 H 0.15255 0.14809 0.54731 0.0
H1477 H 0.10928 0.08667 0.55319 0.0
H1478 H 0.12353 0.11223 0.72215 0.0
H1479 H 0.14927 0.12081 0.71969 0.0
C1480 C 0.1581 0.1412 0.67854 0.0
C1481 C 0.15847 0.1496 0.63059 0.0
C1482 C 0.1208 0.10616 0.68558 0.0
C1483 C 0.14232 0.12074 0.63689 0.0
C1484 C 0.1066 0.0977 0.68224 0.0
C1485 C 0.10181 0.09104 0.63396 0.0
C1486 C 0.13018 0.10811 0.64009 0.0
C1487 C 0.11235 0.09182 0.59103 0.0
C1488 C 0.15007 0.12673 0.68183 0.0
C1489 C 0.15215 0.14227 0.58543 0.0
N1490 N 0.12582 0.10061 0.5947 0.0
N1491 N 0.14409 0.12839 0.58989 0.0
H1492 H 0.60662 0.41396 0.47084 0.0
H1493 H 0.65233 0.3467 0.4559 0.0
H1494 H 0.59545 0.40102 0.30982 0.0
H1495 H 0.65805 0.35748 0.29013 0.0
H1496 H 0.63678 0.37092 0.46621 0.0
H1497 H 0.63081 0.39811 0.46534 0.0
C1498 C 0.60935 0.40802 0.434 0.0
C1499 C 0.59873 0.40847 0.39114 0.0
C1500 C 0.64188 0.36829 0.42795 0.0
C1501 C 0.62625 0.39012 0.38514 0.0
C1502 C 0.65066 0.35437 0.42197 0.0
C1503 C 0.65633 0.34995 0.37197 0.0
C1504 C 0.63857 0.3777 0.38343 0.0
C1505 C 0.65384 0.36036 0.32938 0.0
C1506 C 0.6231 0.39885 0.43117 0.0
C1507 C 0.60309 0.40073 0.34423 0.0
N1508 N 0.64479 0.37355 0.33581 0.0
N1509 N 0.61643 0.3917 0.3427 0.0
H1510 H 0.33223 0.85734 0.2089 0.0
H1511 H 0.39734 0.90535 0.20838 0.0
H1512 H 0.34774 0.84841 0.04892 0.0
H1513 H 0.38947 0.91175 0.04108 0.0
H1514 H 0.37287 0.89005 0.21352 0.0
H1515 H 0.34629 0.88266 0.20728 0.0
C1516 C 0.33835 0.86079 0.17305 0.0
C1517 C 0.33924 0.85045 0.12952 0.0
C1518 C 0.37614 0.89529 0.17602 0.0
C1519 C 0.35558 0.87927 0.12801 0.0
C1520 C 0.39022 0.90395 0.17302 0.0
C1521 C 0.39563 0.90959 0.12408 0.0
C1522 C 0.36755 0.89206 0.12956 0.0
C1523 C 0.38585 0.90749 0.07959 0.0
C1524 C 0.34648 0.87521 0.17243 0.0
C1525 C 0.34706 0.85578 0.08388 0.0
N1526 N 0.37252 0.89849 0.08311 0.0
N1527 N 0.35515 0.86973 0.08462 0.0
H1528 H 0.89072 0.41236 0.53686 0.0
H1529 H 0.84287 0.34672 0.54615 0.0
H1530 H 0.90007 0.39882 0.69859 0.0
H1531 H 0.83662 0.35681 0.71218 0.0
H1532 H 0.85876 0.37076 0.53774 0.0
H1533 H 0.86583 0.39755 0.54008 0.0
C1534 C 0.88744 0.40652 0.57338 0.0
C1535 C 0.89776 0.40645 0.6171 0.0
C1536 C 0.85346 0.36805 0.57563 0.0
C1537 C 0.86945 0.38927 0.62049 0.0
C1538 C 0.84448 0.35422 0.58053 0.0
C1539 C 0.83861 0.3496 0.63008 0.0
C1540 C 0.85676 0.37719 0.6208 0.0
C1541 C 0.84101 0.35982 0.67325 0.0
C1542 C 0.87329 0.39794 0.57492 0.0
C1543 C 0.8927 0.39889 0.66354 0.0
N1544 N 0.85026 0.37292 0.6679 0.0
N1545 N 0.87898 0.39041 0.66378 0.0
H1546 H 0.33416 0.13749 0.30046 0.0
H1547 H 0.39736 0.0881 0.46534 0.0
H1548 H 0.34651 0.1468 0.46329 0.0
H1549 H 0.39668 0.0921 0.29522 0.0
H1550 H 0.37165 0.10152 0.46888 0.0
H1551 H 0.34955 0.113 0.30417 0.0
C1552 C 0.33973 0.13421 0.33749 0.0
C1553 C 0.33945 0.1445 0.38119 0.0
C1554 C 0.37697 0.09908 0.43076 0.0
C1555 C 0.35707 0.11648 0.38541 0.0
C1556 C 0.39161 0.09137 0.42861 0.0
C1557 C 0.39936 0.08935 0.37992 0.0
C1558 C 0.37 0.10464 0.38391 0.0
C1559 C 0.39129 0.09375 0.33367 0.0
C1560 C 0.34856 0.12023 0.33942 0.0
C1561 C 0.34672 0.13944 0.42823 0.0
N1562 N 0.37715 0.10142 0.33684 0.0
N1563 N 0.3555 0.12592 0.4288 0.0
H1564 H 0.65412 0.64949 0.04887 0.0
H1565 H 0.60973 0.58161 0.04026 0.0
H1566 H 0.65846 0.64166 0.21689 0.0
H1567 H 0.59673 0.59695 0.19732 0.0
H1568 H 0.63392 0.59744 0.0465 0.0
H1569 H 0.63945 0.62465 0.04127 0.0
C1570 C 0.65236 0.64232 0.08394 0.0
C1571 C 0.65734 0.64775 0.13365 0.0
C1572 C 0.62582 0.59722 0.0797 0.0
C1573 C 0.64056 0.61929 0.12535 0.0
C1574 C 0.61206 0.58807 0.07646 0.0
C1575 C 0.6009 0.58833 0.11776 0.0
C1576 C 0.62843 0.60666 0.12453 0.0
C1577 C 0.60478 0.59669 0.164 0.0
C1578 C 0.64408 0.62805 0.07954 0.0
C1579 C 0.65477 0.63796 0.17779 0.0
N1580 N 0.61812 0.60572 0.16584 0.0
N1581 N 0.64617 0.62441 0.17282 0.0
H1582 H 0.10819 0.91375 0.95447 0.0
H1583 H 0.16201 0.8558 0.78325 0.0
H1584 H 0.10063 0.90377 0.78889 0.0
H1585 H 0.15496 0.8518 0.95176 0.0
H1586 H 0.14738 0.88086 0.78408 0.0
H1587 H 0.13301 0.89886 0.95087 0.0
C1588 C 0.11193 0.90882 0.91696 0.0
C1589 C 0.10207 0.90963 0.8722 0.0
C1590 C 0.1494 0.87466 0.82099 0.0
C1591 C 0.13047 0.89265 0.86808 0.0
C1592 C 0.15779 0.86039 0.82068 0.0
C1593 C 0.15937 0.85151 0.86739 0.0
C1594 C 0.14273 0.88014 0.86838 0.0
C1595 C 0.15372 0.8581 0.91469 0.0
C1596 C 0.12609 0.90028 0.91509 0.0
C1597 C 0.10767 0.90313 0.82464 0.0
N1598 N 0.14545 0.87193 0.91388 0.0
N1599 N 0.12139 0.89467 0.82403 0.0
loop_
_geom_bond_atom_site_label_1
_geom_bond_atom_site_label_2
_geom_bond_distance
_geom_bond_site_symmetry_2
_ccdc_geom_bond_type
Mg0 O1 2.028 . S
Mg0 O7 1.986 . S
Mg0 O9 2.114 . S
Mg0 O10 2.251 . S
Mg0 O13 2.010 1_554 S
O1 Mg0 2.028 . S
O1 C4 1.250 . S
O2 Mg3 2.028 . S
O2 C4 1.248 . S
Mg3 O2 2.028 . S
Mg3 O8 2.032 . S
Mg3 O10 2.079 . S
C4 O1 1.250 . S
C4 O2 1.248 . S
C5 O6 1.264 . S
C5 O13 1.249 . S
O6 C5 1.264 . S
O7 Mg0 1.986 . S
O7 C11 1.246 . S
O8 Mg3 2.032 . S
O8 C11 1.259 . S
O9 Mg0 2.114 . S
O9 C12 1.252 . S
O10 Mg0 2.251 . S
O10 Mg3 2.079 . S
O10 C12 1.273 . S
C11 O7 1.246 . S
C11 O8 1.259 . S
C12 O9 1.252 . S
C12 O10 1.273 . S
O13 Mg0 2.010 1_556 S
O13 C5 1.249 . S
Mg14 O15 2.028 . S
Mg14 O21 1.986 . S
Mg14 O23 2.114 . S
Mg14 O24 2.251 . S
Mg14 O27 2.010 . S
O15 Mg14 2.028 . S
O15 C18 1.250 . S
O16 Mg17 2.028 . S
O16 C18 1.248 . S
Mg17 O16 2.028 . S
Mg17 O22 2.032 . S
Mg17 O24 2.079 . S
C18 O15 1.250 . S
C18 O16 1.248 . S
C19 O20 1.264 . S
C19 O27 1.249 . S
O20 C19 1.264 . S
O21 Mg14 1.986 . S
O21 C25 1.246 . S
O22 Mg17 2.032 . S
O22 C25 1.259 . S
O23 Mg14 2.114 . S
O23 C26 1.252 . S
O24 Mg14 2.251 . S
O24 Mg17 2.079 . S
O24 C26 1.273 . S
C25 O21 1.246 . S
C25 O22 1.259 . S
C26 O23 1.252 . S
C26 O24 1.273 . S
O27 Mg14 2.010 . S
O27 C19 1.249 . S
Mg28 O29 2.028 . S
Mg28 O35 1.986 . S
Mg28 O37 2.114 . S
Mg28 O38 2.251 . S
Mg28 O41 2.010 . S
O29 Mg28 2.028 . S
O29 C32 1.250 . S
O30 Mg31 2.028 . S
O30 C32 1.248 . S
Mg31 O30 2.028 . S
Mg31 O36 2.032 . S
Mg31 O38 2.079 . S
C32 O29 1.250 . S
C32 O30 1.248 . S
C33 O34 1.264 . S
C33 O41 1.249 . S
O34 C33 1.264 . S
O35 Mg28 1.986 . S
O35 C39 1.246 . S
O36 Mg31 2.032 . S
O36 C39 1.259 . S
O37 Mg28 2.114 . S
O37 C40 1.252 . S
O38 Mg28 2.251 . S
O38 Mg31 2.079 . S
O38 C40 1.273 . S
C39 O35 1.246 . S
C39 O36 1.259 . S
C40 O37 1.252 . S
C40 O38 1.273 . S
O41 Mg28 2.010 . S
O41 C33 1.249 . S
Mg42 O43 2.028 . S
Mg42 O49 1.986 . S
Mg42 O51 2.114 . S
Mg42 O52 2.251 . S
Mg42 O55 2.010 . S
O43 Mg42 2.028 . S
O43 C46 1.250 . S
O44 Mg45 2.028 . S
O44 C46 1.248 . S
Mg45 O44 2.028 . S
Mg45 O50 2.032 . S
Mg45 O52 2.079 . S
C46 O43 1.250 . S
C46 O44 1.248 . S
C47 O48 1.264 . S
C47 O55 1.249 . S
O48 C47 1.264 . S
O49 Mg42 1.986 . S
O49 C53 1.246 . S
O50 Mg45 2.032 . S
O50 C53 1.259 . S
O51 Mg42 2.114 . S
O51 C54 1.252 . S
O52 Mg42 2.251 . S
O52 Mg45 2.079 . S
O52 C54 1.273 . S
C53 O49 1.246 . S
C53 O50 1.259 . S
C54 O51 1.252 . S
C54 O52 1.273 . S
O55 Mg42 2.010 . S
O55 C47 1.249 . S
Mg56 O57 2.028 . S
Mg56 O63 1.986 . S
Mg56 O65 2.114 . S
Mg56 O66 2.251 . S
Mg56 O69 2.010 . S
O57 Mg56 2.028 . S
O57 C60 1.250 . S
O58 Mg59 2.028 . S
O58 C60 1.248 . S
Mg59 O58 2.028 . S
Mg59 O64 2.032 . S
Mg59 O66 2.079 . S
C60 O57 1.250 . S
C60 O58 1.248 . S
C61 O62 1.264 . S
C61 O69 1.249 . S
O62 C61 1.264 . S
O63 Mg56 1.986 . S
O63 C67 1.246 . S
O64 Mg59 2.032 . S
O64 C67 1.259 . S
O65 Mg56 2.114 . S
O65 C68 1.252 . S
O66 Mg56 2.251 . S
O66 Mg59 2.079 . S
O66 C68 1.273 . S
C67 O63 1.246 . S
C67 O64 1.259 . S
C68 O65 1.252 . S
C68 O66 1.273 . S
O69 Mg56 2.010 . S
O69 C61 1.249 . S
Mg70 O71 2.028 . S
Mg70 O77 1.986 . S
Mg70 O79 2.114 . S
Mg70 O80 2.251 . S
Mg70 O83 2.010 . S
O71 Mg70 2.028 . S
O71 C74 1.250 . S
O72 Mg73 2.028 . S
O72 C74 1.248 . S
Mg73 O72 2.028 . S
Mg73 O78 2.032 . S
Mg73 O80 2.079 . S
C74 O71 1.250 . S
C74 O72 1.248 . S
C75 O76 1.264 . S
C75 O83 1.249 . S
O76 C75 1.264 . S
O77 Mg70 1.986 . S
O77 C81 1.246 . S
O78 Mg73 2.032 . S
O78 C81 1.259 . S
O79 Mg70 2.114 . S
O79 C82 1.252 . S
O80 Mg70 2.251 . S
O80 Mg73 2.079 . S
O80 C82 1.273 . S
C81 O77 1.246 . S
C81 O78 1.259 . S
C82 O79 1.252 . S
C82 O80 1.273 . S
O83 Mg70 2.010 . S
O83 C75 1.249 . S
Mg84 O85 2.028 . S
Mg84 O91 1.986 . S
Mg84 O93 2.114 . S
Mg84 O94 2.251 . S
Mg84 O97 2.010 1_556 S
O85 Mg84 2.028 . S
O85 C88 1.250 . S
O86 Mg87 2.028 . S
O86 C88 1.248 . S
Mg87 O86 2.028 . S
Mg87 O92 2.032 . S
Mg87 O94 2.079 . S
C88 O85 1.250 . S
C88 O86 1.248 . S
C89 O90 1.264 . S
C89 O97 1.249 . S
O90 C89 1.264 . S
O91 Mg84 1.986 . S
O91 C95 1.246 . S
O92 Mg87 2.032 . S
O92 C95 1.259 . S
O93 Mg84 2.114 . S
O93 C96 1.252 . S
O94 Mg84 2.251 . S
O94 Mg87 2.079 . S
O94 C96 1.273 . S
C95 O91 1.246 . S
C95 O92 1.259 . S
C96 O93 1.252 . S
C96 O94 1.273 . S
O97 Mg84 2.010 1_554 S
O97 C89 1.249 . S
Mg98 O99 2.028 . S
Mg98 O105 1.986 . S
Mg98 O107 2.114 . S
Mg98 O108 2.251 . S
Mg98 O111 2.010 . S
O99 Mg98 2.028 . S
O99 C102 1.250 . S
O100 Mg101 2.028 . S
O100 C102 1.248 . S
Mg101 O100 2.028 . S
Mg101 O106 2.032 . S
Mg101 O108 2.079 . S
C102 O99 1.250 . S
C102 O100 1.248 . S
C103 O104 1.264 . S
C103 O111 1.249 . S
O104 C103 1.264 . S
O105 Mg98 1.986 . S
O105 C109 1.246 . S
O106 Mg101 2.032 . S
O106 C109 1.259 . S
O107 Mg98 2.114 . S
O107 C110 1.252 . S
O108 Mg98 2.251 . S
O108 Mg101 2.079 . S
O108 C110 1.273 . S
C109 O105 1.246 . S
C109 O106 1.259 . S
C110 O107 1.252 . S
C110 O108 1.273 . S
O111 Mg98 2.010 . S
O111 C103 1.249 . S
Mg112 O113 2.028 . S
Mg112 O119 1.986 . S
Mg112 O121 2.114 . S
Mg112 O122 2.251 . S
Mg112 O125 2.010 1_556 S
O113 Mg112 2.028 . S
O113 C116 1.250 . S
O114 Mg115 2.028 . S
O114 C116 1.248 . S
Mg115 O114 2.028 . S
Mg115 O120 2.032 . S
Mg115 O122 2.079 . S
C116 O113 1.250 . S
C116 O114 1.248 . S
C117 O118 1.264 . S
C117 O125 1.249 . S
O118 C117 1.264 . S
O119 Mg112 1.986 . S
O119 C123 1.246 . S
O120 Mg115 2.032 . S
O120 C123 1.259 . S
O121 Mg112 2.114 . S
O121 C124 1.252 . S
O122 Mg112 2.251 . S
O122 Mg115 2.079 . S
O122 C124 1.273 . S
C123 O119 1.246 . S
C123 O120 1.259 . S
C124 O121 1.252 . S
C124 O122 1.273 . S
O125 Mg112 2.010 1_554 S
O125 C117 1.249 . S
Mg126 O127 2.028 . S
Mg126 O133 1.986 . S
Mg126 O135 2.114 . S
Mg126 O136 2.251 . S
Mg126 O139 2.010 . S
O127 Mg126 2.028 . S
O127 C130 1.250 . S
O128 Mg129 2.028 . S
O128 C130 1.248 . S
Mg129 O128 2.028 . S
Mg129 O134 2.032 . S
Mg129 O136 2.079 . S
C130 O127 1.250 . S
C130 O128 1.248 . S
C131 O132 1.264 . S
C131 O139 1.249 . S
O132 C131 1.264 . S
O133 Mg126 1.986 . S
O133 C137 1.246 . S
O134 Mg129 2.032 . S
O134 C137 1.259 . S
O135 Mg126 2.114 . S
O135 C138 1.252 . S
O136 Mg126 2.251 . S
O136 Mg129 2.079 . S
O136 C138 1.273 . S
C137 O133 1.246 . S
C137 O134 1.259 . S
C138 O135 1.252 . S
C138 O136 1.273 . S
O139 Mg126 2.010 . S
O139 C131 1.249 . S
Mg140 O141 2.028 . S
Mg140 O147 1.986 . S
Mg140 O149 2.114 . S
Mg140 O150 2.251 . S
Mg140 O153 2.010 . S
O141 Mg140 2.028 . S
O141 C144 1.250 . S
O142 Mg143 2.028 . S
O142 C144 1.248 . S
Mg143 O142 2.028 . S
Mg143 O148 2.032 . S
Mg143 O150 2.079 . S
C144 O141 1.250 . S
C144 O142 1.248 . S
C145 O146 1.264 . S
C145 O153 1.249 . S
O146 C145 1.264 . S
O147 Mg140 1.986 . S
O147 C151 1.246 . S
O148 Mg143 2.032 . S
O148 C151 1.259 . S
O149 Mg140 2.114 . S
O149 C152 1.252 . S
O150 Mg140 2.251 . S
O150 Mg143 2.079 . S
O150 C152 1.273 . S
C151 O147 1.246 . S
C151 O148 1.259 . S
C152 O149 1.252 . S
C152 O150 1.273 . S
O153 Mg140 2.010 . S
O153 C145 1.249 . S
Mg154 O155 2.028 . S
Mg154 O161 1.986 . S
Mg154 O163 2.114 . S
Mg154 O164 2.251 . S
Mg154 O167 2.010 . S
O155 Mg154 2.028 . S
O155 C158 1.250 . S
O156 Mg157 2.028 . S
O156 C158 1.248 . S
Mg157 O156 2.028 . S
Mg157 O162 2.032 . S
Mg157 O164 2.079 . S
C158 O155 1.250 . S
C158 O156 1.248 . S
C159 O160 1.264 . S
C159 O167 1.249 . S
O160 C159 1.264 . S
O161 Mg154 1.986 . S
O161 C165 1.246 . S
O162 Mg157 2.032 . S
O162 C165 1.259 . S
O163 Mg154 2.114 . S
O163 C166 1.252 . S
O164 Mg154 2.251 . S
O164 Mg157 2.079 . S
O164 C166 1.273 . S
C165 O161 1.246 . S
C165 O162 1.259 . S
C166 O163 1.252 . S
C166 O164 1.273 . S
O167 Mg154 2.010 . S
O167 C159 1.249 . S
Mg168 O169 2.028 . S
Mg168 O175 1.986 . S
Mg168 O177 2.114 . S
Mg168 O178 2.251 . S
Mg168 O181 2.010 . S
O169 Mg168 2.028 . S
O169 C172 1.250 . S
O170 Mg171 2.028 . S
O170 C172 1.248 . S
Mg171 O170 2.028 . S
Mg171 O176 2.032 . S
Mg171 O178 2.079 . S
C172 O169 1.250 . S
C172 O170 1.248 . S
C173 O174 1.264 . S
C173 O181 1.249 . S
O174 C173 1.264 . S
O175 Mg168 1.986 . S
O175 C179 1.246 . S
O176 Mg171 2.032 . S
O176 C179 1.259 . S
O177 Mg168 2.114 . S
O177 C180 1.252 . S
O178 Mg168 2.251 . S
O178 Mg171 2.079 . S
O178 C180 1.273 . S
C179 O175 1.246 . S
C179 O176 1.259 . S
C180 O177 1.252 . S
C180 O178 1.273 . S
O181 Mg168 2.010 . S
O181 C173 1.249 . S
Mg182 O183 2.028 . S
Mg182 O189 1.986 . S
Mg182 O191 2.114 . S
Mg182 O192 2.251 . S
Mg182 O195 2.010 . S
O183 Mg182 2.028 . S
O183 C186 1.250 . S
O184 Mg185 2.028 . S
O184 C186 1.248 . S
Mg185 O184 2.028 . S
Mg185 O190 2.032 . S
Mg185 O192 2.079 . S
C186 O183 1.250 . S
C186 O184 1.248 . S
C187 O188 1.264 . S
C187 O195 1.249 . S
O188 C187 1.264 . S
O189 Mg182 1.986 . S
O189 C193 1.246 . S
O190 Mg185 2.032 . S
O190 C193 1.259 . S
O191 Mg182 2.114 . S
O191 C194 1.252 . S
O192 Mg182 2.251 . S
O192 Mg185 2.079 . S
O192 C194 1.273 . S
C193 O189 1.246 . S
C193 O190 1.259 . S
C194 O191 1.252 . S
C194 O192 1.273 . S
O195 Mg182 2.010 . S
O195 C187 1.249 . S
Mg196 O197 2.028 . S
Mg196 O203 1.986 . S
Mg196 O205 2.114 . S
Mg196 O206 2.251 . S
Mg196 O209 2.010 1_554 S
O197 Mg196 2.028 . S
O197 C200 1.250 . S
O198 Mg199 2.028 . S
O198 C200 1.248 . S
Mg199 O198 2.028 . S
Mg199 O204 2.032 . S
Mg199 O206 2.079 . S
C200 O197 1.250 . S
C200 O198 1.248 . S
C201 O202 1.264 . S
C201 O209 1.249 . S
O202 C201 1.264 . S
O203 Mg196 1.986 . S
O203 C207 1.246 . S
O204 Mg199 2.032 . S
O204 C207 1.259 . S
O205 Mg196 2.114 . S
O205 C208 1.252 . S
O206 Mg196 2.251 . S
O206 Mg199 2.079 . S
O206 C208 1.273 . S
C207 O203 1.246 . S
C207 O204 1.259 . S
C208 O205 1.252 . S
C208 O206 1.273 . S
O209 Mg196 2.010 1_556 S
O209 C201 1.249 . S
Mg210 O211 2.028 . S
Mg210 O217 1.986 . S
Mg210 O219 2.114 . S
Mg210 O220 2.251 . S
Mg210 O223 2.010 . S
O211 Mg210 2.028 . S
O211 C214 1.250 . S
O212 Mg213 2.028 . S
O212 C214 1.248 . S
Mg213 O212 2.028 . S
Mg213 O218 2.032 . S
Mg213 O220 2.079 . S
C214 O211 1.250 . S
C214 O212 1.248 . S
C215 O216 1.264 . S
C215 O223 1.249 . S
O216 C215 1.264 . S
O217 Mg210 1.986 . S
O217 C221 1.246 . S
O218 Mg213 2.032 . S
O218 C221 1.259 . S
O219 Mg210 2.114 . S
O219 C222 1.252 . S
O220 Mg210 2.251 . S
O220 Mg213 2.079 . S
O220 C222 1.273 . S
C221 O217 1.246 . S
C221 O218 1.259 . S
C222 O219 1.252 . S
C222 O220 1.273 . S
O223 Mg210 2.010 . S
O223 C215 1.249 . S
Mg224 O225 2.028 . S
Mg224 O231 1.986 . S
Mg224 O233 2.114 . S
Mg224 O234 2.251 . S
Mg224 O237 2.010 . S
O225 Mg224 2.028 . S
O225 C228 1.250 . S
O226 Mg227 2.028 . S
O226 C228 1.248 . S
Mg227 O226 2.028 . S
Mg227 O232 2.032 . S
Mg227 O234 2.079 . S
C228 O225 1.250 . S
C228 O226 1.248 . S
C229 O230 1.264 . S
C229 O237 1.249 . S
O230 C229 1.264 . S
O231 Mg224 1.986 . S
O231 C235 1.246 . S
O232 Mg227 2.032 . S
O232 C235 1.259 . S
O233 Mg224 2.114 . S
O233 C236 1.252 . S
O234 Mg224 2.251 . S
O234 Mg227 2.079 . S
O234 C236 1.273 . S
C235 O231 1.246 . S
C235 O232 1.259 . S
C236 O233 1.252 . S
C236 O234 1.273 . S
O237 Mg224 2.010 . S
O237 C229 1.249 . S
Mg238 O239 2.028 . S
Mg238 O245 1.986 . S
Mg238 O247 2.114 . S
Mg238 O248 2.251 . S
Mg238 O251 2.010 . S
O239 Mg238 2.028 . S
O239 C242 1.250 . S
O240 Mg241 2.028 . S
O240 C242 1.248 . S
Mg241 O240 2.028 . S
Mg241 O246 2.032 . S
Mg241 O248 2.079 . S
C242 O239 1.250 . S
C242 O240 1.248 . S
C243 O244 1.264 . S
C243 O251 1.249 . S
O244 C243 1.264 . S
O245 Mg238 1.986 . S
O245 C249 1.246 . S
O246 Mg241 2.032 . S
O246 C249 1.259 . S
O247 Mg238 2.114 . S
O247 C250 1.252 . S
O248 Mg238 2.251 . S
O248 Mg241 2.079 . S
O248 C250 1.273 . S
C249 O245 1.246 . S
C249 O246 1.259 . S
C250 O247 1.252 . S
C250 O248 1.273 . S
O251 Mg238 2.010 . S
O251 C243 1.249 . S
Mg252 O253 2.028 . S
Mg252 O259 1.986 . S
Mg252 O261 2.114 . S
Mg252 O262 2.251 . S
Mg252 O265 2.010 1_554 S
O253 Mg252 2.028 . S
O253 C256 1.250 . S
O254 Mg255 2.028 . S
O254 C256 1.248 . S
Mg255 O254 2.028 . S
Mg255 O260 2.032 . S
Mg255 O262 2.079 . S
C256 O253 1.250 . S
C256 O254 1.248 . S
C257 O258 1.264 . S
C257 O265 1.249 . S
O258 C257 1.264 . S
O259 Mg252 1.986 . S
O259 C263 1.246 . S
O260 Mg255 2.032 . S
O260 C263 1.259 . S
O261 Mg252 2.114 . S
O261 C264 1.252 . S
O262 Mg252 2.251 . S
O262 Mg255 2.079 . S
O262 C264 1.273 . S
C263 O259 1.246 . S
C263 O260 1.259 . S
C264 O261 1.252 . S
C264 O262 1.273 . S
O265 Mg252 2.010 1_556 S
O265 C257 1.249 . S
Mg266 O267 2.028 . S
Mg266 O273 1.986 . S
Mg266 O275 2.114 . S
Mg266 O276 2.251 . S
Mg266 O279 2.010 . S
O267 Mg266 2.028 . S
O267 C270 1.250 . S
O268 Mg269 2.028 . S
O268 C270 1.248 . S
Mg269 O268 2.028 . S
Mg269 O274 2.032 . S
Mg269 O276 2.079 . S
C270 O267 1.250 . S
C270 O268 1.248 . S
C271 O272 1.264 . S
C271 O279 1.249 . S
O272 C271 1.264 . S
O273 Mg266 1.986 . S
O273 C277 1.246 . S
O274 Mg269 2.032 . S
O274 C277 1.259 . S
O275 Mg266 2.114 . S
O275 C278 1.252 . S
O276 Mg266 2.251 . S
O276 Mg269 2.079 . S
O276 C278 1.273 . S
C277 O273 1.246 . S
C277 O274 1.259 . S
C278 O275 1.252 . S
C278 O276 1.273 . S
O279 Mg266 2.010 . S
O279 C271 1.249 . S
Mg280 O281 2.028 . S
Mg280 O287 1.986 . S
Mg280 O289 2.114 . S
Mg280 O290 2.251 . S
Mg280 O293 2.010 1_556 S
O281 Mg280 2.028 . S
O281 C284 1.250 . S
O282 Mg283 2.028 . S
O282 C284 1.248 . S
Mg283 O282 2.028 . S
Mg283 O288 2.032 . S
Mg283 O290 2.079 . S
C284 O281 1.250 . S
C284 O282 1.248 . S
C285 O286 1.264 . S
C285 O293 1.249 . S
O286 C285 1.264 . S
O287 Mg280 1.986 . S
O287 C291 1.246 . S
O288 Mg283 2.032 . S
O288 C291 1.259 . S
O289 Mg280 2.114 . S
O289 C292 1.252 . S
O290 Mg280 2.251 . S
O290 Mg283 2.079 . S
O290 C292 1.273 . S
C291 O287 1.246 . S
C291 O288 1.259 . S
C292 O289 1.252 . S
C292 O290 1.273 . S
O293 Mg280 2.010 1_554 S
O293 C285 1.249 . S
Mg294 O295 2.028 . S
Mg294 O301 1.986 . S
Mg294 O303 2.114 . S
Mg294 O304 2.251 . S
Mg294 O307 2.010 . S
O295 Mg294 2.028 . S
O295 C298 1.250 . S
O296 Mg297 2.028 . S
O296 C298 1.248 . S
Mg297 O296 2.028 . S
Mg297 O302 2.032 . S
Mg297 O304 2.079 . S
C298 O295 1.250 . S
C298 O296 1.248 . S
C299 O300 1.264 . S
C299 O307 1.249 . S
O300 C299 1.264 . S
O301 Mg294 1.986 . S
O301 C305 1.246 . S
O302 Mg297 2.032 . S
O302 C305 1.259 . S
O303 Mg294 2.114 . S
O303 C306 1.252 . S
O304 Mg294 2.251 . S
O304 Mg297 2.079 . S
O304 C306 1.273 . S
C305 O301 1.246 . S
C305 O302 1.259 . S
C306 O303 1.252 . S
C306 O304 1.273 . S
O307 Mg294 2.010 . S
O307 C299 1.249 . S
Mg308 O309 2.028 . S
Mg308 O315 1.986 . S
Mg308 O317 2.114 . S
Mg308 O318 2.251 . S
Mg308 O321 2.010 . S
O309 Mg308 2.028 . S
O309 C312 1.250 . S
O310 Mg311 2.028 . S
O310 C312 1.248 . S
Mg311 O310 2.028 . S
Mg311 O316 2.032 . S
Mg311 O318 2.079 . S
C312 O309 1.250 . S
C312 O310 1.248 . S
C313 O314 1.264 . S
C313 O321 1.249 . S
O314 C313 1.264 . S
O315 Mg308 1.986 . S
O315 C319 1.246 . S
O316 Mg311 2.032 . S
O316 C319 1.259 . S
O317 Mg308 2.114 . S
O317 C320 1.252 . S
O318 Mg308 2.251 . S
O318 Mg311 2.079 . S
O318 C320 1.273 . S
C319 O315 1.246 . S
C319 O316 1.259 . S
C320 O317 1.252 . S
C320 O318 1.273 . S
O321 Mg308 2.010 . S
O321 C313 1.249 . S
Mg322 O323 2.028 . S
Mg322 O329 1.986 . S
Mg322 O331 2.114 . S
Mg322 O332 2.251 . S
Mg322 O335 2.010 . S
O323 Mg322 2.028 . S
O323 C326 1.250 . S
O324 Mg325 2.028 . S
O324 C326 1.248 . S
Mg325 O324 2.028 . S
Mg325 O330 2.032 . S
Mg325 O332 2.079 . S
C326 O323 1.250 . S
C326 O324 1.248 . S
C327 O328 1.264 . S
C327 O335 1.249 . S
O328 C327 1.264 . S
O329 Mg322 1.986 . S
O329 C333 1.246 . S
O330 Mg325 2.032 . S
O330 C333 1.259 . S
O331 Mg322 2.114 . S
O331 C334 1.252 . S
O332 Mg322 2.251 . S
O332 Mg325 2.079 . S
O332 C334 1.273 . S
C333 O329 1.246 . S
C333 O330 1.259 . S
C334 O331 1.252 . S
C334 O332 1.273 . S
O335 Mg322 2.010 . S
O335 C327 1.249 . S
Mg336 O337 2.028 . S
Mg336 O343 1.986 . S
Mg336 O345 2.114 . S
Mg336 O346 2.251 . S
Mg336 O349 2.010 . S
O337 Mg336 2.028 . S
O337 C340 1.250 . S
O338 Mg339 2.028 . S
O338 C340 1.248 . S
Mg339 O338 2.028 . S
Mg339 O344 2.032 . S
Mg339 O346 2.079 . S
C340 O337 1.250 . S
C340 O338 1.248 . S
C341 O342 1.264 . S
C341 O349 1.249 . S
O342 C341 1.264 . S
O343 Mg336 1.986 . S
O343 C347 1.246 . S
O344 Mg339 2.032 . S
O344 C347 1.259 . S
O345 Mg336 2.114 . S
O345 C348 1.252 . S
O346 Mg336 2.251 . S
O346 Mg339 2.079 . S
O346 C348 1.273 . S
C347 O343 1.246 . S
C347 O344 1.259 . S
C348 O345 1.252 . S
C348 O346 1.273 . S
O349 Mg336 2.010 . S
O349 C341 1.249 . S
Mg350 O351 2.028 . S
Mg350 O357 1.986 . S
Mg350 O359 2.114 . S
Mg350 O360 2.251 . S
Mg350 O363 2.010 . S
O351 Mg350 2.028 . S
O351 C354 1.250 . S
O352 Mg353 2.028 . S
O352 C354 1.248 . S
Mg353 O352 2.028 . S
Mg353 O358 2.032 . S
Mg353 O360 2.079 . S
C354 O351 1.250 . S
C354 O352 1.248 . S
C355 O356 1.264 . S
C355 O363 1.249 . S
O356 C355 1.264 . S
O357 Mg350 1.986 . S
O357 C361 1.246 . S
O358 Mg353 2.032 . S
O358 C361 1.259 . S
O359 Mg350 2.114 . S
O359 C362 1.252 . S
O360 Mg350 2.251 . S
O360 Mg353 2.079 . S
O360 C362 1.273 . S
C361 O357 1.246 . S
C361 O358 1.259 . S
C362 O359 1.252 . S
C362 O360 1.273 . S
O363 Mg350 2.010 . S
O363 C355 1.249 . S
Mg364 O365 2.028 . S
Mg364 O371 1.986 . S
Mg364 O373 2.114 . S
Mg364 O374 2.251 . S
Mg364 O377 2.010 1_556 S
O365 Mg364 2.028 . S
O365 C368 1.250 . S
O366 Mg367 2.028 . S
O366 C368 1.248 . S
Mg367 O366 2.028 . S
Mg367 O372 2.032 . S
Mg367 O374 2.079 . S
C368 O365 1.250 . S
C368 O366 1.248 . S
C369 O370 1.264 . S
C369 O377 1.249 . S
O370 C369 1.264 . S
O371 Mg364 1.986 . S
O371 C375 1.246 . S
O372 Mg367 2.032 . S
O372 C375 1.259 . S
O373 Mg364 2.114 . S
O373 C376 1.252 . S
O374 Mg364 2.251 . S
O374 Mg367 2.079 . S
O374 C376 1.273 . S
C375 O371 1.246 . S
C375 O372 1.259 . S
C376 O373 1.252 . S
C376 O374 1.273 . S
O377 Mg364 2.010 1_554 S
O377 C369 1.249 . S
Mg378 O379 2.028 . S
Mg378 O385 1.986 . S
Mg378 O387 2.114 . S
Mg378 O388 2.251 . S
Mg378 O391 2.010 . S
O379 Mg378 2.028 . S
O379 C382 1.250 . S
O380 Mg381 2.028 . S
O380 C382 1.248 . S
Mg381 O380 2.028 . S
Mg381 O386 2.032 . S
Mg381 O388 2.079 . S
C382 O379 1.250 . S
C382 O380 1.248 . S
C383 O384 1.264 . S
C383 O391 1.249 . S
O384 C383 1.264 . S
O385 Mg378 1.986 . S
O385 C389 1.246 . S
O386 Mg381 2.032 . S
O386 C389 1.259 . S
O387 Mg378 2.114 . S
O387 C390 1.252 . S
O388 Mg378 2.251 . S
O388 Mg381 2.079 . S
O388 C390 1.273 . S
C389 O385 1.246 . S
C389 O386 1.259 . S
C390 O387 1.252 . S
C390 O388 1.273 . S
O391 Mg378 2.010 . S
O391 C383 1.249 . S
Mg392 O393 2.028 . S
Mg392 O399 1.986 . S
Mg392 O401 2.114 . S
Mg392 O402 2.251 . S
Mg392 O405 2.010 1_554 S
O393 Mg392 2.028 . S
O393 C396 1.250 . S
O394 Mg395 2.028 . S
O394 C396 1.248 . S
Mg395 O394 2.028 . S
Mg395 O400 2.032 . S
Mg395 O402 2.079 . S
C396 O393 1.250 . S
C396 O394 1.248 . S
C397 O398 1.264 . S
C397 O405 1.249 . S
O398 C397 1.264 . S
O399 Mg392 1.986 . S
O399 C403 1.246 . S
O400 Mg395 2.032 . S
O400 C403 1.259 . S
O401 Mg392 2.114 . S
O401 C404 1.252 . S
O402 Mg392 2.251 . S
O402 Mg395 2.079 . S
O402 C404 1.273 . S
C403 O399 1.246 . S
C403 O400 1.259 . S
C404 O401 1.252 . S
C404 O402 1.273 . S
O405 Mg392 2.010 1_556 S
O405 C397 1.249 . S
Mg406 O407 2.028 . S
Mg406 O413 1.986 . S
Mg406 O415 2.114 . S
Mg406 O416 2.251 . S
Mg406 O419 2.010 . S
O407 Mg406 2.028 . S
O407 C410 1.250 . S
O408 Mg409 2.028 . S
O408 C410 1.248 . S
Mg409 O408 2.028 . S
Mg409 O414 2.032 . S
Mg409 O416 2.079 . S
C410 O407 1.250 . S
C410 O408 1.248 . S
C411 O412 1.264 . S
C411 O419 1.249 . S
O412 C411 1.264 . S
O413 Mg406 1.986 . S
O413 C417 1.246 . S
O414 Mg409 2.032 . S
O414 C417 1.259 . S
O415 Mg406 2.114 . S
O415 C418 1.252 . S
O416 Mg406 2.251 . S
O416 Mg409 2.079 . S
O416 C418 1.273 . S
C417 O413 1.246 . S
C417 O414 1.259 . S
C418 O415 1.252 . S
C418 O416 1.273 . S
O419 Mg406 2.010 . S
O419 C411 1.249 . S
Mg420 O421 2.028 . S
Mg420 O427 1.986 . S
Mg420 O429 2.114 . S
Mg420 O430 2.251 . S
Mg420 O433 2.010 . S
O421 Mg420 2.028 . S
O421 C424 1.250 . S
O422 Mg423 2.028 . S
O422 C424 1.248 . S
Mg423 O422 2.028 . S
Mg423 O428 2.032 . S
Mg423 O430 2.079 . S
C424 O421 1.250 . S
C424 O422 1.248 . S
C425 O426 1.264 . S
C425 O433 1.249 . S
O426 C425 1.264 . S
O427 Mg420 1.986 . S
O427 C431 1.246 . S
O428 Mg423 2.032 . S
O428 C431 1.259 . S
O429 Mg420 2.114 . S
O429 C432 1.252 . S
O430 Mg420 2.251 . S
O430 Mg423 2.079 . S
O430 C432 1.273 . S
C431 O427 1.246 . S
C431 O428 1.259 . S
C432 O429 1.252 . S
C432 O430 1.273 . S
O433 Mg420 2.010 . S
O433 C425 1.249 . S
Mg434 O435 2.028 . S
Mg434 O441 1.986 . S
Mg434 O443 2.114 . S
Mg434 O444 2.251 . S
Mg434 O447 2.010 . S
O435 Mg434 2.028 . S
O435 C438 1.250 . S
O436 Mg437 2.028 . S
O436 C438 1.248 . S
Mg437 O436 2.028 . S
Mg437 O442 2.032 . S
Mg437 O444 2.079 . S
C438 O435 1.250 . S
C438 O436 1.248 . S
C439 O440 1.264 . S
C439 O447 1.249 . S
O440 C439 1.264 . S
O441 Mg434 1.986 . S
O441 C445 1.246 . S
O442 Mg437 2.032 . S
O442 C445 1.259 . S
O443 Mg434 2.114 . S
O443 C446 1.252 . S
O444 Mg434 2.251 . S
O444 Mg437 2.079 . S
O444 C446 1.273 . S
C445 O441 1.246 . S
C445 O442 1.259 . S
C446 O443 1.252 . S
C446 O444 1.273 . S
O447 Mg434 2.010 . S
O447 C439 1.249 . S
H448 C454 0.930 . S
H449 C458 0.930 . S
H450 C463 0.929 . S
H451 C461 0.929 . S
H452 C456 0.929 . S
H453 C462 0.929 . S
C454 H448 0.930 . S
C454 C455 1.367 . S
C454 C462 1.378 . S
C455 C454 1.367 . S
C455 C463 1.433 1_556 S
C456 H452 0.929 . S
C456 C458 1.378 . S
C456 C460 1.350 . S
C457 C460 1.463 1_556 S
C457 C462 1.350 . S
C457 N465 1.427 1_556 S
C458 H449 0.930 . S
C458 C456 1.378 . S
C458 C459 1.367 . S
C459 C458 1.367 . S
C459 C461 1.433 1_554 S
C460 C456 1.350 . S
C460 C457 1.463 1_554 S
C460 N464 1.427 1_554 S
C461 H451 0.929 . S
C461 C459 1.433 1_556 S
C461 N464 1.384 . S
C462 H453 0.929 . S
C462 C454 1.378 . S
C462 C457 1.350 . S
C463 H450 0.929 . S
C463 C455 1.433 1_554 S
C463 N465 1.384 . S
N464 C460 1.427 1_556 S
N464 C461 1.384 . S
N465 C457 1.427 1_554 S
N465 C463 1.384 . S
H466 C472 0.930 . S
H467 C476 0.930 . S
H468 C481 0.929 . S
H469 C479 0.929 . S
H470 C474 0.929 . S
H471 C480 0.929 . S
C472 H466 0.930 . S
C472 C473 1.367 . S
C472 C480 1.378 . S
C473 C472 1.367 . S
C473 C481 1.433 . S
C474 H470 0.929 . S
C474 C476 1.378 . S
C474 C478 1.350 . S
C475 C478 1.463 1_565 S
C475 C480 1.350 . S
C475 N483 1.427 . S
C476 H467 0.930 . S
C476 C474 1.378 . S
C476 C477 1.367 . S
C477 C476 1.367 . S
C477 C479 1.433 . S
C478 C474 1.350 . S
C478 C475 1.463 1_545 S
C478 N482 1.427 . S
C479 H469 0.929 . S
C479 C477 1.433 . S
C479 N482 1.384 . S
C480 H471 0.929 . S
C480 C472 1.378 . S
C480 C475 1.350 . S
C481 H468 0.929 . S
C481 C473 1.433 . S
C481 N483 1.384 . S
N482 C478 1.427 . S
N482 C479 1.384 . S
N483 C475 1.427 . S
N483 C481 1.384 . S
H484 C490 0.930 . S
H485 C494 0.930 . S
H486 C499 0.929 . S
H487 C497 0.929 . S
H488 C492 0.929 . S
H489 C498 0.929 . S
C490 H484 0.930 . S
C490 C491 1.367 . S
C490 C498 1.378 . S
C491 C490 1.367 . S
C491 C499 1.433 . S
C492 H488 0.929 . S
C492 C494 1.378 . S
C492 C496 1.350 . S
C493 C496 1.463 . S
C493 C498 1.350 . S
C493 N501 1.427 . S
C494 H485 0.930 . S
C494 C492 1.378 . S
C494 C495 1.367 . S
C495 C494 1.367 . S
C495 C497 1.433 . S
C496 C492 1.350 . S
C496 C493 1.463 . S
C496 N500 1.427 . S
C497 H487 0.929 . S
C497 C495 1.433 . S
C497 N500 1.384 . S
C498 H489 0.929 . S
C498 C490 1.378 . S
C498 C493 1.350 . S
C499 H486 0.929 . S
C499 C491 1.433 . S
C499 N501 1.384 . S
N500 C496 1.427 . S
N500 C497 1.384 . S
N501 C493 1.427 . S
N501 C499 1.384 . S
H502 C508 0.930 . S
H503 C512 0.930 . S
H504 C517 0.929 . S
H505 C515 0.929 . S
H506 C510 0.929 . S
H507 C516 0.929 . S
C508 H502 0.930 . S
C508 C509 1.367 . S
C508 C516 1.378 . S
C509 C508 1.367 . S
C509 C517 1.433 . S
C510 H506 0.929 . S
C510 C512 1.378 . S
C510 C514 1.350 . S
C511 C514 1.463 1_545 S
C511 C516 1.350 . S
C511 N519 1.427 . S
C512 H503 0.930 . S
C512 C510 1.378 . S
C512 C513 1.367 . S
C513 C512 1.367 . S
C513 C515 1.433 . S
C514 C510 1.350 . S
C514 C511 1.463 1_565 S
C514 N518 1.427 . S
C515 H505 0.929 . S
C515 C513 1.433 . S
C515 N518 1.384 . S
C516 H507 0.929 . S
C516 C508 1.378 . S
C516 C511 1.350 . S
C517 H504 0.929 . S
C517 C509 1.433 . S
C517 N519 1.384 . S
N518 C514 1.427 . S
N518 C515 1.384 . S
N519 C511 1.427 . S
N519 C517 1.384 . S
H520 C526 0.930 . S
H521 C530 0.930 . S
H522 C535 0.929 . S
H523 C533 0.929 . S
H524 C528 0.929 1_554 S
H525 C534 0.929 1_556 S
C526 H520 0.930 . S
C526 C527 1.367 . S
C526 C534 1.378 . S
C527 C526 1.367 . S
C527 C535 1.433 . S
C528 H524 0.929 1_556 S
C528 C530 1.378 . S
C528 C532 1.350 . S
C529 C532 1.463 1_554 S
C529 C534 1.350 . S
C529 N537 1.427 . S
C530 H521 0.930 . S
C530 C528 1.378 . S
C530 C531 1.367 . S
C531 C530 1.367 . S
C531 C533 1.433 . S
C532 C528 1.350 . S
C532 C529 1.463 1_556 S
C532 N536 1.427 . S
C533 H523 0.929 . S
C533 C531 1.433 . S
C533 N536 1.384 . S
C534 H525 0.929 1_554 S
C534 C526 1.378 . S
C534 C529 1.350 . S
C535 H522 0.929 . S
C535 C527 1.433 . S
C535 N537 1.384 . S
N536 C532 1.427 . S
N536 C533 1.384 . S
N537 C529 1.427 . S
N537 C535 1.384 . S
H538 C544 0.930 . S
H539 C548 0.930 . S
H540 C553 0.929 . S
H541 C551 0.929 . S
H542 C546 0.929 . S
H543 C552 0.929 . S
C544 H538 0.930 . S
C544 C545 1.367 . S
C544 C552 1.378 . S
C545 C544 1.367 . S
C545 C553 1.433 . S
C546 H542 0.929 . S
C546 C548 1.378 . S
C546 C550 1.350 . S
C547 C550 1.463 1_565 S
C547 C552 1.350 . S
C547 N555 1.427 . S
C548 H539 0.930 . S
C548 C546 1.378 . S
C548 C549 1.367 . S
C549 C548 1.367 . S
C549 C551 1.433 . S
C550 C546 1.350 . S
C550 C547 1.463 1_545 S
C550 N554 1.427 . S
C551 H541 0.929 . S
C551 C549 1.433 . S
C551 N554 1.384 . S
C552 H543 0.929 . S
C552 C544 1.378 . S
C552 C547 1.350 . S
C553 H540 0.929 . S
C553 C545 1.433 . S
C553 N555 1.384 . S
N554 C550 1.427 . S
N554 C551 1.384 . S
N555 C547 1.427 . S
N555 C553 1.384 . S
H556 C562 0.930 . S
H557 C566 0.930 . S
H558 C571 0.929 . S
H559 C569 0.929 . S
H560 C564 0.929 . S
H561 C570 0.929 . S
C562 H556 0.930 . S
C562 C563 1.367 . S
C562 C570 1.378 . S
C563 C562 1.367 . S
C563 C571 1.433 . S
C564 H560 0.929 . S
C564 C566 1.378 . S
C564 C568 1.350 . S
C565 C568 1.463 . S
C565 C570 1.350 . S
C565 N573 1.427 . S
C566 H557 0.930 . S
C566 C564 1.378 . S
C566 C567 1.367 . S
C567 C566 1.367 . S
C567 C569 1.433 . S
C568 C564 1.350 . S
C568 C565 1.463 . S
C568 N572 1.427 . S
C569 H559 0.929 . S
C569 C567 1.433 . S
C569 N572 1.384 . S
C570 H561 0.929 . S
C570 C562 1.378 . S
C570 C565 1.350 . S
C571 H558 0.929 . S
C571 C563 1.433 . S
C571 N573 1.384 . S
N572 C568 1.427 . S
N572 C569 1.384 . S
N573 C565 1.427 . S
N573 C571 1.384 . S
H574 C580 0.930 . S
H575 C584 0.930 . S
H576 C589 0.929 . S
H577 C587 0.929 . S
H578 C582 0.929 . S
H579 C588 0.929 . S
C580 H574 0.930 . S
C580 C581 1.367 . S
C580 C588 1.378 . S
C581 C580 1.367 . S
C581 C589 1.433 . S
C582 H578 0.929 . S
C582 C584 1.378 . S
C582 C586 1.350 . S
C583 C586 1.463 1_565 S
C583 C588 1.350 . S
C583 N591 1.427 . S
C584 H575 0.930 . S
C584 C582 1.378 . S
C584 C585 1.367 . S
C585 C584 1.367 . S
C585 C587 1.433 . S
C586 C582 1.350 . S
C586 C583 1.463 1_545 S
C586 N590 1.427 . S
C587 H577 0.929 . S
C587 C585 1.433 . S
C587 N590 1.384 . S
C588 H579 0.929 . S
C588 C580 1.378 . S
C588 C583 1.350 . S
C589 H576 0.929 . S
C589 C581 1.433 . S
C589 N591 1.384 . S
N590 C586 1.427 . S
N590 C587 1.384 . S
N591 C583 1.427 . S
N591 C589 1.384 . S
H592 C598 0.930 . S
H593 C602 0.930 . S
H594 C607 0.929 . S
H595 C605 0.929 . S
H596 C600 0.929 . S
H597 C606 0.929 . S
C598 H592 0.930 . S
C598 C599 1.367 . S
C598 C606 1.378 . S
C599 C598 1.367 . S
C599 C607 1.433 . S
C600 H596 0.929 . S
C600 C602 1.378 . S
C600 C604 1.350 . S
C601 C604 1.463 . S
C601 C606 1.350 . S
C601 N609 1.427 . S
C602 H593 0.930 . S
C602 C600 1.378 . S
C602 C603 1.367 . S
C603 C602 1.367 . S
C603 C605 1.433 . S
C604 C600 1.350 . S
C604 C601 1.463 . S
C604 N608 1.427 . S
C605 H595 0.929 . S
C605 C603 1.433 . S
C605 N608 1.384 . S
C606 H597 0.929 . S
C606 C598 1.378 . S
C606 C601 1.350 . S
C607 H594 0.929 . S
C607 C599 1.433 . S
C607 N609 1.384 . S
N608 C604 1.427 . S
N608 C605 1.384 . S
N609 C601 1.427 . S
N609 C607 1.384 . S
H610 C616 0.930 . S
H611 C620 0.930 . S
H612 C625 0.929 . S
H613 C623 0.929 . S
H614 C618 0.929 . S
H615 C624 0.929 . S
C616 H610 0.930 . S
C616 C617 1.367 . S
C616 C624 1.378 . S
C617 C616 1.367 . S
C617 C625 1.433 . S
C618 H614 0.929 . S
C618 C620 1.378 . S
C618 C622 1.350 . S
C619 C622 1.463 . S
C619 C624 1.350 . S
C619 N627 1.427 . S
C620 H611 0.930 . S
C620 C618 1.378 . S
C620 C621 1.367 . S
C621 C620 1.367 . S
C621 C623 1.433 . S
C622 C618 1.350 . S
C622 C619 1.463 . S
C622 N626 1.427 . S
C623 H613 0.929 . S
C623 C621 1.433 . S
C623 N626 1.384 . S
C624 H615 0.929 . S
C624 C616 1.378 . S
C624 C619 1.350 . S
C625 H612 0.929 . S
C625 C617 1.433 . S
C625 N627 1.384 . S
N626 C622 1.427 . S
N626 C623 1.384 . S
N627 C619 1.427 . S
N627 C625 1.384 . S
H628 C634 0.930 . S
H629 C638 0.930 . S
H630 C643 0.929 . S
H631 C641 0.929 . S
H632 C636 0.929 . S
H633 C642 0.929 . S
C634 H628 0.930 . S
C634 C635 1.367 . S
C634 C642 1.378 . S
C635 C634 1.367 . S
C635 C643 1.433 . S
C636 H632 0.929 . S
C636 C638 1.378 . S
C636 C640 1.350 . S
C637 C640 1.463 1_556 S
C637 C642 1.350 . S
C637 N645 1.427 . S
C638 H629 0.930 . S
C638 C636 1.378 . S
C638 C639 1.367 . S
C639 C638 1.367 . S
C639 C641 1.433 . S
C640 C636 1.350 . S
C640 C637 1.463 1_554 S
C640 N644 1.427 . S
C641 H631 0.929 . S
C641 C639 1.433 . S
C641 N644 1.384 . S
C642 H633 0.929 . S
C642 C634 1.378 . S
C642 C637 1.350 . S
C643 H630 0.929 . S
C643 C635 1.433 . S
C643 N645 1.384 . S
N644 C640 1.427 . S
N644 C641 1.384 . S
N645 C637 1.427 . S
N645 C643 1.384 . S
H646 C652 0.930 . S
H647 C656 0.930 . S
H648 C661 0.929 . S
H649 C659 0.929 . S
H650 C654 0.929 . S
H651 C660 0.929 . S
C652 H646 0.930 . S
C652 C653 1.367 . S
C652 C660 1.378 . S
C653 C652 1.367 . S
C653 C661 1.433 . S
C654 H650 0.929 . S
C654 C656 1.378 . S
C654 C658 1.350 . S
C655 C658 1.463 . S
C655 C660 1.350 . S
C655 N663 1.427 . S
C656 H647 0.930 . S
C656 C654 1.378 . S
C656 C657 1.367 . S
C657 C656 1.367 . S
C657 C659 1.433 . S
C658 C654 1.350 . S
C658 C655 1.463 . S
C658 N662 1.427 . S
C659 H649 0.929 . S
C659 C657 1.433 . S
C659 N662 1.384 . S
C660 H651 0.929 . S
C660 C652 1.378 . S
C660 C655 1.350 . S
C661 H648 0.929 . S
C661 C653 1.433 . S
C661 N663 1.384 . S
N662 C658 1.427 . S
N662 C659 1.384 . S
N663 C655 1.427 . S
N663 C661 1.384 . S
H664 C670 0.930 . S
H665 C674 0.930 . S
H666 C679 0.929 . S
H667 C677 0.929 . S
H668 C672 0.929 . S
H669 C678 0.929 . S
C670 H664 0.930 . S
C670 C671 1.367 . S
C670 C678 1.378 . S
C671 C670 1.367 . S
C671 C679 1.433 . S
C672 H668 0.929 . S
C672 C674 1.378 . S
C672 C676 1.350 . S
C673 C676 1.463 . S
C673 C678 1.350 . S
C673 N681 1.427 . S
C674 H665 0.930 . S
C674 C672 1.378 . S
C674 C675 1.367 . S
C675 C674 1.367 . S
C675 C677 1.433 . S
C676 C672 1.350 . S
C676 C673 1.463 . S
C676 N680 1.427 . S
C677 H667 0.929 . S
C677 C675 1.433 . S
C677 N680 1.384 . S
C678 H669 0.929 . S
C678 C670 1.378 . S
C678 C673 1.350 . S
C679 H666 0.929 . S
C679 C671 1.433 . S
C679 N681 1.384 . S
N680 C676 1.427 . S
N680 C677 1.384 . S
N681 C673 1.427 . S
N681 C679 1.384 . S
H682 C688 0.930 . S
H683 C692 0.930 . S
H684 C697 0.929 . S
H685 C695 0.929 . S
H686 C690 0.929 . S
H687 C696 0.929 . S
C688 H682 0.930 . S
C688 C689 1.367 . S
C688 C696 1.378 . S
C689 C688 1.367 . S
C689 C697 1.433 . S
C690 H686 0.929 . S
C690 C692 1.378 . S
C690 C694 1.350 . S
C691 C694 1.463 . S
C691 C696 1.350 . S
C691 N699 1.427 . S
C692 H683 0.930 . S
C692 C690 1.378 . S
C692 C693 1.367 . S
C693 C692 1.367 . S
C693 C695 1.433 . S
C694 C690 1.350 . S
C694 C691 1.463 . S
C694 N698 1.427 . S
C695 H685 0.929 . S
C695 C693 1.433 . S
C695 N698 1.384 . S
C696 H687 0.929 . S
C696 C688 1.378 . S
C696 C691 1.350 . S
C697 H684 0.929 . S
C697 C689 1.433 . S
C697 N699 1.384 . S
N698 C694 1.427 . S
N698 C695 1.384 . S
N699 C691 1.427 . S
N699 C697 1.384 . S
H700 C706 0.930 . S
H701 C710 0.930 . S
H702 C715 0.929 . S
H703 C713 0.929 . S
H704 C708 0.929 1_554 S
H705 C714 0.929 1_556 S
C706 H700 0.930 . S
C706 C707 1.367 . S
C706 C714 1.378 . S
C707 C706 1.367 . S
C707 C715 1.433 . S
C708 H704 0.929 1_556 S
C708 C710 1.378 . S
C708 C712 1.350 . S
C709 C712 1.463 1_554 S
C709 C714 1.350 . S
C709 N717 1.427 . S
C710 H701 0.930 . S
C710 C708 1.378 . S
C710 C711 1.367 . S
C711 C710 1.367 . S
C711 C713 1.433 . S
C712 C708 1.350 . S
C712 C709 1.463 1_556 S
C712 N716 1.427 . S
C713 H703 0.929 . S
C713 C711 1.433 . S
C713 N716 1.384 . S
C714 H705 0.929 1_554 S
C714 C706 1.378 . S
C714 C709 1.350 . S
C715 H702 0.929 . S
C715 C707 1.433 . S
C715 N717 1.384 . S
N716 C712 1.427 . S
N716 C713 1.384 . S
N717 C709 1.427 . S
N717 C715 1.384 . S
H718 C724 0.930 . S
H719 C728 0.930 . S
H720 C733 0.929 . S
H721 C731 0.929 . S
H722 C726 0.929 . S
H723 C732 0.929 . S
C724 H718 0.930 . S
C724 C725 1.367 . S
C724 C732 1.378 . S
C725 C724 1.367 . S
C725 C733 1.433 . S
C726 H722 0.929 . S
C726 C728 1.378 . S
C726 C730 1.350 . S
C727 C730 1.463 . S
C727 C732 1.350 . S
C727 N735 1.427 . S
C728 H719 0.930 . S
C728 C726 1.378 . S
C728 C729 1.367 . S
C729 C728 1.367 . S
C729 C731 1.433 . S
C730 C726 1.350 . S
C730 C727 1.463 . S
C730 N734 1.427 . S
C731 H721 0.929 . S
C731 C729 1.433 . S
C731 N734 1.384 . S
C732 H723 0.929 . S
C732 C724 1.378 . S
C732 C727 1.350 . S
C733 H720 0.929 . S
C733 C725 1.433 . S
C733 N735 1.384 . S
N734 C730 1.427 . S
N734 C731 1.384 . S
N735 C727 1.427 . S
N735 C733 1.384 . S
H736 C742 0.930 . S
H737 C746 0.930 . S
H738 C751 0.929 . S
H739 C749 0.929 . S
H740 C744 0.929 . S
H741 C750 0.929 . S
C742 H736 0.930 . S
C742 C743 1.367 . S
C742 C750 1.378 . S
C743 C742 1.367 . S
C743 C751 1.433 . S
C744 H740 0.929 . S
C744 C746 1.378 . S
C744 C748 1.350 . S
C745 C748 1.463 . S
C745 C750 1.350 . S
C745 N753 1.427 . S
C746 H737 0.930 . S
C746 C744 1.378 . S
C746 C747 1.367 . S
C747 C746 1.367 . S
C747 C749 1.433 . S
C748 C744 1.350 . S
C748 C745 1.463 . S
C748 N752 1.427 . S
C749 H739 0.929 . S
C749 C747 1.433 . S
C749 N752 1.384 . S
C750 H741 0.929 . S
C750 C742 1.378 . S
C750 C745 1.350 . S
C751 H738 0.929 . S
C751 C743 1.433 . S
C751 N753 1.384 . S
N752 C748 1.427 . S
N752 C749 1.384 . S
N753 C745 1.427 . S
N753 C751 1.384 . S
H754 C760 0.930 . S
H755 C764 0.930 . S
H756 C769 0.929 . S
H757 C767 0.929 . S
H758 C762 0.995 . S
H759 C768 0.929 . S
C760 H754 0.930 . S
C760 C761 1.367 . S
C760 C768 1.378 1_455 S
C761 C760 1.367 . S
C761 C769 1.433 . S
C762 H758 0.995 . S
C762 C764 1.337 1_455 S
C762 C766 1.326 1_455 S
C763 C766 1.463 1_455 S
C763 C768 1.350 1_454 S
C763 N771 1.427 . S
C764 H755 0.930 . S
C764 C762 1.337 1_655 S
C764 C765 1.367 . S
C765 C764 1.367 . S
C765 C767 1.433 . S
C766 C762 1.326 1_655 S
C766 C763 1.463 1_655 S
C766 N770 1.427 . S
C767 H757 0.929 . S
C767 C765 1.433 . S
C767 N770 1.384 . S
C768 H759 0.929 . S
C768 C760 1.378 1_655 S
C768 C763 1.350 1_656 S
C769 H756 0.929 . S
C769 C761 1.433 . S
C769 N771 1.384 1_556 S
N770 C766 1.427 . S
N770 C767 1.384 . S
N771 C763 1.427 . S
N771 C769 1.384 1_554 S
H772 C778 0.930 . S
H773 C782 0.930 . S
H774 C787 0.929 . S
H775 C785 0.929 . S
H776 C780 0.929 . S
H777 C786 0.929 . S
C778 H772 0.930 . S
C778 C779 1.367 . S
C778 C786 1.378 . S
C779 C778 1.367 . S
C779 C787 1.433 . S
C780 H776 0.929 . S
C780 C782 1.378 . S
C780 C784 1.350 . S
C781 C784 1.463 . S
C781 C786 1.350 . S
C781 N789 1.427 . S
C782 H773 0.930 . S
C782 C780 1.378 . S
C782 C783 1.367 . S
C783 C782 1.367 . S
C783 C785 1.433 . S
C784 C780 1.350 . S
C784 C781 1.463 . S
C784 N788 1.427 . S
C785 H775 0.929 . S
C785 C783 1.433 . S
C785 N788 1.384 . S
C786 H777 0.929 . S
C786 C778 1.378 . S
C786 C781 1.350 . S
C787 H774 0.929 . S
C787 C779 1.433 . S
C787 N789 1.384 . S
N788 C784 1.427 . S
N788 C785 1.384 . S
N789 C781 1.427 . S
N789 C787 1.384 . S
H790 C796 0.930 . S
H791 C800 0.930 . S
H792 C805 0.929 . S
H793 C803 0.929 . S
H794 C798 0.929 . S
H795 C804 0.929 . S
C796 H790 0.930 . S
C796 C797 1.367 . S
C796 C804 1.378 . S
C797 C796 1.367 . S
C797 C805 1.433 . S
C798 H794 0.929 . S
C798 C800 1.378 . S
C798 C802 1.350 . S
C799 C802 1.463 . S
C799 C804 1.350 . S
C799 N807 1.427 . S
C800 H791 0.930 . S
C800 C798 1.378 . S
C800 C801 1.367 . S
C801 C800 1.367 . S
C801 C803 1.433 . S
C802 C798 1.350 . S
C802 C799 1.463 . S
C802 N806 1.427 . S
C803 H793 0.929 . S
C803 C801 1.433 . S
C803 N806 1.384 . S
C804 H795 0.929 . S
C804 C796 1.378 . S
C804 C799 1.350 . S
C805 H792 0.929 . S
C805 C797 1.433 . S
C805 N807 1.384 . S
N806 C802 1.427 . S
N806 C803 1.384 . S
N807 C799 1.427 . S
N807 C805 1.384 . S
H808 C814 0.930 . S
H809 C818 0.930 . S
H810 C823 0.929 . S
H811 C821 0.929 . S
H812 C816 0.929 . S
H813 C822 0.929 . S
C814 H808 0.930 . S
C814 C815 1.367 . S
C814 C822 1.378 . S
C815 C814 1.367 . S
C815 C823 1.433 . S
C816 H812 0.929 . S
C816 C818 1.378 . S
C816 C820 1.350 . S
C817 C820 1.463 . S
C817 C822 1.350 . S
C817 N825 1.427 . S
C818 H809 0.930 . S
C818 C816 1.378 . S
C818 C819 1.367 . S
C819 C818 1.367 . S
C819 C821 1.433 . S
C820 C816 1.350 . S
C820 C817 1.463 . S
C820 N824 1.427 . S
C821 H811 0.929 . S
C821 C819 1.433 . S
C821 N824 1.384 . S
C822 H813 0.929 . S
C822 C814 1.378 . S
C822 C817 1.350 . S
C823 H810 0.929 . S
C823 C815 1.433 . S
C823 N825 1.384 . S
N824 C820 1.427 . S
N824 C821 1.384 . S
N825 C817 1.427 . S
N825 C823 1.384 . S
H826 C832 0.930 . S
H827 C836 0.930 . S
H828 C841 0.929 . S
H829 C839 0.929 . S
H830 C834 0.929 . S
H831 C840 0.929 . S
C832 H826 0.930 . S
C832 C833 1.367 . S
C832 C840 1.378 1_554 S
C833 C832 1.367 . S
C833 C841 1.433 . S
C834 H830 0.929 . S
C834 C836 1.378 . S
C834 C838 1.350 . S
C835 C838 1.463 . S
C835 C840 1.350 . S
C835 N843 1.427 1_556 S
C836 H827 0.930 . S
C836 C834 1.378 . S
C836 C837 1.367 . S
C837 C836 1.367 . S
C837 C839 1.433 . S
C838 C834 1.350 . S
C838 C835 1.463 . S
C838 N842 1.427 . S
C839 H829 0.929 . S
C839 C837 1.433 . S
C839 N842 1.384 . S
C840 H831 0.929 . S
C840 C832 1.378 1_556 S
C840 C835 1.350 . S
C841 H828 0.929 . S
C841 C833 1.433 . S
C841 N843 1.384 . S
N842 C838 1.427 . S
N842 C839 1.384 . S
N843 C835 1.427 1_554 S
N843 C841 1.384 . S
H844 C850 0.930 . S
H845 C854 0.930 . S
H846 C859 0.929 . S
H847 C857 0.929 . S
H848 C852 0.929 . S
H849 C858 0.929 . S
C850 H844 0.930 . S
C850 C851 1.367 . S
C850 C858 1.378 . S
C851 C850 1.367 . S
C851 C859 1.433 . S
C852 H848 0.929 . S
C852 C854 1.378 . S
C852 C856 1.350 . S
C853 C856 1.463 . S
C853 C858 1.350 . S
C853 N861 1.427 . S
C854 H845 0.930 . S
C854 C852 1.378 . S
C854 C855 1.367 . S
C855 C854 1.367 . S
C855 C857 1.433 . S
C856 C852 1.350 . S
C856 C853 1.463 . S
C856 N860 1.427 . S
C857 H847 0.929 . S
C857 C855 1.433 . S
C857 N860 1.384 . S
C858 H849 0.929 . S
C858 C850 1.378 . S
C858 C853 1.350 . S
C859 H846 0.929 . S
C859 C851 1.433 . S
C859 N861 1.384 . S
N860 C856 1.427 . S
N860 C857 1.384 . S
N861 C853 1.427 . S
N861 C859 1.384 . S
H862 C868 0.930 . S
H863 C872 0.930 . S
H864 C877 0.929 . S
H865 C875 0.929 . S
H866 C870 0.929 1_455 S
H867 C876 0.929 1_655 S
C868 H862 0.930 . S
C868 C869 1.367 . S
C868 C876 1.378 . S
C869 C868 1.367 . S
C869 C877 1.433 . S
C870 H866 0.929 1_655 S
C870 C872 1.378 . S
C870 C874 1.350 . S
C871 C874 1.463 1_455 S
C871 C876 1.350 . S
C871 N879 1.427 . S
C872 H863 0.930 . S
C872 C870 1.378 . S
C872 C873 1.367 . S
C873 C872 1.367 . S
C873 C875 1.433 . S
C874 C870 1.350 . S
C874 C871 1.463 1_655 S
C874 N878 1.427 . S
C875 H865 0.929 . S
C875 C873 1.433 . S
C875 N878 1.384 . S
C876 H867 0.929 1_455 S
C876 C868 1.378 . S
C876 C871 1.350 . S
C877 H864 0.929 . S
C877 C869 1.433 . S
C877 N879 1.384 . S
N878 C874 1.427 . S
N878 C875 1.384 . S
N879 C871 1.427 . S
N879 C877 1.384 . S
H880 C886 0.930 . S
H881 C890 0.930 . S
H882 C895 0.929 . S
H883 C893 0.929 . S
H884 C888 0.929 . S
H885 C894 0.929 . S
C886 H880 0.930 . S
C886 C887 1.367 . S
C886 C894 1.378 . S
C887 C886 1.367 . S
C887 C895 1.433 . S
C888 H884 0.929 . S
C888 C890 1.378 . S
C888 C892 1.350 . S
C889 C892 1.463 . S
C889 C894 1.350 . S
C889 N897 1.427 . S
C890 H881 0.930 . S
C890 C888 1.378 . S
C890 C891 1.367 . S
C891 C890 1.367 . S
C891 C893 1.433 . S
C892 C888 1.350 . S
C892 C889 1.463 . S
C892 N896 1.427 . S
C893 H883 0.929 . S
C893 C891 1.433 . S
C893 N896 1.384 . S
C894 H885 0.929 . S
C894 C886 1.378 . S
C894 C889 1.350 . S
C895 H882 0.929 . S
C895 C887 1.433 . S
C895 N897 1.384 . S
N896 C892 1.427 . S
N896 C893 1.384 . S
N897 C889 1.427 . S
N897 C895 1.384 . S
H898 C904 0.930 . S
H899 C908 0.930 . S
H900 C913 0.929 . S
H901 C911 0.929 . S
H902 C906 0.929 . S
H903 C912 0.929 . S
C904 H898 0.930 . S
C904 C905 1.367 . S
C904 C912 1.378 1_554 S
C905 C904 1.367 . S
C905 C913 1.433 . S
C906 H902 0.929 . S
C906 C908 1.378 . S
C906 C910 1.350 . S
C907 C910 1.463 1_655 S
C907 C912 1.350 . S
C907 N915 1.427 1_556 S
C908 H899 0.930 . S
C908 C906 1.378 . S
C908 C909 1.367 . S
C909 C908 1.367 . S
C909 C911 1.433 . S
C910 C906 1.350 . S
C910 C907 1.463 1_455 S
C910 N914 1.427 . S
C911 H901 0.929 . S
C911 C909 1.433 . S
C911 N914 1.384 . S
C912 H903 0.929 . S
C912 C904 1.378 1_556 S
C912 C907 1.350 . S
C913 H900 0.929 . S
C913 C905 1.433 . S
C913 N915 1.384 . S
N914 C910 1.427 . S
N914 C911 1.384 . S
N915 C907 1.427 1_554 S
N915 C913 1.384 . S
H916 C922 0.930 . S
H917 C926 0.930 . S
H918 C931 0.929 . S
H919 C929 0.929 . S
H920 C924 0.929 . S
H921 C930 0.929 . S
C922 H916 0.930 . S
C922 C923 1.367 . S
C922 C930 1.378 . S
C923 C922 1.367 . S
C923 C931 1.433 . S
C924 H920 0.929 . S
C924 C926 1.378 . S
C924 C928 1.350 . S
C925 C928 1.463 . S
C925 C930 1.350 . S
C925 N933 1.427 . S
C926 H917 0.930 . S
C926 C924 1.378 . S
C926 C927 1.367 . S
C927 C926 1.367 . S
C927 C929 1.433 . S
C928 C924 1.350 . S
C928 C925 1.463 . S
C928 N932 1.427 . S
C929 H919 0.929 . S
C929 C927 1.433 . S
C929 N932 1.384 . S
C930 H921 0.929 . S
C930 C922 1.378 . S
C930 C925 1.350 . S
C931 H918 0.929 . S
C931 C923 1.433 . S
C931 N933 1.384 . S
N932 C928 1.427 . S
N932 C929 1.384 . S
N933 C925 1.427 . S
N933 C931 1.384 . S
H934 C940 0.930 . S
H935 C944 0.930 . S
H936 C949 0.929 . S
H937 C947 0.929 . S
H938 C942 0.929 . S
H939 C948 0.929 . S
C940 H934 0.930 . S
C940 C941 1.367 . S
C940 C948 1.378 . S
C941 C940 1.367 . S
C941 C949 1.433 . S
C942 H938 0.929 . S
C942 C944 1.378 . S
C942 C946 1.350 . S
C943 C946 1.463 . S
C943 C948 1.350 . S
C943 N951 1.427 . S
C944 H935 0.930 . S
C944 C942 1.378 . S
C944 C945 1.367 . S
C945 C944 1.367 . S
C945 C947 1.433 . S
C946 C942 1.350 . S
C946 C943 1.463 . S
C946 N950 1.427 . S
C947 H937 0.929 . S
C947 C945 1.433 . S
C947 N950 1.384 . S
C948 H939 0.929 . S
C948 C940 1.378 . S
C948 C943 1.350 . S
C949 H936 0.929 . S
C949 C941 1.433 . S
C949 N951 1.384 . S
N950 C946 1.427 . S
N950 C947 1.384 . S
N951 C943 1.427 . S
N951 C949 1.384 . S
H952 C958 0.930 . S
H953 C962 0.930 . S
H954 C967 0.929 . S
H955 C965 0.929 . S
H956 C960 0.929 . S
H957 C966 0.929 . S
C958 H952 0.930 . S
C958 C959 1.367 . S
C958 C966 1.378 . S
C959 C958 1.367 . S
C959 C967 1.433 . S
C960 H956 0.929 . S
C960 C962 1.378 . S
C960 C964 1.350 . S
C961 C964 1.463 . S
C961 C966 1.350 . S
C961 N969 1.427 . S
C962 H953 0.930 . S
C962 C960 1.378 . S
C962 C963 1.367 . S
C963 C962 1.367 . S
C963 C965 1.433 . S
C964 C960 1.350 . S
C964 C961 1.463 . S
C964 N968 1.427 . S
C965 H955 0.929 . S
C965 C963 1.433 . S
C965 N968 1.384 . S
C966 H957 0.929 . S
C966 C958 1.378 . S
C966 C961 1.350 . S
C967 H954 0.929 . S
C967 C959 1.433 . S
C967 N969 1.384 . S
N968 C964 1.427 . S
N968 C965 1.384 . S
N969 C961 1.427 . S
N969 C967 1.384 . S
H970 C976 0.930 . S
H971 C980 0.930 . S
H972 C985 0.929 . S
H973 C983 0.929 . S
H974 C978 0.929 1_554 S
H975 C984 0.929 . S
C976 H970 0.930 . S
C976 C977 1.367 . S
C976 C984 1.378 . S
C977 C976 1.367 . S
C977 C985 1.433 . S
C978 H974 0.929 1_556 S
C978 C980 1.378 . S
C978 C982 1.350 1_556 S
C979 C982 1.463 . S
C979 C984 1.350 . S
C979 N987 1.427 . S
C980 H971 0.930 . S
C980 C978 1.378 . S
C980 C981 1.367 . S
C981 C980 1.367 . S
C981 C983 1.433 . S
C982 C978 1.350 1_554 S
C982 C979 1.463 . S
C982 N986 1.427 1_554 S
C983 H973 0.929 . S
C983 C981 1.433 . S
C983 N986 1.384 . S
C984 H975 0.929 . S
C984 C976 1.378 . S
C984 C979 1.350 . S
C985 H972 0.929 . S
C985 C977 1.433 . S
C985 N987 1.384 . S
N986 C982 1.427 1_556 S
N986 C983 1.384 . S
N987 C979 1.427 . S
N987 C985 1.384 . S
H988 C994 0.930 . S
H989 C998 0.930 . S
H990 C1003 0.929 . S
H991 C1001 0.929 . S
H992 C996 0.929 . S
H993 C1002 0.929 . S
C994 H988 0.930 . S
C994 C995 1.367 . S
C994 C1002 1.378 . S
C995 C994 1.367 . S
C995 C1003 1.433 . S
C996 H992 0.929 . S
C996 C998 1.378 . S
C996 C1000 1.350 . S
C997 C1000 1.463 . S
C997 C1002 1.350 . S
C997 N1005 1.427 . S
C998 H989 0.930 . S
C998 C996 1.378 . S
C998 C999 1.367 . S
C999 C998 1.367 . S
C999 C1001 1.433 . S
C1000 C996 1.350 . S
C1000 C997 1.463 . S
C1000 N1004 1.427 . S
C1001 H991 0.929 . S
C1001 C999 1.433 . S
C1001 N1004 1.384 . S
C1002 H993 0.929 . S
C1002 C994 1.378 . S
C1002 C997 1.350 . S
C1003 H990 0.929 . S
C1003 C995 1.433 . S
C1003 N1005 1.384 . S
N1004 C1000 1.427 . S
N1004 C1001 1.384 . S
N1005 C997 1.427 . S
N1005 C1003 1.384 . S
H1006 C1012 0.930 . S
H1007 C1016 0.930 . S
H1008 C1021 0.929 . S
H1009 C1019 0.929 . S
H1010 C1014 0.929 . S
H1011 C1020 0.929 . S
C1012 H1006 0.930 . S
C1012 C1013 1.367 . S
C1012 C1020 1.378 . S
C1013 C1012 1.367 . S
C1013 C1021 1.433 . S
C1014 H1010 0.929 . S
C1014 C1016 1.378 . S
C1014 C1018 1.350 . S
C1015 C1018 1.463 1_655 S
C1015 C1020 1.350 . S
C1015 N1023 1.427 . S
C1016 H1007 0.930 . S
C1016 C1014 1.378 . S
C1016 C1017 1.367 . S
C1017 C1016 1.367 . S
C1017 C1019 1.433 . S
C1018 C1014 1.350 . S
C1018 C1015 1.463 1_455 S
C1018 N1022 1.427 . S
C1019 H1009 0.929 . S
C1019 C1017 1.433 . S
C1019 N1022 1.384 . S
C1020 H1011 0.929 . S
C1020 C1012 1.378 . S
C1020 C1015 1.350 . S
C1021 H1008 0.929 . S
C1021 C1013 1.433 . S
C1021 N1023 1.384 . S
N1022 C1018 1.427 . S
N1022 C1019 1.384 . S
N1023 C1015 1.427 . S
N1023 C1021 1.384 . S
H1024 C1030 0.930 . S
H1025 C1034 0.930 . S
H1026 C1039 0.929 . S
H1027 C1037 0.929 . S
H1028 C1032 0.929 . S
H1029 C1038 0.929 . S
C1030 H1024 0.930 . S
C1030 C1031 1.367 . S
C1030 C1038 1.378 . S
C1031 C1030 1.367 . S
C1031 C1039 1.433 . S
C1032 H1028 0.929 . S
C1032 C1034 1.378 . S
C1032 C1036 1.350 . S
C1033 C1036 1.463 . S
C1033 C1038 1.350 . S
C1033 N1041 1.427 . S
C1034 H1025 0.930 . S
C1034 C1032 1.378 . S
C1034 C1035 1.367 . S
C1035 C1034 1.367 . S
C1035 C1037 1.433 . S
C1036 C1032 1.350 . S
C1036 C1033 1.463 . S
C1036 N1040 1.427 . S
C1037 H1027 0.929 . S
C1037 C1035 1.433 . S
C1037 N1040 1.384 . S
C1038 H1029 0.929 . S
C1038 C1030 1.378 . S
C1038 C1033 1.350 . S
C1039 H1026 0.929 . S
C1039 C1031 1.433 . S
C1039 N1041 1.384 . S
N1040 C1036 1.427 . S
N1040 C1037 1.384 . S
N1041 C1033 1.427 . S
N1041 C1039 1.384 . S
H1042 C1048 0.930 . S
H1043 C1052 0.930 . S
H1044 C1057 0.929 . S
H1045 C1055 0.929 . S
H1046 C1050 0.929 . S
H1047 C1056 0.929 . S
C1048 H1042 0.930 . S
C1048 C1049 1.367 . S
C1048 C1056 1.378 . S
C1049 C1048 1.367 . S
C1049 C1057 1.433 . S
C1050 H1046 0.929 . S
C1050 C1052 1.378 . S
C1050 C1054 1.350 . S
C1051 C1054 1.463 . S
C1051 C1056 1.350 . S
C1051 N1059 1.427 . S
C1052 H1043 0.930 . S
C1052 C1050 1.378 . S
C1052 C1053 1.367 . S
C1053 C1052 1.367 . S
C1053 C1055 1.433 . S
C1054 C1050 1.350 . S
C1054 C1051 1.463 . S
C1054 N1058 1.427 . S
C1055 H1045 0.929 . S
C1055 C1053 1.433 . S
C1055 N1058 1.384 . S
C1056 H1047 0.929 . S
C1056 C1048 1.378 . S
C1056 C1051 1.350 . S
C1057 H1044 0.929 . S
C1057 C1049 1.433 . S
C1057 N1059 1.384 . S
N1058 C1054 1.427 . S
N1058 C1055 1.384 . S
N1059 C1051 1.427 . S
N1059 C1057 1.384 . S
H1060 C1066 0.930 . S
H1061 C1070 0.930 . S
H1062 C1075 0.929 . S
H1063 C1073 0.929 . S
H1064 C1068 0.929 . S
H1065 C1074 0.929 . S
C1066 H1060 0.930 . S
C1066 C1067 1.367 . S
C1066 C1074 1.378 . S
C1067 C1066 1.367 . S
C1067 C1075 1.433 . S
C1068 H1064 0.929 . S
C1068 C1070 1.378 . S
C1068 C1072 1.350 . S
C1069 C1072 1.463 . S
C1069 C1074 1.350 . S
C1069 N1077 1.427 . S
C1070 H1061 0.930 . S
C1070 C1068 1.378 . S
C1070 C1071 1.367 . S
C1071 C1070 1.367 . S
C1071 C1073 1.433 . S
C1072 C1068 1.350 . S
C1072 C1069 1.463 . S
C1072 N1076 1.427 . S
C1073 H1063 0.929 . S
C1073 C1071 1.433 . S
C1073 N1076 1.384 . S
C1074 H1065 0.929 . S
C1074 C1066 1.378 . S
C1074 C1069 1.350 . S
C1075 H1062 0.929 . S
C1075 C1067 1.433 . S
C1075 N1077 1.384 . S
N1076 C1072 1.427 . S
N1076 C1073 1.384 . S
N1077 C1069 1.427 . S
N1077 C1075 1.384 . S
H1078 C1084 0.930 . S
H1079 C1088 0.930 . S
H1080 C1093 0.929 . S
H1081 C1091 0.929 . S
H1082 C1086 0.929 1_455 S
H1083 C1092 0.929 1_655 S
C1084 H1078 0.930 . S
C1084 C1085 1.367 . S
C1084 C1092 1.378 . S
C1085 C1084 1.367 . S
C1085 C1093 1.433 . S
C1086 H1082 0.929 1_655 S
C1086 C1088 1.378 . S
C1086 C1090 1.350 1_556 S
C1087 C1090 1.463 1_455 S
C1087 C1092 1.350 . S
C1087 N1095 1.427 . S
C1088 H1079 0.930 . S
C1088 C1086 1.378 . S
C1088 C1089 1.367 . S
C1089 C1088 1.367 . S
C1089 C1091 1.433 . S
C1090 C1086 1.350 1_554 S
C1090 C1087 1.463 1_655 S
C1090 N1094 1.427 . S
C1091 H1081 0.929 . S
C1091 C1089 1.433 . S
C1091 N1094 1.384 1_556 S
C1092 H1083 0.929 1_455 S
C1092 C1084 1.378 . S
C1092 C1087 1.350 . S
C1093 H1080 0.929 . S
C1093 C1085 1.433 . S
C1093 N1095 1.384 . S
N1094 C1090 1.427 . S
N1094 C1091 1.384 1_554 S
N1095 C1087 1.427 . S
N1095 C1093 1.384 . S
H1096 C1102 0.930 . S
H1097 C1106 0.930 . S
H1098 C1111 0.929 . S
H1099 C1109 0.929 . S
H1100 C1104 0.929 . S
H1101 C1110 0.929 . S
C1102 H1096 0.930 . S
C1102 C1103 1.367 . S
C1102 C1110 1.378 . S
C1103 C1102 1.367 . S
C1103 C1111 1.433 . S
C1104 H1100 0.929 . S
C1104 C1106 1.378 . S
C1104 C1108 1.350 . S
C1105 C1108 1.463 . S
C1105 C1110 1.350 . S
C1105 N1113 1.427 . S
C1106 H1097 0.930 . S
C1106 C1104 1.378 . S
C1106 C1107 1.367 . S
C1107 C1106 1.367 . S
C1107 C1109 1.433 . S
C1108 C1104 1.350 . S
C1108 C1105 1.463 . S
C1108 N1112 1.427 . S
C1109 H1099 0.929 . S
C1109 C1107 1.433 . S
C1109 N1112 1.384 . S
C1110 H1101 0.929 . S
C1110 C1102 1.378 . S
C1110 C1105 1.350 . S
C1111 H1098 0.929 . S
C1111 C1103 1.433 . S
C1111 N1113 1.384 . S
N1112 C1108 1.427 . S
N1112 C1109 1.384 . S
N1113 C1105 1.427 . S
N1113 C1111 1.384 . S
H1114 C1120 0.930 . S
H1115 C1124 0.930 . S
H1116 C1129 0.929 . S
H1117 C1127 0.929 . S
H1118 C1122 0.929 . S
H1119 C1128 0.929 . S
C1120 H1114 0.930 . S
C1120 C1121 1.367 . S
C1120 C1128 1.378 . S
C1121 C1120 1.367 . S
C1121 C1129 1.433 . S
C1122 H1118 0.929 . S
C1122 C1124 1.378 . S
C1122 C1126 1.350 . S
C1123 C1126 1.463 1_655 S
C1123 C1128 1.350 . S
C1123 N1131 1.427 . S
C1124 H1115 0.930 . S
C1124 C1122 1.378 . S
C1124 C1125 1.367 . S
C1125 C1124 1.367 . S
C1125 C1127 1.433 . S
C1126 C1122 1.350 . S
C1126 C1123 1.463 1_455 S
C1126 N1130 1.427 . S
C1127 H1117 0.929 . S
C1127 C1125 1.433 . S
C1127 N1130 1.384 . S
C1128 H1119 0.929 . S
C1128 C1120 1.378 . S
C1128 C1123 1.350 . S
C1129 H1116 0.929 . S
C1129 C1121 1.433 . S
C1129 N1131 1.384 . S
N1130 C1126 1.427 . S
N1130 C1127 1.384 . S
N1131 C1123 1.427 . S
N1131 C1129 1.384 . S
H1132 C1138 0.930 . S
H1133 C1142 0.930 . S
H1134 C1147 0.929 . S
H1135 C1145 0.929 . S
H1136 C1140 0.929 . S
H1137 C1146 0.929 . S
C1138 H1132 0.930 . S
C1138 C1139 1.367 . S
C1138 C1146 1.378 . S
C1139 C1138 1.367 . S
C1139 C1147 1.433 . S
C1140 H1136 0.929 . S
C1140 C1142 1.378 . S
C1140 C1144 1.350 . S
C1141 C1144 1.463 . S
C1141 C1146 1.350 . S
C1141 N1149 1.427 . S
C1142 H1133 0.930 . S
C1142 C1140 1.378 . S
C1142 C1143 1.367 . S
C1143 C1142 1.367 . S
C1143 C1145 1.433 . S
C1144 C1140 1.350 . S
C1144 C1141 1.463 . S
C1144 N1148 1.427 . S
C1145 H1135 0.929 . S
C1145 C1143 1.433 . S
C1145 N1148 1.384 . S
C1146 H1137 0.929 . S
C1146 C1138 1.378 . S
C1146 C1141 1.350 . S
C1147 H1134 0.929 . S
C1147 C1139 1.433 . S
C1147 N1149 1.384 . S
N1148 C1144 1.427 . S
N1148 C1145 1.384 . S
N1149 C1141 1.427 . S
N1149 C1147 1.384 . S
H1150 C1156 0.930 . S
H1151 C1160 0.930 . S
H1152 C1165 0.929 . S
H1153 C1163 0.929 . S
H1154 C1158 0.929 . S
H1155 C1164 0.929 1_556 S
C1156 H1150 0.930 . S
C1156 C1157 1.367 . S
C1156 C1164 1.378 . S
C1157 C1156 1.367 . S
C1157 C1165 1.433 . S
C1158 H1154 0.929 . S
C1158 C1160 1.378 . S
C1158 C1162 1.350 . S
C1159 C1162 1.463 . S
C1159 C1164 1.350 1_556 S
C1159 N1167 1.427 1_556 S
C1160 H1151 0.930 . S
C1160 C1158 1.378 . S
C1160 C1161 1.367 . S
C1161 C1160 1.367 . S
C1161 C1163 1.433 . S
C1162 C1158 1.350 . S
C1162 C1159 1.463 . S
C1162 N1166 1.427 . S
C1163 H1153 0.929 . S
C1163 C1161 1.433 . S
C1163 N1166 1.384 . S
C1164 H1155 0.929 1_554 S
C1164 C1156 1.378 . S
C1164 C1159 1.350 1_554 S
C1165 H1152 0.929 . S
C1165 C1157 1.433 . S
C1165 N1167 1.384 . S
N1166 C1162 1.427 . S
N1166 C1163 1.384 . S
N1167 C1159 1.427 1_554 S
N1167 C1165 1.384 . S
H1168 C1174 0.930 . S
H1169 C1178 0.930 . S
H1170 C1183 0.929 . S
H1171 C1181 0.929 . S
H1172 C1176 0.929 . S
H1173 C1182 0.929 . S
C1174 H1168 0.930 . S
C1174 C1175 1.367 . S
C1174 C1182 1.378 . S
C1175 C1174 1.367 . S
C1175 C1183 1.433 . S
C1176 H1172 0.929 . S
C1176 C1178 1.378 . S
C1176 C1180 1.350 . S
C1177 C1180 1.463 . S
C1177 C1182 1.350 . S
C1177 N1185 1.427 . S
C1178 H1169 0.930 . S
C1178 C1176 1.378 . S
C1178 C1179 1.367 . S
C1179 C1178 1.367 . S
C1179 C1181 1.433 . S
C1180 C1176 1.350 . S
C1180 C1177 1.463 . S
C1180 N1184 1.427 . S
C1181 H1171 0.929 . S
C1181 C1179 1.433 . S
C1181 N1184 1.384 . S
C1182 H1173 0.929 . S
C1182 C1174 1.378 . S
C1182 C1177 1.350 . S
C1183 H1170 0.929 . S
C1183 C1175 1.433 . S
C1183 N1185 1.384 . S
N1184 C1180 1.427 . S
N1184 C1181 1.384 . S
N1185 C1177 1.427 . S
N1185 C1183 1.384 . S
H1186 C1192 0.930 . S
H1187 C1196 0.930 . S
H1188 C1201 0.929 . S
H1189 C1199 0.929 . S
H1190 C1194 0.929 . S
H1191 C1200 0.929 . S
C1192 H1186 0.930 . S
C1192 C1193 1.367 . S
C1192 C1200 1.378 . S
C1193 C1192 1.367 . S
C1193 C1201 1.433 . S
C1194 H1190 0.929 . S
C1194 C1196 1.378 . S
C1194 C1198 1.350 . S
C1195 C1198 1.463 . S
C1195 C1200 1.350 . S
C1195 N1203 1.427 . S
C1196 H1187 0.930 . S
C1196 C1194 1.378 . S
C1196 C1197 1.367 . S
C1197 C1196 1.367 . S
C1197 C1199 1.433 . S
C1198 C1194 1.350 . S
C1198 C1195 1.463 . S
C1198 N1202 1.427 . S
C1199 H1189 0.929 . S
C1199 C1197 1.433 . S
C1199 N1202 1.384 . S
C1200 H1191 0.929 . S
C1200 C1192 1.378 . S
C1200 C1195 1.350 . S
C1201 H1188 0.929 . S
C1201 C1193 1.433 . S
C1201 N1203 1.384 . S
N1202 C1198 1.427 . S
N1202 C1199 1.384 . S
N1203 C1195 1.427 . S
N1203 C1201 1.384 . S
H1204 C1210 0.930 . S
H1205 C1214 0.930 . S
H1206 C1219 0.929 . S
H1207 C1217 0.929 . S
H1208 C1212 0.929 . S
H1209 C1218 0.929 . S
C1210 H1204 0.930 . S
C1210 C1211 1.367 . S
C1210 C1218 1.378 . S
C1211 C1210 1.367 . S
C1211 C1219 1.433 . S
C1212 H1208 0.929 . S
C1212 C1214 1.378 . S
C1212 C1216 1.350 . S
C1213 C1216 1.463 . S
C1213 C1218 1.350 . S
C1213 N1221 1.427 . S
C1214 H1205 0.930 . S
C1214 C1212 1.378 . S
C1214 C1215 1.367 . S
C1215 C1214 1.367 . S
C1215 C1217 1.433 . S
C1216 C1212 1.350 . S
C1216 C1213 1.463 . S
C1216 N1220 1.427 . S
C1217 H1207 0.929 . S
C1217 C1215 1.433 . S
C1217 N1220 1.384 . S
C1218 H1209 0.929 . S
C1218 C1210 1.378 . S
C1218 C1213 1.350 . S
C1219 H1206 0.929 . S
C1219 C1211 1.433 . S
C1219 N1221 1.384 . S
N1220 C1216 1.427 . S
N1220 C1217 1.384 . S
N1221 C1213 1.427 . S
N1221 C1219 1.384 . S
H1222 C1228 0.930 . S
H1223 C1232 0.930 . S
H1224 C1237 0.929 . S
H1225 C1235 0.929 . S
H1226 C1230 0.949 . S
H1227 C1236 0.939 . S
C1228 H1222 0.930 . S
C1228 C1229 1.367 . S
C1228 C1236 1.371 1_655 S
C1229 C1228 1.367 . S
C1229 C1237 1.433 . S
C1230 H1226 0.949 . S
C1230 C1232 1.364 1_655 S
C1230 C1234 1.343 1_654 S
C1231 C1234 1.463 1_655 S
C1231 C1236 1.346 1_655 S
C1231 N1239 1.427 . S
C1232 H1223 0.930 . S
C1232 C1230 1.364 1_455 S
C1232 C1233 1.367 . S
C1233 C1232 1.367 . S
C1233 C1235 1.433 . S
C1234 C1230 1.343 1_456 S
C1234 C1231 1.463 1_455 S
C1234 N1238 1.427 . S
C1235 H1225 0.929 . S
C1235 C1233 1.433 . S
C1235 N1238 1.384 1_554 S
C1236 H1227 0.939 . S
C1236 C1228 1.371 1_455 S
C1236 C1231 1.346 1_455 S
C1237 H1224 0.929 . S
C1237 C1229 1.433 . S
C1237 N1239 1.384 . S
N1238 C1234 1.427 . S
N1238 C1235 1.384 1_556 S
N1239 C1231 1.427 . S
N1239 C1237 1.384 . S
H1240 C1246 0.930 . S
H1241 C1250 0.930 . S
H1242 C1255 0.929 . S
H1243 C1253 0.929 . S
H1244 C1248 0.929 . S
H1245 C1254 0.929 . S
C1246 H1240 0.930 . S
C1246 C1247 1.367 . S
C1246 C1254 1.378 . S
C1247 C1246 1.367 . S
C1247 C1255 1.433 . S
C1248 H1244 0.929 . S
C1248 C1250 1.378 . S
C1248 C1252 1.350 . S
C1249 C1252 1.463 . S
C1249 C1254 1.350 . S
C1249 N1257 1.427 . S
C1250 H1241 0.930 . S
C1250 C1248 1.378 . S
C1250 C1251 1.367 . S
C1251 C1250 1.367 . S
C1251 C1253 1.433 . S
C1252 C1248 1.350 . S
C1252 C1249 1.463 . S
C1252 N1256 1.427 . S
C1253 H1243 0.929 . S
C1253 C1251 1.433 . S
C1253 N1256 1.384 . S
C1254 H1245 0.929 . S
C1254 C1246 1.378 . S
C1254 C1249 1.350 . S
C1255 H1242 0.929 . S
C1255 C1247 1.433 . S
C1255 N1257 1.384 . S
N1256 C1252 1.427 . S
N1256 C1253 1.384 . S
N1257 C1249 1.427 . S
N1257 C1255 1.384 . S
H1258 C1264 0.930 . S
H1259 C1268 0.930 . S
H1260 C1273 0.929 . S
H1261 C1271 0.929 . S
H1262 C1266 0.929 1_655 S
H1263 C1272 0.929 1_455 S
C1264 H1258 0.930 . S
C1264 C1265 1.367 . S
C1264 C1272 1.378 . S
C1265 C1264 1.367 . S
C1265 C1273 1.433 . S
C1266 H1262 0.929 1_455 S
C1266 C1268 1.378 . S
C1266 C1270 1.350 . S
C1267 C1270 1.463 1_655 S
C1267 C1272 1.350 . S
C1267 N1275 1.427 . S
C1268 H1259 0.930 . S
C1268 C1266 1.378 . S
C1268 C1269 1.367 . S
C1269 C1268 1.367 . S
C1269 C1271 1.433 . S
C1270 C1266 1.350 . S
C1270 C1267 1.463 1_455 S
C1270 N1274 1.427 . S
C1271 H1261 0.929 . S
C1271 C1269 1.433 . S
C1271 N1274 1.384 . S
C1272 H1263 0.929 1_655 S
C1272 C1264 1.378 . S
C1272 C1267 1.350 . S
C1273 H1260 0.929 . S
C1273 C1265 1.433 . S
C1273 N1275 1.384 . S
N1274 C1270 1.427 . S
N1274 C1271 1.384 . S
N1275 C1267 1.427 . S
N1275 C1273 1.384 . S
H1276 C1282 0.930 . S
H1277 C1286 0.930 . S
H1278 C1291 0.929 . S
H1279 C1289 0.929 . S
H1280 C1284 0.929 . S
H1281 C1290 0.929 . S
C1282 H1276 0.930 . S
C1282 C1283 1.367 . S
C1282 C1290 1.378 . S
C1283 C1282 1.367 . S
C1283 C1291 1.433 . S
C1284 H1280 0.929 . S
C1284 C1286 1.378 . S
C1284 C1288 1.350 . S
C1285 C1288 1.463 . S
C1285 C1290 1.350 . S
C1285 N1293 1.427 . S
C1286 H1277 0.930 . S
C1286 C1284 1.378 . S
C1286 C1287 1.367 . S
C1287 C1286 1.367 . S
C1287 C1289 1.433 . S
C1288 C1284 1.350 . S
C1288 C1285 1.463 . S
C1288 N1292 1.427 . S
C1289 H1279 0.929 . S
C1289 C1287 1.433 . S
C1289 N1292 1.384 . S
C1290 H1281 0.929 . S
C1290 C1282 1.378 . S
C1290 C1285 1.350 . S
C1291 H1278 0.929 . S
C1291 C1283 1.433 . S
C1291 N1293 1.384 . S
N1292 C1288 1.427 . S
N1292 C1289 1.384 . S
N1293 C1285 1.427 . S
N1293 C1291 1.384 . S
H1294 C1300 0.930 . S
H1295 C1304 0.930 . S
H1296 C1309 0.929 . S
H1297 C1307 0.929 . S
H1298 C1302 0.929 . S
H1299 C1308 0.929 . S
C1300 H1294 0.930 . S
C1300 C1301 1.367 . S
C1300 C1308 1.378 . S
C1301 C1300 1.367 . S
C1301 C1309 1.433 . S
C1302 H1298 0.929 . S
C1302 C1304 1.378 . S
C1302 C1306 1.350 1_556 S
C1303 C1306 1.463 . S
C1303 C1308 1.350 . S
C1303 N1311 1.427 . S
C1304 H1295 0.930 . S
C1304 C1302 1.378 . S
C1304 C1305 1.367 . S
C1305 C1304 1.367 . S
C1305 C1307 1.433 . S
C1306 C1302 1.350 1_554 S
C1306 C1303 1.463 . S
C1306 N1310 1.427 . S
C1307 H1297 0.929 . S
C1307 C1305 1.433 . S
C1307 N1310 1.384 1_556 S
C1308 H1299 0.929 . S
C1308 C1300 1.378 . S
C1308 C1303 1.350 . S
C1309 H1296 0.929 . S
C1309 C1301 1.433 . S
C1309 N1311 1.384 . S
N1310 C1306 1.427 . S
N1310 C1307 1.384 1_554 S
N1311 C1303 1.427 . S
N1311 C1309 1.384 . S
H1312 C1318 0.930 . S
H1313 C1322 0.930 . S
H1314 C1327 0.929 . S
H1315 C1325 0.929 . S
H1316 C1320 0.929 . S
H1317 C1326 0.929 . S
C1318 H1312 0.930 . S
C1318 C1319 1.367 . S
C1318 C1326 1.378 . S
C1319 C1318 1.367 . S
C1319 C1327 1.433 . S
C1320 H1316 0.929 . S
C1320 C1322 1.378 . S
C1320 C1324 1.350 . S
C1321 C1324 1.463 . S
C1321 C1326 1.350 . S
C1321 N1329 1.427 . S
C1322 H1313 0.930 . S
C1322 C1320 1.378 . S
C1322 C1323 1.367 . S
C1323 C1322 1.367 . S
C1323 C1325 1.433 . S
C1324 C1320 1.350 . S
C1324 C1321 1.463 . S
C1324 N1328 1.427 . S
C1325 H1315 0.929 . S
C1325 C1323 1.433 . S
C1325 N1328 1.384 . S
C1326 H1317 0.929 . S
C1326 C1318 1.378 . S
C1326 C1321 1.350 . S
C1327 H1314 0.929 . S
C1327 C1319 1.433 . S
C1327 N1329 1.384 . S
N1328 C1324 1.427 . S
N1328 C1325 1.384 . S
N1329 C1321 1.427 . S
N1329 C1327 1.384 . S
H1330 C1336 0.930 . S
H1331 C1340 0.930 . S
H1332 C1345 0.929 . S
H1333 C1343 0.929 . S
H1334 C1338 0.929 . S
H1335 C1344 0.929 . S
C1336 H1330 0.930 . S
C1336 C1337 1.367 . S
C1336 C1344 1.378 . S
C1337 C1336 1.367 . S
C1337 C1345 1.433 . S
C1338 H1334 0.929 . S
C1338 C1340 1.378 . S
C1338 C1342 1.350 . S
C1339 C1342 1.463 . S
C1339 C1344 1.350 . S
C1339 N1347 1.427 . S
C1340 H1331 0.930 . S
C1340 C1338 1.378 . S
C1340 C1341 1.367 . S
C1341 C1340 1.367 . S
C1341 C1343 1.433 . S
C1342 C1338 1.350 . S
C1342 C1339 1.463 . S
C1342 N1346 1.427 . S
C1343 H1333 0.929 . S
C1343 C1341 1.433 . S
C1343 N1346 1.384 . S
C1344 H1335 0.929 . S
C1344 C1336 1.378 . S
C1344 C1339 1.350 . S
C1345 H1332 0.929 . S
C1345 C1337 1.433 . S
C1345 N1347 1.384 . S
N1346 C1342 1.427 . S
N1346 C1343 1.384 . S
N1347 C1339 1.427 . S
N1347 C1345 1.384 . S
H1348 C1354 0.930 . S
H1349 C1358 0.930 . S
H1350 C1363 0.929 . S
H1351 C1361 0.929 . S
H1352 C1356 0.929 . S
H1353 C1362 0.929 . S
C1354 H1348 0.930 . S
C1354 C1355 1.367 . S
C1354 C1362 1.378 . S
C1355 C1354 1.367 . S
C1355 C1363 1.433 . S
C1356 H1352 0.929 . S
C1356 C1358 1.378 . S
C1356 C1360 1.350 . S
C1357 C1360 1.463 . S
C1357 C1362 1.350 . S
C1357 N1365 1.427 . S
C1358 H1349 0.930 . S
C1358 C1356 1.378 . S
C1358 C1359 1.367 . S
C1359 C1358 1.367 . S
C1359 C1361 1.433 . S
C1360 C1356 1.350 . S
C1360 C1357 1.463 . S
C1360 N1364 1.427 . S
C1361 H1351 0.929 . S
C1361 C1359 1.433 . S
C1361 N1364 1.384 . S
C1362 H1353 0.929 . S
C1362 C1354 1.378 . S
C1362 C1357 1.350 . S
C1363 H1350 0.929 . S
C1363 C1355 1.433 . S
C1363 N1365 1.384 . S
N1364 C1360 1.427 . S
N1364 C1361 1.384 . S
N1365 C1357 1.427 . S
N1365 C1363 1.384 . S
H1366 C1372 0.930 . S
H1367 C1376 0.930 . S
H1368 C1381 0.929 . S
H1369 C1379 0.929 . S
H1370 C1374 0.929 . S
H1371 C1380 0.929 . S
C1372 H1366 0.930 . S
C1372 C1373 1.367 . S
C1372 C1380 1.378 . S
C1373 C1372 1.367 . S
C1373 C1381 1.433 . S
C1374 H1370 0.929 . S
C1374 C1376 1.378 . S
C1374 C1378 1.350 . S
C1375 C1378 1.463 . S
C1375 C1380 1.350 . S
C1375 N1383 1.427 . S
C1376 H1367 0.930 . S
C1376 C1374 1.378 . S
C1376 C1377 1.367 . S
C1377 C1376 1.367 . S
C1377 C1379 1.433 . S
C1378 C1374 1.350 . S
C1378 C1375 1.463 . S
C1378 N1382 1.427 . S
C1379 H1369 0.929 . S
C1379 C1377 1.433 . S
C1379 N1382 1.384 . S
C1380 H1371 0.929 . S
C1380 C1372 1.378 . S
C1380 C1375 1.350 . S
C1381 H1368 0.929 . S
C1381 C1373 1.433 . S
C1381 N1383 1.384 . S
N1382 C1378 1.427 . S
N1382 C1379 1.384 . S
N1383 C1375 1.427 . S
N1383 C1381 1.384 . S
H1384 C1390 0.930 . S
H1385 C1394 0.930 . S
H1386 C1399 0.929 . S
H1387 C1397 0.929 . S
H1388 C1392 0.929 . S
H1389 C1398 0.929 . S
C1390 H1384 0.930 . S
C1390 C1391 1.367 . S
C1390 C1398 1.378 . S
C1391 C1390 1.367 . S
C1391 C1399 1.433 . S
C1392 H1388 0.929 . S
C1392 C1394 1.378 . S
C1392 C1396 1.350 . S
C1393 C1396 1.463 . S
C1393 C1398 1.350 . S
C1393 N1401 1.427 . S
C1394 H1385 0.930 . S
C1394 C1392 1.378 . S
C1394 C1395 1.367 . S
C1395 C1394 1.367 . S
C1395 C1397 1.433 . S
C1396 C1392 1.350 . S
C1396 C1393 1.463 . S
C1396 N1400 1.427 . S
C1397 H1387 0.929 . S
C1397 C1395 1.433 . S
C1397 N1400 1.384 . S
C1398 H1389 0.929 . S
C1398 C1390 1.378 . S
C1398 C1393 1.350 . S
C1399 H1386 0.929 . S
C1399 C1391 1.433 . S
C1399 N1401 1.384 . S
N1400 C1396 1.427 . S
N1400 C1397 1.384 . S
N1401 C1393 1.427 . S
N1401 C1399 1.384 . S
H1402 C1408 0.930 . S
H1403 C1412 0.930 . S
H1404 C1417 0.929 . S
H1405 C1415 0.929 . S
H1406 C1410 0.929 . S
H1407 C1416 0.929 . S
C1408 H1402 0.930 . S
C1408 C1409 1.367 . S
C1408 C1416 1.378 . S
C1409 C1408 1.367 . S
C1409 C1417 1.433 . S
C1410 H1406 0.929 . S
C1410 C1412 1.378 . S
C1410 C1414 1.350 . S
C1411 C1414 1.463 . S
C1411 C1416 1.350 . S
C1411 N1419 1.427 . S
C1412 H1403 0.930 . S
C1412 C1410 1.378 . S
C1412 C1413 1.367 . S
C1413 C1412 1.367 . S
C1413 C1415 1.433 . S
C1414 C1410 1.350 . S
C1414 C1411 1.463 . S
C1414 N1418 1.427 . S
C1415 H1405 0.929 . S
C1415 C1413 1.433 . S
C1415 N1418 1.384 . S
C1416 H1407 0.929 . S
C1416 C1408 1.378 . S
C1416 C1411 1.350 . S
C1417 H1404 0.929 . S
C1417 C1409 1.433 . S
C1417 N1419 1.384 . S
N1418 C1414 1.427 . S
N1418 C1415 1.384 . S
N1419 C1411 1.427 . S
N1419 C1417 1.384 . S
H1420 C1426 0.930 . S
H1421 C1430 0.930 . S
H1422 C1435 0.929 . S
H1423 C1433 0.929 . S
H1424 C1428 0.929 . S
H1425 C1434 0.929 . S
C1426 H1420 0.930 . S
C1426 C1427 1.367 . S
C1426 C1434 1.378 . S
C1427 C1426 1.367 . S
C1427 C1435 1.433 . S
C1428 H1424 0.929 . S
C1428 C1430 1.378 . S
C1428 C1432 1.350 . S
C1429 C1432 1.463 . S
C1429 C1434 1.350 . S
C1429 N1437 1.427 . S
C1430 H1421 0.930 . S
C1430 C1428 1.378 . S
C1430 C1431 1.367 . S
C1431 C1430 1.367 . S
C1431 C1433 1.433 . S
C1432 C1428 1.350 . S
C1432 C1429 1.463 . S
C1432 N1436 1.427 . S
C1433 H1423 0.929 . S
C1433 C1431 1.433 . S
C1433 N1436 1.384 . S
C1434 H1425 0.929 . S
C1434 C1426 1.378 . S
C1434 C1429 1.350 . S
C1435 H1422 0.929 . S
C1435 C1427 1.433 . S
C1435 N1437 1.384 . S
N1436 C1432 1.427 . S
N1436 C1433 1.384 . S
N1437 C1429 1.427 . S
N1437 C1435 1.384 . S
H1438 C1444 0.930 . S
H1439 C1448 0.930 . S
H1440 C1453 0.929 . S
H1441 C1451 0.929 . S
H1442 C1446 0.929 . S
H1443 C1452 0.929 . S
C1444 H1438 0.930 . S
C1444 C1445 1.367 . S
C1444 C1452 1.378 . S
C1445 C1444 1.367 . S
C1445 C1453 1.433 . S
C1446 H1442 0.929 . S
C1446 C1448 1.378 . S
C1446 C1450 1.350 . S
C1447 C1450 1.463 . S
C1447 C1452 1.350 . S
C1447 N1455 1.427 . S
C1448 H1439 0.930 . S
C1448 C1446 1.378 . S
C1448 C1449 1.367 . S
C1449 C1448 1.367 . S
C1449 C1451 1.433 . S
C1450 C1446 1.350 . S
C1450 C1447 1.463 . S
C1450 N1454 1.427 . S
C1451 H1441 0.929 . S
C1451 C1449 1.433 . S
C1451 N1454 1.384 . S
C1452 H1443 0.929 . S
C1452 C1444 1.378 . S
C1452 C1447 1.350 . S
C1453 H1440 0.929 . S
C1453 C1445 1.433 . S
C1453 N1455 1.384 . S
N1454 C1450 1.427 . S
N1454 C1451 1.384 . S
N1455 C1447 1.427 . S
N1455 C1453 1.384 . S
H1456 C1462 0.930 . S
H1457 C1466 0.930 . S
H1458 C1471 0.929 . S
H1459 C1469 0.929 . S
H1460 C1464 0.929 . S
H1461 C1470 0.929 . S
C1462 H1456 0.930 . S
C1462 C1463 1.367 . S
C1462 C1470 1.378 . S
C1463 C1462 1.367 . S
C1463 C1471 1.433 . S
C1464 H1460 0.929 . S
C1464 C1466 1.378 . S
C1464 C1468 1.350 . S
C1465 C1468 1.463 . S
C1465 C1470 1.350 . S
C1465 N1473 1.427 . S
C1466 H1457 0.930 . S
C1466 C1464 1.378 . S
C1466 C1467 1.367 . S
C1467 C1466 1.367 . S
C1467 C1469 1.433 . S
C1468 C1464 1.350 . S
C1468 C1465 1.463 . S
C1468 N1472 1.427 . S
C1469 H1459 0.929 . S
C1469 C1467 1.433 . S
C1469 N1472 1.384 . S
C1470 H1461 0.929 . S
C1470 C1462 1.378 . S
C1470 C1465 1.350 . S
C1471 H1458 0.929 . S
C1471 C1463 1.433 . S
C1471 N1473 1.384 . S
N1472 C1468 1.427 . S
N1472 C1469 1.384 . S
N1473 C1465 1.427 . S
N1473 C1471 1.384 . S
H1474 C1480 0.930 . S
H1475 C1484 0.930 . S
H1476 C1489 0.929 . S
H1477 C1487 0.929 . S
H1478 C1482 0.929 . S
H1479 C1488 0.929 . S
C1480 H1474 0.930 . S
C1480 C1481 1.367 . S
C1480 C1488 1.378 . S
C1481 C1480 1.367 . S
C1481 C1489 1.433 . S
C1482 H1478 0.929 . S
C1482 C1484 1.378 . S
C1482 C1486 1.350 . S
C1483 C1486 1.463 . S
C1483 C1488 1.350 . S
C1483 N1491 1.427 . S
C1484 H1475 0.930 . S
C1484 C1482 1.378 . S
C1484 C1485 1.367 . S
C1485 C1484 1.367 . S
C1485 C1487 1.433 . S
C1486 C1482 1.350 . S
C1486 C1483 1.463 . S
C1486 N1490 1.427 . S
C1487 H1477 0.929 . S
C1487 C1485 1.433 . S
C1487 N1490 1.384 . S
C1488 H1479 0.929 . S
C1488 C1480 1.378 . S
C1488 C1483 1.350 . S
C1489 H1476 0.929 . S
C1489 C1481 1.433 . S
C1489 N1491 1.384 . S
N1490 C1486 1.427 . S
N1490 C1487 1.384 . S
N1491 C1483 1.427 . S
N1491 C1489 1.384 . S
H1492 C1498 0.930 . S
H1493 C1502 0.930 . S
H1494 C1507 0.929 . S
H1495 C1505 0.929 . S
H1496 C1500 0.929 . S
H1497 C1506 0.929 . S
C1498 H1492 0.930 . S
C1498 C1499 1.367 . S
C1498 C1506 1.378 . S
C1499 C1498 1.367 . S
C1499 C1507 1.433 . S
C1500 H1496 0.929 . S
C1500 C1502 1.378 . S
C1500 C1504 1.350 . S
C1501 C1504 1.463 . S
C1501 C1506 1.350 . S
C1501 N1509 1.427 . S
C1502 H1493 0.930 . S
C1502 C1500 1.378 . S
C1502 C1503 1.367 . S
C1503 C1502 1.367 . S
C1503 C1505 1.433 . S
C1504 C1500 1.350 . S
C1504 C1501 1.463 . S
C1504 N1508 1.427 . S
C1505 H1495 0.929 . S
C1505 C1503 1.433 . S
C1505 N1508 1.384 . S
C1506 H1497 0.929 . S
C1506 C1498 1.378 . S
C1506 C1501 1.350 . S
C1507 H1494 0.929 . S
C1507 C1499 1.433 . S
C1507 N1509 1.384 . S
N1508 C1504 1.427 . S
N1508 C1505 1.384 . S
N1509 C1501 1.427 . S
N1509 C1507 1.384 . S
H1510 C1516 0.930 . S
H1511 C1520 0.930 . S
H1512 C1525 0.929 . S
H1513 C1523 0.929 . S
H1514 C1518 0.929 . S
H1515 C1524 0.929 . S
C1516 H1510 0.930 . S
C1516 C1517 1.367 . S
C1516 C1524 1.378 . S
C1517 C1516 1.367 . S
C1517 C1525 1.433 . S
C1518 H1514 0.929 . S
C1518 C1520 1.378 . S
C1518 C1522 1.350 . S
C1519 C1522 1.463 . S
C1519 C1524 1.350 . S
C1519 N1527 1.427 . S
C1520 H1511 0.930 . S
C1520 C1518 1.378 . S
C1520 C1521 1.367 . S
C1521 C1520 1.367 . S
C1521 C1523 1.433 . S
C1522 C1518 1.350 . S
C1522 C1519 1.463 . S
C1522 N1526 1.427 . S
C1523 H1513 0.929 . S
C1523 C1521 1.433 . S
C1523 N1526 1.384 . S
C1524 H1515 0.929 . S
C1524 C1516 1.378 . S
C1524 C1519 1.350 . S
C1525 H1512 0.929 . S
C1525 C1517 1.433 . S
C1525 N1527 1.384 . S
N1526 C1522 1.427 . S
N1526 C1523 1.384 . S
N1527 C1519 1.427 . S
N1527 C1525 1.384 . S
H1528 C1534 0.930 . S
H1529 C1538 0.930 . S
H1530 C1543 0.929 . S
H1531 C1541 0.929 . S
H1532 C1536 0.929 . S
H1533 C1542 0.929 . S
C1534 H1528 0.930 . S
C1534 C1535 1.367 . S
C1534 C1542 1.378 . S
C1535 C1534 1.367 . S
C1535 C1543 1.433 . S
C1536 H1532 0.929 . S
C1536 C1538 1.378 . S
C1536 C1540 1.350 . S
C1537 C1540 1.463 . S
C1537 C1542 1.350 . S
C1537 N1545 1.427 . S
C1538 H1529 0.930 . S
C1538 C1536 1.378 . S
C1538 C1539 1.367 . S
C1539 C1538 1.367 . S
C1539 C1541 1.433 . S
C1540 C1536 1.350 . S
C1540 C1537 1.463 . S
C1540 N1544 1.427 . S
C1541 H1531 0.929 . S
C1541 C1539 1.433 . S
C1541 N1544 1.384 . S
C1542 H1533 0.929 . S
C1542 C1534 1.378 . S
C1542 C1537 1.350 . S
C1543 H1530 0.929 . S
C1543 C1535 1.433 . S
C1543 N1545 1.384 . S
N1544 C1540 1.427 . S
N1544 C1541 1.384 . S
N1545 C1537 1.427 . S
N1545 C1543 1.384 . S
H1546 C1552 0.930 . S
H1547 C1556 0.930 . S
H1548 C1561 0.929 . S
H1549 C1559 0.929 . S
H1550 C1554 0.929 . S
H1551 C1560 0.929 . S
C1552 H1546 0.930 . S
C1552 C1553 1.367 . S
C1552 C1560 1.378 . S
C1553 C1552 1.367 . S
C1553 C1561 1.433 . S
C1554 H1550 0.929 . S
C1554 C1556 1.378 . S
C1554 C1558 1.350 . S
C1555 C1558 1.463 . S
C1555 C1560 1.350 . S
C1555 N1563 1.427 . S
C1556 H1547 0.930 . S
C1556 C1554 1.378 . S
C1556 C1557 1.367 . S
C1557 C1556 1.367 . S
C1557 C1559 1.433 . S
C1558 C1554 1.350 . S
C1558 C1555 1.463 . S
C1558 N1562 1.427 . S
C1559 H1549 0.929 . S
C1559 C1557 1.433 . S
C1559 N1562 1.384 . S
C1560 H1551 0.929 . S
C1560 C1552 1.378 . S
C1560 C1555 1.350 . S
C1561 H1548 0.929 . S
C1561 C1553 1.433 . S
C1561 N1563 1.384 . S
N1562 C1558 1.427 . S
N1562 C1559 1.384 . S
N1563 C1555 1.427 . S
N1563 C1561 1.384 . S
H1564 C1570 0.930 . S
H1565 C1574 0.930 . S
H1566 C1579 0.929 . S
H1567 C1577 0.929 . S
H1568 C1572 0.929 . S
H1569 C1578 0.929 . S
C1570 H1564 0.930 . S
C1570 C1571 1.367 . S
C1570 C1578 1.378 . S
C1571 C1570 1.367 . S
C1571 C1579 1.433 . S
C1572 H1568 0.929 . S
C1572 C1574 1.378 . S
C1572 C1576 1.350 . S
C1573 C1576 1.463 . S
C1573 C1578 1.350 . S
C1573 N1581 1.427 . S
C1574 H1565 0.930 . S
C1574 C1572 1.378 . S
C1574 C1575 1.367 . S
C1575 C1574 1.367 . S
C1575 C1577 1.433 . S
C1576 C1572 1.350 . S
C1576 C1573 1.463 . S
C1576 N1580 1.427 . S
C1577 H1567 0.929 . S
C1577 C1575 1.433 . S
C1577 N1580 1.384 . S
C1578 H1569 0.929 . S
C1578 C1570 1.378 . S
C1578 C1573 1.350 . S
C1579 H1566 0.929 . S
C1579 C1571 1.433 . S
C1579 N1581 1.384 . S
N1580 C1576 1.427 . S
N1580 C1577 1.384 . S
N1581 C1573 1.427 . S
N1581 C1579 1.384 . S
H1582 C1588 0.930 . S
H1583 C1592 0.930 . S
H1584 C1597 0.929 . S
H1585 C1595 0.929 . S
H1586 C1590 0.929 . S
H1587 C1596 0.929 . S
C1588 H1582 0.930 . S
C1588 C1589 1.367 . S
C1588 C1596 1.378 . S
C1589 C1588 1.367 . S
C1589 C1597 1.433 . S
C1590 H1586 0.929 . S
C1590 C1592 1.378 . S
C1590 C1594 1.350 . S
C1591 C1594 1.463 . S
C1591 C1596 1.350 . S
C1591 N1599 1.427 . S
C1592 H1583 0.930 . S
C1592 C1590 1.378 . S
C1592 C1593 1.367 . S
C1593 C1592 1.367 . S
C1593 C1595 1.433 . S
C1594 C1590 1.350 . S
C1594 C1591 1.463 . S
C1594 N1598 1.427 . S
C1595 H1585 0.929 . S
C1595 C1593 1.433 . S
C1595 N1598 1.384 . S
C1596 H1587 0.929 . S
C1596 C1588 1.378 . S
C1596 C1591 1.350 . S
C1597 H1584 0.929 . S
C1597 C1589 1.433 . S
C1597 N1599 1.384 . S
N1598 C1594 1.427 . S
N1598 C1595 1.384 . S
N1599 C1591 1.427 . S
N1599 C1597 1.384 . S
C455 C88 1.137 . S
C459 C4 1.134 . S
C473 C18 1.143 . S
C477 C102 1.141 . S
C491 C60 1.138 . S
C495 C32 1.141 . S
C509 C46 1.133 . S
C513 C74 1.133 . S
C527 C200 1.137 . S
C531 C116 1.141 . S
C545 C214 1.133 . S
C549 C130 1.133 . S
C563 C144 1.140 . S
C567 C172 1.137 . S
C581 C158 1.141 . S
C585 C186 1.143 . S
C599 C228 1.135 . S
C603 C312 1.133 . S
C617 C242 1.132 . S
C621 C326 1.134 . S
C635 C284 1.138 . S
C639 C256 1.135 . S
C653 C298 1.133 . S
C657 C270 1.135 . S
C671 C340 1.134 . S
C675 C424 1.133 . S
C689 C438 1.139 . S
C693 C354 1.135 . S
C707 C396 1.137 . S
C711 C368 1.141 . S
C725 C382 1.134 . S
C729 C410 1.133 . S
C743 C5 1.272 . S
C747 C432 1.413 . S
C761 C222 1.413 . S
C765 C19 1.261 . S
C779 C33 1.250 . S
C783 C404 1.415 . S
C797 C47 1.271 . S
C801 C194 1.413 . S
C815 C376 1.413 . S
C819 C61 1.266 . S
C833 C166 1.416 . S
C837 C75 1.259 . S
C851 C89 1.252 . S
C855 C348 1.415 . S
C869 C138 1.415 . S
C873 C103 1.250 . S
C887 C117 1.266 . S
C891 C320 1.413 . S
C905 C110 1.416 . S
C909 C131 1.260 . S
C923 C145 1.266 . S
C927 C292 1.413 . S
C941 C159 1.254 . S
C945 C82 1.414 . S
C959 C264 1.415 . S
C963 C173 1.251 . S
C977 C187 1.251 . S
C981 C54 1.416 . S
C995 C201 1.263 . S
C999 C236 1.416 . S
C1013 C26 1.416 . S
C1017 C215 1.253 . S
C1031 C229 1.252 . S
C1035 C208 1.414 . S
C1049 C243 1.270 . S
C1053 C446 1.413 . S
C1067 C180 1.414 . S
C1071 C257 1.255 . S
C1085 C271 1.250 . S
C1089 C418 1.415 . S
C1103 C152 1.415 . S
C1107 C285 1.276 . S
C1121 C390 1.416 . S
C1125 C299 1.251 . S
C1139 C124 1.416 . S
C1143 C313 1.260 . S
C1157 C362 1.414 . S
C1161 C327 1.276 . S
C1175 C341 1.271 . S
C1179 C96 1.416 . S
C1193 C334 1.413 . S
C1197 C355 1.268 . S
C1211 C68 1.416 . S
C1215 C369 1.250 . S
C1229 C383 1.263 . S
C1233 C306 1.413 . S
C1247 C397 1.263 . S
C1251 C40 1.416 . S
C1265 C411 1.251 . S
C1269 C278 1.415 . S
C1283 C12 1.415 . S
C1287 C425 1.276 . S
C1301 C439 1.271 . S
C1305 C250 1.413 . S
C1319 C11 1.192 . S
C1323 C305 1.191 . S
C1337 C319 1.193 . S
C1341 C25 1.194 . S
C1355 C39 1.181 . S
C1359 C333 1.181 . S
C1373 C291 1.198 . S
C1377 C53 1.198 . S
C1391 C277 1.181 . S
C1395 C67 1.181 . S
C1409 C235 1.184 . S
C1413 C81 1.185 . S
C1427 C249 1.181 . S
C1431 C95 1.181 . S
C1445 C263 1.180 . S
C1449 C109 1.180 . S
C1463 C123 1.192 . S
C1467 C417 1.193 . S
C1481 C431 1.195 . S
C1485 C137 1.196 . S
C1499 C445 1.195 . S
C1503 C151 1.196 . S
C1517 C403 1.197 . S
C1521 C165 1.198 . S
C1535 C389 1.194 . S
C1539 C179 1.195 . S
C1553 C347 1.180 . S
C1557 C193 1.180 . S
C1571 C207 1.182 . S
C1575 C361 1.182 . S
C1589 C221 1.180 . S
C1593 C375 1.180 . S
