# Generated by pormake.
# Topology bcs, (6)-cn, num edge types: 1
# Building blocks:
#     Node 0, Type 0, BuildingBlock: MIFKUJ_clean_sbu_0, # of connection points: 6
#     Node 1, Type 0, BuildingBlock: MIFKUJ_clean_sbu_0, # of connection points: 6
#     Node 2, Type 0, BuildingBlock: MIFKUJ_clean_sbu_0, # of connection points: 6
#     Node 3, Type 0, BuildingBlock: MIFKUJ_clean_sbu_0, # of connection points: 6
#     Node 4, Type 0, BuildingBlock: MIFKUJ_clean_sbu_0, # of connection points: 6
#     Node 5, Type 0, BuildingBlock: MIFKUJ_clean_sbu_0, # of connection points: 6
#     Node 6, Type 0, BuildingBlock: MIFKUJ_clean_sbu_0, # of connection points: 6
#     Node 7, Type 0, BuildingBlock: MIFKUJ_clean_sbu_0, # of connection points: 6
#     Node 8, Type 0, BuildingBlock: MIFKUJ_clean_sbu_0, # of connection points: 6
#     Node 9, Type 0, BuildingBlock: MIFKUJ_clean_sbu_0, # of connection points: 6
#     Node 10, Type 0, BuildingBlock: MIFKUJ_clean_sbu_0, # of connection points: 6
#     Node 11, Type 0, BuildingBlock: MIFKUJ_clean_sbu_0, # of connection points: 6
#     Node 12, Type 0, BuildingBlock: MIFKUJ_clean_sbu_0, # of connection points: 6
#     Node 13, Type 0, BuildingBlock: MIFKUJ_clean_sbu_0, # of connection points: 6
#     Node 14, Type 0, BuildingBlock: MIFKUJ_clean_sbu_0, # of connection points: 6
#     Node 15, Type 0, BuildingBlock: MIFKUJ_clean_sbu_0, # of connection points: 6
#     Edge 16, Type (0, 0), BuildingBlock: AJUNOK_clean_linker_0, # of connection points: 2
#     Edge 17, Type (0, 0), BuildingBlock: AJUNOK_clean_linker_0, # of connection points: 2
#     Edge 18, Type (0, 0), BuildingBlock: AJUNOK_clean_linker_0, # of connection points: 2
#     Edge 19, Type (0, 0), BuildingBlock: AJUNOK_clean_linker_0, # of connection points: 2
#     Edge 20, Type (0, 0), BuildingBlock: AJUNOK_clean_linker_0, # of connection points: 2
#     Edge 21, Type (0, 0), BuildingBlock: AJUNOK_clean_linker_0, # of connection points: 2
#     Edge 22, Type (0, 0), BuildingBlock: AJUNOK_clean_linker_0, # of connection points: 2
#     Edge 23, Type (0, 0), BuildingBlock: AJUNOK_clean_linker_0, # of connection points: 2
#     Edge 24, Type (0, 0), BuildingBlock: AJUNOK_clean_linker_0, # of connection points: 2
#     Edge 25, Type (0, 0), BuildingBlock: AJUNOK_clean_linker_0, # of connection points: 2
#     Edge 26, Type (0, 0), BuildingBlock: AJUNOK_clean_linker_0, # of connection points: 2
#     Edge 27, Type (0, 0), BuildingBlock: AJUNOK_clean_linker_0, # of connection points: 2
#     Edge 28, Type (0, 0), BuildingBlock: AJUNOK_clean_linker_0, # of connection points: 2
#     Edge 29, Type (0, 0), BuildingBlock: AJUNOK_clean_linker_0, # of connection points: 2
#     Edge 30, Type (0, 0), BuildingBlock: AJUNOK_clean_linker_0, # of connection points: 2
#     Edge 31, Type (0, 0), BuildingBlock: AJUNOK_clean_linker_0, # of connection points: 2
#     Edge 32, Type (0, 0), BuildingBlock: AJUNOK_clean_linker_0, # of connection points: 2
#     Edge 33, Type (0, 0), BuildingBlock: AJUNOK_clean_linker_0, # of connection points: 2
#     Edge 34, Type (0, 0), BuildingBlock: AJUNOK_clean_linker_0, # of connection points: 2
#     Edge 35, Type (0, 0), BuildingBlock: AJUNOK_clean_linker_0, # of connection points: 2
#     Edge 36, Type (0, 0), BuildingBlock: AJUNOK_clean_linker_0, # of connection points: 2
#     Edge 37, Type (0, 0), BuildingBlock: AJUNOK_clean_linker_0, # of connection points: 2
#     Edge 38, Type (0, 0), BuildingBlock: AJUNOK_clean_linker_0, # of connection points: 2
#     Edge 39, Type (0, 0), BuildingBlock: AJUNOK_clean_linker_0, # of connection points: 2
#     Edge 40, Type (0, 0), BuildingBlock: AJUNOK_clean_linker_0, # of connection points: 2
#     Edge 41, Type (0, 0), BuildingBlock: AJUNOK_clean_linker_0, # of connection points: 2
#     Edge 42, Type (0, 0), BuildingBlock: AJUNOK_clean_linker_0, # of connection points: 2
#     Edge 43, Type (0, 0), BuildingBlock: AJUNOK_clean_linker_0, # of connection points: 2
#     Edge 44, Type (0, 0), BuildingBlock: AJUNOK_clean_linker_0, # of connection points: 2
#     Edge 45, Type (0, 0), BuildingBlock: AJUNOK_clean_linker_0, # of connection points: 2
#     Edge 46, Type (0, 0), BuildingBlock: AJUNOK_clean_linker_0, # of connection points: 2
#     Edge 47, Type (0, 0), BuildingBlock: AJUNOK_clean_linker_0, # of connection points: 2
#     Edge 48, Type (0, 0), BuildingBlock: AJUNOK_clean_linker_0, # of connection points: 2
#     Edge 49, Type (0, 0), BuildingBlock: AJUNOK_clean_linker_0, # of connection points: 2
#     Edge 50, Type (0, 0), BuildingBlock: AJUNOK_clean_linker_0, # of connection points: 2
#     Edge 51, Type (0, 0), BuildingBlock: AJUNOK_clean_linker_0, # of connection points: 2
#     Edge 52, Type (0, 0), BuildingBlock: AJUNOK_clean_linker_0, # of connection points: 2
#     Edge 53, Type (0, 0), BuildingBlock: AJUNOK_clean_linker_0, # of connection points: 2
#     Edge 54, Type (0, 0), BuildingBlock: AJUNOK_clean_linker_0, # of connection points: 2
#     Edge 55, Type (0, 0), BuildingBlock: AJUNOK_clean_linker_0, # of connection points: 2
#     Edge 56, Type (0, 0), BuildingBlock: AJUNOK_clean_linker_0, # of connection points: 2
#     Edge 57, Type (0, 0), BuildingBlock: AJUNOK_clean_linker_0, # of connection points: 2
#     Edge 58, Type (0, 0), BuildingBlock: AJUNOK_clean_linker_0, # of connection points: 2
#     Edge 59, Type (0, 0), BuildingBlock: AJUNOK_clean_linker_0, # of connection points: 2
#     Edge 60, Type (0, 0), BuildingBlock: AJUNOK_clean_linker_0, # of connection points: 2
#     Edge 61, Type (0, 0), BuildingBlock: AJUNOK_clean_linker_0, # of connection points: 2
#     Edge 62, Type (0, 0), BuildingBlock: AJUNOK_clean_linker_0, # of connection points: 2
#     Edge 63, Type (0, 0), BuildingBlock: AJUNOK_clean_linker_0, # of connection points: 2
# Relax obj value: 0.093
# Max RMSD: 0.234
# Mean RMSD: 0.140
data_MOF--net-bcs--node1-MIFKUJ_clean_sbu_0--edge1-AJUNOK_clean_linker_0
_symmetry_space_group_name_H-M    P1
_symmetry_Int_Tables_number       1
_symmetry_cell_setting            triclinic
loop_
_symmetry_equiv_pos_as_xyz
'x, y, z'
_cell_length_a     28.462536
_cell_length_b     31.329575
_cell_length_c     27.723602
_cell_angle_alpha  97.053403
_cell_angle_beta   99.146533
_cell_angle_gamma 104.96106
loop_
_atom_site_label
_atom_site_type_symbol
_atom_site_fract_x
_atom_site_fract_y
_atom_site_fract_z
_atom_type_partial_charge
Zn0 Zn 0.95189 0.0001 0.97044 0.0
Zn1 Zn 0.05677 0.95895 0.01465 0.0
C2 C 0.89967 0.02726 0.03687 0.0
O3 O 0.86919 -0.00958 0.00922 0.0
C4 C 0.07615 0.92404 0.92346 0.0
O5 O 0.11012 0.96295 0.93495 0.0
O6 O 0.89854 0.0097 0.91829 0.0
O7 O 0.01763 0.02848 0.95313 0.0
O8 O 0.08638 0.0223 -0.00139 0.0
C9 C 0.90862 0.04117 0.8933 0.0
O10 O 0.95514 0.06321 0.89592 0.0
O11 O 0.94408 0.03912 0.03037 0.0
C12 C 0.10305 0.9184 0.09501 0.0
O13 O 0.06356 0.91736 0.11424 0.0
O14 O 0.109 0.93827 0.05793 0.0
O15 O 0.99505 0.94551 0.04499 0.0
O16 O 0.93274 0.9355 0.98196 0.0
O17 O 0.04504 0.91405 0.95141 0.0
C18 C 0.06466 0.03942 0.96538 0.0
C19 C 0.95221 0.9231 0.02037 0.0
Zn20 Zn 0.283 0.75351 0.19753 0.0
Zn21 Zn 0.2353 0.70514 0.26906 0.0
C22 C 0.21395 0.79176 0.1486 0.0
O23 O 0.22539 0.76701 0.113 0.0
C24 C 0.2975 0.6581 0.31353 0.0
O25 O 0.2887 0.68061 0.35257 0.0
O26 O 0.32742 0.78466 0.15738 0.0
O27 O 0.3301 0.76362 0.26258 0.0
O28 O 0.27177 0.76685 0.30377 0.0
C29 C 0.33856 0.82673 0.17156 0.0
O30 O 0.32317 0.84282 0.2102 0.0
O31 O 0.23051 0.78902 0.19341 0.0
C32 C 0.16004 0.64365 0.29702 0.0
O33 O 0.15833 0.62195 0.25288 0.0
O34 O 0.19041 0.68204 0.31259 0.0
O35 O 0.19164 0.69537 0.20205 0.0
O36 O 0.25144 0.69052 0.16303 0.0
O37 O 0.28075 0.66448 0.27049 0.0
C38 C 0.31699 0.77902 0.30088 0.0
C39 C 0.20598 0.67801 0.16535 0.0
Zn40 Zn 0.5335 0.95811 0.46372 0.0
Zn41 Zn 0.45778 0.00719 0.51681 0.0
C42 C 0.55865 0.91142 0.54015 0.0
O43 O 0.59859 0.94557 0.54802 0.0
C44 C 0.40855 0.04324 0.44781 0.0
O45 O 0.37567 0.01199 0.46188 0.0
O46 O 0.57006 0.93591 0.4143 0.0
O47 O 0.47051 0.96434 0.42781 0.0
O48 O 0.42546 0.94443 0.48206 0.0
C49 C 0.55427 0.89414 0.397 0.0
O50 O 0.51461 0.87022 0.40998 0.0
O51 O 0.52209 0.90946 0.50627 0.0
C52 C 0.42468 0.06414 0.57978 0.0
O53 O 0.46233 0.09281 0.56878 0.0
O54 O 0.41495 0.02277 0.56249 0.0
O55 O 0.52535 0.01862 0.55838 0.0
O56 O 0.57517 0.01604 0.50511 0.0
O57 O 0.4541 0.04955 0.46665 0.0
C58 C 0.43403 0.93741 0.4388 0.0
C59 C 0.56727 0.03204 0.54646 0.0
Zn60 Zn 0.19187 0.2393 0.79851 0.0
Zn61 Zn 0.27881 0.24312 0.6823 0.0
C62 C 0.14263 0.17341 0.84885 0.0
O63 O 0.10659 0.17888 0.81644 0.0
C64 C 0.33931 0.30149 0.63353 0.0
O65 O 0.36998 0.28962 0.66637 0.0
O66 O 0.16803 0.29225 0.81911 0.0
O67 O 0.25763 0.25918 0.78153 0.0
O68 O 0.3219 0.27742 0.74826 0.0
C69 C 0.18035 0.31145 0.86409 0.0
O70 O 0.21072 0.29772 0.89531 0.0
O71 O 0.18675 0.19727 0.85064 0.0
C72 C 0.28996 0.15931 0.63495 0.0
O73 O 0.24711 0.15452 0.6059 0.0
O74 O 0.30886 0.19398 0.66792 0.0
O75 O 0.20492 0.2124 0.68513 0.0
O76 O 0.14889 0.20439 0.7332 0.0
O77 O 0.29277 0.28469 0.63051 0.0
C78 C 0.30309 0.2793 0.7865 0.0
C79 C 0.1605 0.19567 0.69115 0.0
Zn80 Zn 0.00222 0.03175 0.43335 0.0
Zn81 Zn -0.00069 0.93676 0.53548 0.0
C82 C 0.9269 0.062 0.38497 0.0
O83 O 0.92979 0.03031 0.35079 0.0
C84 C 0.07829 0.90729 0.58119 0.0
O85 O 0.07956 0.94085 0.6153 0.0
O86 O 0.05606 0.05745 0.39663 0.0
O87 O 0.02678 0.03218 0.50583 0.0
O88 O 0.03547 0.0001 0.57142 0.0
C89 C 0.08428 0.09739 0.40878 0.0
O90 O 0.08121 0.12308 0.4486 0.0
O91 O 0.95543 0.0697 0.42711 0.0
C92 C 0.9128 0.87252 0.55667 0.0
O93 O 0.90948 0.85018 0.5124 0.0
O94 O 0.9461 0.90969 0.57219 0.0
O95 O 0.97247 0.93646 0.46343 0.0
O96 O 0.9639 0.96874 0.3979 0.0
O97 O 0.04688 0.89917 0.54078 0.0
C98 C 0.04335 0.03528 0.55183 0.0
C99 C 0.95445 0.93386 0.41784 0.0
Zn100 Zn 0.2947 0.70696 0.71866 0.0
Zn101 Zn 0.1986 0.75359 0.75338 0.0
C102 C 0.3437 0.67405 0.79379 0.0
O103 O 0.37932 0.7044 0.78187 0.0
C104 C 0.16408 0.77554 0.6561 0.0
O105 O 0.13326 0.73495 0.64668 0.0
O106 O 0.33859 0.69087 0.67206 0.0
O107 O 0.22613 0.69222 0.67903 0.0
O108 O 0.17572 0.68643 0.73127 0.0
C109 C 0.33493 0.64945 0.65952 0.0
O110 O 0.30196 0.61972 0.67554 0.0
O111 O 0.29934 0.66791 0.77115 0.0
C112 C 0.15544 0.81565 0.79676 0.0
O113 O 0.19152 0.84102 0.77997 0.0
O114 O 0.15042 0.77366 0.79203 0.0
O115 O 0.26566 0.78039 0.79698 0.0
O116 O 0.3231 0.77081 0.75356 0.0
O117 O 0.19682 0.78732 0.69581 0.0
C118 C 0.19053 0.66869 0.69509 0.0
C119 C 0.30938 0.79182 0.7885 0.0
Zn120 Zn 0.47336 0.01108 0.00767 0.0
Zn121 Zn 0.54819 0.95718 0.97687 0.0
C122 C 0.40977 0.94698 0.04312 0.0
O123 O 0.37861 0.95945 0.01142 0.0
C124 C 0.58067 0.0362 0.93546 0.0
O125 O 0.62069 0.04342 0.96977 0.0
O126 O 0.4305 0.05234 0.02461 0.0
O127 O 0.54511 0.04484 0.03665 0.0
O128 O 0.58138 -0.00933 0.04611 0.0
C129 C 0.43449 0.06153 0.07145 0.0
O130 O 0.46748 0.04846 0.10015 0.0
O131 O 0.45596 0.96543 0.04937 0.0
C132 C 0.59822 0.91671 0.90691 0.0
O133 O 0.59251 0.94999 0.88433 0.0
O134 O 0.5841 0.91359 0.94814 0.0
O135 O 0.4786 0.92163 0.96963 0.0
O136 O 0.44929 0.97305 0.93858 0.0
O137 O 0.54522 0.00133 0.93174 0.0
C138 C 0.57814 0.02993 0.05988 0.0
C139 C 0.44835 0.93194 0.93744 0.0
Zn140 Zn 0.2109 0.25991 0.23408 0.0
Zn141 Zn 0.31102 0.21124 0.26107 0.0
C142 C 0.18105 0.2914 0.3235 0.0
O143 O 0.14964 0.25114 0.31356 0.0
C144 C 0.34465 0.17064 0.18578 0.0
O145 O 0.38384 0.19775 0.21642 0.0
O146 O 0.15381 0.27288 0.19219 0.0
O147 O 0.27188 0.28447 0.20526 0.0
O148 O 0.34008 0.27325 0.24644 0.0
C149 C 0.15619 0.28401 0.15007 0.0
O150 O 0.19402 0.28061 0.1298 0.0
O151 O 0.21474 0.30081 0.29811 0.0
C152 C 0.33838 0.14936 0.3086 0.0
O153 O 0.29687 0.13 0.27634 0.0
O154 O 0.35927 0.19072 0.30931 0.0
O155 O 0.25325 0.1994 0.29684 0.0
O156 O 0.18823 0.19481 0.24026 0.0
O157 O 0.30203 0.16865 0.19572 0.0
C158 C 0.31883 0.2918 0.21448 0.0
C159 C 0.20702 0.18397 0.2798 0.0
Zn160 Zn 0.50002 0.52021 0.9239 0.0
Zn161 Zn 0.48442 0.45031 0.03736 0.0
C162 C 0.41349 0.55274 0.90828 0.0
O163 O 0.39022 0.50988 0.89464 0.0
C164 C 0.56957 0.42497 0.08483 0.0
O165 O 0.5795 0.4637 0.11432 0.0
O166 O 0.54265 0.54261 0.87491 0.0
O167 O 0.54729 0.52259 -0.01107 0.0
O168 O 0.51898 0.51615 0.05771 0.0
C169 C 0.57176 0.58209 0.8894 0.0
O170 O 0.57288 0.60301 0.93384 0.0
O171 O 0.45946 0.56439 0.92806 0.0
C172 C 0.41977 0.38549 0.07499 0.0
O173 O 0.43397 0.36096 0.04139 0.0
O174 O 0.43406 0.42798 0.07922 0.0
O175 O 0.45303 0.43433 0.96623 0.0
O176 O 0.45297 0.45862 0.89499 0.0
O177 O 0.53314 0.41434 0.04846 0.0
C178 C 0.54387 0.54027 0.0316 0.0
C179 C 0.43644 0.4289 0.92018 0.0
Zn180 Zn 0.79109 0.20788 0.21509 0.0
Zn181 Zn 0.69507 0.26799 0.25693 0.0
C182 C 0.82554 0.18441 0.31056 0.0
O183 O 0.85068 0.22694 0.32301 0.0
C184 C 0.65321 0.29368 0.16717 0.0
O185 O 0.62693 0.25142 0.15817 0.0
O186 O 0.82024 0.17963 0.16175 0.0
O187 O 0.72258 0.21173 0.19368 0.0
O188 O 0.65814 0.20268 0.22756 0.0
C189 C 0.80932 0.13703 0.15564 0.0
O190 O 0.77714 0.11536 0.17961 0.0
O191 O 0.79513 0.17109 0.26929 0.0
C192 C 0.62427 0.29834 0.30517 0.0
O193 O 0.59813 0.28684 0.2597 0.0
O194 O 0.66648 0.29093 0.3138 0.0
O195 O 0.76821 0.27229 0.28138 0.0
O196 O 0.82824 0.27192 0.24119 0.0
O197 O 0.68714 0.30768 0.20596 0.0
C198 C 0.68389 0.18542 0.20187 0.0
C199 C 0.8067 0.29408 0.26745 0.0
Zn200 Zn 0.95427 0.51427 0.50271 0.0
Zn201 Zn 0.04127 0.46293 0.47088 0.0
C202 C 0.92115 0.43469 0.54573 0.0
O203 O 0.89793 0.41404 0.50088 0.0
C204 C 0.05147 0.53905 0.4195 0.0
O205 O 0.00302 0.52913 0.41234 0.0
O206 O 0.91593 0.55913 0.51797 0.0
O207 O 0.02779 0.54437 0.5227 0.0
O208 O 0.0478 0.48459 0.54349 0.0
C209 C 0.91313 0.56852 0.56321 0.0
O210 O 0.93869 0.55322 0.59717 0.0
O211 O 0.94508 0.47556 0.55312 0.0
C212 C 0.08894 0.41686 0.41276 0.0
O213 O 0.06668 0.43789 0.38242 0.0
O214 O 0.08269 0.42038 0.45744 0.0
O215 O 0.97449 0.43442 0.42708 0.0
O216 O 0.92218 0.4753 0.43513 0.0
O217 O 0.0742 0.51638 0.44409 0.0
C218 C 0.05122 0.52612 0.55328 0.0
C219 C 0.93349 0.44254 0.4127 0.0
Zn220 Zn 0.70882 0.71887 0.28432 0.0
Zn221 Zn 0.80311 0.72654 0.17454 0.0
C222 C 0.65428 0.64913 0.32853 0.0
O223 O 0.62282 0.64683 0.28747 0.0
C224 C 0.86014 0.77871 0.11765 0.0
O225 O 0.89164 0.7625 0.14433 0.0
O226 O 0.66944 0.7609 0.30032 0.0
O227 O 0.7822 0.75721 0.29156 0.0
O228 O 0.83623 0.76438 0.24099 0.0
C229 C 0.68338 0.80324 0.31268 0.0
O230 O 0.72995 0.82525 0.31502 0.0
O231 O 0.69726 0.67724 0.33642 0.0
C232 C 0.82547 0.65238 0.11961 0.0
O233 O 0.7882 0.65416 0.08596 0.0
O234 O 0.83685 0.67876 0.16097 0.0
O235 O 0.73271 0.69736 0.17547 0.0
O236 O 0.67183 0.68357 0.21585 0.0
O237 O 0.81511 0.768 0.12298 0.0
C238 C 0.82539 0.77463 0.28293 0.0
C239 C 0.68778 0.67869 0.17594 0.0
Zn240 Zn 0.77515 0.27536 0.68932 0.0
Zn241 Zn 0.71958 0.18855 0.77529 0.0
C242 C 0.71968 0.32332 0.64228 0.0
O243 O 0.73455 0.30163 0.6068 0.0
C244 C 0.7718 0.14343 0.83667 0.0
O245 O 0.7599 0.17023 0.86992 0.0
O246 O 0.83591 0.29986 0.66676 0.0
O247 O 0.79375 0.25907 0.75677 0.0
O248 O 0.75542 0.24807 0.81784 0.0
C249 C 0.87066 0.33251 0.69223 0.0
O250 O 0.86813 0.34784 0.73773 0.0
O251 O 0.73468 0.31994 0.68702 0.0
C252 C 0.62913 0.12939 0.78144 0.0
O253 O 0.64324 0.10176 0.75108 0.0
O254 O 0.653 0.17051 0.79065 0.0
O255 O 0.72094 0.19845 0.70699 0.0
O256 O 0.7344 0.22042 0.6386 0.0
O257 O 0.75717 0.14404 0.79112 0.0
C258 C 0.78334 0.2749 0.79669 0.0
C259 C 0.71146 0.19099 0.66038 0.0
Zn260 Zn 0.68283 0.74477 0.69803 0.0
Zn261 Zn 0.78569 0.7197 0.74156 0.0
C262 C 0.65268 0.78002 0.78511 0.0
O263 O 0.61757 0.74188 0.77089 0.0
C264 C 0.81969 0.68563 0.66024 0.0
O265 O 0.85325 0.72426 0.67766 0.0
O266 O 0.62634 0.75424 0.65009 0.0
O267 O 0.742 0.76494 0.66444 0.0
O268 O 0.80519 0.78209 0.72719 0.0
C269 C 0.63372 0.79604 0.65007 0.0
O270 O 0.67394 0.82429 0.67812 0.0
O271 O 0.68766 0.78874 0.76104 0.0
C272 C 0.82699 0.66974 0.7981 0.0
O273 O 0.78296 0.64358 0.77573 0.0
O274 O 0.84102 0.7094 0.78922 0.0
O275 O 0.72843 0.7034 0.77619 0.0
O276 O 0.66339 0.68203 0.71527 0.0
O277 O 0.78172 0.67537 0.67999 0.0
C278 C 0.78684 0.78646 0.68393 0.0
C279 C 0.68415 0.67985 0.75868 0.0
Zn280 Zn 0.44851 0.49986 0.46009 0.0
Zn281 Zn 0.54262 0.47326 0.51886 0.0
C282 C 0.44851 0.58237 0.52581 0.0
O283 O 0.45794 0.60373 0.48899 0.0
C284 C 0.58069 0.4245 0.45153 0.0
O285 O 0.6203 0.45315 0.48023 0.0
O286 O 0.3984 0.51527 0.40825 0.0
O287 O 0.51339 0.5138 0.43438 0.0
O288 O 0.57185 0.53497 0.50177 0.0
C289 C 0.41463 0.5444 0.38196 0.0
O290 O 0.46273 0.5595 0.38523 0.0
O291 O 0.4488 0.54154 0.52245 0.0
C292 C 0.57686 0.41635 0.57387 0.0
O293 O 0.53176 0.39356 0.55061 0.0
O294 O 0.59207 0.45761 0.57048 0.0
O295 O 0.47853 0.4605 0.5453 0.0
O296 O 0.42145 0.43721 0.47696 0.0
O297 O 0.53808 0.42698 0.4581 0.0
C298 C 0.55646 0.53759 0.45689 0.0
C299 C 0.43708 0.43401 0.52173 0.0
Zn300 Zn 0.00363 0.4405 0.0114 0.0
Zn301 Zn 0.98115 0.51904 0.95664 0.0
C302 C 0.05906 0.42317 0.92577 0.0
O303 O 0.03639 0.4421 0.89323 0.0
C304 C 0.95921 0.56804 0.03878 0.0
O305 O 0.99733 0.59807 0.03031 0.0
O306 O 0.01376 0.40131 0.06241 0.0
O307 O 0.03195 0.50384 0.04678 0.0
O308 O 0.05413 0.53111 0.98218 0.0
C309 C 0.05921 0.41295 0.08396 0.0
O310 O 0.0884 0.45 0.07549 0.0
O311 O 0.04832 0.42313 0.96842 0.0
C312 C 0.92347 0.56429 0.91015 0.0
O313 O 0.89256 0.53083 0.9233 0.0
O314 O 0.96931 0.56654 0.91748 0.0
O315 O 0.94474 0.46025 0.91345 0.0
O316 O 0.93392 0.41959 0.97287 0.0
O317 O 0.94622 0.52871 0.0135 0.0
C318 C 0.06263 0.53094 0.0284 0.0
C319 C 0.92135 0.42608 0.92892 0.0
C320 C 0.09252 0.09823 0.85775 0.0
C321 C 0.1306 0.13757 0.87934 0.0
C322 C 0.07419 0.06584 0.88581 0.0
C323 C 0.0927 0.07117 0.93704 0.0
H324 H 0.07562 0.09286 0.8188 0.0
H325 H 0.04381 0.03683 0.86735 0.0
S326 S 0.19426 0.16737 0.01157 0.0
N327 N 0.18818 0.17935 0.95485 0.0
N328 N 0.15316 0.11833 0.0081 0.0
C329 C 0.13255 0.10934 0.95899 0.0
C330 C 0.15159 0.14257 0.93003 0.0
C331 C 0.13635 0.87484 0.15642 0.0
C332 C 0.13501 0.88937 0.11013 0.0
C333 C 0.16255 0.84396 0.16924 0.0
C334 C 0.18741 0.82552 0.13579 0.0
H335 H 0.11662 0.8871 0.18285 0.0
H336 H 0.16235 0.8337 0.20514 0.0
S337 S 0.19604 0.85305 0.01 0.0
N338 N 0.16199 0.88349 0.03128 0.0
N339 N 0.21006 0.82541 0.05459 0.0
C340 C 0.18675 0.84025 0.08958 0.0
C341 C 0.16094 0.87215 0.07699 0.0
C342 C 0.36924 0.86379 0.41826 0.0
C343 C 0.40738 0.89539 0.40449 0.0
C344 C 0.3417 0.82478 0.38523 0.0
C345 C 0.35207 0.81567 0.3378 0.0
H346 H 0.35952 0.86973 0.45421 0.0
H347 H 0.31122 0.80216 0.39646 0.0
S348 S 0.45248 0.88482 0.28608 0.0
N349 N 0.45585 0.91386 0.34094 0.0
N350 N 0.40709 0.83847 0.28092 0.0
C351 C 0.39262 0.84523 0.325 0.0
C352 C 0.41933 0.88582 0.35772 0.0
C353 C 0.30967 0.10122 0.57836 0.0
C354 C 0.3199 0.12852 0.62512 0.0
C355 C 0.3427 0.07787 0.56515 0.0
C356 C 0.38669 0.08111 0.59829 0.0
H357 H 0.27748 0.09979 0.55079 0.0
H358 H 0.33516 0.05926 0.52781 0.0
S359 S 0.42684 0.14191 0.72758 0.0
N360 N 0.37417 0.15271 0.70683 0.0
N361 N 0.43662 0.10925 0.68101 0.0
C362 C 0.39591 0.10577 0.64605 0.0
C363 C 0.36221 0.12928 0.6598 0.0
C364 C 0.14291 0.88696 0.63804 0.0
C365 C 0.10773 0.87593 0.59337 0.0
C366 C 0.16469 0.85524 0.65575 0.0
C367 C 0.15143 0.81088 0.63001 0.0
H368 H 0.1521 0.91975 0.66088 0.0
H369 H 0.18954 0.86498 0.69157 0.0
S370 S 0.06983 0.76772 0.50596 0.0
N371 N 0.06726 0.81979 0.51949 0.0
N372 N 0.10748 0.75975 0.55366 0.0
C373 C 0.11999 0.8006 0.58309 0.0
C374 C 0.09828 0.83321 0.56457 0.0
C375 C 0.34762 0.87233 0.82462 0.0
C376 C 0.34656 0.82727 0.82429 0.0
C377 C 0.38085 0.90629 0.86124 0.0
C378 C 0.41344 0.89596 0.89888 0.0
H379 H 0.32242 0.88125 0.79663 0.0
H380 H 0.38072 0.94071 0.86019 0.0
S381 S 0.42187 0.78166 0.91462 0.0
N382 N 0.37858 0.77341 0.86447 0.0
N383 N 0.44103 0.83642 0.93356 0.0
C384 C 0.41204 0.85053 0.89869 0.0
C385 C 0.37851 0.81634 0.86128 0.0
C386 C 0.39644 0.07812 0.14361 0.0
C387 C 0.40178 0.08399 0.09498 0.0
C388 C 0.37261 0.10336 0.17089 0.0
C389 C 0.35298 0.13545 0.15075 0.0
H390 H 0.41272 0.05513 0.16177 0.0
H391 H 0.37249 0.09987 0.20932 0.0
S392 S 0.35108 0.16014 0.02329 0.0
N393 N 0.38045 0.12105 0.02595 0.0
N394 N 0.33627 0.16942 0.07816 0.0
C395 C 0.35471 0.13965 0.10115 0.0
C396 C 0.37882 0.11353 0.07293 0.0
C397 C 0.16663 0.1333 0.38975 0.0
C398 C 0.11497 0.11683 0.37454 0.0
C399 C 0.19603 0.15354 0.35811 0.0
C400 C 0.17472 0.15905 0.3105 0.0
H401 H 0.18441 0.13052 0.42635 0.0
H402 H 0.23578 0.16576 0.37167 0.0
S403 S 0.03999 0.12233 0.25458 0.0
N404 N 0.04316 0.10713 0.3097 0.0
N405 N 0.09785 0.14604 0.25031 0.0
C406 C 0.12274 0.14237 0.29499 0.0
C407 C 0.09302 0.12115 0.32706 0.0
C408 C 0.80795 0.06698 0.10236 0.0
C409 C 0.83369 0.11137 0.12448 0.0
C410 C 0.83035 0.04014 0.07536 0.0
C411 C 0.87972 0.05631 0.06958 0.0
H412 H 0.76988 0.05275 0.10575 0.0
H413 H 0.80835 0.00633 0.05865 0.0
S414 S 0.96418 0.1702 0.12221 0.0
N415 N 0.91159 0.17048 0.14014 0.0
N416 N 0.95433 0.11979 0.08955 0.0
C417 C 0.9064 0.10064 0.09222 0.0
C418 C 0.88315 0.12828 0.11941 0.0
C419 C 0.05438 0.57714 0.3465 0.0
C420 C 0.07871 0.57073 0.39216 0.0
C421 C 0.08102 0.60146 0.31578 0.0
C422 C 0.13224 0.62114 0.33075 0.0
H423 H 0.01499 0.56147 0.33325 0.0
H424 H 0.06164 0.6045 0.27998 0.0
S425 S 0.21286 0.61648 0.4477 0.0
N426 N 0.15674 0.58702 0.45131 0.0
N427 N 0.20632 0.63458 0.39426 0.0
C428 C 0.15669 0.6168 0.37712 0.0
C429 C 0.12995 0.59109 0.4078 0.0
C430 C 0.56552 0.87847 0.61643 0.0
C431 C 0.56105 0.873 0.56482 0.0
C432 C 0.58407 0.84949 0.64353 0.0
C433 C 0.59907 0.81441 0.61986 0.0
H434 H 0.55826 0.90733 0.63634 0.0
H435 H 0.5905 0.85677 0.68367 0.0
S436 S 0.59193 0.78457 0.48485 0.0
N437 N 0.56988 0.82846 0.49046 0.0
N438 N 0.60534 0.77397 0.54162 0.0
C439 C 0.59123 0.80644 0.56787 0.0
C440 C 0.57209 0.83593 0.54021 0.0
C441 C 0.35006 0.3858 0.87914 0.0
C442 C 0.39969 0.38674 0.89541 0.0
C443 C 0.31644 0.34791 0.848 0.0
C444 C 0.33204 0.31055 0.83167 0.0
H445 H 0.3379 0.41527 0.88841 0.0
H446 H 0.27949 0.34952 0.83311 0.0
S447 S 0.4559 0.29418 0.87144 0.0
N448 N 0.46085 0.3452 0.89972 0.0
N449 N 0.39838 0.27459 0.83929 0.0
C450 C 0.38044 0.30985 0.85129 0.0
C451 C 0.4142 0.34794 0.88379 0.0
C452 C 0.85107 0.82591 0.36622 0.0
C453 C 0.8621 0.81192 0.32 0.0
C454 C 0.88213 0.86444 0.39889 0.0
C455 C 0.92536 0.89039 0.38663 0.0
H456 H 0.81731 0.80793 0.37663 0.0
H457 H 0.87089 0.87523 0.43275 0.0
S458 S 0.97395 0.8676 0.27288 0.0
N459 N 0.92214 0.8267 0.26574 0.0
N460 N 0.97937 0.89874 0.32709 0.0
C461 C 0.93792 0.87618 0.34174 0.0
C462 C 0.90674 0.83697 0.30857 0.0
C463 C 0.38808 0.57164 0.58241 0.0
C464 C 0.42472 0.60102 0.56409 0.0
C465 C 0.35977 0.58778 0.61327 0.0
C466 C 0.36707 0.6341 0.62775 0.0
H467 H 0.37973 0.53566 0.57133 0.0
H468 H 0.33132 0.56347 0.62518 0.0
S469 S 0.46238 0.72528 0.59446 0.0
N470 N 0.46928 0.67869 0.56532 0.0
N471 N 0.41669 0.70926 0.62423 0.0
C472 C 0.40502 0.66397 0.61131 0.0
C473 C 0.43363 0.6474 0.57931 0.0
C474 C 0.61267 0.10777 0.90726 0.0
C475 C 0.58069 0.06409 0.89675 0.0
C476 C 0.62324 0.13143 0.86915 0.0
C477 C 0.60312 0.11156 0.81927 0.0
H478 H 0.63216 0.12269 0.94485 0.0
H479 H 0.65126 0.1636 0.87879 0.0
S480 S 0.50808 0.00248 0.77318 0.0
N481 N 0.52106 0.00534 0.83395 0.0
N482 N 0.54313 0.0496 0.76174 0.0
C483 C 0.56682 0.07009 0.80859 0.0
C484 C 0.55499 0.04631 0.84763 0.0
C485 C 0.05509 0.33568 0.10264 0.0
C486 C 0.0818 0.38128 0.10795 0.0
C487 C 0.07898 0.3038 0.11686 0.0
C488 C 0.13021 0.31664 0.13596 0.0
H489 H 0.01605 0.32421 0.08557 0.0
H490 H 0.0577 0.26891 0.11147 0.0
S491 S 0.21566 0.43171 0.16404 0.0
N492 N 0.1615 0.43773 0.13944 0.0
N493 N 0.20588 0.37753 0.16449 0.0
C494 C 0.15667 0.36205 0.14392 0.0
C495 C 0.13255 0.39451 0.13039 0.0
C496 C 0.58655 0.59435 0.80432 0.0
C497 C 0.60182 0.60562 0.8563 0.0
C498 C 0.61285 0.61861 0.77271 0.0
C499 C 0.65587 0.65449 0.79195 0.0
H500 H 0.55341 0.56724 0.78792 0.0
H501 H 0.59956 0.60901 0.733 0.0
S502 S 0.71177 0.69702 0.92557 0.0
N503 N 0.66302 0.65486 0.92544 0.0
N504 N 0.71234 0.70002 0.86669 0.0
C505 C 0.67173 0.66568 0.84395 0.0
C506 C 0.64477 0.64138 0.87592 0.0
C507 C 0.65886 0.37265 0.15555 0.0
C508 C 0.63681 0.32635 0.13898 0.0
C509 C 0.63831 0.40442 0.13592 0.0
C510 C 0.59515 0.39125 0.09865 0.0
H511 H 0.69088 0.38458 0.18567 0.0
H512 H 0.65542 0.43955 0.15146 0.0
S513 S 0.52665 0.27429 0.03768 0.0
N514 N 0.57212 0.26907 0.07946 0.0
N515 N 0.5337 0.32869 0.04245 0.0
C516 C 0.57475 0.34518 0.07917 0.0
C517 C 0.59554 0.31277 0.09936 0.0
C518 C 0.91847 0.3885 0.33461 0.0
C519 C 0.89892 0.41198 0.36923 0.0
C520 C 0.88779 0.35266 0.29886 0.0
C521 C 0.83629 0.33842 0.29674 0.0
H522 H 0.95819 0.39648 0.33659 0.0
H523 H 0.90521 0.33428 0.275 0.0
S524 S 0.76544 0.39581 0.37048 0.0
N525 N 0.8241 0.42384 0.39323 0.0
N526 N 0.76615 0.35615 0.3257 0.0
C527 C 0.8157 0.3647 0.32744 0.0
C528 C 0.84708 0.40158 0.36381 0.0
C529 C 0.5829 0.54931 0.37692 0.0
C530 C 0.58884 0.56497 0.42796 0.0
C531 C 0.60657 0.57607 0.34595 0.0
C532 C 0.63767 0.61973 0.3645 0.0
H533 H 0.55839 0.51635 0.36026 0.0
H534 H 0.59919 0.56285 0.30665 0.0
S535 S 0.66615 0.67722 0.49534 0.0
N536 N 0.62893 0.62717 0.49595 0.0
N537 N 0.67374 0.67752 0.43746 0.0
C538 C 0.64571 0.63545 0.41581 0.0
C539 C 0.62128 0.60806 0.4476 0.0
C540 C 0.86501 0.31243 0.85018 0.0
C541 C 0.81837 0.31501 0.82748 0.0
C542 C 0.89825 0.34903 0.88296 0.0
C543 C 0.88595 0.38928 0.89328 0.0
H544 H 0.87534 0.2816 0.84334 0.0
H545 H 0.93376 0.34584 0.90049 0.0
S546 S 0.76933 0.41333 0.84115 0.0
N547 N 0.76167 0.36068 0.81615 0.0
N548 N 0.82519 0.43051 0.87714 0.0
C549 C 0.84007 0.3928 0.86964 0.0
C550 C 0.80582 0.35518 0.83684 0.0
C551 C 0.8563 0.84543 0.07573 0.0
C552 C 0.87904 0.81158 0.08571 0.0
C553 C 0.8788 0.88063 0.05224 0.0
C554 C 0.92473 0.88307 0.03816 0.0
H555 H 0.82224 0.84595 0.08819 0.0
H556 H 0.86138 0.90712 0.04721 0.0
S557 S 0.99489 0.79904 0.04765 0.0
N558 N 0.94688 0.78008 0.07344 0.0
N559 N 0.98876 0.84613 0.03012 0.0
C560 C 0.94601 0.84809 0.04504 0.0
C561 C 0.92324 0.81234 0.06854 0.0
C562 C 0.81468 0.08466 0.81612 0.0
C563 C 0.80429 0.11519 0.85196 0.0
C564 C 0.84758 0.05953 0.82951 0.0
C565 C 0.87068 0.06385 0.87916 0.0
H566 H 0.7979 0.08061 0.77732 0.0
H567 H 0.85552 0.03716 0.8009 0.0
S568 S 0.85812 0.13944 -0.01305 0.0
N569 N 0.82113 0.14832 0.93942 0.0
N570 N 0.88255 0.10103 0.96395 0.0
C571 C 0.86058 0.09376 0.91526 0.0
C572 C 0.82739 0.1194 0.90185 0.0
C573 C 0.68808 0.12301 0.5955 0.0
C574 C 0.67566 0.1497 0.63304 0.0
C575 C 0.65345 0.08352 0.56902 0.0
C576 C 0.60546 0.06987 0.57934 0.0
H577 H 0.72461 0.13278 0.58651 0.0
H578 H 0.66406 0.06416 0.53965 0.0
S579 S 0.55539 0.13038 0.67365 0.0
N580 N 0.61266 0.16183 0.67808 0.0
N581 N 0.54827 0.08639 0.63099 0.0
C582 C 0.59344 0.09613 0.61802 0.0
C583 C 0.62837 0.13655 0.64408 0.0
C584 C 0.63224 0.89521 0.36588 0.0
C585 C 0.58384 0.8716 0.369 0.0
C586 C 0.66371 0.87317 0.34611 0.0
C587 C 0.6479 0.8267 0.3285 0.0
H588 H 0.64677 0.93074 0.38059 0.0
H589 H 0.70118 0.89258 0.34605 0.0
S590 S 0.52237 0.75021 0.32294 0.0
N591 N 0.51998 0.79977 0.34865 0.0
N592 N 0.57894 0.75833 0.31176 0.0
C593 C 0.59858 0.80308 0.32895 0.0
C594 C 0.56659 0.82553 0.34906 0.0
C595 C 0.83548 0.10772 0.30867 0.0
C596 C 0.843 0.15076 0.33578 0.0
C597 C 0.86103 0.07849 0.32628 0.0
C598 C 0.89465 0.09077 0.37201 0.0
H599 H 0.81213 0.09734 0.27203 0.0
H600 H 0.85579 0.04669 0.30271 0.0
S601 S 0.91995 0.19611 0.46178 0.0
N602 N 0.88106 0.20186 0.41368 0.0
N603 N 0.92876 0.1464 0.4474 0.0
C604 C 0.89912 0.13203 0.40164 0.0
C605 C 0.87336 0.16215 0.38336 0.0
C606 C 0.681 0.12922 0.12875 0.0
C607 C 0.66384 0.13959 0.17249 0.0
C608 C 0.65615 0.09023 0.09425 0.0
C609 C 0.61336 0.06029 0.10237 0.0
H610 H 0.7117 0.15291 0.11915 0.0
H611 H 0.66831 0.08541 0.05944 0.0
S612 S 0.55833 0.06714 0.21443 0.0
N613 N 0.60526 0.11324 0.22488 0.0
N614 N 0.55869 0.03976 0.15968 0.0
C615 C 0.59852 0.06789 0.14778 0.0
C616 C 0.62369 0.10767 0.18297 0.0
C617 C 0.65931 0.8602 0.81574 0.0
C618 C 0.6458 0.81514 0.82212 0.0
C619 C 0.64521 0.8929 0.84471 0.0
C620 C 0.61775 0.88211 0.88184 0.0
H621 H 0.67863 0.86992 0.78639 0.0
H622 H 0.65489 0.9268 0.83698 0.0
S623 S 0.57722 0.76939 0.91625 0.0
N624 N 0.60628 0.76172 0.87029 0.0
N625 N 0.58032 0.82326 0.92527 0.0
C626 C 0.60629 0.83754 0.89036 0.0
C627 C 0.62013 0.80408 0.86033 0.0
C628 C 0.83036 0.83126 0.5721 0.0
C629 C 0.88107 0.85261 0.59009 0.0
C630 C 0.80002 0.81129 0.60318 0.0
C631 C 0.81946 0.81106 0.65324 0.0
H632 H 0.81396 0.83016 0.53375 0.0
H633 H 0.76114 0.79522 0.58743 0.0
S634 S 0.95154 0.86024 0.71689 0.0
N635 N 0.95015 0.87135 0.66009 0.0
N636 N 0.89386 0.83328 0.71854 0.0
C637 C 0.87053 0.83222 0.67145 0.0
C638 C 0.90113 0.85306 0.63986 0.0
C639 C 0.10881 0.82302 0.86566 0.0
C640 C 0.12368 0.83711 0.82275 0.0
C641 C 0.08813 0.84929 0.89629 0.0
C642 C 0.0818 0.89021 0.88468 0.0
H643 H 0.1165 0.79342 0.87754 0.0
H644 H 0.08095 0.83941 0.93114 0.0
S645 S 0.10457 0.9366 0.77124 0.0
N646 N 0.1229 0.89063 0.76626 0.0
N647 N 0.08475 0.93994 0.82405 0.0
C648 C 0.09214 0.90228 0.83967 0.0
C649 C 0.11295 0.87571 0.8086 0.0
C650 C 0.91378 0.36465 0.57961 0.0
C651 C 0.91953 0.41083 0.58777 0.0
C652 C 0.90571 0.33994 0.61739 0.0
C653 C 0.90142 0.36047 0.66394 0.0
H654 H 0.91339 0.34716 0.54324 0.0
H655 H 0.89784 0.30381 0.60855 0.0
S656 S 0.9225 0.48204 0.70631 0.0
N657 N 0.92816 0.47756 0.6477 0.0
N658 N 0.9114 0.43056 0.71867 0.0
C659 C 0.91263 0.40738 0.67429 0.0
C660 C 0.92158 0.43273 0.63588 0.0
C661 C 0.42374 0.1098 0.40306 0.0
C662 C 0.39151 0.07031 0.41186 0.0
C663 C 0.40664 0.13598 0.37013 0.0
C664 C 0.3569 0.12324 0.34465 0.0
H665 H 0.46225 0.12077 0.42197 0.0
H666 H 0.43257 0.16598 0.36421 0.0
S667 S 0.25713 0.0237 0.35587 0.0
N668 N 0.30719 0.02048 0.39256 0.0
N669 N 0.27535 0.06942 0.33211 0.0
C670 C 0.32441 0.08412 0.35363 0.0
C671 C 0.34163 0.05771 0.38681 0.0
C672 C 0.57353 0.61874 0.07731 0.0
C673 C 0.58429 0.57912 0.0595 0.0
C674 C 0.60847 0.65231 0.1132 0.0
C675 C 0.65519 0.64724 0.1322 0.0
H676 H 0.53705 0.62279 0.06523 0.0
H677 H 0.59818 0.6816 0.12766 0.0
S678 S 0.70109 0.54964 0.09738 0.0
N679 N 0.64509 0.53708 0.06233 0.0
N680 N 0.71034 0.59977 0.13036 0.0
C681 C 0.66707 0.60861 0.11305 0.0
C682 C 0.63164 0.57458 0.07645 0.0
C683 C 0.13409 0.1505 0.60434 0.0
C684 C 0.12471 0.15916 0.65252 0.0
C685 C 0.10631 0.11128 0.57069 0.0
C686 C 0.06794 0.07946 0.58395 0.0
H687 H 0.16412 0.1735 0.59304 0.0
H688 H 0.11664 0.10473 0.53518 0.0
S689 S 0.02192 0.08922 0.70138 0.0
N690 N 0.06915 0.13456 0.70861 0.0
N691 N 0.01767 0.06157 0.64552 0.0
C692 C 0.05568 0.0892 0.63029 0.0
C693 C 0.08362 0.12898 0.6644 0.0
C694 C 0.64095 0.34389 0.39 0.0
C695 C 0.60852 0.32561 0.34403 0.0
C696 C 0.63073 0.37496 0.42463 0.0
C697 C 0.5872 0.38856 0.4153 0.0
H698 H 0.67541 0.33527 0.39892 0.0
H699 H 0.65767 0.38884 0.4589 0.0
S700 S 0.48681 0.3466 0.30347 0.0
N701 N 0.52867 0.32055 0.29286 0.0
N702 N 0.50921 0.37848 0.35863 0.0
C703 C 0.55282 0.36853 0.37095 0.0
C704 C 0.56354 0.33718 0.3352 0.0
C705 C 0.34789 0.91504 0.09145 0.0
C706 C 0.39135 0.91461 0.0739 0.0
C707 C 0.33166 0.88682 0.1242 0.0
C708 C 0.35774 0.8567 0.13894 0.0
H709 H 0.3271 0.9381 0.08093 0.0
H710 H 0.29822 0.88816 0.13759 0.0
S711 S 0.47207 0.84133 0.10142 0.0
N712 N 0.45965 0.8814 0.07252 0.0
N713 N 0.4277 0.8269 0.13318 0.0
C714 C 0.40041 0.85509 0.12075 0.0
C715 C 0.41766 0.88455 0.08833 0.0
C716 C 0.92634 0.62005 0.85226 0.0
C717 C 0.90421 0.59828 0.88794 0.0
C718 C 0.90315 0.64681 0.82539 0.0
C719 C 0.85759 0.65242 0.83388 0.0
H720 H 0.96 0.61425 0.843 0.0
H721 H 0.91914 0.6606 0.79574 0.0
S722 S 0.78984 0.60994 0.92964 0.0
N723 N 0.83825 0.58983 0.93524 0.0
N724 N 0.7946 0.63929 0.88419 0.0
C725 C 0.83736 0.63381 0.87199 0.0
C726 C 0.8608 0.60693 0.89929 0.0
C727 C 0.35397 0.37385 0.12653 0.0
C728 C 0.39604 0.36411 0.11295 0.0
C729 C 0.33006 0.35133 0.16071 0.0
C730 C 0.34829 0.31936 0.18358 0.0
H731 H 0.33853 0.39784 0.10944 0.0
H732 H 0.29669 0.3586 0.16881 0.0
S733 S 0.46034 0.28537 0.1631 0.0
N734 N 0.45636 0.32223 0.12609 0.0
N735 N 0.41323 0.28171 0.19177 0.0
C736 C 0.39186 0.31123 0.17179 0.0
C737 C 0.4152 0.33308 0.13603 0.0
C738 C 0.42162 0.62938 0.88769 0.0
C739 C 0.39102 0.58629 0.88803 0.0
C740 C 0.40491 0.65821 0.85892 0.0
C741 C 0.35673 0.64549 0.82967 0.0
H742 H 0.45987 0.64012 0.9074 0.0
H743 H 0.43088 0.69008 0.85812 0.0
S744 S 0.25922 0.53907 0.82354 0.0
N745 N 0.30811 0.53433 0.86108 0.0
N746 N 0.27669 0.5888 0.80714 0.0
C747 C 0.32434 0.604 0.83273 0.0
C748 C 0.34148 0.57439 0.86191 0.0
C749 C 0.13434 0.57976 0.58114 0.0
C750 C 0.09068 0.55493 0.59314 0.0
C751 C 0.16822 0.61454 0.61584 0.0
C752 C 0.1589 0.62629 0.66343 0.0
H753 H 0.14119 0.57359 0.54398 0.0
H754 H 0.20046 0.63391 0.60405 0.0
S755 S 0.05401 0.56456 0.71531 0.0
N756 N 0.04293 0.53899 0.65717 0.0
N757 N 0.10645 0.60497 0.72305 0.0
C758 C 0.11734 0.59878 0.67718 0.0
C759 C 0.08309 0.56297 0.64172 0.0
C760 C 0.40917 0.36342 0.62156 0.0
C761 C 0.36048 0.33559 0.6036 0.0
C762 C 0.43242 0.39492 0.59492 0.0
C763 C 0.40874 0.40011 0.54822 0.0
H764 H 0.42992 0.36111 0.65699 0.0
H765 H 0.4699 0.41515 0.61137 0.0
S766 S 0.28026 0.33589 0.48425 0.0
N767 N 0.28843 0.31578 0.53639 0.0
N768 N 0.33258 0.37464 0.48536 0.0
C769 C 0.35965 0.37272 0.52961 0.0
C770 C 0.33547 0.34071 0.55748 0.0
C771 C 0.12229 0.62381 0.1372 0.0
C772 C 0.17013 0.64171 0.12816 0.0
C773 C 0.08833 0.58737 0.10509 0.0
C774 C 0.10001 0.56862 0.06156 0.0
H775 H 0.11092 0.63749 0.16975 0.0
H776 H 0.05229 0.57423 0.11415 0.0
S777 S 0.21914 0.60325 0.01947 0.0
N778 N 0.22737 0.63774 0.07216 0.0
N779 N 0.1619 0.57006 0.01035 0.0
C780 C 0.14702 0.58654 0.05113 0.0
C781 C 0.18242 0.62302 0.0847 0.0
C782 C 0.6866 0.39033 0.6505 0.0
C783 C 0.6813 0.34595 0.62866 0.0
C784 C 0.65253 0.41325 0.63305 0.0
C785 C 0.61152 0.39195 0.59427 0.0
H786 H 0.71816 0.40788 0.67983 0.0
H787 H 0.65844 0.44781 0.64975 0.0
S788 S 0.58054 0.27513 0.52655 0.0
N789 N 0.63176 0.28127 0.56743 0.0
N790 N 0.56749 0.32348 0.53543 0.0
C791 C 0.60532 0.34706 0.57339 0.0
C792 C 0.64029 0.32427 0.59041 0.0
C793 C 0.84113 0.58825 0.06798 0.0
C794 C 0.85889 0.62577 0.10623 0.0
C795 C 0.87372 0.56689 0.04931 0.0
C796 C 0.92525 0.5832 0.06727 0.0
H797 H 0.80204 0.57634 0.05107 0.0
H798 H 0.85873 0.53948 0.01824 0.0
S799 S 0.99004 0.67736 0.17058 0.0
N800 N 0.93088 0.67544 0.16476 0.0
N801 N 0.99215 0.63637 0.12817 0.0
C802 C 0.94317 0.61898 0.10734 0.0
C803 C 0.90994 0.64002 0.12721 0.0
C804 C 0.88726 0.63882 0.56969 0.0
C805 C 0.88031 0.59471 0.57846 0.0
C806 C 0.864 0.66728 0.59353 0.0
C807 C 0.83238 0.65221 0.62604 0.0
H808 H 0.91344 0.65232 0.54717 0.0
H809 H 0.87293 0.70204 0.58857 0.0
S810 S 0.79704 0.5371 0.65518 0.0
N811 N 0.83636 0.53564 0.61755 0.0
N812 N 0.79147 0.58861 0.66133 0.0
C813 C 0.82192 0.6069 0.63157 0.0
C814 C 0.84639 0.57829 0.60811 0.0
C815 C 0.40344 0.60736 0.33807 0.0
C816 C 0.38179 0.56797 0.35583 0.0
C817 C 0.37519 0.63513 0.32109 0.0
C818 C 0.32423 0.62428 0.32071 0.0
H819 H 0.44307 0.6183 0.33962 0.0
H820 H 0.3938 0.6664 0.31066 0.0
S821 S 0.24778 0.52258 0.35619 0.0
N822 N 0.30476 0.51762 0.36684 0.0
N823 N 0.25191 0.56999 0.33461 0.0
C824 C 0.30135 0.58382 0.33511 0.0
C825 C 0.33004 0.5555 0.35259 0.0
C826 C 0.13766 0.37089 0.85109 0.0
C827 C 0.15415 0.34322 0.88219 0.0
C828 C 0.10808 0.39771 0.86587 0.0
C829 C 0.09349 0.39737 0.91205 0.0
H830 H 0.14713 0.37134 0.81478 0.0
H831 H 0.09582 0.41812 0.84049 0.0
S832 S 0.1258 0.32886 0.00604 0.0
N833 N 0.15361 0.31653 0.96065 0.0
N834 N 0.09776 0.36596 -0.01151 0.0
C835 C 0.11043 0.37 0.94365 0.0
C836 C 0.14086 0.34321 0.92873 0.0
C837 C 0.14982 0.32264 0.39553 0.0
C838 C 0.16677 0.32794 0.35104 0.0
C839 C 0.12704 0.35296 0.41703 0.0
C840 C 0.11905 0.38873 0.39383 0.0
H841 H 0.15279 0.29407 0.41295 0.0
H842 H 0.11339 0.34699 0.45062 0.0
S843 S 0.15742 0.41735 0.27701 0.0
N844 N 0.17553 0.37238 0.2854 0.0
N845 N 0.13197 0.42859 0.32476 0.0
C846 C 0.13735 0.39507 0.35009 0.0
C847 C 0.16139 0.36486 0.32894 0.0
loop_
_geom_bond_atom_site_label_1
_geom_bond_atom_site_label_2
_geom_bond_distance
_geom_bond_site_symmetry_2
_ccdc_geom_bond_type
Zn0 O6 1.969 . S
Zn0 O7 1.965 1_655 S
Zn0 O11 2.024 1_556 S
Zn0 O16 1.969 1_546 S
Zn1 O8 1.969 1_564 S
Zn1 O14 1.969 . S
Zn1 O15 1.965 1_455 S
Zn1 O17 2.024 1_554 S
C2 O3 1.229 . S
C2 O11 1.058 . S
O3 C2 1.229 . S
C4 O5 1.229 . S
C4 O17 1.058 . S
O5 C4 1.229 . S
O6 Zn0 1.969 . S
O6 C9 1.267 . S
O7 Zn0 1.965 1_455 S
O7 C18 1.260 . S
O8 Zn1 1.969 1_546 S
O8 C18 1.258 . S
C9 O6 1.267 . S
C9 O10 1.228 . S
O10 C9 1.228 . S
O11 Zn0 2.024 1_554 S
O11 C2 1.058 . S
C12 O13 1.228 . S
C12 O14 1.267 . S
O13 C12 1.228 . S
O14 Zn1 1.969 . S
O14 C12 1.267 . S
O15 Zn1 1.965 1_655 S
O15 C19 1.260 . S
O16 Zn0 1.969 1_564 S
O16 C19 1.258 . S
O17 Zn1 2.024 1_556 S
O17 C4 1.058 . S
C18 O7 1.260 . S
C18 O8 1.258 . S
C19 O15 1.260 . S
C19 O16 1.258 . S
Zn20 O26 1.969 . S
Zn20 O27 1.965 . S
Zn20 O31 2.024 . S
Zn20 O36 1.969 . S
Zn21 O28 1.969 . S
Zn21 O34 1.969 . S
Zn21 O35 1.965 . S
Zn21 O37 2.024 . S
C22 O23 1.229 . S
C22 O31 1.058 . S
O23 C22 1.229 . S
C24 O25 1.229 . S
C24 O37 1.058 . S
O25 C24 1.229 . S
O26 Zn20 1.969 . S
O26 C29 1.267 . S
O27 Zn20 1.965 . S
O27 C38 1.260 . S
O28 Zn21 1.969 . S
O28 C38 1.258 . S
C29 O26 1.267 . S
C29 O30 1.228 . S
O30 C29 1.228 . S
O31 Zn20 2.024 . S
O31 C22 1.058 . S
C32 O33 1.228 . S
C32 O34 1.267 . S
O33 C32 1.228 . S
O34 Zn21 1.969 . S
O34 C32 1.267 . S
O35 Zn21 1.965 . S
O35 C39 1.260 . S
O36 Zn20 1.969 . S
O36 C39 1.258 . S
O37 Zn21 2.024 . S
O37 C24 1.058 . S
C38 O27 1.260 . S
C38 O28 1.258 . S
C39 O35 1.260 . S
C39 O36 1.258 . S
Zn40 O46 1.969 . S
Zn40 O47 1.965 . S
Zn40 O51 2.024 . S
Zn40 O56 1.969 1_565 S
Zn41 O48 1.969 1_545 S
Zn41 O54 1.969 . S
Zn41 O55 1.965 . S
Zn41 O57 2.024 . S
C42 O43 1.229 . S
C42 O51 1.058 . S
O43 C42 1.229 . S
C44 O45 1.229 . S
C44 O57 1.058 . S
O45 C44 1.229 . S
O46 Zn40 1.969 . S
O46 C49 1.267 . S
O47 Zn40 1.965 . S
O47 C58 1.260 . S
O48 Zn41 1.969 1_565 S
O48 C58 1.258 . S
C49 O46 1.267 . S
C49 O50 1.228 . S
O50 C49 1.228 . S
O51 Zn40 2.024 . S
O51 C42 1.058 . S
C52 O53 1.228 . S
C52 O54 1.267 . S
O53 C52 1.228 . S
O54 Zn41 1.969 . S
O54 C52 1.267 . S
O55 Zn41 1.965 . S
O55 C59 1.260 . S
O56 Zn40 1.969 1_545 S
O56 C59 1.258 . S
O57 Zn41 2.024 . S
O57 C44 1.058 . S
C58 O47 1.260 . S
C58 O48 1.258 . S
C59 O55 1.260 . S
C59 O56 1.258 . S
Zn60 O66 1.969 . S
Zn60 O67 1.965 . S
Zn60 O71 2.024 . S
Zn60 O76 1.969 . S
Zn61 O68 1.969 . S
Zn61 O74 1.969 . S
Zn61 O75 1.965 . S
Zn61 O77 2.024 . S
C62 O63 1.229 . S
C62 O71 1.058 . S
O63 C62 1.229 . S
C64 O65 1.229 . S
C64 O77 1.058 . S
O65 C64 1.229 . S
O66 Zn60 1.969 . S
O66 C69 1.267 . S
O67 Zn60 1.965 . S
O67 C78 1.260 . S
O68 Zn61 1.969 . S
O68 C78 1.258 . S
C69 O66 1.267 . S
C69 O70 1.228 . S
O70 C69 1.228 . S
O71 Zn60 2.024 . S
O71 C62 1.058 . S
C72 O73 1.228 . S
C72 O74 1.267 . S
O73 C72 1.228 . S
O74 Zn61 1.969 . S
O74 C72 1.267 . S
O75 Zn61 1.965 . S
O75 C79 1.260 . S
O76 Zn60 1.969 . S
O76 C79 1.258 . S
O77 Zn61 2.024 . S
O77 C64 1.058 . S
C78 O67 1.260 . S
C78 O68 1.258 . S
C79 O75 1.260 . S
C79 O76 1.258 . S
Zn80 O86 1.969 . S
Zn80 O87 1.965 . S
Zn80 O91 2.024 1_455 S
Zn80 O96 1.969 1_445 S
Zn81 O88 1.969 1_665 S
Zn81 O94 1.969 . S
Zn81 O95 1.965 . S
Zn81 O97 2.024 1_655 S
C82 O83 1.229 . S
C82 O91 1.058 . S
O83 C82 1.229 . S
C84 O85 1.229 . S
C84 O97 1.058 . S
O85 C84 1.229 . S
O86 Zn80 1.969 . S
O86 C89 1.267 . S
O87 Zn80 1.965 . S
O87 C98 1.260 . S
O88 Zn81 1.969 1_445 S
O88 C98 1.258 . S
C89 O86 1.267 . S
C89 O90 1.228 . S
O90 C89 1.228 . S
O91 Zn80 2.024 1_655 S
O91 C82 1.058 . S
C92 O93 1.228 . S
C92 O94 1.267 . S
O93 C92 1.228 . S
O94 Zn81 1.969 . S
O94 C92 1.267 . S
O95 Zn81 1.965 . S
O95 C99 1.260 . S
O96 Zn80 1.969 1_665 S
O96 C99 1.258 . S
O97 Zn81 2.024 1_455 S
O97 C84 1.058 . S
C98 O87 1.260 . S
C98 O88 1.258 . S
C99 O95 1.260 . S
C99 O96 1.258 . S
Zn100 O106 1.969 . S
Zn100 O107 1.965 . S
Zn100 O111 2.024 . S
Zn100 O116 1.969 . S
Zn101 O108 1.969 . S
Zn101 O114 1.969 . S
Zn101 O115 1.965 . S
Zn101 O117 2.024 . S
C102 O103 1.229 . S
C102 O111 1.058 . S
O103 C102 1.229 . S
C104 O105 1.229 . S
C104 O117 1.058 . S
O105 C104 1.229 . S
O106 Zn100 1.969 . S
O106 C109 1.267 . S
O107 Zn100 1.965 . S
O107 C118 1.260 . S
O108 Zn101 1.969 . S
O108 C118 1.258 . S
C109 O106 1.267 . S
C109 O110 1.228 . S
O110 C109 1.228 . S
O111 Zn100 2.024 . S
O111 C102 1.058 . S
C112 O113 1.228 . S
C112 O114 1.267 . S
O113 C112 1.228 . S
O114 Zn101 1.969 . S
O114 C112 1.267 . S
O115 Zn101 1.965 . S
O115 C119 1.260 . S
O116 Zn100 1.969 . S
O116 C119 1.258 . S
O117 Zn101 2.024 . S
O117 C104 1.058 . S
C118 O107 1.260 . S
C118 O108 1.258 . S
C119 O115 1.260 . S
C119 O116 1.258 . S
Zn120 O126 1.986 . S
Zn120 O127 1.973 . S
Zn120 O131 2.008 1_545 S
Zn120 O136 1.961 1_544 S
Zn121 O128 1.964 1_566 S
Zn121 O134 1.981 . S
Zn121 O135 1.970 . S
Zn121 O137 2.012 1_565 S
C122 O123 1.229 . S
C122 O131 1.058 . S
O123 C122 1.229 . S
C124 O125 1.229 . S
C124 O137 1.058 . S
O125 C124 1.229 . S
O126 Zn120 1.986 . S
O126 C129 1.267 . S
O127 Zn120 1.973 . S
O127 C138 1.260 . S
O128 Zn121 1.964 1_544 S
O128 C138 1.258 . S
C129 O126 1.267 . S
C129 O130 1.228 . S
O130 C129 1.228 . S
O131 Zn120 2.008 1_565 S
O131 C122 1.058 . S
C132 O133 1.228 . S
C132 O134 1.267 . S
O133 C132 1.228 . S
O134 Zn121 1.981 . S
O134 C132 1.267 . S
O135 Zn121 1.970 . S
O135 C139 1.260 . S
O136 Zn120 1.961 1_566 S
O136 C139 1.258 . S
O137 Zn121 2.012 1_545 S
O137 C124 1.058 . S
C138 O127 1.260 . S
C138 O128 1.258 . S
C139 O135 1.260 . S
C139 O136 1.258 . S
Zn140 O146 1.969 . S
Zn140 O147 1.965 . S
Zn140 O151 2.024 . S
Zn140 O156 1.969 . S
Zn141 O148 1.969 . S
Zn141 O154 1.969 . S
Zn141 O155 1.965 . S
Zn141 O157 2.024 . S
C142 O143 1.229 . S
C142 O151 1.058 . S
O143 C142 1.229 . S
C144 O145 1.229 . S
C144 O157 1.058 . S
O145 C144 1.229 . S
O146 Zn140 1.969 . S
O146 C149 1.267 . S
O147 Zn140 1.965 . S
O147 C158 1.260 . S
O148 Zn141 1.969 . S
O148 C158 1.258 . S
C149 O146 1.267 . S
C149 O150 1.228 . S
O150 C149 1.228 . S
O151 Zn140 2.024 . S
O151 C142 1.058 . S
C152 O153 1.228 . S
C152 O154 1.267 . S
O153 C152 1.228 . S
O154 Zn141 1.969 . S
O154 C152 1.267 . S
O155 Zn141 1.965 . S
O155 C159 1.260 . S
O156 Zn140 1.969 . S
O156 C159 1.258 . S
O157 Zn141 2.024 . S
O157 C144 1.058 . S
C158 O147 1.260 . S
C158 O148 1.258 . S
C159 O155 1.260 . S
C159 O156 1.258 . S
Zn160 O166 1.969 . S
Zn160 O167 1.965 1_556 S
Zn160 O171 2.024 . S
Zn160 O176 1.969 . S
Zn161 O168 1.969 . S
Zn161 O174 1.969 . S
Zn161 O175 1.965 1_554 S
Zn161 O177 2.024 . S
C162 O163 1.229 . S
C162 O171 1.058 . S
O163 C162 1.229 . S
C164 O165 1.229 . S
C164 O177 1.058 . S
O165 C164 1.229 . S
O166 Zn160 1.969 . S
O166 C169 1.267 . S
O167 Zn160 1.965 1_554 S
O167 C178 1.260 . S
O168 Zn161 1.969 . S
O168 C178 1.258 . S
C169 O166 1.267 . S
C169 O170 1.228 . S
O170 C169 1.228 . S
O171 Zn160 2.024 . S
O171 C162 1.058 . S
C172 O173 1.228 . S
C172 O174 1.267 . S
O173 C172 1.228 . S
O174 Zn161 1.969 . S
O174 C172 1.267 . S
O175 Zn161 1.965 1_556 S
O175 C179 1.260 . S
O176 Zn160 1.969 . S
O176 C179 1.258 . S
O177 Zn161 2.024 . S
O177 C164 1.058 . S
C178 O167 1.260 . S
C178 O168 1.258 . S
C179 O175 1.260 . S
C179 O176 1.258 . S
Zn180 O186 1.969 . S
Zn180 O187 1.965 . S
Zn180 O191 2.024 . S
Zn180 O196 1.969 . S
Zn181 O188 1.969 . S
Zn181 O194 1.969 . S
Zn181 O195 1.965 . S
Zn181 O197 2.024 . S
C182 O183 1.229 . S
C182 O191 1.058 . S
O183 C182 1.229 . S
C184 O185 1.229 . S
C184 O197 1.058 . S
O185 C184 1.229 . S
O186 Zn180 1.969 . S
O186 C189 1.267 . S
O187 Zn180 1.965 . S
O187 C198 1.260 . S
O188 Zn181 1.969 . S
O188 C198 1.258 . S
C189 O186 1.267 . S
C189 O190 1.228 . S
O190 C189 1.228 . S
O191 Zn180 2.024 . S
O191 C182 1.058 . S
C192 O193 1.228 . S
C192 O194 1.267 . S
O193 C192 1.228 . S
O194 Zn181 1.969 . S
O194 C192 1.267 . S
O195 Zn181 1.965 . S
O195 C199 1.260 . S
O196 Zn180 1.969 . S
O196 C199 1.258 . S
O197 Zn181 2.024 . S
O197 C184 1.058 . S
C198 O187 1.260 . S
C198 O188 1.258 . S
C199 O195 1.260 . S
C199 O196 1.258 . S
Zn200 O206 1.969 . S
Zn200 O207 1.965 1_655 S
Zn200 O211 2.024 . S
Zn200 O216 1.969 . S
Zn201 O208 1.969 . S
Zn201 O214 1.969 . S
Zn201 O215 1.965 1_455 S
Zn201 O217 2.024 . S
C202 O203 1.229 . S
C202 O211 1.058 . S
O203 C202 1.229 . S
C204 O205 1.229 . S
C204 O217 1.058 . S
O205 C204 1.229 . S
O206 Zn200 1.969 . S
O206 C209 1.267 . S
O207 Zn200 1.965 1_455 S
O207 C218 1.260 . S
O208 Zn201 1.969 . S
O208 C218 1.258 . S
C209 O206 1.267 . S
C209 O210 1.228 . S
O210 C209 1.228 . S
O211 Zn200 2.024 . S
O211 C202 1.058 . S
C212 O213 1.228 . S
C212 O214 1.267 . S
O213 C212 1.228 . S
O214 Zn201 1.969 . S
O214 C212 1.267 . S
O215 Zn201 1.965 1_655 S
O215 C219 1.260 . S
O216 Zn200 1.969 . S
O216 C219 1.258 . S
O217 Zn201 2.024 . S
O217 C204 1.058 . S
C218 O207 1.260 . S
C218 O208 1.258 . S
C219 O215 1.260 . S
C219 O216 1.258 . S
Zn220 O226 1.969 . S
Zn220 O227 1.965 . S
Zn220 O231 2.024 . S
Zn220 O236 1.969 . S
Zn221 O228 1.969 . S
Zn221 O234 1.969 . S
Zn221 O235 1.965 . S
Zn221 O237 2.024 . S
C222 O223 1.229 . S
C222 O231 1.058 . S
O223 C222 1.229 . S
C224 O225 1.229 . S
C224 O237 1.058 . S
O225 C224 1.229 . S
O226 Zn220 1.969 . S
O226 C229 1.267 . S
O227 Zn220 1.965 . S
O227 C238 1.260 . S
O228 Zn221 1.969 . S
O228 C238 1.258 . S
C229 O226 1.267 . S
C229 O230 1.228 . S
O230 C229 1.228 . S
O231 Zn220 2.024 . S
O231 C222 1.058 . S
C232 O233 1.228 . S
C232 O234 1.267 . S
O233 C232 1.228 . S
O234 Zn221 1.969 . S
O234 C232 1.267 . S
O235 Zn221 1.965 . S
O235 C239 1.260 . S
O236 Zn220 1.969 . S
O236 C239 1.258 . S
O237 Zn221 2.024 . S
O237 C224 1.058 . S
C238 O227 1.260 . S
C238 O228 1.258 . S
C239 O235 1.260 . S
C239 O236 1.258 . S
Zn240 O246 1.969 . S
Zn240 O247 1.965 . S
Zn240 O251 2.024 . S
Zn240 O256 1.969 . S
Zn241 O248 1.969 . S
Zn241 O254 1.969 . S
Zn241 O255 1.965 . S
Zn241 O257 2.024 . S
C242 O243 1.229 . S
C242 O251 1.058 . S
O243 C242 1.229 . S
C244 O245 1.229 . S
C244 O257 1.058 . S
O245 C244 1.229 . S
O246 Zn240 1.969 . S
O246 C249 1.267 . S
O247 Zn240 1.965 . S
O247 C258 1.260 . S
O248 Zn241 1.969 . S
O248 C258 1.258 . S
C249 O246 1.267 . S
C249 O250 1.228 . S
O250 C249 1.228 . S
O251 Zn240 2.024 . S
O251 C242 1.058 . S
C252 O253 1.228 . S
C252 O254 1.267 . S
O253 C252 1.228 . S
O254 Zn241 1.969 . S
O254 C252 1.267 . S
O255 Zn241 1.965 . S
O255 C259 1.260 . S
O256 Zn240 1.969 . S
O256 C259 1.258 . S
O257 Zn241 2.024 . S
O257 C244 1.058 . S
C258 O247 1.260 . S
C258 O248 1.258 . S
C259 O255 1.260 . S
C259 O256 1.258 . S
Zn260 O266 1.969 . S
Zn260 O267 1.965 . S
Zn260 O271 2.024 . S
Zn260 O276 1.969 . S
Zn261 O268 1.969 . S
Zn261 O274 1.969 . S
Zn261 O275 1.965 . S
Zn261 O277 2.024 . S
C262 O263 1.229 . S
C262 O271 1.058 . S
O263 C262 1.229 . S
C264 O265 1.229 . S
C264 O277 1.058 . S
O265 C264 1.229 . S
O266 Zn260 1.969 . S
O266 C269 1.267 . S
O267 Zn260 1.965 . S
O267 C278 1.260 . S
O268 Zn261 1.969 . S
O268 C278 1.258 . S
C269 O266 1.267 . S
C269 O270 1.228 . S
O270 C269 1.228 . S
O271 Zn260 2.024 . S
O271 C262 1.058 . S
C272 O273 1.228 . S
C272 O274 1.267 . S
O273 C272 1.228 . S
O274 Zn261 1.969 . S
O274 C272 1.267 . S
O275 Zn261 1.965 . S
O275 C279 1.260 . S
O276 Zn260 1.969 . S
O276 C279 1.258 . S
O277 Zn261 2.024 . S
O277 C264 1.058 . S
C278 O267 1.260 . S
C278 O268 1.258 . S
C279 O275 1.260 . S
C279 O276 1.258 . S
Zn280 O286 1.969 . S
Zn280 O287 1.965 . S
Zn280 O291 2.024 . S
Zn280 O296 1.969 . S
Zn281 O288 1.969 . S
Zn281 O294 1.969 . S
Zn281 O295 1.965 . S
Zn281 O297 2.024 . S
C282 O283 1.229 . S
C282 O291 1.058 . S
O283 C282 1.229 . S
C284 O285 1.229 . S
C284 O297 1.058 . S
O285 C284 1.229 . S
O286 Zn280 1.969 . S
O286 C289 1.267 . S
O287 Zn280 1.965 . S
O287 C298 1.260 . S
O288 Zn281 1.969 . S
O288 C298 1.258 . S
C289 O286 1.267 . S
C289 O290 1.228 . S
O290 C289 1.228 . S
O291 Zn280 2.024 . S
O291 C282 1.058 . S
C292 O293 1.228 . S
C292 O294 1.267 . S
O293 C292 1.228 . S
O294 Zn281 1.969 . S
O294 C292 1.267 . S
O295 Zn281 1.965 . S
O295 C299 1.260 . S
O296 Zn280 1.969 . S
O296 C299 1.258 . S
O297 Zn281 2.024 . S
O297 C284 1.058 . S
C298 O287 1.260 . S
C298 O288 1.258 . S
C299 O295 1.260 . S
C299 O296 1.258 . S
Zn300 O306 1.969 . S
Zn300 O307 1.965 . S
Zn300 O311 2.024 1_554 S
Zn300 O316 1.969 1_454 S
Zn301 O308 1.969 1_656 S
Zn301 O314 1.969 . S
Zn301 O315 1.965 . S
Zn301 O317 2.024 1_556 S
C302 O303 1.229 . S
C302 O311 1.058 . S
O303 C302 1.229 . S
C304 O305 1.229 . S
C304 O317 1.058 . S
O305 C304 1.229 . S
O306 Zn300 1.969 . S
O306 C309 1.267 . S
O307 Zn300 1.965 . S
O307 C318 1.260 . S
O308 Zn301 1.969 1_454 S
O308 C318 1.258 . S
C309 O306 1.267 . S
C309 O310 1.228 . S
O310 C309 1.228 . S
O311 Zn300 2.024 1_556 S
O311 C302 1.058 . S
C312 O313 1.228 . S
C312 O314 1.267 . S
O313 C312 1.228 . S
O314 Zn301 1.969 . S
O314 C312 1.267 . S
O315 Zn301 1.965 . S
O315 C319 1.260 . S
O316 Zn300 1.969 1_656 S
O316 C319 1.258 . S
O317 Zn301 2.024 1_554 S
O317 C304 1.058 . S
C318 O307 1.260 . S
C318 O308 1.258 . S
C319 O315 1.260 . S
C319 O316 1.258 . S
C320 C321 1.369 . S
C320 C322 1.419 . S
C320 H324 0.930 . S
C321 C320 1.369 . S
C321 C330 1.429 . S
C322 C320 1.419 . S
C322 C323 1.363 . S
C322 H325 0.929 . S
C323 C322 1.363 . S
C323 C329 1.428 . S
H324 C320 0.930 . S
H325 C322 0.929 . S
S326 N327 1.613 1_554 S
S326 N328 1.610 . S
N327 S326 1.613 1_556 S
N327 C330 1.350 . S
N328 S326 1.610 . S
N328 C329 1.351 1_554 S
C329 C323 1.428 . S
C329 N328 1.351 1_556 S
C329 C330 1.434 . S
C330 C321 1.429 . S
C330 N327 1.350 . S
C330 C329 1.434 . S
C331 C332 1.369 . S
C331 C333 1.419 . S
C331 H335 0.930 . S
C332 C331 1.369 . S
C332 C341 1.429 . S
C333 C331 1.419 . S
C333 C334 1.363 . S
C333 H336 0.929 . S
C334 C333 1.363 . S
C334 C340 1.428 . S
H335 C331 0.930 . S
H336 C333 0.929 . S
S337 N338 1.613 . S
S337 N339 1.610 . S
N338 S337 1.613 . S
N338 C341 1.350 . S
N339 S337 1.610 . S
N339 C340 1.351 . S
C340 C334 1.428 . S
C340 N339 1.351 . S
C340 C341 1.434 . S
C341 C332 1.429 . S
C341 N338 1.350 . S
C341 C340 1.434 . S
C342 C343 1.369 . S
C342 C344 1.419 . S
C342 H346 0.930 . S
C343 C342 1.369 . S
C343 C352 1.429 . S
C344 C342 1.419 . S
C344 C345 1.363 . S
C344 H347 0.929 . S
C345 C344 1.363 . S
C345 C351 1.428 . S
H346 C342 0.930 . S
H347 C344 0.929 . S
S348 N349 1.613 . S
S348 N350 1.610 . S
N349 S348 1.613 . S
N349 C352 1.350 . S
N350 S348 1.610 . S
N350 C351 1.351 . S
C351 C345 1.428 . S
C351 N350 1.351 . S
C351 C352 1.434 . S
C352 C343 1.429 . S
C352 N349 1.350 . S
C352 C351 1.434 . S
C353 C354 1.369 . S
C353 C355 1.419 . S
C353 H357 0.930 . S
C354 C353 1.369 . S
C354 C363 1.429 . S
C355 C353 1.419 . S
C355 C356 1.363 . S
C355 H358 0.929 . S
C356 C355 1.363 . S
C356 C362 1.428 . S
H357 C353 0.930 . S
H358 C355 0.929 . S
S359 N360 1.613 . S
S359 N361 1.610 . S
N360 S359 1.613 . S
N360 C363 1.350 . S
N361 S359 1.610 . S
N361 C362 1.351 . S
C362 C356 1.428 . S
C362 N361 1.351 . S
C362 C363 1.434 . S
C363 C354 1.429 . S
C363 N360 1.350 . S
C363 C362 1.434 . S
C364 C365 1.369 . S
C364 C366 1.419 . S
C364 H368 0.930 . S
C365 C364 1.369 . S
C365 C374 1.429 . S
C366 C364 1.419 . S
C366 C367 1.363 . S
C366 H369 0.929 . S
C367 C366 1.363 . S
C367 C373 1.428 . S
H368 C364 0.930 . S
H369 C366 0.929 . S
S370 N371 1.613 . S
S370 N372 1.610 . S
N371 S370 1.613 . S
N371 C374 1.350 . S
N372 S370 1.610 . S
N372 C373 1.351 . S
C373 C367 1.428 . S
C373 N372 1.351 . S
C373 C374 1.434 . S
C374 C365 1.429 . S
C374 N371 1.350 . S
C374 C373 1.434 . S
C375 C376 1.369 . S
C375 C377 1.419 . S
C375 H379 0.930 . S
C376 C375 1.369 . S
C376 C385 1.429 . S
C377 C375 1.419 . S
C377 C378 1.363 . S
C377 H380 0.929 . S
C378 C377 1.363 . S
C378 C384 1.428 . S
H379 C375 0.930 . S
H380 C377 0.929 . S
S381 N382 1.613 . S
S381 N383 1.610 . S
N382 S381 1.613 . S
N382 C385 1.350 . S
N383 S381 1.610 . S
N383 C384 1.351 . S
C384 C378 1.428 . S
C384 N383 1.351 . S
C384 C385 1.434 . S
C385 C376 1.429 . S
C385 N382 1.350 . S
C385 C384 1.434 . S
C386 C387 1.369 . S
C386 C388 1.419 . S
C386 H390 0.930 . S
C387 C386 1.369 . S
C387 C396 1.429 . S
C388 C386 1.419 . S
C388 C389 1.363 . S
C388 H391 0.929 . S
C389 C388 1.363 . S
C389 C395 1.428 . S
H390 C386 0.930 . S
H391 C388 0.929 . S
S392 N393 1.613 . S
S392 N394 1.610 . S
N393 S392 1.613 . S
N393 C396 1.350 . S
N394 S392 1.610 . S
N394 C395 1.351 . S
C395 C389 1.428 . S
C395 N394 1.351 . S
C395 C396 1.434 . S
C396 C387 1.429 . S
C396 N393 1.350 . S
C396 C395 1.434 . S
C397 C398 1.369 . S
C397 C399 1.419 . S
C397 H401 0.930 . S
C398 C397 1.369 . S
C398 C407 1.429 . S
C399 C397 1.419 . S
C399 C400 1.363 . S
C399 H402 0.929 . S
C400 C399 1.363 . S
C400 C406 1.428 . S
H401 C397 0.930 . S
H402 C399 0.929 . S
S403 N404 1.613 . S
S403 N405 1.610 . S
N404 S403 1.613 . S
N404 C407 1.350 . S
N405 S403 1.610 . S
N405 C406 1.351 . S
C406 C400 1.428 . S
C406 N405 1.351 . S
C406 C407 1.434 . S
C407 C398 1.429 . S
C407 N404 1.350 . S
C407 C406 1.434 . S
C408 C409 1.369 . S
C408 C410 1.419 . S
C408 H412 0.930 . S
C409 C408 1.369 . S
C409 C418 1.429 . S
C410 C408 1.419 . S
C410 C411 1.363 . S
C410 H413 0.929 . S
C411 C410 1.363 . S
C411 C417 1.428 . S
H412 C408 0.930 . S
H413 C410 0.929 . S
S414 N415 1.613 1_455 S
S414 N416 1.610 . S
N415 S414 1.613 1_655 S
N415 C418 1.350 . S
N416 S414 1.610 . S
N416 C417 1.351 1_455 S
C417 C411 1.428 . S
C417 N416 1.351 1_655 S
C417 C418 1.434 . S
C418 C409 1.429 . S
C418 N415 1.350 . S
C418 C417 1.434 . S
C419 C420 1.369 . S
C419 C421 1.419 . S
C419 H423 0.930 . S
C420 C419 1.369 . S
C420 C429 1.429 . S
C421 C419 1.419 . S
C421 C422 1.363 . S
C421 H424 0.929 . S
C422 C421 1.363 . S
C422 C428 1.428 . S
H423 C419 0.930 . S
H424 C421 0.929 . S
S425 N426 1.613 . S
S425 N427 1.610 . S
N426 S425 1.613 . S
N426 C429 1.350 . S
N427 S425 1.610 . S
N427 C428 1.351 . S
C428 C422 1.428 . S
C428 N427 1.351 . S
C428 C429 1.434 . S
C429 C420 1.429 . S
C429 N426 1.350 . S
C429 C428 1.434 . S
C430 C431 1.369 . S
C430 C432 1.419 . S
C430 H434 0.930 . S
C431 C430 1.369 . S
C431 C440 1.429 . S
C432 C430 1.419 . S
C432 C433 1.363 . S
C432 H435 0.929 . S
C433 C432 1.363 . S
C433 C439 1.428 . S
H434 C430 0.930 . S
H435 C432 0.929 . S
S436 N437 1.613 . S
S436 N438 1.610 . S
N437 S436 1.613 . S
N437 C440 1.350 . S
N438 S436 1.610 . S
N438 C439 1.351 . S
C439 C433 1.428 . S
C439 N438 1.351 . S
C439 C440 1.434 . S
C440 C431 1.429 . S
C440 N437 1.350 . S
C440 C439 1.434 . S
C441 C442 1.369 . S
C441 C443 1.419 . S
C441 H445 0.930 . S
C442 C441 1.369 . S
C442 C451 1.429 . S
C443 C441 1.419 . S
C443 C444 1.363 . S
C443 H446 0.929 . S
C444 C443 1.363 . S
C444 C450 1.428 . S
H445 C441 0.930 . S
H446 C443 0.929 . S
S447 N448 1.613 . S
S447 N449 1.610 . S
N448 S447 1.613 . S
N448 C451 1.350 . S
N449 S447 1.610 . S
N449 C450 1.351 . S
C450 C444 1.428 . S
C450 N449 1.351 . S
C450 C451 1.434 . S
C451 C442 1.429 . S
C451 N448 1.350 . S
C451 C450 1.434 . S
C452 C453 1.369 . S
C452 C454 1.419 . S
C452 H456 0.930 . S
C453 C452 1.369 . S
C453 C462 1.429 . S
C454 C452 1.419 . S
C454 C455 1.363 . S
C454 H457 0.929 . S
C455 C454 1.363 . S
C455 C461 1.428 . S
H456 C452 0.930 . S
H457 C454 0.929 . S
S458 N459 1.613 . S
S458 N460 1.610 . S
N459 S458 1.613 . S
N459 C462 1.350 . S
N460 S458 1.610 . S
N460 C461 1.351 . S
C461 C455 1.428 . S
C461 N460 1.351 . S
C461 C462 1.434 . S
C462 C453 1.429 . S
C462 N459 1.350 . S
C462 C461 1.434 . S
C463 C464 1.369 . S
C463 C465 1.419 . S
C463 H467 0.930 . S
C464 C463 1.369 . S
C464 C473 1.429 . S
C465 C463 1.419 . S
C465 C466 1.363 . S
C465 H468 0.929 . S
C466 C465 1.363 . S
C466 C472 1.428 . S
H467 C463 0.930 . S
H468 C465 0.929 . S
S469 N470 1.613 . S
S469 N471 1.610 . S
N470 S469 1.613 . S
N470 C473 1.350 . S
N471 S469 1.610 . S
N471 C472 1.351 . S
C472 C466 1.428 . S
C472 N471 1.351 . S
C472 C473 1.434 . S
C473 C464 1.429 . S
C473 N470 1.350 . S
C473 C472 1.434 . S
C474 C475 1.369 . S
C474 C476 1.419 . S
C474 H478 0.930 . S
C475 C474 1.369 . S
C475 C484 1.429 . S
C476 C474 1.419 . S
C476 C477 1.363 . S
C476 H479 0.929 . S
C477 C476 1.363 . S
C477 C483 1.428 . S
H478 C474 0.930 . S
H479 C476 0.929 . S
S480 N481 1.613 . S
S480 N482 1.610 . S
N481 S480 1.613 . S
N481 C484 1.350 . S
N482 S480 1.610 . S
N482 C483 1.351 . S
C483 C477 1.428 . S
C483 N482 1.351 . S
C483 C484 1.434 . S
C484 C475 1.429 . S
C484 N481 1.350 . S
C484 C483 1.434 . S
C485 C486 1.369 . S
C485 C487 1.419 . S
C485 H489 0.930 . S
C486 C485 1.369 . S
C486 C495 1.429 . S
C487 C485 1.419 . S
C487 C488 1.363 . S
C487 H490 0.929 . S
C488 C487 1.363 . S
C488 C494 1.428 . S
H489 C485 0.930 . S
H490 C487 0.929 . S
S491 N492 1.613 . S
S491 N493 1.610 . S
N492 S491 1.613 . S
N492 C495 1.350 . S
N493 S491 1.610 . S
N493 C494 1.351 . S
C494 C488 1.428 . S
C494 N493 1.351 . S
C494 C495 1.434 . S
C495 C486 1.429 . S
C495 N492 1.350 . S
C495 C494 1.434 . S
C496 C497 1.369 . S
C496 C498 1.419 . S
C496 H500 0.930 . S
C497 C496 1.369 . S
C497 C506 1.429 . S
C498 C496 1.419 . S
C498 C499 1.363 . S
C498 H501 0.929 . S
C499 C498 1.363 . S
C499 C505 1.428 . S
H500 C496 0.930 . S
H501 C498 0.929 . S
S502 N503 1.613 . S
S502 N504 1.610 . S
N503 S502 1.613 . S
N503 C506 1.350 . S
N504 S502 1.610 . S
N504 C505 1.351 . S
C505 C499 1.428 . S
C505 N504 1.351 . S
C505 C506 1.434 . S
C506 C497 1.429 . S
C506 N503 1.350 . S
C506 C505 1.434 . S
C507 C508 1.369 . S
C507 C509 1.419 . S
C507 H511 0.930 . S
C508 C507 1.369 . S
C508 C517 1.429 . S
C509 C507 1.419 . S
C509 C510 1.363 . S
C509 H512 0.929 . S
C510 C509 1.363 . S
C510 C516 1.428 . S
H511 C507 0.930 . S
H512 C509 0.929 . S
S513 N514 1.613 . S
S513 N515 1.610 . S
N514 S513 1.613 . S
N514 C517 1.350 . S
N515 S513 1.610 . S
N515 C516 1.351 . S
C516 C510 1.428 . S
C516 N515 1.351 . S
C516 C517 1.434 . S
C517 C508 1.429 . S
C517 N514 1.350 . S
C517 C516 1.434 . S
C518 C519 1.369 . S
C518 C520 1.419 . S
C518 H522 0.930 . S
C519 C518 1.369 . S
C519 C528 1.429 . S
C520 C518 1.419 . S
C520 C521 1.363 . S
C520 H523 0.929 . S
C521 C520 1.363 . S
C521 C527 1.428 . S
H522 C518 0.930 . S
H523 C520 0.929 . S
S524 N525 1.613 . S
S524 N526 1.610 . S
N525 S524 1.613 . S
N525 C528 1.350 . S
N526 S524 1.610 . S
N526 C527 1.351 . S
C527 C521 1.428 . S
C527 N526 1.351 . S
C527 C528 1.434 . S
C528 C519 1.429 . S
C528 N525 1.350 . S
C528 C527 1.434 . S
C529 C530 1.369 . S
C529 C531 1.419 . S
C529 H533 0.930 . S
C530 C529 1.369 . S
C530 C539 1.429 . S
C531 C529 1.419 . S
C531 C532 1.363 . S
C531 H534 0.929 . S
C532 C531 1.363 . S
C532 C538 1.428 . S
H533 C529 0.930 . S
H534 C531 0.929 . S
S535 N536 1.613 . S
S535 N537 1.610 . S
N536 S535 1.613 . S
N536 C539 1.350 . S
N537 S535 1.610 . S
N537 C538 1.351 . S
C538 C532 1.428 . S
C538 N537 1.351 . S
C538 C539 1.434 . S
C539 C530 1.429 . S
C539 N536 1.350 . S
C539 C538 1.434 . S
C540 C541 1.369 . S
C540 C542 1.419 . S
C540 H544 0.930 . S
C541 C540 1.369 . S
C541 C550 1.429 . S
C542 C540 1.419 . S
C542 C543 1.363 . S
C542 H545 0.929 . S
C543 C542 1.363 . S
C543 C549 1.428 . S
H544 C540 0.930 . S
H545 C542 0.929 . S
S546 N547 1.613 . S
S546 N548 1.610 . S
N547 S546 1.613 . S
N547 C550 1.350 . S
N548 S546 1.610 . S
N548 C549 1.351 . S
C549 C543 1.428 . S
C549 N548 1.351 . S
C549 C550 1.434 . S
C550 C541 1.429 . S
C550 N547 1.350 . S
C550 C549 1.434 . S
C551 C552 1.369 . S
C551 C553 1.419 . S
C551 H555 0.930 . S
C552 C551 1.369 . S
C552 C561 1.429 . S
C553 C551 1.419 . S
C553 C554 1.363 . S
C553 H556 0.929 . S
C554 C553 1.363 . S
C554 C560 1.428 . S
H555 C551 0.930 . S
H556 C553 0.929 . S
S557 N558 1.613 . S
S557 N559 1.610 . S
N558 S557 1.613 . S
N558 C561 1.350 . S
N559 S557 1.610 . S
N559 C560 1.351 . S
C560 C554 1.428 . S
C560 N559 1.351 . S
C560 C561 1.434 . S
C561 C552 1.429 . S
C561 N558 1.350 . S
C561 C560 1.434 . S
C562 C563 1.369 . S
C562 C564 1.419 . S
C562 H566 0.930 . S
C563 C562 1.369 . S
C563 C572 1.429 . S
C564 C562 1.419 . S
C564 C565 1.363 . S
C564 H567 0.929 . S
C565 C564 1.363 . S
C565 C571 1.428 . S
H566 C562 0.930 . S
H567 C564 0.929 . S
S568 N569 1.613 . S
S568 N570 1.610 . S
N569 S568 1.613 . S
N569 C572 1.350 . S
N570 S568 1.610 . S
N570 C571 1.351 . S
C571 C565 1.428 . S
C571 N570 1.351 . S
C571 C572 1.434 . S
C572 C563 1.429 . S
C572 N569 1.350 . S
C572 C571 1.434 . S
C573 C574 1.369 . S
C573 C575 1.419 . S
C573 H577 0.930 . S
C574 C573 1.369 . S
C574 C583 1.429 . S
C575 C573 1.419 . S
C575 C576 1.363 . S
C575 H578 0.929 . S
C576 C575 1.363 . S
C576 C582 1.428 . S
H577 C573 0.930 . S
H578 C575 0.929 . S
S579 N580 1.613 . S
S579 N581 1.610 . S
N580 S579 1.613 . S
N580 C583 1.350 . S
N581 S579 1.610 . S
N581 C582 1.351 . S
C582 C576 1.428 . S
C582 N581 1.351 . S
C582 C583 1.434 . S
C583 C574 1.429 . S
C583 N580 1.350 . S
C583 C582 1.434 . S
C584 C585 1.369 . S
C584 C586 1.419 . S
C584 H588 0.930 . S
C585 C584 1.369 . S
C585 C594 1.429 . S
C586 C584 1.419 . S
C586 C587 1.363 . S
C586 H589 0.929 . S
C587 C586 1.363 . S
C587 C593 1.428 . S
H588 C584 0.930 . S
H589 C586 0.929 . S
S590 N591 1.613 . S
S590 N592 1.610 . S
N591 S590 1.613 . S
N591 C594 1.350 . S
N592 S590 1.610 . S
N592 C593 1.351 . S
C593 C587 1.428 . S
C593 N592 1.351 . S
C593 C594 1.434 . S
C594 C585 1.429 . S
C594 N591 1.350 . S
C594 C593 1.434 . S
C595 C596 1.369 . S
C595 C597 1.419 . S
C595 H599 0.930 . S
C596 C595 1.369 . S
C596 C605 1.429 . S
C597 C595 1.419 . S
C597 C598 1.363 . S
C597 H600 0.929 . S
C598 C597 1.363 . S
C598 C604 1.428 . S
H599 C595 0.930 . S
H600 C597 0.929 . S
S601 N602 1.613 . S
S601 N603 1.610 . S
N602 S601 1.613 . S
N602 C605 1.350 . S
N603 S601 1.610 . S
N603 C604 1.351 . S
C604 C598 1.428 . S
C604 N603 1.351 . S
C604 C605 1.434 . S
C605 C596 1.429 . S
C605 N602 1.350 . S
C605 C604 1.434 . S
C606 C607 1.369 . S
C606 C608 1.419 . S
C606 H610 0.930 . S
C607 C606 1.369 . S
C607 C616 1.429 . S
C608 C606 1.419 . S
C608 C609 1.363 . S
C608 H611 0.929 . S
C609 C608 1.363 . S
C609 C615 1.428 . S
H610 C606 0.930 . S
H611 C608 0.929 . S
S612 N613 1.613 . S
S612 N614 1.610 . S
N613 S612 1.613 . S
N613 C616 1.350 . S
N614 S612 1.610 . S
N614 C615 1.351 . S
C615 C609 1.428 . S
C615 N614 1.351 . S
C615 C616 1.434 . S
C616 C607 1.429 . S
C616 N613 1.350 . S
C616 C615 1.434 . S
C617 C618 1.369 . S
C617 C619 1.419 . S
C617 H621 0.930 . S
C618 C617 1.369 . S
C618 C627 1.429 . S
C619 C617 1.419 . S
C619 C620 1.363 . S
C619 H622 0.929 . S
C620 C619 1.363 . S
C620 C626 1.428 . S
H621 C617 0.930 . S
H622 C619 0.929 . S
S623 N624 1.613 . S
S623 N625 1.610 . S
N624 S623 1.613 . S
N624 C627 1.350 . S
N625 S623 1.610 . S
N625 C626 1.351 . S
C626 C620 1.428 . S
C626 N625 1.351 . S
C626 C627 1.434 . S
C627 C618 1.429 . S
C627 N624 1.350 . S
C627 C626 1.434 . S
C628 C629 1.369 . S
C628 C630 1.419 . S
C628 H632 0.930 . S
C629 C628 1.369 . S
C629 C638 1.429 . S
C630 C628 1.419 . S
C630 C631 1.363 . S
C630 H633 0.929 . S
C631 C630 1.363 . S
C631 C637 1.428 . S
H632 C628 0.930 . S
H633 C630 0.929 . S
S634 N635 1.613 . S
S634 N636 1.610 . S
N635 S634 1.613 . S
N635 C638 1.350 . S
N636 S634 1.610 . S
N636 C637 1.351 . S
C637 C631 1.428 . S
C637 N636 1.351 . S
C637 C638 1.434 . S
C638 C629 1.429 . S
C638 N635 1.350 . S
C638 C637 1.434 . S
C639 C640 1.369 . S
C639 C641 1.419 . S
C639 H643 0.930 . S
C640 C639 1.369 . S
C640 C649 1.429 . S
C641 C639 1.419 . S
C641 C642 1.363 . S
C641 H644 0.929 . S
C642 C641 1.363 . S
C642 C648 1.428 . S
H643 C639 0.930 . S
H644 C641 0.929 . S
S645 N646 1.613 . S
S645 N647 1.610 . S
N646 S645 1.613 . S
N646 C649 1.350 . S
N647 S645 1.610 . S
N647 C648 1.351 . S
C648 C642 1.428 . S
C648 N647 1.351 . S
C648 C649 1.434 . S
C649 C640 1.429 . S
C649 N646 1.350 . S
C649 C648 1.434 . S
C650 C651 1.369 . S
C650 C652 1.419 . S
C650 H654 0.930 . S
C651 C650 1.369 . S
C651 C660 1.429 . S
C652 C650 1.419 . S
C652 C653 1.363 . S
C652 H655 0.929 . S
C653 C652 1.363 . S
C653 C659 1.428 . S
H654 C650 0.930 . S
H655 C652 0.929 . S
S656 N657 1.613 . S
S656 N658 1.610 . S
N657 S656 1.613 . S
N657 C660 1.350 . S
N658 S656 1.610 . S
N658 C659 1.351 . S
C659 C653 1.428 . S
C659 N658 1.351 . S
C659 C660 1.434 . S
C660 C651 1.429 . S
C660 N657 1.350 . S
C660 C659 1.434 . S
C661 C662 1.369 . S
C661 C663 1.419 . S
C661 H665 0.930 . S
C662 C661 1.369 . S
C662 C671 1.429 . S
C663 C661 1.419 . S
C663 C664 1.363 . S
C663 H666 0.929 . S
C664 C663 1.363 . S
C664 C670 1.428 . S
H665 C661 0.930 . S
H666 C663 0.929 . S
S667 N668 1.613 . S
S667 N669 1.610 . S
N668 S667 1.613 . S
N668 C671 1.350 . S
N669 S667 1.610 . S
N669 C670 1.351 . S
C670 C664 1.428 . S
C670 N669 1.351 . S
C670 C671 1.434 . S
C671 C662 1.429 . S
C671 N668 1.350 . S
C671 C670 1.434 . S
C672 C673 1.369 . S
C672 C674 1.419 . S
C672 H676 0.930 . S
C673 C672 1.369 . S
C673 C682 1.429 . S
C674 C672 1.419 . S
C674 C675 1.363 . S
C674 H677 0.929 . S
C675 C674 1.363 . S
C675 C681 1.428 . S
H676 C672 0.930 . S
H677 C674 0.929 . S
S678 N679 1.613 . S
S678 N680 1.610 . S
N679 S678 1.613 . S
N679 C682 1.350 . S
N680 S678 1.610 . S
N680 C681 1.351 . S
C681 C675 1.428 . S
C681 N680 1.351 . S
C681 C682 1.434 . S
C682 C673 1.429 . S
C682 N679 1.350 . S
C682 C681 1.434 . S
C683 C684 1.369 . S
C683 C685 1.419 . S
C683 H687 0.930 . S
C684 C683 1.369 . S
C684 C693 1.429 . S
C685 C683 1.419 . S
C685 C686 1.363 . S
C685 H688 0.929 . S
C686 C685 1.363 . S
C686 C692 1.428 . S
H687 C683 0.930 . S
H688 C685 0.929 . S
S689 N690 1.613 . S
S689 N691 1.610 . S
N690 S689 1.613 . S
N690 C693 1.350 . S
N691 S689 1.610 . S
N691 C692 1.351 . S
C692 C686 1.428 . S
C692 N691 1.351 . S
C692 C693 1.434 . S
C693 C684 1.429 . S
C693 N690 1.350 . S
C693 C692 1.434 . S
C694 C695 1.369 . S
C694 C696 1.419 . S
C694 H698 0.930 . S
C695 C694 1.369 . S
C695 C704 1.429 . S
C696 C694 1.419 . S
C696 C697 1.363 . S
C696 H699 0.929 . S
C697 C696 1.363 . S
C697 C703 1.428 . S
H698 C694 0.930 . S
H699 C696 0.929 . S
S700 N701 1.613 . S
S700 N702 1.610 . S
N701 S700 1.613 . S
N701 C704 1.350 . S
N702 S700 1.610 . S
N702 C703 1.351 . S
C703 C697 1.428 . S
C703 N702 1.351 . S
C703 C704 1.434 . S
C704 C695 1.429 . S
C704 N701 1.350 . S
C704 C703 1.434 . S
C705 C706 1.369 . S
C705 C707 1.419 . S
C705 H709 0.930 . S
C706 C705 1.369 . S
C706 C715 1.429 . S
C707 C705 1.419 . S
C707 C708 1.363 . S
C707 H710 0.929 . S
C708 C707 1.363 . S
C708 C714 1.428 . S
H709 C705 0.930 . S
H710 C707 0.929 . S
S711 N712 1.613 . S
S711 N713 1.610 . S
N712 S711 1.613 . S
N712 C715 1.350 . S
N713 S711 1.610 . S
N713 C714 1.351 . S
C714 C708 1.428 . S
C714 N713 1.351 . S
C714 C715 1.434 . S
C715 C706 1.429 . S
C715 N712 1.350 . S
C715 C714 1.434 . S
C716 C717 1.369 . S
C716 C718 1.419 . S
C716 H720 0.930 . S
C717 C716 1.369 . S
C717 C726 1.429 . S
C718 C716 1.419 . S
C718 C719 1.363 . S
C718 H721 0.929 . S
C719 C718 1.363 . S
C719 C725 1.428 . S
H720 C716 0.930 . S
H721 C718 0.929 . S
S722 N723 1.613 . S
S722 N724 1.610 . S
N723 S722 1.613 . S
N723 C726 1.350 . S
N724 S722 1.610 . S
N724 C725 1.351 . S
C725 C719 1.428 . S
C725 N724 1.351 . S
C725 C726 1.434 . S
C726 C717 1.429 . S
C726 N723 1.350 . S
C726 C725 1.434 . S
C727 C728 1.369 . S
C727 C729 1.419 . S
C727 H731 0.930 . S
C728 C727 1.369 . S
C728 C737 1.429 . S
C729 C727 1.419 . S
C729 C730 1.363 . S
C729 H732 0.929 . S
C730 C729 1.363 . S
C730 C736 1.428 . S
H731 C727 0.930 . S
H732 C729 0.929 . S
S733 N734 1.613 . S
S733 N735 1.610 . S
N734 S733 1.613 . S
N734 C737 1.350 . S
N735 S733 1.610 . S
N735 C736 1.351 . S
C736 C730 1.428 . S
C736 N735 1.351 . S
C736 C737 1.434 . S
C737 C728 1.429 . S
C737 N734 1.350 . S
C737 C736 1.434 . S
C738 C739 1.369 . S
C738 C740 1.419 . S
C738 H742 0.930 . S
C739 C738 1.369 . S
C739 C748 1.429 . S
C740 C738 1.419 . S
C740 C741 1.363 . S
C740 H743 0.929 . S
C741 C740 1.363 . S
C741 C747 1.428 . S
H742 C738 0.930 . S
H743 C740 0.929 . S
S744 N745 1.613 . S
S744 N746 1.610 . S
N745 S744 1.613 . S
N745 C748 1.350 . S
N746 S744 1.610 . S
N746 C747 1.351 . S
C747 C741 1.428 . S
C747 N746 1.351 . S
C747 C748 1.434 . S
C748 C739 1.429 . S
C748 N745 1.350 . S
C748 C747 1.434 . S
C749 C750 1.369 . S
C749 C751 1.419 . S
C749 H753 0.930 . S
C750 C749 1.369 . S
C750 C759 1.429 . S
C751 C749 1.419 . S
C751 C752 1.363 . S
C751 H754 0.929 . S
C752 C751 1.363 . S
C752 C758 1.428 . S
H753 C749 0.930 . S
H754 C751 0.929 . S
S755 N756 1.613 . S
S755 N757 1.610 . S
N756 S755 1.613 . S
N756 C759 1.350 . S
N757 S755 1.610 . S
N757 C758 1.351 . S
C758 C752 1.428 . S
C758 N757 1.351 . S
C758 C759 1.434 . S
C759 C750 1.429 . S
C759 N756 1.350 . S
C759 C758 1.434 . S
C760 C761 1.369 . S
C760 C762 1.419 . S
C760 H764 0.930 . S
C761 C760 1.369 . S
C761 C770 1.429 . S
C762 C760 1.419 . S
C762 C763 1.363 . S
C762 H765 0.929 . S
C763 C762 1.363 . S
C763 C769 1.428 . S
H764 C760 0.930 . S
H765 C762 0.929 . S
S766 N767 1.613 . S
S766 N768 1.610 . S
N767 S766 1.613 . S
N767 C770 1.350 . S
N768 S766 1.610 . S
N768 C769 1.351 . S
C769 C763 1.428 . S
C769 N768 1.351 . S
C769 C770 1.434 . S
C770 C761 1.429 . S
C770 N767 1.350 . S
C770 C769 1.434 . S
C771 C772 1.369 . S
C771 C773 1.419 . S
C771 H775 0.930 . S
C772 C771 1.369 . S
C772 C781 1.429 . S
C773 C771 1.419 . S
C773 C774 1.363 . S
C773 H776 0.929 . S
C774 C773 1.363 . S
C774 C780 1.428 . S
H775 C771 0.930 . S
H776 C773 0.929 . S
S777 N778 1.613 . S
S777 N779 1.610 . S
N778 S777 1.613 . S
N778 C781 1.350 . S
N779 S777 1.610 . S
N779 C780 1.351 . S
C780 C774 1.428 . S
C780 N779 1.351 . S
C780 C781 1.434 . S
C781 C772 1.429 . S
C781 N778 1.350 . S
C781 C780 1.434 . S
C782 C783 1.369 . S
C782 C784 1.419 . S
C782 H786 0.930 . S
C783 C782 1.369 . S
C783 C792 1.429 . S
C784 C782 1.419 . S
C784 C785 1.363 . S
C784 H787 0.929 . S
C785 C784 1.363 . S
C785 C791 1.428 . S
H786 C782 0.930 . S
H787 C784 0.929 . S
S788 N789 1.613 . S
S788 N790 1.610 . S
N789 S788 1.613 . S
N789 C792 1.350 . S
N790 S788 1.610 . S
N790 C791 1.351 . S
C791 C785 1.428 . S
C791 N790 1.351 . S
C791 C792 1.434 . S
C792 C783 1.429 . S
C792 N789 1.350 . S
C792 C791 1.434 . S
C793 C794 1.369 . S
C793 C795 1.419 . S
C793 H797 0.930 . S
C794 C793 1.369 . S
C794 C803 1.429 . S
C795 C793 1.419 . S
C795 C796 1.363 . S
C795 H798 0.929 . S
C796 C795 1.363 . S
C796 C802 1.428 . S
H797 C793 0.930 . S
H798 C795 0.929 . S
S799 N800 1.613 1_455 S
S799 N801 1.610 1_455 S
N800 S799 1.613 1_655 S
N800 C803 1.350 . S
N801 S799 1.610 1_655 S
N801 C802 1.351 . S
C802 C796 1.428 . S
C802 N801 1.351 . S
C802 C803 1.434 . S
C803 C794 1.429 . S
C803 N800 1.350 . S
C803 C802 1.434 . S
C804 C805 1.369 . S
C804 C806 1.419 . S
C804 H808 0.930 . S
C805 C804 1.369 . S
C805 C814 1.429 . S
C806 C804 1.419 . S
C806 C807 1.363 . S
C806 H809 0.929 . S
C807 C806 1.363 . S
C807 C813 1.428 . S
H808 C804 0.930 . S
H809 C806 0.929 . S
S810 N811 1.613 . S
S810 N812 1.610 . S
N811 S810 1.613 . S
N811 C814 1.350 . S
N812 S810 1.610 . S
N812 C813 1.351 . S
C813 C807 1.428 . S
C813 N812 1.351 . S
C813 C814 1.434 . S
C814 C805 1.429 . S
C814 N811 1.350 . S
C814 C813 1.434 . S
C815 C816 1.369 . S
C815 C817 1.419 . S
C815 H819 0.930 . S
C816 C815 1.369 . S
C816 C825 1.429 . S
C817 C815 1.419 . S
C817 C818 1.363 . S
C817 H820 0.929 . S
C818 C817 1.363 . S
C818 C824 1.428 . S
H819 C815 0.930 . S
H820 C817 0.929 . S
S821 N822 1.613 . S
S821 N823 1.610 . S
N822 S821 1.613 . S
N822 C825 1.350 . S
N823 S821 1.610 . S
N823 C824 1.351 . S
C824 C818 1.428 . S
C824 N823 1.351 . S
C824 C825 1.434 . S
C825 C816 1.429 . S
C825 N822 1.350 . S
C825 C824 1.434 . S
C826 C827 1.369 . S
C826 C828 1.419 . S
C826 H830 0.930 . S
C827 C826 1.369 . S
C827 C836 1.429 . S
C828 C826 1.419 . S
C828 C829 1.363 . S
C828 H831 0.929 . S
C829 C828 1.363 . S
C829 C835 1.428 . S
H830 C826 0.930 . S
H831 C828 0.929 . S
S832 N833 1.613 . S
S832 N834 1.610 . S
N833 S832 1.613 . S
N833 C836 1.350 . S
N834 S832 1.610 . S
N834 C835 1.351 . S
C835 C829 1.428 . S
C835 N834 1.351 . S
C835 C836 1.434 . S
C836 C827 1.429 . S
C836 N833 1.350 . S
C836 C835 1.434 . S
C837 C838 1.369 . S
C837 C839 1.419 . S
C837 H841 0.930 . S
C838 C837 1.369 . S
C838 C847 1.429 . S
C839 C837 1.419 . S
C839 C840 1.363 . S
C839 H842 0.929 . S
C840 C839 1.363 . S
C840 C846 1.428 . S
H841 C837 0.930 . S
H842 C839 0.929 . S
S843 N844 1.613 . S
S843 N845 1.610 . S
N844 S843 1.613 . S
N844 C847 1.350 . S
N845 S843 1.610 . S
N845 C846 1.351 . S
C846 C840 1.428 . S
C846 N845 1.351 . S
C846 C847 1.434 . S
C847 C838 1.429 . S
C847 N844 1.350 . S
C847 C846 1.434 . S
C321 C62 1.796 . S
C323 C18 1.844 . S
C332 C12 1.380 . S
C334 C22 1.399 . S
C343 C58 1.274 . S
C345 C38 1.285 . S
C354 C72 1.301 . S
C356 C52 1.235 . S
C365 C84 1.574 . S
C367 C104 1.507 . S
C376 C119 1.276 . S
C378 C139 1.269 . S
C387 C129 1.463 . S
C389 C144 1.375 . S
C398 C89 1.579 . S
C400 C159 1.566 . S
C409 C189 1.451 . S
C411 C2 1.335 . S
C420 C204 0.771 . S
C422 C32 0.785 . S
C431 C42 1.263 . S
C433 C269 1.242 . S
C442 C179 1.215 . S
C444 C78 1.192 . S
C453 C238 1.322 . S
C455 C99 1.349 . S
C464 C282 1.371 . S
C466 C109 1.484 . S
C475 C124 0.776 . S
C477 C252 0.766 . S
C486 C309 1.231 . S
C488 C149 1.164 . S
C497 C169 1.596 . S
C499 C279 1.571 . S
C508 C184 1.529 . S
C510 C164 1.587 . S
C519 C219 1.263 . S
C521 C199 1.275 . S
C530 C298 1.877 . S
C532 C222 1.826 . S
C541 C258 1.259 . S
C543 C319 1.249 . S
C552 C224 1.789 . S
C554 C19 1.843 . S
C563 C244 1.399 . S
C565 C9 1.383 . S
C574 C259 1.283 . S
C576 C59 1.276 . S
C585 C49 1.231 . S
C587 C229 1.298 . S
C596 C182 1.506 . S
C598 C82 1.573 . S
C607 C198 1.283 . S
C609 C138 1.271 . S
C618 C262 1.371 . S
C620 C132 1.462 . S
C629 C92 1.577 . S
C631 C278 1.567 . S
C640 C112 1.443 . S
C642 C4 1.338 . S
C651 C202 0.784 . S
C653 C249 0.779 . S
C662 C44 1.267 . S
C664 C152 1.229 . S
C673 C178 1.207 . S
C675 C239 1.188 . S
C684 C79 1.321 . S
C686 C98 1.345 . S
C695 C192 1.479 . S
C697 C284 1.368 . S
C706 C122 0.778 . S
C708 C29 0.776 . S
C717 C312 1.227 . S
C719 C272 1.173 . S
C728 C172 1.592 . S
C730 C158 1.569 . S
C739 C162 1.585 . S
C741 C102 1.535 . S
C750 C218 1.269 . S
C752 C118 1.276 . S
C761 C64 1.831 . S
C763 C299 1.875 . S
C772 C39 1.254 . S
C774 C318 1.249 . S
C783 C242 1.267 . S
C785 C292 1.269 . S
C794 C232 1.414 . S
C796 C304 1.295 . S
C805 C209 1.479 . S
C807 C264 1.355 . S
C816 C289 1.280 . S
C818 C24 1.267 . S
C827 C69 1.411 . S
C829 C302 1.295 . S
C838 C142 1.351 . S
C840 C212 1.477 . S
