# Generated by pormake.
# Topology nbo, (4)-cn, num edge types: 1
# Building blocks:
#     Node 0, Type 0, BuildingBlock: NAWXER_clean_sbu_0, # of connection points: 4
#     Node 1, Type 0, BuildingBlock: NAWXER_clean_sbu_0, # of connection points: 4
#     Node 2, Type 0, BuildingBlock: NAWXER_clean_sbu_0, # of connection points: 4
#     Node 3, Type 0, BuildingBlock: NAWXER_clean_sbu_0, # of connection points: 4
#     Node 4, Type 0, BuildingBlock: NAWXER_clean_sbu_0, # of connection points: 4
#     Node 5, Type 0, BuildingBlock: NAWXER_clean_sbu_0, # of connection points: 4
#     Edge 6, Type (0, 0), BuildingBlock: EZIPEK_clean_linker_0, # of connection points: 2
#     Edge 7, Type (0, 0), BuildingBlock: EZIPEK_clean_linker_0, # of connection points: 2
#     Edge 8, Type (0, 0), BuildingBlock: EZIPEK_clean_linker_0, # of connection points: 2
#     Edge 9, Type (0, 0), BuildingBlock: EZIPEK_clean_linker_0, # of connection points: 2
#     Edge 10, Type (0, 0), BuildingBlock: EZIPEK_clean_linker_0, # of connection points: 2
#     Edge 11, Type (0, 0), BuildingBlock: EZIPEK_clean_linker_0, # of connection points: 2
#     Edge 12, Type (0, 0), BuildingBlock: EZIPEK_clean_linker_0, # of connection points: 2
#     Edge 13, Type (0, 0), BuildingBlock: EZIPEK_clean_linker_0, # of connection points: 2
#     Edge 14, Type (0, 0), BuildingBlock: EZIPEK_clean_linker_0, # of connection points: 2
#     Edge 15, Type (0, 0), BuildingBlock: EZIPEK_clean_linker_0, # of connection points: 2
#     Edge 16, Type (0, 0), BuildingBlock: EZIPEK_clean_linker_0, # of connection points: 2
#     Edge 17, Type (0, 0), BuildingBlock: EZIPEK_clean_linker_0, # of connection points: 2
# Relax obj value: 0.000
# Max RMSD: 0.000
# Mean RMSD: 0.000
data_MOF--net-nbo--node1-NAWXER_clean_sbu_0--edge1-EZIPEK_clean_linker_0
_symmetry_space_group_name_H-M    P1
_symmetry_Int_Tables_number       1
_symmetry_cell_setting            triclinic
loop_
_symmetry_equiv_pos_as_xyz
'x, y, z'
_cell_length_a     21.225264
_cell_length_b     21.296906
_cell_length_c     21.307959
_cell_angle_alpha  97.689575
_cell_angle_beta   97.113616
_cell_angle_gamma 96.823187
loop_
_atom_site_label
_atom_site_type_symbol
_atom_site_fract_x
_atom_site_fract_y
_atom_site_fract_z
_atom_type_partial_charge
C0 C 1.01327 0.1864 0.47193 0.0
C1 C 0.99438 0.95608 0.47533 0.0
O2 O 1.00944 0.14183 0.42505 0.0
Zn3 Zn 1.01238 0.07202 0.47373 0.0
O4 O 0.02221 0.1738 0.52948 0.0
Zn5 Zn 0.02888 0.08755 0.57434 0.0
O6 O 0.11539 0.096 0.6184 0.0
O7 O 0.11177 0.07678 0.51368 0.0
O8 O 1.01021 0.98791 0.53175 0.0
O9 O 0.98952 0.98603 0.42764 0.0
O10 O 0.93001 0.08218 0.52135 0.0
O11 O 0.95942 0.09061 0.62527 0.0
C12 C 0.1441 0.08579 0.56998 0.0
C13 C 0.91561 0.08848 0.57824 0.0
C14 C 0.47935 0.06073 0.07354 0.0
C15 C 0.4883 0.82848 0.06506 0.0
O16 O 0.53489 0.04368 0.0836 0.0
Zn17 Zn 0.57956 0.96214 0.09341 0.0
O18 O 0.42961 0.01883 0.06624 0.0
Zn19 Zn 0.47425 0.94319 0.07056 0.0
O20 O 0.50831 0.95388 0.16859 0.0
O21 O 0.6136 0.97833 0.18556 0.0
O22 O 0.43674 0.85257 0.05229 0.0
O23 O 0.54126 0.86541 0.08231 0.0
O24 O 0.62708 0.96141 0.01845 0.0
O25 O 0.52231 0.94833 0.99109 0.0
C26 C 0.56051 0.96807 0.20739 0.0
C27 C 0.57837 0.95474 0.9751 0.0
C28 C 0.11141 0.45756 0.92868 0.0
C29 C 0.88544 0.47706 0.93055 0.0
O30 O 0.06435 0.41292 0.92007 0.0
Zn31 Zn 1.00033 0.46824 0.92835 0.0
O32 O 0.10228 0.51634 0.94006 0.0
Zn33 Zn 0.02045 0.56875 0.94825 0.0
O34 O 0.04201 0.61295 0.03525 0.0
O35 O 0.02278 0.50778 0.02838 0.0
O36 O 0.91966 0.53236 0.94319 0.0
O37 O 0.91239 0.428 0.91686 0.0
O38 O 1.0114 0.51487 0.8467 0.0
O39 O 0.02526 0.6189 0.87838 0.0
C40 C 0.03831 0.56327 0.0624 0.0
C41 C 0.022 0.57197 0.83396 0.0
C42 C 0.50077 0.55633 0.04326 0.0
C43 C 0.49311 0.32615 0.03345 0.0
O44 O 0.49738 0.52734 0.9859 0.0
Zn45 Zn 0.49377 0.43041 0.93867 0.0
O46 O 0.50648 0.52564 0.09044 0.0
Zn47 Zn 0.50257 0.44302 0.03995 0.0
O48 O 0.59293 0.44901 1.00243 0.0
O49 O 0.57013 0.43521 0.89711 0.0
O50 O 0.49793 0.36878 0.08219 0.0
O51 O 0.49367 0.34303 0.97804 0.0
O52 O 0.40907 0.41697 0.88801 0.0
O53 O 0.40715 0.43429 0.9921 0.0
C54 C 0.61157 0.44558 0.94711 0.0
C55 C 0.37757 0.42456 0.93494 0.0
C56 C 0.96913 0.67994 0.44884 0.0
C57 C 0.98147 0.4477 0.43738 0.0
O58 O 0.02562 0.66411 0.45557 0.0
Zn59 Zn 0.07268 0.58167 0.45728 0.0
O60 O 0.9202 0.63697 0.43972 0.0
Zn61 Zn 0.96723 0.56318 0.44053 0.0
O62 O 1.00887 0.57589 0.53694 0.0
O63 O 0.11461 0.59449 0.54716 0.0
O64 O 0.92968 0.47194 0.42686 0.0
O65 O 0.03487 0.48457 0.44912 0.0
O66 O 0.11487 0.58039 0.3791 0.0
O67 O 1.00964 0.56804 0.35787 0.0
C68 C 0.06327 0.58674 0.57248 0.0
C69 C 0.06415 0.57319 0.33834 0.0
C70 C 0.65113 0.09338 0.60883 0.0
C71 C 0.4177 0.06521 0.59787 0.0
O72 O 0.62557 0.03472 0.59957 0.0
Zn73 Zn 0.5324 0.97994 0.59123 0.0
O74 O 0.6166 0.138 0.61651 0.0
Zn75 Zn 0.53646 0.08064 0.60616 0.0
O76 O 0.5485 0.03776 0.69278 0.0
O77 O 0.54443 0.93386 0.66211 0.0
O78 O 0.45671 0.11647 0.6046 0.0
O79 O 0.43987 1.01154 0.59439 0.0
O80 O 0.52685 0.93299 0.50563 0.0
O81 O 0.53386 0.03754 0.50811 0.0
C82 C 0.55193 0.98127 0.70663 0.0
C83 C 0.53172 0.98143 0.47669 0.0
C84 C 0.04562 0.28744 0.42821 0.0
C85 C 1.00253 0.25186 0.46006 0.0
C86 C 0.94266 0.34353 0.47566 0.0
C87 C 0.98298 0.37783 0.43946 0.0
N88 N 0.06432 0.37519 0.36901 0.0
N89 N 0.90075 0.24009 0.49973 0.0
C90 C 0.03183 0.34751 0.41201 0.0
C91 C 0.94823 0.2781 0.47942 0.0
N92 N 0.10132 0.2652 0.4157 0.0
N93 N 0.90175 0.37382 0.50998 0.0
H94 H 0.90228 0.19177 0.50185 0.0
H95 H 0.85697 0.25472 0.50794 0.0
H96 H 0.89701 0.422 0.51118 0.0
H97 H 0.8772 0.35271 0.54292 0.0
H98 H 0.13829 0.29255 0.39956 0.0
H99 H 0.11329 0.22152 0.42698 0.0
H100 H 0.09482 0.35189 0.34214 0.0
H101 H 0.05643 0.41894 0.35535 0.0
C102 C 0.79749 0.06305 0.53897 0.0
C103 C 0.84798 0.09451 0.58729 0.0
C104 C 0.76749 0.13388 0.65055 0.0
C105 C 0.71882 0.10639 0.59957 0.0
N106 N 0.69133 0.0685 0.48686 0.0
N107 N 0.87918 0.17809 0.67923 0.0
C108 C 0.73527 0.07905 0.54092 0.0
C109 C 0.83273 0.13533 0.64055 0.0
N110 N 0.80716 0.0151 0.49321 0.0
N111 N 0.75181 0.15736 0.7085 0.0
H112 H 0.92644 0.1856 0.67041 0.0
H113 H 0.86895 0.21184 0.71534 0.0
H114 H 0.70444 0.1587 0.71649 0.0
H115 H 0.78575 0.17154 0.74923 0.0
H116 H 0.76979 0.98839 0.46058 0.0
H117 H 0.85003 0.99617 0.49244 0.0
H118 H 0.70296 0.0533 0.44165 0.0
H119 H 0.64604 0.08291 0.48655 0.0
C120 C 0.93858 0.78399 0.49946 0.0
C121 C 0.96371 0.74887 0.44931 0.0
C122 C 1.01183 0.84891 0.41897 0.0
C123 C 0.98281 0.88462 0.46596 0.0
N124 N 0.90741 0.88479 0.54256 0.0
N125 N 1.00993 0.74751 0.35153 0.0
C126 C 0.94279 0.85178 0.50373 0.0
C127 C 0.99549 0.78139 0.40581 0.0
N128 N 0.91371 0.7532 0.54506 0.0
N129 N 0.05851 0.87861 0.38999 0.0
H130 H 0.99748 0.69803 0.33989 0.0
H131 H 0.02787 0.76908 0.3151 0.0
H132 H 0.07541 0.92733 0.40101 0.0
H133 H 0.08572 0.85376 0.36038 0.0
H134 H 0.90224 0.77712 0.58717 0.0
H135 H 0.90884 0.70366 0.54316 0.0
H136 H 0.87207 0.86255 0.56517 0.0
H137 H 0.90911 0.93424 0.5481 0.0
C138 C 0.32348 0.11608 0.63306 0.0
C139 C 0.34694 0.0677 0.59311 0.0
C140 C 0.23561 0.02518 0.5466 0.0
C141 C 0.21385 0.07968 0.57847 0.0
N142 N 0.2402 0.18354 0.64378 0.0
N143 N 0.32335 0.98237 0.5022 0.0
C144 C 0.25865 0.12701 0.61948 0.0
C145 C 0.30252 0.02379 0.54726 0.0
N146 N 0.36195 0.14966 0.68599 0.0
N147 N 0.19272 0.97318 0.51796 0.0
H148 H 0.37134 0.97928 0.4991 0.0
H149 H 0.29264 0.95517 0.46361 0.0
H150 H 0.14351 0.97054 0.51893 0.0
H151 H 0.20662 0.92985 0.49972 0.0
H152 H 0.34522 0.18133 0.71966 0.0
H153 H 0.40815 0.14015 0.70052 0.0
H154 H 0.2726 0.22201 0.66877 0.0
H155 H 0.19382 0.1945 0.63333 0.0
C156 C 0.49706 1.0041 0.36627 0.0
C157 C 0.53816 0.97481 0.40743 0.0
C158 C 0.5926 0.93751 0.31669 0.0
C159 C 0.55616 0.97291 0.27725 0.0
N160 N 0.47913 0.04784 0.26811 0.0
N161 N 0.63309 0.9233 0.42451 0.0
C162 C 0.50994 1.00836 0.30311 0.0
C163 C 0.5881 0.94399 0.38342 0.0
N164 N 0.44378 0.02574 0.38658 0.0
N165 N 0.62899 0.89514 0.29014 0.0
H166 H 0.63301 0.92859 0.47383 0.0
H167 H 0.67414 0.90659 0.41051 0.0
H168 H 0.63249 0.88758 0.24143 0.0
H169 H 0.6507 0.86287 0.31532 0.0
H170 H 0.40748 0.03982 0.35623 0.0
H171 H 0.43252 0.02405 0.43251 0.0
H172 H 0.45242 0.08154 0.28766 0.0
H173 H 0.48382 0.05091 0.2207 0.0
C174 C 0.10241 0.60397 0.17216 0.0
C175 C 0.04709 0.56827 0.13327 0.0
C176 C 1.01468 0.52535 0.22662 0.0
C177 C 0.06434 0.56809 0.26765 0.0
N178 N 0.14757 0.65869 0.27802 0.0
N179 N 0.94129 0.51032 0.12844 0.0
C180 C 0.10643 0.6103 0.24016 0.0
C181 C 1.00055 0.5334 0.16193 0.0
N182 N 0.15196 0.63023 0.1446 0.0
N183 N 0.98145 0.47579 0.24855 0.0
H184 H 0.92712 0.51898 0.0821 0.0
H185 H 0.90379 0.48956 0.14946 0.0
H186 H 0.99076 0.46587 0.29495 0.0
H187 H 0.94939 0.44024 0.21842 0.0
H188 H 0.19584 0.65124 0.1709 0.0
H189 H 0.15151 0.62553 0.0952 0.0
H190 H 0.17429 0.69433 0.25951 0.0
H191 H 0.15037 0.66731 0.3276 0.0
C192 C 0.61711 1.0066 0.8166 0.0
C193 C 0.56372 0.97122 0.77453 0.0
C194 C 0.53597 0.91238 0.86034 0.0
C195 C 0.5823 0.95504 0.9055 0.0
N196 N 0.66044 0.05076 0.92607 0.0
N197 N 0.46468 0.89904 0.76061 0.0
C198 C 0.62174 1.00403 0.88355 0.0
C199 C 0.52131 0.9261 0.79738 0.0
N200 N 0.66422 0.04157 0.79262 0.0
N201 N 0.50566 0.85827 0.87731 0.0
H202 H 0.4502 0.90976 0.71515 0.0
H203 H 0.42883 0.87133 0.77799 0.0
H204 H 0.51385 0.84604 0.92286 0.0
H205 H 0.47705 0.82239 0.84433 0.0
H206 H 0.70715 0.06326 0.82034 0.0
H207 H 0.66335 0.04333 0.74385 0.0
H208 H 0.68416 0.09132 0.91234 0.0
H209 H 0.66465 0.05245 0.97544 0.0
C210 C 0.0934 0.63098 0.69121 0.0
C211 C 0.06281 0.58185 0.64148 0.0
C212 C 0.99815 0.53696 0.71606 0.0
C213 C 0.03355 0.58079 0.76784 0.0
N214 N 0.12826 0.65902 0.80508 0.0
N215 N 1.00424 0.47538 0.61442 0.0
C216 C 0.08506 0.62517 0.75581 0.0
C217 C 0.02094 0.53082 0.65647 0.0
N218 N 0.12873 0.68381 0.67722 0.0
N219 N 0.94143 0.50252 0.7227 0.0
H220 H 0.02391 0.46745 0.57206 0.0
H221 H 0.97795 0.43497 0.6259 0.0
H222 H 0.92008 0.50919 0.7642 0.0
H223 H 0.9121 0.47341 0.68429 0.0
H224 H 0.14637 0.72384 0.71135 0.0
H225 H 0.13605 0.68959 0.63074 0.0
H226 H 0.16957 0.68719 0.7978 0.0
H227 H 0.12705 0.65368 0.85277 0.0
C228 C 0.21253 0.46832 0.87982 0.0
C229 C 0.17705 0.44251 0.92482 0.0
C230 C 0.2687 0.39212 0.96405 0.0
C231 C 0.30723 0.42579 0.92579 0.0
N232 N 0.31742 0.50688 0.85659 0.0
N233 N 0.17397 0.38777 0.0167 0.0
C234 C 0.27959 0.46643 0.88558 0.0
C235 C 0.20556 0.40604 0.9685 0.0
N236 N 0.18203 0.49388 0.83094 0.0
N237 N 0.29202 0.34621 0.99576 0.0
H238 H 0.12791 0.39772 0.02243 0.0
H239 H 0.19559 0.36785 0.05449 0.0
H240 H 0.33826 0.33502 0.99496 0.0
H241 H 0.26364 0.31527 0.01814 0.0
H242 H 0.20451 0.50782 0.79325 0.0
H243 H 0.13268 0.49489 0.82446 0.0
H244 H 0.29995 0.54226 0.83274 0.0
H245 H 0.36716 0.5101 0.86171 0.0
C246 C 0.4427 0.20991 1.00144 0.0
C247 C 0.48892 0.2574 0.04127 0.0
C248 C 0.51847 0.17768 0.10806 0.0
C249 C 0.47648 0.12879 0.06539 0.0
N250 N 0.41226 0.09736 0.96129 0.0
N251 N 0.58423 0.28021 0.11951 0.0
C252 C 0.44191 0.14452 1.00943 0.0
C253 C 0.53046 0.23958 0.09106 0.0
N254 N 0.39875 0.22655 0.95637 0.0
N255 N 0.54712 0.16549 0.16532 0.0
H256 H 0.59765 0.32431 0.10536 0.0
H257 H 0.61967 0.26689 0.15148 0.0
H258 H 0.54178 0.12072 0.17964 0.0
H259 H 0.57179 0.20135 0.20102 0.0
H260 H 0.359 0.19496 0.93278 0.0
H261 H 0.39897 0.27255 0.94522 0.0
H262 H 0.39314 0.10655 0.91652 0.0
H263 H 0.41251 0.04876 0.96293 0.0
C264 C 0.78917 0.42665 0.97358 0.0
C265 C 0.81525 0.46979 0.93489 0.0
C266 C 0.70854 0.50197 0.9096 0.0
C267 C 0.68148 0.45353 0.94204 0.0
N268 N 0.69483 0.3613 0.99444 0.0
N269 N 0.797 0.54008 0.85648 0.0
C270 C 0.72149 0.4135 0.97115 0.0
C271 C 0.77418 0.50526 0.90029 0.0
N272 N 0.82898 0.40024 0.01498 0.0
N273 N 0.67242 0.54665 0.88999 0.0
H274 H 0.84422 0.54267 0.84709 0.0
H275 H 0.76763 0.5613 0.82508 0.0
H276 H 0.6247 0.54689 0.89708 0.0
H277 H 0.69152 0.58702 0.8724 0.0
H278 H 0.81265 0.37419 0.04922 0.0
H279 H 0.8788 0.40973 0.01991 0.0
H280 H 0.72126 0.3267 1.01001 0.0
H281 H 0.64548 0.34895 0.99228 0.0
C282 C 0.54839 0.66668 0.03531 0.0
C283 C 0.4986 0.62588 0.0533 0.0
C284 C 0.4444 0.71811 0.08515 0.0
C285 C 0.48989 0.75811 0.05926 0.0
N286 N 0.58034 0.76623 0.99922 0.0
N287 N 0.39364 0.61007 0.08569 0.0
C288 C 0.54064 0.73129 0.03155 0.0
C289 C 0.44495 0.65075 0.07553 0.0
N290 N 0.60417 0.64411 0.02343 0.0
N291 N 0.40314 0.74429 0.12213 0.0
H292 H 0.39245 0.5605 0.07972 0.0
H293 H 0.3503 0.6252 0.09483 0.0
H294 H 0.4032 0.79341 0.13356 0.0
H295 H 0.37353 0.71755 0.14725 0.0
H296 H 0.64516 0.67351 0.01737 0.0
H297 H 0.61183 0.59696 0.02601 0.0
H298 H 0.61175 0.74604 0.97114 0.0
H299 H 0.5788 0.81401 0.99512 0.0
loop_
_geom_bond_atom_site_label_1
_geom_bond_atom_site_label_2
_geom_bond_distance
_geom_bond_site_symmetry_2
_ccdc_geom_bond_type
C0 O2 1.247 1_455 S
C0 O4 1.258 . S
C1 O8 1.247 1_655 S
C1 O9 1.258 . S
O2 C0 1.247 1_655 S
O2 Zn3 2.028 1_545 S
Zn3 O2 2.028 1_565 S
Zn3 O7 2.035 1_655 S
Zn3 O9 2.035 . S
Zn3 O10 2.028 . S
O4 C0 1.258 . S
O4 Zn5 2.035 . S
Zn5 O4 2.035 . S
Zn5 O6 2.028 . S
Zn5 O8 2.028 1_545 S
Zn5 O11 2.035 1_455 S
O6 Zn5 2.028 . S
O6 C12 1.247 . S
O7 Zn3 2.035 1_455 S
O7 C12 1.258 1_565 S
O8 C1 1.247 1_455 S
O8 Zn5 2.028 1_565 S
O9 C1 1.258 . S
O9 Zn3 2.035 . S
O10 Zn3 2.028 . S
O10 C13 1.247 . S
O11 Zn5 2.035 1_655 S
O11 C13 1.258 1_545 S
C12 O6 1.247 . S
C12 O7 1.258 1_545 S
C13 O10 1.247 . S
C13 O11 1.258 1_565 S
C14 O16 1.247 . S
C14 O18 1.258 1_554 S
C15 O22 1.247 . S
C15 O23 1.258 1_556 S
O16 C14 1.247 . S
O16 Zn17 2.028 . S
Zn17 O16 2.028 . S
Zn17 O21 2.035 . S
Zn17 O23 2.035 1_545 S
Zn17 O24 2.028 1_554 S
O18 C14 1.258 1_556 S
O18 Zn19 2.035 1_545 S
Zn19 O18 2.035 1_565 S
Zn19 O20 2.028 1_556 S
Zn19 O22 2.028 . S
Zn19 O25 2.035 . S
O20 Zn19 2.028 1_554 S
O20 C26 1.247 1_565 S
O21 Zn17 2.035 . S
O21 C26 1.258 . S
O22 C15 1.247 . S
O22 Zn19 2.028 . S
O23 C15 1.258 1_554 S
O23 Zn17 2.035 1_565 S
O24 Zn17 2.028 1_556 S
O24 C27 1.247 1_545 S
O25 Zn19 2.035 . S
O25 C27 1.258 . S
C26 O20 1.247 1_545 S
C26 O21 1.258 . S
C27 O24 1.247 1_565 S
C27 O25 1.258 . S
C28 O30 1.247 1_554 S
C28 O32 1.258 . S
C29 O36 1.247 1_556 S
C29 O37 1.258 . S
O30 C28 1.247 1_556 S
O30 Zn31 2.028 1_455 S
Zn31 O30 2.028 1_655 S
Zn31 O35 2.035 1_556 S
Zn31 O37 2.035 . S
Zn31 O38 2.028 . S
O32 C28 1.258 . S
O32 Zn33 2.035 . S
Zn33 O32 2.035 . S
Zn33 O34 2.028 . S
Zn33 O36 2.028 1_455 S
Zn33 O39 2.035 1_554 S
O34 Zn33 2.028 . S
O34 C40 1.247 . S
O35 Zn31 2.035 1_554 S
O35 C40 1.258 1_655 S
O36 C29 1.247 1_554 S
O36 Zn33 2.028 1_655 S
O37 C29 1.258 . S
O37 Zn31 2.035 . S
O38 Zn31 2.028 . S
O38 C41 1.247 . S
O39 Zn33 2.035 1_556 S
O39 C41 1.258 1_455 S
C40 O34 1.247 . S
C40 O35 1.258 1_455 S
C41 O38 1.247 . S
C41 O39 1.258 1_655 S
C42 O44 1.247 . S
C42 O46 1.258 1_556 S
C43 O50 1.251 . S
C43 O51 1.254 1_554 S
O44 C42 1.247 . S
O44 Zn45 2.028 . S
Zn45 O44 2.028 . S
Zn45 O49 2.035 . S
Zn45 O51 2.035 . S
Zn45 O52 2.028 . S
O46 C42 1.258 1_554 S
O46 Zn47 2.035 . S
Zn47 O46 2.035 . S
Zn47 O48 2.028 . S
Zn47 O50 2.028 . S
Zn47 O53 2.035 . S
O48 Zn47 2.028 . S
O48 C54 1.251 . S
O49 Zn45 2.035 . S
O49 C54 1.254 1_556 S
O50 C43 1.251 . S
O50 Zn47 2.028 . S
O51 C43 1.254 1_556 S
O51 Zn45 2.035 . S
O52 Zn45 2.028 . S
O52 C55 1.247 . S
O53 Zn47 2.035 . S
O53 C55 1.258 1_554 S
C54 O48 1.251 . S
C54 O49 1.254 1_554 S
C55 O52 1.247 . S
C55 O53 1.258 1_556 S
C56 O58 1.251 . S
C56 O60 1.254 1_455 S
C57 O64 1.247 . S
C57 O65 1.258 1_655 S
O58 C56 1.251 . S
O58 Zn59 2.028 . S
Zn59 O58 2.028 . S
Zn59 O63 2.035 . S
Zn59 O65 2.035 . S
Zn59 O66 2.028 . S
O60 C56 1.254 1_655 S
O60 Zn61 2.035 . S
Zn61 O60 2.035 . S
Zn61 O62 2.028 . S
Zn61 O64 2.028 . S
Zn61 O67 2.035 . S
O62 Zn61 2.028 . S
O62 C68 1.247 . S
O63 Zn59 2.035 . S
O63 C68 1.258 1_455 S
O64 C57 1.247 . S
O64 Zn61 2.028 . S
O65 C57 1.258 1_455 S
O65 Zn59 2.035 . S
O66 Zn59 2.028 . S
O66 C69 1.251 . S
O67 Zn61 2.035 . S
O67 C69 1.254 1_655 S
C68 O62 1.247 . S
C68 O63 1.258 1_655 S
C69 O66 1.251 . S
C69 O67 1.254 1_455 S
C70 O72 1.247 . S
C70 O74 1.258 1_565 S
C71 O78 1.251 . S
C71 O79 1.254 1_545 S
O72 C70 1.247 . S
O72 Zn73 2.028 . S
Zn73 O72 2.028 . S
Zn73 O77 2.035 . S
Zn73 O79 2.035 . S
Zn73 O80 2.028 . S
O74 C70 1.258 1_545 S
O74 Zn75 2.035 . S
Zn75 O74 2.035 . S
Zn75 O76 2.028 . S
Zn75 O78 2.028 . S
Zn75 O81 2.035 . S
O76 Zn75 2.028 . S
O76 C82 1.251 . S
O77 Zn73 2.035 . S
O77 C82 1.254 1_565 S
O78 C71 1.251 . S
O78 Zn75 2.028 . S
O79 C71 1.254 1_565 S
O79 Zn73 2.035 . S
O80 Zn73 2.028 . S
O80 C83 1.247 . S
O81 Zn75 2.035 . S
O81 C83 1.258 1_545 S
C82 O76 1.251 . S
C82 O77 1.254 1_545 S
C83 O80 1.247 . S
C83 O81 1.258 1_565 S
C84 C85 1.363 . S
C84 C90 1.379 . S
C84 N92 1.356 . S
C85 C84 1.363 . S
C85 C91 1.363 1_455 S
C86 C87 1.363 1_655 S
C86 C91 1.379 . S
C86 N93 1.356 . S
C87 C86 1.363 1_455 S
C87 C90 1.363 . S
N88 C90 1.356 . S
N88 H100 0.984 . S
N88 H101 0.985 . S
N89 C91 1.356 . S
N89 H94 0.984 . S
N89 H95 0.985 . S
C90 C84 1.379 . S
C90 C87 1.363 . S
C90 N88 1.356 . S
C91 C85 1.363 1_655 S
C91 C86 1.379 . S
C91 N89 1.356 . S
N92 C84 1.356 . S
N92 H98 0.984 . S
N92 H99 0.984 . S
N93 C86 1.356 . S
N93 H96 0.984 . S
N93 H97 0.985 . S
H94 N89 0.984 . S
H95 N89 0.985 . S
H96 N93 0.984 . S
H97 N93 0.985 . S
H98 N92 0.984 . S
H99 N92 0.984 . S
H100 N88 0.984 . S
H101 N88 0.985 . S
C102 C103 1.363 1_565 S
C102 C108 1.379 . S
C102 N110 1.356 . S
C103 C102 1.363 1_545 S
C103 C109 1.363 . S
C104 C105 1.363 . S
C104 C109 1.379 . S
C104 N111 1.356 . S
C105 C104 1.363 . S
C105 C108 1.363 1_545 S
N106 C108 1.356 . S
N106 H118 0.984 . S
N106 H119 0.985 . S
N107 C109 1.356 . S
N107 H112 0.984 . S
N107 H113 0.985 . S
C108 C102 1.379 . S
C108 C105 1.363 1_565 S
C108 N106 1.356 . S
C109 C103 1.363 . S
C109 C104 1.379 . S
C109 N107 1.356 . S
N110 C102 1.356 . S
N110 H116 0.984 . S
N110 H117 0.984 . S
N111 C104 1.356 . S
N111 H114 0.984 . S
N111 H115 0.985 . S
H112 N107 0.984 . S
H113 N107 0.985 . S
H114 N111 0.984 . S
H115 N111 0.985 . S
H116 N110 0.984 . S
H117 N110 0.984 . S
H118 N106 0.984 . S
H119 N106 0.985 . S
C120 C121 1.363 1_655 S
C120 C126 1.379 . S
C120 N128 1.356 . S
C121 C120 1.363 1_455 S
C121 C127 1.363 . S
C122 C123 1.363 . S
C122 C127 1.379 . S
C122 N129 1.356 . S
C123 C122 1.363 . S
C123 C126 1.363 1_455 S
N124 C126 1.356 . S
N124 H136 0.984 . S
N124 H137 0.985 . S
N125 C127 1.356 . S
N125 H130 0.984 . S
N125 H131 0.985 . S
C126 C120 1.379 . S
C126 C123 1.363 1_655 S
C126 N124 1.356 . S
C127 C121 1.363 . S
C127 C122 1.379 . S
C127 N125 1.356 . S
N128 C120 1.356 . S
N128 H134 0.984 . S
N128 H135 0.984 . S
N129 C122 1.356 . S
N129 H132 0.984 . S
N129 H133 0.985 . S
H130 N125 0.984 . S
H131 N125 0.985 . S
H132 N129 0.984 . S
H133 N129 0.985 . S
H134 N128 0.984 . S
H135 N128 0.984 . S
H136 N124 0.984 . S
H137 N124 0.985 . S
C138 C139 1.363 . S
C138 C144 1.379 . S
C138 N146 1.356 . S
C139 C138 1.363 . S
C139 C145 1.363 1_545 S
C140 C141 1.363 1_565 S
C140 C145 1.379 . S
C140 N147 1.356 . S
C141 C140 1.363 1_545 S
C141 C144 1.363 . S
N142 C144 1.356 . S
N142 H154 0.984 . S
N142 H155 0.985 . S
N143 C145 1.356 . S
N143 H148 0.984 . S
N143 H149 0.985 . S
C144 C138 1.379 . S
C144 C141 1.363 . S
C144 N142 1.356 . S
C145 C139 1.363 1_565 S
C145 C140 1.379 . S
C145 N143 1.356 . S
N146 C138 1.356 . S
N146 H152 0.984 . S
N146 H153 0.984 . S
N147 C140 1.356 . S
N147 H150 0.984 . S
N147 H151 0.985 . S
H148 N143 0.984 . S
H149 N143 0.985 . S
H150 N147 0.984 . S
H151 N147 0.985 . S
H152 N146 0.984 . S
H153 N146 0.984 . S
H154 N142 0.984 . S
H155 N142 0.985 . S
C156 C157 1.363 . S
C156 C162 1.379 . S
C156 N164 1.356 . S
C157 C156 1.363 . S
C157 C163 1.363 1_545 S
C158 C159 1.363 1_565 S
C158 C163 1.379 . S
C158 N165 1.356 . S
C159 C158 1.363 1_545 S
C159 C162 1.363 . S
N160 C162 1.356 . S
N160 H172 0.984 . S
N160 H173 0.985 . S
N161 C163 1.356 . S
N161 H166 0.984 . S
N161 H167 0.985 . S
C162 C156 1.379 . S
C162 C159 1.363 . S
C162 N160 1.356 . S
C163 C157 1.363 1_565 S
C163 C158 1.379 . S
C163 N161 1.356 . S
N164 C156 1.356 . S
N164 H170 0.984 . S
N164 H171 0.984 . S
N165 C158 1.356 . S
N165 H168 0.984 . S
N165 H169 0.985 . S
H166 N161 0.984 . S
H167 N161 0.985 . S
H168 N165 0.984 . S
H169 N165 0.985 . S
H170 N164 0.984 . S
H171 N164 0.984 . S
H172 N160 0.984 . S
H173 N160 0.985 . S
C174 C175 1.363 . S
C174 C180 1.379 . S
C174 N182 1.356 . S
C175 C174 1.363 . S
C175 C181 1.363 1_455 S
C176 C177 1.363 1_655 S
C176 C181 1.379 . S
C176 N183 1.356 . S
C177 C176 1.363 1_455 S
C177 C180 1.363 . S
N178 C180 1.356 . S
N178 H190 0.984 . S
N178 H191 0.985 . S
N179 C181 1.356 . S
N179 H184 0.984 . S
N179 H185 0.985 . S
C180 C174 1.379 . S
C180 C177 1.363 . S
C180 N178 1.356 . S
C181 C175 1.363 1_655 S
C181 C176 1.379 . S
C181 N179 1.356 . S
N182 C174 1.356 . S
N182 H188 0.984 . S
N182 H189 0.984 . S
N183 C176 1.356 . S
N183 H186 0.984 . S
N183 H187 0.985 . S
H184 N179 0.984 . S
H185 N179 0.985 . S
H186 N183 0.984 . S
H187 N183 0.985 . S
H188 N182 0.984 . S
H189 N182 0.984 . S
H190 N178 0.984 . S
H191 N178 0.985 . S
C192 C193 1.363 . S
C192 C198 1.379 . S
C192 N200 1.356 . S
C193 C192 1.363 . S
C193 C199 1.363 1_545 S
C194 C195 1.363 1_565 S
C194 C199 1.379 . S
C194 N201 1.356 . S
C195 C194 1.363 1_545 S
C195 C198 1.363 . S
N196 C198 1.356 . S
N196 H208 0.984 . S
N196 H209 0.985 . S
N197 C199 1.356 . S
N197 H202 0.984 . S
N197 H203 0.985 . S
C198 C192 1.379 . S
C198 C195 1.363 . S
C198 N196 1.356 . S
C199 C193 1.363 1_565 S
C199 C194 1.379 . S
C199 N197 1.356 . S
N200 C192 1.356 . S
N200 H206 0.984 . S
N200 H207 0.984 . S
N201 C194 1.356 . S
N201 H204 0.984 . S
N201 H205 0.985 . S
H202 N197 0.984 . S
H203 N197 0.985 . S
H204 N201 0.984 . S
H205 N201 0.985 . S
H206 N200 0.984 . S
H207 N200 0.984 . S
H208 N196 0.984 . S
H209 N196 0.985 . S
C210 C211 1.363 . S
C210 C216 1.379 . S
C210 N218 1.356 . S
C211 C210 1.363 . S
C211 C217 1.363 1_455 S
C212 C213 1.363 1_655 S
C212 C217 1.379 . S
C212 N219 1.356 . S
C213 C212 1.363 1_455 S
C213 C216 1.363 . S
N214 C216 1.356 . S
N214 H226 0.984 . S
N214 H227 0.985 . S
N215 C217 1.356 . S
N215 H220 0.984 . S
N215 H221 0.985 . S
C216 C210 1.379 . S
C216 C213 1.363 . S
C216 N214 1.356 . S
C217 C211 1.363 1_655 S
C217 C212 1.379 . S
C217 N215 1.356 . S
N218 C210 1.356 . S
N218 H224 0.984 . S
N218 H225 0.984 . S
N219 C212 1.356 . S
N219 H222 0.984 . S
N219 H223 0.985 . S
H220 N215 0.984 . S
H221 N215 0.985 . S
H222 N219 0.984 . S
H223 N219 0.985 . S
H224 N218 0.984 . S
H225 N218 0.984 . S
H226 N214 0.984 . S
H227 N214 0.985 . S
C228 C229 1.363 1_556 S
C228 C234 1.379 . S
C228 N236 1.356 . S
C229 C228 1.363 1_554 S
C229 C235 1.363 . S
C230 C231 1.363 . S
C230 C235 1.379 . S
C230 N237 1.356 . S
C231 C230 1.363 . S
C231 C234 1.363 1_554 S
N232 C234 1.356 . S
N232 H244 0.984 . S
N232 H245 0.985 . S
N233 C235 1.356 . S
N233 H238 0.984 . S
N233 H239 0.985 . S
C234 C228 1.379 . S
C234 C231 1.363 1_556 S
C234 N232 1.356 . S
C235 C229 1.363 . S
C235 C230 1.379 . S
C235 N233 1.356 . S
N236 C228 1.356 . S
N236 H242 0.984 . S
N236 H243 0.984 . S
N237 C230 1.356 . S
N237 H240 0.984 . S
N237 H241 0.985 . S
H238 N233 0.984 . S
H239 N233 0.985 . S
H240 N237 0.984 . S
H241 N237 0.985 . S
H242 N236 0.984 . S
H243 N236 0.984 . S
H244 N232 0.984 . S
H245 N232 0.985 . S
C246 C247 1.363 1_556 S
C246 C252 1.379 . S
C246 N254 1.356 . S
C247 C246 1.363 1_554 S
C247 C253 1.363 . S
C248 C249 1.363 . S
C248 C253 1.379 . S
C248 N255 1.356 . S
C249 C248 1.363 . S
C249 C252 1.363 1_554 S
N250 C252 1.356 . S
N250 H262 0.984 . S
N250 H263 0.985 . S
N251 C253 1.356 . S
N251 H256 0.984 . S
N251 H257 0.985 . S
C252 C246 1.379 . S
C252 C249 1.363 1_556 S
C252 N250 1.356 . S
C253 C247 1.363 . S
C253 C248 1.379 . S
C253 N251 1.356 . S
N254 C246 1.356 . S
N254 H260 0.984 . S
N254 H261 0.984 . S
N255 C248 1.356 . S
N255 H258 0.984 . S
N255 H259 0.985 . S
H256 N251 0.984 . S
H257 N251 0.985 . S
H258 N255 0.984 . S
H259 N255 0.985 . S
H260 N254 0.984 . S
H261 N254 0.984 . S
H262 N250 0.984 . S
H263 N250 0.985 . S
C264 C265 1.363 . S
C264 C270 1.379 . S
C264 N272 1.356 . S
C265 C264 1.363 . S
C265 C271 1.363 1_554 S
C266 C267 1.363 1_556 S
C266 C271 1.379 . S
C266 N273 1.356 . S
C267 C266 1.363 1_554 S
C267 C270 1.363 . S
N268 C270 1.356 . S
N268 H280 0.984 . S
N268 H281 0.985 . S
N269 C271 1.356 . S
N269 H274 0.984 . S
N269 H275 0.985 . S
C270 C264 1.379 . S
C270 C267 1.363 . S
C270 N268 1.356 . S
C271 C265 1.363 1_556 S
C271 C266 1.379 . S
C271 N269 1.356 . S
N272 C264 1.356 . S
N272 H278 0.984 . S
N272 H279 0.984 . S
N273 C266 1.356 . S
N273 H276 0.984 . S
N273 H277 0.985 . S
H274 N269 0.984 . S
H275 N269 0.985 . S
H276 N273 0.984 . S
H277 N273 0.985 . S
H278 N272 0.984 . S
H279 N272 0.984 . S
H280 N268 0.984 . S
H281 N268 0.985 . S
C282 C283 1.363 . S
C282 C288 1.379 . S
C282 N290 1.356 . S
C283 C282 1.363 . S
C283 C289 1.363 1_554 S
C284 C285 1.363 1_556 S
C284 C289 1.379 . S
C284 N291 1.356 . S
C285 C284 1.363 1_554 S
C285 C288 1.363 . S
N286 C288 1.356 . S
N286 H298 0.984 . S
N286 H299 0.985 . S
N287 C289 1.356 . S
N287 H292 0.984 . S
N287 H293 0.985 . S
C288 C282 1.379 . S
C288 C285 1.363 . S
C288 N286 1.356 . S
C289 C283 1.363 1_556 S
C289 C284 1.379 . S
C289 N287 1.356 . S
N290 C282 1.356 . S
N290 H296 0.984 . S
N290 H297 0.984 . S
N291 C284 1.356 . S
N291 H294 0.984 . S
N291 H295 0.985 . S
H292 N287 0.984 . S
H293 N287 0.985 . S
H294 N291 0.984 . S
H295 N291 0.985 . S
H296 N290 0.984 . S
H297 N290 0.984 . S
H298 N286 0.984 . S
H299 N286 0.985 . S
C85 C0 1.498 . S
C87 C57 1.496 1_455 S
C103 C13 1.498 1_545 S
C105 C70 1.501 1_545 S
C121 C56 1.498 . S
C123 C1 1.501 1_455 S
C139 C71 1.499 . S
C141 C12 1.496 . S
C157 C83 1.498 1_545 S
C159 C26 1.496 . S
C175 C40 1.498 . S
C177 C69 1.497 . S
C193 C82 1.498 . S
C195 C27 1.501 1_545 S
C211 C68 1.499 1_455 S
C213 C41 1.501 1_455 S
C229 C28 1.498 . S
C231 C55 1.496 1_554 S
C247 C43 1.499 . S
C249 C14 1.496 . S
C265 C29 1.498 1_554 S
C267 C54 1.500 . S
C283 C42 1.499 1_554 S
C285 C15 1.501 1_554 S
