# Generated by pormake.
# Topology fnz, (5)-cn, num edge types: 1
# Building blocks:
#     Node 0, Type 0, BuildingBlock: XOMCOT_clean_sbu_1, # of connection points: 5
#     Node 1, Type 0, BuildingBlock: XOMCOT_clean_sbu_1, # of connection points: 5
#     Node 2, Type 0, BuildingBlock: XOMCOT_clean_sbu_1, # of connection points: 5
#     Node 3, Type 0, BuildingBlock: XOMCOT_clean_sbu_1, # of connection points: 5
#     Node 4, Type 0, BuildingBlock: XOMCOT_clean_sbu_1, # of connection points: 5
#     Node 5, Type 0, BuildingBlock: XOMCOT_clean_sbu_1, # of connection points: 5
#     Node 6, Type 0, BuildingBlock: XOMCOT_clean_sbu_1, # of connection points: 5
#     Node 7, Type 0, BuildingBlock: XOMCOT_clean_sbu_1, # of connection points: 5
#     Node 8, Type 0, BuildingBlock: XOMCOT_clean_sbu_1, # of connection points: 5
#     Node 9, Type 0, BuildingBlock: XOMCOT_clean_sbu_1, # of connection points: 5
#     Node 10, Type 0, BuildingBlock: XOMCOT_clean_sbu_1, # of connection points: 5
#     Node 11, Type 0, BuildingBlock: XOMCOT_clean_sbu_1, # of connection points: 5
#     Edge 12, Type (0, 0), BuildingBlock: XUDNAN_clean_linker_2, # of connection points: 2
#     Edge 13, Type (0, 0), BuildingBlock: XUDNAN_clean_linker_2, # of connection points: 2
#     Edge 14, Type (0, 0), BuildingBlock: XUDNAN_clean_linker_2, # of connection points: 2
#     Edge 15, Type (0, 0), BuildingBlock: XUDNAN_clean_linker_2, # of connection points: 2
#     Edge 16, Type (0, 0), BuildingBlock: XUDNAN_clean_linker_2, # of connection points: 2
#     Edge 17, Type (0, 0), BuildingBlock: XUDNAN_clean_linker_2, # of connection points: 2
#     Edge 18, Type (0, 0), BuildingBlock: XUDNAN_clean_linker_2, # of connection points: 2
#     Edge 19, Type (0, 0), BuildingBlock: XUDNAN_clean_linker_2, # of connection points: 2
#     Edge 20, Type (0, 0), BuildingBlock: XUDNAN_clean_linker_2, # of connection points: 2
#     Edge 21, Type (0, 0), BuildingBlock: XUDNAN_clean_linker_2, # of connection points: 2
#     Edge 22, Type (0, 0), BuildingBlock: XUDNAN_clean_linker_2, # of connection points: 2
#     Edge 23, Type (0, 0), BuildingBlock: XUDNAN_clean_linker_2, # of connection points: 2
#     Edge 24, Type (0, 0), BuildingBlock: XUDNAN_clean_linker_2, # of connection points: 2
#     Edge 25, Type (0, 0), BuildingBlock: XUDNAN_clean_linker_2, # of connection points: 2
#     Edge 26, Type (0, 0), BuildingBlock: XUDNAN_clean_linker_2, # of connection points: 2
#     Edge 27, Type (0, 0), BuildingBlock: XUDNAN_clean_linker_2, # of connection points: 2
#     Edge 28, Type (0, 0), BuildingBlock: XUDNAN_clean_linker_2, # of connection points: 2
#     Edge 29, Type (0, 0), BuildingBlock: XUDNAN_clean_linker_2, # of connection points: 2
#     Edge 30, Type (0, 0), BuildingBlock: XUDNAN_clean_linker_2, # of connection points: 2
#     Edge 31, Type (0, 0), BuildingBlock: XUDNAN_clean_linker_2, # of connection points: 2
#     Edge 32, Type (0, 0), BuildingBlock: XUDNAN_clean_linker_2, # of connection points: 2
#     Edge 33, Type (0, 0), BuildingBlock: XUDNAN_clean_linker_2, # of connection points: 2
#     Edge 34, Type (0, 0), BuildingBlock: XUDNAN_clean_linker_2, # of connection points: 2
#     Edge 35, Type (0, 0), BuildingBlock: XUDNAN_clean_linker_2, # of connection points: 2
#     Edge 36, Type (0, 0), BuildingBlock: XUDNAN_clean_linker_2, # of connection points: 2
#     Edge 37, Type (0, 0), BuildingBlock: XUDNAN_clean_linker_2, # of connection points: 2
#     Edge 38, Type (0, 0), BuildingBlock: XUDNAN_clean_linker_2, # of connection points: 2
#     Edge 39, Type (0, 0), BuildingBlock: XUDNAN_clean_linker_2, # of connection points: 2
#     Edge 40, Type (0, 0), BuildingBlock: XUDNAN_clean_linker_2, # of connection points: 2
#     Edge 41, Type (0, 0), BuildingBlock: XUDNAN_clean_linker_2, # of connection points: 2
# Relax obj value: 0.383
# Max RMSD: 0.283
# Mean RMSD: 0.283
data_MOF--net-fnz--node1-XOMCOT_clean_sbu_1--edge1-XUDNAN_clean_linker_2
_symmetry_space_group_name_H-M    P1
_symmetry_Int_Tables_number       1
_symmetry_cell_setting            triclinic
loop_
_symmetry_equiv_pos_as_xyz
'x, y, z'
_cell_length_a     45.267661
_cell_length_b     45.427234
_cell_length_c     26.837494
_cell_angle_alpha  90.159433
_cell_angle_beta   90.321727
_cell_angle_gamma 119.97194
loop_
_atom_site_label
_atom_site_type_symbol
_atom_site_fract_x
_atom_site_fract_y
_atom_site_fract_z
_atom_type_partial_charge
C0 C 0.51672 0.14776 0.94522 0.0
C1 C 0.52748 0.12432 0.95004 0.0
N2 N 0.50728 0.10076 0.98317 0.0
N3 N 0.48957 0.13908 0.97494 0.0
C4 C 0.48573 0.11116 0.99903 0.0
H5 H 0.52641 0.1679 0.91813 0.0
Co6 Co 0.45585 0.15271 0.96883 0.0
C7 C 0.48585 0.18029 0.07218 0.0
O8 O 0.49523 0.15769 0.08067 0.0
N9 N 0.4227 0.16501 0.96176 0.0
C10 C 0.37316 0.16304 0.95041 0.0
C11 C 0.39092 0.14614 0.9429 0.0
C12 C 0.42409 0.19358 0.97873 0.0
N13 N 0.39407 0.19278 0.97355 0.0
O14 O 0.48598 0.192 0.93076 0.0
H15 H 0.38085 0.12113 0.92655 0.0
H16 H 0.44674 0.21453 0.99476 0.0
O17 O 0.47128 0.17967 0.03091 0.0
C18 C 0.48121 0.18518 0.88427 0.0
O19 O 0.46154 0.15335 0.87044 0.0
N20 N 0.42383 0.11346 1.00114 0.0
C21 C 0.37052 0.05117 0.03266 0.0
C22 C 0.38394 0.0799 0.06408 0.0
C23 C 0.41036 0.11106 0.04731 0.0
C24 C 0.41092 0.08599 0.97003 0.0
C25 C 0.38447 0.05461 0.98508 0.0
H26 H 0.41909 0.13319 0.07085 0.0
H27 H 0.42109 0.08879 0.93286 0.0
H28 H 0.46588 0.09704 1.02569 0.0
H29 H 0.54636 0.12291 0.92717 0.0
H30 H 0.34655 0.15346 0.94144 0.0
H31 H 0.37386 0.07847 0.10104 0.0
H32 H 0.37439 0.03355 0.95894 0.0
C33 C 0.3356 0.49565 0.03537 0.0
C34 C 0.37055 0.51272 0.04236 0.0
N35 N 0.38294 0.49414 1.02148 0.0
N36 N 0.32613 0.46657 1.00994 0.0
C37 C 0.35565 0.46667 1.00164 0.0
H38 H 0.31818 0.50368 0.04854 0.0
Co39 Co 0.28213 0.43235 0.99128 0.0
C40 C 0.2436 0.41257 0.08588 0.0
O41 O 0.23116 0.38038 0.07406 0.0
N42 N 0.23771 0.39819 0.97104 0.0
C43 C 0.19321 0.3528 0.93693 0.0
C44 C 0.22814 0.37131 0.94011 0.0
C45 C 0.20783 0.39638 0.98347 0.0
N46 N 0.18043 0.36842 0.96469 0.0
O47 O 0.27157 0.46492 0.9654 0.0
H48 H 0.24493 0.36501 0.92048 0.0
H49 H 0.20608 0.41457 1.0076 0.0
O50 O 0.26478 0.43571 0.05679 0.0
C51 C 0.28445 0.47633 0.92292 0.0
O52 O 0.30822 0.47028 0.90651 0.0
N53 N 0.29345 0.40002 1.01286 0.0
C54 C 0.31706 0.35484 0.02926 0.0
C55 C 0.31204 0.3716 0.06948 0.0
C56 C 0.30088 0.3948 0.06036 0.0
C57 C 0.30091 0.38597 0.97356 0.0
C58 C 0.31206 0.36288 0.98079 0.0
H59 H 0.29942 0.40924 0.09127 0.0
H60 H 0.29982 0.39415 0.93617 0.0
H61 H 0.35732 0.44696 0.9814 0.0
H62 H 0.38553 0.53642 0.06239 0.0
H63 H 0.17834 0.32944 0.91606 0.0
H64 H 0.317 0.36712 0.10742 0.0
H65 H 0.31783 0.3523 0.94854 0.0
C66 C 0.83949 0.36065 0.07871 0.0
C67 C 0.86132 0.39521 0.08253 0.0
N68 N 0.89062 0.40068 0.10421 0.0
N69 N 0.85497 0.34428 0.09738 0.0
C70 C 0.88558 0.36937 0.11419 0.0
H71 H 0.81476 0.34832 0.06059 0.0
Co72 Co 0.83968 0.29776 0.09004 0.0
C73 C 0.83445 0.27113 0.19579 0.0
O74 O 0.83354 0.24295 0.18187 0.0
N75 N 0.82378 0.25116 0.0811 0.0
C76 C 0.81816 0.20322 0.05018 0.0
C77 C 0.83821 0.23785 0.05148 0.0
C78 C 0.79402 0.22399 0.09556 0.0
N79 N 0.79043 0.19432 0.07834 0.0
O80 O 0.83492 0.30052 1.01889 0.0
H81 H 0.86134 0.25239 0.03047 0.0
H82 H 0.77567 0.22605 0.11881 0.0
O83 O 0.83975 0.29409 0.16364 0.0
C84 C 0.80437 0.28837 1.00321 0.0
O85 O 0.7797 0.27712 0.03603 0.0
N86 N 0.88635 0.308 0.08258 0.0
C87 C 0.95165 0.31826 0.06324 0.0
C88 C 0.93292 0.29892 0.10396 0.0
C89 C 0.90061 0.29443 0.11326 0.0
C90 C 0.90514 0.32822 0.04384 0.0
C91 C 0.93784 0.33383 0.03378 0.0
H92 H 0.88684 0.27876 0.14396 0.0
H93 H 0.89497 0.34024 1.02009 0.0
H94 H 0.90505 0.36477 0.12953 0.0
H95 H 0.85656 0.41469 0.06812 0.0
H96 H 0.8232 0.18607 0.02863 0.0
H97 H 0.9429 0.28674 0.12797 0.0
H98 H 0.9516 0.34911 1.00202 0.0
C99 C 0.50918 0.83802 0.98543 0.0
C100 C 0.49173 0.85544 0.99095 0.0
N101 N 0.51148 0.88745 0.97423 0.0
N102 N 0.53992 0.85895 0.96561 0.0
C103 C 0.54027 0.88853 0.95824 0.0
H104 H 0.50052 0.81223 0.99712 0.0
Co105 Co 0.57685 0.85201 0.95779 0.0
C106 C 0.57784 0.81523 0.04865 0.0
O107 O 0.61126 0.83413 0.04929 0.0
N108 N 0.61432 0.8448 0.94833 0.0
C109 C 0.66473 0.84983 0.93123 0.0
C110 C 0.6473 0.86703 0.93768 0.0
C111 C 0.61245 0.81405 0.94679 0.0
N112 N 0.64283 0.81645 0.93705 0.0
O113 O 0.55136 0.81642 0.90947 0.0
H114 H 0.65863 0.8941 0.9339 0.0
H115 H 0.58906 0.79027 0.95246 0.0
O116 O 0.5606 0.8195 1.01417 0.0
C117 C 0.55933 0.83058 0.86681 0.0
O118 O 0.57949 0.86373 0.86556 0.0
N119 N 0.60227 0.88957 1.00046 0.0
C120 C 0.63559 0.95308 0.04722 0.0
C121 C 0.61233 0.92424 0.07366 0.0
C122 C 0.5956 0.89255 0.04936 0.0
C123 C 0.62321 0.91792 0.97398 0.0
C124 C 0.64088 0.94965 0.99682 0.0
H125 H 0.57599 0.8711 0.06916 0.0
H126 H 0.62479 0.91616 0.93402 0.0
H127 H 0.56184 0.91078 0.94282 0.0
H128 H 0.46706 0.84554 1.00822 0.0
H129 H 0.69167 0.86121 0.92344 0.0
H130 H 0.60667 0.92631 0.11224 0.0
H131 H 0.6574 0.97166 0.97463 0.0
C132 C 0.6349 0.4915 0.10843 0.0
C133 C 0.60126 0.48105 0.09745 0.0
N134 N 0.60036 0.4994 0.05882 0.0
N135 N 0.65548 0.51647 0.07691 0.0
C136 C 0.63334 0.51961 0.04606 0.0
H137 H 0.64343 0.48326 0.14032 0.0
Co138 Co 0.70298 0.54836 0.08632 0.0
C139 C 0.7075 0.52535 0.17539 0.0
O140 O 0.69837 0.54817 0.18389 0.0
N141 N 0.74851 0.57982 0.09709 0.0
C142 C 0.79491 0.62504 0.12642 0.0
C143 C 0.76074 0.61125 0.11644 0.0
C144 C 0.7755 0.57485 0.09606 0.0
N145 N 0.80411 0.60202 0.1139 0.0
O146 O 0.71526 0.5322 1.02528 0.0
H147 H 0.74553 0.62278 0.12527 0.0
H148 H 0.77384 0.55128 0.08416 0.0
O149 O 0.70907 0.51732 0.13001 0.0
C150 C 0.7021 0.50387 1.00164 0.0
O151 O 0.67577 0.47706 1.02068 0.0
N152 N 0.69815 0.58091 0.04964 0.0
C153 C 0.68804 0.63131 1.00686 0.0
C154 C 0.67855 0.62102 0.05629 0.0
C155 C 0.68372 0.59577 0.07678 0.0
C156 C 0.70821 0.59079 1.00177 0.0
C157 C 0.7029 0.6156 0.97951 0.0
H158 H 0.67639 0.58799 0.1149 0.0
H159 H 0.72031 0.57971 0.98027 0.0
H160 H 0.64107 0.53826 1.01686 0.0
H161 H 0.57946 0.46384 0.11946 0.0
H162 H 0.81128 0.64944 0.14395 0.0
H163 H 0.66785 0.63279 0.07958 0.0
H164 H 0.71038 0.62228 0.94111 0.0
C165 C 0.12313 0.65943 0.98603 0.0
C166 C 0.10142 0.62487 0.98531 0.0
N167 N 0.09914 0.61309 0.03194 0.0
N168 N 0.13469 0.66965 0.03292 0.0
C169 C 0.12041 0.64057 0.05969 0.0
H170 H 0.1271 0.6762 0.95521 0.0
Co171 Co 0.15198 0.71432 0.05627 0.0
C172 C 0.20625 0.72154 0.12508 0.0
O173 O 0.22921 0.73946 0.09152 0.0
N174 N 0.16867 0.7591 0.08109 0.0
C175 C 0.17782 0.80038 0.13491 0.0
C176 C 0.1621 0.76602 0.1275 0.0
C177 C 0.18918 0.79023 0.06137 0.0
N178 N 0.19481 0.81559 0.0933 0.0
O179 O 0.19082 0.72935 1.01227 0.0
H180 H 0.14711 0.74738 0.15509 0.0
H181 H 0.19991 0.79461 1.02451 0.0
O182 O 0.17458 0.70704 0.11353 0.0
C183 C 0.18397 0.73992 0.97206 0.0
O184 O 0.15559 0.74114 0.96986 0.0
N185 N 0.11181 0.69957 0.09185 0.0
C186 C 0.0447 0.67258 0.12228 0.0
C187 C 0.06785 0.66771 0.15108 0.0
C188 C 0.10167 0.68181 0.13541 0.0
C189 C 0.08987 0.7053 0.06443 0.0
C190 C 0.05626 0.69219 0.07902 0.0
H191 H 0.11913 0.67731 0.15719 0.0
H192 H 0.09836 0.7191 0.02983 0.0
H193 H 0.1224 0.63994 0.09975 0.0
H194 H 0.0862 0.61007 0.95375 0.0
H195 H 0.17748 0.81319 0.1688 0.0
H196 H 0.05975 0.65278 0.18483 0.0
H197 H 0.03907 0.69615 0.05541 0.0
C198 C 0.8597 0.50206 0.62347 0.0
C199 C 0.8849 0.49342 0.61925 0.0
N200 N 0.90603 0.51207 0.58258 0.0
N201 N 0.86486 0.52614 0.58957 0.0
C202 C 0.89284 0.53073 0.56457 0.0
H203 H 0.84043 0.49294 0.65199 0.0
Co204 Co 0.84472 0.55461 0.58638 0.0
C205 C 0.8255 0.52318 0.48123 0.0
O206 O 0.85609 0.52818 0.4719 0.0
N207 N 0.82585 0.58277 0.58306 0.0
C208 C 0.81955 0.62799 0.59091 0.0
C209 C 0.83651 0.612 0.60859 0.0
C210 C 0.8023 0.58137 0.55058 0.0
N211 N 0.79817 0.60868 0.55408 0.0
O212 O 0.80722 0.524 0.62995 0.0
H213 H 0.85642 0.62177 0.63671 0.0
H214 H 0.78959 0.56166 0.52287 0.0
O215 O 0.81905 0.53098 0.52427 0.0
C216 C 0.81529 0.5367 0.67415 0.0
O217 O 0.84586 0.56318 0.6808 0.0
N218 N 0.88259 0.58787 0.55232 0.0
C219 C 0.9456 0.64024 0.52085 0.0
C220 C 0.91719 0.62634 0.48843 0.0
C221 C 0.88551 0.60036 0.50527 0.0
C222 C 0.9092 0.60296 0.58509 0.0
C223 C 0.94095 0.62865 0.57003 0.0
H224 H 0.86356 0.59074 0.48085 0.0
H225 H 0.90582 0.59422 0.6232 0.0
H226 H 0.90508 0.54914 0.53537 0.0
H227 H 0.88894 0.47691 0.6439 0.0
H228 H 0.82332 0.65228 0.60352 0.0
H229 H 0.91942 0.63541 0.4506 0.0
H230 H 0.96157 0.63968 0.5971 0.0
C231 C 0.34087 0.85783 0.59577 0.0
C232 C 0.37594 0.87614 0.59521 0.0
N233 N 0.38561 0.89711 0.55597 0.0
N234 N 0.32804 0.86745 0.55746 0.0
C235 C 0.3564 0.89094 0.53327 0.0
H236 H 0.32614 0.8405 0.62496 0.0
Co237 Co 0.282 0.85849 0.55157 0.0
C238 C 0.25395 0.82164 0.45469 0.0
O239 O 0.237 0.83794 0.44926 0.0
N240 N 0.23661 0.85025 0.54809 0.0
C241 C 0.19177 0.85785 0.54443 0.0
C242 C 0.22636 0.87347 0.55164 0.0
C243 C 0.20721 0.82027 0.5416 0.0
N244 N 0.17976 0.82444 0.5373 0.0
O245 O 0.2666 0.82092 0.59812 0.0
H246 H 0.24269 0.90028 0.55845 0.0
H247 H 0.20632 0.79618 0.53668 0.0
O248 O 0.27389 0.82809 0.49255 0.0
C249 C 0.26384 0.83222 0.64062 0.0
O250 O 0.27121 0.86408 0.64334 0.0
N251 N 0.29739 0.89779 0.51226 0.0
C252 C 0.32385 0.96342 0.4752 0.0
C253 C 0.31588 0.93614 0.4428 0.0
C254 C 0.30269 0.9033 0.46211 0.0
C255 C 0.30686 0.92449 0.54406 0.0
C256 C 0.31957 0.95731 0.52642 0.0
H257 H 0.29871 0.8832 0.43687 0.0
H258 H 0.30407 0.92004 0.58376 0.0
H259 H 0.35624 0.90584 0.50223 0.0
H260 H 0.39297 0.87566 0.62328 0.0
H261 H 0.17666 0.87027 0.54386 0.0
H262 H 0.3199 0.94017 0.40307 0.0
H263 H 0.32647 0.97787 0.55282 0.0
C264 C 0.54583 0.36677 0.48966 0.0
C265 C 0.56272 0.40147 0.48232 0.0
N266 N 0.54088 0.40952 0.4604 0.0
N267 N 0.51355 0.3532 0.4725 0.0
C268 C 0.51166 0.37984 0.45386 0.0
H269 H 0.556 0.35256 0.50808 0.0
Co270 Co 0.47831 0.30815 0.47793 0.0
C271 C 0.49419 0.29667 0.38697 0.0
O272 O 0.51605 0.29418 0.4166 0.0
N273 N 0.44321 0.26307 0.48337 0.0
C274 C 0.39818 0.21632 0.51102 0.0
C275 C 0.4172 0.25101 0.51584 0.0
C276 C 0.43965 0.23523 0.45958 0.0
N277 N 0.41226 0.20623 0.47546 0.0
O278 O 0.48529 0.30917 0.54925 0.0
H279 H 0.41288 0.26638 0.54243 0.0
H280 H 0.45732 0.23621 0.43199 0.0
O281 O 0.47372 0.30514 0.40609 0.0
C282 C 0.49977 0.29285 0.56423 0.0
O283 O 0.51009 0.27888 0.53073 0.0
N284 N 0.44604 0.32343 0.48528 0.0
C285 C 0.40204 0.35 0.49395 0.0
C286 C 0.39764 0.32702 0.45554 0.0
C287 C 0.41984 0.31398 0.45194 0.0
C288 C 0.45001 0.34502 0.5237 0.0
C289 C 0.42844 0.35852 0.52859 0.0
H290 H 0.41608 0.29644 0.42203 0.0
H291 H 0.47086 0.35318 0.54994 0.0
H292 H 0.48885 0.37782 0.43735 0.0
H293 H 0.58835 0.41955 0.49466 0.0
H294 H 0.37638 0.19997 0.53354 0.0
H295 H 0.37769 0.31968 0.42778 0.0
H296 H 0.43258 0.37563 0.55941 0.0
C297 C 0.16115 0.51042 0.47699 0.0
C298 C 0.14228 0.52658 0.47999 0.0
N299 N 0.11702 0.50987 0.51302 0.0
N300 N 0.14787 0.48362 0.50794 0.0
C301 C 0.12136 0.48431 0.53001 0.0
H302 H 0.18264 0.51723 0.45283 0.0
Co303 Co 0.16269 0.45196 0.51466 0.0
C304 C 0.15361 0.42205 0.41296 0.0
O305 O 0.13672 0.39092 0.4301 0.0
N306 N 0.17905 0.42109 0.52141 0.0
C307 C 0.18647 0.37625 0.52583 0.0
C308 C 0.16297 0.38688 0.52597 0.0
C309 C 0.21246 0.43043 0.51836 0.0
N310 N 0.21771 0.4036 0.52074 0.0
O311 O 0.16644 0.45948 0.58497 0.0
H312 H 0.13578 0.36994 0.52662 0.0
H313 H 0.23242 0.45641 0.5126 0.0
O314 O 0.16284 0.44727 0.44253 0.0
C315 C 0.19495 0.48286 0.60167 0.0
O316 O 0.21935 0.50094 0.56996 0.0
N317 N 0.11613 0.41669 0.52068 0.0
C318 C 0.0466 0.37276 0.53541 0.0
C319 C 0.05816 0.39132 0.49135 0.0
C320 C 0.09301 0.41301 0.4846 0.0
C321 C 0.10493 0.39858 0.56395 0.0
C322 C 0.07035 0.37599 0.57158 0.0
H323 H 0.10114 0.4285 0.45154 0.0
H324 H 0.1227 0.40134 0.5931 0.0
H325 H 0.10509 0.46601 0.5574 0.0
H326 H 0.14613 0.54821 0.45818 0.0
H327 H 0.18076 0.35017 0.5286 0.0
H328 H 0.04032 0.38974 0.46293 0.0
H329 H 0.06215 0.36229 0.60638 0.0
C330 C 0.64152 0.15301 0.61318 0.0
C331 C 0.60729 0.13189 0.60393 0.0
N332 N 0.60383 0.10873 0.5697 0.0
N333 N 0.65992 0.143 0.58561 0.0
C334 C 0.63591 0.11642 0.55835 0.0
H335 H 0.65175 0.17308 0.64074 0.0
Co336 Co 0.70707 0.15703 0.59453 0.0
C337 C 0.71722 0.20829 0.51713 0.0
O338 O 0.70288 0.22162 0.54454 0.0
N339 N 0.75271 0.17054 0.60372 0.0
C340 C 0.80186 0.17488 0.62711 0.0
C341 C 0.76688 0.15411 0.62644 0.0
C342 C 0.7792 0.20106 0.5915 0.0
N343 N 0.80945 0.2045 0.60522 0.0
O344 O 0.7152 0.19604 0.63302 0.0
H345 H 0.7527 0.12896 0.64219 0.0
H346 H 0.77626 0.22057 0.57311 0.0
O347 O 0.71861 0.18256 0.53289 0.0
C348 C 0.7123 0.18904 0.67933 0.0
O349 O 0.69933 0.15711 0.69249 0.0
N350 N 0.70085 0.11817 0.56162 0.0
C351 C 0.69422 0.05758 0.52617 0.0
C352 C 0.70941 0.08691 0.49682 0.0
C353 C 0.71263 0.1171 0.51533 0.0
C354 C 0.68609 0.08993 0.59069 0.0
C355 C 0.68216 0.05921 0.57348 0.0
H356 H 0.72531 0.13951 0.49276 0.0
H357 H 0.67773 0.09155 0.62778 0.0
H358 H 0.64135 0.10108 0.53334 0.0
H359 H 0.58649 0.13242 0.62282 0.0
H360 H 0.82011 0.16889 0.64348 0.0
H361 H 0.71901 0.08661 0.46005 0.0
H362 H 0.6708 0.03725 0.5976 0.0
C363 C 0.5465 0.66541 0.52283 0.0
C364 C 0.53617 0.63128 0.52194 0.0
N365 N 0.53945 0.62269 0.47519 0.0
N366 N 0.55623 0.67844 0.4767 0.0
C367 C 0.55061 0.65136 0.44842 0.0
H368 H 0.54972 0.68005 0.5562 0.0
Co369 Co 0.58294 0.72473 0.45915 0.0
C370 C 0.53178 0.71549 0.38057 0.0
O371 O 0.51008 0.71511 0.41317 0.0
N372 N 0.60988 0.7706 0.43999 0.0
C373 C 0.64285 0.81497 0.39206 0.0
C374 C 0.6245 0.78027 0.39464 0.0
C375 C 0.6195 0.80032 0.46407 0.0
N376 N 0.63959 0.82747 0.43569 0.0
O377 O 0.55195 0.73505 0.49482 0.0
H378 H 0.62206 0.76327 0.36478 0.0
H379 H 0.6125 0.80243 0.50168 0.0
O380 O 0.55923 0.7169 0.39561 0.0
C381 C 0.56467 0.74404 0.53871 0.0
O382 O 0.59378 0.74536 0.54858 0.0
N383 N 0.61529 0.71559 0.43185 0.0
C384 C 0.66425 0.697 0.41476 0.0
C385 C 0.64088 0.69304 0.37704 0.0
C386 C 0.61661 0.70291 0.38618 0.0
C387 C 0.63886 0.72118 0.46766 0.0
C388 C 0.66357 0.71216 0.45996 0.0
H389 H 0.59791 0.69864 0.3577 0.0
H390 H 0.6374 0.73131 0.50345 0.0
H391 H 0.55721 0.65295 0.40959 0.0
H392 H 0.5305 0.61507 0.55415 0.0
H393 H 0.657 0.82991 0.36029 0.0
H394 H 0.64061 0.68136 0.34168 0.0
H395 H 0.6806 0.71512 0.49052 0.0
H396 H 0.5554 0.08139 0.97465 0.0
H397 H 0.44772 0.04269 1.00204 0.0
H398 H 0.43798 0.98463 1.00446 0.0
H399 H 0.54405 0.01456 0.89338 0.0
H400 H 0.5805 0.01238 0.91589 0.0
H401 H 0.58021 0.05183 0.9196 0.0
H402 H 0.59151 0.05505 1.01496 0.0
H403 H 0.5926 0.01604 1.01063 0.0
H404 H 0.56382 0.0194 0.05336 0.0
H405 H 0.43838 0.93029 0.99773 0.0
H406 H 0.44985 0.88315 0.98815 0.0
H407 H 0.5575 0.95589 0.96772 0.0
C408 C 0.52989 0.06072 0.98172 0.0
C409 C 0.50253 0.06699 0.98883 0.0
C410 C 0.46942 0.03906 0.99773 0.0
C411 C 0.46346 0.00573 0.99871 0.0
C412 C 0.49081 1.00045 0.99094 0.0
C413 C 0.52346 0.02709 0.98315 0.0
C414 C 0.54808 0.01403 0.97483 0.0
C415 C 0.56415 0.02378 0.92283 0.0
C416 C 0.57561 0.02689 1.01593 0.0
C417 C 0.52399 0.97596 0.97863 0.0
C418 C 0.4911 0.96879 0.98776 0.0
C419 C 0.46414 0.93556 0.99127 0.0
C420 C 0.471 0.90886 0.98592 0.0
C421 C 0.50465 0.91535 0.97751 0.0
C422 C 0.53141 0.94959 0.9737 0.0
H423 H 0.53271 0.4514 0.05664 0.0
H424 H 0.60347 0.55845 0.03179 0.0
H425 H 0.55536 0.56812 1.01674 0.0
H426 H 0.46939 0.44301 0.96198 0.0
H427 H 0.4336 0.41413 0.99929 0.0
H428 H 0.47375 0.4151 1.00526 0.0
H429 H 0.47422 0.42609 0.1001 0.0
H430 H 0.43422 0.42534 0.09415 0.0
H431 H 0.47058 0.46176 0.12168 0.0
H432 H 0.49969 0.56758 1.01231 0.0
H433 H 0.43988 0.55538 1.01089 0.0
H434 H 0.40458 0.4486 0.03469 0.0
C435 C 0.538 0.47674 0.04735 0.0
C436 C 0.57201 0.50404 0.04494 0.0
C437 C 0.57784 0.53692 0.03287 0.0
C438 C 0.55059 0.54277 1.02465 0.0
C439 C 0.51746 0.51547 0.02804 0.0
C440 C 0.51098 0.48297 0.03836 0.0
C441 C 0.47285 0.45823 0.04039 0.0
C442 C 0.46175 0.43102 0.99927 0.0
C443 C 0.46237 0.44191 0.09216 0.0
C444 C 0.45904 0.48204 0.03051 0.0
C445 C 0.48524 0.51498 1.02379 0.0
C446 C 0.47894 0.5418 1.0168 0.0
C447 C 0.44498 0.53473 1.01632 0.0
C448 C 0.41771 0.5011 1.02214 0.0
C449 C 0.42496 0.47446 0.02917 0.0
H450 H 0.03386 0.57734 0.99804 0.0
H451 H 0.10332 0.57709 0.10958 0.0
H452 H 0.05638 0.5234 0.1439 0.0
H453 H 0.9608 0.54577 0.07804 0.0
H454 H 0.93094 0.52102 0.02939 0.0
H455 H 0.96999 0.55914 1.0141 0.0
H456 H 0.98574 0.52503 0.95262 0.0
H457 H 0.94659 0.48692 0.96728 0.0
H458 H 0.98676 0.48805 0.97449 0.0
H459 H 1.00134 0.46841 0.16392 0.0
H460 H 0.94394 0.41739 0.16764 0.0
H461 H 0.91136 0.45523 0.04304 0.0
C462 C 0.03941 0.56578 0.02919 0.0
C463 C 0.07243 0.58107 0.05067 0.0
C464 C 0.07825 0.56564 0.09247 0.0
C465 C 0.05175 0.53524 0.11217 0.0
C466 C 0.01945 0.52089 0.09005 0.0
C467 C 0.01326 0.53581 0.04956 0.0
C468 C 0.9764 0.51567 0.03264 0.0
C469 C 0.95848 0.53665 0.03893 0.0
C470 C 0.97373 0.50317 0.97857 0.0
C471 C 0.96286 0.48651 0.06908 0.0
C472 C 0.98794 0.49001 0.10216 0.0
C473 C 0.98152 0.46555 0.13828 0.0
C474 C 0.94884 0.43657 0.14001 0.0
C475 C 0.92291 0.43217 0.10581 0.0
C476 C 0.93017 0.45791 0.07044 0.0
H477 H 0.05095 0.46361 0.53525 0.0
H478 H 0.12121 0.57135 0.51629 0.0
H479 H 0.07462 0.58334 0.53299 0.0
H480 H 0.97789 0.46431 0.47577 0.0
H481 H 0.94806 0.43192 0.51692 0.0
H482 H 0.98756 0.43364 0.50156 0.0
H483 H 1.00005 0.43601 0.59803 0.0
H484 H 0.96103 0.43597 0.61092 0.0
H485 H 1.00105 0.46982 0.63465 0.0
H486 H 0.02058 0.58372 0.54952 0.0
H487 H 0.96256 0.57275 0.56675 0.0
H488 H 0.92634 0.46474 0.57664 0.0
C489 C 0.05658 0.48974 0.5353 0.0
C490 C 0.08985 0.51664 0.52474 0.0
C491 C 0.09597 0.55041 0.52402 0.0
C492 C 0.06968 0.55744 0.5336 0.0
C493 C 0.03721 0.5304 0.54355 0.0
C494 C 0.03045 0.4972 0.54434 0.0
C495 C 0.99296 0.47284 0.55465 0.0
C496 C 0.97559 0.44926 0.50962 0.0
C497 C 0.98852 0.45245 0.6024 0.0
C498 C 0.97997 0.49763 0.56113 0.0
C499 C 0.00591 0.53065 0.55373 0.0
C500 C 1.00011 0.55798 0.55549 0.0
C501 C 0.96698 0.55145 0.56495 0.0
C502 C 0.93987 0.51786 0.57284 0.0
C503 C 0.94662 0.49064 0.57122 0.0
H504 H 0.5537 0.06769 0.63263 0.0
H505 H 0.58471 0.07942 0.47831 0.0
H506 H 0.53183 0.02546 0.45694 0.0
H507 H 0.51969 0.9774 0.63652 0.0
H508 H 0.48545 0.96992 0.67794 0.0
H509 H 0.52479 0.00994 0.68009 0.0
H510 H 0.49158 0.042 0.66552 0.0
H511 H 0.45212 0.0021 0.66368 0.0
H512 H 0.46351 0.03114 0.61226 0.0
H513 H 0.47344 0.97102 0.45286 0.0
H514 H 0.41744 0.91914 0.46748 0.0
H515 H 0.428 0.94151 0.62557 0.0
C516 C 0.54909 0.05907 0.59424 0.0
C517 C 0.57285 0.07789 0.55682 0.0
C518 C 0.56657 0.06537 0.50727 0.0
C519 C 0.53667 0.03484 0.49493 0.0
C520 C 0.5137 0.01684 0.53283 0.0
C521 C 0.51986 0.02838 0.5816 0.0
C522 C 0.49202 0.00382 0.61588 0.0
C523 C 0.50635 0.98942 0.6549 0.0
C524 C 0.47373 0.02078 0.64078 0.0
C525 C 0.46894 0.97675 0.57883 0.0
C526 C 0.4816 0.98479 0.53099 0.0
C527 C 0.4636 0.96429 0.49029 0.0
C528 C 0.43192 0.93495 0.49881 0.0
C529 C 0.41891 0.92606 0.54766 0.0
C530 C 0.43785 0.94724 0.58804 0.0
H531 H 0.49571 0.4301 0.48237 0.0
H532 H 0.597 0.46465 0.42498 0.0
H533 H 0.60574 0.52283 0.41609 0.0
H534 H 0.47496 0.48524 0.40652 0.0
H535 H 0.45282 0.49142 0.4575 0.0
H536 H 0.4543 0.4526 0.45258 0.0
H537 H 0.47982 0.46351 0.54295 0.0
H538 H 0.47879 0.50257 0.54606 0.0
H539 H 0.51833 0.50291 0.55657 0.0
H540 H 0.60346 0.57693 0.41483 0.0
H541 H 0.59327 0.62493 0.42928 0.0
H542 H 0.49496 0.55608 0.49336 0.0
C543 C 0.51944 0.44983 0.46701 0.0
C544 C 0.54556 0.44298 0.45348 0.0
C545 C 0.57672 0.46954 0.43514 0.0
C546 C 0.58177 0.50249 0.42979 0.0
C547 C 0.55551 0.50844 0.44361 0.0
C548 C 0.52509 0.48293 0.46236 0.0
C549 C 0.50206 0.49657 0.47824 0.0
C550 C 0.46907 0.48051 0.44686 0.0
C551 C 0.4943 0.49107 0.53428 0.0
C552 C 0.52448 0.5339 0.46625 0.0
C553 C 0.55487 0.54002 0.44526 0.0
C554 C 0.57974 0.57248 0.43097 0.0
C555 C 0.57364 0.59949 0.43897 0.0
C556 C 0.54319 0.59402 0.46184 0.0
C557 C 0.51828 0.56076 0.47547 0.0
H558 H 0.35894 0.9868 1.01227 0.0
H559 H 0.31487 0.04075 0.08679 0.0
H560 H 0.26467 0.98603 0.10883 0.0
H561 H 0.27989 0.92093 0.95874 0.0
H562 H 0.29081 0.88811 0.9665 0.0
H563 H 0.32394 0.93153 0.95771 0.0
H564 H 0.35337 0.92938 0.03967 0.0
H565 H 0.32043 0.88593 0.04854 0.0
H566 H 0.32935 0.9171 0.09667 0.0
H567 H 0.21941 0.92593 0.12268 0.0
H568 H 0.18221 0.86377 0.12894 0.0
H569 H 0.25419 0.84876 0.04218 0.0
C570 C 0.33866 0.9872 0.03293 0.0
C571 C 0.341 0.0182 0.04795 0.0
C572 C 0.31407 0.01744 0.07565 0.0
C573 C 0.28525 0.98647 0.08791 0.0
C574 C 0.28363 0.95651 0.07189 0.0
C575 C 0.30956 0.95657 0.045 0.0
C576 C 0.30138 0.92074 0.03216 0.0
C577 C 0.29885 0.91501 0.97541 0.0
C578 C 0.32769 0.91283 0.05568 0.0
C579 C 0.26684 0.90053 0.0564 0.0
C580 C 0.25712 0.92171 0.07907 0.0
C581 C 0.22669 0.90908 0.10501 0.0
C582 C 0.20581 0.87381 0.10849 0.0
C583 C 0.21538 0.8516 0.08603 0.0
C584 C 0.24608 0.8652 0.05907 0.0
H585 H 0.34262 0.20288 0.94217 0.0
H586 H 0.42577 0.23805 0.04935 0.0
H587 H 0.4122 0.28075 0.0807 0.0
H588 H 0.35302 0.28222 0.91229 0.0
H589 H 0.30807 0.26778 0.90749 0.0
H590 H 0.32331 0.23871 0.8955 0.0
H591 H 0.28239 0.19784 0.96248 0.0
H592 H 0.26706 0.2269 0.97477 0.0
H593 H 0.28412 0.2134 1.02491 0.0
H594 H 0.39221 0.32266 0.09595 0.0
H595 H 0.36738 0.36035 0.0929 0.0
H596 H 0.29495 0.29485 0.98026 0.0
C597 C 0.35768 0.21913 0.97273 0.0
C598 C 0.38554 0.21722 0.99277 0.0
C599 C 0.40483 0.23942 0.0324 0.0
C600 C 0.39704 0.26355 0.05099 0.0
C601 C 0.36956 0.26487 0.03007 0.0
C602 C 0.35005 0.24311 0.99203 0.0
C603 C 0.3227 0.25058 0.97465 0.0
C604 C 0.32706 0.26042 0.91922 0.0
C605 C 0.28695 0.22038 0.98483 0.0
C606 C 0.33052 0.28056 1.00788 0.0
C607 C 0.35745 0.28832 0.03991 0.0
C608 C 0.37067 0.31648 0.07171 0.0
C609 C 0.35632 0.33761 0.06996 0.0
C610 C 0.32919 0.33038 0.03651 0.0
C611 C 0.31572 0.30101 1.00614 0.0
H612 H 0.01352 0.3749 0.04192 0.0
H613 H 0.96272 0.26508 0.05326 0.0
H614 H 0.01574 0.26635 0.02836 0.0
H615 H 0.06513 0.38352 0.93549 0.0
H616 H 0.10222 0.42152 0.95794 0.0
H617 H 0.06028 0.41231 0.97648 0.0
H618 H 0.0779 0.41634 0.06939 0.0
H619 H 0.11994 0.42569 0.05111 0.0
H620 H 0.095 0.39046 0.09182 0.0
H621 H 0.07293 0.27888 1.0 0.0
H622 H 0.13279 0.3023 0.97513 0.0
H623 H 0.14833 0.40445 0.98451 0.0
C624 C 0.01369 0.3512 0.03908 0.0
C625 C 0.9841 0.31986 0.04954 0.0
C626 C 0.98523 0.28934 0.04586 0.0
C627 C 0.01514 0.2898 0.03152 0.0
C628 C 0.04384 0.32102 1.02143 0.0
C629 C 0.0436 0.35123 1.02548 0.0
C630 C 0.07839 0.38129 1.01358 0.0
C631 C 0.07637 0.4008 0.96817 0.0
C632 C 0.09371 0.40483 0.0592 0.0
C633 C 0.09801 0.36315 1.00167 0.0
C634 C 0.07742 0.32838 1.00618 0.0
C635 C 0.08935 0.30607 0.9964 0.0
C636 C 0.12333 0.31961 0.98191 0.0
C637 C 0.14518 0.35517 0.97761 0.0
C638 C 0.13226 0.37719 0.98775 0.0
H639 H 0.7942 0.13673 0.07205 0.0
H640 H 0.72452 0.17369 0.10398 0.0
H641 H 0.6774 0.11429 0.11208 0.0
H642 H 0.73944 0.0714 0.99326 0.0
H643 H 0.75377 0.04253 1.01225 0.0
H644 H 0.78221 0.0876 1.01687 0.0
H645 H 0.79148 0.08146 0.1109 0.0
H646 H 0.76278 0.03627 0.10659 0.0
H647 H 0.75516 0.06127 0.15149 0.0
H648 H 0.63671 0.04988 0.108 0.0
H649 H 0.60684 0.98827 0.08737 0.0
H650 H 0.70372 0.99547 0.05442 0.0
C651 C 0.76915 0.13258 0.08099 0.0
C652 C 0.76316 0.16006 0.08711 0.0
C653 C 0.72992 0.15317 0.09957 0.0
C654 C 0.70298 0.11947 0.10422 0.0
C655 C 0.70977 0.093 0.09666 0.0
C656 C 0.74217 0.09936 0.08532 0.0
C657 C 0.74268 0.06698 0.07431 0.0
C658 C 0.75525 0.06715 1.02102 0.0
C659 C 0.76431 0.06116 0.11315 0.0
C660 C 0.70528 0.04126 0.07962 0.0
C661 C 0.68664 0.05649 0.09354 0.0
C662 C 0.65119 0.03771 0.09788 0.0
C663 C 0.63444 0.00278 0.08638 0.0
C664 C 0.65318 0.98736 0.06994 0.0
C665 C 0.68899 0.00672 0.06769 0.0
H666 H 0.61146 0.7561 0.98655 0.0
H667 H 0.69319 0.81602 0.88355 0.0
H668 H 0.71134 0.7732 0.88635 0.0
H669 H 0.65694 0.73003 0.06249 0.0
H670 H 0.62221 0.68753 0.07264 0.0
H671 H 0.61348 0.72128 0.05947 0.0
H672 H 0.5752 0.68702 0.98467 0.0
H673 H 0.58359 0.65297 0.99778 0.0
H674 H 0.59223 0.6719 0.93681 0.0
H675 H 0.72419 0.72728 0.90635 0.0
H676 H 0.72962 0.67985 0.9396 0.0
H677 H 0.63716 0.64686 1.0253 0.0
C678 C 0.63264 0.75979 0.96366 0.0
C679 C 0.65101 0.78958 0.93501 0.0
C680 C 0.67903 0.79373 0.90636 0.0
C681 C 0.6894 0.76941 0.90741 0.0
C682 C 0.67131 0.7408 0.93692 0.0
C683 C 0.64328 0.73562 0.96412 0.0
C684 C 0.6293 0.70331 0.99446 0.0
C685 C 0.63058 0.71102 0.05057 0.0
C686 C 0.59292 0.67726 0.97739 0.0
C687 C 0.65442 0.69172 0.98094 0.0
C688 C 0.67831 0.71366 0.94754 0.0
C689 C 0.70522 0.70947 0.93172 0.0
C690 C 0.70793 0.68218 0.95065 0.0
C691 C 0.68371 0.65912 0.9849 0.0
C692 C 0.65637 0.66397 0.99958 0.0
H693 H 0.86479 0.66029 0.11299 0.0
H694 H 0.81834 0.55135 0.13202 0.0
H695 H 0.87548 0.55789 0.14516 0.0
H696 H 0.93544 0.67177 0.04502 0.0
H697 H 0.96463 0.71228 0.07303 0.0
H698 H 0.91997 0.69872 0.0687 0.0
H699 H 0.91839 0.70665 0.16424 0.0
H700 H 0.96309 0.72003 0.1689 0.0
H701 H 0.93255 0.68498 0.20576 0.0
H702 H 0.93866 0.5767 0.15105 0.0
H703 H 1.00166 0.60568 0.14497 0.0
H704 H 0.00522 0.70204 0.1247 0.0
C705 C 0.86653 0.63784 0.12073 0.0
C706 C 0.83714 0.60536 0.12156 0.0
C707 C 0.84058 0.57648 0.13065 0.0
C708 C 0.87288 0.57999 0.13867 0.0
C709 C 0.90137 0.61253 0.13759 0.0
C710 C 0.89839 0.6409 0.12876 0.0
C711 C 0.93279 0.67286 0.12662 0.0
C712 C 0.93853 0.68989 0.0753 0.0
C713 C 0.93694 0.69758 0.16891 0.0
C714 C 0.95578 0.65806 0.13459 0.0
C715 C 0.93733 0.62328 0.1414 0.0
C716 C 0.95335 0.60399 0.14654 0.0
C717 C 0.98908 0.62064 0.14339 0.0
C718 C 0.00813 0.65607 0.13478 0.0
C719 C 0.99121 0.67495 0.13161 0.0
H720 H 0.14542 0.75687 0.55858 0.0
H721 H 0.13661 0.83593 0.48146 0.0
H722 H 0.07707 0.79478 0.45903 0.0
H723 H 0.08907 0.68606 0.47181 0.0
H724 H 0.07082 0.65598 0.52187 0.0
H725 H 0.11415 0.69058 0.52672 0.0
H726 H 0.09994 0.70959 0.61003 0.0
H727 H 0.05672 0.67506 0.60545 0.0
H728 H 0.06506 0.71806 0.61199 0.0
H729 H 0.01705 0.74694 0.45214 0.0
H730 H 0.96035 0.69641 0.46497 0.0
H731 H 0.00794 0.64755 0.54417 0.0
C732 C 0.13113 0.76525 0.53609 0.0
C733 C 0.14559 0.79965 0.52208 0.0
C734 C 0.1259 0.80985 0.49335 0.0
C735 C 0.09216 0.78656 0.47988 0.0
C736 C 0.07841 0.753 0.49505 0.0
C737 C 0.09725 0.74227 0.52242 0.0
C738 C 0.07546 0.70545 0.53753 0.0
C739 C 0.08813 0.6832 0.513 0.0
C740 C 0.07422 0.70185 0.59463 0.0
C741 C 0.04123 0.69769 0.51612 0.0
C742 C 0.0436 0.72525 0.49095 0.0
C743 C 0.01492 0.72495 0.47102 0.0
C744 C 0.98281 0.69607 0.47825 0.0
C745 C 0.97968 0.66805 0.50555 0.0
C746 C 0.00949 0.66864 0.52327 0.0
H747 H 0.35311 0.1487 0.49992 0.0
H748 H 0.44699 0.18401 0.41685 0.0
H749 H 0.43034 0.12485 0.39742 0.0
H750 H 0.35584 0.08241 0.55809 0.0
H751 H 0.31036 0.05401 0.55675 0.0
H752 H 0.32717 0.09917 0.55741 0.0
H753 H 0.29318 0.09416 0.47665 0.0
H754 H 0.27629 0.04886 0.47566 0.0
H755 H 0.29855 0.07399 0.42225 0.0
H756 H 0.40618 0.06094 0.3948 0.0
H757 H 0.37791 0.99924 0.41273 0.0
H758 H 0.30142 0.00699 0.49898 0.0
C759 C 0.37031 0.14444 0.47735 0.0
C760 C 0.40159 0.17165 0.46043 0.0
C761 C 0.42279 0.16412 0.43042 0.0
C762 C 0.41353 0.13037 0.41899 0.0
C763 C 0.38293 0.10431 0.43753 0.0
C764 C 0.36165 0.11106 0.46601 0.0
C765 C 0.3317 0.07879 0.48539 0.0
C766 C 0.33127 0.0786 0.54279 0.0
C767 C 0.29793 0.07365 0.46367 0.0
C768 C 0.34001 0.05281 0.46483 0.0
C769 C 0.36928 0.06782 0.43649 0.0
C770 C 0.38295 0.04888 0.41629 0.0
C771 C 0.36671 0.0139 0.42643 0.0
C772 C 0.33751 0.99854 0.45703 0.0
C773 C 0.32365 0.01816 0.47527 0.0
H774 H 0.22616 0.35115 0.48954 0.0
H775 H 0.28164 0.45551 0.54259 0.0
H776 H 0.33552 0.45414 0.53819 0.0
H777 H 0.27326 0.3217 0.55895 0.0
H778 H 0.27173 0.29335 0.51059 0.0
H779 H 0.23811 0.30343 0.51526 0.0
H780 H 0.24815 0.32388 0.42364 0.0
H781 H 0.28187 0.31391 0.4187 0.0
H782 H 0.29014 0.35613 0.40472 0.0
H783 H 0.38315 0.4402 0.53101 0.0
H784 H 0.42028 0.41526 0.52167 0.0
H785 H 0.33282 0.31942 0.47571 0.0
C786 C 0.24951 0.37376 0.50052 0.0
C787 C 0.24949 0.40346 0.51661 0.0
C788 C 0.28093 0.43259 0.52966 0.0
C789 C 0.31166 0.43198 0.52748 0.0
C790 C 0.31057 0.40209 0.512 0.0
C791 C 0.28027 0.37355 0.49865 0.0
C792 C 0.28572 0.34431 0.48447 0.0
C793 C 0.26604 0.31391 0.51941 0.0
C794 C 0.27589 0.33396 0.42962 0.0
C795 C 0.32385 0.36067 0.49247 0.0
C796 C 0.33777 0.39405 0.50812 0.0
C797 C 0.37245 0.41409 0.51875 0.0
C798 C 0.39334 0.39959 0.51357 0.0
C799 C 0.37962 0.3653 0.49791 0.0
C800 C 0.34433 0.3458 0.48702 0.0
H801 H 0.00992 0.30534 0.55985 0.0
H802 H 1.00106 0.39464 0.53406 0.0
H803 H 0.93934 0.36166 0.55234 0.0
H804 H 0.92979 0.24585 0.50235 0.0
H805 H 0.92061 0.2124 0.54617 0.0
H806 H 0.96418 0.24346 0.53266 0.0
H807 H 0.97585 0.25802 0.62677 0.0
H808 H 0.93224 0.22713 0.64052 0.0
H809 H 0.94962 0.27061 0.66064 0.0
H810 H 0.87943 0.31936 0.57421 0.0
H811 H 0.82379 0.26976 0.59312 0.0
H812 H 0.87063 0.20652 0.60059 0.0
C813 C 0.99483 0.31778 0.55821 0.0
C814 C 0.0098 0.35238 0.54541 0.0
C815 C 0.98958 0.36802 0.54324 0.0
C816 C 0.95473 0.34956 0.55387 0.0
C817 C 0.94059 0.31541 0.56624 0.0
C818 C 0.95987 0.29954 0.56807 0.0
C819 C 0.93806 0.26224 0.58065 0.0
C820 C 0.93817 0.23966 0.53791 0.0
C821 C 0.94964 0.25403 0.63009 0.0
C822 C 0.90353 0.25966 0.58562 0.0
C823 C 0.9057 0.2907 0.57755 0.0
C824 C 0.87732 0.29483 0.58017 0.0
C825 C 0.84571 0.26634 0.59059 0.0
C826 C 0.84256 0.23395 0.59769 0.0
C827 C 0.87209 0.23083 0.59569 0.0
H828 H 0.63973 0.99289 0.53153 0.0
H829 H 0.74445 0.05067 0.48132 0.0
H830 H 0.74194 0.99752 0.45391 0.0
H831 H 0.64266 0.92029 0.57899 0.0
H832 H 0.60009 0.89091 0.55683 0.0
H833 H 0.61152 0.93381 0.57278 0.0
H834 H 0.59132 0.93934 0.48399 0.0
H835 H 0.58144 0.89672 0.46876 0.0
H836 H 0.61033 0.93167 0.43028 0.0
H837 H 0.72811 0.93856 0.43184 0.0
H838 H 0.70341 0.87702 0.41553 0.0
H839 H 0.60844 0.85732 0.48249 0.0
C840 C 0.66216 0.99428 0.515 0.0
C841 C 0.69229 0.0258 0.50849 0.0
C842 C 0.72099 0.02676 0.48606 0.0
C843 C 0.71989 0.99674 0.4707 0.0
C844 C 0.68986 0.96607 0.47794 0.0
C845 C 0.66146 0.9646 0.49931 0.0
C846 C 0.63216 0.9284 0.50188 0.0
C847 C 0.62103 0.91777 0.55591 0.0
C848 C 0.60204 0.92377 0.46927 0.0
C849 C 0.64888 0.90962 0.48006 0.0
C850 C 0.68203 0.93192 0.4659 0.0
C851 C 0.70227 0.92082 0.44298 0.0
C852 C 0.68811 0.88598 0.43386 0.0
C853 C 0.65429 0.86274 0.44822 0.0
C854 C 0.63457 0.87467 0.47208 0.0
H855 H 0.73072 0.72483 0.44416 0.0
H856 H 0.64637 0.63358 0.38028 0.0
H857 H 0.67609 0.60189 0.39976 0.0
H858 H 0.8011 0.70477 0.41165 0.0
H859 H 0.82237 0.72281 0.47013 0.0
H860 H 0.79897 0.73997 0.4389 0.0
H861 H 0.76384 0.73079 0.51902 0.0
H862 H 0.78621 0.71268 0.55007 0.0
H863 H 0.74036 0.68878 0.54516 0.0
H864 H 0.70805 0.57776 0.44335 0.0
H865 H 0.74268 0.56412 0.49929 0.0
H866 H 0.8066 0.67129 0.53505 0.0
C867 C 0.71922 0.69852 0.43239 0.0
C868 C 0.68622 0.68154 0.41101 0.0
C869 C 0.67175 0.6471 0.39635 0.0
C870 C 0.68842 0.62888 0.40747 0.0
C871 C 0.71978 0.64576 0.43228 0.0
C872 C 0.73547 0.68007 0.44343 0.0
C873 C 0.7669 0.69131 0.47567 0.0
C874 C 0.79925 0.71618 0.44738 0.0
C875 C 0.76412 0.70678 0.5254 0.0
C876 C 0.76527 0.65761 0.48349 0.0
C877 C 0.7383 0.63175 0.4575 0.0
C878 C 0.72987 0.59796 0.46262 0.0
C879 C 0.74974 0.59047 0.49469 0.0
C880 C 0.7777 0.61665 0.52151 0.0
C881 C 0.78548 0.65064 0.51536 0.0
H882 H 0.50473 0.24624 0.35362 0.0
H883 H 0.47424 0.31786 0.30349 0.0
H884 H 0.47052 0.29718 0.21648 0.0
H885 H 0.55551 0.25082 0.24994 0.0
H886 H 0.54134 0.20602 0.24946 0.0
H887 H 0.542 0.2269 0.30693 0.0
H888 H 0.47788 0.18379 0.31993 0.0
H889 H 0.47706 0.16256 0.26273 0.0
H890 H 0.44761 0.17789 0.27153 0.0
H891 H 0.47376 0.27029 0.1341 0.0
H892 H 0.47678 0.23561 0.06562 0.0
H893 H 0.50022 0.17832 0.17177 0.0
C894 C 0.49743 0.25774 0.3243 0.0
C895 C 0.49027 0.28404 0.33502 0.0
C896 C 0.47997 0.29782 0.29591 0.0
C897 C 0.47793 0.28629 0.24649 0.0
C898 C 0.48562 0.26054 0.23717 0.0
C899 C 0.49457 0.24607 0.27526 0.0
C900 C 0.50013 0.21778 0.25615 0.0
C901 C 0.53693 0.22588 0.26622 0.0
C902 C 0.47412 0.18348 0.27893 0.0
C903 C 0.49357 0.21888 0.20097 0.0
C904 C 0.48549 0.24387 0.19067 0.0
C905 C 0.47941 0.25026 0.14205 0.0
C906 C 0.48088 0.23018 0.10328 0.0
C907 C 0.4877 0.20348 0.11308 0.0
C908 C 0.49465 0.19828 0.16275 0.0
H909 H 0.19838 0.36906 0.15413 0.0
H910 H 0.26289 0.47638 0.12237 0.0
H911 H 0.24334 0.49073 0.19988 0.0
H912 H 0.12793 0.37499 0.20743 0.0
H913 H 0.11943 0.34314 0.25381 0.0
H914 H 0.13724 0.34149 0.19468 0.0
H915 H 0.18801 0.34154 0.24001 0.0
H916 H 0.17027 0.34293 0.2992 0.0
H917 H 0.21323 0.37497 0.28407 0.0
H918 H 0.21825 0.49303 0.28306 0.0
H919 H 0.19191 0.48327 0.36619 0.0
H920 H 0.14399 0.37431 0.34232 0.0
C921 C 0.20834 0.39563 0.1632 0.0
C922 C 0.23219 0.42161 0.13213 0.0
C923 C 0.2446 0.45603 0.14559 0.0
C924 C 0.23354 0.46442 0.18944 0.0
C925 C 0.20999 0.4381 0.21922 0.0
C926 C 0.1976 0.40441 0.20664 0.0
C927 C 0.17353 0.38084 0.24577 0.0
C928 C 0.13739 0.35882 0.22412 0.0
C929 C 0.18708 0.35879 0.26861 0.0
C930 C 0.17478 0.40651 0.28298 0.0
C931 C 0.19565 0.43941 0.26683 0.0
C932 C 0.20168 0.46738 0.29588 0.0
C933 C 0.18655 0.46156 0.34306 0.0
C934 C 0.16579 0.42801 0.36084 0.0
C935 C 0.15945 0.40025 0.32979 0.0
H936 H 0.82783 0.23077 0.27531 0.0
H937 H 0.81264 0.31406 0.23091 0.0
H938 H 0.78302 0.30911 0.31033 0.0
H939 H 0.74886 0.18054 0.32806 0.0
H940 H 0.76356 0.16531 0.37904 0.0
H941 H 0.78719 0.17804 0.32189 0.0
H942 H 0.84178 0.22095 0.37016 0.0
H943 H 0.81844 0.2079 0.42768 0.0
H944 H 0.84049 0.25209 0.4105 0.0
H945 H 0.74896 0.29017 0.39135 0.0
H946 H 0.71819 0.26225 0.46868 0.0
H947 H 0.7575 0.1927 0.45945 0.0
C948 C 0.81905 0.24857 0.2827 0.0
C949 C 0.82268 0.27286 0.24677 0.0
C950 C 0.81051 0.29545 0.25794 0.0
C951 C 0.79346 0.29269 0.30291 0.0
C952 C 0.78918 0.26754 0.33665 0.0
C953 C 0.80224 0.24631 0.32739 0.0
C954 C 0.79314 0.22046 0.36849 0.0
C955 C 0.77193 0.18394 0.34813 0.0
C956 C 0.82538 0.22568 0.39582 0.0
C957 C 0.772 0.22969 0.40158 0.0
C958 C 0.77004 0.25697 0.38291 0.0
C959 C 0.7507 0.26903 0.4065 0.0
C960 C 0.73317 0.25291 0.45034 0.0
C961 C 0.73499 0.22494 0.47013 0.0
C962 C 0.75495 0.21356 0.44525 0.0
H963 H 0.60599 0.79024 0.1143 0.0
H964 H 0.51184 0.78968 0.0811 0.0
H965 H 0.48685 0.75808 0.1591 0.0
H966 H 0.56638 0.70522 0.17266 0.0
H967 H 0.60018 0.71888 0.21827 0.0
H968 H 0.60899 0.73804 0.15745 0.0
H969 H 0.63388 0.79763 0.19823 0.0
H970 H 0.62518 0.77873 0.25904 0.0
H971 H 0.60817 0.80559 0.24124 0.0
H972 H 0.47523 0.73298 0.24689 0.0
H973 H 0.47742 0.71523 0.3333 0.0
H974 H 0.57831 0.73008 0.30594 0.0
C975 C 0.57986 0.78293 0.12289 0.0
C976 C 0.56084 0.79242 0.0915 0.0
C977 C 0.52679 0.78243 0.10426 0.0
C978 C 0.51243 0.76453 0.1486 0.0
C979 C 0.53225 0.75633 0.17936 0.0
C980 C 0.56511 0.76485 0.16658 0.0
C981 C 0.58186 0.75479 0.20694 0.0
C982 C 0.58981 0.72761 0.18767 0.0
C983 C 0.61416 0.78604 0.22756 0.0
C984 C 0.55376 0.74028 0.24529 0.0
C985 C 0.52525 0.74118 0.2288 0.0
C986 C 0.49722 0.73161 0.25971 0.0
C987 C 0.49869 0.72154 0.30884 0.0
C988 C 0.52798 0.72105 0.32673 0.0
C989 C 0.55537 0.72977 0.29373 0.0
H990 H 0.83896 0.53183 0.38041 0.0
H991 H 0.75619 0.49715 0.48612 0.0
H992 H 0.71591 0.48697 0.41671 0.0
H993 H 0.81142 0.57762 0.30493 0.0
H994 H 0.82475 0.56807 0.24687 0.0
H995 H 0.84632 0.56917 0.30397 0.0
H996 H 0.83396 0.50792 0.28676 0.0
H997 H 0.81219 0.50671 0.22968 0.0
H998 H 0.79064 0.47444 0.27615 0.0
H999 H 0.68521 0.48419 0.33669 0.0
H1000 H 0.66728 0.49329 0.25375 0.0
H1001 H 0.76952 0.53062 0.1986 0.0
C1002 C 0.81221 0.52133 0.38892 0.0
C1003 C 0.80069 0.51468 0.439 0.0
C1004 C 0.76564 0.50208 0.44832 0.0
C1005 C 0.74254 0.49613 0.40899 0.0
C1006 C 0.75475 0.50307 0.36022 0.0
C1007 C 0.78885 0.51567 0.35004 0.0
C1008 C 0.79585 0.52384 0.2948 0.0
C1009 C 0.82107 0.56193 0.28722 0.0
C1010 C 0.80893 0.5019 0.27042 0.0
C1011 C 0.76041 0.51405 0.27551 0.0
C1012 C 0.73706 0.5018 0.31391 0.0
C1013 C 0.70317 0.49318 0.30629 0.0
C1014 C 0.69311 0.49817 0.25888 0.0
C1015 C 0.7166 0.51143 0.21919 0.0
C1016 C 0.75062 0.51892 0.22751 0.0
H1017 H 0.16902 0.72006 0.20617 0.0
H1018 H 0.26842 0.7366 0.16418 0.0
H1019 H 0.28957 0.75603 0.25008 0.0
H1020 H 0.20046 0.79504 0.27028 0.0
H1021 H 0.1681 0.77959 0.31761 0.0
H1022 H 0.15861 0.75954 0.25728 0.0
H1023 H 0.1404 0.70136 0.2979 0.0
H1024 H 0.14953 0.72112 0.35869 0.0
H1025 H 0.16943 0.6971 0.33953 0.0
H1026 H 0.30165 0.78029 0.33887 0.0
H1027 H 0.3043 0.8105 0.41758 0.0
H1028 H 0.19836 0.78234 0.39731 0.0
C1029 C 0.19487 0.72658 0.21534 0.0
C1030 C 0.21686 0.72624 0.17846 0.0
C1031 C 0.25092 0.73615 0.19193 0.0
C1032 C 0.26315 0.74724 0.24071 0.0
C1033 C 0.24116 0.74866 0.27565 0.0
C1034 C 0.20769 0.73863 0.26335 0.0
C1035 C 0.19057 0.74719 0.30475 0.0
C1036 C 0.17877 0.7718 0.28638 0.0
C1037 C 0.16072 0.71476 0.32651 0.0
C1038 C 0.21975 0.76426 0.34187 0.0
C1039 C 0.24854 0.76422 0.32516 0.0
C1040 C 0.27909 0.78007 0.3525 0.0
C1041 C 0.28038 0.79704 0.39728 0.0
C1042 C 0.25153 0.79861 0.41359 0.0
C1043 C 0.22078 0.78136 0.38589 0.0
H1044 H 0.59364 0.80424 0.58606 0.0
H1045 H 0.50394 0.70424 0.58647 0.0
H1046 H 0.48954 0.71565 0.67105 0.0
H1047 H 0.61766 0.80278 0.70633 0.0
H1048 H 0.63379 0.8472 0.71931 0.0
H1049 H 0.63339 0.83325 0.65645 0.0
H1050 H 0.5985 0.86059 0.6278 0.0
H1051 H 0.59848 0.87522 0.69015 0.0
H1052 H 0.55866 0.84967 0.65738 0.0
H1053 H 0.49143 0.7361 0.76304 0.0
H1054 H 0.50532 0.76572 0.84541 0.0
H1055 H 0.59322 0.85182 0.77999 0.0
C1056 C 0.57002 0.7854 0.60286 0.0
C1057 C 0.54926 0.75383 0.57917 0.0
C1058 C 0.51943 0.7291 0.6033 0.0
C1059 C 0.51139 0.73525 0.65164 0.0
C1060 C 0.53342 0.7663 0.675 0.0
C1061 C 0.56176 0.79118 0.65062 0.0
C1062 C 0.58308 0.82132 0.6842 0.0
C1063 C 0.61908 0.8264 0.69202 0.0
C1064 C 0.5847 0.85363 0.6637 0.0
C1065 C 0.56262 0.80975 0.73152 0.0
C1066 C 0.53419 0.77786 0.72622 0.0
C1067 C 0.51326 0.76138 0.767 0.0
C1068 C 0.52141 0.77823 0.81373 0.0
C1069 C 0.55003 0.81129 0.81901 0.0
C1070 C 0.57069 0.82689 0.77715 0.0
H1071 H 0.82284 0.57051 0.76167 0.0
H1072 H 0.75474 0.47527 0.68685 0.0
H1073 H 0.71866 0.45598 0.76273 0.0
H1074 H 0.81925 0.53746 0.88327 0.0
H1075 H 0.82027 0.57301 0.91491 0.0
H1076 H 0.84009 0.57888 0.85497 0.0
H1077 H 0.80363 0.60374 0.82047 0.0
H1078 H 0.78378 0.59808 0.88035 0.0
H1079 H 0.75784 0.57942 0.82544 0.0
H1080 H 0.6911 0.44706 0.84995 0.0
H1081 H 0.67296 0.4503 0.93546 0.0
H1082 H 0.75899 0.55256 0.95128 0.0
C1083 C 0.80036 0.54548 0.76092 0.0
C1084 C 0.79184 0.52428 0.71801 0.0
C1085 C 0.76189 0.49198 0.71898 0.0
C1086 C 0.74133 0.48084 0.76209 0.0
C1087 C 0.75082 0.50239 0.80385 0.0
C1088 C 0.77956 0.53421 0.80318 0.0
C1089 C 0.78425 0.55301 0.85218 0.0
C1090 C 0.81796 0.56105 0.87784 0.0
C1091 C 0.78225 0.58548 0.84411 0.0
C1092 C 0.7538 0.52679 0.88114 0.0
C1093 C 0.73486 0.49767 0.8528 0.0
C1094 C 0.70579 0.46985 0.8721 0.0
C1095 C 0.69572 0.47192 0.92102 0.0
C1096 C 0.71442 0.5017 0.95062 0.0
C1097 C 0.74397 0.52941 0.93 0.0
H1098 H 0.24529 0.84836 0.72771 0.0
H1099 H 0.26161 0.77087 0.6602 0.0
H1100 H 0.24915 0.74098 0.74168 0.0
H1101 H 0.28243 0.85126 0.84799 0.0
H1102 H 0.25132 0.85752 0.88073 0.0
H1103 H 0.26289 0.87281 0.81799 0.0
H1104 H 0.19942 0.83834 0.79027 0.0
H1105 H 0.18771 0.82352 0.85305 0.0
H1106 H 0.17543 0.79337 0.80245 0.0
H1107 H 0.23348 0.7195 0.83367 0.0
H1108 H 0.21023 0.70598 0.91969 0.0
H1109 H 0.20465 0.79829 0.92254 0.0
C1110 C 0.24647 0.82516 0.72976 0.0
C1111 C 0.25461 0.81206 0.68743 0.0
C1112 C 0.25534 0.78137 0.69201 0.0
C1113 C 0.24858 0.76442 0.7383 0.0
C1114 C 0.24113 0.77851 0.77953 0.0
C1115 C 0.23979 0.80812 0.77514 0.0
C1116 C 0.22957 0.81764 0.82346 0.0
C1117 C 0.25827 0.85183 0.84372 0.0
C1118 C 0.19604 0.81823 0.8169 0.0
C1119 C 0.22482 0.78858 0.85607 0.0
C1120 C 0.23205 0.76637 0.83074 0.0
C1121 C 0.2281 0.73699 0.8537 0.0
C1122 C 0.2153 0.72965 0.90277 0.0
C1123 C 0.20632 0.75146 0.92793 0.0
C1124 C 0.21197 0.78155 0.90448 0.0
H1125 H 0.4997 0.18081 0.78999 0.0
H1126 H 0.48745 0.2484 0.89101 0.0
H1127 H 0.49516 0.28683 0.82049 0.0
H1128 H 0.56413 0.24841 0.70786 0.0
H1129 H 0.54642 0.22199 0.65322 0.0
H1130 H 0.54434 0.20287 0.71281 0.0
H1131 H 0.47878 0.16556 0.7026 0.0
H1132 H 0.48053 0.18486 0.6435 0.0
H1133 H 0.45362 0.18569 0.69208 0.0
H1134 H 0.49502 0.31263 0.73517 0.0
H1135 H 0.49378 0.32654 0.646 0.0
H1136 H 0.50913 0.24299 0.60357 0.0
C1137 C 0.49972 0.20427 0.79751 0.0
C1138 C 0.49331 0.21188 0.84585 0.0
C1139 C 0.49299 0.2425 0.85431 0.0
C1140 C 0.49708 0.26429 0.8144 0.0
C1141 C 0.50214 0.25535 0.76662 0.0
C1142 C 0.50428 0.2264 0.75843 0.0
C1143 C 0.50824 0.22132 0.70367 0.0
C1144 C 0.54284 0.22381 0.69382 0.0
C1145 C 0.47852 0.18736 0.68436 0.0
C1146 C 0.50684 0.25125 0.68188 0.0
C1147 C 0.50327 0.27068 0.71851 0.0
C1148 C 0.49861 0.29801 0.70638 0.0
C1149 C 0.49778 0.30565 0.65568 0.0
C1150 C 0.50185 0.28619 0.61785 0.0
C1151 C 0.50669 0.25887 0.63152 0.0
H1152 H 0.31042 0.5117 0.83755 0.0
H1153 H 0.21814 0.46243 0.92522 0.0
H1154 H 0.18535 0.46619 0.85411 0.0
H1155 H 0.28663 0.56788 0.76221 0.0
H1156 H 0.30644 0.56246 0.70756 0.0
H1157 H 0.32344 0.56269 0.76857 0.0
H1158 H 0.3179 0.50421 0.74933 0.0
H1159 H 0.30036 0.50342 0.68886 0.0
H1160 H 0.27691 0.46899 0.7315 0.0
H1161 H 0.16112 0.46355 0.76831 0.0
H1162 H 0.14866 0.46057 0.67788 0.0
H1163 H 0.2571 0.51364 0.64751 0.0
C1164 C 0.28358 0.50304 0.84246 0.0
C1165 C 0.26687 0.48699 0.88689 0.0
C1166 C 0.23158 0.47533 0.89175 0.0
C1167 C 0.2127 0.47722 0.85142 0.0
C1168 C 0.22966 0.49149 0.80701 0.0
C1169 C 0.26452 0.50501 0.80279 0.0
C1170 C 0.27623 0.51579 0.74987 0.0
C1171 C 0.29956 0.55451 0.74689 0.0
C1172 C 0.29386 0.49696 0.72868 0.0
C1173 C 0.24234 0.50452 0.72437 0.0
C1174 C 0.21575 0.49083 0.75788 0.0
C1175 C 0.18181 0.47516 0.74196 0.0
C1176 C 0.17495 0.47339 0.69056 0.0
C1177 C 0.20193 0.48729 0.65583 0.0
C1178 C 0.23596 0.50355 0.67323 0.0
H1179 H 0.74303 0.24423 0.96145 0.0
H1180 H 0.84651 0.32 0.92338 0.0
H1181 H 0.83145 0.30859 0.83354 0.0
H1182 H 0.73498 0.1853 0.87177 0.0
H1183 H 0.69036 0.16966 0.85959 0.0
H1184 H 0.70833 0.18758 0.91953 0.0
H1185 H 0.68666 0.23045 0.91024 0.0
H1186 H 0.66886 0.2128 0.84988 0.0
H1187 H 0.69869 0.25762 0.85646 0.0
H1188 H 0.80505 0.28574 0.74719 0.0
H1189 H 0.77278 0.24924 0.67509 0.0
H1190 H 0.68834 0.18689 0.77217 0.0
C1191 C 0.76241 0.25903 0.9343 0.0
C1192 C 0.79582 0.28339 0.94935 0.0
C1193 C 0.82067 0.30141 0.91259 0.0
C1194 C 0.81226 0.29522 0.86155 0.0
C1195 C 0.779 0.27078 0.84801 0.0
C1196 C 0.75462 0.25278 0.88357 0.0
C1197 C 0.72188 0.22526 0.8602 0.0
C1198 C 0.71342 0.18988 0.87887 0.0
C1199 C 0.69228 0.23195 0.86977 0.0
C1200 C 0.7317 0.22997 0.80586 0.0
C1201 C 0.76442 0.25684 0.79918 0.0
C1202 C 0.77931 0.26491 0.75206 0.0
C1203 C 0.76072 0.24426 0.71123 0.0
C1204 C 0.72798 0.21559 0.71819 0.0
C1205 C 0.71314 0.20899 0.76583 0.0
loop_
_geom_bond_atom_site_label_1
_geom_bond_atom_site_label_2
_geom_bond_distance
_geom_bond_site_symmetry_2
_ccdc_geom_bond_type
C0 C1 1.351 . S
C0 N3 1.368 . S
C0 H5 0.931 . S
C1 C0 1.351 . S
C1 N2 1.352 1_556 S
C1 H29 0.930 . S
N2 C1 1.352 1_554 S
N2 C4 1.349 . S
N3 C0 1.368 . S
N3 C4 1.321 1_556 S
N3 Co6 2.135 . S
C4 N2 1.349 . S
C4 N3 1.321 1_554 S
C4 H28 0.930 . S
H5 C0 0.931 . S
Co6 N3 2.135 . S
Co6 N9 2.121 1_556 S
Co6 O14 2.055 . S
Co6 O17 2.039 1_556 S
Co6 N20 2.140 1_556 S
C7 O8 1.227 . S
C7 O17 1.265 . S
O8 C7 1.227 . S
N9 Co6 2.121 1_554 S
N9 C11 1.375 . S
N9 C12 1.313 1_554 S
C10 C11 1.338 . S
C10 N13 1.377 1_554 S
C10 H30 0.930 . S
C11 N9 1.375 . S
C11 C10 1.338 . S
C11 H15 0.931 . S
C12 N9 1.313 1_556 S
C12 N13 1.344 . S
C12 H16 0.930 . S
N13 C10 1.377 1_556 S
N13 C12 1.344 . S
O14 Co6 2.055 . S
O14 C18 1.253 . S
H15 C11 0.931 . S
H16 C12 0.930 . S
O17 Co6 2.039 1_554 S
O17 C7 1.265 . S
C18 O14 1.253 . S
C18 O19 1.227 . S
O19 C18 1.227 . S
N20 Co6 2.140 1_554 S
N20 C23 1.346 . S
N20 C24 1.345 1_554 S
C21 C22 1.387 . S
C21 C25 1.391 1_554 S
C22 C21 1.387 . S
C22 C23 1.369 . S
C22 H31 0.929 . S
C23 N20 1.346 . S
C23 C22 1.369 . S
C23 H26 0.928 . S
C24 N20 1.345 1_556 S
C24 C25 1.371 . S
C24 H27 0.931 . S
C25 C21 1.391 1_556 S
C25 C24 1.371 . S
C25 H32 0.930 . S
H26 C23 0.928 . S
H27 C24 0.931 . S
H28 C4 0.930 . S
H29 C1 0.930 . S
H30 C10 0.930 . S
H31 C22 0.929 . S
H32 C25 0.930 . S
C33 C34 1.351 . S
C33 N36 1.368 . S
C33 H38 0.931 . S
C34 C33 1.351 . S
C34 N35 1.354 1_556 S
C34 H62 0.930 . S
N35 C34 1.354 1_554 S
N35 C37 1.348 . S
N36 C33 1.368 . S
N36 C37 1.321 1_556 S
N36 Co39 2.135 . S
C37 N35 1.348 . S
C37 N36 1.321 1_554 S
C37 H61 0.930 . S
H38 C33 0.931 . S
Co39 N36 2.135 . S
Co39 N42 2.121 1_556 S
Co39 O47 2.055 . S
Co39 O50 2.039 1_556 S
Co39 N53 2.140 1_556 S
C40 O41 1.227 . S
C40 O50 1.265 . S
O41 C40 1.227 . S
N42 Co39 2.121 1_554 S
N42 C44 1.375 . S
N42 C45 1.313 1_554 S
C43 C44 1.338 . S
C43 N46 1.377 1_554 S
C43 H63 0.930 . S
C44 N42 1.375 . S
C44 C43 1.338 . S
C44 H48 0.931 . S
C45 N42 1.313 1_556 S
C45 N46 1.344 . S
C45 H49 0.930 . S
N46 C43 1.377 1_556 S
N46 C45 1.344 . S
O47 Co39 2.055 . S
O47 C51 1.253 . S
H48 C44 0.931 . S
H49 C45 0.930 . S
O50 Co39 2.039 1_554 S
O50 C40 1.265 . S
C51 O47 1.253 . S
C51 O52 1.227 . S
O52 C51 1.227 . S
N53 Co39 2.140 1_554 S
N53 C56 1.346 . S
N53 C57 1.345 1_554 S
C54 C55 1.387 . S
C54 C58 1.391 1_554 S
C55 C54 1.387 . S
C55 C56 1.369 . S
C55 H64 0.929 . S
C56 N53 1.346 . S
C56 C55 1.369 . S
C56 H59 0.928 . S
C57 N53 1.345 1_556 S
C57 C58 1.371 . S
C57 H60 0.931 . S
C58 C54 1.391 1_556 S
C58 C57 1.371 . S
C58 H65 0.930 . S
H59 C56 0.928 . S
H60 C57 0.931 . S
H61 C37 0.930 . S
H62 C34 0.930 . S
H63 C43 0.930 . S
H64 C55 0.929 . S
H65 C58 0.930 . S
C66 C67 1.351 . S
C66 N69 1.368 . S
C66 H71 0.931 . S
C67 C66 1.351 . S
C67 N68 1.353 1_556 S
C67 H95 0.930 . S
N68 C67 1.353 1_554 S
N68 C70 1.349 . S
N69 C66 1.368 . S
N69 C70 1.321 1_556 S
N69 Co72 2.135 . S
C70 N68 1.349 . S
C70 N69 1.321 1_554 S
C70 H94 0.930 . S
H71 C66 0.931 . S
Co72 N69 2.135 . S
Co72 N75 2.121 1_556 S
Co72 O80 2.055 . S
Co72 O83 2.039 1_556 S
Co72 N86 2.140 1_556 S
C73 O74 1.227 . S
C73 O83 1.265 . S
O74 C73 1.227 . S
N75 Co72 2.121 1_554 S
N75 C77 1.375 . S
N75 C78 1.313 1_554 S
C76 C77 1.338 . S
C76 N79 1.377 1_554 S
C76 H96 0.930 . S
C77 N75 1.375 . S
C77 C76 1.338 . S
C77 H81 0.931 . S
C78 N75 1.313 1_556 S
C78 N79 1.344 . S
C78 H82 0.930 . S
N79 C76 1.377 1_556 S
N79 C78 1.344 . S
O80 Co72 2.055 . S
O80 C84 1.253 . S
H81 C77 0.931 . S
H82 C78 0.930 . S
O83 Co72 2.039 1_554 S
O83 C73 1.265 . S
C84 O80 1.253 . S
C84 O85 1.227 . S
O85 C84 1.227 . S
N86 Co72 2.140 1_554 S
N86 C89 1.346 . S
N86 C90 1.345 1_554 S
C87 C88 1.387 . S
C87 C91 1.391 1_554 S
C88 C87 1.387 . S
C88 C89 1.369 . S
C88 H97 0.929 . S
C89 N86 1.346 . S
C89 C88 1.369 . S
C89 H92 0.928 . S
C90 N86 1.345 1_556 S
C90 C91 1.371 . S
C90 H93 0.931 . S
C91 C87 1.391 1_556 S
C91 C90 1.371 . S
C91 H98 0.930 . S
H92 C89 0.928 . S
H93 C90 0.931 . S
H94 C70 0.930 . S
H95 C67 0.930 . S
H96 C76 0.930 . S
H97 C88 0.929 . S
H98 C91 0.930 . S
C99 C100 1.351 . S
C99 N102 1.368 . S
C99 H104 0.931 . S
C100 C99 1.351 . S
C100 N101 1.352 1_556 S
C100 H128 0.930 . S
N101 C100 1.352 1_554 S
N101 C103 1.349 . S
N102 C99 1.368 . S
N102 C103 1.321 1_556 S
N102 Co105 2.135 . S
C103 N101 1.349 . S
C103 N102 1.321 1_554 S
C103 H127 0.930 . S
H104 C99 0.931 . S
Co105 N102 2.135 . S
Co105 N108 2.121 1_556 S
Co105 O113 2.055 . S
Co105 O116 2.039 1_556 S
Co105 N119 2.140 1_556 S
C106 O107 1.227 . S
C106 O116 1.265 . S
O107 C106 1.227 . S
N108 Co105 2.121 1_554 S
N108 C110 1.375 . S
N108 C111 1.313 1_554 S
C109 C110 1.338 . S
C109 N112 1.377 1_554 S
C109 H129 0.930 . S
C110 N108 1.375 . S
C110 C109 1.338 . S
C110 H114 0.931 . S
C111 N108 1.313 1_556 S
C111 N112 1.344 . S
C111 H115 0.930 . S
N112 C109 1.377 1_556 S
N112 C111 1.344 . S
O113 Co105 2.055 . S
O113 C117 1.253 . S
H114 C110 0.931 . S
H115 C111 0.930 . S
O116 Co105 2.039 1_554 S
O116 C106 1.265 . S
C117 O113 1.253 . S
C117 O118 1.227 . S
O118 C117 1.227 . S
N119 Co105 2.140 1_554 S
N119 C122 1.346 . S
N119 C123 1.345 1_554 S
C120 C121 1.387 . S
C120 C124 1.391 1_554 S
C121 C120 1.387 . S
C121 C122 1.369 . S
C121 H130 0.929 . S
C122 N119 1.346 . S
C122 C121 1.369 . S
C122 H125 0.928 . S
C123 N119 1.345 1_556 S
C123 C124 1.371 . S
C123 H126 0.931 . S
C124 C120 1.391 1_556 S
C124 C123 1.371 . S
C124 H131 0.930 . S
H125 C122 0.928 . S
H126 C123 0.931 . S
H127 C103 0.930 . S
H128 C100 0.930 . S
H129 C109 0.930 . S
H130 C121 0.929 . S
H131 C124 0.930 . S
C132 C133 1.351 . S
C132 N135 1.368 . S
C132 H137 0.931 . S
C133 C132 1.351 . S
C133 N134 1.354 1_556 S
C133 H161 0.930 . S
N134 C133 1.354 1_554 S
N134 C136 1.348 . S
N135 C132 1.368 . S
N135 C136 1.321 1_556 S
N135 Co138 2.135 . S
C136 N134 1.348 . S
C136 N135 1.321 1_554 S
C136 H160 0.930 . S
H137 C132 0.931 . S
Co138 N135 2.135 . S
Co138 N141 2.121 1_556 S
Co138 O146 2.055 . S
Co138 O149 2.039 1_556 S
Co138 N152 2.140 1_556 S
C139 O140 1.227 . S
C139 O149 1.265 . S
O140 C139 1.227 . S
N141 Co138 2.121 1_554 S
N141 C143 1.375 . S
N141 C144 1.313 1_554 S
C142 C143 1.338 . S
C142 N145 1.377 1_554 S
C142 H162 0.930 . S
C143 N141 1.375 . S
C143 C142 1.338 . S
C143 H147 0.931 . S
C144 N141 1.313 1_556 S
C144 N145 1.344 . S
C144 H148 0.930 . S
N145 C142 1.377 1_556 S
N145 C144 1.344 . S
O146 Co138 2.055 . S
O146 C150 1.253 . S
H147 C143 0.931 . S
H148 C144 0.930 . S
O149 Co138 2.039 1_554 S
O149 C139 1.265 . S
C150 O146 1.253 . S
C150 O151 1.227 . S
O151 C150 1.227 . S
N152 Co138 2.140 1_554 S
N152 C155 1.346 . S
N152 C156 1.345 1_554 S
C153 C154 1.387 . S
C153 C157 1.391 1_554 S
C154 C153 1.387 . S
C154 C155 1.369 . S
C154 H163 0.929 . S
C155 N152 1.346 . S
C155 C154 1.369 . S
C155 H158 0.928 . S
C156 N152 1.345 1_556 S
C156 C157 1.371 . S
C156 H159 0.931 . S
C157 C153 1.391 1_556 S
C157 C156 1.371 . S
C157 H164 0.930 . S
H158 C155 0.928 . S
H159 C156 0.931 . S
H160 C136 0.930 . S
H161 C133 0.930 . S
H162 C142 0.930 . S
H163 C154 0.929 . S
H164 C157 0.930 . S
C165 C166 1.351 . S
C165 N168 1.368 . S
C165 H170 0.931 . S
C166 C165 1.351 . S
C166 N167 1.353 1_556 S
C166 H194 0.930 . S
N167 C166 1.353 1_554 S
N167 C169 1.349 . S
N168 C165 1.368 . S
N168 C169 1.321 1_556 S
N168 Co171 2.135 . S
C169 N167 1.349 . S
C169 N168 1.321 1_554 S
C169 H193 0.930 . S
H170 C165 0.931 . S
Co171 N168 2.135 . S
Co171 N174 2.121 1_556 S
Co171 O179 2.055 . S
Co171 O182 2.039 1_556 S
Co171 N185 2.140 1_556 S
C172 O173 1.227 . S
C172 O182 1.265 . S
O173 C172 1.227 . S
N174 Co171 2.121 1_554 S
N174 C176 1.375 . S
N174 C177 1.313 1_554 S
C175 C176 1.338 . S
C175 N178 1.377 1_554 S
C175 H195 0.930 . S
C176 N174 1.375 . S
C176 C175 1.338 . S
C176 H180 0.931 . S
C177 N174 1.313 1_556 S
C177 N178 1.344 . S
C177 H181 0.930 . S
N178 C175 1.377 1_556 S
N178 C177 1.344 . S
O179 Co171 2.055 . S
O179 C183 1.253 . S
H180 C176 0.931 . S
H181 C177 0.930 . S
O182 Co171 2.039 1_554 S
O182 C172 1.265 . S
C183 O179 1.253 . S
C183 O184 1.227 . S
O184 C183 1.227 . S
N185 Co171 2.140 1_554 S
N185 C188 1.346 . S
N185 C189 1.345 1_554 S
C186 C187 1.387 . S
C186 C190 1.391 1_554 S
C187 C186 1.387 . S
C187 C188 1.369 . S
C187 H196 0.929 . S
C188 N185 1.346 . S
C188 C187 1.369 . S
C188 H191 0.928 . S
C189 N185 1.345 1_556 S
C189 C190 1.371 . S
C189 H192 0.931 . S
C190 C186 1.391 1_556 S
C190 C189 1.371 . S
C190 H197 0.930 . S
H191 C188 0.928 . S
H192 C189 0.931 . S
H193 C169 0.930 . S
H194 C166 0.930 . S
H195 C175 0.930 . S
H196 C187 0.929 . S
H197 C190 0.930 . S
C198 C199 1.351 . S
C198 N201 1.368 . S
C198 H203 0.931 . S
C199 C198 1.351 . S
C199 N200 1.373 . S
C199 H227 0.930 . S
N200 C199 1.373 . S
N200 C202 1.340 . S
N201 C198 1.368 . S
N201 C202 1.321 . S
N201 Co204 2.135 . S
C202 N200 1.340 . S
C202 N201 1.321 . S
C202 H226 0.930 . S
H203 C198 0.931 . S
Co204 N201 2.135 . S
Co204 N207 2.121 . S
Co204 O212 2.055 . S
Co204 O215 2.039 . S
Co204 N218 2.140 . S
C205 O206 1.227 . S
C205 O215 1.265 . S
O206 C205 1.227 . S
N207 Co204 2.121 . S
N207 C209 1.375 . S
N207 C210 1.313 . S
C208 C209 1.338 . S
C208 N211 1.377 . S
C208 H228 0.930 . S
C209 N207 1.375 . S
C209 C208 1.338 . S
C209 H213 0.931 . S
C210 N207 1.313 . S
C210 N211 1.344 . S
C210 H214 0.930 . S
N211 C208 1.377 . S
N211 C210 1.344 . S
O212 Co204 2.055 . S
O212 C216 1.253 . S
H213 C209 0.931 . S
H214 C210 0.930 . S
O215 Co204 2.039 . S
O215 C205 1.265 . S
C216 O212 1.253 . S
C216 O217 1.227 . S
O217 C216 1.227 . S
N218 Co204 2.140 . S
N218 C221 1.346 . S
N218 C222 1.345 . S
C219 C220 1.387 . S
C219 C223 1.391 . S
C220 C219 1.387 . S
C220 C221 1.369 . S
C220 H229 0.929 . S
C221 N218 1.346 . S
C221 C220 1.369 . S
C221 H224 0.928 . S
C222 N218 1.345 . S
C222 C223 1.371 . S
C222 H225 0.931 . S
C223 C219 1.391 . S
C223 C222 1.371 . S
C223 H230 0.930 . S
H224 C221 0.928 . S
H225 C222 0.931 . S
H226 C202 0.930 . S
H227 C199 0.930 . S
H228 C208 0.930 . S
H229 C220 0.929 . S
H230 C223 0.930 . S
C231 C232 1.351 . S
C231 N234 1.368 . S
C231 H236 0.931 . S
C232 C231 1.351 . S
C232 N233 1.373 . S
C232 H260 0.930 . S
N233 C232 1.373 . S
N233 C235 1.340 . S
N234 C231 1.368 . S
N234 C235 1.321 . S
N234 Co237 2.135 . S
C235 N233 1.340 . S
C235 N234 1.321 . S
C235 H259 0.930 . S
H236 C231 0.931 . S
Co237 N234 2.135 . S
Co237 N240 2.121 . S
Co237 O245 2.055 . S
Co237 O248 2.039 . S
Co237 N251 2.140 . S
C238 O239 1.227 . S
C238 O248 1.265 . S
O239 C238 1.227 . S
N240 Co237 2.121 . S
N240 C242 1.375 . S
N240 C243 1.313 . S
C241 C242 1.338 . S
C241 N244 1.377 . S
C241 H261 0.930 . S
C242 N240 1.375 . S
C242 C241 1.338 . S
C242 H246 0.931 . S
C243 N240 1.313 . S
C243 N244 1.344 . S
C243 H247 0.930 . S
N244 C241 1.377 . S
N244 C243 1.344 . S
O245 Co237 2.055 . S
O245 C249 1.253 . S
H246 C242 0.931 . S
H247 C243 0.930 . S
O248 Co237 2.039 . S
O248 C238 1.265 . S
C249 O245 1.253 . S
C249 O250 1.227 . S
O250 C249 1.227 . S
N251 Co237 2.140 . S
N251 C254 1.346 . S
N251 C255 1.345 . S
C252 C253 1.387 . S
C252 C256 1.391 . S
C253 C252 1.387 . S
C253 C254 1.369 . S
C253 H262 0.929 . S
C254 N251 1.346 . S
C254 C253 1.369 . S
C254 H257 0.928 . S
C255 N251 1.345 . S
C255 C256 1.371 . S
C255 H258 0.931 . S
C256 C252 1.391 . S
C256 C255 1.371 . S
C256 H263 0.930 . S
H257 C254 0.928 . S
H258 C255 0.931 . S
H259 C235 0.930 . S
H260 C232 0.930 . S
H261 C241 0.930 . S
H262 C253 0.929 . S
H263 C256 0.930 . S
C264 C265 1.351 . S
C264 N267 1.368 . S
C264 H269 0.931 . S
C265 C264 1.351 . S
C265 N266 1.373 . S
C265 H293 0.930 . S
N266 C265 1.373 . S
N266 C268 1.340 . S
N267 C264 1.368 . S
N267 C268 1.321 . S
N267 Co270 2.135 . S
C268 N266 1.340 . S
C268 N267 1.321 . S
C268 H292 0.930 . S
H269 C264 0.931 . S
Co270 N267 2.135 . S
Co270 N273 2.121 . S
Co270 O278 2.055 . S
Co270 O281 2.039 . S
Co270 N284 2.140 . S
C271 O272 1.227 . S
C271 O281 1.265 . S
O272 C271 1.227 . S
N273 Co270 2.121 . S
N273 C275 1.375 . S
N273 C276 1.313 . S
C274 C275 1.338 . S
C274 N277 1.377 . S
C274 H294 0.930 . S
C275 N273 1.375 . S
C275 C274 1.338 . S
C275 H279 0.931 . S
C276 N273 1.313 . S
C276 N277 1.344 . S
C276 H280 0.930 . S
N277 C274 1.377 . S
N277 C276 1.344 . S
O278 Co270 2.055 . S
O278 C282 1.253 . S
H279 C275 0.931 . S
H280 C276 0.930 . S
O281 Co270 2.039 . S
O281 C271 1.265 . S
C282 O278 1.253 . S
C282 O283 1.227 . S
O283 C282 1.227 . S
N284 Co270 2.140 . S
N284 C287 1.346 . S
N284 C288 1.345 . S
C285 C286 1.387 . S
C285 C289 1.391 . S
C286 C285 1.387 . S
C286 C287 1.369 . S
C286 H295 0.929 . S
C287 N284 1.346 . S
C287 C286 1.369 . S
C287 H290 0.928 . S
C288 N284 1.345 . S
C288 C289 1.371 . S
C288 H291 0.931 . S
C289 C285 1.391 . S
C289 C288 1.371 . S
C289 H296 0.930 . S
H290 C287 0.928 . S
H291 C288 0.931 . S
H292 C268 0.930 . S
H293 C265 0.930 . S
H294 C274 0.930 . S
H295 C286 0.929 . S
H296 C289 0.930 . S
C297 C298 1.351 . S
C297 N300 1.368 . S
C297 H302 0.931 . S
C298 C297 1.351 . S
C298 N299 1.373 . S
C298 H326 0.930 . S
N299 C298 1.373 . S
N299 C301 1.340 . S
N300 C297 1.368 . S
N300 C301 1.321 . S
N300 Co303 2.135 . S
C301 N299 1.340 . S
C301 N300 1.321 . S
C301 H325 0.930 . S
H302 C297 0.931 . S
Co303 N300 2.135 . S
Co303 N306 2.121 . S
Co303 O311 2.055 . S
Co303 O314 2.039 . S
Co303 N317 2.140 . S
C304 O305 1.227 . S
C304 O314 1.265 . S
O305 C304 1.227 . S
N306 Co303 2.121 . S
N306 C308 1.375 . S
N306 C309 1.313 . S
C307 C308 1.338 . S
C307 N310 1.377 . S
C307 H327 0.930 . S
C308 N306 1.375 . S
C308 C307 1.338 . S
C308 H312 0.931 . S
C309 N306 1.313 . S
C309 N310 1.344 . S
C309 H313 0.930 . S
N310 C307 1.377 . S
N310 C309 1.344 . S
O311 Co303 2.055 . S
O311 C315 1.253 . S
H312 C308 0.931 . S
H313 C309 0.930 . S
O314 Co303 2.039 . S
O314 C304 1.265 . S
C315 O311 1.253 . S
C315 O316 1.227 . S
O316 C315 1.227 . S
N317 Co303 2.140 . S
N317 C320 1.346 . S
N317 C321 1.345 . S
C318 C319 1.387 . S
C318 C322 1.391 . S
C319 C318 1.387 . S
C319 C320 1.369 . S
C319 H328 0.929 . S
C320 N317 1.346 . S
C320 C319 1.369 . S
C320 H323 0.928 . S
C321 N317 1.345 . S
C321 C322 1.371 . S
C321 H324 0.931 . S
C322 C318 1.391 . S
C322 C321 1.371 . S
C322 H329 0.930 . S
H323 C320 0.928 . S
H324 C321 0.931 . S
H325 C301 0.930 . S
H326 C298 0.930 . S
H327 C307 0.930 . S
H328 C319 0.929 . S
H329 C322 0.930 . S
C330 C331 1.351 . S
C330 N333 1.368 . S
C330 H335 0.931 . S
C331 C330 1.351 . S
C331 N332 1.373 . S
C331 H359 0.930 . S
N332 C331 1.373 . S
N332 C334 1.340 . S
N333 C330 1.368 . S
N333 C334 1.321 . S
N333 Co336 2.135 . S
C334 N332 1.340 . S
C334 N333 1.321 . S
C334 H358 0.930 . S
H335 C330 0.931 . S
Co336 N333 2.135 . S
Co336 N339 2.121 . S
Co336 O344 2.055 . S
Co336 O347 2.039 . S
Co336 N350 2.140 . S
C337 O338 1.227 . S
C337 O347 1.265 . S
O338 C337 1.227 . S
N339 Co336 2.121 . S
N339 C341 1.375 . S
N339 C342 1.313 . S
C340 C341 1.338 . S
C340 N343 1.377 . S
C340 H360 0.930 . S
C341 N339 1.375 . S
C341 C340 1.338 . S
C341 H345 0.931 . S
C342 N339 1.313 . S
C342 N343 1.344 . S
C342 H346 0.930 . S
N343 C340 1.377 . S
N343 C342 1.344 . S
O344 Co336 2.055 . S
O344 C348 1.253 . S
H345 C341 0.931 . S
H346 C342 0.930 . S
O347 Co336 2.039 . S
O347 C337 1.265 . S
C348 O344 1.253 . S
C348 O349 1.227 . S
O349 C348 1.227 . S
N350 Co336 2.140 . S
N350 C353 1.346 . S
N350 C354 1.345 . S
C351 C352 1.387 . S
C351 C355 1.391 . S
C352 C351 1.387 . S
C352 C353 1.369 . S
C352 H361 0.929 . S
C353 N350 1.346 . S
C353 C352 1.369 . S
C353 H356 0.928 . S
C354 N350 1.345 . S
C354 C355 1.371 . S
C354 H357 0.931 . S
C355 C351 1.391 . S
C355 C354 1.371 . S
C355 H362 0.930 . S
H356 C353 0.928 . S
H357 C354 0.931 . S
H358 C334 0.930 . S
H359 C331 0.930 . S
H360 C340 0.930 . S
H361 C352 0.929 . S
H362 C355 0.930 . S
C363 C364 1.351 . S
C363 N366 1.368 . S
C363 H368 0.931 . S
C364 C363 1.351 . S
C364 N365 1.373 . S
C364 H392 0.930 . S
N365 C364 1.373 . S
N365 C367 1.340 . S
N366 C363 1.368 . S
N366 C367 1.321 . S
N366 Co369 2.135 . S
C367 N365 1.340 . S
C367 N366 1.321 . S
C367 H391 0.930 . S
H368 C363 0.931 . S
Co369 N366 2.135 . S
Co369 N372 2.121 . S
Co369 O377 2.055 . S
Co369 O380 2.039 . S
Co369 N383 2.140 . S
C370 O371 1.227 . S
C370 O380 1.265 . S
O371 C370 1.227 . S
N372 Co369 2.121 . S
N372 C374 1.375 . S
N372 C375 1.313 . S
C373 C374 1.338 . S
C373 N376 1.377 . S
C373 H393 0.930 . S
C374 N372 1.375 . S
C374 C373 1.338 . S
C374 H378 0.931 . S
C375 N372 1.313 . S
C375 N376 1.344 . S
C375 H379 0.930 . S
N376 C373 1.377 . S
N376 C375 1.344 . S
O377 Co369 2.055 . S
O377 C381 1.253 . S
H378 C374 0.931 . S
H379 C375 0.930 . S
O380 Co369 2.039 . S
O380 C370 1.265 . S
C381 O377 1.253 . S
C381 O382 1.227 . S
O382 C381 1.227 . S
N383 Co369 2.140 . S
N383 C386 1.346 . S
N383 C387 1.345 . S
C384 C385 1.387 . S
C384 C388 1.391 . S
C385 C384 1.387 . S
C385 C386 1.369 . S
C385 H394 0.929 . S
C386 N383 1.346 . S
C386 C385 1.369 . S
C386 H389 0.928 . S
C387 N383 1.345 . S
C387 C388 1.371 . S
C387 H390 0.931 . S
C388 C384 1.391 . S
C388 C387 1.371 . S
C388 H395 0.930 . S
H389 C386 0.928 . S
H390 C387 0.931 . S
H391 C367 0.930 . S
H392 C364 0.930 . S
H393 C373 0.930 . S
H394 C385 0.929 . S
H395 C388 0.930 . S
H396 C408 0.930 . S
H397 C410 0.930 . S
H398 C411 0.930 . S
H399 C415 0.959 . S
H400 C415 0.959 . S
H401 C415 0.961 . S
H402 C416 0.960 . S
H403 C416 0.961 . S
H404 C416 0.959 . S
H405 C419 0.929 . S
H406 C420 0.931 . S
H407 C422 0.930 . S
C408 H396 0.930 . S
C408 C409 1.399 . S
C408 C413 1.399 . S
C409 C408 1.399 . S
C409 C410 1.376 1_554 S
C410 H397 0.930 . S
C410 C409 1.376 1_556 S
C410 C411 1.388 . S
C411 H398 0.930 . S
C411 C410 1.388 . S
C411 C412 1.390 . S
C412 C411 1.390 . S
C412 C413 1.394 1_556 S
C412 C418 1.465 1_545 S
C413 C408 1.399 . S
C413 C412 1.394 1_554 S
C413 C414 1.539 . S
C414 C413 1.539 . S
C414 C415 1.505 . S
C414 C416 1.558 1_545 S
C414 C417 1.503 1_545 S
C415 H399 0.959 . S
C415 H400 0.959 . S
C415 H401 0.961 . S
C415 C414 1.505 . S
C416 H402 0.960 . S
C416 H403 0.961 . S
C416 H404 0.959 . S
C416 C414 1.558 1_565 S
C417 C414 1.503 1_565 S
C417 C418 1.396 1_554 S
C417 C422 1.390 . S
C418 C412 1.465 1_565 S
C418 C417 1.396 1_556 S
C418 C419 1.399 . S
C419 H405 0.929 . S
C419 C418 1.399 . S
C419 C420 1.385 . S
C420 H406 0.931 . S
C420 C419 1.385 . S
C420 C421 1.389 1_556 S
C421 C420 1.389 1_554 S
C421 C422 1.387 . S
C422 H407 0.930 . S
C422 C417 1.390 . S
C422 C421 1.387 . S
H423 C435 0.930 . S
H424 C437 0.930 . S
H425 C438 0.930 . S
H426 C442 0.959 . S
H427 C442 0.959 . S
H428 C442 0.961 . S
H429 C443 0.960 . S
H430 C443 0.961 . S
H431 C443 0.959 . S
H432 C446 0.929 . S
H433 C447 0.931 . S
H434 C449 0.930 . S
C435 H423 0.930 . S
C435 C436 1.399 . S
C435 C440 1.399 . S
C436 C435 1.399 . S
C436 C437 1.376 1_554 S
C437 H424 0.930 . S
C437 C436 1.376 1_556 S
C437 C438 1.388 . S
C438 H425 0.930 . S
C438 C437 1.388 . S
C438 C439 1.390 . S
C439 C438 1.390 . S
C439 C440 1.394 1_556 S
C439 C445 1.465 . S
C440 C435 1.399 . S
C440 C439 1.394 1_554 S
C440 C441 1.516 . S
C441 C440 1.516 . S
C441 C442 1.502 . S
C441 C443 1.561 . S
C441 C444 1.526 . S
C442 H426 0.959 . S
C442 H427 0.959 . S
C442 H428 0.961 . S
C442 C441 1.502 . S
C443 H429 0.960 . S
C443 H430 0.961 . S
C443 H431 0.959 . S
C443 C441 1.561 . S
C444 C441 1.526 . S
C444 C445 1.396 1_554 S
C444 C449 1.390 . S
C445 C439 1.465 . S
C445 C444 1.396 1_556 S
C445 C446 1.399 . S
C446 H432 0.929 . S
C446 C445 1.399 . S
C446 C447 1.385 . S
C447 H433 0.931 . S
C447 C446 1.385 . S
C447 C448 1.389 1_556 S
C448 C447 1.389 1_554 S
C448 C449 1.387 . S
C449 H434 0.930 . S
C449 C444 1.390 . S
C449 C448 1.387 . S
H450 C462 0.930 . S
H451 C464 0.930 . S
H452 C465 0.930 . S
H453 C469 0.959 . S
H454 C469 0.959 . S
H455 C469 0.961 . S
H456 C470 0.960 . S
H457 C470 0.961 1_655 S
H458 C470 0.959 . S
H459 C473 0.929 . S
H460 C474 0.931 . S
H461 C476 0.930 . S
C462 H450 0.930 . S
C462 C463 1.399 1_556 S
C462 C467 1.399 . S
C463 C462 1.399 1_554 S
C463 C464 1.376 . S
C464 H451 0.930 . S
C464 C463 1.376 . S
C464 C465 1.388 . S
C465 H452 0.930 . S
C465 C464 1.388 . S
C465 C466 1.390 . S
C466 C465 1.390 . S
C466 C467 1.394 1_554 S
C466 C472 1.465 1_455 S
C467 C462 1.399 . S
C467 C466 1.394 1_556 S
C467 C468 1.516 1_455 S
C468 C467 1.516 1_655 S
C468 C469 1.502 . S
C468 C470 1.561 1_655 S
C468 C471 1.526 . S
C469 H453 0.959 . S
C469 H454 0.959 . S
C469 H455 0.961 . S
C469 C468 1.502 . S
C470 H456 0.960 . S
C470 H457 0.961 1_455 S
C470 H458 0.959 . S
C470 C468 1.561 1_455 S
C471 C468 1.526 . S
C471 C472 1.396 1_556 S
C471 C476 1.390 . S
C472 C466 1.465 1_655 S
C472 C471 1.396 1_554 S
C472 C473 1.399 . S
C473 H459 0.929 . S
C473 C472 1.399 . S
C473 C474 1.385 . S
C474 H460 0.931 . S
C474 C473 1.385 . S
C474 C475 1.389 . S
C475 C474 1.389 . S
C475 C476 1.387 1_554 S
C476 H461 0.930 . S
C476 C471 1.390 . S
C476 C475 1.387 1_556 S
H477 C489 0.930 . S
H478 C491 0.930 . S
H479 C492 0.930 . S
H480 C496 0.959 . S
H481 C496 0.959 1_655 S
H482 C496 0.961 . S
H483 C497 0.960 . S
H484 C497 0.961 . S
H485 C497 0.959 . S
H486 C500 0.929 . S
H487 C501 0.931 . S
H488 C503 0.930 . S
C489 H477 0.930 . S
C489 C490 1.399 . S
C489 C494 1.399 . S
C490 C489 1.399 . S
C490 C491 1.376 . S
C491 H478 0.930 . S
C491 C490 1.376 . S
C491 C492 1.388 . S
C492 H479 0.930 . S
C492 C491 1.388 . S
C492 C493 1.390 . S
C493 C492 1.390 . S
C493 C494 1.394 . S
C493 C499 1.465 1_455 S
C494 C489 1.399 . S
C494 C493 1.394 . S
C494 C495 1.516 1_455 S
C495 C494 1.516 1_655 S
C495 C496 1.502 1_655 S
C495 C497 1.561 . S
C495 C498 1.526 . S
C496 H480 0.959 . S
C496 H481 0.959 1_455 S
C496 H482 0.961 . S
C496 C495 1.502 1_455 S
C497 H483 0.960 . S
C497 H484 0.961 . S
C497 H485 0.959 . S
C497 C495 1.561 . S
C498 C495 1.526 . S
C498 C499 1.396 . S
C498 C503 1.390 . S
C499 C493 1.465 1_655 S
C499 C498 1.396 . S
C499 C500 1.399 . S
C500 H486 0.929 . S
C500 C499 1.399 . S
C500 C501 1.385 . S
C501 H487 0.931 . S
C501 C500 1.385 . S
C501 C502 1.389 . S
C502 C501 1.389 . S
C502 C503 1.387 . S
C503 H488 0.930 . S
C503 C498 1.390 . S
C503 C502 1.387 . S
H504 C516 0.930 . S
H505 C518 0.930 . S
H506 C519 0.930 . S
H507 C523 0.959 . S
H508 C523 0.959 . S
H509 C523 0.961 . S
H510 C524 0.960 . S
H511 C524 0.961 . S
H512 C524 0.959 . S
H513 C527 0.929 . S
H514 C528 0.931 . S
H515 C530 0.930 . S
C516 H504 0.930 . S
C516 C517 1.399 . S
C516 C521 1.399 . S
C517 C516 1.399 . S
C517 C518 1.376 . S
C518 H505 0.930 . S
C518 C517 1.376 . S
C518 C519 1.388 . S
C519 H506 0.930 . S
C519 C518 1.388 . S
C519 C520 1.390 . S
C520 C519 1.390 . S
C520 C521 1.394 . S
C520 C526 1.465 1_545 S
C521 C516 1.399 . S
C521 C520 1.394 . S
C521 C522 1.517 . S
C522 C521 1.517 . S
C522 C523 1.499 1_545 S
C522 C524 1.564 . S
C522 C525 1.525 1_545 S
C523 H507 0.959 . S
C523 H508 0.959 . S
C523 H509 0.961 . S
C523 C522 1.499 1_565 S
C524 H510 0.960 . S
C524 H511 0.961 . S
C524 H512 0.959 . S
C524 C522 1.564 . S
C525 C522 1.525 1_565 S
C525 C526 1.396 . S
C525 C530 1.390 . S
C526 C520 1.465 1_565 S
C526 C525 1.396 . S
C526 C527 1.399 . S
C527 H513 0.929 . S
C527 C526 1.399 . S
C527 C528 1.385 . S
C528 H514 0.931 . S
C528 C527 1.385 . S
C528 C529 1.389 . S
C529 C528 1.389 . S
C529 C530 1.387 . S
C530 H515 0.930 . S
C530 C525 1.390 . S
C530 C529 1.387 . S
H531 C543 0.930 . S
H532 C545 0.930 . S
H533 C546 0.930 . S
H534 C550 0.959 . S
H535 C550 0.959 . S
H536 C550 0.961 . S
H537 C551 0.960 . S
H538 C551 0.961 . S
H539 C551 0.959 . S
H540 C554 0.929 . S
H541 C555 0.931 . S
H542 C557 0.930 . S
C543 H531 0.930 . S
C543 C544 1.399 . S
C543 C548 1.399 . S
C544 C543 1.399 . S
C544 C545 1.376 . S
C545 H532 0.930 . S
C545 C544 1.376 . S
C545 C546 1.388 . S
C546 H533 0.930 . S
C546 C545 1.388 . S
C546 C547 1.390 . S
C547 C546 1.390 . S
C547 C548 1.394 . S
C547 C553 1.465 . S
C548 C543 1.399 . S
C548 C547 1.394 . S
C548 C549 1.516 . S
C549 C548 1.516 . S
C549 C550 1.502 . S
C549 C551 1.561 . S
C549 C552 1.526 . S
C550 H534 0.959 . S
C550 H535 0.959 . S
C550 H536 0.961 . S
C550 C549 1.502 . S
C551 H537 0.960 . S
C551 H538 0.961 . S
C551 H539 0.959 . S
C551 C549 1.561 . S
C552 C549 1.526 . S
C552 C553 1.396 . S
C552 C557 1.390 . S
C553 C547 1.465 . S
C553 C552 1.396 . S
C553 C554 1.399 . S
C554 H540 0.929 . S
C554 C553 1.399 . S
C554 C555 1.385 . S
C555 H541 0.931 . S
C555 C554 1.385 . S
C555 C556 1.389 . S
C556 C555 1.389 . S
C556 C557 1.387 . S
C557 H542 0.930 . S
C557 C552 1.390 . S
C557 C556 1.387 . S
H558 C570 0.930 1_545 S
H559 C572 0.930 . S
H560 C573 0.930 . S
H561 C577 0.959 . S
H562 C577 0.959 . S
H563 C577 0.961 . S
H564 C578 0.960 . S
H565 C578 0.961 . S
H566 C578 0.959 . S
H567 C581 0.929 . S
H568 C582 0.931 . S
H569 C584 0.930 . S
C570 H558 0.930 1_565 S
C570 C571 1.399 1_566 S
C570 C575 1.399 . S
C571 C570 1.399 1_544 S
C571 C572 1.376 . S
C572 H559 0.930 . S
C572 C571 1.376 . S
C572 C573 1.388 1_545 S
C573 H560 0.930 . S
C573 C572 1.388 1_565 S
C573 C574 1.390 . S
C574 C573 1.390 . S
C574 C575 1.394 1_554 S
C574 C580 1.465 . S
C575 C570 1.399 . S
C575 C574 1.394 1_556 S
C575 C576 1.516 . S
C576 C575 1.516 . S
C576 C577 1.502 . S
C576 C578 1.561 . S
C576 C579 1.526 . S
C577 H561 0.959 . S
C577 H562 0.959 . S
C577 H563 0.961 . S
C577 C576 1.502 . S
C578 H564 0.960 . S
C578 H565 0.961 . S
C578 H566 0.959 . S
C578 C576 1.561 . S
C579 C576 1.526 . S
C579 C580 1.396 1_556 S
C579 C584 1.390 . S
C580 C574 1.465 . S
C580 C579 1.396 1_554 S
C580 C581 1.399 . S
C581 H567 0.929 . S
C581 C580 1.399 . S
C581 C582 1.385 . S
C582 H568 0.931 . S
C582 C581 1.385 . S
C582 C583 1.389 1_554 S
C583 C582 1.389 1_556 S
C583 C584 1.387 . S
C584 H569 0.930 . S
C584 C579 1.390 . S
C584 C583 1.387 . S
H585 C597 0.930 . S
H586 C599 0.930 . S
H587 C600 0.930 . S
H588 C604 0.959 . S
H589 C604 0.959 . S
H590 C604 0.961 . S
H591 C605 0.960 . S
H592 C605 0.961 . S
H593 C605 0.959 . S
H594 C608 0.929 . S
H595 C609 0.931 . S
H596 C611 0.930 . S
C597 H585 0.930 . S
C597 C598 1.399 . S
C597 C602 1.399 . S
C598 C597 1.399 . S
C598 C599 1.376 1_556 S
C599 H586 0.930 . S
C599 C598 1.376 1_554 S
C599 C600 1.388 . S
C600 H587 0.930 . S
C600 C599 1.388 . S
C600 C601 1.390 . S
C601 C600 1.390 . S
C601 C602 1.394 1_554 S
C601 C607 1.465 . S
C602 C597 1.399 . S
C602 C601 1.394 1_556 S
C602 C603 1.516 . S
C603 C602 1.516 . S
C603 C604 1.502 . S
C603 C605 1.561 . S
C603 C606 1.526 . S
C604 H588 0.959 . S
C604 H589 0.959 . S
C604 H590 0.961 . S
C604 C603 1.502 . S
C605 H591 0.960 . S
C605 H592 0.961 . S
C605 H593 0.959 . S
C605 C603 1.561 . S
C606 C603 1.526 . S
C606 C607 1.396 1_556 S
C606 C611 1.390 . S
C607 C601 1.465 . S
C607 C606 1.396 1_554 S
C607 C608 1.399 . S
C608 H594 0.929 . S
C608 C607 1.399 . S
C608 C609 1.385 . S
C609 H595 0.931 . S
C609 C608 1.385 . S
C609 C610 1.389 . S
C610 C609 1.389 . S
C610 C611 1.387 1_554 S
C611 H596 0.930 . S
C611 C606 1.390 . S
C611 C610 1.387 1_556 S
H612 C624 0.930 . S
H613 C626 0.930 . S
H614 C627 0.930 . S
H615 C631 0.959 . S
H616 C631 0.959 . S
H617 C631 0.961 . S
H618 C632 0.960 . S
H619 C632 0.961 . S
H620 C632 0.959 . S
H621 C635 0.929 . S
H622 C636 0.931 . S
H623 C638 0.930 . S
C624 H612 0.930 . S
C624 C625 1.399 1_556 S
C624 C629 1.398 1_655 S
C625 C624 1.399 1_554 S
C625 C626 1.376 . S
C626 H613 0.930 . S
C626 C625 1.376 . S
C626 C627 1.388 1_655 S
C627 H614 0.930 . S
C627 C626 1.388 1_455 S
C627 C628 1.390 . S
C628 C627 1.390 . S
C628 C629 1.394 1_554 S
C628 C634 1.465 . S
C629 C624 1.398 1_455 S
C629 C628 1.394 1_556 S
C629 C630 1.516 . S
C630 C629 1.516 . S
C630 C631 1.502 . S
C630 C632 1.561 . S
C630 C633 1.526 . S
C631 H615 0.959 . S
C631 H616 0.959 . S
C631 H617 0.961 . S
C631 C630 1.502 . S
C632 H618 0.960 . S
C632 H619 0.961 . S
C632 H620 0.959 . S
C632 C630 1.561 . S
C633 C630 1.526 . S
C633 C634 1.396 1_556 S
C633 C638 1.390 . S
C634 C628 1.465 . S
C634 C633 1.396 1_554 S
C634 C635 1.399 . S
C635 H621 0.929 . S
C635 C634 1.399 . S
C635 C636 1.385 . S
C636 H622 0.931 . S
C636 C635 1.385 . S
C636 C637 1.389 1_554 S
C637 C636 1.389 1_556 S
C637 C638 1.387 . S
C638 H623 0.930 . S
C638 C633 1.390 . S
C638 C637 1.387 . S
H639 C651 0.930 . S
H640 C653 0.930 . S
H641 C654 0.930 . S
H642 C658 0.959 . S
H643 C658 0.959 . S
H644 C658 0.961 . S
H645 C659 0.960 . S
H646 C659 0.961 . S
H647 C659 0.959 . S
H648 C662 0.929 . S
H649 C663 0.931 . S
H650 C665 0.930 1_565 S
C651 H639 0.930 . S
C651 C652 1.399 1_554 S
C651 C656 1.399 . S
C652 C651 1.399 1_556 S
C652 C653 1.376 . S
C653 H640 0.930 . S
C653 C652 1.376 . S
C653 C654 1.388 . S
C654 H641 0.930 . S
C654 C653 1.388 . S
C654 C655 1.390 . S
C655 C654 1.390 . S
C655 C656 1.394 1_556 S
C655 C661 1.465 . S
C656 C651 1.399 . S
C656 C655 1.394 1_554 S
C656 C657 1.516 . S
C657 C656 1.516 . S
C657 C658 1.502 . S
C657 C659 1.561 . S
C657 C660 1.526 . S
C658 H642 0.959 . S
C658 H643 0.959 . S
C658 H644 0.961 . S
C658 C657 1.502 . S
C659 H645 0.960 . S
C659 H646 0.961 . S
C659 H647 0.959 . S
C659 C657 1.561 . S
C660 C657 1.526 . S
C660 C661 1.396 1_554 S
C660 C665 1.390 . S
C661 C655 1.465 . S
C661 C660 1.396 1_556 S
C661 C662 1.399 . S
C662 H648 0.929 . S
C662 C661 1.399 . S
C662 C663 1.385 1_545 S
C663 H649 0.931 . S
C663 C662 1.385 1_565 S
C663 C664 1.389 1_556 S
C664 C663 1.389 1_554 S
C664 C665 1.387 1_565 S
C665 H650 0.930 1_545 S
C665 C660 1.390 . S
C665 C664 1.387 1_545 S
H666 C678 0.930 . S
H667 C680 0.930 . S
H668 C681 0.930 . S
H669 C685 0.959 . S
H670 C685 0.959 . S
H671 C685 0.961 . S
H672 C686 0.960 . S
H673 C686 0.961 . S
H674 C686 0.959 . S
H675 C689 0.929 . S
H676 C690 0.931 . S
H677 C692 0.930 . S
C678 H666 0.930 . S
C678 C679 1.399 . S
C678 C683 1.399 . S
C679 C678 1.399 . S
C679 C680 1.376 1_556 S
C680 H667 0.930 . S
C680 C679 1.376 1_554 S
C680 C681 1.388 . S
C681 H668 0.930 . S
C681 C680 1.388 . S
C681 C682 1.390 . S
C682 C681 1.390 . S
C682 C683 1.394 1_554 S
C682 C688 1.465 . S
C683 C678 1.399 . S
C683 C682 1.394 1_556 S
C683 C684 1.516 . S
C684 C683 1.516 . S
C684 C685 1.502 . S
C684 C686 1.561 . S
C684 C687 1.526 . S
C685 H669 0.959 . S
C685 H670 0.959 . S
C685 H671 0.961 . S
C685 C684 1.502 . S
C686 H672 0.960 . S
C686 H673 0.961 . S
C686 H674 0.959 . S
C686 C684 1.561 . S
C687 C684 1.526 . S
C687 C688 1.396 1_556 S
C687 C692 1.390 . S
C688 C682 1.465 . S
C688 C687 1.396 1_554 S
C688 C689 1.399 . S
C689 H675 0.929 . S
C689 C688 1.399 . S
C689 C690 1.385 . S
C690 H676 0.931 . S
C690 C689 1.385 . S
C690 C691 1.389 . S
C691 C690 1.389 . S
C691 C692 1.387 1_554 S
C692 H677 0.930 . S
C692 C687 1.390 . S
C692 C691 1.387 1_556 S
H693 C705 0.930 . S
H694 C707 0.930 . S
H695 C708 0.930 . S
H696 C712 0.959 1_556 S
H697 C712 0.959 . S
H698 C712 0.961 . S
H699 C713 0.960 . S
H700 C713 0.961 . S
H701 C713 0.959 . S
H702 C716 0.929 . S
H703 C717 0.931 . S
H704 C719 0.930 . S
C705 H693 0.930 . S
C705 C706 1.399 1_554 S
C705 C710 1.399 . S
C706 C705 1.399 1_556 S
C706 C707 1.376 . S
C707 H694 0.930 . S
C707 C706 1.376 . S
C707 C708 1.388 . S
C708 H695 0.930 . S
C708 C707 1.388 . S
C708 C709 1.390 . S
C709 C708 1.390 . S
C709 C710 1.394 1_556 S
C709 C715 1.465 . S
C710 C705 1.399 . S
C710 C709 1.394 1_554 S
C710 C711 1.516 . S
C711 C710 1.516 . S
C711 C712 1.502 . S
C711 C713 1.561 . S
C711 C714 1.526 . S
C712 H696 0.959 1_554 S
C712 H697 0.959 . S
C712 H698 0.961 . S
C712 C711 1.502 . S
C713 H699 0.960 . S
C713 H700 0.961 . S
C713 H701 0.959 . S
C713 C711 1.561 . S
C714 C711 1.526 . S
C714 C715 1.396 1_554 S
C714 C719 1.390 1_655 S
C715 C709 1.465 . S
C715 C714 1.396 1_556 S
C715 C716 1.399 . S
C716 H702 0.929 . S
C716 C715 1.399 . S
C716 C717 1.385 1_655 S
C717 H703 0.931 . S
C717 C716 1.385 1_455 S
C717 C718 1.389 1_556 S
C718 C717 1.389 1_554 S
C718 C719 1.387 . S
C719 H704 0.930 . S
C719 C714 1.390 1_455 S
C719 C718 1.387 . S
H720 C732 0.930 . S
H721 C734 0.930 . S
H722 C735 0.930 . S
H723 C739 0.959 . S
H724 C739 0.959 . S
H725 C739 0.961 . S
H726 C740 0.960 . S
H727 C740 0.961 . S
H728 C740 0.959 . S
H729 C743 0.929 . S
H730 C744 0.931 . S
H731 C746 0.930 1_655 S
C732 H720 0.930 . S
C732 C733 1.399 . S
C732 C737 1.399 . S
C733 C732 1.399 . S
C733 C734 1.376 . S
C734 H721 0.930 . S
C734 C733 1.376 . S
C734 C735 1.388 . S
C735 H722 0.930 . S
C735 C734 1.388 . S
C735 C736 1.390 . S
C736 C735 1.390 . S
C736 C737 1.394 . S
C736 C742 1.465 . S
C737 C732 1.399 . S
C737 C736 1.394 . S
C737 C738 1.516 . S
C738 C737 1.516 . S
C738 C739 1.502 . S
C738 C740 1.561 . S
C738 C741 1.526 . S
C739 H723 0.959 . S
C739 H724 0.959 . S
C739 H725 0.961 . S
C739 C738 1.502 . S
C740 H726 0.960 . S
C740 H727 0.961 . S
C740 H728 0.959 . S
C740 C738 1.561 . S
C741 C738 1.526 . S
C741 C742 1.396 . S
C741 C746 1.390 . S
C742 C736 1.465 . S
C742 C741 1.396 . S
C742 C743 1.399 . S
C743 H729 0.929 . S
C743 C742 1.399 . S
C743 C744 1.385 1_455 S
C744 H730 0.931 . S
C744 C743 1.385 1_655 S
C744 C745 1.389 . S
C745 C744 1.389 . S
C745 C746 1.387 1_655 S
C746 H731 0.930 1_455 S
C746 C741 1.390 . S
C746 C745 1.387 1_455 S
H747 C759 0.930 . S
H748 C761 0.930 . S
H749 C762 0.930 . S
H750 C766 0.959 . S
H751 C766 0.959 . S
H752 C766 0.961 . S
H753 C767 0.960 . S
H754 C767 0.961 . S
H755 C767 0.959 . S
H756 C770 0.929 . S
H757 C771 0.931 . S
H758 C773 0.930 1_565 S
C759 H747 0.930 . S
C759 C760 1.399 . S
C759 C764 1.399 . S
C760 C759 1.399 . S
C760 C761 1.376 . S
C761 H748 0.930 . S
C761 C760 1.376 . S
C761 C762 1.388 . S
C762 H749 0.930 . S
C762 C761 1.388 . S
C762 C763 1.390 . S
C763 C762 1.390 . S
C763 C764 1.394 . S
C763 C769 1.465 . S
C764 C759 1.399 . S
C764 C763 1.394 . S
C764 C765 1.516 . S
C765 C764 1.516 . S
C765 C766 1.502 . S
C765 C767 1.561 . S
C765 C768 1.526 . S
C766 H750 0.959 . S
C766 H751 0.959 . S
C766 H752 0.961 . S
C766 C765 1.502 . S
C767 H753 0.960 . S
C767 H754 0.961 . S
C767 H755 0.959 . S
C767 C765 1.561 . S
C768 C765 1.526 . S
C768 C769 1.396 . S
C768 C773 1.390 . S
C769 C763 1.465 . S
C769 C768 1.396 . S
C769 C770 1.399 . S
C770 H756 0.929 . S
C770 C769 1.399 . S
C770 C771 1.385 1_545 S
C771 H757 0.931 . S
C771 C770 1.385 1_565 S
C771 C772 1.389 . S
C772 C771 1.389 . S
C772 C773 1.387 1_565 S
C773 H758 0.930 1_545 S
C773 C768 1.390 . S
C773 C772 1.387 1_545 S
H774 C786 0.930 . S
H775 C788 0.930 . S
H776 C789 0.930 . S
H777 C793 0.959 . S
H778 C793 0.959 . S
H779 C793 0.961 . S
H780 C794 0.960 . S
H781 C794 0.961 . S
H782 C794 0.959 . S
H783 C797 0.929 . S
H784 C798 0.931 . S
H785 C800 0.930 . S
C786 H774 0.930 . S
C786 C787 1.399 . S
C786 C791 1.399 . S
C787 C786 1.399 . S
C787 C788 1.376 . S
C788 H775 0.930 . S
C788 C787 1.376 . S
C788 C789 1.388 . S
C789 H776 0.930 . S
C789 C788 1.388 . S
C789 C790 1.390 . S
C790 C789 1.390 . S
C790 C791 1.394 . S
C790 C796 1.465 . S
C791 C786 1.399 . S
C791 C790 1.394 . S
C791 C792 1.516 . S
C792 C791 1.516 . S
C792 C793 1.502 . S
C792 C794 1.561 . S
C792 C795 1.526 . S
C793 H777 0.959 . S
C793 H778 0.959 . S
C793 H779 0.961 . S
C793 C792 1.502 . S
C794 H780 0.960 . S
C794 H781 0.961 . S
C794 H782 0.959 . S
C794 C792 1.561 . S
C795 C792 1.526 . S
C795 C796 1.396 . S
C795 C800 1.390 . S
C796 C790 1.465 . S
C796 C795 1.396 . S
C796 C797 1.399 . S
C797 H783 0.929 . S
C797 C796 1.399 . S
C797 C798 1.385 . S
C798 H784 0.931 . S
C798 C797 1.385 . S
C798 C799 1.389 . S
C799 C798 1.389 . S
C799 C800 1.387 . S
C800 H785 0.930 . S
C800 C795 1.390 . S
C800 C799 1.387 . S
H801 C813 0.930 . S
H802 C815 0.930 . S
H803 C816 0.930 . S
H804 C820 0.959 . S
H805 C820 0.959 . S
H806 C820 0.961 . S
H807 C821 0.960 . S
H808 C821 0.961 . S
H809 C821 0.959 . S
H810 C824 0.929 . S
H811 C825 0.931 . S
H812 C827 0.930 . S
C813 H801 0.930 . S
C813 C814 1.399 1_655 S
C813 C818 1.399 . S
C814 C813 1.399 1_455 S
C814 C815 1.376 . S
C815 H802 0.930 . S
C815 C814 1.376 . S
C815 C816 1.388 1_455 S
C816 H803 0.930 . S
C816 C815 1.388 1_655 S
C816 C817 1.390 . S
C817 C816 1.390 . S
C817 C818 1.394 . S
C817 C823 1.465 . S
C818 C813 1.399 . S
C818 C817 1.394 . S
C818 C819 1.516 . S
C819 C818 1.516 . S
C819 C820 1.502 . S
C819 C821 1.561 . S
C819 C822 1.526 . S
C820 H804 0.959 . S
C820 H805 0.959 . S
C820 H806 0.961 . S
C820 C819 1.502 . S
C821 H807 0.960 . S
C821 H808 0.961 . S
C821 H809 0.959 . S
C821 C819 1.561 . S
C822 C819 1.526 . S
C822 C823 1.396 . S
C822 C827 1.390 . S
C823 C817 1.465 . S
C823 C822 1.396 . S
C823 C824 1.399 . S
C824 H810 0.929 . S
C824 C823 1.399 . S
C824 C825 1.385 . S
C825 H811 0.931 . S
C825 C824 1.385 . S
C825 C826 1.389 . S
C826 C825 1.389 . S
C826 C827 1.387 . S
C827 H812 0.930 . S
C827 C822 1.390 . S
C827 C826 1.387 . S
H828 C840 0.930 . S
H829 C842 0.930 . S
H830 C843 0.930 . S
H831 C847 0.959 . S
H832 C847 0.959 . S
H833 C847 0.961 . S
H834 C848 0.960 . S
H835 C848 0.961 . S
H836 C848 0.959 . S
H837 C851 0.929 . S
H838 C852 0.931 . S
H839 C854 0.930 . S
C840 H828 0.930 . S
C840 C841 1.399 1_565 S
C840 C845 1.399 . S
C841 C840 1.399 1_545 S
C841 C842 1.376 . S
C842 H829 0.930 . S
C842 C841 1.376 . S
C842 C843 1.388 1_545 S
C843 H830 0.930 . S
C843 C842 1.388 1_565 S
C843 C844 1.390 . S
C844 C843 1.390 . S
C844 C845 1.394 . S
C844 C850 1.465 . S
C845 C840 1.399 . S
C845 C844 1.394 . S
C845 C846 1.516 . S
C846 C845 1.516 . S
C846 C847 1.502 . S
C846 C848 1.561 . S
C846 C849 1.526 . S
C847 H831 0.959 . S
C847 H832 0.959 . S
C847 H833 0.961 . S
C847 C846 1.502 . S
C848 H834 0.960 . S
C848 H835 0.961 . S
C848 H836 0.959 . S
C848 C846 1.561 . S
C849 C846 1.526 . S
C849 C850 1.396 . S
C849 C854 1.390 . S
C850 C844 1.465 . S
C850 C849 1.396 . S
C850 C851 1.399 . S
C851 H837 0.929 . S
C851 C850 1.399 . S
C851 C852 1.385 . S
C852 H838 0.931 . S
C852 C851 1.385 . S
C852 C853 1.389 . S
C853 C852 1.389 . S
C853 C854 1.387 . S
C854 H839 0.930 . S
C854 C849 1.390 . S
C854 C853 1.387 . S
H855 C867 0.930 . S
H856 C869 0.930 . S
H857 C870 0.930 . S
H858 C874 0.959 . S
H859 C874 0.959 . S
H860 C874 0.961 . S
H861 C875 0.960 . S
H862 C875 0.961 . S
H863 C875 0.959 . S
H864 C878 0.929 . S
H865 C879 0.931 . S
H866 C881 0.930 . S
C867 H855 0.930 . S
C867 C868 1.399 . S
C867 C872 1.399 . S
C868 C867 1.399 . S
C868 C869 1.376 . S
C869 H856 0.930 . S
C869 C868 1.376 . S
C869 C870 1.388 . S
C870 H857 0.930 . S
C870 C869 1.388 . S
C870 C871 1.390 . S
C871 C870 1.390 . S
C871 C872 1.394 . S
C871 C877 1.465 . S
C872 C867 1.399 . S
C872 C871 1.394 . S
C872 C873 1.516 . S
C873 C872 1.516 . S
C873 C874 1.502 . S
C873 C875 1.561 . S
C873 C876 1.526 . S
C874 H858 0.959 . S
C874 H859 0.959 . S
C874 H860 0.961 . S
C874 C873 1.502 . S
C875 H861 0.960 . S
C875 H862 0.961 . S
C875 H863 0.959 . S
C875 C873 1.561 . S
C876 C873 1.526 . S
C876 C877 1.396 . S
C876 C881 1.390 . S
C877 C871 1.465 . S
C877 C876 1.396 . S
C877 C878 1.399 . S
C878 H864 0.929 . S
C878 C877 1.399 . S
C878 C879 1.385 . S
C879 H865 0.931 . S
C879 C878 1.385 . S
C879 C880 1.389 . S
C880 C879 1.389 . S
C880 C881 1.387 . S
C881 H866 0.930 . S
C881 C876 1.390 . S
C881 C880 1.387 . S
H882 C894 0.930 . S
H883 C896 0.930 . S
H884 C897 0.930 . S
H885 C901 0.959 . S
H886 C901 0.959 . S
H887 C901 0.961 . S
H888 C902 0.960 . S
H889 C902 0.961 . S
H890 C902 0.959 . S
H891 C905 0.929 . S
H892 C906 0.931 . S
H893 C908 0.930 . S
C894 H882 0.930 . S
C894 C895 1.399 . S
C894 C899 1.399 . S
C895 C894 1.399 . S
C895 C896 1.376 . S
C896 H883 0.930 . S
C896 C895 1.376 . S
C896 C897 1.388 . S
C897 H884 0.930 . S
C897 C896 1.388 . S
C897 C898 1.390 . S
C898 C897 1.390 . S
C898 C899 1.394 . S
C898 C904 1.465 . S
C899 C894 1.399 . S
C899 C898 1.394 . S
C899 C900 1.516 . S
C900 C899 1.516 . S
C900 C901 1.502 . S
C900 C902 1.561 . S
C900 C903 1.526 . S
C901 H885 0.959 . S
C901 H886 0.959 . S
C901 H887 0.961 . S
C901 C900 1.502 . S
C902 H888 0.960 . S
C902 H889 0.961 . S
C902 H890 0.959 . S
C902 C900 1.561 . S
C903 C900 1.526 . S
C903 C904 1.396 . S
C903 C908 1.390 . S
C904 C898 1.465 . S
C904 C903 1.396 . S
C904 C905 1.399 . S
C905 H891 0.929 . S
C905 C904 1.399 . S
C905 C906 1.385 . S
C906 H892 0.931 . S
C906 C905 1.385 . S
C906 C907 1.389 . S
C907 C906 1.389 . S
C907 C908 1.387 . S
C908 H893 0.930 . S
C908 C903 1.390 . S
C908 C907 1.387 . S
H909 C921 0.930 . S
H910 C923 0.930 . S
H911 C924 0.930 . S
H912 C928 0.959 . S
H913 C928 0.959 . S
H914 C928 0.961 . S
H915 C929 0.960 . S
H916 C929 0.961 . S
H917 C929 0.959 . S
H918 C932 0.929 . S
H919 C933 0.931 . S
H920 C935 0.930 . S
C921 H909 0.930 . S
C921 C922 1.399 . S
C921 C926 1.399 . S
C922 C921 1.399 . S
C922 C923 1.376 . S
C923 H910 0.930 . S
C923 C922 1.376 . S
C923 C924 1.388 . S
C924 H911 0.930 . S
C924 C923 1.388 . S
C924 C925 1.390 . S
C925 C924 1.390 . S
C925 C926 1.394 . S
C925 C931 1.465 . S
C926 C921 1.399 . S
C926 C925 1.394 . S
C926 C927 1.516 . S
C927 C926 1.516 . S
C927 C928 1.502 . S
C927 C929 1.561 . S
C927 C930 1.526 . S
C928 H912 0.959 . S
C928 H913 0.959 . S
C928 H914 0.961 . S
C928 C927 1.502 . S
C929 H915 0.960 . S
C929 H916 0.961 . S
C929 H917 0.959 . S
C929 C927 1.561 . S
C930 C927 1.526 . S
C930 C931 1.396 . S
C930 C935 1.390 . S
C931 C925 1.465 . S
C931 C930 1.396 . S
C931 C932 1.399 . S
C932 H918 0.929 . S
C932 C931 1.399 . S
C932 C933 1.385 . S
C933 H919 0.931 . S
C933 C932 1.385 . S
C933 C934 1.389 . S
C934 C933 1.389 . S
C934 C935 1.387 . S
C935 H920 0.930 . S
C935 C930 1.390 . S
C935 C934 1.387 . S
H936 C948 0.930 . S
H937 C950 0.930 . S
H938 C951 0.930 . S
H939 C955 0.959 . S
H940 C955 0.959 . S
H941 C955 0.961 . S
H942 C956 0.960 . S
H943 C956 0.961 . S
H944 C956 0.959 . S
H945 C959 0.929 . S
H946 C960 0.931 . S
H947 C962 0.930 . S
C948 H936 0.930 . S
C948 C949 1.399 . S
C948 C953 1.399 . S
C949 C948 1.399 . S
C949 C950 1.376 . S
C950 H937 0.930 . S
C950 C949 1.376 . S
C950 C951 1.388 . S
C951 H938 0.930 . S
C951 C950 1.388 . S
C951 C952 1.390 . S
C952 C951 1.390 . S
C952 C953 1.394 . S
C952 C958 1.465 . S
C953 C948 1.399 . S
C953 C952 1.394 . S
C953 C954 1.516 . S
C954 C953 1.516 . S
C954 C955 1.502 . S
C954 C956 1.561 . S
C954 C957 1.526 . S
C955 H939 0.959 . S
C955 H940 0.959 . S
C955 H941 0.961 . S
C955 C954 1.502 . S
C956 H942 0.960 . S
C956 H943 0.961 . S
C956 H944 0.959 . S
C956 C954 1.561 . S
C957 C954 1.526 . S
C957 C958 1.396 . S
C957 C962 1.390 . S
C958 C952 1.465 . S
C958 C957 1.396 . S
C958 C959 1.399 . S
C959 H945 0.929 . S
C959 C958 1.399 . S
C959 C960 1.385 . S
C960 H946 0.931 . S
C960 C959 1.385 . S
C960 C961 1.389 . S
C961 C960 1.389 . S
C961 C962 1.387 . S
C962 H947 0.930 . S
C962 C957 1.390 . S
C962 C961 1.387 . S
H963 C975 0.930 . S
H964 C977 0.930 . S
H965 C978 0.930 . S
H966 C982 0.959 . S
H967 C982 0.959 . S
H968 C982 0.961 . S
H969 C983 0.960 . S
H970 C983 0.961 . S
H971 C983 0.959 . S
H972 C986 0.929 . S
H973 C987 0.931 . S
H974 C989 0.930 . S
C975 H963 0.930 . S
C975 C976 1.399 . S
C975 C980 1.399 . S
C976 C975 1.399 . S
C976 C977 1.376 . S
C977 H964 0.930 . S
C977 C976 1.376 . S
C977 C978 1.388 . S
C978 H965 0.930 . S
C978 C977 1.388 . S
C978 C979 1.390 . S
C979 C978 1.390 . S
C979 C980 1.394 . S
C979 C985 1.465 . S
C980 C975 1.399 . S
C980 C979 1.394 . S
C980 C981 1.516 . S
C981 C980 1.516 . S
C981 C982 1.502 . S
C981 C983 1.561 . S
C981 C984 1.526 . S
C982 H966 0.959 . S
C982 H967 0.959 . S
C982 H968 0.961 . S
C982 C981 1.502 . S
C983 H969 0.960 . S
C983 H970 0.961 . S
C983 H971 0.959 . S
C983 C981 1.561 . S
C984 C981 1.526 . S
C984 C985 1.396 . S
C984 C989 1.390 . S
C985 C979 1.465 . S
C985 C984 1.396 . S
C985 C986 1.399 . S
C986 H972 0.929 . S
C986 C985 1.399 . S
C986 C987 1.385 . S
C987 H973 0.931 . S
C987 C986 1.385 . S
C987 C988 1.389 . S
C988 C987 1.389 . S
C988 C989 1.387 . S
C989 H974 0.930 . S
C989 C984 1.390 . S
C989 C988 1.387 . S
H990 C1002 0.930 . S
H991 C1004 0.930 . S
H992 C1005 0.930 . S
H993 C1009 0.959 . S
H994 C1009 0.959 . S
H995 C1009 0.961 . S
H996 C1010 0.960 . S
H997 C1010 0.961 . S
H998 C1010 0.959 . S
H999 C1013 0.929 . S
H1000 C1014 0.931 . S
H1001 C1016 0.930 . S
C1002 H990 0.930 . S
C1002 C1003 1.399 . S
C1002 C1007 1.399 . S
C1003 C1002 1.399 . S
C1003 C1004 1.376 . S
C1004 H991 0.930 . S
C1004 C1003 1.376 . S
C1004 C1005 1.388 . S
C1005 H992 0.930 . S
C1005 C1004 1.388 . S
C1005 C1006 1.390 . S
C1006 C1005 1.390 . S
C1006 C1007 1.394 . S
C1006 C1012 1.465 . S
C1007 C1002 1.399 . S
C1007 C1006 1.394 . S
C1007 C1008 1.516 . S
C1008 C1007 1.516 . S
C1008 C1009 1.502 . S
C1008 C1010 1.561 . S
C1008 C1011 1.526 . S
C1009 H993 0.959 . S
C1009 H994 0.959 . S
C1009 H995 0.961 . S
C1009 C1008 1.502 . S
C1010 H996 0.960 . S
C1010 H997 0.961 . S
C1010 H998 0.959 . S
C1010 C1008 1.561 . S
C1011 C1008 1.526 . S
C1011 C1012 1.396 . S
C1011 C1016 1.390 . S
C1012 C1006 1.465 . S
C1012 C1011 1.396 . S
C1012 C1013 1.399 . S
C1013 H999 0.929 . S
C1013 C1012 1.399 . S
C1013 C1014 1.385 . S
C1014 H1000 0.931 . S
C1014 C1013 1.385 . S
C1014 C1015 1.389 . S
C1015 C1014 1.389 . S
C1015 C1016 1.387 . S
C1016 H1001 0.930 . S
C1016 C1011 1.390 . S
C1016 C1015 1.387 . S
H1017 C1029 0.930 . S
H1018 C1031 0.930 . S
H1019 C1032 0.930 . S
H1020 C1036 0.959 . S
H1021 C1036 0.959 . S
H1022 C1036 0.961 . S
H1023 C1037 0.960 . S
H1024 C1037 0.961 . S
H1025 C1037 0.959 . S
H1026 C1040 0.929 . S
H1027 C1041 0.931 . S
H1028 C1043 0.930 . S
C1029 H1017 0.930 . S
C1029 C1030 1.399 . S
C1029 C1034 1.399 . S
C1030 C1029 1.399 . S
C1030 C1031 1.376 . S
C1031 H1018 0.930 . S
C1031 C1030 1.376 . S
C1031 C1032 1.388 . S
C1032 H1019 0.930 . S
C1032 C1031 1.388 . S
C1032 C1033 1.390 . S
C1033 C1032 1.390 . S
C1033 C1034 1.394 . S
C1033 C1039 1.465 . S
C1034 C1029 1.399 . S
C1034 C1033 1.394 . S
C1034 C1035 1.516 . S
C1035 C1034 1.516 . S
C1035 C1036 1.502 . S
C1035 C1037 1.561 . S
C1035 C1038 1.526 . S
C1036 H1020 0.959 . S
C1036 H1021 0.959 . S
C1036 H1022 0.961 . S
C1036 C1035 1.502 . S
C1037 H1023 0.960 . S
C1037 H1024 0.961 . S
C1037 H1025 0.959 . S
C1037 C1035 1.561 . S
C1038 C1035 1.526 . S
C1038 C1039 1.396 . S
C1038 C1043 1.390 . S
C1039 C1033 1.465 . S
C1039 C1038 1.396 . S
C1039 C1040 1.399 . S
C1040 H1026 0.929 . S
C1040 C1039 1.399 . S
C1040 C1041 1.385 . S
C1041 H1027 0.931 . S
C1041 C1040 1.385 . S
C1041 C1042 1.389 . S
C1042 C1041 1.389 . S
C1042 C1043 1.387 . S
C1043 H1028 0.930 . S
C1043 C1038 1.390 . S
C1043 C1042 1.387 . S
H1044 C1056 0.930 . S
H1045 C1058 0.930 . S
H1046 C1059 0.930 . S
H1047 C1063 0.959 . S
H1048 C1063 0.959 . S
H1049 C1063 0.961 . S
H1050 C1064 0.960 . S
H1051 C1064 0.961 . S
H1052 C1064 0.959 . S
H1053 C1067 0.929 . S
H1054 C1068 0.931 . S
H1055 C1070 0.930 . S
C1056 H1044 0.930 . S
C1056 C1057 1.399 . S
C1056 C1061 1.399 . S
C1057 C1056 1.399 . S
C1057 C1058 1.376 . S
C1058 H1045 0.930 . S
C1058 C1057 1.376 . S
C1058 C1059 1.388 . S
C1059 H1046 0.930 . S
C1059 C1058 1.388 . S
C1059 C1060 1.390 . S
C1060 C1059 1.390 . S
C1060 C1061 1.394 . S
C1060 C1066 1.465 . S
C1061 C1056 1.399 . S
C1061 C1060 1.394 . S
C1061 C1062 1.516 . S
C1062 C1061 1.516 . S
C1062 C1063 1.502 . S
C1062 C1064 1.561 . S
C1062 C1065 1.526 . S
C1063 H1047 0.959 . S
C1063 H1048 0.959 . S
C1063 H1049 0.961 . S
C1063 C1062 1.502 . S
C1064 H1050 0.960 . S
C1064 H1051 0.961 . S
C1064 H1052 0.959 . S
C1064 C1062 1.561 . S
C1065 C1062 1.526 . S
C1065 C1066 1.396 . S
C1065 C1070 1.390 . S
C1066 C1060 1.465 . S
C1066 C1065 1.396 . S
C1066 C1067 1.399 . S
C1067 H1053 0.929 . S
C1067 C1066 1.399 . S
C1067 C1068 1.385 . S
C1068 H1054 0.931 . S
C1068 C1067 1.385 . S
C1068 C1069 1.389 . S
C1069 C1068 1.389 . S
C1069 C1070 1.387 . S
C1070 H1055 0.930 . S
C1070 C1065 1.390 . S
C1070 C1069 1.387 . S
H1071 C1083 0.930 . S
H1072 C1085 0.930 . S
H1073 C1086 0.930 . S
H1074 C1090 0.959 . S
H1075 C1090 0.959 . S
H1076 C1090 0.961 . S
H1077 C1091 0.960 . S
H1078 C1091 0.961 . S
H1079 C1091 0.959 . S
H1080 C1094 0.929 . S
H1081 C1095 0.931 . S
H1082 C1097 0.930 . S
C1083 H1071 0.930 . S
C1083 C1084 1.399 . S
C1083 C1088 1.399 . S
C1084 C1083 1.399 . S
C1084 C1085 1.376 . S
C1085 H1072 0.930 . S
C1085 C1084 1.376 . S
C1085 C1086 1.388 . S
C1086 H1073 0.930 . S
C1086 C1085 1.388 . S
C1086 C1087 1.390 . S
C1087 C1086 1.390 . S
C1087 C1088 1.394 . S
C1087 C1093 1.465 . S
C1088 C1083 1.399 . S
C1088 C1087 1.394 . S
C1088 C1089 1.516 . S
C1089 C1088 1.516 . S
C1089 C1090 1.502 . S
C1089 C1091 1.561 . S
C1089 C1092 1.526 . S
C1090 H1074 0.959 . S
C1090 H1075 0.959 . S
C1090 H1076 0.961 . S
C1090 C1089 1.502 . S
C1091 H1077 0.960 . S
C1091 H1078 0.961 . S
C1091 H1079 0.959 . S
C1091 C1089 1.561 . S
C1092 C1089 1.526 . S
C1092 C1093 1.396 . S
C1092 C1097 1.390 . S
C1093 C1087 1.465 . S
C1093 C1092 1.396 . S
C1093 C1094 1.399 . S
C1094 H1080 0.929 . S
C1094 C1093 1.399 . S
C1094 C1095 1.385 . S
C1095 H1081 0.931 . S
C1095 C1094 1.385 . S
C1095 C1096 1.389 . S
C1096 C1095 1.389 . S
C1096 C1097 1.387 . S
C1097 H1082 0.930 . S
C1097 C1092 1.390 . S
C1097 C1096 1.387 . S
H1098 C1110 0.930 . S
H1099 C1112 0.930 . S
H1100 C1113 0.930 . S
H1101 C1117 0.959 . S
H1102 C1117 0.959 . S
H1103 C1117 0.961 . S
H1104 C1118 0.960 . S
H1105 C1118 0.961 . S
H1106 C1118 0.959 . S
H1107 C1121 0.929 . S
H1108 C1122 0.931 . S
H1109 C1124 0.930 . S
C1110 H1098 0.930 . S
C1110 C1111 1.399 . S
C1110 C1115 1.399 . S
C1111 C1110 1.399 . S
C1111 C1112 1.376 . S
C1112 H1099 0.930 . S
C1112 C1111 1.376 . S
C1112 C1113 1.388 . S
C1113 H1100 0.930 . S
C1113 C1112 1.388 . S
C1113 C1114 1.390 . S
C1114 C1113 1.390 . S
C1114 C1115 1.394 . S
C1114 C1120 1.465 . S
C1115 C1110 1.399 . S
C1115 C1114 1.394 . S
C1115 C1116 1.516 . S
C1116 C1115 1.516 . S
C1116 C1117 1.502 . S
C1116 C1118 1.561 . S
C1116 C1119 1.526 . S
C1117 H1101 0.959 . S
C1117 H1102 0.959 . S
C1117 H1103 0.961 . S
C1117 C1116 1.502 . S
C1118 H1104 0.960 . S
C1118 H1105 0.961 . S
C1118 H1106 0.959 . S
C1118 C1116 1.561 . S
C1119 C1116 1.526 . S
C1119 C1120 1.396 . S
C1119 C1124 1.390 . S
C1120 C1114 1.465 . S
C1120 C1119 1.396 . S
C1120 C1121 1.399 . S
C1121 H1107 0.929 . S
C1121 C1120 1.399 . S
C1121 C1122 1.385 . S
C1122 H1108 0.931 . S
C1122 C1121 1.385 . S
C1122 C1123 1.389 . S
C1123 C1122 1.389 . S
C1123 C1124 1.387 . S
C1124 H1109 0.930 . S
C1124 C1119 1.390 . S
C1124 C1123 1.387 . S
H1125 C1137 0.930 . S
H1126 C1139 0.930 . S
H1127 C1140 0.930 . S
H1128 C1144 0.959 . S
H1129 C1144 0.959 . S
H1130 C1144 0.961 . S
H1131 C1145 0.960 . S
H1132 C1145 0.961 . S
H1133 C1145 0.959 . S
H1134 C1148 0.929 . S
H1135 C1149 0.931 . S
H1136 C1151 0.930 . S
C1137 H1125 0.930 . S
C1137 C1138 1.399 . S
C1137 C1142 1.399 . S
C1138 C1137 1.399 . S
C1138 C1139 1.376 . S
C1139 H1126 0.930 . S
C1139 C1138 1.376 . S
C1139 C1140 1.388 . S
C1140 H1127 0.930 . S
C1140 C1139 1.388 . S
C1140 C1141 1.390 . S
C1141 C1140 1.390 . S
C1141 C1142 1.394 . S
C1141 C1147 1.465 . S
C1142 C1137 1.399 . S
C1142 C1141 1.394 . S
C1142 C1143 1.516 . S
C1143 C1142 1.516 . S
C1143 C1144 1.502 . S
C1143 C1145 1.561 . S
C1143 C1146 1.526 . S
C1144 H1128 0.959 . S
C1144 H1129 0.959 . S
C1144 H1130 0.961 . S
C1144 C1143 1.502 . S
C1145 H1131 0.960 . S
C1145 H1132 0.961 . S
C1145 H1133 0.959 . S
C1145 C1143 1.561 . S
C1146 C1143 1.526 . S
C1146 C1147 1.396 . S
C1146 C1151 1.390 . S
C1147 C1141 1.465 . S
C1147 C1146 1.396 . S
C1147 C1148 1.399 . S
C1148 H1134 0.929 . S
C1148 C1147 1.399 . S
C1148 C1149 1.385 . S
C1149 H1135 0.931 . S
C1149 C1148 1.385 . S
C1149 C1150 1.389 . S
C1150 C1149 1.389 . S
C1150 C1151 1.387 . S
C1151 H1136 0.930 . S
C1151 C1146 1.390 . S
C1151 C1150 1.387 . S
H1152 C1164 0.930 . S
H1153 C1166 0.930 . S
H1154 C1167 0.930 . S
H1155 C1171 0.959 . S
H1156 C1171 0.959 . S
H1157 C1171 0.961 . S
H1158 C1172 0.960 . S
H1159 C1172 0.961 . S
H1160 C1172 0.959 . S
H1161 C1175 0.929 . S
H1162 C1176 0.931 . S
H1163 C1178 0.930 . S
C1164 H1152 0.930 . S
C1164 C1165 1.399 . S
C1164 C1169 1.399 . S
C1165 C1164 1.399 . S
C1165 C1166 1.376 . S
C1166 H1153 0.930 . S
C1166 C1165 1.376 . S
C1166 C1167 1.388 . S
C1167 H1154 0.930 . S
C1167 C1166 1.388 . S
C1167 C1168 1.390 . S
C1168 C1167 1.390 . S
C1168 C1169 1.394 . S
C1168 C1174 1.465 . S
C1169 C1164 1.399 . S
C1169 C1168 1.394 . S
C1169 C1170 1.516 . S
C1170 C1169 1.516 . S
C1170 C1171 1.502 . S
C1170 C1172 1.561 . S
C1170 C1173 1.526 . S
C1171 H1155 0.959 . S
C1171 H1156 0.959 . S
C1171 H1157 0.961 . S
C1171 C1170 1.502 . S
C1172 H1158 0.960 . S
C1172 H1159 0.961 . S
C1172 H1160 0.959 . S
C1172 C1170 1.561 . S
C1173 C1170 1.526 . S
C1173 C1174 1.396 . S
C1173 C1178 1.390 . S
C1174 C1168 1.465 . S
C1174 C1173 1.396 . S
C1174 C1175 1.399 . S
C1175 H1161 0.929 . S
C1175 C1174 1.399 . S
C1175 C1176 1.385 . S
C1176 H1162 0.931 . S
C1176 C1175 1.385 . S
C1176 C1177 1.389 . S
C1177 C1176 1.389 . S
C1177 C1178 1.387 . S
C1178 H1163 0.930 . S
C1178 C1173 1.390 . S
C1178 C1177 1.387 . S
H1179 C1191 0.930 . S
H1180 C1193 0.930 . S
H1181 C1194 0.930 . S
H1182 C1198 0.959 . S
H1183 C1198 0.959 . S
H1184 C1198 0.961 . S
H1185 C1199 0.960 . S
H1186 C1199 0.961 . S
H1187 C1199 0.959 . S
H1188 C1202 0.929 . S
H1189 C1203 0.931 . S
H1190 C1205 0.930 . S
C1191 H1179 0.930 . S
C1191 C1192 1.399 . S
C1191 C1196 1.399 . S
C1192 C1191 1.399 . S
C1192 C1193 1.376 . S
C1193 H1180 0.930 . S
C1193 C1192 1.376 . S
C1193 C1194 1.388 . S
C1194 H1181 0.930 . S
C1194 C1193 1.388 . S
C1194 C1195 1.390 . S
C1195 C1194 1.390 . S
C1195 C1196 1.394 . S
C1195 C1201 1.465 . S
C1196 C1191 1.399 . S
C1196 C1195 1.394 . S
C1196 C1197 1.516 . S
C1197 C1196 1.516 . S
C1197 C1198 1.502 . S
C1197 C1199 1.561 . S
C1197 C1200 1.526 . S
C1198 H1182 0.959 . S
C1198 H1183 0.959 . S
C1198 H1184 0.961 . S
C1198 C1197 1.502 . S
C1199 H1185 0.960 . S
C1199 H1186 0.961 . S
C1199 H1187 0.959 . S
C1199 C1197 1.561 . S
C1200 C1197 1.526 . S
C1200 C1201 1.396 . S
C1200 C1205 1.390 . S
C1201 C1195 1.465 . S
C1201 C1200 1.396 . S
C1201 C1202 1.399 . S
C1202 H1188 0.929 . S
C1202 C1201 1.399 . S
C1202 C1203 1.385 . S
C1203 H1189 0.931 . S
C1203 C1202 1.385 . S
C1203 C1204 1.389 . S
C1204 C1203 1.389 . S
C1204 C1205 1.387 . S
C1205 H1190 0.930 . S
C1205 C1200 1.390 . S
C1205 C1204 1.387 . S
C409 N2 1.890 . S
C421 N101 1.903 . S
C436 N134 1.890 . S
C448 N35 1.904 . S
C463 N167 1.959 . S
C475 N68 1.940 . S
C490 N299 1.888 . S
C502 N200 1.896 . S
C517 N332 1.955 . S
C529 N233 1.944 . S
C544 N266 1.955 . S
C556 N365 1.938 . S
C571 C21 0.451 . S
C583 N178 0.428 . S
C598 N13 0.430 . S
C610 C54 0.451 . S
C625 C87 0.426 . S
C637 N46 0.385 . S
C652 N79 0.552 . S
C664 C120 0.365 . S
C679 N112 0.470 . S
C691 C153 0.461 . S
C706 N145 0.474 . S
C718 C186 0.363 . S
C733 N244 0.476 . S
C745 C219 0.463 . S
C760 N277 0.553 . S
C772 C252 0.365 . S
C787 N310 0.603 . S
C799 C285 0.384 . S
C814 C318 0.433 . S
C826 N343 0.630 . S
C841 C351 0.433 . S
C853 N376 0.630 . S
C868 C384 0.433 . S
C880 N211 0.630 . S
C895 C271 1.667 . S
C907 C7 1.659 . S
C922 C40 1.698 . S
C934 C304 1.694 . S
C949 C73 1.697 . S
C961 C337 1.693 . S
C976 C106 1.681 . S
C988 C370 1.690 . S
C1003 C205 1.653 . S
C1015 C139 1.660 . S
C1030 C172 1.671 . S
C1042 C238 1.662 . S
C1057 C381 1.537 . S
C1069 C117 1.532 . S
C1084 C216 1.534 . S
C1096 C150 1.537 . S
C1111 C249 1.500 . S
C1123 C183 1.513 . S
C1138 C18 1.494 . S
C1150 C282 1.486 . S
C1165 C51 1.498 . S
C1177 C315 1.489 . S
C1192 C84 1.482 . S
C1204 C348 1.486 . S
