# Generated by pormake.
# Topology xfz, (5)-cn, num edge types: 1
# Building blocks:
#     Node 0, Type 0, BuildingBlock: BEQFEK_clean_sbu_0, # of connection points: 5
#     Node 1, Type 0, BuildingBlock: BEQFEK_clean_sbu_0, # of connection points: 5
#     Node 2, Type 0, BuildingBlock: BEQFEK_clean_sbu_0, # of connection points: 5
#     Node 3, Type 0, BuildingBlock: BEQFEK_clean_sbu_0, # of connection points: 5
#     Node 4, Type 0, BuildingBlock: BEQFEK_clean_sbu_0, # of connection points: 5
#     Node 5, Type 0, BuildingBlock: BEQFEK_clean_sbu_0, # of connection points: 5
#     Node 6, Type 0, BuildingBlock: BEQFEK_clean_sbu_0, # of connection points: 5
#     Node 7, Type 0, BuildingBlock: BEQFEK_clean_sbu_0, # of connection points: 5
#     Node 8, Type 0, BuildingBlock: BEQFEK_clean_sbu_0, # of connection points: 5
#     Node 9, Type 0, BuildingBlock: BEQFEK_clean_sbu_0, # of connection points: 5
#     Node 10, Type 0, BuildingBlock: BEQFEK_clean_sbu_0, # of connection points: 5
#     Node 11, Type 0, BuildingBlock: BEQFEK_clean_sbu_0, # of connection points: 5
#     Node 12, Type 0, BuildingBlock: BEQFEK_clean_sbu_0, # of connection points: 5
#     Node 13, Type 0, BuildingBlock: BEQFEK_clean_sbu_0, # of connection points: 5
#     Node 14, Type 0, BuildingBlock: BEQFEK_clean_sbu_0, # of connection points: 5
#     Node 15, Type 0, BuildingBlock: BEQFEK_clean_sbu_0, # of connection points: 5
#     Edge 16, Type (0, 0), BuildingBlock: OJICUG_clean_linker_0, # of connection points: 2
#     Edge 17, Type (0, 0), BuildingBlock: OJICUG_clean_linker_0, # of connection points: 2
#     Edge 18, Type (0, 0), BuildingBlock: OJICUG_clean_linker_0, # of connection points: 2
#     Edge 19, Type (0, 0), BuildingBlock: OJICUG_clean_linker_0, # of connection points: 2
#     Edge 20, Type (0, 0), BuildingBlock: OJICUG_clean_linker_0, # of connection points: 2
#     Edge 21, Type (0, 0), BuildingBlock: OJICUG_clean_linker_0, # of connection points: 2
#     Edge 22, Type (0, 0), BuildingBlock: OJICUG_clean_linker_0, # of connection points: 2
#     Edge 23, Type (0, 0), BuildingBlock: OJICUG_clean_linker_0, # of connection points: 2
#     Edge 24, Type (0, 0), BuildingBlock: OJICUG_clean_linker_0, # of connection points: 2
#     Edge 25, Type (0, 0), BuildingBlock: OJICUG_clean_linker_0, # of connection points: 2
#     Edge 26, Type (0, 0), BuildingBlock: OJICUG_clean_linker_0, # of connection points: 2
#     Edge 27, Type (0, 0), BuildingBlock: OJICUG_clean_linker_0, # of connection points: 2
#     Edge 28, Type (0, 0), BuildingBlock: OJICUG_clean_linker_0, # of connection points: 2
#     Edge 29, Type (0, 0), BuildingBlock: OJICUG_clean_linker_0, # of connection points: 2
#     Edge 30, Type (0, 0), BuildingBlock: OJICUG_clean_linker_0, # of connection points: 2
#     Edge 31, Type (0, 0), BuildingBlock: OJICUG_clean_linker_0, # of connection points: 2
#     Edge 32, Type (0, 0), BuildingBlock: OJICUG_clean_linker_0, # of connection points: 2
#     Edge 33, Type (0, 0), BuildingBlock: OJICUG_clean_linker_0, # of connection points: 2
#     Edge 34, Type (0, 0), BuildingBlock: OJICUG_clean_linker_0, # of connection points: 2
#     Edge 35, Type (0, 0), BuildingBlock: OJICUG_clean_linker_0, # of connection points: 2
#     Edge 36, Type (0, 0), BuildingBlock: OJICUG_clean_linker_0, # of connection points: 2
#     Edge 37, Type (0, 0), BuildingBlock: OJICUG_clean_linker_0, # of connection points: 2
#     Edge 38, Type (0, 0), BuildingBlock: OJICUG_clean_linker_0, # of connection points: 2
#     Edge 39, Type (0, 0), BuildingBlock: OJICUG_clean_linker_0, # of connection points: 2
#     Edge 40, Type (0, 0), BuildingBlock: OJICUG_clean_linker_0, # of connection points: 2
#     Edge 41, Type (0, 0), BuildingBlock: OJICUG_clean_linker_0, # of connection points: 2
#     Edge 42, Type (0, 0), BuildingBlock: OJICUG_clean_linker_0, # of connection points: 2
#     Edge 43, Type (0, 0), BuildingBlock: OJICUG_clean_linker_0, # of connection points: 2
#     Edge 44, Type (0, 0), BuildingBlock: OJICUG_clean_linker_0, # of connection points: 2
#     Edge 45, Type (0, 0), BuildingBlock: OJICUG_clean_linker_0, # of connection points: 2
#     Edge 46, Type (0, 0), BuildingBlock: OJICUG_clean_linker_0, # of connection points: 2
#     Edge 47, Type (0, 0), BuildingBlock: OJICUG_clean_linker_0, # of connection points: 2
#     Edge 48, Type (0, 0), BuildingBlock: OJICUG_clean_linker_0, # of connection points: 2
#     Edge 49, Type (0, 0), BuildingBlock: OJICUG_clean_linker_0, # of connection points: 2
#     Edge 50, Type (0, 0), BuildingBlock: OJICUG_clean_linker_0, # of connection points: 2
#     Edge 51, Type (0, 0), BuildingBlock: OJICUG_clean_linker_0, # of connection points: 2
#     Edge 52, Type (0, 0), BuildingBlock: OJICUG_clean_linker_0, # of connection points: 2
#     Edge 53, Type (0, 0), BuildingBlock: OJICUG_clean_linker_0, # of connection points: 2
#     Edge 54, Type (0, 0), BuildingBlock: OJICUG_clean_linker_0, # of connection points: 2
#     Edge 55, Type (0, 0), BuildingBlock: OJICUG_clean_linker_0, # of connection points: 2
# Relax obj value: 0.410
# Max RMSD: 0.190
# Mean RMSD: 0.190
data_MOF--net-xfz--node1-BEQFEK_clean_sbu_0--edge1-OJICUG_clean_linker_0
_symmetry_space_group_name_H-M    P1
_symmetry_Int_Tables_number       1
_symmetry_cell_setting            triclinic
loop_
_symmetry_equiv_pos_as_xyz
'x, y, z'
_cell_length_a     36.645967
_cell_length_b     36.645669
_cell_length_c     36.806876
_cell_angle_alpha  90.056013
_cell_angle_beta   89.991127
_cell_angle_gamma 90.045359
loop_
_atom_site_label
_atom_site_type_symbol
_atom_site_fract_x
_atom_site_fract_y
_atom_site_fract_z
_atom_type_partial_charge
Co0 Co 0.13735 0.50875 0.36745 0.0
Co1 Co 0.20912 0.47411 0.34068 0.0
C2 C 0.13928 0.43225 0.33532 0.0
O3 O 0.12318 0.45918 0.35009 0.0
O4 O 0.17359 0.43334 0.32957 0.0
C5 C 0.08515 0.50471 0.42152 0.0
O6 O 0.1028 0.47426 0.42825 0.0
C7 C 0.27182 0.42305 0.33368 0.0
C8 C 0.31535 0.45983 0.31435 0.0
C9 C 0.30859 0.42379 0.32377 0.0
N10 N 0.25784 0.45693 0.3301 0.0
N11 N 0.28407 0.47868 0.31839 0.0
C12 C 0.25089 0.3917 0.3493 0.0
H13 H 0.23937 0.37513 0.3268 0.0
H14 H 0.228 0.40178 0.36629 0.0
H15 H 0.26896 0.37409 0.36595 0.0
C16 C 0.1809 0.5285 0.42882 0.0
N17 N 0.17787 0.51064 0.39733 0.0
N18 N 0.2066 0.49042 0.3914 0.0
C19 C 0.22733 0.49142 0.42211 0.0
C20 C 0.21124 0.51544 0.44769 0.0
C21 C 0.15955 0.56281 0.43586 0.0
H22 H 0.15235 0.57601 0.40968 0.0
H23 H 0.1336 0.55635 0.44989 0.0
H24 H 0.17553 0.58237 0.45255 0.0
O25 O 0.14495 0.54055 0.32705 0.0
O26 O 0.19659 0.51713 0.30509 0.0
H27 H 0.28517 0.48765 0.42833 0.0
H28 H 0.25953 0.45362 0.45278 0.0
C29 C 0.26115 0.46924 0.42702 0.0
H30 H 0.2648 0.44993 0.40422 0.0
H31 H 0.28072 0.50653 0.31355 0.0
O32 O 0.09584 0.52523 0.39585 0.0
C33 C 0.17049 0.54061 0.30385 0.0
Co34 Co 0.50936 0.88529 0.68108 0.0
Co35 Co 0.4751 0.81573 0.71413 0.0
C36 C 0.43411 0.88586 0.71688 0.0
O37 O 0.46066 0.90074 0.70024 0.0
O38 O 0.43498 0.85191 0.72441 0.0
C39 C 0.50172 0.9377 0.62762 0.0
O40 O 0.47028 0.92087 0.62379 0.0
C41 C 0.42385 0.75366 0.72262 0.0
C42 C 0.45961 0.71101 0.74533 0.0
C43 C 0.42407 0.7173 0.73389 0.0
N44 N 0.45752 0.76784 0.72731 0.0
N45 N 0.47865 0.74217 0.74109 0.0
C46 C 0.39325 0.7739 0.70487 0.0
H47 H 0.37502 0.78516 0.72617 0.0
H48 H 0.40396 0.79696 0.68852 0.0
H49 H 0.37709 0.75537 0.68722 0.0
C50 C 0.52175 0.83818 0.61933 0.0
N51 N 0.50924 0.84295 0.65318 0.0
N52 N 0.48921 0.81499 0.66292 0.0
C53 C 0.48552 0.79295 0.63332 0.0
C54 C 0.50592 0.80731 0.60437 0.0
C55 C 0.54826 0.86331 0.60094 0.0
H56 H 0.5663 0.87647 0.62132 0.0
H57 H 0.5334 0.8848 0.58586 0.0
H58 H 0.56511 0.84794 0.58106 0.0
O59 O 0.54277 0.87947 0.7208 0.0
O60 O 0.51909 0.83031 0.7476 0.0
H61 H 0.46572 0.74279 0.65557 0.0
H62 H 0.46523 0.74471 0.60634 0.0
C63 C 0.46084 0.76054 0.63169 0.0
H64 H 0.43208 0.76989 0.63264 0.0
H65 H 0.50629 0.74572 0.74696 0.0
O66 O 0.52457 0.92595 0.65074 0.0
C67 C 0.54305 0.85599 0.74607 0.0
Co68 Co 0.88426 0.52004 0.36878 0.0
Co69 Co 0.81462 0.55506 0.33678 0.0
C70 C 0.88509 0.59556 0.33357 0.0
O71 O 0.89993 0.56877 0.34982 0.0
O72 O 0.85106 0.59498 0.3264 0.0
C73 C 0.93679 0.52713 0.42212 0.0
O74 O 0.91992 0.55849 0.42627 0.0
C75 C 0.75301 0.60696 0.32974 0.0
C76 C 0.70935 0.57167 0.30804 0.0
C77 C 0.71635 0.6071 0.31948 0.0
N78 N 0.76671 0.57319 0.32451 0.0
N79 N 0.74044 0.55234 0.31131 0.0
C80 C 0.77398 0.63732 0.34717 0.0
H81 H 0.78504 0.65545 0.3257 0.0
H82 H 0.79721 0.62634 0.36308 0.0
H83 H 0.75601 0.65367 0.36519 0.0
C84 C 0.83772 0.50742 0.43082 0.0
N85 N 0.84226 0.52028 0.3971 0.0
N86 N 0.81438 0.54061 0.38787 0.0
C87 C 0.79269 0.54416 0.41771 0.0
C88 C 0.80717 0.52334 0.44628 0.0
C89 C 0.86263 0.48027 0.44853 0.0
H90 H 0.87538 0.46245 0.42772 0.0
H91 H 0.88444 0.49456 0.46375 0.0
H92 H 0.84717 0.46325 0.46819 0.0
O93 O 0.87761 0.48684 0.32897 0.0
O94 O 0.82836 0.51108 0.30286 0.0
H95 H 0.74222 0.56409 0.39637 0.0
H96 H 0.74511 0.56477 0.44555 0.0
C97 C 0.76047 0.569 0.4199 0.0
H98 H 0.76995 0.59771 0.41866 0.0
H99 H 0.74351 0.52468 0.30529 0.0
O100 O 0.92507 0.50447 0.39874 0.0
C101 C 0.85379 0.48685 0.30399 0.0
Co102 Co 0.52065 0.13859 0.68366 0.0
Co103 Co 0.55487 0.21104 0.70953 0.0
C104 C 0.59692 0.14133 0.71588 0.0
O105 O 0.57025 0.12481 0.70108 0.0
O106 O 0.59552 0.17569 0.7213 0.0
C107 C 0.52453 0.08602 0.62993 0.0
O108 O 0.55492 0.10371 0.62292 0.0
C109 C 0.60639 0.27354 0.71507 0.0
C110 C 0.57004 0.31789 0.73326 0.0
C111 C 0.606 0.31059 0.72391 0.0
N112 N 0.57239 0.25991 0.71915 0.0
N113 N 0.55091 0.28663 0.73019 0.0
C114 C 0.63751 0.25202 0.69981 0.0
H115 H 0.6539 0.24074 0.72251 0.0
H116 H 0.62716 0.22892 0.68322 0.0
H117 H 0.65535 0.26958 0.68285 0.0
C118 C 0.50056 0.18128 0.62189 0.0
N119 N 0.51856 0.17872 0.65332 0.0
N120 N 0.53861 0.20768 0.65887 0.0
C121 C 0.53736 0.22806 0.62795 0.0
C122 C 0.51336 0.2115 0.60268 0.0
C123 C 0.46633 0.15966 0.61514 0.0
H124 H 0.45317 0.1527 0.64142 0.0
H125 H 0.47285 0.13359 0.60135 0.0
H126 H 0.44672 0.17533 0.59829 0.0
O127 O 0.48892 0.14665 0.72404 0.0
O128 O 0.51174 0.19895 0.74524 0.0
H129 H 0.54071 0.2859 0.62156 0.0
H130 H 0.57436 0.26046 0.59644 0.0
C131 C 0.55927 0.26202 0.62252 0.0
H132 H 0.57901 0.26586 0.64491 0.0
H133 H 0.52303 0.28365 0.73516 0.0
O134 O 0.50418 0.09673 0.65574 0.0
C135 C 0.48852 0.17258 0.74683 0.0
Co136 Co 0.14414 0.5186 0.68192 0.0
Co137 Co 0.21399 0.55256 0.71471 0.0
C138 C 0.14385 0.59359 0.71813 0.0
O139 O 0.12873 0.56726 0.70131 0.0
O140 O 0.17783 0.59251 0.72546 0.0
C141 C 0.0917 0.52615 0.62842 0.0
O142 O 0.10849 0.55761 0.62459 0.0
C143 C 0.27574 0.60415 0.72288 0.0
C144 C 0.31878 0.5688 0.7455 0.0
C145 C 0.31214 0.60426 0.73404 0.0
N146 N 0.26187 0.57037 0.72765 0.0
N147 N 0.28777 0.54948 0.74138 0.0
C148 C 0.25516 0.63454 0.70515 0.0
H149 H 0.24377 0.65267 0.72647 0.0
H150 H 0.23218 0.62358 0.68883 0.0
H151 H 0.27349 0.65085 0.68748 0.0
C152 C 0.19089 0.50619 0.61993 0.0
N153 N 0.18631 0.51872 0.6538 0.0
N154 N 0.21439 0.53865 0.66345 0.0
C155 C 0.23628 0.54231 0.63376 0.0
C156 C 0.22172 0.52196 0.60485 0.0
C157 C 0.16575 0.47954 0.60169 0.0
H158 H 0.15266 0.46159 0.62217 0.0
H159 H 0.14421 0.49428 0.58656 0.0
H160 H 0.1811 0.46261 0.58187 0.0
O161 O 0.15021 0.48507 0.7215 0.0
O162 O 0.19971 0.50843 0.74804 0.0
H163 H 0.28658 0.56196 0.6559 0.0
H164 H 0.28453 0.56234 0.60667 0.0
C165 C 0.26879 0.56686 0.63204 0.0
H166 H 0.25956 0.59565 0.63296 0.0
H167 H 0.28447 0.52183 0.7473 0.0
O168 O 0.10339 0.50339 0.65166 0.0
C169 C 0.17393 0.48457 0.74657 0.0
Co170 Co 0.51974 0.89126 0.3671 0.0
Co171 Co 0.55388 0.81928 0.34022 0.0
C172 C 0.59607 0.88903 0.3349 0.0
O173 O 0.56935 0.90527 0.34988 0.0
O174 O 0.59468 0.85474 0.32901 0.0
C175 C 0.52365 0.94329 0.42147 0.0
O176 O 0.55407 0.92565 0.42834 0.0
C177 C 0.60497 0.75659 0.33343 0.0
C178 C 0.56835 0.71304 0.31381 0.0
C179 C 0.60434 0.71981 0.32349 0.0
N180 N 0.5711 0.77054 0.32964 0.0
N181 N 0.54945 0.7443 0.31775 0.0
C182 C 0.6362 0.77754 0.34931 0.0
H183 H 0.62599 0.80044 0.36622 0.0
H184 H 0.65369 0.75949 0.36611 0.0
H185 H 0.65293 0.78905 0.32695 0.0
C186 C 0.49964 0.84775 0.42831 0.0
N187 N 0.5176 0.8507 0.39689 0.0
N188 N 0.53768 0.82188 0.39097 0.0
C189 C 0.53653 0.80117 0.42167 0.0
C190 C 0.51254 0.81737 0.44722 0.0
C191 C 0.4653 0.86911 0.43515 0.0
H192 H 0.45225 0.87632 0.40889 0.0
H193 H 0.47166 0.89506 0.44925 0.0
H194 H 0.44563 0.85313 0.45168 0.0
O195 O 0.488 0.88394 0.32659 0.0
O196 O 0.51073 0.83192 0.30474 0.0
H197 H 0.5399 0.74332 0.42807 0.0
H198 H 0.57428 0.76882 0.45224 0.0
C199 C 0.55848 0.76719 0.42658 0.0
H200 H 0.57761 0.76329 0.40369 0.0
H201 H 0.52163 0.74762 0.31272 0.0
O202 O 0.50332 0.93272 0.39558 0.0
C203 C 0.48759 0.85833 0.30345 0.0
Co204 Co 0.89137 0.50662 0.68373 0.0
Co205 Co 0.81881 0.47308 0.71004 0.0
C206 C 0.88835 0.43051 0.71605 0.0
O207 O 0.90496 0.45696 0.701 0.0
O208 O 0.85405 0.43225 0.72176 0.0
C209 C 0.94366 0.50274 0.62964 0.0
O210 O 0.92596 0.47236 0.62255 0.0
C211 C 0.756 0.42197 0.71566 0.0
C212 C 0.71194 0.45859 0.73399 0.0
C213 C 0.71896 0.42261 0.72448 0.0
N214 N 0.76989 0.45584 0.71987 0.0
N215 N 0.74334 0.47749 0.73101 0.0
C216 C 0.77725 0.39075 0.7002 0.0
H217 H 0.78839 0.37412 0.72279 0.0
H218 H 0.80043 0.401 0.68368 0.0
H219 H 0.75953 0.37316 0.68311 0.0
C220 C 0.84835 0.52717 0.6223 0.0
N221 N 0.85106 0.509 0.65361 0.0
N222 N 0.82196 0.48922 0.65935 0.0
C223 C 0.80127 0.49079 0.62864 0.0
C224 C 0.81779 0.51475 0.60331 0.0
C225 C 0.87012 0.56132 0.61568 0.0
H226 H 0.8775 0.57416 0.64202 0.0
H227 H 0.89597 0.55475 0.60152 0.0
H228 H 0.85437 0.58123 0.59925 0.0
O229 O 0.88384 0.53837 0.72423 0.0
O230 O 0.83128 0.51632 0.74554 0.0
H231 H 0.74334 0.48809 0.62263 0.0
H232 H 0.76824 0.45402 0.59746 0.0
C233 C 0.76703 0.46926 0.62349 0.0
H234 H 0.76313 0.44964 0.64594 0.0
H235 H 0.74653 0.50534 0.73605 0.0
O236 O 0.9331 0.52296 0.65562 0.0
C237 C 0.85797 0.53918 0.74705 0.0
Co238 Co 0.50765 0.1436 0.36769 0.0
Co239 Co 0.47315 0.21351 0.33589 0.0
C240 C 0.4324 0.14312 0.33202 0.0
O241 O 0.45894 0.12805 0.34846 0.0
O242 O 0.43325 0.17719 0.32502 0.0
C243 C 0.50053 0.09127 0.42119 0.0
O244 O 0.46918 0.10817 0.42532 0.0
C245 C 0.42141 0.27518 0.32908 0.0
C246 C 0.45673 0.31889 0.30761 0.0
C247 C 0.4213 0.31187 0.31901 0.0
N248 N 0.45516 0.26148 0.32378 0.0
N249 N 0.47603 0.28778 0.31072 0.0
C250 C 0.39106 0.25416 0.34643 0.0
H251 H 0.40205 0.23088 0.36225 0.0
H252 H 0.37472 0.27208 0.36451 0.0
H253 H 0.37291 0.24316 0.32491 0.0
C254 C 0.52048 0.18994 0.42992 0.0
N255 N 0.50752 0.1855 0.39621 0.0
N256 N 0.4874 0.21355 0.38703 0.0
C257 C 0.48408 0.23527 0.41689 0.0
C258 C 0.50482 0.22061 0.44543 0.0
C259 C 0.54778 0.16505 0.44743 0.0
H260 H 0.56545 0.1523 0.42648 0.0
H261 H 0.53364 0.14322 0.46274 0.0
H262 H 0.56495 0.18052 0.46697 0.0
O263 O 0.54101 0.15029 0.32804 0.0
O264 O 0.5172 0.19985 0.30214 0.0
H265 H 0.4648 0.286 0.39561 0.0
H266 H 0.46394 0.28305 0.44477 0.0
C267 C 0.45961 0.26778 0.41908 0.0
H268 H 0.4308 0.25863 0.41771 0.0
H269 H 0.50369 0.28471 0.3047 0.0
O270 O 0.5231 0.10278 0.39765 0.0
C271 C 0.54126 0.17428 0.30323 0.0
Co272 Co 0.6448 1.00908 0.86798 0.0
Co273 Co 0.71463 0.97466 0.83583 0.0
C274 C 0.64434 0.93388 0.83206 0.0
O275 O 0.62925 0.96039 0.84859 0.0
O276 O 0.67839 0.93475 0.82503 0.0
C277 C 0.59235 1.00172 0.92142 0.0
O278 O 0.60924 0.97036 0.92541 0.0
C279 C 0.77625 0.92298 0.82808 0.0
C280 C 0.81953 0.95825 0.80566 0.0
C281 C 0.8127 0.9228 0.8171 0.0
N282 N 0.76251 0.95678 0.82322 0.0
N283 N 0.78856 0.97762 0.80963 0.0
C284 C 0.75547 0.89263 0.84571 0.0
H285 H 0.74407 0.87455 0.82434 0.0
H286 H 0.73248 0.90364 0.86196 0.0
H287 H 0.77366 0.87625 0.86343 0.0
C288 C 0.69118 0.02158 0.93021 0.0
N289 N 0.68676 1.00887 0.89639 0.0
N290 N 0.71478 0.98875 0.88704 0.0
C291 C 0.73645 0.98518 0.91689 0.0
C292 C 0.7218 1.00575 0.94559 0.0
C293 C 0.66623 0.04867 0.94801 0.0
H294 H 0.65344 0.06648 0.92726 0.0
H295 H 0.64444 0.03433 0.96321 0.0
H296 H 0.68166 0.06569 0.96771 0.0
O297 O 0.65136 0.04255 0.82844 0.0
O298 O 0.70077 0.01868 0.80224 0.0
H299 H 0.78683 0.9653 0.89519 0.0
H300 H 0.78438 0.96503 0.94441 0.0
C301 C 0.76882 0.96052 0.91892 0.0
H302 H 0.75946 0.93175 0.91798 0.0
H303 H 0.78538 1.00528 0.80367 0.0
O304 O 0.60396 0.02441 0.89805 0.0
C305 C 0.67524 0.04277 0.8035 0.0
Co306 Co 1.00795 0.38926 0.18437 0.0
Co307 Co 0.97327 0.31745 0.21075 0.0
C308 C 0.93157 0.38729 0.2167 0.0
O309 O 0.95844 0.40344 0.20187 0.0
O310 O 0.93264 0.35295 0.22226 0.0
C311 C 1.0034 0.43989 0.12935 0.0
O312 O 0.97345 0.42126 0.12289 0.0
C313 C 0.92187 0.25491 0.21655 0.0
C314 C 0.95833 0.21074 0.23486 0.0
C315 C 0.92237 0.21789 0.2254 0.0
N316 N 0.95581 0.26867 0.22071 0.0
N317 N 0.97735 0.24206 0.23185 0.0
C318 C 0.89072 0.27627 0.20117 0.0
H319 H 0.87414 0.28746 0.22381 0.0
H320 H 0.90102 0.29942 0.18467 0.0
H321 H 0.87306 0.25861 0.18409 0.0
C322 C 0.02803 0.34587 0.12313 0.0
N323 N 1.01007 0.34873 0.15456 0.0
N324 N 0.9895 0.32015 0.16005 0.0
C325 C 0.9904 0.29976 0.12908 0.0
C326 C 0.01467 0.31594 0.10384 0.0
C327 C 0.06266 0.36685 0.11639 0.0
H328 H 0.07602 0.37345 0.14266 0.0
H329 H 0.05666 0.39311 0.10278 0.0
H330 H 0.08189 0.35087 0.09935 0.0
O331 O 0.03978 0.38183 0.2247 0.0
O332 O 0.01648 0.32995 0.24636 0.0
H333 H 0.98613 0.24202 0.12235 0.0
H334 H 0.95284 0.26807 0.09747 0.0
C335 C 0.96794 0.26618 0.12352 0.0
H336 H 0.94821 0.26256 0.14595 0.0
H337 H 1.00521 0.24514 0.23684 0.0
O338 O 0.02397 0.43054 0.15551 0.0
C339 C 0.03991 0.35617 0.24775 0.0
Co340 Co 0.39223 0.02027 0.86671 0.0
Co341 Co 0.32003 0.05401 0.84 0.0
C342 C 0.38957 0.09659 0.83468 0.0
O343 O 0.40595 0.06996 0.84961 0.0
O344 O 0.35529 0.09501 0.82877 0.0
C345 C 0.44424 0.0244 0.92102 0.0
O346 O 0.42648 0.05475 0.92794 0.0
C347 C 0.25703 0.10472 0.83348 0.0
C348 C 0.21362 0.06781 0.81407 0.0
C349 C 0.22021 0.10384 0.82374 0.0
N350 N 0.27118 0.07094 0.82959 0.0
N351 N 0.24502 0.04912 0.81782 0.0
C352 C 0.27783 0.13609 0.84929 0.0
H353 H 0.28917 0.15287 0.82689 0.0
H354 H 0.30085 0.12602 0.8661 0.0
H355 H 0.25973 0.15347 0.86617 0.0
C356 C 0.34882 0.99982 0.9279 0.0
N357 N 0.35169 0.01786 0.89653 0.0
N358 N 0.32274 0.03778 0.8907 0.0
C359 C 0.302 0.03643 0.92139 0.0
C360 C 0.31834 1.01248 0.94684 0.0
C361 C 0.37041 0.96563 0.93469 0.0
H362 H 0.37772 0.95262 0.90841 0.0
H363 H 0.39632 0.97218 0.94878 0.0
H364 H 0.35457 0.94586 0.95123 0.0
O365 O 0.38505 0.98854 0.82614 0.0
O366 O 0.33283 1.0109 0.80448 0.0
H367 H 0.24411 0.03943 0.9276 0.0
H368 H 0.26929 0.07368 0.95227 0.0
C369 C 0.26789 0.05815 0.92641 0.0
H370 H 0.26401 0.07751 0.90373 0.0
H371 H 0.24849 0.02131 0.81277 0.0
O372 O 0.43377 1.00404 0.89511 0.0
C373 C 0.35939 0.98794 0.80309 0.0
Co374 Co 0.01881 0.6382 0.18377 0.0
Co375 Co 0.05344 0.70988 0.21068 0.0
C376 C 0.09524 0.64012 0.2159 0.0
O377 O 0.06836 0.62406 0.20099 0.0
O378 O 0.09415 0.67441 0.22179 0.0
C379 C 0.02342 0.58766 0.1285 0.0
O380 O 0.05339 0.60627 0.12207 0.0
C381 C 0.10478 0.77245 0.21738 0.0
C382 C 0.06841 0.8161 0.23713 0.0
C383 C 0.10434 0.80923 0.22734 0.0
N384 N 0.07086 0.75859 0.22127 0.0
N385 N 0.04936 0.7849 0.23323 0.0
C386 C 0.1359 0.75141 0.20146 0.0
H387 H 0.15262 0.73988 0.2238 0.0
H388 H 0.12557 0.72851 0.1846 0.0
H389 H 0.15343 0.7694 0.18461 0.0
C390 C 0.9987 0.68183 0.12289 0.0
N391 N 0.01656 0.67895 0.15435 0.0
N392 N 0.03724 0.70744 0.15993 0.0
C393 C 0.03654 0.72777 0.12895 0.0
C394 C 1.01229 0.71164 0.1036 0.0
C395 C 0.96393 0.66106 0.11619 0.0
H396 H 0.9505 0.65468 0.14248 0.0
H397 H 0.96975 0.63469 0.10268 0.0
H398 H 0.94481 0.6771 0.09912 0.0
O399 O 0.98711 0.64515 0.22426 0.0
O400 O 1.01021 0.69703 0.24621 0.0
H401 H 0.04102 0.78541 0.12159 0.0
H402 H 0.07492 0.75895 0.09791 0.0
C403 C 0.05915 0.76126 0.12354 0.0
H404 H 0.0783 0.76521 0.14642 0.0
H405 H 0.02153 0.78165 0.23833 0.0
O406 O 1.00283 0.59705 0.15464 0.0
C407 C 0.98693 0.67067 0.2475 0.0
Co408 Co 0.63827 0.02001 0.18351 0.0
Co409 Co 0.71036 0.05452 0.2098 0.0
C410 C 0.64052 0.09633 0.21588 0.0
O411 O 0.62422 0.06955 0.20101 0.0
O412 O 0.67487 0.09512 0.22141 0.0
C413 C 0.58595 0.02385 0.12961 0.0
O414 O 0.60359 0.05431 0.12276 0.0
C415 C 0.77291 0.10594 0.21581 0.0
C416 C 0.81708 0.06939 0.23396 0.0
C417 C 0.80993 0.1054 0.22472 0.0
N418 N 0.75917 0.07198 0.21973 0.0
N419 N 0.78578 0.05038 0.23076 0.0
C420 C 0.75155 0.13716 0.2006 0.0
H421 H 0.72844 0.12694 0.18397 0.0
H422 H 0.76922 0.15495 0.18369 0.0
H423 H 0.7403 0.15359 0.22333 0.0
C424 C 0.68139 1.00022 0.12183 0.0
N425 N 0.67858 0.0181 0.15333 0.0
N426 N 0.7074 0.03828 0.15909 0.0
C427 C 0.72797 0.03722 0.12826 0.0
C428 C 0.71167 1.01321 0.10281 0.0
C429 C 0.6599 0.96597 0.11481 0.0
H430 H 0.65279 0.9527 0.14099 0.0
H431 H 0.6339 0.97247 0.10091 0.0
H432 H 0.67573 0.94644 0.09797 0.0
O433 O 0.64615 0.98825 0.22387 0.0
O434 O 0.69812 1.01142 0.24544 0.0
H435 H 0.78582 0.04094 0.12214 0.0
H436 H 0.7603 0.07452 0.09704 0.0
C437 C 0.76181 0.05935 0.12307 0.0
H438 H 0.7654 0.07905 0.14555 0.0
H439 H 0.78269 0.02249 0.2356 0.0
O440 O 0.59662 1.00346 0.15537 0.0
C441 C 0.67189 0.98804 0.24685 0.0
Co442 Co 0.02054 0.38414 0.86802 0.0
Co443 Co 0.05469 0.31354 0.83687 0.0
C444 C 0.09579 0.38383 0.83261 0.0
O445 O 0.06938 0.39927 0.84895 0.0
O446 O 0.09465 0.34972 0.82578 0.0
C447 C 0.02686 0.43836 0.9202 0.0
O448 O 0.0586 0.42237 0.92479 0.0
C449 C 0.10658 0.25189 0.83046 0.0
C450 C 0.07139 0.20795 0.80915 0.0
C451 C 0.10682 0.21516 0.82044 0.0
N452 N 0.07276 0.26544 0.82521 0.0
N453 N 0.05197 0.23899 0.81228 0.0
C454 C 0.1369 0.27313 0.84762 0.0
H455 H 0.15481 0.28424 0.82598 0.0
H456 H 0.12585 0.29634 0.86354 0.0
H457 H 0.15349 0.25534 0.86556 0.0
C458 C 1.00771 0.33864 0.93085 0.0
N459 N 0.02061 0.34263 0.89707 0.0
N460 N 0.04026 0.31419 0.88796 0.0
C461 C 0.04326 0.29257 0.91789 0.0
C462 C 0.02285 0.30776 0.94642 0.0
C463 C 0.98088 0.36411 0.94832 0.0
H464 H 0.96299 0.37653 0.92741 0.0
H465 H 0.99547 0.38617 0.9629 0.0
H466 H 0.96389 0.34923 0.96844 0.0
O467 O 0.9874 0.37686 0.82824 0.0
O468 O 1.0108 0.32678 0.80288 0.0
H469 H 0.0615 0.24134 0.89677 0.0
H470 H 0.06277 0.24465 0.94591 0.0
C471 C 0.06717 0.25965 0.9201 0.0
H472 H 0.09613 0.26828 0.91845 0.0
H473 H 0.0243 0.24194 0.80626 0.0
O474 O 1.00457 0.42555 0.89705 0.0
C475 C 0.98694 0.35254 0.80371 0.0
Co476 Co 0.38517 1.00801 0.18128 0.0
Co477 Co 0.31538 0.97342 0.21357 0.0
C478 C 0.38571 0.93273 0.21685 0.0
O479 O 0.40064 0.95933 0.20035 0.0
O480 O 0.3517 0.93349 0.22413 0.0
C481 C 0.43774 1.00076 0.12792 0.0
O482 O 0.42091 0.96934 0.12385 0.0
C483 C 0.25355 0.92166 0.22081 0.0
C484 C 0.21006 0.95709 0.24251 0.0
C485 C 0.2169 0.92163 0.2311 0.0
N486 N 0.2674 0.95541 0.22598 0.0
N487 N 0.24122 0.97634 0.23918 0.0
C488 C 0.27439 0.89124 0.20338 0.0
H489 H 0.28535 0.87307 0.22486 0.0
H490 H 0.29768 0.90214 0.18748 0.0
H491 H 0.25635 0.87494 0.18536 0.0
C492 C 0.33857 0.02062 0.1193 0.0
N493 N 0.34311 1.00786 0.15305 0.0
N494 N 0.31513 0.98767 0.16242 0.0
C495 C 0.29335 0.98413 0.13264 0.0
C496 C 0.30789 1.00478 0.10397 0.0
C497 C 0.36362 0.04758 0.10142 0.0
H498 H 0.37648 0.06545 0.12213 0.0
H499 H 0.38534 0.03311 0.08626 0.0
H500 H 0.34824 0.06455 0.08169 0.0
O501 O 0.37883 0.04128 0.22106 0.0
O502 O 0.32936 0.01752 0.2473 0.0
H503 H 0.24282 0.96448 0.15417 0.0
H504 H 0.24558 0.96365 0.10499 0.0
C505 C 0.26098 0.95942 0.13061 0.0
H506 H 0.27029 0.93067 0.13189 0.0
H507 H 0.24441 1.004 0.24516 0.0
O508 O 0.42598 0.02345 0.15123 0.0
C509 C 0.35503 0.04152 0.24606 0.0
Co510 Co 1.00838 0.64072 0.86894 0.0
Co511 Co 0.9747 0.71084 0.83645 0.0
C512 C 0.93318 0.64079 0.83334 0.0
O513 O 0.95955 0.62561 0.84994 0.0
O514 O 0.9344 0.67477 0.82593 0.0
C515 C 1.00145 0.58685 0.92142 0.0
O516 O 0.96962 0.60281 0.92564 0.0
C517 C 0.92375 0.77312 0.82845 0.0
C518 C 0.95972 0.81579 0.80596 0.0
C519 C 0.92415 0.80954 0.81737 0.0
N520 N 0.95735 0.75886 0.82367 0.0
N521 N 0.97861 0.78454 0.81003 0.0
C522 C 0.89304 0.75286 0.84607 0.0
H523 H 0.87484 0.7417 0.82468 0.0
H524 H 0.90365 0.72974 0.86236 0.0
H525 H 0.8769 0.77136 0.86374 0.0
C526 C 0.021 0.68729 0.93116 0.0
N527 N 1.0084 0.68278 0.89731 0.0
N528 N 0.98895 0.71114 0.88761 0.0
C529 C 0.9858 0.73329 0.91718 0.0
C530 C 1.0059 0.71853 0.94611 0.0
C531 C 0.04716 0.66174 0.94942 0.0
H532 H 0.06532 0.64884 0.929 0.0
H533 H 0.03198 0.64005 0.96392 0.0
H534 H 0.06392 0.67666 0.96972 0.0
O535 O 0.0417 0.64697 0.82913 0.0
O536 O 0.01858 0.69663 0.80286 0.0
H537 H 0.9675 0.784 0.89499 0.0
H538 H 0.96646 0.78189 0.9442 0.0
C539 C 0.96193 0.76627 0.91874 0.0
H540 H 0.93296 0.75763 0.91746 0.0
H541 H 1.00623 0.78094 0.80414 0.0
O542 O 0.024 0.59966 0.89855 0.0
C543 C 0.04229 0.67077 0.80416 0.0
C544 C 0.99721 0.55192 0.43873 0.0
C545 C 0.97352 0.52191 0.4367 0.0
H546 H 0.05273 0.56965 0.43547 0.0
C547 C 0.98749 0.48645 0.44021 0.0
H548 H 0.98697 0.57955 0.4363 0.0
C549 C 0.02507 0.48086 0.44047 0.0
C550 C 0.04868 0.51069 0.4364 0.0
H551 H 0.96949 0.46299 0.43916 0.0
H552 H 0.0353 0.45314 0.43939 0.0
C553 C 0.03477 0.5463 0.43814 0.0
C554 C 0.54793 0.02613 0.60979 0.0
C555 C 0.51822 0.0497 0.61477 0.0
H556 H 0.56565 0.97053 0.60985 0.0
C557 C 0.48256 0.03585 0.61337 0.0
H558 H 0.57568 0.03633 0.61056 0.0
C559 C 0.47681 0.99831 0.61221 0.0
C560 C 0.50678 0.97457 0.61334 0.0
H561 H 0.4593 0.0538 0.6167 0.0
H562 H 0.4492 0.98808 0.61495 0.0
C563 C 0.54222 0.98855 0.60948 0.0
C564 C 0.99364 0.54482 0.61301 0.0
C565 C 0.97995 0.5091 0.61448 0.0
H566 H 0.04125 0.57839 0.61492 0.0
C567 C 1.00367 0.47947 0.60984 0.0
H568 H 0.97556 0.56801 0.61608 0.0
C569 C 0.04122 0.48534 0.60988 0.0
C570 C 0.05501 0.52086 0.61376 0.0
H571 H 0.99359 0.45168 0.61068 0.0
H572 H 0.05935 0.46199 0.61055 0.0
C573 C 0.03116 0.55072 0.6122 0.0
C574 C 0.48185 0.99343 0.43816 0.0
C575 C 0.51753 0.9797 0.43644 0.0
H576 H 0.44836 0.04103 0.43597 0.0
C577 C 0.54725 1.00347 0.44038 0.0
H578 H 0.45859 0.97532 0.4356 0.0
C579 C 0.54146 0.04102 0.43984 0.0
C580 C 0.50592 0.05476 0.4362 0.0
H581 H 0.57501 0.99337 0.43931 0.0
H582 H 0.56483 0.05912 0.43862 0.0
C583 C 0.47603 0.03096 0.43848 0.0
C584 C 0.54184 0.04246 0.93991 0.0
C585 C 0.55572 1.00697 0.93624 0.0
H586 H 0.4941 0.07588 0.93921 0.0
C587 C 0.53199 0.97701 0.93827 0.0
H588 H 0.55988 0.06589 0.93888 0.0
C589 C 0.49444 0.98272 0.93775 0.0
C590 C 0.48061 0.01835 0.93607 0.0
H591 H 0.54216 0.94937 0.93574 0.0
H592 H 0.47642 0.95941 0.93502 0.0
C593 C 0.50427 0.04814 0.94024 0.0
C594 C 0.9782 0.49912 0.11006 0.0
C595 C 1.0085 0.47607 0.1136 0.0
H596 H 0.95951 0.55437 0.11203 0.0
C597 C 0.04383 0.49055 0.11095 0.0
H598 H 0.95069 0.4884 0.11187 0.0
C599 C 0.04885 0.5282 0.11019 0.0
C600 C 0.01851 0.5513 0.11303 0.0
H601 H 0.0675 0.47299 0.11325 0.0
H602 H 0.07634 0.53893 0.11215 0.0
C603 C 0.9832 0.53678 0.11024 0.0
C604 C 0.49832 0.97609 0.11194 0.0
C605 C 0.47453 1.006 0.11349 0.0
H606 H 0.55386 0.95865 0.11591 0.0
C607 C 0.48842 0.0415 0.10981 0.0
H608 H 0.48814 0.94844 0.11451 0.0
C609 C 0.52598 0.04727 0.1099 0.0
C610 C 0.54963 0.01758 0.11448 0.0
H611 H 0.47034 0.06488 0.1105 0.0
H612 H 0.53612 0.07504 0.11085 0.0
C613 C 0.53585 0.9819 0.11288 0.0
C614 C 0.97814 0.52569 0.93773 0.0
C615 C 1.00761 0.55 0.93537 0.0
H616 H 0.96145 0.46983 0.93479 0.0
C617 C 0.0434 0.53672 0.9382 0.0
H618 H 0.95027 0.53537 0.93587 0.0
C619 C 0.04977 0.49925 0.93818 0.0
C620 C 0.02036 0.47502 0.93458 0.0
H621 H 0.06649 0.55517 0.93694 0.0
H622 H 0.07767 0.48962 0.93672 0.0
C623 C 0.98451 0.48824 0.93696 0.0
C624 C 0.3734 0.40304 0.32994 0.0
C625 C 0.33654 0.39416 0.32401 0.0
H626 H 0.42855 0.38421 0.33345 0.0
C627 C 0.32757 0.35754 0.31654 0.0
H628 H 0.38143 0.43093 0.33558 0.0
C629 C 0.35478 0.33056 0.31539 0.0
C630 C 0.3916 0.33957 0.32156 0.0
H631 H 0.29979 0.34978 0.31033 0.0
H632 H 0.347 0.30295 0.30843 0.0
C633 C 0.40049 0.3762 0.3287 0.0
C634 C 0.3769 0.62519 0.7276 0.0
C635 C 0.33993 0.63405 0.73272 0.0
H636 H 0.43192 0.64432 0.72345 0.0
C637 C 0.33062 0.67092 0.73813 0.0
H638 H 0.38517 0.59711 0.72352 0.0
C639 C 0.35761 0.69818 0.73809 0.0
C640 C 0.39456 0.68922 0.73264 0.0
H641 H 0.30273 0.67873 0.74364 0.0
H642 H 0.34954 0.72601 0.74355 0.0
C643 C 0.40377 0.65233 0.72756 0.0
C644 C 0.62508 0.65501 0.32975 0.0
C645 C 0.63399 0.69188 0.32393 0.0
H646 H 0.6439 0.59986 0.33334 0.0
C647 C 0.67066 0.70086 0.31679 0.0
H648 H 0.59715 0.64696 0.33514 0.0
C649 C 0.69767 0.67365 0.31583 0.0
C650 C 0.68863 0.63682 0.32187 0.0
H651 H 0.67846 0.72864 0.31069 0.0
H652 H 0.72532 0.68145 0.30912 0.0
C653 C 0.65195 0.62792 0.3287 0.0
C654 C 0.6996 0.35639 0.7308 0.0
C655 C 0.69103 0.39297 0.72288 0.0
H656 H 0.67977 0.30182 0.73812 0.0
C657 C 0.65453 0.40178 0.71507 0.0
H658 H 0.72706 0.34872 0.73835 0.0
C659 C 0.62741 0.37489 0.71492 0.0
C660 C 0.63589 0.33828 0.72259 0.0
H661 H 0.64681 0.42965 0.70902 0.0
H662 H 0.59964 0.38286 0.70876 0.0
C663 C 0.67236 0.32937 0.73066 0.0
C664 C 0.90409 0.87452 0.82393 0.0
C665 C 0.89475 0.83766 0.81867 0.0
H666 H 0.88569 0.92977 0.82806 0.0
C667 C 0.8578 0.82881 0.81303 0.0
H668 H 0.93225 0.88244 0.82819 0.0
C669 C 0.83092 0.85613 0.81295 0.0
C670 C 0.84035 0.89296 0.81852 0.0
H671 H 0.84964 0.80101 0.80743 0.0
H672 H 0.80302 0.8484 0.80729 0.0
C673 C 0.87733 0.90172 0.82386 0.0
C674 C 0.82896 0.17167 0.23162 0.0
C675 C 0.83774 0.13517 0.22347 0.0
H676 H 0.84853 0.22628 0.23939 0.0
C677 C 0.87431 0.12655 0.21576 0.0
H678 H 0.80144 0.17918 0.23911 0.0
C679 C 0.90131 0.15355 0.21594 0.0
C680 C 0.89263 0.19008 0.22382 0.0
H681 H 0.88217 0.09874 0.20954 0.0
H682 H 0.92915 0.14573 0.20984 0.0
C683 C 0.85609 0.1988 0.23179 0.0
C684 C 0.17345 0.19686 0.81635 0.0
C685 C 0.13671 0.18762 0.82269 0.0
H686 H 0.22851 0.17797 0.81081 0.0
C687 C 0.12808 0.15091 0.82964 0.0
H688 H 0.18104 0.22454 0.80953 0.0
C689 C 0.15532 0.1242 0.8305 0.0
C690 C 0.1921 0.13332 0.82439 0.0
H691 H 0.10009 0.14271 0.83449 0.0
H692 H 0.14748 0.09623 0.83598 0.0
C693 C 0.20082 0.17002 0.81714 0.0
C694 C 0.15238 0.90098 0.22204 0.0
C695 C 0.18904 0.89198 0.22877 0.0
H696 H 0.09748 0.88212 0.21574 0.0
C697 C 0.19792 0.85511 0.23477 0.0
H698 H 0.14445 0.92907 0.21743 0.0
C699 C 0.17078 0.82799 0.23387 0.0
C700 C 0.13413 0.83708 0.22684 0.0
H701 H 0.22555 0.84723 0.24142 0.0
H702 H 0.17847 0.80018 0.23995 0.0
C703 C 0.12538 0.87398 0.22105 0.0
C704 C 0.16551 0.60464 0.2826 0.0
C705 C 0.16615 0.56722 0.27394 0.0
H706 H 0.14335 0.65744 0.27052 0.0
C707 C 0.14924 0.55571 0.24168 0.0
H708 H 0.17746 0.61413 0.30783 0.0
C709 C 0.12884 0.58035 0.22071 0.0
C710 C 0.12508 0.61713 0.23143 0.0
H711 H 0.14836 0.52696 0.23484 0.0
H712 H 0.11365 0.5699 0.19768 0.0
C713 C 0.14556 0.62943 0.26136 0.0
C714 C 0.55901 0.88021 0.80718 0.0
C715 C 0.57019 0.86256 0.77518 0.0
H716 H 0.57373 0.91657 0.85049 0.0
C717 C 0.60745 0.86335 0.76596 0.0
H718 H 0.53036 0.88098 0.8144 0.0
C719 C 0.63246 0.88372 0.7866 0.0
C720 C 0.62059 0.90457 0.81646 0.0
H721 H 0.61667 0.85082 0.74092 0.0
H722 H 0.6604 0.88567 0.77718 0.0
C723 C 0.58389 0.90108 0.82753 0.0
C724 C 0.86132 0.42257 0.28371 0.0
C725 C 0.85982 0.45984 0.27461 0.0
H726 H 0.88432 0.37001 0.272 0.0
C727 C 0.8765 0.4713 0.24222 0.0
H728 H 0.84952 0.41314 0.30901 0.0
C729 C 0.89735 0.44678 0.22145 0.0
C730 C 0.9017 0.41016 0.23243 0.0
H731 H 0.87671 0.49996 0.23503 0.0
H732 H 0.91227 0.45721 0.19825 0.0
C733 C 0.88162 0.39789 0.26262 0.0
C734 C 0.44888 0.13109 0.83004 0.0
C735 C 0.41222 0.12675 0.81917 0.0
H736 H 0.5021 0.15127 0.81605 0.0
C737 C 0.39981 0.14696 0.78915 0.0
H738 H 0.4594 0.11613 0.85315 0.0
C739 C 0.42446 0.16719 0.76796 0.0
C740 C 0.46183 0.16835 0.77674 0.0
H741 H 0.37188 0.1443 0.77989 0.0
H742 H 0.41495 0.17887 0.74263 0.0
C743 C 0.47337 0.15176 0.80911 0.0
C744 C 0.16616 0.42016 0.76618 0.0
C745 C 0.16746 0.45737 0.77561 0.0
H746 H 0.14332 0.36742 0.77727 0.0
C747 C 0.1503 0.46857 0.80785 0.0
H748 H 0.17831 0.41094 0.74095 0.0
C749 C 0.12933 0.44383 0.82823 0.0
C750 C 0.1253 0.40724 0.81696 0.0
H751 H 0.14992 0.49719 0.81525 0.0
H752 H 0.11418 0.45404 0.85138 0.0
C753 C 0.14572 0.39527 0.78685 0.0
C754 C 0.47169 0.88059 0.24184 0.0
C755 C 0.4607 0.86275 0.27377 0.0
H756 H 0.45652 0.91657 0.19851 0.0
C757 C 0.42334 0.8625 0.28262 0.0
H758 H 0.50039 0.88221 0.23491 0.0
C759 C 0.39803 0.88233 0.26188 0.0
C760 C 0.4097 0.90357 0.23223 0.0
H761 H 0.41424 0.84987 0.30764 0.0
H762 H 0.37001 0.8837 0.27115 0.0
C763 C 0.44651 0.90082 0.22133 0.0
C764 C 0.86265 0.60351 0.76754 0.0
C765 C 0.86239 0.56621 0.77664 0.0
H766 H 0.88453 0.65667 0.77873 0.0
C767 C 0.87991 0.55529 0.80875 0.0
H768 H 0.85027 0.61255 0.74237 0.0
C769 C 0.90038 0.5804 0.82919 0.0
C770 C 0.90369 0.61707 0.81802 0.0
H771 H 0.88113 0.52663 0.81588 0.0
H772 H 0.9159 0.57039 0.85216 0.0
C773 C 0.88274 0.62875 0.7882 0.0
C774 C 0.60555 0.16647 0.28314 0.0
C775 C 0.56832 0.16825 0.27392 0.0
H776 H 0.65798 0.1432 0.27148 0.0
C777 C 0.55684 0.15183 0.24139 0.0
H778 H 0.61498 0.17807 0.30855 0.0
C779 C 0.58127 0.13093 0.22058 0.0
C780 C 0.61782 0.12629 0.23167 0.0
H781 H 0.52819 0.15184 0.2341 0.0
H782 H 0.57081 0.11619 0.19726 0.0
C783 C 0.63015 0.14613 0.26201 0.0
C784 C 0.6319 0.08232 0.72071 0.0
C785 C 0.62697 0.11887 0.73176 0.0
H786 H 0.65312 0.02943 0.73432 0.0
C787 C 0.64659 0.13139 0.76215 0.0
H788 H 0.61733 0.07173 0.69735 0.0
C789 C 0.667 0.10697 0.78337 0.0
C790 C 0.66906 0.06974 0.77417 0.0
H791 H 0.64343 0.15922 0.77158 0.0
H792 H 0.67843 0.11654 0.8088 0.0
C793 C 0.65288 0.05808 0.7416 0.0
C794 C 0.07957 0.39841 0.33066 0.0
C795 C 0.11633 0.40223 0.31992 0.0
H796 H 0.02622 0.37857 0.31665 0.0
C797 C 0.12867 0.38153 0.29016 0.0
H798 H 0.06909 0.41376 0.35356 0.0
C799 C 0.10393 0.36127 0.26907 0.0
C800 C 0.06651 0.36057 0.27771 0.0
H801 H 0.15668 0.38377 0.28101 0.0
H802 H 0.11344 0.34917 0.24392 0.0
C803 C 0.05498 0.37771 0.30983 0.0
C804 C 0.40211 0.94664 0.72113 0.0
C805 C 0.40486 0.90987 0.73213 0.0
H806 H 0.38343 1.00054 0.73454 0.0
C807 C 0.38354 0.89829 0.76176 0.0
H808 H 0.41793 0.95657 0.69831 0.0
C809 C 0.3636 0.92365 0.78239 0.0
C810 C 0.36387 0.96098 0.77345 0.0
H811 H 0.38489 0.8703 0.7711 0.0
H812 H 0.3509 0.91463 0.8074 0.0
C813 C 0.3818 0.97187 0.74154 0.0
C814 C 0.92279 0.66662 0.26861 0.0
C815 C 0.96018 0.66615 0.2773 0.0
H816 H 0.86942 0.64536 0.27998 0.0
C817 C 0.9712 0.64783 0.30893 0.0
H818 H 0.91364 0.67961 0.24379 0.0
C819 C 0.94602 0.62735 0.32925 0.0
C820 C 0.90917 0.62484 0.31844 0.0
H821 H 0.99992 0.64603 0.31572 0.0
H822 H 0.95605 0.61126 0.35181 0.0
C823 C 0.89748 0.64653 0.28915 0.0
C824 C 0.66658 0.92403 0.26811 0.0
C825 C 0.66755 0.96144 0.27679 0.0
H826 H 0.64395 0.87139 0.28018 0.0
C827 C 0.65081 0.97304 0.3091 0.0
H828 H 0.67839 0.91448 0.24284 0.0
C829 C 0.63021 0.94854 0.33008 0.0
C830 C 0.62609 0.9118 0.31932 0.0
H831 H 0.65018 1.0018 0.31596 0.0
H832 H 0.61515 0.95909 0.35314 0.0
C833 C 0.64643 0.89938 0.28936 0.0
C834 C 0.97146 0.37433 0.74169 0.0
C835 C 0.95989 0.35838 0.77438 0.0
H836 H 0.95775 0.40966 0.69732 0.0
C837 C 0.92269 0.36058 0.78366 0.0
H838 H 1.00009 0.37398 0.73434 0.0
C839 C 0.89824 0.38096 0.76243 0.0
C840 C 0.91072 0.40039 0.73192 0.0
H841 H 0.9132 0.34934 0.80919 0.0
H842 H 0.87047 0.38427 0.77194 0.0
C843 C 0.94719 0.39525 0.72076 0.0
C844 C 0.36197 0.10597 0.26598 0.0
C845 C 0.36125 0.06872 0.27524 0.0
H846 H 0.3842 0.15899 0.27711 0.0
C847 C 0.37884 0.05768 0.30727 0.0
H848 H 0.34949 0.1151 0.2409 0.0
C849 C 0.39964 0.08265 0.3276 0.0
C850 C 0.40309 0.11933 0.31647 0.0
H851 H 0.37969 0.02904 0.31453 0.0
H852 H 0.4151 0.07258 0.35058 0.0
C853 C 0.38226 0.13108 0.28658 0.0
C854 C 0.05857 0.64719 0.74291 0.0
C855 C 0.06959 0.66448 0.77515 0.0
H856 H 0.07348 0.61126 0.69933 0.0
C857 C 0.10679 0.66358 0.78459 0.0
H858 H 0.02996 0.64652 0.7355 0.0
C859 C 0.13188 0.6434 0.76391 0.0
C860 C 0.12014 0.62286 0.73378 0.0
H861 H 0.11587 0.67585 0.80981 0.0
H862 H 0.15975 0.64131 0.77349 0.0
C863 C 0.08353 0.62651 0.72249 0.0
C864 C 0.25466 0.51529 0.54391 0.0
C865 C 0.22508 0.52781 0.56489 0.0
H866 H 0.2751 0.50385 0.49036 0.0
C867 C 0.19368 0.53951 0.54684 0.0
H868 H 0.27932 0.5059 0.55713 0.0
C869 C 0.18965 0.53427 0.50981 0.0
C870 C 0.21842 0.52147 0.48782 0.0
H871 H 0.17039 0.54952 0.56203 0.0
H872 H 0.16258 0.53844 0.49953 0.0
C873 C 0.2517 0.51311 0.50555 0.0
C874 C 0.51489 0.77705 0.50516 0.0
C875 C 0.5064 0.81024 0.48735 0.0
H876 H 0.5222 0.74962 0.5568 0.0
C877 C 0.49343 0.83901 0.50927 0.0
H878 H 0.52428 0.75365 0.49006 0.0
C879 C 0.48818 0.83505 0.5463 0.0
C880 C 0.50001 0.80377 0.56443 0.0
H881 H 0.48914 0.86604 0.49896 0.0
H882 H 0.47808 0.85836 0.56144 0.0
C883 C 0.5127 0.7742 0.54353 0.0
C884 C 0.83565 0.53962 0.50448 0.0
C885 C 0.80401 0.5287 0.48632 0.0
H886 H 0.86681 0.53743 0.55172 0.0
C887 C 0.77422 0.51647 0.50718 0.0
H888 H 0.8591 0.54944 0.4894 0.0
C889 C 0.77719 0.51379 0.54551 0.0
C890 C 0.81066 0.52133 0.56328 0.0
H891 H 0.74935 0.5077 0.49389 0.0
H892 H 0.75363 0.5048 0.56062 0.0
C893 C 0.83965 0.53386 0.54142 0.0
C894 C 0.48925 0.19238 0.50393 0.0
C895 C 0.49979 0.22398 0.48552 0.0
H896 H 0.49167 0.16171 0.5515 0.0
C897 C 0.51175 0.25408 0.50615 0.0
H898 H 0.47958 0.16871 0.48906 0.0
C899 C 0.51443 0.25149 0.54451 0.0
C900 C 0.50712 0.21813 0.56253 0.0
H901 H 0.52024 0.27893 0.49266 0.0
H902 H 0.52319 0.27526 0.55948 0.0
C903 C 0.495 0.18879 0.54091 0.0
C904 C 0.69337 0.98938 1.0038 0.0
C905 C 0.72501 1.00031 0.98563 0.0
H906 H 0.66239 0.99125 0.05123 0.0
C907 C 0.75488 1.01235 1.0065 0.0
H908 H 0.66986 0.97968 0.98873 0.0
C909 C 0.75203 0.01478 0.04486 0.0
C910 C 0.71861 1.00713 0.06267 0.0
H911 H 0.77973 0.02114 0.99321 0.0
H912 H 0.77563 0.02362 0.06001 0.0
C913 C 0.68951 0.99486 0.04081 0.0
C914 C 0.03822 0.33569 1.00518 0.0
C915 C 0.02759 0.30422 0.98653 0.0
H916 H 0.03607 0.36602 0.05305 0.0
C917 C 0.01556 0.27402 1.00694 0.0
H918 H 0.048 0.3594 0.99051 0.0
C919 C 1.01295 0.27637 0.04533 0.0
C920 C 0.0205 0.30957 0.06361 0.0
H921 H 1.00698 0.24929 0.99327 0.0
H922 H 1.0041 0.25257 0.06017 0.0
C923 C 0.0326 0.33903 0.0422 0.0
C924 C 0.33617 0.98809 0.04579 0.0
C925 C 0.30463 0.99927 0.06394 0.0
H926 H 0.36727 0.98985 0.99849 0.0
C927 C 0.27491 1.01159 0.04307 0.0
H928 H 0.35957 0.97822 0.06088 0.0
C929 C 0.27784 0.01406 1.00472 0.0
C930 C 0.31122 1.00619 0.98693 0.0
H931 H 0.25013 0.02059 0.05636 0.0
H932 H 0.25434 0.02314 0.98961 0.0
C933 C 0.34015 0.99362 1.00881 0.0
C934 C 0.98897 0.69161 1.00484 0.0
C935 C 1.00056 0.72264 0.98609 0.0
H936 H 0.98997 0.66166 0.05287 0.0
C937 C 1.01309 0.75273 1.0064 0.0
H938 H 0.9789 0.66797 0.99021 0.0
C939 C 0.01525 0.75067 0.04484 0.0
C940 C 1.00675 0.71784 0.06328 0.0
H941 H 0.02242 0.77711 0.99264 0.0
H942 H 0.02453 0.7744 0.05955 0.0
C943 C 0.99414 0.68848 0.04194 0.0
loop_
_geom_bond_atom_site_label_1
_geom_bond_atom_site_label_2
_geom_bond_distance
_geom_bond_site_symmetry_2
_ccdc_geom_bond_type
Co0 O3 1.970 . S
Co0 N17 1.989 . S
Co0 O25 1.967 . S
Co0 O32 1.920 . S
Co1 O4 1.966 . S
Co1 N10 2.022 . S
Co1 N18 1.993 . S
Co1 O26 1.941 . S
C2 O3 1.258 . S
C2 O4 1.263 . S
O3 Co0 1.970 . S
O3 C2 1.258 . S
O4 Co1 1.966 . S
O4 C2 1.263 . S
C5 O6 1.235 . S
C5 O32 1.289 . S
O6 C5 1.235 . S
C7 C9 1.400 . S
C7 N10 1.351 . S
C7 C12 1.501 . S
C8 C9 1.387 . S
C8 N11 1.341 . S
C9 C7 1.400 . S
C9 C8 1.387 . S
N10 Co1 2.022 . S
N10 C7 1.351 . S
N10 N11 1.365 . S
N11 C8 1.341 . S
N11 N10 1.365 . S
N11 H31 0.862 . S
C12 C7 1.501 . S
C12 H13 0.961 . S
C12 H14 0.961 . S
C12 H15 0.960 . S
H13 C12 0.961 . S
H14 C12 0.961 . S
H15 C12 0.960 . S
C16 N17 1.342 . S
C16 C20 1.401 . S
C16 C21 1.499 . S
N17 Co0 1.989 . S
N17 C16 1.342 . S
N17 N18 1.388 . S
N18 Co1 1.993 . S
N18 N17 1.388 . S
N18 C19 1.346 . S
C19 N18 1.346 . S
C19 C20 1.396 . S
C19 C29 1.510 . S
C20 C16 1.401 . S
C20 C19 1.396 . S
C21 C16 1.499 . S
C21 H22 0.959 . S
C21 H23 0.960 . S
C21 H24 0.961 . S
H22 C21 0.959 . S
H23 C21 0.960 . S
H24 C21 0.961 . S
O25 Co0 1.967 . S
O25 C33 1.258 . S
O26 Co1 1.941 . S
O26 C33 1.266 . S
H27 C29 0.959 . S
H28 C29 0.961 . S
C29 C19 1.510 . S
C29 H27 0.959 . S
C29 H28 0.961 . S
C29 H30 0.960 . S
H30 C29 0.960 . S
H31 N11 0.862 . S
O32 Co0 1.920 . S
O32 C5 1.289 . S
C33 O25 1.258 . S
C33 O26 1.266 . S
Co34 O37 1.970 . S
Co34 N51 1.989 . S
Co34 O59 1.967 . S
Co34 O66 1.920 . S
Co35 O38 1.966 . S
Co35 N44 2.022 . S
Co35 N52 1.993 . S
Co35 O60 1.941 . S
C36 O37 1.258 . S
C36 O38 1.263 . S
O37 Co34 1.970 . S
O37 C36 1.258 . S
O38 Co35 1.966 . S
O38 C36 1.263 . S
C39 O40 1.235 . S
C39 O66 1.289 . S
O40 C39 1.235 . S
C41 C43 1.400 . S
C41 N44 1.351 . S
C41 C46 1.501 . S
C42 C43 1.387 . S
C42 N45 1.341 . S
C43 C41 1.400 . S
C43 C42 1.387 . S
N44 Co35 2.022 . S
N44 C41 1.351 . S
N44 N45 1.365 . S
N45 C42 1.341 . S
N45 N44 1.365 . S
N45 H65 0.862 . S
C46 C41 1.501 . S
C46 H47 0.961 . S
C46 H48 0.961 . S
C46 H49 0.960 . S
H47 C46 0.961 . S
H48 C46 0.961 . S
H49 C46 0.960 . S
C50 N51 1.342 . S
C50 C54 1.401 . S
C50 C55 1.499 . S
N51 Co34 1.989 . S
N51 C50 1.342 . S
N51 N52 1.388 . S
N52 Co35 1.993 . S
N52 N51 1.388 . S
N52 C53 1.346 . S
C53 N52 1.346 . S
C53 C54 1.396 . S
C53 C63 1.510 . S
C54 C50 1.401 . S
C54 C53 1.396 . S
C55 C50 1.499 . S
C55 H56 0.959 . S
C55 H57 0.960 . S
C55 H58 0.961 . S
H56 C55 0.959 . S
H57 C55 0.960 . S
H58 C55 0.961 . S
O59 Co34 1.967 . S
O59 C67 1.258 . S
O60 Co35 1.941 . S
O60 C67 1.266 . S
H61 C63 0.959 . S
H62 C63 0.961 . S
C63 C53 1.510 . S
C63 H61 0.959 . S
C63 H62 0.961 . S
C63 H64 0.960 . S
H64 C63 0.960 . S
H65 N45 0.862 . S
O66 Co34 1.920 . S
O66 C39 1.289 . S
C67 O59 1.258 . S
C67 O60 1.266 . S
Co68 O71 1.970 . S
Co68 N85 1.989 . S
Co68 O93 1.967 . S
Co68 O100 1.920 . S
Co69 O72 1.966 . S
Co69 N78 2.022 . S
Co69 N86 1.993 . S
Co69 O94 1.941 . S
C70 O71 1.258 . S
C70 O72 1.263 . S
O71 Co68 1.970 . S
O71 C70 1.258 . S
O72 Co69 1.966 . S
O72 C70 1.263 . S
C73 O74 1.235 . S
C73 O100 1.289 . S
O74 C73 1.235 . S
C75 C77 1.400 . S
C75 N78 1.351 . S
C75 C80 1.501 . S
C76 C77 1.387 . S
C76 N79 1.341 . S
C77 C75 1.400 . S
C77 C76 1.387 . S
N78 Co69 2.022 . S
N78 C75 1.351 . S
N78 N79 1.365 . S
N79 C76 1.341 . S
N79 N78 1.365 . S
N79 H99 0.862 . S
C80 C75 1.501 . S
C80 H81 0.961 . S
C80 H82 0.961 . S
C80 H83 0.960 . S
H81 C80 0.961 . S
H82 C80 0.961 . S
H83 C80 0.960 . S
C84 N85 1.342 . S
C84 C88 1.401 . S
C84 C89 1.499 . S
N85 Co68 1.989 . S
N85 C84 1.342 . S
N85 N86 1.388 . S
N86 Co69 1.993 . S
N86 N85 1.388 . S
N86 C87 1.346 . S
C87 N86 1.346 . S
C87 C88 1.396 . S
C87 C97 1.510 . S
C88 C84 1.401 . S
C88 C87 1.396 . S
C89 C84 1.499 . S
C89 H90 0.959 . S
C89 H91 0.960 . S
C89 H92 0.961 . S
H90 C89 0.959 . S
H91 C89 0.960 . S
H92 C89 0.961 . S
O93 Co68 1.967 . S
O93 C101 1.258 . S
O94 Co69 1.941 . S
O94 C101 1.266 . S
H95 C97 0.959 . S
H96 C97 0.961 . S
C97 C87 1.510 . S
C97 H95 0.959 . S
C97 H96 0.961 . S
C97 H98 0.960 . S
H98 C97 0.960 . S
H99 N79 0.862 . S
O100 Co68 1.920 . S
O100 C73 1.289 . S
C101 O93 1.258 . S
C101 O94 1.266 . S
Co102 O105 1.970 . S
Co102 N119 1.989 . S
Co102 O127 1.967 . S
Co102 O134 1.920 . S
Co103 O106 1.966 . S
Co103 N112 2.022 . S
Co103 N120 1.993 . S
Co103 O128 1.941 . S
C104 O105 1.258 . S
C104 O106 1.263 . S
O105 Co102 1.970 . S
O105 C104 1.258 . S
O106 Co103 1.966 . S
O106 C104 1.263 . S
C107 O108 1.235 . S
C107 O134 1.289 . S
O108 C107 1.235 . S
C109 C111 1.400 . S
C109 N112 1.351 . S
C109 C114 1.501 . S
C110 C111 1.387 . S
C110 N113 1.341 . S
C111 C109 1.400 . S
C111 C110 1.387 . S
N112 Co103 2.022 . S
N112 C109 1.351 . S
N112 N113 1.365 . S
N113 C110 1.341 . S
N113 N112 1.365 . S
N113 H133 0.862 . S
C114 C109 1.501 . S
C114 H115 0.961 . S
C114 H116 0.961 . S
C114 H117 0.960 . S
H115 C114 0.961 . S
H116 C114 0.961 . S
H117 C114 0.960 . S
C118 N119 1.342 . S
C118 C122 1.401 . S
C118 C123 1.499 . S
N119 Co102 1.989 . S
N119 C118 1.342 . S
N119 N120 1.388 . S
N120 Co103 1.993 . S
N120 N119 1.388 . S
N120 C121 1.346 . S
C121 N120 1.346 . S
C121 C122 1.396 . S
C121 C131 1.510 . S
C122 C118 1.401 . S
C122 C121 1.396 . S
C123 C118 1.499 . S
C123 H124 0.959 . S
C123 H125 0.960 . S
C123 H126 0.961 . S
H124 C123 0.959 . S
H125 C123 0.960 . S
H126 C123 0.961 . S
O127 Co102 1.967 . S
O127 C135 1.258 . S
O128 Co103 1.941 . S
O128 C135 1.266 . S
H129 C131 0.959 . S
H130 C131 0.961 . S
C131 C121 1.510 . S
C131 H129 0.959 . S
C131 H130 0.961 . S
C131 H132 0.960 . S
H132 C131 0.960 . S
H133 N113 0.862 . S
O134 Co102 1.920 . S
O134 C107 1.289 . S
C135 O127 1.258 . S
C135 O128 1.266 . S
Co136 O139 1.970 . S
Co136 N153 1.989 . S
Co136 O161 1.967 . S
Co136 O168 1.920 . S
Co137 O140 1.966 . S
Co137 N146 2.022 . S
Co137 N154 1.993 . S
Co137 O162 1.941 . S
C138 O139 1.258 . S
C138 O140 1.263 . S
O139 Co136 1.970 . S
O139 C138 1.258 . S
O140 Co137 1.966 . S
O140 C138 1.263 . S
C141 O142 1.235 . S
C141 O168 1.289 . S
O142 C141 1.235 . S
C143 C145 1.400 . S
C143 N146 1.351 . S
C143 C148 1.501 . S
C144 C145 1.387 . S
C144 N147 1.341 . S
C145 C143 1.400 . S
C145 C144 1.387 . S
N146 Co137 2.022 . S
N146 C143 1.351 . S
N146 N147 1.365 . S
N147 C144 1.341 . S
N147 N146 1.365 . S
N147 H167 0.862 . S
C148 C143 1.501 . S
C148 H149 0.961 . S
C148 H150 0.961 . S
C148 H151 0.960 . S
H149 C148 0.961 . S
H150 C148 0.961 . S
H151 C148 0.960 . S
C152 N153 1.342 . S
C152 C156 1.401 . S
C152 C157 1.499 . S
N153 Co136 1.989 . S
N153 C152 1.342 . S
N153 N154 1.388 . S
N154 Co137 1.993 . S
N154 N153 1.388 . S
N154 C155 1.346 . S
C155 N154 1.346 . S
C155 C156 1.396 . S
C155 C165 1.510 . S
C156 C152 1.401 . S
C156 C155 1.396 . S
C157 C152 1.499 . S
C157 H158 0.959 . S
C157 H159 0.960 . S
C157 H160 0.961 . S
H158 C157 0.959 . S
H159 C157 0.960 . S
H160 C157 0.961 . S
O161 Co136 1.967 . S
O161 C169 1.258 . S
O162 Co137 1.941 . S
O162 C169 1.266 . S
H163 C165 0.959 . S
H164 C165 0.961 . S
C165 C155 1.510 . S
C165 H163 0.959 . S
C165 H164 0.961 . S
C165 H166 0.960 . S
H166 C165 0.960 . S
H167 N147 0.862 . S
O168 Co136 1.920 . S
O168 C141 1.289 . S
C169 O161 1.258 . S
C169 O162 1.266 . S
Co170 O173 1.970 . S
Co170 N187 1.989 . S
Co170 O195 1.967 . S
Co170 O202 1.920 . S
Co171 O174 1.966 . S
Co171 N180 2.022 . S
Co171 N188 1.993 . S
Co171 O196 1.941 . S
C172 O173 1.258 . S
C172 O174 1.263 . S
O173 Co170 1.970 . S
O173 C172 1.258 . S
O174 Co171 1.966 . S
O174 C172 1.263 . S
C175 O176 1.235 . S
C175 O202 1.289 . S
O176 C175 1.235 . S
C177 C179 1.400 . S
C177 N180 1.351 . S
C177 C182 1.501 . S
C178 C179 1.387 . S
C178 N181 1.341 . S
C179 C177 1.400 . S
C179 C178 1.387 . S
N180 Co171 2.022 . S
N180 C177 1.351 . S
N180 N181 1.365 . S
N181 C178 1.341 . S
N181 N180 1.365 . S
N181 H201 0.862 . S
C182 C177 1.501 . S
C182 H183 0.961 . S
C182 H184 0.961 . S
C182 H185 0.960 . S
H183 C182 0.961 . S
H184 C182 0.961 . S
H185 C182 0.960 . S
C186 N187 1.342 . S
C186 C190 1.401 . S
C186 C191 1.499 . S
N187 Co170 1.989 . S
N187 C186 1.342 . S
N187 N188 1.388 . S
N188 Co171 1.993 . S
N188 N187 1.388 . S
N188 C189 1.346 . S
C189 N188 1.346 . S
C189 C190 1.396 . S
C189 C199 1.510 . S
C190 C186 1.401 . S
C190 C189 1.396 . S
C191 C186 1.499 . S
C191 H192 0.959 . S
C191 H193 0.960 . S
C191 H194 0.961 . S
H192 C191 0.959 . S
H193 C191 0.960 . S
H194 C191 0.961 . S
O195 Co170 1.967 . S
O195 C203 1.258 . S
O196 Co171 1.941 . S
O196 C203 1.266 . S
H197 C199 0.959 . S
H198 C199 0.961 . S
C199 C189 1.510 . S
C199 H197 0.959 . S
C199 H198 0.961 . S
C199 H200 0.960 . S
H200 C199 0.960 . S
H201 N181 0.862 . S
O202 Co170 1.920 . S
O202 C175 1.289 . S
C203 O195 1.258 . S
C203 O196 1.266 . S
Co204 O207 1.970 . S
Co204 N221 1.989 . S
Co204 O229 1.967 . S
Co204 O236 1.920 . S
Co205 O208 1.966 . S
Co205 N214 2.022 . S
Co205 N222 1.993 . S
Co205 O230 1.941 . S
C206 O207 1.258 . S
C206 O208 1.263 . S
O207 Co204 1.970 . S
O207 C206 1.258 . S
O208 Co205 1.966 . S
O208 C206 1.263 . S
C209 O210 1.235 . S
C209 O236 1.289 . S
O210 C209 1.235 . S
C211 C213 1.400 . S
C211 N214 1.351 . S
C211 C216 1.501 . S
C212 C213 1.387 . S
C212 N215 1.341 . S
C213 C211 1.400 . S
C213 C212 1.387 . S
N214 Co205 2.022 . S
N214 C211 1.351 . S
N214 N215 1.365 . S
N215 C212 1.341 . S
N215 N214 1.365 . S
N215 H235 0.862 . S
C216 C211 1.501 . S
C216 H217 0.961 . S
C216 H218 0.961 . S
C216 H219 0.960 . S
H217 C216 0.961 . S
H218 C216 0.961 . S
H219 C216 0.960 . S
C220 N221 1.342 . S
C220 C224 1.401 . S
C220 C225 1.499 . S
N221 Co204 1.989 . S
N221 C220 1.342 . S
N221 N222 1.388 . S
N222 Co205 1.993 . S
N222 N221 1.388 . S
N222 C223 1.346 . S
C223 N222 1.346 . S
C223 C224 1.396 . S
C223 C233 1.510 . S
C224 C220 1.401 . S
C224 C223 1.396 . S
C225 C220 1.499 . S
C225 H226 0.959 . S
C225 H227 0.960 . S
C225 H228 0.961 . S
H226 C225 0.959 . S
H227 C225 0.960 . S
H228 C225 0.961 . S
O229 Co204 1.967 . S
O229 C237 1.258 . S
O230 Co205 1.941 . S
O230 C237 1.266 . S
H231 C233 0.959 . S
H232 C233 0.961 . S
C233 C223 1.510 . S
C233 H231 0.959 . S
C233 H232 0.961 . S
C233 H234 0.960 . S
H234 C233 0.960 . S
H235 N215 0.862 . S
O236 Co204 1.920 . S
O236 C209 1.289 . S
C237 O229 1.258 . S
C237 O230 1.266 . S
Co238 O241 1.970 . S
Co238 N255 1.989 . S
Co238 O263 1.967 . S
Co238 O270 1.920 . S
Co239 O242 1.966 . S
Co239 N248 2.022 . S
Co239 N256 1.993 . S
Co239 O264 1.941 . S
C240 O241 1.258 . S
C240 O242 1.263 . S
O241 Co238 1.970 . S
O241 C240 1.258 . S
O242 Co239 1.966 . S
O242 C240 1.263 . S
C243 O244 1.235 . S
C243 O270 1.289 . S
O244 C243 1.235 . S
C245 C247 1.400 . S
C245 N248 1.351 . S
C245 C250 1.501 . S
C246 C247 1.387 . S
C246 N249 1.341 . S
C247 C245 1.400 . S
C247 C246 1.387 . S
N248 Co239 2.022 . S
N248 C245 1.351 . S
N248 N249 1.365 . S
N249 C246 1.341 . S
N249 N248 1.365 . S
N249 H269 0.862 . S
C250 C245 1.501 . S
C250 H251 0.961 . S
C250 H252 0.961 . S
C250 H253 0.960 . S
H251 C250 0.961 . S
H252 C250 0.961 . S
H253 C250 0.960 . S
C254 N255 1.342 . S
C254 C258 1.401 . S
C254 C259 1.499 . S
N255 Co238 1.989 . S
N255 C254 1.342 . S
N255 N256 1.388 . S
N256 Co239 1.993 . S
N256 N255 1.388 . S
N256 C257 1.346 . S
C257 N256 1.346 . S
C257 C258 1.396 . S
C257 C267 1.510 . S
C258 C254 1.401 . S
C258 C257 1.396 . S
C259 C254 1.499 . S
C259 H260 0.959 . S
C259 H261 0.960 . S
C259 H262 0.961 . S
H260 C259 0.959 . S
H261 C259 0.960 . S
H262 C259 0.961 . S
O263 Co238 1.967 . S
O263 C271 1.258 . S
O264 Co239 1.941 . S
O264 C271 1.266 . S
H265 C267 0.959 . S
H266 C267 0.961 . S
C267 C257 1.510 . S
C267 H265 0.959 . S
C267 H266 0.961 . S
C267 H268 0.960 . S
H268 C267 0.960 . S
H269 N249 0.862 . S
O270 Co238 1.920 . S
O270 C243 1.289 . S
C271 O263 1.258 . S
C271 O264 1.266 . S
Co272 O275 1.970 . S
Co272 N289 1.989 . S
Co272 O297 1.967 1_565 S
Co272 O304 1.920 1_565 S
Co273 O276 1.966 . S
Co273 N282 2.022 . S
Co273 N290 1.993 . S
Co273 O298 1.946 . S
C274 O275 1.258 . S
C274 O276 1.263 . S
O275 Co272 1.970 . S
O275 C274 1.258 . S
O276 Co273 1.966 . S
O276 C274 1.263 . S
C277 O278 1.235 . S
C277 O304 1.289 1_565 S
O278 C277 1.235 . S
C279 C281 1.400 . S
C279 N282 1.351 . S
C279 C284 1.501 . S
C280 C281 1.387 . S
C280 N283 1.341 . S
C281 C279 1.400 . S
C281 C280 1.387 . S
N282 Co273 2.022 . S
N282 C279 1.351 . S
N282 N283 1.365 . S
N283 C280 1.341 . S
N283 N282 1.365 . S
N283 H303 0.862 . S
C284 C279 1.501 . S
C284 H285 0.961 . S
C284 H286 0.961 . S
C284 H287 0.960 . S
H285 C284 0.961 . S
H286 C284 0.961 . S
H287 C284 0.960 . S
C288 N289 1.342 . S
C288 C292 1.401 . S
C288 C293 1.499 1_565 S
N289 Co272 1.989 . S
N289 C288 1.342 . S
N289 N290 1.388 . S
N290 Co273 1.993 . S
N290 N289 1.388 . S
N290 C291 1.346 . S
C291 N290 1.346 . S
C291 C292 1.396 . S
C291 C301 1.510 . S
C292 C288 1.401 . S
C292 C291 1.396 . S
C293 C288 1.499 1_545 S
C293 H294 0.959 . S
C293 H295 0.960 1_545 S
C293 H296 0.961 . S
H294 C293 0.959 . S
H295 C293 0.960 1_565 S
H296 C293 0.961 . S
O297 Co272 1.967 1_545 S
O297 C305 1.258 . S
O298 Co273 1.946 . S
O298 C305 1.263 1_565 S
H299 C301 0.959 . S
H300 C301 0.961 . S
C301 C291 1.510 . S
C301 H299 0.959 . S
C301 H300 0.961 . S
C301 H302 0.960 . S
H302 C301 0.960 . S
H303 N283 0.862 . S
O304 Co272 1.920 1_545 S
O304 C277 1.289 1_545 S
C305 O297 1.258 . S
C305 O298 1.263 1_545 S
Co306 O309 1.970 . S
Co306 N323 1.989 . S
Co306 O331 1.967 1_655 S
Co306 O338 1.920 1_655 S
Co307 O310 1.966 . S
Co307 N316 2.022 . S
Co307 N324 1.993 . S
Co307 O332 1.946 . S
C308 O309 1.258 . S
C308 O310 1.263 . S
O309 Co306 1.970 . S
O309 C308 1.258 . S
O310 Co307 1.966 . S
O310 C308 1.263 . S
C311 O312 1.235 . S
C311 O338 1.289 1_655 S
O312 C311 1.235 . S
C313 C315 1.400 . S
C313 N316 1.351 . S
C313 C318 1.501 . S
C314 C315 1.387 . S
C314 N317 1.341 . S
C315 C313 1.400 . S
C315 C314 1.387 . S
N316 Co307 2.022 . S
N316 C313 1.351 . S
N316 N317 1.365 . S
N317 C314 1.341 . S
N317 N316 1.365 . S
N317 H337 0.862 . S
C318 C313 1.501 . S
C318 H319 0.961 . S
C318 H320 0.961 . S
C318 H321 0.960 . S
H319 C318 0.961 . S
H320 C318 0.961 . S
H321 C318 0.960 . S
C322 N323 1.342 . S
C322 C326 1.401 . S
C322 C327 1.499 1_655 S
N323 Co306 1.989 . S
N323 C322 1.342 . S
N323 N324 1.388 . S
N324 Co307 1.993 . S
N324 N323 1.388 . S
N324 C325 1.346 . S
C325 N324 1.346 . S
C325 C326 1.396 . S
C325 C335 1.510 . S
C326 C322 1.401 . S
C326 C325 1.396 . S
C327 C322 1.499 1_455 S
C327 H328 0.959 . S
C327 H329 0.960 1_455 S
C327 H330 0.961 . S
H328 C327 0.959 . S
H329 C327 0.960 1_655 S
H330 C327 0.961 . S
O331 Co306 1.967 1_455 S
O331 C339 1.258 . S
O332 Co307 1.946 . S
O332 C339 1.263 1_655 S
H333 C335 0.959 . S
H334 C335 0.961 . S
C335 C325 1.510 . S
C335 H333 0.959 . S
C335 H334 0.961 . S
C335 H336 0.960 . S
H336 C335 0.960 . S
H337 N317 0.862 . S
O338 Co306 1.920 1_455 S
O338 C311 1.289 1_455 S
C339 O331 1.258 . S
C339 O332 1.263 1_455 S
Co340 O343 1.970 . S
Co340 N357 1.989 . S
Co340 O365 1.967 1_545 S
Co340 O372 1.920 1_545 S
Co341 O344 1.966 . S
Co341 N350 2.022 . S
Co341 N358 1.993 . S
Co341 O366 1.946 . S
C342 O343 1.258 . S
C342 O344 1.263 . S
O343 Co340 1.970 . S
O343 C342 1.258 . S
O344 Co341 1.966 . S
O344 C342 1.263 . S
C345 O346 1.235 . S
C345 O372 1.289 1_545 S
O346 C345 1.235 . S
C347 C349 1.400 . S
C347 N350 1.351 . S
C347 C352 1.501 . S
C348 C349 1.387 . S
C348 N351 1.341 . S
C349 C347 1.400 . S
C349 C348 1.387 . S
N350 Co341 2.022 . S
N350 C347 1.351 . S
N350 N351 1.365 . S
N351 C348 1.341 . S
N351 N350 1.365 . S
N351 H371 0.862 . S
C352 C347 1.501 . S
C352 H353 0.961 . S
C352 H354 0.961 . S
C352 H355 0.960 . S
H353 C352 0.961 . S
H354 C352 0.961 . S
H355 C352 0.960 . S
C356 N357 1.342 . S
C356 C360 1.401 . S
C356 C361 1.499 1_545 S
N357 Co340 1.989 . S
N357 C356 1.342 . S
N357 N358 1.388 . S
N358 Co341 1.993 . S
N358 N357 1.388 . S
N358 C359 1.346 . S
C359 N358 1.346 . S
C359 C360 1.396 . S
C359 C369 1.510 . S
C360 C356 1.401 . S
C360 C359 1.396 . S
C361 C356 1.499 1_565 S
C361 H362 0.959 . S
C361 H363 0.960 1_565 S
C361 H364 0.961 . S
H362 C361 0.959 . S
H363 C361 0.960 1_545 S
H364 C361 0.961 . S
O365 Co340 1.967 1_565 S
O365 C373 1.258 . S
O366 Co341 1.946 . S
O366 C373 1.263 1_545 S
H367 C369 0.959 . S
H368 C369 0.961 . S
C369 C359 1.510 . S
C369 H367 0.959 . S
C369 H368 0.961 . S
C369 H370 0.960 . S
H370 C369 0.960 . S
H371 N351 0.862 . S
O372 Co340 1.920 1_565 S
O372 C345 1.289 1_565 S
C373 O365 1.258 . S
C373 O366 1.263 1_565 S
Co374 O377 1.970 . S
Co374 N391 1.989 . S
Co374 O399 1.967 1_455 S
Co374 O406 1.920 1_455 S
Co375 O378 1.966 . S
Co375 N384 2.022 . S
Co375 N392 1.993 . S
Co375 O400 1.946 . S
C376 O377 1.258 . S
C376 O378 1.263 . S
O377 Co374 1.970 . S
O377 C376 1.258 . S
O378 Co375 1.966 . S
O378 C376 1.263 . S
C379 O380 1.235 . S
C379 O406 1.289 1_455 S
O380 C379 1.235 . S
C381 C383 1.400 . S
C381 N384 1.351 . S
C381 C386 1.501 . S
C382 C383 1.387 . S
C382 N385 1.341 . S
C383 C381 1.400 . S
C383 C382 1.387 . S
N384 Co375 2.022 . S
N384 C381 1.351 . S
N384 N385 1.365 . S
N385 C382 1.341 . S
N385 N384 1.365 . S
N385 H405 0.862 . S
C386 C381 1.501 . S
C386 H387 0.961 . S
C386 H388 0.961 . S
C386 H389 0.960 . S
H387 C386 0.961 . S
H388 C386 0.961 . S
H389 C386 0.960 . S
C390 N391 1.342 . S
C390 C394 1.401 . S
C390 C395 1.499 1_455 S
N391 Co374 1.989 . S
N391 C390 1.342 . S
N391 N392 1.388 . S
N392 Co375 1.993 . S
N392 N391 1.388 . S
N392 C393 1.346 . S
C393 N392 1.346 . S
C393 C394 1.396 . S
C393 C403 1.510 . S
C394 C390 1.401 . S
C394 C393 1.396 . S
C395 C390 1.499 1_655 S
C395 H396 0.959 . S
C395 H397 0.960 1_655 S
C395 H398 0.961 . S
H396 C395 0.959 . S
H397 C395 0.960 1_455 S
H398 C395 0.961 . S
O399 Co374 1.967 1_655 S
O399 C407 1.258 . S
O400 Co375 1.946 . S
O400 C407 1.263 1_455 S
H401 C403 0.959 . S
H402 C403 0.961 . S
C403 C393 1.510 . S
C403 H401 0.959 . S
C403 H402 0.961 . S
C403 H404 0.960 . S
H404 C403 0.960 . S
H405 N385 0.862 . S
O406 Co374 1.920 1_655 S
O406 C379 1.289 1_655 S
C407 O399 1.258 . S
C407 O400 1.263 1_655 S
Co408 O411 1.970 . S
Co408 N425 1.989 . S
Co408 O433 1.967 1_545 S
Co408 O440 1.920 1_545 S
Co409 O412 1.966 . S
Co409 N418 2.022 . S
Co409 N426 1.993 . S
Co409 O434 1.946 . S
C410 O411 1.258 . S
C410 O412 1.263 . S
O411 Co408 1.970 . S
O411 C410 1.258 . S
O412 Co409 1.966 . S
O412 C410 1.263 . S
C413 O414 1.235 . S
C413 O440 1.289 1_545 S
O414 C413 1.235 . S
C415 C417 1.400 . S
C415 N418 1.351 . S
C415 C420 1.501 . S
C416 C417 1.387 . S
C416 N419 1.341 . S
C417 C415 1.400 . S
C417 C416 1.387 . S
N418 Co409 2.022 . S
N418 C415 1.351 . S
N418 N419 1.365 . S
N419 C416 1.341 . S
N419 N418 1.365 . S
N419 H439 0.862 . S
C420 C415 1.501 . S
C420 H421 0.961 . S
C420 H422 0.961 . S
C420 H423 0.960 . S
H421 C420 0.961 . S
H422 C420 0.961 . S
H423 C420 0.960 . S
C424 N425 1.342 . S
C424 C428 1.401 . S
C424 C429 1.499 1_545 S
N425 Co408 1.989 . S
N425 C424 1.342 . S
N425 N426 1.388 . S
N426 Co409 1.993 . S
N426 N425 1.388 . S
N426 C427 1.346 . S
C427 N426 1.346 . S
C427 C428 1.396 . S
C427 C437 1.510 . S
C428 C424 1.401 . S
C428 C427 1.396 . S
C429 C424 1.499 1_565 S
C429 H430 0.959 . S
C429 H431 0.960 1_565 S
C429 H432 0.961 . S
H430 C429 0.959 . S
H431 C429 0.960 1_545 S
H432 C429 0.961 . S
O433 Co408 1.967 1_565 S
O433 C441 1.258 . S
O434 Co409 1.946 . S
O434 C441 1.263 1_545 S
H435 C437 0.959 . S
H436 C437 0.961 . S
C437 C427 1.510 . S
C437 H435 0.959 . S
C437 H436 0.961 . S
C437 H438 0.960 . S
H438 C437 0.960 . S
H439 N419 0.862 . S
O440 Co408 1.920 1_565 S
O440 C413 1.289 1_565 S
C441 O433 1.258 . S
C441 O434 1.263 1_565 S
Co442 O445 1.970 . S
Co442 N459 1.989 . S
Co442 O467 1.967 1_455 S
Co442 O474 1.920 1_455 S
Co443 O446 1.966 . S
Co443 N452 2.022 . S
Co443 N460 1.993 . S
Co443 O468 1.946 . S
C444 O445 1.258 . S
C444 O446 1.263 . S
O445 Co442 1.970 . S
O445 C444 1.258 . S
O446 Co443 1.966 . S
O446 C444 1.263 . S
C447 O448 1.235 . S
C447 O474 1.289 1_455 S
O448 C447 1.235 . S
C449 C451 1.400 . S
C449 N452 1.351 . S
C449 C454 1.501 . S
C450 C451 1.387 . S
C450 N453 1.341 . S
C451 C449 1.400 . S
C451 C450 1.387 . S
N452 Co443 2.022 . S
N452 C449 1.351 . S
N452 N453 1.365 . S
N453 C450 1.341 . S
N453 N452 1.365 . S
N453 H473 0.862 . S
C454 C449 1.501 . S
C454 H455 0.961 . S
C454 H456 0.961 . S
C454 H457 0.960 . S
H455 C454 0.961 . S
H456 C454 0.961 . S
H457 C454 0.960 . S
C458 N459 1.342 . S
C458 C462 1.401 . S
C458 C463 1.499 1_455 S
N459 Co442 1.989 . S
N459 C458 1.342 . S
N459 N460 1.388 . S
N460 Co443 1.993 . S
N460 N459 1.388 . S
N460 C461 1.346 . S
C461 N460 1.346 . S
C461 C462 1.396 . S
C461 C471 1.510 . S
C462 C458 1.401 . S
C462 C461 1.396 . S
C463 C458 1.499 1_655 S
C463 H464 0.959 . S
C463 H465 0.960 1_655 S
C463 H466 0.961 . S
H464 C463 0.959 . S
H465 C463 0.960 1_455 S
H466 C463 0.961 . S
O467 Co442 1.967 1_655 S
O467 C475 1.258 . S
O468 Co443 1.946 . S
O468 C475 1.263 1_455 S
H469 C471 0.959 . S
H470 C471 0.961 . S
C471 C461 1.510 . S
C471 H469 0.959 . S
C471 H470 0.961 . S
C471 H472 0.960 . S
H472 C471 0.960 . S
H473 N453 0.862 . S
O474 Co442 1.920 1_655 S
O474 C447 1.289 1_655 S
C475 O467 1.258 . S
C475 O468 1.263 1_655 S
Co476 O479 1.970 . S
Co476 N493 1.989 . S
Co476 O501 1.967 1_565 S
Co476 O508 1.920 1_565 S
Co477 O480 1.966 . S
Co477 N486 2.022 . S
Co477 N494 1.993 . S
Co477 O502 1.946 . S
C478 O479 1.258 . S
C478 O480 1.263 . S
O479 Co476 1.970 . S
O479 C478 1.258 . S
O480 Co477 1.966 . S
O480 C478 1.263 . S
C481 O482 1.235 . S
C481 O508 1.289 1_565 S
O482 C481 1.235 . S
C483 C485 1.400 . S
C483 N486 1.351 . S
C483 C488 1.501 . S
C484 C485 1.387 . S
C484 N487 1.341 . S
C485 C483 1.400 . S
C485 C484 1.387 . S
N486 Co477 2.022 . S
N486 C483 1.351 . S
N486 N487 1.365 . S
N487 C484 1.341 . S
N487 N486 1.365 . S
N487 H507 0.862 . S
C488 C483 1.501 . S
C488 H489 0.961 . S
C488 H490 0.961 . S
C488 H491 0.960 . S
H489 C488 0.961 . S
H490 C488 0.961 . S
H491 C488 0.960 . S
C492 N493 1.342 . S
C492 C496 1.401 . S
C492 C497 1.499 1_565 S
N493 Co476 1.989 . S
N493 C492 1.342 . S
N493 N494 1.388 . S
N494 Co477 1.993 . S
N494 N493 1.388 . S
N494 C495 1.346 . S
C495 N494 1.346 . S
C495 C496 1.396 . S
C495 C505 1.510 . S
C496 C492 1.401 . S
C496 C495 1.396 . S
C497 C492 1.499 1_545 S
C497 H498 0.959 . S
C497 H499 0.960 1_545 S
C497 H500 0.961 . S
H498 C497 0.959 . S
H499 C497 0.960 1_565 S
H500 C497 0.961 . S
O501 Co476 1.967 1_545 S
O501 C509 1.258 . S
O502 Co477 1.946 . S
O502 C509 1.263 1_565 S
H503 C505 0.959 . S
H504 C505 0.961 . S
C505 C495 1.510 . S
C505 H503 0.959 . S
C505 H504 0.961 . S
C505 H506 0.960 . S
H506 C505 0.960 . S
H507 N487 0.862 . S
O508 Co476 1.920 1_545 S
O508 C481 1.289 1_545 S
C509 O501 1.258 . S
C509 O502 1.263 1_545 S
Co510 O513 1.970 . S
Co510 N527 1.989 . S
Co510 O535 1.967 1_655 S
Co510 O542 1.920 1_655 S
Co511 O514 1.966 . S
Co511 N520 2.022 . S
Co511 N528 1.993 . S
Co511 O536 1.946 . S
C512 O513 1.258 . S
C512 O514 1.263 . S
O513 Co510 1.970 . S
O513 C512 1.258 . S
O514 Co511 1.966 . S
O514 C512 1.263 . S
C515 O516 1.235 . S
C515 O542 1.289 1_655 S
O516 C515 1.235 . S
C517 C519 1.400 . S
C517 N520 1.351 . S
C517 C522 1.501 . S
C518 C519 1.387 . S
C518 N521 1.341 . S
C519 C517 1.400 . S
C519 C518 1.387 . S
N520 Co511 2.022 . S
N520 C517 1.351 . S
N520 N521 1.365 . S
N521 C518 1.341 . S
N521 N520 1.365 . S
N521 H541 0.862 . S
C522 C517 1.501 . S
C522 H523 0.961 . S
C522 H524 0.961 . S
C522 H525 0.960 . S
H523 C522 0.961 . S
H524 C522 0.961 . S
H525 C522 0.960 . S
C526 N527 1.342 . S
C526 C530 1.401 . S
C526 C531 1.499 1_655 S
N527 Co510 1.989 . S
N527 C526 1.342 . S
N527 N528 1.388 . S
N528 Co511 1.993 . S
N528 N527 1.388 . S
N528 C529 1.346 . S
C529 N528 1.346 . S
C529 C530 1.396 . S
C529 C539 1.510 . S
C530 C526 1.401 . S
C530 C529 1.396 . S
C531 C526 1.499 1_455 S
C531 H532 0.959 . S
C531 H533 0.960 1_455 S
C531 H534 0.961 . S
H532 C531 0.959 . S
H533 C531 0.960 1_655 S
H534 C531 0.961 . S
O535 Co510 1.967 1_455 S
O535 C543 1.258 . S
O536 Co511 1.946 . S
O536 C543 1.263 1_655 S
H537 C539 0.959 . S
H538 C539 0.961 . S
C539 C529 1.510 . S
C539 H537 0.959 . S
C539 H538 0.961 . S
C539 H540 0.960 . S
H540 C539 0.960 . S
H541 N521 0.862 . S
O542 Co510 1.920 1_455 S
O542 C515 1.289 1_455 S
C543 O535 1.258 . S
C543 O536 1.263 1_455 S
C544 C545 1.387 . S
C544 H548 0.950 . S
C544 C553 1.390 1_655 S
C545 C544 1.387 . S
C545 C547 1.387 . S
H546 C553 0.950 . S
C547 C545 1.387 . S
C547 C549 1.390 1_655 S
C547 H551 0.950 . S
H548 C544 0.950 . S
C549 C547 1.390 1_455 S
C549 C550 1.387 . S
C549 H552 0.950 . S
C550 C549 1.387 . S
C550 C553 1.387 . S
H551 C547 0.950 . S
H552 C549 0.950 . S
C553 C544 1.390 1_455 S
C553 H546 0.950 . S
C553 C550 1.387 . S
C554 C555 1.387 . S
C554 H558 0.950 . S
C554 C563 1.390 1_545 S
C555 C554 1.387 . S
C555 C557 1.387 . S
H556 C563 0.950 . S
C557 C555 1.387 . S
C557 C559 1.390 1_545 S
C557 H561 0.950 . S
H558 C554 0.950 . S
C559 C557 1.390 1_565 S
C559 C560 1.387 . S
C559 H562 0.950 . S
C560 C559 1.387 . S
C560 C563 1.387 . S
H561 C557 0.950 . S
H562 C559 0.950 . S
C563 C554 1.390 1_565 S
C563 H556 0.950 . S
C563 C560 1.387 . S
C564 C565 1.387 . S
C564 H568 0.950 . S
C564 C573 1.390 1_655 S
C565 C564 1.387 . S
C565 C567 1.387 . S
H566 C573 0.950 . S
C567 C565 1.387 . S
C567 C569 1.390 1_655 S
C567 H571 0.950 . S
H568 C564 0.950 . S
C569 C567 1.390 1_455 S
C569 C570 1.387 . S
C569 H572 0.950 . S
C570 C569 1.387 . S
C570 C573 1.387 . S
H571 C567 0.950 . S
H572 C569 0.950 . S
C573 C564 1.390 1_455 S
C573 H566 0.950 . S
C573 C570 1.387 . S
C574 C575 1.387 . S
C574 H578 0.950 . S
C574 C583 1.390 1_565 S
C575 C574 1.387 . S
C575 C577 1.387 . S
H576 C583 0.950 . S
C577 C575 1.387 . S
C577 C579 1.390 1_565 S
C577 H581 0.950 . S
H578 C574 0.950 . S
C579 C577 1.390 1_545 S
C579 C580 1.387 . S
C579 H582 0.950 . S
C580 C579 1.387 . S
C580 C583 1.387 . S
H581 C577 0.950 . S
H582 C579 0.950 . S
C583 C574 1.390 1_545 S
C583 H576 0.950 . S
C583 C580 1.387 . S
C584 C585 1.387 . S
C584 H588 0.950 . S
C584 C593 1.390 1_545 S
C585 C584 1.387 . S
C585 C587 1.387 . S
H586 C593 0.950 . S
C587 C585 1.387 . S
C587 C589 1.390 1_545 S
C587 H591 0.950 . S
H588 C584 0.950 . S
C589 C587 1.390 1_565 S
C589 C590 1.387 . S
C589 H592 0.950 . S
C590 C589 1.387 . S
C590 C593 1.387 . S
H591 C587 0.950 . S
H592 C589 0.950 . S
C593 C584 1.390 1_565 S
C593 H586 0.950 . S
C593 C590 1.387 . S
C594 C595 1.387 . S
C594 H598 0.950 . S
C594 C603 1.390 1_455 S
C595 C594 1.387 . S
C595 C597 1.387 . S
H596 C603 0.950 . S
C597 C595 1.387 . S
C597 C599 1.390 1_455 S
C597 H601 0.950 . S
H598 C594 0.950 . S
C599 C597 1.390 1_655 S
C599 C600 1.387 . S
C599 H602 0.950 . S
C600 C599 1.387 . S
C600 C603 1.387 . S
H601 C597 0.950 . S
H602 C599 0.950 . S
C603 C594 1.390 1_655 S
C603 H596 0.950 . S
C603 C600 1.387 . S
C604 C605 1.387 . S
C604 H608 0.950 . S
C604 C613 1.390 1_545 S
C605 C604 1.387 . S
C605 C607 1.387 . S
H606 C613 0.950 . S
C607 C605 1.387 . S
C607 C609 1.390 1_545 S
C607 H611 0.950 . S
H608 C604 0.950 . S
C609 C607 1.390 1_565 S
C609 C610 1.387 . S
C609 H612 0.950 . S
C610 C609 1.387 . S
C610 C613 1.387 . S
H611 C607 0.950 . S
H612 C609 0.950 . S
C613 C604 1.390 1_565 S
C613 H606 0.950 . S
C613 C610 1.387 . S
C614 C615 1.387 . S
C614 H618 0.950 . S
C614 C623 1.390 1_455 S
C615 C614 1.387 . S
C615 C617 1.387 . S
H616 C623 0.950 . S
C617 C615 1.387 . S
C617 C619 1.390 1_455 S
C617 H621 0.950 . S
H618 C614 0.950 . S
C619 C617 1.390 1_655 S
C619 C620 1.387 . S
C619 H622 0.950 . S
C620 C619 1.387 . S
C620 C623 1.387 . S
H621 C617 0.950 . S
H622 C619 0.950 . S
C623 C614 1.390 1_655 S
C623 H616 0.950 . S
C623 C620 1.387 . S
C624 C625 1.387 . S
C624 H628 0.950 . S
C624 C633 1.390 . S
C625 C624 1.387 . S
C625 C627 1.387 . S
H626 C633 0.950 . S
C627 C625 1.387 . S
C627 C629 1.390 . S
C627 H631 0.950 . S
H628 C624 0.950 . S
C629 C627 1.390 . S
C629 C630 1.387 . S
C629 H632 0.950 . S
C630 C629 1.387 . S
C630 C633 1.387 . S
H631 C627 0.950 . S
H632 C629 0.950 . S
C633 C624 1.390 . S
C633 H626 0.950 . S
C633 C630 1.387 . S
C634 C635 1.387 . S
C634 H638 0.950 . S
C634 C643 1.390 . S
C635 C634 1.387 . S
C635 C637 1.387 . S
H636 C643 0.950 . S
C637 C635 1.387 . S
C637 C639 1.390 . S
C637 H641 0.950 . S
H638 C634 0.950 . S
C639 C637 1.390 . S
C639 C640 1.387 . S
C639 H642 0.950 . S
C640 C639 1.387 . S
C640 C643 1.387 . S
H641 C637 0.950 . S
H642 C639 0.950 . S
C643 C634 1.390 . S
C643 H636 0.950 . S
C643 C640 1.387 . S
C644 C645 1.387 . S
C644 H648 0.950 . S
C644 C653 1.390 . S
C645 C644 1.387 . S
C645 C647 1.387 . S
H646 C653 0.950 . S
C647 C645 1.387 . S
C647 C649 1.390 . S
C647 H651 0.950 . S
H648 C644 0.950 . S
C649 C647 1.390 . S
C649 C650 1.387 . S
C649 H652 0.950 . S
C650 C649 1.387 . S
C650 C653 1.387 . S
H651 C647 0.950 . S
H652 C649 0.950 . S
C653 C644 1.390 . S
C653 H646 0.950 . S
C653 C650 1.387 . S
C654 C655 1.387 . S
C654 H658 0.950 . S
C654 C663 1.390 . S
C655 C654 1.387 . S
C655 C657 1.387 . S
H656 C663 0.950 . S
C657 C655 1.387 . S
C657 C659 1.390 . S
C657 H661 0.950 . S
H658 C654 0.950 . S
C659 C657 1.390 . S
C659 C660 1.387 . S
C659 H662 0.950 . S
C660 C659 1.387 . S
C660 C663 1.387 . S
H661 C657 0.950 . S
H662 C659 0.950 . S
C663 C654 1.390 . S
C663 H656 0.950 . S
C663 C660 1.387 . S
C664 C665 1.387 . S
C664 H668 0.950 . S
C664 C673 1.390 . S
C665 C664 1.387 . S
C665 C667 1.387 . S
H666 C673 0.950 . S
C667 C665 1.387 . S
C667 C669 1.390 . S
C667 H671 0.950 . S
H668 C664 0.950 . S
C669 C667 1.390 . S
C669 C670 1.387 . S
C669 H672 0.950 . S
C670 C669 1.387 . S
C670 C673 1.387 . S
H671 C667 0.950 . S
H672 C669 0.950 . S
C673 C664 1.390 . S
C673 H666 0.950 . S
C673 C670 1.387 . S
C674 C675 1.387 . S
C674 H678 0.950 . S
C674 C683 1.390 . S
C675 C674 1.387 . S
C675 C677 1.387 . S
H676 C683 0.950 . S
C677 C675 1.387 . S
C677 C679 1.390 . S
C677 H681 0.950 . S
H678 C674 0.950 . S
C679 C677 1.390 . S
C679 C680 1.387 . S
C679 H682 0.950 . S
C680 C679 1.387 . S
C680 C683 1.387 . S
H681 C677 0.950 . S
H682 C679 0.950 . S
C683 C674 1.390 . S
C683 H676 0.950 . S
C683 C680 1.387 . S
C684 C685 1.387 . S
C684 H688 0.950 . S
C684 C693 1.390 . S
C685 C684 1.387 . S
C685 C687 1.387 . S
H686 C693 0.950 . S
C687 C685 1.387 . S
C687 C689 1.390 . S
C687 H691 0.950 . S
H688 C684 0.950 . S
C689 C687 1.390 . S
C689 C690 1.387 . S
C689 H692 0.950 . S
C690 C689 1.387 . S
C690 C693 1.387 . S
H691 C687 0.950 . S
H692 C689 0.950 . S
C693 C684 1.390 . S
C693 H686 0.950 . S
C693 C690 1.387 . S
C694 C695 1.387 . S
C694 H698 0.950 . S
C694 C703 1.390 . S
C695 C694 1.387 . S
C695 C697 1.387 . S
H696 C703 0.950 . S
C697 C695 1.387 . S
C697 C699 1.390 . S
C697 H701 0.950 . S
H698 C694 0.950 . S
C699 C697 1.390 . S
C699 C700 1.387 . S
C699 H702 0.950 . S
C700 C699 1.387 . S
C700 C703 1.387 . S
H701 C697 0.950 . S
H702 C699 0.950 . S
C703 C694 1.390 . S
C703 H696 0.950 . S
C703 C700 1.387 . S
C704 C705 1.387 . S
C704 H708 0.950 . S
C704 C713 1.390 . S
C705 C704 1.387 . S
C705 C707 1.387 . S
H706 C713 0.950 . S
C707 C705 1.387 . S
C707 C709 1.390 . S
C707 H711 0.950 . S
H708 C704 0.950 . S
C709 C707 1.390 . S
C709 C710 1.387 . S
C709 H712 0.950 . S
C710 C709 1.387 . S
C710 C713 1.387 . S
H711 C707 0.950 . S
H712 C709 0.950 . S
C713 C704 1.390 . S
C713 H706 0.950 . S
C713 C710 1.387 . S
C714 C715 1.387 . S
C714 H718 0.950 . S
C714 C723 1.390 . S
C715 C714 1.387 . S
C715 C717 1.387 . S
H716 C723 0.950 . S
C717 C715 1.387 . S
C717 C719 1.390 . S
C717 H721 0.950 . S
H718 C714 0.950 . S
C719 C717 1.390 . S
C719 C720 1.387 . S
C719 H722 0.950 . S
C720 C719 1.387 . S
C720 C723 1.387 . S
H721 C717 0.950 . S
H722 C719 0.950 . S
C723 C714 1.390 . S
C723 H716 0.950 . S
C723 C720 1.387 . S
C724 C725 1.387 . S
C724 H728 0.950 . S
C724 C733 1.390 . S
C725 C724 1.387 . S
C725 C727 1.387 . S
H726 C733 0.950 . S
C727 C725 1.387 . S
C727 C729 1.390 . S
C727 H731 0.950 . S
H728 C724 0.950 . S
C729 C727 1.390 . S
C729 C730 1.387 . S
C729 H732 0.950 . S
C730 C729 1.387 . S
C730 C733 1.387 . S
H731 C727 0.950 . S
H732 C729 0.950 . S
C733 C724 1.390 . S
C733 H726 0.950 . S
C733 C730 1.387 . S
C734 C735 1.387 . S
C734 H738 0.950 . S
C734 C743 1.390 . S
C735 C734 1.387 . S
C735 C737 1.387 . S
H736 C743 0.950 . S
C737 C735 1.387 . S
C737 C739 1.390 . S
C737 H741 0.950 . S
H738 C734 0.950 . S
C739 C737 1.390 . S
C739 C740 1.387 . S
C739 H742 0.950 . S
C740 C739 1.387 . S
C740 C743 1.387 . S
H741 C737 0.950 . S
H742 C739 0.950 . S
C743 C734 1.390 . S
C743 H736 0.950 . S
C743 C740 1.387 . S
C744 C745 1.387 . S
C744 H748 0.950 . S
C744 C753 1.390 . S
C745 C744 1.387 . S
C745 C747 1.387 . S
H746 C753 0.950 . S
C747 C745 1.387 . S
C747 C749 1.390 . S
C747 H751 0.950 . S
H748 C744 0.950 . S
C749 C747 1.390 . S
C749 C750 1.387 . S
C749 H752 0.950 . S
C750 C749 1.387 . S
C750 C753 1.387 . S
H751 C747 0.950 . S
H752 C749 0.950 . S
C753 C744 1.390 . S
C753 H746 0.950 . S
C753 C750 1.387 . S
C754 C755 1.387 . S
C754 H758 0.950 . S
C754 C763 1.390 . S
C755 C754 1.387 . S
C755 C757 1.387 . S
H756 C763 0.950 . S
C757 C755 1.387 . S
C757 C759 1.390 . S
C757 H761 0.950 . S
H758 C754 0.950 . S
C759 C757 1.390 . S
C759 C760 1.387 . S
C759 H762 0.950 . S
C760 C759 1.387 . S
C760 C763 1.387 . S
H761 C757 0.950 . S
H762 C759 0.950 . S
C763 C754 1.390 . S
C763 H756 0.950 . S
C763 C760 1.387 . S
C764 C765 1.387 . S
C764 H768 0.950 . S
C764 C773 1.390 . S
C765 C764 1.387 . S
C765 C767 1.387 . S
H766 C773 0.950 . S
C767 C765 1.387 . S
C767 C769 1.390 . S
C767 H771 0.950 . S
H768 C764 0.950 . S
C769 C767 1.390 . S
C769 C770 1.387 . S
C769 H772 0.950 . S
C770 C769 1.387 . S
C770 C773 1.387 . S
H771 C767 0.950 . S
H772 C769 0.950 . S
C773 C764 1.390 . S
C773 H766 0.950 . S
C773 C770 1.387 . S
C774 C775 1.387 . S
C774 H778 0.950 . S
C774 C783 1.390 . S
C775 C774 1.387 . S
C775 C777 1.387 . S
H776 C783 0.950 . S
C777 C775 1.387 . S
C777 C779 1.390 . S
C777 H781 0.950 . S
H778 C774 0.950 . S
C779 C777 1.390 . S
C779 C780 1.387 . S
C779 H782 0.950 . S
C780 C779 1.387 . S
C780 C783 1.387 . S
H781 C777 0.950 . S
H782 C779 0.950 . S
C783 C774 1.390 . S
C783 H776 0.950 . S
C783 C780 1.387 . S
C784 C785 1.387 . S
C784 H788 0.950 . S
C784 C793 1.390 . S
C785 C784 1.387 . S
C785 C787 1.387 . S
H786 C793 0.950 . S
C787 C785 1.387 . S
C787 C789 1.390 . S
C787 H791 0.950 . S
H788 C784 0.950 . S
C789 C787 1.390 . S
C789 C790 1.387 . S
C789 H792 0.950 . S
C790 C789 1.387 . S
C790 C793 1.387 . S
H791 C787 0.950 . S
H792 C789 0.950 . S
C793 C784 1.390 . S
C793 H786 0.950 . S
C793 C790 1.387 . S
C794 C795 1.387 . S
C794 H798 0.950 . S
C794 C803 1.390 . S
C795 C794 1.387 . S
C795 C797 1.387 . S
H796 C803 0.950 . S
C797 C795 1.387 . S
C797 C799 1.390 . S
C797 H801 0.950 . S
H798 C794 0.950 . S
C799 C797 1.390 . S
C799 C800 1.387 . S
C799 H802 0.950 . S
C800 C799 1.387 . S
C800 C803 1.387 . S
H801 C797 0.950 . S
H802 C799 0.950 . S
C803 C794 1.390 . S
C803 H796 0.950 . S
C803 C800 1.387 . S
C804 C805 1.387 . S
C804 H808 0.950 . S
C804 C813 1.390 . S
C805 C804 1.387 . S
C805 C807 1.387 . S
H806 C813 0.950 . S
C807 C805 1.387 . S
C807 C809 1.390 . S
C807 H811 0.950 . S
H808 C804 0.950 . S
C809 C807 1.390 . S
C809 C810 1.387 . S
C809 H812 0.950 . S
C810 C809 1.387 . S
C810 C813 1.387 . S
H811 C807 0.950 . S
H812 C809 0.950 . S
C813 C804 1.390 . S
C813 H806 0.950 . S
C813 C810 1.387 . S
C814 C815 1.387 . S
C814 H818 0.950 . S
C814 C823 1.390 . S
C815 C814 1.387 . S
C815 C817 1.387 . S
H816 C823 0.950 . S
C817 C815 1.387 . S
C817 C819 1.390 . S
C817 H821 0.950 . S
H818 C814 0.950 . S
C819 C817 1.390 . S
C819 C820 1.387 . S
C819 H822 0.950 . S
C820 C819 1.387 . S
C820 C823 1.387 . S
H821 C817 0.950 . S
H822 C819 0.950 . S
C823 C814 1.390 . S
C823 H816 0.950 . S
C823 C820 1.387 . S
C824 C825 1.387 . S
C824 H828 0.950 . S
C824 C833 1.390 . S
C825 C824 1.387 . S
C825 C827 1.387 . S
H826 C833 0.950 . S
C827 C825 1.387 . S
C827 C829 1.390 . S
C827 H831 0.950 . S
H828 C824 0.950 . S
C829 C827 1.390 . S
C829 C830 1.387 . S
C829 H832 0.950 . S
C830 C829 1.387 . S
C830 C833 1.387 . S
H831 C827 0.950 . S
H832 C829 0.950 . S
C833 C824 1.390 . S
C833 H826 0.950 . S
C833 C830 1.387 . S
C834 C835 1.387 . S
C834 H838 0.950 . S
C834 C843 1.390 . S
C835 C834 1.387 . S
C835 C837 1.387 . S
H836 C843 0.950 . S
C837 C835 1.387 . S
C837 C839 1.390 . S
C837 H841 0.950 . S
H838 C834 0.950 . S
C839 C837 1.390 . S
C839 C840 1.387 . S
C839 H842 0.950 . S
C840 C839 1.387 . S
C840 C843 1.387 . S
H841 C837 0.950 . S
H842 C839 0.950 . S
C843 C834 1.390 . S
C843 H836 0.950 . S
C843 C840 1.387 . S
C844 C845 1.387 . S
C844 H848 0.950 . S
C844 C853 1.390 . S
C845 C844 1.387 . S
C845 C847 1.387 . S
H846 C853 0.950 . S
C847 C845 1.387 . S
C847 C849 1.390 . S
C847 H851 0.950 . S
H848 C844 0.950 . S
C849 C847 1.390 . S
C849 C850 1.387 . S
C849 H852 0.950 . S
C850 C849 1.387 . S
C850 C853 1.387 . S
H851 C847 0.950 . S
H852 C849 0.950 . S
C853 C844 1.390 . S
C853 H846 0.950 . S
C853 C850 1.387 . S
C854 C855 1.387 . S
C854 H858 0.950 . S
C854 C863 1.390 . S
C855 C854 1.387 . S
C855 C857 1.387 . S
H856 C863 0.950 . S
C857 C855 1.387 . S
C857 C859 1.390 . S
C857 H861 0.950 . S
H858 C854 0.950 . S
C859 C857 1.390 . S
C859 C860 1.387 . S
C859 H862 0.950 . S
C860 C859 1.387 . S
C860 C863 1.387 . S
H861 C857 0.950 . S
H862 C859 0.950 . S
C863 C854 1.390 . S
C863 H856 0.950 . S
C863 C860 1.387 . S
C864 C865 1.387 . S
C864 H868 0.950 . S
C864 C873 1.390 . S
C865 C864 1.387 . S
C865 C867 1.387 . S
H866 C873 0.950 . S
C867 C865 1.387 . S
C867 C869 1.390 . S
C867 H871 0.950 . S
H868 C864 0.950 . S
C869 C867 1.390 . S
C869 C870 1.387 . S
C869 H872 0.950 . S
C870 C869 1.387 . S
C870 C873 1.387 . S
H871 C867 0.950 . S
H872 C869 0.950 . S
C873 C864 1.390 . S
C873 H866 0.950 . S
C873 C870 1.387 . S
C874 C875 1.387 . S
C874 H878 0.950 . S
C874 C883 1.390 . S
C875 C874 1.387 . S
C875 C877 1.387 . S
H876 C883 0.950 . S
C877 C875 1.387 . S
C877 C879 1.390 . S
C877 H881 0.950 . S
H878 C874 0.950 . S
C879 C877 1.390 . S
C879 C880 1.387 . S
C879 H882 0.950 . S
C880 C879 1.387 . S
C880 C883 1.387 . S
H881 C877 0.950 . S
H882 C879 0.950 . S
C883 C874 1.390 . S
C883 H876 0.950 . S
C883 C880 1.387 . S
C884 C885 1.387 . S
C884 H888 0.950 . S
C884 C893 1.390 . S
C885 C884 1.387 . S
C885 C887 1.387 . S
H886 C893 0.950 . S
C887 C885 1.387 . S
C887 C889 1.390 . S
C887 H891 0.950 . S
H888 C884 0.950 . S
C889 C887 1.390 . S
C889 C890 1.387 . S
C889 H892 0.950 . S
C890 C889 1.387 . S
C890 C893 1.387 . S
H891 C887 0.950 . S
H892 C889 0.950 . S
C893 C884 1.390 . S
C893 H886 0.950 . S
C893 C890 1.387 . S
C894 C895 1.387 . S
C894 H898 0.950 . S
C894 C903 1.390 . S
C895 C894 1.387 . S
C895 C897 1.387 . S
H896 C903 0.950 . S
C897 C895 1.387 . S
C897 C899 1.390 . S
C897 H901 0.950 . S
H898 C894 0.950 . S
C899 C897 1.390 . S
C899 C900 1.387 . S
C899 H902 0.950 . S
C900 C899 1.387 . S
C900 C903 1.387 . S
H901 C897 0.950 . S
H902 C899 0.950 . S
C903 C894 1.390 . S
C903 H896 0.950 . S
C903 C900 1.387 . S
C904 C905 1.387 . S
C904 H908 0.950 . S
C904 C913 1.390 1_566 S
C905 C904 1.387 . S
C905 C907 1.387 . S
H906 C913 0.950 . S
C907 C905 1.387 . S
C907 C909 1.390 1_566 S
C907 H911 0.950 . S
H908 C904 0.950 . S
C909 C907 1.390 1_544 S
C909 C910 1.387 . S
C909 H912 0.950 . S
C910 C909 1.387 . S
C910 C913 1.387 . S
H911 C907 0.950 . S
H912 C909 0.950 . S
C913 C904 1.390 1_544 S
C913 H906 0.950 . S
C913 C910 1.387 . S
C914 C915 1.387 . S
C914 H918 0.950 . S
C914 C923 1.390 1_456 S
C915 C914 1.387 . S
C915 C917 1.387 . S
H916 C923 0.950 . S
C917 C915 1.387 . S
C917 C919 1.390 1_456 S
C917 H921 0.950 . S
H918 C914 0.950 . S
C919 C917 1.390 1_654 S
C919 C920 1.387 . S
C919 H922 0.950 . S
C920 C919 1.387 . S
C920 C923 1.387 . S
H921 C917 0.950 . S
H922 C919 0.950 . S
C923 C914 1.390 1_654 S
C923 H916 0.950 . S
C923 C920 1.387 . S
C924 C925 1.387 . S
C924 H928 0.950 . S
C924 C933 1.390 1_564 S
C925 C924 1.387 . S
C925 C927 1.387 . S
H926 C933 0.950 . S
C927 C925 1.387 . S
C927 C929 1.390 1_564 S
C927 H931 0.950 . S
H928 C924 0.950 . S
C929 C927 1.390 1_546 S
C929 C930 1.387 . S
C929 H932 0.950 . S
C930 C929 1.387 . S
C930 C933 1.387 . S
H931 C927 0.950 . S
H932 C929 0.950 . S
C933 C924 1.390 1_546 S
C933 H926 0.950 . S
C933 C930 1.387 . S
C934 C935 1.387 . S
C934 H938 0.950 . S
C934 C943 1.390 1_656 S
C935 C934 1.387 . S
C935 C937 1.387 . S
H936 C943 0.950 . S
C937 C935 1.387 . S
C937 C939 1.390 1_656 S
C937 H941 0.950 . S
H938 C934 0.950 . S
C939 C937 1.390 1_454 S
C939 C940 1.387 . S
C939 H942 0.950 . S
C940 C939 1.387 . S
C940 C943 1.387 . S
H941 C937 0.950 . S
H942 C939 0.950 . S
C943 C934 1.390 1_454 S
C943 H936 0.950 . S
C943 C940 1.387 . S
C545 C73 0.611 . S
C550 C5 0.611 . S
C555 C107 0.600 . S
C560 C39 0.600 . S
C565 C209 0.611 . S
C570 C141 0.611 . S
C575 C175 0.600 . S
C580 C243 0.600 . S
C585 C277 0.611 1_545 S
C590 C345 0.611 1_565 S
C595 C311 0.611 1_455 S
C600 C379 0.611 1_655 S
C605 C481 0.611 1_545 S
C610 C413 0.611 1_565 S
C615 C515 0.600 1_455 S
C620 C447 0.600 1_655 S
C625 C9 1.548 . S
C630 C247 1.550 . S
C635 C145 1.548 . S
C640 C43 1.550 . S
C645 C179 1.550 . S
C650 C77 1.548 . S
C655 C213 1.550 . S
C660 C111 1.548 . S
C665 C519 1.550 . S
C670 C281 1.548 . S
C675 C417 1.550 . S
C680 C315 1.548 . S
C685 C451 1.548 . S
C690 C349 1.550 . S
C695 C485 1.548 . S
C700 C383 1.550 . S
C705 C33 1.604 . S
C710 C376 1.699 . S
C715 C67 1.606 . S
C720 C274 1.697 . S
C725 C101 1.604 . S
C730 C308 1.698 . S
C735 C342 1.699 . S
C740 C135 1.604 . S
C745 C169 1.604 . S
C750 C444 1.698 . S
C755 C203 1.605 . S
C760 C478 1.699 . S
C765 C237 1.604 . S
C770 C512 1.699 . S
C775 C271 1.607 . S
C780 C410 1.697 . S
C785 C104 1.697 . S
C790 C305 1.607 . S
C795 C2 1.699 . S
C800 C339 1.605 . S
C805 C36 1.698 . S
C810 C373 1.608 . S
C815 C407 1.607 . S
C820 C70 1.699 . S
C825 C441 1.605 . S
C830 C172 1.699 . S
C835 C475 1.605 . S
C840 C206 1.699 . S
C845 C509 1.604 . S
C850 C240 1.699 . S
C855 C543 1.604 . S
C860 C138 1.699 . S
C865 C156 1.739 . S
C870 C20 1.739 . S
C875 C190 1.739 . S
C880 C54 1.739 . S
C885 C88 1.739 . S
C890 C224 1.739 . S
C895 C258 1.739 . S
C900 C122 1.739 . S
C905 C292 1.739 . S
C910 C428 1.739 . S
C915 C462 1.739 . S
C920 C326 1.739 . S
C925 C496 1.739 . S
C930 C360 1.739 . S
C935 C530 1.739 . S
C940 C394 1.739 . S
