# Generated by pormake.
# Topology smc, (6)-cn, num edge types: 1
# Building blocks:
#     Node 0, Type 0, BuildingBlock: UKALOJ_clean_sbu_0, # of connection points: 6
#     Node 1, Type 0, BuildingBlock: UKALOJ_clean_sbu_0, # of connection points: 6
#     Node 2, Type 0, BuildingBlock: UKALOJ_clean_sbu_0, # of connection points: 6
#     Node 3, Type 0, BuildingBlock: UKALOJ_clean_sbu_0, # of connection points: 6
#     Node 4, Type 0, BuildingBlock: UKALOJ_clean_sbu_0, # of connection points: 6
#     Node 5, Type 0, BuildingBlock: UKALOJ_clean_sbu_0, # of connection points: 6
#     Node 6, Type 0, BuildingBlock: UKALOJ_clean_sbu_0, # of connection points: 6
#     Node 7, Type 0, BuildingBlock: UKALOJ_clean_sbu_0, # of connection points: 6
#     Node 8, Type 0, BuildingBlock: UKALOJ_clean_sbu_0, # of connection points: 6
#     Edge 9, Type (0, 0), BuildingBlock: XUDNAN_clean_linker_2, # of connection points: 2
#     Edge 10, Type (0, 0), BuildingBlock: XUDNAN_clean_linker_2, # of connection points: 2
#     Edge 11, Type (0, 0), BuildingBlock: XUDNAN_clean_linker_2, # of connection points: 2
#     Edge 12, Type (0, 0), BuildingBlock: XUDNAN_clean_linker_2, # of connection points: 2
#     Edge 13, Type (0, 0), BuildingBlock: XUDNAN_clean_linker_2, # of connection points: 2
#     Edge 14, Type (0, 0), BuildingBlock: XUDNAN_clean_linker_2, # of connection points: 2
#     Edge 15, Type (0, 0), BuildingBlock: XUDNAN_clean_linker_2, # of connection points: 2
#     Edge 16, Type (0, 0), BuildingBlock: XUDNAN_clean_linker_2, # of connection points: 2
#     Edge 17, Type (0, 0), BuildingBlock: XUDNAN_clean_linker_2, # of connection points: 2
#     Edge 18, Type (0, 0), BuildingBlock: XUDNAN_clean_linker_2, # of connection points: 2
#     Edge 19, Type (0, 0), BuildingBlock: XUDNAN_clean_linker_2, # of connection points: 2
#     Edge 20, Type (0, 0), BuildingBlock: XUDNAN_clean_linker_2, # of connection points: 2
#     Edge 21, Type (0, 0), BuildingBlock: XUDNAN_clean_linker_2, # of connection points: 2
#     Edge 22, Type (0, 0), BuildingBlock: XUDNAN_clean_linker_2, # of connection points: 2
#     Edge 23, Type (0, 0), BuildingBlock: XUDNAN_clean_linker_2, # of connection points: 2
#     Edge 24, Type (0, 0), BuildingBlock: XUDNAN_clean_linker_2, # of connection points: 2
#     Edge 25, Type (0, 0), BuildingBlock: XUDNAN_clean_linker_2, # of connection points: 2
#     Edge 26, Type (0, 0), BuildingBlock: XUDNAN_clean_linker_2, # of connection points: 2
#     Edge 27, Type (0, 0), BuildingBlock: XUDNAN_clean_linker_2, # of connection points: 2
#     Edge 28, Type (0, 0), BuildingBlock: XUDNAN_clean_linker_2, # of connection points: 2
#     Edge 29, Type (0, 0), BuildingBlock: XUDNAN_clean_linker_2, # of connection points: 2
#     Edge 30, Type (0, 0), BuildingBlock: XUDNAN_clean_linker_2, # of connection points: 2
#     Edge 31, Type (0, 0), BuildingBlock: XUDNAN_clean_linker_2, # of connection points: 2
#     Edge 32, Type (0, 0), BuildingBlock: XUDNAN_clean_linker_2, # of connection points: 2
#     Edge 33, Type (0, 0), BuildingBlock: XUDNAN_clean_linker_2, # of connection points: 2
#     Edge 34, Type (0, 0), BuildingBlock: XUDNAN_clean_linker_2, # of connection points: 2
#     Edge 35, Type (0, 0), BuildingBlock: XUDNAN_clean_linker_2, # of connection points: 2
# Relax obj value: 0.106
# Max RMSD: 0.212
# Mean RMSD: 0.212
data_MOF--net-smc--node1-UKALOJ_clean_sbu_0--edge1-XUDNAN_clean_linker_2
_symmetry_space_group_name_H-M    P1
_symmetry_Int_Tables_number       1
_symmetry_cell_setting            triclinic
loop_
_symmetry_equiv_pos_as_xyz
'x, y, z'
_cell_length_a     28.055737
_cell_length_b     28.03048
_cell_length_c     59.229274
_cell_angle_alpha  90.151155
_cell_angle_beta   90.251039
_cell_angle_gamma 120.0141
loop_
_atom_site_label
_atom_site_type_symbol
_atom_site_fract_x
_atom_site_fract_y
_atom_site_fract_z
_atom_type_partial_charge
Zn0 Zn 0.01397 0.42792 0.06225 0.0
O1 O 0.07465 0.51046 0.0643 0.0
C2 C 0.09436 0.40408 0.04145 0.0
Zn3 Zn 0.01423 0.43693 0.02448 0.0
C4 C 0.09165 0.54163 0.04716 0.0
O5 O 0.07519 0.52137 0.02748 0.0
C6 C 0.93149 0.32467 0.04084 0.0
O7 O 0.9543 0.46153 0.0263 0.0
O8 O 0.95598 0.45421 0.06329 0.0
N9 N 0.01709 0.44104 0.98945 0.0
C10 C 0.97854 0.41092 0.97373 0.0
C11 C 0.05498 0.45433 0.95661 0.0
N12 N 0.06451 0.46846 0.97867 0.0
N13 N 0.00128 0.41778 0.95304 0.0
C14 C 0.05064 0.42684 0.11228 0.0
C15 C 0.97559 0.39817 0.13017 0.0
N16 N 0.01198 0.42089 0.09706 0.0
N17 N 0.96549 0.4034 0.1083 0.0
N18 N 0.02871 0.4123 0.13317 0.0
H19 H 0.12258 0.47865 0.09249 0.0
H20 H 0.1365 0.4714 0.12174 0.0
H21 H 0.11735 0.41553 0.10211 0.0
C22 C 0.11028 0.44974 0.10685 0.0
C23 C 0.9184 0.37604 0.97847 0.0
H24 H 0.90681 0.39133 0.99355 0.0
H25 H 0.89371 0.37562 0.96369 0.0
H26 H 0.90889 0.33328 0.98154 0.0
O27 O 0.95112 0.35269 0.02297 0.0
O28 O 0.95169 0.34624 0.05989 0.0
C29 C 0.93906 0.46767 0.04579 0.0
O30 O 0.07287 0.40374 0.06029 0.0
O31 O 0.07683 0.41542 0.0236 0.0
Zn32 Zn 0.60058 0.60297 0.06405 0.0
O33 O 0.5169 0.57725 0.06461 0.0
C34 C 0.62337 0.70905 0.0451 0.0
Zn35 Zn 0.59678 0.59977 0.02617 0.0
C36 C 0.48819 0.56502 0.04666 0.0
O37 O 0.51141 0.57295 0.02754 0.0
C38 C 0.70777 0.63074 0.04445 0.0
O39 O 0.57508 0.51579 0.02664 0.0
O40 O 0.57746 0.51971 0.06384 0.0
N41 N 0.59402 0.60095 0.99133 0.0
C42 C 0.61827 0.5876 0.97472 0.0
C43 C 0.57904 0.6276 0.95932 0.0
N44 N 0.56925 0.62522 0.98161 0.0
N45 N 0.61001 0.60457 0.95434 0.0
C46 C 0.59402 0.63565 0.11391 0.0
C47 C 0.62931 0.59573 0.13237 0.0
N48 N 0.60465 0.60578 0.09893 0.0
N49 N 0.62624 0.58072 0.11051 0.0
N50 N 0.60974 0.63059 0.13499 0.0
H51 H 0.53818 0.64931 0.09332 0.0
H52 H 0.54174 0.66888 0.1226 0.0
H53 H 0.59719 0.7104 0.10374 0.0
C54 C 0.56588 0.66759 0.10806 0.0
C55 C 0.65097 0.55945 0.97878 0.0
H56 H 0.62828 0.51712 0.97171 0.0
H57 H 0.6916 0.58226 0.9704 0.0
H58 H 0.65647 0.55511 0.99697 0.0
O59 O 0.68206 0.62451 0.02595 0.0
O60 O 0.68327 0.6256 0.06301 0.0
C61 C 0.56697 0.49189 0.04564 0.0
O62 O 0.62178 0.68528 0.06347 0.0
O63 O 0.61527 0.68313 0.02655 0.0
Zn64 Zn 0.4291 0.01428 0.026 0.0
O65 O 0.51366 0.07342 0.02394 0.0
C66 C 0.40221 0.09883 0.03954 0.0
Zn67 Zn 0.42744 0.02094 0.06361 0.0
C68 C 0.53835 0.09176 0.04272 0.0
O69 O 0.51108 0.07845 0.06092 0.0
C70 C 0.32003 0.93729 0.04762 0.0
O71 O 0.45029 0.96139 0.06801 0.0
O72 O 0.45244 0.95392 0.03114 0.0
N73 N 0.43339 0.03603 0.09777 0.0
C74 C 0.41054 0.00433 0.11613 0.0
C75 C 0.46741 0.08531 0.12791 0.0
N76 N 0.46852 0.0863 0.1052 0.0
N77 N 0.43122 0.03442 0.13522 0.0
C78 C 0.43194 0.03034 0.97334 0.0
C79 C 0.40957 0.9496 0.96189 0.0
N80 N 0.42437 -0.00073 0.99183 0.0
N81 N 0.41044 0.94918 0.98461 0.0
N82 N 0.42262 -5e-05 0.95435 0.0
H83 H 0.47919 0.11053 0.98864 0.0
H84 H 0.4736 0.11102 0.95819 0.0
H85 H 0.41546 0.09676 0.97556 0.0
C86 C 0.45152 0.09079 0.97393 0.0
C87 C 0.37053 0.94368 0.11537 0.0
H88 H 0.37617 0.9248 0.0999 0.0
H89 H 0.37535 0.92312 0.13048 0.0
H90 H 0.32808 0.93702 0.11526 0.0
O91 O 0.34476 0.96166 0.06571 0.0
O92 O 0.34508 0.95262 0.02886 0.0
C93 C 0.46035 0.94093 0.05079 0.0
O94 O 0.40832 0.07671 0.02185 0.0
O95 O 0.40675 0.08192 0.05885 0.0
Zn96 Zn 0.68259 0.7618 0.3953 0.0
O97 O 0.74147 0.84484 0.40003 0.0
C98 C 0.76206 0.74231 0.37122 0.0
Zn99 Zn 0.67754 0.77267 0.35805 0.0
C100 C 0.75648 0.87642 0.38301 0.0
O101 O 0.73813 0.85644 0.36349 0.0
C102 C 0.5991 0.6594 0.37131 0.0
O103 O 0.61729 0.79546 0.36213 0.0
O104 O 0.62199 0.78439 0.39867 0.0
N105 N 0.68203 0.78713 0.32378 0.0
C106 C 0.64876 0.76104 0.30594 0.0
C107 C 0.72284 0.82771 0.29296 0.0
N108 N 0.72789 0.82858 0.31558 0.0
N109 N 0.67367 0.78553 0.28641 0.0
C110 C 0.71684 0.76085 0.44609 0.0
C111 C 0.63786 0.71231 0.46086 0.0
N112 N 0.6789 0.74765 0.42952 0.0
N113 N 0.62998 0.71779 0.43884 0.0
N114 N 0.692 0.73884 0.46608 0.0
H115 H 0.78782 0.79763 0.42418 0.0
H116 H 0.79343 0.83629 0.44888 0.0
H117 H 0.79901 0.77504 0.45125 0.0
C118 C 0.77772 0.7939 0.44231 0.0
C119 C 0.59098 0.71409 0.30778 0.0
H120 H 0.57115 0.71945 0.32299 0.0
H121 H 0.56635 0.71137 0.29262 0.0
H122 H 0.59172 0.67503 0.30933 0.0
O123 O 0.61567 0.68956 0.35387 0.0
O124 O 0.62171 0.67923 0.39029 0.0
C125 C 0.60279 0.79857 0.38215 0.0
O126 O 0.74455 0.74146 0.39103 0.0
O127 O 0.73951 0.75199 0.35457 0.0
Zn128 Zn 0.27387 0.94739 0.36075 0.0
O129 O 0.24944 0.86435 0.35689 0.0
C130 C 0.37327 0.96433 0.38412 0.0
Zn131 Zn 0.25869 0.93261 0.39798 0.0
C132 C 0.23292 0.83082 0.37328 0.0
O133 O 0.23432 0.84843 0.39327 0.0
C134 C 0.29405 0.04792 0.38451 0.0
O135 O 0.17534 0.91023 0.39426 0.0
O136 O 0.19069 0.92492 0.35787 0.0
N137 N 0.25282 0.92432 0.43284 0.0
C138 C 0.24242 0.95284 0.4486 0.0
C139 C 0.27547 0.90933 0.46588 0.0
N140 N 0.27284 0.89688 0.44372 0.0
N141 N 0.25711 0.94489 0.46946 0.0
C142 C 0.31243 0.95141 0.31071 0.0
C143 C 0.26766 0.98346 0.29357 0.0
N144 N 0.28182 0.95893 0.32631 0.0
N145 N 0.2539 0.97862 0.31555 0.0
N146 N 0.30455 0.96685 0.29003 0.0
H147 H 0.33172 0.89829 0.33023 0.0
H148 H 0.34943 0.90333 0.30066 0.0
H149 H 0.38994 0.95979 0.31964 0.0
C150 C 0.34762 0.92637 0.31559 0.0
C151 C 0.21514 0.98604 0.44371 0.0
H152 H 0.18797 0.96963 0.42868 0.0
H153 H 0.19074 0.98577 0.45846 0.0
H154 H 0.24672 0.02923 0.4403 0.0
O155 O 0.28181 0.01603 0.40134 0.0
O156 O 0.29551 0.03013 0.36495 0.0
C157 C 0.1575 0.9091 0.37437 0.0
O158 O 0.35657 0.96723 0.36445 0.0
O159 O 0.34107 0.95266 0.40078 0.0
Zn160 Zn 0.09406 0.35665 0.39507 0.0
O161 O 0.11212 0.29396 0.40055 0.0
C162 C 0.98623 0.27244 0.37781 0.0
Zn163 Zn 0.09667 0.34642 0.3577 0.0
C164 C 0.12463 0.27341 0.38408 0.0
O165 O 0.12034 0.28695 0.36402 0.0
C166 C 0.07313 0.43504 0.36935 0.0
O167 O 0.18144 0.40655 0.35697 0.0
O168 O 0.17893 0.41121 0.39403 0.0
N169 N 0.09579 0.33203 0.32344 0.0
C170 C 0.10584 0.36387 0.30498 0.0
C171 C 0.08295 0.28318 0.29336 0.0
N172 N 0.08168 0.28197 0.31609 0.0
N173 N 0.09769 0.33405 0.28592 0.0
C174 C 0.07436 0.33379 0.44694 0.0
C175 C 0.10946 0.41506 0.46043 0.0
N176 N 0.09427 0.36908 0.4294 0.0
N177 N 0.11617 0.41949 0.43787 0.0
N178 N 0.08356 0.36173 0.4667 0.0
H179 H 0.02789 0.25883 0.42724 0.0
H180 H 0.07278 0.25679 0.44807 0.0
H181 H 0.00935 0.25311 0.45657 0.0
C182 C 0.04402 0.27221 0.44451 0.0
C183 C 0.12658 0.42451 0.30563 0.0
H184 H 0.14909 0.44306 0.32161 0.0
H185 H 0.15409 0.44516 0.29111 0.0
H186 H 0.09102 0.43131 0.30432 0.0
O187 O 0.0751 0.40786 0.3525 0.0
O188 O 0.07891 0.42134 0.38915 0.0
C189 C 0.20623 0.42448 0.37579 0.0
O190 O 0.00977 0.30046 0.3954 0.0
O191 O 0.01276 0.28399 0.35938 0.0
Zn192 Zn 0.35693 0.1016 0.6922 0.0
O193 O 0.2994 0.127 0.69144 0.0
C194 C 0.26958 0.9908 0.70591 0.0
Zn195 Zn 0.3483 0.09367 0.72992 0.0
C196 C 0.27852 0.1342 0.70918 0.0
O197 O 0.2892 0.12085 0.72832 0.0
C198 C 0.43232 0.06823 0.71174 0.0
O199 O 0.40823 0.17502 0.73404 0.0
O200 O 0.41849 0.18601 0.69731 0.0
N201 N 0.33938 0.08366 0.76456 0.0
C202 C 0.37578 0.0892 0.78079 0.0
C203 C 0.29777 0.05734 0.7966 0.0
N204 N 0.29098 0.06422 0.7745 0.0
N205 N 0.35065 0.07242 0.80099 0.0
C206 C 0.33219 0.08645 0.63987 0.0
C207 C 0.41091 0.14249 0.62637 0.0
N208 N 0.36673 0.1108 0.65758 0.0
N209 N 0.41556 0.14561 0.64906 0.0
N210 N 0.35907 0.10534 0.62014 0.0
H211 H 0.2554 0.05405 0.65773 0.0
H212 H 0.24912 0.05091 0.62726 0.0
H213 H 0.26474 0.00431 0.64186 0.0
C214 C 0.27175 0.04688 0.64187 0.0
C215 C 0.43629 0.11305 0.7771 0.0
H216 H 0.45091 0.14299 0.76308 0.0
H217 H 0.45985 0.13382 0.79265 0.0
H218 H 0.44443 0.0793 0.77279 0.0
O219 O 0.40988 0.07001 0.7301 0.0
O220 O 0.41616 0.07806 0.69322 0.0
C221 C 0.43035 0.20614 0.71723 0.0
O222 O 0.2943 0.01869 0.68856 0.0
O223 O 0.28551 0.01196 0.72541 0.0
Zn224 Zn 0.94048 0.27236 0.69454 0.0
O225 O 0.92403 0.19194 0.68907 0.0
C226 C 0.04587 0.29637 0.71452 0.0
Zn227 Zn 0.93276 0.25871 0.73181 0.0
C228 C 0.90899 0.15845 0.70544 0.0
O229 O 0.90991 0.17575 0.72542 0.0
C230 C 0.95791 0.37098 0.72002 0.0
O231 O 0.84804 0.23404 0.73069 0.0
O232 O 0.85531 0.24127 0.69372 0.0
N233 N 0.92999 0.24537 0.76614 0.0
C234 C 0.91981 0.26894 0.78402 0.0
C235 C 0.94246 0.21226 0.79705 0.0
N236 N 0.94388 0.21007 0.77435 0.0
N237 N 0.92788 0.24923 0.80359 0.0
C238 C 0.96719 0.2735 0.64296 0.0
C239 C 0.93012 0.31745 0.62927 0.0
N240 N 0.94398 0.28594 0.66027 0.0
N241 N 0.92086 0.31303 0.65165 0.0
N242 N 0.959 0.29288 0.6232 0.0
H243 H 0.01265 0.24541 0.66336 0.0
H244 H 0.97276 0.2003 0.64099 0.0
H245 H 0.03603 0.26278 0.63466 0.0
C246 C -0.00066 0.24427 0.64572 0.0
C247 C 0.89903 0.30867 0.78233 0.0
H248 H 0.87623 0.30275 0.76627 0.0
H249 H 0.87174 0.30345 0.79675 0.0
H250 H 0.93453 0.35121 0.78299 0.0
O251 O 0.95403 0.34154 0.73697 0.0
O252 O 0.95419 0.35179 0.70026 0.0
C253 C 0.82565 0.22716 0.71132 0.0
O254 O 0.02509 0.30133 0.69621 0.0
O255 O 0.01644 0.28026 0.73216 0.0
Zn256 Zn 0.76762 0.68989 0.73011 0.0
O257 O 0.78847 0.62938 0.73454 0.0
C258 C 0.65569 0.60144 0.71569 0.0
Zn259 Zn 0.76009 0.6724 0.69295 0.0
C260 C 0.79568 0.60454 0.71816 0.0
O261 O 0.78555 0.61334 0.6981 0.0
C262 C 0.7384 0.76262 0.70543 0.0
O263 O 0.84217 0.73156 0.6899 0.0
O264 O 0.8534 0.74779 0.72642 0.0
N265 N 0.75454 0.65853 0.65856 0.0
C266 C 0.7727 0.69313 0.64074 0.0
C267 C 0.72622 0.61152 0.62763 0.0
N268 N 0.726 0.60788 0.6503 0.0
N269 N 0.75538 0.66456 0.62104 0.0
C270 C 0.7533 0.66711 0.78214 0.0
C271 C 0.78579 0.7478 0.79592 0.0
N272 N 0.77176 0.70278 0.76466 0.0
N273 N 0.79213 0.75286 0.77334 0.0
N274 N 0.76172 0.6944 0.802 0.0
H275 H 0.70978 0.59175 0.76228 0.0
H276 H 0.75394 0.59124 0.78379 0.0
H277 H 0.68922 0.58564 0.79135 0.0
C278 C 0.72458 0.60554 0.77964 0.0
C279 C 0.8053 0.75478 0.64275 0.0
H280 H 0.80442 0.76933 0.65995 0.0
H281 H 0.84899 0.76906 0.63881 0.0
H282 H 0.78962 0.77396 0.63066 0.0
O283 O 0.73654 0.73265 0.68893 0.0
O284 O 0.74917 0.75248 0.72509 0.0
C285 C 0.87351 0.75598 0.70661 0.0
O286 O 0.68283 0.63088 0.73253 0.0
O287 O 0.67828 0.61126 0.69646 0.0
H288 H 0.41098 0.55608 1.01552 0.0
H289 H 0.42959 0.49992 0.08148 0.0
H290 H 0.32937 0.43832 0.08354 0.0
H291 H 0.29171 0.56251 0.02974 0.0
H292 H 0.26006 0.54093 1.00225 0.0
H293 H 0.33377 0.57589 1.00502 0.0
H294 H 0.33415 0.49422 0.98445 0.0
H295 H 0.26011 0.45844 0.9822 0.0
H296 H 0.29395 0.42555 0.99554 0.0
H297 H 0.22834 0.3863 0.07964 0.0
H298 H 0.13139 0.36001 0.07319 0.0
H299 H 0.17653 0.45143 1.01045 0.0
C300 C 0.39378 0.53062 0.03031 0.0
C301 C 0.42786 0.53271 0.04832 0.0
C302 C 0.40409 0.49936 0.06757 0.0
C303 C 0.34731 0.46357 0.06877 0.0
C304 C 0.3148 0.46186 0.05065 0.0
C305 C 0.33687 0.49524 0.03198 0.0
C306 C 0.292 0.48977 1.01607 0.0
C307 C 0.29453 0.54556 1.01312 0.0
C308 C 0.29527 0.46554 0.99321 0.0
C309 C 0.24138 0.44926 0.02905 0.0
C310 C 0.25563 0.4326 0.04864 0.0
C311 C 0.21649 0.3986 0.06428 0.0
C312 C 0.16156 0.3838 0.06046 0.0
C313 C 0.14663 0.40376 0.04137 0.0
C314 C 0.18661 0.43459 0.02494 0.0
H315 H 0.47058 0.87373 1.01985 0.0
H316 H 0.51847 0.94079 0.08766 0.0
H317 H 0.57875 0.90058 0.09064 0.0
H318 H 0.46294 0.74539 0.03212 0.0
H319 H 0.488 0.7398 1.00484 0.0
H320 H 0.45172 0.77719 1.00781 0.0
H321 H 0.53476 0.86273 0.99 0.0
H322 H 0.57189 0.82587 0.98764 0.0
H323 H 0.60209 0.89059 1.00267 0.0
H324 H 0.63257 0.85289 0.08667 0.0
H325 H 0.66232 0.78528 0.079 0.0
H326 H 0.57786 0.74681 1.01425 0.0
C327 C 0.49363 0.87972 0.03533 0.0
C328 C 0.48996 0.91035 0.05351 0.0
C329 C 0.52034 0.91704 0.07359 0.0
C330 C 0.55532 0.89509 0.07532 0.0
C331 C 0.55915 0.86634 0.05689 0.0
C332 C 0.52825 0.85749 0.03748 0.0
C333 C 0.53635 0.82094 0.02095 0.0
C334 C 0.48152 0.76768 1.01617 0.0
C335 C 0.56286 0.85191 0.99901 0.0
C336 C 0.5758 0.80975 0.03433 0.0
C337 C 0.58942 0.83749 0.05478 0.0
C338 C 0.62246 0.83111 0.07068 0.0
C339 C 0.63928 0.79278 0.06616 0.0
C340 C 0.62219 0.76085 0.04609 0.0
C341 C 0.59242 0.77146 0.02952 0.0
H342 H 0.27353 0.85783 1.01495 0.0
H343 H 0.25296 0.89521 0.08419 0.0
H344 H 0.18679 0.79708 0.09057 0.0
H345 H 0.12701 0.73899 1.0064 0.0
H346 H 0.15154 0.70189 0.9897 0.0
H347 H 0.18739 0.77614 0.98918 0.0
H348 H 0.27743 0.77749 1.00029 0.0
H349 H 0.24176 0.70353 1.00172 0.0
H350 H 0.27969 0.74409 0.02593 0.0
H351 H 0.14059 0.69572 0.09198 0.0
H352 H 0.10105 0.59606 0.08644 0.0
H353 H 0.14912 0.62294 1.01592 0.0
C354 C 0.25309 0.84584 0.03112 0.0
C355 C 0.26843 0.88409 0.04911 0.0
C356 C 0.24176 0.86658 0.07018 0.0
C357 C 0.20425 0.81089 0.07399 0.0
C358 C 0.19335 0.77362 0.05643 0.0
C359 C 0.21561 0.79036 0.0352 0.0
C360 C 0.2011 0.7414 1.01992 0.0
C361 C 0.16457 0.73949 1.00013 0.0
C362 C 0.2531 0.74169 1.01148 0.0
C363 C 0.1693 0.69467 0.03621 0.0
C364 C 0.16537 0.71431 0.05715 0.0
C365 C 0.14206 0.67966 0.07552 0.0
C366 C 0.12043 0.62314 0.07224 0.0
C367 C 0.12191 0.60174 0.0507 0.0
C368 C 0.14709 0.63813 0.03251 0.0
H369 H 0.4526 0.18031 1.00845 0.0
H370 H 0.3549 0.13556 0.06943 0.0
H371 H 0.3808 0.23255 0.07532 0.0
H372 H 0.56113 0.29205 0.0291 0.0
H373 H 0.57907 0.33602 1.00474 0.0
H374 H 0.54221 0.26242 1.00117 0.0
H375 H 0.4638 0.26619 0.97957 0.0
H376 H 0.50133 0.34024 0.98224 0.0
H377 H 0.43135 0.30144 0.99201 0.0
H378 H 0.4338 0.33253 0.07992 0.0
H379 H 0.49777 0.43236 0.07914 0.0
H380 H 0.56095 0.41549 1.01461 0.0
C381 C 0.43411 0.19059 0.02226 0.0
C382 C 0.40135 0.15067 0.03839 0.0
C383 C 0.37961 0.16567 0.05681 0.0
C384 C 0.39429 0.22064 0.06033 0.0
C385 C 0.43023 0.25979 0.04513 0.0
C386 C 0.44869 0.24555 0.02607 0.0
C387 C 0.4919 0.29643 1.01392 0.0
C388 C 0.54679 0.2967 1.01214 0.0
C389 C 0.47082 0.30137 0.99055 0.0
C390 C 0.49685 0.3411 0.02983 0.0
C391 C 0.46072 0.31882 0.04765 0.0
C392 C 0.46119 0.35074 0.06575 0.0
C393 C 0.49838 0.40728 0.06532 0.0
C394 C 0.53435 0.43148 0.04683 0.0
C395 C 0.5336 0.39794 0.02886 0.0
H396 H 0.61565 0.16006 1.01192 0.0
H397 H 0.59625 0.08151 0.07696 0.0
H398 H 0.6962 0.11918 0.07952 0.0
H399 H 0.73443 0.14827 0.99206 0.0
H400 H 0.76808 0.21599 0.97971 0.0
H401 H 0.69398 0.17672 0.98106 0.0
H402 H 0.69246 0.25679 1.00256 0.0
H403 H 0.76619 0.29647 1.00065 0.0
H404 H 0.73354 0.28416 0.02783 0.0
H405 H 0.79705 0.16994 0.07694 0.0
H406 H 0.89373 0.2428 0.07204 0.0
H407 H 0.84903 0.29179 1.00977 0.0
C408 C 0.63267 0.15061 0.02655 0.0
C409 C 0.59852 0.11815 0.04424 0.0
C410 C 0.62193 0.10697 0.06332 0.0
C411 C 0.67853 0.12738 0.06479 0.0
C412 C 0.71127 0.15916 0.0471 0.0
C413 C 0.6895 0.17164 0.02852 0.0
C414 C 0.73467 0.21253 1.01336 0.0
C415 C 0.73265 0.18681 0.99017 0.0
C416 C 0.73154 0.26562 1.01098 0.0
C417 C 0.78493 0.22229 0.02676 0.0
C418 C 0.77045 0.18983 0.04581 0.0
C419 C 0.80918 0.195 0.06189 0.0
C420 C 0.86396 0.23636 0.05896 0.0
C421 C 0.87911 0.27218 0.04024 0.0
C422 C 0.83941 0.2636 0.0236 0.0
H423 H 0.87641 0.48485 1.0144 0.0
H424 H 0.93793 0.52268 0.08336 0.0
H425 H 0.89912 0.58374 0.08745 0.0
H426 H 0.89487 0.62046 1.00034 0.0
H427 H 0.83115 0.59226 0.98467 0.0
H428 H 0.86823 0.55516 0.98597 0.0
H429 H 0.7818 0.46921 1.00164 0.0
H430 H 0.74436 0.50567 0.99977 0.0
H431 H 0.74837 0.47641 0.02629 0.0
H432 H 0.85118 0.63683 0.08515 0.0
H433 H 0.78195 0.66501 0.079 0.0
H434 H 0.7496 0.59305 1.0118 0.0
C435 C 0.88169 0.50611 0.03031 0.0
C436 C 0.91018 0.49907 0.04854 0.0
C437 C 0.91584 0.52706 0.0692 0.0
C438 C 0.89469 0.56253 0.07161 0.0
C439 C 0.8677 0.56941 0.05325 0.0
C440 C 0.86005 0.54121 0.03315 0.0
C441 C 0.82437 0.55171 1.01696 0.0
C442 C 0.8566 0.58169 0.99573 0.0
C443 C 0.7716 0.49755 1.01082 0.0
C444 C 0.81204 0.58895 0.0314 0.0
C445 C 0.83871 0.59971 0.05204 0.0
C446 C 0.83045 0.62927 0.06899 0.0
C447 C 0.79126 0.64535 0.0653 0.0
C448 C 0.76052 0.63129 0.04492 0.0
C449 C 0.77317 0.60532 0.02735 0.0
H450 H 0.8389 0.75921 0.40348 0.0
H451 H 0.80736 0.73675 0.33131 0.0
H452 H 0.906 0.77218 0.32466 0.0
H453 H 0.95248 0.88343 0.40073 0.0
H454 H 0.99127 0.87504 0.42316 0.0
H455 H 0.9173 0.83582 0.42334 0.0
H456 H 0.91893 0.74437 0.42511 0.0
H457 H 0.9931 0.78325 0.42578 0.0
H458 H 0.95789 0.73073 0.40455 0.0
H459 H 0.00769 0.82693 0.32519 0.0
H460 H 0.10684 0.88345 0.33315 0.0
H461 H 0.07329 0.8713 0.40511 0.0
C462 C 0.85226 0.7593 0.38636 0.0
C463 C 0.81551 0.74534 0.3679 0.0
C464 C 0.83482 0.7471 0.3457 0.0
C465 C 0.89082 0.7674 0.34174 0.0
C466 C 0.92662 0.78505 0.36019 0.0
C467 C 0.9081 0.77984 0.38212 0.0
C468 C 0.95566 0.80685 0.39874 0.0
C469 C 0.95404 0.85301 0.41227 0.0
C470 C 0.95644 0.76372 0.41447 0.0
C471 C 0.00367 0.83 0.38262 0.0
C472 C 0.98594 0.81672 0.36049 0.0
C473 C 0.02225 0.83652 0.34246 0.0
C474 C 0.07847 0.86919 0.34718 0.0
C475 C 0.09786 0.88165 0.36978 0.0
C476 C 0.05975 0.86226 0.38768 0.0
H477 H 0.15218 0.21833 0.3533 0.0
H478 H 0.16264 0.25933 0.42461 0.0
H479 H 0.2221 0.21916 0.43107 0.0
H480 H 0.14288 0.08793 0.3612 0.0
H481 H 0.18229 0.0939 0.33634 0.0
H482 H 0.14311 0.12862 0.33763 0.0
H483 H 0.23198 0.22089 0.32886 0.0
H484 H 0.27168 0.18645 0.32833 0.0
H485 H 0.29137 0.2443 0.34702 0.0
H486 H 0.27912 0.17377 0.42998 0.0
H487 H 0.31458 0.11041 0.42271 0.0
H488 H 0.266 0.09845 0.35237 0.0
C489 C 0.16674 0.21862 0.3703 0.0
C490 C 0.15293 0.24206 0.38842 0.0
C491 C 0.1725 0.24134 0.41045 0.0
C492 C 0.20693 0.21935 0.41426 0.0
C493 C 0.22124 0.1982 0.39588 0.0
C494 C 0.20087 0.19661 0.37443 0.0
C495 C 0.21897 0.16766 0.35793 0.0
C496 C 0.16885 0.11649 0.34769 0.0
C497 C 0.25569 0.20721 0.33944 0.0
C498 C 0.25168 0.1521 0.37359 0.0
C499 C 0.25354 0.17119 0.3953 0.0
C500 C 0.27813 0.15871 0.41305 0.0
C501 C 0.29816 0.12279 0.40877 0.0
C502 C 0.29244 0.09925 0.38707 0.0
C503 C 0.27179 0.11657 0.36904 0.0
H504 H 0.93736 0.18951 0.34651 0.0
H505 H 0.92188 0.23355 0.41535 0.0
H506 H 0.85713 0.13605 0.42356 0.0
H507 H 0.79072 0.07025 0.34067 0.0
H508 H 0.81377 0.03156 0.32418 0.0
H509 H 0.84966 0.10569 0.32255 0.0
H510 H 0.94045 0.10775 0.33293 0.0
H511 H 0.90478 0.03397 0.33544 0.0
H512 H 0.9447 0.07659 0.35889 0.0
H513 H 0.81069 0.03395 0.42657 0.0
H514 H 0.76935 0.9334 0.42209 0.0
H515 H 0.81279 0.95527 0.35109 0.0
C516 C 0.91839 0.17907 0.363 0.0
C517 C 0.93484 0.21918 0.38029 0.0
C518 C 0.90983 0.2036 0.4018 0.0
C519 C 0.8732 0.14822 0.40668 0.0
C520 C 0.86125 0.1092 0.38976 0.0
C521 C 0.88165 0.12396 0.36814 0.0
C522 C 0.86579 0.07366 0.35356 0.0
C523 C 0.8277 0.07008 0.33409 0.0
C524 C 0.91699 0.073 0.3447 0.0
C525 C 0.83529 0.0285 0.37062 0.0
C526 C 0.83321 0.04989 0.3914 0.0
C527 C 0.81083 0.01656 0.41025 0.0
C528 C 0.78816 0.95959 0.40761 0.0
C529 C 0.78777 0.93662 0.38623 0.0
C530 C 0.81218 0.9717 0.36759 0.0
H531 H 0.19646 0.74602 0.40369 0.0
H532 H 0.20659 0.78095 0.33189 0.0
H533 H 0.15247 0.68162 0.32361 0.0
H534 H 0.2143 0.62981 0.39845 0.0
H535 H 0.16797 0.59245 0.42112 0.0
H536 H 0.20397 0.66651 0.42119 0.0
H537 H 0.11045 0.66392 0.42429 0.0
H538 H 0.07416 0.58966 0.42362 0.0
H539 H 0.05776 0.6271 0.40327 0.0
H540 H 0.0998 0.57908 0.32285 0.0
H541 H 0.06594 0.48047 0.32942 0.0
H542 H 0.09114 0.51225 0.4015 0.0
C543 C 0.18728 0.73277 0.38624 0.0
C544 C 0.20556 0.77124 0.36848 0.0
C545 C 0.19311 0.75224 0.34582 0.0
C546 C 0.16183 0.69592 0.34092 0.0
C547 C 0.14338 0.65913 0.35884 0.0
C548 C 0.15639 0.67665 0.38101 0.0
C549 C 0.13539 0.62839 0.39697 0.0
C550 C 0.18325 0.62934 0.4102 0.0
C551 C 0.09185 0.62722 0.41298 0.0
C552 C 0.10985 0.5811 0.38023 0.0
C553 C 0.11379 0.59968 0.35837 0.0
C554 C 0.09624 0.56391 0.3399 0.0
C555 C 0.07701 0.50794 0.34379 0.0
C556 C 0.07649 0.48873 0.36591 0.0
C557 C 0.09056 0.52547 0.38439 0.0
H558 H 0.28219 0.49142 0.34428 0.0
H559 H 0.26603 0.41734 0.41013 0.0
H560 H 0.36623 0.45571 0.41204 0.0
H561 H 0.40018 0.47875 0.3242 0.0
H562 H 0.43309 0.54553 0.31103 0.0
H563 H 0.3591 0.50634 0.31305 0.0
H564 H 0.35867 0.58789 0.33368 0.0
H565 H 0.4323 0.62747 0.33118 0.0
H566 H 0.40086 0.617 0.35856 0.0
H567 H 0.46675 0.50577 0.40848 0.0
H568 H 0.56296 0.5783 0.40278 0.0
H569 H 0.51644 0.62339 0.33984 0.0
C570 C 0.29996 0.48313 0.35898 0.0
C571 C 0.26659 0.45158 0.37706 0.0
C572 C 0.29102 0.44198 0.39619 0.0
C573 C 0.34778 0.46282 0.39729 0.0
C574 C 0.37966 0.49348 0.37918 0.0
C575 C 0.35696 0.50462 0.36056 0.0
C576 C 0.40142 0.54447 0.34482 0.0
C577 C 0.39824 0.51711 0.32191 0.0
C578 C 0.39812 0.59733 0.34191 0.0
C579 C 0.45246 0.5553 0.35794 0.0
C580 C 0.43878 0.52409 0.37736 0.0
C581 C 0.4782 0.53002 0.3932 0.0
C582 C 0.53278 0.57122 0.38979 0.0
C583 C 0.54716 0.60631 0.37084 0.0
C584 C 0.50694 0.59642 0.3542 0.0
H585 H 0.42945 0.94312 0.35192 0.0
H586 H 0.42818 0.97468 0.42357 0.0
H587 H 0.49255 0.9405 0.43046 0.0
H588 H 0.41991 0.81994 0.35696 0.0
H589 H 0.46447 0.82556 0.33405 0.0
H590 H 0.42941 0.86447 0.33343 0.0
H591 H 0.52182 0.95575 0.32931 0.0
H592 H 0.55736 0.91708 0.32904 0.0
H593 H 0.57688 0.97224 0.34917 0.0
H594 H 0.54052 0.88649 0.43052 0.0
H595 H 0.5828 0.82941 0.42315 0.0
H596 H 0.55237 0.83208 0.35129 0.0
C597 C 0.44483 0.94554 0.36888 0.0
C598 C 0.42404 0.96177 0.38718 0.0
C599 C 0.4439 0.96268 0.40929 0.0
C600 C 0.48027 0.94314 0.41338 0.0
C601 C 0.49665 0.92344 0.39514 0.0
C602 C 0.48078 0.92578 0.37323 0.0
C603 C 0.49956 0.89682 0.35696 0.0
C604 C 0.4504 0.84887 0.34464 0.0
C605 C 0.54142 0.93793 0.34013 0.0
C606 C 0.52651 0.87598 0.37328 0.0
C607 C 0.52456 0.89201 0.39518 0.0
C608 C 0.54347 0.87472 0.41339 0.0
C609 C 0.56677 0.84171 0.40904 0.0
C610 C 0.571 0.82639 0.38662 0.0
C611 C 0.54995 0.84331 0.36858 0.0
H612 H 0.74663 0.21211 0.74244 0.0
H613 H 0.76877 0.16803 0.67452 0.0
H614 H 0.66875 0.10708 0.67061 0.0
H615 H 0.62787 0.07796 0.7579 0.0
H616 H 0.59352 0.10858 0.77256 0.0
H617 H 0.66766 0.14423 0.77144 0.0
H618 H 0.66913 0.22985 0.75408 0.0
H619 H 0.59531 0.19489 0.75576 0.0
H620 H 0.62869 0.2215 0.72909 0.0
H621 H 0.56765 0.05602 0.67267 0.0
H622 H 0.47076 0.03053 0.67821 0.0
H623 H 0.51238 0.10856 0.7442 0.0
C624 C 0.73027 0.18933 0.72683 0.0
C625 C 0.76535 0.19473 0.7088 0.0
C626 C 0.74259 0.1649 0.6885 0.0
C627 C 0.68588 0.12949 0.68621 0.0
C628 C 0.65238 0.12452 0.70434 0.0
C629 C 0.67345 0.15433 0.7241 0.0
C630 C 0.62768 0.14615 0.7399 0.0
C631 C 0.6293 0.11752 0.76174 0.0
C632 C 0.63036 0.20136 0.74499 0.0
C633 C 0.57778 0.10847 0.72559 0.0
C634 C 0.59309 0.09535 0.70541 0.0
C635 C 0.55493 0.06522 0.68854 0.0
C636 C 0.49998 0.0507 0.69186 0.0
C637 C 0.48398 0.06675 0.71179 0.0
C638 C 0.52294 0.09386 0.72923 0.0
H639 H 0.93299 0.42457 0.68796 0.0
H640 H 0.97147 0.4287 0.75924 0.0
H641 H 0.93752 0.49335 0.76612 0.0
H642 H 0.96379 0.57186 0.68403 0.0
H643 H 0.90747 0.55209 0.66448 0.0
H644 H 0.94487 0.51527 0.66471 0.0
H645 H 0.85295 0.42407 0.67028 0.0
H646 H 0.81541 0.46054 0.6709 0.0
H647 H 0.81046 0.41711 0.69421 0.0
H648 H 0.88455 0.54262 0.76625 0.0
H649 H 0.82899 0.5865 0.75898 0.0
H650 H 0.82524 0.55061 0.68736 0.0
C651 C 0.93652 0.44081 0.70488 0.0
C652 C 0.95428 0.42118 0.72316 0.0
C653 C 0.95739 0.44274 0.74508 0.0
C654 C 0.93827 0.4795 0.74912 0.0
C655 C 0.91712 0.49474 0.73097 0.0
C656 C 0.91748 0.47729 0.70918 0.0
C657 C 0.88817 0.49587 0.69298 0.0
C658 C 0.92849 0.53619 0.67552 0.0
C659 C 0.83884 0.44644 0.68142 0.0
C660 C 0.86939 0.52466 0.70923 0.0
C661 C 0.88676 0.52373 0.73102 0.0
C662 C 0.87174 0.54473 0.7492 0.0
C663 C 0.83963 0.56902 0.74488 0.0
C664 C 0.82289 0.57213 0.72256 0.0
C665 C 0.8375 0.54899 0.70457 0.0
H666 H 0.59615 0.52233 0.68418 0.0
H667 H 0.60313 0.55952 0.75575 0.0
H668 H 0.54053 0.4612 0.76348 0.0
H669 H 0.44887 0.40173 0.68339 0.0
H670 H 0.46728 0.36569 0.66312 0.0
H671 H 0.50146 0.43988 0.66281 0.0
H672 H 0.59528 0.44336 0.66581 0.0
H673 H 0.56164 0.36949 0.66709 0.0
H674 H 0.60829 0.41068 0.68935 0.0
H675 H 0.49551 0.35939 0.76433 0.0
H676 H 0.45473 0.25986 0.75775 0.0
H677 H 0.47663 0.28816 0.68547 0.0
C678 C 0.58251 0.51027 0.70137 0.0
C679 C 0.6048 0.54853 0.71938 0.0
C680 C 0.58654 0.53096 0.74167 0.0
C681 C 0.55118 0.47511 0.74625 0.0
C682 C 0.53384 0.43784 0.72829 0.0
C683 C 0.54744 0.45474 0.7062 0.0
C684 C 0.52785 0.40603 0.69026 0.0
C685 C 0.48373 0.40316 0.67393 0.0
C686 C 0.57616 0.40753 0.67739 0.0
C687 C 0.50346 0.35925 0.70697 0.0
C688 C 0.50714 0.37854 0.72878 0.0
C689 C 0.49102 0.34362 0.74729 0.0
C690 C 0.46851 0.28717 0.74335 0.0
C691 C 0.46221 0.26616 0.72105 0.0
C692 C 0.48072 0.30292 0.70268 0.0
H693 H 0.75523 0.84157 0.73645 0.0
H694 H 0.73416 0.80597 0.66453 0.0
H695 H 0.77186 0.90468 0.65674 0.0
H696 H 0.72959 0.96209 0.73522 0.0
H697 H 0.78144 -0.00257 0.75668 0.0
H698 H 0.74139 0.92325 0.75652 0.0
H699 H 0.8319 0.91969 0.7561 0.0
H700 H 0.87228 0.99361 0.75533 0.0
H701 H 0.88046 0.95312 0.73363 0.0
H702 H 0.82841 0.00752 0.65656 0.0
H703 H 0.88532 0.10718 0.66419 0.0
H704 H 0.87027 0.075 0.73627 0.0
C705 C 0.75617 0.85407 0.7191 0.0
C706 C 0.74207 0.81612 0.7011 0.0
C707 C 0.74464 0.8343 0.67861 0.0
C708 C 0.7663 0.89037 0.674 0.0
C709 C 0.78417 0.92727 0.69209 0.0
C710 C 0.77786 0.90975 0.71423 0.0
C711 C 0.80493 0.95787 0.73052 0.0
C712 C 0.76176 0.96031 0.74562 0.0
C713 C 0.85005 0.95591 0.74471 0.0
C714 C 0.82939 0.00509 0.71404 0.0
C715 C 0.81677 0.98667 0.69198 0.0
C716 C 0.83756 0.02255 0.67378 0.0
C717 C 0.87042 0.079 0.6783 0.0
C718 C 0.88213 0.09885 0.70084 0.0
C719 C 0.86194 0.06115 0.71887 0.0
H720 H 0.95644 0.81294 0.73781 0.0
H721 H 0.92616 0.76914 0.66664 0.0
H722 H 0.02558 0.81241 0.66025 0.0
H723 H 0.07365 0.94558 0.72912 0.0
H724 H 0.10965 0.94293 0.75394 0.0
H725 H 0.03565 0.90498 0.75306 0.0
H726 H 0.03754 0.81554 0.76241 0.0
H727 H 0.11175 0.85322 0.76271 0.0
H728 H 0.07519 0.79413 0.74443 0.0
H729 H 0.12745 0.86223 0.66091 0.0
H730 H 0.2258 0.92845 0.66768 0.0
H731 H 0.19078 0.94095 0.73809 0.0
C732 C 0.97077 0.81256 0.7209 0.0
C733 C 0.93343 0.78741 0.7028 0.0
C734 C 0.95385 0.7881 0.68085 0.0
C735 C 0.01031 0.81207 0.67703 0.0
C736 C 0.04595 0.83532 0.69529 0.0
C737 C 0.0272 0.83667 0.71671 0.0
C738 C 0.07467 0.86821 0.73296 0.0
C739 C 0.07333 0.91841 0.74284 0.0
C740 C 0.07477 0.83051 0.75174 0.0
C741 C 0.1228 0.88539 0.71716 0.0
C742 C 0.10529 0.86499 0.69562 0.0
C743 C 0.14185 0.87827 0.67774 0.0
C744 C 0.19761 0.91585 0.68173 0.0
C745 C 0.21586 0.94006 0.70333 0.0
C746 C 0.17829 0.92255 0.72145 0.0
H747 H 0.21395 0.14713 0.741 0.0
H748 H 0.27964 0.19475 0.67331 0.0
H749 H 0.24044 0.25552 0.67067 0.0
H750 H 0.08636 0.1391 0.72846 0.0
H751 H 0.08026 0.16468 0.75561 0.0
H752 H 0.11852 0.1292 0.75303 0.0
H753 H 0.20339 0.21351 0.77109 0.0
H754 H 0.16554 0.24972 0.77315 0.0
H755 H 0.23022 0.28047 0.75843 0.0
H756 H 0.19136 0.30725 0.674 0.0
H757 H 0.12158 0.33434 0.68069 0.0
H758 H 0.08548 0.25331 0.74585 0.0
C759 C 0.22014 0.17051 0.72569 0.0
C760 C 0.24996 0.16621 0.70743 0.0
C761 C 0.25671 0.19702 0.68754 0.0
C762 C 0.23525 0.23234 0.68594 0.0
C763 C 0.20685 0.23637 0.70431 0.0
C764 C 0.19825 0.20563 0.72365 0.0
C765 C 0.16121 0.21353 0.7399 0.0
C766 C 0.10847 0.15837 0.74451 0.0
C767 C 0.19195 0.24095 0.76195 0.0
C768 C 0.14924 0.25221 0.72633 0.0
C769 C 0.17719 0.2659 0.7061 0.0
C770 C 0.16964 0.29745 0.68989 0.0
C771 C 0.13009 0.31288 0.69388 0.0
C772 C 0.09826 0.29614 0.71381 0.0
C773 C 0.10993 0.26771 0.73066 0.0
H774 H 0.05207 0.38956 0.26624 0.0
H775 H 0.14799 0.31065 0.25274 0.0
H776 H 0.1472 0.32918 0.21192 0.0
H777 H 0.96485 0.33509 0.21907 0.0
H778 H 0.95994 0.39563 0.21339 0.0
H779 H 0.97333 0.38195 0.24169 0.0
H780 H 0.0617 0.47779 0.24352 0.0
H781 H 0.04841 0.49194 0.21523 0.0
H782 H 0.11337 0.49678 0.22206 0.0
H783 H 0.12976 0.34954 0.17257 0.0
H784 H 0.09563 0.36863 0.13729 0.0
H785 H 0.01086 0.43497 0.17582 0.0
C786 C 0.07432 0.37784 0.25472 0.0
C787 C 0.10129 0.34985 0.26259 0.0
C788 C 0.1278 0.33275 0.24696 0.0
C789 C 0.12761 0.3432 0.22382 0.0
C790 C 0.10027 0.37047 0.21653 0.0
C791 C 0.07405 0.38755 0.23149 0.0
C792 C 0.04415 0.41224 0.21904 0.0
C793 C 0.98188 0.37924 0.22357 0.0
C794 C 0.06837 0.47333 0.22534 0.0
C795 C 0.05694 0.40557 0.19475 0.0
C796 C 0.08986 0.38191 0.19372 0.0
C797 C 0.10501 0.36922 0.17318 0.0
C798 C 0.08595 0.38084 0.15316 0.0
C799 C 0.05224 0.40519 0.15373 0.0
C800 C 0.03755 0.41747 0.17489 0.0
H801 H 0.62876 0.68304 0.26773 0.0
H802 H 0.68386 0.85391 0.25274 0.0
H803 H 0.66629 0.83097 0.21209 0.0
H804 H 0.69079 0.65907 0.22156 0.0
H805 H 0.63649 0.58953 0.21603 0.0
H806 H 0.64678 0.61764 0.24414 0.0
H807 H 0.54556 0.59582 0.24519 0.0
H808 H 0.53474 0.56711 0.21711 0.0
H809 H 0.51999 0.62146 0.22314 0.0
H810 H 0.65279 0.79202 0.17325 0.0
H811 H 0.64174 0.73925 0.13849 0.0
H812 H 0.59209 0.59189 0.17792 0.0
C813 C 0.63515 0.71507 0.25593 0.0
C814 C 0.65641 0.77009 0.26333 0.0
C815 C 0.66686 0.81151 0.24733 0.0
C816 C 0.65697 0.79881 0.22427 0.0
C817 C 0.63677 0.74439 0.21745 0.0
C818 C 0.62566 0.70304 0.23277 0.0
C819 C 0.60794 0.64872 0.22075 0.0
C820 C 0.64789 0.62752 0.22593 0.0
C821 C 0.54852 0.60574 0.22691 0.0
C822 C 0.61193 0.66632 0.1963 0.0
C823 C 0.62828 0.72161 0.19484 0.0
C824 C 0.63833 0.74832 0.17415 0.0
C825 C 0.63121 0.71775 0.15441 0.0
C826 C 0.61348 0.66076 0.15535 0.0
C827 C 0.60419 0.63501 0.17667 0.0
H828 H 0.33243 0.98175 0.15636 0.0
H829 H 0.50796 0.05358 0.16664 0.0
H830 H 0.49336 0.03545 0.20762 0.0
H831 H 0.30998 0.0404 0.2044 0.0
H832 H 0.24385 0.98226 0.21127 0.0
H833 H 0.26702 0.99368 0.18248 0.0
H834 H 0.25391 0.89549 0.18045 0.0
H835 H 0.23036 0.88362 0.20925 0.0
H836 H 0.28731 0.87478 0.2011 0.0
H837 H 0.46103 0.01804 0.24748 0.0
H838 H 0.41335 0.00393 0.2838 0.0
H839 H 0.25808 0.94344 0.24835 0.0
C840 C 0.36736 0.99198 0.16725 0.0
C841 C 0.42125 0.01803 0.15848 0.0
C842 C 0.46645 0.03302 0.17319 0.0
C843 C 0.45848 0.02277 0.1964 0.0
C844 C 0.40497 -0.00219 0.20466 0.0
C845 C 0.36009 0.98257 0.19058 0.0
C846 C 0.30751 0.96091 0.20409 0.0
C847 C 0.28053 -0.00355 0.20034 0.0
C848 C 0.26741 0.90008 0.19838 0.0
C849 C 0.33006 0.96749 0.22793 0.0
C850 C 0.38626 0.98816 0.22784 0.0
C851 C 0.41683 0.00059 0.24778 0.0
C852 C 0.3893 0.99188 0.26839 0.0
C853 C 0.33173 0.97075 0.26895 0.0
C854 C 0.30194 0.95852 0.24839 0.0
H855 H 0.37555 0.05412 0.93458 0.0
H856 H 0.47231 0.97597 0.92126 0.0
H857 H 0.46899 0.9915 0.88034 0.0
H858 H 0.28593 -0.00378 0.88809 0.0
H859 H 0.28039 0.05615 0.88179 0.0
H860 H 0.29514 0.04451 0.9102 0.0
H861 H 0.38329 0.1406 0.91089 0.0
H862 H 0.36856 0.15277 0.88251 0.0
H863 H 0.43399 0.1584 0.88908 0.0
H864 H 0.44888 0.008 0.84118 0.0
H865 H 0.41443 0.0258 0.80574 0.0
H866 H 0.33093 0.09468 0.84353 0.0
C867 C 0.39733 0.04188 0.92302 0.0
C868 C 0.4252 0.01484 0.93097 0.0
C869 C 0.45136 -0.00273 0.91538 0.0
C870 C 0.4497 0.00596 0.89219 0.0
C871 C 0.42132 0.03204 0.88481 0.0
C872 C 0.39566 0.04992 0.8997 0.0
C873 C 0.36495 0.07356 0.88709 0.0
C874 C 0.30293 0.04063 0.89209 0.0
C875 C 0.38916 0.13499 0.89273 0.0
C876 C 0.37671 0.06536 0.86282 0.0
C877 C 0.40965 0.0417 0.86198 0.0
C878 C 0.42419 0.02775 0.8416 0.0
C879 C 0.40492 0.03859 0.82151 0.0
C880 C 0.37185 0.06363 0.82183 0.0
C881 C 0.35714 0.0766 0.84282 0.0
H882 H 0.01753 0.45295 0.90951 0.0
H883 H 0.93836 0.30658 0.95091 0.0
H884 H 0.90343 0.24866 0.91687 0.0
H885 H 0.91316 0.40382 0.8638 0.0
H886 H 0.96376 0.43448 0.84183 0.0
H887 H 0.97778 0.46557 0.86953 0.0
H888 H 0.06724 0.46029 0.87195 0.0
H889 H 0.05354 0.42933 0.84428 0.0
H890 H 0.06375 0.39484 0.86787 0.0
H891 H 0.88355 0.20557 0.87866 0.0
H892 H 0.88047 0.18039 0.83838 0.0
H893 H 0.97362 0.35322 0.82093 0.0
C894 C 0.99182 0.40879 0.91129 0.0
C895 C 0.97839 0.38455 0.93295 0.0
C896 C 0.94638 0.32644 0.93466 0.0
C897 C 0.92699 0.29304 0.91534 0.0
C898 C 0.9404 0.31815 0.89428 0.0
C899 C 0.97215 0.37468 0.89206 0.0
C900 C 0.98353 0.39061 0.86735 0.0
C901 C 0.95803 0.4257 0.86021 0.0
C902 C 0.0457 0.42052 0.86259 0.0
C903 C 0.954 0.33419 0.85615 0.0
C904 C 0.9292 0.29304 0.87204 0.0
C905 C 0.90207 0.23743 0.86602 0.0
C906 C 0.90054 0.22347 0.84318 0.0
C907 C 0.92556 0.26477 0.82658 0.0
C908 C 0.95242 0.32088 0.83319 0.0
H909 H 0.7233 0.73586 0.83382 0.0
H910 H 0.76348 0.60735 0.82213 0.0
H911 H 0.72704 0.56849 0.85963 0.0
H912 H 0.76451 0.75608 0.89304 0.0
H913 H 0.71114 0.77046 0.90123 0.0
H914 H 0.73919 0.78698 0.87319 0.0
H915 H 0.64112 0.72836 0.85628 0.0
H916 H 0.61282 0.71141 0.88426 0.0
H917 H 0.59959 0.65723 0.86442 0.0
H918 H 0.67973 0.54018 0.89786 0.0
H919 H 0.63548 0.53073 0.93462 0.0
H920 H 0.6368 0.68421 0.92316 0.0
C921 C 0.72462 0.69965 0.83918 0.0
C922 C 0.74407 0.6733 0.82453 0.0
C923 C 0.74604 0.62658 0.8324 0.0
C924 C 0.7261 0.60462 0.85388 0.0
C925 C 0.70562 0.63067 0.86758 0.0
C926 C 0.70575 0.67779 0.86068 0.0
C927 C 0.68303 0.69895 0.87882 0.0
C928 C 0.7271 0.75653 0.88706 0.0
C929 C 0.63105 0.69896 0.87044 0.0
C930 C 0.66941 0.65598 0.89691 0.0
C931 C 0.68236 0.61672 0.8901 0.0
C932 C 0.67088 0.57159 0.90362 0.0
C933 C 0.64634 0.56698 0.92477 0.0
C934 C 0.63456 0.60789 0.93249 0.0
C935 C 0.64591 0.65253 0.91805 0.0
H936 H 0.6429 0.65897 0.49736 0.0
H937 H 0.78909 0.81764 0.48617 0.0
H938 H 0.82448 0.81249 0.52355 0.0
H939 H 0.62761 0.68771 0.55475 0.0
H940 H 0.60136 0.61771 0.5639 0.0
H941 H 0.59034 0.63136 0.53524 0.0
H942 H 0.63586 0.57645 0.52062 0.0
H943 H 0.64716 0.56275 0.54926 0.0
H944 H 0.70428 0.59534 0.53008 0.0
H945 H 0.84465 0.78836 0.5626 0.0
H946 H 0.84277 0.75316 0.60087 0.0
H947 H 0.67776 0.61733 0.58836 0.0
C948 C 0.68264 0.69257 0.50261 0.0
C949 C 0.71415 0.73746 0.48807 0.0
C950 C 0.76531 0.78108 0.49604 0.0
C951 C 0.78553 0.77893 0.51756 0.0
C952 C 0.75357 0.7336 0.53121 0.0
C953 C 0.70277 0.69166 0.52414 0.0
C954 C 0.67446 0.64945 0.54254 0.0
C955 C 0.62025 0.64641 0.54952 0.0
C956 C 0.6649 0.59264 0.53518 0.0
C957 C 0.71731 0.67415 0.56114 0.0
C958 C 0.76298 0.72227 0.55422 0.0
C959 C 0.80849 0.75144 0.56836 0.0
C960 C 0.80669 0.73155 0.59028 0.0
C961 C 0.75907 0.68382 0.59813 0.0
C962 C 0.71443 0.65439 0.58305 0.0
H963 H 0.24129 0.90723 0.51261 0.0
H964 H 0.29902 0.05539 0.47285 0.0
H965 H 0.32274 0.11101 0.50757 0.0
H966 H 0.1865 0.95054 0.56062 0.0
H967 H 0.21007 0.92 0.5814 0.0
H968 H 0.19118 0.89047 0.55346 0.0
H969 H 0.2871 0.8994 0.54899 0.0
H970 H 0.30629 0.92901 0.57685 0.0
H971 H 0.34808 0.96572 0.55297 0.0
H972 H 0.34961 0.15217 0.54611 0.0
H973 H 0.37555 0.1755 0.58631 0.0
H974 H 0.30152 0.00211 0.60201 0.0
C975 C 0.25759 0.95122 0.51133 0.0
C976 C 0.26587 0.97652 0.48994 0.0
C977 C 0.28922 0.03449 0.4889 0.0
C978 C 0.30366 0.06666 0.50861 0.0
C979 C 0.29494 0.0405 0.52938 0.0
C980 C 0.27227 0.98407 0.53095 0.0
C981 C 0.27068 0.96692 0.55539 0.0
C982 C 0.21105 0.92978 0.56317 0.0
C983 C 0.3051 0.9386 0.55874 0.0
C984 C 0.29701 0.02263 0.56719 0.0
C985 C 0.31051 0.06445 0.55182 0.0
C986 C 0.33837 0.11972 0.55835 0.0
C987 C 0.35304 0.13265 0.58115 0.0
C988 C 0.33945 0.09064 0.59723 0.0
C989 C 0.31078 0.03488 0.59014 0.0
H990 H 0.98509 0.37105 0.59141 0.0
H991 H 0.97243 0.21227 0.60264 0.0
H992 H 0.00767 0.21488 0.56442 0.0
H993 H 0.93474 0.34047 0.53422 0.0
H994 H 0.9783 0.41003 0.52459 0.0
H995 H 0.95616 0.39753 0.55354 0.0
H996 H 0.05784 0.45185 0.56697 0.0
H997 H 0.0803 0.46441 0.53806 0.0
H998 H 0.10588 0.43182 0.5569 0.0
H999 H 0.0483 0.23724 0.52501 0.0
H1000 H 0.08031 0.27186 0.48665 0.0
H1001 H 0.05398 0.40935 0.49935 0.0
C1002 C 0.98999 0.3369 0.58591 0.0
C1003 C 0.97847 0.29275 0.60063 0.0
C1004 C 0.9841 0.24824 0.59244 0.0
C1005 C 0.00334 0.24894 0.57051 0.0
C1006 C 0.01538 0.29371 0.55669 0.0
C1007 C 0.008 0.3364 0.56396 0.0
C1008 C 0.02078 0.37815 0.54542 0.0
C1009 C 0.96943 0.38173 0.53907 0.0
C1010 C 0.06908 0.43491 0.55225 0.0
C1011 C 0.0368 0.35242 0.52658 0.0
C1012 C 0.03404 0.30407 0.53347 0.0
C1013 C 0.04914 0.27426 0.51924 0.0
C1014 C 0.0665 0.29384 0.49727 0.0
C1015 C 0.06715 0.34195 0.48947 0.0
C1016 C 0.05294 0.37189 0.5046 0.0
loop_
_geom_bond_atom_site_label_1
_geom_bond_atom_site_label_2
_geom_bond_distance
_geom_bond_site_symmetry_2
_ccdc_geom_bond_type
Zn0 O1 2.055 . S
Zn0 O8 2.046 1_455 S
Zn0 N16 2.036 . S
Zn0 O28 2.053 1_455 S
Zn0 O30 2.066 . S
O1 Zn0 2.055 . S
O1 C4 1.259 . S
C2 O30 1.256 . S
C2 O31 1.244 . S
Zn3 O5 2.042 1_556 S
Zn3 O7 2.049 1_456 S
Zn3 N9 2.062 . S
Zn3 O27 2.063 1_456 S
Zn3 O31 2.046 1_556 S
C4 O1 1.259 . S
C4 O5 1.254 . S
O5 Zn3 2.042 1_554 S
O5 C4 1.254 . S
C6 O27 1.256 . S
C6 O28 1.244 . S
O7 Zn3 2.049 1_654 S
O7 C29 1.259 . S
O8 Zn0 2.046 1_655 S
O8 C29 1.254 . S
N9 Zn3 2.062 . S
N9 C10 1.298 1_455 S
N9 N12 1.398 . S
C10 N9 1.298 1_655 S
C10 N13 1.367 . S
C10 C23 1.481 . S
C11 N12 1.299 . S
C11 N13 1.379 1_455 S
N12 N9 1.398 . S
N12 C11 1.299 . S
N13 C10 1.367 . S
N13 C11 1.379 1_655 S
C14 N16 1.298 . S
C14 N18 1.367 . S
C14 C22 1.481 . S
C15 N17 1.299 . S
C15 N18 1.379 1_655 S
N16 Zn0 2.036 . S
N16 C14 1.298 . S
N16 N17 1.398 1_455 S
N17 C15 1.299 . S
N17 N16 1.398 1_655 S
N18 C14 1.367 . S
N18 C15 1.379 1_455 S
H19 C22 0.980 . S
H20 C22 0.981 . S
H21 C22 0.981 . S
C22 C14 1.481 . S
C22 H19 0.980 . S
C22 H20 0.981 . S
C22 H21 0.981 . S
C23 C10 1.481 . S
C23 H24 0.980 . S
C23 H25 0.981 . S
C23 H26 0.981 . S
H24 C23 0.980 . S
H25 C23 0.981 . S
H26 C23 0.981 . S
O27 Zn3 2.063 1_654 S
O27 C6 1.256 . S
O28 Zn0 2.053 1_655 S
O28 C6 1.244 . S
C29 O7 1.259 . S
C29 O8 1.254 . S
O30 Zn0 2.066 . S
O30 C2 1.256 . S
O31 C2 1.244 . S
O31 Zn3 2.046 1_554 S
Zn32 O33 2.055 . S
Zn32 O40 2.046 . S
Zn32 N48 2.036 . S
Zn32 O60 2.053 . S
Zn32 O62 2.066 . S
O33 Zn32 2.055 . S
O33 C36 1.259 . S
C34 O62 1.256 . S
C34 O63 1.244 . S
Zn35 O37 2.042 1_556 S
Zn35 O39 2.049 1_556 S
Zn35 N41 2.062 . S
Zn35 O59 2.063 1_556 S
Zn35 O63 2.046 1_556 S
C36 O33 1.259 . S
C36 O37 1.254 . S
O37 Zn35 2.042 1_554 S
O37 C36 1.254 . S
C38 O59 1.256 . S
C38 O60 1.244 . S
O39 Zn35 2.049 1_554 S
O39 C61 1.259 . S
O40 Zn32 2.046 . S
O40 C61 1.254 . S
N41 Zn35 2.062 . S
N41 C42 1.298 . S
N41 N44 1.398 . S
C42 N41 1.298 . S
C42 N45 1.367 . S
C42 C55 1.481 . S
C43 N44 1.299 . S
C43 N45 1.379 . S
N44 N41 1.398 . S
N44 C43 1.299 . S
N45 C42 1.367 . S
N45 C43 1.379 . S
C46 N48 1.298 . S
C46 N50 1.367 . S
C46 C54 1.481 . S
C47 N49 1.299 . S
C47 N50 1.379 . S
N48 Zn32 2.036 . S
N48 C46 1.298 . S
N48 N49 1.398 . S
N49 C47 1.299 . S
N49 N48 1.398 . S
N50 C46 1.367 . S
N50 C47 1.379 . S
H51 C54 0.980 . S
H52 C54 0.981 . S
H53 C54 0.981 . S
C54 C46 1.481 . S
C54 H51 0.980 . S
C54 H52 0.981 . S
C54 H53 0.981 . S
C55 C42 1.481 . S
C55 H56 0.980 . S
C55 H57 0.981 . S
C55 H58 0.981 . S
H56 C55 0.980 . S
H57 C55 0.981 . S
H58 C55 0.981 . S
O59 Zn35 2.063 1_554 S
O59 C38 1.256 . S
O60 Zn32 2.053 . S
O60 C38 1.244 . S
C61 O39 1.259 . S
C61 O40 1.254 . S
O62 Zn32 2.066 . S
O62 C34 1.256 . S
O63 C34 1.244 . S
O63 Zn35 2.046 1_554 S
Zn64 O65 2.049 1_556 S
Zn64 O72 2.042 1_546 S
Zn64 N80 2.062 . S
Zn64 O92 2.046 1_546 S
Zn64 O94 2.063 1_556 S
O65 Zn64 2.049 1_554 S
O65 C68 1.259 . S
C66 O94 1.256 . S
C66 O95 1.244 . S
Zn67 O69 2.046 . S
Zn67 O71 2.055 1_545 S
Zn67 N73 2.036 . S
Zn67 O91 2.066 1_545 S
Zn67 O95 2.053 . S
C68 O65 1.259 . S
C68 O69 1.254 . S
O69 Zn67 2.046 . S
O69 C68 1.254 . S
C70 O91 1.256 . S
C70 O92 1.244 . S
O71 Zn67 2.055 1_565 S
O71 C93 1.259 . S
O72 Zn64 2.042 1_564 S
O72 C93 1.254 . S
N73 Zn67 2.036 . S
N73 C74 1.298 1_545 S
N73 N76 1.398 . S
C74 N73 1.298 1_565 S
C74 N77 1.367 . S
C74 C87 1.481 . S
C75 N76 1.299 . S
C75 N77 1.379 1_545 S
N76 N73 1.398 . S
N76 C75 1.299 . S
N77 C74 1.367 . S
N77 C75 1.379 1_565 S
C78 N80 1.298 . S
C78 N82 1.367 . S
C78 C86 1.481 . S
C79 N81 1.299 . S
C79 N82 1.379 1_565 S
N80 Zn64 2.062 . S
N80 C78 1.298 . S
N80 N81 1.398 1_545 S
N81 C79 1.299 . S
N81 N80 1.398 1_565 S
N82 C78 1.367 . S
N82 C79 1.379 1_545 S
H83 C86 0.980 . S
H84 C86 0.981 . S
H85 C86 0.981 . S
C86 C78 1.481 . S
C86 H83 0.980 . S
C86 H84 0.981 . S
C86 H85 0.981 . S
C87 C74 1.481 . S
C87 H88 0.980 . S
C87 H89 0.981 . S
C87 H90 0.981 . S
H88 C87 0.980 . S
H89 C87 0.981 . S
H90 C87 0.981 . S
O91 Zn67 2.066 1_565 S
O91 C70 1.256 . S
O92 Zn64 2.046 1_564 S
O92 C70 1.244 . S
C93 O71 1.259 . S
C93 O72 1.254 . S
O94 Zn64 2.063 1_554 S
O94 C66 1.256 . S
O95 C66 1.244 . S
O95 Zn67 2.053 . S
Zn96 O97 2.055 . S
Zn96 O104 2.046 . S
Zn96 N112 2.036 . S
Zn96 O124 2.053 . S
Zn96 O126 2.066 . S
O97 Zn96 2.055 . S
O97 C100 1.259 . S
C98 O126 1.256 . S
C98 O127 1.244 . S
Zn99 O101 2.046 . S
Zn99 O103 2.055 . S
Zn99 N105 2.036 . S
Zn99 O123 2.066 . S
Zn99 O127 2.053 . S
C100 O97 1.259 . S
C100 O101 1.254 . S
O101 Zn99 2.046 . S
O101 C100 1.254 . S
C102 O123 1.256 . S
C102 O124 1.244 . S
O103 Zn99 2.055 . S
O103 C125 1.259 . S
O104 Zn96 2.046 . S
O104 C125 1.254 . S
N105 Zn99 2.036 . S
N105 C106 1.298 . S
N105 N108 1.398 . S
C106 N105 1.298 . S
C106 N109 1.367 . S
C106 C119 1.481 . S
C107 N108 1.299 . S
C107 N109 1.379 . S
N108 N105 1.398 . S
N108 C107 1.299 . S
N109 C106 1.367 . S
N109 C107 1.379 . S
C110 N112 1.298 . S
C110 N114 1.367 . S
C110 C118 1.481 . S
C111 N113 1.299 . S
C111 N114 1.379 . S
N112 Zn96 2.036 . S
N112 C110 1.298 . S
N112 N113 1.398 . S
N113 C111 1.299 . S
N113 N112 1.398 . S
N114 C110 1.367 . S
N114 C111 1.379 . S
H115 C118 0.980 . S
H116 C118 0.981 . S
H117 C118 0.981 . S
C118 C110 1.481 . S
C118 H115 0.980 . S
C118 H116 0.981 . S
C118 H117 0.981 . S
C119 C106 1.481 . S
C119 H120 0.980 . S
C119 H121 0.981 . S
C119 H122 0.981 . S
H120 C119 0.980 . S
H121 C119 0.981 . S
H122 C119 0.981 . S
O123 Zn99 2.066 . S
O123 C102 1.256 . S
O124 Zn96 2.053 . S
O124 C102 1.244 . S
C125 O103 1.259 . S
C125 O104 1.254 . S
O126 Zn96 2.066 . S
O126 C98 1.256 . S
O127 C98 1.244 . S
O127 Zn99 2.053 . S
Zn128 O129 2.055 . S
Zn128 O136 2.046 . S
Zn128 N144 2.036 . S
Zn128 O156 2.053 . S
Zn128 O158 2.066 . S
O129 Zn128 2.055 . S
O129 C132 1.259 . S
C130 O158 1.256 . S
C130 O159 1.244 . S
Zn131 O133 2.046 . S
Zn131 O135 2.055 . S
Zn131 N137 2.036 . S
Zn131 O155 2.066 . S
Zn131 O159 2.053 . S
C132 O129 1.259 . S
C132 O133 1.254 . S
O133 Zn131 2.046 . S
O133 C132 1.254 . S
C134 O155 1.256 . S
C134 O156 1.244 . S
O135 Zn131 2.055 . S
O135 C157 1.259 . S
O136 Zn128 2.046 . S
O136 C157 1.254 . S
N137 Zn131 2.036 . S
N137 C138 1.298 . S
N137 N140 1.398 . S
C138 N137 1.298 . S
C138 N141 1.367 . S
C138 C151 1.481 . S
C139 N140 1.299 . S
C139 N141 1.379 . S
N140 N137 1.398 . S
N140 C139 1.299 . S
N141 C138 1.367 . S
N141 C139 1.379 . S
C142 N144 1.298 . S
C142 N146 1.367 . S
C142 C150 1.481 . S
C143 N145 1.299 . S
C143 N146 1.379 . S
N144 Zn128 2.036 . S
N144 C142 1.298 . S
N144 N145 1.398 . S
N145 C143 1.299 . S
N145 N144 1.398 . S
N146 C142 1.367 . S
N146 C143 1.379 . S
H147 C150 0.980 . S
H148 C150 0.981 . S
H149 C150 0.981 . S
C150 C142 1.481 . S
C150 H147 0.980 . S
C150 H148 0.981 . S
C150 H149 0.981 . S
C151 C138 1.481 . S
C151 H152 0.980 . S
C151 H153 0.981 . S
C151 H154 0.981 . S
H152 C151 0.980 . S
H153 C151 0.981 . S
H154 C151 0.981 . S
O155 Zn131 2.066 . S
O155 C134 1.256 . S
O156 Zn128 2.053 . S
O156 C134 1.244 . S
C157 O135 1.259 . S
C157 O136 1.254 . S
O158 Zn128 2.066 . S
O158 C130 1.256 . S
O159 C130 1.244 . S
O159 Zn131 2.053 . S
Zn160 O161 2.055 . S
Zn160 O168 2.046 . S
Zn160 N176 2.036 . S
Zn160 O188 2.053 . S
Zn160 O190 2.066 . S
O161 Zn160 2.055 . S
O161 C164 1.259 . S
C162 O190 1.256 . S
C162 O191 1.244 . S
Zn163 O165 2.046 . S
Zn163 O167 2.055 . S
Zn163 N169 2.036 . S
Zn163 O187 2.066 . S
Zn163 O191 2.053 . S
C164 O161 1.259 . S
C164 O165 1.254 . S
O165 Zn163 2.046 . S
O165 C164 1.254 . S
C166 O187 1.256 . S
C166 O188 1.244 . S
O167 Zn163 2.055 . S
O167 C189 1.259 . S
O168 Zn160 2.046 . S
O168 C189 1.254 . S
N169 Zn163 2.036 . S
N169 C170 1.298 . S
N169 N172 1.398 . S
C170 N169 1.298 . S
C170 N173 1.367 . S
C170 C183 1.481 . S
C171 N172 1.299 . S
C171 N173 1.379 . S
N172 N169 1.398 . S
N172 C171 1.299 . S
N173 C170 1.367 . S
N173 C171 1.379 . S
C174 N176 1.298 . S
C174 N178 1.367 . S
C174 C182 1.481 . S
C175 N177 1.299 . S
C175 N178 1.379 . S
N176 Zn160 2.036 . S
N176 C174 1.298 . S
N176 N177 1.398 . S
N177 C175 1.299 . S
N177 N176 1.398 . S
N178 C174 1.367 . S
N178 C175 1.379 . S
H179 C182 0.980 . S
H180 C182 0.981 . S
H181 C182 0.981 . S
C182 C174 1.481 . S
C182 H179 0.980 . S
C182 H180 0.981 . S
C182 H181 0.981 . S
C183 C170 1.481 . S
C183 H184 0.980 . S
C183 H185 0.981 . S
C183 H186 0.981 . S
H184 C183 0.980 . S
H185 C183 0.981 . S
H186 C183 0.981 . S
O187 Zn163 2.066 . S
O187 C166 1.256 . S
O188 Zn160 2.053 . S
O188 C166 1.244 . S
C189 O167 1.259 . S
C189 O168 1.254 . S
O190 Zn160 2.066 . S
O190 C162 1.256 . S
O191 C162 1.244 . S
O191 Zn163 2.053 . S
Zn192 O193 2.055 . S
Zn192 O200 2.046 . S
Zn192 N208 2.036 . S
Zn192 O220 2.053 . S
Zn192 O222 2.066 . S
O193 Zn192 2.055 . S
O193 C196 1.259 . S
C194 O222 1.256 . S
C194 O223 1.244 . S
Zn195 O197 2.046 . S
Zn195 O199 2.055 . S
Zn195 N201 2.036 . S
Zn195 O219 2.066 . S
Zn195 O223 2.053 . S
C196 O193 1.259 . S
C196 O197 1.254 . S
O197 Zn195 2.046 . S
O197 C196 1.254 . S
C198 O219 1.256 . S
C198 O220 1.244 . S
O199 Zn195 2.055 . S
O199 C221 1.259 . S
O200 Zn192 2.046 . S
O200 C221 1.254 . S
N201 Zn195 2.036 . S
N201 C202 1.298 . S
N201 N204 1.398 . S
C202 N201 1.298 . S
C202 N205 1.367 . S
C202 C215 1.481 . S
C203 N204 1.299 . S
C203 N205 1.379 . S
N204 N201 1.398 . S
N204 C203 1.299 . S
N205 C202 1.367 . S
N205 C203 1.379 . S
C206 N208 1.298 . S
C206 N210 1.367 . S
C206 C214 1.481 . S
C207 N209 1.299 . S
C207 N210 1.379 . S
N208 Zn192 2.036 . S
N208 C206 1.298 . S
N208 N209 1.398 . S
N209 C207 1.299 . S
N209 N208 1.398 . S
N210 C206 1.367 . S
N210 C207 1.379 . S
H211 C214 0.980 . S
H212 C214 0.981 . S
H213 C214 0.981 . S
C214 C206 1.481 . S
C214 H211 0.980 . S
C214 H212 0.981 . S
C214 H213 0.981 . S
C215 C202 1.481 . S
C215 H216 0.980 . S
C215 H217 0.981 . S
C215 H218 0.981 . S
H216 C215 0.980 . S
H217 C215 0.981 . S
H218 C215 0.981 . S
O219 Zn195 2.066 . S
O219 C198 1.256 . S
O220 Zn192 2.053 . S
O220 C198 1.244 . S
C221 O199 1.259 . S
C221 O200 1.254 . S
O222 Zn192 2.066 . S
O222 C194 1.256 . S
O223 C194 1.244 . S
O223 Zn195 2.053 . S
Zn224 O225 2.055 . S
Zn224 O232 2.046 . S
Zn224 N240 2.036 . S
Zn224 O252 2.053 . S
Zn224 O254 2.066 . S
O225 Zn224 2.055 . S
O225 C228 1.259 . S
C226 O254 1.256 . S
C226 O255 1.244 . S
Zn227 O229 2.046 . S
Zn227 O231 2.055 . S
Zn227 N233 2.036 . S
Zn227 O251 2.066 . S
Zn227 O255 2.053 . S
C228 O225 1.259 . S
C228 O229 1.254 . S
O229 Zn227 2.046 . S
O229 C228 1.254 . S
C230 O251 1.256 . S
C230 O252 1.244 . S
O231 Zn227 2.055 . S
O231 C253 1.259 . S
O232 Zn224 2.046 . S
O232 C253 1.254 . S
N233 Zn227 2.036 . S
N233 C234 1.298 . S
N233 N236 1.398 . S
C234 N233 1.298 . S
C234 N237 1.367 . S
C234 C247 1.481 . S
C235 N236 1.299 . S
C235 N237 1.379 . S
N236 N233 1.398 . S
N236 C235 1.299 . S
N237 C234 1.367 . S
N237 C235 1.379 . S
C238 N240 1.298 . S
C238 N242 1.367 . S
C238 C246 1.481 . S
C239 N241 1.299 . S
C239 N242 1.379 . S
N240 Zn224 2.036 . S
N240 C238 1.298 . S
N240 N241 1.398 . S
N241 C239 1.299 . S
N241 N240 1.398 . S
N242 C238 1.367 . S
N242 C239 1.379 . S
H243 C246 0.980 . S
H244 C246 0.981 . S
H245 C246 0.981 . S
C246 C238 1.481 . S
C246 H243 0.980 . S
C246 H244 0.981 . S
C246 H245 0.981 . S
C247 C234 1.481 . S
C247 H248 0.980 . S
C247 H249 0.981 . S
C247 H250 0.981 . S
H248 C247 0.980 . S
H249 C247 0.981 . S
H250 C247 0.981 . S
O251 Zn227 2.066 . S
O251 C230 1.256 . S
O252 Zn224 2.053 . S
O252 C230 1.244 . S
C253 O231 1.259 . S
C253 O232 1.254 . S
O254 Zn224 2.066 . S
O254 C226 1.256 . S
O255 C226 1.244 . S
O255 Zn227 2.053 . S
Zn256 O257 2.055 . S
Zn256 O264 2.046 . S
Zn256 N272 2.036 . S
Zn256 O284 2.053 . S
Zn256 O286 2.066 . S
O257 Zn256 2.055 . S
O257 C260 1.259 . S
C258 O286 1.256 . S
C258 O287 1.244 . S
Zn259 O261 2.046 . S
Zn259 O263 2.055 . S
Zn259 N265 2.036 . S
Zn259 O283 2.066 . S
Zn259 O287 2.053 . S
C260 O257 1.259 . S
C260 O261 1.254 . S
O261 Zn259 2.046 . S
O261 C260 1.254 . S
C262 O283 1.256 . S
C262 O284 1.244 . S
O263 Zn259 2.055 . S
O263 C285 1.259 . S
O264 Zn256 2.046 . S
O264 C285 1.254 . S
N265 Zn259 2.036 . S
N265 C266 1.298 . S
N265 N268 1.398 . S
C266 N265 1.298 . S
C266 N269 1.367 . S
C266 C279 1.481 . S
C267 N268 1.299 . S
C267 N269 1.379 . S
N268 N265 1.398 . S
N268 C267 1.299 . S
N269 C266 1.367 . S
N269 C267 1.379 . S
C270 N272 1.298 . S
C270 N274 1.367 . S
C270 C278 1.481 . S
C271 N273 1.299 . S
C271 N274 1.379 . S
N272 Zn256 2.036 . S
N272 C270 1.298 . S
N272 N273 1.398 . S
N273 C271 1.299 . S
N273 N272 1.398 . S
N274 C270 1.367 . S
N274 C271 1.379 . S
H275 C278 0.980 . S
H276 C278 0.981 . S
H277 C278 0.981 . S
C278 C270 1.481 . S
C278 H275 0.980 . S
C278 H276 0.981 . S
C278 H277 0.981 . S
C279 C266 1.481 . S
C279 H280 0.980 . S
C279 H281 0.981 . S
C279 H282 0.981 . S
H280 C279 0.980 . S
H281 C279 0.981 . S
H282 C279 0.981 . S
O283 Zn259 2.066 . S
O283 C262 1.256 . S
O284 Zn256 2.053 . S
O284 C262 1.244 . S
C285 O263 1.259 . S
C285 O264 1.254 . S
O286 Zn256 2.066 . S
O286 C258 1.256 . S
O287 C258 1.244 . S
O287 Zn259 2.053 . S
H288 C300 0.930 1_556 S
H289 C302 0.930 . S
H290 C303 0.930 . S
H291 C307 0.959 . S
H292 C307 0.959 . S
H293 C307 0.961 . S
H294 C308 0.960 . S
H295 C308 0.961 . S
H296 C308 0.959 . S
H297 C311 0.929 . S
H298 C312 0.931 . S
H299 C314 0.930 1_556 S
C300 H288 0.930 1_554 S
C300 C301 1.399 . S
C300 C305 1.399 . S
C301 C300 1.399 . S
C301 C302 1.376 . S
C302 H289 0.930 . S
C302 C301 1.376 . S
C302 C303 1.388 . S
C303 H290 0.930 . S
C303 C302 1.388 . S
C303 C304 1.390 . S
C304 C303 1.390 . S
C304 C305 1.394 . S
C304 C310 1.465 . S
C305 C300 1.399 . S
C305 C304 1.394 . S
C305 C306 1.516 1_554 S
C306 C305 1.516 1_556 S
C306 C307 1.502 . S
C306 C308 1.561 . S
C306 C309 1.526 1_556 S
C307 H291 0.959 . S
C307 H292 0.959 . S
C307 H293 0.961 . S
C307 C306 1.502 . S
C308 H294 0.960 . S
C308 H295 0.961 . S
C308 H296 0.959 . S
C308 C306 1.561 . S
C309 C306 1.526 1_554 S
C309 C310 1.396 . S
C309 C314 1.390 . S
C310 C304 1.465 . S
C310 C309 1.396 . S
C310 C311 1.399 . S
C311 H297 0.929 . S
C311 C310 1.399 . S
C311 C312 1.385 . S
C312 H298 0.931 . S
C312 C311 1.385 . S
C312 C313 1.389 . S
C313 C312 1.389 . S
C313 C314 1.387 . S
C314 H299 0.930 1_554 S
C314 C309 1.390 . S
C314 C313 1.387 . S
H315 C327 0.930 . S
H316 C329 0.930 . S
H317 C330 0.930 . S
H318 C334 0.959 . S
H319 C334 0.959 1_556 S
H320 C334 0.952 1_556 S
H321 C335 0.960 . S
H322 C335 0.961 . S
H323 C335 0.959 . S
H324 C338 0.929 . S
H325 C339 0.931 . S
H326 C341 0.930 . S
C327 H315 0.930 . S
C327 C328 1.399 . S
C327 C332 1.399 . S
C328 C327 1.399 . S
C328 C329 1.376 . S
C329 H316 0.930 . S
C329 C328 1.376 . S
C329 C330 1.388 . S
C330 H317 0.930 . S
C330 C329 1.388 . S
C330 C331 1.390 . S
C331 C330 1.390 . S
C331 C332 1.394 . S
C331 C337 1.465 . S
C332 C327 1.399 . S
C332 C331 1.394 . S
C332 C333 1.516 . S
C333 C332 1.516 . S
C333 C334 1.502 . S
C333 C335 1.561 1_554 S
C333 C336 1.526 . S
C334 H318 0.959 . S
C334 H319 0.959 1_554 S
C334 H320 0.952 1_554 S
C334 C333 1.502 . S
C335 H321 0.960 . S
C335 H322 0.961 . S
C335 H323 0.959 . S
C335 C333 1.561 1_556 S
C336 C333 1.526 . S
C336 C337 1.396 . S
C336 C341 1.390 . S
C337 C331 1.465 . S
C337 C336 1.396 . S
C337 C338 1.399 . S
C338 H324 0.929 . S
C338 C337 1.399 . S
C338 C339 1.385 . S
C339 H325 0.931 . S
C339 C338 1.385 . S
C339 C340 1.389 . S
C340 C339 1.389 . S
C340 C341 1.387 . S
C341 H326 0.930 . S
C341 C336 1.390 . S
C341 C340 1.387 . S
H342 C354 0.930 1_556 S
H343 C356 0.930 . S
H344 C357 0.930 . S
H345 C361 0.959 . S
H346 C361 0.959 . S
H347 C361 0.961 . S
H348 C362 0.960 . S
H349 C362 0.961 . S
H350 C362 0.959 1_554 S
H351 C365 0.929 . S
H352 C366 0.931 . S
H353 C368 0.930 1_556 S
C354 H342 0.930 1_554 S
C354 C355 1.399 . S
C354 C359 1.399 . S
C355 C354 1.399 . S
C355 C356 1.376 . S
C356 H343 0.930 . S
C356 C355 1.376 . S
C356 C357 1.388 . S
C357 H344 0.930 . S
C357 C356 1.388 . S
C357 C358 1.390 . S
C358 C357 1.390 . S
C358 C359 1.394 . S
C358 C364 1.465 . S
C359 C354 1.399 . S
C359 C358 1.394 . S
C359 C360 1.491 1_554 S
C360 C359 1.491 1_556 S
C360 C361 1.533 . S
C360 C362 1.575 . S
C360 C363 1.503 1_556 S
C361 H345 0.959 . S
C361 H346 0.959 . S
C361 H347 0.961 . S
C361 C360 1.533 . S
C362 H348 0.960 . S
C362 H349 0.961 . S
C362 H350 0.959 1_556 S
C362 C360 1.575 . S
C363 C360 1.503 1_554 S
C363 C364 1.396 . S
C363 C368 1.390 . S
C364 C358 1.465 . S
C364 C363 1.396 . S
C364 C365 1.399 . S
C365 H351 0.929 . S
C365 C364 1.399 . S
C365 C366 1.385 . S
C366 H352 0.931 . S
C366 C365 1.385 . S
C366 C367 1.389 . S
C367 C366 1.389 . S
C367 C368 1.387 . S
C368 H353 0.930 1_554 S
C368 C363 1.390 . S
C368 C367 1.387 . S
H369 C381 0.930 1_556 S
H370 C383 0.930 . S
H371 C384 0.930 . S
H372 C388 0.959 . S
H373 C388 0.959 . S
H374 C388 0.961 . S
H375 C389 0.960 . S
H376 C389 0.961 . S
H377 C389 0.959 . S
H378 C392 0.929 . S
H379 C393 0.931 . S
H380 C395 0.930 1_556 S
C381 H369 0.930 1_554 S
C381 C382 1.399 . S
C381 C386 1.399 . S
C382 C381 1.399 . S
C382 C383 1.376 . S
C383 H370 0.930 . S
C383 C382 1.376 . S
C383 C384 1.388 . S
C384 H371 0.930 . S
C384 C383 1.388 . S
C384 C385 1.390 . S
C385 C384 1.390 . S
C385 C386 1.394 . S
C385 C391 1.465 . S
C386 C381 1.399 . S
C386 C385 1.394 . S
C386 C387 1.516 1_554 S
C387 C386 1.516 1_556 S
C387 C388 1.502 . S
C387 C389 1.561 . S
C387 C390 1.526 1_556 S
C388 H372 0.959 . S
C388 H373 0.959 . S
C388 H374 0.961 . S
C388 C387 1.502 . S
C389 H375 0.960 . S
C389 H376 0.961 . S
C389 H377 0.959 . S
C389 C387 1.561 . S
C390 C387 1.526 1_554 S
C390 C391 1.396 . S
C390 C395 1.390 . S
C391 C385 1.465 . S
C391 C390 1.396 . S
C391 C392 1.399 . S
C392 H378 0.929 . S
C392 C391 1.399 . S
C392 C393 1.385 . S
C393 H379 0.931 . S
C393 C392 1.385 . S
C393 C394 1.389 . S
C394 C393 1.389 . S
C394 C395 1.387 . S
C395 H380 0.930 1_554 S
C395 C390 1.390 . S
C395 C394 1.387 . S
H396 C408 0.930 1_556 S
H397 C410 0.930 . S
H398 C411 0.930 . S
H399 C415 0.959 1_554 S
H400 C415 0.959 . S
H401 C415 0.961 . S
H402 C416 0.960 . S
H403 C416 0.961 . S
H404 C416 0.959 . S
H405 C419 0.929 . S
H406 C420 0.931 . S
H407 C422 0.930 1_556 S
C408 H396 0.930 1_554 S
C408 C409 1.399 . S
C408 C413 1.399 . S
C409 C408 1.399 . S
C409 C410 1.376 . S
C410 H397 0.930 . S
C410 C409 1.376 . S
C410 C411 1.388 . S
C411 H398 0.930 . S
C411 C410 1.388 . S
C411 C412 1.390 . S
C412 C411 1.390 . S
C412 C413 1.394 . S
C412 C418 1.465 . S
C413 C408 1.399 . S
C413 C412 1.394 . S
C413 C414 1.501 1_554 S
C414 C413 1.501 1_556 S
C414 C415 1.511 . S
C414 C416 1.581 . S
C414 C417 1.511 1_556 S
C415 H399 0.959 1_556 S
C415 H400 0.959 . S
C415 H401 0.961 . S
C415 C414 1.511 . S
C416 H402 0.960 . S
C416 H403 0.961 . S
C416 H404 0.959 . S
C416 C414 1.581 . S
C417 C414 1.511 1_554 S
C417 C418 1.396 . S
C417 C422 1.390 . S
C418 C412 1.465 . S
C418 C417 1.396 . S
C418 C419 1.399 . S
C419 H405 0.929 . S
C419 C418 1.399 . S
C419 C420 1.385 . S
C420 H406 0.931 . S
C420 C419 1.385 . S
C420 C421 1.389 . S
C421 C420 1.389 . S
C421 C422 1.387 . S
C422 H407 0.930 1_554 S
C422 C417 1.390 . S
C422 C421 1.387 . S
H423 C435 0.930 1_556 S
H424 C437 0.930 . S
H425 C438 0.930 . S
H426 C442 0.959 . S
H427 C442 0.959 . S
H428 C442 0.961 . S
H429 C443 0.960 . S
H430 C443 0.961 . S
H431 C443 0.959 . S
H432 C446 0.929 . S
H433 C447 0.931 . S
H434 C449 0.930 1_556 S
C435 H423 0.930 1_554 S
C435 C436 1.399 . S
C435 C440 1.399 . S
C436 C435 1.399 . S
C436 C437 1.376 . S
C437 H424 0.930 . S
C437 C436 1.376 . S
C437 C438 1.388 . S
C438 H425 0.930 . S
C438 C437 1.388 . S
C438 C439 1.390 . S
C439 C438 1.390 . S
C439 C440 1.394 . S
C439 C445 1.465 . S
C440 C435 1.399 . S
C440 C439 1.394 . S
C440 C441 1.516 1_554 S
C441 C440 1.516 1_556 S
C441 C442 1.502 . S
C441 C443 1.561 . S
C441 C444 1.526 1_556 S
C442 H426 0.959 . S
C442 H427 0.959 . S
C442 H428 0.961 . S
C442 C441 1.502 . S
C443 H429 0.960 . S
C443 H430 0.961 . S
C443 H431 0.959 . S
C443 C441 1.561 . S
C444 C441 1.526 1_554 S
C444 C445 1.396 . S
C444 C449 1.390 . S
C445 C439 1.465 . S
C445 C444 1.396 . S
C445 C446 1.399 . S
C446 H432 0.929 . S
C446 C445 1.399 . S
C446 C447 1.385 . S
C447 H433 0.931 . S
C447 C446 1.385 . S
C447 C448 1.389 . S
C448 C447 1.389 . S
C448 C449 1.387 . S
C449 H434 0.930 1_554 S
C449 C444 1.390 . S
C449 C448 1.387 . S
H450 C462 0.930 . S
H451 C464 0.930 . S
H452 C465 0.930 . S
H453 C469 0.959 . S
H454 C469 0.959 . S
H455 C469 0.961 . S
H456 C470 0.960 . S
H457 C470 0.961 . S
H458 C470 0.959 . S
H459 C473 0.929 . S
H460 C474 0.931 . S
H461 C476 0.930 . S
C462 H450 0.930 . S
C462 C463 1.399 . S
C462 C467 1.399 . S
C463 C462 1.399 . S
C463 C464 1.376 . S
C464 H451 0.930 . S
C464 C463 1.376 . S
C464 C465 1.388 . S
C465 H452 0.930 . S
C465 C464 1.388 . S
C465 C466 1.390 . S
C466 C465 1.390 . S
C466 C467 1.394 . S
C466 C472 1.465 . S
C467 C462 1.399 . S
C467 C466 1.394 . S
C467 C468 1.516 . S
C468 C467 1.516 . S
C468 C469 1.502 . S
C468 C470 1.561 . S
C468 C471 1.526 . S
C469 H453 0.959 . S
C469 H454 0.959 . S
C469 H455 0.961 . S
C469 C468 1.502 . S
C470 H456 0.960 . S
C470 H457 0.961 . S
C470 H458 0.959 . S
C470 C468 1.561 . S
C471 C468 1.526 . S
C471 C472 1.396 . S
C471 C476 1.390 1_655 S
C472 C466 1.465 . S
C472 C471 1.396 . S
C472 C473 1.399 . S
C473 H459 0.929 . S
C473 C472 1.399 . S
C473 C474 1.385 1_655 S
C474 H460 0.931 . S
C474 C473 1.385 1_455 S
C474 C475 1.389 . S
C475 C474 1.389 . S
C475 C476 1.387 . S
C476 H461 0.930 . S
C476 C471 1.390 1_455 S
C476 C475 1.387 . S
H477 C489 0.930 . S
H478 C491 0.930 . S
H479 C492 0.930 . S
H480 C496 0.959 . S
H481 C496 0.959 . S
H482 C496 0.961 . S
H483 C497 0.960 . S
H484 C497 0.961 . S
H485 C497 0.959 . S
H486 C500 0.929 . S
H487 C501 0.931 . S
H488 C503 0.930 . S
C489 H477 0.930 . S
C489 C490 1.399 . S
C489 C494 1.399 . S
C490 C489 1.399 . S
C490 C491 1.376 . S
C491 H478 0.930 . S
C491 C490 1.376 . S
C491 C492 1.388 . S
C492 H479 0.930 . S
C492 C491 1.388 . S
C492 C493 1.390 . S
C493 C492 1.390 . S
C493 C494 1.394 . S
C493 C499 1.465 . S
C494 C489 1.399 . S
C494 C493 1.394 . S
C494 C495 1.516 . S
C495 C494 1.516 . S
C495 C496 1.502 . S
C495 C497 1.561 . S
C495 C498 1.526 . S
C496 H480 0.959 . S
C496 H481 0.959 . S
C496 H482 0.961 . S
C496 C495 1.502 . S
C497 H483 0.960 . S
C497 H484 0.961 . S
C497 H485 0.959 . S
C497 C495 1.561 . S
C498 C495 1.526 . S
C498 C499 1.396 . S
C498 C503 1.390 . S
C499 C493 1.465 . S
C499 C498 1.396 . S
C499 C500 1.399 . S
C500 H486 0.929 . S
C500 C499 1.399 . S
C500 C501 1.385 . S
C501 H487 0.931 . S
C501 C500 1.385 . S
C501 C502 1.389 . S
C502 C501 1.389 . S
C502 C503 1.387 . S
C503 H488 0.930 . S
C503 C498 1.390 . S
C503 C502 1.387 . S
H504 C516 0.930 1_455 S
H505 C518 0.930 . S
H506 C519 0.930 . S
H507 C523 0.959 . S
H508 C523 0.959 . S
H509 C523 0.961 . S
H510 C524 0.960 1_455 S
H511 C524 0.961 . S
H512 C524 0.959 . S
H513 C527 0.929 . S
H514 C528 0.931 . S
H515 C530 0.930 . S
C516 H504 0.930 1_655 S
C516 C517 1.399 1_655 S
C516 C521 1.399 . S
C517 C516 1.399 1_455 S
C517 C518 1.376 1_455 S
C518 H505 0.930 . S
C518 C517 1.376 1_655 S
C518 C519 1.388 . S
C519 H506 0.930 . S
C519 C518 1.388 . S
C519 C520 1.390 . S
C520 C519 1.390 . S
C520 C521 1.394 . S
C520 C526 1.465 . S
C521 C516 1.399 . S
C521 C520 1.394 . S
C521 C522 1.516 . S
C522 C521 1.516 . S
C522 C523 1.502 . S
C522 C524 1.561 . S
C522 C525 1.526 . S
C523 H507 0.959 . S
C523 H508 0.959 . S
C523 H509 0.961 . S
C523 C522 1.502 . S
C524 H510 0.960 1_655 S
C524 H511 0.961 . S
C524 H512 0.959 . S
C524 C522 1.561 . S
C525 C522 1.526 . S
C525 C526 1.396 . S
C525 C530 1.390 1_545 S
C526 C520 1.465 . S
C526 C525 1.396 . S
C526 C527 1.399 . S
C527 H513 0.929 . S
C527 C526 1.399 . S
C527 C528 1.385 1_545 S
C528 H514 0.931 . S
C528 C527 1.385 1_565 S
C528 C529 1.389 . S
C529 C528 1.389 . S
C529 C530 1.387 . S
C530 H515 0.930 . S
C530 C525 1.390 1_565 S
C530 C529 1.387 . S
H531 C543 0.930 . S
H532 C545 0.930 . S
H533 C546 0.930 . S
H534 C550 0.959 . S
H535 C550 0.959 . S
H536 C550 0.961 . S
H537 C551 0.960 . S
H538 C551 0.961 . S
H539 C551 0.959 . S
H540 C554 0.929 . S
H541 C555 0.931 . S
H542 C557 0.930 . S
C543 H531 0.930 . S
C543 C544 1.399 . S
C543 C548 1.399 . S
C544 C543 1.399 . S
C544 C545 1.376 . S
C545 H532 0.930 . S
C545 C544 1.376 . S
C545 C546 1.388 . S
C546 H533 0.930 . S
C546 C545 1.388 . S
C546 C547 1.390 . S
C547 C546 1.390 . S
C547 C548 1.394 . S
C547 C553 1.465 . S
C548 C543 1.399 . S
C548 C547 1.394 . S
C548 C549 1.516 . S
C549 C548 1.516 . S
C549 C550 1.502 . S
C549 C551 1.561 . S
C549 C552 1.526 . S
C550 H534 0.959 . S
C550 H535 0.959 . S
C550 H536 0.961 . S
C550 C549 1.502 . S
C551 H537 0.960 . S
C551 H538 0.961 . S
C551 H539 0.959 . S
C551 C549 1.561 . S
C552 C549 1.526 . S
C552 C553 1.396 . S
C552 C557 1.390 . S
C553 C547 1.465 . S
C553 C552 1.396 . S
C553 C554 1.399 . S
C554 H540 0.929 . S
C554 C553 1.399 . S
C554 C555 1.385 . S
C555 H541 0.931 . S
C555 C554 1.385 . S
C555 C556 1.389 . S
C556 C555 1.389 . S
C556 C557 1.387 . S
C557 H542 0.930 . S
C557 C552 1.390 . S
C557 C556 1.387 . S
H558 C570 0.930 . S
H559 C572 0.930 . S
H560 C573 0.930 . S
H561 C577 0.959 . S
H562 C577 0.959 . S
H563 C577 0.961 . S
H564 C578 0.960 . S
H565 C578 0.961 . S
H566 C578 0.959 . S
H567 C581 0.929 . S
H568 C582 0.931 . S
H569 C584 0.930 . S
C570 H558 0.930 . S
C570 C571 1.399 . S
C570 C575 1.399 . S
C571 C570 1.399 . S
C571 C572 1.376 . S
C572 H559 0.930 . S
C572 C571 1.376 . S
C572 C573 1.388 . S
C573 H560 0.930 . S
C573 C572 1.388 . S
C573 C574 1.390 . S
C574 C573 1.390 . S
C574 C575 1.394 . S
C574 C580 1.465 . S
C575 C570 1.399 . S
C575 C574 1.394 . S
C575 C576 1.516 . S
C576 C575 1.516 . S
C576 C577 1.502 . S
C576 C578 1.561 . S
C576 C579 1.526 . S
C577 H561 0.959 . S
C577 H562 0.959 . S
C577 H563 0.961 . S
C577 C576 1.502 . S
C578 H564 0.960 . S
C578 H565 0.961 . S
C578 H566 0.959 . S
C578 C576 1.561 . S
C579 C576 1.526 . S
C579 C580 1.396 . S
C579 C584 1.390 . S
C580 C574 1.465 . S
C580 C579 1.396 . S
C580 C581 1.399 . S
C581 H567 0.929 . S
C581 C580 1.399 . S
C581 C582 1.385 . S
C582 H568 0.931 . S
C582 C581 1.385 . S
C582 C583 1.389 . S
C583 C582 1.389 . S
C583 C584 1.387 . S
C584 H569 0.930 . S
C584 C579 1.390 . S
C584 C583 1.387 . S
H585 C597 0.930 . S
H586 C599 0.930 . S
H587 C600 0.930 . S
H588 C604 0.959 . S
H589 C604 0.959 . S
H590 C604 0.961 . S
H591 C605 0.960 . S
H592 C605 0.961 . S
H593 C605 0.959 . S
H594 C608 0.929 . S
H595 C609 0.931 . S
H596 C611 0.930 . S
C597 H585 0.930 . S
C597 C598 1.399 . S
C597 C602 1.399 . S
C598 C597 1.399 . S
C598 C599 1.376 . S
C599 H586 0.930 . S
C599 C598 1.376 . S
C599 C600 1.388 . S
C600 H587 0.930 . S
C600 C599 1.388 . S
C600 C601 1.390 . S
C601 C600 1.390 . S
C601 C602 1.394 . S
C601 C607 1.465 . S
C602 C597 1.399 . S
C602 C601 1.394 . S
C602 C603 1.516 . S
C603 C602 1.516 . S
C603 C604 1.502 . S
C603 C605 1.561 . S
C603 C606 1.526 . S
C604 H588 0.959 . S
C604 H589 0.959 . S
C604 H590 0.961 . S
C604 C603 1.502 . S
C605 H591 0.960 . S
C605 H592 0.961 . S
C605 H593 0.959 . S
C605 C603 1.561 . S
C606 C603 1.526 . S
C606 C607 1.396 . S
C606 C611 1.390 . S
C607 C601 1.465 . S
C607 C606 1.396 . S
C607 C608 1.399 . S
C608 H594 0.929 . S
C608 C607 1.399 . S
C608 C609 1.385 . S
C609 H595 0.931 . S
C609 C608 1.385 . S
C609 C610 1.389 . S
C610 C609 1.389 . S
C610 C611 1.387 . S
C611 H596 0.930 . S
C611 C606 1.390 . S
C611 C610 1.387 . S
H612 C624 0.930 . S
H613 C626 0.930 . S
H614 C627 0.930 . S
H615 C631 0.959 . S
H616 C631 0.959 . S
H617 C631 0.961 . S
H618 C632 0.960 . S
H619 C632 0.961 . S
H620 C632 0.959 . S
H621 C635 0.929 . S
H622 C636 0.931 . S
H623 C638 0.930 . S
C624 H612 0.930 . S
C624 C625 1.399 . S
C624 C629 1.399 . S
C625 C624 1.399 . S
C625 C626 1.376 . S
C626 H613 0.930 . S
C626 C625 1.376 . S
C626 C627 1.388 . S
C627 H614 0.930 . S
C627 C626 1.388 . S
C627 C628 1.390 . S
C628 C627 1.390 . S
C628 C629 1.394 . S
C628 C634 1.465 . S
C629 C624 1.399 . S
C629 C628 1.394 . S
C629 C630 1.516 . S
C630 C629 1.516 . S
C630 C631 1.502 . S
C630 C632 1.561 . S
C630 C633 1.526 . S
C631 H615 0.959 . S
C631 H616 0.959 . S
C631 H617 0.961 . S
C631 C630 1.502 . S
C632 H618 0.960 . S
C632 H619 0.961 . S
C632 H620 0.959 . S
C632 C630 1.561 . S
C633 C630 1.526 . S
C633 C634 1.396 . S
C633 C638 1.390 . S
C634 C628 1.465 . S
C634 C633 1.396 . S
C634 C635 1.399 . S
C635 H621 0.929 . S
C635 C634 1.399 . S
C635 C636 1.385 . S
C636 H622 0.931 . S
C636 C635 1.385 . S
C636 C637 1.389 . S
C637 C636 1.389 . S
C637 C638 1.387 . S
C638 H623 0.930 . S
C638 C633 1.390 . S
C638 C637 1.387 . S
H639 C651 0.930 . S
H640 C653 0.930 . S
H641 C654 0.930 . S
H642 C658 0.959 . S
H643 C658 0.959 . S
H644 C658 0.961 . S
H645 C659 0.960 . S
H646 C659 0.961 . S
H647 C659 0.959 . S
H648 C662 0.929 . S
H649 C663 0.931 . S
H650 C665 0.930 . S
C651 H639 0.930 . S
C651 C652 1.399 . S
C651 C656 1.399 . S
C652 C651 1.399 . S
C652 C653 1.376 . S
C653 H640 0.930 . S
C653 C652 1.376 . S
C653 C654 1.388 . S
C654 H641 0.930 . S
C654 C653 1.388 . S
C654 C655 1.390 . S
C655 C654 1.390 . S
C655 C656 1.394 . S
C655 C661 1.465 . S
C656 C651 1.399 . S
C656 C655 1.394 . S
C656 C657 1.516 . S
C657 C656 1.516 . S
C657 C658 1.502 . S
C657 C659 1.561 . S
C657 C660 1.526 . S
C658 H642 0.959 . S
C658 H643 0.959 . S
C658 H644 0.961 . S
C658 C657 1.502 . S
C659 H645 0.960 . S
C659 H646 0.961 . S
C659 H647 0.959 . S
C659 C657 1.561 . S
C660 C657 1.526 . S
C660 C661 1.396 . S
C660 C665 1.390 . S
C661 C655 1.465 . S
C661 C660 1.396 . S
C661 C662 1.399 . S
C662 H648 0.929 . S
C662 C661 1.399 . S
C662 C663 1.385 . S
C663 H649 0.931 . S
C663 C662 1.385 . S
C663 C664 1.389 . S
C664 C663 1.389 . S
C664 C665 1.387 . S
C665 H650 0.930 . S
C665 C660 1.390 . S
C665 C664 1.387 . S
H666 C678 0.930 . S
H667 C680 0.930 . S
H668 C681 0.930 . S
H669 C685 0.959 . S
H670 C685 0.959 . S
H671 C685 0.961 . S
H672 C686 0.960 . S
H673 C686 0.961 . S
H674 C686 0.959 . S
H675 C689 0.929 . S
H676 C690 0.931 . S
H677 C692 0.930 . S
C678 H666 0.930 . S
C678 C679 1.399 . S
C678 C683 1.399 . S
C679 C678 1.399 . S
C679 C680 1.376 . S
C680 H667 0.930 . S
C680 C679 1.376 . S
C680 C681 1.388 . S
C681 H668 0.930 . S
C681 C680 1.388 . S
C681 C682 1.390 . S
C682 C681 1.390 . S
C682 C683 1.394 . S
C682 C688 1.465 . S
C683 C678 1.399 . S
C683 C682 1.394 . S
C683 C684 1.516 . S
C684 C683 1.516 . S
C684 C685 1.502 . S
C684 C686 1.561 . S
C684 C687 1.526 . S
C685 H669 0.959 . S
C685 H670 0.959 . S
C685 H671 0.961 . S
C685 C684 1.502 . S
C686 H672 0.960 . S
C686 H673 0.961 . S
C686 H674 0.959 . S
C686 C684 1.561 . S
C687 C684 1.526 . S
C687 C688 1.396 . S
C687 C692 1.390 . S
C688 C682 1.465 . S
C688 C687 1.396 . S
C688 C689 1.399 . S
C689 H675 0.929 . S
C689 C688 1.399 . S
C689 C690 1.385 . S
C690 H676 0.931 . S
C690 C689 1.385 . S
C690 C691 1.389 . S
C691 C690 1.389 . S
C691 C692 1.387 . S
C692 H677 0.930 . S
C692 C687 1.390 . S
C692 C691 1.387 . S
H693 C705 0.930 . S
H694 C707 0.930 . S
H695 C708 0.930 . S
H696 C712 0.959 . S
H697 C712 0.959 1_545 S
H698 C712 0.961 . S
H699 C713 0.960 . S
H700 C713 0.961 1_545 S
H701 C713 0.959 . S
H702 C716 0.929 . S
H703 C717 0.931 . S
H704 C719 0.930 . S
C705 H693 0.930 . S
C705 C706 1.399 . S
C705 C710 1.399 . S
C706 C705 1.399 . S
C706 C707 1.376 . S
C707 H694 0.930 . S
C707 C706 1.376 . S
C707 C708 1.388 . S
C708 H695 0.930 . S
C708 C707 1.388 . S
C708 C709 1.390 . S
C709 C708 1.390 . S
C709 C710 1.394 . S
C709 C715 1.465 . S
C710 C705 1.399 . S
C710 C709 1.394 . S
C710 C711 1.516 . S
C711 C710 1.516 . S
C711 C712 1.502 . S
C711 C713 1.561 . S
C711 C714 1.526 . S
C712 H696 0.959 . S
C712 H697 0.959 1_565 S
C712 H698 0.961 . S
C712 C711 1.502 . S
C713 H699 0.960 . S
C713 H700 0.961 1_565 S
C713 H701 0.959 . S
C713 C711 1.561 . S
C714 C711 1.526 . S
C714 C715 1.396 . S
C714 C719 1.390 1_565 S
C715 C709 1.465 . S
C715 C714 1.396 . S
C715 C716 1.399 . S
C716 H702 0.929 . S
C716 C715 1.399 . S
C716 C717 1.385 1_565 S
C717 H703 0.931 . S
C717 C716 1.385 1_545 S
C717 C718 1.389 . S
C718 C717 1.389 . S
C718 C719 1.387 . S
C719 H704 0.930 . S
C719 C714 1.390 1_545 S
C719 C718 1.387 . S
H720 C732 0.930 . S
H721 C734 0.930 . S
H722 C735 0.930 . S
H723 C739 0.959 . S
H724 C739 0.959 . S
H725 C739 0.961 . S
H726 C740 0.960 . S
H727 C740 0.961 . S
H728 C740 0.959 . S
H729 C743 0.929 . S
H730 C744 0.931 1_545 S
H731 C746 0.930 1_545 S
C732 H720 0.930 . S
C732 C733 1.399 . S
C732 C737 1.399 1_655 S
C733 C732 1.399 . S
C733 C734 1.376 . S
C734 H721 0.930 . S
C734 C733 1.376 . S
C734 C735 1.388 1_655 S
C735 H722 0.930 . S
C735 C734 1.388 1_455 S
C735 C736 1.390 . S
C736 C735 1.390 . S
C736 C737 1.394 . S
C736 C742 1.465 . S
C737 C732 1.399 1_455 S
C737 C736 1.394 . S
C737 C738 1.516 . S
C738 C737 1.516 . S
C738 C739 1.502 . S
C738 C740 1.561 . S
C738 C741 1.526 . S
C739 H723 0.959 . S
C739 H724 0.959 . S
C739 H725 0.961 . S
C739 C738 1.502 . S
C740 H726 0.960 . S
C740 H727 0.961 . S
C740 H728 0.959 . S
C740 C738 1.561 . S
C741 C738 1.526 . S
C741 C742 1.396 . S
C741 C746 1.390 . S
C742 C736 1.465 . S
C742 C741 1.396 . S
C742 C743 1.399 . S
C743 H729 0.929 . S
C743 C742 1.399 . S
C743 C744 1.385 . S
C744 H730 0.931 1_565 S
C744 C743 1.385 . S
C744 C745 1.389 1_565 S
C745 C744 1.389 1_545 S
C745 C746 1.387 1_545 S
C746 H731 0.930 1_565 S
C746 C741 1.390 . S
C746 C745 1.387 1_565 S
H747 C759 0.930 . S
H748 C761 0.930 . S
H749 C762 0.930 . S
H750 C766 0.959 . S
H751 C766 0.959 . S
H752 C766 0.961 . S
H753 C767 0.960 . S
H754 C767 0.961 . S
H755 C767 0.959 . S
H756 C770 0.929 . S
H757 C771 0.931 . S
H758 C773 0.930 . S
C759 H747 0.930 . S
C759 C760 1.399 . S
C759 C764 1.399 . S
C760 C759 1.399 . S
C760 C761 1.376 . S
C761 H748 0.930 . S
C761 C760 1.376 . S
C761 C762 1.388 . S
C762 H749 0.930 . S
C762 C761 1.388 . S
C762 C763 1.390 . S
C763 C762 1.390 . S
C763 C764 1.394 . S
C763 C769 1.465 . S
C764 C759 1.399 . S
C764 C763 1.394 . S
C764 C765 1.516 . S
C765 C764 1.516 . S
C765 C766 1.502 . S
C765 C767 1.561 . S
C765 C768 1.526 . S
C766 H750 0.959 . S
C766 H751 0.959 . S
C766 H752 0.961 . S
C766 C765 1.502 . S
C767 H753 0.960 . S
C767 H754 0.961 . S
C767 H755 0.959 . S
C767 C765 1.561 . S
C768 C765 1.526 . S
C768 C769 1.396 . S
C768 C773 1.390 . S
C769 C763 1.465 . S
C769 C768 1.396 . S
C769 C770 1.399 . S
C770 H756 0.929 . S
C770 C769 1.399 . S
C770 C771 1.385 . S
C771 H757 0.931 . S
C771 C770 1.385 . S
C771 C772 1.389 . S
C772 C771 1.389 . S
C772 C773 1.387 . S
C773 H758 0.930 . S
C773 C768 1.390 . S
C773 C772 1.387 . S
H774 C786 0.930 . S
H775 C788 0.930 . S
H776 C789 0.930 . S
H777 C793 0.959 . S
H778 C793 0.959 . S
H779 C793 0.961 . S
H780 C794 0.960 . S
H781 C794 0.961 . S
H782 C794 0.959 . S
H783 C797 0.929 . S
H784 C798 0.931 . S
H785 C800 0.930 . S
C786 H774 0.930 . S
C786 C787 1.399 . S
C786 C791 1.399 . S
C787 C786 1.399 . S
C787 C788 1.376 . S
C788 H775 0.930 . S
C788 C787 1.376 . S
C788 C789 1.388 . S
C789 H776 0.930 . S
C789 C788 1.388 . S
C789 C790 1.390 . S
C790 C789 1.390 . S
C790 C791 1.394 . S
C790 C796 1.465 . S
C791 C786 1.399 . S
C791 C790 1.394 . S
C791 C792 1.516 . S
C792 C791 1.516 . S
C792 C793 1.502 . S
C792 C794 1.561 . S
C792 C795 1.526 . S
C793 H777 0.959 . S
C793 H778 0.959 . S
C793 H779 0.961 . S
C793 C792 1.502 . S
C794 H780 0.960 . S
C794 H781 0.961 . S
C794 H782 0.959 . S
C794 C792 1.561 . S
C795 C792 1.526 . S
C795 C796 1.396 . S
C795 C800 1.390 . S
C796 C790 1.465 . S
C796 C795 1.396 . S
C796 C797 1.399 . S
C797 H783 0.929 . S
C797 C796 1.399 . S
C797 C798 1.385 . S
C798 H784 0.931 . S
C798 C797 1.385 . S
C798 C799 1.389 . S
C799 C798 1.389 . S
C799 C800 1.387 . S
C800 H785 0.930 . S
C800 C795 1.390 . S
C800 C799 1.387 . S
H801 C813 0.930 . S
H802 C815 0.930 . S
H803 C816 0.930 . S
H804 C820 0.959 . S
H805 C820 0.959 . S
H806 C820 0.961 . S
H807 C821 0.960 . S
H808 C821 0.961 . S
H809 C821 0.959 . S
H810 C824 0.929 . S
H811 C825 0.931 . S
H812 C827 0.930 . S
C813 H801 0.930 . S
C813 C814 1.399 . S
C813 C818 1.399 . S
C814 C813 1.399 . S
C814 C815 1.376 . S
C815 H802 0.930 . S
C815 C814 1.376 . S
C815 C816 1.388 . S
C816 H803 0.930 . S
C816 C815 1.388 . S
C816 C817 1.390 . S
C817 C816 1.390 . S
C817 C818 1.394 . S
C817 C823 1.465 . S
C818 C813 1.399 . S
C818 C817 1.394 . S
C818 C819 1.516 . S
C819 C818 1.516 . S
C819 C820 1.502 . S
C819 C821 1.561 . S
C819 C822 1.526 . S
C820 H804 0.959 . S
C820 H805 0.959 . S
C820 H806 0.961 . S
C820 C819 1.502 . S
C821 H807 0.960 . S
C821 H808 0.961 . S
C821 H809 0.959 . S
C821 C819 1.561 . S
C822 C819 1.526 . S
C822 C823 1.396 . S
C822 C827 1.390 . S
C823 C817 1.465 . S
C823 C822 1.396 . S
C823 C824 1.399 . S
C824 H810 0.929 . S
C824 C823 1.399 . S
C824 C825 1.385 . S
C825 H811 0.931 . S
C825 C824 1.385 . S
C825 C826 1.389 . S
C826 C825 1.389 . S
C826 C827 1.387 . S
C827 H812 0.930 . S
C827 C822 1.390 . S
C827 C826 1.387 . S
H828 C840 0.930 . S
H829 C842 0.930 . S
H830 C843 0.930 . S
H831 C847 0.959 . S
H832 C847 0.959 . S
H833 C847 0.961 . S
H834 C848 0.960 . S
H835 C848 0.961 . S
H836 C848 0.959 . S
H837 C851 0.929 1_545 S
H838 C852 0.931 . S
H839 C854 0.930 . S
C840 H828 0.930 . S
C840 C841 1.399 . S
C840 C845 1.399 . S
C841 C840 1.399 . S
C841 C842 1.376 1_565 S
C842 H829 0.930 . S
C842 C841 1.376 1_545 S
C842 C843 1.388 . S
C843 H830 0.930 . S
C843 C842 1.388 . S
C843 C844 1.390 1_545 S
C844 C843 1.390 1_565 S
C844 C845 1.394 . S
C844 C850 1.465 . S
C845 C840 1.399 . S
C845 C844 1.394 . S
C845 C846 1.516 . S
C846 C845 1.516 . S
C846 C847 1.502 . S
C846 C848 1.561 . S
C846 C849 1.526 . S
C847 H831 0.959 . S
C847 H832 0.959 . S
C847 H833 0.961 . S
C847 C846 1.502 . S
C848 H834 0.960 . S
C848 H835 0.961 . S
C848 H836 0.959 . S
C848 C846 1.561 . S
C849 C846 1.526 . S
C849 C850 1.396 . S
C849 C854 1.390 . S
C850 C844 1.465 . S
C850 C849 1.396 . S
C850 C851 1.399 . S
C851 H837 0.929 1_565 S
C851 C850 1.399 . S
C851 C852 1.385 . S
C852 H838 0.931 . S
C852 C851 1.385 . S
C852 C853 1.389 . S
C853 C852 1.389 . S
C853 C854 1.387 . S
C854 H839 0.930 . S
C854 C849 1.390 . S
C854 C853 1.387 . S
H855 C867 0.930 . S
H856 C869 0.930 1_565 S
H857 C870 0.930 1_565 S
H858 C874 0.959 . S
H859 C874 0.959 . S
H860 C874 0.961 . S
H861 C875 0.960 . S
H862 C875 0.961 . S
H863 C875 0.959 . S
H864 C878 0.929 . S
H865 C879 0.931 . S
H866 C881 0.930 . S
C867 H855 0.930 . S
C867 C868 1.399 . S
C867 C872 1.399 . S
C868 C867 1.399 . S
C868 C869 1.376 . S
C869 H856 0.930 1_545 S
C869 C868 1.376 . S
C869 C870 1.388 . S
C870 H857 0.930 1_545 S
C870 C869 1.388 . S
C870 C871 1.390 . S
C871 C870 1.390 . S
C871 C872 1.394 . S
C871 C877 1.465 . S
C872 C867 1.399 . S
C872 C871 1.394 . S
C872 C873 1.516 . S
C873 C872 1.516 . S
C873 C874 1.502 . S
C873 C875 1.561 . S
C873 C876 1.526 . S
C874 H858 0.959 . S
C874 H859 0.959 . S
C874 H860 0.961 . S
C874 C873 1.502 . S
C875 H861 0.960 . S
C875 H862 0.961 . S
C875 H863 0.959 . S
C875 C873 1.561 . S
C876 C873 1.526 . S
C876 C877 1.396 . S
C876 C881 1.390 . S
C877 C871 1.465 . S
C877 C876 1.396 . S
C877 C878 1.399 . S
C878 H864 0.929 . S
C878 C877 1.399 . S
C878 C879 1.385 . S
C879 H865 0.931 . S
C879 C878 1.385 . S
C879 C880 1.389 . S
C880 C879 1.389 . S
C880 C881 1.387 . S
C881 H866 0.930 . S
C881 C876 1.390 . S
C881 C880 1.387 . S
H882 C894 0.930 . S
H883 C896 0.930 . S
H884 C897 0.930 . S
H885 C901 0.959 . S
H886 C901 0.959 . S
H887 C901 0.961 . S
H888 C902 0.960 1_455 S
H889 C902 0.961 . S
H890 C902 0.959 1_455 S
H891 C905 0.929 . S
H892 C906 0.931 . S
H893 C908 0.930 . S
C894 H882 0.930 . S
C894 C895 1.399 . S
C894 C899 1.399 . S
C895 C894 1.399 . S
C895 C896 1.376 . S
C896 H883 0.930 . S
C896 C895 1.376 . S
C896 C897 1.388 . S
C897 H884 0.930 . S
C897 C896 1.388 . S
C897 C898 1.390 . S
C898 C897 1.390 . S
C898 C899 1.394 . S
C898 C904 1.465 . S
C899 C894 1.399 . S
C899 C898 1.394 . S
C899 C900 1.516 . S
C900 C899 1.516 . S
C900 C901 1.502 . S
C900 C902 1.561 . S
C900 C903 1.526 . S
C901 H885 0.959 . S
C901 H886 0.959 . S
C901 H887 0.961 . S
C901 C900 1.502 . S
C902 H888 0.960 1_655 S
C902 H889 0.961 . S
C902 H890 0.959 1_655 S
C902 C900 1.561 . S
C903 C900 1.526 . S
C903 C904 1.396 . S
C903 C908 1.390 . S
C904 C898 1.465 . S
C904 C903 1.396 . S
C904 C905 1.399 . S
C905 H891 0.929 . S
C905 C904 1.399 . S
C905 C906 1.385 . S
C906 H892 0.931 . S
C906 C905 1.385 . S
C906 C907 1.389 . S
C907 C906 1.389 . S
C907 C908 1.387 . S
C908 H893 0.930 . S
C908 C903 1.390 . S
C908 C907 1.387 . S
H909 C921 0.930 . S
H910 C923 0.930 . S
H911 C924 0.930 . S
H912 C928 0.959 . S
H913 C928 0.959 . S
H914 C928 0.961 . S
H915 C929 0.960 . S
H916 C929 0.961 . S
H917 C929 0.959 . S
H918 C932 0.929 . S
H919 C933 0.931 . S
H920 C935 0.930 . S
C921 H909 0.930 . S
C921 C922 1.399 . S
C921 C926 1.399 . S
C922 C921 1.399 . S
C922 C923 1.376 . S
C923 H910 0.930 . S
C923 C922 1.376 . S
C923 C924 1.388 . S
C924 H911 0.930 . S
C924 C923 1.388 . S
C924 C925 1.390 . S
C925 C924 1.390 . S
C925 C926 1.394 . S
C925 C931 1.465 . S
C926 C921 1.399 . S
C926 C925 1.394 . S
C926 C927 1.516 . S
C927 C926 1.516 . S
C927 C928 1.502 . S
C927 C929 1.561 . S
C927 C930 1.526 . S
C928 H912 0.959 . S
C928 H913 0.959 . S
C928 H914 0.961 . S
C928 C927 1.502 . S
C929 H915 0.960 . S
C929 H916 0.961 . S
C929 H917 0.959 . S
C929 C927 1.561 . S
C930 C927 1.526 . S
C930 C931 1.396 . S
C930 C935 1.390 . S
C931 C925 1.465 . S
C931 C930 1.396 . S
C931 C932 1.399 . S
C932 H918 0.929 . S
C932 C931 1.399 . S
C932 C933 1.385 . S
C933 H919 0.931 . S
C933 C932 1.385 . S
C933 C934 1.389 . S
C934 C933 1.389 . S
C934 C935 1.387 . S
C935 H920 0.930 . S
C935 C930 1.390 . S
C935 C934 1.387 . S
H936 C948 0.930 . S
H937 C950 0.930 . S
H938 C951 0.930 . S
H939 C955 0.959 . S
H940 C955 0.959 . S
H941 C955 0.961 . S
H942 C956 0.960 . S
H943 C956 0.961 . S
H944 C956 0.959 . S
H945 C959 0.929 . S
H946 C960 0.931 . S
H947 C962 0.930 . S
C948 H936 0.930 . S
C948 C949 1.399 . S
C948 C953 1.399 . S
C949 C948 1.399 . S
C949 C950 1.376 . S
C950 H937 0.930 . S
C950 C949 1.376 . S
C950 C951 1.388 . S
C951 H938 0.930 . S
C951 C950 1.388 . S
C951 C952 1.390 . S
C952 C951 1.390 . S
C952 C953 1.394 . S
C952 C958 1.465 . S
C953 C948 1.399 . S
C953 C952 1.394 . S
C953 C954 1.516 . S
C954 C953 1.516 . S
C954 C955 1.502 . S
C954 C956 1.561 . S
C954 C957 1.526 . S
C955 H939 0.959 . S
C955 H940 0.959 . S
C955 H941 0.961 . S
C955 C954 1.502 . S
C956 H942 0.960 . S
C956 H943 0.961 . S
C956 H944 0.959 . S
C956 C954 1.561 . S
C957 C954 1.526 . S
C957 C958 1.396 . S
C957 C962 1.390 . S
C958 C952 1.465 . S
C958 C957 1.396 . S
C958 C959 1.399 . S
C959 H945 0.929 . S
C959 C958 1.399 . S
C959 C960 1.385 . S
C960 H946 0.931 . S
C960 C959 1.385 . S
C960 C961 1.389 . S
C961 C960 1.389 . S
C961 C962 1.387 . S
C962 H947 0.930 . S
C962 C957 1.390 . S
C962 C961 1.387 . S
H963 C975 0.930 . S
H964 C977 0.930 . S
H965 C978 0.930 . S
H966 C982 0.959 1_545 S
H967 C982 0.959 . S
H968 C982 0.961 . S
H969 C983 0.960 . S
H970 C983 0.961 . S
H971 C983 0.959 . S
H972 C986 0.929 . S
H973 C987 0.931 . S
H974 C989 0.930 . S
C975 H963 0.930 . S
C975 C976 1.399 . S
C975 C980 1.399 . S
C976 C975 1.399 . S
C976 C977 1.376 . S
C977 H964 0.930 . S
C977 C976 1.376 . S
C977 C978 1.388 1_565 S
C978 H965 0.930 . S
C978 C977 1.388 1_545 S
C978 C979 1.390 . S
C979 C978 1.390 . S
C979 C980 1.394 1_545 S
C979 C985 1.465 . S
C980 C975 1.399 . S
C980 C979 1.394 1_565 S
C980 C981 1.516 . S
C981 C980 1.516 . S
C981 C982 1.502 . S
C981 C983 1.561 . S
C981 C984 1.526 1_565 S
C982 H966 0.959 1_565 S
C982 H967 0.959 . S
C982 H968 0.961 . S
C982 C981 1.502 . S
C983 H969 0.960 . S
C983 H970 0.961 . S
C983 H971 0.959 . S
C983 C981 1.561 . S
C984 C981 1.526 1_545 S
C984 C985 1.396 . S
C984 C989 1.390 . S
C985 C979 1.465 . S
C985 C984 1.396 . S
C985 C986 1.399 . S
C986 H972 0.929 . S
C986 C985 1.399 . S
C986 C987 1.385 . S
C987 H973 0.931 . S
C987 C986 1.385 . S
C987 C988 1.389 . S
C988 C987 1.389 . S
C988 C989 1.387 . S
C989 H974 0.930 . S
C989 C984 1.390 . S
C989 C988 1.387 . S
H990 C1002 0.930 . S
H991 C1004 0.930 . S
H992 C1005 0.940 . S
H993 C1009 0.959 . S
H994 C1009 0.959 1_455 S
H995 C1009 0.961 . S
H996 C1010 0.960 . S
H997 C1010 0.961 . S
H998 C1010 0.959 . S
H999 C1013 0.929 . S
H1000 C1014 0.931 . S
H1001 C1016 0.930 . S
C1002 H990 0.930 . S
C1002 C1003 1.399 . S
C1002 C1007 1.399 1_655 S
C1003 C1002 1.399 . S
C1003 C1004 1.376 . S
C1004 H991 0.930 . S
C1004 C1003 1.376 . S
C1004 C1005 1.388 . S
C1005 H992 0.940 . S
C1005 C1004 1.388 . S
C1005 C1006 1.390 1_655 S
C1006 C1005 1.390 1_455 S
C1006 C1007 1.394 . S
C1006 C1012 1.465 . S
C1007 C1002 1.399 1_455 S
C1007 C1006 1.394 . S
C1007 C1008 1.516 . S
C1008 C1007 1.516 . S
C1008 C1009 1.502 1_455 S
C1008 C1010 1.561 . S
C1008 C1011 1.526 . S
C1009 H993 0.959 . S
C1009 H994 0.959 1_655 S
C1009 H995 0.961 . S
C1009 C1008 1.502 1_655 S
C1010 H996 0.960 . S
C1010 H997 0.961 . S
C1010 H998 0.959 . S
C1010 C1008 1.561 . S
C1011 C1008 1.526 . S
C1011 C1012 1.396 . S
C1011 C1016 1.390 . S
C1012 C1006 1.465 . S
C1012 C1011 1.396 . S
C1012 C1013 1.399 . S
C1013 H999 0.929 . S
C1013 C1012 1.399 . S
C1013 C1014 1.385 . S
C1014 H1000 0.931 . S
C1014 C1013 1.385 . S
C1014 C1015 1.389 . S
C1015 C1014 1.389 . S
C1015 C1016 1.387 . S
C1016 H1001 0.930 . S
C1016 C1011 1.390 . S
C1016 C1015 1.387 . S
C301 C36 1.092 . S
C313 C2 1.106 . S
C328 C93 1.086 . S
C340 C34 1.123 . S
C355 C70 1.084 . S
C367 C4 1.103 . S
C382 C66 1.117 . S
C394 C61 1.102 . S
C409 C68 1.122 . S
C421 C6 1.077 . S
C436 C29 1.120 . S
C448 C38 1.084 . S
C463 C98 1.121 . S
C475 C157 1.100 . S
C490 C164 1.088 . S
C502 C134 1.116 1_545 S
C517 C162 1.093 . S
C529 C100 1.098 . S
C544 C132 1.089 . S
C556 C166 1.114 . S
C571 C189 1.124 . S
C583 C102 1.073 . S
C598 C130 1.122 . S
C610 C125 1.098 . S
C625 C253 1.120 . S
C637 C198 1.085 . S
C652 C230 1.065 . S
C664 C260 1.116 . S
C679 C258 1.064 . S
C691 C221 1.116 . S
C706 C262 1.124 . S
C718 C228 1.087 . S
C733 C285 1.092 . S
C745 C194 1.104 . S
C760 C196 1.089 . S
C772 C226 1.114 1_455 S
C787 N173 1.829 . S
C799 N18 1.819 . S
C814 N109 1.836 . S
C826 N50 1.823 . S
C841 N77 1.843 . S
C853 N146 1.829 . S
C868 N82 1.836 . S
C880 N205 1.823 . S
C895 N13 1.817 . S
C907 N237 1.829 . S
C922 N274 1.837 . S
C934 N45 1.852 . S
C949 N114 1.864 . S
C961 N269 1.867 . S
C976 N141 1.814 . S
C988 N210 1.821 . S
C1003 N242 1.863 . S
C1015 N178 1.867 . S
