# Generated by pormake.
# Topology wmi, (6)-cn, num edge types: 1
# Building blocks:
#     Node 0, Type 0, BuildingBlock: CUWYAW_clean_sbu_0, # of connection points: 6
#     Node 1, Type 0, BuildingBlock: CUWYAW_clean_sbu_0, # of connection points: 6
#     Node 2, Type 0, BuildingBlock: CUWYAW_clean_sbu_0, # of connection points: 6
#     Node 3, Type 0, BuildingBlock: CUWYAW_clean_sbu_0, # of connection points: 6
#     Node 4, Type 0, BuildingBlock: CUWYAW_clean_sbu_0, # of connection points: 6
#     Node 5, Type 0, BuildingBlock: CUWYAW_clean_sbu_0, # of connection points: 6
#     Node 6, Type 0, BuildingBlock: CUWYAW_clean_sbu_0, # of connection points: 6
#     Node 7, Type 0, BuildingBlock: CUWYAW_clean_sbu_0, # of connection points: 6
#     Node 8, Type 0, BuildingBlock: CUWYAW_clean_sbu_0, # of connection points: 6
#     Node 9, Type 0, BuildingBlock: CUWYAW_clean_sbu_0, # of connection points: 6
#     Node 10, Type 0, BuildingBlock: CUWYAW_clean_sbu_0, # of connection points: 6
#     Node 11, Type 0, BuildingBlock: CUWYAW_clean_sbu_0, # of connection points: 6
#     Node 12, Type 0, BuildingBlock: CUWYAW_clean_sbu_0, # of connection points: 6
#     Node 13, Type 0, BuildingBlock: CUWYAW_clean_sbu_0, # of connection points: 6
#     Node 14, Type 0, BuildingBlock: CUWYAW_clean_sbu_0, # of connection points: 6
#     Node 15, Type 0, BuildingBlock: CUWYAW_clean_sbu_0, # of connection points: 6
#     Node 16, Type 0, BuildingBlock: CUWYAW_clean_sbu_0, # of connection points: 6
#     Node 17, Type 0, BuildingBlock: CUWYAW_clean_sbu_0, # of connection points: 6
#     Edge 18, Type (0, 0), BuildingBlock: AJUNOK_clean_linker_0, # of connection points: 2
#     Edge 19, Type (0, 0), BuildingBlock: AJUNOK_clean_linker_0, # of connection points: 2
#     Edge 20, Type (0, 0), BuildingBlock: AJUNOK_clean_linker_0, # of connection points: 2
#     Edge 21, Type (0, 0), BuildingBlock: AJUNOK_clean_linker_0, # of connection points: 2
#     Edge 22, Type (0, 0), BuildingBlock: AJUNOK_clean_linker_0, # of connection points: 2
#     Edge 23, Type (0, 0), BuildingBlock: AJUNOK_clean_linker_0, # of connection points: 2
#     Edge 24, Type (0, 0), BuildingBlock: AJUNOK_clean_linker_0, # of connection points: 2
#     Edge 25, Type (0, 0), BuildingBlock: AJUNOK_clean_linker_0, # of connection points: 2
#     Edge 26, Type (0, 0), BuildingBlock: AJUNOK_clean_linker_0, # of connection points: 2
#     Edge 27, Type (0, 0), BuildingBlock: AJUNOK_clean_linker_0, # of connection points: 2
#     Edge 28, Type (0, 0), BuildingBlock: AJUNOK_clean_linker_0, # of connection points: 2
#     Edge 29, Type (0, 0), BuildingBlock: AJUNOK_clean_linker_0, # of connection points: 2
#     Edge 30, Type (0, 0), BuildingBlock: AJUNOK_clean_linker_0, # of connection points: 2
#     Edge 31, Type (0, 0), BuildingBlock: AJUNOK_clean_linker_0, # of connection points: 2
#     Edge 32, Type (0, 0), BuildingBlock: AJUNOK_clean_linker_0, # of connection points: 2
#     Edge 33, Type (0, 0), BuildingBlock: AJUNOK_clean_linker_0, # of connection points: 2
#     Edge 34, Type (0, 0), BuildingBlock: AJUNOK_clean_linker_0, # of connection points: 2
#     Edge 35, Type (0, 0), BuildingBlock: AJUNOK_clean_linker_0, # of connection points: 2
#     Edge 36, Type (0, 0), BuildingBlock: AJUNOK_clean_linker_0, # of connection points: 2
#     Edge 37, Type (0, 0), BuildingBlock: AJUNOK_clean_linker_0, # of connection points: 2
#     Edge 38, Type (0, 0), BuildingBlock: AJUNOK_clean_linker_0, # of connection points: 2
#     Edge 39, Type (0, 0), BuildingBlock: AJUNOK_clean_linker_0, # of connection points: 2
#     Edge 40, Type (0, 0), BuildingBlock: AJUNOK_clean_linker_0, # of connection points: 2
#     Edge 41, Type (0, 0), BuildingBlock: AJUNOK_clean_linker_0, # of connection points: 2
#     Edge 42, Type (0, 0), BuildingBlock: AJUNOK_clean_linker_0, # of connection points: 2
#     Edge 43, Type (0, 0), BuildingBlock: AJUNOK_clean_linker_0, # of connection points: 2
#     Edge 44, Type (0, 0), BuildingBlock: AJUNOK_clean_linker_0, # of connection points: 2
#     Edge 45, Type (0, 0), BuildingBlock: AJUNOK_clean_linker_0, # of connection points: 2
#     Edge 46, Type (0, 0), BuildingBlock: AJUNOK_clean_linker_0, # of connection points: 2
#     Edge 47, Type (0, 0), BuildingBlock: AJUNOK_clean_linker_0, # of connection points: 2
#     Edge 48, Type (0, 0), BuildingBlock: AJUNOK_clean_linker_0, # of connection points: 2
#     Edge 49, Type (0, 0), BuildingBlock: AJUNOK_clean_linker_0, # of connection points: 2
#     Edge 50, Type (0, 0), BuildingBlock: AJUNOK_clean_linker_0, # of connection points: 2
#     Edge 51, Type (0, 0), BuildingBlock: AJUNOK_clean_linker_0, # of connection points: 2
#     Edge 52, Type (0, 0), BuildingBlock: AJUNOK_clean_linker_0, # of connection points: 2
#     Edge 53, Type (0, 0), BuildingBlock: AJUNOK_clean_linker_0, # of connection points: 2
#     Edge 54, Type (0, 0), BuildingBlock: AJUNOK_clean_linker_0, # of connection points: 2
#     Edge 55, Type (0, 0), BuildingBlock: AJUNOK_clean_linker_0, # of connection points: 2
#     Edge 56, Type (0, 0), BuildingBlock: AJUNOK_clean_linker_0, # of connection points: 2
#     Edge 57, Type (0, 0), BuildingBlock: AJUNOK_clean_linker_0, # of connection points: 2
#     Edge 58, Type (0, 0), BuildingBlock: AJUNOK_clean_linker_0, # of connection points: 2
#     Edge 59, Type (0, 0), BuildingBlock: AJUNOK_clean_linker_0, # of connection points: 2
#     Edge 60, Type (0, 0), BuildingBlock: AJUNOK_clean_linker_0, # of connection points: 2
#     Edge 61, Type (0, 0), BuildingBlock: AJUNOK_clean_linker_0, # of connection points: 2
#     Edge 62, Type (0, 0), BuildingBlock: AJUNOK_clean_linker_0, # of connection points: 2
#     Edge 63, Type (0, 0), BuildingBlock: AJUNOK_clean_linker_0, # of connection points: 2
#     Edge 64, Type (0, 0), BuildingBlock: AJUNOK_clean_linker_0, # of connection points: 2
#     Edge 65, Type (0, 0), BuildingBlock: AJUNOK_clean_linker_0, # of connection points: 2
#     Edge 66, Type (0, 0), BuildingBlock: AJUNOK_clean_linker_0, # of connection points: 2
#     Edge 67, Type (0, 0), BuildingBlock: AJUNOK_clean_linker_0, # of connection points: 2
#     Edge 68, Type (0, 0), BuildingBlock: AJUNOK_clean_linker_0, # of connection points: 2
#     Edge 69, Type (0, 0), BuildingBlock: AJUNOK_clean_linker_0, # of connection points: 2
#     Edge 70, Type (0, 0), BuildingBlock: AJUNOK_clean_linker_0, # of connection points: 2
#     Edge 71, Type (0, 0), BuildingBlock: AJUNOK_clean_linker_0, # of connection points: 2
# Relax obj value: 0.099
# Max RMSD: 0.227
# Mean RMSD: 0.227
data_MOF--net-wmi--node1-CUWYAW_clean_sbu_0--edge1-AJUNOK_clean_linker_0
_symmetry_space_group_name_H-M    P1
_symmetry_Int_Tables_number       1
_symmetry_cell_setting            triclinic
loop_
_symmetry_equiv_pos_as_xyz
'x, y, z'
_cell_length_a     31.983759
_cell_length_b     31.970266
_cell_length_c     56.046993
_cell_angle_alpha  90.064547
_cell_angle_beta   90.174442
_cell_angle_gamma 119.92859
loop_
_atom_site_label
_atom_site_type_symbol
_atom_site_fract_x
_atom_site_fract_y
_atom_site_fract_z
_atom_type_partial_charge
C0 C 0.37948 0.93182 0.1018 0.0
Eu1 Eu 0.45935 1.01351 0.10591 0.0
C2 C 0.33464 0.88483 0.10356 0.0
C3 C 0.31322 0.85732 0.08295 0.0
C4 C 0.28051 0.80759 0.08472 0.0
C5 C 0.26869 0.78486 0.10717 0.0
C6 C 0.28777 0.81324 0.12776 0.0
C7 C 0.32052 0.86252 0.12597 0.0
C8 C 0.52303 0.05525 0.06973 0.0
C9 C 0.53762 0.97889 0.11692 0.0
C10 C 0.64028 0.15235 0.13489 0.0
Eu11 Eu 0.55385 0.08109 0.1247 0.0
C12 C 0.69091 0.17547 0.12671 0.0
C13 C 0.72817 0.19931 0.14345 0.0
C14 C 0.77626 0.22603 0.13607 0.0
C15 C 0.78821 0.22961 0.11173 0.0
C16 C 0.75095 0.20369 0.09506 0.0
C17 C 0.70271 0.17694 0.10247 0.0
C18 C 0.48145 0.0383 0.15858 0.0
C19 C 0.4865 0.12289 0.10763 0.0
O20 O 0.41524 0.93946 0.1157 0.0
O21 O 0.38539 0.96987 0.09005 0.0
O22 O 0.47805 0.04362 0.06918 0.0
O23 O 0.53248 0.04199 0.08933 0.0
O24 O 0.49225 0.96794 0.11899 0.0
O25 O 0.57083 1.02405 0.11398 0.0
O26 O 0.62186 0.10962 0.14455 0.0
O27 O 0.60953 0.15652 0.12111 0.0
O28 O 0.5252 0.04728 0.16191 0.0
O29 O 0.47919 0.0548 0.13883 0.0
O30 O 0.53054 0.12959 0.10729 0.0
O31 O 0.44932 0.07907 0.11171 0.0
H32 H 0.32422 0.87347 0.06545 0.0
H33 H 0.26549 0.78672 0.06856 0.0
H34 H 0.27927 0.79685 0.14529 0.0
H35 H 0.33696 0.88246 0.14216 0.0
H36 H 0.71992 0.19863 0.16223 0.0
H37 H 0.80391 0.24573 0.14937 0.0
H38 H 0.75897 0.20493 0.07623 0.0
H39 H 0.6746 0.15849 0.08922 0.0
C40 C 0.16653 0.4479 0.1036 0.0
Eu41 Eu 0.09422 0.46337 0.10157 0.0
C42 C 0.21973 0.47724 0.10484 0.0
C43 C 0.24845 0.48418 0.08468 0.0
C44 C 0.29882 0.50831 0.08682 0.0
C45 C 0.32085 0.52534 0.10918 0.0
C46 C 0.29235 0.52033 0.12904 0.0
C47 C 0.24239 0.49639 0.12695 0.0
C48 C 0.06127 0.49319 0.06529 0.0
C49 C 0.13713 0.57848 0.11567 0.0
C50 C 0.96496 0.52628 0.1189 0.0
Eu51 Eu 1.02732 0.49739 0.11773 0.0
C52 C 0.92905 0.54232 0.11907 0.0
C53 C 0.92944 0.57241 0.13742 0.0
C54 C 0.90036 0.5935 0.13584 0.0
C55 C 0.87026 0.58479 0.11591 0.0
C56 C 0.86909 0.55372 0.09783 0.0
C57 C 0.89843 0.53296 0.09933 0.0
C58 C 0.05344 0.45323 0.15231 0.0
C59 C 0.98042 0.38774 0.09787 0.0
O60 O 0.14422 0.4519 0.12216 0.0
O61 O 0.14457 0.44593 0.08345 0.0
O62 O 0.06915 0.45704 0.0641 0.0
O63 O 0.07409 0.51425 0.08543 0.0
O64 O 0.14639 0.54325 0.11103 0.0
O65 O 0.09278 0.56988 0.11746 0.0
O66 O 0.9702 0.50432 0.10042 0.0
O67 O 0.99109 0.52932 0.13759 0.0
O68 O 0.04649 0.48922 0.15673 0.0
O69 O 1.04349 0.44176 0.13093 0.0
O70 O 0.97479 0.42542 0.10146 0.0
O71 O 1.02341 0.39107 0.10005 0.0
H72 H 0.23203 0.46974 0.06747 0.0
H73 H 0.32039 0.51163 0.07131 0.0
H74 H 0.30873 0.53339 0.14641 0.0
H75 H 0.22161 0.49171 0.14296 0.0
H76 H 0.95323 0.58083 0.15267 0.0
H77 H 0.90176 0.61702 0.15012 0.0
H78 H 0.84506 0.54491 0.08266 0.0
H79 H 0.89761 0.51013 0.08482 0.0
C80 C 0.64819 0.73684 0.08923 0.0
Eu81 Eu 0.63425 0.65257 0.10273 0.0
C82 C 0.62686 0.76786 0.09386 0.0
C83 C 0.61768 0.79019 0.07463 0.0
C84 C 0.59961 0.82145 0.07858 0.0
C85 C 0.59037 0.83101 0.1019 0.0
C86 C 0.5985 0.80778 0.12109 0.0
C87 C 0.61618 0.77627 0.11709 0.0
C88 C 0.61224 0.58094 0.07045 0.0
C89 C 0.5225 0.58454 0.11718 0.0
C90 C 0.58115 0.46729 0.13459 0.0
Eu91 Eu 0.60027 0.55554 0.12533 0.0
C92 C 0.55254 0.41496 0.12876 0.0
C93 C 0.54337 0.38121 0.14689 0.0
C94 C 0.52385 0.33204 0.14155 0.0
C95 C 0.51297 0.31521 0.11785 0.0
C96 C 0.51965 0.3488 0.09984 0.0
C97 C 0.53952 0.39814 0.1052 0.0
C98 C 0.62873 0.63052 0.15734 0.0
C99 C 0.71343 0.62192 0.11079 0.0
O100 O 0.67213 0.73097 0.10659 0.0
O101 O 0.62143 0.69697 0.07739 0.0
O102 O 0.6509 0.623 0.0703 0.0
O103 O 0.58799 0.57725 0.08896 0.0
O104 O 0.55902 0.6294 0.11714 0.0
O105 O 0.52972 0.54772 0.11539 0.0
O106 O 0.61277 0.49558 0.11888 0.0
O107 O 0.56052 0.48814 0.14581 0.0
O108 O 0.5963 0.58627 0.16202 0.0
O109 O 0.64752 0.6312 0.13771 0.0
O110 O 0.67694 0.57887 0.11575 0.0
O111 O 0.70788 0.6596 0.10678 0.0
H112 H 0.62508 0.78393 0.05652 0.0
H113 H 0.59332 0.83861 0.06342 0.0
H114 H 0.59249 0.81497 0.13928 0.0
H115 H 0.62187 0.75917 0.13228 0.0
H116 H 0.5534 0.39321 0.16517 0.0
H117 H 0.51956 0.30756 0.15589 0.0
H118 H 0.51063 0.33716 0.08147 0.0
H119 H 0.54616 0.42331 0.09082 0.0
C120 C 0.95766 0.34406 0.94744 0.0
Eu121 Eu 1.02477 0.43155 0.93615 0.0
C122 C 0.90473 0.31676 0.94781 0.0
C123 C 0.88126 0.26932 0.95626 0.0
C124 C 0.83145 0.24014 0.95338 0.0
C125 C 0.80438 0.25799 0.94193 0.0
C126 C 0.82773 0.30623 0.93432 0.0
C127 C 0.87759 0.33541 0.93724 0.0
C128 C 0.06855 0.50145 0.96936 0.0
C129 C 0.97649 0.49795 0.92142 0.0
C130 C 0.15026 0.62261 0.91543 0.0
Eu131 Eu 0.08682 0.53146 0.9161 0.0
C132 C 0.18731 0.67443 0.91665 0.0
C133 C 0.19089 0.70668 0.89871 0.0
C134 C 0.22281 0.75636 0.90132 0.0
C135 C 0.25197 0.77468 0.92185 0.0
C136 C 0.24839 0.74226 0.93969 0.0
C137 C 0.21646 0.69282 0.93714 0.0
C138 C 0.05067 0.4597 0.88202 0.0
C139 C 0.13757 0.46801 0.9295 0.0
O140 O 0.97637 0.35701 0.92636 0.0
O141 O 0.97957 0.37854 0.96314 0.0
O142 O 0.06685 0.4601 0.9699 0.0
O143 O 0.04792 0.50455 0.95067 0.0
O144 O 0.96955 0.45395 0.92489 0.0
O145 O 1.01996 0.53554 0.92008 0.0
O146 O 0.14627 0.59357 0.9328 0.0
O147 O 0.12125 0.60159 0.89722 0.0
O148 O 0.061 0.50393 0.87783 0.0
O149 O 0.06472 0.45771 0.90269 0.0
O150 O 0.14295 0.51105 0.92551 0.0
O151 O 0.09434 0.42893 0.93156 0.0
H152 H 0.90169 0.25425 0.96429 0.0
H153 H 0.81421 0.20316 0.95957 0.0
H154 H 0.80787 0.3207 0.92515 0.0
H155 H 0.89507 0.37176 0.93032 0.0
H156 H 0.16832 0.69368 0.88292 0.0
H157 H 0.22419 0.78049 0.88741 0.0
H158 H 0.2707 0.75509 0.95558 0.0
H159 H 0.21428 0.66908 0.95145 0.0
C160 C 0.76033 0.63593 0.95155 0.0
Eu161 Eu 0.67527 0.62242 0.94012 0.0
C162 C 0.78639 0.60966 0.9464 0.0
C163 C 0.81744 0.60802 0.96365 0.0
C164 C 0.84284 0.58374 0.9589 0.0
C165 C 0.83798 0.56125 0.93671 0.0
C166 C 0.8059 0.56172 0.91972 0.0
C167 C 0.77977 0.58506 0.92467 0.0
C168 C 0.60586 0.59865 0.97358 0.0
C169 C 0.60656 0.50924 0.92689 0.0
C170 C 0.48579 0.56027 0.91573 0.0
Eu171 Eu 0.57668 0.58727 0.91966 0.0
C172 C 0.43409 0.54617 0.91418 0.0
C173 C 0.40126 0.50509 0.90117 0.0
C174 C 0.3514 0.48709 0.90306 0.0
C175 C 0.33337 0.51001 0.91788 0.0
C176 C 0.36646 0.552 0.93025 0.0
C177 C 0.41611 0.56976 0.92848 0.0
C178 C 0.64853 0.61572 0.88606 0.0
C179 C 0.64038 0.70022 0.93528 0.0
O180 O 0.75276 0.65756 0.93365 0.0
O181 O 0.72261 0.61356 0.96525 0.0
O182 O 0.64788 0.63741 0.97395 0.0
O183 O 0.60189 0.57495 0.9548 0.0
O184 O 0.65145 0.54581 0.92614 0.0
O185 O 0.5708 0.51765 0.92968 0.0
O186 O 0.51461 0.59219 0.93135 0.0
O187 O 0.50706 0.5451 0.90089 0.0
O188 O 0.60384 0.58301 0.88214 0.0
O189 O 0.65105 0.63528 0.90581 0.0
O190 O 0.59757 0.66312 0.93029 0.0
O191 O 0.67927 0.69567 0.93757 0.0
H192 H 0.82238 0.62592 0.98071 0.0
H193 H 0.86745 0.58384 0.97225 0.0
H194 H 0.80132 0.54426 0.90256 0.0
H195 H 0.7546 0.58393 0.91145 0.0
H196 H 0.41395 0.48562 0.89035 0.0
H197 H 0.32697 0.45431 0.89355 0.0
H198 H 0.3539 0.57097 0.94155 0.0
H199 H 0.44035 0.60131 0.93888 0.0
C200 C 0.47668 0.15384 0.94141 0.0
Eu201 Eu 0.48864 0.07913 0.93822 0.0
C202 C 0.50609 0.20684 0.94384 0.0
C203 C 0.48928 0.23143 0.95801 0.0
C204 C 0.51127 0.28172 0.95683 0.0
C205 C 0.55036 0.30818 0.9414 0.0
C206 C 0.56938 0.28396 0.92851 0.0
C207 C 0.54728 0.23366 0.92961 0.0
C208 C 0.51492 0.03968 0.97357 0.0
C209 C 0.60232 0.11854 0.92568 0.0
C210 C 0.535 0.94093 0.90987 0.0
Eu211 Eu 0.5185 1.01182 0.91918 0.0
C212 C 0.5644 0.91828 0.91594 0.0
C213 C 0.57604 0.89564 0.89777 0.0
C214 C 0.59722 0.86755 0.90319 0.0
C215 C 0.60723 0.8613 0.92697 0.0
C216 C 0.59799 0.88627 0.94506 0.0
C217 C 0.57659 0.91429 0.93963 0.0
C218 C 0.47889 0.04687 0.88617 0.0
C219 C 0.41002 0.96748 0.93773 0.0
O220 O 0.48221 0.13629 0.92141 0.0
O221 O 0.47249 0.12686 0.95985 0.0
O222 O 0.47874 0.04742 0.97437 0.0
O223 O 0.53676 0.05374 0.95375 0.0
O224 O 0.56711 0.12871 0.927 0.0
O225 O 0.5926 0.07348 0.92588 0.0
O226 O 0.50422 0.93877 0.92578 0.0
O227 O 0.55536 0.98174 0.89821 0.0
O228 O 0.51463 0.03997 0.88151 0.0
O229 O 0.46556 0.03308 0.90686 0.0
O230 O 0.44806 0.96185 0.93738 0.0
O231 O 0.41504 1.01091 0.93491 0.0
H232 H 0.45754 0.2116 0.96899 0.0
H233 H 0.49615 0.29979 0.96702 0.0
H234 H 0.59928 0.30356 0.91641 0.0
H235 H 0.56089 0.21566 0.91831 0.0
H236 H 0.56682 0.89797 0.87939 0.0
H237 H 0.60353 0.84874 0.8888 0.0
H238 H 0.60616 0.88316 0.96352 0.0
H239 H 0.56818 0.93152 0.95401 0.0
C240 C 0.04615 0.28031 0.42838 0.0
Eu241 Eu 0.13348 0.35054 0.43686 0.0
C242 C 1.02052 0.22765 0.43299 0.0
C243 C 0.99599 0.19494 0.41438 0.0
C244 C 0.96985 0.14519 0.4188 0.0
C245 C 0.96758 0.12728 0.44196 0.0
C246 C 0.9939 0.15991 0.46033 0.0
C247 C 1.02004 0.20952 0.4559 0.0
C248 C 0.20114 0.39701 0.4028 0.0
C249 C 0.20253 0.30456 0.44539 0.0
C250 C 0.31323 0.46929 0.47485 0.0
Eu251 Eu 0.22722 0.40694 0.45867 0.0
C252 C 0.36343 0.50119 0.46702 0.0
C253 C 0.4012 0.51272 0.4832 0.0
C254 C 0.44872 0.54693 0.47735 0.0
C255 C 0.45954 0.57021 0.45508 0.0
C256 C 0.42172 0.5574 0.43857 0.0
C257 C 0.3741 0.52316 0.44446 0.0
C258 C 0.15111 0.35952 0.48965 0.0
C259 C 0.17329 0.46257 0.44036 0.0
O260 O 0.05789 0.30867 0.44703 0.0
O261 O 0.08045 0.29632 0.41249 0.0
O262 O 0.15864 0.39288 0.40317 0.0
O263 O 0.20705 0.37742 0.42123 0.0
O264 O 0.15783 0.29628 0.44755 0.0
O265 O 0.23796 0.34913 0.44378 0.0
O266 O 0.28115 0.48069 0.468 0.0
O267 O 0.29659 0.42281 0.4743 0.0
O268 O 0.19104 0.35901 0.49183 0.0
O269 O 0.15387 0.3841 0.47196 0.0
O270 O 0.21521 0.4644 0.44227 0.0
O271 O 0.13255 0.42072 0.441 0.0
H272 H 0.99622 0.20794 0.39651 0.0
H273 H 0.94983 0.12087 0.4043 0.0
H274 H 0.99343 0.14709 0.47826 0.0
H275 H 1.03918 0.23372 0.4705 0.0
H276 H 0.3937 0.49646 0.50076 0.0
H277 H 0.47662 0.55672 0.49072 0.0
H278 H 0.42885 0.57468 0.42127 0.0
H279 H 0.34552 0.51485 0.43166 0.0
C280 C 0.82784 0.78368 0.43913 0.0
Eu281 Eu 0.76311 0.80972 0.44136 0.0
C282 C 0.88047 0.81098 0.44173 0.0
C283 C 0.90859 0.79507 0.43009 0.0
C284 C 0.95851 0.81982 0.43325 0.0
C285 C 0.98087 0.86101 0.44794 0.0
C286 C 0.95295 0.87795 0.45894 0.0
C287 C 0.90296 0.8529 0.45594 0.0
C288 C 0.72794 0.83768 0.40476 0.0
C289 C 0.81897 0.92777 0.45241 0.0
C290 C 0.64747 0.8878 0.45744 0.0
Eu291 Eu 0.70865 0.85745 0.45702 0.0
C292 C 0.6122 0.90459 0.45584 0.0
C293 C 0.59664 0.91814 0.47629 0.0
C294 C 0.56071 0.93078 0.47449 0.0
C295 C 0.53993 0.93016 0.45221 0.0
C296 C 0.5566 0.91797 0.43173 0.0
C297 C 0.59243 0.90544 0.43352 0.0
C298 C 0.74421 0.82498 0.49228 0.0
C299 C 0.64967 0.74093 0.44542 0.0
O300 O 0.80352 0.78005 0.45849 0.0
O301 O 0.81035 0.79342 0.42017 0.0
O302 O 0.72717 0.79669 0.40573 0.0
O303 O 0.74766 0.8623 0.42334 0.0
O304 O 0.82219 0.88813 0.45009 0.0
O305 O 0.77712 0.92587 0.45266 0.0
O306 O 0.65951 0.87318 0.43822 0.0
O307 O 0.66864 0.88582 0.47718 0.0
O308 O 0.74617 0.86659 0.49352 0.0
O309 O 0.72304 0.80374 0.47356 0.0
O310 O 0.64861 0.78142 0.44835 0.0
O311 O 0.69102 0.74107 0.44434 0.0
H312 H 0.89188 0.76301 0.41898 0.0
H313 H 0.97967 0.80618 0.4247 0.0
H314 H 0.96952 0.90919 0.47061 0.0
H315 H 0.88189 0.86558 0.46526 0.0
H316 H 0.61134 0.91786 0.49369 0.0
H317 H 0.54825 0.93988 0.49058 0.0
H318 H 0.54042 0.91596 0.41445 0.0
H319 H 0.60363 0.89511 0.41739 0.0
C320 C 0.3299 0.07448 0.43891 0.0
Eu321 Eu 0.29276 0.98242 0.44415 0.0
C322 C 0.30551 0.1031 0.43727 0.0
C323 C 0.32248 0.14222 0.42162 0.0
C324 C 0.30049 0.17057 0.42094 0.0
C325 C 0.26128 0.16028 0.43597 0.0
C326 C 0.24323 0.11997 0.45098 0.0
C327 C 0.265 0.09151 0.45154 0.0
C328 C 0.24207 0.91648 0.40947 0.0
C329 C 0.18128 0.92266 0.45725 0.0
C330 C 0.21603 0.79167 0.472 0.0
Eu331 Eu 0.25174 0.88294 0.46175 0.0
C332 C 0.21375 0.74602 0.46503 0.0
C333 C 0.20543 0.71184 0.48274 0.0
C334 C 0.19697 0.66584 0.47661 0.0
C335 C 0.19673 0.65303 0.45259 0.0
C336 C 0.20599 0.68767 0.43482 0.0
C337 C 0.21445 0.7338 0.44098 0.0
C338 C 0.28067 0.95479 0.49561 0.0
C339 C 0.36208 0.93584 0.44495 0.0
O340 O 0.32618 0.0541 0.45963 0.0
O341 O 0.32371 0.04574 0.4209 0.0
O342 O 0.23895 0.95442 0.41434 0.0
O343 O 0.27016 0.91299 0.4244 0.0
O344 O 0.21982 0.96596 0.45911 0.0
O345 O 0.18565 0.88496 0.45261 0.0
O346 O 0.1956 0.80826 0.45753 0.0
O347 O 0.25581 0.82589 0.48166 0.0
O348 O 0.2394 0.91529 0.49656 0.0
O349 O 0.30222 0.95362 0.47748 0.0
O350 O 0.32383 0.89464 0.45083 0.0
O351 O 0.35994 0.97558 0.44106 0.0
H352 H 0.35327 0.15141 0.41031 0.0
H353 H 0.31498 0.20142 0.40912 0.0
H354 H 0.21375 0.11166 0.46307 0.0
H355 H 0.25088 0.06121 0.46368 0.0
H356 H 0.20431 0.72036 0.50137 0.0
H357 H 0.1905 0.64015 0.4907 0.0
H358 H 0.20555 0.67873 0.41615 0.0
H359 H 0.22034 0.75945 0.42696 0.0
C360 C 0.61932 0.6971 0.27185 0.0
Eu361 Eu 0.70018 0.77779 0.27218 0.0
C362 C 0.57295 0.65158 0.26963 0.0
C363 C 0.54417 0.63055 0.28983 0.0
C364 C 0.49526 0.59577 0.2872 0.0
C365 C 0.47463 0.58106 0.26436 0.0
C366 C 0.5042 0.60031 0.24425 0.0
C367 C 0.55278 0.63521 0.24685 0.0
C368 C 0.74241 0.84119 0.30809 0.0
C369 C 0.6669 0.85943 0.26244 0.0
C370 C 0.84203 0.95899 0.24345 0.0
Eu371 Eu 0.76935 0.87341 0.25347 0.0
C372 C 0.8646 1.01047 0.25044 0.0
C373 C 0.88985 0.04602 0.23323 0.0
C374 C 0.9164 0.09481 0.23969 0.0
C375 C 0.91843 0.10925 0.2636 0.0
C376 C 0.89117 0.07371 0.28068 0.0
C377 C 0.86459 1.02476 0.27418 0.0
C378 C 0.72735 0.79886 0.2204 0.0
C379 C 0.81027 0.80554 0.27247 0.0
O380 O 0.63451 0.72766 0.25415 0.0
O381 O 0.64973 0.70857 0.2898 0.0
O382 O 0.7297 0.79573 0.30893 0.0
O383 O 0.72959 0.85121 0.28843 0.0
O384 O 0.65416 0.81332 0.2642 0.0
O385 O 0.71273 0.89234 0.26185 0.0
O386 O 0.84411 0.92951 0.2589 0.0
O387 O 0.80072 0.93971 0.23216 0.0
O388 O 0.73415 0.84174 0.2166 0.0
O389 O 0.74413 0.79885 0.2404 0.0
O390 O 0.81761 0.84987 0.27126 0.0
O391 O 0.76622 0.76794 0.26943 0.0
H392 H 0.55858 0.64324 0.30755 0.0
H393 H 0.47324 0.58127 0.303 0.0
H394 H 0.48922 0.5901 0.22643 0.0
H395 H 0.57392 0.65123 0.23094 0.0
H396 H 0.89045 0.03587 0.21483 0.0
H397 H 0.93716 0.12105 0.22611 0.0
H398 H 0.8912 0.08363 0.29916 0.0
H399 H 0.84512 0.99803 0.2878 0.0
C400 C 0.43237 0.98221 0.27807 0.0
Eu401 Eu 0.34236 0.9608 0.27529 0.0
C402 C 0.46133 0.95806 0.27941 0.0
C403 C 0.50666 0.98199 0.29049 0.0
C404 C 0.53808 0.96362 0.28879 0.0
C405 C 0.52491 0.9212 0.27572 0.0
C406 C 0.47835 0.89573 0.26578 0.0
C407 C 0.4468 0.91405 0.26756 0.0
C408 C 0.27786 0.93408 0.31108 0.0
C409 C 0.2725 0.84504 0.26492 0.0
C410 C 0.15348 0.90149 0.24722 0.0
Eu411 Eu 0.24264 0.92351 0.25681 0.0
C412 C 0.10149 0.87199 0.25334 0.0
C413 C 0.06712 0.85641 0.23489 0.0
C414 C 1.0178 0.83566 0.23993 0.0
C415 C 1.0014 0.82961 0.26365 0.0
C416 C 1.03582 0.84333 0.28216 0.0
C417 C 0.08528 0.86432 0.27709 0.0
C418 C 0.31557 0.96129 0.22316 0.0
C419 C 0.30203 0.03374 0.27515 0.0
O420 O 0.40904 0.97638 0.25807 0.0
O421 O 0.40717 0.98046 0.29678 0.0
O422 O 0.32138 0.97087 0.31173 0.0
O423 O 0.27018 0.91106 0.29157 0.0
O424 O 0.31724 0.88184 0.2657 0.0
O425 O 0.23546 0.85221 0.2653 0.0
O426 O 0.18174 0.93501 0.26229 0.0
O427 O 0.17495 0.88082 0.23671 0.0
O428 O 0.27408 0.92297 0.21967 0.0
O429 O 0.31503 0.97761 0.24327 0.0
O430 O 0.2595 0.99425 0.27386 0.0
O431 O 0.34221 0.03179 0.27273 0.0
H432 H 0.5185 1.01588 0.29974 0.0
H433 H 0.57328 0.98335 0.29717 0.0
H434 H 0.46716 0.86284 0.25571 0.0
H435 H 0.4119 0.89487 0.25886 0.0
H436 H 0.07865 0.86249 0.21644 0.0
H437 H 0.99288 0.82697 0.22517 0.0
H438 H 1.02462 0.83926 0.30064 0.0
H439 H 0.11091 0.87617 0.29172 0.0
C440 C 0.14601 0.48849 0.27356 0.0
Eu441 Eu 0.15664 0.41277 0.27083 0.0
C442 C 0.17449 0.5419 0.27344 0.0
C443 C 0.18769 0.56917 0.29464 0.0
C444 C 0.20989 0.61969 0.29373 0.0
C445 C 0.21877 0.64338 0.27163 0.0
C446 C 0.20706 0.61622 0.25056 0.0
C447 C 0.1851 0.56621 0.25142 0.0
C448 C 0.18383 0.37469 0.3063 0.0
C449 C 0.26848 0.447 0.25575 0.0
C450 C 0.19342 0.26955 0.24234 0.0
Eu451 Eu 0.18016 0.34227 0.25194 0.0
C452 C 0.22223 0.24701 0.24951 0.0
C453 C 0.23893 0.22798 0.23179 0.0
C454 C 0.26099 0.20111 0.23795 0.0
C455 C 0.26705 0.19283 0.26203 0.0
C456 C 0.25195 0.21355 0.27979 0.0
C457 C 0.22984 0.24047 0.27361 0.0
C458 C 0.13898 0.37598 0.21903 0.0
C459 C 0.07669 0.30225 0.27542 0.0
O460 O 0.14821 0.46807 0.25389 0.0
O461 O 0.14575 0.46436 0.2925 0.0
O462 O 0.14868 0.38393 0.30748 0.0
O463 O 0.20415 0.38632 0.28597 0.0
O464 O 0.23534 0.45986 0.25852 0.0
O465 O 0.25624 0.40132 0.2562 0.0
O466 O 0.21561 0.31075 0.23112 0.0
O467 O 0.16149 0.26753 0.25747 0.0
O468 O 0.17337 0.36727 0.21407 0.0
O469 O 0.1272 0.36454 0.24021 0.0
O470 O 0.11407 0.29583 0.27374 0.0
O471 O 0.08163 0.34524 0.27098 0.0
H472 H 0.17953 0.55147 0.31184 0.0
H473 H 0.21803 0.63998 0.31024 0.0
H474 H 0.21347 0.63368 0.23332 0.0
H475 H 0.175 0.54654 0.23468 0.0
H476 H 0.23316 0.23227 0.2131 0.0
H477 H 0.27098 0.18472 0.2238 0.0
H478 H 0.25605 0.20778 0.29849 0.0
H479 H 0.21737 0.25481 0.28767 0.0
C480 C 0.70187 0.60006 0.76696 0.0
Eu481 Eu 0.78398 0.67842 0.76718 0.0
C482 C 0.65531 0.55542 0.76823 0.0
C483 C 0.63706 0.52654 0.74776 0.0
C484 C 0.60353 0.47744 0.74995 0.0
C485 C 0.58769 0.45701 0.77262 0.0
C486 C 0.60257 0.48694 0.79284 0.0
C487 C 0.63632 0.53581 0.79068 0.0
C488 C 0.84614 0.71749 0.73067 0.0
C489 C 0.86291 0.64311 0.77927 0.0
C490 C 0.97113 0.81462 0.78762 0.0
Eu491 Eu 0.8815 0.748 0.78446 0.0
C492 C 1.02222 0.85272 0.78933 0.0
C493 C 0.0536 0.8469 0.80478 0.0
C494 C 0.10363 0.87616 0.8025 0.0
C495 C 0.12319 0.91218 0.7849 0.0
C496 C 0.09157 0.91935 0.77023 0.0
C497 C 1.04166 0.88983 0.77235 0.0
C498 C 0.8107 0.70782 0.81903 0.0
C499 C 0.81077 0.78857 0.76946 0.0
O500 O 0.73114 0.61442 0.78531 0.0
O501 O 0.71561 0.62986 0.7488 0.0
O502 O 0.8016 0.70785 0.73036 0.0
O503 O 0.85579 0.70465 0.75044 0.0
O504 O 0.81738 0.63053 0.77524 0.0
O505 O 0.89634 0.68833 0.78039 0.0
O506 O 0.94414 0.81052 0.76917 0.0
O507 O 0.94827 0.78541 0.80533 0.0
O508 O 0.85463 0.71671 0.82234 0.0
O509 O 0.80836 0.7231 0.79893 0.0
O510 O 0.85563 0.79815 0.7721 0.0
O511 O 0.77387 0.74382 0.77027 0.0
H512 H 0.65173 0.54083 0.73032 0.0
H513 H 0.59157 0.45505 0.73408 0.0
H514 H 0.59045 0.47196 0.81047 0.0
H515 H 0.65018 0.5574 0.80675 0.0
H516 H 1.03962 0.81784 0.81767 0.0
H517 H 0.12691 0.86919 0.81386 0.0
H518 H 0.10545 0.94729 0.75675 0.0
H519 H 1.01838 0.8948 0.76 0.0
C520 C 0.50361 0.12968 0.76171 0.0
Eu521 Eu 0.42803 0.13947 0.76803 0.0
C522 C 0.55629 0.15882 0.75845 0.0
C523 C 0.57997 0.13972 0.74516 0.0
C524 C 0.63025 0.16122 0.74621 0.0
C525 C 0.65736 0.20206 0.76058 0.0
C526 C 0.6341 0.22291 0.77277 0.0
C527 C 0.58389 0.20159 0.77164 0.0
C528 C 0.38389 0.16155 0.73316 0.0
C529 C 0.46129 0.25124 0.78173 0.0
C530 C 0.28461 0.1781 0.79658 0.0
Eu531 Eu 0.35704 0.16407 0.78742 0.0
C532 C 0.26268 0.20789 0.78995 0.0
C533 C 0.24247 0.22288 0.80788 0.0
C534 C 0.21609 0.24572 0.80208 0.0
C535 C 0.20944 0.25435 0.77812 0.0
C536 C 0.23137 0.24097 0.7602 0.0
C537 C 0.25776 0.21805 0.76603 0.0
C538 C 0.39677 0.12952 0.82061 0.0
C539 C 0.31841 0.05682 0.76893 0.0
O540 O 0.48805 0.13471 0.78235 0.0
O541 O 0.475 0.12628 0.74416 0.0
O542 O 0.39249 0.12597 0.73255 0.0
O543 O 0.39843 0.18424 0.75281 0.0
O544 O 0.47447 0.21818 0.78005 0.0
O545 O 0.41564 0.23902 0.78102 0.0
O546 O 0.28304 0.14717 0.78082 0.0
O547 O 0.32517 0.19887 0.80855 0.0
O548 O 0.38558 0.16236 0.82527 0.0
O549 O 0.38356 0.11507 0.79986 0.0
O550 O 0.31023 0.09321 0.76882 0.0
O551 O 0.3626 0.06438 0.77269 0.0
H552 H 0.55943 0.10661 0.73508 0.0
H553 H 0.64775 0.14454 0.73682 0.0
H554 H 0.65452 0.25422 0.78408 0.0
H555 H 0.56653 0.21693 0.78221 0.0
H556 H 0.24543 0.21515 0.82643 0.0
H557 H 0.19878 0.25427 0.81633 0.0
H558 H 0.22696 0.24702 0.74158 0.0
H559 H 0.273 0.20697 0.7518 0.0
C560 C 0.97953 0.40892 0.76279 0.0
Eu561 Eu 0.97428 0.32616 0.76168 0.0
C562 C 0.98031 0.45484 0.76585 0.0
C563 C 0.97589 0.47862 0.74582 0.0
C564 C 0.95916 0.5113 0.74846 0.0
C565 C 0.94733 0.52088 0.77118 0.0
C566 C 0.95519 0.49965 0.79129 0.0
C567 C 0.9717 0.46711 0.78867 0.0
C568 C 0.94469 0.26133 0.72614 0.0
C569 C 0.85763 0.25601 0.77375 0.0
C570 C 0.90927 0.13537 0.78204 0.0
Eu571 Eu 0.93749 0.22649 0.77999 0.0
C572 C 0.89382 0.08358 0.78283 0.0
C573 C 0.85516 0.05218 0.79739 0.0
C574 C 0.8344 1.00213 0.79485 0.0
C575 C 0.85208 0.98262 0.77777 0.0
C576 C 0.89241 1.01429 0.76411 0.0
C577 C 0.9127 0.06419 0.76644 0.0
C578 C 0.97658 0.29851 0.81398 0.0
C579 C 0.05049 0.28948 0.76443 0.0
O580 O 0.95958 0.37629 0.77948 0.0
O581 O 1.00075 0.3985 0.74554 0.0
O582 O 0.98142 0.30494 0.72487 0.0
O583 O 0.92348 0.25469 0.74606 0.0
O584 O 0.89344 0.2982 0.76686 0.0
O585 O 0.86494 0.2202 0.77877 0.0
O586 O 0.93166 0.16207 0.76357 0.0
O587 O 0.90503 0.15879 0.80023 0.0
O588 O 0.94098 0.25539 0.81827 0.0
O589 O 0.9913 0.29896 0.7934 0.0
O590 O 1.01209 0.24628 0.76706 0.0
O591 O 0.04705 0.32926 0.76526 0.0
H592 H 0.98134 0.46894 0.72804 0.0
H593 H 0.95368 0.52766 0.73272 0.0
H594 H 0.94585 0.50597 0.80898 0.0
H595 H 0.97417 0.44881 0.80442 0.0
H596 H 0.83953 0.06624 0.80996 0.0
H597 H 0.8037 0.9787 0.8058 0.0
H598 H 0.90829 1.00057 0.75152 0.0
H599 H 0.94252 0.0876 0.75498 0.0
C600 C 0.29397 1.01713 0.60453 0.0
Eu601 Eu 0.3604 0.10698 0.60045 0.0
C602 C 0.24095 0.99149 0.60097 0.0
C603 C 0.2097 0.9864 0.61978 0.0
C604 C 0.15965 0.96091 0.61638 0.0
C605 C 0.13994 0.94005 0.59412 0.0
C606 C 0.17117 0.94662 0.57512 0.0
C607 C 0.22105 0.97182 0.57853 0.0
C608 C 0.4023 0.1723 0.63597 0.0
C609 C 0.30575 0.17097 0.59461 0.0
C610 C 0.4729 0.29787 0.57832 0.0
Eu611 Eu 0.41244 0.2067 0.58259 0.0
C612 C 0.50851 0.34994 0.57813 0.0
C613 C 0.51332 0.37903 0.55841 0.0
C614 C 0.54714 0.42849 0.55892 0.0
C615 C 0.57657 0.44944 0.57914 0.0
C616 C 0.57101 0.42034 0.59892 0.0
C617 C 0.53741 0.37123 0.59843 0.0
C618 C 0.37042 0.13536 0.54888 0.0
C619 C 0.47358 0.151 0.59211 0.0
O620 O 0.32017 0.0348 0.58535 0.0
O621 O 0.31135 0.04648 0.62282 0.0
O622 O 0.40198 0.13153 0.63469 0.0
O623 O 0.38028 0.1766 0.61818 0.0
O624 O 0.3008 0.1272 0.59296 0.0
O625 O 0.34887 0.20896 0.59526 0.0
O626 O 0.47325 0.27131 0.59594 0.0
O627 O 0.44009 0.27451 0.56182 0.0
O628 O 0.36814 0.17481 0.54779 0.0
O629 O 0.39486 0.13712 0.56659 0.0
O630 O 0.47336 0.19161 0.58838 0.0
O631 O 0.43277 0.11 0.59582 0.0
H632 H 0.22382 1.00115 0.63729 0.0
H633 H 0.1364 0.95559 0.63145 0.0
H634 H 0.15689 0.93087 0.55777 0.0
H635 H 0.24397 0.97502 0.56366 0.0
H636 H 0.49116 0.36359 0.54264 0.0
H637 H 0.55044 0.45031 0.5435 0.0
H638 H 0.59357 0.43535 0.61462 0.0
H639 H 0.53435 0.34991 0.61403 0.0
C640 C 0.0789 0.30157 0.60517 0.0
Eu641 Eu 0.99092 0.28105 0.59584 0.0
C642 C 0.10358 0.27291 0.60553 0.0
C643 C 0.13561 0.27956 0.62414 0.0
C644 C 0.16148 0.25497 0.62404 0.0
C645 C 0.15621 0.22348 0.60519 0.0
C646 C 0.12232 0.215 0.58714 0.0
C647 C 0.096 0.2393 0.58741 0.0
C648 C 0.92273 0.26002 0.62964 0.0
C649 C 0.92622 0.16501 0.58989 0.0
C650 C 0.80907 0.21054 0.55795 0.0
Eu651 Eu 0.8962 0.23874 0.57426 0.0
C652 C 0.75873 0.19473 0.56469 0.0
C653 C 0.7285 0.19754 0.54743 0.0
C654 C 0.68126 0.18528 0.55305 0.0
C655 C 0.66293 0.16981 0.57612 0.0
C656 C 0.69277 0.16564 0.59336 0.0
C657 C 0.74051 0.17816 0.58769 0.0
C658 C 0.97218 0.26731 0.54326 0.0
C659 C 0.94863 0.35051 0.59016 0.0
O660 O 0.06501 0.30852 0.5843 0.0
O661 O 0.04669 0.29176 0.62174 0.0
O662 O 0.96432 0.29938 0.62877 0.0
O663 O 0.91795 0.23347 0.61183 0.0
O664 O 0.97016 0.20245 0.58776 0.0
O665 O 0.8891 0.17186 0.58998 0.0
O666 O 0.82564 0.18129 0.56201 0.0
O667 O 0.84123 0.25551 0.56209 0.0
O668 O 0.93308 0.22598 0.54165 0.0
O669 O 0.96872 0.29003 0.56039 0.0
O670 O 0.90713 0.30953 0.58913 0.0
O671 O 0.9899 0.3504 0.5895 0.0
H672 H 0.14156 0.30475 0.63847 0.0
H673 H 0.18721 0.26208 0.63827 0.0
H674 H 0.11795 0.1916 0.57221 0.0
H675 H 0.07075 0.23288 0.5731 0.0
H676 H 0.74176 0.21012 0.52959 0.0
H677 H 0.65918 0.18886 0.5394 0.0
H678 H 0.67983 0.15448 0.61136 0.0
H679 H 0.76336 0.17583 0.60131 0.0
C680 C 0.80483 0.8125 0.6114 0.0
Eu681 Eu 0.82286 0.74424 0.60017 0.0
C682 C 0.83184 0.86548 0.60954 0.0
C683 C 0.83412 0.89343 0.62927 0.0
C684 C 0.85719 0.9436 0.62747 0.0
C685 C 0.87818 0.96668 0.60583 0.0
C686 C 0.87774 0.93877 0.58636 0.0
C687 C 0.85495 0.88855 0.58824 0.0
C688 C 0.84316 0.69444 0.63307 0.0
C689 C 0.93784 0.79271 0.59056 0.0
C690 C 0.88212 0.62154 0.56553 0.0
Eu691 Eu 0.86214 0.68866 0.57787 0.0
C692 C 0.90635 0.59409 0.57229 0.0
C693 C 0.92252 0.57535 0.55418 0.0
C694 C 0.93595 0.54081 0.55938 0.0
C695 C 0.9332 0.52404 0.58283 0.0
C696 C 0.92001 0.54519 0.60121 0.0
C697 C 0.90656 0.57978 0.596 0.0
C698 C 0.83568 0.73809 0.54697 0.0
C699 C 0.74673 0.63609 0.58874 0.0
O700 O 0.79085 0.78834 0.59133 0.0
O701 O 0.82149 0.79357 0.62671 0.0
O702 O 0.80334 0.6958 0.63187 0.0
O703 O 0.86952 0.71683 0.61539 0.0
O704 O 0.90048 0.79978 0.58954 0.0
O705 O 0.93084 0.7487 0.59173 0.0
O706 O 0.84513 0.6141 0.57841 0.0
O707 O 0.90787 0.66639 0.55851 0.0
O708 O 0.87407 0.73479 0.5439 0.0
O709 O 0.81339 0.71366 0.56458 0.0
O710 O 0.78505 0.63158 0.58542 0.0
O711 O 0.75053 0.6783 0.59327 0.0
H712 H 0.81706 0.87637 0.64594 0.0
H713 H 0.85724 0.96433 0.64279 0.0
H714 H 0.89289 0.95545 0.56936 0.0
H715 H 0.85421 0.86775 0.57284 0.0
H716 H 0.92223 0.58546 0.53576 0.0
H717 H 0.94583 0.52519 0.54481 0.0
H718 H 0.91848 0.53375 0.61953 0.0
H719 H 0.8942 0.59362 0.61034 0.0
C720 C 0.58925 0.94899 0.09937 0.0
C721 C 0.5503 0.94056 0.1141 0.0
C722 C 0.60137 0.91313 0.09536 0.0
C723 C 0.57544 0.86757 0.10618 0.0
H724 H 0.61016 0.98338 0.09047 0.0
H725 H 0.63173 0.92139 0.0839 0.0
S726 S 0.47073 0.82749 0.14668 0.0
N727 N 0.48588 0.88348 0.13968 0.0
N728 N 0.50903 0.81598 0.13241 0.0
C729 C 0.53661 0.85873 0.12116 0.0
C730 C 0.52385 0.89518 0.12499 0.0
C731 C 0.19866 0.7132 0.12574 0.0
C732 C 0.23719 0.73169 0.10952 0.0
C733 C 0.1683 0.66343 0.12851 0.0
C734 C 0.17543 0.62991 0.1154 0.0
H735 H 0.19118 0.73745 0.13599 0.0
H736 H 0.13815 0.65108 0.14066 0.0
S737 S 0.27283 0.65948 0.07156 0.0
N738 N 0.28234 0.71258 0.08093 0.0
N739 N 0.22487 0.61871 0.08609 0.0
C740 C 0.21474 0.64774 0.09967 0.0
C741 C 0.24556 0.69867 0.09667 0.0
C742 C 0.40767 0.58348 0.10003 0.0
C743 C 0.37276 0.54307 0.11258 0.0
C744 C 0.45701 0.59915 0.10276 0.0
C745 C 0.47238 0.57417 0.11775 0.0
H746 H 0.39671 0.60262 0.0879 0.0
H747 H 0.48298 0.62941 0.09226 0.0
S748 S 0.39513 0.46704 0.15475 0.0
N749 N 0.35693 0.47929 0.14086 0.0
N750 N 0.44933 0.50837 0.14578 0.0
C751 C 0.43782 0.53444 0.13071 0.0
C752 C 0.388 0.51892 0.12816 0.0
C753 C 0.89968 0.48571 0.93953 0.0
C754 C 0.9358 0.50757 0.9221 0.0
C755 C 0.86717 0.50242 0.94391 0.0
C756 C 0.86917 0.54072 0.93063 0.0
H757 H 0.89833 0.45753 0.95079 0.0
H758 H 0.84105 0.48608 0.95811 0.0
S759 S 0.95509 0.60814 0.88218 0.0
N760 N 0.97035 0.56825 0.89096 0.0
N761 N 0.9087 0.59865 0.89885 0.0
C762 C 0.90364 0.56127 0.91248 0.0
C763 C 0.93708 0.54492 0.90829 0.0
C764 C 0.61449 0.39616 0.93935 0.0
C765 C 0.56623 0.35936 0.93615 0.0
C766 C 0.62851 0.44492 0.93519 0.0
C767 C 0.59471 0.45806 0.92745 0.0
H768 H 0.6411 0.38732 0.94579 0.0
H769 H 0.66543 0.47245 0.93891 0.0
S770 S 0.46564 0.37376 0.91277 0.0
N771 N 0.48614 0.3386 0.92243 0.0
N772 N 0.51202 0.42917 0.91413 0.0
C773 C 0.54704 0.42091 0.9228 0.0
C774 C 0.5329 0.37184 0.92728 0.0
C775 C 0.68988 0.14692 0.9214 0.0
C776 C 0.65338 0.15726 0.92758 0.0
C777 C 0.73849 0.18011 0.92576 0.0
C778 C 0.75266 0.22502 0.93649 0.0
H779 H 0.68084 0.11244 0.91353 0.0
H780 H 0.76525 0.17031 0.92087 0.0
S781 S 0.67166 0.27031 0.9559 0.0
N782 N 0.63499 0.21617 0.94479 0.0
N783 N 0.72668 0.27874 0.95283 0.0
C784 C 0.71685 0.23659 0.94215 0.0
C785 C 0.66713 0.20267 0.93774 0.0
C786 C 0.27777 0.24413 0.44105 0.0
C787 C 0.2437 0.19511 0.4381 0.0
C788 C 0.26355 0.27851 0.44376 0.0
C789 C 0.2145 0.26556 0.44365 0.0
H790 H 0.316 0.25614 0.44158 0.0
H791 H 0.29172 0.31576 0.44595 0.0
S792 S 0.11056 0.14155 0.43675 0.0
N793 N 0.15845 0.13474 0.43539 0.0
N794 N 0.13147 0.19993 0.44062 0.0
C795 C 0.17971 0.21651 0.44102 0.0
C796 C 0.19436 0.18116 0.43825 0.0
C797 C 0.93449 0.0388 0.43324 0.0
C798 C 0.93428 0.07536 0.44726 0.0
C799 C 0.89928 0.98993 0.4363 0.0
C800 C 0.86232 0.9763 0.45318 0.0
H801 H 0.96121 0.04823 0.41937 0.0
H802 H 0.89924 0.96317 0.42441 0.0
S803 S 0.84732 0.05737 0.49532 0.0
N804 N 0.89534 0.09381 0.47952 0.0
N805 N 0.82942 1.00251 0.48511 0.0
C806 C 0.8631 1.01218 0.468 0.0
C807 C 0.89901 0.06159 0.46509 0.0
C808 C 0.09631 0.86788 0.4673 0.0
C809 C 0.13184 0.91393 0.4596 0.0
C810 C 0.0475 0.8522 0.46437 0.0
C811 C 1.03233 0.88211 0.45386 0.0
H812 H 0.10628 0.84262 0.47453 0.0
H813 H 1.02139 0.81564 0.46953 0.0
S814 S 0.11041 1.00824 0.43388 0.0
N815 N 0.14863 0.99119 0.44332 0.0
N816 N 0.05577 0.96165 0.43813 0.0
C817 C 0.06706 0.92969 0.44792 0.0
C818 C 0.11725 0.94572 0.45078 0.0
C819 C 0.54883 0.85715 0.27542 0.0
C820 C 0.56072 0.90528 0.27137 0.0
C821 C 0.58293 0.84219 0.27196 0.0
C822 C 0.63012 0.87478 0.26423 0.0
H823 H 0.51325 0.83113 0.28181 0.0
H824 H 0.57247 0.80507 0.27589 0.0
S825 S 0.67737 1.00357 0.24854 0.0
N826 N 0.62153 0.98439 0.25735 0.0
N827 N 0.68556 0.95671 0.251 0.0
C828 C 0.6418 0.92263 0.25937 0.0
C829 C 0.60716 0.93776 0.2629 0.0
C830 C 0.21983 0.75844 0.25517 0.0
C831 C 0.26251 0.79475 0.26575 0.0
C832 C 0.20643 0.70982 0.25718 0.0
C833 C 0.23484 0.69545 0.2701 0.0
H834 H 0.19631 0.76764 0.24534 0.0
H835 H 0.17305 0.68309 0.24883 0.0
S836 S 0.34987 0.77618 0.30132 0.0
N837 N 0.33337 0.81318 0.28961 0.0
N838 N 0.30772 0.72112 0.29355 0.0
C839 C 0.27769 0.73122 0.28078 0.0
C840 C 0.29176 0.78108 0.27847 0.0
C841 C 0.38823 0.55676 0.27257 0.0
C842 C 0.42202 0.54729 0.26134 0.0
C843 C 0.33833 0.52554 0.26967 0.0
C844 C 0.32056 0.48339 0.25573 0.0
H845 H 0.40047 0.58858 0.28365 0.0
H846 H 0.31361 0.53354 0.2791 0.0
S847 S 0.39397 0.44291 0.22218 0.0
N848 N 0.4341 0.49344 0.23535 0.0
N849 N 0.34068 0.43467 0.23004 0.0
C850 C 0.35401 0.47402 0.24413 0.0
C851 C 0.40463 0.50598 0.24689 0.0
C852 C 0.86071 0.56882 0.7636 0.0
C853 C 0.87939 0.60764 0.77975 0.0
C854 C 0.88314 0.54096 0.76072 0.0
C855 C 0.92458 0.55099 0.77405 0.0
H856 H 0.83005 0.56131 0.7524 0.0
H857 H 0.86813 0.51154 0.74794 0.0
S858 S 0.98609 0.64763 0.81927 0.0
N859 N 0.94029 0.65344 0.8099 0.0
N860 N 0.98261 0.60163 0.8042 0.0
C861 C 0.9426 0.58884 0.79069 0.0
C862 C 0.9199 0.617 0.79363 0.0
C863 C 0.51426 0.38557 0.7884 0.0
C864 C 0.55735 0.40431 0.77547 0.0
C865 C 0.4845 0.33583 0.79114 0.0
C866 C 0.49706 0.30308 0.78132 0.0
H867 H 0.50295 0.40951 0.79599 0.0
H868 H 0.45088 0.3229 0.8007 0.0
S869 S 0.60798 0.33423 0.74726 0.0
N870 N 0.61274 0.38684 0.75381 0.0
N871 N 0.5564 0.29291 0.75892 0.0
C872 C 0.54091 0.32138 0.76904 0.0
C873 C 0.5711 0.37215 0.76606 0.0
C874 C 0.74481 0.25344 0.75049 0.0
C875 C 0.70876 0.21888 0.76523 0.0
C876 C 0.79352 0.26718 0.75407 0.0
C877 C 0.80738 0.24621 0.77231 0.0
H878 H 0.73517 0.26915 0.73586 0.0
H879 H 0.82019 0.29285 0.74189 0.0
S880 S 0.72629 0.15651 0.81665 0.0
N881 N 0.68991 0.16612 0.79944 0.0
N882 N 0.78116 0.19119 0.80603 0.0
C883 C 0.77154 0.21258 0.78752 0.0
C884 C 0.72223 0.19908 0.78402 0.0
C885 C 0.2407 0.24079 0.60504 0.0
C886 C 0.19167 0.20651 0.60267 0.0
C887 C 0.27619 0.22812 0.60248 0.0
C888 C 0.26481 0.18033 0.59731 0.0
H889 H 0.25207 0.27832 0.60859 0.0
H890 H 0.3132 0.25684 0.6046 0.0
S891 S 0.14134 0.07629 0.58918 0.0
N892 N 0.13278 0.12227 0.59479 0.0
N893 N 0.20034 0.0982 0.58983 0.0
C894 C 0.21579 0.14527 0.59481 0.0
C895 C 0.17911 0.15843 0.59741 0.0
C896 C 0.86287 0.03514 0.6098 0.0
C897 C 0.89417 1.01854 0.60278 0.0
C898 C 0.87429 0.08268 0.60577 0.0
C899 C 0.91762 0.11588 0.59458 0.0
H900 H 0.82845 1.01079 0.61793 0.0
H901 H 0.84853 0.09329 0.6114 0.0
S902 S 1.01309 0.09122 0.57361 0.0
N903 N 0.97124 0.03926 0.58478 0.0
N904 N 0.99283 0.12934 0.5771 0.0
C905 C 0.94998 0.10029 0.58792 0.0
C906 C 0.93813 0.0514 0.59194 0.0
C907 C 0.07286 0.85924 0.58256 0.0
C908 C 0.08754 0.90557 0.59156 0.0
C909 C 1.02426 0.82377 0.58181 0.0
C910 C 0.98809 0.83312 0.58986 0.0
H911 H 0.09932 0.84969 0.57677 0.0
H912 H 1.0151 0.78838 0.57513 0.0
S913 S 1.00702 0.94982 0.61335 0.0
N914 N 0.06198 0.95997 0.6076 0.0
N915 N 0.96989 0.89296 0.60588 0.0
C916 C 1.00187 0.87984 0.59804 0.0
C917 C 0.05179 0.91608 0.59907 0.0
C918 C 0.56396 0.09463 0.03233 0.0
C919 C 0.5444 0.05346 0.04685 0.0
C920 C 0.56232 0.09031 1.00738 0.0
C921 C 0.53993 0.04461 0.99632 0.0
H922 H 0.57531 0.12973 0.04016 0.0
H923 H 0.57255 0.12235 0.99681 0.0
S924 S 0.49157 0.92674 0.02651 0.0
N925 N 0.50968 0.96649 0.04853 0.0
N926 N 0.50472 0.95833 1.00158 0.0
C927 C 0.52585 1.00386 1.01061 0.0
C928 C 0.52855 1.00832 0.03598 0.0
C929 C 0.10922 0.54454 1.00619 0.0
C930 C 0.06682 0.52225 0.99243 0.0
C931 C 0.10714 0.54271 0.03118 0.0
C932 C 0.06258 0.51765 0.04297 0.0
H933 H 0.144 0.55824 0.99766 0.0
H934 H 0.14045 0.55512 0.0411 0.0
S935 S 0.94152 0.46132 1.01507 0.0
N936 N 0.97929 0.48175 0.99235 0.0
N937 N 0.97548 0.47688 0.03937 0.0
C938 C 1.02016 0.50082 0.02953 0.0
C939 C 1.02226 0.50352 1.00412 0.0
C940 C 0.60694 0.54828 1.00661 0.0
C941 C 0.58715 0.57502 0.99667 0.0
C942 C 0.60861 0.5434 0.03143 0.0
C943 C 0.58941 0.56401 0.04691 0.0
H944 H 0.62649 0.53628 0.99539 0.0
H945 H 0.62966 0.52818 0.03854 0.0
S946 S 0.52569 0.62945 0.02937 0.0
N947 N 0.54266 0.61681 1.00382 0.0
N948 N 0.54343 0.6055 0.05041 0.0
C949 C 0.56375 0.58499 0.03696 0.0
C950 C 0.56332 0.59118 1.01177 0.0
C951 C 0.23825 0.43234 0.36392 0.0
C952 C 0.21813 0.39221 0.37913 0.0
C953 C 0.23482 0.42627 0.33904 0.0
C954 C 0.2099 0.37989 0.32873 0.0
H955 H 0.25202 0.46828 0.37122 0.0
H956 H 0.24594 0.45787 0.32798 0.0
S957 S 0.1571 0.26361 0.36083 0.0
N958 N 0.17879 0.30488 0.38216 0.0
N959 N 0.17039 0.29365 0.33542 0.0
C960 C 0.19449 0.33981 0.34367 0.0
C961 C 0.19904 0.34595 0.36896 0.0
C962 C 0.77919 0.87988 0.37032 0.0
C963 C 0.73369 0.85975 0.38122 0.0
C964 C 0.7833 0.88136 0.3454 0.0
C965 C 0.74214 0.86368 0.33083 0.0
H966 H 0.81095 0.88888 0.38098 0.0
H967 H 0.81794 0.89102 0.33761 0.0
S968 S 0.61634 0.81672 0.35091 0.0
N969 N 0.6479 0.82844 0.37588 0.0
N970 N 0.65577 0.83292 0.32896 0.0
C971 C 0.69749 0.84989 0.34159 0.0
C972 C 0.69317 0.84734 0.36692 0.0
C973 C 0.22018 0.91927 0.34376 0.0
C974 C 0.25556 0.91101 0.33385 0.0
C975 C 0.2114 0.91452 0.36841 0.0
C976 C 0.23848 0.90235 0.38397 0.0
H977 H 0.20235 0.93366 0.3328 0.0
H978 H 0.18656 0.92506 0.37556 0.0
S979 S 0.3291 0.86855 0.36575 0.0
N980 N 0.31263 0.8831 0.34054 0.0
N981 N 0.29671 0.87469 0.38692 0.0
C982 C 0.26999 0.88864 0.3738 0.0
C983 C 0.27861 0.89316 0.34868 0.0
C984 C 0.88617 0.75325 0.69236 0.0
C985 C 0.86595 0.71328 0.70769 0.0
C986 C 0.88561 0.74702 0.66753 0.0
C987 C 0.86355 0.70052 0.65729 0.0
H988 H 0.89795 0.78905 0.69939 0.0
H989 H 0.89717 0.77839 0.65624 0.0
S990 S 0.81179 0.5849 0.68994 0.0
N991 N 0.82949 0.62634 0.71114 0.0
N992 N 0.8264 0.61457 0.6644 0.0
C993 C 0.84763 0.66077 0.6725 0.0
C994 C 0.84936 0.66719 0.69779 0.0
C995 C 0.35272 0.16904 0.67037 0.0
C996 C 0.39863 0.18909 0.65987 0.0
C997 C 0.34761 0.16678 0.69527 0.0
C998 C 0.38828 0.18552 0.71025 0.0
H999 H 0.32057 0.14995 0.65943 0.0
H1000 H 0.31182 0.14557 0.70275 0.0
S1001 S 0.51616 0.2495 0.69132 0.0
N1002 N 0.4852 0.23337 0.66606 0.0
N1003 N 0.47572 0.23106 0.71288 0.0
C1004 C 0.43425 0.21127 0.69986 0.0
C1005 C 0.43943 0.21242 0.67457 0.0
C1006 C 0.88798 0.26156 0.66863 0.0
C1007 C 0.90677 0.23989 0.65359 0.0
C1008 C 0.89325 0.2612 0.69347 0.0
C1009 C 0.9186 0.24028 0.70381 0.0
H1010 H 0.87395 0.28332 0.66111 0.0
H1011 H 0.88299 0.28269 0.70432 0.0
S1012 S 0.96798 0.17274 0.67239 0.0
N1013 N 0.94511 0.1908 0.65095 0.0
N1014 N 0.9569 0.19217 0.69761 0.0
C1015 C 0.93266 0.21397 0.6892 0.0
C1016 C 0.92622 0.21324 0.66399 0.0
C1017 C 0.35625 0.95949 0.18502 0.0
C1018 C 0.35832 0.98201 0.20688 0.0
C1019 C 0.39649 0.9779 0.16978 0.0
C1020 C 0.44108 1.01818 0.17605 0.0
H1021 H 0.32318 0.92767 0.17948 0.0
H1022 H 0.39263 0.96044 0.15291 0.0
S1023 S 0.46476 0.0939 0.22991 0.0
N1024 N 0.4079 0.0509 0.23264 0.0
N1025 N 0.48408 0.08218 0.20486 0.0
C1026 C 0.44369 0.04145 0.19765 0.0
C1027 C 0.4022 1.02417 0.21278 0.0
C1028 C 0.0722 0.4378 0.19401 0.0
C1029 C 0.06914 0.42782 0.16949 0.0
C1030 C 0.09045 0.41686 0.21001 0.0
C1031 C 0.11254 0.39071 0.20199 0.0
H1032 H 0.05931 0.46091 0.20099 0.0
H1033 H 0.0865 0.4209 0.22873 0.0
S1034 S 0.09592 0.3381 0.14154 0.0
N1035 N 0.07166 0.37311 0.13988 0.0
N1036 N 0.11808 0.34509 0.16884 0.0
C1037 C 0.10591 0.37699 0.1779 0.0
C1038 C 0.0816 0.39314 0.16202 0.0
C1039 C 0.68836 0.75914 0.18139 0.0
C1040 C 0.70117 0.75506 0.20488 0.0
C1041 C 0.66457 0.71833 0.16651 0.0
C1042 C 0.6507 0.67161 0.17452 0.0
H1043 H 0.6976 0.79418 0.17425 0.0
H1044 H 0.65684 0.72311 0.14848 0.0
S1045 S 0.67681 0.64056 0.23421 0.0
N1046 N 0.70037 0.69974 0.23508 0.0
N1047 N 0.65229 0.62344 0.20745 0.0
C1048 C 0.66257 0.66665 0.19802 0.0
C1049 C 0.68866 0.7083 0.21303 0.0
C1050 C 1.01089 0.37154 0.87155 0.0
C1051 C 1.03514 0.41991 0.86403 0.0
C1052 C 0.99126 0.33267 0.85543 0.0
C1053 C 0.99929 0.34032 0.83089 0.0
H1054 H 1.00742 0.36337 0.89003 0.0
H1055 H 0.97082 0.2963 0.86235 0.0
S1056 S 0.07911 0.45942 0.80261 0.0
N1057 N 0.07501 0.47297 0.83063 0.0
N1058 N 0.04632 0.40002 0.80059 0.0
C1059 C 1.02994 0.3884 0.82328 0.0
C1060 C 0.04613 0.42819 0.83967 0.0
C1061 C 0.73516 0.64722 0.87459 0.0
C1062 C 0.68823 0.63628 0.86808 0.0
C1063 C 0.77442 0.66966 0.85875 0.0
C1064 C 0.7686 0.68326 0.83569 0.0
H1065 H 0.74153 0.63789 0.89205 0.0
H1066 H 0.80963 0.67683 0.86474 0.0
S1067 S 0.65275 0.66387 0.80984 0.0
N1068 N 0.63799 0.64035 0.83681 0.0
N1069 N 0.71127 0.68463 0.80736 0.0
C1070 C 0.72157 0.67272 0.82896 0.0
C1071 C 0.68152 0.64864 0.84497 0.0
C1072 C 0.44015 0.08366 0.82929 0.0
C1073 C 0.41431 0.10578 0.83767 0.0
C1074 C 0.46206 0.06593 0.84494 0.0
C1075 C 0.4539 0.06398 0.86957 0.0
H1076 H 0.4429 0.07906 0.81053 0.0
H1077 H 0.48419 0.05221 0.83761 0.0
S1078 S 0.36818 0.09435 0.8991 0.0
N1079 N 0.37222 0.11413 0.87153 0.0
N1080 N 0.40311 0.06997 0.90023 0.0
C1081 C 0.42065 0.07783 0.87767 0.0
C1082 C 0.40302 0.10103 0.86198 0.0
C1083 C 1.03672 0.33548 0.52086 0.0
C1084 C 1.01576 0.28713 0.52812 0.0
C1085 C 0.08082 0.35833 0.50879 0.0
C1086 C 0.10702 0.33456 0.50441 0.0
H1087 H 1.0187 0.35589 0.5245 0.0
H1088 H 0.09481 0.39527 0.50298 0.0
S1089 S 0.06856 0.20785 0.52019 0.0
N1090 N 1.02407 0.21568 0.52981 0.0
N1091 N 0.10893 0.25984 0.50835 0.0
C1092 C 0.0871 0.28642 0.51198 0.0
C1093 C 1.04091 0.26236 0.52348 0.0
C1094 C 0.74396 0.75665 0.51315 0.0
C1095 C 0.76875 0.80615 0.50773 0.0
C1096 C 0.7667 0.73502 0.5252 0.0
C1097 C 0.81582 0.76147 0.53143 0.0
H1098 H 0.70642 0.73433 0.50805 0.0
H1099 H 0.74558 0.69706 0.52966 0.0
S1100 S 0.89777 0.89191 0.5206 0.0
N1101 N 0.84541 0.88123 0.50942 0.0
N1102 N 0.88891 0.83984 0.53119 0.0
C1103 C 0.84153 0.81085 0.52575 0.0
C1104 C 0.8178 0.8334 0.51413 0.0
C1105 C 0.34898 1.02259 0.51659 0.0
C1106 C 0.29964 0.9987 0.51074 0.0
C1107 C 0.37128 0.06742 0.52818 0.0
C1108 C 0.34576 0.0914 0.53373 0.0
H1109 H 0.37072 1.00638 0.51212 0.0
H1110 H 0.40912 0.08354 0.53289 0.0
S1111 S 0.21573 0.04495 0.52198 0.0
N1112 N 0.22552 1.0023 0.51136 0.0
N1113 N 0.26801 0.08769 0.53271 0.0
C1114 C 0.2964 0.06838 0.52778 0.0
C1115 C 0.2732 1.02175 0.51641 0.0
C1116 C 0.4658 0.22526 0.12653 0.0
C1117 C 0.49883 0.26382 0.11206 0.0
C1118 C 0.45769 0.17787 0.12357 0.0
C1119 C 0.48255 0.16728 0.10609 0.0
H1120 H 0.4474 0.23212 0.14089 0.0
H1121 H 0.43453 0.15028 0.13611 0.0
S1122 S 0.57041 0.25359 0.0626 0.0
N1123 N 0.55471 0.28666 0.0788 0.0
N1124 N 0.53891 0.19822 0.07312 0.0
C1125 C 0.51344 0.20473 0.09068 0.0
C1126 C 0.52173 0.25275 0.09367 0.0
C1127 C 0.87841 0.26593 0.11619 0.0
C1128 C 0.83872 0.26387 0.10398 0.0
C1129 C 0.92589 0.30359 0.11216 0.0
C1130 C 0.93527 0.34071 0.09592 0.0
H1131 H 0.87245 0.23951 0.1298 0.0
H1132 H 0.95476 0.30574 0.12322 0.0
S1133 S 0.84539 0.35052 0.05799 0.0
N1134 N 0.81313 0.30105 0.07375 0.0
N1135 N 0.90195 0.37121 0.06624 0.0
C1136 C 0.8965 0.33732 0.08249 0.0
C1137 C 0.84835 0.29909 0.08649 0.0
C1138 C 0.7719 0.61068 0.13415 0.0
C1139 C 0.76121 0.6266 0.11286 0.0
C1140 C 0.80913 0.59996 0.13526 0.0
C1141 C 0.83694 0.60449 0.11504 0.0
H1142 H 0.74916 0.60341 0.14968 0.0
H1143 H 0.81397 0.58498 0.15168 0.0
S1144 S 0.82674 0.65047 0.05574 0.0
N1145 N 0.7833 0.65034 0.0717 0.0
N1146 N 0.85456 0.63114 0.07372 0.0
C1147 C 0.82873 0.62365 0.09403 0.0
C1148 C 0.79058 0.63462 0.09297 0.0
C1149 C 0.2612 0.48833 0.94377 0.0
C1150 C 0.28041 0.4905 0.92085 0.0
C1151 C 0.2128 0.47606 0.94686 0.0
C1152 C 0.18164 0.46469 0.92722 0.0
H1153 H 0.28424 0.49798 0.95939 0.0
H1154 H 0.20047 0.4782 0.96457 0.0
S1155 S 0.21274 0.46382 0.86369 0.0
N1156 N 0.2634 0.47917 0.87825 0.0
N1157 N 0.17244 0.45532 0.88428 0.0
C1158 C 0.19952 0.46447 0.90441 0.0
C1159 C 0.24883 0.47737 0.90116 0.0
C1160 C 0.65857 0.82296 0.91887 0.0
C1161 C 0.62296 0.82541 0.9327 0.0
C1162 C 0.66814 0.78462 0.92139 0.0
C1163 C 0.64226 0.74725 0.93776 0.0
H1164 H 0.67778 0.84983 0.90528 0.0
H1165 H 0.69337 0.78245 0.90931 0.0
S1166 S 0.54749 0.73727 0.97913 0.0
N1167 N 0.56351 0.78749 0.96418 0.0
N1168 N 0.58175 0.7162 0.96887 0.0
C1169 C 0.60858 0.75057 0.95252 0.0
C1170 C 0.59891 0.78944 0.95005 0.0
C1171 C 0.33026 0.89855 0.95037 0.0
C1172 C 0.36386 0.92371 0.93238 0.0
C1173 C 0.29255 0.851 0.94646 0.0
C1174 C 0.28763 0.82708 0.92452 0.0
H1175 H 0.33456 0.91469 0.96786 0.0
H1176 H 0.26805 0.83221 0.96099 0.0
S1177 S 0.36714 0.8786 0.87185 0.0
N1178 N 0.38959 0.92249 0.89183 0.0
N1179 N 0.31986 0.83317 0.88462 0.0
C1180 C 0.3203 0.85288 0.90619 0.0
C1181 C 0.3582 0.90116 0.91013 0.0
C1182 C 0.14791 0.5627 0.4567 0.0
C1183 C 0.18719 0.60367 0.4464 0.0
C1184 C 0.14111 0.51615 0.45313 0.0
C1185 C 0.17375 0.50906 0.4394 0.0
H1186 H 0.12293 0.56684 0.46812 0.0
H1187 H 0.11183 0.48603 0.46233 0.0
S1188 S 0.28028 0.60342 0.40716 0.0
N1189 N 0.25743 0.63331 0.42075 0.0
N1190 N 0.2447 0.54613 0.4141 0.0
C1191 C 0.21177 0.54932 0.42812 0.0
C1192 C 0.21847 0.59653 0.43158 0.0
C1193 C 0.5604 0.69594 0.4392 0.0
C1194 C 0.6027 0.69497 0.44524 0.0
C1195 C 0.51464 0.65494 0.44151 0.0
C1196 C 0.50902 0.61113 0.45013 0.0
H1197 H 0.56246 0.72908 0.43312 0.0
H1198 H 0.4833 0.65826 0.43742 0.0
S1199 S 0.60819 0.58819 0.46695 0.0
N1200 N 0.63607 0.64562 0.45913 0.0
N1201 N 0.54997 0.56835 0.46333 0.0
C1202 C 0.55105 0.60903 0.45542 0.0
C1203 C 0.59786 0.65089 0.45294 0.0
C1204 C 0.45788 0.90846 0.46587 0.0
C1205 C 0.49692 0.93604 0.45072 0.0
C1206 C 0.41476 0.90906 0.46364 0.0
C1207 C 0.40894 0.93757 0.44629 0.0
H1208 H 0.46008 0.88503 0.47915 0.0
H1209 H 0.38566 0.88689 0.47573 0.0
S1210 S 0.50084 1.01792 0.40278 0.0
N1211 N 0.52775 0.9938 0.41809 0.0
N1212 N 0.44614 0.99523 0.41412 0.0
C1213 C 0.44798 0.9664 0.43138 0.0
C1214 C 0.49203 0.96539 0.43347 0.0
C1215 C 0.89348 0.8357 0.28791 0.0
C1216 C 0.85432 0.80115 0.27428 0.0
C1217 C 0.94006 0.84239 0.28539 0.0
C1218 C 0.94989 0.81513 0.26891 0.0
H1219 H 0.88861 0.85978 0.29973 0.0
H1220 H 0.96914 0.87138 0.29538 0.0
S1221 S 0.8588 0.71617 0.23076 0.0
N1222 N 0.82751 0.73657 0.24512 0.0
N1223 N 0.91499 0.74859 0.24043 0.0
C1224 C 0.91036 0.77824 0.25625 0.0
C1225 C 0.86264 0.77126 0.25898 0.0
C1226 C 0.26469 0.08209 0.28796 0.0
C1227 C 0.30209 0.08009 0.2758 0.0
C1228 C 0.25568 0.12028 0.28448 0.0
C1229 C 0.28332 0.15787 0.26845 0.0
H1230 H 0.24056 0.05257 0.29939 0.0
H1231 H 0.22486 0.11869 0.29333 0.0
S1232 S 0.3883 0.17188 0.23378 0.0
N1233 N 0.3692 0.12071 0.24839 0.0
N1234 N 0.35243 0.19275 0.24181 0.0
C1235 C 0.32262 0.15775 0.25718 0.0
C1236 C 0.33207 0.11891 0.26093 0.0
C1237 C 0.95559 0.19896 0.2568 0.0
C1238 C 0.95235 0.16054 0.27062 0.0
C1239 C 0.99321 0.24678 0.2603 0.0
C1240 C 1.02913 0.2578 0.27763 0.0
H1241 H 0.93023 0.19163 0.24237 0.0
H1242 H 0.99641 0.27441 0.24805 0.0
S1243 S 1.03531 0.17196 0.31993 0.0
N1244 N 0.98695 0.13813 0.30353 0.0
N1245 N 0.05701 0.22759 0.31005 0.0
C1246 C 1.0244 0.22048 0.29263 0.0
C1247 C 0.98621 0.17198 0.28916 0.0
C1248 C 0.80728 0.85147 0.79305 0.0
C1249 C 0.80393 0.83049 0.77059 0.0
C1250 C 0.82004 0.9001 0.79519 0.0
C1251 C 0.83013 0.92944 0.77489 0.0
H1252 H 0.80403 0.83129 0.80915 0.0
H1253 H 0.8254 0.91555 0.81291 0.0
S1254 S 0.81955 0.88905 0.71187 0.0
N1255 N 0.80732 0.84073 0.72771 0.0
N1256 N 0.82943 0.93178 0.73142 0.0
C1257 C 0.82297 0.90756 0.75224 0.0
C1258 C 0.81035 0.85813 0.75016 0.0
C1259 C 0.24421 0.98547 0.75404 0.0
C1260 C 0.27561 1.00965 0.7731 0.0
C1261 C 0.1955 0.95174 0.75812 0.0
C1262 C 0.17627 0.94205 0.7814 0.0
H1263 H 0.25658 0.99508 0.73583 0.0
H1264 H 0.1722 0.93486 0.74285 0.0
S1265 S 0.24458 0.99656 0.83731 0.0
N1266 N 0.28519 1.02085 0.81598 0.0
N1267 N 0.19341 0.95898 0.82375 0.0
C1268 C 0.20808 0.96454 0.80066 0.0
C1269 C 0.25781 0.99807 0.79647 0.0
C1270 C 0.13891 0.24588 0.75451 0.0
C1271 C 0.17487 0.2714 0.7718 0.0
C1272 C 0.10092 0.25518 0.75083 0.0
C1273 C 0.09748 0.29084 0.76399 0.0
H1274 H 0.13828 0.2163 0.74476 0.0
H1275 H 0.07246 0.23237 0.73843 0.0
S1276 S 0.18459 0.37141 0.80964 0.0
N1277 N 0.20663 0.33692 0.80084 0.0
N1278 N 0.13486 0.35408 0.79386 0.0
C1279 C 0.13466 0.31884 0.78021 0.0
C1280 C 0.17332 0.30909 0.78418 0.0
C1281 C 0.56039 0.19632 0.58061 0.0
C1282 C 0.52135 0.15351 0.58976 0.0
C1283 C 0.60569 0.20105 0.57689 0.0
C1284 C 0.61474 0.16344 0.58223 0.0
H1285 H 0.55611 0.22675 0.57574 0.0
H1286 H 0.63398 0.23463 0.56954 0.0
S1287 S 0.52662 0.04443 0.60751 0.0
N1288 N 0.49566 0.07293 0.60478 0.0
N1289 N 0.58165 0.08217 0.59787 0.0
C1290 C 0.57685 0.12075 0.59199 0.0
C1291 C 0.53002 0.11565 0.59564 0.0
C1292 C 0.98371 0.43817 0.5799 0.0
C1293 C 0.94778 0.3965 0.59127 0.0
C1294 C 0.97961 0.47987 0.57785 0.0
C1295 C 0.9399 0.48175 0.58748 0.0
H1296 H 1.01409 0.43788 0.57158 0.0
H1297 H 1.00727 0.51058 0.56826 0.0
S1298 S 0.83777 0.38318 0.62045 0.0
N1299 N 0.87262 0.36058 0.61343 0.0
N1300 N 0.86487 0.4385 0.60959 0.0
C1301 C 0.90481 0.4409 0.59975 0.0
C1302 C 0.90876 0.39843 0.60163 0.0
C1303 C 0.62205 0.53015 0.59939 0.0
C1304 C 0.61563 0.50061 0.5794 0.0
C1305 C 0.66331 0.57593 0.60179 0.0
C1306 C 0.69952 0.59306 0.58442 0.0
H1307 H 0.59581 0.51701 0.61366 0.0
H1308 H 0.66815 0.59672 0.61788 0.0
S1309 S 0.69855 0.53209 0.52794 0.0
N1310 N 0.64784 0.49355 0.54131 0.0
N1311 N 0.72505 0.57944 0.54582 0.0
C1312 C 0.6924 0.56513 0.56383 0.0
C1313 C 0.65046 0.51891 0.56129 0.0
loop_
_geom_bond_atom_site_label_1
_geom_bond_atom_site_label_2
_geom_bond_distance
_geom_bond_site_symmetry_2
_ccdc_geom_bond_type
C0 Eu1 2.835 . S
C0 C2 1.500 . S
C0 O20 1.257 . S
C0 O21 1.260 . S
Eu1 C0 2.835 . S
Eu1 O20 2.473 . S
Eu1 O21 2.480 . S
Eu1 O22 2.430 . S
Eu1 O23 2.670 1_565 S
Eu1 O24 2.394 . S
Eu1 O29 2.355 . S
Eu1 O31 2.374 1_565 S
C2 C0 1.500 . S
C2 C3 1.377 . S
C2 C7 1.377 . S
C3 C2 1.377 . S
C3 C4 1.395 . S
C3 H32 0.931 . S
C4 C3 1.395 . S
C4 C5 1.383 . S
C4 H33 0.931 . S
C5 C4 1.383 . S
C5 C6 1.394 . S
C6 C5 1.394 . S
C6 C7 1.378 . S
C6 H34 0.931 . S
C7 C2 1.377 . S
C7 C6 1.378 . S
C7 H35 0.931 . S
C8 O22 1.259 1_545 S
C8 O23 1.270 . S
C9 O24 1.251 . S
C9 O25 1.251 . S
C10 Eu11 2.835 . S
C10 C12 1.500 . S
C10 O26 1.257 . S
C10 O27 1.260 . S
Eu11 C10 2.835 . S
Eu11 O23 2.355 . S
Eu11 O25 2.374 1_545 S
Eu11 O26 2.473 . S
Eu11 O27 2.480 . S
Eu11 O28 2.430 . S
Eu11 O29 2.670 1_545 S
Eu11 O30 2.394 . S
C12 C10 1.500 . S
C12 C13 1.377 . S
C12 C17 1.377 . S
C13 C12 1.377 . S
C13 C14 1.395 . S
C13 H36 0.931 . S
C14 C13 1.395 . S
C14 C15 1.383 . S
C14 H37 0.931 . S
C15 C14 1.383 . S
C15 C16 1.394 . S
C16 C15 1.394 . S
C16 C17 1.378 . S
C16 H38 0.931 . S
C17 C12 1.377 . S
C17 C16 1.378 . S
C17 H39 0.931 . S
C18 O28 1.259 . S
C18 O29 1.270 1_545 S
C19 O30 1.251 . S
C19 O31 1.251 . S
O20 C0 1.257 . S
O20 Eu1 2.473 . S
O21 C0 1.260 . S
O21 Eu1 2.480 . S
O22 Eu1 2.430 . S
O22 C8 1.259 1_565 S
O23 Eu1 2.670 1_545 S
O23 C8 1.270 . S
O23 Eu11 2.355 . S
O24 Eu1 2.394 . S
O24 C9 1.251 . S
O25 C9 1.251 . S
O25 Eu11 2.374 1_565 S
O26 C10 1.257 . S
O26 Eu11 2.473 . S
O27 C10 1.260 . S
O27 Eu11 2.480 . S
O28 Eu11 2.430 . S
O28 C18 1.259 . S
O29 Eu1 2.355 . S
O29 Eu11 2.670 1_565 S
O29 C18 1.270 1_565 S
O30 Eu11 2.394 . S
O30 C19 1.251 . S
O31 Eu1 2.374 1_545 S
O31 C19 1.251 . S
H32 C3 0.931 . S
H33 C4 0.931 . S
H34 C6 0.931 . S
H35 C7 0.931 . S
H36 C13 0.931 . S
H37 C14 0.931 . S
H38 C16 0.931 . S
H39 C17 0.931 . S
C40 Eu41 2.835 . S
C40 C42 1.500 . S
C40 O60 1.257 . S
C40 O61 1.260 . S
Eu41 C40 2.835 . S
Eu41 O60 2.473 . S
Eu41 O61 2.480 . S
Eu41 O62 2.430 . S
Eu41 O63 2.670 . S
Eu41 O64 2.394 . S
Eu41 O69 2.355 . S
Eu41 O71 2.374 1_455 S
C42 C40 1.500 . S
C42 C43 1.377 . S
C42 C47 1.377 . S
C43 C42 1.377 . S
C43 C44 1.395 . S
C43 H72 0.931 . S
C44 C43 1.395 . S
C44 C45 1.383 . S
C44 H73 0.931 . S
C45 C44 1.383 . S
C45 C46 1.394 . S
C46 C45 1.394 . S
C46 C47 1.378 . S
C46 H74 0.931 . S
C47 C42 1.377 . S
C47 C46 1.378 . S
C47 H75 0.931 . S
C48 O62 1.259 . S
C48 O63 1.270 . S
C49 O64 1.251 . S
C49 O65 1.251 . S
C50 Eu51 2.835 . S
C50 C52 1.500 . S
C50 O66 1.257 . S
C50 O67 1.260 . S
Eu51 C50 2.835 . S
Eu51 O63 2.355 1_655 S
Eu51 O65 2.374 1_655 S
Eu51 O66 2.473 . S
Eu51 O67 2.480 . S
Eu51 O68 2.430 1_655 S
Eu51 O69 2.670 1_655 S
Eu51 O70 2.394 . S
C52 C50 1.500 . S
C52 C53 1.377 . S
C52 C57 1.377 . S
C53 C52 1.377 . S
C53 C54 1.395 . S
C53 H76 0.931 . S
C54 C53 1.395 . S
C54 C55 1.383 . S
C54 H77 0.931 . S
C55 C54 1.383 . S
C55 C56 1.394 . S
C56 C55 1.394 . S
C56 C57 1.378 . S
C56 H78 0.931 . S
C57 C52 1.377 . S
C57 C56 1.378 . S
C57 H79 0.931 . S
C58 O68 1.259 . S
C58 O69 1.270 . S
C59 O70 1.251 . S
C59 O71 1.251 . S
O60 C40 1.257 . S
O60 Eu41 2.473 . S
O61 C40 1.260 . S
O61 Eu41 2.480 . S
O62 Eu41 2.430 . S
O62 C48 1.259 . S
O63 Eu41 2.670 . S
O63 C48 1.270 . S
O63 Eu51 2.355 1_455 S
O64 Eu41 2.394 . S
O64 C49 1.251 . S
O65 C49 1.251 . S
O65 Eu51 2.374 1_455 S
O66 C50 1.257 . S
O66 Eu51 2.473 . S
O67 C50 1.260 . S
O67 Eu51 2.480 . S
O68 Eu51 2.430 1_455 S
O68 C58 1.259 . S
O69 Eu41 2.355 . S
O69 Eu51 2.670 1_455 S
O69 C58 1.270 . S
O70 Eu51 2.394 . S
O70 C59 1.251 . S
O71 Eu41 2.374 1_655 S
O71 C59 1.251 . S
H72 C43 0.931 . S
H73 C44 0.931 . S
H74 C46 0.931 . S
H75 C47 0.931 . S
H76 C53 0.931 . S
H77 C54 0.931 . S
H78 C56 0.931 . S
H79 C57 0.931 . S
C80 Eu81 2.835 . S
C80 C82 1.500 . S
C80 O100 1.257 . S
C80 O101 1.260 . S
Eu81 C80 2.835 . S
Eu81 O100 2.473 . S
Eu81 O101 2.480 . S
Eu81 O102 2.430 . S
Eu81 O103 2.670 . S
Eu81 O104 2.394 . S
Eu81 O109 2.355 . S
Eu81 O111 2.374 . S
C82 C80 1.500 . S
C82 C83 1.377 . S
C82 C87 1.377 . S
C83 C82 1.377 . S
C83 C84 1.395 . S
C83 H112 0.931 . S
C84 C83 1.395 . S
C84 C85 1.383 . S
C84 H113 0.931 . S
C85 C84 1.383 . S
C85 C86 1.394 . S
C86 C85 1.394 . S
C86 C87 1.378 . S
C86 H114 0.931 . S
C87 C82 1.377 . S
C87 C86 1.378 . S
C87 H115 0.931 . S
C88 O102 1.259 . S
C88 O103 1.270 . S
C89 O104 1.251 . S
C89 O105 1.251 . S
C90 Eu91 2.835 . S
C90 C92 1.500 . S
C90 O106 1.257 . S
C90 O107 1.260 . S
Eu91 C90 2.835 . S
Eu91 O103 2.355 . S
Eu91 O105 2.374 . S
Eu91 O106 2.473 . S
Eu91 O107 2.480 . S
Eu91 O108 2.430 . S
Eu91 O109 2.670 . S
Eu91 O110 2.394 . S
C92 C90 1.500 . S
C92 C93 1.377 . S
C92 C97 1.377 . S
C93 C92 1.377 . S
C93 C94 1.395 . S
C93 H116 0.931 . S
C94 C93 1.395 . S
C94 C95 1.383 . S
C94 H117 0.931 . S
C95 C94 1.383 . S
C95 C96 1.394 . S
C96 C95 1.394 . S
C96 C97 1.378 . S
C96 H118 0.931 . S
C97 C92 1.377 . S
C97 C96 1.378 . S
C97 H119 0.931 . S
C98 O108 1.259 . S
C98 O109 1.270 . S
C99 O110 1.251 . S
C99 O111 1.251 . S
O100 C80 1.257 . S
O100 Eu81 2.473 . S
O101 C80 1.260 . S
O101 Eu81 2.480 . S
O102 Eu81 2.430 . S
O102 C88 1.259 . S
O103 Eu81 2.670 . S
O103 C88 1.270 . S
O103 Eu91 2.355 . S
O104 Eu81 2.394 . S
O104 C89 1.251 . S
O105 C89 1.251 . S
O105 Eu91 2.374 . S
O106 C90 1.257 . S
O106 Eu91 2.473 . S
O107 C90 1.260 . S
O107 Eu91 2.480 . S
O108 Eu91 2.430 . S
O108 C98 1.259 . S
O109 Eu81 2.355 . S
O109 Eu91 2.670 . S
O109 C98 1.270 . S
O110 Eu91 2.394 . S
O110 C99 1.251 . S
O111 Eu81 2.374 . S
O111 C99 1.251 . S
H112 C83 0.931 . S
H113 C84 0.931 . S
H114 C86 0.931 . S
H115 C87 0.931 . S
H116 C93 0.931 . S
H117 C94 0.931 . S
H118 C96 0.931 . S
H119 C97 0.931 . S
C120 Eu121 2.835 . S
C120 C122 1.500 . S
C120 O140 1.257 . S
C120 O141 1.260 . S
Eu121 C120 2.835 . S
Eu121 O140 2.473 . S
Eu121 O141 2.480 . S
Eu121 O142 2.430 . S
Eu121 O143 2.670 1_655 S
Eu121 O144 2.394 . S
Eu121 O149 2.355 . S
Eu121 O151 2.374 1_655 S
C122 C120 1.500 . S
C122 C123 1.377 . S
C122 C127 1.377 . S
C123 C122 1.377 . S
C123 C124 1.395 . S
C123 H152 0.931 . S
C124 C123 1.395 . S
C124 C125 1.383 . S
C124 H153 0.931 . S
C125 C124 1.383 . S
C125 C126 1.394 . S
C126 C125 1.394 . S
C126 C127 1.378 . S
C126 H154 0.931 . S
C127 C122 1.377 . S
C127 C126 1.378 . S
C127 H155 0.931 . S
C128 O142 1.259 1_455 S
C128 O143 1.270 . S
C129 O144 1.251 . S
C129 O145 1.251 . S
C130 Eu131 2.835 . S
C130 C132 1.500 . S
C130 O146 1.257 . S
C130 O147 1.260 . S
Eu131 C130 2.835 . S
Eu131 O143 2.355 . S
Eu131 O145 2.374 1_455 S
Eu131 O146 2.473 . S
Eu131 O147 2.480 . S
Eu131 O148 2.430 . S
Eu131 O149 2.670 1_455 S
Eu131 O150 2.394 . S
C132 C130 1.500 . S
C132 C133 1.377 . S
C132 C137 1.377 . S
C133 C132 1.377 . S
C133 C134 1.395 . S
C133 H156 0.931 . S
C134 C133 1.395 . S
C134 C135 1.383 . S
C134 H157 0.931 . S
C135 C134 1.383 . S
C135 C136 1.394 . S
C136 C135 1.394 . S
C136 C137 1.378 . S
C136 H158 0.931 . S
C137 C132 1.377 . S
C137 C136 1.378 . S
C137 H159 0.931 . S
C138 O148 1.259 . S
C138 O149 1.270 1_455 S
C139 O150 1.251 . S
C139 O151 1.251 . S
O140 C120 1.257 . S
O140 Eu121 2.473 . S
O141 C120 1.260 . S
O141 Eu121 2.480 . S
O142 Eu121 2.430 . S
O142 C128 1.259 1_655 S
O143 Eu121 2.670 1_455 S
O143 C128 1.270 . S
O143 Eu131 2.355 . S
O144 Eu121 2.394 . S
O144 C129 1.251 . S
O145 C129 1.251 . S
O145 Eu131 2.374 1_655 S
O146 C130 1.257 . S
O146 Eu131 2.473 . S
O147 C130 1.260 . S
O147 Eu131 2.480 . S
O148 Eu131 2.430 . S
O148 C138 1.259 . S
O149 Eu121 2.355 . S
O149 Eu131 2.670 1_655 S
O149 C138 1.270 1_655 S
O150 Eu131 2.394 . S
O150 C139 1.251 . S
O151 Eu121 2.374 1_455 S
O151 C139 1.251 . S
H152 C123 0.931 . S
H153 C124 0.931 . S
H154 C126 0.931 . S
H155 C127 0.931 . S
H156 C133 0.931 . S
H157 C134 0.931 . S
H158 C136 0.931 . S
H159 C137 0.931 . S
C160 Eu161 2.835 . S
C160 C162 1.500 . S
C160 O180 1.257 . S
C160 O181 1.260 . S
Eu161 C160 2.835 . S
Eu161 O180 2.473 . S
Eu161 O181 2.480 . S
Eu161 O182 2.430 . S
Eu161 O183 2.670 . S
Eu161 O184 2.394 . S
Eu161 O189 2.355 . S
Eu161 O191 2.374 . S
C162 C160 1.500 . S
C162 C163 1.377 . S
C162 C167 1.377 . S
C163 C162 1.377 . S
C163 C164 1.395 . S
C163 H192 0.931 . S
C164 C163 1.395 . S
C164 C165 1.383 . S
C164 H193 0.931 . S
C165 C164 1.383 . S
C165 C166 1.394 . S
C166 C165 1.394 . S
C166 C167 1.378 . S
C166 H194 0.931 . S
C167 C162 1.377 . S
C167 C166 1.378 . S
C167 H195 0.931 . S
C168 O182 1.259 . S
C168 O183 1.270 . S
C169 O184 1.251 . S
C169 O185 1.251 . S
C170 Eu171 2.835 . S
C170 C172 1.500 . S
C170 O186 1.257 . S
C170 O187 1.260 . S
Eu171 C170 2.835 . S
Eu171 O183 2.355 . S
Eu171 O185 2.374 . S
Eu171 O186 2.473 . S
Eu171 O187 2.480 . S
Eu171 O188 2.430 . S
Eu171 O189 2.670 . S
Eu171 O190 2.394 . S
C172 C170 1.500 . S
C172 C173 1.377 . S
C172 C177 1.377 . S
C173 C172 1.377 . S
C173 C174 1.395 . S
C173 H196 0.931 . S
C174 C173 1.395 . S
C174 C175 1.383 . S
C174 H197 0.931 . S
C175 C174 1.383 . S
C175 C176 1.394 . S
C176 C175 1.394 . S
C176 C177 1.378 . S
C176 H198 0.931 . S
C177 C172 1.377 . S
C177 C176 1.378 . S
C177 H199 0.931 . S
C178 O188 1.259 . S
C178 O189 1.270 . S
C179 O190 1.251 . S
C179 O191 1.251 . S
O180 C160 1.257 . S
O180 Eu161 2.473 . S
O181 C160 1.260 . S
O181 Eu161 2.480 . S
O182 Eu161 2.430 . S
O182 C168 1.259 . S
O183 Eu161 2.670 . S
O183 C168 1.270 . S
O183 Eu171 2.355 . S
O184 Eu161 2.394 . S
O184 C169 1.251 . S
O185 C169 1.251 . S
O185 Eu171 2.374 . S
O186 C170 1.257 . S
O186 Eu171 2.473 . S
O187 C170 1.260 . S
O187 Eu171 2.480 . S
O188 Eu171 2.430 . S
O188 C178 1.259 . S
O189 Eu161 2.355 . S
O189 Eu171 2.670 . S
O189 C178 1.270 . S
O190 Eu171 2.394 . S
O190 C179 1.251 . S
O191 Eu161 2.374 . S
O191 C179 1.251 . S
H192 C163 0.931 . S
H193 C164 0.931 . S
H194 C166 0.931 . S
H195 C167 0.931 . S
H196 C173 0.931 . S
H197 C174 0.931 . S
H198 C176 0.931 . S
H199 C177 0.931 . S
C200 Eu201 2.835 . S
C200 C202 1.500 . S
C200 O220 1.257 . S
C200 O221 1.260 . S
Eu201 C200 2.835 . S
Eu201 O220 2.473 . S
Eu201 O221 2.480 . S
Eu201 O222 2.430 . S
Eu201 O223 2.670 . S
Eu201 O224 2.394 . S
Eu201 O229 2.355 . S
Eu201 O231 2.374 1_545 S
C202 C200 1.500 . S
C202 C203 1.377 . S
C202 C207 1.377 . S
C203 C202 1.377 . S
C203 C204 1.395 . S
C203 H232 0.931 . S
C204 C203 1.395 . S
C204 C205 1.383 . S
C204 H233 0.931 . S
C205 C204 1.383 . S
C205 C206 1.394 . S
C206 C205 1.394 . S
C206 C207 1.378 . S
C206 H234 0.931 . S
C207 C202 1.377 . S
C207 C206 1.378 . S
C207 H235 0.931 . S
C208 O222 1.259 . S
C208 O223 1.270 . S
C209 O224 1.251 . S
C209 O225 1.251 . S
C210 Eu211 2.835 . S
C210 C212 1.500 . S
C210 O226 1.257 . S
C210 O227 1.260 . S
Eu211 C210 2.835 . S
Eu211 O223 2.355 1_565 S
Eu211 O225 2.374 1_565 S
Eu211 O226 2.473 . S
Eu211 O227 2.480 . S
Eu211 O228 2.430 1_565 S
Eu211 O229 2.670 1_565 S
Eu211 O230 2.394 . S
C212 C210 1.500 . S
C212 C213 1.377 . S
C212 C217 1.377 . S
C213 C212 1.377 . S
C213 C214 1.395 . S
C213 H236 0.931 . S
C214 C213 1.395 . S
C214 C215 1.383 . S
C214 H237 0.931 . S
C215 C214 1.383 . S
C215 C216 1.394 . S
C216 C215 1.394 . S
C216 C217 1.378 . S
C216 H238 0.931 . S
C217 C212 1.377 . S
C217 C216 1.378 . S
C217 H239 0.931 . S
C218 O228 1.259 . S
C218 O229 1.270 . S
C219 O230 1.251 . S
C219 O231 1.251 . S
O220 C200 1.257 . S
O220 Eu201 2.473 . S
O221 C200 1.260 . S
O221 Eu201 2.480 . S
O222 Eu201 2.430 . S
O222 C208 1.259 . S
O223 Eu201 2.670 . S
O223 C208 1.270 . S
O223 Eu211 2.355 1_545 S
O224 Eu201 2.394 . S
O224 C209 1.251 . S
O225 C209 1.251 . S
O225 Eu211 2.374 1_545 S
O226 C210 1.257 . S
O226 Eu211 2.473 . S
O227 C210 1.260 . S
O227 Eu211 2.480 . S
O228 Eu211 2.430 1_545 S
O228 C218 1.259 . S
O229 Eu201 2.355 . S
O229 Eu211 2.670 1_545 S
O229 C218 1.270 . S
O230 Eu211 2.394 . S
O230 C219 1.251 . S
O231 Eu201 2.374 1_565 S
O231 C219 1.251 . S
H232 C203 0.931 . S
H233 C204 0.931 . S
H234 C206 0.931 . S
H235 C207 0.931 . S
H236 C213 0.931 . S
H237 C214 0.931 . S
H238 C216 0.931 . S
H239 C217 0.931 . S
C240 Eu241 2.835 . S
C240 C242 1.500 1_455 S
C240 O260 1.257 . S
C240 O261 1.260 . S
Eu241 C240 2.835 . S
Eu241 O260 2.473 . S
Eu241 O261 2.480 . S
Eu241 O262 2.430 . S
Eu241 O263 2.670 . S
Eu241 O264 2.394 . S
Eu241 O269 2.355 . S
Eu241 O271 2.374 . S
C242 C240 1.500 1_655 S
C242 C243 1.377 . S
C242 C247 1.377 . S
C243 C242 1.377 . S
C243 C244 1.395 . S
C243 H272 0.931 . S
C244 C243 1.395 . S
C244 C245 1.383 . S
C244 H273 0.931 . S
C245 C244 1.383 . S
C245 C246 1.394 . S
C246 C245 1.394 . S
C246 C247 1.378 . S
C246 H274 0.931 . S
C247 C242 1.377 . S
C247 C246 1.378 . S
C247 H275 0.931 . S
C248 O262 1.259 . S
C248 O263 1.270 . S
C249 O264 1.251 . S
C249 O265 1.251 . S
C250 Eu251 2.835 . S
C250 C252 1.500 . S
C250 O266 1.257 . S
C250 O267 1.260 . S
Eu251 C250 2.835 . S
Eu251 O263 2.355 . S
Eu251 O265 2.374 . S
Eu251 O266 2.473 . S
Eu251 O267 2.480 . S
Eu251 O268 2.430 . S
Eu251 O269 2.670 . S
Eu251 O270 2.394 . S
C252 C250 1.500 . S
C252 C253 1.377 . S
C252 C257 1.377 . S
C253 C252 1.377 . S
C253 C254 1.395 . S
C253 H276 0.931 . S
C254 C253 1.395 . S
C254 C255 1.383 . S
C254 H277 0.931 . S
C255 C254 1.383 . S
C255 C256 1.394 . S
C256 C255 1.394 . S
C256 C257 1.378 . S
C256 H278 0.931 . S
C257 C252 1.377 . S
C257 C256 1.378 . S
C257 H279 0.931 . S
C258 O268 1.259 . S
C258 O269 1.270 . S
C259 O270 1.251 . S
C259 O271 1.251 . S
O260 C240 1.257 . S
O260 Eu241 2.473 . S
O261 C240 1.260 . S
O261 Eu241 2.480 . S
O262 Eu241 2.430 . S
O262 C248 1.259 . S
O263 Eu241 2.670 . S
O263 C248 1.270 . S
O263 Eu251 2.355 . S
O264 Eu241 2.394 . S
O264 C249 1.251 . S
O265 C249 1.251 . S
O265 Eu251 2.374 . S
O266 C250 1.257 . S
O266 Eu251 2.473 . S
O267 C250 1.260 . S
O267 Eu251 2.480 . S
O268 Eu251 2.430 . S
O268 C258 1.259 . S
O269 Eu241 2.355 . S
O269 Eu251 2.670 . S
O269 C258 1.270 . S
O270 Eu251 2.394 . S
O270 C259 1.251 . S
O271 Eu241 2.374 . S
O271 C259 1.251 . S
H272 C243 0.931 . S
H273 C244 0.931 . S
H274 C246 0.931 . S
H275 C247 0.931 . S
H276 C253 0.931 . S
H277 C254 0.931 . S
H278 C256 0.931 . S
H279 C257 0.931 . S
C280 Eu281 2.835 . S
C280 C282 1.500 . S
C280 O300 1.257 . S
C280 O301 1.260 . S
Eu281 C280 2.835 . S
Eu281 O300 2.473 . S
Eu281 O301 2.480 . S
Eu281 O302 2.430 . S
Eu281 O303 2.670 . S
Eu281 O304 2.394 . S
Eu281 O309 2.355 . S
Eu281 O311 2.374 . S
C282 C280 1.500 . S
C282 C283 1.377 . S
C282 C287 1.377 . S
C283 C282 1.377 . S
C283 C284 1.395 . S
C283 H312 0.931 . S
C284 C283 1.395 . S
C284 C285 1.383 . S
C284 H313 0.931 . S
C285 C284 1.383 . S
C285 C286 1.394 . S
C286 C285 1.394 . S
C286 C287 1.378 . S
C286 H314 0.931 . S
C287 C282 1.377 . S
C287 C286 1.378 . S
C287 H315 0.931 . S
C288 O302 1.259 . S
C288 O303 1.270 . S
C289 O304 1.251 . S
C289 O305 1.251 . S
C290 Eu291 2.835 . S
C290 C292 1.500 . S
C290 O306 1.257 . S
C290 O307 1.260 . S
Eu291 C290 2.835 . S
Eu291 O303 2.355 . S
Eu291 O305 2.374 . S
Eu291 O306 2.473 . S
Eu291 O307 2.480 . S
Eu291 O308 2.430 . S
Eu291 O309 2.670 . S
Eu291 O310 2.394 . S
C292 C290 1.500 . S
C292 C293 1.377 . S
C292 C297 1.377 . S
C293 C292 1.377 . S
C293 C294 1.395 . S
C293 H316 0.931 . S
C294 C293 1.395 . S
C294 C295 1.383 . S
C294 H317 0.931 . S
C295 C294 1.383 . S
C295 C296 1.394 . S
C296 C295 1.394 . S
C296 C297 1.378 . S
C296 H318 0.931 . S
C297 C292 1.377 . S
C297 C296 1.378 . S
C297 H319 0.931 . S
C298 O308 1.259 . S
C298 O309 1.270 . S
C299 O310 1.251 . S
C299 O311 1.251 . S
O300 C280 1.257 . S
O300 Eu281 2.473 . S
O301 C280 1.260 . S
O301 Eu281 2.480 . S
O302 Eu281 2.430 . S
O302 C288 1.259 . S
O303 Eu281 2.670 . S
O303 C288 1.270 . S
O303 Eu291 2.355 . S
O304 Eu281 2.394 . S
O304 C289 1.251 . S
O305 C289 1.251 . S
O305 Eu291 2.374 . S
O306 C290 1.257 . S
O306 Eu291 2.473 . S
O307 C290 1.260 . S
O307 Eu291 2.480 . S
O308 Eu291 2.430 . S
O308 C298 1.259 . S
O309 Eu281 2.355 . S
O309 Eu291 2.670 . S
O309 C298 1.270 . S
O310 Eu291 2.394 . S
O310 C299 1.251 . S
O311 Eu281 2.374 . S
O311 C299 1.251 . S
H312 C283 0.931 . S
H313 C284 0.931 . S
H314 C286 0.931 . S
H315 C287 0.931 . S
H316 C293 0.931 . S
H317 C294 0.931 . S
H318 C296 0.931 . S
H319 C297 0.931 . S
C320 Eu321 2.835 1_545 S
C320 C322 1.500 . S
C320 O340 1.257 1_545 S
C320 O341 1.252 1_545 S
Eu321 C320 2.835 1_565 S
Eu321 O340 2.473 . S
Eu321 O341 2.494 . S
Eu321 O342 2.430 . S
Eu321 O343 2.670 . S
Eu321 O344 2.394 . S
Eu321 O349 2.355 . S
Eu321 O351 2.374 . S
C322 C320 1.500 . S
C322 C323 1.377 . S
C322 C327 1.377 . S
C323 C322 1.377 . S
C323 C324 1.395 . S
C323 H352 0.931 . S
C324 C323 1.395 . S
C324 C325 1.383 . S
C324 H353 0.931 . S
C325 C324 1.383 . S
C325 C326 1.394 . S
C326 C325 1.394 . S
C326 C327 1.378 . S
C326 H354 0.931 . S
C327 C322 1.377 . S
C327 C326 1.378 . S
C327 H355 0.931 . S
C328 O342 1.259 . S
C328 O343 1.270 . S
C329 O344 1.251 . S
C329 O345 1.251 . S
C330 Eu331 2.835 . S
C330 C332 1.500 . S
C330 O346 1.257 . S
C330 O347 1.260 . S
Eu331 C330 2.835 . S
Eu331 O343 2.355 . S
Eu331 O345 2.374 . S
Eu331 O346 2.473 . S
Eu331 O347 2.480 . S
Eu331 O348 2.430 . S
Eu331 O349 2.670 . S
Eu331 O350 2.394 . S
C332 C330 1.500 . S
C332 C333 1.377 . S
C332 C337 1.377 . S
C333 C332 1.377 . S
C333 C334 1.395 . S
C333 H356 0.931 . S
C334 C333 1.395 . S
C334 C335 1.383 . S
C334 H357 0.931 . S
C335 C334 1.383 . S
C335 C336 1.394 . S
C336 C335 1.394 . S
C336 C337 1.378 . S
C336 H358 0.931 . S
C337 C332 1.377 . S
C337 C336 1.378 . S
C337 H359 0.931 . S
C338 O348 1.259 . S
C338 O349 1.270 . S
C339 O350 1.251 . S
C339 O351 1.251 . S
O340 C320 1.257 1_565 S
O340 Eu321 2.473 . S
O341 C320 1.252 1_565 S
O341 Eu321 2.494 . S
O342 Eu321 2.430 . S
O342 C328 1.259 . S
O343 Eu321 2.670 . S
O343 C328 1.270 . S
O343 Eu331 2.355 . S
O344 Eu321 2.394 . S
O344 C329 1.251 . S
O345 C329 1.251 . S
O345 Eu331 2.374 . S
O346 C330 1.257 . S
O346 Eu331 2.473 . S
O347 C330 1.260 . S
O347 Eu331 2.480 . S
O348 Eu331 2.430 . S
O348 C338 1.259 . S
O349 Eu321 2.355 . S
O349 Eu331 2.670 . S
O349 C338 1.270 . S
O350 Eu331 2.394 . S
O350 C339 1.251 . S
O351 Eu321 2.374 . S
O351 C339 1.251 . S
H352 C323 0.931 . S
H353 C324 0.931 . S
H354 C326 0.931 . S
H355 C327 0.931 . S
H356 C333 0.931 . S
H357 C334 0.931 . S
H358 C336 0.931 . S
H359 C337 0.931 . S
C360 Eu361 2.835 . S
C360 C362 1.500 . S
C360 O380 1.257 . S
C360 O381 1.260 . S
Eu361 C360 2.835 . S
Eu361 O380 2.473 . S
Eu361 O381 2.480 . S
Eu361 O382 2.430 . S
Eu361 O383 2.670 . S
Eu361 O384 2.394 . S
Eu361 O389 2.355 . S
Eu361 O391 2.374 . S
C362 C360 1.500 . S
C362 C363 1.377 . S
C362 C367 1.377 . S
C363 C362 1.377 . S
C363 C364 1.395 . S
C363 H392 0.931 . S
C364 C363 1.395 . S
C364 C365 1.383 . S
C364 H393 0.931 . S
C365 C364 1.383 . S
C365 C366 1.394 . S
C366 C365 1.394 . S
C366 C367 1.378 . S
C366 H394 0.931 . S
C367 C362 1.377 . S
C367 C366 1.378 . S
C367 H395 0.931 . S
C368 O382 1.259 . S
C368 O383 1.270 . S
C369 O384 1.251 . S
C369 O385 1.251 . S
C370 Eu371 2.835 . S
C370 C372 1.500 . S
C370 O386 1.257 . S
C370 O387 1.260 . S
Eu371 C370 2.835 . S
Eu371 O383 2.355 . S
Eu371 O385 2.374 . S
Eu371 O386 2.473 . S
Eu371 O387 2.480 . S
Eu371 O388 2.430 . S
Eu371 O389 2.670 . S
Eu371 O390 2.394 . S
C372 C370 1.500 . S
C372 C373 1.377 1_565 S
C372 C377 1.377 1_565 S
C373 C372 1.377 1_545 S
C373 C374 1.395 . S
C373 H396 0.931 1_545 S
C374 C373 1.395 . S
C374 C375 1.383 . S
C374 H397 0.931 . S
C375 C374 1.383 . S
C375 C376 1.394 . S
C376 C375 1.394 . S
C376 C377 1.378 . S
C376 H398 0.931 . S
C377 C372 1.377 1_545 S
C377 C376 1.378 . S
C377 H399 0.931 1_545 S
C378 O388 1.259 . S
C378 O389 1.270 . S
C379 O390 1.251 . S
C379 O391 1.251 . S
O380 C360 1.257 . S
O380 Eu361 2.473 . S
O381 C360 1.260 . S
O381 Eu361 2.480 . S
O382 Eu361 2.430 . S
O382 C368 1.259 . S
O383 Eu361 2.670 . S
O383 C368 1.270 . S
O383 Eu371 2.355 . S
O384 Eu361 2.394 . S
O384 C369 1.251 . S
O385 C369 1.251 . S
O385 Eu371 2.374 . S
O386 C370 1.257 . S
O386 Eu371 2.473 . S
O387 C370 1.260 . S
O387 Eu371 2.480 . S
O388 Eu371 2.430 . S
O388 C378 1.259 . S
O389 Eu361 2.355 . S
O389 Eu371 2.670 . S
O389 C378 1.270 . S
O390 Eu371 2.394 . S
O390 C379 1.251 . S
O391 Eu361 2.374 . S
O391 C379 1.251 . S
H392 C363 0.931 . S
H393 C364 0.931 . S
H394 C366 0.931 . S
H395 C367 0.931 . S
H396 C373 0.931 1_565 S
H397 C374 0.931 . S
H398 C376 0.931 . S
H399 C377 0.931 1_565 S
C400 Eu401 2.835 . S
C400 C402 1.500 . S
C400 O420 1.257 . S
C400 O421 1.260 . S
Eu401 C400 2.835 . S
Eu401 O420 2.473 . S
Eu401 O421 2.480 . S
Eu401 O422 2.430 . S
Eu401 O423 2.670 . S
Eu401 O424 2.394 . S
Eu401 O429 2.355 . S
Eu401 O431 2.374 . S
C402 C400 1.500 . S
C402 C403 1.377 . S
C402 C407 1.377 . S
C403 C402 1.377 . S
C403 C404 1.395 . S
C403 H432 0.931 . S
C404 C403 1.395 . S
C404 C405 1.383 . S
C404 H433 0.931 . S
C405 C404 1.383 . S
C405 C406 1.394 . S
C406 C405 1.394 . S
C406 C407 1.378 . S
C406 H434 0.931 . S
C407 C402 1.377 . S
C407 C406 1.378 . S
C407 H435 0.931 . S
C408 O422 1.259 . S
C408 O423 1.270 . S
C409 O424 1.251 . S
C409 O425 1.251 . S
C410 Eu411 2.835 . S
C410 C412 1.500 . S
C410 O426 1.257 . S
C410 O427 1.260 . S
Eu411 C410 2.835 . S
Eu411 O423 2.355 . S
Eu411 O425 2.374 . S
Eu411 O426 2.473 . S
Eu411 O427 2.480 . S
Eu411 O428 2.430 . S
Eu411 O429 2.670 . S
Eu411 O430 2.394 . S
C412 C410 1.500 . S
C412 C413 1.377 . S
C412 C417 1.377 . S
C413 C412 1.377 . S
C413 C414 1.395 1_455 S
C413 H436 0.931 . S
C414 C413 1.395 1_655 S
C414 C415 1.383 . S
C414 H437 0.931 . S
C415 C414 1.383 . S
C415 C416 1.394 . S
C416 C415 1.394 . S
C416 C417 1.378 1_655 S
C416 H438 0.931 . S
C417 C412 1.377 . S
C417 C416 1.378 1_455 S
C417 H439 0.931 . S
C418 O428 1.259 . S
C418 O429 1.270 . S
C419 O430 1.251 . S
C419 O431 1.251 . S
O420 C400 1.257 . S
O420 Eu401 2.473 . S
O421 C400 1.260 . S
O421 Eu401 2.480 . S
O422 Eu401 2.430 . S
O422 C408 1.259 . S
O423 Eu401 2.670 . S
O423 C408 1.270 . S
O423 Eu411 2.355 . S
O424 Eu401 2.394 . S
O424 C409 1.251 . S
O425 C409 1.251 . S
O425 Eu411 2.374 . S
O426 C410 1.257 . S
O426 Eu411 2.473 . S
O427 C410 1.260 . S
O427 Eu411 2.480 . S
O428 Eu411 2.430 . S
O428 C418 1.259 . S
O429 Eu401 2.355 . S
O429 Eu411 2.670 . S
O429 C418 1.270 . S
O430 Eu411 2.394 . S
O430 C419 1.251 . S
O431 Eu401 2.374 . S
O431 C419 1.251 . S
H432 C403 0.931 . S
H433 C404 0.931 . S
H434 C406 0.931 . S
H435 C407 0.931 . S
H436 C413 0.931 . S
H437 C414 0.931 . S
H438 C416 0.931 . S
H439 C417 0.931 . S
C440 Eu441 2.835 . S
C440 C442 1.500 . S
C440 O460 1.257 . S
C440 O461 1.260 . S
Eu441 C440 2.835 . S
Eu441 O460 2.473 . S
Eu441 O461 2.480 . S
Eu441 O462 2.430 . S
Eu441 O463 2.670 . S
Eu441 O464 2.394 . S
Eu441 O469 2.355 . S
Eu441 O471 2.374 . S
C442 C440 1.500 . S
C442 C443 1.377 . S
C442 C447 1.377 . S
C443 C442 1.377 . S
C443 C444 1.395 . S
C443 H472 0.931 . S
C444 C443 1.395 . S
C444 C445 1.383 . S
C444 H473 0.931 . S
C445 C444 1.383 . S
C445 C446 1.394 . S
C446 C445 1.394 . S
C446 C447 1.378 . S
C446 H474 0.931 . S
C447 C442 1.377 . S
C447 C446 1.378 . S
C447 H475 0.931 . S
C448 O462 1.259 . S
C448 O463 1.270 . S
C449 O464 1.251 . S
C449 O465 1.251 . S
C450 Eu451 2.835 . S
C450 C452 1.500 . S
C450 O466 1.257 . S
C450 O467 1.260 . S
Eu451 C450 2.835 . S
Eu451 O463 2.355 . S
Eu451 O465 2.374 . S
Eu451 O466 2.473 . S
Eu451 O467 2.480 . S
Eu451 O468 2.430 . S
Eu451 O469 2.670 . S
Eu451 O470 2.394 . S
C452 C450 1.500 . S
C452 C453 1.377 . S
C452 C457 1.377 . S
C453 C452 1.377 . S
C453 C454 1.395 . S
C453 H476 0.931 . S
C454 C453 1.395 . S
C454 C455 1.383 . S
C454 H477 0.931 . S
C455 C454 1.383 . S
C455 C456 1.394 . S
C456 C455 1.394 . S
C456 C457 1.378 . S
C456 H478 0.931 . S
C457 C452 1.377 . S
C457 C456 1.378 . S
C457 H479 0.931 . S
C458 O468 1.259 . S
C458 O469 1.270 . S
C459 O470 1.251 . S
C459 O471 1.251 . S
O460 C440 1.257 . S
O460 Eu441 2.473 . S
O461 C440 1.260 . S
O461 Eu441 2.480 . S
O462 Eu441 2.430 . S
O462 C448 1.259 . S
O463 Eu441 2.670 . S
O463 C448 1.270 . S
O463 Eu451 2.355 . S
O464 Eu441 2.394 . S
O464 C449 1.251 . S
O465 C449 1.251 . S
O465 Eu451 2.374 . S
O466 C450 1.257 . S
O466 Eu451 2.473 . S
O467 C450 1.260 . S
O467 Eu451 2.480 . S
O468 Eu451 2.430 . S
O468 C458 1.259 . S
O469 Eu441 2.355 . S
O469 Eu451 2.670 . S
O469 C458 1.270 . S
O470 Eu451 2.394 . S
O470 C459 1.251 . S
O471 Eu441 2.374 . S
O471 C459 1.251 . S
H472 C443 0.931 . S
H473 C444 0.931 . S
H474 C446 0.931 . S
H475 C447 0.931 . S
H476 C453 0.931 . S
H477 C454 0.931 . S
H478 C456 0.931 . S
H479 C457 0.931 . S
C480 Eu481 2.835 . S
C480 C482 1.500 . S
C480 O500 1.257 . S
C480 O501 1.260 . S
Eu481 C480 2.835 . S
Eu481 O500 2.473 . S
Eu481 O501 2.480 . S
Eu481 O502 2.430 . S
Eu481 O503 2.670 . S
Eu481 O504 2.394 . S
Eu481 O509 2.355 . S
Eu481 O511 2.374 . S
C482 C480 1.500 . S
C482 C483 1.377 . S
C482 C487 1.377 . S
C483 C482 1.377 . S
C483 C484 1.395 . S
C483 H512 0.931 . S
C484 C483 1.395 . S
C484 C485 1.383 . S
C484 H513 0.931 . S
C485 C484 1.383 . S
C485 C486 1.394 . S
C486 C485 1.394 . S
C486 C487 1.378 . S
C486 H514 0.931 . S
C487 C482 1.377 . S
C487 C486 1.378 . S
C487 H515 0.931 . S
C488 O502 1.259 . S
C488 O503 1.270 . S
C489 O504 1.251 . S
C489 O505 1.251 . S
C490 Eu491 2.835 . S
C490 C492 1.500 . S
C490 O506 1.257 . S
C490 O507 1.260 . S
Eu491 C490 2.835 . S
Eu491 O503 2.355 . S
Eu491 O505 2.374 . S
Eu491 O506 2.473 . S
Eu491 O507 2.480 . S
Eu491 O508 2.430 . S
Eu491 O509 2.670 . S
Eu491 O510 2.394 . S
C492 C490 1.500 . S
C492 C493 1.377 1_655 S
C492 C497 1.377 1_655 S
C493 C492 1.377 1_455 S
C493 C494 1.395 . S
C493 H516 0.931 1_455 S
C494 C493 1.395 . S
C494 C495 1.383 . S
C494 H517 0.931 . S
C495 C494 1.383 . S
C495 C496 1.394 . S
C496 C495 1.394 . S
C496 C497 1.378 . S
C496 H518 0.931 . S
C497 C492 1.377 1_455 S
C497 C496 1.378 . S
C497 H519 0.931 1_455 S
C498 O508 1.259 . S
C498 O509 1.270 . S
C499 O510 1.251 . S
C499 O511 1.251 . S
O500 C480 1.257 . S
O500 Eu481 2.473 . S
O501 C480 1.260 . S
O501 Eu481 2.480 . S
O502 Eu481 2.430 . S
O502 C488 1.259 . S
O503 Eu481 2.670 . S
O503 C488 1.270 . S
O503 Eu491 2.355 . S
O504 Eu481 2.394 . S
O504 C489 1.251 . S
O505 C489 1.251 . S
O505 Eu491 2.374 . S
O506 C490 1.257 . S
O506 Eu491 2.473 . S
O507 C490 1.260 . S
O507 Eu491 2.480 . S
O508 Eu491 2.430 . S
O508 C498 1.259 . S
O509 Eu481 2.355 . S
O509 Eu491 2.670 . S
O509 C498 1.270 . S
O510 Eu491 2.394 . S
O510 C499 1.251 . S
O511 Eu481 2.374 . S
O511 C499 1.251 . S
H512 C483 0.931 . S
H513 C484 0.931 . S
H514 C486 0.931 . S
H515 C487 0.931 . S
H516 C493 0.931 1_655 S
H517 C494 0.931 . S
H518 C496 0.931 . S
H519 C497 0.931 1_655 S
C520 Eu521 2.835 . S
C520 C522 1.500 . S
C520 O540 1.257 . S
C520 O541 1.260 . S
Eu521 C520 2.835 . S
Eu521 O540 2.473 . S
Eu521 O541 2.480 . S
Eu521 O542 2.430 . S
Eu521 O543 2.670 . S
Eu521 O544 2.394 . S
Eu521 O549 2.355 . S
Eu521 O551 2.374 . S
C522 C520 1.500 . S
C522 C523 1.377 . S
C522 C527 1.377 . S
C523 C522 1.377 . S
C523 C524 1.395 . S
C523 H552 0.931 . S
C524 C523 1.395 . S
C524 C525 1.383 . S
C524 H553 0.931 . S
C525 C524 1.383 . S
C525 C526 1.394 . S
C526 C525 1.394 . S
C526 C527 1.378 . S
C526 H554 0.931 . S
C527 C522 1.377 . S
C527 C526 1.378 . S
C527 H555 0.931 . S
C528 O542 1.259 . S
C528 O543 1.270 . S
C529 O544 1.251 . S
C529 O545 1.251 . S
C530 Eu531 2.835 . S
C530 C532 1.500 . S
C530 O546 1.257 . S
C530 O547 1.260 . S
Eu531 C530 2.835 . S
Eu531 O543 2.355 . S
Eu531 O545 2.374 . S
Eu531 O546 2.473 . S
Eu531 O547 2.480 . S
Eu531 O548 2.430 . S
Eu531 O549 2.670 . S
Eu531 O550 2.394 . S
C532 C530 1.500 . S
C532 C533 1.377 . S
C532 C537 1.377 . S
C533 C532 1.377 . S
C533 C534 1.395 . S
C533 H556 0.931 . S
C534 C533 1.395 . S
C534 C535 1.383 . S
C534 H557 0.931 . S
C535 C534 1.383 . S
C535 C536 1.394 . S
C536 C535 1.394 . S
C536 C537 1.378 . S
C536 H558 0.931 . S
C537 C532 1.377 . S
C537 C536 1.378 . S
C537 H559 0.931 . S
C538 O548 1.259 . S
C538 O549 1.270 . S
C539 O550 1.251 . S
C539 O551 1.251 . S
O540 C520 1.257 . S
O540 Eu521 2.473 . S
O541 C520 1.260 . S
O541 Eu521 2.480 . S
O542 Eu521 2.430 . S
O542 C528 1.259 . S
O543 Eu521 2.670 . S
O543 C528 1.270 . S
O543 Eu531 2.355 . S
O544 Eu521 2.394 . S
O544 C529 1.251 . S
O545 C529 1.251 . S
O545 Eu531 2.374 . S
O546 C530 1.257 . S
O546 Eu531 2.473 . S
O547 C530 1.260 . S
O547 Eu531 2.480 . S
O548 Eu531 2.430 . S
O548 C538 1.259 . S
O549 Eu521 2.355 . S
O549 Eu531 2.670 . S
O549 C538 1.270 . S
O550 Eu531 2.394 . S
O550 C539 1.251 . S
O551 Eu521 2.374 . S
O551 C539 1.251 . S
H552 C523 0.931 . S
H553 C524 0.931 . S
H554 C526 0.931 . S
H555 C527 0.931 . S
H556 C533 0.931 . S
H557 C534 0.931 . S
H558 C536 0.931 . S
H559 C537 0.931 . S
C560 Eu561 2.835 . S
C560 C562 1.500 . S
C560 O580 1.257 . S
C560 O581 1.260 . S
Eu561 C560 2.835 . S
Eu561 O580 2.473 . S
Eu561 O581 2.480 . S
Eu561 O582 2.430 . S
Eu561 O583 2.670 . S
Eu561 O584 2.394 . S
Eu561 O589 2.355 . S
Eu561 O591 2.374 . S
C562 C560 1.500 . S
C562 C563 1.377 . S
C562 C567 1.377 . S
C563 C562 1.377 . S
C563 C564 1.395 . S
C563 H592 0.931 . S
C564 C563 1.395 . S
C564 C565 1.383 . S
C564 H593 0.931 . S
C565 C564 1.383 . S
C565 C566 1.394 . S
C566 C565 1.394 . S
C566 C567 1.378 . S
C566 H594 0.931 . S
C567 C562 1.377 . S
C567 C566 1.378 . S
C567 H595 0.931 . S
C568 O582 1.259 . S
C568 O583 1.270 . S
C569 O584 1.251 . S
C569 O585 1.251 . S
C570 Eu571 2.835 . S
C570 C572 1.500 . S
C570 O586 1.257 . S
C570 O587 1.260 . S
Eu571 C570 2.835 . S
Eu571 O583 2.355 . S
Eu571 O585 2.374 . S
Eu571 O586 2.473 . S
Eu571 O587 2.480 . S
Eu571 O588 2.430 . S
Eu571 O589 2.670 . S
Eu571 O590 2.394 . S
C572 C570 1.500 . S
C572 C573 1.377 . S
C572 C577 1.377 . S
C573 C572 1.377 . S
C573 C574 1.395 1_545 S
C573 H596 0.931 . S
C574 C573 1.395 1_565 S
C574 C575 1.383 . S
C574 H597 0.931 . S
C575 C574 1.383 . S
C575 C576 1.394 . S
C576 C575 1.394 . S
C576 C577 1.378 1_565 S
C576 H598 0.931 . S
C577 C572 1.377 . S
C577 C576 1.378 1_545 S
C577 H599 0.931 . S
C578 O588 1.259 . S
C578 O589 1.270 . S
C579 O590 1.251 . S
C579 O591 1.251 . S
O580 C560 1.257 . S
O580 Eu561 2.473 . S
O581 C560 1.260 . S
O581 Eu561 2.480 . S
O582 Eu561 2.430 . S
O582 C568 1.259 . S
O583 Eu561 2.670 . S
O583 C568 1.270 . S
O583 Eu571 2.355 . S
O584 Eu561 2.394 . S
O584 C569 1.251 . S
O585 C569 1.251 . S
O585 Eu571 2.374 . S
O586 C570 1.257 . S
O586 Eu571 2.473 . S
O587 C570 1.260 . S
O587 Eu571 2.480 . S
O588 Eu571 2.430 . S
O588 C578 1.259 . S
O589 Eu561 2.355 . S
O589 Eu571 2.670 . S
O589 C578 1.270 . S
O590 Eu571 2.394 . S
O590 C579 1.251 . S
O591 Eu561 2.374 . S
O591 C579 1.251 . S
H592 C563 0.931 . S
H593 C564 0.931 . S
H594 C566 0.931 . S
H595 C567 0.931 . S
H596 C573 0.931 . S
H597 C574 0.931 . S
H598 C576 0.931 . S
H599 C577 0.931 . S
C600 Eu601 2.835 . S
C600 C602 1.500 1_545 S
C600 O620 1.257 . S
C600 O621 1.260 . S
Eu601 C600 2.835 . S
Eu601 O620 2.473 . S
Eu601 O621 2.480 . S
Eu601 O622 2.430 . S
Eu601 O623 2.670 . S
Eu601 O624 2.394 . S
Eu601 O629 2.355 . S
Eu601 O631 2.374 . S
C602 C600 1.500 1_565 S
C602 C603 1.377 . S
C602 C607 1.377 . S
C603 C602 1.377 . S
C603 C604 1.395 . S
C603 H632 0.931 . S
C604 C603 1.395 . S
C604 C605 1.383 . S
C604 H633 0.931 . S
C605 C604 1.383 . S
C605 C606 1.394 . S
C606 C605 1.394 . S
C606 C607 1.378 . S
C606 H634 0.931 . S
C607 C602 1.377 . S
C607 C606 1.378 . S
C607 H635 0.931 . S
C608 O622 1.259 . S
C608 O623 1.270 . S
C609 O624 1.251 . S
C609 O625 1.251 . S
C610 Eu611 2.835 . S
C610 C612 1.500 . S
C610 O626 1.257 . S
C610 O627 1.260 . S
Eu611 C610 2.835 . S
Eu611 O623 2.355 . S
Eu611 O625 2.374 . S
Eu611 O626 2.473 . S
Eu611 O627 2.480 . S
Eu611 O628 2.430 . S
Eu611 O629 2.670 . S
Eu611 O630 2.394 . S
C612 C610 1.500 . S
C612 C613 1.377 . S
C612 C617 1.377 . S
C613 C612 1.377 . S
C613 C614 1.395 . S
C613 H636 0.931 . S
C614 C613 1.395 . S
C614 C615 1.383 . S
C614 H637 0.931 . S
C615 C614 1.383 . S
C615 C616 1.394 . S
C616 C615 1.394 . S
C616 C617 1.378 . S
C616 H638 0.931 . S
C617 C612 1.377 . S
C617 C616 1.378 . S
C617 H639 0.931 . S
C618 O628 1.259 . S
C618 O629 1.270 . S
C619 O630 1.251 . S
C619 O631 1.251 . S
O620 C600 1.257 . S
O620 Eu601 2.473 . S
O621 C600 1.260 . S
O621 Eu601 2.480 . S
O622 Eu601 2.430 . S
O622 C608 1.259 . S
O623 Eu601 2.670 . S
O623 C608 1.270 . S
O623 Eu611 2.355 . S
O624 Eu601 2.394 . S
O624 C609 1.251 . S
O625 C609 1.251 . S
O625 Eu611 2.374 . S
O626 C610 1.257 . S
O626 Eu611 2.473 . S
O627 C610 1.260 . S
O627 Eu611 2.480 . S
O628 Eu611 2.430 . S
O628 C618 1.259 . S
O629 Eu601 2.355 . S
O629 Eu611 2.670 . S
O629 C618 1.270 . S
O630 Eu611 2.394 . S
O630 C619 1.251 . S
O631 Eu601 2.374 . S
O631 C619 1.251 . S
H632 C603 0.931 . S
H633 C604 0.931 . S
H634 C606 0.931 . S
H635 C607 0.931 . S
H636 C613 0.931 . S
H637 C614 0.931 . S
H638 C616 0.931 . S
H639 C617 0.931 . S
C640 Eu641 2.835 1_455 S
C640 C642 1.500 . S
C640 O660 1.257 1_455 S
C640 O661 1.252 1_455 S
Eu641 C640 2.835 1_655 S
Eu641 O660 2.473 . S
Eu641 O661 2.494 . S
Eu641 O662 2.430 . S
Eu641 O663 2.670 . S
Eu641 O664 2.394 . S
Eu641 O669 2.355 . S
Eu641 O671 2.374 . S
C642 C640 1.500 . S
C642 C643 1.377 . S
C642 C647 1.377 . S
C643 C642 1.377 . S
C643 C644 1.395 . S
C643 H672 0.931 . S
C644 C643 1.395 . S
C644 C645 1.383 . S
C644 H673 0.931 . S
C645 C644 1.383 . S
C645 C646 1.394 . S
C646 C645 1.394 . S
C646 C647 1.378 . S
C646 H674 0.931 . S
C647 C642 1.377 . S
C647 C646 1.378 . S
C647 H675 0.931 . S
C648 O662 1.259 . S
C648 O663 1.270 . S
C649 O664 1.251 . S
C649 O665 1.251 . S
C650 Eu651 2.835 . S
C650 C652 1.500 . S
C650 O666 1.257 . S
C650 O667 1.260 . S
Eu651 C650 2.835 . S
Eu651 O663 2.355 . S
Eu651 O665 2.374 . S
Eu651 O666 2.473 . S
Eu651 O667 2.480 . S
Eu651 O668 2.430 . S
Eu651 O669 2.670 . S
Eu651 O670 2.394 . S
C652 C650 1.500 . S
C652 C653 1.377 . S
C652 C657 1.377 . S
C653 C652 1.377 . S
C653 C654 1.395 . S
C653 H676 0.931 . S
C654 C653 1.395 . S
C654 C655 1.383 . S
C654 H677 0.931 . S
C655 C654 1.383 . S
C655 C656 1.394 . S
C656 C655 1.394 . S
C656 C657 1.378 . S
C656 H678 0.931 . S
C657 C652 1.377 . S
C657 C656 1.378 . S
C657 H679 0.931 . S
C658 O668 1.259 . S
C658 O669 1.270 . S
C659 O670 1.251 . S
C659 O671 1.251 . S
O660 C640 1.257 1_655 S
O660 Eu641 2.473 . S
O661 C640 1.252 1_655 S
O661 Eu641 2.494 . S
O662 Eu641 2.430 . S
O662 C648 1.259 . S
O663 Eu641 2.670 . S
O663 C648 1.270 . S
O663 Eu651 2.355 . S
O664 Eu641 2.394 . S
O664 C649 1.251 . S
O665 C649 1.251 . S
O665 Eu651 2.374 . S
O666 C650 1.257 . S
O666 Eu651 2.473 . S
O667 C650 1.260 . S
O667 Eu651 2.480 . S
O668 Eu651 2.430 . S
O668 C658 1.259 . S
O669 Eu641 2.355 . S
O669 Eu651 2.670 . S
O669 C658 1.270 . S
O670 Eu651 2.394 . S
O670 C659 1.251 . S
O671 Eu641 2.374 . S
O671 C659 1.251 . S
H672 C643 0.931 . S
H673 C644 0.931 . S
H674 C646 0.931 . S
H675 C647 0.931 . S
H676 C653 0.931 . S
H677 C654 0.931 . S
H678 C656 0.931 . S
H679 C657 0.931 . S
C680 Eu681 2.835 . S
C680 C682 1.500 . S
C680 O700 1.257 . S
C680 O701 1.260 . S
Eu681 C680 2.835 . S
Eu681 O700 2.473 . S
Eu681 O701 2.480 . S
Eu681 O702 2.430 . S
Eu681 O703 2.670 . S
Eu681 O704 2.394 . S
Eu681 O709 2.355 . S
Eu681 O711 2.374 . S
C682 C680 1.500 . S
C682 C683 1.377 . S
C682 C687 1.377 . S
C683 C682 1.377 . S
C683 C684 1.395 . S
C683 H712 0.931 . S
C684 C683 1.395 . S
C684 C685 1.383 . S
C684 H713 0.931 . S
C685 C684 1.383 . S
C685 C686 1.394 . S
C686 C685 1.394 . S
C686 C687 1.378 . S
C686 H714 0.931 . S
C687 C682 1.377 . S
C687 C686 1.378 . S
C687 H715 0.931 . S
C688 O702 1.259 . S
C688 O703 1.270 . S
C689 O704 1.251 . S
C689 O705 1.251 . S
C690 Eu691 2.835 . S
C690 C692 1.500 . S
C690 O706 1.257 . S
C690 O707 1.260 . S
Eu691 C690 2.835 . S
Eu691 O703 2.355 . S
Eu691 O705 2.374 . S
Eu691 O706 2.473 . S
Eu691 O707 2.480 . S
Eu691 O708 2.430 . S
Eu691 O709 2.670 . S
Eu691 O710 2.394 . S
C692 C690 1.500 . S
C692 C693 1.377 . S
C692 C697 1.377 . S
C693 C692 1.377 . S
C693 C694 1.395 . S
C693 H716 0.931 . S
C694 C693 1.395 . S
C694 C695 1.383 . S
C694 H717 0.931 . S
C695 C694 1.383 . S
C695 C696 1.394 . S
C696 C695 1.394 . S
C696 C697 1.378 . S
C696 H718 0.931 . S
C697 C692 1.377 . S
C697 C696 1.378 . S
C697 H719 0.931 . S
C698 O708 1.259 . S
C698 O709 1.270 . S
C699 O710 1.251 . S
C699 O711 1.251 . S
O700 C680 1.257 . S
O700 Eu681 2.473 . S
O701 C680 1.260 . S
O701 Eu681 2.480 . S
O702 Eu681 2.430 . S
O702 C688 1.259 . S
O703 Eu681 2.670 . S
O703 C688 1.270 . S
O703 Eu691 2.355 . S
O704 Eu681 2.394 . S
O704 C689 1.251 . S
O705 C689 1.251 . S
O705 Eu691 2.374 . S
O706 C690 1.257 . S
O706 Eu691 2.473 . S
O707 C690 1.260 . S
O707 Eu691 2.480 . S
O708 Eu691 2.430 . S
O708 C698 1.259 . S
O709 Eu681 2.355 . S
O709 Eu691 2.670 . S
O709 C698 1.270 . S
O710 Eu691 2.394 . S
O710 C699 1.251 . S
O711 Eu681 2.374 . S
O711 C699 1.251 . S
H712 C683 0.931 . S
H713 C684 0.931 . S
H714 C686 0.931 . S
H715 C687 0.931 . S
H716 C693 0.931 . S
H717 C694 0.931 . S
H718 C696 0.931 . S
H719 C697 0.931 . S
C720 C721 1.369 . S
C720 C722 1.419 . S
C720 H724 0.930 . S
C721 C720 1.369 . S
C721 C730 1.429 . S
C722 C720 1.419 . S
C722 C723 1.363 . S
C722 H725 0.929 . S
C723 C722 1.363 . S
C723 C729 1.428 . S
H724 C720 0.930 . S
H725 C722 0.929 . S
S726 N727 1.613 . S
S726 N728 1.610 . S
N727 S726 1.613 . S
N727 C730 1.350 . S
N728 S726 1.610 . S
N728 C729 1.351 . S
C729 C723 1.428 . S
C729 N728 1.351 . S
C729 C730 1.434 . S
C730 C721 1.429 . S
C730 N727 1.350 . S
C730 C729 1.434 . S
C731 C732 1.369 . S
C731 C733 1.419 . S
C731 H735 0.930 . S
C732 C731 1.369 . S
C732 C741 1.429 . S
C733 C731 1.419 . S
C733 C734 1.363 . S
C733 H736 0.929 . S
C734 C733 1.363 . S
C734 C740 1.428 . S
H735 C731 0.930 . S
H736 C733 0.929 . S
S737 N738 1.613 . S
S737 N739 1.610 . S
N738 S737 1.613 . S
N738 C741 1.350 . S
N739 S737 1.610 . S
N739 C740 1.351 . S
C740 C734 1.428 . S
C740 N739 1.351 . S
C740 C741 1.434 . S
C741 C732 1.429 . S
C741 N738 1.350 . S
C741 C740 1.434 . S
C742 C743 1.369 . S
C742 C744 1.419 . S
C742 H746 0.930 . S
C743 C742 1.369 . S
C743 C752 1.429 . S
C744 C742 1.419 . S
C744 C745 1.363 . S
C744 H747 0.929 . S
C745 C744 1.363 . S
C745 C751 1.428 . S
H746 C742 0.930 . S
H747 C744 0.929 . S
S748 N749 1.613 . S
S748 N750 1.610 . S
N749 S748 1.613 . S
N749 C752 1.350 . S
N750 S748 1.610 . S
N750 C751 1.351 . S
C751 C745 1.428 . S
C751 N750 1.351 . S
C751 C752 1.434 . S
C752 C743 1.429 . S
C752 N749 1.350 . S
C752 C751 1.434 . S
C753 C754 1.369 . S
C753 C755 1.419 . S
C753 H757 0.930 . S
C754 C753 1.369 . S
C754 C763 1.429 . S
C755 C753 1.419 . S
C755 C756 1.363 . S
C755 H758 0.929 . S
C756 C755 1.363 . S
C756 C762 1.428 . S
H757 C753 0.930 . S
H758 C755 0.929 . S
S759 N760 1.613 . S
S759 N761 1.610 . S
N760 S759 1.613 . S
N760 C763 1.350 . S
N761 S759 1.610 . S
N761 C762 1.351 . S
C762 C756 1.428 . S
C762 N761 1.351 . S
C762 C763 1.434 . S
C763 C754 1.429 . S
C763 N760 1.350 . S
C763 C762 1.434 . S
C764 C765 1.369 . S
C764 C766 1.419 . S
C764 H768 0.930 . S
C765 C764 1.369 . S
C765 C774 1.429 . S
C766 C764 1.419 . S
C766 C767 1.363 . S
C766 H769 0.929 . S
C767 C766 1.363 . S
C767 C773 1.428 . S
H768 C764 0.930 . S
H769 C766 0.929 . S
S770 N771 1.613 . S
S770 N772 1.610 . S
N771 S770 1.613 . S
N771 C774 1.350 . S
N772 S770 1.610 . S
N772 C773 1.351 . S
C773 C767 1.428 . S
C773 N772 1.351 . S
C773 C774 1.434 . S
C774 C765 1.429 . S
C774 N771 1.350 . S
C774 C773 1.434 . S
C775 C776 1.369 . S
C775 C777 1.419 . S
C775 H779 0.930 . S
C776 C775 1.369 . S
C776 C785 1.429 . S
C777 C775 1.419 . S
C777 C778 1.363 . S
C777 H780 0.929 . S
C778 C777 1.363 . S
C778 C784 1.428 . S
H779 C775 0.930 . S
H780 C777 0.929 . S
S781 N782 1.613 . S
S781 N783 1.610 . S
N782 S781 1.613 . S
N782 C785 1.350 . S
N783 S781 1.610 . S
N783 C784 1.351 . S
C784 C778 1.428 . S
C784 N783 1.351 . S
C784 C785 1.434 . S
C785 C776 1.429 . S
C785 N782 1.350 . S
C785 C784 1.434 . S
C786 C787 1.369 . S
C786 C788 1.419 . S
C786 H790 0.930 . S
C787 C786 1.369 . S
C787 C796 1.429 . S
C788 C786 1.419 . S
C788 C789 1.363 . S
C788 H791 0.929 . S
C789 C788 1.363 . S
C789 C795 1.428 . S
H790 C786 0.930 . S
H791 C788 0.929 . S
S792 N793 1.613 . S
S792 N794 1.610 . S
N793 S792 1.613 . S
N793 C796 1.350 . S
N794 S792 1.610 . S
N794 C795 1.351 . S
C795 C789 1.428 . S
C795 N794 1.351 . S
C795 C796 1.434 . S
C796 C787 1.429 . S
C796 N793 1.350 . S
C796 C795 1.434 . S
C797 C798 1.369 . S
C797 C799 1.419 1_545 S
C797 H801 0.930 . S
C798 C797 1.369 . S
C798 C807 1.429 . S
C799 C797 1.419 1_565 S
C799 C800 1.363 . S
C799 H802 0.929 . S
C800 C799 1.363 . S
C800 C806 1.428 . S
H801 C797 0.930 . S
H802 C799 0.929 . S
S803 N804 1.613 . S
S803 N805 1.610 1_545 S
N804 S803 1.613 . S
N804 C807 1.350 . S
N805 S803 1.610 1_565 S
N805 C806 1.351 . S
C806 C800 1.428 . S
C806 N805 1.351 . S
C806 C807 1.434 1_565 S
C807 C798 1.429 . S
C807 N804 1.350 . S
C807 C806 1.434 1_545 S
C808 C809 1.369 . S
C808 C810 1.419 . S
C808 H812 0.930 . S
C809 C808 1.369 . S
C809 C818 1.429 . S
C810 C808 1.419 . S
C810 C811 1.363 1_455 S
C810 H813 0.929 1_455 S
C811 C810 1.363 1_655 S
C811 C817 1.428 1_655 S
H812 C808 0.930 . S
H813 C810 0.929 1_655 S
S814 N815 1.613 . S
S814 N816 1.610 . S
N815 S814 1.613 . S
N815 C818 1.350 . S
N816 S814 1.610 . S
N816 C817 1.351 . S
C817 C811 1.428 1_455 S
C817 N816 1.351 . S
C817 C818 1.434 . S
C818 C809 1.429 . S
C818 N815 1.350 . S
C818 C817 1.434 . S
C819 C820 1.369 . S
C819 C821 1.419 . S
C819 H823 0.930 . S
C820 C819 1.369 . S
C820 C829 1.429 . S
C821 C819 1.419 . S
C821 C822 1.363 . S
C821 H824 0.929 . S
C822 C821 1.363 . S
C822 C828 1.428 . S
H823 C819 0.930 . S
H824 C821 0.929 . S
S825 N826 1.613 . S
S825 N827 1.610 . S
N826 S825 1.613 . S
N826 C829 1.350 . S
N827 S825 1.610 . S
N827 C828 1.351 . S
C828 C822 1.428 . S
C828 N827 1.351 . S
C828 C829 1.434 . S
C829 C820 1.429 . S
C829 N826 1.350 . S
C829 C828 1.434 . S
C830 C831 1.369 . S
C830 C832 1.419 . S
C830 H834 0.930 . S
C831 C830 1.369 . S
C831 C840 1.429 . S
C832 C830 1.419 . S
C832 C833 1.363 . S
C832 H835 0.929 . S
C833 C832 1.363 . S
C833 C839 1.428 . S
H834 C830 0.930 . S
H835 C832 0.929 . S
S836 N837 1.613 . S
S836 N838 1.610 . S
N837 S836 1.613 . S
N837 C840 1.350 . S
N838 S836 1.610 . S
N838 C839 1.351 . S
C839 C833 1.428 . S
C839 N838 1.351 . S
C839 C840 1.434 . S
C840 C831 1.429 . S
C840 N837 1.350 . S
C840 C839 1.434 . S
C841 C842 1.369 . S
C841 C843 1.419 . S
C841 H845 0.930 . S
C842 C841 1.369 . S
C842 C851 1.429 . S
C843 C841 1.419 . S
C843 C844 1.363 . S
C843 H846 0.929 . S
C844 C843 1.363 . S
C844 C850 1.428 . S
H845 C841 0.930 . S
H846 C843 0.929 . S
S847 N848 1.613 . S
S847 N849 1.610 . S
N848 S847 1.613 . S
N848 C851 1.350 . S
N849 S847 1.610 . S
N849 C850 1.351 . S
C850 C844 1.428 . S
C850 N849 1.351 . S
C850 C851 1.434 . S
C851 C842 1.429 . S
C851 N848 1.350 . S
C851 C850 1.434 . S
C852 C853 1.369 . S
C852 C854 1.419 . S
C852 H856 0.930 . S
C853 C852 1.369 . S
C853 C862 1.429 . S
C854 C852 1.419 . S
C854 C855 1.363 . S
C854 H857 0.929 . S
C855 C854 1.363 . S
C855 C861 1.428 . S
H856 C852 0.930 . S
H857 C854 0.929 . S
S858 N859 1.613 . S
S858 N860 1.610 . S
N859 S858 1.613 . S
N859 C862 1.350 . S
N860 S858 1.610 . S
N860 C861 1.351 . S
C861 C855 1.428 . S
C861 N860 1.351 . S
C861 C862 1.434 . S
C862 C853 1.429 . S
C862 N859 1.350 . S
C862 C861 1.434 . S
C863 C864 1.369 . S
C863 C865 1.419 . S
C863 H867 0.930 . S
C864 C863 1.369 . S
C864 C873 1.429 . S
C865 C863 1.419 . S
C865 C866 1.363 . S
C865 H868 0.929 . S
C866 C865 1.363 . S
C866 C872 1.428 . S
H867 C863 0.930 . S
H868 C865 0.929 . S
S869 N870 1.613 . S
S869 N871 1.610 . S
N870 S869 1.613 . S
N870 C873 1.350 . S
N871 S869 1.610 . S
N871 C872 1.351 . S
C872 C866 1.428 . S
C872 N871 1.351 . S
C872 C873 1.434 . S
C873 C864 1.429 . S
C873 N870 1.350 . S
C873 C872 1.434 . S
C874 C875 1.369 . S
C874 C876 1.419 . S
C874 H878 0.930 . S
C875 C874 1.369 . S
C875 C884 1.429 . S
C876 C874 1.419 . S
C876 C877 1.363 . S
C876 H879 0.929 . S
C877 C876 1.363 . S
C877 C883 1.428 . S
H878 C874 0.930 . S
H879 C876 0.929 . S
S880 N881 1.613 . S
S880 N882 1.610 . S
N881 S880 1.613 . S
N881 C884 1.350 . S
N882 S880 1.610 . S
N882 C883 1.351 . S
C883 C877 1.428 . S
C883 N882 1.351 . S
C883 C884 1.434 . S
C884 C875 1.429 . S
C884 N881 1.350 . S
C884 C883 1.434 . S
C885 C886 1.369 . S
C885 C887 1.419 . S
C885 H889 0.930 . S
C886 C885 1.369 . S
C886 C895 1.429 . S
C887 C885 1.419 . S
C887 C888 1.363 . S
C887 H890 0.929 . S
C888 C887 1.363 . S
C888 C894 1.428 . S
H889 C885 0.930 . S
H890 C887 0.929 . S
S891 N892 1.613 . S
S891 N893 1.610 . S
N892 S891 1.613 . S
N892 C895 1.350 . S
N893 S891 1.610 . S
N893 C894 1.351 . S
C894 C888 1.428 . S
C894 N893 1.351 . S
C894 C895 1.434 . S
C895 C886 1.429 . S
C895 N892 1.350 . S
C895 C894 1.434 . S
C896 C897 1.369 1_545 S
C896 C898 1.419 . S
C896 H900 0.930 . S
C897 C896 1.369 1_565 S
C897 C906 1.429 1_565 S
C898 C896 1.419 . S
C898 C899 1.363 . S
C898 H901 0.929 . S
C899 C898 1.363 . S
C899 C905 1.428 . S
H900 C896 0.930 . S
H901 C898 0.929 . S
S902 N903 1.613 1_545 S
S902 N904 1.610 . S
N903 S902 1.613 1_565 S
N903 C906 1.350 1_565 S
N904 S902 1.610 . S
N904 C905 1.351 . S
C905 C899 1.428 . S
C905 N904 1.351 . S
C905 C906 1.434 . S
C906 C897 1.429 1_545 S
C906 N903 1.350 1_545 S
C906 C905 1.434 . S
C907 C908 1.369 . S
C907 C909 1.419 1_455 S
C907 H911 0.930 . S
C908 C907 1.369 . S
C908 C917 1.429 . S
C909 C907 1.419 1_655 S
C909 C910 1.363 . S
C909 H912 0.929 . S
C910 C909 1.363 . S
C910 C916 1.428 . S
H911 C907 0.930 . S
H912 C909 0.929 . S
S913 N914 1.613 1_655 S
S913 N915 1.610 . S
N914 S913 1.613 1_455 S
N914 C917 1.350 . S
N915 S913 1.610 . S
N915 C916 1.351 . S
C916 C910 1.428 . S
C916 N915 1.351 . S
C916 C917 1.434 1_655 S
C917 C908 1.429 . S
C917 N914 1.350 . S
C917 C916 1.434 1_455 S
C918 C919 1.369 . S
C918 C920 1.419 1_554 S
C918 H922 0.930 . S
C919 C918 1.369 . S
C919 C928 1.429 1_545 S
C920 C918 1.419 1_556 S
C920 C921 1.363 . S
C920 H923 0.929 . S
C921 C920 1.363 . S
C921 C927 1.428 1_545 S
H922 C918 0.930 . S
H923 C920 0.929 . S
S924 N925 1.613 . S
S924 N926 1.610 1_554 S
N925 S924 1.613 . S
N925 C928 1.350 . S
N926 S924 1.610 1_556 S
N926 C927 1.351 . S
C927 C921 1.428 1_565 S
C927 N926 1.351 . S
C927 C928 1.434 1_556 S
C928 C919 1.429 1_565 S
C928 N925 1.350 . S
C928 C927 1.434 1_554 S
C929 C930 1.369 . S
C929 C931 1.419 1_556 S
C929 H933 0.930 . S
C930 C929 1.369 . S
C930 C939 1.429 1_455 S
C931 C929 1.419 1_554 S
C931 C932 1.363 . S
C931 H934 0.929 . S
C932 C931 1.363 . S
C932 C938 1.428 1_455 S
H933 C929 0.930 . S
H934 C931 0.929 . S
S935 N936 1.613 . S
S935 N937 1.610 1_556 S
N936 S935 1.613 . S
N936 C939 1.350 . S
N937 S935 1.610 1_554 S
N937 C938 1.351 . S
C938 C932 1.428 1_655 S
C938 N937 1.351 . S
C938 C939 1.434 1_554 S
C939 C930 1.429 1_655 S
C939 N936 1.350 . S
C939 C938 1.434 1_556 S
C940 C941 1.369 . S
C940 C942 1.419 1_556 S
C940 H944 0.930 . S
C941 C940 1.369 . S
C941 C950 1.429 . S
C942 C940 1.419 1_554 S
C942 C943 1.363 . S
C942 H945 0.929 . S
C943 C942 1.363 . S
C943 C949 1.428 . S
H944 C940 0.930 . S
H945 C942 0.929 . S
S946 N947 1.613 1_554 S
S946 N948 1.610 . S
N947 S946 1.613 1_556 S
N947 C950 1.350 . S
N948 S946 1.610 . S
N948 C949 1.351 . S
C949 C943 1.428 . S
C949 N948 1.351 . S
C949 C950 1.434 1_554 S
C950 C941 1.429 . S
C950 N947 1.350 . S
C950 C949 1.434 1_556 S
C951 C952 1.369 . S
C951 C953 1.419 . S
C951 H955 0.930 . S
C952 C951 1.369 . S
C952 C961 1.429 . S
C953 C951 1.419 . S
C953 C954 1.363 . S
C953 H956 0.929 . S
C954 C953 1.363 . S
C954 C960 1.428 . S
H955 C951 0.930 . S
H956 C953 0.929 . S
S957 N958 1.613 . S
S957 N959 1.610 . S
N958 S957 1.613 . S
N958 C961 1.350 . S
N959 S957 1.610 . S
N959 C960 1.351 . S
C960 C954 1.428 . S
C960 N959 1.351 . S
C960 C961 1.434 . S
C961 C952 1.429 . S
C961 N958 1.350 . S
C961 C960 1.434 . S
C962 C963 1.369 . S
C962 C964 1.419 . S
C962 H966 0.930 . S
C963 C962 1.369 . S
C963 C972 1.429 . S
C964 C962 1.419 . S
C964 C965 1.363 . S
C964 H967 0.929 . S
C965 C964 1.363 . S
C965 C971 1.428 . S
H966 C962 0.930 . S
H967 C964 0.929 . S
S968 N969 1.613 . S
S968 N970 1.610 . S
N969 S968 1.613 . S
N969 C972 1.350 . S
N970 S968 1.610 . S
N970 C971 1.351 . S
C971 C965 1.428 . S
C971 N970 1.351 . S
C971 C972 1.434 . S
C972 C963 1.429 . S
C972 N969 1.350 . S
C972 C971 1.434 . S
C973 C974 1.369 . S
C973 C975 1.419 . S
C973 H977 0.930 . S
C974 C973 1.369 . S
C974 C983 1.429 . S
C975 C973 1.419 . S
C975 C976 1.363 . S
C975 H978 0.929 . S
C976 C975 1.363 . S
C976 C982 1.428 . S
H977 C973 0.930 . S
H978 C975 0.929 . S
S979 N980 1.613 . S
S979 N981 1.610 . S
N980 S979 1.613 . S
N980 C983 1.350 . S
N981 S979 1.610 . S
N981 C982 1.351 . S
C982 C976 1.428 . S
C982 N981 1.351 . S
C982 C983 1.434 . S
C983 C974 1.429 . S
C983 N980 1.350 . S
C983 C982 1.434 . S
C984 C985 1.369 . S
C984 C986 1.419 . S
C984 H988 0.930 . S
C985 C984 1.369 . S
C985 C994 1.429 . S
C986 C984 1.419 . S
C986 C987 1.363 . S
C986 H989 0.929 . S
C987 C986 1.363 . S
C987 C993 1.428 . S
H988 C984 0.930 . S
H989 C986 0.929 . S
S990 N991 1.613 . S
S990 N992 1.610 . S
N991 S990 1.613 . S
N991 C994 1.350 . S
N992 S990 1.610 . S
N992 C993 1.351 . S
C993 C987 1.428 . S
C993 N992 1.351 . S
C993 C994 1.434 . S
C994 C985 1.429 . S
C994 N991 1.350 . S
C994 C993 1.434 . S
C995 C996 1.369 . S
C995 C997 1.419 . S
C995 H999 0.930 . S
C996 C995 1.369 . S
C996 C1005 1.429 . S
C997 C995 1.419 . S
C997 C998 1.363 . S
C997 H1000 0.929 . S
C998 C997 1.363 . S
C998 C1004 1.428 . S
H999 C995 0.930 . S
H1000 C997 0.929 . S
S1001 N1002 1.613 . S
S1001 N1003 1.610 . S
N1002 S1001 1.613 . S
N1002 C1005 1.350 . S
N1003 S1001 1.610 . S
N1003 C1004 1.351 . S
C1004 C998 1.428 . S
C1004 N1003 1.351 . S
C1004 C1005 1.434 . S
C1005 C996 1.429 . S
C1005 N1002 1.350 . S
C1005 C1004 1.434 . S
C1006 C1007 1.369 . S
C1006 C1008 1.419 . S
C1006 H1010 0.930 . S
C1007 C1006 1.369 . S
C1007 C1016 1.429 . S
C1008 C1006 1.419 . S
C1008 C1009 1.363 . S
C1008 H1011 0.929 . S
C1009 C1008 1.363 . S
C1009 C1015 1.428 . S
H1010 C1006 0.930 . S
H1011 C1008 0.929 . S
S1012 N1013 1.613 . S
S1012 N1014 1.610 . S
N1013 S1012 1.613 . S
N1013 C1016 1.350 . S
N1014 S1012 1.610 . S
N1014 C1015 1.351 . S
C1015 C1009 1.428 . S
C1015 N1014 1.351 . S
C1015 C1016 1.434 . S
C1016 C1007 1.429 . S
C1016 N1013 1.350 . S
C1016 C1015 1.434 . S
C1017 C1018 1.369 . S
C1017 C1019 1.419 . S
C1017 H1021 0.930 . S
C1018 C1017 1.369 . S
C1018 C1027 1.429 . S
C1019 C1017 1.419 . S
C1019 C1020 1.363 . S
C1019 H1022 0.929 . S
C1020 C1019 1.363 . S
C1020 C1026 1.428 . S
H1021 C1017 0.930 . S
H1022 C1019 0.929 . S
S1023 N1024 1.613 1_545 S
S1023 N1025 1.610 . S
N1024 S1023 1.613 1_565 S
N1024 C1027 1.350 . S
N1025 S1023 1.610 . S
N1025 C1026 1.351 1_545 S
C1026 C1020 1.428 . S
C1026 N1025 1.351 1_565 S
C1026 C1027 1.434 . S
C1027 C1018 1.429 . S
C1027 N1024 1.350 . S
C1027 C1026 1.434 . S
C1028 C1029 1.369 . S
C1028 C1030 1.419 . S
C1028 H1032 0.930 . S
C1029 C1028 1.369 . S
C1029 C1038 1.429 . S
C1030 C1028 1.419 . S
C1030 C1031 1.363 . S
C1030 H1033 0.929 . S
C1031 C1030 1.363 . S
C1031 C1037 1.428 . S
H1032 C1028 0.930 . S
H1033 C1030 0.929 . S
S1034 N1035 1.613 . S
S1034 N1036 1.610 . S
N1035 S1034 1.613 . S
N1035 C1038 1.350 . S
N1036 S1034 1.610 . S
N1036 C1037 1.351 . S
C1037 C1031 1.428 . S
C1037 N1036 1.351 . S
C1037 C1038 1.434 . S
C1038 C1029 1.429 . S
C1038 N1035 1.350 . S
C1038 C1037 1.434 . S
C1039 C1040 1.369 . S
C1039 C1041 1.419 . S
C1039 H1043 0.930 . S
C1040 C1039 1.369 . S
C1040 C1049 1.429 . S
C1041 C1039 1.419 . S
C1041 C1042 1.363 . S
C1041 H1044 0.929 . S
C1042 C1041 1.363 . S
C1042 C1048 1.428 . S
H1043 C1039 0.930 . S
H1044 C1041 0.929 . S
S1045 N1046 1.613 . S
S1045 N1047 1.610 . S
N1046 S1045 1.613 . S
N1046 C1049 1.350 . S
N1047 S1045 1.610 . S
N1047 C1048 1.351 . S
C1048 C1042 1.428 . S
C1048 N1047 1.351 . S
C1048 C1049 1.434 . S
C1049 C1040 1.429 . S
C1049 N1046 1.350 . S
C1049 C1048 1.434 . S
C1050 C1051 1.369 . S
C1050 C1052 1.419 . S
C1050 H1054 0.930 . S
C1051 C1050 1.369 . S
C1051 C1060 1.429 . S
C1052 C1050 1.419 . S
C1052 C1053 1.363 . S
C1052 H1055 0.929 . S
C1053 C1052 1.363 . S
C1053 C1059 1.428 . S
H1054 C1050 0.930 . S
H1055 C1052 0.929 . S
S1056 N1057 1.613 . S
S1056 N1058 1.610 . S
N1057 S1056 1.613 . S
N1057 C1060 1.350 . S
N1058 S1056 1.610 . S
N1058 C1059 1.351 . S
C1059 C1053 1.428 . S
C1059 N1058 1.351 . S
C1059 C1060 1.434 . S
C1060 C1051 1.429 . S
C1060 N1057 1.350 . S
C1060 C1059 1.434 . S
C1061 C1062 1.369 . S
C1061 C1063 1.419 . S
C1061 H1065 0.930 . S
C1062 C1061 1.369 . S
C1062 C1071 1.429 . S
C1063 C1061 1.419 . S
C1063 C1064 1.363 . S
C1063 H1066 0.929 . S
C1064 C1063 1.363 . S
C1064 C1070 1.428 . S
H1065 C1061 0.930 . S
H1066 C1063 0.929 . S
S1067 N1068 1.613 . S
S1067 N1069 1.610 . S
N1068 S1067 1.613 . S
N1068 C1071 1.350 . S
N1069 S1067 1.610 . S
N1069 C1070 1.351 . S
C1070 C1064 1.428 . S
C1070 N1069 1.351 . S
C1070 C1071 1.434 . S
C1071 C1062 1.429 . S
C1071 N1068 1.350 . S
C1071 C1070 1.434 . S
C1072 C1073 1.369 . S
C1072 C1074 1.419 . S
C1072 H1076 0.930 . S
C1073 C1072 1.369 . S
C1073 C1082 1.429 . S
C1074 C1072 1.419 . S
C1074 C1075 1.363 . S
C1074 H1077 0.929 . S
C1075 C1074 1.363 . S
C1075 C1081 1.428 . S
H1076 C1072 0.930 . S
H1077 C1074 0.929 . S
S1078 N1079 1.613 . S
S1078 N1080 1.610 . S
N1079 S1078 1.613 . S
N1079 C1082 1.350 . S
N1080 S1078 1.610 . S
N1080 C1081 1.351 . S
C1081 C1075 1.428 . S
C1081 N1080 1.351 . S
C1081 C1082 1.434 . S
C1082 C1073 1.429 . S
C1082 N1079 1.350 . S
C1082 C1081 1.434 . S
C1083 C1084 1.369 . S
C1083 C1085 1.419 1_655 S
C1083 H1087 0.930 . S
C1084 C1083 1.369 . S
C1084 C1093 1.429 . S
C1085 C1083 1.419 1_455 S
C1085 C1086 1.363 . S
C1085 H1088 0.929 . S
C1086 C1085 1.363 . S
C1086 C1092 1.428 . S
H1087 C1083 0.930 . S
H1088 C1085 0.929 . S
S1089 N1090 1.613 1_455 S
S1089 N1091 1.610 . S
N1090 S1089 1.613 1_655 S
N1090 C1093 1.350 . S
N1091 S1089 1.610 . S
N1091 C1092 1.351 . S
C1092 C1086 1.428 . S
C1092 N1091 1.351 . S
C1092 C1093 1.434 1_455 S
C1093 C1084 1.429 . S
C1093 N1090 1.350 . S
C1093 C1092 1.434 1_655 S
C1094 C1095 1.369 . S
C1094 C1096 1.419 . S
C1094 H1098 0.930 . S
C1095 C1094 1.369 . S
C1095 C1104 1.429 . S
C1096 C1094 1.419 . S
C1096 C1097 1.363 . S
C1096 H1099 0.929 . S
C1097 C1096 1.363 . S
C1097 C1103 1.428 . S
H1098 C1094 0.930 . S
H1099 C1096 0.929 . S
S1100 N1101 1.613 . S
S1100 N1102 1.610 . S
N1101 S1100 1.613 . S
N1101 C1104 1.350 . S
N1102 S1100 1.610 . S
N1102 C1103 1.351 . S
C1103 C1097 1.428 . S
C1103 N1102 1.351 . S
C1103 C1104 1.434 . S
C1104 C1095 1.429 . S
C1104 N1101 1.350 . S
C1104 C1103 1.434 . S
C1105 C1106 1.369 . S
C1105 C1107 1.419 1_565 S
C1105 H1109 0.930 . S
C1106 C1105 1.369 . S
C1106 C1115 1.429 . S
C1107 C1105 1.419 1_545 S
C1107 C1108 1.363 . S
C1107 H1110 0.929 . S
C1108 C1107 1.363 . S
C1108 C1114 1.428 . S
H1109 C1105 0.930 . S
H1110 C1107 0.929 . S
S1111 N1112 1.613 1_545 S
S1111 N1113 1.610 . S
N1112 S1111 1.613 1_565 S
N1112 C1115 1.350 . S
N1113 S1111 1.610 . S
N1113 C1114 1.351 . S
C1114 C1108 1.428 . S
C1114 N1113 1.351 . S
C1114 C1115 1.434 1_545 S
C1115 C1106 1.429 . S
C1115 N1112 1.350 . S
C1115 C1114 1.434 1_565 S
C1116 C1117 1.369 . S
C1116 C1118 1.419 . S
C1116 H1120 0.930 . S
C1117 C1116 1.369 . S
C1117 C1126 1.429 . S
C1118 C1116 1.419 . S
C1118 C1119 1.363 . S
C1118 H1121 0.929 . S
C1119 C1118 1.363 . S
C1119 C1125 1.428 . S
H1120 C1116 0.930 . S
H1121 C1118 0.929 . S
S1122 N1123 1.613 . S
S1122 N1124 1.610 . S
N1123 S1122 1.613 . S
N1123 C1126 1.350 . S
N1124 S1122 1.610 . S
N1124 C1125 1.351 . S
C1125 C1119 1.428 . S
C1125 N1124 1.351 . S
C1125 C1126 1.434 . S
C1126 C1117 1.429 . S
C1126 N1123 1.350 . S
C1126 C1125 1.434 . S
C1127 C1128 1.369 . S
C1127 C1129 1.419 . S
C1127 H1131 0.930 . S
C1128 C1127 1.369 . S
C1128 C1137 1.429 . S
C1129 C1127 1.419 . S
C1129 C1130 1.363 . S
C1129 H1132 0.929 . S
C1130 C1129 1.363 . S
C1130 C1136 1.428 . S
H1131 C1127 0.930 . S
H1132 C1129 0.929 . S
S1133 N1134 1.613 . S
S1133 N1135 1.610 . S
N1134 S1133 1.613 . S
N1134 C1137 1.350 . S
N1135 S1133 1.610 . S
N1135 C1136 1.351 . S
C1136 C1130 1.428 . S
C1136 N1135 1.351 . S
C1136 C1137 1.434 . S
C1137 C1128 1.429 . S
C1137 N1134 1.350 . S
C1137 C1136 1.434 . S
C1138 C1139 1.369 . S
C1138 C1140 1.419 . S
C1138 H1142 0.930 . S
C1139 C1138 1.369 . S
C1139 C1148 1.429 . S
C1140 C1138 1.419 . S
C1140 C1141 1.363 . S
C1140 H1143 0.929 . S
C1141 C1140 1.363 . S
C1141 C1147 1.428 . S
H1142 C1138 0.930 . S
H1143 C1140 0.929 . S
S1144 N1145 1.613 . S
S1144 N1146 1.610 . S
N1145 S1144 1.613 . S
N1145 C1148 1.350 . S
N1146 S1144 1.610 . S
N1146 C1147 1.351 . S
C1147 C1141 1.428 . S
C1147 N1146 1.351 . S
C1147 C1148 1.434 . S
C1148 C1139 1.429 . S
C1148 N1145 1.350 . S
C1148 C1147 1.434 . S
C1149 C1150 1.369 . S
C1149 C1151 1.419 . S
C1149 H1153 0.930 . S
C1150 C1149 1.369 . S
C1150 C1159 1.429 . S
C1151 C1149 1.419 . S
C1151 C1152 1.363 . S
C1151 H1154 0.929 . S
C1152 C1151 1.363 . S
C1152 C1158 1.428 . S
H1153 C1149 0.930 . S
H1154 C1151 0.929 . S
S1155 N1156 1.613 . S
S1155 N1157 1.610 . S
N1156 S1155 1.613 . S
N1156 C1159 1.350 . S
N1157 S1155 1.610 . S
N1157 C1158 1.351 . S
C1158 C1152 1.428 . S
C1158 N1157 1.351 . S
C1158 C1159 1.434 . S
C1159 C1150 1.429 . S
C1159 N1156 1.350 . S
C1159 C1158 1.434 . S
C1160 C1161 1.369 . S
C1160 C1162 1.419 . S
C1160 H1164 0.930 . S
C1161 C1160 1.369 . S
C1161 C1170 1.429 . S
C1162 C1160 1.419 . S
C1162 C1163 1.363 . S
C1162 H1165 0.929 . S
C1163 C1162 1.363 . S
C1163 C1169 1.428 . S
H1164 C1160 0.930 . S
H1165 C1162 0.929 . S
S1166 N1167 1.613 . S
S1166 N1168 1.610 . S
N1167 S1166 1.613 . S
N1167 C1170 1.350 . S
N1168 S1166 1.610 . S
N1168 C1169 1.351 . S
C1169 C1163 1.428 . S
C1169 N1168 1.351 . S
C1169 C1170 1.434 . S
C1170 C1161 1.429 . S
C1170 N1167 1.350 . S
C1170 C1169 1.434 . S
C1171 C1172 1.369 . S
C1171 C1173 1.419 . S
C1171 H1175 0.930 . S
C1172 C1171 1.369 . S
C1172 C1181 1.429 . S
C1173 C1171 1.419 . S
C1173 C1174 1.363 . S
C1173 H1176 0.929 . S
C1174 C1173 1.363 . S
C1174 C1180 1.428 . S
H1175 C1171 0.930 . S
H1176 C1173 0.929 . S
S1177 N1178 1.613 . S
S1177 N1179 1.610 . S
N1178 S1177 1.613 . S
N1178 C1181 1.350 . S
N1179 S1177 1.610 . S
N1179 C1180 1.351 . S
C1180 C1174 1.428 . S
C1180 N1179 1.351 . S
C1180 C1181 1.434 . S
C1181 C1172 1.429 . S
C1181 N1178 1.350 . S
C1181 C1180 1.434 . S
C1182 C1183 1.369 . S
C1182 C1184 1.419 . S
C1182 H1186 0.930 . S
C1183 C1182 1.369 . S
C1183 C1192 1.429 . S
C1184 C1182 1.419 . S
C1184 C1185 1.363 . S
C1184 H1187 0.929 . S
C1185 C1184 1.363 . S
C1185 C1191 1.428 . S
H1186 C1182 0.930 . S
H1187 C1184 0.929 . S
S1188 N1189 1.613 . S
S1188 N1190 1.610 . S
N1189 S1188 1.613 . S
N1189 C1192 1.350 . S
N1190 S1188 1.610 . S
N1190 C1191 1.351 . S
C1191 C1185 1.428 . S
C1191 N1190 1.351 . S
C1191 C1192 1.434 . S
C1192 C1183 1.429 . S
C1192 N1189 1.350 . S
C1192 C1191 1.434 . S
C1193 C1194 1.369 . S
C1193 C1195 1.419 . S
C1193 H1197 0.930 . S
C1194 C1193 1.369 . S
C1194 C1203 1.429 . S
C1195 C1193 1.419 . S
C1195 C1196 1.363 . S
C1195 H1198 0.929 . S
C1196 C1195 1.363 . S
C1196 C1202 1.428 . S
H1197 C1193 0.930 . S
H1198 C1195 0.929 . S
S1199 N1200 1.613 . S
S1199 N1201 1.610 . S
N1200 S1199 1.613 . S
N1200 C1203 1.350 . S
N1201 S1199 1.610 . S
N1201 C1202 1.351 . S
C1202 C1196 1.428 . S
C1202 N1201 1.351 . S
C1202 C1203 1.434 . S
C1203 C1194 1.429 . S
C1203 N1200 1.350 . S
C1203 C1202 1.434 . S
C1204 C1205 1.369 . S
C1204 C1206 1.419 . S
C1204 H1208 0.930 . S
C1205 C1204 1.369 . S
C1205 C1214 1.429 . S
C1206 C1204 1.419 . S
C1206 C1207 1.363 . S
C1206 H1209 0.929 . S
C1207 C1206 1.363 . S
C1207 C1213 1.428 . S
H1208 C1204 0.930 . S
H1209 C1206 0.929 . S
S1210 N1211 1.613 . S
S1210 N1212 1.610 . S
N1211 S1210 1.613 . S
N1211 C1214 1.350 . S
N1212 S1210 1.610 . S
N1212 C1213 1.351 . S
C1213 C1207 1.428 . S
C1213 N1212 1.351 . S
C1213 C1214 1.434 . S
C1214 C1205 1.429 . S
C1214 N1211 1.350 . S
C1214 C1213 1.434 . S
C1215 C1216 1.369 . S
C1215 C1217 1.419 . S
C1215 H1219 0.930 . S
C1216 C1215 1.369 . S
C1216 C1225 1.429 . S
C1217 C1215 1.419 . S
C1217 C1218 1.363 . S
C1217 H1220 0.929 . S
C1218 C1217 1.363 . S
C1218 C1224 1.428 . S
H1219 C1215 0.930 . S
H1220 C1217 0.929 . S
S1221 N1222 1.613 . S
S1221 N1223 1.610 . S
N1222 S1221 1.613 . S
N1222 C1225 1.350 . S
N1223 S1221 1.610 . S
N1223 C1224 1.351 . S
C1224 C1218 1.428 . S
C1224 N1223 1.351 . S
C1224 C1225 1.434 . S
C1225 C1216 1.429 . S
C1225 N1222 1.350 . S
C1225 C1224 1.434 . S
C1226 C1227 1.369 1_545 S
C1226 C1228 1.419 . S
C1226 H1230 0.930 1_545 S
C1227 C1226 1.369 1_565 S
C1227 C1236 1.429 1_565 S
C1228 C1226 1.419 . S
C1228 C1229 1.363 . S
C1228 H1231 0.929 . S
C1229 C1228 1.363 . S
C1229 C1235 1.428 . S
H1230 C1226 0.930 1_565 S
H1231 C1228 0.929 . S
S1232 N1233 1.613 . S
S1232 N1234 1.610 . S
N1233 S1232 1.613 . S
N1233 C1236 1.350 . S
N1234 S1232 1.610 . S
N1234 C1235 1.351 . S
C1235 C1229 1.428 . S
C1235 N1234 1.351 . S
C1235 C1236 1.434 . S
C1236 C1227 1.429 1_545 S
C1236 N1233 1.350 . S
C1236 C1235 1.434 . S
C1237 C1238 1.369 . S
C1237 C1239 1.419 . S
C1237 H1241 0.930 . S
C1238 C1237 1.369 . S
C1238 C1247 1.429 1_655 S
C1239 C1237 1.419 . S
C1239 C1240 1.363 1_655 S
C1239 H1242 0.929 . S
C1240 C1239 1.363 1_455 S
C1240 C1246 1.428 . S
H1241 C1237 0.930 . S
H1242 C1239 0.929 . S
S1243 N1244 1.613 . S
S1243 N1245 1.610 . S
N1244 S1243 1.613 . S
N1244 C1247 1.350 . S
N1245 S1243 1.610 . S
N1245 C1246 1.351 . S
C1246 C1240 1.428 . S
C1246 N1245 1.351 . S
C1246 C1247 1.434 . S
C1247 C1238 1.429 1_455 S
C1247 N1244 1.350 . S
C1247 C1246 1.434 . S
C1248 C1249 1.369 . S
C1248 C1250 1.419 . S
C1248 H1252 0.930 . S
C1249 C1248 1.369 . S
C1249 C1258 1.429 . S
C1250 C1248 1.419 . S
C1250 C1251 1.363 . S
C1250 H1253 0.929 . S
C1251 C1250 1.363 . S
C1251 C1257 1.428 . S
H1252 C1248 0.930 . S
H1253 C1250 0.929 . S
S1254 N1255 1.613 . S
S1254 N1256 1.610 . S
N1255 S1254 1.613 . S
N1255 C1258 1.350 . S
N1256 S1254 1.610 . S
N1256 C1257 1.351 . S
C1257 C1251 1.428 . S
C1257 N1256 1.351 . S
C1257 C1258 1.434 . S
C1258 C1249 1.429 . S
C1258 N1255 1.350 . S
C1258 C1257 1.434 . S
C1259 C1260 1.369 1_565 S
C1259 C1261 1.419 . S
C1259 H1263 0.930 . S
C1260 C1259 1.369 1_545 S
C1260 C1269 1.429 . S
C1261 C1259 1.419 . S
C1261 C1262 1.363 . S
C1261 H1264 0.929 . S
C1262 C1261 1.363 . S
C1262 C1268 1.428 1_565 S
H1263 C1259 0.930 . S
H1264 C1261 0.929 . S
S1265 N1266 1.613 . S
S1265 N1267 1.610 . S
N1266 S1265 1.613 . S
N1266 C1269 1.350 . S
N1267 S1265 1.610 . S
N1267 C1268 1.351 . S
C1268 C1262 1.428 1_545 S
C1268 N1267 1.351 . S
C1268 C1269 1.434 . S
C1269 C1260 1.429 . S
C1269 N1266 1.350 . S
C1269 C1268 1.434 . S
C1270 C1271 1.369 . S
C1270 C1272 1.419 . S
C1270 H1274 0.930 . S
C1271 C1270 1.369 . S
C1271 C1280 1.429 . S
C1272 C1270 1.419 . S
C1272 C1273 1.363 1_455 S
C1272 H1275 0.929 1_455 S
C1273 C1272 1.363 1_655 S
C1273 C1279 1.428 1_655 S
H1274 C1270 0.930 . S
H1275 C1272 0.929 1_655 S
S1276 N1277 1.613 . S
S1276 N1278 1.610 . S
N1277 S1276 1.613 . S
N1277 C1280 1.350 . S
N1278 S1276 1.610 . S
N1278 C1279 1.351 . S
C1279 C1273 1.428 1_455 S
C1279 N1278 1.351 . S
C1279 C1280 1.434 . S
C1280 C1271 1.429 . S
C1280 N1277 1.350 . S
C1280 C1279 1.434 . S
C1281 C1282 1.369 . S
C1281 C1283 1.419 . S
C1281 H1285 0.930 . S
C1282 C1281 1.369 . S
C1282 C1291 1.429 . S
C1283 C1281 1.419 . S
C1283 C1284 1.363 . S
C1283 H1286 0.929 . S
C1284 C1283 1.363 . S
C1284 C1290 1.428 . S
H1285 C1281 0.930 . S
H1286 C1283 0.929 . S
S1287 N1288 1.613 . S
S1287 N1289 1.610 . S
N1288 S1287 1.613 . S
N1288 C1291 1.350 . S
N1289 S1287 1.610 . S
N1289 C1290 1.351 . S
C1290 C1284 1.428 . S
C1290 N1289 1.351 . S
C1290 C1291 1.434 . S
C1291 C1282 1.429 . S
C1291 N1288 1.350 . S
C1291 C1290 1.434 . S
C1292 C1293 1.369 . S
C1292 C1294 1.419 . S
C1292 H1296 0.930 . S
C1293 C1292 1.369 . S
C1293 C1302 1.429 . S
C1294 C1292 1.419 . S
C1294 C1295 1.363 . S
C1294 H1297 0.929 . S
C1295 C1294 1.363 . S
C1295 C1301 1.428 . S
H1296 C1292 0.930 . S
H1297 C1294 0.929 . S
S1298 N1299 1.613 . S
S1298 N1300 1.610 . S
N1299 S1298 1.613 . S
N1299 C1302 1.350 . S
N1300 S1298 1.610 . S
N1300 C1301 1.351 . S
C1301 C1295 1.428 . S
C1301 N1300 1.351 . S
C1301 C1302 1.434 . S
C1302 C1293 1.429 . S
C1302 N1299 1.350 . S
C1302 C1301 1.434 . S
C1303 C1304 1.369 . S
C1303 C1305 1.419 . S
C1303 H1307 0.930 . S
C1304 C1303 1.369 . S
C1304 C1313 1.429 . S
C1305 C1303 1.419 . S
C1305 C1306 1.363 . S
C1305 H1308 0.929 . S
C1306 C1305 1.363 . S
C1306 C1312 1.428 . S
H1307 C1303 0.930 . S
H1308 C1305 0.929 . S
S1309 N1310 1.613 . S
S1309 N1311 1.610 . S
N1310 S1309 1.613 . S
N1310 C1313 1.350 . S
N1311 S1309 1.610 . S
N1311 C1312 1.351 . S
C1312 C1306 1.428 . S
C1312 N1311 1.351 . S
C1312 C1313 1.434 . S
C1313 C1304 1.429 . S
C1313 N1310 1.350 . S
C1313 C1312 1.434 . S
C721 C9 1.275 . S
C723 C85 1.314 . S
C732 C5 1.318 . S
C734 C49 1.269 . S
C743 C45 1.314 . S
C745 C89 1.273 . S
C754 C129 1.268 . S
C756 C165 1.317 . S
C765 C205 1.319 . S
C767 C169 1.266 . S
C776 C209 1.277 . S
C778 C125 1.313 . S
C787 C325 1.313 . S
C789 C249 1.274 . S
C798 C245 1.316 . S
C800 C289 1.270 . S
C809 C329 1.277 . S
C811 C285 1.313 . S
C820 C405 1.318 . S
C822 C369 1.268 . S
C831 C409 1.269 . S
C833 C445 1.317 . S
C842 C365 1.315 . S
C844 C449 1.270 . S
C853 C489 1.272 . S
C855 C565 1.315 . S
C864 C485 1.318 . S
C866 C529 1.269 . S
C875 C525 1.313 . S
C877 C569 1.274 . S
C886 C645 1.314 . S
C888 C609 1.273 . S
C897 C685 1.312 . S
C899 C649 1.275 . S
C908 C605 1.317 . S
C910 C689 1.269 . S
C919 C8 1.684 . S
C921 C208 1.687 . S
C930 C128 1.688 . S
C932 C48 1.688 . S
C941 C168 1.688 . S
C943 C88 1.685 . S
C952 C248 1.680 . S
C954 C448 1.684 . S
C963 C288 1.683 . S
C965 C368 1.681 . S
C974 C408 1.678 . S
C976 C328 1.681 . S
C985 C488 1.686 . S
C987 C688 1.688 . S
C996 C608 1.681 . S
C998 C528 1.680 . S
C1007 C648 1.684 . S
C1009 C568 1.687 . S
C1018 C418 2.484 . S
C1020 C18 2.486 1_565 S
C1029 C58 2.484 . S
C1031 C458 2.486 . S
C1040 C378 2.482 . S
C1042 C98 2.486 . S
C1051 C138 2.486 1_655 S
C1053 C578 2.483 . S
C1062 C178 2.486 . S
C1064 C498 2.483 . S
C1073 C538 2.486 . S
C1075 C218 2.483 . S
C1084 C658 2.483 . S
C1086 C258 2.484 . S
C1095 C298 2.483 . S
C1097 C698 2.485 . S
C1106 C338 2.483 . S
C1108 C618 2.485 . S
C1117 C95 1.761 . S
C1119 C19 1.773 . S
C1128 C15 1.759 . S
C1130 C59 1.774 . S
C1139 C99 1.775 . S
C1141 C55 1.759 . S
C1150 C175 1.764 . S
C1152 C139 1.769 . S
C1161 C215 1.759 . S
C1163 C179 1.774 . S
C1172 C219 1.768 . S
C1174 C135 1.764 . S
C1183 C335 1.761 . S
C1185 C259 1.773 . S
C1194 C299 1.774 . S
C1196 C255 1.758 . S
C1205 C295 1.758 . S
C1207 C339 1.773 . S
C1216 C379 1.773 . S
C1218 C415 1.759 . S
C1227 C419 1.771 . S
C1229 C455 1.761 . S
C1238 C375 1.764 . S
C1240 C459 1.771 . S
C1249 C499 1.773 . S
C1251 C575 1.761 . S
C1260 C539 1.768 . S
C1262 C495 1.764 . S
C1271 C535 1.763 . S
C1273 C579 1.769 . S
C1282 C619 1.775 . S
C1284 C655 1.759 . S
C1293 C659 1.771 . S
C1295 C695 1.763 . S
C1304 C615 1.764 . S
C1306 C699 1.769 . S
