# Generated by pormake.
# Topology rkf, (6)-cn, num edge types: 1
# Building blocks:
#     Node 0, Type 0, BuildingBlock: BETGAK_clean_sbu_0, # of connection points: 6
#     Node 1, Type 0, BuildingBlock: BETGAK_clean_sbu_0, # of connection points: 6
#     Node 2, Type 0, BuildingBlock: BETGAK_clean_sbu_0, # of connection points: 6
#     Node 3, Type 0, BuildingBlock: BETGAK_clean_sbu_0, # of connection points: 6
#     Node 4, Type 0, BuildingBlock: BETGAK_clean_sbu_0, # of connection points: 6
#     Node 5, Type 0, BuildingBlock: BETGAK_clean_sbu_0, # of connection points: 6
#     Edge 6, Type (0, 0), BuildingBlock: MIFKUJ_clean_linker_0, # of connection points: 2
#     Edge 7, Type (0, 0), BuildingBlock: MIFKUJ_clean_linker_0, # of connection points: 2
#     Edge 8, Type (0, 0), BuildingBlock: MIFKUJ_clean_linker_0, # of connection points: 2
#     Edge 9, Type (0, 0), BuildingBlock: MIFKUJ_clean_linker_0, # of connection points: 2
#     Edge 10, Type (0, 0), BuildingBlock: MIFKUJ_clean_linker_0, # of connection points: 2
#     Edge 11, Type (0, 0), BuildingBlock: MIFKUJ_clean_linker_0, # of connection points: 2
#     Edge 12, Type (0, 0), BuildingBlock: MIFKUJ_clean_linker_0, # of connection points: 2
#     Edge 13, Type (0, 0), BuildingBlock: MIFKUJ_clean_linker_0, # of connection points: 2
#     Edge 14, Type (0, 0), BuildingBlock: MIFKUJ_clean_linker_0, # of connection points: 2
#     Edge 15, Type (0, 0), BuildingBlock: MIFKUJ_clean_linker_0, # of connection points: 2
#     Edge 16, Type (0, 0), BuildingBlock: MIFKUJ_clean_linker_0, # of connection points: 2
#     Edge 17, Type (0, 0), BuildingBlock: MIFKUJ_clean_linker_0, # of connection points: 2
#     Edge 18, Type (0, 0), BuildingBlock: MIFKUJ_clean_linker_0, # of connection points: 2
#     Edge 19, Type (0, 0), BuildingBlock: MIFKUJ_clean_linker_0, # of connection points: 2
#     Edge 20, Type (0, 0), BuildingBlock: MIFKUJ_clean_linker_0, # of connection points: 2
#     Edge 21, Type (0, 0), BuildingBlock: MIFKUJ_clean_linker_0, # of connection points: 2
#     Edge 22, Type (0, 0), BuildingBlock: MIFKUJ_clean_linker_0, # of connection points: 2
#     Edge 23, Type (0, 0), BuildingBlock: MIFKUJ_clean_linker_0, # of connection points: 2
# Relax obj value: 0.555
# Max RMSD: 0.250
# Mean RMSD: 0.250
data_MOF--net-rkf--node1-BETGAK_clean_sbu_0--edge1-MIFKUJ_clean_linker_0
_symmetry_space_group_name_H-M    P1
_symmetry_Int_Tables_number       1
_symmetry_cell_setting            triclinic
loop_
_symmetry_equiv_pos_as_xyz
'x, y, z'
_cell_length_a     32.049117
_cell_length_b     32.222892
_cell_length_c     59.092749
_cell_angle_alpha  90.334803
_cell_angle_beta   88.9336
_cell_angle_gamma 119.3968
loop_
_atom_site_label
_atom_site_type_symbol
_atom_site_fract_x
_atom_site_fract_y
_atom_site_fract_z
_atom_type_partial_charge
La0 La 0.26963 0.01486 0.11061 0.0
La1 La 0.2765 0.10804 0.09839 0.0
C2 C 0.29381 0.95663 0.12522 0.0
C3 C 0.31022 0.95174 0.14751 0.0
C4 C 0.29515 0.96657 0.16678 0.0
C5 C 0.31233 0.9647 0.18789 0.0
C6 C 0.3446 0.94736 0.19033 0.0
C7 C 0.35974 0.93231 0.17103 0.0
C8 C 0.34301 0.93503 0.14965 0.0
C9 C 0.18665 0.00859 0.10328 0.0
C10 C 0.26991 0.0857 0.15081 0.0
C11 C 0.27157 0.17961 1.08504 0.0
C12 C 0.30046 0.22044 1.07019 0.0
C13 C 0.30341 0.2643 1.07516 0.0
C14 C 0.33016 0.30365 1.06117 0.0
C15 C 0.35399 0.29962 1.04174 0.0
C16 C 0.35267 0.25593 1.03744 0.0
C17 C 0.32627 0.2167 1.05162 0.0
C18 C 0.35922 0.10779 0.10102 0.0
C19 C 0.25525 0.03071 1.05804 0.0
O20 O 0.24927 0.94754 0.12437 0.0
O21 O 0.32302 -0.00413 0.11444 0.0
O22 O 0.19512 0.97313 0.10186 0.0
O23 O 0.22208 0.04325 0.11258 0.0
O24 O 0.28129 0.05238 0.14455 0.0
O25 O 0.25776 0.10641 0.13482 0.0
O26 O 0.29249 0.17865 0.10359 0.0
O27 O 0.24883 0.13769 1.07551 0.0
O28 O 0.35365 0.14349 0.10662 0.0
O29 O 0.32071 0.07639 1.09311 0.0
O30 O 0.25746 0.07147 1.06476 0.0
O31 O 0.26313 0.0041 1.07293 0.0
H32 H 0.26946 0.97901 0.16565 0.0
H33 H 0.29852 0.97495 0.20249 0.0
H34 H 0.38402 0.91815 0.17254 0.0
H35 H 0.35532 0.92385 0.13484 0.0
H36 H 0.2845 0.26798 1.08975 0.0
H37 H 0.33118 0.33693 1.06527 0.0
H38 H 0.36979 0.25112 1.02246 0.0
H39 H 0.32496 0.18319 1.04772 0.0
La40 La 0.29965 0.26377 0.44249 0.0
La41 La 0.23155 0.29639 0.42965 0.0
C42 C 0.3736 0.27125 0.45984 0.0
C43 C 0.39316 0.2922 0.4819 0.0
C44 C 0.41223 0.27084 0.49572 0.0
C45 C 0.42045 0.28335 0.5185 0.0
C46 C 0.40934 0.3172 0.52785 0.0
C47 C 0.39286 0.34052 0.51358 0.0
C48 C 0.38522 0.32841 0.49076 0.0
C49 C 0.21526 0.19366 0.43412 0.0
C50 C 0.23829 0.2821 0.48248 0.0
C51 C 0.16634 0.31226 0.41648 0.0
C52 C 0.14725 0.32561 0.39712 0.0
C53 C 0.14423 0.36754 0.39863 0.0
C54 C 0.12007 0.37825 0.38232 0.0
C55 C 0.09824 0.34703 0.36425 0.0
C56 C 0.1031 0.30603 0.36219 0.0
C57 C 0.12739 0.29533 0.37853 0.0
C58 C 0.31977 0.36419 0.43803 0.0
C59 C 0.27766 0.25821 0.3897 0.0
O60 O 0.33209 0.23207 0.46092 0.0
O61 O 0.37451 0.30109 0.44462 0.0
O62 O 0.25457 0.19149 0.43167 0.0
O63 O 0.22354 0.23243 0.44347 0.0
O64 O 0.27651 0.27782 0.47672 0.0
O65 O 0.21151 0.2845 0.46618 0.0
O66 O 0.20739 0.34506 0.4241 0.0
O67 O 0.1621 0.26974 0.41705 0.0
O68 O 0.28176 0.36566 0.44432 0.0
O69 O 0.30744 0.32645 0.42715 0.0
O70 O 0.24992 0.27732 0.39537 0.0
O71 O 0.30339 0.25201 0.40552 0.0
H72 H 0.41794 0.24245 0.48926 0.0
H73 H 0.43219 0.26388 0.5291 0.0
H74 H 0.38429 0.3669 0.52021 0.0
H75 H 0.37038 0.34542 0.4804 0.0
H76 H 0.15909 0.39127 0.41292 0.0
H77 H 0.11739 0.41033 0.38419 0.0
H78 H 0.08616 0.28099 0.34856 0.0
H79 H 0.12901 0.26263 0.37703 0.0
La80 La 0.09969 0.29835 0.77852 0.0
La81 La 0.00153 0.2221 0.76616 0.0
C82 C 0.16629 0.37707 0.79209 0.0
C83 C 0.19855 0.39579 0.81136 0.0
C84 C 0.18339 0.37766 0.83332 0.0
C85 C 0.21613 0.39342 0.85093 0.0
C86 C 0.26455 0.42708 0.84677 0.0
C87 C 0.27928 0.44583 0.82487 0.0
C88 C 0.24645 0.43042 0.80733 0.0
C89 C 0.09573 0.21606 0.77272 0.0
C90 C 0.02577 0.23342 0.81912 0.0
C91 C 0.92563 0.15139 0.75272 0.0
C92 C 0.89198 0.1434 0.73466 0.0
C93 C 0.90447 0.17624 0.71687 0.0
C94 C 0.87117 0.16922 0.7003 0.0
C95 C 0.82486 0.12951 0.70144 0.0
C96 C 0.81233 0.09729 0.71958 0.0
C97 C 0.84571 0.10423 0.73607 0.0
C98 C 0.01152 0.30793 0.77178 0.0
C99 C 0.08008 0.27428 0.72531 0.0
O100 O 0.17294 0.34786 0.77905 0.0
O101 O 0.12072 0.36258 0.79587 0.0
O102 O 0.1349 0.25667 0.77197 0.0
O103 O 0.06199 0.22233 0.78017 0.0
O104 O 0.06682 0.27264 0.81341 0.0
O105 O -0.00231 0.20534 0.80286 0.0
O106 O 0.92693 0.18063 0.76839 0.0
O107 O 0.96852 0.15984 0.74653 0.0
O108 O 0.97315 0.26875 0.77679 0.0
O109 O 0.041 0.29803 0.7624 0.0
O110 O 0.03558 0.24168 0.73152 0.0
O111 O 0.10986 0.30383 0.74081 0.0
H112 H 0.14667 0.35053 0.83675 0.0
H113 H 0.20398 0.37787 0.86761 0.0
H114 H 0.31631 0.4719 0.82125 0.0
H115 H 0.25875 0.44467 0.79045 0.0
H116 H 0.93987 0.20722 0.71583 0.0
H117 H 0.88167 0.1946 0.68651 0.0
H118 H 0.7772 0.06592 0.72064 0.0
H119 H 0.83546 0.07896 0.7499 0.0
La120 La 0.86857 0.1049 0.11379 0.0
La121 La 0.82949 0.00293 0.10072 0.0
C122 C 0.87054 0.17957 0.12806 0.0
C123 C 0.85426 0.19348 0.14851 0.0
C124 C 0.82239 0.15903 0.1639 0.0
C125 C 0.81043 0.17303 0.18429 0.0
C126 C 0.83016 0.22165 0.18952 0.0
C127 C 0.86004 0.25587 0.17341 0.0
C128 C 0.87201 0.24182 0.15307 0.0
C129 C 0.9352 0.08632 0.09939 0.0
C130 C 0.85239 0.02692 0.15281 0.0
C131 C 0.80486 0.92085 1.08586 0.0
C132 C 0.76543 0.8866 1.07181 0.0
C133 C 0.73766 0.83937 1.07923 0.0
C134 C 0.70196 0.80556 1.06554 0.0
C135 C 0.69406 0.81814 1.04389 0.0
C136 C 0.71957 0.86655 1.03741 0.0
C137 C 0.75478 0.90038 1.05123 0.0
C138 C 0.76462 0.03009 0.1098 0.0
C139 C 0.86515 0.08222 1.06031 0.0
O140 O 0.90574 0.17039 0.1306 0.0
O141 O 0.83655 0.14786 0.11552 0.0
O142 O 0.93978 0.12864 0.10056 0.0
O143 O 0.89774 0.05796 0.11066 0.0
O144 O 0.85431 0.06837 0.1479 0.0
O145 O 0.85038 -0.00142 0.13589 0.0
O146 O 0.79198 0.92893 0.10572 0.0
O147 O 0.83751 0.96002 1.07605 0.0
O148 O 0.75843 -0.01173 0.11393 0.0
O149 O 0.80385 0.05267 0.09954 0.0
O150 O 0.84943 0.03694 1.06638 0.0
O151 O 0.87213 0.1149 1.07611 0.0
H152 H 0.80797 0.12142 0.16046 0.0
H153 H 0.78719 0.14585 0.19631 0.0
H154 H 0.87666 0.29359 0.17704 0.0
H155 H 0.89651 0.26875 0.14126 0.0
H156 H 0.74443 0.82834 1.09541 0.0
H157 H 0.68205 0.76918 1.07158 0.0
H158 H 0.71521 0.87825 1.02094 0.0
H159 H 0.77494 0.93691 1.04533 0.0
La160 La 0.83779 0.87217 0.44519 0.0
La161 La 0.88917 0.81953 0.43245 0.0
C162 C 0.77423 0.89087 0.4592 0.0
C163 C 0.74883 0.8908 0.48008 0.0
C164 C 0.77247 0.90476 0.50076 0.0
C165 C 0.74863 0.90886 0.51989 0.0
C166 C 0.7006 0.8986 0.51873 0.0
C167 C 0.67649 0.88243 0.49819 0.0
C168 C 0.70052 0.87868 0.47901 0.0
C169 C 0.9261 0.92695 0.43017 0.0
C170 C 0.89022 0.84523 0.48521 0.0
C171 C 0.94067 0.7859 0.4176 0.0
C172 C 0.97599 0.7943 0.39967 0.0
C173 C 0.00593 0.77453 0.40197 0.0
C174 C 0.04373 0.78632 0.38668 0.0
C175 C 0.05302 0.81911 0.36904 0.0
C176 C 0.02131 0.83723 0.36628 0.0
C177 C -0.01724 0.82445 0.38136 0.0
C178 C 0.79903 0.76514 0.44605 0.0
C179 C 0.85342 0.86378 0.39213 0.0
O180 O 0.81984 0.92248 0.4576 0.0
O181 O 0.765 0.8491 0.45152 0.0
O182 O 0.89179 0.9372 0.42862 0.0
O183 O 0.91101 0.89009 0.44229 0.0
O184 O 0.85975 0.86076 0.47977 0.0
O185 O 0.90846 0.82977 0.46889 0.0
O186 O 0.89645 0.77048 0.41149 0.0
O187 O 0.95427 0.8192 0.43294 0.0
O188 O 0.83386 0.75738 0.45053 0.0
O189 O 0.81523 0.80154 0.43358 0.0
O190 O 0.88259 0.84719 0.39832 0.0
O191 O 0.82762 0.87122 0.40795 0.0
H192 H 0.80973 0.91397 0.50196 0.0
H193 H 0.76865 0.9222 0.5353 0.0
H194 H 0.63941 0.87369 0.4968 0.0
H195 H 0.68169 0.86746 0.46317 0.0
H196 H 0.00068 0.75064 0.41592 0.0
H197 H 0.06586 0.76992 0.3889 0.0
H198 H 0.02703 0.86259 0.35303 0.0
H199 H 0.95949 0.83961 0.37927 0.0
La200 La 0.01669 0.82915 0.77856 0.0
La201 La 0.12039 0.87203 0.76679 0.0
C202 C 0.93194 0.77221 0.79131 0.0
C203 C 0.90107 0.75506 0.81153 0.0
C204 C 0.85244 0.7222 0.80892 0.0
C205 C 0.82106 0.70808 0.82756 0.0
C206 C 0.83795 0.72662 0.84912 0.0
C207 C 0.88718 0.75852 0.85176 0.0
C208 C 0.91855 0.77274 0.83306 0.0
C209 C 0.05761 0.91867 0.76507 0.0
C210 C 0.09426 0.87557 0.81935 0.0
C211 C 0.2066 0.91777 0.75342 0.0
C212 C 0.23651 0.95549 0.73726 0.0
C213 C 0.28051 -0.00732 0.74451 0.0
C214 C 0.3076 0.03197 0.73054 0.0
C215 C 0.2911 0.03445 0.70905 0.0
C216 C 0.24781 -0.00385 0.70147 0.0
C217 C 0.22065 0.95694 0.71549 0.0
C218 C 0.07798 0.78151 0.77921 0.0
C219 C 0.04379 0.84334 0.72579 0.0
O220 O 0.94724 0.81664 0.78571 0.0
O221 O 0.96541 0.76026 0.78913 0.0
O222 O 0.01253 0.8881 0.76284 0.0
O223 O 0.07567 0.89959 0.77704 0.0
O224 O 0.04827 0.84886 0.81354 0.0
O225 O 0.12835 0.89114 0.80328 0.0
O226 O 0.17545 0.87623 0.74535 0.0
O227 O 0.18869 0.93117 0.77009 0.0
O228 O 0.12105 0.81301 0.78426 0.0
O229 O 0.06091 0.80079 0.76673 0.0
O230 O 0.08912 0.87033 0.7325 0.0
O231 O 0.00985 0.8181 0.74123 0.0
H232 H 0.83851 0.70824 0.79235 0.0
H233 H 0.78348 0.68313 0.82506 0.0
H234 H 0.90115 0.77386 0.86813 0.0
H235 H 0.95604 0.79833 0.83529 0.0
H236 H 0.2932 -0.00798 0.7613 0.0
H237 H 0.34087 0.06084 0.73674 0.0
H238 H 0.23362 -0.00243 0.68517 0.0
H239 H 0.18647 0.92888 0.70968 0.0
H240 H 0.9298 0.00068 1.08763 0.0
H241 H 0.95665 0.98211 1.05199 0.0
H242 H 0.00125 0.12481 1.02774 0.0
H243 H -0.02095 0.14386 1.06356 0.0
H244 H 0.06173 0.1208 1.01098 0.0
H245 H 0.96662 0.90408 1.02115 0.0
H246 H 0.90746 0.8416 0.99703 0.0
H247 H 0.89417 0.94636 0.9582 0.0
H248 H 0.95445 0.01015 0.98145 0.0
H249 H 0.14801 0.95212 1.06677 0.0
H250 H 0.11385 0.96807 1.03406 0.0
H251 H 0.12306 0.09196 1.06753 0.0
H252 H 0.16226 0.07853 0.09952 0.0
H253 H 0.04212 0.9616 1.02451 0.0
H254 H 0.18012 0.09331 1.00566 0.0
H255 H 0.25849 0.16704 1.00391 0.0
H256 H 0.19733 0.24314 1.03802 0.0
H257 H 0.11916 0.16951 1.04053 0.0
C258 C 0.94587 0.0279 1.07465 0.0
C259 C 0.95305 0.07377 1.07865 0.0
C260 C 0.9605 0.01722 1.05392 0.0
C261 C -0.01761 0.05231 1.03671 0.0
C262 C -0.01359 0.09716 1.04054 0.0
C263 C 0.97381 0.10822 1.06138 0.0
C264 C 0.01099 0.04676 1.01775 0.0
C265 C 0.05712 0.086 1.01488 0.0
C266 C 0.00774 0.00189 1.0148 0.0
C267 C 0.96631 0.96261 1.00305 0.0
C268 C 0.95175 0.91436 1.0074 0.0
C269 C 0.9179 0.87848 0.99376 0.0
C270 C 0.89764 0.89007 0.97587 0.0
C271 C 0.91012 0.93747 0.97198 0.0
C272 C 0.94414 0.97356 0.98546 0.0
C273 C 0.14286 0.98292 1.06719 0.0
C274 C 0.1581 0.01444 1.08566 0.0
C275 C 0.12357 -0.00779 1.04828 0.0
C276 C 0.11669 0.03191 1.04782 0.0
C277 C 0.12999 0.06231 1.06678 0.0
C278 C 0.15109 0.05397 1.08542 0.0
C279 C 0.08827 0.03716 1.02967 0.0
C280 C 0.04601 -0.00335 1.0227 0.0
C281 C 0.09627 0.08242 1.02258 0.0
C282 C 0.14399 0.12578 1.02332 0.0
C283 C 0.18384 0.12552 1.01324 0.0
C284 C 0.22805 0.16737 1.01197 0.0
C285 C 0.23264 0.20985 1.02059 0.0
C286 C 0.19354 0.21026 1.03117 0.0
C287 C 0.14931 0.16846 1.03253 0.0
H288 H 0.26633 0.24255 1.01891 0.0
H289 H 0.8717 0.86224 0.96523 0.0
H290 H 0.92837 0.96764 0.39003 0.0
H291 H 0.97726 0.97651 0.35753 0.0
H292 H 0.05627 0.9247 0.39632 0.0
H293 H 0.00323 0.91222 0.42848 0.0
H294 H 0.10964 0.94549 0.3648 0.0
H295 H 0.04121 0.93947 0.31043 0.0
H296 H -0.00603 0.92649 0.27627 0.0
H297 H 0.97172 0.0436 0.29402 0.0
H298 H 0.01926 0.05794 0.32821 0.0
H299 H 0.17486 0.20918 0.39642 0.0
H300 H 0.14617 0.15147 0.36616 0.0
H301 H 0.12164 0.04116 0.41439 0.0
H302 H 0.15924 0.10099 0.44361 0.0
H303 H 0.08888 0.0835 0.34699 0.0
H304 H 0.14592 0.95912 0.39998 0.0
H305 H 0.21579 0.97522 0.42257 0.0
H306 H 0.29405 0.11612 0.39442 0.0
H307 H 0.2253 0.10062 0.371 0.0
C308 C 0.95631 0.9582 0.39161 0.0
C309 C 0.96204 0.93926 0.41182 0.0
C310 C -0.01536 0.96292 0.37267 0.0
C311 C 0.02244 0.95235 0.37363 0.0
C312 C 0.02819 0.93369 0.3943 0.0
C313 C -0.0019 0.92688 0.41302 0.0
C314 C 0.06035 0.96928 0.35498 0.0
C315 C 0.10496 0.97609 0.36187 0.0
C316 C 0.06438 0.00812 0.34227 0.0
C317 C 0.03469 0.00018 0.32194 0.0
C318 C 0.02628 0.96256 0.30716 0.0
C319 C -0.00056 0.95501 0.28769 0.0
C320 C -0.02003 -0.01568 0.28291 0.0
C321 C -0.01273 0.02124 0.29763 0.0
C322 C 0.01471 0.02944 0.31698 0.0
C323 C 0.16391 0.17293 0.4006 0.0
C324 C 0.17229 0.1602 0.42204 0.0
C325 C 0.14704 0.1396 0.38316 0.0
C326 C 0.13544 0.09246 0.38752 0.0
C327 C 0.13421 0.07812 0.41012 0.0
C328 C 0.15388 0.11198 0.42712 0.0
C329 C 0.1245 0.05751 0.36906 0.0
C330 C 0.09288 0.05336 0.35184 0.0
C331 C 0.137 0.02094 0.37092 0.0
C332 C 0.18 0.02858 0.38359 0.0
C333 C 0.17816 -0.00675 0.39815 0.0
C334 C 0.21762 0.00241 0.41128 0.0
C335 C 0.25918 0.04677 0.41007 0.0
C336 C 0.26172 0.08187 0.39547 0.0
C337 C 0.22253 0.07284 0.38219 0.0
H338 H 0.28955 0.05383 0.42036 0.0
H339 H 0.95924 0.97843 0.26781 0.0
H340 H 0.02432 0.92856 0.72491 0.0
H341 H 0.06922 0.97641 0.69331 0.0
H342 H 0.19869 0.03552 0.73293 0.0
H343 H 0.15233 -0.01466 0.76438 0.0
H344 H 0.23571 0.09088 0.70422 0.0
H345 H 0.17265 0.02892 0.64816 0.0
H346 H 0.13519 0.98189 0.61424 0.0
H347 H 0.00445 0.98231 0.63078 0.0
H348 H 0.04089 0.02965 0.66475 0.0
H349 H 0.04836 0.17807 0.73306 0.0
H350 H 0.08068 0.15045 0.70354 0.0
H351 H 0.16308 0.12555 0.75346 0.0
H352 H 0.13835 0.16425 0.78193 0.0
H353 H 0.09054 0.09632 0.68399 0.0
H354 H 0.2581 0.12403 0.74034 0.0
H355 H 0.32304 0.19079 0.76045 0.0
H356 H 0.28251 0.28747 0.73158 0.0
H357 H 0.21774 0.22152 0.71101 0.0
C358 C 0.06237 0.95229 0.7269 0.0
C359 C 0.0848 0.95373 0.7472 0.0
C360 C 0.08882 0.97977 0.70846 0.0
C361 C 0.13842 0.012 0.71003 0.0
C362 C 0.1608 0.01222 0.73053 0.0
C363 C 0.13424 -0.0163 0.74885 0.0
C364 C 0.16365 0.05114 0.6926 0.0
C365 C 0.20348 0.09207 0.70073 0.0
C366 C 0.13329 0.06162 0.67978 0.0
C367 C 0.11007 0.03365 0.65912 0.0
C368 C 0.1359 0.01916 0.64464 0.0
C369 C 0.11477 -0.00761 0.62531 0.0
C370 C 0.06743 0.9791 0.62032 0.0
C371 C 0.04126 -0.00705 0.63458 0.0
C372 C 0.06241 0.02032 0.6538 0.0
C373 C 0.07398 0.16794 0.73773 0.0
C374 C 0.09246 0.17589 0.75959 0.0
C375 C 0.0925 0.15138 0.72066 0.0
C376 C 0.12753 0.13897 0.72561 0.0
C377 C 0.13955 0.13892 0.74847 0.0
C378 C 0.12365 0.15896 0.76512 0.0
C379 C 0.14951 0.12314 0.70758 0.0
C380 C 0.12162 0.09469 0.6895 0.0
C381 C 0.19566 0.12786 0.71024 0.0
C382 C 0.23403 0.16773 0.72323 0.0
C383 C 0.26365 0.15961 0.73775 0.0
C384 C 0.30025 0.19736 0.74946 0.0
C385 C 0.30732 0.24347 0.74708 0.0
C386 C 0.27737 0.25181 0.73322 0.0
C387 C 0.24073 0.21419 0.72149 0.0
H388 H 0.33571 0.27265 0.75615 0.0
H389 H 0.05101 0.95801 0.60544 0.0
H390 H 0.31894 0.35793 1.02924 0.0
H391 H 0.34136 0.40869 0.99604 0.0
H392 H 0.45579 0.37845 0.9808 0.0
H393 H 0.43468 0.32845 1.01475 0.0
H394 H 0.42152 0.4855 0.97359 0.0
H395 H 0.43707 0.34053 0.92649 0.0
H396 H 0.4181 0.25696 0.93162 0.0
H397 H 0.2948 0.22916 0.97248 0.0
H398 H 0.31284 0.31228 0.96741 0.0
H399 H 0.35078 0.42957 0.84412 0.0
H400 H 0.4029 0.43723 0.87553 0.0
H401 H 0.30971 0.45934 0.92163 0.0
H402 H 0.25766 0.45181 0.89035 0.0
H403 H 0.36685 0.37184 0.90947 0.0
H404 H 0.37053 0.52383 0.96581 0.0
H405 H 0.38603 0.60618 0.96098 0.0
H406 H 0.46771 0.62082 0.90019 0.0
H407 H 0.45303 0.53869 0.90473 0.0
C408 C 0.3503 0.36358 1.01954 0.0
C409 C 0.37453 0.33838 1.02454 0.0
C410 C 0.3631 0.39281 1.00049 0.0
C411 C 0.39987 0.3969 0.98589 0.0
C412 C 0.42713 0.3755 0.99187 0.0
C413 C 0.41459 0.34648 1.01111 0.0
C414 C 0.40202 0.41455 0.96265 0.0
C415 C 0.41023 0.46108 0.95942 0.0
C416 C 0.38845 0.38288 0.94411 0.0
C417 C 0.37664 0.3326 0.94678 0.0
C418 C 0.40588 0.31645 0.93651 0.0
C419 C 0.3953 0.26921 0.93943 0.0
C420 C 0.3554 0.23781 0.95247 0.0
C421 C 0.32581 0.25352 0.9625 0.0
C422 C 0.33619 0.30066 0.9596 0.0
C423 C 0.34227 0.43753 0.86086 0.0
C424 C 0.29999 0.43968 0.8649 0.0
C425 C 0.37207 0.4419 0.87874 0.0
C426 C 0.36039 0.44921 0.90085 0.0
C427 C 0.31987 0.45451 0.90464 0.0
C428 C 0.28982 0.44963 0.88683 0.0
C429 C 0.38449 0.44244 0.92046 0.0
C430 C 0.38065 0.39748 0.92314 0.0
C431 C 0.40186 0.47559 0.9384 0.0
C432 C 0.41053 0.52497 0.93558 0.0
C433 C 0.39199 0.54466 0.95147 0.0
C434 C 0.40055 0.59129 0.94875 0.0
C435 C 0.42778 0.61869 0.93028 0.0
C436 C 0.44648 0.5995 0.91445 0.0
C437 C 0.43793 0.55287 0.91705 0.0
H438 H 0.4344 0.65479 0.92823 0.0
H439 H 0.34732 0.20129 0.95474 0.0
H440 H 0.03256 0.37511 0.3751 0.0
H441 H 0.97313 0.37657 0.35025 0.0
H442 H 0.03269 0.33595 0.29386 0.0
H443 H 0.09311 0.33605 0.31838 0.0
H444 H 0.00197 0.39588 0.28037 0.0
H445 H 0.9422 0.25113 0.32716 0.0
H446 H 0.92343 0.20939 0.36397 0.0
H447 H 0.83263 0.26799 0.38221 0.0
H448 H 0.85135 0.31046 0.34556 0.0
H449 H 0.83593 0.18118 0.22865 0.0
H450 H 0.85873 0.22001 0.26501 0.0
H451 H 0.84287 0.337 0.24009 0.0
H452 H 0.81944 0.29776 0.20324 0.0
H453 H 0.83939 0.26353 0.29953 0.0
H454 H 0.94559 0.43511 0.25177 0.0
H455 H 0.96874 0.46563 0.21264 0.0
H456 H 0.97239 0.33864 0.19347 0.0
H457 H 0.94974 0.30775 0.23251 0.0
C458 C 0.03392 0.36796 0.35725 0.0
C459 C 0.06711 0.35488 0.34869 0.0
C460 C -0.00021 0.36861 0.34313 0.0
C461 C -0.00179 0.35587 0.32031 0.0
C462 C 0.03334 0.34599 0.31144 0.0
C463 C 0.06748 0.34547 0.3255 0.0
C464 C 0.95694 0.34637 0.30616 0.0
C465 C 0.96601 0.36802 0.2848 0.0
C466 C 0.91005 0.31 0.31194 0.0
C467 C 0.89859 0.28435 0.33383 0.0
C468 C 0.91845 0.25527 0.3391 0.0
C469 C 0.90781 0.23148 0.35991 0.0
C470 C 0.87698 0.23616 0.37545 0.0
C471 C 0.85661 0.26451 0.37018 0.0
C472 C 0.86721 0.28845 0.34941 0.0
C473 C 0.83473 0.2139 0.23111 0.0
C474 C 0.82708 0.23699 0.21288 0.0
C475 C 0.84779 0.23617 0.25204 0.0
C476 C 0.85356 0.28189 0.25507 0.0
C477 C 0.83926 0.30199 0.23795 0.0
C478 C 0.82622 0.27968 0.21688 0.0
C479 C 0.8851 0.31142 0.2734 0.0
C480 C 0.87437 0.29367 0.2956 0.0
C481 C 0.93097 0.35037 0.2682 0.0
C482 C 0.94557 0.36906 0.24489 0.0
C483 C 0.9515 0.41387 0.23918 0.0
C484 C 0.9645 0.43119 0.21704 0.0
C485 C 0.97189 0.40403 0.20057 0.0
C486 C 0.9666 0.35962 0.20623 0.0
C487 C 0.95373 0.34222 0.22834 0.0
H488 H -0.01819 0.41743 0.18343 0.0
H489 H 0.86878 0.21772 0.39155 0.0
H490 H 0.72877 0.10051 0.70385 0.0
H491 H 0.6717 0.06708 0.67287 0.0
H492 H 0.78887 0.09871 0.62615 0.0
H493 H 0.84538 0.13291 0.65662 0.0
H494 H 0.72174 0.10392 0.60459 0.0
H495 H 0.72867 -0.01013 0.65895 0.0
H496 H 0.71629 0.95511 0.69727 0.0
H497 H 0.56959 0.92363 0.69733 0.0
H498 H 0.5814 0.9587 0.65908 0.0
H499 H 0.70834 0.88421 0.56365 0.0
H500 H 0.6908 0.92213 0.59519 0.0
H501 H 0.62073 0.97275 0.5502 0.0
H502 H 0.6415 0.93785 0.51818 0.0
H503 H 0.62555 0.92977 0.6181 0.0
H504 H 0.65343 0.08526 0.56416 0.0
H505 H 0.68256 0.12028 0.52615 0.0
H506 H 0.78254 0.06776 0.52523 0.0
H507 H 0.75422 0.03287 0.56329 0.0
C508 C 0.74219 0.10134 0.6868 0.0
C509 C 0.79136 0.11862 0.68262 0.0
C510 C 0.70964 0.0824 0.66915 0.0
C511 C 0.72587 0.07955 0.64727 0.0
C512 C 0.77535 0.10061 0.64285 0.0
C513 C 0.80778 0.12009 0.66033 0.0
C514 C 0.69276 0.04824 0.62974 0.0
C515 C 0.69937 0.06595 0.60758 0.0
C516 C 0.66327 -0.00127 0.6336 0.0
C517 C 0.65601 0.97726 0.65638 0.0
C518 C 0.69384 0.9756 0.66721 0.0
C519 C 0.68695 0.95591 0.68889 0.0
C520 C 0.64221 0.93728 0.69975 0.0
C521 C 0.60424 0.93818 0.68892 0.0
C522 C 0.61101 0.95798 0.66726 0.0
C523 C 0.6887 0.90292 0.56046 0.0
C524 C 0.67791 0.90946 0.5383 0.0
C525 C 0.67794 0.92401 0.5786 0.0
C526 C 0.65554 0.95144 0.57498 0.0
C527 C 0.63896 0.95262 0.55331 0.0
C528 C 0.65061 0.93229 0.53502 0.0
C529 C 0.65847 -0.01486 0.59289 0.0
C530 C 0.64533 0.96793 0.61511 0.0
C531 C 0.68391 0.03502 0.58907 0.0
C532 C 0.70129 0.05602 0.56632 0.0
C533 C 0.68162 0.08126 0.5558 0.0
C534 C 0.69799 0.10108 0.53428 0.0
C535 C 0.73424 0.09609 0.52324 0.0
C536 C 0.75438 0.07148 0.53376 0.0
C537 C 0.73822 0.05172 0.55529 0.0
H538 H 0.74681 0.11139 0.50658 0.0
H539 H 0.63692 0.92205 0.71654 0.0
H540 H 0.68314 0.72804 1.04073 0.0
H541 H 0.67147 0.6844 1.006 0.0
H542 H 0.636 0.78033 0.97189 0.0
H543 H 0.64362 0.82261 1.00723 0.0
H544 H 0.61023 0.66469 0.95347 0.0
H545 H 0.74535 0.84525 0.95971 0.0
H546 H 0.79141 0.90854 0.98744 0.0
H547 H 0.81685 0.81068 1.02582 0.0
H548 H 0.77178 0.74721 0.99806 0.0
H549 H 0.75117 0.72344 0.84953 0.0
H550 H 0.70035 0.71518 0.88247 0.0
H551 H 0.79745 0.69658 0.92538 0.0
H552 H 0.84844 0.70483 0.8925 0.0
H553 H 0.78475 0.76856 0.93899 0.0
H554 H 0.68301 0.60616 0.91618 0.0
H555 H 0.63175 0.5408 0.8906 0.0
H556 H 0.53621 0.59789 0.88524 0.0
H557 H 0.58714 0.66391 0.9106 0.0
C558 C 0.6696 0.7384 1.02647 0.0
C559 C 0.66706 0.78088 1.02662 0.0
C560 C 0.66266 0.71286 1.00646 0.0
C561 C 0.65431 0.73007 0.98634 0.0
C562 C 0.64295 0.76684 0.98729 0.0
C563 C 0.64855 0.79171 1.00747 0.0
C564 C 0.67572 0.72348 0.96533 0.0
C565 C 0.6482 0.68741 0.95001 0.0
C566 C 0.7253 0.7529 0.96121 0.0
C567 C 0.75539 0.79173 0.9769 0.0
C568 C 0.76125 0.83751 0.97395 0.0
C569 C 0.78702 0.87331 0.98967 0.0
C570 C 0.80686 0.86355 1.0084 0.0
C571 C 0.80138 0.81813 1.01133 0.0
C572 C 0.77611 0.78238 0.99553 0.0
C573 C 0.76102 0.71632 0.8659 0.0
C574 C 0.80404 0.71524 0.86851 0.0
C575 C 0.73185 0.71149 0.88469 0.0
C576 C 0.74507 0.70517 0.90634 0.0
C577 C 0.78667 0.70153 0.90879 0.0
C578 C 0.81591 0.70654 0.89005 0.0
C579 C 0.71964 0.70905 0.92671 0.0
C580 C 0.74668 0.74539 0.94207 0.0
C581 C 0.66964 0.67976 0.93058 0.0
C582 C 0.63927 0.64035 0.9151 0.0
C583 C 0.65136 0.6051 0.90937 0.0
C584 C 0.62225 0.56781 0.89496 0.0
C585 C 0.58078 0.56523 0.88628 0.0
C586 C 0.56831 0.59991 0.89199 0.0
C587 C 0.59728 0.63725 0.90639 0.0
H588 H 0.55827 0.53631 0.87515 0.0
H589 H 0.82681 0.8913 1.02054 0.0
H590 H 0.14079 0.82904 0.37954 0.0
H591 H 0.20792 0.84728 0.35406 0.0
H592 H 0.13274 0.86859 0.29943 0.0
H593 H 0.06326 0.84497 0.32407 0.0
H594 H 0.1681 0.82136 0.28396 0.0
H595 H 0.23451 0.96434 0.32756 0.0
H596 H 0.26037 0.01585 0.3611 0.0
H597 H 0.35115 0.95893 0.37987 0.0
H598 H 0.32616 0.90731 0.34612 0.0
H599 H 0.37298 0.00898 0.22583 0.0
H600 H 0.3459 0.98251 0.26434 0.0
H601 H 0.3151 0.84037 0.2464 0.0
H602 H 0.33915 0.86619 0.20731 0.0
H603 H 0.33717 0.93691 0.30118 0.0
H604 H 0.20148 0.76568 0.25725 0.0
H605 H 0.17497 0.7346 0.21877 0.0
H606 H 0.21586 0.87557 0.19528 0.0
H607 H 0.24254 0.90736 0.23358 0.0
C608 C 0.13789 0.83657 0.362 0.0
C609 C 0.0958 0.83447 0.35389 0.0
C610 C 0.17698 0.84808 0.34752 0.0
C611 C 0.17566 0.85953 0.3248 0.0
C612 C 0.13454 0.85941 0.31686 0.0
C613 C 0.0949 0.84652 0.33113 0.0
C614 C 0.21594 0.86947 0.3089 0.0
C615 C 0.20505 0.84643 0.28789 0.0
C616 C 0.2643 0.90213 0.31384 0.0
C617 C 0.27803 0.93159 0.33453 0.0
C618 C 0.25962 0.96247 0.33897 0.0
C619 C 0.27425 -0.00819 0.35799 0.0
C620 C 0.30713 -0.00953 0.37275 0.0
C621 C 0.32558 0.95984 0.36846 0.0
C622 C 0.31134 0.93066 0.34935 0.0
C623 C 0.36261 0.97259 0.23035 0.0
C624 C 0.35558 0.939 0.21347 0.0
C625 C 0.34726 0.95744 0.25247 0.0
C626 C 0.32589 0.90883 0.25785 0.0
C627 C 0.32984 0.87774 0.24228 0.0
C628 C 0.34405 0.89265 0.21993 0.0
C629 C 0.28892 0.89003 0.27614 0.0
C630 C 0.30032 0.91084 0.29765 0.0
C631 C 0.24041 0.85764 0.2712 0.0
C632 C 0.22444 0.83885 0.24816 0.0
C633 C 0.20478 0.78995 0.24384 0.0
C634 C 0.1898 0.77226 0.22207 0.0
C635 C 0.19396 0.80314 0.20457 0.0
C636 C 0.21288 0.85175 0.20882 0.0
C637 C 0.22791 0.8696 0.23055 0.0
H638 H 0.18238 0.78939 0.18773 0.0
H639 H 0.31861 0.01335 0.38743 0.0
H640 H 0.30975 0.04214 0.66364 0.0
H641 H 0.33516 0.11274 0.64025 0.0
H642 H 0.34939 0.19607 0.70009 0.0
H643 H 0.32861 0.12629 0.72362 0.0
H644 H 0.28765 0.15465 0.63472 0.0
H645 H 0.41188 0.31387 0.68704 0.0
H646 H 0.46942 0.33571 0.71809 0.0
H647 H 0.50631 0.23065 0.69557 0.0
H648 H 0.4492 0.20847 0.66432 0.0
H649 H 0.34126 0.32401 0.55381 0.0
H650 H 0.32532 0.30428 0.59394 0.0
H651 H 0.45687 0.29899 0.59808 0.0
H652 H 0.47436 0.32129 0.55835 0.0
H653 H 0.43202 0.31426 0.63878 0.0
H654 H 0.35367 0.20918 0.57506 0.0
H655 H 0.30055 0.17707 0.54235 0.0
H656 H 0.18093 0.15881 0.58362 0.0
H657 H 0.23373 0.19214 0.61637 0.0
C658 C 0.31952 0.07581 0.67181 0.0
C659 C 0.31596 0.07854 0.69537 0.0
C660 C 0.33366 0.1161 0.65846 0.0
C661 C 0.34331 0.15965 0.66835 0.0
C662 C 0.3426 0.16315 0.69201 0.0
C663 C 0.33044 0.12314 0.70544 0.0
C664 C 0.35119 0.19975 0.65342 0.0
C665 C 0.3191 0.1897 0.63572 0.0
C666 C 0.39122 0.24595 0.65512 0.0
C667 C 0.4261 0.25932 0.67354 0.0
C668 C 0.43243 0.29559 0.68871 0.0
C669 C 0.46488 0.30797 0.70634 0.0
C670 C 0.49141 0.28449 0.70884 0.0
C671 C 0.48564 0.2487 0.69366 0.0
C672 C 0.45322 0.23618 0.67601 0.0
C673 C 0.36808 0.32114 0.5635 0.0
C674 C 0.40823 0.32229 0.55276 0.0
C675 C 0.35873 0.30967 0.58647 0.0
C676 C 0.38889 0.29829 0.5987 0.0
C677 C 0.43263 0.30684 0.58887 0.0
C678 C 0.44233 0.31897 0.56604 0.0
C679 C 0.37089 0.26742 0.619 0.0
C680 C 0.40009 0.27955 0.63806 0.0
C681 C 0.32909 0.22208 0.61811 0.0
C682 C 0.29794 0.20452 0.59803 0.0
C683 C 0.31624 0.19921 0.57705 0.0
C684 C 0.28614 0.18055 0.55851 0.0
C685 C 0.23738 0.16588 0.56089 0.0
C686 C 0.2187 0.17016 0.58179 0.0
C687 C 0.2488 0.1894 0.60028 0.0
H688 H 0.2141 0.15131 0.54654 0.0
H689 H 0.5165 0.2941 0.7225 0.0
H690 H 0.441 0.16584 0.12398 0.0
H691 H 0.51439 0.15975 0.12568 0.0
H692 H 0.45105 0.03728 1.08182 0.0
H693 H 0.37911 0.04475 1.07926 0.0
H694 H 0.53261 0.09499 0.14143 0.0
H695 H 0.53286 0.02843 1.04984 0.0
H696 H 0.50879 0.03812 1.01168 0.0
H697 H 0.52466 0.17394 1.03058 0.0
H698 H 0.5494 0.16534 1.06874 0.0
H699 H 0.67856 -0.0146 0.13245 0.0
H700 H 0.61389 0.00533 0.13182 0.0
H701 H 0.69976 0.12438 1.08756 0.0
H702 H 0.76371 0.10375 1.08767 0.0
H703 H 0.61302 0.07797 1.07227 0.0
H704 H 0.67997 0.14248 0.14382 0.0
H705 H 0.70987 0.144 0.18211 0.0
H706 H 0.57179 0.03048 0.20287 0.0
H707 H 0.54091 0.02838 0.16467 0.0
C708 C 0.4431 0.13797 0.11455 0.0
C709 C 0.40423 0.1055 0.10166 0.0
C710 C 0.48488 0.13429 0.11563 0.0
C711 C 0.48862 0.09824 0.10375 0.0
C712 C 0.44964 0.06591 1.09085 0.0
C713 C 0.40824 0.0699 1.08958 0.0
C714 C 0.5328 0.09384 0.10497 0.0
C715 C 0.55019 0.09137 0.12629 0.0
C716 C 0.55668 0.09015 1.08526 0.0
C717 C 0.5426 0.09602 1.06221 0.0
C718 C 0.53145 0.06046 1.04582 0.0
C719 C 0.51763 0.06574 1.02419 0.0
C720 C 0.51506 0.10656 1.01873 0.0
C721 C 0.52649 0.14227 1.03485 0.0
C722 C 0.54037 0.13718 1.05649 0.0
C723 C 0.68366 0.01598 0.12272 0.0
C724 C 0.72638 0.04332 0.11032 0.0
C725 C 0.64681 0.02754 0.12246 0.0
C726 C 0.65202 0.06676 0.10984 0.0
C727 C 0.69483 0.0941 0.0975 0.0
C728 C 0.73158 0.08252 0.09774 0.0
C729 C 0.61218 0.07809 0.10873 0.0
C730 C 0.59553 0.08174 1.08742 0.0
C731 C 0.58987 0.08419 0.12841 0.0
C732 C 0.60828 0.08497 0.15134 0.0
C733 C 0.65608 0.11758 0.1565 0.0
C734 C 0.67319 0.1186 0.17819 0.0
C735 C 0.64289 0.08713 0.19487 0.0
C736 C 0.59527 0.05476 0.18992 0.0
C737 C 0.57788 0.05375 0.16827 0.0
H738 H 0.65626 0.08797 0.21165 0.0
H739 H 0.5043 0.11054 1.00199 0.0
H740 H 0.40028 0.37817 0.41469 0.0
H741 H 0.48157 0.44626 0.41739 0.0
H742 H 0.43218 0.50848 0.46875 0.0
H743 H 0.35102 0.44053 0.4661 0.0
H744 H 0.51471 0.53969 0.40881 0.0
H745 H 0.51477 0.56424 0.50564 0.0
H746 H 0.48767 0.51562 0.54058 0.0
H747 H 0.49562 0.40178 0.50625 0.0
H748 H 0.52127 0.44912 0.47104 0.0
H749 H 0.71951 0.7651 0.42907 0.0
H750 H 0.6369 0.69877 0.42939 0.0
H751 H 0.68227 0.61182 0.46523 0.0
H752 H 0.76378 0.67847 0.46597 0.0
H753 H 0.6012 0.59186 0.48123 0.0
H754 H 0.66342 0.60555 0.40552 0.0
H755 H 0.70003 0.64604 0.36935 0.0
H756 H 0.58153 0.67027 0.35862 0.0
H757 H 0.54452 0.63043 0.39489 0.0
C758 C 0.40693 0.40619 0.4267 0.0
C759 C 0.36938 0.40404 0.44023 0.0
C760 C 0.45331 0.4452 0.42814 0.0
C761 C 0.46315 0.48251 0.44333 0.0
C762 C 0.42569 0.48 0.45706 0.0
C763 C 0.37927 0.44125 0.45547 0.0
C764 C 0.51215 0.52471 0.44443 0.0
C765 C 0.5336 0.5512 0.42465 0.0
C766 C 0.53736 0.53937 0.46493 0.0
C767 C 0.51947 0.51001 0.48573 0.0
C768 C 0.51027 0.52866 0.50555 0.0
C769 C 0.49499 0.50125 0.52536 0.0
C770 C 0.48956 0.45547 0.5256 0.0
C771 C 0.49918 0.43695 0.506 0.0
C772 C 0.5137 0.46388 0.48607 0.0
C773 C 0.71158 0.7321 0.43737 0.0
C774 C 0.74819 0.72705 0.4475 0.0
C775 C 0.66442 0.69394 0.43732 0.0
C776 C 0.65317 0.6497 0.44698 0.0
C777 C 0.68965 0.64533 0.45765 0.0
C778 C 0.73644 0.68353 0.45799 0.0
C779 C 0.60405 0.60741 0.4456 0.0
C780 C 0.58233 0.58085 0.46537 0.0
C781 C 0.57945 0.59175 0.42487 0.0
C782 C 0.60148 0.61548 0.40302 0.0
C783 C 0.64534 0.6198 0.39551 0.0
C784 C 0.66614 0.64259 0.37499 0.0
C785 C 0.64319 0.66085 0.36172 0.0
C786 C 0.59931 0.6562 0.36893 0.0
C787 C 0.57839 0.6335 0.38946 0.0
H788 H 0.65935 0.67849 0.34584 0.0
H789 H 0.47807 0.43443 0.54099 0.0
H790 H 0.94633 0.32997 0.78964 0.0
H791 H 0.95076 0.40784 0.79101 0.0
H792 H 0.09063 0.47167 0.75882 0.0
H793 H 0.08585 0.3933 0.75702 0.0
H794 H 0.00837 0.48803 0.81139 0.0
H795 H 0.1053 0.56399 0.72541 0.0
H796 H 0.11275 0.53477 0.68768 0.0
H797 H 0.97512 0.41015 0.69711 0.0
H798 H 0.96656 0.43893 0.73473 0.0
H799 H 0.11431 0.73833 0.80506 0.0
H800 H 0.09479 0.65501 0.80432 0.0
H801 H -0.01466 0.62455 0.75534 0.0
H802 H 0.00518 0.70863 0.75591 0.0
H803 H 0.04228 0.58774 0.74254 0.0
H804 H 0.95399 0.58416 0.80886 0.0
H805 H 0.94037 0.61087 0.84607 0.0
H806 H 0.04773 0.58546 0.87503 0.0
H807 H 0.06252 0.55926 0.8379 0.0
C808 C -0.02196 0.36062 0.78284 0.0
C809 C 0.01567 0.35562 0.77313 0.0
C810 C -0.01942 0.40514 0.7837 0.0
C811 C 0.02077 0.44563 0.77482 0.0
C812 C 0.05889 0.44085 0.76546 0.0
C813 C 0.05628 0.39616 0.76454 0.0
C814 C 0.02258 0.49269 0.77545 0.0
C815 C 0.01579 0.5098 0.79633 0.0
C816 C 0.03109 0.52071 0.75573 0.0
C817 C 0.03554 0.50344 0.73297 0.0
C818 C 0.07654 0.53046 0.71938 0.0
C819 C 0.08097 0.51395 0.69803 0.0
C820 C 0.0445 0.47056 0.69004 0.0
C821 C 0.00342 0.44367 0.70335 0.0
C822 C -0.00121 0.46004 0.7247 0.0
C823 C 0.08563 0.71377 0.79434 0.0
C824 C 0.06129 0.72991 0.78052 0.0
C825 C 0.07443 0.6661 0.79398 0.0
C826 C 0.03847 0.63341 0.77984 0.0
C827 C 0.01325 0.64918 0.76636 0.0
C828 C 0.02435 0.69706 0.76681 0.0
C829 C 0.02913 0.58345 0.77855 0.0
C830 C 0.03463 0.56585 0.75757 0.0
C831 C 0.01856 0.55459 0.79811 0.0
C832 C 0.0096 0.57006 0.82053 0.0
C833 C 0.97495 0.58459 0.82312 0.0
C834 C 0.96698 0.59959 0.84421 0.0
C835 C -0.00677 0.59995 0.86289 0.0
C836 C 0.02743 0.58519 0.86053 0.0
C837 C 0.03559 0.5702 0.83947 0.0
H838 H -0.01299 0.61158 0.8792 0.0
H839 H 0.04802 0.45782 0.67351 0.0
H840 H 0.30369 0.06236 0.18995 0.0
H841 H 0.30592 0.08892 0.22918 0.0
H842 H 0.23721 0.16863 0.20901 0.0
H843 H 0.2369 0.14375 0.16985 0.0
H844 H 0.29088 0.2199 0.23787 0.0
H845 H 0.18623 0.05082 0.24556 0.0
H846 H 0.15998 0.96491 0.24421 0.0
H847 H 0.27712 -0.01288 0.2861 0.0
H848 H 0.30432 0.07312 0.28757 0.0
H849 H 0.23395 0.26766 0.35082 0.0
H850 H 0.23206 0.2377 0.31235 0.0
H851 H 0.31813 0.17664 0.33341 0.0
H852 H 0.3198 0.20635 0.37195 0.0
H853 H 0.25726 0.11591 0.30485 0.0
H854 H 0.36025 0.28451 0.29748 0.0
H855 H 0.38304 0.36935 0.30075 0.0
H856 H 0.26577 0.34639 0.25871 0.0
H857 H 0.24194 0.26125 0.25542 0.0
C858 C 0.28872 0.08534 0.19375 0.0
C859 C 0.26991 0.10023 0.17595 0.0
C860 C 0.2896 0.10055 0.21668 0.0
C861 C 0.27096 0.13094 0.22329 0.0
C862 C 0.2522 0.14561 0.20538 0.0
C863 C 0.25179 0.13087 0.18252 0.0
C864 C 0.27195 0.14866 0.24815 0.0
C865 C 0.2826 0.19629 0.25227 0.0
C866 C 0.26282 0.11994 0.26804 0.0
C867 C 0.24763 0.06854 0.26644 0.0
C868 C 0.2067 0.03745 0.25428 0.0
C869 C 0.19157 -0.0113 0.25355 0.0
C870 C 0.21689 0.97056 0.26506 0.0
C871 C 0.25755 0.00117 0.2772 0.0
C872 C 0.27283 0.04992 0.27798 0.0
C873 C 0.25307 0.24835 0.34739 0.0
C874 C 0.27787 0.24085 0.36514 0.0
C875 C 0.25209 0.231 0.32497 0.0
C876 C 0.27574 0.20495 0.31888 0.0
C877 C 0.29961 0.19656 0.33677 0.0
C878 C 0.30087 0.21417 0.35916 0.0
C879 C 0.27554 0.18665 0.29431 0.0
C880 C 0.26528 0.13917 0.29031 0.0
C881 C 0.28474 0.21531 0.27451 0.0
C882 C 0.29905 0.26643 0.27639 0.0
C883 C 0.33915 0.2975 0.28906 0.0
C884 C 0.35227 0.34564 0.2909 0.0
C885 C 0.32579 0.36322 0.27999 0.0
C886 C 0.2862 0.33271 0.26717 0.0
C887 C 0.27289 0.28451 0.2653 0.0
H888 H 0.33601 0.4005 0.28144 0.0
H889 H 0.20485 0.93278 0.26466 0.0
H890 H 0.174 0.30799 0.50124 0.0
H891 H 0.15101 0.30951 0.54063 0.0
H892 H 0.24555 0.25786 0.56128 0.0
H893 H 0.27065 0.25913 0.52185 0.0
H894 H 0.24341 0.29286 0.5946 0.0
H895 H 0.06982 0.30382 0.57849 0.0
H896 H 0.00435 0.27445 0.55102 0.0
H897 H 0.03335 0.16251 0.53125 0.0
H898 H 0.09864 0.19092 0.55876 0.0
H899 H 0.16982 0.33343 0.70463 0.0
H900 H 0.19707 0.33385 0.66548 0.0
H901 H 0.05782 0.21746 0.64961 0.0
H902 H 0.03043 0.21783 0.68851 0.0
H903 H 0.07943 0.26023 0.61445 0.0
H904 H 0.17485 0.20864 0.6494 0.0
H905 H 0.23221 0.19944 0.67302 0.0
H906 H 0.34185 0.34109 0.65557 0.0
H907 H 0.2857 0.35008 0.63064 0.0
C908 C 0.18979 0.29643 0.51408 0.0
C909 C 0.22397 0.28262 0.50759 0.0
C910 C 0.17575 0.29649 0.53711 0.0
C911 C 0.19351 0.28093 0.55515 0.0
C912 C 0.229 0.26864 0.54859 0.0
C913 C 0.24381 0.26948 0.52556 0.0
C914 C 0.17617 0.27833 0.58037 0.0
C915 C 0.20747 0.28599 0.59853 0.0
C916 C 0.12848 0.26696 0.58707 0.0
C917 C 0.08948 0.2499 0.57046 0.0
C918 C 0.06216 0.27292 0.56829 0.0
C919 C 0.02511 0.25644 0.55272 0.0
C920 C 0.01484 0.21676 0.53933 0.0
C921 C 0.04148 0.19336 0.54156 0.0
C922 C 0.07853 0.20965 0.55712 0.0
C923 C 0.14464 0.30796 0.69287 0.0
C924 C 0.09721 0.27601 0.70041 0.0
C925 C 0.16068 0.30776 0.67012 0.0
C926 C 0.13038 0.2754 0.65354 0.0
C927 C 0.08295 0.2435 0.66119 0.0
C928 C 0.06695 0.24369 0.68388 0.0
C929 C 0.14705 0.27576 0.62847 0.0
C930 C 0.11556 0.26766 0.61038 0.0
C931 C 0.19332 0.28298 0.6219 0.0
C932 C 0.22573 0.28053 0.63868 0.0
C933 C 0.21088 0.23825 0.65099 0.0
C934 C 0.24333 0.23286 0.66441 0.0
C935 C 0.29029 0.27013 0.66633 0.0
C936 C 0.30524 0.31251 0.65434 0.0
C937 C 0.27328 0.31759 0.64035 0.0
H938 H 0.31523 0.26591 0.67688 0.0
H939 H -0.01385 0.20407 0.52729 0.0
H940 H 0.93549 0.17334 0.83751 0.0
H941 H 0.90996 0.15025 0.87682 0.0
H942 H 0.0565 0.23345 0.89766 0.0
H943 H 0.08131 0.25939 0.8584 0.0
H944 H 0.91029 0.10306 0.90763 0.0
H945 H 0.07057 0.25379 0.95388 0.0
H946 H 0.12995 0.33883 0.94872 0.0
H947 H 0.03305 0.35679 0.90595 0.0
H948 H 0.97295 0.27197 0.91104 0.0
H949 H 0.87382 0.03026 1.02442 0.0
H950 H 0.90256 0.05504 0.98566 0.0
H951 H 0.91653 0.19284 0.99912 0.0
H952 H 0.89115 0.16898 1.03856 0.0
H953 H -0.01899 0.21327 0.97204 0.0
H954 H 0.82084 0.08738 0.96298 0.0
H955 H 0.75119 0.00681 0.96728 0.0
H956 H 0.82978 0.9468 0.93435 0.0
H957 H 0.90038 0.02697 0.9303 0.0
C958 C 0.96252 0.18732 0.85041 0.0
C959 C 0.01083 0.21899 0.84413 0.0
C960 C 0.9477 0.17364 0.87333 0.0
C961 C -0.01965 0.19009 0.89145 0.0
C962 C 0.02905 0.22086 0.885 0.0
C963 C 0.04372 0.23558 0.86209 0.0
C964 C 0.96324 0.17458 0.91647 0.0
C965 C 0.92622 0.12767 0.92152 0.0
C966 C -0.01804 0.2054 0.93557 0.0
C967 C 0.01754 0.25648 0.93265 0.0
C968 C 0.06192 0.27595 0.94345 0.0
C969 C 0.0957 0.32408 0.94051 0.0
C970 C 0.08534 0.35315 0.92695 0.0
C971 C 0.04109 0.3342 0.91638 0.0
C972 C 0.00717 0.28611 0.91927 0.0
C973 C 0.88244 0.06581 1.01923 0.0
C974 C 0.87915 0.09703 1.03526 0.0
C975 C 0.89887 0.08018 0.99654 0.0
C976 C 0.91122 0.12609 0.98815 0.0
C977 C 0.90771 0.15722 1.00425 0.0
C978 C 0.89247 0.14323 1.02715 0.0
C979 C 0.92815 0.1418 0.96317 0.0
C980 C 0.96514 0.18868 0.95814 0.0
C981 C 0.90815 0.11145 0.944 0.0
C982 C 0.86603 0.06316 0.94652 0.0
C983 C 0.8234 0.05697 0.9568 0.0
C984 C 0.78379 0.01138 0.95921 0.0
C985 C 0.78614 0.97173 0.95115 0.0
C986 C 0.82812 0.97758 0.94065 0.0
C987 C 0.86796 0.02307 0.93831 0.0
H988 H 0.75541 0.93647 0.953 0.0
H989 H 0.11158 0.39037 0.92467 0.0
H990 H 0.88872 0.08191 0.19216 0.0
H991 H 0.89157 0.05648 0.23082 0.0
H992 H 0.81601 0.90978 0.20964 0.0
H993 H 0.8172 0.93574 0.17072 0.0
H994 H 0.85991 0.90258 0.23912 0.0
H995 H 0.89705 0.0742 0.28762 0.0
H996 H 0.87791 0.13955 0.28561 0.0
H997 H 0.75422 0.05167 0.24609 0.0
H998 H 0.77227 -0.01435 0.2481 0.0
H999 H 0.90835 0.86502 0.35412 0.0
H1000 H 0.90988 0.89297 0.31545 0.0
H1001 H 0.79757 0.92426 0.33368 0.0
H1002 H 0.7976 0.89831 0.37255 0.0
H1003 H 0.84481 -0.01258 0.3061 0.0
H1004 H 0.79023 0.82271 0.29796 0.0
H1005 H 0.79071 0.74669 0.301 0.0
H1006 H 0.91867 0.80323 0.25971 0.0
H1007 H 0.91907 0.87967 0.25651 0.0
C1008 C 0.8726 0.04414 0.19563 0.0
C1009 C 0.85261 0.01137 0.17761 0.0
C1010 C 0.8736 0.02911 0.21828 0.0
C1011 C 0.85282 0.98022 0.22457 0.0
C1012 C 0.83279 0.94766 0.20638 0.0
C1013 C 0.83315 0.96275 0.18365 0.0
C1014 C 0.85242 0.96289 0.24942 0.0
C1015 C 0.8566 0.9217 0.25355 0.0
C1016 C 0.84704 -0.01446 0.26935 0.0
C1017 C 0.83634 0.02521 0.26781 0.0
C1018 C 0.86576 0.06885 0.27852 0.0
C1019 C 0.85509 0.10598 0.27738 0.0
C1020 C 0.81492 0.09975 0.2657 0.0
C1021 C 0.78538 0.05645 0.25508 0.0
C1022 C 0.79582 0.01918 0.2562 0.0
C1023 C 0.88357 0.87747 0.35003 0.0
C1024 C 0.85253 0.87846 0.3672 0.0
C1025 C 0.88428 0.8936 0.32743 0.0
C1026 C 0.85322 0.91072 0.32043 0.0
C1027 C 0.82234 0.91174 0.33769 0.0
C1028 C 0.82206 0.89621 0.36032 0.0
C1029 C 0.8528 0.92759 0.29567 0.0
C1030 C 0.84834 0.96855 0.2916 0.0
C1031 C 0.85576 0.9035 0.27579 0.0
C1032 C 0.85536 0.8574 0.27747 0.0
C1033 C 0.81876 0.81912 0.28972 0.0
C1034 C 0.81877 0.77587 0.29141 0.0
C1035 C 0.85489 0.77024 0.2807 0.0
C1036 C 0.89088 0.80773 0.26813 0.0
C1037 C 0.89101 0.85105 0.26638 0.0
H1038 H 0.85486 0.73673 0.28203 0.0
H1039 H 0.8065 0.12836 0.26497 0.0
H1040 H 0.93745 0.80097 0.50449 0.0
H1041 H 0.96175 0.80127 0.54356 0.0
H1042 H 0.90607 0.89429 0.56242 0.0
H1043 H 0.87921 0.89152 0.52359 0.0
H1044 H 0.01781 0.84921 0.57234 0.0
H1045 H 0.89251 0.90339 0.619 0.0
H1046 H 0.81203 0.89477 0.61528 0.0
H1047 H 0.76675 0.7663 0.57714 0.0
H1048 H 0.84679 0.77391 0.58082 0.0
H1049 H 0.95459 0.79187 0.70538 0.0
H1050 H 0.93096 0.79351 0.66634 0.0
H1051 H 0.07573 0.89991 0.64945 0.0
H1052 H 0.09969 0.89694 0.68833 0.0
H1053 H 0.91886 0.84405 0.63872 0.0
H1054 H 0.02526 0.78056 0.63112 0.0
H1055 H 0.10072 0.77843 0.63475 0.0
H1056 H 0.17474 0.9057 0.59456 0.0
H1057 H 0.09975 0.90869 0.59079 0.0
C1058 C 0.92973 0.82124 0.5169 0.0
C1059 C 0.9054 0.84579 0.51013 0.0
C1060 C 0.94417 0.82166 0.5397 0.0
C1061 C 0.9357 0.84703 0.55727 0.0
C1062 C 0.91229 0.87254 0.55032 0.0
C1063 C 0.89702 0.8714 0.52757 0.0
C1064 C 0.95173 0.84693 0.58224 0.0
C1065 C -0.00427 0.8482 0.58667 0.0
C1066 C 0.92411 0.84484 0.60198 0.0
C1067 C 0.87574 0.83953 0.59998 0.0
C1068 C 0.86529 0.87322 0.6099 0.0
C1069 C 0.81979 0.86854 0.60777 0.0
C1070 C 0.78436 0.83012 0.59591 0.0
C1071 C 0.79427 0.79614 0.58625 0.0
C1072 C 0.8397 0.80063 0.58834 0.0
C1073 C -0.01812 0.81543 0.69342 0.0
C1074 C 0.02966 0.84377 0.70076 0.0
C1075 C 0.96801 0.81665 0.67068 0.0
C1076 C 0.00094 0.84634 0.65372 0.0
C1077 C 0.0487 0.87533 0.66118 0.0
C1078 C 0.06269 0.87377 0.6839 0.0
C1079 C -0.01491 0.84673 0.62879 0.0
C1080 C 0.94106 0.84536 0.62438 0.0
C1081 C 0.01215 0.84752 0.60907 0.0
C1082 C 0.05709 0.84541 0.61107 0.0
C1083 C 0.05771 0.8083 0.62321 0.0
C1084 C 0.10038 0.80687 0.62525 0.0
C1085 C 0.14256 0.84207 0.61501 0.0
C1086 C 0.14209 0.87858 0.60258 0.0
C1087 C 0.09952 0.88016 0.60048 0.0
H1088 H 0.17557 0.84092 0.61662 0.0
H1089 H 0.7492 0.82663 0.59424 0.0
H1090 H 0.03762 0.85405 0.85935 0.0
H1091 H 0.06253 0.87746 0.89863 0.0
H1092 H 0.20994 0.95429 0.8762 0.0
H1093 H 0.18525 0.93025 0.8372 0.0
H1094 H 0.21389 0.9198 0.91364 0.0
H1095 H 0.13082 0.0055 0.89587 0.0
H1096 H 0.06304 0.01637 0.88461 0.0
H1097 H -0.02187 0.92822 0.94014 0.0
H1098 H 0.0452 0.9165 0.95164 0.0
H1099 H 0.23681 0.94516 1.03646 0.0
H1100 H 0.20968 0.91824 0.99769 0.0
H1101 H 0.2117 0.05013 0.98403 0.0
H1102 H 0.23921 0.07719 1.02264 0.0
H1103 H 0.13313 0.98137 0.96501 0.0
H1104 H 0.22701 0.8707 0.94711 0.0
H1105 H 0.29985 0.86852 0.95806 0.0
H1106 H 0.36996 0.01826 0.97253 0.0
H1107 H 0.29781 0.02144 0.96138 0.0
C1108 C 0.07543 0.87601 0.86262 0.0
C1109 C 0.1089 0.8899 0.84431 0.0
C1110 C 0.08996 0.88997 0.88547 0.0
C1111 C 0.1388 0.91891 0.89136 0.0
C1112 C 0.17209 0.93222 0.87303 0.0
C1113 C 0.15764 0.91833 0.85027 0.0
C1114 C 0.15554 0.93494 0.91613 0.0
C1115 C 0.19555 0.93285 0.9247 0.0
C1116 C 0.13337 0.95312 0.93149 0.0
C1117 C 0.09284 0.95964 0.92443 0.0
C1118 C 0.09755 -0.01188 0.90557 0.0
C1119 C 0.05928 -0.00547 0.89918 0.0
C1120 C 0.01626 0.97293 0.91163 0.0
C1121 C 0.01144 0.94493 0.93052 0.0
C1122 C 0.04957 0.9384 0.93698 0.0
C1123 C 0.23194 0.96885 1.02527 0.0
C1124 C 0.24068 0.01389 1.03337 0.0
C1125 C 0.21613 0.95321 1.00274 0.0
C1126 C 0.20793 0.9816 0.98708 0.0
C1127 C 0.21672 0.02653 0.99522 0.0
C1128 C 0.23289 0.04229 1.0176 0.0
C1129 C 0.19059 0.96514 0.96252 0.0
C1130 C 0.15084 0.96756 0.95398 0.0
C1131 C 0.21312 0.94757 0.94714 0.0
C1132 C 0.2568 0.94613 0.95366 0.0
C1133 C 0.25802 0.90316 0.95257 0.0
C1134 C 0.29918 0.90176 0.95882 0.0
C1135 C 0.33944 0.94319 0.96607 0.0
C1136 C 0.33869 -0.01385 0.967 0.0
C1137 C 0.29765 -0.01224 0.96074 0.0
H1138 H 0.37125 0.94201 0.97091 0.0
H1139 H -0.01331 0.97796 0.90668 0.0
loop_
_geom_bond_atom_site_label_1
_geom_bond_atom_site_label_2
_geom_bond_distance
_geom_bond_site_symmetry_2
_ccdc_geom_bond_type
La0 C2 2.928 . S
La0 O20 2.521 . S
La0 O21 2.628 . S
La0 O22 2.554 . S
La0 O23 2.757 1_554 S
La0 O24 2.470 . S
La0 O29 2.482 . S
La0 O31 2.503 1_554 S
La1 C11 2.928 . S
La1 O23 2.482 . S
La1 O25 2.503 1_556 S
La1 O26 2.521 . S
La1 O27 2.628 . S
La1 O28 2.554 . S
La1 O29 2.757 1_556 S
La1 O30 2.470 . S
C2 La0 2.928 . S
C2 C3 1.503 . S
C2 O20 1.261 . S
C2 O21 1.243 . S
C3 C2 1.503 . S
C3 C4 1.394 . S
C3 C8 1.373 . S
C4 C3 1.394 . S
C4 C5 1.380 . S
C4 H32 0.930 . S
C5 C4 1.380 . S
C5 C6 1.376 . S
C5 H33 0.930 1_545 S
C6 C5 1.376 . S
C6 C7 1.370 . S
C7 C6 1.370 . S
C7 C8 1.396 . S
C7 H34 0.929 . S
C8 C3 1.373 . S
C8 C7 1.396 . S
C8 H35 0.929 . S
C9 O22 1.240 . S
C9 O23 1.289 1_554 S
C10 O24 1.258 . S
C10 O25 1.256 . S
C11 La1 2.928 . S
C11 C12 1.503 . S
C11 O26 1.261 . S
C11 O27 1.243 . S
C12 C11 1.503 . S
C12 C13 1.394 . S
C12 C17 1.373 . S
C13 C12 1.394 . S
C13 C14 1.380 . S
C13 H36 0.930 . S
C14 C13 1.380 . S
C14 C15 1.376 . S
C14 H37 0.930 . S
C15 C14 1.376 . S
C15 C16 1.370 . S
C16 C15 1.370 . S
C16 C17 1.396 . S
C16 H38 0.929 . S
C17 C12 1.373 . S
C17 C16 1.396 . S
C17 H39 0.929 . S
C18 O28 1.240 1_554 S
C18 O29 1.289 . S
C19 O30 1.258 . S
C19 O31 1.256 . S
O20 La0 2.521 . S
O20 C2 1.261 . S
O21 La0 2.628 . S
O21 C2 1.243 . S
O22 La0 2.554 . S
O22 C9 1.240 . S
O23 La0 2.757 1_556 S
O23 La1 2.482 . S
O23 C9 1.289 1_556 S
O24 La0 2.470 . S
O24 C10 1.258 . S
O25 La1 2.503 1_554 S
O25 C10 1.256 . S
O26 La1 2.521 . S
O26 C11 1.261 . S
O27 La1 2.628 . S
O27 C11 1.243 . S
O28 La1 2.554 . S
O28 C18 1.240 1_556 S
O29 La0 2.482 . S
O29 La1 2.757 1_554 S
O29 C18 1.289 . S
O30 La1 2.470 . S
O30 C19 1.258 . S
O31 La0 2.503 1_556 S
O31 C19 1.256 . S
H32 C4 0.930 . S
H33 C5 0.930 1_565 S
H34 C7 0.929 . S
H35 C8 0.929 . S
H36 C13 0.930 . S
H37 C14 0.930 . S
H38 C16 0.929 . S
H39 C17 0.929 . S
La40 C42 2.928 . S
La40 O60 2.521 . S
La40 O61 2.628 . S
La40 O62 2.554 . S
La40 O63 2.757 . S
La40 O64 2.470 . S
La40 O69 2.482 . S
La40 O71 2.503 . S
La41 C51 2.928 . S
La41 O63 2.482 . S
La41 O65 2.503 . S
La41 O66 2.521 . S
La41 O67 2.628 . S
La41 O68 2.554 . S
La41 O69 2.757 . S
La41 O70 2.470 . S
C42 La40 2.928 . S
C42 C43 1.503 . S
C42 O60 1.261 . S
C42 O61 1.243 . S
C43 C42 1.503 . S
C43 C44 1.394 . S
C43 C48 1.373 . S
C44 C43 1.394 . S
C44 C45 1.380 . S
C44 H72 0.930 . S
C45 C44 1.380 . S
C45 C46 1.376 . S
C45 H73 0.930 . S
C46 C45 1.376 . S
C46 C47 1.370 . S
C47 C46 1.370 . S
C47 C48 1.396 . S
C47 H74 0.929 . S
C48 C43 1.373 . S
C48 C47 1.396 . S
C48 H75 0.929 . S
C49 O62 1.240 . S
C49 O63 1.289 . S
C50 O64 1.258 . S
C50 O65 1.256 . S
C51 La41 2.928 . S
C51 C52 1.503 . S
C51 O66 1.261 . S
C51 O67 1.243 . S
C52 C51 1.503 . S
C52 C53 1.394 . S
C52 C57 1.373 . S
C53 C52 1.394 . S
C53 C54 1.380 . S
C53 H76 0.930 . S
C54 C53 1.380 . S
C54 C55 1.376 . S
C54 H77 0.930 . S
C55 C54 1.376 . S
C55 C56 1.370 . S
C56 C55 1.370 . S
C56 C57 1.396 . S
C56 H78 0.929 . S
C57 C52 1.373 . S
C57 C56 1.396 . S
C57 H79 0.929 . S
C58 O68 1.240 . S
C58 O69 1.289 . S
C59 O70 1.258 . S
C59 O71 1.256 . S
O60 La40 2.521 . S
O60 C42 1.261 . S
O61 La40 2.628 . S
O61 C42 1.243 . S
O62 La40 2.554 . S
O62 C49 1.240 . S
O63 La40 2.757 . S
O63 La41 2.482 . S
O63 C49 1.289 . S
O64 La40 2.470 . S
O64 C50 1.258 . S
O65 La41 2.503 . S
O65 C50 1.256 . S
O66 La41 2.521 . S
O66 C51 1.261 . S
O67 La41 2.628 . S
O67 C51 1.243 . S
O68 La41 2.554 . S
O68 C58 1.240 . S
O69 La40 2.482 . S
O69 La41 2.757 . S
O69 C58 1.289 . S
O70 La41 2.470 . S
O70 C59 1.258 . S
O71 La40 2.503 . S
O71 C59 1.256 . S
H72 C44 0.930 . S
H73 C45 0.930 . S
H74 C47 0.929 . S
H75 C48 0.929 . S
H76 C53 0.930 . S
H77 C54 0.930 . S
H78 C56 0.929 . S
H79 C57 0.929 . S
La80 C82 2.928 . S
La80 O100 2.521 . S
La80 O101 2.628 . S
La80 O102 2.554 . S
La80 O103 2.760 . S
La80 O104 2.470 1_455 S
La80 O109 2.492 . S
La80 O111 2.503 . S
La81 C91 2.928 . S
La81 O103 2.471 1_655 S
La81 O105 2.503 . S
La81 O106 2.521 . S
La81 O107 2.628 . S
La81 O108 2.554 . S
La81 O109 2.754 1_655 S
La81 O110 2.470 1_655 S
C82 La80 2.928 . S
C82 C83 1.503 . S
C82 O100 1.261 . S
C82 O101 1.243 . S
C83 C82 1.503 . S
C83 C84 1.394 . S
C83 C88 1.373 . S
C84 C83 1.394 . S
C84 C85 1.380 . S
C84 H112 0.930 . S
C85 C84 1.380 . S
C85 C86 1.376 . S
C85 H113 0.930 . S
C86 C85 1.376 . S
C86 C87 1.370 . S
C87 C86 1.370 . S
C87 C88 1.396 . S
C87 H114 0.929 . S
C88 C83 1.373 . S
C88 C87 1.396 . S
C88 H115 0.929 . S
C89 O102 1.240 . S
C89 O103 1.298 . S
C90 O104 1.258 . S
C90 O105 1.256 . S
C91 La81 2.928 . S
C91 C92 1.503 . S
C91 O106 1.261 . S
C91 O107 1.243 . S
C92 C91 1.503 . S
C92 C93 1.394 . S
C92 C97 1.373 . S
C93 C92 1.394 . S
C93 C94 1.380 . S
C93 H116 0.930 . S
C94 C93 1.380 . S
C94 C95 1.376 . S
C94 H117 0.930 . S
C95 C94 1.376 . S
C95 C96 1.370 . S
C96 C95 1.370 . S
C96 C97 1.396 . S
C96 H118 0.929 . S
C97 C92 1.373 . S
C97 C96 1.396 . S
C97 H119 0.929 . S
C98 O108 1.240 . S
C98 O109 1.281 1_655 S
C99 O110 1.258 . S
C99 O111 1.256 . S
O100 La80 2.521 . S
O100 C82 1.261 . S
O101 La80 2.628 . S
O101 C82 1.243 . S
O102 La80 2.554 . S
O102 C89 1.240 . S
O103 La80 2.760 . S
O103 La81 2.471 1_455 S
O103 C89 1.298 . S
O104 La80 2.470 1_655 S
O104 C90 1.258 . S
O105 La81 2.503 . S
O105 C90 1.256 . S
O106 La81 2.521 . S
O106 C91 1.261 . S
O107 La81 2.628 . S
O107 C91 1.243 . S
O108 La81 2.554 . S
O108 C98 1.240 . S
O109 La80 2.492 . S
O109 La81 2.754 1_455 S
O109 C98 1.281 1_455 S
O110 La81 2.470 1_455 S
O110 C99 1.258 . S
O111 La80 2.503 . S
O111 C99 1.256 . S
H112 C84 0.930 . S
H113 C85 0.930 . S
H114 C87 0.929 . S
H115 C88 0.929 . S
H116 C93 0.930 . S
H117 C94 0.930 . S
H118 C96 0.929 . S
H119 C97 0.929 . S
La120 C122 2.928 . S
La120 O140 2.521 . S
La120 O141 2.628 . S
La120 O142 2.554 . S
La120 O143 2.757 1_554 S
La120 O144 2.470 1_545 S
La120 O149 2.482 . S
La120 O151 2.503 1_554 S
La121 C131 2.928 . S
La121 O143 2.482 1_565 S
La121 O145 2.503 1_556 S
La121 O146 2.521 . S
La121 O147 2.628 . S
La121 O148 2.554 . S
La121 O149 2.757 1_566 S
La121 O150 2.470 1_565 S
C122 La120 2.928 . S
C122 C123 1.503 . S
C122 O140 1.261 . S
C122 O141 1.243 . S
C123 C122 1.503 . S
C123 C124 1.394 . S
C123 C128 1.373 . S
C124 C123 1.394 . S
C124 C125 1.380 . S
C124 H152 0.930 . S
C125 C124 1.380 . S
C125 C126 1.376 . S
C125 H153 0.930 . S
C126 C125 1.376 . S
C126 C127 1.370 . S
C127 C126 1.370 . S
C127 C128 1.396 . S
C127 H154 0.929 . S
C128 C123 1.373 . S
C128 C127 1.396 . S
C128 H155 0.929 . S
C129 O142 1.240 . S
C129 O143 1.289 1_554 S
C130 O144 1.258 . S
C130 O145 1.256 . S
C131 La121 2.928 . S
C131 C132 1.503 . S
C131 O146 1.261 . S
C131 O147 1.243 . S
C132 C131 1.503 . S
C132 C133 1.394 . S
C132 C137 1.373 . S
C133 C132 1.394 . S
C133 C134 1.380 . S
C133 H156 0.930 . S
C134 C133 1.380 . S
C134 C135 1.376 . S
C134 H157 0.930 . S
C135 C134 1.376 . S
C135 C136 1.370 . S
C136 C135 1.370 . S
C136 C137 1.396 . S
C136 H158 0.929 . S
C137 C132 1.373 . S
C137 C136 1.396 . S
C137 H159 0.929 . S
C138 O148 1.240 1_554 S
C138 O149 1.289 1_565 S
C139 O150 1.258 . S
C139 O151 1.256 . S
O140 La120 2.521 . S
O140 C122 1.261 . S
O141 La120 2.628 . S
O141 C122 1.243 . S
O142 La120 2.554 . S
O142 C129 1.240 . S
O143 La120 2.757 1_556 S
O143 La121 2.482 1_545 S
O143 C129 1.289 1_556 S
O144 La120 2.470 1_565 S
O144 C130 1.258 . S
O145 La121 2.503 1_554 S
O145 C130 1.256 . S
O146 La121 2.521 . S
O146 C131 1.261 . S
O147 La121 2.628 . S
O147 C131 1.243 . S
O148 La121 2.554 . S
O148 C138 1.240 1_556 S
O149 La120 2.482 . S
O149 La121 2.757 1_544 S
O149 C138 1.289 1_545 S
O150 La121 2.470 1_545 S
O150 C139 1.258 . S
O151 La120 2.503 1_556 S
O151 C139 1.256 . S
H152 C124 0.930 . S
H153 C125 0.930 . S
H154 C127 0.929 . S
H155 C128 0.929 . S
H156 C133 0.930 . S
H157 C134 0.930 . S
H158 C136 0.929 . S
H159 C137 0.929 . S
La160 C162 2.928 . S
La160 O180 2.521 . S
La160 O181 2.628 . S
La160 O182 2.554 . S
La160 O183 2.757 . S
La160 O184 2.470 . S
La160 O189 2.482 . S
La160 O191 2.503 . S
La161 C171 2.928 . S
La161 O183 2.482 . S
La161 O185 2.503 . S
La161 O186 2.521 . S
La161 O187 2.628 . S
La161 O188 2.554 . S
La161 O189 2.757 . S
La161 O190 2.470 . S
C162 La160 2.928 . S
C162 C163 1.503 . S
C162 O180 1.261 . S
C162 O181 1.243 . S
C163 C162 1.503 . S
C163 C164 1.394 . S
C163 C168 1.373 . S
C164 C163 1.394 . S
C164 C165 1.380 . S
C164 H192 0.930 . S
C165 C164 1.380 . S
C165 C166 1.376 . S
C165 H193 0.930 . S
C166 C165 1.376 . S
C166 C167 1.370 . S
C167 C166 1.370 . S
C167 C168 1.396 . S
C167 H194 0.929 . S
C168 C163 1.373 . S
C168 C167 1.396 . S
C168 H195 0.929 . S
C169 O182 1.240 . S
C169 O183 1.289 . S
C170 O184 1.258 . S
C170 O185 1.256 . S
C171 La161 2.928 . S
C171 C172 1.503 . S
C171 O186 1.261 . S
C171 O187 1.243 . S
C172 C171 1.503 . S
C172 C173 1.394 . S
C172 C177 1.373 1_655 S
C173 C172 1.394 . S
C173 C174 1.380 . S
C173 H196 0.930 . S
C174 C173 1.380 . S
C174 C175 1.375 1_655 S
C174 H197 0.930 . S
C175 C174 1.375 1_455 S
C175 C176 1.369 . S
C176 C175 1.369 . S
C176 C177 1.396 . S
C176 H198 0.929 . S
C177 C172 1.373 1_455 S
C177 C176 1.396 . S
C177 H199 0.929 . S
C178 O188 1.240 . S
C178 O189 1.289 . S
C179 O190 1.258 . S
C179 O191 1.256 . S
O180 La160 2.521 . S
O180 C162 1.261 . S
O181 La160 2.628 . S
O181 C162 1.243 . S
O182 La160 2.554 . S
O182 C169 1.240 . S
O183 La160 2.757 . S
O183 La161 2.482 . S
O183 C169 1.289 . S
O184 La160 2.470 . S
O184 C170 1.258 . S
O185 La161 2.503 . S
O185 C170 1.256 . S
O186 La161 2.521 . S
O186 C171 1.261 . S
O187 La161 2.628 . S
O187 C171 1.243 . S
O188 La161 2.554 . S
O188 C178 1.240 . S
O189 La160 2.482 . S
O189 La161 2.757 . S
O189 C178 1.289 . S
O190 La161 2.470 . S
O190 C179 1.258 . S
O191 La160 2.503 . S
O191 C179 1.256 . S
H192 C164 0.930 . S
H193 C165 0.930 . S
H194 C167 0.929 . S
H195 C168 0.929 . S
H196 C173 0.930 . S
H197 C174 0.930 . S
H198 C176 0.929 . S
H199 C177 0.929 . S
La200 C202 2.928 . S
La200 O220 2.521 . S
La200 O221 2.628 . S
La200 O222 2.554 . S
La200 O223 2.757 . S
La200 O224 2.470 . S
La200 O229 2.482 . S
La200 O231 2.503 . S
La201 C211 2.928 . S
La201 O223 2.482 . S
La201 O225 2.503 . S
La201 O226 2.521 . S
La201 O227 2.628 . S
La201 O228 2.554 . S
La201 O229 2.757 . S
La201 O230 2.470 . S
C202 La200 2.928 . S
C202 C203 1.503 . S
C202 O220 1.261 . S
C202 O221 1.243 . S
C203 C202 1.503 . S
C203 C204 1.394 . S
C203 C208 1.373 . S
C204 C203 1.394 . S
C204 C205 1.380 . S
C204 H232 0.930 . S
C205 C204 1.380 . S
C205 C206 1.376 . S
C205 H233 0.930 1_455 S
C206 C205 1.376 . S
C206 C207 1.370 . S
C207 C206 1.370 . S
C207 C208 1.396 . S
C207 H234 0.929 . S
C208 C203 1.373 . S
C208 C207 1.396 . S
C208 H235 0.929 . S
C209 O222 1.240 . S
C209 O223 1.289 . S
C210 O224 1.258 . S
C210 O225 1.256 . S
C211 La201 2.928 . S
C211 C212 1.503 . S
C211 O226 1.261 . S
C211 O227 1.243 . S
C212 C211 1.503 . S
C212 C213 1.394 . S
C212 C217 1.373 1_565 S
C213 C212 1.394 . S
C213 C214 1.380 . S
C213 H236 0.930 . S
C214 C213 1.380 . S
C214 C215 1.376 1_565 S
C214 H237 0.930 . S
C215 C214 1.376 1_545 S
C215 C216 1.370 . S
C216 C215 1.370 . S
C216 C217 1.396 . S
C216 H238 0.929 . S
C217 C212 1.373 1_545 S
C217 C216 1.396 . S
C217 H239 0.929 . S
C218 O228 1.240 . S
C218 O229 1.289 . S
C219 O230 1.258 . S
C219 O231 1.256 . S
O220 La200 2.521 . S
O220 C202 1.261 . S
O221 La200 2.628 . S
O221 C202 1.243 . S
O222 La200 2.554 . S
O222 C209 1.240 . S
O223 La200 2.757 . S
O223 La201 2.482 . S
O223 C209 1.289 . S
O224 La200 2.470 . S
O224 C210 1.258 . S
O225 La201 2.503 . S
O225 C210 1.256 . S
O226 La201 2.521 . S
O226 C211 1.261 . S
O227 La201 2.628 . S
O227 C211 1.243 . S
O228 La201 2.554 . S
O228 C218 1.240 . S
O229 La200 2.482 . S
O229 La201 2.757 . S
O229 C218 1.289 . S
O230 La201 2.470 . S
O230 C219 1.258 . S
O231 La200 2.503 . S
O231 C219 1.256 . S
H232 C204 0.930 . S
H233 C205 0.930 1_655 S
H234 C207 0.929 . S
H235 C208 0.929 . S
H236 C213 0.930 . S
H237 C214 0.930 . S
H238 C216 0.929 . S
H239 C217 0.929 . S
H240 C258 0.951 . S
H241 C260 0.951 . S
H242 C262 0.950 . S
H243 C263 0.950 . S
H244 C265 0.950 . S
H245 C268 0.950 . S
H246 C269 0.950 . S
H247 C271 0.950 . S
H248 C272 0.950 . S
H249 C273 0.951 . S
H250 C275 0.951 . S
H251 C277 0.958 . S
H252 C278 0.960 . S
H253 C280 0.950 . S
H254 C283 0.950 . S
H255 C284 0.950 . S
H256 C286 0.950 1_565 S
H257 C287 0.950 1_565 S
C258 H240 0.951 . S
C258 C259 1.366 1_546 S
C258 C260 1.388 . S
C259 C258 1.366 1_564 S
C259 C263 1.385 . S
C260 H241 0.951 . S
C260 C258 1.388 . S
C260 C261 1.366 1_556 S
C261 C260 1.366 1_554 S
C261 C262 1.414 1_545 S
C261 C264 1.499 1_655 S
C262 H242 0.950 . S
C262 C261 1.414 1_565 S
C262 C263 1.374 . S
C263 H243 0.950 . S
C263 C259 1.385 . S
C263 C262 1.374 . S
C264 C261 1.499 1_455 S
C264 C265 1.373 . S
C264 C266 1.389 1_554 S
C265 H244 0.950 . S
C265 C264 1.373 . S
C265 C281 1.377 . S
C266 C264 1.389 1_556 S
C266 C267 1.524 . S
C266 C280 1.377 . S
C267 C266 1.524 . S
C267 C268 1.397 . S
C267 C272 1.363 . S
C268 H245 0.950 . S
C268 C267 1.397 . S
C268 C269 1.334 1_455 S
C269 H246 0.950 . S
C269 C268 1.334 1_655 S
C269 C270 1.287 1_655 S
C270 C269 1.287 1_455 S
C270 C271 1.524 . S
C270 H289 0.913 1_455 S
C271 H247 0.950 . S
C271 C270 1.524 . S
C271 C272 1.415 . S
C272 H248 0.950 . S
C272 C267 1.363 . S
C272 C271 1.415 . S
C273 H249 0.951 . S
C273 C274 1.366 . S
C273 C275 1.388 . S
C274 C273 1.366 . S
C274 C278 1.378 1_554 S
C275 H250 0.951 . S
C275 C273 1.388 . S
C275 C276 1.366 . S
C276 C275 1.366 . S
C276 C277 1.407 1_554 S
C276 C279 1.499 . S
C277 H251 0.958 . S
C277 C276 1.407 1_556 S
C277 C278 1.374 . S
C278 H252 0.960 . S
C278 C274 1.378 1_556 S
C278 C277 1.374 . S
C279 C276 1.499 . S
C279 C280 1.373 1_554 S
C279 C281 1.389 . S
C280 H253 0.950 . S
C280 C266 1.377 . S
C280 C279 1.373 1_556 S
C281 C265 1.377 . S
C281 C279 1.389 . S
C281 C282 1.524 . S
C282 C281 1.524 . S
C282 C283 1.397 . S
C282 C287 1.363 . S
C283 H254 0.950 . S
C283 C282 1.397 . S
C283 C284 1.334 . S
C284 H255 0.950 . S
C284 C283 1.334 . S
C284 C285 1.287 . S
C285 C284 1.287 . S
C285 C286 1.524 . S
C285 H288 0.999 . S
C286 H256 0.950 1_545 S
C286 C285 1.524 . S
C286 C287 1.415 . S
C287 H257 0.950 1_545 S
C287 C282 1.363 . S
C287 C286 1.415 . S
H288 C285 0.999 . S
H289 C270 0.913 1_655 S
H290 C308 0.951 . S
H291 C310 0.951 . S
H292 C312 0.950 . S
H293 C313 0.950 . S
H294 C315 0.950 . S
H295 C318 0.950 1_455 S
H296 C319 0.950 . S
H297 C321 0.950 . S
H298 C322 0.950 . S
H299 C323 0.951 . S
H300 C325 0.951 . S
H301 C327 0.950 . S
H302 C328 0.950 . S
H303 C330 0.950 . S
H304 C333 0.950 . S
H305 C334 0.950 . S
H306 C336 0.950 . S
H307 C337 0.950 . S
C308 H290 0.951 . S
C308 C309 1.366 . S
C308 C310 1.388 . S
C309 C308 1.366 . S
C309 C313 1.385 1_655 S
C310 H291 0.951 . S
C310 C308 1.388 . S
C310 C311 1.366 1_655 S
C311 C310 1.366 1_455 S
C311 C312 1.414 . S
C311 C314 1.499 1_565 S
C312 H292 0.950 . S
C312 C311 1.414 . S
C312 C313 1.374 . S
C313 H293 0.950 . S
C313 C309 1.385 1_455 S
C313 C312 1.374 . S
C314 C311 1.499 1_545 S
C314 C315 1.373 . S
C314 C316 1.389 . S
C315 H294 0.950 . S
C315 C314 1.373 . S
C315 C331 1.377 . S
C316 C314 1.389 . S
C316 C317 1.524 1_455 S
C316 C330 1.377 . S
C317 C316 1.524 1_655 S
C317 C318 1.397 . S
C317 C322 1.363 . S
C318 H295 0.950 1_655 S
C318 C317 1.397 . S
C318 C319 1.334 1_545 S
C319 H296 0.950 . S
C319 C318 1.334 1_565 S
C319 C320 1.287 1_565 S
C320 C319 1.287 1_545 S
C320 C321 1.524 . S
C320 H339 0.913 1_545 S
C321 H297 0.950 . S
C321 C320 1.524 . S
C321 C322 1.415 . S
C322 H298 0.950 . S
C322 C317 1.363 . S
C322 C321 1.415 . S
C323 H299 0.951 . S
C323 C324 1.366 . S
C323 C325 1.388 . S
C324 C323 1.366 . S
C324 C328 1.385 . S
C325 H300 0.951 . S
C325 C323 1.388 . S
C325 C326 1.366 . S
C326 C325 1.366 . S
C326 C327 1.414 . S
C326 C329 1.499 . S
C327 H301 0.950 . S
C327 C326 1.414 . S
C327 C328 1.374 . S
C328 H302 0.950 . S
C328 C324 1.385 . S
C328 C327 1.374 . S
C329 C326 1.499 . S
C329 C330 1.373 . S
C329 C331 1.389 . S
C330 H303 0.950 . S
C330 C316 1.377 . S
C330 C329 1.373 . S
C331 C315 1.377 . S
C331 C329 1.389 . S
C331 C332 1.524 . S
C332 C331 1.524 . S
C332 C333 1.397 . S
C332 C337 1.363 . S
C333 H304 0.950 . S
C333 C332 1.397 . S
C333 C334 1.334 . S
C334 H305 0.950 . S
C334 C333 1.334 . S
C334 C335 1.287 . S
C335 C334 1.287 . S
C335 C336 1.524 . S
C335 H338 0.999 . S
C336 H306 0.950 . S
C336 C335 1.524 . S
C336 C337 1.415 . S
C337 H307 0.950 . S
C337 C332 1.363 . S
C337 C336 1.415 . S
H338 C335 0.999 . S
H339 C320 0.913 1_565 S
H340 C358 0.951 . S
H341 C360 0.951 . S
H342 C362 0.950 . S
H343 C363 0.950 . S
H344 C365 0.950 . S
H345 C368 0.950 1_545 S
H346 C369 0.950 . S
H347 C371 0.950 . S
H348 C372 0.950 . S
H349 C373 0.951 . S
H350 C375 0.951 . S
H351 C377 0.950 . S
H352 C378 0.950 . S
H353 C380 0.950 . S
H354 C383 0.950 . S
H355 C384 0.950 . S
H356 C386 0.950 . S
H357 C387 0.950 . S
C358 H340 0.951 . S
C358 C359 1.366 . S
C358 C360 1.388 . S
C359 C358 1.366 . S
C359 C363 1.385 1_565 S
C360 H341 0.951 . S
C360 C358 1.388 . S
C360 C361 1.366 1_565 S
C361 C360 1.366 1_545 S
C361 C362 1.414 . S
C361 C364 1.499 . S
C362 H342 0.950 . S
C362 C361 1.414 . S
C362 C363 1.374 . S
C363 H343 0.950 . S
C363 C359 1.385 1_545 S
C363 C362 1.374 . S
C364 C361 1.499 . S
C364 C365 1.373 . S
C364 C366 1.389 . S
C365 H344 0.950 . S
C365 C364 1.373 . S
C365 C381 1.377 . S
C366 C364 1.389 . S
C366 C367 1.524 1_545 S
C366 C380 1.377 . S
C367 C366 1.524 1_565 S
C367 C368 1.397 . S
C367 C372 1.363 1_455 S
C368 H345 0.950 1_565 S
C368 C367 1.397 . S
C368 C369 1.334 . S
C369 H346 0.950 . S
C369 C368 1.334 . S
C369 C370 1.287 1_455 S
C370 C369 1.287 1_655 S
C370 C371 1.524 . S
C370 H389 0.913 . S
C371 H347 0.950 . S
C371 C370 1.524 . S
C371 C372 1.415 . S
C372 H348 0.950 . S
C372 C367 1.363 1_655 S
C372 C371 1.415 . S
C373 H349 0.951 . S
C373 C374 1.366 1_455 S
C373 C375 1.388 . S
C374 C373 1.366 1_655 S
C374 C378 1.385 . S
C375 H350 0.951 . S
C375 C373 1.388 . S
C375 C376 1.366 . S
C376 C375 1.366 . S
C376 C377 1.414 1_455 S
C376 C379 1.499 . S
C377 H351 0.950 . S
C377 C376 1.414 1_655 S
C377 C378 1.374 . S
C378 H352 0.950 . S
C378 C374 1.385 . S
C378 C377 1.374 . S
C379 C376 1.499 . S
C379 C380 1.373 . S
C379 C381 1.389 . S
C380 H353 0.950 . S
C380 C366 1.377 . S
C380 C379 1.373 . S
C381 C365 1.377 . S
C381 C379 1.389 . S
C381 C382 1.524 . S
C382 C381 1.524 . S
C382 C383 1.397 . S
C382 C387 1.363 . S
C383 H354 0.950 . S
C383 C382 1.397 . S
C383 C384 1.334 . S
C384 H355 0.950 . S
C384 C383 1.334 . S
C384 C385 1.287 . S
C385 C384 1.287 . S
C385 C386 1.524 . S
C385 H388 0.999 . S
C386 H356 0.950 . S
C386 C385 1.524 . S
C386 C387 1.415 . S
C387 H357 0.950 . S
C387 C382 1.363 . S
C387 C386 1.415 . S
H388 C385 0.999 . S
H389 C370 0.913 . S
H390 C408 0.951 . S
H391 C410 0.951 . S
H392 C412 0.950 . S
H393 C413 0.950 . S
H394 C415 0.950 . S
H395 C418 0.950 . S
H396 C419 0.950 . S
H397 C421 0.950 . S
H398 C422 0.950 . S
H399 C423 0.951 . S
H400 C425 0.951 . S
H401 C427 0.950 . S
H402 C428 0.950 . S
H403 C430 0.950 . S
H404 C433 0.950 . S
H405 C434 0.950 . S
H406 C436 0.950 . S
H407 C437 0.950 . S
C408 H390 0.951 . S
C408 C409 1.366 . S
C408 C410 1.388 . S
C409 C408 1.366 . S
C409 C413 1.385 . S
C410 H391 0.951 . S
C410 C408 1.388 . S
C410 C411 1.366 . S
C411 C410 1.366 . S
C411 C412 1.414 . S
C411 C414 1.499 . S
C412 H392 0.950 . S
C412 C411 1.414 . S
C412 C413 1.374 . S
C413 H393 0.950 . S
C413 C409 1.385 . S
C413 C412 1.374 . S
C414 C411 1.499 . S
C414 C415 1.373 . S
C414 C416 1.389 . S
C415 H394 0.950 . S
C415 C414 1.373 . S
C415 C431 1.377 . S
C416 C414 1.389 . S
C416 C417 1.524 . S
C416 C430 1.377 . S
C417 C416 1.524 . S
C417 C418 1.397 . S
C417 C422 1.363 . S
C418 H395 0.950 . S
C418 C417 1.397 . S
C418 C419 1.334 . S
C419 H396 0.950 . S
C419 C418 1.334 . S
C419 C420 1.287 . S
C420 C419 1.287 . S
C420 C421 1.524 . S
C420 H439 0.913 . S
C421 H397 0.950 . S
C421 C420 1.524 . S
C421 C422 1.415 . S
C422 H398 0.950 . S
C422 C417 1.363 . S
C422 C421 1.415 . S
C423 H399 0.951 . S
C423 C424 1.366 . S
C423 C425 1.388 . S
C424 C423 1.366 . S
C424 C428 1.385 . S
C425 H400 0.951 . S
C425 C423 1.388 . S
C425 C426 1.366 . S
C426 C425 1.366 . S
C426 C427 1.414 . S
C426 C429 1.499 . S
C427 H401 0.950 . S
C427 C426 1.414 . S
C427 C428 1.374 . S
C428 H402 0.950 . S
C428 C424 1.385 . S
C428 C427 1.374 . S
C429 C426 1.499 . S
C429 C430 1.373 . S
C429 C431 1.389 . S
C430 H403 0.950 . S
C430 C416 1.377 . S
C430 C429 1.373 . S
C431 C415 1.377 . S
C431 C429 1.389 . S
C431 C432 1.524 . S
C432 C431 1.524 . S
C432 C433 1.397 . S
C432 C437 1.363 . S
C433 H404 0.950 . S
C433 C432 1.397 . S
C433 C434 1.334 . S
C434 H405 0.950 . S
C434 C433 1.334 . S
C434 C435 1.287 . S
C435 C434 1.287 . S
C435 C436 1.524 . S
C435 H438 0.999 . S
C436 H406 0.950 . S
C436 C435 1.524 . S
C436 C437 1.415 . S
C437 H407 0.950 . S
C437 C432 1.363 . S
C437 C436 1.415 . S
H438 C435 0.999 . S
H439 C420 0.913 . S
H440 C458 0.951 . S
H441 C460 0.951 . S
H442 C462 0.950 . S
H443 C463 0.950 . S
H444 C465 0.950 . S
H445 C468 0.950 . S
H446 C469 0.950 . S
H447 C471 0.950 . S
H448 C472 0.950 . S
H449 C473 0.951 . S
H450 C475 0.951 . S
H451 C477 0.950 . S
H452 C478 0.950 . S
H453 C480 0.950 . S
H454 C483 0.950 . S
H455 C484 0.950 . S
H456 C486 0.950 . S
H457 C487 0.950 . S
C458 H440 0.951 . S
C458 C459 1.366 . S
C458 C460 1.388 . S
C459 C458 1.366 . S
C459 C463 1.385 . S
C460 H441 0.951 . S
C460 C458 1.388 . S
C460 C461 1.366 . S
C461 C460 1.366 . S
C461 C462 1.414 . S
C461 C464 1.499 . S
C462 H442 0.950 . S
C462 C461 1.414 . S
C462 C463 1.374 . S
C463 H443 0.950 . S
C463 C459 1.385 . S
C463 C462 1.374 . S
C464 C461 1.499 . S
C464 C465 1.373 . S
C464 C466 1.389 . S
C465 H444 0.950 . S
C465 C464 1.373 . S
C465 C481 1.377 . S
C466 C464 1.389 . S
C466 C467 1.524 . S
C466 C480 1.377 1_455 S
C467 C466 1.524 . S
C467 C468 1.397 . S
C467 C472 1.363 1_455 S
C468 H445 0.950 . S
C468 C467 1.397 . S
C468 C469 1.334 . S
C469 H446 0.950 . S
C469 C468 1.334 . S
C469 C470 1.287 . S
C470 C469 1.287 . S
C470 C471 1.524 1_455 S
C470 H489 0.913 . S
C471 H447 0.950 . S
C471 C470 1.524 1_655 S
C471 C472 1.415 . S
C472 H448 0.950 . S
C472 C467 1.363 1_655 S
C472 C471 1.415 . S
C473 H449 0.951 . S
C473 C474 1.366 . S
C473 C475 1.388 . S
C474 C473 1.366 . S
C474 C478 1.385 . S
C475 H450 0.951 . S
C475 C473 1.388 . S
C475 C476 1.366 . S
C476 C475 1.366 . S
C476 C477 1.414 . S
C476 C479 1.499 . S
C477 H451 0.950 . S
C477 C476 1.414 . S
C477 C478 1.374 . S
C478 H452 0.950 . S
C478 C474 1.385 . S
C478 C477 1.374 . S
C479 C476 1.499 . S
C479 C480 1.373 . S
C479 C481 1.389 1_655 S
C480 H453 0.950 . S
C480 C466 1.377 1_655 S
C480 C479 1.373 . S
C481 C465 1.377 . S
C481 C479 1.389 1_455 S
C481 C482 1.524 . S
C482 C481 1.524 . S
C482 C483 1.397 1_455 S
C482 C487 1.363 . S
C483 H454 0.950 . S
C483 C482 1.397 1_655 S
C483 C484 1.334 . S
C484 H455 0.950 . S
C484 C483 1.334 . S
C484 C485 1.285 1_655 S
C485 C484 1.285 1_455 S
C485 C486 1.527 . S
C485 H488 0.998 1_455 S
C486 H456 0.950 . S
C486 C485 1.527 . S
C486 C487 1.415 . S
C487 H457 0.950 . S
C487 C482 1.363 . S
C487 C486 1.415 . S
H488 C485 0.998 1_655 S
H489 C470 0.913 . S
H490 C508 0.951 . S
H491 C510 0.951 . S
H492 C512 0.950 . S
H493 C513 0.950 . S
H494 C515 0.950 . S
H495 C518 0.950 1_545 S
H496 C519 0.950 . S
H497 C521 0.950 . S
H498 C522 0.950 . S
H499 C523 0.951 . S
H500 C525 0.951 . S
H501 C527 0.950 . S
H502 C528 0.950 . S
H503 C530 0.950 . S
H504 C533 0.950 . S
H505 C534 0.950 . S
H506 C536 0.950 1_455 S
H507 C537 0.950 . S
C508 H490 0.951 . S
C508 C509 1.366 . S
C508 C510 1.388 . S
C509 C508 1.366 . S
C509 C513 1.385 . S
C510 H491 0.951 . S
C510 C508 1.388 . S
C510 C511 1.366 . S
C511 C510 1.366 . S
C511 C512 1.414 . S
C511 C514 1.499 . S
C512 H492 0.950 . S
C512 C511 1.414 . S
C512 C513 1.374 . S
C513 H493 0.950 . S
C513 C509 1.385 . S
C513 C512 1.374 . S
C514 C511 1.499 . S
C514 C515 1.373 . S
C514 C516 1.389 . S
C515 H494 0.950 . S
C515 C514 1.373 . S
C515 C531 1.377 . S
C516 C514 1.389 . S
C516 C517 1.524 1_545 S
C516 C530 1.377 1_545 S
C517 C516 1.524 1_565 S
C517 C518 1.397 . S
C517 C522 1.363 . S
C518 H495 0.950 1_565 S
C518 C517 1.397 . S
C518 C519 1.334 . S
C519 H496 0.950 . S
C519 C518 1.334 . S
C519 C520 1.287 . S
C520 C519 1.287 . S
C520 C521 1.524 . S
C520 H539 0.913 . S
C521 H497 0.950 . S
C521 C520 1.524 . S
C521 C522 1.415 . S
C522 H498 0.950 . S
C522 C517 1.363 . S
C522 C521 1.415 . S
C523 H499 0.951 . S
C523 C524 1.366 . S
C523 C525 1.388 . S
C524 C523 1.366 . S
C524 C528 1.385 . S
C525 H500 0.951 . S
C525 C523 1.388 . S
C525 C526 1.366 . S
C526 C525 1.366 . S
C526 C527 1.414 . S
C526 C529 1.499 . S
C527 H501 0.950 . S
C527 C526 1.414 . S
C527 C528 1.374 . S
C528 H502 0.950 . S
C528 C524 1.385 . S
C528 C527 1.374 . S
C529 C526 1.499 . S
C529 C530 1.373 . S
C529 C531 1.389 1_565 S
C530 H503 0.950 . S
C530 C516 1.377 1_565 S
C530 C529 1.373 . S
C531 C515 1.377 . S
C531 C529 1.389 1_545 S
C531 C532 1.524 . S
C532 C531 1.524 . S
C532 C533 1.397 . S
C532 C537 1.363 . S
C533 H504 0.950 . S
C533 C532 1.397 . S
C533 C534 1.334 . S
C534 H505 0.950 . S
C534 C533 1.334 . S
C534 C535 1.287 . S
C535 C534 1.287 . S
C535 C536 1.524 . S
C535 H538 0.999 . S
C536 H506 0.950 1_655 S
C536 C535 1.524 . S
C536 C537 1.415 . S
C537 H507 0.950 . S
C537 C532 1.363 . S
C537 C536 1.415 . S
H538 C535 0.999 . S
H539 C520 0.913 . S
H540 C558 0.951 . S
H541 C560 0.951 . S
H542 C562 0.950 . S
H543 C563 0.950 . S
H544 C565 0.950 . S
H545 C568 0.950 . S
H546 C569 0.950 . S
H547 C571 0.950 . S
H548 C572 0.950 . S
H549 C573 0.951 1_455 S
H550 C575 0.951 . S
H551 C577 0.950 . S
H552 C578 0.950 1_455 S
H553 C580 0.950 . S
H554 C583 0.950 . S
H555 C584 0.950 . S
H556 C586 0.950 . S
H557 C587 0.950 . S
C558 H540 0.951 . S
C558 C559 1.366 . S
C558 C560 1.388 . S
C559 C558 1.366 . S
C559 C563 1.385 . S
C560 H541 0.951 . S
C560 C558 1.388 . S
C560 C561 1.366 . S
C561 C560 1.366 . S
C561 C562 1.414 . S
C561 C564 1.499 . S
C562 H542 0.950 . S
C562 C561 1.414 . S
C562 C563 1.374 . S
C563 H543 0.950 . S
C563 C559 1.385 . S
C563 C562 1.374 . S
C564 C561 1.499 . S
C564 C565 1.373 . S
C564 C566 1.389 . S
C565 H544 0.950 . S
C565 C564 1.373 . S
C565 C581 1.377 . S
C566 C564 1.389 . S
C566 C567 1.524 . S
C566 C580 1.377 . S
C567 C566 1.524 . S
C567 C568 1.397 . S
C567 C572 1.363 . S
C568 H545 0.950 . S
C568 C567 1.397 . S
C568 C569 1.334 . S
C569 H546 0.950 . S
C569 C568 1.334 . S
C569 C570 1.287 . S
C570 C569 1.287 . S
C570 C571 1.524 . S
C570 H589 0.913 . S
C571 H547 0.950 . S
C571 C570 1.524 . S
C571 C572 1.415 . S
C572 H548 0.950 . S
C572 C567 1.363 . S
C572 C571 1.415 . S
C573 H549 0.951 1_655 S
C573 C574 1.362 1_655 S
C573 C575 1.392 . S
C574 C573 1.362 1_455 S
C574 C578 1.385 1_455 S
C575 H550 0.951 . S
C575 C573 1.392 . S
C575 C576 1.366 . S
C576 C575 1.366 . S
C576 C577 1.414 . S
C576 C579 1.499 . S
C577 H551 0.950 . S
C577 C576 1.414 . S
C577 C578 1.374 . S
C578 H552 0.950 1_655 S
C578 C574 1.385 1_655 S
C578 C577 1.374 . S
C579 C576 1.499 . S
C579 C580 1.373 . S
C579 C581 1.389 . S
C580 H553 0.950 . S
C580 C566 1.377 . S
C580 C579 1.373 . S
C581 C565 1.377 . S
C581 C579 1.389 . S
C581 C582 1.524 . S
C582 C581 1.524 . S
C582 C583 1.397 . S
C582 C587 1.363 . S
C583 H554 0.950 . S
C583 C582 1.397 . S
C583 C584 1.334 . S
C584 H555 0.950 . S
C584 C583 1.334 . S
C584 C585 1.287 . S
C585 C584 1.287 . S
C585 C586 1.524 . S
C585 H588 0.999 . S
C586 H556 0.950 . S
C586 C585 1.524 . S
C586 C587 1.415 . S
C587 H557 0.950 . S
C587 C582 1.363 . S
C587 C586 1.415 . S
H588 C585 0.999 . S
H589 C570 0.913 . S
H590 C608 0.951 . S
H591 C610 0.951 . S
H592 C612 0.950 . S
H593 C613 0.950 1_655 S
H594 C615 0.950 . S
H595 C618 0.950 . S
H596 C619 0.950 . S
H597 C621 0.950 . S
H598 C622 0.950 . S
H599 C623 0.951 . S
H600 C625 0.951 1_545 S
H601 C627 0.950 . S
H602 C628 0.950 . S
H603 C630 0.950 . S
H604 C633 0.950 . S
H605 C634 0.950 . S
H606 C636 0.950 . S
H607 C637 0.950 . S
C608 H590 0.951 . S
C608 C609 1.342 1_455 S
C608 C610 1.388 . S
C609 C608 1.342 1_655 S
C609 C613 1.396 1_655 S
C610 H591 0.951 . S
C610 C608 1.388 . S
C610 C611 1.366 . S
C611 C610 1.366 . S
C611 C612 1.414 . S
C611 C614 1.499 . S
C612 H592 0.950 . S
C612 C611 1.414 . S
C612 C613 1.374 . S
C613 H593 0.950 1_455 S
C613 C609 1.396 1_455 S
C613 C612 1.374 . S
C614 C611 1.499 . S
C614 C615 1.373 . S
C614 C616 1.389 . S
C615 H594 0.950 . S
C615 C614 1.373 . S
C615 C631 1.377 . S
C616 C614 1.389 . S
C616 C617 1.524 . S
C616 C630 1.377 . S
C617 C616 1.524 . S
C617 C618 1.397 . S
C617 C622 1.363 . S
C618 H595 0.950 . S
C618 C617 1.397 . S
C618 C619 1.334 . S
C619 H596 0.950 . S
C619 C618 1.334 . S
C619 C620 1.287 . S
C620 C619 1.287 . S
C620 C621 1.524 . S
C620 H639 0.913 . S
C621 H597 0.950 . S
C621 C620 1.524 . S
C621 C622 1.415 . S
C622 H598 0.950 . S
C622 C617 1.363 . S
C622 C621 1.415 . S
C623 H599 0.951 . S
C623 C624 1.366 . S
C623 C625 1.388 1_545 S
C624 C623 1.366 . S
C624 C628 1.385 1_545 S
C625 H600 0.951 1_565 S
C625 C623 1.388 1_565 S
C625 C626 1.366 . S
C626 C625 1.366 . S
C626 C627 1.414 . S
C626 C629 1.499 . S
C627 H601 0.950 . S
C627 C626 1.414 . S
C627 C628 1.374 . S
C628 H602 0.950 . S
C628 C624 1.385 1_565 S
C628 C627 1.374 . S
C629 C626 1.499 . S
C629 C630 1.373 . S
C629 C631 1.389 . S
C630 H603 0.950 . S
C630 C616 1.377 . S
C630 C629 1.373 . S
C631 C615 1.377 . S
C631 C629 1.389 . S
C631 C632 1.524 . S
C632 C631 1.524 . S
C632 C633 1.397 . S
C632 C637 1.363 . S
C633 H604 0.950 . S
C633 C632 1.397 . S
C633 C634 1.334 . S
C634 H605 0.950 . S
C634 C633 1.334 . S
C634 C635 1.287 . S
C635 C634 1.287 . S
C635 C636 1.524 . S
C635 H638 0.999 . S
C636 H606 0.950 . S
C636 C635 1.524 . S
C636 C637 1.415 . S
C637 H607 0.950 . S
C637 C632 1.363 . S
C637 C636 1.415 . S
H638 C635 0.999 . S
H639 C620 0.913 . S
H640 C658 0.951 1_565 S
H641 C660 0.951 . S
H642 C662 0.950 . S
H643 C663 0.950 . S
H644 C665 0.950 . S
H645 C668 0.950 . S
H646 C669 0.950 . S
H647 C671 0.950 . S
H648 C672 0.950 . S
H649 C673 0.951 . S
H650 C675 0.951 . S
H651 C677 0.950 . S
H652 C678 0.950 . S
H653 C680 0.950 . S
H654 C683 0.950 . S
H655 C684 0.950 . S
H656 C686 0.950 . S
H657 C687 0.950 . S
C658 H640 0.951 1_545 S
C658 C659 1.365 . S
C658 C660 1.388 . S
C659 C658 1.365 . S
C659 C663 1.392 . S
C660 H641 0.951 . S
C660 C658 1.388 . S
C660 C661 1.366 . S
C661 C660 1.366 . S
C661 C662 1.414 . S
C661 C664 1.499 . S
C662 H642 0.950 . S
C662 C661 1.414 . S
C662 C663 1.374 . S
C663 H643 0.950 . S
C663 C659 1.392 . S
C663 C662 1.374 . S
C664 C661 1.499 . S
C664 C665 1.373 . S
C664 C666 1.389 . S
C665 H644 0.950 . S
C665 C664 1.373 . S
C665 C681 1.377 . S
C666 C664 1.389 . S
C666 C667 1.524 . S
C666 C680 1.377 . S
C667 C666 1.524 . S
C667 C668 1.397 . S
C667 C672 1.363 . S
C668 H645 0.950 . S
C668 C667 1.397 . S
C668 C669 1.334 . S
C669 H646 0.950 . S
C669 C668 1.334 . S
C669 C670 1.287 . S
C670 C669 1.287 . S
C670 C671 1.524 . S
C670 H689 0.913 . S
C671 H647 0.950 . S
C671 C670 1.524 . S
C671 C672 1.415 . S
C672 H648 0.950 . S
C672 C667 1.363 . S
C672 C671 1.415 . S
C673 H649 0.951 . S
C673 C674 1.366 . S
C673 C675 1.388 . S
C674 C673 1.366 . S
C674 C678 1.385 . S
C675 H650 0.951 . S
C675 C673 1.388 . S
C675 C676 1.366 . S
C676 C675 1.366 . S
C676 C677 1.414 . S
C676 C679 1.499 . S
C677 H651 0.950 . S
C677 C676 1.414 . S
C677 C678 1.374 . S
C678 H652 0.950 . S
C678 C674 1.385 . S
C678 C677 1.374 . S
C679 C676 1.499 . S
C679 C680 1.373 . S
C679 C681 1.389 . S
C680 H653 0.950 . S
C680 C666 1.377 . S
C680 C679 1.373 . S
C681 C665 1.377 . S
C681 C679 1.389 . S
C681 C682 1.524 . S
C682 C681 1.524 . S
C682 C683 1.397 . S
C682 C687 1.363 . S
C683 H654 0.950 . S
C683 C682 1.397 . S
C683 C684 1.334 . S
C684 H655 0.950 . S
C684 C683 1.334 . S
C684 C685 1.287 . S
C685 C684 1.287 . S
C685 C686 1.524 . S
C685 H688 0.999 . S
C686 H656 0.950 . S
C686 C685 1.524 . S
C686 C687 1.415 . S
C687 H657 0.950 . S
C687 C682 1.363 . S
C687 C686 1.415 . S
H688 C685 0.999 . S
H689 C670 0.913 . S
H690 C708 0.951 . S
H691 C710 0.951 . S
H692 C712 0.950 . S
H693 C713 0.950 . S
H694 C715 0.950 . S
H695 C718 0.950 . S
H696 C719 0.950 . S
H697 C721 0.950 . S
H698 C722 0.950 . S
H699 C723 0.951 . S
H700 C725 0.951 . S
H701 C727 0.950 . S
H702 C728 0.950 . S
H703 C730 0.950 . S
H704 C733 0.950 . S
H705 C734 0.950 . S
H706 C736 0.950 . S
H707 C737 0.950 . S
C708 H690 0.951 . S
C708 C709 1.366 . S
C708 C710 1.388 . S
C709 C708 1.366 . S
C709 C713 1.385 . S
C710 H691 0.951 . S
C710 C708 1.388 . S
C710 C711 1.366 . S
C711 C710 1.366 . S
C711 C712 1.414 . S
C711 C714 1.499 . S
C712 H692 0.950 . S
C712 C711 1.414 . S
C712 C713 1.374 . S
C713 H693 0.950 . S
C713 C709 1.385 . S
C713 C712 1.374 . S
C714 C711 1.499 . S
C714 C715 1.373 . S
C714 C716 1.389 1_554 S
C715 H694 0.950 . S
C715 C714 1.373 . S
C715 C731 1.377 . S
C716 C714 1.389 1_556 S
C716 C717 1.524 . S
C716 C730 1.377 . S
C717 C716 1.524 . S
C717 C718 1.397 . S
C717 C722 1.363 . S
C718 H695 0.950 . S
C718 C717 1.397 . S
C718 C719 1.334 . S
C719 H696 0.950 . S
C719 C718 1.334 . S
C719 C720 1.287 . S
C720 C719 1.287 . S
C720 C721 1.524 . S
C720 H739 0.913 . S
C721 H697 0.950 . S
C721 C720 1.524 . S
C721 C722 1.415 . S
C722 H698 0.950 . S
C722 C717 1.363 . S
C722 C721 1.415 . S
C723 H699 0.951 . S
C723 C724 1.366 . S
C723 C725 1.388 . S
C724 C723 1.366 . S
C724 C728 1.385 1_565 S
C725 H700 0.951 . S
C725 C723 1.388 . S
C725 C726 1.366 1_565 S
C726 C725 1.366 1_545 S
C726 C727 1.414 . S
C726 C729 1.499 . S
C727 H701 0.950 . S
C727 C726 1.414 . S
C727 C728 1.374 . S
C728 H702 0.950 . S
C728 C724 1.385 1_545 S
C728 C727 1.374 . S
C729 C726 1.499 . S
C729 C730 1.373 1_554 S
C729 C731 1.389 . S
C730 H703 0.950 . S
C730 C716 1.377 . S
C730 C729 1.373 1_556 S
C731 C715 1.377 . S
C731 C729 1.389 . S
C731 C732 1.524 . S
C732 C731 1.524 . S
C732 C733 1.397 . S
C732 C737 1.363 1_545 S
C733 H704 0.950 . S
C733 C732 1.397 . S
C733 C734 1.334 . S
C734 H705 0.950 . S
C734 C733 1.334 . S
C734 C735 1.287 1_545 S
C735 C734 1.287 1_565 S
C735 C736 1.524 . S
C735 H738 0.999 . S
C736 H706 0.950 . S
C736 C735 1.524 . S
C736 C737 1.415 . S
C737 H707 0.950 . S
C737 C732 1.363 1_565 S
C737 C736 1.415 . S
H738 C735 0.999 . S
H739 C720 0.913 . S
H740 C758 0.951 . S
H741 C760 0.951 . S
H742 C762 0.950 . S
H743 C763 0.950 . S
H744 C765 0.950 . S
H745 C768 0.950 . S
H746 C769 0.950 . S
H747 C771 0.950 . S
H748 C772 0.950 . S
H749 C773 0.951 . S
H750 C775 0.951 . S
H751 C777 0.950 . S
H752 C778 0.950 . S
H753 C780 0.950 . S
H754 C783 0.950 . S
H755 C784 0.950 . S
H756 C786 0.950 . S
H757 C787 0.950 . S
C758 H740 0.951 . S
C758 C759 1.366 . S
C758 C760 1.388 . S
C759 C758 1.366 . S
C759 C763 1.385 . S
C760 H741 0.951 . S
C760 C758 1.388 . S
C760 C761 1.366 . S
C761 C760 1.366 . S
C761 C762 1.414 . S
C761 C764 1.499 . S
C762 H742 0.950 . S
C762 C761 1.414 . S
C762 C763 1.374 . S
C763 H743 0.950 . S
C763 C759 1.385 . S
C763 C762 1.374 . S
C764 C761 1.499 . S
C764 C765 1.373 . S
C764 C766 1.389 . S
C765 H744 0.950 . S
C765 C764 1.373 . S
C765 C781 1.377 . S
C766 C764 1.389 . S
C766 C767 1.524 . S
C766 C780 1.377 . S
C767 C766 1.524 . S
C767 C768 1.397 . S
C767 C772 1.363 . S
C768 H745 0.950 . S
C768 C767 1.397 . S
C768 C769 1.334 . S
C769 H746 0.950 . S
C769 C768 1.334 . S
C769 C770 1.287 . S
C770 C769 1.287 . S
C770 C771 1.524 . S
C770 H789 0.913 . S
C771 H747 0.950 . S
C771 C770 1.524 . S
C771 C772 1.415 . S
C772 H748 0.950 . S
C772 C767 1.363 . S
C772 C771 1.415 . S
C773 H749 0.951 . S
C773 C774 1.366 . S
C773 C775 1.388 . S
C774 C773 1.366 . S
C774 C778 1.385 . S
C775 H750 0.951 . S
C775 C773 1.388 . S
C775 C776 1.366 . S
C776 C775 1.366 . S
C776 C777 1.414 . S
C776 C779 1.499 . S
C777 H751 0.950 . S
C777 C776 1.414 . S
C777 C778 1.374 . S
C778 H752 0.950 . S
C778 C774 1.385 . S
C778 C777 1.374 . S
C779 C776 1.499 . S
C779 C780 1.373 . S
C779 C781 1.389 . S
C780 H753 0.950 . S
C780 C766 1.377 . S
C780 C779 1.373 . S
C781 C765 1.377 . S
C781 C779 1.389 . S
C781 C782 1.524 . S
C782 C781 1.524 . S
C782 C783 1.397 . S
C782 C787 1.363 . S
C783 H754 0.950 . S
C783 C782 1.397 . S
C783 C784 1.334 . S
C784 H755 0.950 . S
C784 C783 1.334 . S
C784 C785 1.287 . S
C785 C784 1.287 . S
C785 C786 1.524 . S
C785 H788 0.999 . S
C786 H756 0.950 . S
C786 C785 1.524 . S
C786 C787 1.415 . S
C787 H757 0.950 . S
C787 C782 1.363 . S
C787 C786 1.415 . S
H788 C785 0.999 . S
H789 C770 0.913 . S
H790 C808 0.951 . S
H791 C810 0.951 . S
H792 C812 0.950 . S
H793 C813 0.950 . S
H794 C815 0.950 . S
H795 C818 0.950 . S
H796 C819 0.950 . S
H797 C821 0.963 . S
H798 C822 0.950 . S
H799 C823 0.951 . S
H800 C825 0.951 . S
H801 C827 0.950 . S
H802 C828 0.950 . S
H803 C830 0.950 . S
H804 C833 0.950 . S
H805 C834 0.950 . S
H806 C836 0.950 . S
H807 C837 0.950 . S
C808 H790 0.951 . S
C808 C809 1.366 . S
C808 C810 1.388 . S
C809 C808 1.366 . S
C809 C813 1.385 1_655 S
C810 H791 0.951 . S
C810 C808 1.388 . S
C810 C811 1.366 1_655 S
C811 C810 1.366 1_455 S
C811 C812 1.414 . S
C811 C814 1.499 . S
C812 H792 0.950 . S
C812 C811 1.414 . S
C812 C813 1.374 . S
C813 H793 0.950 . S
C813 C809 1.385 1_455 S
C813 C812 1.374 . S
C814 C811 1.499 . S
C814 C815 1.373 . S
C814 C816 1.389 . S
C815 H794 0.950 . S
C815 C814 1.373 . S
C815 C831 1.377 . S
C816 C814 1.389 . S
C816 C817 1.524 . S
C816 C830 1.377 . S
C817 C816 1.524 . S
C817 C818 1.397 . S
C817 C822 1.363 . S
C818 H795 0.950 . S
C818 C817 1.397 . S
C818 C819 1.334 . S
C819 H796 0.950 . S
C819 C818 1.334 . S
C819 C820 1.287 . S
C820 C819 1.287 . S
C820 C821 1.510 1_455 S
C820 H839 0.913 . S
C821 H797 0.963 . S
C821 C820 1.510 1_655 S
C821 C822 1.413 1_655 S
C822 H798 0.950 . S
C822 C817 1.363 . S
C822 C821 1.413 1_455 S
C823 H799 0.951 . S
C823 C824 1.366 . S
C823 C825 1.388 . S
C824 C823 1.366 . S
C824 C828 1.385 . S
C825 H800 0.951 . S
C825 C823 1.388 . S
C825 C826 1.366 . S
C826 C825 1.366 . S
C826 C827 1.414 . S
C826 C829 1.499 . S
C827 H801 0.950 . S
C827 C826 1.414 . S
C827 C828 1.374 . S
C828 H802 0.950 . S
C828 C824 1.385 . S
C828 C827 1.374 . S
C829 C826 1.499 . S
C829 C830 1.373 . S
C829 C831 1.389 . S
C830 H803 0.950 . S
C830 C816 1.377 . S
C830 C829 1.373 . S
C831 C815 1.377 . S
C831 C829 1.389 . S
C831 C832 1.524 . S
C832 C831 1.524 . S
C832 C833 1.397 . S
C832 C837 1.363 . S
C833 H804 0.950 . S
C833 C832 1.397 . S
C833 C834 1.334 . S
C834 H805 0.950 . S
C834 C833 1.334 . S
C834 C835 1.287 . S
C835 C834 1.287 . S
C835 C836 1.524 . S
C835 H838 0.999 . S
C836 H806 0.950 . S
C836 C835 1.524 . S
C836 C837 1.415 . S
C837 H807 0.950 . S
C837 C832 1.363 . S
C837 C836 1.415 . S
H838 C835 0.999 . S
H839 C820 0.913 . S
H840 C858 0.951 . S
H841 C860 0.951 . S
H842 C862 0.950 . S
H843 C863 0.950 . S
H844 C865 0.950 . S
H845 C868 0.950 . S
H846 C869 0.950 . S
H847 C871 0.950 . S
H848 C872 0.950 . S
H849 C873 0.951 . S
H850 C875 0.951 . S
H851 C877 0.950 . S
H852 C878 0.950 . S
H853 C880 0.950 . S
H854 C883 0.950 . S
H855 C884 0.950 . S
H856 C886 0.950 . S
H857 C887 0.950 . S
C858 H840 0.951 . S
C858 C859 1.366 . S
C858 C860 1.388 . S
C859 C858 1.366 . S
C859 C863 1.385 . S
C860 H841 0.951 . S
C860 C858 1.388 . S
C860 C861 1.366 . S
C861 C860 1.366 . S
C861 C862 1.414 . S
C861 C864 1.499 . S
C862 H842 0.950 . S
C862 C861 1.414 . S
C862 C863 1.374 . S
C863 H843 0.950 . S
C863 C859 1.385 . S
C863 C862 1.374 . S
C864 C861 1.499 . S
C864 C865 1.373 . S
C864 C866 1.389 . S
C865 H844 0.950 . S
C865 C864 1.373 . S
C865 C881 1.377 . S
C866 C864 1.389 . S
C866 C867 1.524 . S
C866 C880 1.377 . S
C867 C866 1.524 . S
C867 C868 1.397 . S
C867 C872 1.363 . S
C868 H845 0.950 . S
C868 C867 1.397 . S
C868 C869 1.334 . S
C869 H846 0.950 . S
C869 C868 1.334 . S
C869 C870 1.287 . S
C870 C869 1.287 . S
C870 C871 1.524 . S
C870 H889 0.913 . S
C871 H847 0.950 . S
C871 C870 1.524 . S
C871 C872 1.415 . S
C872 H848 0.950 . S
C872 C867 1.363 . S
C872 C871 1.415 . S
C873 H849 0.951 . S
C873 C874 1.366 . S
C873 C875 1.388 . S
C874 C873 1.366 . S
C874 C878 1.385 . S
C875 H850 0.951 . S
C875 C873 1.388 . S
C875 C876 1.366 . S
C876 C875 1.366 . S
C876 C877 1.414 . S
C876 C879 1.499 . S
C877 H851 0.950 . S
C877 C876 1.414 . S
C877 C878 1.374 . S
C878 H852 0.950 . S
C878 C874 1.385 . S
C878 C877 1.374 . S
C879 C876 1.499 . S
C879 C880 1.373 . S
C879 C881 1.389 . S
C880 H853 0.950 . S
C880 C866 1.377 . S
C880 C879 1.373 . S
C881 C865 1.377 . S
C881 C879 1.389 . S
C881 C882 1.524 . S
C882 C881 1.524 . S
C882 C883 1.397 . S
C882 C887 1.363 . S
C883 H854 0.950 . S
C883 C882 1.397 . S
C883 C884 1.334 . S
C884 H855 0.950 . S
C884 C883 1.334 . S
C884 C885 1.287 . S
C885 C884 1.287 . S
C885 C886 1.524 . S
C885 H888 0.999 . S
C886 H856 0.950 . S
C886 C885 1.524 . S
C886 C887 1.415 . S
C887 H857 0.950 . S
C887 C882 1.363 . S
C887 C886 1.415 . S
H888 C885 0.999 . S
H889 C870 0.913 . S
H890 C908 0.951 . S
H891 C910 0.951 . S
H892 C912 0.950 . S
H893 C913 0.950 . S
H894 C915 0.950 . S
H895 C918 0.950 . S
H896 C919 0.950 . S
H897 C921 0.950 . S
H898 C922 0.950 . S
H899 C923 0.951 . S
H900 C925 0.951 . S
H901 C927 0.950 . S
H902 C928 0.950 . S
H903 C930 0.950 . S
H904 C933 0.950 . S
H905 C934 0.950 . S
H906 C936 0.950 . S
H907 C937 0.950 . S
C908 H890 0.951 . S
C908 C909 1.366 . S
C908 C910 1.388 . S
C909 C908 1.366 . S
C909 C913 1.385 . S
C910 H891 0.951 . S
C910 C908 1.388 . S
C910 C911 1.366 . S
C911 C910 1.366 . S
C911 C912 1.414 . S
C911 C914 1.499 . S
C912 H892 0.950 . S
C912 C911 1.414 . S
C912 C913 1.374 . S
C913 H893 0.950 . S
C913 C909 1.385 . S
C913 C912 1.374 . S
C914 C911 1.499 . S
C914 C915 1.373 . S
C914 C916 1.389 . S
C915 H894 0.950 . S
C915 C914 1.373 . S
C915 C931 1.377 . S
C916 C914 1.389 . S
C916 C917 1.524 . S
C916 C930 1.377 . S
C917 C916 1.524 . S
C917 C918 1.397 . S
C917 C922 1.363 . S
C918 H895 0.950 . S
C918 C917 1.397 . S
C918 C919 1.334 . S
C919 H896 0.950 . S
C919 C918 1.334 . S
C919 C920 1.287 . S
C920 C919 1.287 . S
C920 C921 1.524 1_455 S
C920 H939 0.913 1_455 S
C921 H897 0.950 . S
C921 C920 1.524 1_655 S
C921 C922 1.415 1_655 S
C922 H898 0.950 . S
C922 C917 1.363 . S
C922 C921 1.415 1_455 S
C923 H899 0.951 . S
C923 C924 1.366 . S
C923 C925 1.388 . S
C924 C923 1.366 . S
C924 C928 1.385 . S
C925 H900 0.951 . S
C925 C923 1.388 . S
C925 C926 1.366 . S
C926 C925 1.366 . S
C926 C927 1.414 . S
C926 C929 1.499 . S
C927 H901 0.950 . S
C927 C926 1.414 . S
C927 C928 1.374 . S
C928 H902 0.950 . S
C928 C924 1.385 . S
C928 C927 1.374 . S
C929 C926 1.499 . S
C929 C930 1.373 . S
C929 C931 1.389 . S
C930 H903 0.950 . S
C930 C916 1.377 . S
C930 C929 1.373 . S
C931 C915 1.377 . S
C931 C929 1.389 . S
C931 C932 1.524 . S
C932 C931 1.524 . S
C932 C933 1.397 . S
C932 C937 1.363 . S
C933 H904 0.950 . S
C933 C932 1.397 . S
C933 C934 1.334 . S
C934 H905 0.950 . S
C934 C933 1.334 . S
C934 C935 1.287 . S
C935 C934 1.287 . S
C935 C936 1.524 . S
C935 H938 0.999 . S
C936 H906 0.950 . S
C936 C935 1.524 . S
C936 C937 1.415 . S
C937 H907 0.950 . S
C937 C932 1.363 . S
C937 C936 1.415 . S
H938 C935 0.999 . S
H939 C920 0.913 1_655 S
H940 C958 0.951 . S
H941 C960 0.951 . S
H942 C962 0.950 . S
H943 C963 0.950 . S
H944 C965 0.950 . S
H945 C968 0.950 . S
H946 C969 0.950 1_455 S
H947 C971 0.950 . S
H948 C972 0.950 . S
H949 C973 0.951 . S
H950 C975 0.951 . S
H951 C977 0.950 . S
H952 C978 0.950 . S
H953 C980 0.950 . S
H954 C983 0.950 . S
H955 C984 0.950 . S
H956 C986 0.950 . S
H957 C987 0.950 . S
C958 H940 0.951 . S
C958 C959 1.366 . S
C958 C960 1.388 . S
C959 C958 1.366 . S
C959 C963 1.385 . S
C960 H941 0.951 . S
C960 C958 1.388 . S
C960 C961 1.366 . S
C961 C960 1.366 . S
C961 C962 1.414 . S
C961 C964 1.499 . S
C962 H942 0.950 . S
C962 C961 1.414 . S
C962 C963 1.374 . S
C963 H943 0.950 . S
C963 C959 1.385 . S
C963 C962 1.374 . S
C964 C961 1.499 . S
C964 C965 1.373 . S
C964 C966 1.389 . S
C965 H944 0.950 . S
C965 C964 1.373 . S
C965 C981 1.377 . S
C966 C964 1.389 . S
C966 C967 1.524 . S
C966 C980 1.377 . S
C967 C966 1.524 . S
C967 C968 1.397 . S
C967 C972 1.363 . S
C968 H945 0.950 . S
C968 C967 1.397 . S
C968 C969 1.334 . S
C969 H946 0.950 1_655 S
C969 C968 1.334 . S
C969 C970 1.287 . S
C970 C969 1.287 . S
C970 C971 1.524 . S
C970 H989 0.913 . S
C971 H947 0.950 . S
C971 C970 1.524 . S
C971 C972 1.415 . S
C972 H948 0.950 . S
C972 C967 1.363 . S
C972 C971 1.415 . S
C973 H949 0.951 . S
C973 C974 1.366 . S
C973 C975 1.388 . S
C974 C973 1.366 . S
C974 C978 1.385 . S
C975 H950 0.951 . S
C975 C973 1.388 . S
C975 C976 1.366 . S
C976 C975 1.366 . S
C976 C977 1.414 . S
C976 C979 1.499 . S
C977 H951 0.950 . S
C977 C976 1.414 . S
C977 C978 1.374 . S
C978 H952 0.950 . S
C978 C974 1.385 . S
C978 C977 1.374 . S
C979 C976 1.499 . S
C979 C980 1.373 . S
C979 C981 1.389 . S
C980 H953 0.950 . S
C980 C966 1.377 . S
C980 C979 1.373 . S
C981 C965 1.377 . S
C981 C979 1.389 . S
C981 C982 1.524 . S
C982 C981 1.524 . S
C982 C983 1.397 . S
C982 C987 1.363 . S
C983 H954 0.950 . S
C983 C982 1.397 . S
C983 C984 1.334 1_545 S
C984 H955 0.950 . S
C984 C983 1.334 1_565 S
C984 C985 1.287 . S
C985 C984 1.287 . S
C985 C986 1.524 . S
C985 H988 0.999 . S
C986 H956 0.950 . S
C986 C985 1.524 . S
C986 C987 1.415 1_565 S
C987 H957 0.950 . S
C987 C982 1.363 . S
C987 C986 1.415 1_545 S
H988 C985 0.999 . S
H989 C970 0.913 . S
H990 C1008 0.951 . S
H991 C1010 0.951 . S
H992 C1012 0.950 . S
H993 C1013 0.950 . S
H994 C1015 0.950 . S
H995 C1018 0.950 . S
H996 C1019 0.950 . S
H997 C1021 0.950 . S
H998 C1022 0.950 . S
H999 C1023 0.951 . S
H1000 C1025 0.951 . S
H1001 C1027 0.950 . S
H1002 C1028 0.950 . S
H1003 C1030 0.950 . S
H1004 C1033 0.950 . S
H1005 C1034 0.950 . S
H1006 C1036 0.950 . S
H1007 C1037 0.950 . S
C1008 H990 0.951 . S
C1008 C1009 1.366 . S
C1008 C1010 1.388 . S
C1009 C1008 1.366 . S
C1009 C1013 1.385 . S
C1010 H991 0.951 . S
C1010 C1008 1.388 . S
C1010 C1011 1.366 . S
C1011 C1010 1.366 . S
C1011 C1012 1.414 . S
C1011 C1014 1.499 . S
C1012 H992 0.950 . S
C1012 C1011 1.414 . S
C1012 C1013 1.374 . S
C1013 H993 0.950 . S
C1013 C1009 1.385 . S
C1013 C1012 1.374 . S
C1014 C1011 1.499 . S
C1014 C1015 1.373 . S
C1014 C1016 1.389 . S
C1015 H994 0.950 . S
C1015 C1014 1.373 . S
C1015 C1031 1.377 . S
C1016 C1014 1.389 . S
C1016 C1017 1.524 . S
C1016 C1030 1.377 . S
C1017 C1016 1.524 . S
C1017 C1018 1.397 1_565 S
C1017 C1022 1.363 . S
C1018 H995 0.950 . S
C1018 C1017 1.397 1_545 S
C1018 C1019 1.334 . S
C1019 H996 0.950 . S
C1019 C1018 1.334 . S
C1019 C1020 1.287 . S
C1020 C1019 1.287 . S
C1020 C1021 1.524 . S
C1020 H1039 0.913 . S
C1021 H997 0.950 . S
C1021 C1020 1.524 . S
C1021 C1022 1.415 1_545 S
C1022 H998 0.950 . S
C1022 C1017 1.363 . S
C1022 C1021 1.415 1_565 S
C1023 H999 0.951 . S
C1023 C1024 1.366 . S
C1023 C1025 1.388 . S
C1024 C1023 1.366 . S
C1024 C1028 1.385 . S
C1025 H1000 0.951 . S
C1025 C1023 1.388 . S
C1025 C1026 1.366 . S
C1026 C1025 1.366 . S
C1026 C1027 1.414 . S
C1026 C1029 1.499 . S
C1027 H1001 0.950 . S
C1027 C1026 1.414 . S
C1027 C1028 1.374 . S
C1028 H1002 0.950 . S
C1028 C1024 1.385 . S
C1028 C1027 1.374 . S
C1029 C1026 1.499 . S
C1029 C1030 1.373 . S
C1029 C1031 1.389 . S
C1030 H1003 0.950 . S
C1030 C1016 1.377 . S
C1030 C1029 1.373 . S
C1031 C1015 1.377 . S
C1031 C1029 1.389 . S
C1031 C1032 1.524 . S
C1032 C1031 1.524 . S
C1032 C1033 1.397 . S
C1032 C1037 1.363 . S
C1033 H1004 0.950 . S
C1033 C1032 1.397 . S
C1033 C1034 1.334 . S
C1034 H1005 0.950 . S
C1034 C1033 1.334 . S
C1034 C1035 1.287 . S
C1035 C1034 1.287 . S
C1035 C1036 1.524 . S
C1035 H1038 0.999 . S
C1036 H1006 0.950 . S
C1036 C1035 1.524 . S
C1036 C1037 1.415 . S
C1037 H1007 0.950 . S
C1037 C1032 1.363 . S
C1037 C1036 1.415 . S
H1038 C1035 0.999 . S
H1039 C1020 0.913 . S
H1040 C1058 0.951 . S
H1041 C1060 0.951 . S
H1042 C1062 0.950 . S
H1043 C1063 0.950 . S
H1044 C1065 0.950 1_655 S
H1045 C1068 0.950 . S
H1046 C1069 0.950 . S
H1047 C1071 0.950 . S
H1048 C1072 0.950 . S
H1049 C1073 0.951 . S
H1050 C1075 0.951 1_655 S
H1051 C1077 0.950 . S
H1052 C1078 0.950 . S
H1053 C1080 0.950 . S
H1054 C1083 0.950 . S
H1055 C1084 0.950 1_545 S
H1056 C1086 0.950 . S
H1057 C1087 0.950 . S
C1058 H1040 0.951 . S
C1058 C1059 1.366 1_455 S
C1058 C1060 1.388 . S
C1059 C1058 1.366 1_655 S
C1059 C1063 1.385 . S
C1060 H1041 0.951 . S
C1060 C1058 1.388 . S
C1060 C1061 1.366 1_455 S
C1061 C1060 1.366 1_655 S
C1061 C1062 1.414 . S
C1061 C1064 1.499 1_655 S
C1062 H1042 0.950 . S
C1062 C1061 1.414 . S
C1062 C1063 1.374 . S
C1063 H1043 0.950 . S
C1063 C1059 1.385 . S
C1063 C1062 1.374 . S
C1064 C1061 1.499 1_455 S
C1064 C1065 1.373 . S
C1064 C1066 1.389 . S
C1065 H1044 0.950 1_455 S
C1065 C1064 1.373 . S
C1065 C1081 1.377 . S
C1066 C1064 1.389 . S
C1066 C1067 1.524 . S
C1066 C1080 1.377 . S
C1067 C1066 1.524 . S
C1067 C1068 1.397 1_455 S
C1067 C1072 1.363 . S
C1068 H1045 0.950 . S
C1068 C1067 1.397 1_655 S
C1068 C1069 1.334 . S
C1069 H1046 0.950 . S
C1069 C1068 1.334 . S
C1069 C1070 1.287 1_655 S
C1070 C1069 1.287 1_455 S
C1070 C1071 1.524 . S
C1070 H1089 0.913 . S
C1071 H1047 0.950 . S
C1071 C1070 1.524 . S
C1071 C1072 1.415 . S
C1072 H1048 0.950 . S
C1072 C1067 1.363 . S
C1072 C1071 1.415 . S
C1073 H1049 0.951 . S
C1073 C1074 1.366 . S
C1073 C1075 1.388 . S
C1074 C1073 1.366 . S
C1074 C1078 1.385 . S
C1075 H1050 0.951 1_455 S
C1075 C1073 1.388 . S
C1075 C1076 1.366 . S
C1076 C1075 1.366 . S
C1076 C1077 1.414 . S
C1076 C1079 1.499 . S
C1077 H1051 0.950 . S
C1077 C1076 1.414 . S
C1077 C1078 1.374 . S
C1078 H1052 0.950 . S
C1078 C1074 1.385 . S
C1078 C1077 1.374 . S
C1079 C1076 1.499 . S
C1079 C1080 1.373 . S
C1079 C1081 1.389 . S
C1080 H1053 0.950 . S
C1080 C1066 1.377 . S
C1080 C1079 1.373 . S
C1081 C1065 1.377 . S
C1081 C1079 1.389 . S
C1081 C1082 1.524 . S
C1082 C1081 1.524 . S
C1082 C1083 1.397 . S
C1082 C1087 1.363 1_455 S
C1083 H1054 0.950 . S
C1083 C1082 1.397 . S
C1083 C1084 1.334 . S
C1084 H1055 0.950 1_565 S
C1084 C1083 1.334 . S
C1084 C1085 1.287 . S
C1085 C1084 1.287 . S
C1085 C1086 1.524 1_455 S
C1085 H1088 0.999 1_565 S
C1086 H1056 0.950 . S
C1086 C1085 1.524 1_655 S
C1086 C1087 1.415 . S
C1087 H1057 0.950 . S
C1087 C1082 1.363 1_655 S
C1087 C1086 1.415 . S
H1088 C1085 0.999 1_545 S
H1089 C1070 0.913 . S
H1090 C1108 0.951 . S
H1091 C1110 0.951 . S
H1092 C1112 0.950 . S
H1093 C1113 0.950 . S
H1094 C1115 0.959 . S
H1095 C1118 0.950 . S
H1096 C1119 0.950 . S
H1097 C1121 0.950 . S
H1098 C1122 0.950 . S
H1099 C1123 0.951 . S
H1100 C1125 0.951 . S
H1101 C1127 0.950 . S
H1102 C1128 0.950 . S
H1103 C1130 0.950 . S
H1104 C1133 0.950 . S
H1105 C1134 0.950 . S
H1106 C1136 0.950 . S
H1107 C1137 0.950 1_545 S
C1108 H1090 0.951 . S
C1108 C1109 1.366 . S
C1108 C1110 1.388 . S
C1109 C1108 1.366 . S
C1109 C1113 1.385 . S
C1110 H1091 0.951 . S
C1110 C1108 1.388 . S
C1110 C1111 1.366 . S
C1111 C1110 1.366 . S
C1111 C1112 1.414 1_565 S
C1111 C1114 1.499 1_565 S
C1112 H1092 0.950 . S
C1112 C1111 1.414 1_545 S
C1112 C1113 1.374 1_545 S
C1113 H1093 0.950 . S
C1113 C1109 1.385 . S
C1113 C1112 1.374 1_565 S
C1114 C1111 1.499 1_545 S
C1114 C1115 1.366 1_545 S
C1114 C1116 1.389 . S
C1115 H1094 0.959 . S
C1115 C1114 1.366 1_565 S
C1115 C1131 1.375 1_565 S
C1116 C1114 1.389 . S
C1116 C1117 1.524 . S
C1116 C1130 1.377 . S
C1117 C1116 1.524 . S
C1117 C1118 1.397 . S
C1117 C1122 1.363 . S
C1118 H1095 0.950 . S
C1118 C1117 1.397 . S
C1118 C1119 1.334 . S
C1119 H1096 0.950 . S
C1119 C1118 1.334 . S
C1119 C1120 1.287 . S
C1120 C1119 1.287 . S
C1120 C1121 1.524 . S
C1120 H1139 0.913 . S
C1121 H1097 0.950 . S
C1121 C1120 1.524 . S
C1121 C1122 1.415 . S
C1122 H1098 0.950 . S
C1122 C1117 1.363 . S
C1122 C1121 1.415 . S
C1123 H1099 0.951 . S
C1123 C1124 1.366 . S
C1123 C1125 1.388 . S
C1124 C1123 1.366 . S
C1124 C1128 1.385 . S
C1125 H1100 0.951 . S
C1125 C1123 1.388 . S
C1125 C1126 1.366 . S
C1126 C1125 1.366 . S
C1126 C1127 1.414 . S
C1126 C1129 1.499 . S
C1127 H1101 0.950 . S
C1127 C1126 1.414 . S
C1127 C1128 1.374 . S
C1128 H1102 0.950 . S
C1128 C1124 1.385 . S
C1128 C1127 1.374 . S
C1129 C1126 1.499 . S
C1129 C1130 1.373 . S
C1129 C1131 1.389 . S
C1130 H1103 0.950 . S
C1130 C1116 1.377 . S
C1130 C1129 1.373 . S
C1131 C1115 1.375 1_545 S
C1131 C1129 1.389 . S
C1131 C1132 1.524 1_545 S
C1132 C1131 1.524 1_565 S
C1132 C1133 1.397 . S
C1132 C1137 1.363 . S
C1133 H1104 0.950 . S
C1133 C1132 1.397 . S
C1133 C1134 1.334 . S
C1134 H1105 0.950 . S
C1134 C1133 1.334 . S
C1134 C1135 1.287 . S
C1135 C1134 1.287 . S
C1135 C1136 1.524 . S
C1135 H1138 0.999 . S
C1136 H1106 0.950 . S
C1136 C1135 1.524 . S
C1136 C1137 1.415 . S
C1137 H1107 0.950 1_565 S
C1137 C1132 1.363 . S
C1137 C1136 1.415 . S
H1138 C1135 0.999 . S
H1139 C1120 0.913 . S
C259 C129 1.140 1_565 S
C274 C9 1.141 . S
C309 C169 1.139 . S
C324 C49 1.140 . S
C359 C209 1.140 . S
C374 C89 1.141 1_655 S
C409 C15 0.581 . S
C424 C86 0.537 . S
C459 C55 0.581 . S
C474 C126 0.538 . S
C509 C95 0.580 . S
C524 C166 0.540 . S
C559 C135 0.581 . S
C574 C206 0.538 . S
C609 C175 0.589 1_655 S
C624 C6 0.539 . S
C659 C215 0.581 . S
C674 C46 0.539 . S
C709 C18 0.999 . S
C724 C138 0.998 . S
C759 C58 1.000 . S
C774 C178 1.001 . S
C809 C98 1.001 . S
C824 C218 1.000 . S
C859 C10 3.908 . S
C874 C59 3.970 . S
C909 C50 3.908 . S
C924 C99 3.970 . S
C959 C90 3.908 . S
C974 C139 3.970 . S
C1009 C130 3.908 . S
C1024 C179 3.970 . S
C1059 C170 3.908 . S
C1074 C219 3.970 . S
C1109 C210 3.909 . S
C1124 C19 3.970 . S
