# Generated by pormake.
# Topology utk, (3)-cn, num edge types: 1
# Building blocks:
#     Node 0, Type 0, BuildingBlock: WUSLED_clean_sbu_0, # of connection points: 3
#     Node 1, Type 0, BuildingBlock: WUSLED_clean_sbu_0, # of connection points: 3
#     Node 2, Type 0, BuildingBlock: WUSLED_clean_sbu_0, # of connection points: 3
#     Node 3, Type 0, BuildingBlock: WUSLED_clean_sbu_0, # of connection points: 3
#     Node 4, Type 0, BuildingBlock: WUSLED_clean_sbu_0, # of connection points: 3
#     Node 5, Type 0, BuildingBlock: WUSLED_clean_sbu_0, # of connection points: 3
#     Node 6, Type 0, BuildingBlock: WUSLED_clean_sbu_0, # of connection points: 3
#     Node 7, Type 0, BuildingBlock: WUSLED_clean_sbu_0, # of connection points: 3
#     Edge 8, Type (0, 0), BuildingBlock: XIVTED_clean_linker_0, # of connection points: 2
#     Edge 9, Type (0, 0), BuildingBlock: XIVTED_clean_linker_0, # of connection points: 2
#     Edge 10, Type (0, 0), BuildingBlock: XIVTED_clean_linker_0, # of connection points: 2
#     Edge 11, Type (0, 0), BuildingBlock: XIVTED_clean_linker_0, # of connection points: 2
#     Edge 12, Type (0, 0), BuildingBlock: XIVTED_clean_linker_0, # of connection points: 2
#     Edge 13, Type (0, 0), BuildingBlock: XIVTED_clean_linker_0, # of connection points: 2
#     Edge 14, Type (0, 0), BuildingBlock: XIVTED_clean_linker_0, # of connection points: 2
#     Edge 15, Type (0, 0), BuildingBlock: XIVTED_clean_linker_0, # of connection points: 2
#     Edge 16, Type (0, 0), BuildingBlock: XIVTED_clean_linker_0, # of connection points: 2
#     Edge 17, Type (0, 0), BuildingBlock: XIVTED_clean_linker_0, # of connection points: 2
#     Edge 18, Type (0, 0), BuildingBlock: XIVTED_clean_linker_0, # of connection points: 2
#     Edge 19, Type (0, 0), BuildingBlock: XIVTED_clean_linker_0, # of connection points: 2
# Relax obj value: 0.069
# Max RMSD: 0.071
# Mean RMSD: 0.071
data_MOF--net-utk--node1-WUSLED_clean_sbu_0--edge1-XIVTED_clean_linker_0
_symmetry_space_group_name_H-M    P1
_symmetry_Int_Tables_number       1
_symmetry_cell_setting            triclinic
loop_
_symmetry_equiv_pos_as_xyz
'x, y, z'
_cell_length_a     47.809633
_cell_length_b     47.903439
_cell_length_c     51.857371
_cell_angle_alpha  90.10865
_cell_angle_beta   89.881334
_cell_angle_gamma 90.097643
loop_
_atom_site_label
_atom_site_type_symbol
_atom_site_fract_x
_atom_site_fract_y
_atom_site_fract_z
_atom_type_partial_charge
C0 C 0.99181 0.2447 0.15932 0.0
C1 C 0.98182 0.26669 0.14418 0.0
C2 C 0.99171 0.23964 0.10517 0.0
C3 C 0.98159 0.26408 0.11724 0.0
C4 C 0.99995 0.21714 0.12066 0.0
C5 C 0.99997 0.2197 0.14745 0.0
U6 U 1.00512 0.26807 0.23321 0.0
O7 O 1.00007 0.23666 0.26419 0.0
O8 O 0.04254 0.25062 0.25247 0.0
C9 C 0.02726 0.2344 0.26724 0.0
C10 C 0.99758 0.24757 0.18699 0.0
C11 C 0.03973 0.21469 0.28593 0.0
C12 C 0.05716 0.16843 0.29742 0.0
C13 C 0.04423 0.18647 0.27966 0.0
C14 C 0.06131 0.20665 0.32772 0.0
C15 C 0.06609 0.17841 0.32163 0.0
C16 C 0.04827 0.22451 0.31012 0.0
C17 C 0.99035 0.35033 0.24966 0.0
C18 C 0.99392 0.39097 0.27796 0.0
C19 C 0.97942 0.39666 0.2336 0.0
C20 C 0.98181 0.36784 0.22959 0.0
C21 C 0.98585 0.40869 0.25769 0.0
C22 C 0.99593 0.36201 0.27399 0.0
C23 C 0.99598 0.32044 0.24486 0.0
O24 O 0.02101 0.25952 0.19424 0.0
O25 O 0.97723 0.24873 0.20407 0.0
O26 O 0.97683 0.30101 0.2482 0.0
O27 O 0.01954 0.31194 0.23446 0.0
H28 H 0.97539 0.28615 0.15304 0.0
H29 H 0.9746 0.28161 0.1058 0.0
H30 H 1.00809 0.19816 0.11213 0.0
H31 H 1.00786 0.20255 0.15892 0.0
H32 H 0.06081 0.1469 0.292 0.0
H33 H 0.03804 0.17848 0.26096 0.0
H34 H 0.06775 0.215 0.34621 0.0
H35 H 0.04509 0.24618 0.31533 0.0
H36 H 0.99879 0.3995 0.29679 0.0
H37 H 0.97341 0.40971 0.21752 0.0
H38 H 0.9776 0.35933 0.21062 0.0
H39 H 1.00264 0.3488 0.28974 0.0
C40 C 0.78336 0.99122 0.40936 0.0
C41 C 0.76158 0.98197 0.39357 0.0
C42 C 0.78994 0.99189 0.35501 0.0
C43 C 0.76481 0.98227 0.36668 0.0
C44 C 0.81225 0.99895 0.37161 0.0
C45 C 0.80881 0.99893 0.39826 0.0
U46 U 0.76023 1.00381 0.48346 0.0
O47 O 0.79219 0.99877 0.51396 0.0
O48 O 0.77781 0.04113 0.50278 0.0
C49 C 0.7946 0.02592 0.51697 0.0
C50 C 0.77986 0.99661 0.43698 0.0
C51 C 0.81388 0.03843 0.53599 0.0
C52 C 0.86014 0.05604 0.54753 0.0
C53 C 0.84214 0.04301 0.52979 0.0
C54 C 0.82174 0.06009 0.57779 0.0
C55 C 0.85002 0.06495 0.57167 0.0
C56 C 0.80388 0.04693 0.56016 0.0
C57 C 0.67826 0.98824 0.50013 0.0
C58 C 0.63779 0.99026 0.52875 0.0
C59 C 0.63166 0.97993 0.48337 0.0
C60 C 0.66057 0.98156 0.47953 0.0
C61 C 0.61994 0.98496 0.50782 0.0
C62 C 0.6668 0.99199 0.52486 0.0
C63 C 0.70811 0.99417 0.49572 0.0
O64 O 0.76795 0.01991 0.4445 0.0
O65 O 0.77931 0.97622 0.45393 0.0
O66 O 0.72767 0.97517 0.4987 0.0
O67 O 0.71632 0.01776 0.48524 0.0
H68 H 0.74171 0.97584 0.40191 0.0
H69 H 0.74679 0.97623 0.35551 0.0
H70 H 0.83255 1.00509 0.36453 0.0
H71 H 0.82597 1.00595 0.41029 0.0
H72 H 0.8817 0.05986 0.54212 0.0
H73 H 0.85018 0.03685 0.51108 0.0
H74 H 0.81338 0.06671 0.59623 0.0
H75 H 0.78214 0.04369 0.5653 0.0
H76 H 0.62927 0.99428 0.54777 0.0
H77 H 0.61827 0.97553 0.46703 0.0
H78 H 0.669 0.97856 0.46032 0.0
H79 H 0.68021 0.99731 0.54096 0.0
C80 C 0.03739 0.78304 0.6593 0.0
C81 C 0.04808 0.76157 0.64385 0.0
C82 C 0.03739 0.78872 0.60508 0.0
C83 C 0.04845 0.76456 0.61693 0.0
C84 C 0.02817 0.81062 0.62106 0.0
C85 C 0.02836 0.80781 0.6478 0.0
U86 U 0.02463 0.75985 0.73334 0.0
O87 O 0.02933 0.79171 0.76405 0.0
O88 O 0.98703 0.77715 0.75238 0.0
C89 C 1.00206 0.794 0.76671 0.0
C90 C 0.03184 0.77971 0.68694 0.0
C91 C 0.98933 0.81293 0.78583 0.0
C92 C 0.96953 0.85829 0.79653 0.0
C93 C 0.98259 0.84036 0.77886 0.0
C94 C 0.97009 0.82158 0.82854 0.0
C95 C 0.96308 0.84911 0.82162 0.0
C96 C 0.98292 0.80359 0.81076 0.0
C97 C 0.0405 0.67829 0.75012 0.0
C98 C 0.03605 0.6367 0.77685 0.0
C99 C 0.05304 0.63292 0.73304 0.0
C100 C 0.05044 0.66177 0.72991 0.0
C101 C 0.0446 0.61954 0.7561 0.0
C102 C 0.03424 0.66576 0.77386 0.0
C103 C 0.03414 0.70804 0.7462 0.0
O104 O 1.00855 0.76757 0.69436 0.0
O105 O 0.05222 0.77912 0.70394 0.0
O106 O 0.05326 0.72763 0.74874 0.0
O107 O 1.0107 0.71593 0.73525 0.0
H108 H 0.05524 0.74228 0.65245 0.0
H109 H 0.05665 0.74753 0.60548 0.0
H110 H 0.01918 0.82942 0.61311 0.0
H111 H 0.01992 0.82457 0.65952 0.0
H112 H 0.96465 0.8794 0.79061 0.0
H113 H 0.98735 0.84788 0.75966 0.0
H114 H 0.96511 0.81373 0.84757 0.0
H115 H 0.98778 0.78241 0.81647 0.0
H116 H 0.02952 0.62791 0.79508 0.0
H117 H 0.06151 0.62131 0.71697 0.0
H118 H 0.05577 0.67109 0.71153 0.0
H119 H 0.02668 0.67834 0.7898 0.0
C120 C 0.24585 0.03651 0.90918 0.0
C121 C 0.26746 0.04704 0.89374 0.0
C122 C 0.24006 0.03663 0.85502 0.0
C123 C 0.26444 0.04742 0.86683 0.0
C124 C 0.218 0.02765 0.87094 0.0
C125 C 0.22089 0.02774 0.89767 0.0
U126 U 0.26934 0.02368 0.98305 0.0
O127 O 0.23756 0.02874 0.01386 0.0
O128 O 0.25177 0.98636 1.00233 0.0
C129 C 0.23482 1.00157 0.01648 0.0
C130 C 0.24911 0.03095 0.93682 0.0
C131 C 0.21577 0.98905 0.03571 0.0
C132 C 0.16977 0.97076 0.04737 0.0
C133 C 0.18763 0.98394 0.02958 0.0
C134 C 0.20798 0.96813 0.07776 0.0
C135 C 0.17981 0.96235 0.07166 0.0
C136 C 0.22577 0.98118 0.05998 0.0
C137 C 0.35155 0.03891 0.99959 0.0
C138 C 0.39155 0.0347 0.02842 0.0
C139 C 0.39843 0.04949 0.98424 0.0
C140 C 0.36965 0.04746 0.97986 0.0
C141 C 0.40973 0.04261 1.00835 0.0
C142 C 0.36256 0.03304 0.02411 0.0
C143 C 0.32189 0.03342 0.99361 0.0
O144 O 0.26104 1.00764 0.94413 0.0
O145 O 0.25007 0.05131 0.95384 0.0
O146 O 0.30225 0.05213 0.99776 0.0
O147 O 0.31335 1.00948 0.98406 0.0
H148 H 0.28689 0.05401 0.90233 0.0
H149 H 0.2816 0.05531 0.8553 0.0
H150 H 0.19905 0.01892 0.86288 0.0
H151 H 0.20402 0.01945 0.90938 0.0
H152 H 0.14838 0.96645 0.04178 0.0
H153 H 0.1796 0.98971 0.01083 0.0
H154 H 0.21642 0.96248 0.09638 0.0
H155 H 0.24741 0.98492 0.06513 0.0
H156 H 0.39982 0.02939 0.04721 0.0
H157 H 0.41204 0.05552 0.96847 0.0
H158 H 0.36158 0.05185 0.9608 0.0
H159 H 0.34891 0.02629 0.0396 0.0
C160 C 0.99225 0.78284 0.36081 0.0
C161 C 0.98089 0.76158 0.37605 0.0
C162 C 0.99213 0.78831 0.41514 0.0
C163 C 0.98035 0.76452 0.40299 0.0
C164 C 1.00199 0.81004 0.39929 0.0
C165 C 1.00178 0.80736 0.37253 0.0
U166 U 1.00494 0.75932 0.2868 0.0
O167 O 0.99996 0.7908 0.25593 0.0
O168 O 0.04239 0.77662 0.26726 0.0
C169 C 0.02715 0.79286 0.25258 0.0
C170 C 0.99778 0.77965 0.33312 0.0
C171 C 0.03964 0.81273 0.234 0.0
C172 C 0.05711 0.85907 0.22273 0.0
C173 C 0.04424 0.84089 0.24047 0.0
C174 C 0.06116 0.82109 0.19213 0.0
C175 C 0.0658 0.84925 0.19842 0.0
C176 C 0.04811 0.80308 0.20969 0.0
C177 C 0.98946 0.67715 0.27038 0.0
C178 C 0.99183 0.63698 0.24143 0.0
C179 C 0.98073 0.63033 0.28657 0.0
C180 C 0.98246 0.6592 0.29071 0.0
C181 C 0.98596 0.61891 0.26207 0.0
C182 C 0.99359 0.66593 0.2456 0.0
C183 C 0.99526 0.707 0.2753 0.0
O184 O 0.02112 0.7677 0.32566 0.0
O185 O 0.97734 0.77868 0.3162 0.0
O186 O 0.97634 0.72655 0.27191 0.0
O187 O 0.01895 0.71539 0.28552 0.0
H188 H 0.97322 0.74252 0.36728 0.0
H189 H 0.97134 0.7477 0.41413 0.0
H190 H 1.01148 0.82862 0.40725 0.0
H191 H 1.01064 0.824 0.36096 0.0
H192 H 0.06084 0.88059 0.22818 0.0
H193 H 0.03815 0.84873 0.25927 0.0
H194 H 0.0678 0.81296 0.1736 0.0
H195 H 0.04491 0.78143 0.20438 0.0
H196 H 0.99606 0.62865 0.22239 0.0
H197 H 0.97611 0.61676 0.30272 0.0
H198 H 0.97923 0.66739 0.30997 0.0
H199 H 0.99918 0.67946 0.22968 0.0
C200 C 0.2457 0.99131 0.61073 0.0
C201 C 0.26688 0.97986 0.62593 0.0
C202 C 0.24018 0.99123 0.66507 0.0
C203 C 0.2639 0.97931 0.65285 0.0
C204 C 0.21854 1.00123 0.6492 0.0
C205 C 0.22123 1.00097 0.62246 0.0
U206 U 0.26896 1.0042 0.53674 0.0
O207 O 0.23717 0.99902 0.50606 0.0
O208 O 0.25137 0.04143 0.5175 0.0
C209 C 0.23462 0.02617 0.50323 0.0
C210 C 0.24893 0.99681 0.58309 0.0
C211 C 0.21546 0.03862 0.48408 0.0
C212 C 0.16925 0.0562 0.47245 0.0
C213 C 0.1872 0.04321 0.4902 0.0
C214 C 0.2077 0.06022 0.44227 0.0
C215 C 0.1794 0.0651 0.44834 0.0
C216 C 0.22552 0.04708 0.45992 0.0
C217 C 0.35111 0.98936 0.52035 0.0
C218 C 0.39202 0.99196 0.49229 0.0
C219 C 0.39725 0.9793 0.53719 0.0
C220 C 0.36837 0.9816 0.54083 0.0
C221 C 0.4096 0.98468 0.51297 0.0
C222 C 0.36302 0.99417 0.49599 0.0
C223 C 0.3212 0.99511 0.52458 0.0
O224 O 0.26069 0.02024 0.57569 0.0
O225 O 0.24994 0.97641 0.5661 0.0
O226 O 0.30178 0.9759 0.52151 0.0
O227 O 0.31283 0.01853 0.53528 0.0
H228 H 0.28591 0.97209 0.61712 0.0
H229 H 0.28065 0.97006 0.66385 0.0
H230 H 0.19998 1.01086 0.65705 0.0
H231 H 0.20463 1.0099 0.61091 0.0
H232 H 0.1477 0.06001 0.47785 0.0
H233 H 0.1791 0.0371 0.50888 0.0
H234 H 0.21612 0.06681 0.42386 0.0
H235 H 0.24726 0.04385 0.45479 0.0
H236 H 0.40062 0.99603 0.47333 0.0
H237 H 0.40999 0.97424 0.55376 0.0
H238 H 0.35962 0.97807 0.55984 0.0
H239 H 0.34993 1.00036 0.47996 0.0
C240 C 0.03721 0.24493 0.86062 0.0
C241 C 0.04768 0.26624 0.87628 0.0
C242 C 0.03688 0.23857 0.91502 0.0
C243 C 0.04792 0.26297 0.90317 0.0
C244 C 0.02811 0.21679 0.89848 0.0
C245 C 0.02837 0.21999 0.87182 0.0
U246 U 0.02466 0.26783 0.78656 0.0
O247 O 0.02963 0.23572 0.7561 0.0
O248 O 0.98723 0.25027 0.76742 0.0
C249 C 1.0024 0.23334 0.75326 0.0
C250 C 0.03181 0.24849 0.83305 0.0
C251 C 0.98979 0.21429 0.73413 0.0
C252 C 0.97225 0.16814 0.72242 0.0
C253 C 0.98522 0.1861 0.74021 0.0
C254 C 0.96827 0.20646 0.69231 0.0
C255 C 0.96343 0.17821 0.69831 0.0
C256 C 0.98133 0.22431 0.71003 0.0
C257 C 0.04052 0.34944 0.76982 0.0
C258 C 0.03622 0.39101 0.74308 0.0
C259 C 0.05261 0.3949 0.78704 0.0
C260 C 0.05016 0.36602 0.79012 0.0
C261 C 0.04444 0.40815 0.76391 0.0
C262 C 0.03446 0.36195 0.74604 0.0
C263 C 0.03418 0.31964 0.7736 0.0
O264 O 1.00848 0.26038 0.82561 0.0
O265 O 0.05223 0.2489 0.81601 0.0
O266 O 0.05338 0.30017 0.77118 0.0
O267 O 1.01064 0.31162 0.78443 0.0
H268 H 0.05482 0.28567 0.86786 0.0
H269 H 0.05615 0.28022 0.91414 0.0
H270 H 0.01981 0.19733 0.90545 0.0
H271 H 0.02029 0.20322 0.85989 0.0
H272 H 0.96852 0.1466 0.72776 0.0
H273 H 0.99138 0.17805 0.75886 0.0
H274 H 0.96187 0.2148 0.67385 0.0
H275 H 0.98461 0.24601 0.70496 0.0
H276 H 0.02989 0.39987 0.72485 0.0
H277 H 0.06062 0.40675 0.80317 0.0
H278 H 0.05529 0.35673 0.80853 0.0
H279 H 0.0271 0.34933 0.73006 0.0
C280 C 0.7837 0.03714 0.1112 0.0
C281 C 0.76156 0.04678 0.12652 0.0
C282 C 0.78885 0.03715 0.16526 0.0
C283 C 0.76418 0.04686 0.15345 0.0
C284 C 0.8115 0.02928 0.14967 0.0
C285 C 0.80887 0.02923 0.12289 0.0
U286 U 0.76009 0.02393 0.03742 0.0
O287 O 0.79181 0.02856 1.0065 0.0
O288 O 0.77732 0.98637 0.01837 0.0
C289 C 0.79425 1.00133 1.00403 0.0
C290 C 0.78073 0.03137 0.08355 0.0
C291 C 0.81318 0.98855 0.98491 0.0
C292 C 0.85905 0.97022 0.97341 0.0
C293 C 0.84111 0.98313 0.99124 0.0
C294 C 0.82097 0.96748 0.9429 0.0
C295 C 0.8493 0.96199 0.94882 0.0
C296 C 0.80325 0.9807 0.96062 0.0
C297 C 0.67794 0.03888 0.02076 0.0
C298 C 0.63798 0.03523 0.99181 0.0
C299 C 0.63104 0.04906 0.0363 0.0
C300 C 0.65986 0.04701 0.04071 0.0
C301 C 0.61981 0.04264 0.012 0.0
C302 C 0.66691 0.03355 0.99615 0.0
C303 C 0.70772 0.0333 0.02606 0.0
O304 O 0.76852 1.00809 0.07632 0.0
O305 O 0.77966 0.05166 0.06653 0.0
O306 O 0.72734 0.05217 0.02232 0.0
O307 O 0.71606 1.00974 0.03641 0.0
H308 H 0.74196 0.05293 0.1178 0.0
H309 H 0.74649 0.05328 0.1651 0.0
H310 H 0.83062 0.02145 0.15816 0.0
H311 H 0.82611 0.02156 0.11129 0.0
H312 H 0.88058 0.96713 0.97903 0.0
H313 H 0.84911 0.98896 1.01002 0.0
H314 H 0.81186 0.961 0.92482 0.0
H315 H 0.78164 0.98447 0.95543 0.0
H316 H 0.62977 0.03032 0.97288 0.0
H317 H 0.61736 0.05484 0.0521 0.0
H318 H 0.66793 0.05109 0.05986 0.0
H319 H 0.68056 0.02716 0.98053 0.0
H320 H 0.94453 0.44399 0.24209 0.0
H321 H 0.02749 0.58451 0.27786 0.0
H322 H 0.02456 0.4441 0.28019 0.0
H323 H 0.94724 0.58352 0.24041 0.0
H324 H 0.02749 0.53329 0.27811 0.0
H325 H 0.94502 0.49493 0.24204 0.0
C326 C 0.96219 0.45478 0.25056 0.0
C327 C 0.98465 0.43967 0.26087 0.0
C328 C 1.00991 0.54418 0.26971 0.0
C329 C 0.98548 0.49837 0.26074 0.0
C330 C 1.01001 0.57338 0.26943 0.0
C331 C 0.98738 0.58813 0.25907 0.0
C332 C 0.98686 0.52953 0.25974 0.0
C333 C 0.96516 0.57286 0.24846 0.0
C334 C 0.96248 0.48392 0.2505 0.0
C335 C 1.00676 0.45484 0.27203 0.0
N336 N 0.96537 0.5444 0.24921 0.0
N337 N 1.00673 0.48334 0.27147 0.0
H338 H 0.58521 0.02004 0.4826 0.0
H339 H 0.44564 0.94791 0.53568 0.0
H340 H 0.58477 0.95368 0.53852 0.0
H341 H 0.44492 0.01799 0.48346 0.0
H342 H 0.49638 0.94924 0.5359 0.0
H343 H 0.53404 0.01988 0.48265 0.0
C344 C 0.57421 1.00554 0.49503 0.0
C345 C 0.58912 0.98674 0.51043 0.0
C346 C 0.48521 0.96433 0.52434 0.0
C347 C 0.53054 0.9861 0.51034 0.0
C348 C 0.45609 0.96369 0.52427 0.0
C349 C 0.44069 0.98329 0.51007 0.0
C350 C 0.49944 0.98449 0.50981 0.0
C351 C 0.45572 1.00247 0.49483 0.0
C352 C 0.54503 1.0054 0.49499 0.0
C353 C 0.574 0.96853 0.52637 0.0
N354 N 0.48425 1.00267 0.49522 0.0
N355 N 0.5455 0.96849 0.52574 0.0
H356 H 0.04085 0.5814 0.71607 0.0
H357 H 0.03678 0.44577 0.80361 0.0
H358 H 0.0447 0.58431 0.79948 0.0
H359 H 0.04818 0.4433 0.72083 0.0
H360 H 0.03787 0.49604 0.80219 0.0
H361 H 0.04198 0.53136 0.71777 0.0
C362 C 0.04251 0.57195 0.73488 0.0
C363 C 0.04376 0.5881 0.75761 0.0
C364 C 0.04021 0.48453 0.78433 0.0
C365 C 0.04304 0.52929 0.75947 0.0
C366 C 0.04003 0.45548 0.78506 0.0
C367 C 0.04342 0.4395 0.76243 0.0
C368 C 0.04291 0.49825 0.76071 0.0
C369 C 0.0456 0.45418 0.73896 0.0
C370 C 0.04266 0.54293 0.73571 0.0
C371 C 0.0438 0.57344 0.78122 0.0
N372 N 0.0453 0.48266 0.73875 0.0
N373 N 0.04341 0.54496 0.78149 0.0
H374 H 0.58555 0.08766 1.00712 0.0
H375 H 0.4438 0.99771 0.01614 0.0
H376 H 0.58441 0.99788 1.01004 0.0
H377 H 0.44553 0.08697 1.00686 0.0
H378 H 0.49521 0.9972 0.01555 0.0
H379 H 0.53423 0.08781 1.00709 0.0
C380 C 0.57437 0.06798 1.00743 0.0
C381 C 0.58906 0.04275 1.00846 0.0
C382 C 0.48439 0.01695 0.01387 0.0
C383 C 0.5304 0.04262 1.00915 0.0
C384 C 0.4551 0.01724 0.01445 0.0
C385 C 0.44054 0.04244 0.01166 0.0
C386 C 0.49923 0.0421 0.01067 0.0
C387 C 0.45605 0.06714 1.00911 0.0
C388 C 0.54511 0.06802 1.00758 0.0
C389 C 0.57373 0.01776 1.00904 0.0
N390 N 0.48451 0.06636 1.00871 0.0
N391 N 0.54523 0.01831 1.00957 0.0
H392 H 0.05291 0.12513 0.33862 0.0
H393 H 0.1909 0.11518 0.4264 0.0
H394 H 0.11463 0.19017 0.34691 0.0
H395 H 0.12706 0.05167 0.42874 0.0
H396 H 0.16277 0.14161 0.39597 0.0
H397 H 0.07905 0.09661 0.36999 0.0
C398 C 0.072 0.13335 0.34692 0.0
C399 C 0.08155 0.16016 0.34014 0.0
C400 C 0.15474 0.1219 0.403 0.0
C401 C 0.1116 0.12765 0.37587 0.0
C402 C 0.17092 0.10674 0.42038 0.0
C403 C 0.16142 0.08115 0.4301 0.0
C404 C 0.12875 0.11143 0.39479 0.0
C405 C 0.13513 0.07141 0.42179 0.0
C406 C 0.08682 0.11712 0.3649 0.0
C407 C 0.10627 0.1698 0.35167 0.0
N408 N 0.11976 0.08645 0.40446 0.0
N409 N 0.12036 0.1536 0.36875 0.0
H410 H 0.83876 0.11516 0.59342 0.0
H411 H 0.97643 0.1249 0.68144 0.0
H412 H 0.90215 0.05138 0.5913 0.0
H413 H 0.91508 0.19005 0.67305 0.0
H414 H 0.95023 0.09634 0.65001 0.0
H415 H 0.86697 0.14162 0.62388 0.0
C416 C 0.85867 0.10668 0.59949 0.0
C417 C 0.86803 0.08102 0.58986 0.0
C418 C 0.94257 0.11689 0.65509 0.0
C419 C 0.90075 0.11129 0.62516 0.0
C420 C 0.95741 0.13312 0.67309 0.0
C421 C 0.94797 0.15998 0.67981 0.0
C422 C 0.9179 0.12747 0.64408 0.0
C423 C 0.92334 0.16966 0.66828 0.0
C424 C 0.87489 0.12184 0.61689 0.0
C425 C 0.89422 0.07118 0.59821 0.0
N426 N 0.90923 0.15345 0.65117 0.0
N427 N 0.90963 0.08625 0.61555 0.0
H428 H 0.97402 0.85655 0.87322 0.0
H429 H 0.84432 0.95909 0.89544 0.0
H430 H 0.91877 0.88417 0.81283 0.0
H431 H 0.89828 0.93148 0.95726 0.0
H432 H 0.87233 0.9328 0.86527 0.0
H433 H 0.94817 0.88553 0.90407 0.0
C434 C 0.95643 0.86869 0.86644 0.0
C435 C 0.9485 0.86777 0.84037 0.0
C436 C 0.87813 0.93261 0.88544 0.0
C437 C 0.91874 0.90103 0.87566 0.0
C438 C 0.86176 0.94744 0.90304 0.0
C439 C 0.86807 0.94743 0.92959 0.0
C440 C 0.90158 0.91784 0.89401 0.0
C441 C 0.89221 0.93268 0.93725 0.0
C442 C 0.94175 0.88531 0.88406 0.0
C443 C 0.9258 0.88432 0.83265 0.0
N444 N 0.90796 0.91853 0.91961 0.0
N445 N 0.91166 0.90006 0.85021 0.0
H446 H 0.19512 0.91869 0.10224 0.0
H447 H 0.04705 0.8958 0.17244 0.0
H448 H 0.12327 0.96902 0.08342 0.0
H449 H 0.11966 0.84399 0.18263 0.0
H450 H 0.07349 0.92433 0.14105 0.0
H451 H 0.16708 0.89306 0.13308 0.0
C452 C 0.17344 0.92461 0.10472 0.0
C453 C 0.16181 0.9464 0.09023 0.0
C454 C 0.08363 0.90678 0.15024 0.0
C455 C 0.12891 0.91628 0.12574 0.0
C456 C 0.06861 0.8906 0.16818 0.0
C457 C 0.08128 0.86757 0.18013 0.0
C458 C 0.1116 0.9 0.14454 0.0
C459 C 0.10911 0.86152 0.17383 0.0
C460 C 0.15727 0.9097 0.12231 0.0
C461 C 0.13321 0.95233 0.09401 0.0
N462 N 0.12327 0.87764 0.15664 0.0
N463 N 0.11774 0.93743 0.11146 0.0
H464 H 1.01279 0.28131 0.07539 0.0
H465 H 0.01774 0.19315 0.94527 0.0
H466 H 0.98407 0.19597 0.07074 0.0
H467 H 0.04595 0.279 0.95339 0.0
H468 H 1.00606 0.19291 0.99025 0.0
H469 H 0.02483 0.27976 0.03002 0.0
C470 C 1.00855 0.26233 0.06472 0.0
C471 C 0.99702 0.2389 0.07692 0.0
C472 C 0.01489 0.21171 0.98196 0.0
C473 C 1.01156 0.23671 0.02464 0.0
C474 C 0.02161 0.21218 0.95575 0.0
C475 C 0.03256 0.23654 0.94392 0.0
C476 C 0.01935 0.23554 0.99697 0.0
C477 C 0.03751 0.25957 0.96029 0.0
C478 C 0.01577 0.26134 0.03877 0.0
C479 C 0.99293 0.21457 0.06212 0.0
N480 N 0.03081 0.25844 0.98568 0.0
N481 N 1.00015 0.2141 0.03669 0.0
H482 H 0.83134 0.02063 0.32673 0.0
H483 H 0.74946 1.01052 0.19364 0.0
H484 H 0.75432 0.97408 0.31534 0.0
H485 H 0.83042 0.04963 0.20044 0.0
H486 H 0.75131 0.99803 0.239 0.0
H487 H 0.83243 0.03049 0.28139 0.0
C488 C 0.81461 1.01203 0.31531 0.0
C489 C 0.79234 0.99645 0.32623 0.0
C490 C 0.76867 1.00948 0.23073 0.0
C491 C 0.79342 1.00924 0.27317 0.0
C492 C 0.76747 0.01688 0.20485 0.0
C493 C 0.78959 0.0315 0.19336 0.0
C494 C 0.79212 0.01682 0.24548 0.0
C495 C 0.81284 0.03846 0.20865 0.0
C496 C 0.8153 0.01817 0.28901 0.0
C497 C 0.77158 0.98686 0.30907 0.0
N498 N 0.81345 0.03118 0.23403 0.0
N499 N 0.77253 0.99367 0.28369 0.0
H500 H 0.03634 0.83523 0.57289 0.0
H501 H 0.99703 0.74431 0.44909 0.0
H502 H 0.02724 0.74539 0.57154 0.0
H503 H 0.9983 0.83469 0.44763 0.0
H504 H 1.00762 0.74568 0.4943 0.0
H505 H 0.02354 0.83648 0.52731 0.0
C506 C 0.03174 0.81573 0.56323 0.0
C507 C 0.03286 0.7901 0.57656 0.0
C508 C 1.00564 0.76528 0.48412 0.0
C509 C 0.0187 0.79155 0.52401 0.0
C510 C 0.99906 0.76459 0.45804 0.0
C511 C 0.99658 0.78939 0.44379 0.0
C512 C 1.01046 0.79089 0.49643 0.0
C513 C 1.0006 0.81481 0.45719 0.0
C514 C 0.02456 0.81655 0.53708 0.0
C515 C 0.02732 0.76567 0.56244 0.0
N516 N 1.00756 0.81489 0.48267 0.0
N517 N 0.02052 0.76707 0.53712 0.0
H518 H 0.19387 0.03809 0.82253 0.0
H519 H 0.28403 0.99285 0.69986 0.0
H520 H 0.28308 0.0235 0.82222 0.0
H521 H 0.19373 1.00017 0.69724 0.0
H522 H 0.28262 1.00326 0.74504 0.0
H523 H 0.19243 0.02533 0.77681 0.0
C524 C 0.21318 0.03232 0.813 0.0
C525 C 0.23871 0.03196 0.82656 0.0
C526 C 0.26306 1.0027 0.73456 0.0
C527 C 0.23708 0.01762 0.77409 0.0
C528 C 0.26372 0.99621 0.70845 0.0
C529 C 0.23901 0.99554 0.6938 0.0
C530 C 0.23762 1.00929 0.74653 0.0
C531 C 0.21366 1.00116 0.70695 0.0
C532 C 0.21228 0.02512 0.78683 0.0
C533 C 0.26296 0.02477 0.81281 0.0
N534 N 0.21367 1.00807 0.73244 0.0
N535 N 0.26149 0.0179 0.7875 0.0
loop_
_geom_bond_atom_site_label_1
_geom_bond_atom_site_label_2
_geom_bond_distance
_geom_bond_site_symmetry_2
_ccdc_geom_bond_type
C0 C1 1.264 . S
C0 C5 1.479 . S
C0 C10 1.465 . S
C1 C0 1.264 . S
C1 C3 1.339 . S
C1 H28 0.931 . S
C2 C3 1.395 . S
C2 C4 1.320 . S
C3 C1 1.339 . S
C3 C2 1.395 . S
C3 H29 0.929 . S
C4 C2 1.320 . S
C4 C5 1.405 . S
C4 H30 0.930 . S
C5 C0 1.479 . S
C5 C4 1.405 . S
C5 H31 0.931 . S
U6 O7 2.454 1_655 S
U6 O8 2.458 1_655 S
U6 C9 2.984 1_655 S
U6 C10 2.847 . S
U6 C23 2.882 . S
U6 O24 2.441 . S
U6 O25 2.420 . S
U6 O26 2.455 . S
U6 O27 2.449 . S
O7 U6 2.454 1_455 S
O7 C9 1.353 . S
O8 U6 2.458 1_455 S
O8 C9 1.286 . S
C9 U6 2.984 1_455 S
C9 O7 1.353 . S
C9 O8 1.286 . S
C9 C11 1.363 . S
C10 C0 1.465 . S
C10 U6 2.847 . S
C10 O24 1.249 . S
C10 O25 1.202 . S
C11 C9 1.363 . S
C11 C13 1.408 . S
C11 C16 1.342 . S
C12 C13 1.310 . S
C12 C15 1.461 . S
C12 H32 0.932 . S
C13 C11 1.408 . S
C13 C12 1.310 . S
C13 H33 0.930 . S
C14 C15 1.474 . S
C14 C16 1.285 . S
C14 H34 0.929 . S
C15 C12 1.461 . S
C15 C14 1.474 . S
C16 C11 1.342 . S
C16 C14 1.285 . S
C16 H35 0.930 . S
C17 C20 1.424 . S
C17 C22 1.245 . S
C17 C23 1.428 . S
C18 C21 1.260 . S
C18 C22 1.477 . S
C18 H36 0.932 . S
C19 C20 1.384 . S
C19 C21 1.479 . S
C19 H37 0.929 . S
C20 C17 1.424 . S
C20 C19 1.384 . S
C20 H38 0.928 . S
C21 C18 1.260 . S
C21 C19 1.479 . S
C22 C17 1.245 . S
C22 C18 1.477 . S
C22 H39 0.932 . S
C23 U6 2.882 . S
C23 C17 1.428 . S
C23 O26 1.301 . S
C23 O27 1.282 . S
O24 U6 2.441 . S
O24 C10 1.249 . S
O25 U6 2.420 . S
O25 C10 1.202 . S
O26 U6 2.455 . S
O26 C23 1.301 . S
O27 U6 2.449 . S
O27 C23 1.282 . S
H28 C1 0.931 . S
H29 C3 0.929 . S
H30 C4 0.930 . S
H31 C5 0.931 . S
H32 C12 0.932 . S
H33 C13 0.930 . S
H34 C14 0.929 . S
H35 C16 0.930 . S
H36 C18 0.932 . S
H37 C19 0.929 . S
H38 C20 0.928 . S
H39 C22 0.932 . S
C40 C41 1.264 . S
C40 C45 1.479 . S
C40 C50 1.465 . S
C41 C40 1.264 . S
C41 C43 1.339 . S
C41 H68 0.931 . S
C42 C43 1.395 . S
C42 C44 1.320 . S
C43 C41 1.339 . S
C43 C42 1.395 . S
C43 H69 0.929 . S
C44 C42 1.320 . S
C44 C45 1.405 . S
C44 H70 0.930 . S
C45 C40 1.479 . S
C45 C44 1.405 . S
C45 H71 0.931 . S
U46 O47 2.454 1_565 S
U46 O48 2.458 1_565 S
U46 C49 2.984 1_565 S
U46 C50 2.847 . S
U46 C63 2.882 . S
U46 O64 2.441 . S
U46 O65 2.420 . S
U46 O66 2.455 . S
U46 O67 2.449 . S
O47 U46 2.454 1_545 S
O47 C49 1.353 . S
O48 U46 2.458 1_545 S
O48 C49 1.286 . S
C49 U46 2.984 1_545 S
C49 O47 1.353 . S
C49 O48 1.286 . S
C49 C51 1.363 . S
C50 C40 1.465 . S
C50 U46 2.847 . S
C50 O64 1.249 . S
C50 O65 1.202 . S
C51 C49 1.363 . S
C51 C53 1.408 . S
C51 C56 1.342 . S
C52 C53 1.310 . S
C52 C55 1.461 . S
C52 H72 0.932 . S
C53 C51 1.408 . S
C53 C52 1.310 . S
C53 H73 0.930 . S
C54 C55 1.474 . S
C54 C56 1.285 . S
C54 H74 0.929 . S
C55 C52 1.461 . S
C55 C54 1.474 . S
C56 C51 1.342 . S
C56 C54 1.285 . S
C56 H75 0.930 . S
C57 C60 1.424 . S
C57 C62 1.245 . S
C57 C63 1.428 . S
C58 C61 1.260 . S
C58 C62 1.477 . S
C58 H76 0.932 . S
C59 C60 1.384 . S
C59 C61 1.479 . S
C59 H77 0.929 . S
C60 C57 1.424 . S
C60 C59 1.384 . S
C60 H78 0.928 . S
C61 C58 1.260 . S
C61 C59 1.479 . S
C62 C57 1.245 . S
C62 C58 1.477 . S
C62 H79 0.932 . S
C63 U46 2.882 . S
C63 C57 1.428 . S
C63 O66 1.301 . S
C63 O67 1.282 . S
O64 U46 2.441 . S
O64 C50 1.249 . S
O65 U46 2.420 . S
O65 C50 1.202 . S
O66 U46 2.455 . S
O66 C63 1.301 . S
O67 U46 2.449 . S
O67 C63 1.282 . S
H68 C41 0.931 . S
H69 C43 0.929 . S
H70 C44 0.930 . S
H71 C45 0.931 . S
H72 C52 0.932 . S
H73 C53 0.930 . S
H74 C54 0.929 . S
H75 C56 0.930 . S
H76 C58 0.932 . S
H77 C59 0.929 . S
H78 C60 0.928 . S
H79 C62 0.932 . S
C80 C81 1.264 . S
C80 C85 1.479 . S
C80 C90 1.465 . S
C81 C80 1.264 . S
C81 C83 1.339 . S
C81 H108 0.931 . S
C82 C83 1.395 . S
C82 C84 1.320 . S
C83 C81 1.339 . S
C83 C82 1.395 . S
C83 H109 0.929 . S
C84 C82 1.320 . S
C84 C85 1.405 . S
C84 H110 0.930 . S
C85 C80 1.479 . S
C85 C84 1.405 . S
C85 H111 0.931 . S
U86 O87 2.454 1_455 S
U86 O88 2.458 1_455 S
U86 C89 2.984 1_455 S
U86 C90 2.847 . S
U86 C103 2.882 . S
U86 O104 2.441 . S
U86 O105 2.420 . S
U86 O106 2.455 . S
U86 O107 2.449 . S
O87 U86 2.454 1_655 S
O87 C89 1.353 . S
O88 U86 2.458 1_655 S
O88 C89 1.286 . S
C89 U86 2.984 1_655 S
C89 O87 1.353 . S
C89 O88 1.286 . S
C89 C91 1.363 . S
C90 C80 1.465 . S
C90 U86 2.847 . S
C90 O104 1.249 . S
C90 O105 1.202 . S
C91 C89 1.363 . S
C91 C93 1.408 . S
C91 C96 1.342 . S
C92 C93 1.310 . S
C92 C95 1.461 . S
C92 H112 0.932 . S
C93 C91 1.408 . S
C93 C92 1.310 . S
C93 H113 0.930 . S
C94 C95 1.474 . S
C94 C96 1.285 . S
C94 H114 0.929 . S
C95 C92 1.461 . S
C95 C94 1.474 . S
C96 C91 1.342 . S
C96 C94 1.285 . S
C96 H115 0.930 . S
C97 C100 1.424 . S
C97 C102 1.245 . S
C97 C103 1.428 . S
C98 C101 1.260 . S
C98 C102 1.477 . S
C98 H116 0.932 . S
C99 C100 1.384 . S
C99 C101 1.479 . S
C99 H117 0.929 . S
C100 C97 1.424 . S
C100 C99 1.384 . S
C100 H118 0.928 . S
C101 C98 1.260 . S
C101 C99 1.479 . S
C102 C97 1.245 . S
C102 C98 1.477 . S
C102 H119 0.932 . S
C103 U86 2.882 . S
C103 C97 1.428 . S
C103 O106 1.301 . S
C103 O107 1.282 . S
O104 U86 2.441 . S
O104 C90 1.249 . S
O105 U86 2.420 . S
O105 C90 1.202 . S
O106 U86 2.455 . S
O106 C103 1.301 . S
O107 U86 2.449 . S
O107 C103 1.282 . S
H108 C81 0.931 . S
H109 C83 0.929 . S
H110 C84 0.930 . S
H111 C85 0.931 . S
H112 C92 0.932 . S
H113 C93 0.930 . S
H114 C94 0.929 . S
H115 C96 0.930 . S
H116 C98 0.932 . S
H117 C99 0.929 . S
H118 C100 0.928 . S
H119 C102 0.932 . S
C120 C121 1.264 . S
C120 C125 1.479 . S
C120 C130 1.465 . S
C121 C120 1.264 . S
C121 C123 1.339 . S
C121 H148 0.931 . S
C122 C123 1.395 . S
C122 C124 1.320 . S
C123 C121 1.339 . S
C123 C122 1.395 . S
C123 H149 0.929 . S
C124 C122 1.320 . S
C124 C125 1.405 . S
C124 H150 0.930 . S
C125 C120 1.479 . S
C125 C124 1.405 . S
C125 H151 0.931 . S
U126 O127 2.454 1_545 S
U126 O128 2.458 1_546 S
U126 C129 2.984 1_546 S
U126 C130 2.847 . S
U126 C143 2.882 . S
U126 O144 2.441 . S
U126 O145 2.420 . S
U126 O146 2.455 1_556 S
U126 O147 2.449 . S
O127 U126 2.454 1_565 S
O127 C129 1.353 1_556 S
O128 U126 2.458 1_564 S
O128 C129 1.286 . S
C129 U126 2.984 1_564 S
C129 O127 1.353 1_554 S
C129 O128 1.286 . S
C129 C131 1.363 . S
C130 C120 1.465 . S
C130 U126 2.847 . S
C130 O144 1.249 . S
C130 O145 1.202 . S
C131 C129 1.363 . S
C131 C133 1.408 . S
C131 C136 1.342 . S
C132 C133 1.310 . S
C132 C135 1.461 . S
C132 H152 0.932 . S
C133 C131 1.408 . S
C133 C132 1.310 . S
C133 H153 0.973 . S
C134 C135 1.474 . S
C134 C136 1.285 . S
C134 H154 0.929 . S
C135 C132 1.461 . S
C135 C134 1.474 . S
C136 C131 1.342 . S
C136 C134 1.285 . S
C136 H155 0.930 . S
C137 C140 1.424 . S
C137 C142 1.245 1_556 S
C137 C143 1.428 . S
C138 C141 1.260 . S
C138 C142 1.477 . S
C138 H156 0.932 . S
C139 C140 1.384 . S
C139 C141 1.479 1_556 S
C139 H157 0.929 . S
C140 C137 1.424 . S
C140 C139 1.384 . S
C140 H158 0.928 . S
C141 C138 1.260 . S
C141 C139 1.479 1_554 S
C142 C137 1.245 1_554 S
C142 C138 1.477 . S
C142 H159 0.932 . S
C143 U126 2.882 . S
C143 C137 1.428 . S
C143 O146 1.301 1_556 S
C143 O147 1.282 . S
O144 U126 2.441 . S
O144 C130 1.249 . S
O145 U126 2.420 . S
O145 C130 1.202 . S
O146 U126 2.455 1_554 S
O146 C143 1.301 1_554 S
O147 U126 2.449 . S
O147 C143 1.282 . S
H148 C121 0.931 . S
H149 C123 0.929 . S
H150 C124 0.930 . S
H151 C125 0.931 . S
H152 C132 0.932 . S
H153 C133 0.973 . S
H154 C134 0.929 . S
H155 C136 0.930 . S
H156 C138 0.932 . S
H157 C139 0.929 . S
H158 C140 0.928 . S
H159 C142 0.932 . S
C160 C161 1.264 . S
C160 C165 1.479 . S
C160 C170 1.465 . S
C161 C160 1.264 . S
C161 C163 1.339 . S
C161 H188 0.931 . S
C162 C163 1.395 . S
C162 C164 1.320 . S
C163 C161 1.339 . S
C163 C162 1.395 . S
C163 H189 0.929 . S
C164 C162 1.320 . S
C164 C165 1.405 . S
C164 H190 0.930 . S
C165 C160 1.479 . S
C165 C164 1.405 . S
C165 H191 0.931 . S
U166 O167 2.454 1_655 S
U166 O168 2.458 1_655 S
U166 C169 2.984 1_655 S
U166 C170 2.847 . S
U166 C183 2.882 . S
U166 O184 2.441 . S
U166 O185 2.420 . S
U166 O186 2.455 . S
U166 O187 2.449 . S
O167 U166 2.454 1_455 S
O167 C169 1.353 . S
O168 U166 2.458 1_455 S
O168 C169 1.286 . S
C169 U166 2.984 1_455 S
C169 O167 1.353 . S
C169 O168 1.286 . S
C169 C171 1.363 . S
C170 C160 1.465 . S
C170 U166 2.847 . S
C170 O184 1.249 . S
C170 O185 1.202 . S
C171 C169 1.363 . S
C171 C173 1.408 . S
C171 C176 1.342 . S
C172 C173 1.310 . S
C172 C175 1.461 . S
C172 H192 0.932 . S
C173 C171 1.408 . S
C173 C172 1.310 . S
C173 H193 0.930 . S
C174 C175 1.474 . S
C174 C176 1.285 . S
C174 H194 0.929 . S
C175 C172 1.461 . S
C175 C174 1.474 . S
C176 C171 1.342 . S
C176 C174 1.285 . S
C176 H195 0.930 . S
C177 C180 1.424 . S
C177 C182 1.245 . S
C177 C183 1.428 . S
C178 C181 1.260 . S
C178 C182 1.477 . S
C178 H196 0.932 . S
C179 C180 1.384 . S
C179 C181 1.479 . S
C179 H197 0.929 . S
C180 C177 1.424 . S
C180 C179 1.384 . S
C180 H198 0.928 . S
C181 C178 1.260 . S
C181 C179 1.479 . S
C182 C177 1.245 . S
C182 C178 1.477 . S
C182 H199 0.932 . S
C183 U166 2.882 . S
C183 C177 1.428 . S
C183 O186 1.301 . S
C183 O187 1.282 . S
O184 U166 2.441 . S
O184 C170 1.249 . S
O185 U166 2.420 . S
O185 C170 1.202 . S
O186 U166 2.455 . S
O186 C183 1.301 . S
O187 U166 2.449 . S
O187 C183 1.282 . S
H188 C161 0.931 . S
H189 C163 0.929 . S
H190 C164 0.930 . S
H191 C165 0.931 . S
H192 C172 0.932 . S
H193 C173 0.930 . S
H194 C174 0.929 . S
H195 C176 0.930 . S
H196 C178 0.932 . S
H197 C179 0.929 . S
H198 C180 0.928 . S
H199 C182 0.932 . S
C200 C201 1.264 . S
C200 C205 1.479 . S
C200 C210 1.465 . S
C201 C200 1.264 . S
C201 C203 1.339 . S
C201 H228 0.931 . S
C202 C203 1.395 . S
C202 C204 1.320 . S
C203 C201 1.339 . S
C203 C202 1.395 . S
C203 H229 0.929 . S
C204 C202 1.320 . S
C204 C205 1.405 . S
C204 H230 0.930 . S
C205 C200 1.479 . S
C205 C204 1.405 . S
C205 H231 0.931 . S
U206 O207 2.454 1_565 S
U206 O208 2.458 1_565 S
U206 C209 2.984 1_565 S
U206 C210 2.847 . S
U206 C223 2.882 . S
U206 O224 2.441 . S
U206 O225 2.420 . S
U206 O226 2.455 . S
U206 O227 2.449 . S
O207 U206 2.454 1_545 S
O207 C209 1.353 . S
O208 U206 2.458 1_545 S
O208 C209 1.286 . S
C209 U206 2.984 1_545 S
C209 O207 1.353 . S
C209 O208 1.286 . S
C209 C211 1.363 . S
C210 C200 1.465 . S
C210 U206 2.847 . S
C210 O224 1.249 . S
C210 O225 1.202 . S
C211 C209 1.363 . S
C211 C213 1.408 . S
C211 C216 1.342 . S
C212 C213 1.310 . S
C212 C215 1.461 . S
C212 H232 0.932 . S
C213 C211 1.408 . S
C213 C212 1.310 . S
C213 H233 0.930 . S
C214 C215 1.474 . S
C214 C216 1.285 . S
C214 H234 0.929 . S
C215 C212 1.461 . S
C215 C214 1.474 . S
C216 C211 1.342 . S
C216 C214 1.285 . S
C216 H235 0.930 . S
C217 C220 1.424 . S
C217 C222 1.245 . S
C217 C223 1.428 . S
C218 C221 1.260 . S
C218 C222 1.477 . S
C218 H236 0.932 . S
C219 C220 1.384 . S
C219 C221 1.479 . S
C219 H237 0.929 . S
C220 C217 1.424 . S
C220 C219 1.384 . S
C220 H238 0.928 . S
C221 C218 1.260 . S
C221 C219 1.479 . S
C222 C217 1.245 . S
C222 C218 1.477 . S
C222 H239 0.932 . S
C223 U206 2.882 . S
C223 C217 1.428 . S
C223 O226 1.301 . S
C223 O227 1.282 . S
O224 U206 2.441 . S
O224 C210 1.249 . S
O225 U206 2.420 . S
O225 C210 1.202 . S
O226 U206 2.455 . S
O226 C223 1.301 . S
O227 U206 2.449 . S
O227 C223 1.282 . S
H228 C201 0.931 . S
H229 C203 0.929 . S
H230 C204 0.930 . S
H231 C205 0.931 . S
H232 C212 0.932 . S
H233 C213 0.930 . S
H234 C214 0.929 . S
H235 C216 0.930 . S
H236 C218 0.932 . S
H237 C219 0.929 . S
H238 C220 0.928 . S
H239 C222 0.932 . S
C240 C241 1.264 . S
C240 C245 1.479 . S
C240 C250 1.465 . S
C241 C240 1.264 . S
C241 C243 1.339 . S
C241 H268 0.931 . S
C242 C243 1.395 . S
C242 C244 1.320 . S
C243 C241 1.339 . S
C243 C242 1.395 . S
C243 H269 0.929 . S
C244 C242 1.320 . S
C244 C245 1.405 . S
C244 H270 0.930 . S
C245 C240 1.479 . S
C245 C244 1.405 . S
C245 H271 0.931 . S
U246 O247 2.454 1_455 S
U246 O248 2.458 1_455 S
U246 C249 2.984 1_455 S
U246 C250 2.847 . S
U246 C263 2.882 . S
U246 O264 2.441 . S
U246 O265 2.420 . S
U246 O266 2.455 . S
U246 O267 2.449 . S
O247 U246 2.454 1_655 S
O247 C249 1.353 . S
O248 U246 2.458 1_655 S
O248 C249 1.286 . S
C249 U246 2.984 1_655 S
C249 O247 1.353 . S
C249 O248 1.286 . S
C249 C251 1.363 . S
C250 C240 1.465 . S
C250 U246 2.847 . S
C250 O264 1.249 . S
C250 O265 1.202 . S
C251 C249 1.363 . S
C251 C253 1.408 . S
C251 C256 1.342 . S
C252 C253 1.310 . S
C252 C255 1.461 . S
C252 H272 0.932 . S
C253 C251 1.408 . S
C253 C252 1.310 . S
C253 H273 0.930 . S
C254 C255 1.474 . S
C254 C256 1.285 . S
C254 H274 0.929 . S
C255 C252 1.461 . S
C255 C254 1.474 . S
C256 C251 1.342 . S
C256 C254 1.285 . S
C256 H275 0.930 . S
C257 C260 1.424 . S
C257 C262 1.245 . S
C257 C263 1.428 . S
C258 C261 1.260 . S
C258 C262 1.477 . S
C258 H276 0.932 . S
C259 C260 1.384 . S
C259 C261 1.479 . S
C259 H277 0.929 . S
C260 C257 1.424 . S
C260 C259 1.384 . S
C260 H278 0.928 . S
C261 C258 1.260 . S
C261 C259 1.479 . S
C262 C257 1.245 . S
C262 C258 1.477 . S
C262 H279 0.932 . S
C263 U246 2.882 . S
C263 C257 1.428 . S
C263 O266 1.301 . S
C263 O267 1.282 . S
O264 U246 2.441 . S
O264 C250 1.249 . S
O265 U246 2.420 . S
O265 C250 1.202 . S
O266 U246 2.455 . S
O266 C263 1.301 . S
O267 U246 2.449 . S
O267 C263 1.282 . S
H268 C241 0.931 . S
H269 C243 0.929 . S
H270 C244 0.930 . S
H271 C245 0.931 . S
H272 C252 0.932 . S
H273 C253 0.930 . S
H274 C254 0.929 . S
H275 C256 0.930 . S
H276 C258 0.932 . S
H277 C259 0.929 . S
H278 C260 0.928 . S
H279 C262 0.932 . S
C280 C281 1.264 . S
C280 C285 1.479 . S
C280 C290 1.465 . S
C281 C280 1.264 . S
C281 C283 1.339 . S
C281 H308 0.931 . S
C282 C283 1.395 . S
C282 C284 1.320 . S
C283 C281 1.339 . S
C283 C282 1.395 . S
C283 H309 0.929 . S
C284 C282 1.320 . S
C284 C285 1.405 . S
C284 H310 0.930 . S
C285 C280 1.479 . S
C285 C284 1.405 . S
C285 H311 0.931 . S
U286 O287 2.454 1_545 S
U286 O288 2.458 1_544 S
U286 C289 2.984 1_544 S
U286 C290 2.847 . S
U286 C303 2.882 . S
U286 O304 2.441 . S
U286 O305 2.420 . S
U286 O306 2.455 1_554 S
U286 O307 2.449 . S
O287 U286 2.454 1_565 S
O287 C289 1.353 1_554 S
O288 U286 2.458 1_566 S
O288 C289 1.286 . S
C289 U286 2.984 1_566 S
C289 O287 1.353 1_556 S
C289 O288 1.286 . S
C289 C291 1.363 . S
C290 C280 1.465 . S
C290 U286 2.847 . S
C290 O304 1.249 . S
C290 O305 1.202 . S
C291 C289 1.363 . S
C291 C293 1.408 . S
C291 C296 1.342 . S
C292 C293 1.310 . S
C292 C295 1.461 . S
C292 H312 0.932 . S
C293 C291 1.408 . S
C293 C292 1.310 . S
C293 H313 0.973 . S
C294 C295 1.474 . S
C294 C296 1.285 . S
C294 H314 0.929 . S
C295 C292 1.461 . S
C295 C294 1.474 . S
C296 C291 1.342 . S
C296 C294 1.285 . S
C296 H315 0.930 . S
C297 C300 1.424 . S
C297 C302 1.245 1_554 S
C297 C303 1.428 . S
C298 C301 1.260 . S
C298 C302 1.477 . S
C298 H316 0.932 . S
C299 C300 1.384 . S
C299 C301 1.479 1_554 S
C299 H317 0.929 . S
C300 C297 1.424 . S
C300 C299 1.384 . S
C300 H318 0.928 . S
C301 C298 1.260 . S
C301 C299 1.479 1_556 S
C302 C297 1.245 1_556 S
C302 C298 1.477 . S
C302 H319 0.932 . S
C303 U286 2.882 . S
C303 C297 1.428 . S
C303 O306 1.301 1_554 S
C303 O307 1.282 . S
O304 U286 2.441 . S
O304 C290 1.249 . S
O305 U286 2.420 . S
O305 C290 1.202 . S
O306 U286 2.455 1_556 S
O306 C303 1.301 1_556 S
O307 U286 2.449 . S
O307 C303 1.282 . S
H308 C281 0.931 . S
H309 C283 0.929 . S
H310 C284 0.930 . S
H311 C285 0.931 . S
H312 C292 0.932 . S
H313 C293 0.973 . S
H314 C294 0.929 . S
H315 C296 0.930 . S
H316 C298 0.932 . S
H317 C299 0.929 . S
H318 C300 0.928 . S
H319 C302 0.932 . S
H320 C326 0.930 . S
H321 C330 0.930 1_455 S
H322 C335 0.929 1_455 S
H323 C333 0.929 . S
H324 C328 0.929 1_455 S
H325 C334 0.929 . S
C326 H320 0.930 . S
C326 C327 1.367 . S
C326 C334 1.378 . S
C327 C326 1.367 . S
C327 C335 1.433 . S
C328 H324 0.929 1_655 S
C328 C330 1.378 . S
C328 C332 1.350 . S
C329 C332 1.463 . S
C329 C334 1.350 . S
C329 N337 1.427 . S
C330 H321 0.930 1_655 S
C330 C328 1.378 . S
C330 C331 1.367 . S
C331 C330 1.367 . S
C331 C333 1.433 . S
C332 C328 1.350 . S
C332 C329 1.463 . S
C332 N336 1.427 . S
C333 H323 0.929 . S
C333 C331 1.433 . S
C333 N336 1.384 . S
C334 H325 0.929 . S
C334 C326 1.378 . S
C334 C329 1.350 . S
C335 H322 0.929 1_655 S
C335 C327 1.433 . S
C335 N337 1.384 . S
N336 C332 1.427 . S
N336 C333 1.384 . S
N337 C329 1.427 . S
N337 C335 1.384 . S
H338 C344 0.930 1_545 S
H339 C348 0.930 . S
H340 C353 0.929 . S
H341 C351 0.929 1_545 S
H342 C346 0.929 . S
H343 C352 0.929 1_545 S
C344 H338 0.930 1_565 S
C344 C345 1.367 . S
C344 C352 1.378 . S
C345 C344 1.367 . S
C345 C353 1.433 . S
C346 H342 0.929 . S
C346 C348 1.378 . S
C346 C350 1.350 . S
C347 C350 1.463 . S
C347 C352 1.350 . S
C347 N355 1.427 . S
C348 H339 0.930 . S
C348 C346 1.378 . S
C348 C349 1.367 . S
C349 C348 1.367 . S
C349 C351 1.433 . S
C350 C346 1.350 . S
C350 C347 1.463 . S
C350 N354 1.427 . S
C351 H341 0.929 1_565 S
C351 C349 1.433 . S
C351 N354 1.384 . S
C352 H343 0.929 1_565 S
C352 C344 1.378 . S
C352 C347 1.350 . S
C353 H340 0.929 . S
C353 C345 1.433 . S
C353 N355 1.384 . S
N354 C350 1.427 . S
N354 C351 1.384 . S
N355 C347 1.427 . S
N355 C353 1.384 . S
H356 C362 0.930 . S
H357 C366 0.930 . S
H358 C371 0.929 . S
H359 C369 0.929 . S
H360 C364 0.929 . S
H361 C370 0.929 . S
C362 H356 0.930 . S
C362 C363 1.367 . S
C362 C370 1.378 . S
C363 C362 1.367 . S
C363 C371 1.433 . S
C364 H360 0.929 . S
C364 C366 1.378 . S
C364 C368 1.350 . S
C365 C368 1.463 . S
C365 C370 1.350 . S
C365 N373 1.427 . S
C366 H357 0.930 . S
C366 C364 1.378 . S
C366 C367 1.367 . S
C367 C366 1.367 . S
C367 C369 1.433 . S
C368 C364 1.350 . S
C368 C365 1.463 . S
C368 N372 1.427 . S
C369 H359 0.929 . S
C369 C367 1.433 . S
C369 N372 1.384 . S
C370 H361 0.929 . S
C370 C362 1.378 . S
C370 C365 1.350 . S
C371 H358 0.929 . S
C371 C363 1.433 . S
C371 N373 1.384 . S
N372 C368 1.427 . S
N372 C369 1.384 . S
N373 C365 1.427 . S
N373 C371 1.384 . S
H374 C380 0.930 . S
H375 C384 0.930 1_565 S
H376 C389 0.929 1_565 S
H377 C387 0.929 . S
H378 C382 0.929 1_565 S
H379 C388 0.929 . S
C380 H374 0.930 . S
C380 C381 1.367 . S
C380 C388 1.378 . S
C381 C380 1.367 . S
C381 C389 1.433 . S
C382 H378 0.929 1_545 S
C382 C384 1.378 . S
C382 C386 1.350 . S
C383 C386 1.463 1_556 S
C383 C388 1.350 . S
C383 N391 1.427 . S
C384 H375 0.930 1_545 S
C384 C382 1.378 . S
C384 C385 1.367 . S
C385 C384 1.367 . S
C385 C387 1.433 . S
C386 C382 1.350 . S
C386 C383 1.463 1_554 S
C386 N390 1.427 . S
C387 H377 0.929 . S
C387 C385 1.433 . S
C387 N390 1.384 . S
C388 H379 0.929 . S
C388 C380 1.378 . S
C388 C383 1.350 . S
C389 H376 0.929 1_545 S
C389 C381 1.433 . S
C389 N391 1.384 . S
N390 C386 1.427 . S
N390 C387 1.384 . S
N391 C383 1.427 . S
N391 C389 1.384 . S
H392 C398 0.930 . S
H393 C402 0.930 . S
H394 C407 0.929 . S
H395 C405 0.929 . S
H396 C400 0.929 . S
H397 C406 0.929 . S
C398 H392 0.930 . S
C398 C399 1.367 . S
C398 C406 1.378 . S
C399 C398 1.367 . S
C399 C407 1.433 . S
C400 H396 0.929 . S
C400 C402 1.378 . S
C400 C404 1.350 . S
C401 C404 1.463 . S
C401 C406 1.350 . S
C401 N409 1.427 . S
C402 H393 0.930 . S
C402 C400 1.378 . S
C402 C403 1.367 . S
C403 C402 1.367 . S
C403 C405 1.433 . S
C404 C400 1.350 . S
C404 C401 1.463 . S
C404 N408 1.427 . S
C405 H395 0.929 . S
C405 C403 1.433 . S
C405 N408 1.384 . S
C406 H397 0.929 . S
C406 C398 1.378 . S
C406 C401 1.350 . S
C407 H394 0.929 . S
C407 C399 1.433 . S
C407 N409 1.384 . S
N408 C404 1.427 . S
N408 C405 1.384 . S
N409 C401 1.427 . S
N409 C407 1.384 . S
H410 C416 0.930 . S
H411 C420 0.930 . S
H412 C425 0.929 . S
H413 C423 0.929 . S
H414 C418 0.929 . S
H415 C424 0.929 . S
C416 H410 0.930 . S
C416 C417 1.367 . S
C416 C424 1.378 . S
C417 C416 1.367 . S
C417 C425 1.433 . S
C418 H414 0.929 . S
C418 C420 1.378 . S
C418 C422 1.350 . S
C419 C422 1.463 . S
C419 C424 1.350 . S
C419 N427 1.427 . S
C420 H411 0.930 . S
C420 C418 1.378 . S
C420 C421 1.367 . S
C421 C420 1.367 . S
C421 C423 1.433 . S
C422 C418 1.350 . S
C422 C419 1.463 . S
C422 N426 1.427 . S
C423 H413 0.929 . S
C423 C421 1.433 . S
C423 N426 1.384 . S
C424 H415 0.929 . S
C424 C416 1.378 . S
C424 C419 1.350 . S
C425 H412 0.929 . S
C425 C417 1.433 . S
C425 N427 1.384 . S
N426 C422 1.427 . S
N426 C423 1.384 . S
N427 C419 1.427 . S
N427 C425 1.384 . S
H428 C434 0.930 . S
H429 C438 0.930 . S
H430 C443 0.929 . S
H431 C441 0.929 . S
H432 C436 0.929 . S
H433 C442 0.929 . S
C434 H428 0.930 . S
C434 C435 1.367 . S
C434 C442 1.378 . S
C435 C434 1.367 . S
C435 C443 1.433 . S
C436 H432 0.929 . S
C436 C438 1.378 . S
C436 C440 1.350 . S
C437 C440 1.463 . S
C437 C442 1.350 . S
C437 N445 1.427 . S
C438 H429 0.930 . S
C438 C436 1.378 . S
C438 C439 1.367 . S
C439 C438 1.367 . S
C439 C441 1.433 . S
C440 C436 1.350 . S
C440 C437 1.463 . S
C440 N444 1.427 . S
C441 H431 0.929 . S
C441 C439 1.433 . S
C441 N444 1.384 . S
C442 H433 0.929 . S
C442 C434 1.378 . S
C442 C437 1.350 . S
C443 H430 0.929 . S
C443 C435 1.433 . S
C443 N445 1.384 . S
N444 C440 1.427 . S
N444 C441 1.384 . S
N445 C437 1.427 . S
N445 C443 1.384 . S
H446 C452 0.930 . S
H447 C456 0.930 . S
H448 C461 0.929 . S
H449 C459 0.929 . S
H450 C454 0.929 . S
H451 C460 0.929 . S
C452 H446 0.930 . S
C452 C453 1.367 . S
C452 C460 1.378 . S
C453 C452 1.367 . S
C453 C461 1.433 . S
C454 H450 0.929 . S
C454 C456 1.378 . S
C454 C458 1.350 . S
C455 C458 1.463 . S
C455 C460 1.350 . S
C455 N463 1.427 . S
C456 H447 0.930 . S
C456 C454 1.378 . S
C456 C457 1.367 . S
C457 C456 1.367 . S
C457 C459 1.433 . S
C458 C454 1.350 . S
C458 C455 1.463 . S
C458 N462 1.427 . S
C459 H449 0.929 . S
C459 C457 1.433 . S
C459 N462 1.384 . S
C460 H451 0.929 . S
C460 C452 1.378 . S
C460 C455 1.350 . S
C461 H448 0.929 . S
C461 C453 1.433 . S
C461 N463 1.384 . S
N462 C458 1.427 . S
N462 C459 1.384 . S
N463 C455 1.427 . S
N463 C461 1.384 . S
H464 C470 0.930 . S
H465 C474 0.930 . S
H466 C479 0.929 . S
H467 C477 0.929 . S
H468 C472 0.931 . S
H469 C478 0.935 . S
C470 H464 0.930 . S
C470 C471 1.367 . S
C470 C478 1.373 1_655 S
C471 C470 1.367 . S
C471 C479 1.433 . S
C472 H468 0.931 . S
C472 C474 1.376 1_655 S
C472 C476 1.349 1_655 S
C473 C476 1.463 1_654 S
C473 C478 1.348 1_655 S
C473 N481 1.427 . S
C474 H465 0.930 . S
C474 C472 1.376 1_455 S
C474 C475 1.367 . S
C475 C474 1.367 . S
C475 C477 1.433 . S
C476 C472 1.349 1_455 S
C476 C473 1.463 1_456 S
C476 N480 1.427 . S
C477 H467 0.929 . S
C477 C475 1.433 . S
C477 N480 1.384 . S
C478 H469 0.935 . S
C478 C470 1.373 1_455 S
C478 C473 1.348 1_455 S
C479 H466 0.929 . S
C479 C471 1.433 . S
C479 N481 1.384 . S
N480 C476 1.427 . S
N480 C477 1.384 . S
N481 C473 1.427 . S
N481 C479 1.384 . S
H482 C488 0.928 1_545 S
H483 C492 0.931 1_565 S
H484 C497 0.929 . S
H485 C495 0.929 . S
H486 C490 0.929 . S
H487 C496 0.929 . S
C488 H482 0.928 1_565 S
C488 C489 1.367 . S
C488 C496 1.378 1_565 S
C489 C488 1.367 . S
C489 C497 1.433 . S
C490 H486 0.929 . S
C490 C492 1.378 1_565 S
C490 C494 1.350 1_565 S
C491 C494 1.463 1_565 S
C491 C496 1.350 1_565 S
C491 N499 1.427 . S
C492 H483 0.931 1_545 S
C492 C490 1.378 1_545 S
C492 C493 1.367 . S
C493 C492 1.367 . S
C493 C495 1.433 . S
C494 C490 1.350 1_545 S
C494 C491 1.463 1_545 S
C494 N498 1.427 . S
C495 H485 0.929 . S
C495 C493 1.433 . S
C495 N498 1.384 . S
C496 H487 0.929 . S
C496 C488 1.378 1_545 S
C496 C491 1.350 1_545 S
C497 H484 0.929 . S
C497 C489 1.433 . S
C497 N499 1.384 . S
N498 C494 1.427 . S
N498 C495 1.384 . S
N499 C491 1.427 . S
N499 C497 1.384 . S
H500 C506 0.930 . S
H501 C510 0.930 . S
H502 C515 0.929 . S
H503 C513 0.929 . S
H504 C508 0.929 . S
H505 C514 0.929 . S
C506 H500 0.930 . S
C506 C507 1.367 . S
C506 C514 1.378 . S
C507 C506 1.367 . S
C507 C515 1.433 . S
C508 H504 0.929 . S
C508 C510 1.378 . S
C508 C512 1.350 . S
C509 C512 1.463 1_455 S
C509 C514 1.350 . S
C509 N517 1.427 . S
C510 H501 0.930 . S
C510 C508 1.378 . S
C510 C511 1.367 . S
C511 C510 1.367 . S
C511 C513 1.433 . S
C512 C508 1.350 . S
C512 C509 1.463 1_655 S
C512 N516 1.427 . S
C513 H503 0.929 . S
C513 C511 1.433 . S
C513 N516 1.384 . S
C514 H505 0.929 . S
C514 C506 1.378 . S
C514 C509 1.350 . S
C515 H502 0.929 . S
C515 C507 1.433 . S
C515 N517 1.384 . S
N516 C512 1.427 . S
N516 C513 1.384 . S
N517 C509 1.427 . S
N517 C515 1.384 . S
H518 C524 0.930 . S
H519 C528 0.930 . S
H520 C533 0.929 . S
H521 C531 0.929 . S
H522 C526 0.929 . S
H523 C532 0.929 . S
C524 H518 0.930 . S
C524 C525 1.367 . S
C524 C532 1.378 . S
C525 C524 1.367 . S
C525 C533 1.433 . S
C526 H522 0.929 . S
C526 C528 1.378 . S
C526 C530 1.350 . S
C527 C530 1.463 1_545 S
C527 C532 1.350 . S
C527 N535 1.427 . S
C528 H519 0.930 . S
C528 C526 1.378 . S
C528 C529 1.367 . S
C529 C528 1.367 . S
C529 C531 1.433 . S
C530 C526 1.350 . S
C530 C527 1.463 1_565 S
C530 N534 1.427 . S
C531 H521 0.929 . S
C531 C529 1.433 . S
C531 N534 1.384 . S
C532 H523 0.929 . S
C532 C524 1.378 . S
C532 C527 1.350 . S
C533 H520 0.929 . S
C533 C525 1.433 . S
C533 N535 1.384 . S
N534 C530 1.427 . S
N534 C531 1.384 . S
N535 C527 1.427 . S
N535 C533 1.384 . S
C327 C21 1.917 . S
C331 C181 1.918 . S
C345 C61 1.917 . S
C349 C221 1.916 . S
C363 C101 1.915 . S
C367 C261 1.915 . S
C381 C301 1.918 . S
C385 C141 1.920 . S
C399 C15 1.887 . S
C403 C215 1.877 . S
C417 C55 1.882 . S
C421 C255 1.881 . S
C435 C95 1.885 . S
C439 C295 1.879 . S
C453 C135 1.882 . S
C457 C175 1.882 . S
C471 C2 1.591 . S
C475 C242 1.591 . S
C489 C42 1.592 . S
C493 C282 1.589 . S
C507 C82 1.594 . S
C511 C162 1.591 . S
C525 C122 1.595 . S
C529 C202 1.591 . S
