# Generated by pormake.
# Topology whh, (6)-cn, num edge types: 1
# Building blocks:
#     Node 0, Type 0, BuildingBlock: KUMBOL_clean_sbu_1, # of connection points: 6
#     Node 1, Type 0, BuildingBlock: KUMBOL_clean_sbu_1, # of connection points: 6
#     Node 2, Type 0, BuildingBlock: KUMBOL_clean_sbu_1, # of connection points: 6
#     Node 3, Type 0, BuildingBlock: KUMBOL_clean_sbu_1, # of connection points: 6
#     Node 4, Type 0, BuildingBlock: KUMBOL_clean_sbu_1, # of connection points: 6
#     Node 5, Type 0, BuildingBlock: KUMBOL_clean_sbu_1, # of connection points: 6
#     Node 6, Type 0, BuildingBlock: KUMBOL_clean_sbu_1, # of connection points: 6
#     Node 7, Type 0, BuildingBlock: KUMBOL_clean_sbu_1, # of connection points: 6
#     Node 8, Type 0, BuildingBlock: KUMBOL_clean_sbu_1, # of connection points: 6
#     Node 9, Type 0, BuildingBlock: KUMBOL_clean_sbu_1, # of connection points: 6
#     Node 10, Type 0, BuildingBlock: KUMBOL_clean_sbu_1, # of connection points: 6
#     Node 11, Type 0, BuildingBlock: KUMBOL_clean_sbu_1, # of connection points: 6
#     Node 12, Type 0, BuildingBlock: KUMBOL_clean_sbu_1, # of connection points: 6
#     Node 13, Type 0, BuildingBlock: KUMBOL_clean_sbu_1, # of connection points: 6
#     Node 14, Type 0, BuildingBlock: KUMBOL_clean_sbu_1, # of connection points: 6
#     Node 15, Type 0, BuildingBlock: KUMBOL_clean_sbu_1, # of connection points: 6
#     Edge 16, Type (0, 0), BuildingBlock: ZUJKAS_clean_linker_0, # of connection points: 2
#     Edge 17, Type (0, 0), BuildingBlock: ZUJKAS_clean_linker_0, # of connection points: 2
#     Edge 18, Type (0, 0), BuildingBlock: ZUJKAS_clean_linker_0, # of connection points: 2
#     Edge 19, Type (0, 0), BuildingBlock: ZUJKAS_clean_linker_0, # of connection points: 2
#     Edge 20, Type (0, 0), BuildingBlock: ZUJKAS_clean_linker_0, # of connection points: 2
#     Edge 21, Type (0, 0), BuildingBlock: ZUJKAS_clean_linker_0, # of connection points: 2
#     Edge 22, Type (0, 0), BuildingBlock: ZUJKAS_clean_linker_0, # of connection points: 2
#     Edge 23, Type (0, 0), BuildingBlock: ZUJKAS_clean_linker_0, # of connection points: 2
#     Edge 24, Type (0, 0), BuildingBlock: ZUJKAS_clean_linker_0, # of connection points: 2
#     Edge 25, Type (0, 0), BuildingBlock: ZUJKAS_clean_linker_0, # of connection points: 2
#     Edge 26, Type (0, 0), BuildingBlock: ZUJKAS_clean_linker_0, # of connection points: 2
#     Edge 27, Type (0, 0), BuildingBlock: ZUJKAS_clean_linker_0, # of connection points: 2
#     Edge 28, Type (0, 0), BuildingBlock: ZUJKAS_clean_linker_0, # of connection points: 2
#     Edge 29, Type (0, 0), BuildingBlock: ZUJKAS_clean_linker_0, # of connection points: 2
#     Edge 30, Type (0, 0), BuildingBlock: ZUJKAS_clean_linker_0, # of connection points: 2
#     Edge 31, Type (0, 0), BuildingBlock: ZUJKAS_clean_linker_0, # of connection points: 2
#     Edge 32, Type (0, 0), BuildingBlock: ZUJKAS_clean_linker_0, # of connection points: 2
#     Edge 33, Type (0, 0), BuildingBlock: ZUJKAS_clean_linker_0, # of connection points: 2
#     Edge 34, Type (0, 0), BuildingBlock: ZUJKAS_clean_linker_0, # of connection points: 2
#     Edge 35, Type (0, 0), BuildingBlock: ZUJKAS_clean_linker_0, # of connection points: 2
#     Edge 36, Type (0, 0), BuildingBlock: ZUJKAS_clean_linker_0, # of connection points: 2
#     Edge 37, Type (0, 0), BuildingBlock: ZUJKAS_clean_linker_0, # of connection points: 2
#     Edge 38, Type (0, 0), BuildingBlock: ZUJKAS_clean_linker_0, # of connection points: 2
#     Edge 39, Type (0, 0), BuildingBlock: ZUJKAS_clean_linker_0, # of connection points: 2
#     Edge 40, Type (0, 0), BuildingBlock: ZUJKAS_clean_linker_0, # of connection points: 2
#     Edge 41, Type (0, 0), BuildingBlock: ZUJKAS_clean_linker_0, # of connection points: 2
#     Edge 42, Type (0, 0), BuildingBlock: ZUJKAS_clean_linker_0, # of connection points: 2
#     Edge 43, Type (0, 0), BuildingBlock: ZUJKAS_clean_linker_0, # of connection points: 2
#     Edge 44, Type (0, 0), BuildingBlock: ZUJKAS_clean_linker_0, # of connection points: 2
#     Edge 45, Type (0, 0), BuildingBlock: ZUJKAS_clean_linker_0, # of connection points: 2
#     Edge 46, Type (0, 0), BuildingBlock: ZUJKAS_clean_linker_0, # of connection points: 2
#     Edge 47, Type (0, 0), BuildingBlock: ZUJKAS_clean_linker_0, # of connection points: 2
#     Edge 48, Type (0, 0), BuildingBlock: ZUJKAS_clean_linker_0, # of connection points: 2
#     Edge 49, Type (0, 0), BuildingBlock: ZUJKAS_clean_linker_0, # of connection points: 2
#     Edge 50, Type (0, 0), BuildingBlock: ZUJKAS_clean_linker_0, # of connection points: 2
#     Edge 51, Type (0, 0), BuildingBlock: ZUJKAS_clean_linker_0, # of connection points: 2
#     Edge 52, Type (0, 0), BuildingBlock: ZUJKAS_clean_linker_0, # of connection points: 2
#     Edge 53, Type (0, 0), BuildingBlock: ZUJKAS_clean_linker_0, # of connection points: 2
#     Edge 54, Type (0, 0), BuildingBlock: ZUJKAS_clean_linker_0, # of connection points: 2
#     Edge 55, Type (0, 0), BuildingBlock: ZUJKAS_clean_linker_0, # of connection points: 2
#     Edge 56, Type (0, 0), BuildingBlock: ZUJKAS_clean_linker_0, # of connection points: 2
#     Edge 57, Type (0, 0), BuildingBlock: ZUJKAS_clean_linker_0, # of connection points: 2
#     Edge 58, Type (0, 0), BuildingBlock: ZUJKAS_clean_linker_0, # of connection points: 2
#     Edge 59, Type (0, 0), BuildingBlock: ZUJKAS_clean_linker_0, # of connection points: 2
#     Edge 60, Type (0, 0), BuildingBlock: ZUJKAS_clean_linker_0, # of connection points: 2
#     Edge 61, Type (0, 0), BuildingBlock: ZUJKAS_clean_linker_0, # of connection points: 2
#     Edge 62, Type (0, 0), BuildingBlock: ZUJKAS_clean_linker_0, # of connection points: 2
#     Edge 63, Type (0, 0), BuildingBlock: ZUJKAS_clean_linker_0, # of connection points: 2
# Relax obj value: 0.293
# Max RMSD: 0.290
# Mean RMSD: 0.289
data_MOF--net-whh--node1-KUMBOL_clean_sbu_1--edge1-ZUJKAS_clean_linker_0
_symmetry_space_group_name_H-M    P1
_symmetry_Int_Tables_number       1
_symmetry_cell_setting            triclinic
loop_
_symmetry_equiv_pos_as_xyz
'x, y, z'
_cell_length_a     55.233006
_cell_length_b     55.14328
_cell_length_c     53.766034
_cell_angle_alpha  90.303045
_cell_angle_beta   90.042915
_cell_angle_gamma 89.944695
loop_
_atom_site_label
_atom_site_type_symbol
_atom_site_fract_x
_atom_site_fract_y
_atom_site_fract_z
_atom_type_partial_charge
C0 C 0.95416 0.6666 0.12642 0.0
C1 C 0.94353 0.66959 0.08281 0.0
C2 C 0.95574 0.65783 0.10235 0.0
C3 C 0.92995 0.69058 0.08791 0.0
C4 C 0.93983 0.68709 0.13185 0.0
C5 C 0.92793 0.69919 0.11242 0.0
N6 N 0.96555 0.65426 0.14475 0.0
C7 C 0.9618 0.6601 0.16908 0.0
C8 C 0.93735 0.69435 0.15672 0.0
C9 C 0.9481 0.68055 0.17547 0.0
Gd10 Gd 0.06758 0.61567 0.12496 0.0
Gd11 Gd 0.98893 0.621 0.13244 0.0
N12 N 0.96874 0.63736 0.09815 0.0
C13 C 0.94507 0.65966 0.05883 0.0
C14 C 0.96963 0.62704 0.07505 0.0
C15 C 0.95803 0.63817 0.05498 0.0
H16 H 0.97962 0.61046 0.07202 0.0
H17 H 0.95907 0.63018 0.03658 0.0
H18 H 0.08143 0.62687 0.18535 0.0
H19 H 0.96908 0.64873 0.18355 0.0
H20 H 0.10534 0.60779 0.21858 0.0
H21 H 0.93603 0.66821 0.04328 0.0
H22 H 0.92055 0.7 0.07314 0.0
H23 H 0.07216 0.57861 0.07559 0.0
H24 H 0.92657 0.71007 0.16168 0.0
H25 H 0.94556 0.68544 0.19481 0.0
H26 H 0.13784 0.5358 0.18072 0.0
H27 H 0.9169 0.71504 0.11618 0.0
H28 H 0.11608 0.51807 0.09627 0.0
H29 H 0.09135 0.53951 0.06491 0.0
N30 N 0.08376 0.57807 0.1132 0.0
C31 C 0.09839 0.5673 0.13035 0.0
C32 C 0.08178 0.56878 0.08975 0.0
C33 C 0.10725 0.53498 0.1012 0.0
C34 C 0.09315 0.54693 0.0835 0.0
C35 C 0.11019 0.54522 0.1249 0.0
H36 H 0.13371 0.51711 0.13931 0.0
N37 N 0.08897 0.59919 0.1587 0.0
C38 C 0.10115 0.57817 0.1537 0.0
C39 C 0.11661 0.57761 0.19575 0.0
C40 C 0.11516 0.56677 0.1722 0.0
C41 C 0.09053 0.60996 0.18155 0.0
C42 C 0.10425 0.59927 0.20043 0.0
O43 O 0.00907 0.64365 0.10424 0.0
O44 O 0.04749 0.65147 0.12009 0.0
O45 O 0.10134 0.63468 0.13019 0.0
O46 O 0.09019 0.62284 0.09267 0.0
O47 O 0.00446 0.59174 0.10779 0.0
O48 O 0.04088 0.60763 0.09337 0.0
O49 O 0.05381 0.58401 0.14654 0.0
O50 O 0.02433 0.60805 0.14143 0.0
O51 O 0.96352 0.59127 0.12549 0.0
O52 O 0.97044 0.60381 0.16294 0.0
O53 O 0.05287 0.64175 0.15518 0.0
O54 O 0.0103 0.64088 0.16326 0.0
C55 C 0.02675 0.65869 0.11013 0.0
C56 C 0.02367 0.59094 0.09318 0.0
C57 C 0.12898 0.64308 0.09668 0.0
C58 C 0.16313 0.67 0.10147 0.0
C59 C 0.1605 0.6437 0.06533 0.0
C60 C 0.13858 0.63453 0.0741 0.0
C61 C 0.17274 0.66149 0.07891 0.0
C62 C 0.14143 0.6607 0.11042 0.0
C63 C 0.10668 0.63294 0.10666 0.0
C64 C 0.12693 0.54478 0.16676 0.0
C65 C 0.12452 0.53409 0.14318 0.0
H66 H 0.12715 0.56937 0.21048 0.0
C67 C 0.03167 0.58807 0.15127 0.0
C68 C 0.03301 0.64829 0.16793 0.0
C69 C 0.93224 0.58503 0.15566 0.0
C70 C 0.89477 0.56148 0.15156 0.0
C71 C 0.89912 0.59119 0.18481 0.0
C72 C 0.92228 0.59693 0.17649 0.0
C73 C 0.88553 0.57352 0.1726 0.0
C74 C 0.91818 0.5674 0.14299 0.0
C75 C 0.95796 0.58909 0.14891 0.0
H76 H 0.16804 0.63697 0.04804 0.0
H77 H 0.12935 0.62057 0.06349 0.0
H78 H 0.18975 0.66853 0.07197 0.0
H79 H 0.13424 0.66736 0.12795 0.0
H80 H 0.89172 0.60037 0.20095 0.0
H81 H 0.93252 0.61042 0.18673 0.0
H82 H 0.86752 0.56949 0.1794 0.0
H83 H 0.9256 0.55792 0.12701 0.0
C84 C 0.83651 0.95631 0.1237 0.0
C85 C 0.83133 0.94736 0.07982 0.0
C86 C 0.84456 0.95805 0.09941 0.0
C87 C 0.80934 0.93565 0.08502 0.0
C88 C 0.81513 0.94352 0.12919 0.0
C89 C 0.80124 0.93374 0.10966 0.0
N90 N 0.8502 0.9662 0.14205 0.0
C91 C 0.84509 0.9618 0.16643 0.0
C92 C 0.80874 0.94043 0.15418 0.0
C93 C 0.82408 0.94916 0.17289 0.0
Gd94 Gd 0.8853 0.06898 0.12456 0.0
Gd95 Gd 0.88313 0.98956 0.1291 0.0
N96 N 0.86556 0.96997 0.09499 0.0
C97 C 0.84062 0.94889 0.05563 0.0
C98 C 0.8752 0.97088 0.07167 0.0
C99 C 0.86278 0.96048 0.05158 0.0
H100 H 0.89212 0.98022 0.06855 0.0
H101 H 0.87019 0.96159 0.03299 0.0
H102 H 0.87561 0.08758 0.18299 0.0
H103 H 0.85691 0.96858 0.18092 0.0
H104 H 0.89651 0.11173 0.21539 0.0
H105 H 0.83095 0.94102 0.04002 0.0
H106 H 0.79865 0.92769 0.07017 0.0
H107 H 0.91762 0.07609 0.07186 0.0
H108 H 0.79243 0.93073 0.15922 0.0
H109 H 0.81967 0.94629 0.19226 0.0
H110 H 0.96875 0.13962 0.17496 0.0
H111 H 0.7845 0.92423 0.11346 0.0
H112 H 0.98097 0.11723 0.08961 0.0
H113 H 0.95647 0.09409 0.05913 0.0
N114 N 0.92119 0.0867 0.10975 0.0
C115 C 0.93354 0.10076 0.12635 0.0
C116 C 0.92863 0.08514 0.08561 0.0
C117 C 0.96412 0.10896 0.09542 0.0
C118 C 0.95041 0.09581 0.0782 0.0
C119 C 0.95557 0.11192 0.11974 0.0
H120 H 0.98524 0.13437 0.13277 0.0
N121 N 0.90287 0.09296 0.15592 0.0
C122 C 0.92402 0.10419 0.15004 0.0
C123 C 0.92658 0.12075 0.19167 0.0
C124 C 0.93659 0.11817 0.16787 0.0
C125 C 0.89274 0.09588 0.17884 0.0
C126 C 0.90449 0.10967 0.19712 0.0
O127 O 0.85993 0.00992 0.10144 0.0
O128 O 0.85121 0.04673 0.12036 0.0
O129 O 0.86149 0.09944 0.13112 0.0
O130 O 0.87319 0.09072 0.09347 0.0
O131 O 0.91221 0.00654 0.1055 0.0
O132 O 0.89561 0.04313 0.09227 0.0
O133 O 0.91576 0.05637 0.14874 0.0
O134 O 0.89515 0.02532 0.13862 0.0
O135 O 0.91143 0.96287 0.12078 0.0
O136 O 0.90258 0.97213 0.15883 0.0
O137 O 0.86192 0.05256 0.15634 0.0
O138 O 0.8626 0.00932 0.16037 0.0
C139 C 0.84449 0.0269 0.10842 0.0
C140 C 0.91294 0.02641 0.09188 0.0
C141 C 0.86092 0.13132 0.10215 0.0
C142 C 0.83974 0.16969 0.10578 0.0
C143 C 0.87417 0.16589 0.07803 0.0
C144 C 0.87693 0.14162 0.0849 0.0
C145 C 0.85544 0.17984 0.08818 0.0
C146 C 0.84266 0.14556 0.11282 0.0
C147 C 0.86086 0.10539 0.10774 0.0
C148 C 0.95877 0.12889 0.16148 0.0
C149 C 0.9682 0.12582 0.13747 0.0
H150 H 0.93572 0.13129 0.20591 0.0
C151 C 0.91358 0.03349 0.15083 0.0
C152 C 0.85563 0.03164 0.16731 0.0
C153 C 0.92057 0.93332 0.15207 0.0
C154 C 0.94382 0.89555 0.1481 0.0
C155 C 0.91794 0.90234 0.184 0.0
C156 C 0.91112 0.92488 0.17473 0.0
C157 C 0.93426 0.88786 0.17092 0.0
C158 C 0.93681 0.91833 0.13858 0.0
C159 C 0.91577 0.95863 0.14418 0.0
H160 H 0.8863 0.17378 0.06452 0.0
H161 H 0.89116 0.13088 0.07641 0.0
H162 H 0.85323 0.19851 0.08242 0.0
H163 H 0.83005 0.13759 0.12592 0.0
H164 H 0.91068 0.89614 0.20154 0.0
H165 H 0.8988 0.93588 0.18566 0.0
H166 H 0.93923 0.87038 0.17852 0.0
H167 H 0.94446 0.92459 0.1212 0.0
C168 C 0.40841 0.92897 0.09068 0.0
C169 C 0.39998 0.91124 0.05005 0.0
C170 C 0.40979 0.90926 0.07416 0.0
C171 C 0.38816 0.93273 0.04301 0.0
C172 C 0.39695 0.95066 0.08343 0.0
C173 C 0.38662 0.95232 0.05964 0.0
N174 N 0.41901 0.92716 0.11348 0.0
C175 C 0.41803 0.94585 0.13017 0.0
C176 C 0.39626 0.97011 0.1003 0.0
C177 C 0.40684 0.96768 0.12376 0.0
Gd178 Gd 0.50696 0.88487 0.12988 0.0
Gd179 Gd 0.43182 0.8881 0.12313 0.0
N180 N 0.42195 0.88881 0.08113 0.0
C181 C 0.40302 0.89183 0.03344 0.0
C182 C 0.42496 0.86984 0.06513 0.0
C183 C 0.41569 0.87115 0.04095 0.0
H184 H 0.43407 0.85355 0.07106 0.0
H185 H 0.41807 0.8561 0.02819 0.0
H186 H 0.51062 0.90665 0.18811 0.0
H187 H 0.42505 0.94379 0.14874 0.0
H188 H 0.52861 0.89466 0.22852 0.0
H189 H 0.39587 0.89273 0.01469 0.0
H190 H 0.38044 0.93451 0.02458 0.0
H191 H 0.52782 0.84524 0.0879 0.0
H192 H 0.3875 0.98703 0.09546 0.0
H193 H 0.40601 0.98246 0.13706 0.0
H194 H 0.56842 0.81915 0.21076 0.0
H195 H 0.37763 0.96882 0.05381 0.0
H196 H 0.56779 0.79038 0.12642 0.0
H197 H 0.55131 0.80703 0.08724 0.0
N198 N 0.53009 0.84938 0.12714 0.0
C199 C 0.53995 0.84121 0.14868 0.0
C200 C 0.53466 0.83788 0.10513 0.0
C201 C 0.55739 0.80705 0.12684 0.0
C202 C 0.54809 0.81637 0.10468 0.0
C203 C 0.55371 0.81968 0.14917 0.0
H204 H 0.57402 0.79501 0.17254 0.0
N205 N 0.52317 0.87524 0.16906 0.0
C206 C 0.53678 0.85476 0.17019 0.0
C207 C 0.54409 0.8617 0.214 0.0
C208 C 0.54734 0.84723 0.19278 0.0
C209 C 0.52075 0.88997 0.18944 0.0
C210 C 0.53091 0.88326 0.21226 0.0
O211 O 0.45531 0.91332 0.09992 0.0
O212 O 0.48993 0.89148 0.09232 0.0
O213 O 0.53108 0.91547 0.139 0.0
O214 O 0.53598 0.89474 0.10531 0.0
O215 O 0.4485 0.85113 0.11547 0.0
O216 O 0.4874 0.86029 0.1028 0.0
O217 O 0.4862 0.86612 0.16146 0.0
O218 O 0.44499 0.86119 0.15185 0.0
O219 O 0.39744 0.87033 0.11634 0.0
O220 O 0.40077 0.89715 0.14577 0.0
O221 O 0.48273 0.91632 0.13783 0.0
O222 O 0.4477 0.9059 0.15684 0.0
C223 C 0.47543 0.90971 0.08735 0.0
C224 C 0.4704 0.84453 0.10828 0.0
C225 C 0.57122 0.91201 0.122 0.0
C226 C 0.60989 0.93351 0.11946 0.0
C227 C 0.60896 0.8895 0.11845 0.0
C228 C 0.58387 0.88988 0.12089 0.0
C229 C 0.62187 0.91113 0.11757 0.0
C230 C 0.58442 0.934 0.12164 0.0
C231 C 0.54454 0.9119 0.11942 0.0
C232 C 0.56049 0.82543 0.19351 0.0
C233 C 0.56362 0.81166 0.17176 0.0
H234 H 0.55179 0.85648 0.23173 0.0
C235 C 0.46444 0.8566 0.16544 0.0
C236 C 0.46813 0.91784 0.15676 0.0
C237 C 0.36971 0.86802 0.15007 0.0
C238 C 0.3422 0.83419 0.1554 0.0
C239 C 0.34377 0.86612 0.18651 0.0
C240 C 0.36136 0.87806 0.17261 0.0
C241 C 0.33426 0.84422 0.17801 0.0
C242 C 0.35979 0.84614 0.1414 0.0
C243 C 0.38662 0.88175 0.1345 0.0
H244 H 0.61839 0.87236 0.11682 0.0
H245 H 0.57429 0.87279 0.12083 0.0
H246 H 0.64137 0.91043 0.11538 0.0
H247 H 0.57496 0.95122 0.12224 0.0
H248 H 0.33721 0.87406 0.20367 0.0
H249 H 0.36808 0.89536 0.17928 0.0
H250 H 0.32016 0.83544 0.1887 0.0
H251 H 0.36532 0.83856 0.12363 0.0
C252 C 0.66745 0.55023 0.12261 0.0
C253 C 0.67033 0.55875 0.07853 0.0
C254 C 0.65853 0.54764 0.09869 0.0
C255 C 0.69156 0.57215 0.08282 0.0
C256 C 0.68806 0.56459 0.1272 0.0
C257 C 0.70027 0.57525 0.10713 0.0
N258 N 0.65497 0.54007 0.14158 0.0
C259 C 0.66053 0.54556 0.16563 0.0
C260 C 0.69522 0.56852 0.15189 0.0
C261 C 0.68111 0.55931 0.17122 0.0
Gd262 Gd 0.61893 0.43749 0.12435 0.0
Gd263 Gd 0.62143 0.51658 0.13062 0.0
N264 N 0.6378 0.53489 0.09527 0.0
C265 C 0.66014 0.55644 0.05477 0.0
C266 C 0.62711 0.53351 0.07243 0.0
C267 C 0.63829 0.54396 0.05176 0.0
H268 H 0.61019 0.524 0.07015 0.0
H269 H 0.63004 0.54245 0.03356 0.0
H270 H 0.62835 0.42048 0.18344 0.0
H271 H 0.64897 0.5394 0.18051 0.0
H272 H 0.60813 0.39556 0.21526 0.0
H273 H 0.6687 0.56462 0.03876 0.0
H274 H 0.70102 0.5807 0.06756 0.0
H275 H 0.58563 0.43143 0.07215 0.0
H276 H 0.71103 0.57937 0.15622 0.0
H277 H 0.68586 0.56308 0.19039 0.0
H278 H 0.53716 0.36513 0.17407 0.0
H279 H 0.71622 0.58628 0.11026 0.0
H280 H 0.52375 0.38804 0.08931 0.0
H281 H 0.54716 0.41247 0.0593 0.0
N282 N 0.58298 0.41976 0.10966 0.0
C283 C 0.57118 0.40515 0.12602 0.0
C284 C 0.57511 0.42169 0.0857 0.0
C285 C 0.54045 0.39665 0.09518 0.0
C286 C 0.55354 0.41054 0.07822 0.0
C287 C 0.54936 0.39354 0.11933 0.0
H288 H 0.52037 0.3702 0.13203 0.0
N289 N 0.60175 0.41363 0.15575 0.0
C290 C 0.58092 0.40179 0.14965 0.0
C291 C 0.57869 0.38526 0.19113 0.0
C292 C 0.56872 0.38746 0.16729 0.0
C293 C 0.61172 0.4113 0.17883 0.0
C294 C 0.6003 0.39717 0.19688 0.0
O295 O 0.6451 0.49675 0.10287 0.0
O296 O 0.6534 0.45939 0.12049 0.0
O297 O 0.64362 0.40777 0.13013 0.0
O298 O 0.62951 0.4148 0.09306 0.0
O299 O 0.59147 0.49965 0.10766 0.0
O300 O 0.60931 0.46412 0.09312 0.0
O301 O 0.58856 0.44963 0.14921 0.0
O302 O 0.60863 0.48112 0.14018 0.0
O303 O 0.59392 0.54404 0.12261 0.0
O304 O 0.60488 0.53677 0.16107 0.0
O305 O 0.64246 0.4537 0.1559 0.0
O306 O 0.64199 0.49668 0.16195 0.0
C307 C 0.66031 0.47953 0.10943 0.0
C308 C 0.59139 0.48011 0.09329 0.0
C309 C 0.64212 0.37458 0.10276 0.0
C310 C 0.66262 0.33608 0.10781 0.0
C311 C 0.62576 0.33831 0.08337 0.0
C312 C 0.62424 0.36322 0.08823 0.0
C313 C 0.64504 0.32477 0.09293 0.0
C314 C 0.66105 0.36085 0.11271 0.0
C315 C 0.64279 0.40077 0.107 0.0
C316 C 0.54683 0.37616 0.16074 0.0
C317 C 0.53722 0.37913 0.13682 0.0
H318 H 0.5698 0.37449 0.20523 0.0
C319 C 0.59052 0.47247 0.15241 0.0
C320 C 0.64896 0.47407 0.1679 0.0
C321 C 0.57419 0.56815 0.15517 0.0
C322 C 0.55125 0.60577 0.14958 0.0
C323 C 0.55029 0.58481 0.18918 0.0
C324 C 0.56582 0.56703 0.1798 0.0
C325 C 0.54314 0.60412 0.17423 0.0
C326 C 0.56665 0.58759 0.13992 0.0
C327 C 0.59138 0.54947 0.14607 0.0
H328 H 0.61213 0.32953 0.07202 0.0
H329 H 0.60938 0.37354 0.08045 0.0
H330 H 0.64619 0.30553 0.08888 0.0
H331 H 0.67499 0.36958 0.12384 0.0
H332 H 0.54398 0.58375 0.2082 0.0
H333 H 0.57138 0.55243 0.19191 0.0
H334 H 0.53139 0.61797 0.18199 0.0
H335 H 0.57319 0.58895 0.12098 0.0
C336 C 0.95857 0.83656 0.37219 0.0
C337 C 0.95085 0.83271 0.41642 0.0
C338 C 0.96155 0.84506 0.39636 0.0
C339 C 0.93815 0.81106 0.41197 0.0
C340 C 0.94517 0.81525 0.36756 0.0
C341 C 0.93538 0.80232 0.38761 0.0
N342 N 0.96801 0.84957 0.35314 0.0
C343 C 0.96334 0.84324 0.32904 0.0
C344 C 0.94156 0.80787 0.34288 0.0
C345 C 0.95044 0.8221 0.32352 0.0
Gd346 Gd 0.06422 0.88896 0.37181 0.0
Gd347 Gd 0.98957 0.88448 0.36444 0.0
N348 N 0.97408 0.86595 0.40015 0.0
C349 C 0.95262 0.84288 0.44028 0.0
C350 C 0.97437 0.87683 0.42304 0.0
C351 C 0.9641 0.86523 0.44352 0.0
H352 H 0.98255 0.8944 0.42551 0.0
H353 H 0.96482 0.87366 0.46174 0.0
H354 H 0.07569 0.87783 0.31023 0.0
H355 H 0.96896 0.85497 0.31412 0.0
H356 H 0.09775 0.89719 0.27627 0.0
H357 H 0.94453 0.83401 0.45617 0.0
H358 H 0.92997 0.80122 0.42718 0.0
H359 H 0.07157 0.92542 0.42092 0.0
H360 H 0.93138 0.7916 0.33856 0.0
H361 H 0.94702 0.81703 0.30437 0.0
H362 H 0.13075 0.96945 0.3126 0.0
H363 H 0.92516 0.78584 0.38442 0.0
H364 H 0.11389 0.98628 0.39828 0.0
H365 H 0.09145 0.96427 0.43093 0.0
N366 N 0.08037 0.92672 0.38249 0.0
C367 C 0.0935 0.93787 0.36451 0.0
C368 C 0.08012 0.93553 0.40624 0.0
C369 C 0.10461 0.96955 0.39364 0.0
C370 C 0.09186 0.95726 0.41209 0.0
C371 C 0.10578 0.95978 0.36957 0.0
H372 H 0.1287 0.98786 0.35426 0.0
N373 N 0.08308 0.90588 0.33666 0.0
C374 C 0.09494 0.92718 0.34101 0.0
C375 C 0.10919 0.92766 0.29849 0.0
C376 C 0.10836 0.93857 0.32202 0.0
C377 C 0.08421 0.89501 0.31379 0.0
C378 C 0.09704 0.90584 0.29437 0.0
O379 O 0.01035 0.86101 0.39156 0.0
O380 O 0.04762 0.85184 0.3751 0.0
O381 O 0.10029 0.87422 0.36662 0.0
O382 O 0.08612 0.88121 0.40439 0.0
O383 O 0.00611 0.91412 0.38776 0.0
O384 O 0.03968 0.89568 0.40473 0.0
O385 O 0.04449 0.92163 0.35748 0.0
O386 O 0.01354 0.90265 0.33659 0.0
O387 O 0.96747 0.9163 0.37378 0.0
O388 O 0.95491 0.89048 0.34642 0.0
O389 O 0.05087 0.86268 0.34215 0.0
O390 O 0.0097 0.86718 0.33136 0.0
C391 C 0.02716 0.84523 0.38541 0.0
C392 C 0.0229 0.91257 0.40496 0.0
C393 C 0.12708 0.86618 0.40111 0.0
C394 C 0.161 0.83842 0.40012 0.0
C395 C 0.16046 0.87172 0.42982 0.0
C396 C 0.13799 0.87908 0.42066 0.0
C397 C 0.17192 0.85139 0.41969 0.0
C398 C 0.1387 0.84603 0.39071 0.0
C399 C 0.1043 0.87445 0.3905 0.0
C400 C 0.12037 0.9605 0.32698 0.0
C401 C 0.11915 0.97104 0.35069 0.0
H402 H 0.11919 0.9359 0.28341 0.0
C403 C 0.0265 0.92194 0.34165 0.0
C404 C 0.03171 0.8577 0.32805 0.0
C405 C 0.93502 0.92875 0.34697 0.0
C406 C 0.89968 0.95555 0.34841 0.0
C407 C 0.92373 0.95222 0.31068 0.0
C408 C 0.93895 0.93535 0.32213 0.0
C409 C 0.90427 0.96233 0.32373 0.0
C410 C 0.91518 0.93875 0.35998 0.0
C411 C 0.94983 0.90991 0.35909 0.0
H412 H 0.16908 0.88186 0.44465 0.0
H413 H 0.12937 0.89506 0.42845 0.0
H414 H 0.18947 0.84601 0.42682 0.0
H415 H 0.13028 0.83615 0.37548 0.0
H416 H 0.92684 0.95725 0.29151 0.0
H417 H 0.95361 0.92732 0.31155 0.0
H418 H 0.89241 0.97502 0.31437 0.0
H419 H 0.91159 0.93321 0.37894 0.0
C420 C 0.66419 0.95491 0.36598 0.0
C421 C 0.66951 0.9441 0.40928 0.0
C422 C 0.65701 0.95676 0.39055 0.0
C423 C 0.68989 0.93013 0.40292 0.0
C424 C 0.68421 0.94043 0.35936 0.0
C425 C 0.69725 0.92832 0.37801 0.0
N426 N 0.65138 0.96705 0.34849 0.0
C427 C 0.65639 0.96418 0.32385 0.0
C428 C 0.69031 0.93836 0.33415 0.0
C429 C 0.67613 0.95006 0.31629 0.0
Gd430 Gd 0.61452 0.0705 0.37263 0.0
Gd431 Gd 0.61969 0.99134 0.36292 0.0
N432 N 0.63736 0.97048 0.39604 0.0
C433 C 0.66089 0.94559 0.43375 0.0
C434 C 0.62824 0.97126 0.41962 0.0
C435 C 0.64001 0.95904 0.43888 0.0
H436 H 0.6121 0.9816 0.42363 0.0
H437 H 0.63297 0.96 0.45764 0.0
H438 H 0.62813 0.08233 0.31197 0.0
H439 H 0.64505 0.9727 0.31005 0.0
H440 H 0.61018 0.10472 0.27719 0.0
H441 H 0.66998 0.93612 0.4487 0.0
H442 H 0.69988 0.92041 0.41707 0.0
H443 H 0.5744 0.07474 0.41886 0.0
H444 H 0.70558 0.92741 0.32826 0.0
H445 H 0.68033 0.9481 0.29672 0.0
H446 H 0.53668 0.13799 0.31039 0.0
H447 H 0.71282 0.91724 0.37333 0.0
H448 H 0.51508 0.11828 0.39417 0.0
H449 H 0.53482 0.09397 0.42701 0.0
N450 N 0.57607 0.08623 0.38143 0.0
C451 C 0.56619 0.10058 0.36349 0.0
C452 C 0.56544 0.08433 0.40417 0.0
C453 C 0.53229 0.10956 0.39043 0.0
C454 C 0.54327 0.09568 0.40895 0.0
C455 C 0.54376 0.11222 0.36738 0.0
H456 H 0.51619 0.13499 0.35083 0.0
N457 N 0.59934 0.09029 0.3371 0.0
C458 C 0.57805 0.10254 0.34063 0.0
C459 C 0.57909 0.11651 0.29814 0.0
C460 C 0.56734 0.11582 0.32117 0.0
C461 C 0.61098 0.09121 0.31474 0.0
C462 C 0.60095 0.10415 0.29493 0.0
O463 O 0.64329 0.01113 0.39093 0.0
O464 O 0.65058 0.05096 0.37804 0.0
O465 O 0.62939 0.10633 0.36846 0.0
O466 O 0.62108 0.09292 0.4055 0.0
O467 O 0.59204 0.00707 0.38888 0.0
O468 O 0.60588 0.04438 0.40465 0.0
O469 O 0.58177 0.05579 0.35373 0.0
O470 O 0.60714 0.02703 0.35453 0.0
O471 O 0.5903 0.966 0.37132 0.0
O472 O 0.60008 0.97331 0.33328 0.0
O473 O 0.64188 0.05555 0.34339 0.0
O474 O 0.63866 0.01342 0.33248 0.0
C475 C 0.65793 0.02951 0.38622 0.0
C476 C 0.59159 0.02499 0.40527 0.0
C477 C 0.64599 0.12852 0.40257 0.0
C478 C 0.67647 0.15971 0.39663 0.0
C479 C 0.6575 0.15483 0.43696 0.0
C480 C 0.64351 0.13586 0.4275 0.0
C481 C 0.67395 0.16671 0.42163 0.0
C482 C 0.66248 0.14067 0.3871 0.0
C483 C 0.62853 0.11115 0.39217 0.0
C484 C 0.54511 0.12764 0.32513 0.0
C485 C 0.5334 0.1259 0.34816 0.0
H486 H 0.57139 0.12645 0.2827 0.0
C487 C 0.58625 0.03426 0.34691 0.0
C488 C 0.64757 0.03587 0.32963 0.0
C489 C 0.58334 0.93419 0.34156 0.0
C490 C 0.56168 0.8954 0.34601 0.0
C491 C 0.59141 0.90066 0.31314 0.0
C492 C 0.59587 0.9243 0.32111 0.0
C493 C 0.57442 0.88639 0.32534 0.0
C494 C 0.56629 0.91942 0.35426 0.0
C495 C 0.58669 0.96032 0.34808 0.0
H496 H 0.65524 0.16064 0.45608 0.0
H497 H 0.63024 0.1274 0.43947 0.0
H498 H 0.68436 0.18173 0.42909 0.0
H499 H 0.66411 0.13582 0.3676 0.0
H500 H 0.60106 0.89338 0.29726 0.0
H501 H 0.60894 0.93493 0.31088 0.0
H502 H 0.57133 0.86807 0.31868 0.0
H503 H 0.55629 0.92672 0.36994 0.0
C504 C 0.40465 0.57717 0.40348 0.0
C505 C 0.40431 0.59045 0.44666 0.0
C506 C 0.41004 0.59459 0.42148 0.0
C507 C 0.39387 0.5683 0.45365 0.0
C508 C 0.3929 0.55546 0.41037 0.0
C509 C 0.38818 0.55087 0.43556 0.0
N510 N 0.4097 0.58193 0.37921 0.0
C511 C 0.40006 0.56742 0.36091 0.0
C512 C 0.3855 0.53934 0.3917 0.0
C513 C 0.38854 0.54567 0.36685 0.0
Gd514 Gd 0.50991 0.61844 0.36319 0.0
Gd515 Gd 0.43113 0.61856 0.37245 0.0
N516 N 0.42042 0.6158 0.41435 0.0
C517 C 0.40893 0.60886 0.46405 0.0
C518 C 0.42429 0.63413 0.43103 0.0
C519 C 0.4187 0.63089 0.45615 0.0
H520 H 0.43216 0.65102 0.4249 0.0
H521 H 0.42204 0.64531 0.46944 0.0
H522 H 0.50704 0.59372 0.30565 0.0
H523 H 0.4011 0.57247 0.34154 0.0
H524 H 0.52433 0.60152 0.26417 0.0
H525 H 0.4047 0.60638 0.48355 0.0
H526 H 0.38964 0.56468 0.47295 0.0
H527 H 0.53452 0.6597 0.40169 0.0
H528 H 0.37644 0.52252 0.39625 0.0
H529 H 0.38172 0.53395 0.35223 0.0
H530 H 0.57085 0.67404 0.2755 0.0
H531 H 0.37953 0.53413 0.44118 0.0
H532 H 0.57567 0.70875 0.3571 0.0
H533 H 0.56001 0.69636 0.39819 0.0
N534 N 0.53347 0.65336 0.36274 0.0
C535 C 0.54329 0.65872 0.34016 0.0
C536 C 0.54019 0.66581 0.38357 0.0
C537 C 0.564 0.69303 0.35846 0.0
C538 C 0.55511 0.68617 0.38169 0.0
C539 C 0.55845 0.67908 0.3374 0.0
H540 H 0.57956 0.7003 0.31146 0.0
N541 N 0.52441 0.62366 0.3228 0.0
C542 C 0.53897 0.64335 0.31983 0.0
C543 C 0.54356 0.63344 0.27618 0.0
C544 C 0.54882 0.64879 0.2963 0.0
C545 C 0.51906 0.60875 0.30325 0.0
C546 C 0.52862 0.61334 0.27968 0.0
O547 O 0.45697 0.60636 0.40352 0.0
O548 O 0.49037 0.58897 0.38436 0.0
O549 O 0.53645 0.59071 0.35384 0.0
O550 O 0.53618 0.60743 0.39068 0.0
O551 O 0.45378 0.65248 0.3792 0.0
O552 O 0.49359 0.64409 0.39199 0.0
O553 O 0.49065 0.64066 0.33378 0.0
O554 O 0.44883 0.64196 0.34227 0.0
O555 O 0.40026 0.6417 0.38135 0.0
O556 O 0.40414 0.62523 0.34463 0.0
O557 O 0.47473 0.60263 0.35469 0.0
O558 O 0.44005 0.58859 0.3459 0.0
C559 C 0.47581 0.59154 0.40357 0.0
C560 C 0.47532 0.65923 0.38783 0.0
C561 C 0.57373 0.59356 0.37548 0.0
C562 C 0.61292 0.57422 0.38184 0.0
C563 C 0.61057 0.61752 0.37441 0.0
C564 C 0.58547 0.61592 0.37259 0.0
C565 C 0.62424 0.59683 0.37918 0.0
C566 C 0.58758 0.57254 0.37979 0.0
C567 C 0.54712 0.59232 0.37551 0.0
C568 C 0.56325 0.66952 0.29346 0.0
C569 C 0.5681 0.68456 0.31393 0.0
H570 H 0.55076 0.63704 0.25783 0.0
C571 C 0.46838 0.64862 0.32958 0.0
C572 C 0.46279 0.58595 0.34281 0.0
C573 C 0.36501 0.63709 0.3564 0.0
C574 C 0.32802 0.65945 0.35005 0.0
C575 C 0.32914 0.61629 0.34139 0.0
C576 C 0.35349 0.6157 0.34844 0.0
C577 C 0.31646 0.63821 0.34184 0.0
C578 C 0.35207 0.6587 0.35773 0.0
C579 C 0.39113 0.63888 0.35919 0.0
H580 H 0.61943 0.63489 0.37233 0.0
H581 H 0.57531 0.63224 0.3693 0.0
H582 H 0.64374 0.59842 0.38064 0.0
H583 H 0.57872 0.55516 0.38209 0.0
H584 H 0.32028 0.59991 0.33496 0.0
H585 H 0.3634 0.59887 0.34682 0.0
H586 H 0.29774 0.63864 0.33584 0.0
H587 H 0.36113 0.67533 0.36333 0.0
C588 C 0.83387 0.54435 0.37368 0.0
C589 C 0.83277 0.55652 0.4171 0.0
C590 C 0.84433 0.54462 0.39711 0.0
C591 C 0.81029 0.56783 0.41321 0.0
C592 C 0.81184 0.55657 0.36944 0.0
C593 C 0.79987 0.56789 0.38942 0.0
N594 N 0.84582 0.53314 0.35479 0.0
C595 C 0.838 0.53552 0.33088 0.0
C596 C 0.80287 0.55764 0.34511 0.0
C597 C 0.81616 0.54728 0.3257 0.0
Gd598 Gd 0.88632 0.43557 0.37496 0.0
Gd599 Gd 0.88236 0.51414 0.36529 0.0
N600 N 0.86588 0.53322 0.40035 0.0
C601 C 0.84418 0.55664 0.44038 0.0
C602 C 0.87752 0.53393 0.42273 0.0
C603 C 0.86673 0.54544 0.44315 0.0
H604 H 0.89502 0.52546 0.42485 0.0
H605 H 0.87583 0.54571 0.46099 0.0
H606 H 0.87386 0.41795 0.31609 0.0
H607 H 0.84895 0.52906 0.31568 0.0
H608 H 0.89222 0.39206 0.28368 0.0
H609 H 0.83585 0.56552 0.45624 0.0
H610 H 0.80098 0.57685 0.42839 0.0
H611 H 0.92386 0.43303 0.42406 0.0
H612 H 0.78611 0.56703 0.34101 0.0
H613 H 0.80984 0.54877 0.3067 0.0
H614 H 0.96457 0.36118 0.32164 0.0
H615 H 0.78276 0.57709 0.38659 0.0
H616 H 0.98374 0.38761 0.40441 0.0
H617 H 0.96296 0.4142 0.43485 0.0
N618 N 0.92363 0.4192 0.38713 0.0
C619 C 0.93397 0.4034 0.37063 0.0
C620 C 0.9333 0.42245 0.41023 0.0
C621 C 0.96677 0.39617 0.39941 0.0
C622 C 0.95519 0.41132 0.41659 0.0
C623 C 0.9561 0.39186 0.37618 0.0
H624 H 0.98393 0.36756 0.36236 0.0
N625 N 0.90184 0.41147 0.34248 0.0
C626 C 0.9227 0.39924 0.34775 0.0
C627 C 0.92259 0.3817 0.30646 0.0
C628 C 0.93375 0.38426 0.32973 0.0
C629 C 0.89069 0.40878 0.31997 0.0
C630 C 0.90097 0.39398 0.3016 0.0
O631 O 0.85866 0.49497 0.39349 0.0
O632 O 0.85106 0.45634 0.37782 0.0
O633 O 0.86585 0.40258 0.37057 0.0
O634 O 0.87777 0.41401 0.40784 0.0
O635 O 0.91282 0.49872 0.38859 0.0
O636 O 0.89598 0.46359 0.40539 0.0
O637 O 0.91681 0.44623 0.35032 0.0
O638 O 0.89872 0.47933 0.35727 0.0
O639 O 0.90813 0.54349 0.37261 0.0
O640 O 0.89534 0.53622 0.33468 0.0
O641 O 0.86151 0.45061 0.34425 0.0
O642 O 0.86644 0.49201 0.33287 0.0
C643 C 0.84385 0.47694 0.38809 0.0
C644 C 0.91301 0.48057 0.40463 0.0
C645 C 0.8556 0.37579 0.40428 0.0
C646 C 0.83305 0.33856 0.39717 0.0
C647 C 0.8519 0.34617 0.43726 0.0
C648 C 0.86055 0.3684 0.4287 0.0
C649 C 0.83839 0.33118 0.42152 0.0
C650 C 0.84149 0.36094 0.3887 0.0
C651 C 0.86699 0.39763 0.39415 0.0
C652 C 0.95581 0.37279 0.33525 0.0
C653 C 0.96689 0.3765 0.35843 0.0
H654 H 0.93058 0.37043 0.29208 0.0
C655 C 0.91644 0.46879 0.34567 0.0
C656 C 0.85725 0.46977 0.32971 0.0
C657 C 0.9233 0.57015 0.33984 0.0
C658 C 0.94788 0.60656 0.34638 0.0
C659 C 0.94353 0.58931 0.30496 0.0
C660 C 0.92864 0.57112 0.31432 0.0
C661 C 0.95317 0.60685 0.32085 0.0
C662 C 0.93285 0.58815 0.35591 0.0
C663 C 0.90843 0.54987 0.34934 0.0
H664 H 0.85591 0.34043 0.45603 0.0
H665 H 0.87157 0.37948 0.44095 0.0
H666 H 0.83185 0.31396 0.42842 0.0
H667 H 0.83756 0.36639 0.36977 0.0
H668 H 0.94767 0.58977 0.28529 0.0
H669 H 0.92163 0.55755 0.30159 0.0
H670 H 0.9646 0.62091 0.31316 0.0
H671 H 0.92881 0.58779 0.37563 0.0
C672 C 0.91599 0.43895 0.86236 0.0
C673 C 0.90237 0.43837 0.81943 0.0
C674 C 0.91388 0.42685 0.83962 0.0
C675 C 0.89298 0.4619 0.8224 0.0
C676 C 0.90594 0.46229 0.86557 0.0
C677 C 0.89461 0.47374 0.84543 0.0
N678 N 0.92715 0.42759 0.88159 0.0
C679 C 0.92694 0.43745 0.90489 0.0
C680 C 0.90696 0.47316 0.88916 0.0
C681 C 0.91727 0.46055 0.90897 0.0
Gd682 Gd 0.0126 0.38131 0.86508 0.0
Gd683 Gd 0.9396 0.38782 0.87418 0.0
N684 N 0.92245 0.40369 0.83746 0.0
C685 C 0.90015 0.42574 0.79693 0.0
C686 C 0.91932 0.39098 0.81581 0.0
C687 C 0.90854 0.40194 0.79517 0.0
H688 H 0.92453 0.37225 0.81421 0.0
H689 H 0.90637 0.39185 0.77799 0.0
H690 H 0.02124 0.39027 0.92597 0.0
H691 H 0.93342 0.42717 0.92054 0.0
H692 H 0.04288 0.37069 0.96055 0.0
H693 H 0.89152 0.43402 0.78098 0.0
H694 H 0.884 0.47093 0.8071 0.0
H695 H 0.02622 0.3494 0.81365 0.0
H696 H 0.89922 0.49096 0.89242 0.0
H697 H 0.91733 0.46838 0.92747 0.0
H698 H 0.08155 0.30212 0.92255 0.0
H699 H 0.88677 0.49166 0.84757 0.0
H700 H 0.07038 0.2895 0.83513 0.0
H701 H 0.04849 0.3122 0.80254 0.0
N702 N 0.03171 0.34542 0.85255 0.0
C703 C 0.04368 0.33331 0.87075 0.0
C704 C 0.03384 0.33847 0.82824 0.0
C705 C 0.05949 0.30509 0.84025 0.0
C706 C 0.04711 0.3178 0.82182 0.0
C707 C 0.05839 0.31316 0.86496 0.0
H708 H 0.08396 0.28703 0.87954 0.0
N709 N 0.02931 0.36228 0.89987 0.0
C710 C 0.04255 0.34204 0.89505 0.0
C711 C 0.0556 0.3409 0.93799 0.0
C712 C 0.05614 0.33085 0.91402 0.0
C713 C 0.03011 0.37313 0.92278 0.0
C714 C 0.04267 0.36226 0.94233 0.0
O715 O 0.96269 0.41845 0.8606 0.0
O716 O 0.99089 0.40014 0.83557 0.0
O717 O 0.03435 0.41335 0.87334 0.0
O718 O 0.04839 0.38562 0.84876 0.0
O719 O 0.95081 0.35902 0.8459 0.0
O720 O 0.9903 0.36716 0.83192 0.0
O721 O 0.99197 0.35926 0.89346 0.0
O722 O 0.95473 0.34975 0.87762 0.0
O723 O 0.90134 0.3814 0.87154 0.0
O724 O 0.91888 0.38029 0.90779 0.0
O725 O 0.99818 0.41137 0.88914 0.0
O726 O 0.96404 0.39513 0.90719 0.0
C727 C 0.97489 0.41725 0.83988 0.0
C728 C 0.96913 0.35573 0.8302 0.0
C729 C 0.06746 0.42431 0.84738 0.0
C730 C 0.10276 0.45117 0.84741 0.0
C731 C 0.07667 0.44841 0.81105 0.0
C732 C 0.06193 0.43157 0.82309 0.0
C733 C 0.09686 0.45825 0.82311 0.0
C734 C 0.088 0.43405 0.85946 0.0
C735 C 0.05277 0.40597 0.86026 0.0
C736 C 0.07079 0.3108 0.90827 0.0
C737 C 0.07218 0.30222 0.88376 0.0
H738 H 0.06581 0.33282 0.95304 0.0
C739 C 0.97538 0.34317 0.8878 0.0
C740 C 0.98194 0.41085 0.90695 0.0
C741 C 0.88028 0.36135 0.9036 0.0
C742 C 0.84972 0.33129 0.89412 0.0
C743 C 0.85068 0.35027 0.93486 0.0
C744 C 0.87063 0.36399 0.92761 0.0
C745 C 0.84017 0.33401 0.91815 0.0
C746 C 0.86981 0.34481 0.88685 0.0
C747 C 0.89863 0.37861 0.8954 0.0
H748 H 0.07252 0.45375 0.79223 0.0
H749 H 0.0464 0.42408 0.81343 0.0
H750 H 0.10818 0.47108 0.8133 0.0
H751 H 0.09253 0.42828 0.87814 0.0
H752 H 0.84303 0.35263 0.95324 0.0
H753 H 0.87808 0.3772 0.94049 0.0
H754 H 0.8243 0.32386 0.92375 0.0
H755 H 0.87666 0.34298 0.86803 0.0
C756 C 0.07166 0.90864 0.87124 0.0
C757 C 0.06828 0.89431 0.82861 0.0
C758 C 0.0809 0.90731 0.84723 0.0
C759 C 0.04623 0.883 0.83438 0.0
C760 C 0.04963 0.8971 0.87714 0.0
C761 C 0.03693 0.8844 0.85856 0.0
N762 N 0.08432 0.92102 0.88889 0.0
C763 C 0.07657 0.92167 0.91295 0.0
C764 C 0.04113 0.89846 0.90163 0.0
C765 C 0.05473 0.9107 0.91963 0.0
Gd766 Gd 0.12396 0.01429 0.86858 0.0
Gd767 Gd 0.12065 0.93879 0.87596 0.0
N768 N 0.1023 0.91847 0.84217 0.0
C769 C 0.07835 0.89279 0.80479 0.0
C770 C 0.11257 0.91621 0.81919 0.0
C771 C 0.10067 0.90364 0.80013 0.0
H772 H 0.13017 0.92348 0.81544 0.0
H773 H 0.1089 0.90206 0.78192 0.0
H774 H 0.11098 0.02483 0.92827 0.0
H775 H 0.0874 0.93034 0.92714 0.0
H776 H 0.12978 0.04495 0.9647 0.0
H777 H 0.06925 0.88293 0.79001 0.0
H778 H 0.03632 0.87296 0.8203 0.0
H779 H 0.15725 0.03102 0.81867 0.0
H780 H 0.02428 0.88985 0.90689 0.0
H781 H 0.04852 0.91148 0.93871 0.0
H782 H 0.20369 0.07832 0.93259 0.0
H783 H 0.01998 0.87543 0.86276 0.0
H784 H 0.21861 0.07065 0.84515 0.0
H785 H 0.19547 0.05241 0.81041 0.0
N786 N 0.15944 0.03553 0.85805 0.0
C787 C 0.17123 0.04648 0.8772 0.0
C788 C 0.16746 0.03832 0.83416 0.0
C789 C 0.20196 0.061 0.84896 0.0
C790 C 0.18898 0.0507 0.82931 0.0
C791 C 0.19299 0.05925 0.87323 0.0
H792 H 0.22172 0.07988 0.89079 0.0
N793 N 0.13992 0.03348 0.90389 0.0
C794 C 0.16102 0.04571 0.90074 0.0
C795 C 0.16109 0.0569 0.94424 0.0
C796 C 0.17236 0.05751 0.92093 0.0
C797 C 0.12826 0.03373 0.92626 0.0
C798 C 0.13882 0.04517 0.94685 0.0
O799 O 0.08771 0.9575 0.86085 0.0
O800 O 0.10846 0.98742 0.84162 0.0
O801 O 0.09194 0.03809 0.87477 0.0
O802 O 0.11673 0.04376 0.84376 0.0
O803 O 0.14524 0.95154 0.84435 0.0
O804 O 0.14486 0.99387 0.83877 0.0
O805 O 0.14726 0.99567 0.89751 0.0
O806 O 0.15577 0.95849 0.88031 0.0
O807 O 0.14207 0.90687 0.86899 0.0
O808 O 0.13082 0.91541 0.90685 0.0
O809 O 0.09414 0.99755 0.89114 0.0
O810 O 0.11238 0.96397 0.90858 0.0
C811 C 0.08838 0.97562 0.8454 0.0
C812 C 0.15204 0.97166 0.83285 0.0
C813 C 0.08293 0.0712 0.84503 0.0
C814 C 0.05521 0.10578 0.84931 0.0
C815 C 0.07183 0.09496 0.80882 0.0
C816 C 0.08447 0.07578 0.81938 0.0
C817 C 0.05737 0.10985 0.82358 0.0
C818 C 0.06822 0.08632 0.86007 0.0
C819 C 0.09749 0.05105 0.85541 0.0
C820 C 0.19452 0.06945 0.91724 0.0
C821 C 0.20482 0.07029 0.89344 0.0
H822 H 0.16927 0.06567 0.96025 0.0
C823 C 0.1626 0.97824 0.89193 0.0
C824 C 0.09513 0.98056 0.90816 0.0
C825 C 0.14189 0.8744 0.89688 0.0
C826 C 0.16283 0.83578 0.89312 0.0
C827 C 0.12431 0.83827 0.91481 0.0
C828 C 0.1231 0.86316 0.91 0.0
C829 C 0.1442 0.82464 0.90663 0.0
C830 C 0.16149 0.86059 0.88823 0.0
C831 C 0.14255 0.9005 0.89223 0.0
H832 H 0.0734 0.09845 0.78909 0.0
H833 H 0.09559 0.06453 0.80738 0.0
H834 H 0.04828 0.12501 0.81486 0.0
H835 H 0.06707 0.08313 0.8799 0.0
H836 H 0.1099 0.82954 0.92502 0.0
H837 H 0.10773 0.87354 0.91662 0.0
H838 H 0.14496 0.80542 0.91062 0.0
H839 H 0.17607 0.86929 0.87811 0.0
C840 C 0.46638 0.16105 0.83902 0.0
C841 C 0.46185 0.15512 0.79429 0.0
C842 C 0.47099 0.14743 0.81748 0.0
C843 C 0.44841 0.17667 0.79284 0.0
C844 C 0.45172 0.18197 0.83763 0.0
C845 C 0.44324 0.18996 0.81444 0.0
N846 N 0.47499 0.15325 0.8614 0.0
C847 C 0.46751 0.16391 0.88307 0.0
C848 C 0.44524 0.19384 0.8597 0.0
C849 C 0.45287 0.18458 0.88251 0.0
Gd850 Gd 0.57449 0.11763 0.87396 0.0
Gd851 Gd 0.49791 0.1177 0.85926 0.0
N852 N 0.48385 0.12642 0.81922 0.0
C853 C 0.46611 0.14072 0.7732 0.0
C854 C 0.48729 0.11189 0.79887 0.0
C855 C 0.47871 0.11892 0.77556 0.0
H856 H 0.49716 0.09525 0.80044 0.0
H857 H 0.48186 0.10753 0.75942 0.0
H858 H 0.57351 0.1533 0.92401 0.0
H859 H 0.47257 0.15635 0.90083 0.0
H860 H 0.58725 0.15128 0.96788 0.0
H861 H 0.45943 0.14609 0.75509 0.0
H862 H 0.44142 0.18291 0.77515 0.0
H863 H 0.57983 0.05857 0.85026 0.0
H864 H 0.43363 0.20968 0.85937 0.0
H865 H 0.44721 0.19317 0.89969 0.0
H866 H 0.61869 0.07062 0.97618 0.0
H867 H 0.43222 0.20616 0.81306 0.0
H868 H 0.61321 0.01679 0.90663 0.0
H869 H 0.59718 0.02076 0.86405 0.0
N870 N 0.58416 0.07725 0.88519 0.0
C871 C 0.59349 0.07549 0.90867 0.0
C872 C 0.58559 0.05775 0.86927 0.0
C873 C 0.60505 0.03376 0.90091 0.0
C874 C 0.5959 0.03589 0.87691 0.0
C875 C 0.60387 0.05358 0.91714 0.0
H876 H 0.62119 0.03547 0.94809 0.0
N877 N 0.58292 0.11675 0.91619 0.0
C878 C 0.59292 0.09572 0.92447 0.0
C879 C 0.5994 0.11424 0.9648 0.0
C880 C 0.60158 0.09401 0.94909 0.0
C881 C 0.58096 0.13662 0.93121 0.0
C882 C 0.58891 0.13557 0.95587 0.0
O883 O 0.52027 0.13534 0.82863 0.0
O884 O 0.55976 0.14352 0.84389 0.0
O885 O 0.60443 0.14268 0.8804 0.0
O886 O 0.61024 0.10866 0.86111 0.0
O887 O 0.53347 0.10053 0.85521 0.0
O888 O 0.56824 0.09653 0.83878 0.0
O889 O 0.54737 0.1052 0.90392 0.0
O890 O 0.51768 0.08802 0.88001 0.0
O891 O 0.47083 0.09089 0.84807 0.0
O892 O 0.47215 0.10445 0.88608 0.0
O893 O 0.55345 0.15298 0.87883 0.0
O894 O 0.51315 0.14335 0.88856 0.0
C895 C 0.54129 0.14703 0.82823 0.0
C896 C 0.54569 0.09119 0.83698 0.0
C897 C 0.63716 0.1403 0.8518 0.0
C898 C 0.66923 0.16952 0.8462 0.0
C899 C 0.66118 0.13987 0.8139 0.0
C900 C 0.64249 0.13026 0.82826 0.0
C901 C 0.67458 0.15946 0.82285 0.0
C902 C 0.65062 0.15999 0.86063 0.0
C903 C 0.6198 0.12887 0.86865 0.0
C904 C 0.61179 0.07219 0.95739 0.0
C905 C 0.6131 0.05213 0.94142 0.0
H906 H 0.60568 0.11354 0.98388 0.0
C907 C 0.52818 0.09101 0.90181 0.0
C908 C 0.53112 0.15902 0.88566 0.0
C909 C 0.43409 0.09211 0.8713 0.0
C910 C 0.3951 0.07311 0.88007 0.0
C911 C 0.39774 0.11672 0.87469 0.0
C912 C 0.42255 0.11477 0.87045 0.0
C913 C 0.38411 0.09607 0.87965 0.0
C914 C 0.42019 0.07111 0.87577 0.0
C915 C 0.46072 0.09068 0.87007 0.0
H916 H 0.6655 0.13191 0.796 0.0
H917 H 0.63266 0.11472 0.82117 0.0
H918 H 0.68932 0.16657 0.81178 0.0
H919 H 0.64707 0.16751 0.87897 0.0
H920 H 0.38907 0.13433 0.87433 0.0
H921 H 0.43274 0.13106 0.867 0.0
H922 H 0.36484 0.09797 0.88292 0.0
H923 H 0.4289 0.0535 0.87658 0.0
C924 C 0.43659 0.59681 0.86627 0.0
C925 C 0.43772 0.61046 0.82342 0.0
C926 C 0.42616 0.59754 0.84264 0.0
C927 C 0.45971 0.62242 0.82817 0.0
C928 C 0.45859 0.60892 0.87109 0.0
C929 C 0.47009 0.62166 0.85192 0.0
N930 N 0.42539 0.58396 0.88445 0.0
C931 C 0.43423 0.58374 0.90811 0.0
C932 C 0.46833 0.60796 0.89513 0.0
C933 C 0.45601 0.59545 0.91375 0.0
Gd934 Gd 0.3875 0.49132 0.86328 0.0
Gd935 Gd 0.38821 0.56675 0.87383 0.0
N936 N 0.40495 0.58547 0.83842 0.0
C937 C 0.42688 0.611 0.79991 0.0
C938 C 0.39403 0.58654 0.81561 0.0
C939 C 0.40493 0.59908 0.79605 0.0
H940 H 0.37676 0.57823 0.81217 0.0
H941 H 0.39626 0.59968 0.778 0.0
H942 H 0.3962 0.47992 0.92354 0.0
H943 H 0.42428 0.57492 0.92275 0.0
H944 H 0.3767 0.45666 0.95714 0.0
H945 H 0.43522 0.62068 0.78468 0.0
H946 H 0.46882 0.63236 0.81358 0.0
H947 H 0.36222 0.4719 0.81013 0.0
H948 H 0.48517 0.61707 0.89958 0.0
H949 H 0.46312 0.59504 0.93251 0.0
H950 H 0.30995 0.41684 0.91667 0.0
H951 H 0.48702 0.63106 0.85528 0.0
H952 H 0.30214 0.42634 0.8284 0.0
H953 H 0.32697 0.44741 0.79689 0.0
N954 N 0.3559 0.46664 0.84867 0.0
C955 C 0.34346 0.45405 0.86608 0.0
C956 C 0.35088 0.46355 0.82401 0.0
C957 C 0.31727 0.43747 0.83429 0.0
C958 C 0.3312 0.44937 0.81645 0.0
C959 C 0.32366 0.43926 0.85943 0.0
H960 H 0.29595 0.41498 0.87321 0.0
N961 N 0.37061 0.46926 0.89609 0.0
C962 C 0.35131 0.45507 0.89049 0.0
C963 C 0.34873 0.44226 0.93331 0.0
C964 C 0.33963 0.44138 0.90901 0.0
C965 C 0.3802 0.46945 0.91949 0.0
C966 C 0.36926 0.45618 0.93851 0.0
O967 O 0.42299 0.54917 0.86199 0.0
O968 O 0.40314 0.52089 0.8402 0.0
O969 O 0.41586 0.46504 0.87292 0.0
O970 O 0.40572 0.47052 0.83467 0.0
O971 O 0.36272 0.55285 0.84347 0.0
O972 O 0.36579 0.51118 0.83358 0.0
O973 O 0.36094 0.50814 0.89091 0.0
O974 O 0.35265 0.54721 0.87775 0.0
O975 O 0.37161 0.6019 0.86787 0.0
O976 O 0.37921 0.5894 0.90588 0.0
O977 O 0.41418 0.50837 0.88979 0.0
O978 O 0.39453 0.54176 0.90662 0.0
C979 C 0.42346 0.53106 0.84651 0.0
C980 C 0.35707 0.53336 0.82996 0.0
C981 C 0.42137 0.43151 0.84473 0.0
C982 C 0.44375 0.39327 0.84926 0.0
C983 C 0.41208 0.39693 0.8181 0.0
C984 C 0.40771 0.42078 0.8255 0.0
C985 C 0.43005 0.38335 0.82971 0.0
C986 C 0.43927 0.41745 0.85689 0.0
C987 C 0.41877 0.45788 0.85004 0.0
C988 C 0.31936 0.42727 0.90266 0.0
C989 C 0.31135 0.42627 0.87793 0.0
H990 H 0.34026 0.43203 0.94808 0.0
C991 C 0.34568 0.52608 0.88655 0.0
C992 C 0.41136 0.52481 0.90732 0.0
C993 C 0.36141 0.62948 0.90139 0.0
C994 C 0.3346 0.66418 0.89721 0.0
C995 C 0.36211 0.66161 0.93235 0.0
C996 C 0.3707 0.63939 0.9235 0.0
C997 C 0.34403 0.6739 0.91938 0.0
C998 C 0.34354 0.6421 0.88808 0.0
C999 C 0.37127 0.60671 0.89157 0.0
H1000 H 0.40162 0.38899 0.80312 0.0
H1001 H 0.39394 0.43095 0.81571 0.0
H1002 H 0.43305 0.36482 0.82361 0.0
H1003 H 0.45007 0.42543 0.87165 0.0
H1004 H 0.36952 0.66936 0.94925 0.0
H1005 H 0.38489 0.63016 0.93368 0.0
H1006 H 0.33755 0.69115 0.92649 0.0
H1007 H 0.33636 0.63464 0.87088 0.0
C1008 C 0.91202 0.06711 0.63389 0.0
C1009 C 0.89724 0.0685 0.6764 0.0
C1010 C 0.91025 0.07916 0.65668 0.0
C1011 C 0.88598 0.04591 0.67287 0.0
C1012 C 0.90041 0.04459 0.63021 0.0
C1013 C 0.88747 0.03405 0.64983 0.0
N1014 N 0.92479 0.07757 0.61519 0.0
C1015 C 0.92517 0.06749 0.59199 0.0
C1016 C 0.90176 0.03353 0.60674 0.0
C1017 C 0.91404 0.04515 0.58749 0.0
Gd1018 Gd 0.01301 0.1229 0.63116 0.0
Gd1019 Gd 0.93919 0.11654 0.62325 0.0
N1020 N 0.92126 0.10116 0.6596 0.0
C1021 C 0.89602 0.0808 0.69917 0.0
C1022 C 0.91937 0.11354 0.68158 0.0
C1023 C 0.90712 0.10339 0.70175 0.0
H1024 H 0.92661 0.13149 0.6837 0.0
H1025 H 0.90588 0.11321 0.71919 0.0
H1026 H 0.02564 0.11362 0.57162 0.0
H1027 H 0.93335 0.07703 0.5767 0.0
H1028 H 0.04812 0.13401 0.53792 0.0
H1029 H 0.88636 0.07312 0.7148 0.0
H1030 H 0.87593 0.03751 0.68782 0.0
H1031 H 0.02376 0.15563 0.68352 0.0
H1032 H 0.89294 0.01633 0.60314 0.0
H1033 H 0.91453 0.03713 0.56908 0.0
H1034 H 0.07634 0.20792 0.57565 0.0
H1035 H 0.87843 0.01677 0.64733 0.0
H1036 H 0.0601 0.22064 0.66223 0.0
H1037 H 0.04137 0.19516 0.69467 0.0
N1038 N 0.02962 0.15988 0.64458 0.0
C1039 C 0.04094 0.17299 0.62669 0.0
C1040 C 0.03069 0.16705 0.66892 0.0
C1041 C 0.05172 0.20358 0.65708 0.0
C1042 C 0.04114 0.18928 0.67543 0.0
C1043 C 0.05233 0.19519 0.63248 0.0
H1044 H 0.0734 0.22504 0.61789 0.0
N1045 N 0.03086 0.14234 0.59753 0.0
C1046 C 0.04223 0.1636 0.60269 0.0
C1047 C 0.05721 0.16514 0.56049 0.0
C1048 C 0.05538 0.17582 0.58412 0.0
C1049 C 0.03341 0.1313 0.57491 0.0
C1050 C 0.04634 0.14267 0.55594 0.0
O1051 O 0.96026 0.08393 0.63591 0.0
O1052 O 0.99001 0.10287 0.65845 0.0
O1053 O 0.03633 0.09194 0.62251 0.0
O1054 O 0.04802 0.11888 0.64922 0.0
O1055 O 0.95195 0.14528 0.65119 0.0
O1056 O 0.99065 0.13428 0.66503 0.0
O1057 O 0.99267 0.14579 0.60275 0.0
O1058 O 0.9551 0.15388 0.61934 0.0
O1059 O 0.90155 0.12644 0.62668 0.0
O1060 O 0.91794 0.12372 0.59005 0.0
O1061 O 0.9982 0.09351 0.60644 0.0
O1062 O 0.96328 0.10988 0.58976 0.0
C1063 C 0.97757 0.08351 0.6525 0.0
C1064 C 0.97069 0.14756 0.66652 0.0
C1065 C 0.06845 0.08074 0.64999 0.0
C1066 C 0.10339 0.05316 0.64938 0.0
C1067 C 0.07962 0.05872 0.68719 0.0
C1068 C 0.06446 0.07515 0.67505 0.0
C1069 C 0.0989 0.04782 0.67453 0.0
C1070 C 0.08795 0.06973 0.63723 0.0
C1071 C 0.05368 0.09919 0.63714 0.0
C1072 C 0.06634 0.19815 0.58973 0.0
C1073 C 0.06463 0.20791 0.61378 0.0
H1074 H 0.06726 0.1739 0.54576 0.0
C1075 C 0.97482 0.16094 0.60773 0.0
C1076 C 0.98162 0.09464 0.58902 0.0
C1077 C 0.88173 0.14716 0.59382 0.0
C1078 C 0.84789 0.17435 0.60133 0.0
C1079 C 0.86041 0.16543 0.55908 0.0
C1080 C 0.8786 0.15026 0.56808 0.0
C1081 C 0.84502 0.17736 0.57562 0.0
C1082 C 0.8663 0.15945 0.61047 0.0
C1083 C 0.89834 0.1283 0.60278 0.0
H1084 H 0.0766 0.05465 0.70662 0.0
H1085 H 0.04981 0.08364 0.68527 0.0
H1086 H 0.11071 0.03565 0.68464 0.0
H1087 H 0.09123 0.07426 0.61792 0.0
H1088 H 0.85789 0.16752 0.53924 0.0
H1089 H 0.88974 0.1404 0.55489 0.0
H1090 H 0.83065 0.18873 0.5684 0.0
H1091 H 0.86789 0.1568 0.63037 0.0
C1092 C 0.43285 0.90229 0.62914 0.0
C1093 C 0.43307 0.88598 0.67105 0.0
C1094 C 0.42193 0.8999 0.65233 0.0
C1095 C 0.45497 0.87397 0.66597 0.0
C1096 C 0.45474 0.89008 0.62394 0.0
C1097 C 0.46572 0.87593 0.64246 0.0
N1098 N 0.42239 0.917 0.61192 0.0
C1099 C 0.43173 0.91861 0.58856 0.0
C1100 C 0.465 0.89256 0.60029 0.0
C1101 C 0.45328 0.90666 0.58244 0.0
Gd1102 Gd 0.38447 0.0153 0.63513 0.0
Gd1103 Gd 0.38636 0.93627 0.62403 0.0
N1104 N 0.40128 0.91269 0.65707 0.0
C1105 C 0.42216 0.88503 0.69452 0.0
C1106 C 0.39033 0.91146 0.67978 0.0
C1107 C 0.40067 0.89774 0.69885 0.0
H1108 H 0.3737 0.92111 0.68337 0.0
H1109 H 0.3921 0.89705 0.71693 0.0
H1110 H 0.39708 0.0299 0.57673 0.0
H1111 H 0.42226 0.92856 0.57447 0.0
H1112 H 0.37819 0.05285 0.54227 0.0
H1113 H 0.43024 0.87464 0.70944 0.0
H1114 H 0.46384 0.86325 0.68016 0.0
H1115 H 0.35306 0.02987 0.68688 0.0
H1116 H 0.48177 0.88343 0.59554 0.0
H1117 H 0.46074 0.90819 0.56391 0.0
H1118 H 0.30472 0.08442 0.57794 0.0
H1119 H 0.48262 0.86657 0.63885 0.0
H1120 H 0.29012 0.06946 0.66449 0.0
H1121 H 0.31421 0.0495 0.69741 0.0
N1122 N 0.34978 0.03645 0.64809 0.0
C1123 C 0.33771 0.0487 0.6301 0.0
C1124 C 0.34224 0.03764 0.67223 0.0
C1125 C 0.30694 0.06045 0.65971 0.0
C1126 C 0.32045 0.04916 0.67833 0.0
C1127 C 0.31582 0.06084 0.63533 0.0
H1128 H 0.28681 0.08254 0.61982 0.0
N1129 N 0.36879 0.03781 0.60221 0.0
C1130 C 0.34777 0.04981 0.60656 0.0
C1131 C 0.34732 0.06391 0.5641 0.0
C1132 C 0.33626 0.06299 0.58753 0.0
C1133 C 0.38008 0.03916 0.57971 0.0
C1134 C 0.36943 0.0521 0.56024 0.0
O1135 O 0.41739 0.94744 0.6485 0.0
O1136 O 0.39681 0.9791 0.64177 0.0
O1137 O 0.41472 0.03991 0.62826 0.0
O1138 O 0.40149 0.03474 0.6656 0.0
O1139 O 0.36108 0.95195 0.65396 0.0
O1140 O 0.36665 0.99321 0.66611 0.0
O1141 O 0.36099 0.99834 0.60509 0.0
O1142 O 0.35269 0.95948 0.61937 0.0
O1143 O 0.36143 0.90656 0.62856 0.0
O1144 O 0.37649 0.91403 0.59207 0.0
O1145 O 0.41311 0.99801 0.61131 0.0
O1146 O 0.39793 0.96245 0.59293 0.0
C1147 C 0.41512 0.96992 0.65334 0.0
C1148 C 0.35681 0.97122 0.66847 0.0
C1149 C 0.42021 0.07289 0.65677 0.0
C1150 C 0.44326 0.11063 0.65105 0.0
C1151 C 0.41256 0.10792 0.68331 0.0
C1152 C 0.40748 0.08409 0.67636 0.0
C1153 C 0.43037 0.12102 0.67093 0.0
C1154 C 0.43801 0.08647 0.64385 0.0
C1155 C 0.41643 0.04665 0.6514 0.0
C1156 C 0.31405 0.07449 0.59241 0.0
C1157 C 0.30381 0.07335 0.61624 0.0
H1158 H 0.339 0.07376 0.54894 0.0
C1159 C 0.34605 0.98002 0.60879 0.0
C1160 C 0.41262 0.98157 0.59337 0.0
C1161 C 0.36301 0.87373 0.60063 0.0
C1162 C 0.3419 0.8353 0.60447 0.0
C1163 C 0.37894 0.83773 0.58032 0.0
C1164 C 0.38078 0.86247 0.58589 0.0
C1165 C 0.35945 0.82421 0.58934 0.0
C1166 C 0.34383 0.85996 0.61013 0.0
C1167 C 0.36271 0.89992 0.60537 0.0
H1168 H 0.40273 0.11626 0.69852 0.0
H1169 H 0.3938 0.07433 0.68667 0.0
H1170 H 0.4339 0.13954 0.67671 0.0
H1171 H 0.44811 0.07815 0.62878 0.0
H1172 H 0.39253 0.82906 0.56882 0.0
H1173 H 0.3958 0.87275 0.57847 0.0
H1174 H 0.35816 0.8051 0.58474 0.0
H1175 H 0.32998 0.8686 0.62143 0.0
C1176 C 0.46604 0.34333 0.65418 0.0
C1177 C 0.46183 0.35436 0.69771 0.0
C1178 C 0.47052 0.35925 0.6736 0.0
C1179 C 0.44921 0.33271 0.70212 0.0
C1180 C 0.45219 0.32228 0.65821 0.0
C1181 C 0.44431 0.31675 0.68238 0.0
N1182 N 0.47421 0.34904 0.63113 0.0
C1183 C 0.46766 0.33547 0.61094 0.0
C1184 C 0.44603 0.30785 0.6377 0.0
C1185 C 0.45344 0.31473 0.61391 0.0
Gd1186 Gd 0.57145 0.38672 0.62289 0.0
Gd1187 Gd 0.49762 0.38434 0.62791 0.0
N1188 N 0.48312 0.37979 0.66875 0.0
C1189 C 0.46594 0.37147 0.71657 0.0
C1190 C 0.48582 0.39724 0.68665 0.0
C1191 C 0.47773 0.39316 0.71093 0.0
H1192 H 0.49434 0.41422 0.68226 0.0
H1193 H 0.48052 0.40672 0.72526 0.0
H1194 H 0.56987 0.3531 0.56982 0.0
H1195 H 0.47322 0.34076 0.59248 0.0
H1196 H 0.58267 0.35775 0.5262 0.0
H1197 H 0.45971 0.36834 0.73538 0.0
H1198 H 0.44272 0.32842 0.72059 0.0
H1199 H 0.58173 0.44038 0.65036 0.0
H1200 H 0.43502 0.29177 0.63995 0.0
H1201 H 0.4481 0.30415 0.59784 0.0
H1202 H 0.61645 0.43779 0.52277 0.0
H1203 H 0.43398 0.30042 0.6859 0.0
H1204 H 0.61478 0.48667 0.59668 0.0
H1205 H 0.59971 0.47978 0.63937 0.0
N1206 N 0.58514 0.42569 0.61388 0.0
C1207 C 0.59403 0.42869 0.59052 0.0
C1208 C 0.5874 0.44349 0.63145 0.0
C1209 C 0.6066 0.46943 0.60131 0.0
C1210 C 0.59796 0.46569 0.62539 0.0
C1211 C 0.6047 0.45085 0.58353 0.0
H1212 H 0.62121 0.47073 0.55336 0.0
N1213 N 0.58078 0.38863 0.58046 0.0
C1214 C 0.59146 0.40982 0.57327 0.0
C1215 C 0.59604 0.39408 0.53155 0.0
C1216 C 0.59936 0.41305 0.54859 0.0
C1217 C 0.57772 0.37001 0.564 0.0
C1218 C 0.58515 0.37253 0.53927 0.0
O1219 O 0.51845 0.3674 0.66058 0.0
O1220 O 0.55706 0.3565 0.64698 0.0
O1221 O 0.60738 0.37099 0.61817 0.0
O1222 O 0.59956 0.39487 0.64931 0.0
O1223 O 0.51821 0.41793 0.63891 0.0
O1224 O 0.55337 0.40331 0.65616 0.0
O1225 O 0.54844 0.41464 0.60317 0.0
O1226 O 0.51752 0.39038 0.59193 0.0
O1227 O 0.47416 0.41643 0.63073 0.0
O1228 O 0.46712 0.38881 0.60323 0.0
O1229 O 0.55505 0.34988 0.61284 0.0
O1230 O 0.515 0.35724 0.60141 0.0
C1231 C 0.5384 0.35413 0.66212 0.0
C1232 C 0.53606 0.41949 0.65495 0.0
C1233 C 0.63201 0.36747 0.65469 0.0
C1234 C 0.66495 0.33865 0.65937 0.0
C1235 C 0.6535 0.36439 0.69408 0.0
C1236 C 0.63554 0.37501 0.67951 0.0
C1237 C 0.6683 0.34641 0.68402 0.0
C1238 C 0.64669 0.349 0.64478 0.0
C1239 C 0.61563 0.38125 0.6384 0.0
C1240 C 0.61019 0.43507 0.54164 0.0
C1241 C 0.61291 0.45386 0.55906 0.0
H1242 H 0.60183 0.39588 0.5124 0.0
C1243 C 0.52995 0.41024 0.58866 0.0
C1244 C 0.53355 0.34249 0.60484 0.0
C1245 C 0.43312 0.41013 0.61802 0.0
C1246 C 0.39496 0.4326 0.61658 0.0
C1247 C 0.39487 0.38924 0.62416 0.0
C1248 C 0.42005 0.3888 0.62287 0.0
C1249 C 0.38239 0.41095 0.62096 0.0
C1250 C 0.42044 0.43221 0.61504 0.0
C1251 C 0.45948 0.40878 0.61344 0.0
H1252 H 0.65629 0.37046 0.71304 0.0
H1253 H 0.62491 0.38959 0.68753 0.0
H1254 H 0.68248 0.33861 0.6954 0.0
H1255 H 0.64471 0.34342 0.62552 0.0
H1256 H 0.38496 0.37263 0.62742 0.0
H1257 H 0.42922 0.37161 0.62501 0.0
H1258 H 0.36278 0.41088 0.62188 0.0
H1259 H 0.43024 0.44878 0.6111 0.0
C1260 C 0.06862 0.59422 0.6288 0.0
C1261 C 0.06593 0.60896 0.67137 0.0
C1262 C 0.07837 0.59597 0.6526 0.0
C1263 C 0.0436 0.6199 0.66595 0.0
C1264 C 0.04637 0.60556 0.62323 0.0
C1265 C 0.03385 0.61823 0.64195 0.0
N1266 N 0.08113 0.58192 0.61097 0.0
C1267 C 0.0733 0.58175 0.58691 0.0
C1268 C 0.03757 0.60426 0.59884 0.0
C1269 C 0.05121 0.59248 0.58056 0.0
Gd1270 Gd 0.12372 0.49116 0.62893 0.0
Gd1271 Gd 0.11875 0.56622 0.62308 0.0
N1272 N 0.10007 0.58518 0.65735 0.0
C1273 C 0.07642 0.61073 0.69501 0.0
C1274 C 0.11058 0.58743 0.68017 0.0
C1275 C 0.09889 0.59999 0.69938 0.0
H1276 H 0.12814 0.58004 0.68354 0.0
H1277 H 0.10733 0.60155 0.7175 0.0
H1278 H 0.11358 0.48357 0.56828 0.0
H1279 H 0.0843 0.57387 0.5724 0.0
H1280 H 0.13328 0.46371 0.53227 0.0
H1281 H 0.06744 0.62052 0.7099 0.0
H1282 H 0.03381 0.62991 0.68014 0.0
H1283 H 0.15452 0.4728 0.67973 0.0
H1284 H 0.02058 0.61277 0.5938 0.0
H1285 H 0.04493 0.59201 0.56149 0.0
H1286 H 0.20497 0.42777 0.56673 0.0
H1287 H 0.01674 0.62703 0.638 0.0
H1288 H 0.21625 0.43258 0.65491 0.0
H1289 H 0.19186 0.45008 0.68913 0.0
N1290 N 0.15888 0.47008 0.64042 0.0
C1291 C 0.17137 0.45966 0.62141 0.0
C1292 C 0.16547 0.46598 0.66456 0.0
C1293 C 0.20013 0.44297 0.65063 0.0
C1294 C 0.18643 0.45282 0.67 0.0
C1295 C 0.19243 0.4459 0.62602 0.0
H1296 H 0.22105 0.42448 0.60924 0.0
N1297 N 0.14179 0.47458 0.59347 0.0
C1298 C 0.16235 0.46159 0.59735 0.0
C1299 C 0.1637 0.45096 0.55369 0.0
C1300 C 0.17409 0.44973 0.57742 0.0
C1301 C 0.13081 0.47468 0.57071 0.0
C1302 C 0.14181 0.46325 0.55039 0.0
O1303 O 0.08669 0.54606 0.63809 0.0
O1304 O 0.10591 0.5146 0.65778 0.0
O1305 O 0.09204 0.46869 0.62011 0.0
O1306 O 0.1182 0.45664 0.6472 0.0
O1307 O 0.14495 0.55328 0.65331 0.0
O1308 O 0.14221 0.51121 0.661 0.0
O1309 O 0.14708 0.51179 0.60148 0.0
O1310 O 0.15532 0.54889 0.61909 0.0
O1311 O 0.13384 0.60198 0.62969 0.0
O1312 O 0.12785 0.5889 0.59138 0.0
O1313 O 0.09358 0.50779 0.60658 0.0
O1314 O 0.11142 0.54173 0.5898 0.0
C1315 C 0.08662 0.52774 0.65344 0.0
C1316 C 0.15077 0.53329 0.66575 0.0
C1317 C 0.08016 0.4364 0.64742 0.0
C1318 C 0.05303 0.40123 0.64603 0.0
C1319 C 0.0599 0.42292 0.68492 0.0
C1320 C 0.07555 0.43898 0.67297 0.0
C1321 C 0.04864 0.4043 0.67159 0.0
C1322 C 0.06892 0.4174 0.63404 0.0
C1323 C 0.09868 0.4513 0.6349 0.0
C1324 C 0.19555 0.43677 0.58185 0.0
C1325 C 0.20472 0.43491 0.60606 0.0
H1326 H 0.17215 0.44205 0.53792 0.0
C1327 C 0.16249 0.52884 0.60807 0.0
C1328 C 0.09462 0.52478 0.58964 0.0
C1329 C 0.14437 0.62947 0.59651 0.0
C1330 C 0.17189 0.66364 0.60028 0.0
C1331 C 0.14384 0.66125 0.56553 0.0
C1332 C 0.13498 0.63929 0.57451 0.0
C1333 C 0.16234 0.6733 0.57822 0.0
C1334 C 0.1626 0.64187 0.60959 0.0
C1335 C 0.13493 0.6065 0.60598 0.0
H1336 H 0.05684 0.4245 0.70472 0.0
H1337 H 0.08444 0.45304 0.68374 0.0
H1338 H 0.03705 0.39177 0.68147 0.0
H1339 H 0.07289 0.41493 0.61445 0.0
H1340 H 0.13642 0.66891 0.54867 0.0
H1341 H 0.12063 0.63012 0.56444 0.0
H1342 H 0.16909 0.69029 0.57094 0.0
H1343 H 0.16997 0.63435 0.62659 0.0
H1344 H 0.69533 0.46159 0.13982 0.0
H1345 H 0.73856 0.47017 0.13925 0.0
H1346 H 0.72881 0.51434 0.07396 0.0
H1347 H 0.68511 0.50653 0.07514 0.0
H1348 H 0.77496 0.46262 0.10796 0.0
H1349 H 0.76113 0.56171 0.11921 0.0
H1350 H 0.73698 0.54009 0.1226 0.0
H1351 H 0.74662 0.54944 0.09209 0.0
C1352 C 0.70232 0.47323 0.12536 0.0
C1353 C 0.6867 0.48394 0.10787 0.0
C1354 C 0.72714 0.47799 0.12497 0.0
C1355 C 0.73701 0.49331 0.10687 0.0
C1356 C 0.72159 0.50307 0.0886 0.0
H1357 H 0.87849 0.56258 0.10361 0.0
H1358 H 0.84296 0.54097 0.08734 0.0
C1359 C 0.69661 0.49865 0.08927 0.0
C1360 C 0.76316 0.4999 0.10803 0.0
H1361 H 0.80111 0.54842 0.11396 0.0
C1362 C 0.7807 0.4814 0.10906 0.0
C1363 C 0.77075 0.52436 0.10985 0.0
C1364 C 0.75291 0.54505 0.11114 0.0
C1365 C 0.8055 0.48675 0.11193 0.0
C1366 C 0.81296 0.51125 0.11368 0.0
C1367 C 0.79548 0.52966 0.1121 0.0
C1368 C 0.83816 0.51865 0.11996 0.0
C1369 C 0.82341 0.46615 0.11331 0.0
C1370 C 0.84798 0.51248 0.14317 0.0
C1371 C 0.86819 0.52484 0.15245 0.0
C1372 C 0.87897 0.54358 0.13871 0.0
C1373 C 0.87065 0.54809 0.11449 0.0
C1374 C 0.85029 0.53581 0.10525 0.0
H1375 H 0.81643 0.44967 0.10374 0.0
H1376 H 0.84105 0.47123 0.10494 0.0
H1377 H 0.82653 0.4615 0.13312 0.0
H1378 H 0.83881 0.49964 0.15507 0.0
H1379 H 0.87428 0.52104 0.1712 0.0
H1380 H 0.0492 0.69513 0.13586 0.0
H1381 H 0.0399 0.73843 0.13526 0.0
H1382 H 0.98664 0.72592 0.0779 0.0
H1383 H 0.99564 0.68244 0.07876 0.0
H1384 H 0.04073 0.77462 0.10048 0.0
H1385 H 0.94665 0.75768 0.13163 0.0
H1386 H 0.96939 0.73424 0.13106 0.0
H1387 H 0.95395 0.74277 0.10287 0.0
C1388 C 0.03556 0.70157 0.12303 0.0
C1389 C 0.02264 0.6852 0.10783 0.0
C1390 C 0.03033 0.72641 0.12265 0.0
C1391 C 0.0122 0.73547 0.10691 0.0
C1392 C 1.00025 0.71933 0.0907 0.0
H1393 H 0.93655 0.87357 0.10316 0.0
H1394 H 0.95717 0.83688 0.08805 0.0
C1395 C 0.00532 0.69444 0.09126 0.0
C1396 C 0.00486 0.76146 0.10852 0.0
H1397 H 0.95631 0.79793 0.121 0.0
C1398 C 0.02225 0.77974 0.10486 0.0
C1399 C 0.98086 0.76824 0.11461 0.0
C1400 C 0.96168 0.74972 0.12056 0.0
C1401 C 0.0161 0.80453 0.10679 0.0
C1402 C 0.99198 0.81116 0.11255 0.0
C1403 C 0.9747 0.79288 0.1161 0.0
C1404 C 0.98421 0.83666 0.11719 0.0
C1405 C 0.0354 0.82337 0.10259 0.0
C1406 C 0.99318 0.84936 0.13794 0.0
C1407 C 0.98136 0.87022 0.1466 0.0
C1408 C 0.96041 0.87884 0.13463 0.0
C1409 C 0.9528 0.86748 0.11255 0.0
C1410 C 0.96452 0.84646 0.10399 0.0
H1411 H 0.05081 0.81592 0.09168 0.0
H1412 H 0.02792 0.83936 0.09272 0.0
H1413 H 0.04249 0.8296 0.12085 0.0
H1414 H 0.00806 0.84203 0.14869 0.0
H1415 H 0.98748 0.8786 0.16376 0.0
H1416 H 0.62441 0.95823 0.07849 0.0
H1417 H 0.66127 0.98292 0.07585 0.0
H1418 H 0.66804 0.98129 0.15569 0.0
H1419 H 0.6313 0.95649 0.1583 0.0
H1420 H 0.68407 0.02704 0.10006 0.0
H1421 H 0.72407 0.93806 0.12616 0.0
H1422 H 0.69292 0.94113 0.11652 0.0
H1423 H 0.7019 0.95012 0.14733 0.0
C1424 C 0.6331 0.96423 0.09551 0.0
C1425 C 0.625 0.95564 0.11861 0.0
C1426 C 0.65423 0.97821 0.09399 0.0
C1427 C 0.66761 0.98356 0.11554 0.0
C1428 C 0.65805 0.97723 0.13882 0.0
H1429 H 0.8091 0.04722 0.13702 0.0
H1430 H 0.76586 0.03869 0.13645 0.0
C1431 C 0.63696 0.96325 0.14034 0.0
C1432 C 0.69325 0.99144 0.11338 0.0
H1433 H 0.75109 0.97048 0.12058 0.0
C1434 C 0.69874 0.01475 0.1046 0.0
C1435 C 0.71239 0.9752 0.1189 0.0
C1436 C 0.70766 0.94965 0.12757 0.0
C1437 C 0.72294 0.02232 0.10168 0.0
C1438 C 0.74196 0.00611 0.10756 0.0
C1439 C 0.73643 0.9828 0.11601 0.0
C1440 C 0.76783 0.01303 0.10597 0.0
C1441 C 0.72811 0.04742 0.09205 0.0
C1442 C 0.7834 1.00132 0.08907 0.0
C1443 C 0.8083 0.0062 0.08929 0.0
C1444 C 0.81808 0.0224 0.1068 0.0
C1445 C 0.80227 0.03449 0.1233 0.0
C1446 C 0.77746 0.02978 0.12295 0.0
H1447 H 0.71164 0.05622 0.08435 0.0
H1448 H 0.7351 0.05891 0.10747 0.0
H1449 H 0.74225 0.0467 0.07738 0.0
H1450 H 0.77629 0.98825 0.07584 0.0
H1451 H 0.81986 0.99736 0.07578 0.0
H1452 H 0.46171 0.81187 0.07078 0.0
H1453 H 0.4716 0.76819 0.07064 0.0
H1454 H 0.50222 0.77549 0.14415 0.0
H1455 H 0.49218 0.81854 0.1443 0.0
H1456 H 0.51664 0.74525 0.07551 0.0
H1457 H 0.4561 0.71868 0.15244 0.0
H1458 H 0.45367 0.74773 0.13731 0.0
H1459 H 0.47587 0.74298 0.16139 0.0
C1460 C 0.47047 0.80396 0.08685 0.0
C1461 C 0.47622 0.81844 0.10755 0.0
C1462 C 0.47611 0.77911 0.08679 0.0
C1463 C 0.4873 0.76844 0.10756 0.0
C1464 C 0.49309 0.78309 0.12814 0.0
H1465 H 0.57217 0.65011 0.15089 0.0
H1466 H 0.55531 0.68815 0.13485 0.0
C1467 C 0.48747 0.80777 0.12818 0.0
C1468 C 0.49375 0.74222 0.10777 0.0
H1469 H 0.48916 0.69127 0.1434 0.0
C1470 C 0.51028 0.73331 0.09007 0.0
C1471 C 0.48524 0.72647 0.12656 0.0
C1472 C 0.46653 0.7344 0.14533 0.0
C1473 C 0.51971 0.70963 0.09173 0.0
C1474 C 0.51245 0.69458 0.11154 0.0
C1475 C 0.49484 0.70293 0.1283 0.0
C1476 C 0.52462 0.67117 0.11689 0.0
C1477 C 0.53792 0.70095 0.07284 0.0
C1478 C 0.51321 0.64898 0.11161 0.0
C1479 C 0.523 0.62719 0.12054 0.0
C1480 C 0.5442 0.62738 0.13501 0.0
C1481 C 0.55609 0.64949 0.13934 0.0
C1482 C 0.54644 0.67118 0.13027 0.0
H1483 H 0.53934 0.71348 0.05679 0.0
H1484 H 0.55596 0.69946 0.08181 0.0
H1485 H 0.53286 0.68263 0.06591 0.0
H1486 H 0.49623 0.64864 0.10152 0.0
H1487 H 0.51331 0.61038 0.11738 0.0
H1488 H 0.89094 1.00209 0.36314 0.0
H1489 H 0.85272 0.01908 0.37879 0.0
H1490 H 0.82051 0.94784 0.37579 0.0
H1491 H 0.85901 0.93083 0.3613 0.0
H1492 H 0.81237 0.02139 0.35456 0.0
H1493 H 0.79296 0.97024 0.44005 0.0
H1494 H 0.82239 0.96951 0.42548 0.0
H1495 H 0.79854 0.94965 0.41484 0.0
C1496 C 0.87582 0.99005 0.36652 0.0
C1497 C 0.87788 0.96517 0.36124 0.0
C1498 C 0.85397 0.99974 0.37538 0.0
C1499 C 0.83364 0.98478 0.37883 0.0
C1500 C 0.83598 0.95975 0.3741 0.0
H1501 H 0.68422 0.99831 0.3586 0.0
H1502 H 0.72765 0.99021 0.36045 0.0
C1503 C 0.85796 0.95001 0.36565 0.0
C1504 C 0.80939 0.99559 0.38444 0.0
H1505 H 0.75796 0.98728 0.41881 0.0
C1506 C 0.80074 0.01425 0.36901 0.0
C1507 C 0.79408 0.98662 0.40346 0.0
C1508 C 0.80262 0.96809 0.42205 0.0
C1509 C 0.77686 0.02291 0.371 0.0
C1510 C 0.76116 0.01261 0.38873 0.0
C1511 C 0.77006 0.99502 0.4051 0.0
C1512 C 0.7348 0.01764 0.38838 0.0
C1513 C 0.7681 0.04235 0.35353 0.0
C1514 C 0.72439 0.0358 0.40338 0.0
C1515 C 0.69925 0.03977 0.40287 0.0
C1516 C 0.68432 0.02541 0.38759 0.0
C1517 C 0.69501 0.00806 0.37197 0.0
C1518 C 0.71992 0.00394 0.37257 0.0
H1519 H 0.78288 0.0495 0.34163 0.0
H1520 H 0.75363 0.03489 0.34138 0.0
H1521 H 0.7601 0.05756 0.36437 0.0
H1522 H 0.73568 0.04685 0.4154 0.0
H1523 H 0.69146 0.05388 0.41447 0.0
H1524 H 0.5212 0.8758 0.32547 0.0
H1525 H 0.50015 0.83917 0.33918 0.0
H1526 H 0.54222 0.83914 0.40668 0.0
H1527 H 0.56348 0.87594 0.39289 0.0
H1528 H 0.53514 0.79701 0.3502 0.0
H1529 H 0.46769 0.81688 0.42458 0.0
H1530 H 0.47407 0.8383 0.4001 0.0
H1531 H 0.4959 0.83341 0.4242 0.0
C1532 C 0.52527 0.86857 0.3437 0.0
C1533 C 0.54397 0.8788 0.35813 0.0
C1534 C 0.51327 0.84757 0.35149 0.0
C1535 C 0.51959 0.83634 0.37394 0.0
C1536 C 0.53684 0.84762 0.38941 0.0
H1537 H 0.50505 0.68476 0.42017 0.0
H1538 H 0.51486 0.72828 0.41865 0.0
C1539 C 0.54891 0.86873 0.38158 0.0
C1540 C 0.51154 0.81095 0.3787 0.0
H1541 H 0.47391 0.77564 0.41389 0.0
C1542 C 0.52175 0.79238 0.36413 0.0
C1543 C 0.49407 0.8049 0.39688 0.0
C1544 C 0.48211 0.82431 0.4124 0.0
C1545 C 0.51513 0.76799 0.36732 0.0
C1546 C 0.4978 0.76185 0.38554 0.0
C1547 C 0.48741 0.78037 0.40012 0.0
C1548 C 0.48995 0.73623 0.38872 0.0
C1549 C 0.52703 0.74871 0.35154 0.0
C1550 C 0.47252 0.72634 0.37267 0.0
C1551 C 0.4673 0.70153 0.37317 0.0
C1552 C 0.4795 0.6859 0.38965 0.0
C1553 C 0.49601 0.69608 0.40666 0.0
C1554 C 0.50135 0.72101 0.40606 0.0
H1555 H 0.5399 0.7564 0.33782 0.0
H1556 H 0.53696 0.73605 0.36383 0.0
H1557 H 0.51312 0.738 0.34142 0.0
H1558 H 0.46351 0.73772 0.35914 0.0
H1559 H 0.45426 0.69448 0.35994 0.0
H1560 H 0.62347 0.53717 0.35007 0.0
H1561 H 0.65799 0.50929 0.3537 0.0
H1562 H 0.67252 0.53696 0.42742 0.0
H1563 H 0.63809 0.5646 0.42379 0.0
H1564 H 0.70226 0.53036 0.35819 0.0
H1565 H 0.69009 0.46598 0.43566 0.0
H1566 H 0.66495 0.48165 0.42138 0.0
H1567 H 0.68311 0.49655 0.4447 0.0
C1568 C 0.63341 0.5364 0.36743 0.0
C1569 C 0.62824 0.55285 0.3867 0.0
C1570 C 0.65314 0.52059 0.36948 0.0
C1571 C 0.66778 0.52092 0.3909 0.0
C1572 C 0.66126 0.53596 0.41095 0.0
H1573 H 0.81977 0.50708 0.42064 0.0
H1574 H 0.77606 0.51549 0.42164 0.0
C1575 C 0.64166 0.55183 0.40884 0.0
C1576 C 0.69219 0.50968 0.39045 0.0
H1577 H 0.7316 0.475 0.42414 0.0
C1578 C 0.70845 0.51773 0.37223 0.0
C1579 C 0.70046 0.49367 0.40914 0.0
C1580 C 0.68364 0.48379 0.42868 0.0
C1581 C 0.73289 0.511 0.37273 0.0
C1582 C 0.74132 0.49567 0.39181 0.0
C1583 C 0.72503 0.48693 0.40964 0.0
C1584 C 0.76717 0.48895 0.39331 0.0
C1585 C 0.75 0.52194 0.35408 0.0
C1586 C 0.77643 0.4711 0.37733 0.0
C1587 C 0.8013 0.46682 0.37627 0.0
C1588 C 0.81741 0.48035 0.39113 0.0
C1589 C 0.80793 0.49726 0.40816 0.0
C1590 C 0.78297 0.5017 0.40909 0.0
H1591 H 0.7403 0.53108 0.33862 0.0
H1592 H 0.76133 0.53553 0.36386 0.0
H1593 H 0.76229 0.50802 0.34615 0.0
H1594 H 0.76447 0.46109 0.36502 0.0
H1595 H 0.8079 0.45337 0.36324 0.0
H1596 H 0.00294 0.81841 0.35173 0.0
H1597 H 0.99241 0.77572 0.35378 0.0
H1598 H 0.03484 0.76897 0.42094 0.0
H1599 H 0.04248 0.81293 0.4204 0.0
H1600 H 0.01772 0.73856 0.34978 0.0
H1601 H 0.97787 0.73361 0.44462 0.0
H1602 H 0.9849 0.76217 0.43015 0.0
H1603 H 0.00859 0.74397 0.44358 0.0
C1604 C 0.00884 0.80809 0.36761 0.0
C1605 C 0.02193 0.81916 0.3868 0.0
C1606 C 0.00339 0.78346 0.36851 0.0
C1607 C 0.01214 0.76895 0.38798 0.0
C1608 C 0.02678 0.77979 0.4064 0.0
H1609 H 0.99496 0.61345 0.35906 0.0
H1610 H 0.01311 0.65114 0.37479 0.0
C1611 C 0.03137 0.80483 0.40597 0.0
C1612 C 0.00632 0.74252 0.38792 0.0
H1613 H 0.97912 0.6973 0.42124 0.0
C1614 C 0.00935 0.72963 0.36551 0.0
C1615 C 0.99557 0.73058 0.40847 0.0
C1616 C 0.99134 0.7433 0.43301 0.0
C1617 C 1.00077 0.70588 0.36257 0.0
C1618 C 0.98978 0.69407 0.38292 0.0
C1619 C 0.98765 0.70641 0.40572 0.0
C1620 C 0.97889 0.66961 0.37983 0.0
C1621 C 0.00243 0.69407 0.33722 0.0
C1622 C 0.9536 0.66707 0.37877 0.0
C1623 C 0.94321 0.64546 0.37002 0.0
C1624 C 0.95801 0.62614 0.36222 0.0
C1625 C 0.98321 0.62806 0.36515 0.0
C1626 C 0.99357 0.64958 0.37404 0.0
H1627 H 0.0059 0.70759 0.32243 0.0
H1628 H 0.0175 0.68074 0.33717 0.0
H1629 H 0.98545 0.68428 0.33255 0.0
H1630 H 0.94197 0.68239 0.38296 0.0
H1631 H 0.92377 0.64452 0.36754 0.0
H1632 H 0.14398 0.42662 0.85905 0.0
H1633 H 0.18297 0.44387 0.87231 0.0
H1634 H 0.15088 0.51509 0.87525 0.0
H1635 H 0.11191 0.49791 0.86152 0.0
H1636 H 0.2019 0.49125 0.83989 0.0
H1637 H 0.19724 0.49845 0.94319 0.0
H1638 H 0.18159 0.4742 0.92714 0.0
H1639 H 0.17116 0.50478 0.92398 0.0
C1640 C 0.14514 0.44585 0.86313 0.0
C1641 C 0.125 0.46096 0.85933 0.0
C1642 C 0.16737 0.45569 0.87065 0.0
C1643 C 0.16977 0.48073 0.87488 0.0
C1644 C 0.14938 0.49571 0.87223 0.0
H1645 H 0.30925 0.55617 0.87128 0.0
H1646 H 0.26588 0.5484 0.87105 0.0
C1647 C 0.12719 0.48591 0.86438 0.0
C1648 C 0.19419 0.49128 0.87906 0.0
H1649 H 0.23479 0.50736 0.92429 0.0
C1650 C 0.20906 0.49498 0.85831 0.0
C1651 C 0.20331 0.49635 0.90309 0.0
C1652 C 0.18762 0.49334 0.92578 0.0
C1653 C 0.23314 0.50279 0.86096 0.0
C1654 C 0.24266 0.50697 0.88507 0.0
C1655 C 0.22754 0.50394 0.90585 0.0
C1656 C 0.26859 0.5134 0.88878 0.0
C1657 C 0.24849 0.5057 0.83794 0.0
C1658 C 0.28454 0.49697 0.90018 0.0
C1659 C 0.30952 0.50157 0.90075 0.0
C1660 C 0.31908 0.52243 0.88954 0.0
C1661 C 0.30278 0.53958 0.87963 0.0
C1662 C 0.27786 0.53515 0.87937 0.0
H1663 H 0.2395 0.49831 0.82104 0.0
H1664 H 0.25202 0.52525 0.83486 0.0
H1665 H 0.26624 0.49651 0.84032 0.0
H1666 H 0.27776 0.4802 0.90791 0.0
H1667 H 0.3213 0.48868 0.90966 0.0
H1668 H 0.9748 0.31416 0.9289 0.0
H1669 H 0.98416 0.27039 0.93065 0.0
H1670 H 0.99824 0.27025 0.85178 0.0
H1671 H 0.98948 0.31356 0.85025 0.0
H1672 H 0.96345 0.22852 0.90197 0.0
H1673 H 0.06102 0.24422 0.88401 0.0
H1674 H 0.04078 0.2673 0.8958 0.0
H1675 H 0.04077 0.25958 0.86317 0.0
C1676 C 0.97987 0.30463 0.91202 0.0
C1677 C 0.98121 0.31709 0.88936 0.0
C1678 C 0.98502 0.27968 0.91298 0.0
C1679 C 0.99181 0.267 0.89131 0.0
C1680 C 0.99298 0.27957 0.86871 0.0
H1681 H 0.01004 0.12317 0.83897 0.0
H1682 H 0.99172 0.16007 0.85561 0.0
C1683 C 0.98782 0.30433 0.8678 0.0
C1684 C 0.99909 0.241 0.89219 0.0
H1685 H 0.04716 0.20397 0.87982 0.0
C1686 C 0.98181 0.22308 0.89746 0.0
C1687 C 0.02306 0.23386 0.88663 0.0
C1688 C 0.04264 0.25221 0.88223 0.0
C1689 C 0.98778 0.1982 0.89623 0.0
C1690 C 0.01158 0.19118 0.88941 0.0
C1691 C 0.02894 0.2092 0.88513 0.0
C1692 C 0.01877 0.16559 0.8842 0.0
C1693 C 0.96861 0.17968 0.90211 0.0
C1694 C 0.03979 0.15582 0.89512 0.0
C1695 C 0.05057 0.13479 0.88533 0.0
C1696 C 0.0406 0.12329 0.86431 0.0
C1697 C 0.01832 0.13179 0.85501 0.0
C1698 C 0.00762 0.15279 0.86472 0.0
H1699 H 0.95416 0.18752 0.91409 0.0
H1700 H 0.96006 0.17341 0.88454 0.0
H1701 H 0.97656 0.16369 0.91158 0.0
H1702 H 0.04879 0.16542 0.91013 0.0
H1703 H 0.06772 0.12878 0.89289 0.0
H1704 H 0.18726 0.00894 0.92376 0.0
H1705 H 0.23104 0.01735 0.92371 0.0
H1706 H 0.24146 0.96251 0.86732 0.0
H1707 H 0.19818 0.95463 0.86665 0.0
H1708 H 0.27574 0.97616 0.92509 0.0
H1709 H 0.26443 0.03497 0.84179 0.0
H1710 H 0.24035 0.03076 0.86408 0.0
H1711 H 0.2484 0.00656 0.84342 0.0
C1712 C 0.19887 0.99902 0.91113 0.0
C1713 C 0.18907 0.98193 0.89453 0.0
C1714 C 0.22387 0.00346 0.91145 0.0
C1715 C 0.23935 0.99056 0.89542 0.0
C1716 C 0.22978 0.97261 0.87982 0.0
H1717 H 0.38185 0.03784 0.8472 0.0
H1718 H 0.34681 0.01078 0.85134 0.0
C1719 C 0.20495 0.96823 0.87948 0.0
C1720 C 0.26519 0.99714 0.89323 0.0
H1721 H 0.30367 0.03067 0.85784 0.0
C1722 C 0.28196 0.98806 0.91042 0.0
C1723 C 0.27323 0.01205 0.87367 0.0
C1724 C 0.25579 0.02181 0.85458 0.0
C1725 C 0.30666 0.99413 0.90887 0.0
C1726 C 0.31455 0.01012 0.88999 0.0
C1727 C 0.29775 0.0184 0.87231 0.0
C1728 C 0.33926 0.02083 0.88955 0.0
C1729 C 0.32403 0.98326 0.92737 0.0
C1730 C 0.34734 0.03464 0.90995 0.0
C1731 C 0.36731 0.05 0.90757 0.0
C1732 C 0.37959 0.05178 0.88479 0.0
C1733 C 0.37286 0.03648 0.86504 0.0
C1734 C 0.35278 0.02115 0.86737 0.0
H1735 H 0.31766 0.96519 0.93365 0.0
H1736 H 0.34248 0.98127 0.91941 0.0
H1737 H 0.32509 0.99523 0.94399 0.0
H1738 H 0.33704 0.03514 0.92707 0.0
H1739 H 0.37205 0.06186 0.92294 0.0
H1740 H 0.54208 0.19105 0.92327 0.0
H1741 H 0.5327 0.23486 0.92476 0.0
H1742 H 0.49969 0.22954 0.85222 0.0
H1743 H 0.50928 0.18634 0.85071 0.0
H1744 H 0.54484 0.27422 0.89027 0.0
H1745 H 0.44606 0.25859 0.89728 0.0
H1746 H 0.46798 0.23484 0.90252 0.0
H1747 H 0.45977 0.24335 0.87131 0.0
C1748 C 0.53267 0.19934 0.90781 0.0
C1749 C 0.52554 0.18522 0.88726 0.0
C1750 C 0.52745 0.22432 0.90858 0.0
C1751 C 0.51504 0.23544 0.88881 0.0
C1752 C 0.50876 0.22136 0.86795 0.0
H1753 H 0.48345 0.37237 0.8282 0.0
H1754 H 0.50534 0.33688 0.84361 0.0
C1755 C 0.51404 0.19659 0.86718 0.0
C1756 C 0.50797 0.26153 0.88981 0.0
H1757 H 0.45844 0.29839 0.88541 0.0
C1758 C 0.52595 0.27957 0.8896 0.0
C1759 C 0.48335 0.26862 0.88929 0.0
C1760 C 0.46315 0.25032 0.89037 0.0
C1761 C 0.51987 0.30436 0.88747 0.0
C1762 C 0.49523 0.31121 0.88544 0.0
C1763 C 0.47734 0.29324 0.88698 0.0
C1764 C 0.48727 0.33634 0.87929 0.0
C1765 C 0.53979 0.32301 0.88713 0.0
C1766 C 0.47041 0.34852 0.89451 0.0
C1767 C 0.45799 0.369 0.88575 0.0
C1768 C 0.46197 0.3774 0.86148 0.0
C1769 C 0.4802 0.36638 0.84706 0.0
C1770 C 0.49278 0.3461 0.85591 0.0
H1771 H 0.55675 0.31586 0.89547 0.0
H1772 H 0.54365 0.3281 0.8676 0.0
H1773 H 0.53425 0.33965 0.89738 0.0
H1774 H 0.46569 0.34122 0.91253 0.0
H1775 H 0.44383 0.37694 0.8971 0.0
H1776 H 0.11922 0.00598 0.65041 0.0
H1777 H 0.15826 0.99011 0.6359 0.0
H1778 H 0.17579 0.06002 0.60545 0.0
H1779 H 0.13684 0.07609 0.61997 0.0
H1780 H 0.18598 0.99147 0.58562 0.0
H1781 H 0.22551 0.04341 0.66473 0.0
H1782 H 0.19378 0.03578 0.66299 0.0
H1783 H 0.20556 0.06019 0.64466 0.0
C1784 C 0.13123 0.0179 0.64029 0.0
C1785 C 0.12504 0.04244 0.63672 0.0
C1786 C 0.15346 0.00872 0.63184 0.0
C1787 C 0.17003 0.02394 0.61982 0.0
C1788 C 0.16327 0.04799 0.61475 0.0
H1789 H 0.32259 0.01516 0.58153 0.0
H1790 H 0.27913 0.02458 0.58198 0.0
C1791 C 0.14096 0.05713 0.62302 0.0
C1792 C 0.1954 0.01577 0.6156 0.0
H1793 H 0.25295 0.02431 0.63739 0.0
C1794 C 0.20064 0.99865 0.59688 0.0
C1795 C 0.21445 0.02475 0.63066 0.0
C1796 C 0.20967 0.04189 0.65206 0.0
C1797 C 0.22462 0.99087 0.59248 0.0
C1798 C 0.24364 1.00057 0.60704 0.0
C1799 C 0.23832 0.01728 0.62597 0.0
C1800 C 0.26927 0.99321 0.60371 0.0
C1801 C 0.22968 0.97244 0.57234 0.0
C1802 C 0.27803 0.97235 0.61542 0.0
C1803 C 0.30288 0.9675 0.6159 0.0
C1804 C 0.31956 0.98356 0.6049 0.0
C1805 C 0.31047 0.00339 0.59153 0.0
C1806 C 0.28559 0.00845 0.59131 0.0
H1807 H 0.21315 0.96761 0.56164 0.0
H1808 H 0.24354 0.97958 0.55935 0.0
H1809 H 0.2372 0.95572 0.58081 0.0
H1810 H 0.26574 0.96032 0.62506 0.0
H1811 H 0.309 0.95154 0.62566 0.0
H1812 H 0.54573 0.30846 0.56904 0.0
H1813 H 0.53596 0.26467 0.56942 0.0
H1814 H 0.5019 0.27356 0.64105 0.0
H1815 H 0.51109 0.3167 0.64036 0.0
H1816 H 0.54659 0.22607 0.60474 0.0
H1817 H 0.44815 0.24393 0.59807 0.0
H1818 H 0.4706 0.26674 0.59134 0.0
H1819 H 0.46249 0.26006 0.62307 0.0
C1820 C 0.53613 0.30092 0.58476 0.0
C1821 C 0.52875 0.31604 0.60447 0.0
C1822 C 0.53065 0.27595 0.58505 0.0
C1823 C 0.51778 0.26581 0.60508 0.0
C1824 C 0.51138 0.28089 0.62514 0.0
H1825 H 0.4836 0.13143 0.67094 0.0
H1826 H 0.50607 0.16591 0.65418 0.0
C1827 C 0.5167 0.30564 0.62476 0.0
C1828 C 0.51008 0.23981 0.60511 0.0
H1829 H 0.45969 0.20448 0.61157 0.0
C1830 C 0.52759 0.22128 0.60585 0.0
C1831 C 0.48529 0.23337 0.60619 0.0
C1832 C 0.46551 0.25207 0.60437 0.0
C1833 C 0.52089 0.19675 0.60901 0.0
C1834 C 0.49611 0.19063 0.61163 0.0
C1835 C 0.47869 0.20904 0.6096 0.0
C1836 C 0.48753 0.16592 0.61872 0.0
C1837 C 0.54032 0.17757 0.60977 0.0
C1838 C 0.47013 0.15375 0.60413 0.0
C1839 C 0.45735 0.13384 0.61367 0.0
C1840 C 0.46149 0.12598 0.63813 0.0
C1841 C 0.48018 0.13699 0.65196 0.0
C1842 C 0.49311 0.15669 0.64233 0.0
H1843 H 0.55741 0.184 0.60113 0.0
H1844 H 0.54419 0.17288 0.62941 0.0
H1845 H 0.53427 0.16083 0.60002 0.0
H1846 H 0.46534 0.16064 0.58594 0.0
H1847 H 0.44288 0.12593 0.60272 0.0
H1848 H 0.18727 0.49917 0.57545 0.0
H1849 H 0.23087 0.48996 0.57588 0.0
H1850 H 0.24127 0.54222 0.63479 0.0
H1851 H 0.19796 0.55076 0.63512 0.0
H1852 H 0.27647 0.53467 0.58013 0.0
H1853 H 0.26328 0.4641 0.65279 0.0
H1854 H 0.241 0.4684 0.62864 0.0
H1855 H 0.24474 0.49109 0.65224 0.0
C1856 C 0.1988 0.5083 0.58875 0.0
C1857 C 0.18897 0.52487 0.60591 0.0
C1858 C 0.22372 0.50342 0.58866 0.0
C1859 C 0.23919 0.51544 0.60539 0.0
C1860 C 0.22962 0.53283 0.62169 0.0
H1861 H 0.37932 0.46285 0.65298 0.0
H1862 H 0.34409 0.48973 0.65032 0.0
C1863 C 0.2048 0.5376 0.62185 0.0
C1864 C 0.26503 0.50859 0.60731 0.0
H1865 H 0.30262 0.46956 0.63753 0.0
C1866 C 0.28232 0.52047 0.59266 0.0
C1867 C 0.27255 0.49054 0.62413 0.0
C1868 C 0.25457 0.4777 0.64051 0.0
C1869 C 0.30703 0.51426 0.59403 0.0
C1870 C 0.31445 0.49538 0.61012 0.0
C1871 C 0.29708 0.48408 0.62523 0.0
C1872 C 0.33957 0.48549 0.61052 0.0
C1873 C 0.32492 0.52812 0.57844 0.0
C1874 C 0.34967 0.47525 0.58888 0.0
C1875 C 0.37 0.46011 0.59041 0.0
C1876 C 0.3805 0.45497 0.61358 0.0
C1877 C 0.37179 0.46692 0.63487 0.0
C1878 C 0.35153 0.48211 0.63335 0.0
H1879 H 0.31829 0.54676 0.57455 0.0
H1880 H 0.34285 0.52938 0.58771 0.0
H1881 H 0.32727 0.51867 0.56033 0.0
H1882 H 0.34062 0.47716 0.57112 0.0
H1883 H 0.37613 0.45069 0.57383 0.0
H1884 H 0.00569 0.38689 0.64565 0.0
H1885 H 0.98942 0.34799 0.63094 0.0
H1886 H 0.05977 0.32836 0.60262 0.0
H1887 H 0.07614 0.36731 0.6172 0.0
H1888 H 0.99131 0.31986 0.58147 0.0
H1889 H 0.04098 0.27965 0.66138 0.0
H1890 H 0.03451 0.31167 0.65932 0.0
H1891 H 0.05847 0.29866 0.64107 0.0
C1892 C 0.01756 0.37448 0.63581 0.0
C1893 C 0.04225 0.38002 0.63281 0.0
C1894 C 0.00821 0.35233 0.62732 0.0
C1895 C 0.02345 0.33521 0.61594 0.0
C1896 C 0.04773 0.34133 0.61143 0.0
H1897 H 0.00603 0.1834 0.57535 0.0
H1898 H 0.01684 0.2266 0.57524 0.0
C1899 C 0.05705 0.36361 0.61969 0.0
C1900 C 0.01479 0.31 0.61179 0.0
H1901 H 0.02041 0.25257 0.63475 0.0
C1902 C 0.99773 0.30512 0.59301 0.0
C1903 C 0.02281 0.29088 0.62722 0.0
C1904 C 0.04005 0.29535 0.64854 0.0
C1905 C 0.98892 0.28143 0.58901 0.0
C1906 C 0.99743 0.26237 0.60411 0.0
C1907 C 0.01421 0.26728 0.62302 0.0
C1908 C 0.9888 0.23713 0.60119 0.0
C1909 C 0.97052 0.27672 0.56886 0.0
C1910 C 0.96908 0.22897 0.6152 0.0
C1911 C 0.96339 0.20428 0.61577 0.0
C1912 C 0.97776 0.18726 0.60286 0.0
C1913 C 0.99593 0.19584 0.58694 0.0
C1914 C 1.00175 0.22055 0.58646 0.0
H1915 H 0.96591 0.2934 0.55836 0.0
H1916 H 0.9776 0.26286 0.55568 0.0
H1917 H 0.95373 0.26929 0.57723 0.0
H1918 H 0.95878 0.24155 0.62658 0.0
H1919 H 0.94876 0.19844 0.62772 0.0
H1920 H 0.0731 0.67671 0.17588 0.0
H1921 H 0.07709 0.71148 0.2038 0.0
H1922 H 0.00468 0.69941 0.23089 0.0
H1923 H 1.00101 0.66394 0.204 0.0
H1924 H 0.05169 0.7529 0.20356 0.0
H1925 H 0.04142 0.70903 0.29479 0.0
H1926 H 0.04519 0.69177 0.26652 0.0
H1927 H 0.01565 0.7026 0.27549 0.0
C1928 C 0.0581 0.68109 0.18806 0.0
C1929 C 0.03643 0.6676 0.18717 0.0
C1930 C 0.0604 0.70117 0.20395 0.0
C1931 C 0.04122 0.70814 0.21954 0.0
C1932 C 0.01988 0.6943 0.21928 0.0
H1933 H 1.00003 0.84165 0.29147 0.0
H1934 H 0.00436 0.80581 0.26484 0.0
C1935 C 0.01763 0.67414 0.20351 0.0
C1936 C 0.04297 0.73055 0.23509 0.0
H1937 H 0.0345 0.75239 0.29412 0.0
C1938 C 0.04813 0.75272 0.2234 0.0
C1939 C 0.03883 0.73038 0.26109 0.0
C1940 C 0.03523 0.70711 0.27522 0.0
C1941 C 0.04813 0.77472 0.23679 0.0
C1942 C 0.04253 0.77462 0.26241 0.0
C1943 C 0.03833 0.75245 0.27433 0.0
C1944 C 0.04064 0.79737 0.27715 0.0
C1945 C 0.05406 0.79803 0.22362 0.0
C1946 C 0.05969 0.80468 0.29264 0.0
C1947 C 0.05708 0.8249 0.30825 0.0
C1948 C 0.03526 0.83829 0.30885 0.0
C1949 C 0.01668 0.8315 0.29231 0.0
C1950 C 0.01926 0.81113 0.2768 0.0
H1951 H 0.05949 0.79493 0.20396 0.0
H1952 H 0.03806 0.81021 0.22399 0.0
H1953 H 0.06902 0.80749 0.23349 0.0
H1954 H 0.07642 0.7944 0.29306 0.0
H1955 H 0.07204 0.82952 0.32042 0.0
H1956 H 0.68264 0.07097 0.32834 0.0
H1957 H 0.7176 0.07333 0.30057 0.0
H1958 H 0.69332 0.00902 0.26205 0.0
H1959 H 0.65786 0.00715 0.28903 0.0
H1960 H 0.75401 0.04108 0.29495 0.0
H1961 H 0.70819 0.05262 0.2043 0.0
H1962 H 0.69247 0.05618 0.2335 0.0
H1963 H 0.69756 0.02641 0.22057 0.0
C1964 C 0.68442 0.05759 0.31363 0.0
C1965 C 0.66739 0.03874 0.31108 0.0
C1966 C 0.70457 0.05888 0.29785 0.0
C1967 C 0.70809 0.04151 0.27897 0.0
C1968 C 0.69089 0.02293 0.27611 0.0
H1969 H 0.81677 1.00193 0.17136 0.0
H1970 H 0.78262 0.00494 0.19986 0.0
C1971 C 0.67071 0.02167 0.29184 0.0
C1972 C 0.73033 0.04203 0.26317 0.0
H1973 H 0.74989 0.04109 0.20285 0.0
C1974 C 0.75312 0.04131 0.27482 0.0
C1975 C 0.72926 0.04246 0.23685 0.0
C1976 C 0.70556 0.04471 0.22307 0.0
C1977 C 0.77473 0.03999 0.26096 0.0
C1978 C 0.77361 0.03973 0.23463 0.0
C1979 C 0.75083 0.04106 0.223 0.0
C1980 C 0.79561 0.0372 0.21865 0.0
C1981 C 0.79846 0.03803 0.27472 0.0
C1982 C 0.81457 0.05422 0.21962 0.0
C1983 C 0.83455 0.05211 0.20358 0.0
C1984 C 0.83598 0.03299 0.18621 0.0
C1985 C 0.81694 0.0161 0.1853 0.0
C1986 C 0.79709 0.01813 0.20131 0.0
H1987 H 0.79584 0.03224 0.2943 0.0
H1988 H 0.8108 0.02495 0.26537 0.0
H1989 H 0.80741 0.05603 0.27502 0.0
H1990 H 0.81368 0.06945 0.23237 0.0
H1991 H 0.84872 0.06552 0.20472 0.0
H1992 H 0.49963 0.83645 0.19522 0.0
H1993 H 0.49655 0.80204 0.22298 0.0
H1994 H 0.41953 0.79939 0.21011 0.0
H1995 H 0.42294 0.83309 0.18101 0.0
H1996 H 0.47612 0.7929 0.2644 0.0
H1997 H 0.43363 0.73098 0.19566 0.0
H1998 H 0.44325 0.76109 0.18743 0.0
H1999 H 0.41478 0.75649 0.20297 0.0
C2000 C 0.4821 0.82862 0.19806 0.0
C2001 C 0.46183 0.83753 0.18518 0.0
C2002 C 0.48025 0.80879 0.21417 0.0
C2003 C 0.45789 0.79731 0.21829 0.0
C2004 C 0.43723 0.80709 0.20668 0.0
H2005 H 0.42616 0.66983 0.31247 0.0
H2006 H 0.42208 0.70577 0.28608 0.0
C2007 C 0.4392 0.8267 0.19016 0.0
C2008 C 0.4566 0.77527 0.23468 0.0
H2009 H 0.43833 0.71583 0.23665 0.0
C2010 C 0.46785 0.7761 0.25818 0.0
C2011 C 0.44564 0.75314 0.22697 0.0
C2012 C 0.43385 0.75025 0.2018 0.0
C2013 C 0.46877 0.75568 0.27382 0.0
C2014 C 0.45834 0.7335 0.26584 0.0
C2015 C 0.44641 0.73276 0.24277 0.0
C2016 C 0.46056 0.71075 0.2808 0.0
C2017 C 0.48095 0.75807 0.29885 0.0
C2018 C 0.48348 0.70103 0.28612 0.0
C2019 C 0.48588 0.68046 0.3011 0.0
C2020 C 0.46545 0.6688 0.31117 0.0
C2021 C 0.4424 0.67813 0.30512 0.0
C2022 C 0.44 0.69878 0.29002 0.0
H2023 H 0.48172 0.77725 0.30522 0.0
H2024 H 0.47143 0.74722 0.31316 0.0
H2025 H 0.49982 0.75128 0.29737 0.0
H2026 H 0.49965 0.70958 0.27892 0.0
H2027 H 0.5039 0.67425 0.30533 0.0
H2028 H 0.67224 0.5094 0.19551 0.0
H2029 H 0.70786 0.50518 0.22144 0.0
H2030 H 0.70455 0.42751 0.21262 0.0
H2031 H 0.66999 0.43182 0.18486 0.0
H2032 H 0.71706 0.48524 0.26369 0.0
H2033 H 0.773 0.4369 0.19342 0.0
H2034 H 0.74399 0.44993 0.18584 0.0
H2035 H 0.74576 0.42112 0.20137 0.0
C2036 C 0.67903 0.49146 0.19872 0.0
C2037 C 0.66817 0.47118 0.18737 0.0
C2038 C 0.69951 0.48899 0.21384 0.0
C2039 C 0.70956 0.46606 0.21851 0.0
C2040 C 0.69787 0.44553 0.20861 0.0
H2041 H 0.8239 0.43312 0.32568 0.0
H2042 H 0.78891 0.4309 0.29799 0.0
C2043 C 0.67767 0.44806 0.193 0.0
C2044 C 0.73216 0.46396 0.23375 0.0
H2045 H 0.79026 0.44197 0.23356 0.0
C2046 C 0.73302 0.47579 0.25698 0.0
C2047 C 0.75318 0.45163 0.22515 0.0
C2048 C 0.75408 0.43937 0.2 0.0
C2049 C 0.75412 0.47577 0.27163 0.0
C2050 C 0.77498 0.46353 0.26302 0.0
C2051 C 0.7742 0.45138 0.24006 0.0
C2052 C 0.79773 0.46349 0.27784 0.0
C2053 C 0.75416 0.48894 0.29626 0.0
C2054 C 0.81477 0.48217 0.27518 0.0
C2055 C 0.83496 0.48351 0.29101 0.0
C2056 C 0.83829 0.46645 0.3101 0.0
C2057 C 0.82186 0.44692 0.31158 0.0
C2058 C 0.80176 0.44556 0.29574 0.0
H2059 H 0.73639 0.49746 0.30051 0.0
H2060 H 0.75877 0.47608 0.31137 0.0
H2061 H 0.76828 0.50328 0.29616 0.0
H2062 H 0.81214 0.49604 0.26125 0.0
H2063 H 0.84776 0.49808 0.28842 0.0
H2064 H 0.95557 0.14775 0.71534 0.0
H2065 H 0.95312 0.18315 0.74356 0.0
H2066 H 0.98262 0.22854 0.68599 0.0
H2067 H 0.98556 0.19329 0.65836 0.0
H2068 H 0.99184 0.21672 0.75903 0.0
H2069 H 0.91828 0.26291 0.7071 0.0
H2070 H 0.92446 0.23087 0.70388 0.0
H2071 H 0.9432 0.25262 0.68829 0.0
C2072 C 0.96147 0.16533 0.70882 0.0
C2073 C 0.9702 0.16802 0.68446 0.0
C2074 C 0.96009 0.18551 0.7249 0.0
C2075 C 0.96721 0.20865 0.71673 0.0
C2076 C 0.97646 0.21106 0.69257 0.0
H2077 H 0.99385 0.34923 0.78594 0.0
H2078 H 0.99278 0.31346 0.75849 0.0
C2079 C 0.97797 0.19096 0.67669 0.0
C2080 C 0.96534 0.23037 0.73329 0.0
H2081 H 0.93844 0.2862 0.73822 0.0
C2082 C 0.98007 0.23183 0.75456 0.0
C2083 C 0.94988 0.2501 0.72754 0.0
C2084 C 0.93287 0.2491 0.70559 0.0
C2085 C 0.98021 0.25272 0.76977 0.0
C2086 C 0.96525 0.27263 0.76363 0.0
C2087 C 0.95014 0.27102 0.7427 0.0
C2088 C 0.96482 0.29503 0.7792 0.0
C2089 C 0.99638 0.25358 0.79238 0.0
C2090 C 0.94911 0.29677 0.79958 0.0
C2091 C 0.94977 0.31707 0.81533 0.0
C2092 C 0.96638 0.33604 0.81122 0.0
C2093 C 0.98137 0.33471 0.7901 0.0
C2094 C 0.98065 0.31436 0.77428 0.0
H2095 H 0.00773 0.23703 0.79414 0.0
H2096 H 0.00839 0.26969 0.7915 0.0
H2097 H 0.98507 0.25548 0.80933 0.0
H2098 H 0.93673 0.2821 0.80367 0.0
H2099 H 0.93795 0.31734 0.83139 0.0
H2100 H 0.31887 0.93989 0.66652 0.0
H2101 H 0.28344 0.93905 0.69333 0.0
H2102 H 0.31585 0.99344 0.74074 0.0
H2103 H 0.35097 0.99531 0.713 0.0
H2104 H 0.27494 0.9284 0.73928 0.0
H2105 H 0.2529 0.02556 0.72674 0.0
H2106 H 0.27604 0.01053 0.70875 0.0
H2107 H 0.28245 0.02129 0.73976 0.0
C2108 C 0.31846 0.95182 0.68256 0.0
C2109 C 0.33734 0.96838 0.68711 0.0
C2110 C 0.29817 0.95123 0.69797 0.0
C2111 C 0.29651 0.96678 0.71861 0.0
C2112 C 0.31619 0.98203 0.7243 0.0
H2113 H 0.19458 0.99503 0.83481 0.0
H2114 H 0.22835 0.99258 0.80575 0.0
C2115 C 0.33631 0.98303 0.70851 0.0
C2116 C 0.27409 0.96709 0.7339 0.0
H2117 H 0.23072 0.00465 0.75786 0.0
C2118 C 0.26519 0.94506 0.74325 0.0
C2119 C 0.26109 0.98876 0.73871 0.0
C2120 C 0.26846 0.01281 0.72774 0.0
C2121 C 0.24427 0.94424 0.75809 0.0
C2122 C 0.23182 0.96605 0.76362 0.0
C2123 C 0.24038 0.98796 0.75377 0.0
C2124 C 0.21089 0.96701 0.78094 0.0
C2125 C 0.23615 0.92012 0.76825 0.0
C2126 C 0.18958 0.9537 0.77651 0.0
C2127 C 0.17018 0.95502 0.79329 0.0
C2128 C 0.17175 0.96994 0.81447 0.0
C2129 C 0.19284 0.98354 0.81852 0.0
C2130 C 0.2122 0.98205 0.802 0.0
H2131 H 0.25074 0.90626 0.76722 0.0
H2132 H 0.23019 0.92189 0.78789 0.0
H2133 H 0.22062 0.91339 0.75709 0.0
H2134 H 0.18784 0.94254 0.75998 0.0
H2135 H 0.15389 0.94489 0.78933 0.0
H2136 H 0.55856 0.19237 0.83745 0.0
H2137 H 0.55706 0.22777 0.81046 0.0
H2138 H 0.53024 0.18277 0.75052 0.0
H2139 H 0.52875 0.14806 0.77873 0.0
H2140 H 0.5769 0.24333 0.7739 0.0
H2141 H 0.48264 0.23238 0.74098 0.0
H2142 H 0.49498 0.21326 0.76485 0.0
H2143 H 0.50054 0.20668 0.73238 0.0
C2144 C 0.55214 0.1901 0.81853 0.0
C2145 C 0.54344 0.16747 0.81035 0.0
C2146 C 0.55134 0.21043 0.80296 0.0
C2147 C 0.54277 0.20858 0.77832 0.0
C2148 C 0.53566 0.18543 0.76967 0.0
H2149 H 0.56801 0.31433 0.66142 0.0
H2150 H 0.56935 0.28055 0.6906 0.0
C2151 C 0.53525 0.16534 0.78569 0.0
C2152 C 0.54173 0.23077 0.76193 0.0
H2153 H 0.50672 0.26129 0.7195 0.0
C2154 C 0.56136 0.24716 0.76225 0.0
C2155 C 0.52143 0.23649 0.74666 0.0
C2156 C 0.49865 0.22139 0.7464 0.0
C2157 C 0.5614 0.26844 0.74779 0.0
C2158 C 0.54167 0.27338 0.73183 0.0
C2159 C 0.52195 0.25738 0.73159 0.0
C2160 C 0.54145 0.29476 0.7148 0.0
C2161 C 0.58233 0.28588 0.75 0.0
C2162 C 0.5253 0.31417 0.71857 0.0
C2163 C 0.52461 0.33376 0.70191 0.0
C2164 C 0.5398 0.33423 0.68092 0.0
C2165 C 0.55613 0.31483 0.67743 0.0
C2166 C 0.55691 0.29538 0.69411 0.0
H2167 H 0.59449 0.28133 0.76577 0.0
H2168 H 0.59308 0.28547 0.73257 0.0
H2169 H 0.57549 0.30467 0.75262 0.0
H2170 H 0.51325 0.3142 0.73446 0.0
H2171 H 0.51234 0.3486 0.70558 0.0
H2172 H 0.1914 0.50594 0.6657 0.0
H2173 H 0.22606 0.50794 0.69369 0.0
H2174 H 0.1941 0.56966 0.73075 0.0
H2175 H 0.15843 0.56612 0.70432 0.0
H2176 H 0.25862 0.54244 0.70001 0.0
H2177 H 0.21113 0.52952 0.78991 0.0
H2178 H 0.19642 0.52432 0.76041 0.0
H2179 H 0.19993 0.55469 0.77232 0.0
C2180 C 0.1911 0.51905 0.68067 0.0
C2181 C 0.17141 0.53497 0.68346 0.0
C2182 C 0.2113 0.52065 0.69627 0.0
C2183 C 0.21254 0.53857 0.71486 0.0
C2184 C 0.1933 0.55513 0.71715 0.0
H2185 H 0.32289 0.56914 0.82732 0.0
H2186 H 0.28905 0.57231 0.79826 0.0
C2187 C 0.1729 0.55327 0.70171 0.0
C2188 C 0.2343 0.54015 0.73123 0.0
H2189 H 0.25268 0.53943 0.79192 0.0
C2190 C 0.25729 0.5417 0.72012 0.0
C2191 C 0.23266 0.53935 0.75752 0.0
C2192 C 0.20874 0.53665 0.77077 0.0
C2193 C 0.27858 0.54239 0.73448 0.0
C2194 C 0.27692 0.54122 0.76071 0.0
C2195 C 0.25395 0.54022 0.77184 0.0
C2196 C 0.29868 0.54028 0.77705 0.0
C2197 C 0.30263 0.54468 0.72141 0.0
C2198 C 0.31553 0.52131 0.77477 0.0
C2199 C 0.33501 0.51949 0.79135 0.0
C2200 C 0.3379 0.53641 0.81078 0.0
C2201 C 0.3213 0.55574 0.81261 0.0
C2202 C 0.30184 0.55755 0.79604 0.0
H2203 H 0.30051 0.55263 0.70258 0.0
H2204 H 0.31539 0.55611 0.7323 0.0
H2205 H 0.31076 0.5264 0.71917 0.0
H2206 H 0.31332 0.50753 0.76052 0.0
H2207 H 0.34769 0.50475 0.78897 0.0
H2208 H 0.18922 0.66397 0.14364 0.0
H2209 H 0.21887 0.69288 0.1605 0.0
H2210 H 0.19518 0.74627 0.10728 0.0
H2211 H 0.16576 0.71744 0.0905 0.0
H2212 H 0.25264 0.70509 0.12369 0.0
H2213 H 0.21446 0.78793 0.1675 0.0
H2214 H 0.19821 0.7595 0.16628 0.0
H2215 H 0.19888 0.77904 0.1396 0.0
C2216 C 0.18986 0.68223 0.1363 0.0
C2217 C 0.17593 0.68866 0.11557 0.0
C2218 C 0.20657 0.69868 0.14598 0.0
C2219 C 0.20915 0.72156 0.13501 0.0
C2220 C 0.19321 0.72879 0.11615 0.0
H2221 H 0.31611 0.83008 0.1129 0.0
H2222 H 0.2865 0.79809 0.10384 0.0
C2223 C 0.17669 0.71231 0.10638 0.0
C2224 C 0.23177 0.73508 0.13822 0.0
H2225 H 0.25409 0.7915 0.14952 0.0
C2226 C 0.25313 0.72385 0.12984 0.0
C2227 C 0.23202 0.7596 0.1457 0.0
C2228 C 0.20969 0.77218 0.15549 0.0
C2229 C 0.27475 0.73685 0.12806 0.0
C2230 C 0.27483 0.76147 0.13498 0.0
C2231 C 0.25364 0.77259 0.14384 0.0
C2232 C 0.29702 0.7759 0.13511 0.0
C2233 C 0.29716 0.72454 0.11812 0.0
C2234 C 0.31328 0.77309 0.15487 0.0
C2235 C 0.32984 0.79137 0.16023 0.0
C2236 C 0.33033 0.81238 0.14571 0.0
C2237 C 0.31594 0.81391 0.12426 0.0
C2238 C 0.29913 0.79574 0.11908 0.0
H2239 H 0.29325 0.70614 0.11061 0.0
H2240 H 0.30537 0.73567 0.10319 0.0
H2241 H 0.3107 0.72286 0.13327 0.0
H2242 H 0.31164 0.7579 0.16746 0.0
H2243 H 0.34096 0.78996 0.17677 0.0
H2244 H 0.83321 0.18313 0.15397 0.0
H2245 H 0.80119 0.20976 0.17056 0.0
H2246 H 0.76884 0.21332 0.09759 0.0
H2247 H 0.80106 0.18733 0.08095 0.0
H2248 H 0.79569 0.25809 0.14684 0.0
H2249 H 0.71086 0.20462 0.14826 0.0
H2250 H 0.74051 0.1907 0.14992 0.0
H2251 H 0.72833 0.20011 0.12045 0.0
C2252 C 0.81905 0.18949 0.14167 0.0
C2253 C 0.81964 0.18387 0.11619 0.0
C2254 C 0.80078 0.20442 0.15115 0.0
C2255 C 0.78269 0.21321 0.13529 0.0
C2256 C 0.78255 0.20639 0.11012 0.0
H2257 H 0.70085 0.31826 0.0823 0.0
H2258 H 0.73346 0.29255 0.09854 0.0
C2259 C 0.80102 0.1919 0.10057 0.0
C2260 C 0.76627 0.23262 0.1435 0.0
H2261 H 0.70664 0.24788 0.14172 0.0
C2262 C 0.77617 0.25586 0.14666 0.0
C2263 C 0.74094 0.22949 0.14328 0.0
C2264 C 0.72951 0.20481 0.14052 0.0
C2265 C 0.76128 0.27642 0.14681 0.0
C2266 C 0.73609 0.27335 0.14415 0.0
C2267 C 0.72607 0.25002 0.14377 0.0
C2268 C 0.72032 0.29335 0.13646 0.0
C2269 C 0.77258 0.30126 0.14776 0.0
C2270 C 0.70266 0.30252 0.15265 0.0
C2271 C 0.6842 0.31727 0.14342 0.0
C2272 C 0.68303 0.32231 0.11789 0.0
C2273 C 0.70136 0.3141 0.10197 0.0
C2274 C 0.72003 0.29979 0.11126 0.0
H2275 H 0.79138 0.30063 0.15513 0.0
H2276 H 0.77316 0.30884 0.12868 0.0
H2277 H 0.76158 0.3137 0.1595 0.0
H2278 H 0.7026 0.29743 0.17208 0.0
H2279 H 0.67029 0.32386 0.15594 0.0
H2280 H 0.30836 0.68205 0.31033 0.0
H2281 H 0.28249 0.71825 0.31128 0.0
H2282 H 0.29424 0.72513 0.39033 0.0
H2283 H 0.32033 0.68913 0.38942 0.0
H2284 H 0.24271 0.70795 0.35782 0.0
H2285 H 0.28771 0.79771 0.34602 0.0
H2286 H 0.29886 0.77083 0.33033 0.0
H2287 H 0.30258 0.77394 0.36328 0.0
C2288 C 0.30571 0.69166 0.32774 0.0
C2289 C 0.31541 0.68271 0.34995 0.0
C2290 C 0.2914 0.71241 0.32818 0.0
C2291 C 0.2867 0.72409 0.35083 0.0
C2292 C 0.29809 0.71637 0.37268 0.0
H2293 H 0.17893 0.79943 0.42431 0.0
H2294 H 0.20536 0.76802 0.40703 0.0
C2295 C 0.3126 0.69575 0.37221 0.0
C2296 C 0.2653 0.73939 0.35285 0.0
H2297 H 0.24595 0.79778 0.35563 0.0
C2298 C 0.24322 0.72761 0.357 0.0
C2299 C 0.26647 0.76481 0.3517 0.0
C2300 C 0.29013 0.77776 0.34755 0.0
C2301 C 0.22204 0.74084 0.36091 0.0
C2302 C 0.22325 0.76635 0.36063 0.0
C2303 C 0.24522 0.77812 0.35547 0.0
C2304 C 0.20304 0.78128 0.36928 0.0
C2305 C 0.19877 0.72752 0.36606 0.0
C2306 C 0.19265 0.79851 0.35348 0.0
C2307 C 0.17761 0.81644 0.36333 0.0
C2308 C 0.17331 0.8174 0.38906 0.0
C2309 C 0.18241 0.79913 0.40448 0.0
C2310 C 0.19719 0.78111 0.39462 0.0
H2311 H 0.19955 0.70844 0.35931 0.0
H2312 H 0.19556 0.7272 0.38643 0.0
H2313 H 0.18318 0.73678 0.35715 0.0
H2314 H 0.19722 0.79883 0.33389 0.0
H2315 H 0.17063 0.83038 0.35113 0.0
H2316 H 0.84302 0.2926 0.38203 0.0
H2317 H 0.81478 0.26412 0.36233 0.0
H2318 H 0.76129 0.32087 0.35699 0.0
H2319 H 0.78976 0.34959 0.37613 0.0
H2320 H 0.75523 0.27917 0.39297 0.0
H2321 H 0.77234 0.25079 0.29511 0.0
H2322 H 0.7984 0.25716 0.3143 0.0
H2323 H 0.77804 0.28124 0.30638 0.0
C2324 C 0.82553 0.29911 0.37581 0.0
C2325 C 0.81824 0.323 0.38086 0.0
C2326 C 0.80959 0.283 0.36427 0.0
C2327 C 0.78611 0.29053 0.35803 0.0
C2328 C 0.77952 0.31492 0.36125 0.0
H2329 H 0.66436 0.19053 0.35936 0.0
H2330 H 0.6909 0.22177 0.34165 0.0
C2331 C 0.79564 0.33118 0.37239 0.0
C2332 C 0.76715 0.27196 0.35555 0.0
H2333 H 0.74824 0.22414 0.31994 0.0
C2334 C 0.75322 0.26752 0.37677 0.0
C2335 C 0.76491 0.25677 0.33447 0.0
C2336 C 0.77907 0.26169 0.31111 0.0
C2337 C 0.73797 0.24743 0.37804 0.0
C2338 C 0.73667 0.23138 0.35751 0.0
C2339 C 0.74955 0.23646 0.33567 0.0
C2340 C 0.72317 0.20856 0.35994 0.0
C2341 C 0.72438 0.24276 0.40192 0.0
C2342 C 0.73295 0.1903 0.37498 0.0
C2343 C 0.71784 0.17292 0.38544 0.0
C2344 C 0.69295 0.17338 0.38054 0.0
C2345 C 0.68361 0.18993 0.36323 0.0
C2346 C 0.69871 0.2076 0.35301 0.0
H2347 H 0.72384 0.25906 0.41414 0.0
H2348 H 0.70553 0.23691 0.398 0.0
H2349 H 0.73352 0.22797 0.41226 0.0
H2350 H 0.75176 0.19099 0.38066 0.0
H2351 H 0.72526 0.16025 0.39878 0.0
H2352 H 0.70738 0.16571 0.87722 0.0
H2353 H 0.7379 0.1972 0.88502 0.0
H2354 H 0.69469 0.24863 0.84411 0.0
H2355 H 0.66429 0.2171 0.83615 0.0
H2356 H 0.75553 0.21766 0.83525 0.0
H2357 H 0.72746 0.2865 0.906 0.0
H2358 H 0.71895 0.25495 0.90842 0.0
H2359 H 0.70478 0.27379 0.88559 0.0
C2360 C 0.70416 0.18399 0.8707 0.0
C2361 C 0.68401 0.18928 0.85587 0.0
C2362 C 0.72141 0.20186 0.87521 0.0
C2363 C 0.71835 0.225 0.86502 0.0
C2364 C 0.69706 0.23084 0.85222 0.0
H2365 H 0.81694 0.3444 0.85944 0.0
H2366 H 0.78586 0.31742 0.84217 0.0
C2367 C 0.67991 0.21293 0.84757 0.0
C2368 C 0.73928 0.24102 0.86286 0.0
H2369 H 0.76338 0.29391 0.88382 0.0
C2370 C 0.75735 0.23439 0.8458 0.0
C2371 C 0.74107 0.2628 0.87644 0.0
C2372 C 0.72214 0.27007 0.89526 0.0
C2373 C 0.77765 0.24904 0.8422 0.0
C2374 C 0.77974 0.27063 0.85613 0.0
C2375 C 0.76136 0.27747 0.87282 0.0
C2376 C 0.80218 0.28476 0.85674 0.0
C2377 C 0.79676 0.24132 0.82377 0.0
C2378 C 0.82226 0.27493 0.86906 0.0
C2379 C 0.83979 0.29025 0.87903 0.0
C2380 C 0.83733 0.31537 0.87649 0.0
C2381 C 0.81902 0.32496 0.8614 0.0
C2382 C 0.80138 0.30964 0.85155 0.0
H2383 H 0.78973 0.22762 0.81037 0.0
H2384 H 0.80364 0.25719 0.8133 0.0
H2385 H 0.81221 0.23314 0.83392 0.0
H2386 H 0.82294 0.2558 0.87351 0.0
H2387 H 0.85385 0.28273 0.89076 0.0
H2388 H 0.29001 0.67549 0.91423 0.0
H2389 H 0.26167 0.70462 0.89616 0.0
H2390 H 0.30859 0.71303 0.83273 0.0
H2391 H 0.33683 0.68317 0.85054 0.0
H2392 H 0.29809 0.75581 0.87063 0.0
H2393 H 0.21746 0.7114 0.8287 0.0
H2394 H 0.22983 0.69702 0.8559 0.0
H2395 H 0.24739 0.69798 0.82784 0.0
C2396 C 0.29382 0.68296 0.89605 0.0
C2397 C 0.31556 0.67747 0.88382 0.0
C2398 C 0.27762 0.69941 0.88568 0.0
C2399 C 0.28311 0.71082 0.86314 0.0
C2400 C 0.30404 0.70416 0.85003 0.0
H2401 H 0.1779 0.82895 0.84537 0.0
H2402 H 0.21142 0.80299 0.83097 0.0
C2403 C 0.3201 0.68725 0.86021 0.0
C2404 C 0.26956 0.73288 0.85666 0.0
H2405 H 0.21192 0.75157 0.84506 0.0
C2406 C 0.27948 0.75514 0.86419 0.0
C2407 C 0.2454 0.7318 0.84826 0.0
C2408 C 0.23433 0.7083 0.83951 0.0
C2409 C 0.26504 0.77596 0.86596 0.0
C2410 C 0.24022 0.77432 0.85988 0.0
C2411 C 0.23098 0.75269 0.84982 0.0
C2412 C 0.22273 0.79294 0.86803 0.0
C2413 C 0.27602 0.79904 0.87599 0.0
C2414 C 0.21822 0.79583 0.89357 0.0
C2415 C 0.19886 0.81003 0.90172 0.0
C2416 C 0.18394 0.82174 0.88446 0.0
C2417 C 0.18916 0.81985 0.85894 0.0
C2418 C 0.20829 0.80523 0.85074 0.0
H2419 H 0.29581 0.79972 0.87236 0.0
H2420 H 0.26731 0.81524 0.86766 0.0
H2421 H 0.27329 0.79981 0.89643 0.0
H2422 H 0.22903 0.78621 0.90715 0.0
H2423 H 0.19531 0.81159 0.92148 0.0
H2424 H 0.80372 0.15787 0.61437 0.0
H2425 H 0.77021 0.18325 0.62922 0.0
H2426 H 0.81966 0.24292 0.63993 0.0
H2427 H 0.85312 0.21761 0.62469 0.0
H2428 H 0.75687 0.21726 0.66861 0.0
H2429 H 0.77787 0.25942 0.57751 0.0
H2430 H 0.79142 0.23132 0.58746 0.0
H2431 H 0.80257 0.25977 0.59925 0.0
C2432 C 0.80748 0.1761 0.62091 0.0
C2433 C 0.83062 0.18614 0.61813 0.0
C2434 C 0.78843 0.19052 0.62939 0.0
C2435 C 0.7925 0.21503 0.63494 0.0
C2436 C 0.81625 0.22408 0.63534 0.0
H2437 H 0.713 0.34353 0.65245 0.0
H2438 H 0.74191 0.31136 0.64227 0.0
C2439 C 0.83529 0.20969 0.62674 0.0
C2440 C 0.77189 0.23194 0.63501 0.0
H2441 H 0.7472 0.27825 0.60167 0.0
C2442 C 0.75462 0.23056 0.654 0.0
C2443 C 0.7688 0.2487 0.61541 0.0
C2444 C 0.78599 0.24981 0.5936 0.0
C2445 C 0.73489 0.24657 0.65464 0.0
C2446 C 0.73244 0.26404 0.63561 0.0
C2447 C 0.74923 0.26477 0.61616 0.0
C2448 C 0.7145 0.2837 0.63738 0.0
C2449 C 0.71732 0.24533 0.67608 0.0
C2450 C 0.68956 0.2789 0.63666 0.0
C2451 C 0.67304 0.29733 0.64234 0.0
C2452 C 0.68148 0.3205 0.64884 0.0
C2453 C 0.70629 0.32563 0.64776 0.0
C2454 C 0.7227 0.30735 0.64192 0.0
H2455 H 0.72392 0.23333 0.69118 0.0
H2456 H 0.71399 0.26369 0.68395 0.0
H2457 H 0.69975 0.2381 0.6693 0.0
H2458 H 0.68298 0.26078 0.63275 0.0
H2459 H 0.65388 0.2932 0.643 0.0
H2460 H 0.3063 0.81358 0.57782 0.0
H2461 H 0.27431 0.78695 0.59361 0.0
H2462 H 0.2998 0.79851 0.66858 0.0
H2463 H 0.33144 0.82586 0.65284 0.0
H2464 H 0.29982 0.74679 0.64331 0.0
H2465 H 0.21217 0.79627 0.6441 0.0
H2466 H 0.23191 0.80272 0.61834 0.0
H2467 H 0.24094 0.81116 0.64928 0.0
C2468 C 0.30473 0.81072 0.59768 0.0
C2469 C 0.32139 0.82125 0.61416 0.0
C2470 C 0.2864 0.7958 0.60669 0.0
C2471 C 0.28476 0.79097 0.63222 0.0
C2472 C 0.30074 0.80231 0.64886 0.0
H2473 H 0.17243 0.68065 0.64807 0.0
H2474 H 0.20234 0.70867 0.66629 0.0
C2475 C 0.3188 0.81768 0.63987 0.0
C2476 C 0.26925 0.77088 0.6404 0.0
H2477 H 0.21031 0.75301 0.63994 0.0
C2478 C 0.28022 0.74816 0.64346 0.0
C2479 C 0.24381 0.7729 0.6407 0.0
C2480 C 0.2314 0.7971 0.63813 0.0
C2481 C 0.2663 0.72697 0.64418 0.0
C2482 C 0.24089 0.72876 0.64193 0.0
C2483 C 0.22984 0.75171 0.64164 0.0
C2484 C 0.22605 0.70779 0.63429 0.0
C2485 C 0.27899 0.7028 0.64545 0.0
C2486 C 0.22989 0.69772 0.6106 0.0
C2487 C 0.21279 0.68223 0.60011 0.0
C2488 C 0.19167 0.67643 0.61321 0.0
C2489 C 0.18865 0.68498 0.63768 0.0
C2490 C 0.20566 0.70086 0.64808 0.0
H2491 H 0.29651 0.70437 0.65552 0.0
H2492 H 0.26756 0.68902 0.65478 0.0
H2493 H 0.28295 0.69638 0.62628 0.0
H2494 H 0.24529 0.70319 0.59949 0.0
H2495 H 0.21549 0.67565 0.58129 0.0
H2496 H 0.99552 0.45722 0.8994 0.0
H2497 H 1.00134 0.48904 0.93064 0.0
H2498 H 0.97675 0.44041 0.98786 0.0
H2499 H 0.97065 0.40832 0.95643 0.0
H2500 H 0.96757 0.50928 0.96942 0.0
H2501 H 0.04941 0.46147 0.00474 0.0
H2502 H 0.03644 0.45515 0.97455 0.0
H2503 H 0.02213 0.44378 0.00206 0.0
C2504 C 0.99124 0.45335 0.91865 0.0
C2505 C 0.98307 0.43027 0.92572 0.0
C2506 C 0.99439 0.47157 0.93637 0.0
C2507 C 0.98976 0.46688 0.96146 0.0
C2508 C 0.98057 0.44418 0.9685 0.0
H2509 H 0.00956 0.54456 0.09757 0.0
H2510 H 0.003 0.51496 0.06422 0.0
C2511 C 0.9771 0.42596 0.95065 0.0
C2512 C 0.99633 0.48521 0.98033 0.0
H2513 H 0.03778 0.49735 0.02578 0.0
C2514 C 0.98291 0.50676 0.98175 0.0
C2515 C 0.01659 0.48187 0.99601 0.0
C2516 C 0.03217 0.45942 0.99428 0.0
C2517 C 0.98887 0.52489 -0.00088 0.0
C2518 C 0.00893 0.52136 0.01505 0.0
C2519 C 0.0225 0.49994 0.01338 0.0
C2520 C 0.01488 0.53888 0.03492 0.0
C2521 C 0.97339 0.5474 0.00084 0.0
C2522 C 0.02439 0.56184 0.0294 0.0
C2523 C 0.02836 0.57874 0.04849 0.0
C2524 C 0.02267 0.57278 0.07315 0.0
C2525 C 0.01392 0.54953 0.07862 0.0
C2526 C 0.01021 0.53265 0.05966 0.0
H2527 H 0.95668 0.5459 0.98942 0.0
H2528 H 0.9682 0.55098 0.02047 0.0
H2529 H 0.98393 0.56323 0.99424 0.0
H2530 H 0.02828 0.56679 0.01035 0.0
H2531 H 0.03501 0.59664 0.04391 0.0
H2532 H 0.09943 0.97338 0.95851 0.0
H2533 H 0.06792 0.98059 0.99018 0.0
H2534 H 0.0164 0.99674 0.93228 0.0
H2535 H 0.04768 0.98989 0.90086 0.0
H2536 H 0.04177 0.02719 0.99436 0.0
H2537 H 0.98024 0.94883 0.97941 0.0
H2538 H 0.01156 0.94855 0.96972 0.0
H2539 H 0.98931 0.96441 0.95165 0.0
C2540 C 0.08124 0.97798 0.95264 0.0
C2541 C 0.07595 0.98115 0.92732 0.0
C2542 C 0.06332 0.98221 0.97067 0.0
C2543 C 0.0398 0.98912 0.96355 0.0
C2544 C 0.03433 0.99123 0.93819 0.0
H2545 H 0.90825 0.03527 0.0418 0.0
H2546 H 0.93941 0.02846 0.00966 0.0
C2547 C 0.05224 0.9874 0.92028 0.0
C2548 C 0.02135 0.99599 0.98243 0.0
H2549 H 0.96541 0.98101 0.00472 0.0
C2550 C 0.02515 0.017 0.99678 0.0
C2551 C 0.99956 0.98285 0.9853 0.0
C2552 C 0.99489 0.95978 0.97088 0.0
C2553 C 0.00761 0.02534 0.01375 0.0
C2554 C 0.98585 0.01219 0.01665 0.0
C2555 C 0.98201 0.99121 0.00227 0.0
C2556 C 0.96762 0.01888 0.0358 0.0
C2557 C 0.0123 0.04835 0.02826 0.0
C2558 C 0.97327 0.01606 0.06104 0.0
C2559 C 0.95557 0.01971 0.0792 0.0
C2560 C 0.93194 0.02655 0.07257 0.0
C2561 C 0.92644 0.03034 0.04738 0.0
C2562 C 0.94415 0.02632 0.02907 0.0
H2563 H 0.02715 0.0592 0.01995 0.0
H2564 H 0.99569 0.0597 0.02918 0.0
H2565 H 0.01754 0.04366 0.04757 0.0
H2566 H 0.99114 0.01009 0.06664 0.0
H2567 H 0.96019 0.01649 0.09849 0.0
H2568 H 0.48976 0.05971 0.90412 0.0
H2569 H 0.48007 0.03085 0.93682 0.0
H2570 H 0.54387 0.05309 0.9773 0.0
H2571 H 0.55169 0.08397 0.94634 0.0
H2572 H 0.50069 0.99309 0.95111 0.0
H2573 H 0.50006 0.05297 0.03375 0.0
H2574 H 0.50155 0.06489 0.00267 0.0
H2575 H 0.52865 0.05472 0.01826 0.0
C2576 C 0.50146 0.05887 0.92025 0.0
C2577 C 0.52181 0.07412 0.92232 0.0
C2578 C 0.49598 0.04215 0.93894 0.0
C2579 C 0.51098 0.03981 0.95996 0.0
C2580 C 0.53142 0.05489 0.96188 0.0
H2581 H 0.51933 0.93165 0.07868 0.0
H2582 H 0.52844 0.96321 0.04793 0.0
C2583 C 0.53632 0.07226 0.94369 0.0
C2584 C 0.50591 0.02081 0.97905 0.0
H2585 H 0.50266 0.01031 0.04172 0.0
C2586 C 0.50095 0.99703 0.97089 0.0
C2587 C 0.50607 0.0257 0.00502 0.0
C2588 C 0.5091 0.05101 0.01539 0.0
C2589 C 0.49662 0.97814 0.98776 0.0
C2590 C 0.49754 0.98293 0.0136 0.0
C2591 C 0.50241 0.00659 0.02189 0.0
C2592 C 0.49236 0.96376 0.03223 0.0
C2593 C 0.49122 0.95309 0.97778 0.0
C2594 C 0.46914 0.9537 0.03373 0.0
C2595 C 0.46403 0.93578 0.0512 0.0
C2596 C 0.48188 0.92737 0.06763 0.0
C2597 C 0.50525 0.93735 0.06605 0.0
C2598 C 0.5104 0.95556 0.04863 0.0
H2599 H 0.49667 0.95109 0.95798 0.0
H2600 H 0.50062 0.93902 0.9889 0.0
H2601 H 0.47145 0.94971 0.97902 0.0
H2602 H 0.45484 0.95986 0.02147 0.0
H2603 H 0.4461 0.92842 0.05159 0.0
H2604 H 0.59955 0.48594 0.0437 0.0
H2605 H 0.56888 0.49405 0.01165 0.0
H2606 H 0.51236 0.48161 0.06548 0.0
H2607 H 0.54303 0.47516 0.09776 0.0
H2608 H 0.53235 0.47042 0.99075 0.0
H2609 H 0.49445 0.54805 0.04371 0.0
H2610 H 0.52198 0.53299 0.05291 0.0
H2611 H 0.49295 0.52027 0.06075 0.0
C2612 C 0.58054 0.48471 0.04848 0.0
C2613 C 0.57347 0.4802 0.07307 0.0
C2614 C 0.56304 0.48939 0.03025 0.0
C2615 C 0.53826 0.48927 0.03633 0.0
C2616 C 0.53131 0.48282 0.06055 0.0
H2617 H 0.4042 0.51766 0.95694 0.0
H2618 H 0.43574 0.50984 0.98823 0.0
C2619 C 0.54878 0.47884 0.07889 0.0
C2620 C 0.51978 0.4966 0.01763 0.0
H2621 H 0.4723 0.53531 0.00809 0.0
C2622 C 0.5193 0.48469 0.9945 0.0
C2623 C 0.50281 0.51537 0.02242 0.0
C2624 C 0.5032 0.53007 0.04619 0.0
C2625 C 0.50193 0.49047 0.97634 0.0
C2626 C 0.48473 0.50899 0.98131 0.0
C2627 C 0.48536 0.52105 0.00434 0.0
C2628 C 0.46572 0.51588 0.96302 0.0
C2629 C 0.50184 0.47617 0.95231 0.0
C2630 C 0.47204 0.52287 0.93881 0.0
C2631 C 0.45411 0.52679 0.92097 0.0
C2632 C 0.42954 0.5248 0.92726 0.0
C2633 C 0.42307 0.51955 0.95184 0.0
C2634 C 0.44107 0.51498 0.9696 0.0
H2635 H 0.51126 0.45847 0.95434 0.0
H2636 H 0.4831 0.47272 0.94572 0.0
H2637 H 0.51155 0.48661 0.93783 0.0
H2638 H 0.49086 0.52462 0.9335 0.0
H2639 H 0.45942 0.53094 0.90205 0.0
H2640 H 0.98577 0.10156 0.53905 0.0
H2641 H 0.99312 0.06995 0.50731 0.0
H2642 H 0.98779 0.01485 0.56368 0.0
H2643 H 0.98099 0.04632 0.59536 0.0
H2644 H 0.03406 0.01907 0.52792 0.0
H2645 H 0.94267 0.0117 0.48431 0.0
H2646 H 0.95395 0.04103 0.49381 0.0
H2647 H 0.94629 0.01905 0.5169 0.0
C2648 C 0.98572 0.08265 0.54442 0.0
C2649 C 0.98279 0.07615 0.5694 0.0
C2650 C 0.99 0.06471 0.52644 0.0
C2651 C 0.99099 0.04019 0.53331 0.0
C2652 C 0.9872 0.03371 0.55815 0.0
H2653 H 0.025 0.90561 0.45512 0.0
H2654 H 0.01936 0.93679 0.48762 0.0
C2655 C 0.9833 0.0516 0.57612 0.0
C2656 C 0.99726 0.02132 0.51489 0.0
H2657 H 0.97371 0.98722 0.46769 0.0
C2658 C 0.02092 0.01202 0.51474 0.0
C2659 C 0.97997 0.01227 0.49792 0.0
C2660 C 0.95421 0.02136 0.49808 0.0
C2661 C 0.02784 0.99396 0.49766 0.0
C2662 C 0.01056 0.98501 0.48059 0.0
C2663 C 0.98687 0.99424 0.48086 0.0
C2664 C 0.01675 0.96656 0.46167 0.0
C2665 C 0.05362 0.98493 0.49747 0.0
C2666 C 0.0173 0.97315 0.43655 0.0
C2667 C 0.02011 0.95548 0.41816 0.0
C2668 C 0.02267 0.93102 0.42467 0.0
C2669 C 0.02326 0.92447 0.44983 0.0
C2670 C 0.02007 0.94218 0.46829 0.0
H2671 H 0.06532 0.99517 0.51064 0.0
H2672 H 0.05399 0.96548 0.50266 0.0
H2673 H 0.06129 0.98643 0.47845 0.0
H2674 H 0.01488 0.99191 0.43116 0.0
H2675 H 0.01993 0.96085 0.3988 0.0
H2676 H 0.45024 0.01321 0.59376 0.0
H2677 H 0.47987 0.02048 0.56172 0.0
H2678 H 0.44709 0.96522 0.51568 0.0
H2679 H 0.41548 0.9593 0.54707 0.0
H2680 H 0.51335 0.9917 0.54381 0.0
H2681 H 0.452 0.01951 0.46717 0.0
H2682 H 0.44147 0.01585 0.49867 0.0
H2683 H 0.44598 0.98977 0.47894 0.0
C2684 C 0.44894 0.00264 0.57677 0.0
C2685 C 0.43055 0.98525 0.57327 0.0
C2686 C 0.46614 0.00679 0.55848 0.0
C2687 C 0.46572 0.9935 0.53627 0.0
C2688 C 0.44754 0.97599 0.53256 0.0
H2689 H 0.5554 0.99191 0.40756 0.0
H2690 H 0.52706 0.98485 0.44084 0.0
C2691 C 0.42977 0.97224 0.55074 0.0
C2692 C 0.48466 0.99816 0.51743 0.0
H2693 H 0.49355 0.01572 0.45746 0.0
C2694 C 0.50904 0.99699 0.52491 0.0
C2695 C 0.47897 0.00526 0.49289 0.0
C2696 C 0.45319 0.00792 0.48396 0.0
C2697 C 0.52792 1.00232 0.50839 0.0
C2698 C 0.5222 0.0092 0.48381 0.0
C2699 C 0.49784 0.0105 0.47639 0.0
C2700 C 0.54101 0.01324 0.46473 0.0
C2701 C 0.55375 0.99999 0.51726 0.0
C2702 C 0.55871 0.03141 0.46724 0.0
C2703 C 0.57567 0.0352 0.44825 0.0
C2704 C 0.57462 0.02135 0.42624 0.0
C2705 C 0.55688 0.00311 0.42411 0.0
C2706 C 0.54046 0.99904 0.44312 0.0
H2707 H 0.55506 0.9893 0.53467 0.0
H2708 H 0.56525 0.99124 0.50285 0.0
H2709 H 0.56114 0.01833 0.5211 0.0
H2710 H 0.55923 0.04283 0.48368 0.0
H2711 H 0.58937 0.04904 0.45071 0.0
H2712 H 0.49196 0.40858 0.55529 0.0
H2713 H 0.48084 0.43928 0.52427 0.0
H2714 H 0.53975 0.4845 0.54917 0.0
H2715 H 0.5507 0.45438 0.58013 0.0
H2716 H 0.4686 0.48984 0.5307 0.0
H2717 H 0.5516 0.47818 0.47384 0.0
H2718 H 0.54225 0.45625 0.49672 0.0
H2719 H 0.55728 0.48366 0.50627 0.0
C2720 C 0.50257 0.42504 0.55411 0.0
C2721 C 0.52254 0.42872 0.56998 0.0
C2722 C 0.49616 0.4426 0.53639 0.0
C2723 C 0.50973 0.46404 0.53403 0.0
C2724 C 0.52931 0.46792 0.5502 0.0
H2725 H 0.51267 0.58973 0.43694 0.0
H2726 H 0.51941 0.55938 0.46951 0.0
C2727 C 0.53559 0.45055 0.56794 0.0
C2728 C 0.50359 0.48249 0.51479 0.0
H2729 H 0.52681 0.51206 0.46443 0.0
C2730 C 0.48123 0.4946 0.51608 0.0
C2731 C 0.52011 0.48881 0.49578 0.0
C2732 C 0.54407 0.47593 0.49284 0.0
C2733 C 0.47523 0.51328 0.49933 0.0
C2734 C 0.49184 0.51969 0.48035 0.0
C2735 C 0.51408 0.50734 0.47897 0.0
C2736 C 0.48668 0.5391 0.46171 0.0
C2737 C 0.4515 0.52648 0.50269 0.0
C2738 C 0.46608 0.53796 0.44633 0.0
C2739 C 0.46216 0.55546 0.42792 0.0
C2740 C 0.47875 0.5744 0.42441 0.0
C2741 C 0.4994 0.57551 0.43958 0.0
C2742 C 0.50327 0.55813 0.45812 0.0
H2743 H 0.44445 0.52456 0.52193 0.0
H2744 H 0.4534 0.54609 0.49851 0.0
H2745 H 0.43786 0.51866 0.48979 0.0
H2746 H 0.45341 0.52309 0.44798 0.0
H2747 H 0.44671 0.55357 0.41573 0.0
H2748 H 0.04627 0.52409 0.59678 0.0
H2749 H 0.01454 0.51795 0.56535 0.0
H2750 H 0.0688 0.51674 0.50775 0.0
H2751 H 0.1006 0.52366 0.5392 0.0
H2752 H 0.00684 0.54656 0.51362 0.0
H2753 H 0.02743 0.44764 0.51131 0.0
H2754 H 0.0343 0.46648 0.53799 0.0
H2755 H 0.05246 0.46862 0.51048 0.0
C2756 C 0.05131 0.52292 0.57733 0.0
C2757 C 0.07575 0.52434 0.57026 0.0
C2758 C 0.03323 0.51945 0.55946 0.0
C2759 C 0.03938 0.51674 0.53431 0.0
C2760 C 0.06374 0.51886 0.5271 0.0
H2761 H 0.96131 0.48509 0.39914 0.0
H2762 H 0.99158 0.49272 0.43172 0.0
C2763 C 0.08183 0.52289 0.54497 0.0
C2764 C 0.02048 0.51009 0.51591 0.0
H2765 H 0.9975 0.46179 0.48353 0.0
C2766 C 0.00474 0.52806 0.50705 0.0
C2767 C 0.01768 0.48587 0.50763 0.0
C2768 C 0.03371 0.46589 0.51734 0.0
C2769 C 0.98653 0.52244 0.48963 0.0
C2770 C 0.98395 0.49827 0.48113 0.0
C2771 C 0.99954 0.48028 0.49018 0.0
C2772 C 0.96581 0.49169 0.46194 0.0
C2773 C 0.97032 0.54233 0.48005 0.0
C2774 C 0.94143 0.48794 0.4683 0.0
C2775 C 0.9242 0.48309 0.44975 0.0
C2776 C 0.93116 0.48234 0.42465 0.0
C2777 C 0.95561 0.48561 0.41842 0.0
C2778 C 0.97285 0.48997 0.43695 0.0
H2779 H 0.97562 0.56048 0.48729 0.0
H2780 H 0.97086 0.54267 0.45941 0.0
H2781 H 0.95133 0.53864 0.48562 0.0
H2782 H 0.93569 0.48926 0.48752 0.0
H2783 H 0.90537 0.48095 0.45488 0.0
H2784 H 0.93727 0.44413 0.30879 0.0
H2785 H 0.96523 0.45883 0.27768 0.0
H2786 H 0.96328 0.53003 0.31149 0.0
H2787 H 0.93751 0.51395 0.34494 0.0
H2788 H 0.94984 0.49039 0.24601 0.0
H2789 H 0.03265 0.52606 0.29096 0.0
H2790 H 0.01159 0.50667 0.3071 0.0
H2791 H 0.00592 0.53876 0.30471 0.0
C2792 C 0.94301 0.46291 0.30984 0.0
C2793 C 0.9338 0.47876 0.32807 0.0
C2794 C 0.9591 0.47117 0.29212 0.0
C2795 C 0.9659 0.49557 0.29199 0.0
C2796 C 0.95806 0.51112 0.31118 0.0
H2797 H 0.00878 0.60202 0.19271 0.0
H2798 H 0.99343 0.57561 0.22532 0.0
C2799 C 0.94248 0.50246 0.32956 0.0
C2800 C 0.97778 0.5052 0.26974 0.0
H2801 H 0.02343 0.54161 0.24997 0.0
C2802 C 0.96623 0.5012 0.24679 0.0
C2803 C 0.9992 0.51906 0.27089 0.0
C2804 C 0.01318 0.52266 0.29474 0.0
C2805 C 0.97465 0.51203 0.22509 0.0
C2806 C 0.99513 0.52714 0.22657 0.0
C2807 C 0.00754 0.53008 0.24918 0.0
C2808 C 0.00225 0.54239 0.20568 0.0
C2809 C 0.96084 0.50838 0.20111 0.0
C2810 C 0.01152 0.53221 0.18374 0.0
C2811 C 0.01943 0.54733 0.16473 0.0
C2812 C 0.01799 0.57256 0.16767 0.0
C2813 C 0.00868 0.5826 0.18959 0.0
C2814 C 1.00045 0.56758 0.20835 0.0
H2815 H 0.94347 0.49865 0.204 0.0
H2816 H 0.95694 0.52611 0.19225 0.0
H2817 H 0.97201 0.49755 0.18798 0.0
H2818 H 0.01343 0.51275 0.18171 0.0
H2819 H 0.02763 0.53943 0.14827 0.0
H2820 H 0.05905 0.94268 0.31086 0.0
H2821 H 0.04987 0.97103 0.27753 0.0
H2822 H 0.97629 0.97635 0.30401 0.0
H2823 H 0.98594 0.94837 0.33784 0.0
H2824 H 0.01195 0.95115 0.24626 0.0
H2825 H 0.99209 0.04534 0.27705 0.0
H2826 H 0.01267 0.02558 0.29358 0.0
H2827 H 0.98051 0.02219 0.29722 0.0
C2828 C 0.04138 0.95085 0.31029 0.0
C2829 C 0.02302 0.94328 0.3264 0.0
C2830 C 0.03612 0.96698 0.29126 0.0
C2831 C 0.01248 0.97568 0.28848 0.0
C2832 C 0.99474 0.97001 0.30616 0.0
H2833 H 0.90236 0.01104 0.19331 0.0
H2834 H 0.93118 0.99561 0.22403 0.0
C2835 C 1.00006 0.95382 0.32512 0.0
C2836 C 0.0047 0.98532 0.26452 0.0
H2837 H 0.97249 0.03165 0.23943 0.0
C2838 C 0.00401 0.96905 0.24436 0.0
C2839 C 0.99417 0.00848 0.26255 0.0
C2840 C 0.99503 0.02652 0.2837 0.0
C2841 C 0.99131 0.97478 0.2227 0.0
C2842 C 0.97956 0.99737 0.22137 0.0
C2843 C 0.98165 0.01429 0.24081 0.0
C2844 C 0.96267 0.00279 0.20131 0.0
C2845 C 0.98887 0.95612 0.20222 0.0
C2846 C 0.97115 0.01115 0.1784 0.0
C2847 C 0.95473 0.01964 0.16082 0.0
C2848 C 0.92989 0.01942 0.16606 0.0
C2849 C 0.92144 0.0104 0.1887 0.0
C2850 C 0.9378 1.00186 0.20621 0.0
H2851 H 0.99914 0.93926 0.20626 0.0
H2852 H 0.96947 0.95141 0.1996 0.0
H2853 H 0.9955 0.96378 0.18444 0.0
H2854 H 0.9904 0.0122 0.17468 0.0
H2855 H 0.96142 0.02746 0.14371 0.0
H2856 H 0.59906 0.01331 0.30384 0.0
H2857 H 0.57146 1.00046 0.27066 0.0
H2858 H 0.51025 0.01827 0.31712 0.0
H2859 H 0.53791 0.03068 0.35067 0.0
H2860 H 0.52469 0.9641 0.28632 0.0
H2861 H 0.51269 0.05221 0.23721 0.0
H2862 H 0.54094 0.04452 0.25217 0.0
H2863 H 0.5149 0.05126 0.27075 0.0
C2864 C 0.57973 0.0135 0.30725 0.0
C2865 C 0.57035 0.02158 0.33001 0.0
C2866 C 0.56411 0.00684 0.2882 0.0
C2867 C 0.53911 0.00886 0.2917 0.0
C2868 C 0.52963 0.01688 0.31438 0.0
H2869 H 0.4411 0.9288 0.19793 0.0
H2870 H 0.4519 0.95799 0.23056 0.0
C2871 C 0.54529 0.02342 0.3335 0.0
C2872 C 0.52293 1.00044 0.27223 0.0
H2873 H 0.4941 0.01764 0.21924 0.0
C2874 C 0.51752 0.97576 0.27186 0.0
C2875 C 0.51444 0.01598 0.25342 0.0
C2876 C 0.52096 0.04252 0.25318 0.0
C2877 C 0.50411 0.96578 0.25247 0.0
C2878 C 0.49517 0.98127 0.23368 0.0
C2879 C 0.50036 0.00615 0.23424 0.0
C2880 C 0.48386 0.97088 0.21155 0.0
C2881 C 0.501 0.93857 0.25145 0.0
C2882 C 0.49748 0.96999 0.18969 0.0
C2883 C 0.49138 0.95358 0.17115 0.0
C2884 C 0.47174 0.93774 0.17444 0.0
C2885 C 0.45664 0.94046 0.19524 0.0
C2886 C 0.46259 0.95722 0.21369 0.0
H2887 H 0.51329 0.92908 0.26458 0.0
H2888 H 0.48209 0.93389 0.25643 0.0
H2889 H 0.50458 0.93158 0.23241 0.0
H2890 H 0.51399 0.98045 0.18786 0.0
H2891 H 0.50297 0.95239 0.15496 0.0
H2892 H 0.50575 0.56101 0.34727 0.0
H2893 H 0.52357 0.53467 0.31515 0.0
H2894 H 0.45515 0.53395 0.27634 0.0
H2895 H 0.43883 0.56295 0.30623 0.0
H2896 H 0.51733 0.49298 0.29023 0.0
H2897 H 0.49606 0.5704 0.22801 0.0
H2898 H 0.49075 0.57171 0.26099 0.0
H2899 H 0.46961 0.55642 0.24082 0.0
C2900 C 0.49509 0.55597 0.33132 0.0
C2901 C 0.47217 0.56607 0.32749 0.0
C2902 C 0.50484 0.54028 0.31349 0.0
C2903 C 0.49099 0.53365 0.29262 0.0
C2904 C 0.46648 0.54002 0.2916 0.0
H2905 H 0.54185 0.47277 0.15187 0.0
H2906 H 0.51546 0.48605 0.18614 0.0
C2907 C 0.45725 0.55658 0.30866 0.0
C2908 C 0.50295 0.52365 0.27039 0.0
H2909 H 0.51522 0.53673 0.20973 0.0
C2910 C 0.51675 0.50241 0.27258 0.0
C2911 C 0.5023 0.53626 0.24746 0.0
C2912 C 0.4891 0.56007 0.24419 0.0
C2913 C 0.53019 0.49358 0.25241 0.0
C2914 C 0.52959 0.50635 0.22973 0.0
C2915 C 0.51532 0.52708 0.22727 0.0
C2916 C 0.545 0.49949 0.20876 0.0
C2917 C 0.54529 0.47098 0.25546 0.0
C2918 C 0.56997 0.50364 0.21009 0.0
C2919 C 0.58484 0.4966 0.19048 0.0
C2920 C 0.57479 0.4856 0.16937 0.0
C2921 C 0.54971 0.48201 0.16778 0.0
C2922 C 0.53479 0.48922 0.18733 0.0
H2923 H 0.54038 0.46084 0.27253 0.0
H2924 H 0.54315 0.45882 0.23907 0.0
H2925 H 0.56468 0.47611 0.25676 0.0
H2926 H 0.57795 0.51182 0.22652 0.0
H2927 H 0.60425 0.49851 0.19247 0.0
H2928 H 0.06802 0.55881 0.68732 0.0
H2929 H 0.038 0.54937 0.71911 0.0
H2930 H 0.02758 0.47874 0.6858 0.0
H2931 H 0.05812 0.48819 0.65425 0.0
H2932 H 0.98882 0.52951 0.72365 0.0
H2933 H 0.0631 0.46758 0.7526 0.0
H2934 H 0.06751 0.49159 0.73042 0.0
H2935 H 0.05331 0.46374 0.72112 0.0
C2936 C 0.05868 0.5417 0.68633 0.0
C2937 C 0.0654 0.52405 0.66885 0.0
C2938 C 0.04151 0.53635 0.70439 0.0
C2939 C 0.03095 0.51332 0.70483 0.0
C2940 C 0.03581 0.49657 0.68572 0.0
H2941 H 0.96367 0.41452 0.7914 0.0
H2942 H 0.9703 0.44618 0.7605 0.0
C2943 C 0.05329 0.50182 0.66794 0.0
C2944 C 0.01905 0.50507 0.72758 0.0
H2945 H 0.02561 0.46358 0.77362 0.0
C2946 C 0.99679 0.5152 0.73474 0.0
C2947 C 0.03021 0.48719 0.74241 0.0
C2948 C 0.05497 0.47705 0.73649 0.0
C2949 C 0.98443 0.50631 0.75557 0.0
C2950 C 0.99476 0.48706 0.76901 0.0
C2951 C 0.01776 0.47823 0.76286 0.0
C2952 C 0.98132 0.47325 0.78751 0.0
C2953 C 0.96024 0.51676 0.76278 0.0
C2954 C 0.98414 0.47869 0.81282 0.0
C2955 C 0.97984 0.46077 0.83048 0.0
C2956 C 0.97351 0.43733 0.82263 0.0
C2957 C 0.96869 0.43257 0.79757 0.0
C2958 C 0.97218 0.45065 0.78007 0.0
H2959 H 0.95561 0.5331 0.75173 0.0
H2960 H 0.94596 0.50286 0.75995 0.0
H2961 H 0.96032 0.52167 0.78285 0.0
H2962 H 0.99168 0.49593 0.81868 0.0
H2963 H 0.98359 0.46453 0.84991 0.0
H2964 H 0.01798 0.05643 0.65416 0.0
H2965 H 0.02823 0.02718 0.68667 0.0
H2966 H 0.956 0.0336 0.71655 0.0
H2967 H 0.94622 0.06312 0.68463 0.0
H2968 H 0.02055 0.05086 0.73575 0.0
H2969 H 0.97678 0.96002 0.72741 0.0
H2970 H 0.98426 0.97786 0.70034 0.0
H2971 H 0.95958 0.98683 0.71993 0.0
C2972 C 0.00415 0.05082 0.66717 0.0
C2973 C 0.9813 0.06173 0.66705 0.0
C2974 C 0.00987 0.03403 0.68547 0.0
C2975 C 0.99271 0.02821 0.70371 0.0
C2976 C 0.9692 0.03749 0.70221 0.0
H2977 H 0.0403 0.98292 0.85255 0.0
H2978 H 0.01073 0.99351 0.81993 0.0
C2979 C 0.96356 0.05429 0.68392 0.0
C2980 C 1.00111 0.01798 0.72719 0.0
H2981 H 1.00152 0.96706 0.7627 0.0
C2982 C 0.01618 0.03264 0.74184 0.0
C2983 C 0.99473 0.99452 0.73509 0.0
C2984 C 0.97798 0.97873 0.71994 0.0
C2985 C 0.02627 0.02388 0.76374 0.0
C2986 C 0.02126 0.99981 0.77082 0.0
C2987 C 0.0051 0.98554 0.75699 0.0
C2988 C 0.03619 0.98834 0.7898 0.0
C2989 C 0.04336 0.03988 0.7784 0.0
C2990 C 0.05971 0.98145 0.78318 0.0
C2991 C 0.07646 0.97602 0.80151 0.0
C2992 C 0.06967 0.97709 0.82655 0.0
C2993 C 0.04562 0.98203 0.83318 0.0
C2994 C 0.02885 0.98792 0.81473 0.0
H2995 H 0.0415 0.05929 0.77324 0.0
H2996 H 0.04009 0.03806 0.79868 0.0
H2997 H 0.0623 0.03421 0.77463 0.0
H2998 H 0.06552 0.9819 0.76393 0.0
H2999 H 0.09498 0.972 0.79622 0.0
H3000 H 0.46368 0.9704 0.65029 0.0
H3001 H 0.4919 0.984 0.68285 0.0
H3002 H 0.43159 0.0087 0.72724 0.0
H3003 H 0.40348 0.99477 0.69507 0.0
H3004 H 0.49347 0.03375 0.70435 0.0
H3005 H 0.47255 0.9616 0.7728 0.0
H3006 H 0.46643 0.95837 0.73989 0.0
H3007 H 0.44689 0.97653 0.75908 0.0
C3008 C 0.45664 0.97929 0.6668 0.0
C3009 C 0.43165 0.98249 0.66997 0.0
C3010 C 0.47263 0.9867 0.68537 0.0
C3011 C 0.46362 0.99685 0.70743 0.0
C3012 C 0.43869 1.00053 0.71038 0.0
H3013 H 0.50468 0.06389 0.84133 0.0
H3014 H 0.4882 0.03602 0.81029 0.0
C3015 C 0.42274 0.99315 0.69181 0.0
C3016 C 0.48027 0.00473 0.72704 0.0
H3017 H 0.49519 0.99553 0.78773 0.0
C3018 C 0.49426 0.02529 0.72251 0.0
C3019 C 0.48083 0.99349 0.75055 0.0
C3020 C 0.46602 0.97114 0.75593 0.0
C3021 C 0.50775 0.03611 0.7415 0.0
C3022 C 0.50822 0.02513 0.76532 0.0
C3023 C 0.49501 0.00376 0.76945 0.0
C3024 C 0.51997 0.03729 0.78661 0.0
C3025 C 0.51974 0.06017 0.73614 0.0
C3026 C 0.54374 0.04593 0.7846 0.0
C3027 C 0.55198 0.06374 0.80095 0.0
C3028 C 0.53709 0.0719 0.82038 0.0
C3029 C 0.51527 0.0598 0.82505 0.0
C3030 C 0.50629 0.04318 0.80778 0.0
H3031 H 0.51239 0.06874 0.71907 0.0
H3032 H 0.51727 0.07309 0.75183 0.0
H3033 H 0.5394 0.05728 0.73313 0.0
H3034 H 0.55525 0.04024 0.76936 0.0
H3035 H 0.56978 0.07146 0.79805 0.0
H3036 H 0.45501 0.49367 0.84831 0.0
H3037 H 0.48489 0.48311 0.81617 0.0
H3038 H 0.46893 0.54977 0.77785 0.0
H3039 H 0.43863 0.55973 0.80932 0.0
H3040 H 0.45838 0.49021 0.75993 0.0
H3041 H 0.55022 0.52776 0.77929 0.0
H3042 H 0.53114 0.51756 0.80448 0.0
H3043 H 0.52309 0.54429 0.78761 0.0
C3044 C 0.4584 0.50621 0.83329 0.0
C3045 C 0.44469 0.52741 0.83098 0.0
C3046 C 0.47558 0.50038 0.81525 0.0
C3047 C 0.47917 0.51591 0.79502 0.0
C3048 C 0.46666 0.53792 0.7937 0.0
H3049 H 0.51678 0.46422 0.64835 0.0
H3050 H 0.50745 0.49374 0.68109 0.0
C3051 C 0.44941 0.54361 0.81163 0.0
C3052 C 0.4914 0.5067 0.77281 0.0
H3053 H 0.54591 0.50276 0.7435 0.0
C3054 C 0.47747 0.49305 0.75615 0.0
C3055 C 0.51613 0.51082 0.7682 0.0
C3056 C 0.5312 0.52593 0.78574 0.0
C3057 C 0.4879 0.48257 0.73508 0.0
C3058 C 0.51287 0.48617 0.73061 0.0
C3059 C 0.52675 0.50029 0.74705 0.0
C3060 C 0.52489 0.47318 0.71021 0.0
C3061 C 0.47227 0.46707 0.71826 0.0
C3062 C 0.53906 0.45281 0.71573 0.0
C3063 C 0.54454 0.43604 0.69709 0.0
C3064 C 0.53556 0.43947 0.67296 0.0
C3065 C 0.52346 0.46107 0.66701 0.0
C3066 C 0.5183 0.47797 0.68556 0.0
H3067 H 0.4547 0.46235 0.72704 0.0
H3068 H 0.46842 0.47712 0.70087 0.0
H3069 H 0.48175 0.45003 0.71312 0.0
H3070 H 0.54414 0.44888 0.73476 0.0
H3071 H 0.55397 0.41951 0.70202 0.0
loop_
_geom_bond_atom_site_label_1
_geom_bond_atom_site_label_2
_geom_bond_distance
_geom_bond_site_symmetry_2
_ccdc_geom_bond_type
C0 C2 1.422 . S
C0 C4 1.415 . S
C0 N6 1.369 . S
C1 C2 1.421 . S
C1 C3 1.417 . S
C1 C13 1.422 . S
C2 C0 1.422 . S
C2 C1 1.421 . S
C2 N12 1.359 . S
C3 C1 1.417 . S
C3 C5 1.329 . S
C3 H22 0.930 . S
C4 C0 1.415 . S
C4 C5 1.437 . S
C4 C8 1.413 . S
C5 C3 1.329 . S
C5 C4 1.437 . S
C5 H27 0.929 . S
N6 C0 1.369 . S
N6 C7 1.338 . S
N6 Gd11 2.622 . S
C7 N6 1.338 . S
C7 C9 1.378 . S
C7 H19 0.929 . S
C8 C4 1.413 . S
C8 C9 1.348 . S
C8 H24 0.931 . S
C9 C7 1.378 . S
C9 C8 1.348 . S
C9 H25 0.930 . S
Gd10 N30 2.622 . S
Gd10 N37 2.570 . S
Gd10 O44 2.353 . S
Gd10 O45 2.468 . S
Gd10 O46 2.427 . S
Gd10 O48 2.388 . S
Gd10 O49 2.386 . S
Gd10 O53 2.307 . S
Gd10 C63 2.805 . S
Gd11 N6 2.622 . S
Gd11 N12 2.570 . S
Gd11 O43 2.386 1_655 S
Gd11 O47 2.307 1_655 S
Gd11 O50 2.353 1_655 S
Gd11 O51 2.468 . S
Gd11 O52 2.427 . S
Gd11 O54 2.388 1_655 S
Gd11 C75 2.805 . S
N12 C2 1.359 . S
N12 Gd11 2.570 . S
N12 C14 1.343 . S
C13 C1 1.422 . S
C13 C15 1.321 . S
C13 H21 0.931 . S
C14 N12 1.343 . S
C14 C15 1.390 . S
C14 H16 0.931 . S
C15 C13 1.321 . S
C15 C14 1.390 . S
C15 H17 0.930 . S
H16 C14 0.931 . S
H17 C15 0.930 . S
H18 C41 0.931 . S
H19 C7 0.929 . S
H20 C42 0.930 . S
H21 C13 0.931 . S
H22 C3 0.930 . S
H23 C32 0.929 . S
H24 C8 0.931 . S
H25 C9 0.930 . S
H26 C64 0.930 . S
H27 C5 0.929 . S
H28 C33 0.931 . S
H29 C34 0.930 . S
N30 Gd10 2.622 . S
N30 C31 1.369 . S
N30 C32 1.338 . S
C31 N30 1.369 . S
C31 C35 1.415 . S
C31 C38 1.422 . S
C32 H23 0.929 . S
C32 N30 1.338 . S
C32 C34 1.378 . S
C33 H28 0.931 . S
C33 C34 1.348 . S
C33 C35 1.413 . S
C34 H29 0.930 . S
C34 C32 1.378 . S
C34 C33 1.348 . S
C35 C31 1.415 . S
C35 C33 1.413 . S
C35 C65 1.437 . S
H36 C65 0.929 . S
N37 Gd10 2.570 . S
N37 C38 1.359 . S
N37 C41 1.343 . S
C38 C31 1.422 . S
C38 N37 1.359 . S
C38 C40 1.421 . S
C39 C40 1.422 . S
C39 C42 1.321 . S
C39 H66 0.931 . S
C40 C38 1.421 . S
C40 C39 1.422 . S
C40 C64 1.417 . S
C41 H18 0.931 . S
C41 N37 1.343 . S
C41 C42 1.390 . S
C42 H20 0.930 . S
C42 C39 1.321 . S
C42 C41 1.390 . S
O43 Gd11 2.386 1_455 S
O43 C55 1.265 . S
O44 Gd10 2.353 . S
O44 C55 1.242 . S
O45 Gd10 2.468 . S
O45 C63 1.263 . S
O46 Gd10 2.427 . S
O46 C63 1.252 . S
O47 Gd11 2.307 1_455 S
O47 C56 1.261 . S
O48 Gd10 2.388 . S
O48 C56 1.252 . S
O49 Gd10 2.386 . S
O49 C67 1.265 . S
O50 Gd11 2.353 1_455 S
O50 C67 1.242 . S
O51 Gd11 2.468 . S
O51 C75 1.263 . S
O52 Gd11 2.427 . S
O52 C75 1.252 . S
O53 Gd10 2.307 . S
O53 C68 1.261 . S
O54 Gd11 2.388 1_455 S
O54 C68 1.252 . S
C55 O43 1.265 . S
C55 O44 1.242 . S
C56 O47 1.261 . S
C56 O48 1.252 . S
C57 C60 1.394 . S
C57 C62 1.370 . S
C57 C63 1.500 . S
C58 C61 1.383 . S
C58 C62 1.395 . S
C59 C60 1.396 . S
C59 C61 1.365 . S
C59 H76 0.929 . S
C60 C57 1.394 . S
C60 C59 1.396 . S
C60 H77 0.930 . S
C61 C58 1.383 . S
C61 C59 1.365 . S
C61 H78 0.931 . S
C62 C57 1.370 . S
C62 C58 1.395 . S
C62 H79 0.930 . S
C63 Gd10 2.805 . S
C63 O45 1.263 . S
C63 O46 1.252 . S
C63 C57 1.500 . S
C64 H26 0.930 . S
C64 C40 1.417 . S
C64 C65 1.329 . S
C65 C35 1.437 . S
C65 H36 0.929 . S
C65 C64 1.329 . S
H66 C39 0.931 . S
C67 O49 1.265 . S
C67 O50 1.242 . S
C68 O53 1.261 . S
C68 O54 1.252 . S
C69 C72 1.394 . S
C69 C74 1.370 . S
C69 C75 1.500 . S
C70 C73 1.383 . S
C70 C74 1.395 . S
C71 C72 1.396 . S
C71 C73 1.365 . S
C71 H80 0.929 . S
C72 C69 1.394 . S
C72 C71 1.396 . S
C72 H81 0.930 . S
C73 C70 1.383 . S
C73 C71 1.365 . S
C73 H82 0.931 . S
C74 C69 1.370 . S
C74 C70 1.395 . S
C74 H83 0.930 . S
C75 Gd11 2.805 . S
C75 O51 1.263 . S
C75 O52 1.252 . S
C75 C69 1.500 . S
H76 C59 0.929 . S
H77 C60 0.930 . S
H78 C61 0.931 . S
H79 C62 0.930 . S
H80 C71 0.929 . S
H81 C72 0.930 . S
H82 C73 0.931 . S
H83 C74 0.930 . S
C84 C86 1.422 . S
C84 C88 1.415 . S
C84 N90 1.369 . S
C85 C86 1.421 . S
C85 C87 1.417 . S
C85 C97 1.422 . S
C86 C84 1.422 . S
C86 C85 1.421 . S
C86 N96 1.359 . S
C87 C85 1.417 . S
C87 C89 1.329 . S
C87 H106 0.930 . S
C88 C84 1.415 . S
C88 C89 1.437 . S
C88 C92 1.413 . S
C89 C87 1.329 . S
C89 C88 1.437 . S
C89 H111 0.929 . S
N90 C84 1.369 . S
N90 C91 1.338 . S
N90 Gd95 2.622 . S
C91 N90 1.338 . S
C91 C93 1.378 . S
C91 H103 0.929 . S
C92 C88 1.413 . S
C92 C93 1.348 . S
C92 H108 0.931 . S
C93 C91 1.378 . S
C93 C92 1.348 . S
C93 H109 0.930 . S
Gd94 N114 2.622 . S
Gd94 N121 2.570 . S
Gd94 O128 2.353 . S
Gd94 O129 2.468 . S
Gd94 O130 2.427 . S
Gd94 O132 2.388 . S
Gd94 O133 2.386 . S
Gd94 O137 2.307 . S
Gd94 C147 2.805 . S
Gd95 N90 2.622 . S
Gd95 N96 2.570 . S
Gd95 O127 2.386 1_565 S
Gd95 O131 2.307 1_565 S
Gd95 O134 2.353 1_565 S
Gd95 O135 2.468 . S
Gd95 O136 2.427 . S
Gd95 O138 2.388 1_565 S
Gd95 C159 2.805 . S
N96 C86 1.359 . S
N96 Gd95 2.570 . S
N96 C98 1.343 . S
C97 C85 1.422 . S
C97 C99 1.321 . S
C97 H105 0.931 . S
C98 N96 1.343 . S
C98 C99 1.390 . S
C98 H100 0.931 . S
C99 C97 1.321 . S
C99 C98 1.390 . S
C99 H101 0.930 . S
H100 C98 0.931 . S
H101 C99 0.930 . S
H102 C125 0.931 . S
H103 C91 0.929 . S
H104 C126 0.930 . S
H105 C97 0.931 . S
H106 C87 0.930 . S
H107 C116 0.929 . S
H108 C92 0.931 . S
H109 C93 0.930 . S
H110 C148 0.930 . S
H111 C89 0.929 . S
H112 C117 0.931 . S
H113 C118 0.930 . S
N114 Gd94 2.622 . S
N114 C115 1.369 . S
N114 C116 1.338 . S
C115 N114 1.369 . S
C115 C119 1.415 . S
C115 C122 1.422 . S
C116 H107 0.929 . S
C116 N114 1.338 . S
C116 C118 1.378 . S
C117 H112 0.931 . S
C117 C118 1.348 . S
C117 C119 1.413 . S
C118 H113 0.930 . S
C118 C116 1.378 . S
C118 C117 1.348 . S
C119 C115 1.415 . S
C119 C117 1.413 . S
C119 C149 1.437 . S
H120 C149 0.929 . S
N121 Gd94 2.570 . S
N121 C122 1.359 . S
N121 C125 1.343 . S
C122 C115 1.422 . S
C122 N121 1.359 . S
C122 C124 1.421 . S
C123 C124 1.422 . S
C123 C126 1.321 . S
C123 H150 0.931 . S
C124 C122 1.421 . S
C124 C123 1.422 . S
C124 C148 1.417 . S
C125 H102 0.931 . S
C125 N121 1.343 . S
C125 C126 1.390 . S
C126 H104 0.930 . S
C126 C123 1.321 . S
C126 C125 1.390 . S
O127 Gd95 2.386 1_545 S
O127 C139 1.265 . S
O128 Gd94 2.353 . S
O128 C139 1.242 . S
O129 Gd94 2.468 . S
O129 C147 1.263 . S
O130 Gd94 2.427 . S
O130 C147 1.252 . S
O131 Gd95 2.307 1_545 S
O131 C140 1.261 . S
O132 Gd94 2.388 . S
O132 C140 1.252 . S
O133 Gd94 2.386 . S
O133 C151 1.265 . S
O134 Gd95 2.353 1_545 S
O134 C151 1.242 . S
O135 Gd95 2.468 . S
O135 C159 1.263 . S
O136 Gd95 2.427 . S
O136 C159 1.252 . S
O137 Gd94 2.307 . S
O137 C152 1.261 . S
O138 Gd95 2.388 1_545 S
O138 C152 1.252 . S
C139 O127 1.265 . S
C139 O128 1.242 . S
C140 O131 1.261 . S
C140 O132 1.252 . S
C141 C144 1.394 . S
C141 C146 1.370 . S
C141 C147 1.500 . S
C142 C145 1.383 . S
C142 C146 1.395 . S
C143 C144 1.396 . S
C143 C145 1.365 . S
C143 H160 0.929 . S
C144 C141 1.394 . S
C144 C143 1.396 . S
C144 H161 0.930 . S
C145 C142 1.383 . S
C145 C143 1.365 . S
C145 H162 0.931 . S
C146 C141 1.370 . S
C146 C142 1.395 . S
C146 H163 0.930 . S
C147 Gd94 2.805 . S
C147 O129 1.263 . S
C147 O130 1.252 . S
C147 C141 1.500 . S
C148 H110 0.930 . S
C148 C124 1.417 . S
C148 C149 1.329 . S
C149 C119 1.437 . S
C149 H120 0.929 . S
C149 C148 1.329 . S
H150 C123 0.931 . S
C151 O133 1.265 . S
C151 O134 1.242 . S
C152 O137 1.261 . S
C152 O138 1.252 . S
C153 C156 1.394 . S
C153 C158 1.370 . S
C153 C159 1.500 . S
C154 C157 1.383 . S
C154 C158 1.395 . S
C155 C156 1.396 . S
C155 C157 1.365 . S
C155 H164 0.929 . S
C156 C153 1.394 . S
C156 C155 1.396 . S
C156 H165 0.930 . S
C157 C154 1.383 . S
C157 C155 1.365 . S
C157 H166 0.931 . S
C158 C153 1.370 . S
C158 C154 1.395 . S
C158 H167 0.930 . S
C159 Gd95 2.805 . S
C159 O135 1.263 . S
C159 O136 1.252 . S
C159 C153 1.500 . S
H160 C143 0.929 . S
H161 C144 0.930 . S
H162 C145 0.931 . S
H163 C146 0.930 . S
H164 C155 0.929 . S
H165 C156 0.930 . S
H166 C157 0.931 . S
H167 C158 0.930 . S
C168 C170 1.422 . S
C168 C172 1.415 . S
C168 N174 1.369 . S
C169 C170 1.421 . S
C169 C171 1.417 . S
C169 C181 1.422 . S
C170 C168 1.422 . S
C170 C169 1.421 . S
C170 N180 1.359 . S
C171 C169 1.417 . S
C171 C173 1.329 . S
C171 H190 0.930 . S
C172 C168 1.415 . S
C172 C173 1.437 . S
C172 C176 1.413 . S
C173 C171 1.329 . S
C173 C172 1.437 . S
C173 H195 0.929 . S
N174 C168 1.369 . S
N174 C175 1.338 . S
N174 Gd179 2.622 . S
C175 N174 1.338 . S
C175 C177 1.378 . S
C175 H187 0.929 . S
C176 C172 1.413 . S
C176 C177 1.348 . S
C176 H192 0.931 . S
C177 C175 1.378 . S
C177 C176 1.348 . S
C177 H193 0.930 . S
Gd178 N198 2.622 . S
Gd178 N205 2.570 . S
Gd178 O212 2.353 . S
Gd178 O213 2.468 . S
Gd178 O214 2.427 . S
Gd178 O216 2.388 . S
Gd178 O217 2.386 . S
Gd178 O221 2.307 . S
Gd178 C231 2.805 . S
Gd179 N174 2.622 . S
Gd179 N180 2.570 . S
Gd179 O211 2.386 . S
Gd179 O215 2.307 . S
Gd179 O218 2.353 . S
Gd179 O219 2.468 . S
Gd179 O220 2.427 . S
Gd179 O222 2.388 . S
Gd179 C243 2.805 . S
N180 C170 1.359 . S
N180 Gd179 2.570 . S
N180 C182 1.343 . S
C181 C169 1.422 . S
C181 C183 1.321 . S
C181 H189 0.931 . S
C182 N180 1.343 . S
C182 C183 1.390 . S
C182 H184 0.931 . S
C183 C181 1.321 . S
C183 C182 1.390 . S
C183 H185 0.930 . S
H184 C182 0.931 . S
H185 C183 0.930 . S
H186 C209 0.931 . S
H187 C175 0.929 . S
H188 C210 0.930 . S
H189 C181 0.931 . S
H190 C171 0.930 . S
H191 C200 0.929 . S
H192 C176 0.931 . S
H193 C177 0.930 . S
H194 C232 0.930 . S
H195 C173 0.929 . S
H196 C201 0.931 . S
H197 C202 0.930 . S
N198 Gd178 2.622 . S
N198 C199 1.369 . S
N198 C200 1.338 . S
C199 N198 1.369 . S
C199 C203 1.415 . S
C199 C206 1.422 . S
C200 H191 0.929 . S
C200 N198 1.338 . S
C200 C202 1.378 . S
C201 H196 0.931 . S
C201 C202 1.348 . S
C201 C203 1.413 . S
C202 H197 0.930 . S
C202 C200 1.378 . S
C202 C201 1.348 . S
C203 C199 1.415 . S
C203 C201 1.413 . S
C203 C233 1.437 . S
H204 C233 0.929 . S
N205 Gd178 2.570 . S
N205 C206 1.359 . S
N205 C209 1.343 . S
C206 C199 1.422 . S
C206 N205 1.359 . S
C206 C208 1.421 . S
C207 C208 1.422 . S
C207 C210 1.321 . S
C207 H234 0.931 . S
C208 C206 1.421 . S
C208 C207 1.422 . S
C208 C232 1.417 . S
C209 H186 0.931 . S
C209 N205 1.343 . S
C209 C210 1.390 . S
C210 H188 0.930 . S
C210 C207 1.321 . S
C210 C209 1.390 . S
O211 Gd179 2.386 . S
O211 C223 1.265 . S
O212 Gd178 2.353 . S
O212 C223 1.242 . S
O213 Gd178 2.468 . S
O213 C231 1.263 . S
O214 Gd178 2.427 . S
O214 C231 1.252 . S
O215 Gd179 2.307 . S
O215 C224 1.261 . S
O216 Gd178 2.388 . S
O216 C224 1.252 . S
O217 Gd178 2.386 . S
O217 C235 1.265 . S
O218 Gd179 2.353 . S
O218 C235 1.242 . S
O219 Gd179 2.468 . S
O219 C243 1.263 . S
O220 Gd179 2.427 . S
O220 C243 1.252 . S
O221 Gd178 2.307 . S
O221 C236 1.261 . S
O222 Gd179 2.388 . S
O222 C236 1.252 . S
C223 O211 1.265 . S
C223 O212 1.242 . S
C224 O215 1.261 . S
C224 O216 1.252 . S
C225 C228 1.394 . S
C225 C230 1.370 . S
C225 C231 1.500 . S
C226 C229 1.383 . S
C226 C230 1.395 . S
C227 C228 1.396 . S
C227 C229 1.365 . S
C227 H244 0.929 . S
C228 C225 1.394 . S
C228 C227 1.396 . S
C228 H245 0.930 . S
C229 C226 1.383 . S
C229 C227 1.365 . S
C229 H246 0.931 . S
C230 C225 1.370 . S
C230 C226 1.395 . S
C230 H247 0.930 . S
C231 Gd178 2.805 . S
C231 O213 1.263 . S
C231 O214 1.252 . S
C231 C225 1.500 . S
C232 H194 0.930 . S
C232 C208 1.417 . S
C232 C233 1.329 . S
C233 C203 1.437 . S
C233 H204 0.929 . S
C233 C232 1.329 . S
H234 C207 0.931 . S
C235 O217 1.265 . S
C235 O218 1.242 . S
C236 O221 1.261 . S
C236 O222 1.252 . S
C237 C240 1.394 . S
C237 C242 1.370 . S
C237 C243 1.500 . S
C238 C241 1.383 . S
C238 C242 1.395 . S
C239 C240 1.396 . S
C239 C241 1.365 . S
C239 H248 0.929 . S
C240 C237 1.394 . S
C240 C239 1.396 . S
C240 H249 0.930 . S
C241 C238 1.383 . S
C241 C239 1.365 . S
C241 H250 0.931 . S
C242 C237 1.370 . S
C242 C238 1.395 . S
C242 H251 0.930 . S
C243 Gd179 2.805 . S
C243 O219 1.263 . S
C243 O220 1.252 . S
C243 C237 1.500 . S
H244 C227 0.929 . S
H245 C228 0.930 . S
H246 C229 0.931 . S
H247 C230 0.930 . S
H248 C239 0.929 . S
H249 C240 0.930 . S
H250 C241 0.931 . S
H251 C242 0.930 . S
C252 C254 1.422 . S
C252 C256 1.415 . S
C252 N258 1.369 . S
C253 C254 1.421 . S
C253 C255 1.417 . S
C253 C265 1.422 . S
C254 C252 1.422 . S
C254 C253 1.421 . S
C254 N264 1.359 . S
C255 C253 1.417 . S
C255 C257 1.329 . S
C255 H274 0.930 . S
C256 C252 1.415 . S
C256 C257 1.437 . S
C256 C260 1.413 . S
C257 C255 1.329 . S
C257 C256 1.437 . S
C257 H279 0.929 . S
N258 C252 1.369 . S
N258 C259 1.338 . S
N258 Gd263 2.622 . S
C259 N258 1.338 . S
C259 C261 1.378 . S
C259 H271 0.929 . S
C260 C256 1.413 . S
C260 C261 1.348 . S
C260 H276 0.931 . S
C261 C259 1.378 . S
C261 C260 1.348 . S
C261 H277 0.930 . S
Gd262 N282 2.622 . S
Gd262 N289 2.570 . S
Gd262 O296 2.353 . S
Gd262 O297 2.468 . S
Gd262 O298 2.427 . S
Gd262 O300 2.388 . S
Gd262 O301 2.386 . S
Gd262 O305 2.307 . S
Gd262 C315 2.805 . S
Gd263 N258 2.622 . S
Gd263 N264 2.570 . S
Gd263 O295 2.386 . S
Gd263 O299 2.307 . S
Gd263 O302 2.353 . S
Gd263 O303 2.468 . S
Gd263 O304 2.427 . S
Gd263 O306 2.388 . S
Gd263 C327 2.805 . S
N264 C254 1.359 . S
N264 Gd263 2.570 . S
N264 C266 1.343 . S
C265 C253 1.422 . S
C265 C267 1.321 . S
C265 H273 0.931 . S
C266 N264 1.343 . S
C266 C267 1.390 . S
C266 H268 0.931 . S
C267 C265 1.321 . S
C267 C266 1.390 . S
C267 H269 0.930 . S
H268 C266 0.931 . S
H269 C267 0.930 . S
H270 C293 0.931 . S
H271 C259 0.929 . S
H272 C294 0.930 . S
H273 C265 0.931 . S
H274 C255 0.930 . S
H275 C284 0.929 . S
H276 C260 0.931 . S
H277 C261 0.930 . S
H278 C316 0.930 . S
H279 C257 0.929 . S
H280 C285 0.931 . S
H281 C286 0.930 . S
N282 Gd262 2.622 . S
N282 C283 1.369 . S
N282 C284 1.338 . S
C283 N282 1.369 . S
C283 C287 1.415 . S
C283 C290 1.422 . S
C284 H275 0.929 . S
C284 N282 1.338 . S
C284 C286 1.378 . S
C285 H280 0.931 . S
C285 C286 1.348 . S
C285 C287 1.413 . S
C286 H281 0.930 . S
C286 C284 1.378 . S
C286 C285 1.348 . S
C287 C283 1.415 . S
C287 C285 1.413 . S
C287 C317 1.437 . S
H288 C317 0.929 . S
N289 Gd262 2.570 . S
N289 C290 1.359 . S
N289 C293 1.343 . S
C290 C283 1.422 . S
C290 N289 1.359 . S
C290 C292 1.421 . S
C291 C292 1.422 . S
C291 C294 1.321 . S
C291 H318 0.931 . S
C292 C290 1.421 . S
C292 C291 1.422 . S
C292 C316 1.417 . S
C293 H270 0.931 . S
C293 N289 1.343 . S
C293 C294 1.390 . S
C294 H272 0.930 . S
C294 C291 1.321 . S
C294 C293 1.390 . S
O295 Gd263 2.386 . S
O295 C307 1.265 . S
O296 Gd262 2.353 . S
O296 C307 1.242 . S
O297 Gd262 2.468 . S
O297 C315 1.263 . S
O298 Gd262 2.427 . S
O298 C315 1.252 . S
O299 Gd263 2.307 . S
O299 C308 1.261 . S
O300 Gd262 2.388 . S
O300 C308 1.252 . S
O301 Gd262 2.386 . S
O301 C319 1.265 . S
O302 Gd263 2.353 . S
O302 C319 1.242 . S
O303 Gd263 2.468 . S
O303 C327 1.263 . S
O304 Gd263 2.427 . S
O304 C327 1.252 . S
O305 Gd262 2.307 . S
O305 C320 1.261 . S
O306 Gd263 2.388 . S
O306 C320 1.252 . S
C307 O295 1.265 . S
C307 O296 1.242 . S
C308 O299 1.261 . S
C308 O300 1.252 . S
C309 C312 1.394 . S
C309 C314 1.370 . S
C309 C315 1.500 . S
C310 C313 1.383 . S
C310 C314 1.395 . S
C311 C312 1.396 . S
C311 C313 1.365 . S
C311 H328 0.929 . S
C312 C309 1.394 . S
C312 C311 1.396 . S
C312 H329 0.930 . S
C313 C310 1.383 . S
C313 C311 1.365 . S
C313 H330 0.931 . S
C314 C309 1.370 . S
C314 C310 1.395 . S
C314 H331 0.930 . S
C315 Gd262 2.805 . S
C315 O297 1.263 . S
C315 O298 1.252 . S
C315 C309 1.500 . S
C316 H278 0.930 . S
C316 C292 1.417 . S
C316 C317 1.329 . S
C317 C287 1.437 . S
C317 H288 0.929 . S
C317 C316 1.329 . S
H318 C291 0.931 . S
C319 O301 1.265 . S
C319 O302 1.242 . S
C320 O305 1.261 . S
C320 O306 1.252 . S
C321 C324 1.394 . S
C321 C326 1.370 . S
C321 C327 1.500 . S
C322 C325 1.383 . S
C322 C326 1.395 . S
C323 C324 1.396 . S
C323 C325 1.365 . S
C323 H332 0.929 . S
C324 C321 1.394 . S
C324 C323 1.396 . S
C324 H333 0.930 . S
C325 C322 1.383 . S
C325 C323 1.365 . S
C325 H334 0.931 . S
C326 C321 1.370 . S
C326 C322 1.395 . S
C326 H335 0.930 . S
C327 Gd263 2.805 . S
C327 O303 1.263 . S
C327 O304 1.252 . S
C327 C321 1.500 . S
H328 C311 0.929 . S
H329 C312 0.930 . S
H330 C313 0.931 . S
H331 C314 0.930 . S
H332 C323 0.929 . S
H333 C324 0.930 . S
H334 C325 0.931 . S
H335 C326 0.930 . S
C336 C338 1.422 . S
C336 C340 1.415 . S
C336 N342 1.369 . S
C337 C338 1.421 . S
C337 C339 1.417 . S
C337 C349 1.422 . S
C338 C336 1.422 . S
C338 C337 1.421 . S
C338 N348 1.359 . S
C339 C337 1.417 . S
C339 C341 1.329 . S
C339 H358 0.930 . S
C340 C336 1.415 . S
C340 C341 1.437 . S
C340 C344 1.413 . S
C341 C339 1.329 . S
C341 C340 1.437 . S
C341 H363 0.929 . S
N342 C336 1.369 . S
N342 C343 1.338 . S
N342 Gd347 2.622 . S
C343 N342 1.338 . S
C343 C345 1.378 . S
C343 H355 0.929 . S
C344 C340 1.413 . S
C344 C345 1.348 . S
C344 H360 0.931 . S
C345 C343 1.378 . S
C345 C344 1.348 . S
C345 H361 0.930 . S
Gd346 N366 2.622 . S
Gd346 N373 2.570 . S
Gd346 O380 2.353 . S
Gd346 O381 2.468 . S
Gd346 O382 2.427 . S
Gd346 O384 2.388 . S
Gd346 O385 2.386 . S
Gd346 O389 2.307 . S
Gd346 C399 2.805 . S
Gd347 N342 2.622 . S
Gd347 N348 2.570 . S
Gd347 O379 2.386 1_655 S
Gd347 O383 2.307 1_655 S
Gd347 O386 2.353 1_655 S
Gd347 O387 2.468 . S
Gd347 O388 2.427 . S
Gd347 O390 2.388 1_655 S
Gd347 C411 2.805 . S
N348 C338 1.359 . S
N348 Gd347 2.570 . S
N348 C350 1.343 . S
C349 C337 1.422 . S
C349 C351 1.321 . S
C349 H357 0.931 . S
C350 N348 1.343 . S
C350 C351 1.390 . S
C350 H352 0.931 . S
C351 C349 1.321 . S
C351 C350 1.390 . S
C351 H353 0.930 . S
H352 C350 0.931 . S
H353 C351 0.930 . S
H354 C377 0.931 . S
H355 C343 0.929 . S
H356 C378 0.930 . S
H357 C349 0.931 . S
H358 C339 0.930 . S
H359 C368 0.929 . S
H360 C344 0.931 . S
H361 C345 0.930 . S
H362 C400 0.930 . S
H363 C341 0.929 . S
H364 C369 0.931 . S
H365 C370 0.930 . S
N366 Gd346 2.622 . S
N366 C367 1.369 . S
N366 C368 1.338 . S
C367 N366 1.369 . S
C367 C371 1.415 . S
C367 C374 1.422 . S
C368 H359 0.929 . S
C368 N366 1.338 . S
C368 C370 1.378 . S
C369 H364 0.931 . S
C369 C370 1.348 . S
C369 C371 1.413 . S
C370 H365 0.930 . S
C370 C368 1.378 . S
C370 C369 1.348 . S
C371 C367 1.415 . S
C371 C369 1.413 . S
C371 C401 1.437 . S
H372 C401 0.929 . S
N373 Gd346 2.570 . S
N373 C374 1.359 . S
N373 C377 1.343 . S
C374 C367 1.422 . S
C374 N373 1.359 . S
C374 C376 1.421 . S
C375 C376 1.422 . S
C375 C378 1.321 . S
C375 H402 0.931 . S
C376 C374 1.421 . S
C376 C375 1.422 . S
C376 C400 1.417 . S
C377 H354 0.931 . S
C377 N373 1.343 . S
C377 C378 1.390 . S
C378 H356 0.930 . S
C378 C375 1.321 . S
C378 C377 1.390 . S
O379 Gd347 2.386 1_455 S
O379 C391 1.265 . S
O380 Gd346 2.353 . S
O380 C391 1.242 . S
O381 Gd346 2.468 . S
O381 C399 1.263 . S
O382 Gd346 2.427 . S
O382 C399 1.252 . S
O383 Gd347 2.307 1_455 S
O383 C392 1.261 . S
O384 Gd346 2.388 . S
O384 C392 1.252 . S
O385 Gd346 2.386 . S
O385 C403 1.265 . S
O386 Gd347 2.353 1_455 S
O386 C403 1.242 . S
O387 Gd347 2.468 . S
O387 C411 1.263 . S
O388 Gd347 2.427 . S
O388 C411 1.252 . S
O389 Gd346 2.307 . S
O389 C404 1.261 . S
O390 Gd347 2.388 1_455 S
O390 C404 1.252 . S
C391 O379 1.265 . S
C391 O380 1.242 . S
C392 O383 1.261 . S
C392 O384 1.252 . S
C393 C396 1.394 . S
C393 C398 1.370 . S
C393 C399 1.500 . S
C394 C397 1.383 . S
C394 C398 1.395 . S
C395 C396 1.396 . S
C395 C397 1.365 . S
C395 H412 0.929 . S
C396 C393 1.394 . S
C396 C395 1.396 . S
C396 H413 0.930 . S
C397 C394 1.383 . S
C397 C395 1.365 . S
C397 H414 0.931 . S
C398 C393 1.370 . S
C398 C394 1.395 . S
C398 H415 0.930 . S
C399 Gd346 2.805 . S
C399 O381 1.263 . S
C399 O382 1.252 . S
C399 C393 1.500 . S
C400 H362 0.930 . S
C400 C376 1.417 . S
C400 C401 1.329 . S
C401 C371 1.437 . S
C401 H372 0.929 . S
C401 C400 1.329 . S
H402 C375 0.931 . S
C403 O385 1.265 . S
C403 O386 1.242 . S
C404 O389 1.261 . S
C404 O390 1.252 . S
C405 C408 1.394 . S
C405 C410 1.370 . S
C405 C411 1.500 . S
C406 C409 1.383 . S
C406 C410 1.395 . S
C407 C408 1.396 . S
C407 C409 1.365 . S
C407 H416 0.929 . S
C408 C405 1.394 . S
C408 C407 1.396 . S
C408 H417 0.930 . S
C409 C406 1.383 . S
C409 C407 1.365 . S
C409 H418 0.931 . S
C410 C405 1.370 . S
C410 C406 1.395 . S
C410 H419 0.930 . S
C411 Gd347 2.805 . S
C411 O387 1.263 . S
C411 O388 1.252 . S
C411 C405 1.500 . S
H412 C395 0.929 . S
H413 C396 0.930 . S
H414 C397 0.931 . S
H415 C398 0.930 . S
H416 C407 0.929 . S
H417 C408 0.930 . S
H418 C409 0.931 . S
H419 C410 0.930 . S
C420 C422 1.422 . S
C420 C424 1.415 . S
C420 N426 1.369 . S
C421 C422 1.421 . S
C421 C423 1.417 . S
C421 C433 1.422 . S
C422 C420 1.422 . S
C422 C421 1.421 . S
C422 N432 1.359 . S
C423 C421 1.417 . S
C423 C425 1.329 . S
C423 H442 0.930 . S
C424 C420 1.415 . S
C424 C425 1.437 . S
C424 C428 1.413 . S
C425 C423 1.329 . S
C425 C424 1.437 . S
C425 H447 0.929 . S
N426 C420 1.369 . S
N426 C427 1.338 . S
N426 Gd431 2.622 . S
C427 N426 1.338 . S
C427 C429 1.378 . S
C427 H439 0.929 . S
C428 C424 1.413 . S
C428 C429 1.348 . S
C428 H444 0.931 . S
C429 C427 1.378 . S
C429 C428 1.348 . S
C429 H445 0.930 . S
Gd430 N450 2.622 . S
Gd430 N457 2.570 . S
Gd430 O464 2.353 . S
Gd430 O465 2.468 . S
Gd430 O466 2.427 . S
Gd430 O468 2.388 . S
Gd430 O469 2.386 . S
Gd430 O473 2.307 . S
Gd430 C483 2.805 . S
Gd431 N426 2.622 . S
Gd431 N432 2.570 . S
Gd431 O463 2.386 1_565 S
Gd431 O467 2.307 1_565 S
Gd431 O470 2.353 1_565 S
Gd431 O471 2.468 . S
Gd431 O472 2.427 . S
Gd431 O474 2.388 1_565 S
Gd431 C495 2.805 . S
N432 C422 1.359 . S
N432 Gd431 2.570 . S
N432 C434 1.343 . S
C433 C421 1.422 . S
C433 C435 1.321 . S
C433 H441 0.931 . S
C434 N432 1.343 . S
C434 C435 1.390 . S
C434 H436 0.931 . S
C435 C433 1.321 . S
C435 C434 1.390 . S
C435 H437 0.930 . S
H436 C434 0.931 . S
H437 C435 0.930 . S
H438 C461 0.931 . S
H439 C427 0.929 . S
H440 C462 0.930 . S
H441 C433 0.931 . S
H442 C423 0.930 . S
H443 C452 0.929 . S
H444 C428 0.931 . S
H445 C429 0.930 . S
H446 C484 0.930 . S
H447 C425 0.929 . S
H448 C453 0.931 . S
H449 C454 0.930 . S
N450 Gd430 2.622 . S
N450 C451 1.369 . S
N450 C452 1.338 . S
C451 N450 1.369 . S
C451 C455 1.415 . S
C451 C458 1.422 . S
C452 H443 0.929 . S
C452 N450 1.338 . S
C452 C454 1.378 . S
C453 H448 0.931 . S
C453 C454 1.348 . S
C453 C455 1.413 . S
C454 H449 0.930 . S
C454 C452 1.378 . S
C454 C453 1.348 . S
C455 C451 1.415 . S
C455 C453 1.413 . S
C455 C485 1.437 . S
H456 C485 0.929 . S
N457 Gd430 2.570 . S
N457 C458 1.359 . S
N457 C461 1.343 . S
C458 C451 1.422 . S
C458 N457 1.359 . S
C458 C460 1.421 . S
C459 C460 1.422 . S
C459 C462 1.321 . S
C459 H486 0.931 . S
C460 C458 1.421 . S
C460 C459 1.422 . S
C460 C484 1.417 . S
C461 H438 0.931 . S
C461 N457 1.343 . S
C461 C462 1.390 . S
C462 H440 0.930 . S
C462 C459 1.321 . S
C462 C461 1.390 . S
O463 Gd431 2.386 1_545 S
O463 C475 1.265 . S
O464 Gd430 2.353 . S
O464 C475 1.242 . S
O465 Gd430 2.468 . S
O465 C483 1.263 . S
O466 Gd430 2.427 . S
O466 C483 1.252 . S
O467 Gd431 2.307 1_545 S
O467 C476 1.261 . S
O468 Gd430 2.388 . S
O468 C476 1.252 . S
O469 Gd430 2.386 . S
O469 C487 1.265 . S
O470 Gd431 2.353 1_545 S
O470 C487 1.242 . S
O471 Gd431 2.468 . S
O471 C495 1.263 . S
O472 Gd431 2.427 . S
O472 C495 1.252 . S
O473 Gd430 2.307 . S
O473 C488 1.261 . S
O474 Gd431 2.388 1_545 S
O474 C488 1.252 . S
C475 O463 1.265 . S
C475 O464 1.242 . S
C476 O467 1.261 . S
C476 O468 1.252 . S
C477 C480 1.394 . S
C477 C482 1.370 . S
C477 C483 1.500 . S
C478 C481 1.383 . S
C478 C482 1.395 . S
C479 C480 1.396 . S
C479 C481 1.365 . S
C479 H496 0.929 . S
C480 C477 1.394 . S
C480 C479 1.396 . S
C480 H497 0.930 . S
C481 C478 1.383 . S
C481 C479 1.365 . S
C481 H498 0.931 . S
C482 C477 1.370 . S
C482 C478 1.395 . S
C482 H499 0.930 . S
C483 Gd430 2.805 . S
C483 O465 1.263 . S
C483 O466 1.252 . S
C483 C477 1.500 . S
C484 H446 0.930 . S
C484 C460 1.417 . S
C484 C485 1.329 . S
C485 C455 1.437 . S
C485 H456 0.929 . S
C485 C484 1.329 . S
H486 C459 0.931 . S
C487 O469 1.265 . S
C487 O470 1.242 . S
C488 O473 1.261 . S
C488 O474 1.252 . S
C489 C492 1.394 . S
C489 C494 1.370 . S
C489 C495 1.500 . S
C490 C493 1.383 . S
C490 C494 1.395 . S
C491 C492 1.396 . S
C491 C493 1.365 . S
C491 H500 0.929 . S
C492 C489 1.394 . S
C492 C491 1.396 . S
C492 H501 0.930 . S
C493 C490 1.383 . S
C493 C491 1.365 . S
C493 H502 0.931 . S
C494 C489 1.370 . S
C494 C490 1.395 . S
C494 H503 0.930 . S
C495 Gd431 2.805 . S
C495 O471 1.263 . S
C495 O472 1.252 . S
C495 C489 1.500 . S
H496 C479 0.929 . S
H497 C480 0.930 . S
H498 C481 0.931 . S
H499 C482 0.930 . S
H500 C491 0.929 . S
H501 C492 0.930 . S
H502 C493 0.931 . S
H503 C494 0.930 . S
C504 C506 1.422 . S
C504 C508 1.415 . S
C504 N510 1.369 . S
C505 C506 1.421 . S
C505 C507 1.417 . S
C505 C517 1.422 . S
C506 C504 1.422 . S
C506 C505 1.421 . S
C506 N516 1.359 . S
C507 C505 1.417 . S
C507 C509 1.329 . S
C507 H526 0.930 . S
C508 C504 1.415 . S
C508 C509 1.437 . S
C508 C512 1.413 . S
C509 C507 1.329 . S
C509 C508 1.437 . S
C509 H531 0.929 . S
N510 C504 1.369 . S
N510 C511 1.338 . S
N510 Gd515 2.622 . S
C511 N510 1.338 . S
C511 C513 1.378 . S
C511 H523 0.929 . S
C512 C508 1.413 . S
C512 C513 1.348 . S
C512 H528 0.931 . S
C513 C511 1.378 . S
C513 C512 1.348 . S
C513 H529 0.930 . S
Gd514 N534 2.622 . S
Gd514 N541 2.570 . S
Gd514 O548 2.353 . S
Gd514 O549 2.468 . S
Gd514 O550 2.427 . S
Gd514 O552 2.388 . S
Gd514 O553 2.386 . S
Gd514 O557 2.307 . S
Gd514 C567 2.805 . S
Gd515 N510 2.622 . S
Gd515 N516 2.570 . S
Gd515 O547 2.386 . S
Gd515 O551 2.307 . S
Gd515 O554 2.353 . S
Gd515 O555 2.468 . S
Gd515 O556 2.427 . S
Gd515 O558 2.388 . S
Gd515 C579 2.805 . S
N516 C506 1.359 . S
N516 Gd515 2.570 . S
N516 C518 1.343 . S
C517 C505 1.422 . S
C517 C519 1.321 . S
C517 H525 0.931 . S
C518 N516 1.343 . S
C518 C519 1.390 . S
C518 H520 0.931 . S
C519 C517 1.321 . S
C519 C518 1.390 . S
C519 H521 0.930 . S
H520 C518 0.931 . S
H521 C519 0.930 . S
H522 C545 0.931 . S
H523 C511 0.929 . S
H524 C546 0.930 . S
H525 C517 0.931 . S
H526 C507 0.930 . S
H527 C536 0.929 . S
H528 C512 0.931 . S
H529 C513 0.930 . S
H530 C568 0.930 . S
H531 C509 0.929 . S
H532 C537 0.931 . S
H533 C538 0.930 . S
N534 Gd514 2.622 . S
N534 C535 1.369 . S
N534 C536 1.338 . S
C535 N534 1.369 . S
C535 C539 1.415 . S
C535 C542 1.422 . S
C536 H527 0.929 . S
C536 N534 1.338 . S
C536 C538 1.378 . S
C537 H532 0.931 . S
C537 C538 1.348 . S
C537 C539 1.413 . S
C538 H533 0.930 . S
C538 C536 1.378 . S
C538 C537 1.348 . S
C539 C535 1.415 . S
C539 C537 1.413 . S
C539 C569 1.437 . S
H540 C569 0.929 . S
N541 Gd514 2.570 . S
N541 C542 1.359 . S
N541 C545 1.343 . S
C542 C535 1.422 . S
C542 N541 1.359 . S
C542 C544 1.421 . S
C543 C544 1.422 . S
C543 C546 1.321 . S
C543 H570 0.931 . S
C544 C542 1.421 . S
C544 C543 1.422 . S
C544 C568 1.417 . S
C545 H522 0.931 . S
C545 N541 1.343 . S
C545 C546 1.390 . S
C546 H524 0.930 . S
C546 C543 1.321 . S
C546 C545 1.390 . S
O547 Gd515 2.386 . S
O547 C559 1.265 . S
O548 Gd514 2.353 . S
O548 C559 1.242 . S
O549 Gd514 2.468 . S
O549 C567 1.263 . S
O550 Gd514 2.427 . S
O550 C567 1.252 . S
O551 Gd515 2.307 . S
O551 C560 1.261 . S
O552 Gd514 2.388 . S
O552 C560 1.252 . S
O553 Gd514 2.386 . S
O553 C571 1.265 . S
O554 Gd515 2.353 . S
O554 C571 1.242 . S
O555 Gd515 2.468 . S
O555 C579 1.263 . S
O556 Gd515 2.427 . S
O556 C579 1.252 . S
O557 Gd514 2.307 . S
O557 C572 1.261 . S
O558 Gd515 2.388 . S
O558 C572 1.252 . S
C559 O547 1.265 . S
C559 O548 1.242 . S
C560 O551 1.261 . S
C560 O552 1.252 . S
C561 C564 1.394 . S
C561 C566 1.370 . S
C561 C567 1.500 . S
C562 C565 1.383 . S
C562 C566 1.395 . S
C563 C564 1.396 . S
C563 C565 1.365 . S
C563 H580 0.929 . S
C564 C561 1.394 . S
C564 C563 1.396 . S
C564 H581 0.930 . S
C565 C562 1.383 . S
C565 C563 1.365 . S
C565 H582 0.931 . S
C566 C561 1.370 . S
C566 C562 1.395 . S
C566 H583 0.930 . S
C567 Gd514 2.805 . S
C567 O549 1.263 . S
C567 O550 1.252 . S
C567 C561 1.500 . S
C568 H530 0.930 . S
C568 C544 1.417 . S
C568 C569 1.329 . S
C569 C539 1.437 . S
C569 H540 0.929 . S
C569 C568 1.329 . S
H570 C543 0.931 . S
C571 O553 1.265 . S
C571 O554 1.242 . S
C572 O557 1.261 . S
C572 O558 1.252 . S
C573 C576 1.394 . S
C573 C578 1.370 . S
C573 C579 1.500 . S
C574 C577 1.383 . S
C574 C578 1.395 . S
C575 C576 1.396 . S
C575 C577 1.365 . S
C575 H584 0.929 . S
C576 C573 1.394 . S
C576 C575 1.396 . S
C576 H585 0.930 . S
C577 C574 1.383 . S
C577 C575 1.365 . S
C577 H586 0.931 . S
C578 C573 1.370 . S
C578 C574 1.395 . S
C578 H587 0.930 . S
C579 Gd515 2.805 . S
C579 O555 1.263 . S
C579 O556 1.252 . S
C579 C573 1.500 . S
H580 C563 0.929 . S
H581 C564 0.930 . S
H582 C565 0.931 . S
H583 C566 0.930 . S
H584 C575 0.929 . S
H585 C576 0.930 . S
H586 C577 0.931 . S
H587 C578 0.930 . S
C588 C590 1.422 . S
C588 C592 1.415 . S
C588 N594 1.369 . S
C589 C590 1.421 . S
C589 C591 1.417 . S
C589 C601 1.422 . S
C590 C588 1.422 . S
C590 C589 1.421 . S
C590 N600 1.359 . S
C591 C589 1.417 . S
C591 C593 1.329 . S
C591 H610 0.930 . S
C592 C588 1.415 . S
C592 C593 1.437 . S
C592 C596 1.413 . S
C593 C591 1.329 . S
C593 C592 1.437 . S
C593 H615 0.929 . S
N594 C588 1.369 . S
N594 C595 1.338 . S
N594 Gd599 2.622 . S
C595 N594 1.338 . S
C595 C597 1.378 . S
C595 H607 0.929 . S
C596 C592 1.413 . S
C596 C597 1.348 . S
C596 H612 0.931 . S
C597 C595 1.378 . S
C597 C596 1.348 . S
C597 H613 0.930 . S
Gd598 N618 2.622 . S
Gd598 N625 2.570 . S
Gd598 O632 2.353 . S
Gd598 O633 2.468 . S
Gd598 O634 2.427 . S
Gd598 O636 2.388 . S
Gd598 O637 2.386 . S
Gd598 O641 2.307 . S
Gd598 C651 2.805 . S
Gd599 N594 2.622 . S
Gd599 N600 2.570 . S
Gd599 O631 2.386 . S
Gd599 O635 2.307 . S
Gd599 O638 2.353 . S
Gd599 O639 2.468 . S
Gd599 O640 2.427 . S
Gd599 O642 2.388 . S
Gd599 C663 2.805 . S
N600 C590 1.359 . S
N600 Gd599 2.570 . S
N600 C602 1.343 . S
C601 C589 1.422 . S
C601 C603 1.321 . S
C601 H609 0.931 . S
C602 N600 1.343 . S
C602 C603 1.390 . S
C602 H604 0.931 . S
C603 C601 1.321 . S
C603 C602 1.390 . S
C603 H605 0.930 . S
H604 C602 0.931 . S
H605 C603 0.930 . S
H606 C629 0.931 . S
H607 C595 0.929 . S
H608 C630 0.930 . S
H609 C601 0.931 . S
H610 C591 0.930 . S
H611 C620 0.929 . S
H612 C596 0.931 . S
H613 C597 0.930 . S
H614 C652 0.930 . S
H615 C593 0.929 . S
H616 C621 0.931 . S
H617 C622 0.930 . S
N618 Gd598 2.622 . S
N618 C619 1.369 . S
N618 C620 1.338 . S
C619 N618 1.369 . S
C619 C623 1.415 . S
C619 C626 1.422 . S
C620 H611 0.929 . S
C620 N618 1.338 . S
C620 C622 1.378 . S
C621 H616 0.931 . S
C621 C622 1.348 . S
C621 C623 1.413 . S
C622 H617 0.930 . S
C622 C620 1.378 . S
C622 C621 1.348 . S
C623 C619 1.415 . S
C623 C621 1.413 . S
C623 C653 1.437 . S
H624 C653 0.929 . S
N625 Gd598 2.570 . S
N625 C626 1.359 . S
N625 C629 1.343 . S
C626 C619 1.422 . S
C626 N625 1.359 . S
C626 C628 1.421 . S
C627 C628 1.422 . S
C627 C630 1.321 . S
C627 H654 0.931 . S
C628 C626 1.421 . S
C628 C627 1.422 . S
C628 C652 1.417 . S
C629 H606 0.931 . S
C629 N625 1.343 . S
C629 C630 1.390 . S
C630 H608 0.930 . S
C630 C627 1.321 . S
C630 C629 1.390 . S
O631 Gd599 2.386 . S
O631 C643 1.265 . S
O632 Gd598 2.353 . S
O632 C643 1.242 . S
O633 Gd598 2.468 . S
O633 C651 1.263 . S
O634 Gd598 2.427 . S
O634 C651 1.252 . S
O635 Gd599 2.307 . S
O635 C644 1.261 . S
O636 Gd598 2.388 . S
O636 C644 1.252 . S
O637 Gd598 2.386 . S
O637 C655 1.265 . S
O638 Gd599 2.353 . S
O638 C655 1.242 . S
O639 Gd599 2.468 . S
O639 C663 1.263 . S
O640 Gd599 2.427 . S
O640 C663 1.252 . S
O641 Gd598 2.307 . S
O641 C656 1.261 . S
O642 Gd599 2.388 . S
O642 C656 1.252 . S
C643 O631 1.265 . S
C643 O632 1.242 . S
C644 O635 1.261 . S
C644 O636 1.252 . S
C645 C648 1.394 . S
C645 C650 1.370 . S
C645 C651 1.500 . S
C646 C649 1.383 . S
C646 C650 1.395 . S
C647 C648 1.396 . S
C647 C649 1.365 . S
C647 H664 0.929 . S
C648 C645 1.394 . S
C648 C647 1.396 . S
C648 H665 0.930 . S
C649 C646 1.383 . S
C649 C647 1.365 . S
C649 H666 0.931 . S
C650 C645 1.370 . S
C650 C646 1.395 . S
C650 H667 0.930 . S
C651 Gd598 2.805 . S
C651 O633 1.263 . S
C651 O634 1.252 . S
C651 C645 1.500 . S
C652 H614 0.930 . S
C652 C628 1.417 . S
C652 C653 1.329 . S
C653 C623 1.437 . S
C653 H624 0.929 . S
C653 C652 1.329 . S
H654 C627 0.931 . S
C655 O637 1.265 . S
C655 O638 1.242 . S
C656 O641 1.261 . S
C656 O642 1.252 . S
C657 C660 1.394 . S
C657 C662 1.370 . S
C657 C663 1.500 . S
C658 C661 1.383 . S
C658 C662 1.395 . S
C659 C660 1.396 . S
C659 C661 1.365 . S
C659 H668 0.929 . S
C660 C657 1.394 . S
C660 C659 1.396 . S
C660 H669 0.930 . S
C661 C658 1.383 . S
C661 C659 1.365 . S
C661 H670 0.931 . S
C662 C657 1.370 . S
C662 C658 1.395 . S
C662 H671 0.930 . S
C663 Gd599 2.805 . S
C663 O639 1.263 . S
C663 O640 1.252 . S
C663 C657 1.500 . S
H664 C647 0.929 . S
H665 C648 0.930 . S
H666 C649 0.931 . S
H667 C650 0.930 . S
H668 C659 0.929 . S
H669 C660 0.930 . S
H670 C661 0.931 . S
H671 C662 0.930 . S
C672 C674 1.422 . S
C672 C676 1.415 . S
C672 N678 1.369 . S
C673 C674 1.421 . S
C673 C675 1.417 . S
C673 C685 1.422 . S
C674 C672 1.422 . S
C674 C673 1.421 . S
C674 N684 1.359 . S
C675 C673 1.417 . S
C675 C677 1.329 . S
C675 H694 0.930 . S
C676 C672 1.415 . S
C676 C677 1.437 . S
C676 C680 1.413 . S
C677 C675 1.329 . S
C677 C676 1.437 . S
C677 H699 0.929 . S
N678 C672 1.369 . S
N678 C679 1.338 . S
N678 Gd683 2.622 . S
C679 N678 1.338 . S
C679 C681 1.378 . S
C679 H691 0.929 . S
C680 C676 1.413 . S
C680 C681 1.348 . S
C680 H696 0.931 . S
C681 C679 1.378 . S
C681 C680 1.348 . S
C681 H697 0.930 . S
Gd682 N702 2.622 . S
Gd682 N709 2.570 . S
Gd682 O716 2.353 1_455 S
Gd682 O717 2.468 . S
Gd682 O718 2.427 . S
Gd682 O720 2.388 1_455 S
Gd682 O721 2.386 1_455 S
Gd682 O725 2.307 1_455 S
Gd682 C735 2.805 . S
Gd683 N678 2.622 . S
Gd683 N684 2.570 . S
Gd683 O715 2.386 . S
Gd683 O719 2.307 . S
Gd683 O722 2.353 . S
Gd683 O723 2.468 . S
Gd683 O724 2.427 . S
Gd683 O726 2.388 . S
Gd683 C747 2.805 . S
N684 C674 1.359 . S
N684 Gd683 2.570 . S
N684 C686 1.343 . S
C685 C673 1.422 . S
C685 C687 1.321 . S
C685 H693 0.931 . S
C686 N684 1.343 . S
C686 C687 1.390 . S
C686 H688 0.931 . S
C687 C685 1.321 . S
C687 C686 1.390 . S
C687 H689 0.930 . S
H688 C686 0.931 . S
H689 C687 0.930 . S
H690 C713 0.931 . S
H691 C679 0.929 . S
H692 C714 0.930 . S
H693 C685 0.931 . S
H694 C675 0.930 . S
H695 C704 0.929 . S
H696 C680 0.931 . S
H697 C681 0.930 . S
H698 C736 0.930 . S
H699 C677 0.929 . S
H700 C705 0.931 . S
H701 C706 0.930 . S
N702 Gd682 2.622 . S
N702 C703 1.369 . S
N702 C704 1.338 . S
C703 N702 1.369 . S
C703 C707 1.415 . S
C703 C710 1.422 . S
C704 H695 0.929 . S
C704 N702 1.338 . S
C704 C706 1.378 . S
C705 H700 0.931 . S
C705 C706 1.348 . S
C705 C707 1.413 . S
C706 H701 0.930 . S
C706 C704 1.378 . S
C706 C705 1.348 . S
C707 C703 1.415 . S
C707 C705 1.413 . S
C707 C737 1.437 . S
H708 C737 0.929 . S
N709 Gd682 2.570 . S
N709 C710 1.359 . S
N709 C713 1.343 . S
C710 C703 1.422 . S
C710 N709 1.359 . S
C710 C712 1.421 . S
C711 C712 1.422 . S
C711 C714 1.321 . S
C711 H738 0.931 . S
C712 C710 1.421 . S
C712 C711 1.422 . S
C712 C736 1.417 . S
C713 H690 0.931 . S
C713 N709 1.343 . S
C713 C714 1.390 . S
C714 H692 0.930 . S
C714 C711 1.321 . S
C714 C713 1.390 . S
O715 Gd683 2.386 . S
O715 C727 1.265 . S
O716 Gd682 2.353 1_655 S
O716 C727 1.242 . S
O717 Gd682 2.468 . S
O717 C735 1.263 . S
O718 Gd682 2.427 . S
O718 C735 1.252 . S
O719 Gd683 2.307 . S
O719 C728 1.261 . S
O720 Gd682 2.388 1_655 S
O720 C728 1.252 . S
O721 Gd682 2.386 1_655 S
O721 C739 1.265 . S
O722 Gd683 2.353 . S
O722 C739 1.242 . S
O723 Gd683 2.468 . S
O723 C747 1.263 . S
O724 Gd683 2.427 . S
O724 C747 1.252 . S
O725 Gd682 2.307 1_655 S
O725 C740 1.261 . S
O726 Gd683 2.388 . S
O726 C740 1.252 . S
C727 O715 1.265 . S
C727 O716 1.242 . S
C728 O719 1.261 . S
C728 O720 1.252 . S
C729 C732 1.394 . S
C729 C734 1.370 . S
C729 C735 1.500 . S
C730 C733 1.383 . S
C730 C734 1.395 . S
C731 C732 1.396 . S
C731 C733 1.365 . S
C731 H748 0.929 . S
C732 C729 1.394 . S
C732 C731 1.396 . S
C732 H749 0.930 . S
C733 C730 1.383 . S
C733 C731 1.365 . S
C733 H750 0.931 . S
C734 C729 1.370 . S
C734 C730 1.395 . S
C734 H751 0.930 . S
C735 Gd682 2.805 . S
C735 O717 1.263 . S
C735 O718 1.252 . S
C735 C729 1.500 . S
C736 H698 0.930 . S
C736 C712 1.417 . S
C736 C737 1.329 . S
C737 C707 1.437 . S
C737 H708 0.929 . S
C737 C736 1.329 . S
H738 C711 0.931 . S
C739 O721 1.265 . S
C739 O722 1.242 . S
C740 O725 1.261 . S
C740 O726 1.252 . S
C741 C744 1.394 . S
C741 C746 1.370 . S
C741 C747 1.500 . S
C742 C745 1.383 . S
C742 C746 1.395 . S
C743 C744 1.396 . S
C743 C745 1.365 . S
C743 H752 0.929 . S
C744 C741 1.394 . S
C744 C743 1.396 . S
C744 H753 0.930 . S
C745 C742 1.383 . S
C745 C743 1.365 . S
C745 H754 0.931 . S
C746 C741 1.370 . S
C746 C742 1.395 . S
C746 H755 0.930 . S
C747 Gd683 2.805 . S
C747 O723 1.263 . S
C747 O724 1.252 . S
C747 C741 1.500 . S
H748 C731 0.929 . S
H749 C732 0.930 . S
H750 C733 0.931 . S
H751 C734 0.930 . S
H752 C743 0.929 . S
H753 C744 0.930 . S
H754 C745 0.931 . S
H755 C746 0.930 . S
C756 C758 1.422 . S
C756 C760 1.415 . S
C756 N762 1.369 . S
C757 C758 1.421 . S
C757 C759 1.417 . S
C757 C769 1.422 . S
C758 C756 1.422 . S
C758 C757 1.421 . S
C758 N768 1.359 . S
C759 C757 1.417 . S
C759 C761 1.329 . S
C759 H778 0.930 . S
C760 C756 1.415 . S
C760 C761 1.437 . S
C760 C764 1.413 . S
C761 C759 1.329 . S
C761 C760 1.437 . S
C761 H783 0.929 . S
N762 C756 1.369 . S
N762 C763 1.338 . S
N762 Gd767 2.622 . S
C763 N762 1.338 . S
C763 C765 1.378 . S
C763 H775 0.929 . S
C764 C760 1.413 . S
C764 C765 1.348 . S
C764 H780 0.931 . S
C765 C763 1.378 . S
C765 C764 1.348 . S
C765 H781 0.930 . S
Gd766 N786 2.622 . S
Gd766 N793 2.570 . S
Gd766 O800 2.353 1_545 S
Gd766 O801 2.468 . S
Gd766 O802 2.427 . S
Gd766 O804 2.388 1_545 S
Gd766 O805 2.386 1_545 S
Gd766 O809 2.307 1_545 S
Gd766 C819 2.805 . S
Gd767 N762 2.622 . S
Gd767 N768 2.570 . S
Gd767 O799 2.386 . S
Gd767 O803 2.307 . S
Gd767 O806 2.353 . S
Gd767 O807 2.468 . S
Gd767 O808 2.427 . S
Gd767 O810 2.388 . S
Gd767 C831 2.805 . S
N768 C758 1.359 . S
N768 Gd767 2.570 . S
N768 C770 1.343 . S
C769 C757 1.422 . S
C769 C771 1.321 . S
C769 H777 0.931 . S
C770 N768 1.343 . S
C770 C771 1.390 . S
C770 H772 0.931 . S
C771 C769 1.321 . S
C771 C770 1.390 . S
C771 H773 0.930 . S
H772 C770 0.931 . S
H773 C771 0.930 . S
H774 C797 0.931 . S
H775 C763 0.929 . S
H776 C798 0.930 . S
H777 C769 0.931 . S
H778 C759 0.930 . S
H779 C788 0.929 . S
H780 C764 0.931 . S
H781 C765 0.930 . S
H782 C820 0.930 . S
H783 C761 0.929 . S
H784 C789 0.931 . S
H785 C790 0.930 . S
N786 Gd766 2.622 . S
N786 C787 1.369 . S
N786 C788 1.338 . S
C787 N786 1.369 . S
C787 C791 1.415 . S
C787 C794 1.422 . S
C788 H779 0.929 . S
C788 N786 1.338 . S
C788 C790 1.378 . S
C789 H784 0.931 . S
C789 C790 1.348 . S
C789 C791 1.413 . S
C790 H785 0.930 . S
C790 C788 1.378 . S
C790 C789 1.348 . S
C791 C787 1.415 . S
C791 C789 1.413 . S
C791 C821 1.437 . S
H792 C821 0.929 . S
N793 Gd766 2.570 . S
N793 C794 1.359 . S
N793 C797 1.343 . S
C794 C787 1.422 . S
C794 N793 1.359 . S
C794 C796 1.421 . S
C795 C796 1.422 . S
C795 C798 1.321 . S
C795 H822 0.931 . S
C796 C794 1.421 . S
C796 C795 1.422 . S
C796 C820 1.417 . S
C797 H774 0.931 . S
C797 N793 1.343 . S
C797 C798 1.390 . S
C798 H776 0.930 . S
C798 C795 1.321 . S
C798 C797 1.390 . S
O799 Gd767 2.386 . S
O799 C811 1.265 . S
O800 Gd766 2.353 1_565 S
O800 C811 1.242 . S
O801 Gd766 2.468 . S
O801 C819 1.263 . S
O802 Gd766 2.427 . S
O802 C819 1.252 . S
O803 Gd767 2.307 . S
O803 C812 1.261 . S
O804 Gd766 2.388 1_565 S
O804 C812 1.252 . S
O805 Gd766 2.386 1_565 S
O805 C823 1.265 . S
O806 Gd767 2.353 . S
O806 C823 1.242 . S
O807 Gd767 2.468 . S
O807 C831 1.263 . S
O808 Gd767 2.427 . S
O808 C831 1.252 . S
O809 Gd766 2.307 1_565 S
O809 C824 1.261 . S
O810 Gd767 2.388 . S
O810 C824 1.252 . S
C811 O799 1.265 . S
C811 O800 1.242 . S
C812 O803 1.261 . S
C812 O804 1.252 . S
C813 C816 1.394 . S
C813 C818 1.370 . S
C813 C819 1.500 . S
C814 C817 1.383 . S
C814 C818 1.395 . S
C815 C816 1.396 . S
C815 C817 1.365 . S
C815 H832 0.929 . S
C816 C813 1.394 . S
C816 C815 1.396 . S
C816 H833 0.930 . S
C817 C814 1.383 . S
C817 C815 1.365 . S
C817 H834 0.931 . S
C818 C813 1.370 . S
C818 C814 1.395 . S
C818 H835 0.930 . S
C819 Gd766 2.805 . S
C819 O801 1.263 . S
C819 O802 1.252 . S
C819 C813 1.500 . S
C820 H782 0.930 . S
C820 C796 1.417 . S
C820 C821 1.329 . S
C821 C791 1.437 . S
C821 H792 0.929 . S
C821 C820 1.329 . S
H822 C795 0.931 . S
C823 O805 1.265 . S
C823 O806 1.242 . S
C824 O809 1.261 . S
C824 O810 1.252 . S
C825 C828 1.394 . S
C825 C830 1.370 . S
C825 C831 1.500 . S
C826 C829 1.383 . S
C826 C830 1.395 . S
C827 C828 1.396 . S
C827 C829 1.365 . S
C827 H836 0.929 . S
C828 C825 1.394 . S
C828 C827 1.396 . S
C828 H837 0.930 . S
C829 C826 1.383 . S
C829 C827 1.365 . S
C829 H838 0.931 . S
C830 C825 1.370 . S
C830 C826 1.395 . S
C830 H839 0.930 . S
C831 Gd767 2.805 . S
C831 O807 1.263 . S
C831 O808 1.252 . S
C831 C825 1.500 . S
H832 C815 0.929 . S
H833 C816 0.930 . S
H834 C817 0.931 . S
H835 C818 0.930 . S
H836 C827 0.929 . S
H837 C828 0.930 . S
H838 C829 0.931 . S
H839 C830 0.930 . S
C840 C842 1.422 . S
C840 C844 1.415 . S
C840 N846 1.369 . S
C841 C842 1.421 . S
C841 C843 1.417 . S
C841 C853 1.422 . S
C842 C840 1.422 . S
C842 C841 1.421 . S
C842 N852 1.359 . S
C843 C841 1.417 . S
C843 C845 1.329 . S
C843 H862 0.930 . S
C844 C840 1.415 . S
C844 C845 1.437 . S
C844 C848 1.413 . S
C845 C843 1.329 . S
C845 C844 1.437 . S
C845 H867 0.929 . S
N846 C840 1.369 . S
N846 C847 1.338 . S
N846 Gd851 2.622 . S
C847 N846 1.338 . S
C847 C849 1.378 . S
C847 H859 0.929 . S
C848 C844 1.413 . S
C848 C849 1.348 . S
C848 H864 0.931 . S
C849 C847 1.378 . S
C849 C848 1.348 . S
C849 H865 0.930 . S
Gd850 N870 2.622 . S
Gd850 N877 2.570 . S
Gd850 O884 2.353 . S
Gd850 O885 2.468 . S
Gd850 O886 2.427 . S
Gd850 O888 2.388 . S
Gd850 O889 2.386 . S
Gd850 O893 2.307 . S
Gd850 C903 2.805 . S
Gd851 N846 2.622 . S
Gd851 N852 2.570 . S
Gd851 O883 2.386 . S
Gd851 O887 2.307 . S
Gd851 O890 2.353 . S
Gd851 O891 2.468 . S
Gd851 O892 2.427 . S
Gd851 O894 2.388 . S
Gd851 C915 2.805 . S
N852 C842 1.359 . S
N852 Gd851 2.570 . S
N852 C854 1.343 . S
C853 C841 1.422 . S
C853 C855 1.321 . S
C853 H861 0.931 . S
C854 N852 1.343 . S
C854 C855 1.390 . S
C854 H856 0.931 . S
C855 C853 1.321 . S
C855 C854 1.390 . S
C855 H857 0.930 . S
H856 C854 0.931 . S
H857 C855 0.930 . S
H858 C881 0.931 . S
H859 C847 0.929 . S
H860 C882 0.930 . S
H861 C853 0.931 . S
H862 C843 0.930 . S
H863 C872 0.929 . S
H864 C848 0.931 . S
H865 C849 0.930 . S
H866 C904 0.930 . S
H867 C845 0.929 . S
H868 C873 0.931 . S
H869 C874 0.930 . S
N870 Gd850 2.622 . S
N870 C871 1.369 . S
N870 C872 1.338 . S
C871 N870 1.369 . S
C871 C875 1.415 . S
C871 C878 1.422 . S
C872 H863 0.929 . S
C872 N870 1.338 . S
C872 C874 1.378 . S
C873 H868 0.931 . S
C873 C874 1.348 . S
C873 C875 1.413 . S
C874 H869 0.930 . S
C874 C872 1.378 . S
C874 C873 1.348 . S
C875 C871 1.415 . S
C875 C873 1.413 . S
C875 C905 1.437 . S
H876 C905 0.929 . S
N877 Gd850 2.570 . S
N877 C878 1.359 . S
N877 C881 1.343 . S
C878 C871 1.422 . S
C878 N877 1.359 . S
C878 C880 1.421 . S
C879 C880 1.422 . S
C879 C882 1.321 . S
C879 H906 0.931 . S
C880 C878 1.421 . S
C880 C879 1.422 . S
C880 C904 1.417 . S
C881 H858 0.931 . S
C881 N877 1.343 . S
C881 C882 1.390 . S
C882 H860 0.930 . S
C882 C879 1.321 . S
C882 C881 1.390 . S
O883 Gd851 2.386 . S
O883 C895 1.265 . S
O884 Gd850 2.353 . S
O884 C895 1.242 . S
O885 Gd850 2.468 . S
O885 C903 1.263 . S
O886 Gd850 2.427 . S
O886 C903 1.252 . S
O887 Gd851 2.307 . S
O887 C896 1.261 . S
O888 Gd850 2.388 . S
O888 C896 1.252 . S
O889 Gd850 2.386 . S
O889 C907 1.265 . S
O890 Gd851 2.353 . S
O890 C907 1.242 . S
O891 Gd851 2.468 . S
O891 C915 1.263 . S
O892 Gd851 2.427 . S
O892 C915 1.252 . S
O893 Gd850 2.307 . S
O893 C908 1.261 . S
O894 Gd851 2.388 . S
O894 C908 1.252 . S
C895 O883 1.265 . S
C895 O884 1.242 . S
C896 O887 1.261 . S
C896 O888 1.252 . S
C897 C900 1.394 . S
C897 C902 1.370 . S
C897 C903 1.500 . S
C898 C901 1.383 . S
C898 C902 1.395 . S
C899 C900 1.396 . S
C899 C901 1.365 . S
C899 H916 0.929 . S
C900 C897 1.394 . S
C900 C899 1.396 . S
C900 H917 0.930 . S
C901 C898 1.383 . S
C901 C899 1.365 . S
C901 H918 0.931 . S
C902 C897 1.370 . S
C902 C898 1.395 . S
C902 H919 0.930 . S
C903 Gd850 2.805 . S
C903 O885 1.263 . S
C903 O886 1.252 . S
C903 C897 1.500 . S
C904 H866 0.930 . S
C904 C880 1.417 . S
C904 C905 1.329 . S
C905 C875 1.437 . S
C905 H876 0.929 . S
C905 C904 1.329 . S
H906 C879 0.931 . S
C907 O889 1.265 . S
C907 O890 1.242 . S
C908 O893 1.261 . S
C908 O894 1.252 . S
C909 C912 1.394 . S
C909 C914 1.370 . S
C909 C915 1.500 . S
C910 C913 1.383 . S
C910 C914 1.395 . S
C911 C912 1.396 . S
C911 C913 1.365 . S
C911 H920 0.929 . S
C912 C909 1.394 . S
C912 C911 1.396 . S
C912 H921 0.930 . S
C913 C910 1.383 . S
C913 C911 1.365 . S
C913 H922 0.931 . S
C914 C909 1.370 . S
C914 C910 1.395 . S
C914 H923 0.930 . S
C915 Gd851 2.805 . S
C915 O891 1.263 . S
C915 O892 1.252 . S
C915 C909 1.500 . S
H916 C899 0.929 . S
H917 C900 0.930 . S
H918 C901 0.931 . S
H919 C902 0.930 . S
H920 C911 0.929 . S
H921 C912 0.930 . S
H922 C913 0.931 . S
H923 C914 0.930 . S
C924 C926 1.422 . S
C924 C928 1.415 . S
C924 N930 1.369 . S
C925 C926 1.421 . S
C925 C927 1.417 . S
C925 C937 1.422 . S
C926 C924 1.422 . S
C926 C925 1.421 . S
C926 N936 1.359 . S
C927 C925 1.417 . S
C927 C929 1.329 . S
C927 H946 0.930 . S
C928 C924 1.415 . S
C928 C929 1.437 . S
C928 C932 1.413 . S
C929 C927 1.329 . S
C929 C928 1.437 . S
C929 H951 0.929 . S
N930 C924 1.369 . S
N930 C931 1.338 . S
N930 Gd935 2.622 . S
C931 N930 1.338 . S
C931 C933 1.378 . S
C931 H943 0.929 . S
C932 C928 1.413 . S
C932 C933 1.348 . S
C932 H948 0.931 . S
C933 C931 1.378 . S
C933 C932 1.348 . S
C933 H949 0.930 . S
Gd934 N954 2.622 . S
Gd934 N961 2.570 . S
Gd934 O968 2.353 . S
Gd934 O969 2.468 . S
Gd934 O970 2.427 . S
Gd934 O972 2.388 . S
Gd934 O973 2.386 . S
Gd934 O977 2.307 . S
Gd934 C987 2.805 . S
Gd935 N930 2.622 . S
Gd935 N936 2.570 . S
Gd935 O967 2.386 . S
Gd935 O971 2.307 . S
Gd935 O974 2.353 . S
Gd935 O975 2.468 . S
Gd935 O976 2.427 . S
Gd935 O978 2.388 . S
Gd935 C999 2.805 . S
N936 C926 1.359 . S
N936 Gd935 2.570 . S
N936 C938 1.343 . S
C937 C925 1.422 . S
C937 C939 1.321 . S
C937 H945 0.931 . S
C938 N936 1.343 . S
C938 C939 1.390 . S
C938 H940 0.931 . S
C939 C937 1.321 . S
C939 C938 1.390 . S
C939 H941 0.930 . S
H940 C938 0.931 . S
H941 C939 0.930 . S
H942 C965 0.931 . S
H943 C931 0.929 . S
H944 C966 0.930 . S
H945 C937 0.931 . S
H946 C927 0.930 . S
H947 C956 0.929 . S
H948 C932 0.931 . S
H949 C933 0.930 . S
H950 C988 0.930 . S
H951 C929 0.929 . S
H952 C957 0.931 . S
H953 C958 0.930 . S
N954 Gd934 2.622 . S
N954 C955 1.369 . S
N954 C956 1.338 . S
C955 N954 1.369 . S
C955 C959 1.415 . S
C955 C962 1.422 . S
C956 H947 0.929 . S
C956 N954 1.338 . S
C956 C958 1.378 . S
C957 H952 0.931 . S
C957 C958 1.348 . S
C957 C959 1.413 . S
C958 H953 0.930 . S
C958 C956 1.378 . S
C958 C957 1.348 . S
C959 C955 1.415 . S
C959 C957 1.413 . S
C959 C989 1.437 . S
H960 C989 0.929 . S
N961 Gd934 2.570 . S
N961 C962 1.359 . S
N961 C965 1.343 . S
C962 C955 1.422 . S
C962 N961 1.359 . S
C962 C964 1.421 . S
C963 C964 1.422 . S
C963 C966 1.321 . S
C963 H990 0.931 . S
C964 C962 1.421 . S
C964 C963 1.422 . S
C964 C988 1.417 . S
C965 H942 0.931 . S
C965 N961 1.343 . S
C965 C966 1.390 . S
C966 H944 0.930 . S
C966 C963 1.321 . S
C966 C965 1.390 . S
O967 Gd935 2.386 . S
O967 C979 1.265 . S
O968 Gd934 2.353 . S
O968 C979 1.242 . S
O969 Gd934 2.468 . S
O969 C987 1.263 . S
O970 Gd934 2.427 . S
O970 C987 1.252 . S
O971 Gd935 2.307 . S
O971 C980 1.261 . S
O972 Gd934 2.388 . S
O972 C980 1.252 . S
O973 Gd934 2.386 . S
O973 C991 1.265 . S
O974 Gd935 2.353 . S
O974 C991 1.242 . S
O975 Gd935 2.468 . S
O975 C999 1.263 . S
O976 Gd935 2.427 . S
O976 C999 1.252 . S
O977 Gd934 2.307 . S
O977 C992 1.261 . S
O978 Gd935 2.388 . S
O978 C992 1.252 . S
C979 O967 1.265 . S
C979 O968 1.242 . S
C980 O971 1.261 . S
C980 O972 1.252 . S
C981 C984 1.394 . S
C981 C986 1.370 . S
C981 C987 1.500 . S
C982 C985 1.383 . S
C982 C986 1.395 . S
C983 C984 1.396 . S
C983 C985 1.365 . S
C983 H1000 0.929 . S
C984 C981 1.394 . S
C984 C983 1.396 . S
C984 H1001 0.930 . S
C985 C982 1.383 . S
C985 C983 1.365 . S
C985 H1002 0.931 . S
C986 C981 1.370 . S
C986 C982 1.395 . S
C986 H1003 0.930 . S
C987 Gd934 2.805 . S
C987 O969 1.263 . S
C987 O970 1.252 . S
C987 C981 1.500 . S
C988 H950 0.930 . S
C988 C964 1.417 . S
C988 C989 1.329 . S
C989 C959 1.437 . S
C989 H960 0.929 . S
C989 C988 1.329 . S
H990 C963 0.931 . S
C991 O973 1.265 . S
C991 O974 1.242 . S
C992 O977 1.261 . S
C992 O978 1.252 . S
C993 C996 1.394 . S
C993 C998 1.370 . S
C993 C999 1.500 . S
C994 C997 1.383 . S
C994 C998 1.395 . S
C995 C996 1.396 . S
C995 C997 1.365 . S
C995 H1004 0.929 . S
C996 C993 1.394 . S
C996 C995 1.396 . S
C996 H1005 0.930 . S
C997 C994 1.383 . S
C997 C995 1.365 . S
C997 H1006 0.931 . S
C998 C993 1.370 . S
C998 C994 1.395 . S
C998 H1007 0.930 . S
C999 Gd935 2.805 . S
C999 O975 1.263 . S
C999 O976 1.252 . S
C999 C993 1.500 . S
H1000 C983 0.929 . S
H1001 C984 0.930 . S
H1002 C985 0.931 . S
H1003 C986 0.930 . S
H1004 C995 0.929 . S
H1005 C996 0.930 . S
H1006 C997 0.931 . S
H1007 C998 0.930 . S
C1008 C1010 1.422 . S
C1008 C1012 1.415 . S
C1008 N1014 1.369 . S
C1009 C1010 1.421 . S
C1009 C1011 1.417 . S
C1009 C1021 1.422 . S
C1010 C1008 1.422 . S
C1010 C1009 1.421 . S
C1010 N1020 1.359 . S
C1011 C1009 1.417 . S
C1011 C1013 1.329 . S
C1011 H1030 0.930 . S
C1012 C1008 1.415 . S
C1012 C1013 1.437 . S
C1012 C1016 1.413 . S
C1013 C1011 1.329 . S
C1013 C1012 1.437 . S
C1013 H1035 0.929 . S
N1014 C1008 1.369 . S
N1014 C1015 1.338 . S
N1014 Gd1019 2.622 . S
C1015 N1014 1.338 . S
C1015 C1017 1.378 . S
C1015 H1027 0.929 . S
C1016 C1012 1.413 . S
C1016 C1017 1.348 . S
C1016 H1032 0.931 . S
C1017 C1015 1.378 . S
C1017 C1016 1.348 . S
C1017 H1033 0.930 . S
Gd1018 N1038 2.622 . S
Gd1018 N1045 2.570 . S
Gd1018 O1052 2.353 1_455 S
Gd1018 O1053 2.468 . S
Gd1018 O1054 2.427 . S
Gd1018 O1056 2.388 1_455 S
Gd1018 O1057 2.386 1_455 S
Gd1018 O1061 2.307 1_455 S
Gd1018 C1071 2.805 . S
Gd1019 N1014 2.622 . S
Gd1019 N1020 2.570 . S
Gd1019 O1051 2.386 . S
Gd1019 O1055 2.307 . S
Gd1019 O1058 2.353 . S
Gd1019 O1059 2.468 . S
Gd1019 O1060 2.427 . S
Gd1019 O1062 2.388 . S
Gd1019 C1083 2.805 . S
N1020 C1010 1.359 . S
N1020 Gd1019 2.570 . S
N1020 C1022 1.343 . S
C1021 C1009 1.422 . S
C1021 C1023 1.321 . S
C1021 H1029 0.931 . S
C1022 N1020 1.343 . S
C1022 C1023 1.390 . S
C1022 H1024 0.931 . S
C1023 C1021 1.321 . S
C1023 C1022 1.390 . S
C1023 H1025 0.930 . S
H1024 C1022 0.931 . S
H1025 C1023 0.930 . S
H1026 C1049 0.931 . S
H1027 C1015 0.929 . S
H1028 C1050 0.930 . S
H1029 C1021 0.931 . S
H1030 C1011 0.930 . S
H1031 C1040 0.929 . S
H1032 C1016 0.931 . S
H1033 C1017 0.930 . S
H1034 C1072 0.930 . S
H1035 C1013 0.929 . S
H1036 C1041 0.931 . S
H1037 C1042 0.930 . S
N1038 Gd1018 2.622 . S
N1038 C1039 1.369 . S
N1038 C1040 1.338 . S
C1039 N1038 1.369 . S
C1039 C1043 1.415 . S
C1039 C1046 1.422 . S
C1040 H1031 0.929 . S
C1040 N1038 1.338 . S
C1040 C1042 1.378 . S
C1041 H1036 0.931 . S
C1041 C1042 1.348 . S
C1041 C1043 1.413 . S
C1042 H1037 0.930 . S
C1042 C1040 1.378 . S
C1042 C1041 1.348 . S
C1043 C1039 1.415 . S
C1043 C1041 1.413 . S
C1043 C1073 1.437 . S
H1044 C1073 0.929 . S
N1045 Gd1018 2.570 . S
N1045 C1046 1.359 . S
N1045 C1049 1.343 . S
C1046 C1039 1.422 . S
C1046 N1045 1.359 . S
C1046 C1048 1.421 . S
C1047 C1048 1.422 . S
C1047 C1050 1.321 . S
C1047 H1074 0.931 . S
C1048 C1046 1.421 . S
C1048 C1047 1.422 . S
C1048 C1072 1.417 . S
C1049 H1026 0.931 . S
C1049 N1045 1.343 . S
C1049 C1050 1.390 . S
C1050 H1028 0.930 . S
C1050 C1047 1.321 . S
C1050 C1049 1.390 . S
O1051 Gd1019 2.386 . S
O1051 C1063 1.265 . S
O1052 Gd1018 2.353 1_655 S
O1052 C1063 1.242 . S
O1053 Gd1018 2.468 . S
O1053 C1071 1.263 . S
O1054 Gd1018 2.427 . S
O1054 C1071 1.252 . S
O1055 Gd1019 2.307 . S
O1055 C1064 1.261 . S
O1056 Gd1018 2.388 1_655 S
O1056 C1064 1.252 . S
O1057 Gd1018 2.386 1_655 S
O1057 C1075 1.265 . S
O1058 Gd1019 2.353 . S
O1058 C1075 1.242 . S
O1059 Gd1019 2.468 . S
O1059 C1083 1.263 . S
O1060 Gd1019 2.427 . S
O1060 C1083 1.252 . S
O1061 Gd1018 2.307 1_655 S
O1061 C1076 1.261 . S
O1062 Gd1019 2.388 . S
O1062 C1076 1.252 . S
C1063 O1051 1.265 . S
C1063 O1052 1.242 . S
C1064 O1055 1.261 . S
C1064 O1056 1.252 . S
C1065 C1068 1.394 . S
C1065 C1070 1.370 . S
C1065 C1071 1.500 . S
C1066 C1069 1.383 . S
C1066 C1070 1.395 . S
C1067 C1068 1.396 . S
C1067 C1069 1.365 . S
C1067 H1084 0.929 . S
C1068 C1065 1.394 . S
C1068 C1067 1.396 . S
C1068 H1085 0.930 . S
C1069 C1066 1.383 . S
C1069 C1067 1.365 . S
C1069 H1086 0.931 . S
C1070 C1065 1.370 . S
C1070 C1066 1.395 . S
C1070 H1087 0.930 . S
C1071 Gd1018 2.805 . S
C1071 O1053 1.263 . S
C1071 O1054 1.252 . S
C1071 C1065 1.500 . S
C1072 H1034 0.930 . S
C1072 C1048 1.417 . S
C1072 C1073 1.329 . S
C1073 C1043 1.437 . S
C1073 H1044 0.929 . S
C1073 C1072 1.329 . S
H1074 C1047 0.931 . S
C1075 O1057 1.265 . S
C1075 O1058 1.242 . S
C1076 O1061 1.261 . S
C1076 O1062 1.252 . S
C1077 C1080 1.394 . S
C1077 C1082 1.370 . S
C1077 C1083 1.500 . S
C1078 C1081 1.383 . S
C1078 C1082 1.395 . S
C1079 C1080 1.396 . S
C1079 C1081 1.365 . S
C1079 H1088 0.929 . S
C1080 C1077 1.394 . S
C1080 C1079 1.396 . S
C1080 H1089 0.930 . S
C1081 C1078 1.383 . S
C1081 C1079 1.365 . S
C1081 H1090 0.931 . S
C1082 C1077 1.370 . S
C1082 C1078 1.395 . S
C1082 H1091 0.930 . S
C1083 Gd1019 2.805 . S
C1083 O1059 1.263 . S
C1083 O1060 1.252 . S
C1083 C1077 1.500 . S
H1084 C1067 0.929 . S
H1085 C1068 0.930 . S
H1086 C1069 0.931 . S
H1087 C1070 0.930 . S
H1088 C1079 0.929 . S
H1089 C1080 0.930 . S
H1090 C1081 0.931 . S
H1091 C1082 0.930 . S
C1092 C1094 1.422 . S
C1092 C1096 1.415 . S
C1092 N1098 1.369 . S
C1093 C1094 1.421 . S
C1093 C1095 1.417 . S
C1093 C1105 1.422 . S
C1094 C1092 1.422 . S
C1094 C1093 1.421 . S
C1094 N1104 1.359 . S
C1095 C1093 1.417 . S
C1095 C1097 1.329 . S
C1095 H1114 0.930 . S
C1096 C1092 1.415 . S
C1096 C1097 1.437 . S
C1096 C1100 1.413 . S
C1097 C1095 1.329 . S
C1097 C1096 1.437 . S
C1097 H1119 0.929 . S
N1098 C1092 1.369 . S
N1098 C1099 1.338 . S
N1098 Gd1103 2.622 . S
C1099 N1098 1.338 . S
C1099 C1101 1.378 . S
C1099 H1111 0.929 . S
C1100 C1096 1.413 . S
C1100 C1101 1.348 . S
C1100 H1116 0.931 . S
C1101 C1099 1.378 . S
C1101 C1100 1.348 . S
C1101 H1117 0.930 . S
Gd1102 N1122 2.622 . S
Gd1102 N1129 2.570 . S
Gd1102 O1136 2.353 1_545 S
Gd1102 O1137 2.468 . S
Gd1102 O1138 2.427 . S
Gd1102 O1140 2.388 1_545 S
Gd1102 O1141 2.386 1_545 S
Gd1102 O1145 2.307 1_545 S
Gd1102 C1155 2.805 . S
Gd1103 N1098 2.622 . S
Gd1103 N1104 2.570 . S
Gd1103 O1135 2.386 . S
Gd1103 O1139 2.307 . S
Gd1103 O1142 2.353 . S
Gd1103 O1143 2.468 . S
Gd1103 O1144 2.427 . S
Gd1103 O1146 2.388 . S
Gd1103 C1167 2.805 . S
N1104 C1094 1.359 . S
N1104 Gd1103 2.570 . S
N1104 C1106 1.343 . S
C1105 C1093 1.422 . S
C1105 C1107 1.321 . S
C1105 H1113 0.931 . S
C1106 N1104 1.343 . S
C1106 C1107 1.390 . S
C1106 H1108 0.931 . S
C1107 C1105 1.321 . S
C1107 C1106 1.390 . S
C1107 H1109 0.930 . S
H1108 C1106 0.931 . S
H1109 C1107 0.930 . S
H1110 C1133 0.931 . S
H1111 C1099 0.929 . S
H1112 C1134 0.930 . S
H1113 C1105 0.931 . S
H1114 C1095 0.930 . S
H1115 C1124 0.929 . S
H1116 C1100 0.931 . S
H1117 C1101 0.930 . S
H1118 C1156 0.930 . S
H1119 C1097 0.929 . S
H1120 C1125 0.931 . S
H1121 C1126 0.930 . S
N1122 Gd1102 2.622 . S
N1122 C1123 1.369 . S
N1122 C1124 1.338 . S
C1123 N1122 1.369 . S
C1123 C1127 1.415 . S
C1123 C1130 1.422 . S
C1124 H1115 0.929 . S
C1124 N1122 1.338 . S
C1124 C1126 1.378 . S
C1125 H1120 0.931 . S
C1125 C1126 1.348 . S
C1125 C1127 1.413 . S
C1126 H1121 0.930 . S
C1126 C1124 1.378 . S
C1126 C1125 1.348 . S
C1127 C1123 1.415 . S
C1127 C1125 1.413 . S
C1127 C1157 1.437 . S
H1128 C1157 0.929 . S
N1129 Gd1102 2.570 . S
N1129 C1130 1.359 . S
N1129 C1133 1.343 . S
C1130 C1123 1.422 . S
C1130 N1129 1.359 . S
C1130 C1132 1.421 . S
C1131 C1132 1.422 . S
C1131 C1134 1.321 . S
C1131 H1158 0.931 . S
C1132 C1130 1.421 . S
C1132 C1131 1.422 . S
C1132 C1156 1.417 . S
C1133 H1110 0.931 . S
C1133 N1129 1.343 . S
C1133 C1134 1.390 . S
C1134 H1112 0.930 . S
C1134 C1131 1.321 . S
C1134 C1133 1.390 . S
O1135 Gd1103 2.386 . S
O1135 C1147 1.265 . S
O1136 Gd1102 2.353 1_565 S
O1136 C1147 1.242 . S
O1137 Gd1102 2.468 . S
O1137 C1155 1.263 . S
O1138 Gd1102 2.427 . S
O1138 C1155 1.252 . S
O1139 Gd1103 2.307 . S
O1139 C1148 1.261 . S
O1140 Gd1102 2.388 1_565 S
O1140 C1148 1.252 . S
O1141 Gd1102 2.386 1_565 S
O1141 C1159 1.265 . S
O1142 Gd1103 2.353 . S
O1142 C1159 1.242 . S
O1143 Gd1103 2.468 . S
O1143 C1167 1.263 . S
O1144 Gd1103 2.427 . S
O1144 C1167 1.252 . S
O1145 Gd1102 2.307 1_565 S
O1145 C1160 1.261 . S
O1146 Gd1103 2.388 . S
O1146 C1160 1.252 . S
C1147 O1135 1.265 . S
C1147 O1136 1.242 . S
C1148 O1139 1.261 . S
C1148 O1140 1.252 . S
C1149 C1152 1.394 . S
C1149 C1154 1.370 . S
C1149 C1155 1.500 . S
C1150 C1153 1.383 . S
C1150 C1154 1.395 . S
C1151 C1152 1.396 . S
C1151 C1153 1.365 . S
C1151 H1168 0.929 . S
C1152 C1149 1.394 . S
C1152 C1151 1.396 . S
C1152 H1169 0.930 . S
C1153 C1150 1.383 . S
C1153 C1151 1.365 . S
C1153 H1170 0.931 . S
C1154 C1149 1.370 . S
C1154 C1150 1.395 . S
C1154 H1171 0.930 . S
C1155 Gd1102 2.805 . S
C1155 O1137 1.263 . S
C1155 O1138 1.252 . S
C1155 C1149 1.500 . S
C1156 H1118 0.930 . S
C1156 C1132 1.417 . S
C1156 C1157 1.329 . S
C1157 C1127 1.437 . S
C1157 H1128 0.929 . S
C1157 C1156 1.329 . S
H1158 C1131 0.931 . S
C1159 O1141 1.265 . S
C1159 O1142 1.242 . S
C1160 O1145 1.261 . S
C1160 O1146 1.252 . S
C1161 C1164 1.394 . S
C1161 C1166 1.370 . S
C1161 C1167 1.500 . S
C1162 C1165 1.383 . S
C1162 C1166 1.395 . S
C1163 C1164 1.396 . S
C1163 C1165 1.365 . S
C1163 H1172 0.929 . S
C1164 C1161 1.394 . S
C1164 C1163 1.396 . S
C1164 H1173 0.930 . S
C1165 C1162 1.383 . S
C1165 C1163 1.365 . S
C1165 H1174 0.931 . S
C1166 C1161 1.370 . S
C1166 C1162 1.395 . S
C1166 H1175 0.930 . S
C1167 Gd1103 2.805 . S
C1167 O1143 1.263 . S
C1167 O1144 1.252 . S
C1167 C1161 1.500 . S
H1168 C1151 0.929 . S
H1169 C1152 0.930 . S
H1170 C1153 0.931 . S
H1171 C1154 0.930 . S
H1172 C1163 0.929 . S
H1173 C1164 0.930 . S
H1174 C1165 0.931 . S
H1175 C1166 0.930 . S
C1176 C1178 1.422 . S
C1176 C1180 1.415 . S
C1176 N1182 1.369 . S
C1177 C1178 1.421 . S
C1177 C1179 1.417 . S
C1177 C1189 1.422 . S
C1178 C1176 1.422 . S
C1178 C1177 1.421 . S
C1178 N1188 1.359 . S
C1179 C1177 1.417 . S
C1179 C1181 1.329 . S
C1179 H1198 0.930 . S
C1180 C1176 1.415 . S
C1180 C1181 1.437 . S
C1180 C1184 1.413 . S
C1181 C1179 1.329 . S
C1181 C1180 1.437 . S
C1181 H1203 0.929 . S
N1182 C1176 1.369 . S
N1182 C1183 1.338 . S
N1182 Gd1187 2.622 . S
C1183 N1182 1.338 . S
C1183 C1185 1.378 . S
C1183 H1195 0.929 . S
C1184 C1180 1.413 . S
C1184 C1185 1.348 . S
C1184 H1200 0.931 . S
C1185 C1183 1.378 . S
C1185 C1184 1.348 . S
C1185 H1201 0.930 . S
Gd1186 N1206 2.622 . S
Gd1186 N1213 2.570 . S
Gd1186 O1220 2.353 . S
Gd1186 O1221 2.468 . S
Gd1186 O1222 2.427 . S
Gd1186 O1224 2.388 . S
Gd1186 O1225 2.386 . S
Gd1186 O1229 2.307 . S
Gd1186 C1239 2.805 . S
Gd1187 N1182 2.622 . S
Gd1187 N1188 2.570 . S
Gd1187 O1219 2.386 . S
Gd1187 O1223 2.307 . S
Gd1187 O1226 2.353 . S
Gd1187 O1227 2.468 . S
Gd1187 O1228 2.427 . S
Gd1187 O1230 2.388 . S
Gd1187 C1251 2.805 . S
N1188 C1178 1.359 . S
N1188 Gd1187 2.570 . S
N1188 C1190 1.343 . S
C1189 C1177 1.422 . S
C1189 C1191 1.321 . S
C1189 H1197 0.931 . S
C1190 N1188 1.343 . S
C1190 C1191 1.390 . S
C1190 H1192 0.931 . S
C1191 C1189 1.321 . S
C1191 C1190 1.390 . S
C1191 H1193 0.930 . S
H1192 C1190 0.931 . S
H1193 C1191 0.930 . S
H1194 C1217 0.931 . S
H1195 C1183 0.929 . S
H1196 C1218 0.930 . S
H1197 C1189 0.931 . S
H1198 C1179 0.930 . S
H1199 C1208 0.929 . S
H1200 C1184 0.931 . S
H1201 C1185 0.930 . S
H1202 C1240 0.930 . S
H1203 C1181 0.929 . S
H1204 C1209 0.931 . S
H1205 C1210 0.930 . S
N1206 Gd1186 2.622 . S
N1206 C1207 1.369 . S
N1206 C1208 1.338 . S
C1207 N1206 1.369 . S
C1207 C1211 1.415 . S
C1207 C1214 1.422 . S
C1208 H1199 0.929 . S
C1208 N1206 1.338 . S
C1208 C1210 1.378 . S
C1209 H1204 0.931 . S
C1209 C1210 1.348 . S
C1209 C1211 1.413 . S
C1210 H1205 0.930 . S
C1210 C1208 1.378 . S
C1210 C1209 1.348 . S
C1211 C1207 1.415 . S
C1211 C1209 1.413 . S
C1211 C1241 1.437 . S
H1212 C1241 0.929 . S
N1213 Gd1186 2.570 . S
N1213 C1214 1.359 . S
N1213 C1217 1.343 . S
C1214 C1207 1.422 . S
C1214 N1213 1.359 . S
C1214 C1216 1.421 . S
C1215 C1216 1.422 . S
C1215 C1218 1.321 . S
C1215 H1242 0.931 . S
C1216 C1214 1.421 . S
C1216 C1215 1.422 . S
C1216 C1240 1.417 . S
C1217 H1194 0.931 . S
C1217 N1213 1.343 . S
C1217 C1218 1.390 . S
C1218 H1196 0.930 . S
C1218 C1215 1.321 . S
C1218 C1217 1.390 . S
O1219 Gd1187 2.386 . S
O1219 C1231 1.265 . S
O1220 Gd1186 2.353 . S
O1220 C1231 1.242 . S
O1221 Gd1186 2.468 . S
O1221 C1239 1.263 . S
O1222 Gd1186 2.427 . S
O1222 C1239 1.252 . S
O1223 Gd1187 2.307 . S
O1223 C1232 1.261 . S
O1224 Gd1186 2.388 . S
O1224 C1232 1.252 . S
O1225 Gd1186 2.386 . S
O1225 C1243 1.265 . S
O1226 Gd1187 2.353 . S
O1226 C1243 1.242 . S
O1227 Gd1187 2.468 . S
O1227 C1251 1.263 . S
O1228 Gd1187 2.427 . S
O1228 C1251 1.252 . S
O1229 Gd1186 2.307 . S
O1229 C1244 1.261 . S
O1230 Gd1187 2.388 . S
O1230 C1244 1.252 . S
C1231 O1219 1.265 . S
C1231 O1220 1.242 . S
C1232 O1223 1.261 . S
C1232 O1224 1.252 . S
C1233 C1236 1.394 . S
C1233 C1238 1.370 . S
C1233 C1239 1.500 . S
C1234 C1237 1.383 . S
C1234 C1238 1.395 . S
C1235 C1236 1.396 . S
C1235 C1237 1.365 . S
C1235 H1252 0.929 . S
C1236 C1233 1.394 . S
C1236 C1235 1.396 . S
C1236 H1253 0.930 . S
C1237 C1234 1.383 . S
C1237 C1235 1.365 . S
C1237 H1254 0.931 . S
C1238 C1233 1.370 . S
C1238 C1234 1.395 . S
C1238 H1255 0.930 . S
C1239 Gd1186 2.805 . S
C1239 O1221 1.263 . S
C1239 O1222 1.252 . S
C1239 C1233 1.500 . S
C1240 H1202 0.930 . S
C1240 C1216 1.417 . S
C1240 C1241 1.329 . S
C1241 C1211 1.437 . S
C1241 H1212 0.929 . S
C1241 C1240 1.329 . S
H1242 C1215 0.931 . S
C1243 O1225 1.265 . S
C1243 O1226 1.242 . S
C1244 O1229 1.261 . S
C1244 O1230 1.252 . S
C1245 C1248 1.394 . S
C1245 C1250 1.370 . S
C1245 C1251 1.500 . S
C1246 C1249 1.383 . S
C1246 C1250 1.395 . S
C1247 C1248 1.396 . S
C1247 C1249 1.365 . S
C1247 H1256 0.929 . S
C1248 C1245 1.394 . S
C1248 C1247 1.396 . S
C1248 H1257 0.930 . S
C1249 C1246 1.383 . S
C1249 C1247 1.365 . S
C1249 H1258 0.931 . S
C1250 C1245 1.370 . S
C1250 C1246 1.395 . S
C1250 H1259 0.930 . S
C1251 Gd1187 2.805 . S
C1251 O1227 1.263 . S
C1251 O1228 1.252 . S
C1251 C1245 1.500 . S
H1252 C1235 0.929 . S
H1253 C1236 0.930 . S
H1254 C1237 0.931 . S
H1255 C1238 0.930 . S
H1256 C1247 0.929 . S
H1257 C1248 0.930 . S
H1258 C1249 0.931 . S
H1259 C1250 0.930 . S
C1260 C1262 1.422 . S
C1260 C1264 1.415 . S
C1260 N1266 1.369 . S
C1261 C1262 1.421 . S
C1261 C1263 1.417 . S
C1261 C1273 1.422 . S
C1262 C1260 1.422 . S
C1262 C1261 1.421 . S
C1262 N1272 1.359 . S
C1263 C1261 1.417 . S
C1263 C1265 1.329 . S
C1263 H1282 0.930 . S
C1264 C1260 1.415 . S
C1264 C1265 1.437 . S
C1264 C1268 1.413 . S
C1265 C1263 1.329 . S
C1265 C1264 1.437 . S
C1265 H1287 0.929 . S
N1266 C1260 1.369 . S
N1266 C1267 1.338 . S
N1266 Gd1271 2.622 . S
C1267 N1266 1.338 . S
C1267 C1269 1.378 . S
C1267 H1279 0.929 . S
C1268 C1264 1.413 . S
C1268 C1269 1.348 . S
C1268 H1284 0.931 . S
C1269 C1267 1.378 . S
C1269 C1268 1.348 . S
C1269 H1285 0.930 . S
Gd1270 N1290 2.622 . S
Gd1270 N1297 2.570 . S
Gd1270 O1304 2.353 . S
Gd1270 O1305 2.468 . S
Gd1270 O1306 2.427 . S
Gd1270 O1308 2.388 . S
Gd1270 O1309 2.386 . S
Gd1270 O1313 2.307 . S
Gd1270 C1323 2.805 . S
Gd1271 N1266 2.622 . S
Gd1271 N1272 2.570 . S
Gd1271 O1303 2.386 . S
Gd1271 O1307 2.307 . S
Gd1271 O1310 2.353 . S
Gd1271 O1311 2.468 . S
Gd1271 O1312 2.427 . S
Gd1271 O1314 2.388 . S
Gd1271 C1335 2.805 . S
N1272 C1262 1.359 . S
N1272 Gd1271 2.570 . S
N1272 C1274 1.343 . S
C1273 C1261 1.422 . S
C1273 C1275 1.321 . S
C1273 H1281 0.931 . S
C1274 N1272 1.343 . S
C1274 C1275 1.390 . S
C1274 H1276 0.931 . S
C1275 C1273 1.321 . S
C1275 C1274 1.390 . S
C1275 H1277 0.930 . S
H1276 C1274 0.931 . S
H1277 C1275 0.930 . S
H1278 C1301 0.931 . S
H1279 C1267 0.929 . S
H1280 C1302 0.930 . S
H1281 C1273 0.931 . S
H1282 C1263 0.930 . S
H1283 C1292 0.929 . S
H1284 C1268 0.931 . S
H1285 C1269 0.930 . S
H1286 C1324 0.930 . S
H1287 C1265 0.929 . S
H1288 C1293 0.931 . S
H1289 C1294 0.930 . S
N1290 Gd1270 2.622 . S
N1290 C1291 1.369 . S
N1290 C1292 1.338 . S
C1291 N1290 1.369 . S
C1291 C1295 1.415 . S
C1291 C1298 1.422 . S
C1292 H1283 0.929 . S
C1292 N1290 1.338 . S
C1292 C1294 1.378 . S
C1293 H1288 0.931 . S
C1293 C1294 1.348 . S
C1293 C1295 1.413 . S
C1294 H1289 0.930 . S
C1294 C1292 1.378 . S
C1294 C1293 1.348 . S
C1295 C1291 1.415 . S
C1295 C1293 1.413 . S
C1295 C1325 1.437 . S
H1296 C1325 0.929 . S
N1297 Gd1270 2.570 . S
N1297 C1298 1.359 . S
N1297 C1301 1.343 . S
C1298 C1291 1.422 . S
C1298 N1297 1.359 . S
C1298 C1300 1.421 . S
C1299 C1300 1.422 . S
C1299 C1302 1.321 . S
C1299 H1326 0.931 . S
C1300 C1298 1.421 . S
C1300 C1299 1.422 . S
C1300 C1324 1.417 . S
C1301 H1278 0.931 . S
C1301 N1297 1.343 . S
C1301 C1302 1.390 . S
C1302 H1280 0.930 . S
C1302 C1299 1.321 . S
C1302 C1301 1.390 . S
O1303 Gd1271 2.386 . S
O1303 C1315 1.265 . S
O1304 Gd1270 2.353 . S
O1304 C1315 1.242 . S
O1305 Gd1270 2.468 . S
O1305 C1323 1.263 . S
O1306 Gd1270 2.427 . S
O1306 C1323 1.252 . S
O1307 Gd1271 2.307 . S
O1307 C1316 1.261 . S
O1308 Gd1270 2.388 . S
O1308 C1316 1.252 . S
O1309 Gd1270 2.386 . S
O1309 C1327 1.265 . S
O1310 Gd1271 2.353 . S
O1310 C1327 1.242 . S
O1311 Gd1271 2.468 . S
O1311 C1335 1.263 . S
O1312 Gd1271 2.427 . S
O1312 C1335 1.252 . S
O1313 Gd1270 2.307 . S
O1313 C1328 1.261 . S
O1314 Gd1271 2.388 . S
O1314 C1328 1.252 . S
C1315 O1303 1.265 . S
C1315 O1304 1.242 . S
C1316 O1307 1.261 . S
C1316 O1308 1.252 . S
C1317 C1320 1.394 . S
C1317 C1322 1.370 . S
C1317 C1323 1.500 . S
C1318 C1321 1.383 . S
C1318 C1322 1.395 . S
C1319 C1320 1.396 . S
C1319 C1321 1.365 . S
C1319 H1336 0.929 . S
C1320 C1317 1.394 . S
C1320 C1319 1.396 . S
C1320 H1337 0.930 . S
C1321 C1318 1.383 . S
C1321 C1319 1.365 . S
C1321 H1338 0.931 . S
C1322 C1317 1.370 . S
C1322 C1318 1.395 . S
C1322 H1339 0.930 . S
C1323 Gd1270 2.805 . S
C1323 O1305 1.263 . S
C1323 O1306 1.252 . S
C1323 C1317 1.500 . S
C1324 H1286 0.930 . S
C1324 C1300 1.417 . S
C1324 C1325 1.329 . S
C1325 C1295 1.437 . S
C1325 H1296 0.929 . S
C1325 C1324 1.329 . S
H1326 C1299 0.931 . S
C1327 O1309 1.265 . S
C1327 O1310 1.242 . S
C1328 O1313 1.261 . S
C1328 O1314 1.252 . S
C1329 C1332 1.394 . S
C1329 C1334 1.370 . S
C1329 C1335 1.500 . S
C1330 C1333 1.383 . S
C1330 C1334 1.395 . S
C1331 C1332 1.396 . S
C1331 C1333 1.365 . S
C1331 H1340 0.929 . S
C1332 C1329 1.394 . S
C1332 C1331 1.396 . S
C1332 H1341 0.930 . S
C1333 C1330 1.383 . S
C1333 C1331 1.365 . S
C1333 H1342 0.931 . S
C1334 C1329 1.370 . S
C1334 C1330 1.395 . S
C1334 H1343 0.930 . S
C1335 Gd1271 2.805 . S
C1335 O1311 1.263 . S
C1335 O1312 1.252 . S
C1335 C1329 1.500 . S
H1336 C1319 0.929 . S
H1337 C1320 0.930 . S
H1338 C1321 0.931 . S
H1339 C1322 0.930 . S
H1340 C1331 0.929 . S
H1341 C1332 0.930 . S
H1342 C1333 0.931 . S
H1343 C1334 0.930 . S
H1344 C1352 0.929 . S
H1345 C1354 0.930 . S
H1346 C1356 0.930 . S
H1347 C1359 0.929 . S
H1348 C1362 0.930 . S
H1349 C1364 0.960 . S
H1350 C1364 0.960 . S
H1351 C1364 0.960 . S
C1352 H1344 0.929 . S
C1352 C1353 1.377 . S
C1352 C1354 1.384 . S
C1353 C1352 1.377 . S
C1353 C1359 1.390 . S
C1354 H1345 0.930 . S
C1354 C1352 1.384 . S
C1354 C1355 1.372 . S
C1355 C1354 1.372 . S
C1355 C1356 1.400 . S
C1355 C1360 1.490 . S
C1356 H1346 0.930 . S
C1356 C1355 1.400 . S
C1356 C1359 1.386 . S
H1357 C1373 0.930 . S
H1358 C1374 0.931 . S
C1359 H1347 0.929 . S
C1359 C1353 1.390 . S
C1359 C1356 1.386 . S
C1360 C1355 1.490 . S
C1360 C1362 1.395 . S
C1360 C1363 1.403 . S
H1361 C1367 0.930 . S
C1362 H1348 0.930 . S
C1362 C1360 1.395 . S
C1362 C1365 1.403 . S
C1363 C1360 1.403 . S
C1363 C1364 1.524 . S
C1363 C1367 1.400 . S
C1364 H1349 0.960 . S
C1364 H1350 0.960 . S
C1364 H1351 0.960 . S
C1364 C1363 1.524 . S
C1365 C1362 1.403 . S
C1365 C1366 1.392 . S
C1365 C1369 1.495 . S
C1366 C1365 1.392 . S
C1366 C1367 1.385 . S
C1366 C1368 1.478 . S
C1367 H1361 0.930 . S
C1367 C1363 1.400 . S
C1367 C1366 1.385 . S
C1368 C1366 1.478 . S
C1368 C1370 1.381 . S
C1368 C1374 1.383 . S
C1369 C1365 1.495 . S
C1369 H1375 0.959 . S
C1369 H1376 0.961 . S
C1369 H1377 0.960 . S
C1370 C1368 1.381 . S
C1370 C1371 1.394 . S
C1370 H1378 0.930 . S
C1371 C1370 1.394 . S
C1371 C1372 1.383 . S
C1371 H1379 0.929 . S
C1372 C1371 1.383 . S
C1372 C1373 1.377 . S
C1373 H1357 0.930 . S
C1373 C1372 1.377 . S
C1373 C1374 1.379 . S
C1374 H1358 0.931 . S
C1374 C1368 1.383 . S
C1374 C1373 1.379 . S
H1375 C1369 0.959 . S
H1376 C1369 0.961 . S
H1377 C1369 0.960 . S
H1378 C1370 0.930 . S
H1379 C1371 0.929 . S
H1380 C1388 0.929 . S
H1381 C1390 0.930 . S
H1382 C1392 0.930 1_655 S
H1383 C1395 0.929 . S
H1384 C1398 0.930 . S
H1385 C1400 0.960 . S
H1386 C1400 0.960 . S
H1387 C1400 0.960 . S
C1388 H1380 0.929 . S
C1388 C1389 1.377 . S
C1388 C1390 1.384 . S
C1389 C1388 1.377 . S
C1389 C1395 1.390 . S
C1390 H1381 0.930 . S
C1390 C1388 1.384 . S
C1390 C1391 1.372 . S
C1391 C1390 1.372 . S
C1391 C1392 1.400 . S
C1391 C1396 1.490 . S
C1392 H1382 0.930 1_455 S
C1392 C1391 1.400 . S
C1392 C1395 1.386 . S
H1393 C1409 0.930 . S
H1394 C1410 0.931 . S
C1395 H1383 0.929 . S
C1395 C1389 1.390 . S
C1395 C1392 1.386 . S
C1396 C1391 1.490 . S
C1396 C1398 1.395 . S
C1396 C1399 1.403 1_455 S
H1397 C1403 0.930 . S
C1398 H1384 0.930 . S
C1398 C1396 1.395 . S
C1398 C1401 1.403 . S
C1399 C1396 1.403 1_655 S
C1399 C1400 1.524 . S
C1399 C1403 1.400 . S
C1400 H1385 0.960 . S
C1400 H1386 0.960 . S
C1400 H1387 0.960 . S
C1400 C1399 1.524 . S
C1401 C1398 1.403 . S
C1401 C1402 1.392 1_455 S
C1401 C1405 1.495 . S
C1402 C1401 1.392 1_655 S
C1402 C1403 1.385 . S
C1402 C1404 1.478 . S
C1403 H1397 0.930 . S
C1403 C1399 1.400 . S
C1403 C1402 1.385 . S
C1404 C1402 1.478 . S
C1404 C1406 1.382 1_655 S
C1404 C1410 1.383 . S
C1405 C1401 1.495 . S
C1405 H1411 0.959 . S
C1405 H1412 0.961 . S
C1405 H1413 0.960 . S
C1406 C1404 1.382 1_455 S
C1406 C1407 1.395 1_455 S
C1406 H1414 0.928 . S
C1407 C1406 1.395 1_655 S
C1407 C1408 1.383 . S
C1407 H1415 0.929 . S
C1408 C1407 1.383 . S
C1408 C1409 1.377 . S
C1409 H1393 0.930 . S
C1409 C1408 1.377 . S
C1409 C1410 1.379 . S
C1410 H1394 0.931 . S
C1410 C1404 1.383 . S
C1410 C1409 1.379 . S
H1411 C1405 0.959 . S
H1412 C1405 0.961 . S
H1413 C1405 0.960 . S
H1414 C1406 0.928 . S
H1415 C1407 0.929 . S
H1416 C1424 0.929 . S
H1417 C1426 0.930 . S
H1418 C1428 0.930 . S
H1419 C1431 0.929 . S
H1420 C1434 0.930 . S
H1421 C1436 0.960 . S
H1422 C1436 0.960 . S
H1423 C1436 0.960 . S
C1424 H1416 0.929 . S
C1424 C1425 1.377 . S
C1424 C1426 1.384 . S
C1425 C1424 1.377 . S
C1425 C1431 1.390 . S
C1426 H1417 0.930 . S
C1426 C1424 1.384 . S
C1426 C1427 1.372 . S
C1427 C1426 1.372 . S
C1427 C1428 1.400 . S
C1427 C1432 1.490 . S
C1428 H1418 0.930 . S
C1428 C1427 1.400 . S
C1428 C1431 1.386 . S
H1429 C1445 0.930 . S
H1430 C1446 0.931 . S
C1431 H1419 0.929 . S
C1431 C1425 1.390 . S
C1431 C1428 1.386 . S
C1432 C1427 1.490 . S
C1432 C1434 1.395 1_565 S
C1432 C1435 1.403 . S
H1433 C1439 0.930 . S
C1434 H1420 0.930 . S
C1434 C1432 1.395 1_545 S
C1434 C1437 1.403 . S
C1435 C1432 1.403 . S
C1435 C1436 1.524 . S
C1435 C1439 1.400 . S
C1436 H1421 0.960 . S
C1436 H1422 0.960 . S
C1436 H1423 0.960 . S
C1436 C1435 1.524 . S
C1437 C1434 1.403 . S
C1437 C1438 1.392 . S
C1437 C1441 1.495 . S
C1438 C1437 1.392 . S
C1438 C1439 1.385 1_545 S
C1438 C1440 1.478 . S
C1439 H1433 0.930 . S
C1439 C1435 1.400 . S
C1439 C1438 1.385 1_565 S
C1440 C1438 1.478 . S
C1440 C1442 1.381 . S
C1440 C1446 1.383 . S
C1441 C1437 1.495 . S
C1441 H1447 0.959 . S
C1441 H1448 0.961 . S
C1441 H1449 0.960 . S
C1442 C1440 1.381 . S
C1442 C1443 1.394 . S
C1442 H1450 0.930 . S
C1443 C1442 1.394 . S
C1443 C1444 1.383 . S
C1443 H1451 0.929 . S
C1444 C1443 1.383 . S
C1444 C1445 1.377 . S
C1445 H1429 0.930 . S
C1445 C1444 1.377 . S
C1445 C1446 1.379 . S
C1446 H1430 0.931 . S
C1446 C1440 1.383 . S
C1446 C1445 1.379 . S
H1447 C1441 0.959 . S
H1448 C1441 0.961 . S
H1449 C1441 0.960 . S
H1450 C1442 0.930 . S
H1451 C1443 0.929 . S
H1452 C1460 0.929 . S
H1453 C1462 0.930 . S
H1454 C1464 0.930 . S
H1455 C1467 0.929 . S
H1456 C1470 0.930 . S
H1457 C1472 0.960 . S
H1458 C1472 0.960 . S
H1459 C1472 0.960 . S
C1460 H1452 0.929 . S
C1460 C1461 1.377 . S
C1460 C1462 1.384 . S
C1461 C1460 1.377 . S
C1461 C1467 1.390 . S
C1462 H1453 0.930 . S
C1462 C1460 1.384 . S
C1462 C1463 1.372 . S
C1463 C1462 1.372 . S
C1463 C1464 1.400 . S
C1463 C1468 1.490 . S
C1464 H1454 0.930 . S
C1464 C1463 1.400 . S
C1464 C1467 1.386 . S
H1465 C1481 0.930 . S
H1466 C1482 0.931 . S
C1467 H1455 0.929 . S
C1467 C1461 1.390 . S
C1467 C1464 1.386 . S
C1468 C1463 1.490 . S
C1468 C1470 1.395 . S
C1468 C1471 1.403 . S
H1469 C1475 0.930 . S
C1470 H1456 0.930 . S
C1470 C1468 1.395 . S
C1470 C1473 1.403 . S
C1471 C1468 1.403 . S
C1471 C1472 1.524 . S
C1471 C1475 1.400 . S
C1472 H1457 0.960 . S
C1472 H1458 0.960 . S
C1472 H1459 0.960 . S
C1472 C1471 1.524 . S
C1473 C1470 1.403 . S
C1473 C1474 1.392 . S
C1473 C1477 1.495 . S
C1474 C1473 1.392 . S
C1474 C1475 1.385 . S
C1474 C1476 1.478 . S
C1475 H1469 0.930 . S
C1475 C1471 1.400 . S
C1475 C1474 1.385 . S
C1476 C1474 1.478 . S
C1476 C1478 1.381 . S
C1476 C1482 1.383 . S
C1477 C1473 1.495 . S
C1477 H1483 0.959 . S
C1477 H1484 0.961 . S
C1477 H1485 0.960 . S
C1478 C1476 1.381 . S
C1478 C1479 1.394 . S
C1478 H1486 0.930 . S
C1479 C1478 1.394 . S
C1479 C1480 1.383 . S
C1479 H1487 0.929 . S
C1480 C1479 1.383 . S
C1480 C1481 1.377 . S
C1481 H1465 0.930 . S
C1481 C1480 1.377 . S
C1481 C1482 1.379 . S
C1482 H1466 0.931 . S
C1482 C1476 1.383 . S
C1482 C1481 1.379 . S
H1483 C1477 0.959 . S
H1484 C1477 0.961 . S
H1485 C1477 0.960 . S
H1486 C1478 0.930 . S
H1487 C1479 0.929 . S
H1488 C1496 0.929 1_545 S
H1489 C1498 0.930 . S
H1490 C1500 0.930 . S
H1491 C1503 0.929 . S
H1492 C1506 0.930 . S
H1493 C1508 0.960 . S
H1494 C1508 0.960 . S
H1495 C1508 0.960 . S
C1496 H1488 0.929 1_565 S
C1496 C1497 1.377 . S
C1496 C1498 1.384 1_565 S
C1497 C1496 1.377 . S
C1497 C1503 1.390 . S
C1498 H1489 0.930 . S
C1498 C1496 1.384 1_545 S
C1498 C1499 1.372 1_545 S
C1499 C1498 1.372 1_565 S
C1499 C1500 1.400 . S
C1499 C1504 1.490 . S
C1500 H1490 0.930 . S
C1500 C1499 1.400 . S
C1500 C1503 1.386 . S
H1501 C1517 0.930 1_565 S
H1502 C1518 0.931 1_565 S
C1503 H1491 0.929 . S
C1503 C1497 1.390 . S
C1503 C1500 1.386 . S
C1504 C1499 1.490 . S
C1504 C1506 1.395 1_565 S
C1504 C1507 1.403 . S
H1505 C1511 0.930 . S
C1506 H1492 0.930 . S
C1506 C1504 1.395 1_545 S
C1506 C1509 1.403 . S
C1507 C1504 1.403 . S
C1507 C1508 1.524 . S
C1507 C1511 1.400 . S
C1508 H1493 0.960 . S
C1508 H1494 0.960 . S
C1508 H1495 0.960 . S
C1508 C1507 1.524 . S
C1509 C1506 1.403 . S
C1509 C1510 1.392 . S
C1509 C1513 1.495 . S
C1510 C1509 1.392 . S
C1510 C1511 1.385 1_545 S
C1510 C1512 1.478 . S
C1511 H1505 0.930 . S
C1511 C1507 1.400 . S
C1511 C1510 1.385 1_565 S
C1512 C1510 1.478 . S
C1512 C1514 1.381 . S
C1512 C1518 1.383 . S
C1513 C1509 1.495 . S
C1513 H1519 0.959 . S
C1513 H1520 0.961 . S
C1513 H1521 0.960 . S
C1514 C1512 1.381 . S
C1514 C1515 1.394 . S
C1514 H1522 0.930 . S
C1515 C1514 1.394 . S
C1515 C1516 1.383 . S
C1515 H1523 0.929 . S
C1516 C1515 1.383 . S
C1516 C1517 1.377 . S
C1517 H1501 0.930 1_545 S
C1517 C1516 1.377 . S
C1517 C1518 1.379 . S
C1518 H1502 0.931 1_545 S
C1518 C1512 1.383 . S
C1518 C1517 1.379 . S
H1519 C1513 0.959 . S
H1520 C1513 0.961 . S
H1521 C1513 0.960 . S
H1522 C1514 0.930 . S
H1523 C1515 0.929 . S
H1524 C1532 0.929 . S
H1525 C1534 0.930 . S
H1526 C1536 0.930 . S
H1527 C1539 0.929 . S
H1528 C1542 0.930 . S
H1529 C1544 0.960 . S
H1530 C1544 0.960 . S
H1531 C1544 0.960 . S
C1532 H1524 0.929 . S
C1532 C1533 1.377 . S
C1532 C1534 1.384 . S
C1533 C1532 1.377 . S
C1533 C1539 1.390 . S
C1534 H1525 0.930 . S
C1534 C1532 1.384 . S
C1534 C1535 1.372 . S
C1535 C1534 1.372 . S
C1535 C1536 1.400 . S
C1535 C1540 1.490 . S
C1536 H1526 0.930 . S
C1536 C1535 1.400 . S
C1536 C1539 1.386 . S
H1537 C1553 0.930 . S
H1538 C1554 0.931 . S
C1539 H1527 0.929 . S
C1539 C1533 1.390 . S
C1539 C1536 1.386 . S
C1540 C1535 1.490 . S
C1540 C1542 1.395 . S
C1540 C1543 1.403 . S
H1541 C1547 0.930 . S
C1542 H1528 0.930 . S
C1542 C1540 1.395 . S
C1542 C1545 1.403 . S
C1543 C1540 1.403 . S
C1543 C1544 1.524 . S
C1543 C1547 1.400 . S
C1544 H1529 0.960 . S
C1544 H1530 0.960 . S
C1544 H1531 0.960 . S
C1544 C1543 1.524 . S
C1545 C1542 1.403 . S
C1545 C1546 1.392 . S
C1545 C1549 1.495 . S
C1546 C1545 1.392 . S
C1546 C1547 1.385 . S
C1546 C1548 1.478 . S
C1547 H1541 0.930 . S
C1547 C1543 1.400 . S
C1547 C1546 1.385 . S
C1548 C1546 1.478 . S
C1548 C1550 1.381 . S
C1548 C1554 1.383 . S
C1549 C1545 1.495 . S
C1549 H1555 0.959 . S
C1549 H1556 0.961 . S
C1549 H1557 0.960 . S
C1550 C1548 1.381 . S
C1550 C1551 1.394 . S
C1550 H1558 0.930 . S
C1551 C1550 1.394 . S
C1551 C1552 1.383 . S
C1551 H1559 0.929 . S
C1552 C1551 1.383 . S
C1552 C1553 1.377 . S
C1553 H1537 0.930 . S
C1553 C1552 1.377 . S
C1553 C1554 1.379 . S
C1554 H1538 0.931 . S
C1554 C1548 1.383 . S
C1554 C1553 1.379 . S
H1555 C1549 0.959 . S
H1556 C1549 0.961 . S
H1557 C1549 0.960 . S
H1558 C1550 0.930 . S
H1559 C1551 0.929 . S
H1560 C1568 0.929 . S
H1561 C1570 0.930 . S
H1562 C1572 0.930 . S
H1563 C1575 0.929 . S
H1564 C1578 0.930 . S
H1565 C1580 0.960 . S
H1566 C1580 0.960 . S
H1567 C1580 0.960 . S
C1568 H1560 0.929 . S
C1568 C1569 1.377 . S
C1568 C1570 1.384 . S
C1569 C1568 1.377 . S
C1569 C1575 1.390 . S
C1570 H1561 0.930 . S
C1570 C1568 1.384 . S
C1570 C1571 1.372 . S
C1571 C1570 1.372 . S
C1571 C1572 1.400 . S
C1571 C1576 1.490 . S
C1572 H1562 0.930 . S
C1572 C1571 1.400 . S
C1572 C1575 1.386 . S
H1573 C1589 0.930 . S
H1574 C1590 0.931 . S
C1575 H1563 0.929 . S
C1575 C1569 1.390 . S
C1575 C1572 1.386 . S
C1576 C1571 1.490 . S
C1576 C1578 1.395 . S
C1576 C1579 1.403 . S
H1577 C1583 0.930 . S
C1578 H1564 0.930 . S
C1578 C1576 1.395 . S
C1578 C1581 1.403 . S
C1579 C1576 1.403 . S
C1579 C1580 1.524 . S
C1579 C1583 1.400 . S
C1580 H1565 0.960 . S
C1580 H1566 0.960 . S
C1580 H1567 0.960 . S
C1580 C1579 1.524 . S
C1581 C1578 1.403 . S
C1581 C1582 1.392 . S
C1581 C1585 1.495 . S
C1582 C1581 1.392 . S
C1582 C1583 1.385 . S
C1582 C1584 1.478 . S
C1583 H1577 0.930 . S
C1583 C1579 1.400 . S
C1583 C1582 1.385 . S
C1584 C1582 1.478 . S
C1584 C1586 1.381 . S
C1584 C1590 1.383 . S
C1585 C1581 1.495 . S
C1585 H1591 0.959 . S
C1585 H1592 0.961 . S
C1585 H1593 0.960 . S
C1586 C1584 1.381 . S
C1586 C1587 1.394 . S
C1586 H1594 0.930 . S
C1587 C1586 1.394 . S
C1587 C1588 1.383 . S
C1587 H1595 0.929 . S
C1588 C1587 1.383 . S
C1588 C1589 1.377 . S
C1589 H1573 0.930 . S
C1589 C1588 1.377 . S
C1589 C1590 1.379 . S
C1590 H1574 0.931 . S
C1590 C1584 1.383 . S
C1590 C1589 1.379 . S
H1591 C1585 0.959 . S
H1592 C1585 0.961 . S
H1593 C1585 0.960 . S
H1594 C1586 0.930 . S
H1595 C1587 0.929 . S
H1596 C1604 0.944 . S
H1597 C1606 0.930 1_655 S
H1598 C1608 0.930 . S
H1599 C1611 0.929 . S
H1600 C1614 0.930 . S
H1601 C1616 0.960 . S
H1602 C1616 0.960 . S
H1603 C1616 0.960 1_455 S
C1604 H1596 0.944 . S
C1604 C1605 1.377 . S
C1604 C1606 1.384 . S
C1605 C1604 1.377 . S
C1605 C1611 1.390 . S
C1606 H1597 0.930 1_455 S
C1606 C1604 1.384 . S
C1606 C1607 1.372 . S
C1607 C1606 1.372 . S
C1607 C1608 1.400 . S
C1607 C1612 1.490 . S
C1608 H1598 0.930 . S
C1608 C1607 1.400 . S
C1608 C1611 1.386 . S
H1609 C1625 0.930 1_455 S
H1610 C1626 0.931 . S
C1611 H1599 0.929 . S
C1611 C1605 1.390 . S
C1611 C1608 1.386 . S
C1612 C1607 1.490 . S
C1612 C1614 1.395 . S
C1612 C1615 1.394 1_455 S
H1613 C1619 0.930 . S
C1614 H1600 0.930 . S
C1614 C1612 1.395 . S
C1614 C1617 1.403 . S
C1615 C1612 1.394 1_655 S
C1615 C1616 1.527 . S
C1615 C1619 1.407 . S
C1616 H1601 0.960 . S
C1616 H1602 0.960 . S
C1616 H1603 0.960 1_655 S
C1616 C1615 1.527 . S
C1617 C1614 1.403 . S
C1617 C1618 1.392 1_455 S
C1617 C1621 1.495 . S
C1618 C1617 1.392 1_655 S
C1618 C1619 1.385 . S
C1618 C1620 1.478 . S
C1619 H1613 0.930 . S
C1619 C1615 1.407 . S
C1619 C1618 1.385 . S
C1620 C1618 1.478 . S
C1620 C1622 1.381 . S
C1620 C1626 1.383 1_655 S
C1621 C1617 1.495 . S
C1621 H1627 0.959 . S
C1621 H1628 0.961 . S
C1621 H1629 0.960 1_455 S
C1622 C1620 1.381 . S
C1622 C1623 1.394 . S
C1622 H1630 0.930 . S
C1623 C1622 1.394 . S
C1623 C1624 1.383 . S
C1623 H1631 0.929 . S
C1624 C1623 1.383 . S
C1624 C1625 1.377 . S
C1625 H1609 0.930 1_655 S
C1625 C1624 1.377 . S
C1625 C1626 1.379 1_655 S
C1626 H1610 0.931 . S
C1626 C1620 1.383 1_455 S
C1626 C1625 1.379 1_455 S
H1627 C1621 0.959 . S
H1628 C1621 0.961 . S
H1629 C1621 0.960 1_655 S
H1630 C1622 0.930 . S
H1631 C1623 0.929 . S
H1632 C1640 0.929 . S
H1633 C1642 0.930 . S
H1634 C1644 0.930 . S
H1635 C1647 0.929 . S
H1636 C1650 0.930 . S
H1637 C1652 0.960 . S
H1638 C1652 0.960 . S
H1639 C1652 0.960 . S
C1640 H1632 0.929 . S
C1640 C1641 1.377 . S
C1640 C1642 1.384 . S
C1641 C1640 1.377 . S
C1641 C1647 1.390 . S
C1642 H1633 0.930 . S
C1642 C1640 1.384 . S
C1642 C1643 1.372 . S
C1643 C1642 1.372 . S
C1643 C1644 1.400 . S
C1643 C1648 1.490 . S
C1644 H1634 0.930 . S
C1644 C1643 1.400 . S
C1644 C1647 1.386 . S
H1645 C1661 0.930 . S
H1646 C1662 0.931 . S
C1647 H1635 0.929 . S
C1647 C1641 1.390 . S
C1647 C1644 1.386 . S
C1648 C1643 1.490 . S
C1648 C1650 1.395 . S
C1648 C1651 1.403 . S
H1649 C1655 0.930 . S
C1650 H1636 0.930 . S
C1650 C1648 1.395 . S
C1650 C1653 1.403 . S
C1651 C1648 1.403 . S
C1651 C1652 1.524 . S
C1651 C1655 1.400 . S
C1652 H1637 0.960 . S
C1652 H1638 0.960 . S
C1652 H1639 0.960 . S
C1652 C1651 1.524 . S
C1653 C1650 1.403 . S
C1653 C1654 1.392 . S
C1653 C1657 1.495 . S
C1654 C1653 1.392 . S
C1654 C1655 1.385 . S
C1654 C1656 1.478 . S
C1655 H1649 0.930 . S
C1655 C1651 1.400 . S
C1655 C1654 1.385 . S
C1656 C1654 1.478 . S
C1656 C1658 1.381 . S
C1656 C1662 1.383 . S
C1657 C1653 1.495 . S
C1657 H1663 0.959 . S
C1657 H1664 0.961 . S
C1657 H1665 0.960 . S
C1658 C1656 1.381 . S
C1658 C1659 1.394 . S
C1658 H1666 0.930 . S
C1659 C1658 1.394 . S
C1659 C1660 1.383 . S
C1659 H1667 0.929 . S
C1660 C1659 1.383 . S
C1660 C1661 1.377 . S
C1661 H1645 0.930 . S
C1661 C1660 1.377 . S
C1661 C1662 1.379 . S
C1662 H1646 0.931 . S
C1662 C1656 1.383 . S
C1662 C1661 1.379 . S
H1663 C1657 0.959 . S
H1664 C1657 0.961 . S
H1665 C1657 0.960 . S
H1666 C1658 0.930 . S
H1667 C1659 0.929 . S
H1668 C1676 0.929 . S
H1669 C1678 0.930 . S
H1670 C1680 0.930 . S
H1671 C1683 0.929 . S
H1672 C1686 0.930 . S
H1673 C1688 0.960 . S
H1674 C1688 0.960 . S
H1675 C1688 0.960 . S
C1676 H1668 0.929 . S
C1676 C1677 1.377 . S
C1676 C1678 1.384 . S
C1677 C1676 1.377 . S
C1677 C1683 1.390 . S
C1678 H1669 0.930 . S
C1678 C1676 1.384 . S
C1678 C1679 1.372 . S
C1679 C1678 1.372 . S
C1679 C1680 1.400 . S
C1679 C1684 1.490 . S
C1680 H1670 0.930 . S
C1680 C1679 1.400 . S
C1680 C1683 1.386 . S
H1681 C1697 0.930 . S
H1682 C1698 0.931 . S
C1683 H1671 0.929 . S
C1683 C1677 1.390 . S
C1683 C1680 1.386 . S
C1684 C1679 1.490 . S
C1684 C1686 1.395 . S
C1684 C1687 1.403 1_655 S
H1685 C1691 0.930 . S
C1686 H1672 0.930 . S
C1686 C1684 1.395 . S
C1686 C1689 1.403 . S
C1687 C1684 1.403 1_455 S
C1687 C1688 1.524 . S
C1687 C1691 1.400 . S
C1688 H1673 0.960 . S
C1688 H1674 0.960 . S
C1688 H1675 0.960 . S
C1688 C1687 1.524 . S
C1689 C1686 1.403 . S
C1689 C1690 1.392 1_655 S
C1689 C1693 1.495 . S
C1690 C1689 1.392 1_455 S
C1690 C1691 1.385 . S
C1690 C1692 1.478 . S
C1691 H1685 0.930 . S
C1691 C1687 1.400 . S
C1691 C1690 1.385 . S
C1692 C1690 1.478 . S
C1692 C1694 1.381 . S
C1692 C1698 1.383 . S
C1693 C1689 1.495 . S
C1693 H1699 0.959 . S
C1693 H1700 0.961 . S
C1693 H1701 0.960 . S
C1694 C1692 1.381 . S
C1694 C1695 1.394 . S
C1694 H1702 0.930 . S
C1695 C1694 1.394 . S
C1695 C1696 1.383 . S
C1695 H1703 0.929 . S
C1696 C1695 1.383 . S
C1696 C1697 1.377 . S
C1697 H1681 0.930 . S
C1697 C1696 1.377 . S
C1697 C1698 1.379 . S
C1698 H1682 0.931 . S
C1698 C1692 1.383 . S
C1698 C1697 1.379 . S
H1699 C1693 0.959 . S
H1700 C1693 0.961 . S
H1701 C1693 0.960 . S
H1702 C1694 0.930 . S
H1703 C1695 0.929 . S
H1704 C1712 0.929 . S
H1705 C1714 0.930 1_545 S
H1706 C1716 0.930 . S
H1707 C1719 0.929 . S
H1708 C1722 0.930 . S
H1709 C1724 0.960 . S
H1710 C1724 0.960 . S
H1711 C1724 0.960 . S
C1712 H1704 0.929 . S
C1712 C1713 1.377 . S
C1712 C1714 1.384 . S
C1713 C1712 1.377 . S
C1713 C1719 1.390 . S
C1714 H1705 0.930 1_565 S
C1714 C1712 1.384 . S
C1714 C1715 1.372 . S
C1715 C1714 1.372 . S
C1715 C1716 1.400 . S
C1715 C1720 1.490 . S
C1716 H1706 0.930 . S
C1716 C1715 1.400 . S
C1716 C1719 1.386 . S
H1717 C1733 0.930 . S
H1718 C1734 0.916 1_565 S
C1719 H1707 0.929 . S
C1719 C1713 1.390 . S
C1719 C1716 1.386 . S
C1720 C1715 1.490 . S
C1720 C1722 1.395 . S
C1720 C1723 1.403 1_565 S
H1721 C1727 0.930 . S
C1722 H1708 0.930 . S
C1722 C1720 1.395 . S
C1722 C1725 1.403 . S
C1723 C1720 1.403 1_545 S
C1723 C1724 1.524 . S
C1723 C1727 1.400 . S
C1724 H1709 0.960 . S
C1724 H1710 0.960 . S
C1724 H1711 0.960 . S
C1724 C1723 1.524 . S
C1725 C1722 1.403 . S
C1725 C1726 1.392 1_565 S
C1725 C1729 1.495 . S
C1726 C1725 1.392 1_545 S
C1726 C1727 1.385 . S
C1726 C1728 1.478 . S
C1727 H1721 0.930 . S
C1727 C1723 1.400 . S
C1727 C1726 1.385 . S
C1728 C1726 1.478 . S
C1728 C1730 1.381 . S
C1728 C1734 1.391 . S
C1729 C1725 1.495 . S
C1729 H1735 0.959 . S
C1729 H1736 0.961 . S
C1729 H1737 0.960 . S
C1730 C1728 1.381 . S
C1730 C1731 1.394 . S
C1730 H1738 0.930 . S
C1731 C1730 1.394 . S
C1731 C1732 1.383 . S
C1731 H1739 0.929 . S
C1732 C1731 1.383 . S
C1732 C1733 1.377 . S
C1733 H1717 0.930 . S
C1733 C1732 1.377 . S
C1733 C1734 1.386 . S
C1734 H1718 0.916 1_545 S
C1734 C1728 1.391 . S
C1734 C1733 1.386 . S
H1735 C1729 0.959 . S
H1736 C1729 0.961 . S
H1737 C1729 0.960 . S
H1738 C1730 0.930 . S
H1739 C1731 0.929 . S
H1740 C1748 0.929 . S
H1741 C1750 0.930 . S
H1742 C1752 0.930 . S
H1743 C1755 0.929 . S
H1744 C1758 0.930 . S
H1745 C1760 0.960 . S
H1746 C1760 0.960 . S
H1747 C1760 0.960 . S
C1748 H1740 0.929 . S
C1748 C1749 1.377 . S
C1748 C1750 1.384 . S
C1749 C1748 1.377 . S
C1749 C1755 1.390 . S
C1750 H1741 0.930 . S
C1750 C1748 1.384 . S
C1750 C1751 1.372 . S
C1751 C1750 1.372 . S
C1751 C1752 1.400 . S
C1751 C1756 1.490 . S
C1752 H1742 0.930 . S
C1752 C1751 1.400 . S
C1752 C1755 1.386 . S
H1753 C1769 0.930 . S
H1754 C1770 0.931 . S
C1755 H1743 0.929 . S
C1755 C1749 1.390 . S
C1755 C1752 1.386 . S
C1756 C1751 1.490 . S
C1756 C1758 1.395 . S
C1756 C1759 1.403 . S
H1757 C1763 0.930 . S
C1758 H1744 0.930 . S
C1758 C1756 1.395 . S
C1758 C1761 1.403 . S
C1759 C1756 1.403 . S
C1759 C1760 1.524 . S
C1759 C1763 1.400 . S
C1760 H1745 0.960 . S
C1760 H1746 0.960 . S
C1760 H1747 0.960 . S
C1760 C1759 1.524 . S
C1761 C1758 1.403 . S
C1761 C1762 1.392 . S
C1761 C1765 1.495 . S
C1762 C1761 1.392 . S
C1762 C1763 1.385 . S
C1762 C1764 1.478 . S
C1763 H1757 0.930 . S
C1763 C1759 1.400 . S
C1763 C1762 1.385 . S
C1764 C1762 1.478 . S
C1764 C1766 1.381 . S
C1764 C1770 1.383 . S
C1765 C1761 1.495 . S
C1765 H1771 0.959 . S
C1765 H1772 0.961 . S
C1765 H1773 0.960 . S
C1766 C1764 1.381 . S
C1766 C1767 1.394 . S
C1766 H1774 0.930 . S
C1767 C1766 1.394 . S
C1767 C1768 1.383 . S
C1767 H1775 0.929 . S
C1768 C1767 1.383 . S
C1768 C1769 1.377 . S
C1769 H1753 0.930 . S
C1769 C1768 1.377 . S
C1769 C1770 1.379 . S
C1770 H1754 0.931 . S
C1770 C1764 1.383 . S
C1770 C1769 1.379 . S
H1771 C1765 0.959 . S
H1772 C1765 0.961 . S
H1773 C1765 0.960 . S
H1774 C1766 0.930 . S
H1775 C1767 0.929 . S
H1776 C1784 0.898 1_565 S
H1777 C1786 0.930 . S
H1778 C1788 0.930 . S
H1779 C1791 0.929 . S
H1780 C1794 0.930 . S
H1781 C1796 0.960 . S
H1782 C1796 0.960 . S
H1783 C1796 0.960 . S
C1784 H1776 0.898 1_545 S
C1784 C1785 1.421 . S
C1784 C1786 1.372 1_545 S
C1785 C1784 1.421 . S
C1785 C1791 1.390 . S
C1786 H1777 0.930 . S
C1786 C1784 1.372 1_565 S
C1786 C1787 1.372 1_565 S
C1787 C1786 1.372 1_545 S
C1787 C1788 1.400 . S
C1787 C1792 1.490 . S
C1788 H1778 0.930 . S
C1788 C1787 1.400 . S
C1788 C1791 1.386 . S
H1789 C1805 0.930 1_545 S
H1790 C1806 0.931 1_545 S
C1791 H1779 0.929 . S
C1791 C1785 1.390 . S
C1791 C1788 1.386 . S
C1792 C1787 1.490 . S
C1792 C1794 1.395 1_545 S
C1792 C1795 1.403 . S
H1793 C1799 0.930 . S
C1794 H1780 0.930 . S
C1794 C1792 1.395 1_565 S
C1794 C1797 1.403 . S
C1795 C1792 1.403 . S
C1795 C1796 1.524 . S
C1795 C1799 1.400 . S
C1796 H1781 0.960 . S
C1796 H1782 0.960 . S
C1796 H1783 0.960 . S
C1796 C1795 1.524 . S
C1797 C1794 1.403 . S
C1797 C1798 1.392 . S
C1797 C1801 1.495 . S
C1798 C1797 1.392 . S
C1798 C1799 1.385 1_565 S
C1798 C1800 1.478 . S
C1799 H1793 0.930 . S
C1799 C1795 1.400 . S
C1799 C1798 1.385 1_545 S
C1800 C1798 1.478 . S
C1800 C1802 1.381 . S
C1800 C1806 1.383 . S
C1801 C1797 1.495 . S
C1801 H1807 0.959 . S
C1801 H1808 0.961 . S
C1801 H1809 0.960 . S
C1802 C1800 1.381 . S
C1802 C1803 1.394 . S
C1802 H1810 0.930 . S
C1803 C1802 1.394 . S
C1803 C1804 1.383 . S
C1803 H1811 0.929 . S
C1804 C1803 1.383 . S
C1804 C1805 1.377 . S
C1805 H1789 0.930 1_565 S
C1805 C1804 1.377 . S
C1805 C1806 1.379 . S
C1806 H1790 0.931 1_565 S
C1806 C1800 1.383 . S
C1806 C1805 1.379 . S
H1807 C1801 0.959 . S
H1808 C1801 0.961 . S
H1809 C1801 0.960 . S
H1810 C1802 0.930 . S
H1811 C1803 0.929 . S
H1812 C1820 0.929 . S
H1813 C1822 0.930 . S
H1814 C1824 0.930 . S
H1815 C1827 0.929 . S
H1816 C1830 0.930 . S
H1817 C1832 0.960 . S
H1818 C1832 0.960 . S
H1819 C1832 0.960 . S
C1820 H1812 0.929 . S
C1820 C1821 1.377 . S
C1820 C1822 1.384 . S
C1821 C1820 1.377 . S
C1821 C1827 1.390 . S
C1822 H1813 0.930 . S
C1822 C1820 1.384 . S
C1822 C1823 1.372 . S
C1823 C1822 1.372 . S
C1823 C1824 1.400 . S
C1823 C1828 1.490 . S
C1824 H1814 0.930 . S
C1824 C1823 1.400 . S
C1824 C1827 1.386 . S
H1825 C1841 0.930 . S
H1826 C1842 0.931 . S
C1827 H1815 0.929 . S
C1827 C1821 1.390 . S
C1827 C1824 1.386 . S
C1828 C1823 1.490 . S
C1828 C1830 1.395 . S
C1828 C1831 1.403 . S
H1829 C1835 0.930 . S
C1830 H1816 0.930 . S
C1830 C1828 1.395 . S
C1830 C1833 1.403 . S
C1831 C1828 1.403 . S
C1831 C1832 1.524 . S
C1831 C1835 1.400 . S
C1832 H1817 0.960 . S
C1832 H1818 0.960 . S
C1832 H1819 0.960 . S
C1832 C1831 1.524 . S
C1833 C1830 1.403 . S
C1833 C1834 1.392 . S
C1833 C1837 1.495 . S
C1834 C1833 1.392 . S
C1834 C1835 1.385 . S
C1834 C1836 1.478 . S
C1835 H1829 0.930 . S
C1835 C1831 1.400 . S
C1835 C1834 1.385 . S
C1836 C1834 1.478 . S
C1836 C1838 1.381 . S
C1836 C1842 1.383 . S
C1837 C1833 1.495 . S
C1837 H1843 0.959 . S
C1837 H1844 0.961 . S
C1837 H1845 0.960 . S
C1838 C1836 1.381 . S
C1838 C1839 1.394 . S
C1838 H1846 0.930 . S
C1839 C1838 1.394 . S
C1839 C1840 1.383 . S
C1839 H1847 0.929 . S
C1840 C1839 1.383 . S
C1840 C1841 1.377 . S
C1841 H1825 0.930 . S
C1841 C1840 1.377 . S
C1841 C1842 1.379 . S
C1842 H1826 0.931 . S
C1842 C1836 1.383 . S
C1842 C1841 1.379 . S
H1843 C1837 0.959 . S
H1844 C1837 0.961 . S
H1845 C1837 0.960 . S
H1846 C1838 0.930 . S
H1847 C1839 0.929 . S
H1848 C1856 0.929 . S
H1849 C1858 0.930 . S
H1850 C1860 0.930 . S
H1851 C1863 0.929 . S
H1852 C1866 0.930 . S
H1853 C1868 0.960 . S
H1854 C1868 0.960 . S
H1855 C1868 0.960 . S
C1856 H1848 0.929 . S
C1856 C1857 1.377 . S
C1856 C1858 1.384 . S
C1857 C1856 1.377 . S
C1857 C1863 1.390 . S
C1858 H1849 0.930 . S
C1858 C1856 1.384 . S
C1858 C1859 1.372 . S
C1859 C1858 1.372 . S
C1859 C1860 1.400 . S
C1859 C1864 1.490 . S
C1860 H1850 0.930 . S
C1860 C1859 1.400 . S
C1860 C1863 1.386 . S
H1861 C1877 0.930 . S
H1862 C1878 0.931 . S
C1863 H1851 0.929 . S
C1863 C1857 1.390 . S
C1863 C1860 1.386 . S
C1864 C1859 1.490 . S
C1864 C1866 1.395 . S
C1864 C1867 1.403 . S
H1865 C1871 0.930 . S
C1866 H1852 0.930 . S
C1866 C1864 1.395 . S
C1866 C1869 1.403 . S
C1867 C1864 1.403 . S
C1867 C1868 1.524 . S
C1867 C1871 1.400 . S
C1868 H1853 0.960 . S
C1868 H1854 0.960 . S
C1868 H1855 0.960 . S
C1868 C1867 1.524 . S
C1869 C1866 1.403 . S
C1869 C1870 1.392 . S
C1869 C1873 1.495 . S
C1870 C1869 1.392 . S
C1870 C1871 1.385 . S
C1870 C1872 1.478 . S
C1871 H1865 0.930 . S
C1871 C1867 1.400 . S
C1871 C1870 1.385 . S
C1872 C1870 1.478 . S
C1872 C1874 1.381 . S
C1872 C1878 1.383 . S
C1873 C1869 1.495 . S
C1873 H1879 0.959 . S
C1873 H1880 0.961 . S
C1873 H1881 0.960 . S
C1874 C1872 1.381 . S
C1874 C1875 1.394 . S
C1874 H1882 0.930 . S
C1875 C1874 1.394 . S
C1875 C1876 1.383 . S
C1875 H1883 0.929 . S
C1876 C1875 1.383 . S
C1876 C1877 1.377 . S
C1877 H1861 0.930 . S
C1877 C1876 1.377 . S
C1877 C1878 1.379 . S
C1878 H1862 0.931 . S
C1878 C1872 1.383 . S
C1878 C1877 1.379 . S
H1879 C1873 0.959 . S
H1880 C1873 0.961 . S
H1881 C1873 0.960 . S
H1882 C1874 0.930 . S
H1883 C1875 0.929 . S
H1884 C1892 0.929 1_655 S
H1885 C1894 0.930 . S
H1886 C1896 0.930 . S
H1887 C1899 0.929 . S
H1888 C1902 0.930 . S
H1889 C1904 0.960 . S
H1890 C1904 0.960 . S
H1891 C1904 0.960 . S
C1892 H1884 0.929 1_455 S
C1892 C1893 1.377 . S
C1892 C1894 1.384 1_455 S
C1893 C1892 1.377 . S
C1893 C1899 1.390 . S
C1894 H1885 0.930 . S
C1894 C1892 1.384 1_655 S
C1894 C1895 1.372 1_655 S
C1895 C1894 1.372 1_455 S
C1895 C1896 1.400 . S
C1895 C1900 1.490 . S
C1896 H1886 0.930 . S
C1896 C1895 1.400 . S
C1896 C1899 1.386 . S
H1897 C1913 0.930 1_455 S
H1898 C1914 0.885 1_455 S
C1899 H1887 0.929 . S
C1899 C1893 1.390 . S
C1899 C1896 1.386 . S
C1900 C1895 1.490 . S
C1900 C1902 1.395 1_455 S
C1900 C1903 1.403 . S
H1901 C1907 0.930 . S
C1902 H1888 0.930 . S
C1902 C1900 1.395 1_655 S
C1902 C1905 1.403 . S
C1903 C1900 1.403 . S
C1903 C1904 1.524 . S
C1903 C1907 1.400 . S
C1904 H1889 0.960 . S
C1904 H1890 0.960 . S
C1904 H1891 0.960 . S
C1904 C1903 1.524 . S
C1905 C1902 1.403 . S
C1905 C1906 1.392 . S
C1905 C1909 1.495 . S
C1906 C1905 1.392 . S
C1906 C1907 1.385 1_655 S
C1906 C1908 1.478 . S
C1907 H1901 0.930 . S
C1907 C1903 1.400 . S
C1907 C1906 1.385 1_455 S
C1908 C1906 1.478 . S
C1908 C1910 1.381 . S
C1908 C1914 1.417 . S
C1909 C1905 1.495 . S
C1909 H1915 0.959 . S
C1909 H1916 0.961 . S
C1909 H1917 0.960 . S
C1910 C1908 1.381 . S
C1910 C1911 1.394 . S
C1910 H1918 0.930 . S
C1911 C1910 1.394 . S
C1911 C1912 1.383 . S
C1911 H1919 0.929 . S
C1912 C1911 1.383 . S
C1912 C1913 1.377 . S
C1913 H1897 0.930 1_655 S
C1913 C1912 1.377 . S
C1913 C1914 1.392 . S
C1914 H1898 0.885 1_655 S
C1914 C1908 1.417 . S
C1914 C1913 1.392 . S
H1915 C1909 0.959 . S
H1916 C1909 0.961 . S
H1917 C1909 0.960 . S
H1918 C1910 0.930 . S
H1919 C1911 0.929 . S
H1920 C1928 0.929 . S
H1921 C1930 0.930 . S
H1922 C1932 0.930 . S
H1923 C1935 0.929 . S
H1924 C1938 0.930 . S
H1925 C1940 0.960 . S
H1926 C1940 0.960 . S
H1927 C1940 0.960 . S
C1928 H1920 0.929 . S
C1928 C1929 1.377 . S
C1928 C1930 1.384 . S
C1929 C1928 1.377 . S
C1929 C1935 1.390 . S
C1930 H1921 0.930 . S
C1930 C1928 1.384 . S
C1930 C1931 1.372 . S
C1931 C1930 1.372 . S
C1931 C1932 1.400 . S
C1931 C1936 1.490 . S
C1932 H1922 0.930 . S
C1932 C1931 1.400 . S
C1932 C1935 1.386 . S
H1933 C1949 0.930 . S
H1934 C1950 0.931 . S
C1935 H1923 0.929 . S
C1935 C1929 1.390 . S
C1935 C1932 1.386 . S
C1936 C1931 1.490 . S
C1936 C1938 1.395 . S
C1936 C1939 1.403 . S
H1937 C1943 0.930 . S
C1938 H1924 0.930 . S
C1938 C1936 1.395 . S
C1938 C1941 1.403 . S
C1939 C1936 1.403 . S
C1939 C1940 1.524 . S
C1939 C1943 1.400 . S
C1940 H1925 0.960 . S
C1940 H1926 0.960 . S
C1940 H1927 0.960 . S
C1940 C1939 1.524 . S
C1941 C1938 1.403 . S
C1941 C1942 1.392 . S
C1941 C1945 1.495 . S
C1942 C1941 1.392 . S
C1942 C1943 1.385 . S
C1942 C1944 1.478 . S
C1943 H1937 0.930 . S
C1943 C1939 1.400 . S
C1943 C1942 1.385 . S
C1944 C1942 1.478 . S
C1944 C1946 1.381 . S
C1944 C1950 1.383 . S
C1945 C1941 1.495 . S
C1945 H1951 0.959 . S
C1945 H1952 0.961 . S
C1945 H1953 0.960 . S
C1946 C1944 1.381 . S
C1946 C1947 1.394 . S
C1946 H1954 0.930 . S
C1947 C1946 1.394 . S
C1947 C1948 1.383 . S
C1947 H1955 0.929 . S
C1948 C1947 1.383 . S
C1948 C1949 1.377 . S
C1949 H1933 0.930 . S
C1949 C1948 1.377 . S
C1949 C1950 1.379 . S
C1950 H1934 0.931 . S
C1950 C1944 1.383 . S
C1950 C1949 1.379 . S
H1951 C1945 0.959 . S
H1952 C1945 0.961 . S
H1953 C1945 0.960 . S
H1954 C1946 0.930 . S
H1955 C1947 0.929 . S
H1956 C1964 0.929 . S
H1957 C1966 0.930 . S
H1958 C1968 0.930 . S
H1959 C1971 0.929 . S
H1960 C1974 0.930 . S
H1961 C1976 0.960 . S
H1962 C1976 0.960 . S
H1963 C1976 0.960 . S
C1964 H1956 0.929 . S
C1964 C1965 1.377 . S
C1964 C1966 1.384 . S
C1965 C1964 1.377 . S
C1965 C1971 1.390 . S
C1966 H1957 0.930 . S
C1966 C1964 1.384 . S
C1966 C1967 1.372 . S
C1967 C1966 1.372 . S
C1967 C1968 1.400 . S
C1967 C1972 1.490 . S
C1968 H1958 0.930 . S
C1968 C1967 1.400 . S
C1968 C1971 1.386 . S
H1969 C1985 0.930 . S
H1970 C1986 0.931 . S
C1971 H1959 0.929 . S
C1971 C1965 1.390 . S
C1971 C1968 1.386 . S
C1972 C1967 1.490 . S
C1972 C1974 1.395 . S
C1972 C1975 1.403 . S
H1973 C1979 0.930 . S
C1974 H1960 0.930 . S
C1974 C1972 1.395 . S
C1974 C1977 1.403 . S
C1975 C1972 1.403 . S
C1975 C1976 1.524 . S
C1975 C1979 1.400 . S
C1976 H1961 0.960 . S
C1976 H1962 0.960 . S
C1976 H1963 0.960 . S
C1976 C1975 1.524 . S
C1977 C1974 1.403 . S
C1977 C1978 1.392 . S
C1977 C1981 1.495 . S
C1978 C1977 1.392 . S
C1978 C1979 1.385 . S
C1978 C1980 1.478 . S
C1979 H1973 0.930 . S
C1979 C1975 1.400 . S
C1979 C1978 1.385 . S
C1980 C1978 1.478 . S
C1980 C1982 1.381 . S
C1980 C1986 1.383 . S
C1981 C1977 1.495 . S
C1981 H1987 0.959 . S
C1981 H1988 0.961 . S
C1981 H1989 0.960 . S
C1982 C1980 1.381 . S
C1982 C1983 1.394 . S
C1982 H1990 0.930 . S
C1983 C1982 1.394 . S
C1983 C1984 1.383 . S
C1983 H1991 0.929 . S
C1984 C1983 1.383 . S
C1984 C1985 1.377 . S
C1985 H1969 0.930 . S
C1985 C1984 1.377 . S
C1985 C1986 1.379 . S
C1986 H1970 0.931 . S
C1986 C1980 1.383 . S
C1986 C1985 1.379 . S
H1987 C1981 0.959 . S
H1988 C1981 0.961 . S
H1989 C1981 0.960 . S
H1990 C1982 0.930 . S
H1991 C1983 0.929 . S
H1992 C2000 0.929 . S
H1993 C2002 0.930 . S
H1994 C2004 0.930 . S
H1995 C2007 0.929 . S
H1996 C2010 0.930 . S
H1997 C2012 0.960 . S
H1998 C2012 0.960 . S
H1999 C2012 0.960 . S
C2000 H1992 0.929 . S
C2000 C2001 1.377 . S
C2000 C2002 1.384 . S
C2001 C2000 1.377 . S
C2001 C2007 1.390 . S
C2002 H1993 0.930 . S
C2002 C2000 1.384 . S
C2002 C2003 1.372 . S
C2003 C2002 1.372 . S
C2003 C2004 1.400 . S
C2003 C2008 1.490 . S
C2004 H1994 0.930 . S
C2004 C2003 1.400 . S
C2004 C2007 1.386 . S
H2005 C2021 0.930 . S
H2006 C2022 0.931 . S
C2007 H1995 0.929 . S
C2007 C2001 1.390 . S
C2007 C2004 1.386 . S
C2008 C2003 1.490 . S
C2008 C2010 1.395 . S
C2008 C2011 1.403 . S
H2009 C2015 0.930 . S
C2010 H1996 0.930 . S
C2010 C2008 1.395 . S
C2010 C2013 1.403 . S
C2011 C2008 1.403 . S
C2011 C2012 1.524 . S
C2011 C2015 1.400 . S
C2012 H1997 0.960 . S
C2012 H1998 0.960 . S
C2012 H1999 0.960 . S
C2012 C2011 1.524 . S
C2013 C2010 1.403 . S
C2013 C2014 1.392 . S
C2013 C2017 1.495 . S
C2014 C2013 1.392 . S
C2014 C2015 1.385 . S
C2014 C2016 1.478 . S
C2015 H2009 0.930 . S
C2015 C2011 1.400 . S
C2015 C2014 1.385 . S
C2016 C2014 1.478 . S
C2016 C2018 1.381 . S
C2016 C2022 1.383 . S
C2017 C2013 1.495 . S
C2017 H2023 0.959 . S
C2017 H2024 0.961 . S
C2017 H2025 0.960 . S
C2018 C2016 1.381 . S
C2018 C2019 1.394 . S
C2018 H2026 0.930 . S
C2019 C2018 1.394 . S
C2019 C2020 1.383 . S
C2019 H2027 0.929 . S
C2020 C2019 1.383 . S
C2020 C2021 1.377 . S
C2021 H2005 0.930 . S
C2021 C2020 1.377 . S
C2021 C2022 1.379 . S
C2022 H2006 0.931 . S
C2022 C2016 1.383 . S
C2022 C2021 1.379 . S
H2023 C2017 0.959 . S
H2024 C2017 0.961 . S
H2025 C2017 0.960 . S
H2026 C2018 0.930 . S
H2027 C2019 0.929 . S
H2028 C2036 0.929 . S
H2029 C2038 0.930 . S
H2030 C2040 0.930 . S
H2031 C2043 0.929 . S
H2032 C2046 0.930 . S
H2033 C2048 0.960 . S
H2034 C2048 0.960 . S
H2035 C2048 0.960 . S
C2036 H2028 0.929 . S
C2036 C2037 1.377 . S
C2036 C2038 1.384 . S
C2037 C2036 1.377 . S
C2037 C2043 1.390 . S
C2038 H2029 0.930 . S
C2038 C2036 1.384 . S
C2038 C2039 1.372 . S
C2039 C2038 1.372 . S
C2039 C2040 1.400 . S
C2039 C2044 1.490 . S
C2040 H2030 0.930 . S
C2040 C2039 1.400 . S
C2040 C2043 1.386 . S
H2041 C2057 0.930 . S
H2042 C2058 0.931 . S
C2043 H2031 0.929 . S
C2043 C2037 1.390 . S
C2043 C2040 1.386 . S
C2044 C2039 1.490 . S
C2044 C2046 1.395 . S
C2044 C2047 1.403 . S
H2045 C2051 0.930 . S
C2046 H2032 0.930 . S
C2046 C2044 1.395 . S
C2046 C2049 1.403 . S
C2047 C2044 1.403 . S
C2047 C2048 1.524 . S
C2047 C2051 1.400 . S
C2048 H2033 0.960 . S
C2048 H2034 0.960 . S
C2048 H2035 0.960 . S
C2048 C2047 1.524 . S
C2049 C2046 1.403 . S
C2049 C2050 1.392 . S
C2049 C2053 1.495 . S
C2050 C2049 1.392 . S
C2050 C2051 1.385 . S
C2050 C2052 1.478 . S
C2051 H2045 0.930 . S
C2051 C2047 1.400 . S
C2051 C2050 1.385 . S
C2052 C2050 1.478 . S
C2052 C2054 1.381 . S
C2052 C2058 1.383 . S
C2053 C2049 1.495 . S
C2053 H2059 0.959 . S
C2053 H2060 0.961 . S
C2053 H2061 0.960 . S
C2054 C2052 1.381 . S
C2054 C2055 1.394 . S
C2054 H2062 0.930 . S
C2055 C2054 1.394 . S
C2055 C2056 1.383 . S
C2055 H2063 0.929 . S
C2056 C2055 1.383 . S
C2056 C2057 1.377 . S
C2057 H2041 0.930 . S
C2057 C2056 1.377 . S
C2057 C2058 1.379 . S
C2058 H2042 0.931 . S
C2058 C2052 1.383 . S
C2058 C2057 1.379 . S
H2059 C2053 0.959 . S
H2060 C2053 0.961 . S
H2061 C2053 0.960 . S
H2062 C2054 0.930 . S
H2063 C2055 0.929 . S
H2064 C2072 0.929 . S
H2065 C2074 0.930 . S
H2066 C2076 0.930 . S
H2067 C2079 0.929 . S
H2068 C2082 0.930 . S
H2069 C2084 0.960 . S
H2070 C2084 0.960 . S
H2071 C2084 0.960 . S
C2072 H2064 0.929 . S
C2072 C2073 1.377 . S
C2072 C2074 1.384 . S
C2073 C2072 1.377 . S
C2073 C2079 1.390 . S
C2074 H2065 0.930 . S
C2074 C2072 1.384 . S
C2074 C2075 1.372 . S
C2075 C2074 1.372 . S
C2075 C2076 1.400 . S
C2075 C2080 1.490 . S
C2076 H2066 0.930 . S
C2076 C2075 1.400 . S
C2076 C2079 1.386 . S
H2077 C2093 0.930 . S
H2078 C2094 0.931 . S
C2079 H2067 0.929 . S
C2079 C2073 1.390 . S
C2079 C2076 1.386 . S
C2080 C2075 1.490 . S
C2080 C2082 1.395 . S
C2080 C2083 1.403 . S
H2081 C2087 0.930 . S
C2082 H2068 0.930 . S
C2082 C2080 1.395 . S
C2082 C2085 1.403 . S
C2083 C2080 1.403 . S
C2083 C2084 1.524 . S
C2083 C2087 1.400 . S
C2084 H2069 0.960 . S
C2084 H2070 0.960 . S
C2084 H2071 0.960 . S
C2084 C2083 1.524 . S
C2085 C2082 1.403 . S
C2085 C2086 1.392 . S
C2085 C2089 1.495 . S
C2086 C2085 1.392 . S
C2086 C2087 1.385 . S
C2086 C2088 1.478 . S
C2087 H2081 0.930 . S
C2087 C2083 1.400 . S
C2087 C2086 1.385 . S
C2088 C2086 1.478 . S
C2088 C2090 1.381 . S
C2088 C2094 1.383 . S
C2089 C2085 1.495 . S
C2089 H2095 0.959 1_655 S
C2089 H2096 0.961 1_655 S
C2089 H2097 0.960 . S
C2090 C2088 1.381 . S
C2090 C2091 1.394 . S
C2090 H2098 0.930 . S
C2091 C2090 1.394 . S
C2091 C2092 1.383 . S
C2091 H2099 0.929 . S
C2092 C2091 1.383 . S
C2092 C2093 1.377 . S
C2093 H2077 0.930 . S
C2093 C2092 1.377 . S
C2093 C2094 1.379 . S
C2094 H2078 0.931 . S
C2094 C2088 1.383 . S
C2094 C2093 1.379 . S
H2095 C2089 0.959 1_455 S
H2096 C2089 0.961 1_455 S
H2097 C2089 0.960 . S
H2098 C2090 0.930 . S
H2099 C2091 0.929 . S
H2100 C2108 0.929 . S
H2101 C2110 0.930 . S
H2102 C2112 0.930 . S
H2103 C2115 0.929 . S
H2104 C2118 0.930 . S
H2105 C2120 0.960 . S
H2106 C2120 0.960 . S
H2107 C2120 0.960 . S
C2108 H2100 0.929 . S
C2108 C2109 1.377 . S
C2108 C2110 1.384 . S
C2109 C2108 1.377 . S
C2109 C2115 1.390 . S
C2110 H2101 0.930 . S
C2110 C2108 1.384 . S
C2110 C2111 1.372 . S
C2111 C2110 1.372 . S
C2111 C2112 1.400 . S
C2111 C2116 1.490 . S
C2112 H2102 0.930 . S
C2112 C2111 1.400 . S
C2112 C2115 1.386 . S
H2113 C2129 0.930 . S
H2114 C2130 0.931 . S
C2115 H2103 0.929 . S
C2115 C2109 1.390 . S
C2115 C2112 1.386 . S
C2116 C2111 1.490 . S
C2116 C2118 1.395 . S
C2116 C2119 1.403 . S
H2117 C2123 0.930 . S
C2118 H2104 0.930 . S
C2118 C2116 1.395 . S
C2118 C2121 1.403 . S
C2119 C2116 1.403 . S
C2119 C2120 1.524 1_565 S
C2119 C2123 1.400 . S
C2120 H2105 0.960 . S
C2120 H2106 0.960 . S
C2120 H2107 0.960 . S
C2120 C2119 1.524 1_545 S
C2121 C2118 1.403 . S
C2121 C2122 1.392 . S
C2121 C2125 1.495 . S
C2122 C2121 1.392 . S
C2122 C2123 1.385 . S
C2122 C2124 1.478 . S
C2123 H2117 0.930 . S
C2123 C2119 1.400 . S
C2123 C2122 1.385 . S
C2124 C2122 1.478 . S
C2124 C2126 1.381 . S
C2124 C2130 1.383 . S
C2125 C2121 1.495 . S
C2125 H2131 0.959 . S
C2125 H2132 0.961 . S
C2125 H2133 0.960 . S
C2126 C2124 1.381 . S
C2126 C2127 1.394 . S
C2126 H2134 0.930 . S
C2127 C2126 1.394 . S
C2127 C2128 1.383 . S
C2127 H2135 0.929 . S
C2128 C2127 1.383 . S
C2128 C2129 1.377 . S
C2129 H2113 0.930 . S
C2129 C2128 1.377 . S
C2129 C2130 1.379 . S
C2130 H2114 0.931 . S
C2130 C2124 1.383 . S
C2130 C2129 1.379 . S
H2131 C2125 0.959 . S
H2132 C2125 0.961 . S
H2133 C2125 0.960 . S
H2134 C2126 0.930 . S
H2135 C2127 0.929 . S
H2136 C2144 0.929 . S
H2137 C2146 0.930 . S
H2138 C2148 0.930 . S
H2139 C2151 0.929 . S
H2140 C2154 0.930 . S
H2141 C2156 0.960 . S
H2142 C2156 0.960 . S
H2143 C2156 0.960 . S
C2144 H2136 0.929 . S
C2144 C2145 1.377 . S
C2144 C2146 1.384 . S
C2145 C2144 1.377 . S
C2145 C2151 1.390 . S
C2146 H2137 0.930 . S
C2146 C2144 1.384 . S
C2146 C2147 1.372 . S
C2147 C2146 1.372 . S
C2147 C2148 1.400 . S
C2147 C2152 1.490 . S
C2148 H2138 0.930 . S
C2148 C2147 1.400 . S
C2148 C2151 1.386 . S
H2149 C2165 0.930 . S
H2150 C2166 0.931 . S
C2151 H2139 0.929 . S
C2151 C2145 1.390 . S
C2151 C2148 1.386 . S
C2152 C2147 1.490 . S
C2152 C2154 1.395 . S
C2152 C2155 1.403 . S
H2153 C2159 0.930 . S
C2154 H2140 0.930 . S
C2154 C2152 1.395 . S
C2154 C2157 1.403 . S
C2155 C2152 1.403 . S
C2155 C2156 1.524 . S
C2155 C2159 1.400 . S
C2156 H2141 0.960 . S
C2156 H2142 0.960 . S
C2156 H2143 0.960 . S
C2156 C2155 1.524 . S
C2157 C2154 1.403 . S
C2157 C2158 1.392 . S
C2157 C2161 1.495 . S
C2158 C2157 1.392 . S
C2158 C2159 1.385 . S
C2158 C2160 1.478 . S
C2159 H2153 0.930 . S
C2159 C2155 1.400 . S
C2159 C2158 1.385 . S
C2160 C2158 1.478 . S
C2160 C2162 1.381 . S
C2160 C2166 1.383 . S
C2161 C2157 1.495 . S
C2161 H2167 0.959 . S
C2161 H2168 0.961 . S
C2161 H2169 0.960 . S
C2162 C2160 1.381 . S
C2162 C2163 1.394 . S
C2162 H2170 0.930 . S
C2163 C2162 1.394 . S
C2163 C2164 1.383 . S
C2163 H2171 0.929 . S
C2164 C2163 1.383 . S
C2164 C2165 1.377 . S
C2165 H2149 0.930 . S
C2165 C2164 1.377 . S
C2165 C2166 1.379 . S
C2166 H2150 0.931 . S
C2166 C2160 1.383 . S
C2166 C2165 1.379 . S
H2167 C2161 0.959 . S
H2168 C2161 0.961 . S
H2169 C2161 0.960 . S
H2170 C2162 0.930 . S
H2171 C2163 0.929 . S
H2172 C2180 0.929 . S
H2173 C2182 0.930 . S
H2174 C2184 0.930 . S
H2175 C2187 0.929 . S
H2176 C2190 0.930 . S
H2177 C2192 0.960 . S
H2178 C2192 0.960 . S
H2179 C2192 0.960 . S
C2180 H2172 0.929 . S
C2180 C2181 1.377 . S
C2180 C2182 1.384 . S
C2181 C2180 1.377 . S
C2181 C2187 1.390 . S
C2182 H2173 0.930 . S
C2182 C2180 1.384 . S
C2182 C2183 1.372 . S
C2183 C2182 1.372 . S
C2183 C2184 1.400 . S
C2183 C2188 1.490 . S
C2184 H2174 0.930 . S
C2184 C2183 1.400 . S
C2184 C2187 1.386 . S
H2185 C2201 0.930 . S
H2186 C2202 0.931 . S
C2187 H2175 0.929 . S
C2187 C2181 1.390 . S
C2187 C2184 1.386 . S
C2188 C2183 1.490 . S
C2188 C2190 1.395 . S
C2188 C2191 1.403 . S
H2189 C2195 0.930 . S
C2190 H2176 0.930 . S
C2190 C2188 1.395 . S
C2190 C2193 1.403 . S
C2191 C2188 1.403 . S
C2191 C2192 1.524 . S
C2191 C2195 1.400 . S
C2192 H2177 0.960 . S
C2192 H2178 0.960 . S
C2192 H2179 0.960 . S
C2192 C2191 1.524 . S
C2193 C2190 1.403 . S
C2193 C2194 1.392 . S
C2193 C2197 1.495 . S
C2194 C2193 1.392 . S
C2194 C2195 1.385 . S
C2194 C2196 1.478 . S
C2195 H2189 0.930 . S
C2195 C2191 1.400 . S
C2195 C2194 1.385 . S
C2196 C2194 1.478 . S
C2196 C2198 1.381 . S
C2196 C2202 1.383 . S
C2197 C2193 1.495 . S
C2197 H2203 0.959 . S
C2197 H2204 0.961 . S
C2197 H2205 0.960 . S
C2198 C2196 1.381 . S
C2198 C2199 1.394 . S
C2198 H2206 0.930 . S
C2199 C2198 1.394 . S
C2199 C2200 1.383 . S
C2199 H2207 0.929 . S
C2200 C2199 1.383 . S
C2200 C2201 1.377 . S
C2201 H2185 0.930 . S
C2201 C2200 1.377 . S
C2201 C2202 1.379 . S
C2202 H2186 0.931 . S
C2202 C2196 1.383 . S
C2202 C2201 1.379 . S
H2203 C2197 0.959 . S
H2204 C2197 0.961 . S
H2205 C2197 0.960 . S
H2206 C2198 0.930 . S
H2207 C2199 0.929 . S
H2208 C2216 0.929 . S
H2209 C2218 0.930 . S
H2210 C2220 0.930 . S
H2211 C2223 0.929 . S
H2212 C2226 0.930 . S
H2213 C2228 0.960 . S
H2214 C2228 0.960 . S
H2215 C2228 0.960 . S
C2216 H2208 0.929 . S
C2216 C2217 1.377 . S
C2216 C2218 1.384 . S
C2217 C2216 1.377 . S
C2217 C2223 1.390 . S
C2218 H2209 0.930 . S
C2218 C2216 1.384 . S
C2218 C2219 1.372 . S
C2219 C2218 1.372 . S
C2219 C2220 1.400 . S
C2219 C2224 1.490 . S
C2220 H2210 0.930 . S
C2220 C2219 1.400 . S
C2220 C2223 1.386 . S
H2221 C2237 0.930 . S
H2222 C2238 0.931 . S
C2223 H2211 0.929 . S
C2223 C2217 1.390 . S
C2223 C2220 1.386 . S
C2224 C2219 1.490 . S
C2224 C2226 1.395 . S
C2224 C2227 1.403 . S
H2225 C2231 0.930 . S
C2226 H2212 0.930 . S
C2226 C2224 1.395 . S
C2226 C2229 1.403 . S
C2227 C2224 1.403 . S
C2227 C2228 1.524 . S
C2227 C2231 1.400 . S
C2228 H2213 0.960 . S
C2228 H2214 0.960 . S
C2228 H2215 0.960 . S
C2228 C2227 1.524 . S
C2229 C2226 1.403 . S
C2229 C2230 1.392 . S
C2229 C2233 1.495 . S
C2230 C2229 1.392 . S
C2230 C2231 1.385 . S
C2230 C2232 1.478 . S
C2231 H2225 0.930 . S
C2231 C2227 1.400 . S
C2231 C2230 1.385 . S
C2232 C2230 1.478 . S
C2232 C2234 1.381 . S
C2232 C2238 1.383 . S
C2233 C2229 1.495 . S
C2233 H2239 0.959 . S
C2233 H2240 0.961 . S
C2233 H2241 0.960 . S
C2234 C2232 1.381 . S
C2234 C2235 1.394 . S
C2234 H2242 0.930 . S
C2235 C2234 1.394 . S
C2235 C2236 1.383 . S
C2235 H2243 0.929 . S
C2236 C2235 1.383 . S
C2236 C2237 1.377 . S
C2237 H2221 0.930 . S
C2237 C2236 1.377 . S
C2237 C2238 1.379 . S
C2238 H2222 0.931 . S
C2238 C2232 1.383 . S
C2238 C2237 1.379 . S
H2239 C2233 0.959 . S
H2240 C2233 0.961 . S
H2241 C2233 0.960 . S
H2242 C2234 0.930 . S
H2243 C2235 0.929 . S
H2244 C2252 0.929 . S
H2245 C2254 0.930 . S
H2246 C2256 0.930 . S
H2247 C2259 0.929 . S
H2248 C2262 0.930 . S
H2249 C2264 0.960 . S
H2250 C2264 0.960 . S
H2251 C2264 0.960 . S
C2252 H2244 0.929 . S
C2252 C2253 1.377 . S
C2252 C2254 1.384 . S
C2253 C2252 1.377 . S
C2253 C2259 1.390 . S
C2254 H2245 0.930 . S
C2254 C2252 1.384 . S
C2254 C2255 1.372 . S
C2255 C2254 1.372 . S
C2255 C2256 1.400 . S
C2255 C2260 1.490 . S
C2256 H2246 0.930 . S
C2256 C2255 1.400 . S
C2256 C2259 1.386 . S
H2257 C2273 0.930 . S
H2258 C2274 0.931 . S
C2259 H2247 0.929 . S
C2259 C2253 1.390 . S
C2259 C2256 1.386 . S
C2260 C2255 1.490 . S
C2260 C2262 1.395 . S
C2260 C2263 1.403 . S
H2261 C2267 0.930 . S
C2262 H2248 0.930 . S
C2262 C2260 1.395 . S
C2262 C2265 1.403 . S
C2263 C2260 1.403 . S
C2263 C2264 1.524 . S
C2263 C2267 1.400 . S
C2264 H2249 0.960 . S
C2264 H2250 0.960 . S
C2264 H2251 0.960 . S
C2264 C2263 1.524 . S
C2265 C2262 1.403 . S
C2265 C2266 1.392 . S
C2265 C2269 1.495 . S
C2266 C2265 1.392 . S
C2266 C2267 1.385 . S
C2266 C2268 1.478 . S
C2267 H2261 0.930 . S
C2267 C2263 1.400 . S
C2267 C2266 1.385 . S
C2268 C2266 1.478 . S
C2268 C2270 1.381 . S
C2268 C2274 1.383 . S
C2269 C2265 1.495 . S
C2269 H2275 0.959 . S
C2269 H2276 0.961 . S
C2269 H2277 0.960 . S
C2270 C2268 1.381 . S
C2270 C2271 1.394 . S
C2270 H2278 0.930 . S
C2271 C2270 1.394 . S
C2271 C2272 1.383 . S
C2271 H2279 0.929 . S
C2272 C2271 1.383 . S
C2272 C2273 1.377 . S
C2273 H2257 0.930 . S
C2273 C2272 1.377 . S
C2273 C2274 1.379 . S
C2274 H2258 0.931 . S
C2274 C2268 1.383 . S
C2274 C2273 1.379 . S
H2275 C2269 0.959 . S
H2276 C2269 0.961 . S
H2277 C2269 0.960 . S
H2278 C2270 0.930 . S
H2279 C2271 0.929 . S
H2280 C2288 0.929 . S
H2281 C2290 0.930 . S
H2282 C2292 0.930 . S
H2283 C2295 0.929 . S
H2284 C2298 0.930 . S
H2285 C2300 0.960 . S
H2286 C2300 0.960 . S
H2287 C2300 0.960 . S
C2288 H2280 0.929 . S
C2288 C2289 1.377 . S
C2288 C2290 1.384 . S
C2289 C2288 1.377 . S
C2289 C2295 1.390 . S
C2290 H2281 0.930 . S
C2290 C2288 1.384 . S
C2290 C2291 1.372 . S
C2291 C2290 1.372 . S
C2291 C2292 1.400 . S
C2291 C2296 1.490 . S
C2292 H2282 0.930 . S
C2292 C2291 1.400 . S
C2292 C2295 1.386 . S
H2293 C2309 0.930 . S
H2294 C2310 0.931 . S
C2295 H2283 0.929 . S
C2295 C2289 1.390 . S
C2295 C2292 1.386 . S
C2296 C2291 1.490 . S
C2296 C2298 1.395 . S
C2296 C2299 1.403 . S
H2297 C2303 0.930 . S
C2298 H2284 0.930 . S
C2298 C2296 1.395 . S
C2298 C2301 1.403 . S
C2299 C2296 1.403 . S
C2299 C2300 1.524 . S
C2299 C2303 1.400 . S
C2300 H2285 0.960 . S
C2300 H2286 0.960 . S
C2300 H2287 0.960 . S
C2300 C2299 1.524 . S
C2301 C2298 1.403 . S
C2301 C2302 1.392 . S
C2301 C2305 1.495 . S
C2302 C2301 1.392 . S
C2302 C2303 1.385 . S
C2302 C2304 1.478 . S
C2303 H2297 0.930 . S
C2303 C2299 1.400 . S
C2303 C2302 1.385 . S
C2304 C2302 1.478 . S
C2304 C2306 1.381 . S
C2304 C2310 1.383 . S
C2305 C2301 1.495 . S
C2305 H2311 0.959 . S
C2305 H2312 0.961 . S
C2305 H2313 0.960 . S
C2306 C2304 1.381 . S
C2306 C2307 1.394 . S
C2306 H2314 0.930 . S
C2307 C2306 1.394 . S
C2307 C2308 1.383 . S
C2307 H2315 0.929 . S
C2308 C2307 1.383 . S
C2308 C2309 1.377 . S
C2309 H2293 0.930 . S
C2309 C2308 1.377 . S
C2309 C2310 1.379 . S
C2310 H2294 0.931 . S
C2310 C2304 1.383 . S
C2310 C2309 1.379 . S
H2311 C2305 0.959 . S
H2312 C2305 0.961 . S
H2313 C2305 0.960 . S
H2314 C2306 0.930 . S
H2315 C2307 0.929 . S
H2316 C2324 0.929 . S
H2317 C2326 0.930 . S
H2318 C2328 0.930 . S
H2319 C2331 0.929 . S
H2320 C2334 0.930 . S
H2321 C2336 0.960 . S
H2322 C2336 0.960 . S
H2323 C2336 0.960 . S
C2324 H2316 0.929 . S
C2324 C2325 1.377 . S
C2324 C2326 1.384 . S
C2325 C2324 1.377 . S
C2325 C2331 1.390 . S
C2326 H2317 0.930 . S
C2326 C2324 1.384 . S
C2326 C2327 1.372 . S
C2327 C2326 1.372 . S
C2327 C2328 1.400 . S
C2327 C2332 1.490 . S
C2328 H2318 0.930 . S
C2328 C2327 1.400 . S
C2328 C2331 1.386 . S
H2329 C2345 0.930 . S
H2330 C2346 0.931 . S
C2331 H2319 0.929 . S
C2331 C2325 1.390 . S
C2331 C2328 1.386 . S
C2332 C2327 1.490 . S
C2332 C2334 1.395 . S
C2332 C2335 1.403 . S
H2333 C2339 0.930 . S
C2334 H2320 0.930 . S
C2334 C2332 1.395 . S
C2334 C2337 1.403 . S
C2335 C2332 1.403 . S
C2335 C2336 1.524 . S
C2335 C2339 1.400 . S
C2336 H2321 0.960 . S
C2336 H2322 0.960 . S
C2336 H2323 0.960 . S
C2336 C2335 1.524 . S
C2337 C2334 1.403 . S
C2337 C2338 1.392 . S
C2337 C2341 1.495 . S
C2338 C2337 1.392 . S
C2338 C2339 1.385 . S
C2338 C2340 1.478 . S
C2339 H2333 0.930 . S
C2339 C2335 1.400 . S
C2339 C2338 1.385 . S
C2340 C2338 1.478 . S
C2340 C2342 1.381 . S
C2340 C2346 1.383 . S
C2341 C2337 1.495 . S
C2341 H2347 0.959 . S
C2341 H2348 0.961 . S
C2341 H2349 0.960 . S
C2342 C2340 1.381 . S
C2342 C2343 1.394 . S
C2342 H2350 0.930 . S
C2343 C2342 1.394 . S
C2343 C2344 1.383 . S
C2343 H2351 0.929 . S
C2344 C2343 1.383 . S
C2344 C2345 1.377 . S
C2345 H2329 0.930 . S
C2345 C2344 1.377 . S
C2345 C2346 1.379 . S
C2346 H2330 0.931 . S
C2346 C2340 1.383 . S
C2346 C2345 1.379 . S
H2347 C2341 0.959 . S
H2348 C2341 0.961 . S
H2349 C2341 0.960 . S
H2350 C2342 0.930 . S
H2351 C2343 0.929 . S
H2352 C2360 0.929 . S
H2353 C2362 0.930 . S
H2354 C2364 0.930 . S
H2355 C2367 0.929 . S
H2356 C2370 0.930 . S
H2357 C2372 0.960 . S
H2358 C2372 0.960 . S
H2359 C2372 0.960 . S
C2360 H2352 0.929 . S
C2360 C2361 1.377 . S
C2360 C2362 1.384 . S
C2361 C2360 1.377 . S
C2361 C2367 1.390 . S
C2362 H2353 0.930 . S
C2362 C2360 1.384 . S
C2362 C2363 1.372 . S
C2363 C2362 1.372 . S
C2363 C2364 1.400 . S
C2363 C2368 1.490 . S
C2364 H2354 0.930 . S
C2364 C2363 1.400 . S
C2364 C2367 1.386 . S
H2365 C2381 0.930 . S
H2366 C2382 0.931 . S
C2367 H2355 0.929 . S
C2367 C2361 1.390 . S
C2367 C2364 1.386 . S
C2368 C2363 1.490 . S
C2368 C2370 1.395 . S
C2368 C2371 1.403 . S
H2369 C2375 0.930 . S
C2370 H2356 0.930 . S
C2370 C2368 1.395 . S
C2370 C2373 1.403 . S
C2371 C2368 1.403 . S
C2371 C2372 1.524 . S
C2371 C2375 1.400 . S
C2372 H2357 0.960 . S
C2372 H2358 0.960 . S
C2372 H2359 0.960 . S
C2372 C2371 1.524 . S
C2373 C2370 1.403 . S
C2373 C2374 1.392 . S
C2373 C2377 1.495 . S
C2374 C2373 1.392 . S
C2374 C2375 1.385 . S
C2374 C2376 1.478 . S
C2375 H2369 0.930 . S
C2375 C2371 1.400 . S
C2375 C2374 1.385 . S
C2376 C2374 1.478 . S
C2376 C2378 1.381 . S
C2376 C2382 1.383 . S
C2377 C2373 1.495 . S
C2377 H2383 0.959 . S
C2377 H2384 0.961 . S
C2377 H2385 0.960 . S
C2378 C2376 1.381 . S
C2378 C2379 1.394 . S
C2378 H2386 0.930 . S
C2379 C2378 1.394 . S
C2379 C2380 1.383 . S
C2379 H2387 0.929 . S
C2380 C2379 1.383 . S
C2380 C2381 1.377 . S
C2381 H2365 0.930 . S
C2381 C2380 1.377 . S
C2381 C2382 1.379 . S
C2382 H2366 0.931 . S
C2382 C2376 1.383 . S
C2382 C2381 1.379 . S
H2383 C2377 0.959 . S
H2384 C2377 0.961 . S
H2385 C2377 0.960 . S
H2386 C2378 0.930 . S
H2387 C2379 0.929 . S
H2388 C2396 0.929 . S
H2389 C2398 0.930 . S
H2390 C2400 0.930 . S
H2391 C2403 0.929 . S
H2392 C2406 0.930 . S
H2393 C2408 0.960 . S
H2394 C2408 0.960 . S
H2395 C2408 0.960 . S
C2396 H2388 0.929 . S
C2396 C2397 1.377 . S
C2396 C2398 1.384 . S
C2397 C2396 1.377 . S
C2397 C2403 1.390 . S
C2398 H2389 0.930 . S
C2398 C2396 1.384 . S
C2398 C2399 1.372 . S
C2399 C2398 1.372 . S
C2399 C2400 1.400 . S
C2399 C2404 1.490 . S
C2400 H2390 0.930 . S
C2400 C2399 1.400 . S
C2400 C2403 1.386 . S
H2401 C2417 0.930 . S
H2402 C2418 0.931 . S
C2403 H2391 0.929 . S
C2403 C2397 1.390 . S
C2403 C2400 1.386 . S
C2404 C2399 1.490 . S
C2404 C2406 1.395 . S
C2404 C2407 1.403 . S
H2405 C2411 0.930 . S
C2406 H2392 0.930 . S
C2406 C2404 1.395 . S
C2406 C2409 1.403 . S
C2407 C2404 1.403 . S
C2407 C2408 1.524 . S
C2407 C2411 1.400 . S
C2408 H2393 0.960 . S
C2408 H2394 0.960 . S
C2408 H2395 0.960 . S
C2408 C2407 1.524 . S
C2409 C2406 1.403 . S
C2409 C2410 1.392 . S
C2409 C2413 1.495 . S
C2410 C2409 1.392 . S
C2410 C2411 1.385 . S
C2410 C2412 1.478 . S
C2411 H2405 0.930 . S
C2411 C2407 1.400 . S
C2411 C2410 1.385 . S
C2412 C2410 1.478 . S
C2412 C2414 1.381 . S
C2412 C2418 1.383 . S
C2413 C2409 1.495 . S
C2413 H2419 0.959 . S
C2413 H2420 0.961 . S
C2413 H2421 0.960 . S
C2414 C2412 1.381 . S
C2414 C2415 1.394 . S
C2414 H2422 0.930 . S
C2415 C2414 1.394 . S
C2415 C2416 1.383 . S
C2415 H2423 0.929 . S
C2416 C2415 1.383 . S
C2416 C2417 1.377 . S
C2417 H2401 0.930 . S
C2417 C2416 1.377 . S
C2417 C2418 1.379 . S
C2418 H2402 0.931 . S
C2418 C2412 1.383 . S
C2418 C2417 1.379 . S
H2419 C2413 0.959 . S
H2420 C2413 0.961 . S
H2421 C2413 0.960 . S
H2422 C2414 0.930 . S
H2423 C2415 0.929 . S
H2424 C2432 0.929 . S
H2425 C2434 0.930 . S
H2426 C2436 0.930 . S
H2427 C2439 0.929 . S
H2428 C2442 0.930 . S
H2429 C2444 0.960 . S
H2430 C2444 0.960 . S
H2431 C2444 0.960 . S
C2432 H2424 0.929 . S
C2432 C2433 1.377 . S
C2432 C2434 1.384 . S
C2433 C2432 1.377 . S
C2433 C2439 1.390 . S
C2434 H2425 0.930 . S
C2434 C2432 1.384 . S
C2434 C2435 1.372 . S
C2435 C2434 1.372 . S
C2435 C2436 1.400 . S
C2435 C2440 1.490 . S
C2436 H2426 0.930 . S
C2436 C2435 1.400 . S
C2436 C2439 1.386 . S
H2437 C2453 0.930 . S
H2438 C2454 0.931 . S
C2439 H2427 0.929 . S
C2439 C2433 1.390 . S
C2439 C2436 1.386 . S
C2440 C2435 1.490 . S
C2440 C2442 1.395 . S
C2440 C2443 1.403 . S
H2441 C2447 0.930 . S
C2442 H2428 0.930 . S
C2442 C2440 1.395 . S
C2442 C2445 1.403 . S
C2443 C2440 1.403 . S
C2443 C2444 1.524 . S
C2443 C2447 1.400 . S
C2444 H2429 0.960 . S
C2444 H2430 0.960 . S
C2444 H2431 0.960 . S
C2444 C2443 1.524 . S
C2445 C2442 1.403 . S
C2445 C2446 1.392 . S
C2445 C2449 1.495 . S
C2446 C2445 1.392 . S
C2446 C2447 1.385 . S
C2446 C2448 1.478 . S
C2447 H2441 0.930 . S
C2447 C2443 1.400 . S
C2447 C2446 1.385 . S
C2448 C2446 1.478 . S
C2448 C2450 1.381 . S
C2448 C2454 1.383 . S
C2449 C2445 1.495 . S
C2449 H2455 0.959 . S
C2449 H2456 0.961 . S
C2449 H2457 0.960 . S
C2450 C2448 1.381 . S
C2450 C2451 1.394 . S
C2450 H2458 0.930 . S
C2451 C2450 1.394 . S
C2451 C2452 1.383 . S
C2451 H2459 0.929 . S
C2452 C2451 1.383 . S
C2452 C2453 1.377 . S
C2453 H2437 0.930 . S
C2453 C2452 1.377 . S
C2453 C2454 1.379 . S
C2454 H2438 0.931 . S
C2454 C2448 1.383 . S
C2454 C2453 1.379 . S
H2455 C2449 0.959 . S
H2456 C2449 0.961 . S
H2457 C2449 0.960 . S
H2458 C2450 0.930 . S
H2459 C2451 0.929 . S
H2460 C2468 0.929 . S
H2461 C2470 0.930 . S
H2462 C2472 0.930 . S
H2463 C2475 0.929 . S
H2464 C2478 0.930 . S
H2465 C2480 0.960 . S
H2466 C2480 0.960 . S
H2467 C2480 0.960 . S
C2468 H2460 0.929 . S
C2468 C2469 1.377 . S
C2468 C2470 1.384 . S
C2469 C2468 1.377 . S
C2469 C2475 1.390 . S
C2470 H2461 0.930 . S
C2470 C2468 1.384 . S
C2470 C2471 1.372 . S
C2471 C2470 1.372 . S
C2471 C2472 1.400 . S
C2471 C2476 1.490 . S
C2472 H2462 0.930 . S
C2472 C2471 1.400 . S
C2472 C2475 1.386 . S
H2473 C2489 0.930 . S
H2474 C2490 0.931 . S
C2475 H2463 0.929 . S
C2475 C2469 1.390 . S
C2475 C2472 1.386 . S
C2476 C2471 1.490 . S
C2476 C2478 1.395 . S
C2476 C2479 1.403 . S
H2477 C2483 0.930 . S
C2478 H2464 0.930 . S
C2478 C2476 1.395 . S
C2478 C2481 1.403 . S
C2479 C2476 1.403 . S
C2479 C2480 1.524 . S
C2479 C2483 1.400 . S
C2480 H2465 0.960 . S
C2480 H2466 0.960 . S
C2480 H2467 0.960 . S
C2480 C2479 1.524 . S
C2481 C2478 1.403 . S
C2481 C2482 1.392 . S
C2481 C2485 1.495 . S
C2482 C2481 1.392 . S
C2482 C2483 1.385 . S
C2482 C2484 1.478 . S
C2483 H2477 0.930 . S
C2483 C2479 1.400 . S
C2483 C2482 1.385 . S
C2484 C2482 1.478 . S
C2484 C2486 1.381 . S
C2484 C2490 1.383 . S
C2485 C2481 1.495 . S
C2485 H2491 0.959 . S
C2485 H2492 0.961 . S
C2485 H2493 0.960 . S
C2486 C2484 1.381 . S
C2486 C2487 1.394 . S
C2486 H2494 0.930 . S
C2487 C2486 1.394 . S
C2487 C2488 1.383 . S
C2487 H2495 0.929 . S
C2488 C2487 1.383 . S
C2488 C2489 1.377 . S
C2489 H2473 0.930 . S
C2489 C2488 1.377 . S
C2489 C2490 1.379 . S
C2490 H2474 0.931 . S
C2490 C2484 1.383 . S
C2490 C2489 1.379 . S
H2491 C2485 0.959 . S
H2492 C2485 0.961 . S
H2493 C2485 0.960 . S
H2494 C2486 0.930 . S
H2495 C2487 0.929 . S
H2496 C2504 0.929 . S
H2497 C2506 0.930 . S
H2498 C2508 0.930 . S
H2499 C2511 0.929 . S
H2500 C2514 0.930 . S
H2501 C2516 0.960 1_554 S
H2502 C2516 0.960 . S
H2503 C2516 0.960 . S
C2504 H2496 0.929 . S
C2504 C2505 1.377 . S
C2504 C2506 1.384 . S
C2505 C2504 1.377 . S
C2505 C2511 1.390 . S
C2506 H2497 0.930 . S
C2506 C2504 1.384 . S
C2506 C2507 1.372 . S
C2507 C2506 1.372 . S
C2507 C2508 1.400 . S
C2507 C2512 1.490 . S
C2508 H2498 0.930 . S
C2508 C2507 1.400 . S
C2508 C2511 1.386 . S
H2509 C2525 0.930 . S
H2510 C2526 0.931 1_655 S
C2511 H2499 0.929 . S
C2511 C2505 1.390 . S
C2511 C2508 1.386 . S
C2512 C2507 1.490 . S
C2512 C2514 1.395 . S
C2512 C2515 1.403 1_655 S
H2513 C2519 0.930 . S
C2514 H2500 0.930 . S
C2514 C2512 1.395 . S
C2514 C2517 1.401 . S
C2515 C2512 1.403 1_455 S
C2515 C2516 1.524 . S
C2515 C2519 1.400 1_556 S
C2516 H2501 0.960 1_556 S
C2516 H2502 0.960 . S
C2516 H2503 0.960 . S
C2516 C2515 1.524 . S
C2517 C2514 1.401 . S
C2517 C2518 1.394 1_656 S
C2517 C2521 1.495 1_556 S
C2518 C2517 1.394 1_454 S
C2518 C2519 1.385 . S
C2518 C2520 1.478 . S
C2519 H2513 0.930 . S
C2519 C2515 1.400 1_554 S
C2519 C2518 1.385 . S
C2520 C2518 1.478 . S
C2520 C2522 1.381 . S
C2520 C2526 1.383 . S
C2521 C2517 1.495 1_554 S
C2521 H2527 0.930 1_554 S
C2521 H2528 0.996 . S
C2521 H2529 0.956 1_554 S
C2522 C2520 1.381 . S
C2522 C2523 1.394 . S
C2522 H2530 0.930 . S
C2523 C2522 1.394 . S
C2523 C2524 1.383 . S
C2523 H2531 0.929 . S
C2524 C2523 1.383 . S
C2524 C2525 1.377 . S
C2525 H2509 0.930 . S
C2525 C2524 1.377 . S
C2525 C2526 1.379 . S
C2526 H2510 0.931 1_455 S
C2526 C2520 1.383 . S
C2526 C2525 1.379 . S
H2527 C2521 0.930 1_556 S
H2528 C2521 0.996 . S
H2529 C2521 0.956 1_556 S
H2530 C2522 0.930 . S
H2531 C2523 0.929 . S
H2532 C2540 0.929 . S
H2533 C2542 0.930 . S
H2534 C2544 0.930 . S
H2535 C2547 0.929 . S
H2536 C2550 0.930 . S
H2537 C2552 0.960 . S
H2538 C2552 0.960 1_455 S
H2539 C2552 0.960 . S
C2540 H2532 0.929 . S
C2540 C2541 1.377 . S
C2540 C2542 1.384 . S
C2541 C2540 1.377 . S
C2541 C2547 1.390 . S
C2542 H2533 0.930 . S
C2542 C2540 1.384 . S
C2542 C2543 1.372 . S
C2543 C2542 1.372 . S
C2543 C2544 1.400 . S
C2543 C2548 1.490 . S
C2544 H2534 0.930 . S
C2544 C2543 1.400 . S
C2544 C2547 1.386 . S
H2545 C2561 0.930 . S
H2546 C2562 0.931 . S
C2547 H2535 0.929 . S
C2547 C2541 1.390 . S
C2547 C2544 1.386 . S
C2548 C2543 1.490 . S
C2548 C2550 1.395 1_565 S
C2548 C2551 1.403 1_455 S
H2549 C2555 0.930 . S
C2550 H2536 0.930 . S
C2550 C2548 1.395 1_545 S
C2550 C2553 1.403 1_556 S
C2551 C2548 1.403 1_655 S
C2551 C2552 1.524 . S
C2551 C2555 1.400 1_556 S
C2552 H2537 0.960 . S
C2552 H2538 0.960 1_655 S
C2552 H2539 0.960 . S
C2552 C2551 1.524 . S
C2553 C2550 1.403 1_554 S
C2553 C2554 1.392 1_455 S
C2553 C2557 1.495 . S
C2554 C2553 1.392 1_655 S
C2554 C2555 1.385 1_545 S
C2554 C2556 1.478 . S
C2555 H2549 0.930 . S
C2555 C2551 1.400 1_554 S
C2555 C2554 1.385 1_565 S
C2556 C2554 1.478 . S
C2556 C2558 1.381 . S
C2556 C2562 1.383 . S
C2557 C2553 1.495 . S
C2557 H2563 0.959 . S
C2557 H2564 0.961 1_455 S
C2557 H2565 0.960 . S
C2558 C2556 1.381 . S
C2558 C2559 1.394 . S
C2558 H2566 0.930 . S
C2559 C2558 1.394 . S
C2559 C2560 1.383 . S
C2559 H2567 0.929 . S
C2560 C2559 1.383 . S
C2560 C2561 1.377 . S
C2561 H2545 0.930 . S
C2561 C2560 1.377 . S
C2561 C2562 1.379 . S
C2562 H2546 0.931 . S
C2562 C2556 1.383 . S
C2562 C2561 1.379 . S
H2563 C2557 0.959 . S
H2564 C2557 0.961 1_655 S
H2565 C2557 0.960 . S
H2566 C2558 0.930 . S
H2567 C2559 0.929 . S
H2568 C2576 0.929 . S
H2569 C2578 0.930 . S
H2570 C2580 0.930 . S
H2571 C2583 0.929 . S
H2572 C2586 0.930 . S
H2573 C2588 0.960 . S
H2574 C2588 0.960 . S
H2575 C2588 0.960 . S
C2576 H2568 0.929 . S
C2576 C2577 1.377 . S
C2576 C2578 1.384 . S
C2577 C2576 1.377 . S
C2577 C2583 1.390 . S
C2578 H2569 0.930 . S
C2578 C2576 1.384 . S
C2578 C2579 1.372 . S
C2579 C2578 1.372 . S
C2579 C2580 1.400 . S
C2579 C2584 1.490 . S
C2580 H2570 0.930 . S
C2580 C2579 1.400 . S
C2580 C2583 1.386 . S
H2581 C2597 0.930 . S
H2582 C2598 0.931 . S
C2583 H2571 0.929 . S
C2583 C2577 1.390 . S
C2583 C2580 1.386 . S
C2584 C2579 1.490 . S
C2584 C2586 1.395 1_545 S
C2584 C2587 1.403 1_556 S
H2585 C2591 0.930 . S
C2586 H2572 0.930 . S
C2586 C2584 1.395 1_565 S
C2586 C2589 1.403 . S
C2587 C2584 1.403 1_554 S
C2587 C2588 1.524 . S
C2587 C2591 1.400 . S
C2588 H2573 0.960 . S
C2588 H2574 0.960 . S
C2588 H2575 0.960 . S
C2588 C2587 1.524 . S
C2589 C2586 1.403 . S
C2589 C2590 1.392 1_556 S
C2589 C2593 1.495 . S
C2590 C2589 1.392 1_554 S
C2590 C2591 1.385 1_565 S
C2590 C2592 1.478 . S
C2591 H2585 0.930 . S
C2591 C2587 1.400 . S
C2591 C2590 1.385 1_545 S
C2592 C2590 1.478 . S
C2592 C2594 1.381 . S
C2592 C2598 1.383 . S
C2593 C2589 1.495 . S
C2593 H2599 0.959 . S
C2593 H2600 0.961 . S
C2593 H2601 0.960 . S
C2594 C2592 1.381 . S
C2594 C2595 1.394 . S
C2594 H2602 0.930 . S
C2595 C2594 1.394 . S
C2595 C2596 1.383 . S
C2595 H2603 0.929 . S
C2596 C2595 1.383 . S
C2596 C2597 1.377 . S
C2597 H2581 0.930 . S
C2597 C2596 1.377 . S
C2597 C2598 1.379 . S
C2598 H2582 0.931 . S
C2598 C2592 1.383 . S
C2598 C2597 1.379 . S
H2599 C2593 0.959 . S
H2600 C2593 0.961 . S
H2601 C2593 0.960 . S
H2602 C2594 0.930 . S
H2603 C2595 0.929 . S
H2604 C2612 0.929 . S
H2605 C2614 0.930 . S
H2606 C2616 0.930 . S
H2607 C2619 0.929 . S
H2608 C2622 0.930 . S
H2609 C2624 0.960 . S
H2610 C2624 0.960 . S
H2611 C2624 0.960 . S
C2612 H2604 0.929 . S
C2612 C2613 1.377 . S
C2612 C2614 1.384 . S
C2613 C2612 1.377 . S
C2613 C2619 1.390 . S
C2614 H2605 0.930 . S
C2614 C2612 1.384 . S
C2614 C2615 1.372 . S
C2615 C2614 1.372 . S
C2615 C2616 1.400 . S
C2615 C2620 1.490 . S
C2616 H2606 0.930 . S
C2616 C2615 1.400 . S
C2616 C2619 1.386 . S
H2617 C2633 0.930 . S
H2618 C2634 0.931 . S
C2619 H2607 0.929 . S
C2619 C2613 1.390 . S
C2619 C2616 1.386 . S
C2620 C2615 1.490 . S
C2620 C2622 1.395 1_554 S
C2620 C2623 1.403 . S
H2621 C2627 0.936 . S
C2622 H2608 0.930 . S
C2622 C2620 1.395 1_556 S
C2622 C2625 1.403 . S
C2623 C2620 1.403 . S
C2623 C2624 1.524 . S
C2623 C2627 1.429 . S
C2624 H2609 0.960 . S
C2624 H2610 0.960 . S
C2624 H2611 0.960 . S
C2624 C2623 1.524 . S
C2625 C2622 1.403 . S
C2625 C2626 1.392 . S
C2625 C2629 1.495 . S
C2626 C2625 1.392 . S
C2626 C2627 1.352 1_556 S
C2626 C2628 1.478 . S
C2627 H2621 0.936 . S
C2627 C2623 1.429 . S
C2627 C2626 1.352 1_554 S
C2628 C2626 1.478 . S
C2628 C2630 1.381 . S
C2628 C2634 1.383 . S
C2629 C2625 1.495 . S
C2629 H2635 0.959 . S
C2629 H2636 0.961 . S
C2629 H2637 0.960 . S
C2630 C2628 1.381 . S
C2630 C2631 1.394 . S
C2630 H2638 0.930 . S
C2631 C2630 1.394 . S
C2631 C2632 1.383 . S
C2631 H2639 0.929 . S
C2632 C2631 1.383 . S
C2632 C2633 1.377 . S
C2633 H2617 0.930 . S
C2633 C2632 1.377 . S
C2633 C2634 1.379 . S
C2634 H2618 0.931 . S
C2634 C2628 1.383 . S
C2634 C2633 1.379 . S
H2635 C2629 0.959 . S
H2636 C2629 0.961 . S
H2637 C2629 0.960 . S
H2638 C2630 0.930 . S
H2639 C2631 0.929 . S
H2640 C2648 0.929 1_455 S
H2641 C2650 0.930 . S
H2642 C2652 0.930 . S
H2643 C2655 0.929 . S
H2644 C2658 0.930 . S
H2645 C2660 0.960 . S
H2646 C2660 0.960 . S
H2647 C2660 0.960 . S
C2648 H2640 0.929 1_655 S
C2648 C2649 1.377 . S
C2648 C2650 1.384 1_655 S
C2649 C2648 1.377 . S
C2649 C2655 1.390 . S
C2650 H2641 0.930 . S
C2650 C2648 1.384 1_455 S
C2650 C2651 1.372 1_455 S
C2651 C2650 1.372 1_655 S
C2651 C2652 1.400 . S
C2651 C2656 1.490 . S
C2652 H2642 0.930 . S
C2652 C2651 1.400 . S
C2652 C2655 1.386 . S
H2653 C2669 0.930 . S
H2654 C2670 0.931 1_655 S
C2655 H2643 0.929 . S
C2655 C2649 1.390 . S
C2655 C2652 1.386 . S
C2656 C2651 1.490 . S
C2656 C2658 1.395 1_655 S
C2656 C2659 1.403 . S
H2657 C2663 0.930 . S
C2658 H2644 0.930 . S
C2658 C2656 1.395 1_455 S
C2658 C2661 1.403 1_545 S
C2659 C2656 1.403 . S
C2659 C2660 1.524 . S
C2659 C2663 1.400 1_545 S
C2660 H2645 0.960 . S
C2660 H2646 0.960 . S
C2660 H2647 0.960 . S
C2660 C2659 1.524 . S
C2661 C2658 1.403 1_565 S
C2661 C2662 1.392 . S
C2661 C2665 1.495 . S
C2662 C2661 1.392 . S
C2662 C2663 1.385 1_455 S
C2662 C2664 1.478 . S
C2663 H2657 0.930 . S
C2663 C2659 1.400 1_565 S
C2663 C2662 1.385 1_655 S
C2664 C2662 1.478 . S
C2664 C2666 1.381 . S
C2664 C2670 1.383 . S
C2665 C2661 1.495 . S
C2665 H2671 0.959 . S
C2665 H2672 0.961 . S
C2665 H2673 0.960 . S
C2666 C2664 1.381 . S
C2666 C2667 1.394 . S
C2666 H2674 0.930 . S
C2667 C2666 1.394 . S
C2667 C2668 1.383 . S
C2667 H2675 0.929 . S
C2668 C2667 1.383 . S
C2668 C2669 1.377 . S
C2669 H2653 0.930 . S
C2669 C2668 1.377 . S
C2669 C2670 1.379 . S
C2670 H2654 0.931 1_455 S
C2670 C2664 1.383 . S
C2670 C2669 1.379 . S
H2671 C2665 0.959 . S
H2672 C2665 0.961 . S
H2673 C2665 0.960 . S
H2674 C2666 0.930 . S
H2675 C2667 0.929 . S
H2676 C2684 0.929 1_545 S
H2677 C2686 0.930 . S
H2678 C2688 0.930 . S
H2679 C2691 0.929 . S
H2680 C2694 0.930 . S
H2681 C2696 0.954 1_545 S
H2682 C2696 0.931 1_545 S
H2683 C2696 0.997 . S
C2684 H2676 0.929 1_565 S
C2684 C2685 1.377 . S
C2684 C2686 1.384 1_565 S
C2685 C2684 1.377 . S
C2685 C2691 1.390 . S
C2686 H2677 0.930 . S
C2686 C2684 1.384 1_545 S
C2686 C2687 1.372 1_545 S
C2687 C2686 1.372 1_565 S
C2687 C2688 1.400 . S
C2687 C2692 1.490 . S
C2688 H2678 0.930 . S
C2688 C2687 1.400 . S
C2688 C2691 1.386 . S
H2689 C2705 0.925 1_565 S
H2690 C2706 0.931 . S
C2691 H2679 0.929 . S
C2691 C2685 1.390 . S
C2691 C2688 1.386 . S
C2692 C2687 1.490 . S
C2692 C2694 1.395 . S
C2692 C2695 1.406 . S
H2693 C2699 0.930 . S
C2694 H2680 0.930 . S
C2694 C2692 1.395 . S
C2694 C2697 1.403 1_565 S
C2695 C2692 1.406 . S
C2695 C2696 1.524 . S
C2695 C2699 1.396 1_565 S
C2696 H2681 0.954 1_565 S
C2696 H2682 0.931 1_565 S
C2696 H2683 0.997 . S
C2696 C2695 1.524 . S
C2697 C2694 1.403 1_545 S
C2697 C2698 1.392 . S
C2697 C2701 1.495 . S
C2698 C2697 1.392 . S
C2698 C2699 1.385 . S
C2698 C2700 1.478 . S
C2699 H2693 0.930 . S
C2699 C2695 1.396 1_545 S
C2699 C2698 1.385 . S
C2700 C2698 1.478 . S
C2700 C2702 1.381 . S
C2700 C2706 1.383 1_545 S
C2701 C2697 1.495 . S
C2701 H2707 0.959 . S
C2701 H2708 0.961 1_545 S
C2701 H2709 0.960 . S
C2702 C2700 1.381 . S
C2702 C2703 1.394 . S
C2702 H2710 0.930 . S
C2703 C2702 1.394 . S
C2703 C2704 1.383 . S
C2703 H2711 0.929 . S
C2704 C2703 1.383 . S
C2704 C2705 1.383 . S
C2705 H2689 0.925 1_545 S
C2705 C2704 1.383 . S
C2705 C2706 1.378 1_545 S
C2706 H2690 0.931 . S
C2706 C2700 1.383 1_565 S
C2706 C2705 1.378 1_565 S
H2707 C2701 0.959 . S
H2708 C2701 0.961 1_565 S
H2709 C2701 0.960 . S
H2710 C2702 0.930 . S
H2711 C2703 0.929 . S
H2712 C2720 0.929 . S
H2713 C2722 0.930 . S
H2714 C2724 0.930 . S
H2715 C2727 0.929 . S
H2716 C2730 0.930 . S
H2717 C2732 0.960 . S
H2718 C2732 0.960 . S
H2719 C2732 0.960 . S
C2720 H2712 0.929 . S
C2720 C2721 1.377 . S
C2720 C2722 1.384 . S
C2721 C2720 1.377 . S
C2721 C2727 1.390 . S
C2722 H2713 0.930 . S
C2722 C2720 1.384 . S
C2722 C2723 1.372 . S
C2723 C2722 1.372 . S
C2723 C2724 1.400 . S
C2723 C2728 1.490 . S
C2724 H2714 0.930 . S
C2724 C2723 1.400 . S
C2724 C2727 1.386 . S
H2725 C2741 0.930 . S
H2726 C2742 0.931 . S
C2727 H2715 0.929 . S
C2727 C2721 1.390 . S
C2727 C2724 1.386 . S
C2728 C2723 1.490 . S
C2728 C2730 1.395 . S
C2728 C2731 1.403 . S
H2729 C2735 0.930 . S
C2730 H2716 0.930 . S
C2730 C2728 1.395 . S
C2730 C2733 1.403 . S
C2731 C2728 1.403 . S
C2731 C2732 1.524 . S
C2731 C2735 1.400 . S
C2732 H2717 0.960 . S
C2732 H2718 0.960 . S
C2732 H2719 0.960 . S
C2732 C2731 1.524 . S
C2733 C2730 1.403 . S
C2733 C2734 1.392 . S
C2733 C2737 1.495 . S
C2734 C2733 1.392 . S
C2734 C2735 1.385 . S
C2734 C2736 1.478 . S
C2735 H2729 0.930 . S
C2735 C2731 1.400 . S
C2735 C2734 1.385 . S
C2736 C2734 1.478 . S
C2736 C2738 1.381 . S
C2736 C2742 1.383 . S
C2737 C2733 1.495 . S
C2737 H2743 0.959 . S
C2737 H2744 0.961 . S
C2737 H2745 0.960 . S
C2738 C2736 1.381 . S
C2738 C2739 1.394 . S
C2738 H2746 0.930 . S
C2739 C2738 1.394 . S
C2739 C2740 1.383 . S
C2739 H2747 0.929 . S
C2740 C2739 1.383 . S
C2740 C2741 1.377 . S
C2741 H2725 0.930 . S
C2741 C2740 1.377 . S
C2741 C2742 1.379 . S
C2742 H2726 0.931 . S
C2742 C2736 1.383 . S
C2742 C2741 1.379 . S
H2743 C2737 0.959 . S
H2744 C2737 0.961 . S
H2745 C2737 0.960 . S
H2746 C2738 0.930 . S
H2747 C2739 0.929 . S
H2748 C2756 0.929 . S
H2749 C2758 0.930 . S
H2750 C2760 0.930 . S
H2751 C2763 0.929 . S
H2752 C2766 0.930 . S
H2753 C2768 0.960 . S
H2754 C2768 0.960 . S
H2755 C2768 0.960 . S
C2756 H2748 0.929 . S
C2756 C2757 1.377 . S
C2756 C2758 1.384 . S
C2757 C2756 1.377 . S
C2757 C2763 1.390 . S
C2758 H2749 0.930 . S
C2758 C2756 1.384 . S
C2758 C2759 1.372 . S
C2759 C2758 1.372 . S
C2759 C2760 1.400 . S
C2759 C2764 1.490 . S
C2760 H2750 0.930 . S
C2760 C2759 1.400 . S
C2760 C2763 1.386 . S
H2761 C2777 0.930 . S
H2762 C2778 0.931 . S
C2763 H2751 0.929 . S
C2763 C2757 1.390 . S
C2763 C2760 1.386 . S
C2764 C2759 1.490 . S
C2764 C2766 1.395 . S
C2764 C2767 1.403 . S
H2765 C2771 0.930 . S
C2766 H2752 0.930 . S
C2766 C2764 1.395 . S
C2766 C2769 1.403 1_455 S
C2767 C2764 1.403 . S
C2767 C2768 1.524 . S
C2767 C2771 1.400 1_455 S
C2768 H2753 0.960 . S
C2768 H2754 0.960 . S
C2768 H2755 0.960 . S
C2768 C2767 1.524 . S
C2769 C2766 1.403 1_655 S
C2769 C2770 1.392 . S
C2769 C2773 1.495 . S
C2770 C2769 1.392 . S
C2770 C2771 1.385 . S
C2770 C2772 1.478 . S
C2771 H2765 0.930 . S
C2771 C2767 1.400 1_655 S
C2771 C2770 1.385 . S
C2772 C2770 1.478 . S
C2772 C2774 1.381 . S
C2772 C2778 1.383 . S
C2773 C2769 1.495 . S
C2773 H2779 0.959 . S
C2773 H2780 0.961 . S
C2773 H2781 0.960 . S
C2774 C2772 1.381 . S
C2774 C2775 1.394 . S
C2774 H2782 0.930 . S
C2775 C2774 1.394 . S
C2775 C2776 1.383 . S
C2775 H2783 0.929 . S
C2776 C2775 1.383 . S
C2776 C2777 1.377 . S
C2777 H2761 0.930 . S
C2777 C2776 1.377 . S
C2777 C2778 1.379 . S
C2778 H2762 0.931 . S
C2778 C2772 1.383 . S
C2778 C2777 1.379 . S
H2779 C2773 0.959 . S
H2780 C2773 0.961 . S
H2781 C2773 0.960 . S
H2782 C2774 0.930 . S
H2783 C2775 0.929 . S
H2784 C2792 0.929 . S
H2785 C2794 0.930 . S
H2786 C2796 0.930 . S
H2787 C2799 0.929 . S
H2788 C2802 0.930 . S
H2789 C2804 0.960 . S
H2790 C2804 0.960 . S
H2791 C2804 0.960 1_655 S
C2792 H2784 0.929 . S
C2792 C2793 1.377 . S
C2792 C2794 1.384 . S
C2793 C2792 1.377 . S
C2793 C2799 1.390 . S
C2794 H2785 0.930 . S
C2794 C2792 1.384 . S
C2794 C2795 1.372 . S
C2795 C2794 1.372 . S
C2795 C2796 1.400 . S
C2795 C2800 1.490 . S
C2796 H2786 0.930 . S
C2796 C2795 1.400 . S
C2796 C2799 1.386 . S
H2797 C2813 0.930 . S
H2798 C2814 0.931 1_655 S
C2799 H2787 0.929 . S
C2799 C2793 1.390 . S
C2799 C2796 1.386 . S
C2800 C2795 1.490 . S
C2800 C2802 1.395 . S
C2800 C2803 1.403 . S
H2801 C2807 0.930 . S
C2802 H2788 0.930 . S
C2802 C2800 1.395 . S
C2802 C2805 1.403 . S
C2803 C2800 1.403 . S
C2803 C2804 1.524 1_655 S
C2803 C2807 1.400 1_655 S
C2804 H2789 0.960 . S
C2804 H2790 0.960 . S
C2804 H2791 0.960 1_455 S
C2804 C2803 1.524 1_455 S
C2805 C2802 1.403 . S
C2805 C2806 1.392 . S
C2805 C2809 1.495 . S
C2806 C2805 1.392 . S
C2806 C2807 1.385 1_655 S
C2806 C2808 1.478 1_655 S
C2807 H2801 0.930 . S
C2807 C2803 1.400 1_455 S
C2807 C2806 1.385 1_455 S
C2808 C2806 1.478 1_455 S
C2808 C2810 1.381 . S
C2808 C2814 1.383 . S
C2809 C2805 1.495 . S
C2809 H2815 0.959 . S
C2809 H2816 0.961 . S
C2809 H2817 0.960 . S
C2810 C2808 1.381 . S
C2810 C2811 1.394 . S
C2810 H2818 0.930 . S
C2811 C2810 1.394 . S
C2811 C2812 1.383 . S
C2811 H2819 0.929 . S
C2812 C2811 1.383 . S
C2812 C2813 1.377 . S
C2813 H2797 0.930 . S
C2813 C2812 1.377 . S
C2813 C2814 1.379 . S
C2814 H2798 0.931 1_455 S
C2814 C2808 1.383 . S
C2814 C2813 1.379 . S
H2815 C2809 0.959 . S
H2816 C2809 0.961 . S
H2817 C2809 0.960 . S
H2818 C2810 0.930 . S
H2819 C2811 0.929 . S
H2820 C2828 0.929 . S
H2821 C2830 0.930 . S
H2822 C2832 0.930 . S
H2823 C2835 0.929 1_655 S
H2824 C2838 0.930 1_455 S
H2825 C2840 0.960 . S
H2826 C2840 0.960 1_455 S
H2827 C2840 0.960 . S
C2828 H2820 0.929 . S
C2828 C2829 1.377 . S
C2828 C2830 1.384 . S
C2829 C2828 1.377 . S
C2829 C2835 1.390 . S
C2830 H2821 0.930 . S
C2830 C2828 1.384 . S
C2830 C2831 1.372 . S
C2831 C2830 1.372 . S
C2831 C2832 1.400 1_455 S
C2831 C2836 1.490 1_455 S
C2832 H2822 0.930 . S
C2832 C2831 1.400 1_655 S
C2832 C2835 1.386 1_655 S
H2833 C2849 0.930 . S
H2834 C2850 0.931 . S
C2835 H2823 0.929 1_455 S
C2835 C2829 1.390 . S
C2835 C2832 1.386 1_455 S
C2836 C2831 1.490 1_655 S
C2836 C2838 1.395 . S
C2836 C2839 1.403 . S
H2837 C2843 0.930 . S
C2838 H2824 0.930 1_655 S
C2838 C2836 1.395 . S
C2838 C2841 1.403 . S
C2839 C2836 1.403 . S
C2839 C2840 1.524 1_565 S
C2839 C2843 1.400 1_565 S
C2840 H2825 0.960 . S
C2840 H2826 0.960 1_655 S
C2840 H2827 0.960 . S
C2840 C2839 1.524 1_545 S
C2841 C2838 1.403 . S
C2841 C2842 1.392 . S
C2841 C2845 1.495 . S
C2842 C2841 1.392 . S
C2842 C2843 1.385 1_565 S
C2842 C2844 1.478 1_565 S
C2843 H2837 0.930 . S
C2843 C2839 1.400 1_545 S
C2843 C2842 1.385 1_545 S
C2844 C2842 1.478 1_545 S
C2844 C2846 1.381 . S
C2844 C2850 1.383 . S
C2845 C2841 1.495 . S
C2845 H2851 0.959 . S
C2845 H2852 0.961 . S
C2845 H2853 0.960 . S
C2846 C2844 1.381 . S
C2846 C2847 1.394 . S
C2846 H2854 0.930 . S
C2847 C2846 1.394 . S
C2847 C2848 1.383 . S
C2847 H2855 0.929 . S
C2848 C2847 1.383 . S
C2848 C2849 1.377 . S
C2849 H2833 0.930 . S
C2849 C2848 1.377 . S
C2849 C2850 1.379 . S
C2850 H2834 0.931 . S
C2850 C2844 1.383 . S
C2850 C2849 1.379 . S
H2851 C2845 0.959 . S
H2852 C2845 0.961 . S
H2853 C2845 0.960 . S
H2854 C2846 0.930 . S
H2855 C2847 0.929 . S
H2856 C2864 0.929 . S
H2857 C2866 0.930 1_565 S
H2858 C2868 0.930 . S
H2859 C2871 0.929 . S
H2860 C2874 0.930 . S
H2861 C2876 0.960 . S
H2862 C2876 0.960 . S
H2863 C2876 0.960 . S
C2864 H2856 0.929 . S
C2864 C2865 1.377 . S
C2864 C2866 1.384 . S
C2865 C2864 1.377 . S
C2865 C2871 1.390 . S
C2866 H2857 0.930 1_545 S
C2866 C2864 1.384 . S
C2866 C2867 1.372 . S
C2867 C2866 1.372 . S
C2867 C2868 1.400 . S
C2867 C2872 1.490 1_545 S
C2868 H2858 0.930 . S
C2868 C2867 1.400 . S
C2868 C2871 1.386 . S
H2869 C2885 0.930 . S
H2870 C2886 0.931 . S
C2871 H2859 0.929 . S
C2871 C2865 1.390 . S
C2871 C2868 1.386 . S
C2872 C2867 1.490 1_565 S
C2872 C2874 1.395 . S
C2872 C2875 1.403 1_565 S
H2873 C2879 0.930 1_545 S
C2874 H2860 0.930 . S
C2874 C2872 1.395 . S
C2874 C2877 1.403 . S
C2875 C2872 1.403 1_545 S
C2875 C2876 1.524 . S
C2875 C2879 1.400 1_545 S
C2876 H2861 0.960 . S
C2876 H2862 0.960 . S
C2876 H2863 0.960 . S
C2876 C2875 1.524 . S
C2877 C2874 1.403 . S
C2877 C2878 1.392 . S
C2877 C2881 1.495 . S
C2878 C2877 1.392 . S
C2878 C2879 1.385 . S
C2878 C2880 1.478 . S
C2879 H2873 0.930 1_565 S
C2879 C2875 1.400 1_565 S
C2879 C2878 1.385 . S
C2880 C2878 1.478 . S
C2880 C2882 1.381 . S
C2880 C2886 1.383 . S
C2881 C2877 1.495 . S
C2881 H2887 0.959 . S
C2881 H2888 0.961 . S
C2881 H2889 0.960 . S
C2882 C2880 1.381 . S
C2882 C2883 1.394 . S
C2882 H2890 0.930 . S
C2883 C2882 1.394 . S
C2883 C2884 1.383 . S
C2883 H2891 0.929 . S
C2884 C2883 1.383 . S
C2884 C2885 1.377 . S
C2885 H2869 0.930 . S
C2885 C2884 1.377 . S
C2885 C2886 1.379 . S
C2886 H2870 0.931 . S
C2886 C2880 1.383 . S
C2886 C2885 1.379 . S
H2887 C2881 0.959 . S
H2888 C2881 0.961 . S
H2889 C2881 0.960 . S
H2890 C2882 0.930 . S
H2891 C2883 0.929 . S
H2892 C2900 0.929 . S
H2893 C2902 0.930 . S
H2894 C2904 0.930 . S
H2895 C2907 0.929 . S
H2896 C2910 0.930 . S
H2897 C2912 0.960 . S
H2898 C2912 0.960 . S
H2899 C2912 0.960 . S
C2900 H2892 0.929 . S
C2900 C2901 1.377 . S
C2900 C2902 1.384 . S
C2901 C2900 1.377 . S
C2901 C2907 1.390 . S
C2902 H2893 0.930 . S
C2902 C2900 1.384 . S
C2902 C2903 1.372 . S
C2903 C2902 1.372 . S
C2903 C2904 1.400 . S
C2903 C2908 1.490 . S
C2904 H2894 0.930 . S
C2904 C2903 1.400 . S
C2904 C2907 1.386 . S
H2905 C2921 0.930 . S
H2906 C2922 0.931 . S
C2907 H2895 0.929 . S
C2907 C2901 1.390 . S
C2907 C2904 1.386 . S
C2908 C2903 1.490 . S
C2908 C2910 1.395 . S
C2908 C2911 1.403 . S
H2909 C2915 0.930 . S
C2910 H2896 0.930 . S
C2910 C2908 1.395 . S
C2910 C2913 1.403 . S
C2911 C2908 1.403 . S
C2911 C2912 1.524 . S
C2911 C2915 1.400 . S
C2912 H2897 0.960 . S
C2912 H2898 0.960 . S
C2912 H2899 0.960 . S
C2912 C2911 1.524 . S
C2913 C2910 1.403 . S
C2913 C2914 1.392 . S
C2913 C2917 1.495 . S
C2914 C2913 1.392 . S
C2914 C2915 1.385 . S
C2914 C2916 1.478 . S
C2915 H2909 0.930 . S
C2915 C2911 1.400 . S
C2915 C2914 1.385 . S
C2916 C2914 1.478 . S
C2916 C2918 1.381 . S
C2916 C2922 1.383 . S
C2917 C2913 1.495 . S
C2917 H2923 0.959 . S
C2917 H2924 0.961 . S
C2917 H2925 0.960 . S
C2918 C2916 1.381 . S
C2918 C2919 1.394 . S
C2918 H2926 0.930 . S
C2919 C2918 1.394 . S
C2919 C2920 1.383 . S
C2919 H2927 0.929 . S
C2920 C2919 1.383 . S
C2920 C2921 1.377 . S
C2921 H2905 0.930 . S
C2921 C2920 1.377 . S
C2921 C2922 1.379 . S
C2922 H2906 0.931 . S
C2922 C2916 1.383 . S
C2922 C2921 1.379 . S
H2923 C2917 0.959 . S
H2924 C2917 0.961 . S
H2925 C2917 0.960 . S
H2926 C2918 0.930 . S
H2927 C2919 0.929 . S
H2928 C2936 0.929 . S
H2929 C2938 0.930 . S
H2930 C2940 0.930 . S
H2931 C2943 0.929 . S
H2932 C2946 0.922 1_655 S
H2933 C2948 0.960 . S
H2934 C2948 0.960 . S
H2935 C2948 0.960 . S
C2936 H2928 0.929 . S
C2936 C2937 1.377 . S
C2936 C2938 1.384 . S
C2937 C2936 1.377 . S
C2937 C2943 1.390 . S
C2938 H2929 0.930 . S
C2938 C2936 1.384 . S
C2938 C2939 1.372 . S
C2939 C2938 1.372 . S
C2939 C2940 1.400 . S
C2939 C2944 1.490 . S
C2940 H2930 0.930 . S
C2940 C2939 1.400 . S
C2940 C2943 1.386 . S
H2941 C2957 0.930 . S
H2942 C2958 0.931 . S
C2943 H2931 0.929 . S
C2943 C2937 1.390 . S
C2943 C2940 1.386 . S
C2944 C2939 1.490 . S
C2944 C2946 1.395 . S
C2944 C2947 1.403 . S
H2945 C2951 0.930 . S
C2946 H2932 0.922 1_455 S
C2946 C2944 1.395 . S
C2946 C2949 1.403 1_455 S
C2947 C2944 1.403 . S
C2947 C2948 1.524 . S
C2947 C2951 1.400 . S
C2948 H2933 0.960 . S
C2948 H2934 0.960 . S
C2948 H2935 0.960 . S
C2948 C2947 1.524 . S
C2949 C2946 1.403 1_655 S
C2949 C2950 1.392 1_655 S
C2949 C2953 1.495 . S
C2950 C2949 1.392 1_455 S
C2950 C2951 1.385 . S
C2950 C2952 1.478 1_455 S
C2951 H2945 0.930 . S
C2951 C2947 1.400 . S
C2951 C2950 1.385 . S
C2952 C2950 1.478 1_655 S
C2952 C2954 1.381 . S
C2952 C2958 1.383 . S
C2953 C2949 1.495 . S
C2953 H2959 0.959 . S
C2953 H2960 0.961 . S
C2953 H2961 0.960 . S
C2954 C2952 1.381 . S
C2954 C2955 1.394 . S
C2954 H2962 0.930 . S
C2955 C2954 1.394 . S
C2955 C2956 1.383 . S
C2955 H2963 0.929 . S
C2956 C2955 1.383 . S
C2956 C2957 1.377 . S
C2957 H2941 0.930 . S
C2957 C2956 1.377 . S
C2957 C2958 1.379 . S
C2958 H2942 0.931 . S
C2958 C2952 1.383 . S
C2958 C2957 1.379 . S
H2959 C2953 0.959 . S
H2960 C2953 0.961 . S
H2961 C2953 0.960 . S
H2962 C2954 0.930 . S
H2963 C2955 0.929 . S
H2964 C2972 0.929 1_455 S
H2965 C2974 0.930 . S
H2966 C2976 0.930 . S
H2967 C2979 0.929 . S
H2968 C2982 0.930 . S
H2969 C2984 0.960 . S
H2970 C2984 0.960 . S
H2971 C2984 0.960 . S
C2972 H2964 0.929 1_655 S
C2972 C2973 1.377 . S
C2972 C2974 1.384 1_655 S
C2973 C2972 1.377 . S
C2973 C2979 1.390 . S
C2974 H2965 0.930 . S
C2974 C2972 1.384 1_455 S
C2974 C2975 1.372 1_455 S
C2975 C2974 1.372 1_655 S
C2975 C2976 1.400 . S
C2975 C2980 1.490 1_655 S
C2976 H2966 0.930 . S
C2976 C2975 1.400 . S
C2976 C2979 1.386 . S
H2977 C2993 0.930 . S
H2978 C2994 0.931 . S
C2979 H2967 0.929 . S
C2979 C2973 1.390 . S
C2979 C2976 1.386 . S
C2980 C2975 1.490 1_455 S
C2980 C2982 1.395 . S
C2980 C2983 1.411 . S
H2981 C2987 0.930 . S
C2982 H2968 0.930 . S
C2982 C2980 1.395 . S
C2982 C2985 1.403 . S
C2983 C2980 1.411 . S
C2983 C2984 1.500 1_445 S
C2983 C2987 1.418 1_545 S
C2984 H2969 0.960 . S
C2984 H2970 0.960 . S
C2984 H2971 0.960 . S
C2984 C2983 1.500 1_665 S
C2985 C2982 1.403 . S
C2985 C2986 1.392 . S
C2985 C2989 1.495 . S
C2986 C2985 1.392 . S
C2986 C2987 1.385 1_545 S
C2986 C2988 1.478 1_545 S
C2987 H2981 0.930 . S
C2987 C2983 1.418 1_565 S
C2987 C2986 1.385 1_565 S
C2988 C2986 1.478 1_565 S
C2988 C2990 1.381 . S
C2988 C2994 1.383 . S
C2989 C2985 1.495 . S
C2989 H2995 0.959 . S
C2989 H2996 0.961 . S
C2989 H2997 0.960 . S
C2990 C2988 1.381 . S
C2990 C2991 1.394 . S
C2990 H2998 0.930 . S
C2991 C2990 1.394 . S
C2991 C2992 1.383 . S
C2991 H2999 0.929 . S
C2992 C2991 1.383 . S
C2992 C2993 1.377 . S
C2993 H2977 0.930 . S
C2993 C2992 1.377 . S
C2993 C2994 1.379 . S
C2994 H2978 0.931 . S
C2994 C2988 1.383 . S
C2994 C2993 1.379 . S
H2995 C2989 0.959 . S
H2996 C2989 0.961 . S
H2997 C2989 0.960 . S
H2998 C2990 0.930 . S
H2999 C2991 0.929 . S
H3000 C3008 0.929 . S
H3001 C3010 0.930 . S
H3002 C3012 0.930 1_545 S
H3003 C3015 0.929 . S
H3004 C3018 0.930 . S
H3005 C3020 0.960 . S
H3006 C3020 0.960 . S
H3007 C3020 0.960 . S
C3008 H3000 0.929 . S
C3008 C3009 1.377 . S
C3008 C3010 1.384 . S
C3009 C3008 1.377 . S
C3009 C3015 1.390 . S
C3010 H3001 0.930 . S
C3010 C3008 1.384 . S
C3010 C3011 1.372 . S
C3011 C3010 1.372 . S
C3011 C3012 1.400 . S
C3011 C3016 1.490 1_565 S
C3012 H3002 0.930 1_565 S
C3012 C3011 1.400 . S
C3012 C3015 1.386 . S
H3013 C3029 0.930 . S
H3014 C3030 0.931 . S
C3015 H3003 0.929 . S
C3015 C3009 1.390 . S
C3015 C3012 1.386 . S
C3016 C3011 1.490 1_545 S
C3016 C3018 1.395 . S
C3016 C3019 1.403 1_545 S
H3017 C3023 0.930 . S
C3018 H3004 0.930 . S
C3018 C3016 1.395 . S
C3018 C3021 1.403 . S
C3019 C3016 1.403 1_565 S
C3019 C3020 1.524 . S
C3019 C3023 1.400 1_565 S
C3020 H3005 0.960 . S
C3020 H3006 0.960 . S
C3020 H3007 0.960 . S
C3020 C3019 1.524 . S
C3021 C3018 1.403 . S
C3021 C3022 1.392 . S
C3021 C3025 1.495 . S
C3022 C3021 1.392 . S
C3022 C3023 1.385 . S
C3022 C3024 1.478 . S
C3023 H3017 0.930 . S
C3023 C3019 1.400 1_545 S
C3023 C3022 1.385 . S
C3024 C3022 1.478 . S
C3024 C3026 1.381 . S
C3024 C3030 1.383 . S
C3025 C3021 1.495 . S
C3025 H3031 0.959 . S
C3025 H3032 0.961 . S
C3025 H3033 0.960 . S
C3026 C3024 1.381 . S
C3026 C3027 1.394 . S
C3026 H3034 0.930 . S
C3027 C3026 1.394 . S
C3027 C3028 1.383 . S
C3027 H3035 0.929 . S
C3028 C3027 1.383 . S
C3028 C3029 1.377 . S
C3029 H3013 0.930 . S
C3029 C3028 1.377 . S
C3029 C3030 1.379 . S
C3030 H3014 0.931 . S
C3030 C3024 1.383 . S
C3030 C3029 1.379 . S
H3031 C3025 0.959 . S
H3032 C3025 0.961 . S
H3033 C3025 0.960 . S
H3034 C3026 0.930 . S
H3035 C3027 0.929 . S
H3036 C3044 0.929 . S
H3037 C3046 0.930 . S
H3038 C3048 0.930 . S
H3039 C3051 0.929 . S
H3040 C3054 0.930 . S
H3041 C3056 0.960 . S
H3042 C3056 0.960 . S
H3043 C3056 0.960 . S
C3044 H3036 0.929 . S
C3044 C3045 1.377 . S
C3044 C3046 1.384 . S
C3045 C3044 1.377 . S
C3045 C3051 1.390 . S
C3046 H3037 0.930 . S
C3046 C3044 1.384 . S
C3046 C3047 1.372 . S
C3047 C3046 1.372 . S
C3047 C3048 1.400 . S
C3047 C3052 1.490 . S
C3048 H3038 0.930 . S
C3048 C3047 1.400 . S
C3048 C3051 1.386 . S
H3049 C3065 0.930 . S
H3050 C3066 0.931 . S
C3051 H3039 0.929 . S
C3051 C3045 1.390 . S
C3051 C3048 1.386 . S
C3052 C3047 1.490 . S
C3052 C3054 1.395 . S
C3052 C3055 1.403 . S
H3053 C3059 0.930 . S
C3054 H3040 0.930 . S
C3054 C3052 1.395 . S
C3054 C3057 1.403 . S
C3055 C3052 1.403 . S
C3055 C3056 1.524 . S
C3055 C3059 1.400 . S
C3056 H3041 0.960 . S
C3056 H3042 0.960 . S
C3056 H3043 0.960 . S
C3056 C3055 1.524 . S
C3057 C3054 1.403 . S
C3057 C3058 1.392 . S
C3057 C3061 1.495 . S
C3058 C3057 1.392 . S
C3058 C3059 1.385 . S
C3058 C3060 1.478 . S
C3059 H3053 0.930 . S
C3059 C3055 1.400 . S
C3059 C3058 1.385 . S
C3060 C3058 1.478 . S
C3060 C3062 1.381 . S
C3060 C3066 1.383 . S
C3061 C3057 1.495 . S
C3061 H3067 0.959 . S
C3061 H3068 0.961 . S
C3061 H3069 0.960 . S
C3062 C3060 1.381 . S
C3062 C3063 1.394 . S
C3062 H3070 0.930 . S
C3063 C3062 1.394 . S
C3063 C3064 1.383 . S
C3063 H3071 0.929 . S
C3064 C3063 1.383 . S
C3064 C3065 1.377 . S
C3065 H3049 0.930 . S
C3065 C3064 1.377 . S
C3065 C3066 1.379 . S
C3066 H3050 0.931 . S
C3066 C3060 1.383 . S
C3066 C3065 1.379 . S
H3067 C3061 0.959 . S
H3068 C3061 0.961 . S
H3069 C3061 0.960 . S
H3070 C3062 0.930 . S
H3071 C3063 0.929 . S
C1353 C307 1.817 . S
C1372 C70 1.827 . S
C1389 C55 1.809 . S
C1408 C154 1.821 . S
C1425 C226 1.730 . S
C1444 C139 1.855 . S
C1461 C224 1.909 . S
C1480 C322 1.828 . S
C1497 C406 1.810 . S
C1516 C475 1.802 . S
C1533 C490 1.831 . S
C1552 C560 1.873 . S
C1569 C562 1.744 . S
C1588 C643 1.804 . S
C1605 C391 1.816 . S
C1624 C658 1.773 . S
C1641 C730 1.802 . S
C1660 C991 1.788 . S
C1677 C739 1.819 . S
C1696 C814 1.821 . S
C1713 C823 1.840 . S
C1732 C910 1.740 . S
C1749 C908 1.905 . S
C1768 C982 1.852 . S
C1785 C1066 1.802 . S
C1804 C1159 1.851 . S
C1821 C1244 1.905 . S
C1840 C1150 1.852 . S
C1857 C1327 1.841 . S
C1876 C1246 1.749 . S
C1893 C1318 1.791 . S
C1912 C1075 1.844 . S
C1929 C68 1.928 . S
C1948 C404 1.930 . S
C1965 C488 1.991 . S
C1984 C152 1.986 . S
C2001 C235 1.897 . S
C2020 C571 1.876 . S
C2037 C320 1.985 . S
C2056 C656 1.971 . S
C2073 C1064 1.928 . S
C2092 C728 1.906 . S
C2109 C1148 1.986 . S
C2128 C812 1.996 . S
C2145 C895 1.898 . S
C2164 C1231 1.914 . S
C2181 C1316 1.984 . S
C2200 C980 1.991 . S
C2217 C58 0.803 . S
C2236 C238 0.856 . S
C2253 C142 0.833 . S
C2272 C310 0.862 . S
C2289 C574 0.790 . S
C2308 C394 0.817 . S
C2325 C646 0.814 . S
C2344 C478 0.751 . S
C2361 C898 0.795 . S
C2380 C742 0.858 . S
C2397 C994 0.817 . S
C2416 C826 0.830 . S
C2433 C1078 0.776 . S
C2452 C1234 0.803 . S
C2469 C1162 0.811 . S
C2488 C1330 0.858 . S
C2505 C740 1.231 . S
C2524 C56 1.230 . S
C2541 C824 1.242 . S
C2560 C140 1.236 . S
C2577 C907 1.201 . S
C2596 C223 1.216 . S
C2613 C308 1.235 . S
C2632 C992 1.241 . S
C2649 C1076 1.227 . S
C2668 C392 1.215 . S
C2685 C1160 1.234 . S
C2704 C476 1.226 . S
C2721 C1243 1.204 . S
C2740 C559 1.211 . S
C2757 C1328 1.246 . S
C2776 C644 1.250 . S
C2793 C655 0.753 . S
C2812 C67 0.730 . S
C2829 C403 0.753 . S
C2848 C151 0.713 . S
C2865 C487 0.738 . S
C2884 C236 0.678 . S
C2901 C572 0.729 . S
C2920 C319 0.751 . S
C2937 C1315 0.739 . S
C2956 C727 0.793 . S
C2973 C1063 0.744 . S
C2992 C811 0.694 . S
C3009 C1147 0.750 . S
C3028 C896 0.695 . S
C3045 C979 0.741 . S
C3064 C1232 0.715 . S
