# Generated by pormake.
# Topology gsi, (4)-cn, num edge types: 1
# Building blocks:
#     Node 0, Type 0, BuildingBlock: GALJAG_clean_sbu_0, # of connection points: 4
#     Node 1, Type 0, BuildingBlock: GALJAG_clean_sbu_0, # of connection points: 4
#     Node 2, Type 0, BuildingBlock: GALJAG_clean_sbu_0, # of connection points: 4
#     Node 3, Type 0, BuildingBlock: GALJAG_clean_sbu_0, # of connection points: 4
#     Node 4, Type 0, BuildingBlock: GALJAG_clean_sbu_0, # of connection points: 4
#     Node 5, Type 0, BuildingBlock: GALJAG_clean_sbu_0, # of connection points: 4
#     Node 6, Type 0, BuildingBlock: GALJAG_clean_sbu_0, # of connection points: 4
#     Node 7, Type 0, BuildingBlock: GALJAG_clean_sbu_0, # of connection points: 4
#     Node 8, Type 0, BuildingBlock: GALJAG_clean_sbu_0, # of connection points: 4
#     Node 9, Type 0, BuildingBlock: GALJAG_clean_sbu_0, # of connection points: 4
#     Node 10, Type 0, BuildingBlock: GALJAG_clean_sbu_0, # of connection points: 4
#     Node 11, Type 0, BuildingBlock: GALJAG_clean_sbu_0, # of connection points: 4
#     Node 12, Type 0, BuildingBlock: GALJAG_clean_sbu_0, # of connection points: 4
#     Node 13, Type 0, BuildingBlock: GALJAG_clean_sbu_0, # of connection points: 4
#     Node 14, Type 0, BuildingBlock: GALJAG_clean_sbu_0, # of connection points: 4
#     Node 15, Type 0, BuildingBlock: GALJAG_clean_sbu_0, # of connection points: 4
#     Edge 16, Type (0, 0), BuildingBlock: XUDNAN_clean_linker_2, # of connection points: 2
#     Edge 17, Type (0, 0), BuildingBlock: XUDNAN_clean_linker_2, # of connection points: 2
#     Edge 18, Type (0, 0), BuildingBlock: XUDNAN_clean_linker_2, # of connection points: 2
#     Edge 19, Type (0, 0), BuildingBlock: XUDNAN_clean_linker_2, # of connection points: 2
#     Edge 20, Type (0, 0), BuildingBlock: XUDNAN_clean_linker_2, # of connection points: 2
#     Edge 21, Type (0, 0), BuildingBlock: XUDNAN_clean_linker_2, # of connection points: 2
#     Edge 22, Type (0, 0), BuildingBlock: XUDNAN_clean_linker_2, # of connection points: 2
#     Edge 23, Type (0, 0), BuildingBlock: XUDNAN_clean_linker_2, # of connection points: 2
#     Edge 24, Type (0, 0), BuildingBlock: XUDNAN_clean_linker_2, # of connection points: 2
#     Edge 25, Type (0, 0), BuildingBlock: XUDNAN_clean_linker_2, # of connection points: 2
#     Edge 26, Type (0, 0), BuildingBlock: XUDNAN_clean_linker_2, # of connection points: 2
#     Edge 27, Type (0, 0), BuildingBlock: XUDNAN_clean_linker_2, # of connection points: 2
#     Edge 28, Type (0, 0), BuildingBlock: XUDNAN_clean_linker_2, # of connection points: 2
#     Edge 29, Type (0, 0), BuildingBlock: XUDNAN_clean_linker_2, # of connection points: 2
#     Edge 30, Type (0, 0), BuildingBlock: XUDNAN_clean_linker_2, # of connection points: 2
#     Edge 31, Type (0, 0), BuildingBlock: XUDNAN_clean_linker_2, # of connection points: 2
#     Edge 32, Type (0, 0), BuildingBlock: XUDNAN_clean_linker_2, # of connection points: 2
#     Edge 33, Type (0, 0), BuildingBlock: XUDNAN_clean_linker_2, # of connection points: 2
#     Edge 34, Type (0, 0), BuildingBlock: XUDNAN_clean_linker_2, # of connection points: 2
#     Edge 35, Type (0, 0), BuildingBlock: XUDNAN_clean_linker_2, # of connection points: 2
#     Edge 36, Type (0, 0), BuildingBlock: XUDNAN_clean_linker_2, # of connection points: 2
#     Edge 37, Type (0, 0), BuildingBlock: XUDNAN_clean_linker_2, # of connection points: 2
#     Edge 38, Type (0, 0), BuildingBlock: XUDNAN_clean_linker_2, # of connection points: 2
#     Edge 39, Type (0, 0), BuildingBlock: XUDNAN_clean_linker_2, # of connection points: 2
#     Edge 40, Type (0, 0), BuildingBlock: XUDNAN_clean_linker_2, # of connection points: 2
#     Edge 41, Type (0, 0), BuildingBlock: XUDNAN_clean_linker_2, # of connection points: 2
#     Edge 42, Type (0, 0), BuildingBlock: XUDNAN_clean_linker_2, # of connection points: 2
#     Edge 43, Type (0, 0), BuildingBlock: XUDNAN_clean_linker_2, # of connection points: 2
#     Edge 44, Type (0, 0), BuildingBlock: XUDNAN_clean_linker_2, # of connection points: 2
#     Edge 45, Type (0, 0), BuildingBlock: XUDNAN_clean_linker_2, # of connection points: 2
#     Edge 46, Type (0, 0), BuildingBlock: XUDNAN_clean_linker_2, # of connection points: 2
#     Edge 47, Type (0, 0), BuildingBlock: XUDNAN_clean_linker_2, # of connection points: 2
# Relax obj value: 0.227
# Max RMSD: 0.210
# Mean RMSD: 0.172
data_MOF--net-gsi--node1-GALJAG_clean_sbu_0--edge1-XUDNAN_clean_linker_2
_symmetry_space_group_name_H-M    P1
_symmetry_Int_Tables_number       1
_symmetry_cell_setting            triclinic
loop_
_symmetry_equiv_pos_as_xyz
'x, y, z'
_cell_length_a     40.583975
_cell_length_b     39.518421
_cell_length_c     44.671844
_cell_angle_alpha  89.953212
_cell_angle_beta   90.067274
_cell_angle_gamma 104.96035
loop_
_atom_site_label
_atom_site_type_symbol
_atom_site_fract_x
_atom_site_fract_y
_atom_site_fract_z
_atom_type_partial_charge
In0 In 0.14404 0.14962 0.13876 0.0
O1 O 0.18371 0.162 0.10135 0.0
O2 O 0.13567 0.12607 0.09209 0.0
C3 C 0.17922 0.17659 0.1879 0.0
C4 C 0.10376 0.19365 0.12975 0.0
C5 C 0.13557 0.08421 0.16034 0.0
O6 O 0.19345 0.17857 0.16251 0.0
O7 O 0.14764 0.16235 0.1879 0.0
O8 O 0.11303 0.10081 0.16415 0.0
O9 O 0.16061 0.09979 0.14453 0.0
C10 C 0.16506 0.14165 0.08262 0.0
O11 O 0.0913 0.16094 0.1328 0.0
O12 O 0.13588 0.20337 0.13076 0.0
In13 In 0.87551 0.35115 0.13996 0.0
O14 O 0.93374 0.36091 0.13711 0.0
O15 O 0.90264 0.31061 0.12502 0.0
C16 C 0.85998 0.40242 0.17248 0.0
C17 C 0.85373 0.3645 0.08518 0.0
C18 C 0.84733 0.30347 0.18144 0.0
O19 O 0.89066 0.4009 0.16957 0.0
O20 O 0.8385 0.37937 0.15819 0.0
O21 O 0.83293 0.30514 0.15652 0.0
O22 O 0.87609 0.32493 0.18471 0.0
C23 C 0.93239 0.32994 0.1287 0.0
O24 O 0.84111 0.33624 0.09909 0.0
O25 O 0.8782 0.38543 0.09845 0.0
In26 In 0.17871 0.86572 0.34923 0.0
O27 O 0.12933 0.8261 0.33694 0.0
O28 O 0.13072 0.8526 0.3785 0.0
C29 C 0.21598 0.8244 0.32657 0.0
C30 C 0.17441 0.91393 0.3068 0.0
C31 C 0.21287 0.88134 0.40156 0.0
O32 O 0.18387 0.81474 0.32812 0.0
O33 O 0.22919 0.85473 0.33652 0.0
O34 O 0.21441 0.90417 0.38134 0.0
O35 O 0.19334 0.85174 0.39565 0.0
C36 C 0.11384 0.82992 0.36063 0.0
O37 O 0.16155 0.91446 0.33249 0.0
O38 O 0.19019 0.8907 0.30359 0.0
In39 In 0.82122 0.63502 0.3457 0.0
O40 O 0.87209 0.67258 0.33564 0.0
O41 O 0.86693 0.64815 0.37833 0.0
C42 C 0.8016 0.67744 0.30568 0.0
C43 C 0.81885 0.57374 0.31776 0.0
C44 C 0.78002 0.62556 0.39432 0.0
O45 O 0.78857 0.67213 0.33142 0.0
O46 O 0.82351 0.6609 0.3002 0.0
O47 O 0.77959 0.60151 0.37561 0.0
O48 O 0.80157 0.65415 0.38878 0.0
C49 C 0.88569 0.66943 0.36043 0.0
O50 O 0.7944 0.58797 0.31784 0.0
O51 O 0.8443 0.58948 0.33315 0.0
In52 In 0.36262 0.84503 0.63839 0.0
O53 O 0.4178 0.83903 0.6351 0.0
O54 O 0.3762 0.79679 0.62158 0.0
C55 C 0.35639 0.90385 0.66541 0.0
C56 C 0.34116 0.85876 0.58377 0.0
C57 C 0.33287 0.80658 0.68509 0.0
O58 O 0.3854 0.89732 0.66344 0.0
O59 O 0.33226 0.88169 0.65301 0.0
O60 O 0.31782 0.80552 0.6601 0.0
O61 O 0.36289 0.82604 0.68587 0.0
C62 C 0.40797 0.80779 0.62548 0.0
O63 O 0.32433 0.83419 0.60017 0.0
O64 O 0.36953 0.87567 0.59454 0.0
In65 In 0.87047 0.85612 0.86908 0.0
O66 O 0.90533 0.90548 0.84759 0.0
O67 O 0.85164 0.89552 0.84173 0.0
C68 C 0.91236 0.81645 0.88677 0.0
C69 C 0.84383 0.87491 0.92 0.0
C70 C 0.83879 0.81458 0.8246 0.0
O71 O 0.92375 0.84658 0.87548 0.0
O72 O 0.88045 0.80743 0.89017 0.0
O73 O 0.82322 0.81956 0.84803 0.0
O74 O 0.87019 0.82982 0.82417 0.0
C75 C 0.88075 0.91484 0.83565 0.0
O76 O 0.82737 0.85117 0.9028 0.0
O77 O 0.87409 0.88887 0.91182 0.0
In78 In 0.13411 0.64787 0.88071 0.0
O79 O 0.17114 0.66209 0.91978 0.0
O80 O 0.12629 0.62091 0.92656 0.0
C81 C 0.18157 0.6899 0.84591 0.0
C82 C 0.13387 0.58812 0.85051 0.0
C83 C 0.08001 0.67591 0.88761 0.0
O84 O 0.18587 0.68638 0.87362 0.0
O85 O 0.15294 0.67302 0.83598 0.0
O86 O 0.07691 0.6433 0.88754 0.0
O87 O 0.11015 0.69416 0.88424 0.0
C88 C 0.15409 0.63908 0.9373 0.0
O89 O 0.11685 0.60883 0.84175 0.0
O90 O 0.14914 0.59659 0.87499 0.0
In91 In 0.83928 0.14539 0.66116 0.0
O92 O 0.88095 0.196 0.66044 0.0
O93 O 0.88387 0.15721 0.62817 0.0
C94 C 0.80852 0.16821 0.70749 0.0
C95 C 0.79496 0.1441 0.61535 0.0
C96 C 0.8595 0.09321 0.68915 0.0
O97 O 0.83536 0.18651 0.69549 0.0
O98 O 0.79749 0.13798 0.6965 0.0
O99 O 0.83046 0.08812 0.67707 0.0
O100 O 0.87822 0.12379 0.6861 0.0
C101 C 0.89718 0.18722 0.63899 0.0
O102 O 0.81025 0.12016 0.61839 0.0
O103 O 0.80231 0.16768 0.63494 0.0
In104 In 0.18708 0.38407 0.65236 0.0
O105 O 0.23429 0.41972 0.62948 0.0
O106 O 0.19306 0.39355 0.60205 0.0
C107 C 0.18286 0.42966 0.69679 0.0
C108 C 0.1256 0.34374 0.63525 0.0
C109 C 0.21729 0.33727 0.67673 0.0
O110 O 0.17102 0.43236 0.67095 0.0
O111 O 0.19747 0.40534 0.69936 0.0
O112 O 0.18791 0.33921 0.68431 0.0
O113 O 0.23136 0.35881 0.65683 0.0
C114 C 0.22315 0.41255 0.60324 0.0
O115 O 0.15318 0.33569 0.63039 0.0
O116 O 0.12881 0.37253 0.64869 0.0
In117 In 0.64257 0.14602 0.3732 0.0
O118 O 0.60746 0.10522 0.34297 0.0
O119 O 0.65459 0.09605 0.35596 0.0
C120 C 0.58902 0.17399 0.38149 0.0
C121 C 0.6643 0.14461 0.43038 0.0
C122 C 0.69348 0.18433 0.33893 0.0
O123 O 0.61516 0.1892 0.36672 0.0
O124 O 0.58948 0.14419 0.39159 0.0
O125 O 0.69834 0.17419 0.3649 0.0
O126 O 0.66278 0.17627 0.33061 0.0
C127 C 0.62795 0.08623 0.34037 0.0
O128 O 0.66101 0.17195 0.41752 0.0
O129 O 0.65623 0.11721 0.41455 0.0
In130 In 0.63536 0.64515 0.63682 0.0
O131 O 0.5778 0.63945 0.63099 0.0
O132 O 0.61019 0.69074 0.63432 0.0
C133 C 0.63742 0.58581 0.66693 0.0
C134 C 0.65252 0.63694 0.57934 0.0
C135 C 0.68446 0.68754 0.66984 0.0
O136 O 0.65263 0.59523 0.6426 0.0
O137 O 0.61933 0.60546 0.67579 0.0
O138 O 0.68871 0.68068 0.64277 0.0
O139 O 0.65509 0.67374 0.68006 0.0
C140 C 0.58023 0.67196 0.63116 0.0
O141 O 0.66761 0.66278 0.59515 0.0
O142 O 0.62788 0.61576 0.5922 0.0
In143 In 0.67916 0.36596 0.85598 0.0
O144 O 0.62405 0.34174 0.84309 0.0
O145 O 0.63493 0.35044 0.88938 0.0
C146 C 0.70181 0.31455 0.83004 0.0
C147 C 0.68063 0.41719 0.81509 0.0
C148 C 0.71887 0.38085 0.90558 0.0
O149 O 0.67174 0.31003 0.83943 0.0
O150 O 0.72056 0.34517 0.83347 0.0
O151 O 0.71575 0.40462 0.88766 0.0
O152 O 0.70165 0.35062 0.89867 0.0
C153 C 0.61291 0.33827 0.86954 0.0
O154 O 0.66541 0.41642 0.83987 0.0
O155 O 0.69601 0.3935 0.812 0.0
In156 In 0.32511 0.13648 0.84394 0.0
O157 O 0.37138 0.18197 0.83934 0.0
O158 O 0.3735 0.14479 0.87323 0.0
C159 C 0.30486 0.17619 0.80207 0.0
C160 C 0.32285 0.07738 0.81238 0.0
C161 C 0.28567 0.12779 0.89386 0.0
O162 O 0.28887 0.16826 0.82639 0.0
O163 O 0.33042 0.16401 0.79915 0.0
O164 O 0.28587 0.10299 0.87614 0.0
O165 O 0.30547 0.15678 0.88658 0.0
C166 C 0.38824 0.17306 0.86018 0.0
O167 O 0.34886 0.0925 0.82743 0.0
O168 O 0.29801 0.09079 0.81502 0.0
In169 In 0.3701 0.34417 0.3775 0.0
O170 O 0.32918 0.34836 0.41107 0.0
O171 O 0.37797 0.38364 0.4165 0.0
C172 C 0.32957 0.28879 0.34947 0.0
C173 C 0.37056 0.39166 0.33365 0.0
C174 C 0.42012 0.31294 0.3925 0.0
O175 O 0.32169 0.2996 0.37444 0.0
O176 O 0.35836 0.30513 0.33943 0.0
O177 O 0.42435 0.33652 0.37271 0.0
O178 O 0.39168 0.30675 0.40554 0.0
C179 C 0.34768 0.37325 0.42588 0.0
O180 O 0.39532 0.3955 0.35169 0.0
O181 O 0.3463 0.36524 0.33845 0.0
In182 In 0.33272 0.62841 0.16334 0.0
O183 O 0.37283 0.67658 0.1481 0.0
O184 O 0.38433 0.62736 0.14324 0.0
C185 C 0.31488 0.66957 0.20527 0.0
C186 C 0.28656 0.62062 0.11814 0.0
C187 C 0.3406 0.57054 0.19208 0.0
O188 O 0.34533 0.67075 0.19885 0.0
O189 O 0.29293 0.64725 0.19064 0.0
O190 O 0.33169 0.57007 0.16496 0.0
O191 O 0.34502 0.59988 0.20464 0.0
C192 C 0.39433 0.66023 0.14041 0.0
O193 O 0.28049 0.60326 0.14214 0.0
O194 O 0.3159 0.64131 0.11682 0.0
In195 In 0.67659 0.87361 0.1495 0.0
O196 O 0.71855 0.91213 0.12277 0.0
O197 O 0.68442 0.8715 0.09903 0.0
C198 C 0.66099 0.9241 0.18374 0.0
C199 C 0.62016 0.82189 0.13715 0.0
C200 C 0.7143 0.84024 0.18219 0.0
O201 O 0.64655 0.91435 0.15905 0.0
O202 O 0.68409 0.90944 0.19056 0.0
O203 O 0.68448 0.84087 0.18972 0.0
O204 O 0.72521 0.85704 0.15864 0.0
C205 C 0.71054 0.89687 0.09802 0.0
O206 O 0.64923 0.81657 0.14049 0.0
O207 O 0.61939 0.85345 0.13996 0.0
H208 H 0.24664 0.21206 0.19492 0.0
H209 H 0.15353 0.16724 0.24435 0.0
H210 H 0.18376 0.18584 0.29178 0.0
H211 H 0.30552 0.19024 0.2493 0.0
H212 H 0.33759 0.2308 0.24369 0.0
H213 H 0.30933 0.21196 0.21349 0.0
H214 H 0.29069 0.26969 0.20806 0.0
H215 H 0.3191 0.28876 0.23801 0.0
H216 H 0.27449 0.28759 0.2403 0.0
H217 H 0.22268 0.21232 0.33354 0.0
H218 H 0.26746 0.24753 0.3666 0.0
H219 H 0.33549 0.27427 0.29039 0.0
C220 C 0.23274 0.20598 0.21575 0.0
C221 C 0.19779 0.18824 0.21599 0.0
C222 C 0.18034 0.18092 0.24365 0.0
C223 C 0.19731 0.19116 0.27074 0.0
C224 C 0.23175 0.20862 0.2698 0.0
C225 C 0.2493 0.2161 0.24306 0.0
C226 C 0.28575 0.23691 0.24828 0.0
C227 C 0.31104 0.21623 0.23809 0.0
C228 C 0.29291 0.27286 0.23275 0.0
C229 C 0.28568 0.24047 0.28203 0.0
C230 C 0.25438 0.22369 0.29404 0.0
C231 C 0.24748 0.2252 0.3245 0.0
C232 C 0.27303 0.24518 0.3431 0.0
C233 C 0.30496 0.26327 0.33108 0.0
C234 C 0.31153 0.26015 0.3003 0.0
H235 H 0.77962 0.26973 0.18705 0.0
H236 H 0.87719 0.28848 0.23257 0.0
H237 H 0.84844 0.25833 0.27747 0.0
H238 H 0.73341 0.28679 0.24868 0.0
H239 H 0.69492 0.25342 0.24049 0.0
H240 H 0.72323 0.27287 0.2106 0.0
H241 H 0.72808 0.21154 0.19391 0.0
H242 H 0.69934 0.19181 0.22349 0.0
H243 H 0.74073 0.18319 0.22076 0.0
H244 H 0.80901 0.23044 0.3185 0.0
H245 H 0.76137 0.20376 0.35243 0.0
H246 H 0.68929 0.20411 0.2806 0.0
C247 C 0.79498 0.26666 0.2062 0.0
C248 C 0.83061 0.28114 0.20635 0.0
C249 C 0.84984 0.27738 0.23202 0.0
C250 C 0.83376 0.26036 0.25762 0.0
C251 C 0.79846 0.2473 0.25712 0.0
C252 C 0.77929 0.24996 0.23204 0.0
C253 C 0.74156 0.23538 0.23799 0.0
C254 C 0.72215 0.26382 0.23422 0.0
C255 C 0.72655 0.20359 0.21784 0.0
C256 C 0.74254 0.22462 0.27043 0.0
C257 C 0.77562 0.23159 0.28099 0.0
C258 C 0.78299 0.2246 0.31046 0.0
C259 C 0.75579 0.20962 0.32958 0.0
C260 C 0.72172 0.20197 0.31913 0.0
C261 C 0.7151 0.20976 0.28921 0.0
H262 H 0.25106 0.6744 0.22173 0.0
H263 H 0.35895 0.71885 0.23859 0.0
H264 H 0.34504 0.7611 0.27382 0.0
H265 H 0.22751 0.75438 0.22197 0.0
H266 H 0.18717 0.73724 0.24043 0.0
H267 H 0.20535 0.70877 0.21809 0.0
H268 H 0.20221 0.66706 0.26341 0.0
H269 H 0.18394 0.69542 0.2859 0.0
H270 H 0.22205 0.68417 0.29829 0.0
H271 H 0.32001 0.80099 0.30426 0.0
H272 H 0.28505 0.8355 0.32897 0.0
H273 H 0.19329 0.76473 0.29332 0.0
C274 C 0.27169 0.69275 0.23314 0.0
C275 C 0.30606 0.69335 0.22751 0.0
C276 C 0.33242 0.71791 0.24264 0.0
C277 C 0.3248 0.74198 0.26271 0.0
C278 C 0.29069 0.74099 0.26753 0.0
C279 C 0.26453 0.71695 0.25333 0.0
C280 C 0.23011 0.72244 0.26167 0.0
C281 C 0.21145 0.73124 0.23389 0.0
C282 C 0.2083 0.69036 0.27832 0.0
C283 C 0.24112 0.7537 0.28233 0.0
C284 C 0.27617 0.76388 0.28547 0.0
C285 C 0.29251 0.79307 0.30228 0.0
C286 C 0.27247 0.81253 0.31615 0.0
C287 C 0.23653 0.80261 0.31316 0.0
C288 C 0.22071 0.77262 0.29627 0.0
H289 H 0.74953 0.71021 0.3081 0.0
H290 H 0.83592 0.70094 0.25446 0.0
H291 H 0.82446 0.74384 0.21853 0.0
H292 H 0.695 0.71612 0.24603 0.0
H293 H 0.67591 0.74722 0.26399 0.0
H294 H 0.69166 0.71675 0.28626 0.0
H295 H 0.72992 0.76844 0.31605 0.0
H296 H 0.71443 0.7991 0.29373 0.0
H297 H 0.75959 0.803 0.29622 0.0
H298 H 0.80429 0.78762 0.18866 0.0
H299 H 0.77363 0.82654 0.16427 0.0
H300 H 0.69891 0.8062 0.23594 0.0
C301 C 0.76601 0.71731 0.28881 0.0
C302 C 0.79365 0.70239 0.28406 0.0
C303 C 0.81456 0.71205 0.25848 0.0
C304 C 0.80838 0.7365 0.23802 0.0
C305 C 0.78106 0.75087 0.24336 0.0
C306 C 0.75999 0.74148 0.26793 0.0
C307 C 0.73159 0.75996 0.26767 0.0
C308 C 0.69647 0.73343 0.26587 0.0
C309 C 0.73405 0.78406 0.29505 0.0
C310 C 0.73993 0.78096 0.23902 0.0
C311 C 0.76882 0.77562 0.22559 0.0
C312 C 0.78162 0.79204 0.19891 0.0
C313 C 0.76409 0.81415 0.18529 0.0
C314 C 0.73394 0.81931 0.19823 0.0
C315 C 0.72193 0.80273 0.22558 0.0
H316 H 0.26711 0.76602 0.69094 0.0
H317 H 0.36075 0.80804 0.74064 0.0
H318 H 0.33201 0.78309 0.78723 0.0
H319 H 0.21041 0.78229 0.74636 0.0
H320 H 0.17777 0.74239 0.73975 0.0
H321 H 0.20591 0.76221 0.70984 0.0
H322 H 0.22365 0.70435 0.70203 0.0
H323 H 0.1953 0.68423 0.73173 0.0
H324 H 0.23977 0.6846 0.73332 0.0
H325 H 0.29286 0.75598 0.82864 0.0
H326 H 0.24627 0.725 0.86198 0.0
H327 H 0.17817 0.70017 0.78552 0.0
C328 C 0.28163 0.76959 0.71158 0.0
C329 C 0.31614 0.78889 0.71221 0.0
C330 C 0.33428 0.79324 0.73965 0.0
C331 C 0.31819 0.77926 0.76624 0.0
C332 C 0.284 0.7609 0.76498 0.0
C333 C 0.26597 0.75571 0.73837 0.0
C334 C 0.22937 0.73519 0.74334 0.0
C335 C 0.2044 0.75682 0.73429 0.0
C336 C 0.22158 0.7 0.72662 0.0
C337 C 0.22964 0.72995 0.77691 0.0
C338 C 0.2614 0.74505 0.78894 0.0
C339 C 0.26789 0.7439 0.8195 0.0
C340 C 0.24128 0.72638 0.83825 0.0
C341 C 0.20869 0.71027 0.82631 0.0
C342 C 0.20283 0.71233 0.79527 0.0
H343 H 0.68067 0.70772 0.72805 0.0
H344 H 0.75104 0.71381 0.65391 0.0
H345 H 0.79844 0.7457 0.68605 0.0
H346 H 0.71931 0.79382 0.75793 0.0
H347 H 0.71177 0.78005 0.79635 0.0
H348 H 0.68343 0.75786 0.76739 0.0
H349 H 0.69393 0.6987 0.78418 0.0
H350 H 0.72254 0.72075 0.81303 0.0
H351 H 0.73694 0.6941 0.78584 0.0
H352 H 0.83815 0.77551 0.72626 0.0
H353 H 0.86739 0.80486 0.77124 0.0
H354 H 0.77109 0.78016 0.81915 0.0
C355 C 0.70603 0.71594 0.71855 0.0
C356 C 0.71227 0.70835 0.68853 0.0
C357 C 0.74575 0.71948 0.67686 0.0
C358 C 0.77282 0.73747 0.69494 0.0
C359 C 0.76588 0.74418 0.72455 0.0
C360 C 0.73331 0.73405 0.73624 0.0
C361 C 0.73274 0.74486 0.76871 0.0
C362 C 0.7105 0.77069 0.77282 0.0
C363 C 0.72084 0.71268 0.78914 0.0
C364 C 0.77013 0.76262 0.77344 0.0
C365 C 0.78879 0.76175 0.74772 0.0
C366 C 0.82383 0.77644 0.74653 0.0
C367 C 0.8402 0.79295 0.77221 0.0
C368 C 0.82147 0.79473 0.79864 0.0
C369 C 0.78604 0.77909 0.79928 0.0
H370 H 0.76281 0.31996 0.80198 0.0
H371 H 0.66769 0.24549 0.8258 0.0
H372 H 0.68694 0.19837 0.80058 0.0
H373 H 0.76863 0.2872 0.72953 0.0
H374 H 0.81436 0.29466 0.73012 0.0
H375 H 0.79436 0.32169 0.75235 0.0
H376 H 0.82364 0.30557 0.79995 0.0
H377 H 0.84369 0.27838 0.77784 0.0
H378 H 0.81793 0.26014 0.80968 0.0
H379 H 0.71501 0.16029 0.7702 0.0
H380 H 0.74908 0.13451 0.73533 0.0
H381 H 0.82554 0.23406 0.73122 0.0
C382 C 0.74624 0.29364 0.80222 0.0
C383 C 0.71385 0.28626 0.81591 0.0
C384 C 0.69266 0.25164 0.81545 0.0
C385 C 0.7034 0.2247 0.8013 0.0
C386 C 0.7354 0.23289 0.78778 0.0
C387 C 0.75649 0.26652 0.78809 0.0
C388 C 0.78874 0.26885 0.77036 0.0
C389 C 0.79167 0.29461 0.74403 0.0
C390 C 0.82037 0.27882 0.79068 0.0
C391 C 0.78219 0.23143 0.75956 0.0
C392 C 0.75147 0.211 0.7701 0.0
C393 C 0.73927 0.17592 0.76202 0.0
C394 C 0.75877 0.16152 0.74224 0.0
C395 C 0.78995 0.18227 0.73071 0.0
C396 C 0.80196 0.21748 0.73991 0.0
H397 H 0.19792 0.29776 0.72716 0.0
H398 H 0.27516 0.32112 0.65766 0.0
H399 H 0.30461 0.2806 0.6814 0.0
H400 H 0.25494 0.29468 0.78727 0.0
H401 H 0.22571 0.25943 0.80672 0.0
H402 H 0.20957 0.28872 0.7834 0.0
H403 H 0.17409 0.23589 0.75306 0.0
H404 H 0.19011 0.20641 0.77631 0.0
H405 H 0.19518 0.20569 0.73626 0.0
H406 H 0.32608 0.23879 0.7128 0.0
H407 H 0.33967 0.19944 0.75097 0.0
H408 H 0.24942 0.20421 0.80117 0.0
C409 C 0.22086 0.29406 0.71681 0.0
C410 C 0.23424 0.31235 0.69051 0.0
C411 C 0.26452 0.30727 0.6778 0.0
C412 C 0.28135 0.28428 0.69106 0.0
C413 C 0.26762 0.2668 0.71708 0.0
C414 C 0.23816 0.27146 0.72992 0.0
C415 C 0.22962 0.25054 0.7586 0.0
C416 C 0.23 0.2748 0.78559 0.0
C417 C 0.19521 0.223 0.75588 0.0
C418 C 0.259 0.23351 0.75993 0.0
C419 C 0.28044 0.24309 0.73562 0.0
C420 C 0.30948 0.23103 0.73191 0.0
C421 C 0.31695 0.20869 0.75372 0.0
C422 C 0.29559 0.19881 0.77901 0.0
C423 C 0.26617 0.21131 0.78205 0.0
H424 H 0.14044 0.96682 0.30527 0.0
H425 H 0.19729 0.91108 0.25021 0.0
H426 H 0.18772 0.94447 0.20618 0.0
H427 H 0.0774 0.97348 0.24867 0.0
H428 H 0.07643 0.01729 0.25903 0.0
H429 H 0.08623 0.98815 0.28675 0.0
H430 H 0.14303 0.03365 0.29916 0.0
H431 H 0.13314 0.06306 0.27181 0.0
H432 H 0.17275 0.05057 0.26944 0.0
H433 H 0.17449 0.98432 0.16845 0.0
H434 H 0.16196 0.03269 0.13955 0.0
H435 H 0.11291 0.06374 0.21727 0.0
C436 C 0.15083 0.96173 0.28393 0.0
C437 C 0.16957 0.93621 0.28125 0.0
C438 C 0.18287 0.93042 0.25293 0.0
C439 C 0.1774 0.94912 0.22766 0.0
C440 C 0.15858 0.9737 0.23087 0.0
C441 C 0.14572 0.98043 0.25824 0.0
C442 C 0.1278 0.00967 0.25538 0.0
C443 C 0.0897 0.99634 0.26291 0.0
C444 C 0.14523 0.0411 0.27511 0.0
C445 C 0.13305 0.01843 0.22227 0.0
C446 C 0.15061 0.997 0.20865 0.0
C447 C 0.16038 1.00104 0.17872 0.0
C448 C 0.15304 0.02847 0.16244 0.0
C449 C 0.13593 0.05142 0.17601 0.0
C450 C 0.12506 0.04583 0.20612 0.0
H451 H 0.89868 0.45183 0.21147 0.0
H452 H 0.79532 0.4079 0.17953 0.0
H453 H 0.77396 0.44435 0.21521 0.0
H454 H 0.87711 0.45769 0.28935 0.0
H455 H 0.90773 0.49905 0.29573 0.0
H456 H 0.91578 0.46955 0.26758 0.0
H457 H 0.92311 0.51831 0.22748 0.0
H458 H 0.9155 0.54806 0.25558 0.0
H459 H 0.88969 0.54021 0.22219 0.0
H460 H 0.763 0.4846 0.25376 0.0
H461 H 0.76367 0.53039 0.2913 0.0
H462 H 0.87355 0.5495 0.2995 0.0
C463 C 0.87163 0.45015 0.21189 0.0
C464 C 0.84871 0.42696 0.19266 0.0
C465 C 0.81345 0.42542 0.19396 0.0
C466 C 0.80096 0.44594 0.21427 0.0
C467 C 0.82399 0.46805 0.23321 0.0
C468 C 0.8586 0.47067 0.23213 0.0
C469 C 0.87762 0.49728 0.25481 0.0
C470 C 0.89562 0.47984 0.27826 0.0
C471 C 0.90298 0.52778 0.23907 0.0
C472 C 0.84823 0.5091 0.2686 0.0
C473 C 0.81756 0.49164 0.25582 0.0
C474 C 0.78682 0.49844 0.26404 0.0
C475 C 0.78745 0.52443 0.28543 0.0
C476 C 0.81858 0.54332 0.29843 0.0
C477 C 0.84931 0.5351 0.29026 0.0
H478 H 0.29155 0.17183 0.9421 0.0
H479 H 0.22952 0.07427 0.90581 0.0
H480 H 0.191 0.06815 0.94948 0.0
H481 H 0.28504 0.14343 0.01924 0.0
H482 H 0.28391 0.18566 0.03374 0.0
H483 H 0.30596 0.18275 0.99925 0.0
H484 H 0.26947 0.21843 0.9722 0.0
H485 H 0.24717 0.22129 0.00657 0.0
H486 H 0.2236 0.20337 0.97349 0.0
H487 H 0.15825 0.07372 0.99628 0.0
H488 H 0.13641 0.08762 0.0451 0.0
H489 H 0.22156 0.17984 0.05248 0.0
C490 C 0.26983 0.1492 0.94336 0.0
C491 C 0.26336 0.12359 0.92051 0.0
C492 C 0.23493 0.09416 0.92308 0.0
C493 C 0.21286 0.09054 0.94773 0.0
C494 C 0.21983 0.11636 0.96979 0.0
C495 C 0.24786 0.1449 0.96805 0.0
C496 C 0.25024 0.16827 0.9953 0.0
C497 C 0.28324 0.17012 0.01292 0.0
C498 C 0.24745 0.20501 0.98634 0.0
C499 C 0.21908 0.14852 0.0126 0.0
C500 C 0.20169 0.11886 0.99732 0.0
C501 C 0.17176 0.09676 0.00851 0.0
C502 C 0.15949 0.10495 0.03621 0.0
C503 C 0.17733 0.13474 0.05261 0.0
C504 C 0.20746 0.15682 0.04051 0.0
H505 H 0.80235 0.3229 0.05188 0.0
H506 H 0.8718 0.42671 0.05463 0.0
H507 H 0.8445 0.44313 0.00924 0.0
H508 H 0.80032 0.31392 0.97116 0.0
H509 H 0.75581 0.29071 0.97043 0.0
H510 H 0.78148 0.28737 1.00265 0.0
H511 H 0.73875 0.3081 0.03662 0.0
H512 H 0.71313 0.31183 1.00446 0.0
H513 H 0.72877 0.34907 0.02859 0.0
H514 H 0.80763 0.44861 0.96407 0.0
H515 H 0.767 0.44112 0.92153 0.0
H516 H 0.72289 0.33358 0.94883 0.0
C517 C 0.81203 0.349 0.04281 0.0
C518 C 0.83923 0.37352 0.05675 0.0
C519 C 0.85107 0.40745 0.04422 0.0
C520 C 0.83564 0.41706 0.01852 0.0
C521 C 0.80851 0.39239 1.00555 0.0
C522 C 0.79705 0.35895 0.01716 0.0
C523 C 0.76755 0.33724 0.99911 0.0
C524 C 0.77686 0.30544 0.985 0.0
C525 C 0.73514 0.32591 0.01835 0.0
C526 C 0.76407 0.36367 0.97559 0.0
C527 C 0.78776 0.39541 0.97966 0.0
C528 C 0.78906 0.4238 0.96064 0.0
C529 C 0.76584 0.4194 0.93663 0.0
C530 C 0.74185 0.38682 0.93187 0.0
C531 C 0.74096 0.35883 0.95182 0.0
H532 H 0.28394 0.82272 0.5539 0.0
H533 H 0.36715 0.91693 0.54928 0.0
H534 H 0.34209 0.93485 0.50325 0.0
H535 H 0.27763 0.80648 0.47451 0.0
H536 H 0.23184 0.79035 0.47511 0.0
H537 H 0.25643 0.78558 0.50767 0.0
H538 H 0.22058 0.81766 0.53962 0.0
H539 H 0.19614 0.82289 0.50706 0.0
H540 H 0.21774 0.86071 0.52857 0.0
H541 H 0.30676 0.94276 0.45776 0.0
H542 H 0.26703 0.93735 0.41477 0.0
H543 H 0.20808 0.83747 0.44937 0.0
C544 C 0.29698 0.84706 0.54316 0.0
C545 C 0.32749 0.86845 0.55517 0.0
C546 C 0.34381 0.90007 0.5404 0.0
C547 C 0.32967 0.91055 0.51433 0.0
C548 C 0.29929 0.88903 0.50327 0.0
C549 C 0.28337 0.85776 0.51708 0.0
C550 C 0.25145 0.8389 0.50039 0.0
C551 C 0.25454 0.80322 0.48872 0.0
C552 C 0.2196 0.83481 0.52009 0.0
C553 C 0.25184 0.86437 0.475 0.0
C554 C 0.27944 0.8933 0.4771 0.0
C555 C 0.28508 0.92019 0.45592 0.0
C556 C 0.26232 0.91702 0.43168 0.0
C557 C 0.23447 0.88706 0.42876 0.0
C558 C 0.22908 0.86075 0.451 0.0
H559 H 0.7066 0.67783 0.54843 0.0
H560 H 0.62661 0.58103 0.54249 0.0
H561 H 0.6501 0.56779 0.49411 0.0
H562 H 0.70994 0.69911 0.46891 0.0
H563 H 0.75562 0.71641 0.46896 0.0
H564 H 0.7315 0.7188 0.50236 0.0
H565 H 0.76917 0.68651 0.53197 0.0
H566 H 0.79322 0.68376 0.49863 0.0
H567 H 0.773 0.64451 0.51899 0.0
H568 H 0.68439 0.5636 0.44773 0.0
H569 H 0.72486 0.57045 0.40544 0.0
H570 H 0.78179 0.67047 0.44139 0.0
C571 C 0.69374 0.65406 0.53677 0.0
C572 C 0.66469 0.63049 0.54917 0.0
C573 C 0.6488 0.59953 0.53334 0.0
C574 C 0.66201 0.59175 0.50589 0.0
C575 C 0.69104 0.61527 0.49454 0.0
C576 C 0.70654 0.64594 0.50936 0.0
C577 C 0.73781 0.6665 0.49265 0.0
C578 C 0.73344 0.70233 0.48262 0.0
C579 C 0.77021 0.67055 0.5117 0.0
C580 C 0.73759 0.64255 0.46617 0.0
C581 C 0.7105 0.61306 0.46772 0.0
C582 C 0.70555 0.58671 0.44618 0.0
C583 C 0.72873 0.59076 0.42231 0.0
C584 C 0.75639 0.62101 0.42009 0.0
C585 C 0.76078 0.64714 0.44239 0.0
H586 H 0.93411 0.26138 0.12463 0.0
H587 H 0.99948 0.36726 0.12667 0.0
H588 H 0.0503 0.34362 0.12435 0.0
H589 H 0.98529 0.2245 0.17238 0.0
H590 H 0.97696 0.18317 0.15298 0.0
H591 H 0.94583 0.2084 0.15225 0.0
H592 H 0.94648 0.20798 0.09426 0.0
H593 H 0.97757 0.18266 0.0948 0.0
H594 H 0.98637 0.2236 0.07473 0.0
H595 H 0.09375 0.30841 0.12357 0.0
H596 H 0.12716 0.26456 0.12621 0.0
H597 H 0.03354 0.18109 0.12649 0.0
C598 C 0.95912 0.27964 0.12411 0.0
C599 C 0.9629 0.31623 0.12552 0.0
C600 C 0.99603 0.33919 0.12543 0.0
C601 C 0.02499 0.32598 0.12408 0.0
C602 C 0.02035 0.28975 0.12303 0.0
C603 C 0.98825 0.26688 0.12312 0.0
C604 C 0.99028 0.22906 0.12355 0.0
C605 C 0.97361 0.21019 0.15198 0.0
C606 C 0.97423 0.20969 0.09514 0.0
C607 C 0.0286 0.23417 0.12393 0.0
C608 C 0.04542 0.2694 0.12333 0.0
C609 C 0.08085 0.28079 0.12395 0.0
C610 C 0.0996 0.2556 0.12545 0.0
C611 C 0.083 0.21934 0.12654 0.0
C612 C 0.04697 0.20857 0.12558 0.0
H613 H 0.93482 0.70032 0.32093 0.0
H614 H 0.91425 0.68668 0.41602 0.0
H615 H 0.97056 0.7276 0.42699 0.0
H616 H 0.02487 0.70399 0.32542 0.0
H617 H 0.03594 0.73591 0.29581 0.0
H618 H 0.99455 0.70521 0.29617 0.0
H619 H 0.96608 0.75685 0.29411 0.0
H620 H 0.00737 0.78773 0.29416 0.0
H621 H 0.97642 0.79054 0.32233 0.0
H622 H 0.02788 0.7737 0.42675 0.0
H623 H 0.08387 0.81492 0.41567 0.0
H624 H 0.06665 0.79491 0.32077 0.0
C625 C 0.94227 0.70569 0.3441 0.0
C626 C 0.92031 0.69055 0.36768 0.0
C627 C 0.93092 0.69798 0.39768 0.0
C628 C 0.96269 0.7213 0.40407 0.0
C629 C 0.98348 0.73641 0.38016 0.0
C630 C 0.97386 0.72836 0.35079 0.0
C631 C 1.00074 0.74752 0.32904 0.0
C632 C 0.01486 0.72161 0.31053 0.0
C633 C 0.98681 0.77211 0.30872 0.0
C634 C 0.02704 0.76793 0.35067 0.0
C635 C 0.01658 0.76159 0.38006 0.0
C636 C 0.03642 0.77856 0.40384 0.0
C637 C 0.06801 0.80205 0.39735 0.0
C638 C 0.07948 0.80786 0.3674 0.0
C639 C 0.05857 0.79073 0.34388 0.0
H640 H 0.5775 0.73986 0.64115 0.0
H641 H 0.51596 0.63805 0.61288 0.0
H642 H 0.46662 0.66305 0.60577 0.0
H643 H 0.51143 0.76363 0.6831 0.0
H644 H 0.52457 0.8093 0.67296 0.0
H645 H 0.55552 0.78388 0.67453 0.0
H646 H 0.57297 0.80114 0.61974 0.0
H647 H 0.54192 0.82648 0.61795 0.0
H648 H 0.54088 0.79249 0.59081 0.0
H649 H 0.42423 0.69855 0.60177 0.0
H650 H 0.38956 0.74106 0.60466 0.0
H651 H 0.47736 0.8203 0.63727 0.0
C652 C 0.55366 0.72288 0.63334 0.0
C653 C 0.55057 0.68699 0.62741 0.0
C654 C 0.51889 0.66556 0.61755 0.0
C655 C 0.49078 0.67957 0.61333 0.0
C656 C 0.49468 0.71503 0.61928 0.0
C657 C 0.52519 0.73639 0.62933 0.0
C658 C 0.52199 0.77328 0.63527 0.0
C659 C 0.52877 0.78309 0.66844 0.0
C660 C 0.54586 0.79992 0.61471 0.0
C661 C 0.48485 0.76927 0.62712 0.0
C662 C 0.46981 0.73549 0.61766 0.0
C663 C 0.43572 0.72506 0.60915 0.0
C664 C 0.41624 0.74952 0.61085 0.0
C665 C 0.43068 0.78411 0.62119 0.0
C666 C 0.46563 0.79417 0.62911 0.0
H667 H 0.81884 0.03348 0.71429 0.0
H668 H 0.92391 0.0948 0.70749 0.0
H669 H 0.94135 0.05526 0.74355 0.0
H670 H 0.82013 0.01914 0.79215 0.0
H671 H 0.7931 0.9751 0.79101 0.0
H672 H 0.78917 0.00613 0.76258 0.0
H673 H 0.79925 0.96389 0.72127 0.0
H674 H 0.8028 0.93253 0.74959 0.0
H675 H 0.83674 0.94748 0.72292 0.0
H676 H 0.94697 0.01045 0.78231 0.0
H677 H 0.94013 0.96307 0.81998 0.0
H678 H 0.83124 0.93264 0.80255 0.0
C679 C 0.8456 0.03809 0.71991 0.0
C680 C 0.87008 0.06698 0.7079 0.0
C681 C 0.90476 0.07267 0.71632 0.0
C682 C 0.91492 0.05039 0.7368 0.0
C683 C 0.89006 0.02261 0.74881 0.0
C684 C 0.85613 0.0163 0.74059 0.0
C685 C 0.83426 0.9857 0.75788 0.0
C686 C 0.8076 0.99722 0.77704 0.0
C687 C 0.81727 0.95562 0.73665 0.0
C688 C 0.86111 0.97601 0.77724 0.0
C689 C 0.89318 0.99744 0.77159 0.0
C690 C 0.92197 0.99345 0.78688 0.0
C691 C 0.91787 0.96659 0.80829 0.0
C692 C 0.8852 0.94433 0.81432 0.0
C693 C 0.85655 0.94937 0.79861 0.0
H694 H 0.11827 0.57378 0.79088 0.0
H695 H 0.16316 0.5371 0.8687 0.0
H696 H 0.17969 0.49274 0.83762 0.0
H697 H 0.08613 0.48708 0.75531 0.0
H698 H 0.096 0.5041 0.71802 0.0
H699 H 0.08534 0.53146 0.74675 0.0
H700 H 0.14213 0.57806 0.73686 0.0
H701 H 0.15318 0.55068 0.70839 0.0
H702 H 0.18183 0.56572 0.73927 0.0
H703 H 0.19503 0.45558 0.7984 0.0
H704 H 0.2049 0.4239 0.7534 0.0
H705 H 0.15004 0.4832 0.69972 0.0
C706 C 0.13089 0.55586 0.80144 0.0
C707 C 0.13925 0.55873 0.83229 0.0
C708 C 0.15636 0.53529 0.84519 0.0
C709 C 0.16594 0.51005 0.8277 0.0
C710 C 0.15819 0.50848 0.79728 0.0
C711 C 0.14076 0.53042 0.7842 0.0
C712 C 0.13667 0.52366 0.75073 0.0
C713 C 0.09878 0.5108 0.74221 0.0
C714 C 0.15452 0.55649 0.73276 0.0
C715 C 0.15486 0.49478 0.7471 0.0
C716 C 0.16705 0.48662 0.77434 0.0
C717 C 0.18536 0.46148 0.77696 0.0
C718 C 0.19094 0.44372 0.75117 0.0
C719 C 0.17823 0.45099 0.72298 0.0
C720 C 0.16008 0.47707 0.72093 0.0
H721 H 0.70115 0.86161 0.04488 0.0
H722 H 0.77068 0.94749 0.09121 0.0
H723 H 0.81158 0.95343 0.04926 0.0
H724 H 0.76277 0.822 0.01883 0.0
H725 H 0.74262 0.80863 0.98325 0.0
H726 H 0.71716 0.81388 0.01501 0.0
H727 H 0.69213 0.85776 0.98519 0.0
H728 H 0.71719 0.8523 0.95315 0.0
H729 H 0.72059 0.89544 0.96805 0.0
H730 H 0.84708 0.94605 1.00423 0.0
H731 H 0.873 0.92788 0.95886 0.0
H732 H 0.78004 0.84654 0.94264 0.0
C733 C 0.7246 0.88227 0.04589 0.0
C734 C 0.73264 0.9043 0.0712 0.0
C735 C 0.76387 0.93056 0.0719 0.0
C736 C 0.78728 0.93405 0.04822 0.0
C737 C 0.77899 0.91115 0.02399 0.0
C738 C 0.74821 0.886 0.02256 0.0
C739 C 0.74617 0.8633 0.99497 0.0
C740 C 0.74194 0.82468 1.00354 0.0
C741 C 0.71731 0.86747 0.9741 0.0
C742 C 0.78083 0.87915 0.98133 0.0
C743 C 0.79938 0.90682 0.99829 0.0
C744 C 0.83263 0.92467 0.99063 0.0
C745 C 0.84719 0.91407 0.96491 0.0
C746 C 0.82853 0.88585 0.94721 0.0
C747 C 0.79491 0.86832 0.95562 0.0
H748 H 0.21607 0.67062 0.96198 0.0
H749 H 0.12154 0.59222 0.97989 0.0
H750 H 0.14473 0.57913 0.02859 0.0
H751 H 0.27147 0.62301 0.99255 0.0
H752 H 0.30117 0.66104 0.00794 0.0
H753 H 0.2765 0.66529 0.97529 0.0
H754 H 0.2532 0.71235 1.00225 0.0
H755 H 0.27797 0.70841 0.03493 0.0
H756 H 0.23254 0.70237 0.03807 0.0
H757 H 0.17928 0.57378 0.07503 0.0
H758 H 0.22191 0.5771 0.11535 0.0
H759 H 0.29377 0.65841 0.06615 0.0
C760 C 0.20008 0.65094 0.97626 0.0
C761 C 0.16693 0.63254 0.96723 0.0
C762 C 0.14697 0.60673 0.98643 0.0
C763 C 0.15994 0.5991 0.0141 0.0
C764 C 0.19292 0.61747 0.02218 0.0
C765 C 0.21267 0.64292 1.00381 0.0
C766 C 0.24757 0.65835 0.01726 0.0
C767 C 0.27584 0.6515 0.99706 0.0
C768 C 0.25313 0.6977 0.0235 0.0
C769 C 0.2445 0.63756 0.04605 0.0
C770 C 0.21279 0.61415 0.04856 0.0
C771 C 0.20416 0.59206 0.07328 0.0
C772 C 0.22854 0.59408 0.09604 0.0
C773 C 0.26115 0.61794 0.09386 0.0
C774 C 0.26909 0.63983 0.06845 0.0
H775 H 0.69948 0.1011 0.45665 0.0
H776 H 0.65982 0.19131 0.47337 0.0
H777 H 0.68553 0.19748 0.5237 0.0
H778 H 0.69124 0.06642 0.53429 0.0
H779 H 0.73092 0.05398 0.53271 0.0
H780 H 0.70625 0.05383 0.4991 0.0
H781 H 0.75867 0.09516 0.47354 0.0
H782 H 0.78343 0.09557 0.50707 0.0
H783 H 0.77934 0.13621 0.49114 0.0
H784 H 0.71786 0.1969 0.57007 0.0
H785 H 0.75662 0.19059 0.61065 0.0
H786 H 0.77817 0.10167 0.56499 0.0
C787 C 0.69564 0.1216 0.47126 0.0
C788 C 0.67738 0.14556 0.46132 0.0
C789 C 0.6736 0.17265 0.48063 0.0
C790 C 0.68802 0.1763 0.50928 0.0
C791 C 0.7064 0.15279 0.51826 0.0
C792 C 0.7104 0.12596 0.49995 0.0
C793 C 0.73367 0.10609 0.51456 0.0
C794 C 0.71436 0.0678 0.52052 0.0
C795 C 0.76567 0.10842 0.49544 0.0
C796 C 0.74248 0.12638 0.54364 0.0
C797 C 0.72605 0.15292 0.54525 0.0
C798 C 0.73069 0.17607 0.56921 0.0
C799 C 0.7529 0.17228 0.59214 0.0
C800 C 0.77048 0.14562 0.59106 0.0
C801 C 0.76493 0.12213 0.56654 0.0
H802 H 0.20854 0.38443 0.54765 0.0
H803 H 0.28876 0.45398 0.59906 0.0
H804 H 0.32884 0.45602 0.55691 0.0
H805 H 0.2584 0.33332 0.52005 0.0
H806 H 0.23829 0.32578 0.4838 0.0
H807 H 0.21461 0.33469 0.51552 0.0
H808 H 0.20111 0.38696 0.48747 0.0
H809 H 0.22439 0.37793 0.45542 0.0
H810 H 0.23554 0.42088 0.47217 0.0
H811 H 0.36162 0.44498 0.5109 0.0
H812 H 0.38373 0.42222 0.46553 0.0
H813 H 0.28203 0.35813 0.44597 0.0
C814 C 0.23421 0.40109 0.5497 0.0
C815 C 0.24541 0.41948 0.57648 0.0
C816 C 0.27953 0.44007 0.57858 0.0
C817 C 0.30247 0.44131 0.55477 0.0
C818 C 0.29088 0.42176 0.52907 0.0
C819 C 0.25743 0.40221 0.52638 0.0
C820 C 0.25199 0.38081 0.49786 0.0
C821 C 0.24014 0.34133 0.50474 0.0
C822 C 0.22676 0.39235 0.477 0.0
C823 C 0.28773 0.3907 0.48517 0.0
C824 C 0.30979 0.41467 0.50321 0.0
C825 C 0.34445 0.4265 0.49647 0.0
C826 C 0.35681 0.41339 0.47072 0.0
C827 C 0.33462 0.38843 0.45224 0.0
C828 C 0.29964 0.37727 0.45958 0.0
H829 H 0.0789 0.74403 0.87733 0.0
H830 H 0.01526 0.6433 0.9058 0.0
H831 H 0.96656 0.66958 0.91187 0.0
H832 H 0.04269 0.79844 0.92632 0.0
H833 H 0.04505 0.83212 0.89857 0.0
H834 H 0.07541 0.80594 0.89802 0.0
H835 H 0.05892 0.78807 0.84313 0.0
H836 H 0.02866 0.8143 0.84347 0.0
H837 H 0.01487 0.76851 0.83388 0.0
H838 H 0.9247 0.70646 0.91403 0.0
H839 H 0.89127 0.7501 0.90886 0.0
H840 H 0.9815 0.82682 0.87745 0.0
C841 C 0.05477 0.72758 0.88508 0.0
C842 C 0.05087 0.69164 0.8913 0.0
C843 C 0.0188 0.67087 0.90096 0.0
C844 C 0.99106 0.68561 0.90458 0.0
C845 C 0.99576 0.72111 0.89826 0.0
C846 C 0.02673 0.74179 0.88849 0.0
C847 C 0.02451 0.77879 0.88178 0.0
C848 C 0.04833 0.80539 0.90241 0.0
C849 C 0.03219 0.78794 0.8486 0.0
C850 C 0.98737 0.77565 0.8891 0.0
C851 C 0.97139 0.74224 0.89887 0.0
C852 C 0.93697 0.73272 0.90647 0.0
C853 C 0.9182 0.75776 0.90351 0.0
C854 C 0.93376 0.79193 0.89283 0.0
C855 C 0.96894 0.80102 0.8859 0.0
H856 H 0.0627 0.34487 0.65659 0.0
H857 H 0.11372 0.28864 0.59656 0.0
H858 H 0.05884 0.24563 0.58642 0.0
H859 H 0.01042 0.27088 0.68993 0.0
H860 H 0.97381 0.28837 0.69395 0.0
H861 H 0.01594 0.31749 0.6931 0.0
H862 H 0.9983 0.35142 0.64877 0.0
H863 H 0.95599 0.32237 0.64953 0.0
H864 H 0.9805 0.32803 0.61543 0.0
H865 H 0.99963 0.20584 0.58637 0.0
H866 H 0.94102 0.17124 0.59798 0.0
H867 H 0.92911 0.25271 0.65892 0.0
C868 C 0.06211 0.324 0.64074 0.0
C869 C 0.09229 0.32019 0.62713 0.0
C870 C 0.09077 0.29206 0.60711 0.0
C871 C 0.05973 0.2676 0.60112 0.0
C872 C 0.03047 0.27164 0.61536 0.0
C873 C 0.03138 0.29913 0.63476 0.0
C874 C 0.99702 0.29569 0.64932 0.0
C875 C 0.99946 0.29293 0.6836 0.0
C876 C 0.98207 0.32619 0.64021 0.0
C877 C 0.97692 0.26152 0.63569 0.0
C878 C 0.99648 0.24831 0.6158 0.0
C879 C 0.98391 0.21612 0.60162 0.0
C880 C 0.95063 0.19665 0.60834 0.0
C881 C 0.93055 0.20936 0.62925 0.0
C882 C 0.94378 0.24246 0.64264 0.0
H883 H 0.57827 0.23356 0.35605 0.0
H884 H 0.53631 0.15202 0.42087 0.0
H885 H 0.49061 0.18083 0.43269 0.0
H886 H 0.56074 0.3057 0.39702 0.0
H887 H 0.54928 0.32669 0.3642 0.0
H888 H 0.57928 0.30026 0.36126 0.0
H889 H 0.54179 0.2622 0.32048 0.0
H890 H 0.51186 0.28869 0.32311 0.0
H891 H 0.4975 0.24194 0.32823 0.0
H892 H 0.44972 0.21849 0.43765 0.0
H893 H 0.41353 0.2596 0.43258 0.0
H894 H 0.48092 0.31622 0.36357 0.0
C895 C 0.55946 0.22179 0.37275 0.0
C896 C 0.56088 0.19057 0.38763 0.0
C897 C 0.53568 0.17586 0.40917 0.0
C898 C 0.50973 0.19214 0.41613 0.0
C899 C 0.50921 0.22302 0.40124 0.0
C900 C 0.53319 0.23754 0.37978 0.0
C901 C 0.52607 0.27021 0.36629 0.0
C902 C 0.5556 0.30263 0.37258 0.0
C903 C 0.51887 0.26546 0.33253 0.0
C904 C 0.49427 0.27174 0.38347 0.0
C905 C 0.48522 0.24443 0.40371 0.0
C906 C 0.45657 0.23997 0.42189 0.0
C907 C 0.43622 0.26357 0.41891 0.0
C908 C 0.44441 0.29122 0.39775 0.0
C909 C 0.47414 0.29555 0.38011 0.0
H910 H 0.61851 0.56663 0.72542 0.0
H911 H 0.67143 0.53882 0.64854 0.0
H912 H 0.68825 0.49374 0.67847 0.0
H913 H 0.67921 0.55681 0.78025 0.0
H914 H 0.64833 0.53796 0.8086 0.0
H915 H 0.6385 0.5672 0.78104 0.0
H916 H 0.58409 0.51995 0.76564 0.0
H917 H 0.59352 0.4907 0.79341 0.0
H918 H 0.58747 0.47702 0.75487 0.0
H919 H 0.70242 0.45444 0.71656 0.0
H920 H 0.70917 0.41873 0.76007 0.0
H921 H 0.64656 0.4698 0.81336 0.0
C922 C 0.63312 0.5506 0.71481 0.0
C923 C 0.64358 0.55622 0.68456 0.0
C924 C 0.66306 0.53502 0.6716 0.0
C925 C 0.67285 0.50937 0.68845 0.0
C926 C 0.66291 0.50504 0.71831 0.0
C927 C 0.64316 0.52466 0.7314 0.0
C928 C 0.63646 0.51465 0.76415 0.0
C929 C 0.65153 0.54603 0.78472 0.0
C930 C 0.5981 0.49969 0.76984 0.0
C931 C 0.65571 0.48654 0.76731 0.0
C932 C 0.67087 0.4817 0.74053 0.0
C933 C 0.69049 0.45777 0.73762 0.0
C934 C 0.69428 0.43769 0.76257 0.0
C935 C 0.67841 0.44139 0.79018 0.0
C936 C 0.65907 0.46642 0.7926 0.0
H937 H 0.37395 0.04471 0.79861 0.0
H938 H 0.27069 0.04741 0.77529 0.0
H939 H 0.27054 0.00652 0.73395 0.0
H940 H 0.40432 0.04006 0.72374 0.0
H941 H 0.42913 0.00942 0.73215 0.0
H942 H 0.42187 0.03886 0.76071 0.0
H943 H 0.39613 0.98635 0.7956 0.0
H944 H 0.40383 0.95681 0.76734 0.0
H945 H 0.3615 0.95122 0.78224 0.0
H946 H 0.28144 0.96843 0.69415 0.0
H947 H 0.29986 0.92735 0.66109 0.0
H948 H 0.39567 0.9454 0.7096 0.0
C949 C 0.35121 0.03629 0.785 0.0
C950 C 0.32232 0.04937 0.7902 0.0
C951 C 0.29309 0.03781 0.77185 0.0
C952 C 0.2928 0.0147 0.74814 0.0
C953 C 0.32182 0.00301 0.74311 0.0
C954 C 0.35031 0.01273 0.76121 0.0
C955 C 0.3776 0.99515 0.75093 0.0
C956 C 0.41016 0.02252 0.74131 0.0
C957 C 0.38521 0.97094 0.77549 0.0
C958 C 0.3599 0.97428 0.72421 0.0
C959 C 0.3279 0.97973 0.72012 0.0
C960 C 0.30633 0.9637 0.6972 0.0
C961 C 0.31714 0.94044 0.67847 0.0
C962 C 0.34918 0.93306 0.68275 0.0
C963 C 0.3712 0.95079 0.7056 0.0
H964 H 0.42997 0.22178 0.8254 0.0
H965 H 0.42272 0.17431 0.91351 0.0
H966 H 0.47809 0.21527 0.92743 0.0
H967 H 0.51952 0.23265 0.81647 0.0
H968 H 0.52562 0.27331 0.79628 0.0
H969 H 0.48525 0.24106 0.79442 0.0
H970 H 0.45489 0.28759 0.81254 0.0
H971 H 0.49528 0.31985 0.81491 0.0
H972 H 0.46792 0.3104 0.84725 0.0
H973 H 0.53431 0.26284 0.9313 0.0
H974 H 0.58929 0.30683 0.92282 0.0
H975 H 0.55902 0.32042 0.83139 0.0
C976 C 0.43999 0.21998 0.84767 0.0
C977 C 0.42213 0.19513 0.8685 0.0
C978 C 0.43619 0.1932 0.89725 0.0
C979 C 0.46741 0.2165 0.90537 0.0
C980 C 0.48413 0.24115 0.88433 0.0
C981 C 0.47105 0.24256 0.85592 0.0
C982 C 0.49447 0.27003 0.83677 0.0
C983 C 0.50696 0.25325 0.80938 0.0
C984 C 0.47709 0.29866 0.82733 0.0
C985 C 0.523 0.28397 0.85875 0.0
C986 C 0.51648 0.26745 0.88623 0.0
C987 C 0.53963 0.2759 0.90987 0.0
C988 C 0.57064 0.30107 0.90493 0.0
C989 C 0.57825 0.31699 0.87648 0.0
C990 C 0.55378 0.30876 0.8534 0.0
H991 H 0.36826 0.5681 0.24782 0.0
H992 H 0.32454 0.50288 0.1722 0.0
H993 H 0.33182 0.45068 0.19919 0.0
H994 H 0.43162 0.52023 0.26725 0.0
H995 H 0.42713 0.52575 0.30696 0.0
H996 H 0.41993 0.5583 0.28126 0.0
H997 H 0.35967 0.5515 0.30356 0.0
H998 H 0.36672 0.51907 0.32937 0.0
H999 H 0.33017 0.50871 0.30488 0.0
H1000 H 0.33921 0.40549 0.23555 0.0
H1001 H 0.34766 0.36967 0.2787 0.0
H1002 H 0.38979 0.46386 0.33024 0.0
C1003 C 0.36044 0.54284 0.23687 0.0
C1004 C 0.34575 0.53945 0.20792 0.0
C1005 C 0.33586 0.50603 0.19433 0.0
C1006 C 0.33996 0.47628 0.20946 0.0
C1007 C 0.35439 0.4805 0.238 0.0
C1008 C 0.36471 0.51292 0.25154 0.0
C1009 C 0.37869 0.51002 0.28271 0.0
C1010 C 0.4166 0.52975 0.28465 0.0
C1011 C 0.35754 0.52309 0.30653 0.0
C1012 C 0.37392 0.47076 0.28485 0.0
C1013 C 0.35988 0.45434 0.25873 0.0
C1014 C 0.35073 0.41806 0.25589 0.0
C1015 C 0.35559 0.39797 0.2805 0.0
C1016 C 0.36985 0.41413 0.30748 0.0
C1017 C 0.3797 0.451 0.30955 0.0
H1018 H 0.67146 0.0453 0.32821 0.0
H1019 H 0.57592 0.06534 0.29994 0.0
H1020 H 0.57354 0.02542 0.25695 0.0
H1021 H 0.70636 0.0444 0.25654 0.0
H1022 H 0.72656 0.00968 0.26416 0.0
H1023 H 0.71945 0.03739 0.29413 0.0
H1024 H 0.68591 0.98304 0.32381 0.0
H1025 H 0.69337 0.95508 0.29413 0.0
H1026 H 0.65043 0.95241 0.30627 0.0
H1027 H 0.58424 0.98724 0.2146 0.0
H1028 H 0.6045 0.94942 0.17872 0.0
H1029 H 0.69255 0.95372 0.23518 0.0
C1030 C 0.64964 0.0407 0.31336 0.0
C1031 C 0.62376 0.0583 0.31752 0.0
C1032 C 0.59589 0.05194 0.29733 0.0
C1033 C 0.5944 0.02943 0.27277 0.0
C1034 C 0.62087 0.01332 0.26881 0.0
C1035 C 0.64772 0.01828 0.2888 0.0
C1036 C 0.67341 0.99867 0.27902 0.0
C1037 C 0.70851 0.02406 0.27311 0.0
C1038 C 0.67591 0.97063 0.30218 0.0
C1039 C 0.65705 0.98224 0.25023 0.0
C1040 C 0.62682 0.99109 0.24466 0.0
C1041 C 0.60771 0.97987 0.21889 0.0
C1042 C 0.61951 0.95858 0.19856 0.0
C1043 C 0.65006 0.94861 0.20417 0.0
C1044 C 0.66905 0.96081 0.23031 0.0
H1045 H 0.55372 0.82549 0.13636 0.0
H1046 H 0.61733 0.75332 0.12581 0.0
H1047 H 0.56582 0.70437 0.1196 0.0
H1048 H 0.49167 0.77058 0.18051 0.0
H1049 H 0.45613 0.78389 0.16463 0.0
H1050 H 0.49793 0.81368 0.16451 0.0
H1051 H 0.49439 0.82029 0.10693 0.0
H1052 H 0.45249 0.7904 0.10689 0.0
H1053 H 0.48565 0.78179 0.0836 0.0
H1054 H 0.50747 0.66263 0.11918 0.0
H1055 H 0.44681 0.63128 0.1262 0.0
H1056 H 0.42161 0.7308 0.13706 0.0
C1057 C 0.5568 0.79949 0.13216 0.0
C1058 C 0.58945 0.79317 0.13139 0.0
C1059 C 0.59249 0.75872 0.12637 0.0
C1060 C 0.56341 0.73079 0.12269 0.0
C1061 C 0.53152 0.73779 0.12399 0.0
C1062 C 0.52805 0.77132 0.12855 0.0
C1063 C 0.49094 0.77145 0.13138 0.0
C1064 C 0.48376 0.78573 0.16208 0.0
C1065 C 0.48024 0.79221 0.10566 0.0
C1066 C 0.47414 0.73268 0.12856 0.0
C1067 C 0.4979 0.71372 0.12389 0.0
C1068 C 0.48856 0.67723 0.12241 0.0
C1069 C 0.45409 0.65965 0.1264 0.0
C1070 C 0.42955 0.67863 0.13199 0.0
C1071 C 0.43973 0.7156 0.13244 0.0
loop_
_geom_bond_atom_site_label_1
_geom_bond_atom_site_label_2
_geom_bond_distance
_geom_bond_site_symmetry_2
_ccdc_geom_bond_type
In0 O1 2.294 . S
In0 O2 2.326 . S
In0 O6 2.266 . S
In0 O7 2.326 . S
In0 O8 2.266 . S
In0 O9 2.326 . S
In0 O11 2.294 . S
In0 O12 2.326 . S
O1 In0 2.294 . S
O1 C10 1.240 . S
O2 In0 2.326 . S
O2 C10 1.252 . S
C3 O6 1.252 . S
C3 O7 1.260 . S
C4 O11 1.240 . S
C4 O12 1.252 . S
C5 O8 1.252 . S
C5 O9 1.260 . S
O6 In0 2.266 . S
O6 C3 1.252 . S
O7 In0 2.326 . S
O7 C3 1.260 . S
O8 In0 2.266 . S
O8 C5 1.252 . S
O9 In0 2.326 . S
O9 C5 1.260 . S
C10 O1 1.240 . S
C10 O2 1.252 . S
O11 In0 2.294 . S
O11 C4 1.240 . S
O12 In0 2.326 . S
O12 C4 1.252 . S
In13 O14 2.294 . S
In13 O15 2.326 . S
In13 O19 2.266 . S
In13 O20 2.326 . S
In13 O21 2.266 . S
In13 O22 2.326 . S
In13 O24 2.294 . S
In13 O25 2.326 . S
O14 In13 2.294 . S
O14 C23 1.240 . S
O15 In13 2.326 . S
O15 C23 1.252 . S
C16 O19 1.252 . S
C16 O20 1.260 . S
C17 O24 1.240 . S
C17 O25 1.252 . S
C18 O21 1.252 . S
C18 O22 1.260 . S
O19 In13 2.266 . S
O19 C16 1.252 . S
O20 In13 2.326 . S
O20 C16 1.260 . S
O21 In13 2.266 . S
O21 C18 1.252 . S
O22 In13 2.326 . S
O22 C18 1.260 . S
C23 O14 1.240 . S
C23 O15 1.252 . S
O24 In13 2.294 . S
O24 C17 1.240 . S
O25 In13 2.326 . S
O25 C17 1.252 . S
In26 O27 2.294 . S
In26 O28 2.326 . S
In26 O32 2.266 . S
In26 O33 2.326 . S
In26 O34 2.266 . S
In26 O35 2.326 . S
In26 O37 2.294 . S
In26 O38 2.326 . S
O27 In26 2.294 . S
O27 C36 1.240 . S
O28 In26 2.326 . S
O28 C36 1.252 . S
C29 O32 1.252 . S
C29 O33 1.260 . S
C30 O37 1.240 . S
C30 O38 1.252 . S
C31 O34 1.252 . S
C31 O35 1.260 . S
O32 In26 2.266 . S
O32 C29 1.252 . S
O33 In26 2.326 . S
O33 C29 1.260 . S
O34 In26 2.266 . S
O34 C31 1.252 . S
O35 In26 2.326 . S
O35 C31 1.260 . S
C36 O27 1.240 . S
C36 O28 1.252 . S
O37 In26 2.294 . S
O37 C30 1.240 . S
O38 In26 2.326 . S
O38 C30 1.252 . S
In39 O40 2.294 . S
In39 O41 2.326 . S
In39 O45 2.266 . S
In39 O46 2.326 . S
In39 O47 2.266 . S
In39 O48 2.326 . S
In39 O50 2.294 . S
In39 O51 2.326 . S
O40 In39 2.294 . S
O40 C49 1.240 . S
O41 In39 2.326 . S
O41 C49 1.252 . S
C42 O45 1.252 . S
C42 O46 1.260 . S
C43 O50 1.240 . S
C43 O51 1.252 . S
C44 O47 1.252 . S
C44 O48 1.260 . S
O45 In39 2.266 . S
O45 C42 1.252 . S
O46 In39 2.326 . S
O46 C42 1.260 . S
O47 In39 2.266 . S
O47 C44 1.252 . S
O48 In39 2.326 . S
O48 C44 1.260 . S
C49 O40 1.240 . S
C49 O41 1.252 . S
O50 In39 2.294 . S
O50 C43 1.240 . S
O51 In39 2.326 . S
O51 C43 1.252 . S
In52 O53 2.294 . S
In52 O54 2.326 . S
In52 O58 2.266 . S
In52 O59 2.326 . S
In52 O60 2.266 . S
In52 O61 2.326 . S
In52 O63 2.294 . S
In52 O64 2.326 . S
O53 In52 2.294 . S
O53 C62 1.240 . S
O54 In52 2.326 . S
O54 C62 1.252 . S
C55 O58 1.252 . S
C55 O59 1.260 . S
C56 O63 1.240 . S
C56 O64 1.252 . S
C57 O60 1.252 . S
C57 O61 1.260 . S
O58 In52 2.266 . S
O58 C55 1.252 . S
O59 In52 2.326 . S
O59 C55 1.260 . S
O60 In52 2.266 . S
O60 C57 1.252 . S
O61 In52 2.326 . S
O61 C57 1.260 . S
C62 O53 1.240 . S
C62 O54 1.252 . S
O63 In52 2.294 . S
O63 C56 1.240 . S
O64 In52 2.326 . S
O64 C56 1.252 . S
In65 O66 2.294 . S
In65 O67 2.326 . S
In65 O71 2.266 . S
In65 O72 2.326 . S
In65 O73 2.266 . S
In65 O74 2.326 . S
In65 O76 2.294 . S
In65 O77 2.326 . S
O66 In65 2.294 . S
O66 C75 1.240 . S
O67 In65 2.326 . S
O67 C75 1.252 . S
C68 O71 1.252 . S
C68 O72 1.260 . S
C69 O76 1.240 . S
C69 O77 1.252 . S
C70 O73 1.252 . S
C70 O74 1.260 . S
O71 In65 2.266 . S
O71 C68 1.252 . S
O72 In65 2.326 . S
O72 C68 1.260 . S
O73 In65 2.266 . S
O73 C70 1.252 . S
O74 In65 2.326 . S
O74 C70 1.260 . S
C75 O66 1.240 . S
C75 O67 1.252 . S
O76 In65 2.294 . S
O76 C69 1.240 . S
O77 In65 2.326 . S
O77 C69 1.252 . S
In78 O79 2.294 . S
In78 O80 2.326 . S
In78 O84 2.266 . S
In78 O85 2.326 . S
In78 O86 2.266 . S
In78 O87 2.326 . S
In78 O89 2.294 . S
In78 O90 2.326 . S
O79 In78 2.294 . S
O79 C88 1.240 . S
O80 In78 2.326 . S
O80 C88 1.252 . S
C81 O84 1.252 . S
C81 O85 1.260 . S
C82 O89 1.240 . S
C82 O90 1.252 . S
C83 O86 1.252 . S
C83 O87 1.260 . S
O84 In78 2.266 . S
O84 C81 1.252 . S
O85 In78 2.326 . S
O85 C81 1.260 . S
O86 In78 2.266 . S
O86 C83 1.252 . S
O87 In78 2.326 . S
O87 C83 1.260 . S
C88 O79 1.240 . S
C88 O80 1.252 . S
O89 In78 2.294 . S
O89 C82 1.240 . S
O90 In78 2.326 . S
O90 C82 1.252 . S
In91 O92 2.294 . S
In91 O93 2.326 . S
In91 O97 2.266 . S
In91 O98 2.326 . S
In91 O99 2.266 . S
In91 O100 2.326 . S
In91 O102 2.294 . S
In91 O103 2.326 . S
O92 In91 2.294 . S
O92 C101 1.240 . S
O93 In91 2.326 . S
O93 C101 1.252 . S
C94 O97 1.252 . S
C94 O98 1.260 . S
C95 O102 1.240 . S
C95 O103 1.252 . S
C96 O99 1.252 . S
C96 O100 1.260 . S
O97 In91 2.266 . S
O97 C94 1.252 . S
O98 In91 2.326 . S
O98 C94 1.260 . S
O99 In91 2.266 . S
O99 C96 1.252 . S
O100 In91 2.326 . S
O100 C96 1.260 . S
C101 O92 1.240 . S
C101 O93 1.252 . S
O102 In91 2.294 . S
O102 C95 1.240 . S
O103 In91 2.326 . S
O103 C95 1.252 . S
In104 O105 2.294 . S
In104 O106 2.326 . S
In104 O110 2.266 . S
In104 O111 2.326 . S
In104 O112 2.266 . S
In104 O113 2.326 . S
In104 O115 2.294 . S
In104 O116 2.326 . S
O105 In104 2.294 . S
O105 C114 1.240 . S
O106 In104 2.326 . S
O106 C114 1.252 . S
C107 O110 1.252 . S
C107 O111 1.260 . S
C108 O115 1.240 . S
C108 O116 1.252 . S
C109 O112 1.252 . S
C109 O113 1.260 . S
O110 In104 2.266 . S
O110 C107 1.252 . S
O111 In104 2.326 . S
O111 C107 1.260 . S
O112 In104 2.266 . S
O112 C109 1.252 . S
O113 In104 2.326 . S
O113 C109 1.260 . S
C114 O105 1.240 . S
C114 O106 1.252 . S
O115 In104 2.294 . S
O115 C108 1.240 . S
O116 In104 2.326 . S
O116 C108 1.252 . S
In117 O118 2.294 . S
In117 O119 2.326 . S
In117 O123 2.266 . S
In117 O124 2.326 . S
In117 O125 2.266 . S
In117 O126 2.326 . S
In117 O128 2.294 . S
In117 O129 2.326 . S
O118 In117 2.294 . S
O118 C127 1.240 . S
O119 In117 2.326 . S
O119 C127 1.252 . S
C120 O123 1.252 . S
C120 O124 1.260 . S
C121 O128 1.240 . S
C121 O129 1.252 . S
C122 O125 1.252 . S
C122 O126 1.260 . S
O123 In117 2.266 . S
O123 C120 1.252 . S
O124 In117 2.326 . S
O124 C120 1.260 . S
O125 In117 2.266 . S
O125 C122 1.252 . S
O126 In117 2.326 . S
O126 C122 1.260 . S
C127 O118 1.240 . S
C127 O119 1.252 . S
O128 In117 2.294 . S
O128 C121 1.240 . S
O129 In117 2.326 . S
O129 C121 1.252 . S
In130 O131 2.294 . S
In130 O132 2.326 . S
In130 O136 2.266 . S
In130 O137 2.326 . S
In130 O138 2.266 . S
In130 O139 2.326 . S
In130 O141 2.294 . S
In130 O142 2.326 . S
O131 In130 2.294 . S
O131 C140 1.240 . S
O132 In130 2.326 . S
O132 C140 1.252 . S
C133 O136 1.252 . S
C133 O137 1.260 . S
C134 O141 1.240 . S
C134 O142 1.252 . S
C135 O138 1.252 . S
C135 O139 1.260 . S
O136 In130 2.266 . S
O136 C133 1.252 . S
O137 In130 2.326 . S
O137 C133 1.260 . S
O138 In130 2.266 . S
O138 C135 1.252 . S
O139 In130 2.326 . S
O139 C135 1.260 . S
C140 O131 1.240 . S
C140 O132 1.252 . S
O141 In130 2.294 . S
O141 C134 1.240 . S
O142 In130 2.326 . S
O142 C134 1.252 . S
In143 O144 2.294 . S
In143 O145 2.326 . S
In143 O149 2.266 . S
In143 O150 2.326 . S
In143 O151 2.266 . S
In143 O152 2.326 . S
In143 O154 2.294 . S
In143 O155 2.326 . S
O144 In143 2.294 . S
O144 C153 1.240 . S
O145 In143 2.326 . S
O145 C153 1.252 . S
C146 O149 1.252 . S
C146 O150 1.260 . S
C147 O154 1.240 . S
C147 O155 1.252 . S
C148 O151 1.252 . S
C148 O152 1.260 . S
O149 In143 2.266 . S
O149 C146 1.252 . S
O150 In143 2.326 . S
O150 C146 1.260 . S
O151 In143 2.266 . S
O151 C148 1.252 . S
O152 In143 2.326 . S
O152 C148 1.260 . S
C153 O144 1.240 . S
C153 O145 1.252 . S
O154 In143 2.294 . S
O154 C147 1.240 . S
O155 In143 2.326 . S
O155 C147 1.252 . S
In156 O157 2.294 . S
In156 O158 2.326 . S
In156 O162 2.266 . S
In156 O163 2.326 . S
In156 O164 2.266 . S
In156 O165 2.326 . S
In156 O167 2.294 . S
In156 O168 2.326 . S
O157 In156 2.294 . S
O157 C166 1.240 . S
O158 In156 2.326 . S
O158 C166 1.252 . S
C159 O162 1.252 . S
C159 O163 1.260 . S
C160 O167 1.240 . S
C160 O168 1.252 . S
C161 O164 1.252 . S
C161 O165 1.260 . S
O162 In156 2.266 . S
O162 C159 1.252 . S
O163 In156 2.326 . S
O163 C159 1.260 . S
O164 In156 2.266 . S
O164 C161 1.252 . S
O165 In156 2.326 . S
O165 C161 1.260 . S
C166 O157 1.240 . S
C166 O158 1.252 . S
O167 In156 2.294 . S
O167 C160 1.240 . S
O168 In156 2.326 . S
O168 C160 1.252 . S
In169 O170 2.294 . S
In169 O171 2.326 . S
In169 O175 2.266 . S
In169 O176 2.326 . S
In169 O177 2.266 . S
In169 O178 2.326 . S
In169 O180 2.294 . S
In169 O181 2.326 . S
O170 In169 2.294 . S
O170 C179 1.240 . S
O171 In169 2.326 . S
O171 C179 1.252 . S
C172 O175 1.252 . S
C172 O176 1.260 . S
C173 O180 1.240 . S
C173 O181 1.252 . S
C174 O177 1.252 . S
C174 O178 1.260 . S
O175 In169 2.266 . S
O175 C172 1.252 . S
O176 In169 2.326 . S
O176 C172 1.260 . S
O177 In169 2.266 . S
O177 C174 1.252 . S
O178 In169 2.326 . S
O178 C174 1.260 . S
C179 O170 1.240 . S
C179 O171 1.252 . S
O180 In169 2.294 . S
O180 C173 1.240 . S
O181 In169 2.326 . S
O181 C173 1.252 . S
In182 O183 2.294 . S
In182 O184 2.326 . S
In182 O188 2.266 . S
In182 O189 2.326 . S
In182 O190 2.266 . S
In182 O191 2.326 . S
In182 O193 2.294 . S
In182 O194 2.326 . S
O183 In182 2.294 . S
O183 C192 1.240 . S
O184 In182 2.326 . S
O184 C192 1.252 . S
C185 O188 1.252 . S
C185 O189 1.260 . S
C186 O193 1.240 . S
C186 O194 1.252 . S
C187 O190 1.252 . S
C187 O191 1.260 . S
O188 In182 2.266 . S
O188 C185 1.252 . S
O189 In182 2.326 . S
O189 C185 1.260 . S
O190 In182 2.266 . S
O190 C187 1.252 . S
O191 In182 2.326 . S
O191 C187 1.260 . S
C192 O183 1.240 . S
C192 O184 1.252 . S
O193 In182 2.294 . S
O193 C186 1.240 . S
O194 In182 2.326 . S
O194 C186 1.252 . S
In195 O196 2.294 . S
In195 O197 2.326 . S
In195 O201 2.266 . S
In195 O202 2.326 . S
In195 O203 2.266 . S
In195 O204 2.326 . S
In195 O206 2.294 . S
In195 O207 2.326 . S
O196 In195 2.294 . S
O196 C205 1.240 . S
O197 In195 2.326 . S
O197 C205 1.252 . S
C198 O201 1.252 . S
C198 O202 1.260 . S
C199 O206 1.240 . S
C199 O207 1.252 . S
C200 O203 1.252 . S
C200 O204 1.260 . S
O201 In195 2.266 . S
O201 C198 1.252 . S
O202 In195 2.326 . S
O202 C198 1.260 . S
O203 In195 2.266 . S
O203 C200 1.252 . S
O204 In195 2.326 . S
O204 C200 1.260 . S
C205 O196 1.240 . S
C205 O197 1.252 . S
O206 In195 2.294 . S
O206 C199 1.240 . S
O207 In195 2.326 . S
O207 C199 1.252 . S
H208 C220 0.930 . S
H209 C222 0.930 . S
H210 C223 0.930 . S
H211 C227 0.959 . S
H212 C227 0.959 . S
H213 C227 0.961 . S
H214 C228 0.960 . S
H215 C228 0.961 . S
H216 C228 0.959 . S
H217 C231 0.929 . S
H218 C232 0.931 . S
H219 C234 0.930 . S
C220 H208 0.930 . S
C220 C221 1.399 . S
C220 C225 1.399 . S
C221 C220 1.399 . S
C221 C222 1.376 . S
C222 H209 0.930 . S
C222 C221 1.376 . S
C222 C223 1.388 . S
C223 H210 0.930 . S
C223 C222 1.388 . S
C223 C224 1.390 . S
C224 C223 1.390 . S
C224 C225 1.394 . S
C224 C230 1.465 . S
C225 C220 1.399 . S
C225 C224 1.394 . S
C225 C226 1.516 . S
C226 C225 1.516 . S
C226 C227 1.502 . S
C226 C228 1.561 . S
C226 C229 1.526 . S
C227 H211 0.959 . S
C227 H212 0.959 . S
C227 H213 0.961 . S
C227 C226 1.502 . S
C228 H214 0.960 . S
C228 H215 0.961 . S
C228 H216 0.959 . S
C228 C226 1.561 . S
C229 C226 1.526 . S
C229 C230 1.396 . S
C229 C234 1.390 . S
C230 C224 1.465 . S
C230 C229 1.396 . S
C230 C231 1.399 . S
C231 H217 0.929 . S
C231 C230 1.399 . S
C231 C232 1.385 . S
C232 H218 0.931 . S
C232 C231 1.385 . S
C232 C233 1.389 . S
C233 C232 1.389 . S
C233 C234 1.387 . S
C234 H219 0.930 . S
C234 C229 1.390 . S
C234 C233 1.387 . S
H235 C247 0.930 . S
H236 C249 0.930 . S
H237 C250 0.930 . S
H238 C254 0.959 . S
H239 C254 0.959 . S
H240 C254 0.961 . S
H241 C255 0.960 . S
H242 C255 0.961 . S
H243 C255 0.959 . S
H244 C258 0.929 . S
H245 C259 0.931 . S
H246 C261 0.930 . S
C247 H235 0.930 . S
C247 C248 1.399 . S
C247 C252 1.399 . S
C248 C247 1.399 . S
C248 C249 1.376 . S
C249 H236 0.930 . S
C249 C248 1.376 . S
C249 C250 1.388 . S
C250 H237 0.930 . S
C250 C249 1.388 . S
C250 C251 1.390 . S
C251 C250 1.390 . S
C251 C252 1.394 . S
C251 C257 1.465 . S
C252 C247 1.399 . S
C252 C251 1.394 . S
C252 C253 1.516 . S
C253 C252 1.516 . S
C253 C254 1.502 . S
C253 C255 1.561 . S
C253 C256 1.526 . S
C254 H238 0.959 . S
C254 H239 0.959 . S
C254 H240 0.961 . S
C254 C253 1.502 . S
C255 H241 0.960 . S
C255 H242 0.961 . S
C255 H243 0.959 . S
C255 C253 1.561 . S
C256 C253 1.526 . S
C256 C257 1.396 . S
C256 C261 1.390 . S
C257 C251 1.465 . S
C257 C256 1.396 . S
C257 C258 1.399 . S
C258 H244 0.929 . S
C258 C257 1.399 . S
C258 C259 1.385 . S
C259 H245 0.931 . S
C259 C258 1.385 . S
C259 C260 1.389 . S
C260 C259 1.389 . S
C260 C261 1.387 . S
C261 H246 0.930 . S
C261 C256 1.390 . S
C261 C260 1.387 . S
H262 C274 0.930 . S
H263 C276 0.930 . S
H264 C277 0.930 . S
H265 C281 0.959 . S
H266 C281 0.959 . S
H267 C281 0.961 . S
H268 C282 0.960 . S
H269 C282 0.961 . S
H270 C282 0.959 . S
H271 C285 0.929 . S
H272 C286 0.931 . S
H273 C288 0.930 . S
C274 H262 0.930 . S
C274 C275 1.399 . S
C274 C279 1.399 . S
C275 C274 1.399 . S
C275 C276 1.376 . S
C276 H263 0.930 . S
C276 C275 1.376 . S
C276 C277 1.388 . S
C277 H264 0.930 . S
C277 C276 1.388 . S
C277 C278 1.390 . S
C278 C277 1.390 . S
C278 C279 1.394 . S
C278 C284 1.465 . S
C279 C274 1.399 . S
C279 C278 1.394 . S
C279 C280 1.516 . S
C280 C279 1.516 . S
C280 C281 1.502 . S
C280 C282 1.561 . S
C280 C283 1.526 . S
C281 H265 0.959 . S
C281 H266 0.959 . S
C281 H267 0.961 . S
C281 C280 1.502 . S
C282 H268 0.960 . S
C282 H269 0.961 . S
C282 H270 0.959 . S
C282 C280 1.561 . S
C283 C280 1.526 . S
C283 C284 1.396 . S
C283 C288 1.390 . S
C284 C278 1.465 . S
C284 C283 1.396 . S
C284 C285 1.399 . S
C285 H271 0.929 . S
C285 C284 1.399 . S
C285 C286 1.385 . S
C286 H272 0.931 . S
C286 C285 1.385 . S
C286 C287 1.389 . S
C287 C286 1.389 . S
C287 C288 1.387 . S
C288 H273 0.930 . S
C288 C283 1.390 . S
C288 C287 1.387 . S
H289 C301 0.930 . S
H290 C303 0.930 . S
H291 C304 0.930 . S
H292 C308 0.959 . S
H293 C308 0.959 . S
H294 C308 0.961 . S
H295 C309 0.960 . S
H296 C309 0.961 . S
H297 C309 0.959 . S
H298 C312 0.929 . S
H299 C313 0.931 . S
H300 C315 0.930 . S
C301 H289 0.930 . S
C301 C302 1.399 . S
C301 C306 1.399 . S
C302 C301 1.399 . S
C302 C303 1.376 . S
C303 H290 0.930 . S
C303 C302 1.376 . S
C303 C304 1.388 . S
C304 H291 0.930 . S
C304 C303 1.388 . S
C304 C305 1.390 . S
C305 C304 1.390 . S
C305 C306 1.394 . S
C305 C311 1.465 . S
C306 C301 1.399 . S
C306 C305 1.394 . S
C306 C307 1.516 . S
C307 C306 1.516 . S
C307 C308 1.502 . S
C307 C309 1.561 . S
C307 C310 1.526 . S
C308 H292 0.959 . S
C308 H293 0.959 . S
C308 H294 0.961 . S
C308 C307 1.502 . S
C309 H295 0.960 . S
C309 H296 0.961 . S
C309 H297 0.959 . S
C309 C307 1.561 . S
C310 C307 1.526 . S
C310 C311 1.396 . S
C310 C315 1.390 . S
C311 C305 1.465 . S
C311 C310 1.396 . S
C311 C312 1.399 . S
C312 H298 0.929 . S
C312 C311 1.399 . S
C312 C313 1.385 . S
C313 H299 0.931 . S
C313 C312 1.385 . S
C313 C314 1.389 . S
C314 C313 1.389 . S
C314 C315 1.387 . S
C315 H300 0.930 . S
C315 C310 1.390 . S
C315 C314 1.387 . S
H316 C328 0.930 . S
H317 C330 0.930 . S
H318 C331 0.930 . S
H319 C335 0.959 . S
H320 C335 0.959 . S
H321 C335 0.961 . S
H322 C336 0.960 . S
H323 C336 0.961 . S
H324 C336 0.959 . S
H325 C339 0.929 . S
H326 C340 0.931 . S
H327 C342 0.930 . S
C328 H316 0.930 . S
C328 C329 1.399 . S
C328 C333 1.399 . S
C329 C328 1.399 . S
C329 C330 1.376 . S
C330 H317 0.930 . S
C330 C329 1.376 . S
C330 C331 1.388 . S
C331 H318 0.930 . S
C331 C330 1.388 . S
C331 C332 1.390 . S
C332 C331 1.390 . S
C332 C333 1.394 . S
C332 C338 1.465 . S
C333 C328 1.399 . S
C333 C332 1.394 . S
C333 C334 1.516 . S
C334 C333 1.516 . S
C334 C335 1.502 . S
C334 C336 1.561 . S
C334 C337 1.526 . S
C335 H319 0.959 . S
C335 H320 0.959 . S
C335 H321 0.961 . S
C335 C334 1.502 . S
C336 H322 0.960 . S
C336 H323 0.961 . S
C336 H324 0.959 . S
C336 C334 1.561 . S
C337 C334 1.526 . S
C337 C338 1.396 . S
C337 C342 1.390 . S
C338 C332 1.465 . S
C338 C337 1.396 . S
C338 C339 1.399 . S
C339 H325 0.929 . S
C339 C338 1.399 . S
C339 C340 1.385 . S
C340 H326 0.931 . S
C340 C339 1.385 . S
C340 C341 1.389 . S
C341 C340 1.389 . S
C341 C342 1.387 . S
C342 H327 0.930 . S
C342 C337 1.390 . S
C342 C341 1.387 . S
H343 C355 0.930 . S
H344 C357 0.930 . S
H345 C358 0.930 . S
H346 C362 0.959 . S
H347 C362 0.959 . S
H348 C362 0.961 . S
H349 C363 0.960 . S
H350 C363 0.961 . S
H351 C363 0.959 . S
H352 C366 0.929 . S
H353 C367 0.931 . S
H354 C369 0.930 . S
C355 H343 0.930 . S
C355 C356 1.399 . S
C355 C360 1.399 . S
C356 C355 1.399 . S
C356 C357 1.376 . S
C357 H344 0.930 . S
C357 C356 1.376 . S
C357 C358 1.388 . S
C358 H345 0.930 . S
C358 C357 1.388 . S
C358 C359 1.390 . S
C359 C358 1.390 . S
C359 C360 1.394 . S
C359 C365 1.465 . S
C360 C355 1.399 . S
C360 C359 1.394 . S
C360 C361 1.516 . S
C361 C360 1.516 . S
C361 C362 1.502 . S
C361 C363 1.561 . S
C361 C364 1.526 . S
C362 H346 0.959 . S
C362 H347 0.959 . S
C362 H348 0.961 . S
C362 C361 1.502 . S
C363 H349 0.960 . S
C363 H350 0.961 . S
C363 H351 0.959 . S
C363 C361 1.561 . S
C364 C361 1.526 . S
C364 C365 1.396 . S
C364 C369 1.390 . S
C365 C359 1.465 . S
C365 C364 1.396 . S
C365 C366 1.399 . S
C366 H352 0.929 . S
C366 C365 1.399 . S
C366 C367 1.385 . S
C367 H353 0.931 . S
C367 C366 1.385 . S
C367 C368 1.389 . S
C368 C367 1.389 . S
C368 C369 1.387 . S
C369 H354 0.930 . S
C369 C364 1.390 . S
C369 C368 1.387 . S
H370 C382 0.930 . S
H371 C384 0.930 . S
H372 C385 0.930 . S
H373 C389 0.959 . S
H374 C389 0.959 . S
H375 C389 0.961 . S
H376 C390 0.960 . S
H377 C390 0.961 . S
H378 C390 0.959 . S
H379 C393 0.929 . S
H380 C394 0.931 . S
H381 C396 0.930 . S
C382 H370 0.930 . S
C382 C383 1.399 . S
C382 C387 1.399 . S
C383 C382 1.399 . S
C383 C384 1.376 . S
C384 H371 0.930 . S
C384 C383 1.376 . S
C384 C385 1.388 . S
C385 H372 0.930 . S
C385 C384 1.388 . S
C385 C386 1.390 . S
C386 C385 1.390 . S
C386 C387 1.394 . S
C386 C392 1.465 . S
C387 C382 1.399 . S
C387 C386 1.394 . S
C387 C388 1.516 . S
C388 C387 1.516 . S
C388 C389 1.502 . S
C388 C390 1.561 . S
C388 C391 1.526 . S
C389 H373 0.959 . S
C389 H374 0.959 . S
C389 H375 0.961 . S
C389 C388 1.502 . S
C390 H376 0.960 . S
C390 H377 0.961 . S
C390 H378 0.959 . S
C390 C388 1.561 . S
C391 C388 1.526 . S
C391 C392 1.396 . S
C391 C396 1.390 . S
C392 C386 1.465 . S
C392 C391 1.396 . S
C392 C393 1.399 . S
C393 H379 0.929 . S
C393 C392 1.399 . S
C393 C394 1.385 . S
C394 H380 0.931 . S
C394 C393 1.385 . S
C394 C395 1.389 . S
C395 C394 1.389 . S
C395 C396 1.387 . S
C396 H381 0.930 . S
C396 C391 1.390 . S
C396 C395 1.387 . S
H397 C409 0.930 . S
H398 C411 0.930 . S
H399 C412 0.930 . S
H400 C416 0.959 . S
H401 C416 0.959 . S
H402 C416 0.961 . S
H403 C417 0.960 . S
H404 C417 0.961 . S
H405 C417 0.959 . S
H406 C420 0.929 . S
H407 C421 0.931 . S
H408 C423 0.930 . S
C409 H397 0.930 . S
C409 C410 1.399 . S
C409 C414 1.399 . S
C410 C409 1.399 . S
C410 C411 1.376 . S
C411 H398 0.930 . S
C411 C410 1.376 . S
C411 C412 1.388 . S
C412 H399 0.930 . S
C412 C411 1.388 . S
C412 C413 1.390 . S
C413 C412 1.390 . S
C413 C414 1.394 . S
C413 C419 1.465 . S
C414 C409 1.399 . S
C414 C413 1.394 . S
C414 C415 1.516 . S
C415 C414 1.516 . S
C415 C416 1.502 . S
C415 C417 1.561 . S
C415 C418 1.526 . S
C416 H400 0.959 . S
C416 H401 0.959 . S
C416 H402 0.961 . S
C416 C415 1.502 . S
C417 H403 0.960 . S
C417 H404 0.961 . S
C417 H405 0.959 . S
C417 C415 1.561 . S
C418 C415 1.526 . S
C418 C419 1.396 . S
C418 C423 1.390 . S
C419 C413 1.465 . S
C419 C418 1.396 . S
C419 C420 1.399 . S
C420 H406 0.929 . S
C420 C419 1.399 . S
C420 C421 1.385 . S
C421 H407 0.931 . S
C421 C420 1.385 . S
C421 C422 1.389 . S
C422 C421 1.389 . S
C422 C423 1.387 . S
C423 H408 0.930 . S
C423 C418 1.390 . S
C423 C422 1.387 . S
H424 C436 0.930 . S
H425 C438 0.930 . S
H426 C439 0.930 . S
H427 C443 0.959 . S
H428 C443 0.959 . S
H429 C443 0.961 . S
H430 C444 0.960 1_565 S
H431 C444 0.961 . S
H432 C444 0.959 . S
H433 C447 0.932 . S
H434 C448 0.931 . S
H435 C450 0.930 . S
C436 H424 0.930 . S
C436 C437 1.399 . S
C436 C441 1.399 . S
C437 C436 1.399 . S
C437 C438 1.376 . S
C438 H425 0.930 . S
C438 C437 1.376 . S
C438 C439 1.388 . S
C439 H426 0.930 . S
C439 C438 1.388 . S
C439 C440 1.390 . S
C440 C439 1.390 . S
C440 C441 1.394 . S
C440 C446 1.465 . S
C441 C436 1.399 . S
C441 C440 1.394 . S
C441 C442 1.516 . S
C442 C441 1.516 . S
C442 C443 1.502 . S
C442 C444 1.561 1_565 S
C442 C445 1.520 1_565 S
C443 H427 0.959 . S
C443 H428 0.959 . S
C443 H429 0.961 . S
C443 C442 1.502 . S
C444 H430 0.960 1_545 S
C444 H431 0.961 . S
C444 H432 0.959 . S
C444 C442 1.561 1_545 S
C445 C442 1.520 1_545 S
C445 C446 1.389 1_545 S
C445 C450 1.401 . S
C446 C440 1.465 . S
C446 C445 1.389 1_565 S
C446 C447 1.399 1_565 S
C447 H433 0.932 . S
C447 C446 1.399 1_545 S
C447 C448 1.385 . S
C448 H434 0.931 . S
C448 C447 1.385 . S
C448 C449 1.389 . S
C449 C448 1.389 . S
C449 C450 1.387 . S
C450 H435 0.930 . S
C450 C445 1.401 . S
C450 C449 1.387 . S
H451 C463 0.930 . S
H452 C465 0.930 . S
H453 C466 0.930 . S
H454 C470 0.959 . S
H455 C470 0.959 . S
H456 C470 0.961 . S
H457 C471 0.960 . S
H458 C471 0.961 . S
H459 C471 0.959 . S
H460 C474 0.929 . S
H461 C475 0.931 . S
H462 C477 0.930 . S
C463 H451 0.930 . S
C463 C464 1.399 . S
C463 C468 1.399 . S
C464 C463 1.399 . S
C464 C465 1.376 . S
C465 H452 0.930 . S
C465 C464 1.376 . S
C465 C466 1.388 . S
C466 H453 0.930 . S
C466 C465 1.388 . S
C466 C467 1.390 . S
C467 C466 1.390 . S
C467 C468 1.394 . S
C467 C473 1.465 . S
C468 C463 1.399 . S
C468 C467 1.394 . S
C468 C469 1.516 . S
C469 C468 1.516 . S
C469 C470 1.502 . S
C469 C471 1.561 . S
C469 C472 1.526 . S
C470 H454 0.959 . S
C470 H455 0.959 . S
C470 H456 0.961 . S
C470 C469 1.502 . S
C471 H457 0.960 . S
C471 H458 0.961 . S
C471 H459 0.959 . S
C471 C469 1.561 . S
C472 C469 1.526 . S
C472 C473 1.396 . S
C472 C477 1.390 . S
C473 C467 1.465 . S
C473 C472 1.396 . S
C473 C474 1.399 . S
C474 H460 0.929 . S
C474 C473 1.399 . S
C474 C475 1.385 . S
C475 H461 0.931 . S
C475 C474 1.385 . S
C475 C476 1.389 . S
C476 C475 1.389 . S
C476 C477 1.387 . S
C477 H462 0.930 . S
C477 C472 1.390 . S
C477 C476 1.387 . S
H478 C490 0.930 . S
H479 C492 0.930 . S
H480 C493 0.930 . S
H481 C497 0.959 . S
H482 C497 0.959 . S
H483 C497 0.961 1_556 S
H484 C498 0.960 . S
H485 C498 0.961 . S
H486 C498 0.959 . S
H487 C501 0.929 . S
H488 C502 0.931 . S
H489 C504 0.930 . S
C490 H478 0.930 . S
C490 C491 1.399 . S
C490 C495 1.399 . S
C491 C490 1.399 . S
C491 C492 1.376 . S
C492 H479 0.930 . S
C492 C491 1.376 . S
C492 C493 1.388 . S
C493 H480 0.930 . S
C493 C492 1.388 . S
C493 C494 1.390 . S
C494 C493 1.390 . S
C494 C495 1.394 . S
C494 C500 1.465 . S
C495 C490 1.399 . S
C495 C494 1.394 . S
C495 C496 1.516 . S
C496 C495 1.516 . S
C496 C497 1.502 1_556 S
C496 C498 1.561 . S
C496 C499 1.526 1_556 S
C497 H481 0.959 . S
C497 H482 0.959 . S
C497 H483 0.961 1_554 S
C497 C496 1.502 1_554 S
C498 H484 0.960 . S
C498 H485 0.961 . S
C498 H486 0.959 . S
C498 C496 1.561 . S
C499 C496 1.526 1_554 S
C499 C500 1.396 1_554 S
C499 C504 1.390 . S
C500 C494 1.465 . S
C500 C499 1.396 1_556 S
C500 C501 1.399 . S
C501 H487 0.929 . S
C501 C500 1.399 . S
C501 C502 1.385 1_556 S
C502 H488 0.931 . S
C502 C501 1.385 1_554 S
C502 C503 1.389 . S
C503 C502 1.389 . S
C503 C504 1.387 . S
C504 H489 0.930 . S
C504 C499 1.390 . S
C504 C503 1.387 . S
H505 C517 0.930 . S
H506 C519 0.930 . S
H507 C520 0.930 . S
H508 C524 0.959 . S
H509 C524 0.959 . S
H510 C524 0.961 . S
H511 C525 0.960 1_554 S
H512 C525 0.961 . S
H513 C525 0.956 1_554 S
H514 C528 0.929 . S
H515 C529 0.931 . S
H516 C531 0.930 . S
C517 H505 0.930 . S
C517 C518 1.399 . S
C517 C522 1.382 1_554 S
C518 C517 1.399 . S
C518 C519 1.376 . S
C519 H506 0.930 . S
C519 C518 1.376 . S
C519 C520 1.388 . S
C520 H507 0.930 . S
C520 C519 1.388 . S
C520 C521 1.390 1_554 S
C521 C520 1.390 1_556 S
C521 C522 1.396 . S
C521 C527 1.465 . S
C522 C517 1.382 1_556 S
C522 C521 1.396 . S
C522 C523 1.533 . S
C523 C522 1.533 . S
C523 C524 1.502 . S
C523 C525 1.561 . S
C523 C526 1.526 . S
C524 H508 0.959 . S
C524 H509 0.959 . S
C524 H510 0.961 . S
C524 C523 1.502 . S
C525 H511 0.960 1_556 S
C525 H512 0.961 . S
C525 H513 0.956 1_556 S
C525 C523 1.561 . S
C526 C523 1.526 . S
C526 C527 1.396 . S
C526 C531 1.390 . S
C527 C521 1.465 . S
C527 C526 1.396 . S
C527 C528 1.399 . S
C528 H514 0.929 . S
C528 C527 1.399 . S
C528 C529 1.385 . S
C529 H515 0.931 . S
C529 C528 1.385 . S
C529 C530 1.389 . S
C530 C529 1.389 . S
C530 C531 1.387 . S
C531 H516 0.930 . S
C531 C526 1.390 . S
C531 C530 1.387 . S
H532 C544 0.930 . S
H533 C546 0.930 . S
H534 C547 0.930 . S
H535 C551 0.959 . S
H536 C551 0.959 . S
H537 C551 0.961 . S
H538 C552 0.960 . S
H539 C552 0.961 . S
H540 C552 0.959 . S
H541 C555 0.929 . S
H542 C556 0.931 . S
H543 C558 0.930 . S
C544 H532 0.930 . S
C544 C545 1.399 . S
C544 C549 1.399 . S
C545 C544 1.399 . S
C545 C546 1.376 . S
C546 H533 0.930 . S
C546 C545 1.376 . S
C546 C547 1.388 . S
C547 H534 0.930 . S
C547 C546 1.388 . S
C547 C548 1.390 . S
C548 C547 1.390 . S
C548 C549 1.394 . S
C548 C554 1.465 . S
C549 C544 1.399 . S
C549 C548 1.394 . S
C549 C550 1.516 . S
C550 C549 1.516 . S
C550 C551 1.502 . S
C550 C552 1.561 . S
C550 C553 1.526 . S
C551 H535 0.959 . S
C551 H536 0.959 . S
C551 H537 0.961 . S
C551 C550 1.502 . S
C552 H538 0.960 . S
C552 H539 0.961 . S
C552 H540 0.959 . S
C552 C550 1.561 . S
C553 C550 1.526 . S
C553 C554 1.396 . S
C553 C558 1.390 . S
C554 C548 1.465 . S
C554 C553 1.396 . S
C554 C555 1.399 . S
C555 H541 0.929 . S
C555 C554 1.399 . S
C555 C556 1.385 . S
C556 H542 0.931 . S
C556 C555 1.385 . S
C556 C557 1.389 . S
C557 C556 1.389 . S
C557 C558 1.387 . S
C558 H543 0.930 . S
C558 C553 1.390 . S
C558 C557 1.387 . S
H559 C571 0.930 . S
H560 C573 0.930 . S
H561 C574 0.930 . S
H562 C578 0.959 . S
H563 C578 0.959 . S
H564 C578 0.961 . S
H565 C579 0.960 . S
H566 C579 0.961 . S
H567 C579 0.959 . S
H568 C582 0.929 . S
H569 C583 0.931 . S
H570 C585 0.930 . S
C571 H559 0.930 . S
C571 C572 1.399 . S
C571 C576 1.399 . S
C572 C571 1.399 . S
C572 C573 1.376 . S
C573 H560 0.930 . S
C573 C572 1.376 . S
C573 C574 1.388 . S
C574 H561 0.930 . S
C574 C573 1.388 . S
C574 C575 1.390 . S
C575 C574 1.390 . S
C575 C576 1.394 . S
C575 C581 1.465 . S
C576 C571 1.399 . S
C576 C575 1.394 . S
C576 C577 1.516 . S
C577 C576 1.516 . S
C577 C578 1.502 . S
C577 C579 1.561 . S
C577 C580 1.526 . S
C578 H562 0.959 . S
C578 H563 0.959 . S
C578 H564 0.961 . S
C578 C577 1.502 . S
C579 H565 0.960 . S
C579 H566 0.961 . S
C579 H567 0.959 . S
C579 C577 1.561 . S
C580 C577 1.526 . S
C580 C581 1.396 . S
C580 C585 1.390 . S
C581 C575 1.465 . S
C581 C580 1.396 . S
C581 C582 1.399 . S
C582 H568 0.929 . S
C582 C581 1.399 . S
C582 C583 1.385 . S
C583 H569 0.931 . S
C583 C582 1.385 . S
C583 C584 1.389 . S
C584 C583 1.389 . S
C584 C585 1.387 . S
C585 H570 0.930 . S
C585 C580 1.390 . S
C585 C584 1.387 . S
H586 C598 0.930 . S
H587 C600 0.930 . S
H588 C601 0.930 . S
H589 C605 0.959 . S
H590 C605 0.959 . S
H591 C605 0.961 . S
H592 C606 0.960 . S
H593 C606 0.961 . S
H594 C606 0.959 . S
H595 C609 0.929 . S
H596 C610 0.931 . S
H597 C612 0.930 . S
C598 H586 0.930 . S
C598 C599 1.399 . S
C598 C603 1.399 . S
C599 C598 1.399 . S
C599 C600 1.376 . S
C600 H587 0.930 . S
C600 C599 1.376 . S
C600 C601 1.388 . S
C601 H588 0.930 . S
C601 C600 1.388 . S
C601 C602 1.390 . S
C602 C601 1.390 . S
C602 C603 1.394 . S
C602 C608 1.465 1_655 S
C603 C598 1.399 . S
C603 C602 1.394 . S
C603 C604 1.516 . S
C604 C603 1.516 . S
C604 C605 1.502 . S
C604 C606 1.561 1_655 S
C604 C607 1.526 1_655 S
C605 H589 0.959 . S
C605 H590 0.959 . S
C605 H591 0.961 . S
C605 C604 1.502 . S
C606 H592 0.960 . S
C606 H593 0.961 . S
C606 H594 0.959 . S
C606 C604 1.561 1_455 S
C607 C604 1.526 1_455 S
C607 C608 1.396 . S
C607 C612 1.390 . S
C608 C602 1.465 1_455 S
C608 C607 1.396 . S
C608 C609 1.399 . S
C609 H595 0.929 . S
C609 C608 1.399 . S
C609 C610 1.385 . S
C610 H596 0.931 . S
C610 C609 1.385 . S
C610 C611 1.389 . S
C611 C610 1.389 . S
C611 C612 1.387 . S
C612 H597 0.930 . S
C612 C607 1.390 . S
C612 C611 1.387 . S
H613 C625 0.930 . S
H614 C627 0.930 . S
H615 C628 0.930 . S
H616 C632 0.959 . S
H617 C632 0.959 . S
H618 C632 0.961 1_655 S
H619 C633 0.960 . S
H620 C633 0.961 1_455 S
H621 C633 0.959 . S
H622 C636 0.929 . S
H623 C637 0.931 . S
H624 C639 0.930 . S
C625 H613 0.930 . S
C625 C626 1.399 . S
C625 C630 1.399 . S
C626 C625 1.399 . S
C626 C627 1.376 . S
C627 H614 0.930 . S
C627 C626 1.376 . S
C627 C628 1.388 . S
C628 H615 0.930 . S
C628 C627 1.388 . S
C628 C629 1.390 . S
C629 C628 1.390 . S
C629 C630 1.394 . S
C629 C635 1.465 1_655 S
C630 C625 1.399 . S
C630 C629 1.394 . S
C630 C631 1.516 1_655 S
C631 C630 1.516 1_455 S
C631 C632 1.502 . S
C631 C633 1.561 1_455 S
C631 C634 1.526 . S
C632 H616 0.959 . S
C632 H617 0.959 . S
C632 H618 0.961 1_455 S
C632 C631 1.502 . S
C633 H619 0.960 . S
C633 H620 0.961 1_655 S
C633 H621 0.959 . S
C633 C631 1.561 1_655 S
C634 C631 1.526 . S
C634 C635 1.396 . S
C634 C639 1.390 . S
C635 C629 1.465 1_455 S
C635 C634 1.396 . S
C635 C636 1.399 . S
C636 H622 0.929 . S
C636 C635 1.399 . S
C636 C637 1.385 . S
C637 H623 0.931 . S
C637 C636 1.385 . S
C637 C638 1.389 . S
C638 C637 1.389 . S
C638 C639 1.387 . S
C639 H624 0.930 . S
C639 C634 1.390 . S
C639 C638 1.387 . S
H640 C652 0.930 . S
H641 C654 0.930 . S
H642 C655 0.930 . S
H643 C659 0.959 . S
H644 C659 0.959 . S
H645 C659 0.961 . S
H646 C660 0.960 . S
H647 C660 0.961 . S
H648 C660 0.959 . S
H649 C663 0.929 . S
H650 C664 0.931 . S
H651 C666 0.930 . S
C652 H640 0.930 . S
C652 C653 1.399 . S
C652 C657 1.399 . S
C653 C652 1.399 . S
C653 C654 1.376 . S
C654 H641 0.930 . S
C654 C653 1.376 . S
C654 C655 1.388 . S
C655 H642 0.930 . S
C655 C654 1.388 . S
C655 C656 1.390 . S
C656 C655 1.390 . S
C656 C657 1.394 . S
C656 C662 1.465 . S
C657 C652 1.399 . S
C657 C656 1.394 . S
C657 C658 1.516 . S
C658 C657 1.516 . S
C658 C659 1.502 . S
C658 C660 1.561 . S
C658 C661 1.526 . S
C659 H643 0.959 . S
C659 H644 0.959 . S
C659 H645 0.961 . S
C659 C658 1.502 . S
C660 H646 0.960 . S
C660 H647 0.961 . S
C660 H648 0.959 . S
C660 C658 1.561 . S
C661 C658 1.526 . S
C661 C662 1.396 . S
C661 C666 1.390 . S
C662 C656 1.465 . S
C662 C661 1.396 . S
C662 C663 1.399 . S
C663 H649 0.929 . S
C663 C662 1.399 . S
C663 C664 1.385 . S
C664 H650 0.931 . S
C664 C663 1.385 . S
C664 C665 1.389 . S
C665 C664 1.389 . S
C665 C666 1.387 . S
C666 H651 0.930 . S
C666 C661 1.390 . S
C666 C665 1.387 . S
H667 C679 0.930 . S
H668 C681 0.930 . S
H669 C682 0.930 . S
H670 C686 0.959 . S
H671 C686 0.959 . S
H672 C686 0.961 . S
H673 C687 0.960 . S
H674 C687 0.961 . S
H675 C687 0.959 . S
H676 C690 0.929 1_545 S
H677 C691 0.931 . S
H678 C693 0.930 . S
C679 H667 0.930 . S
C679 C680 1.399 . S
C679 C684 1.399 . S
C680 C679 1.399 . S
C680 C681 1.376 . S
C681 H668 0.930 . S
C681 C680 1.376 . S
C681 C682 1.388 . S
C682 H669 0.930 . S
C682 C681 1.388 . S
C682 C683 1.390 . S
C683 C682 1.390 . S
C683 C684 1.394 . S
C683 C689 1.465 1_545 S
C684 C679 1.399 . S
C684 C683 1.394 . S
C684 C685 1.516 1_545 S
C685 C684 1.516 1_565 S
C685 C686 1.502 . S
C685 C687 1.561 . S
C685 C688 1.526 . S
C686 H670 0.959 . S
C686 H671 0.959 . S
C686 H672 0.961 . S
C686 C685 1.502 . S
C687 H673 0.960 . S
C687 H674 0.961 . S
C687 H675 0.959 . S
C687 C685 1.561 . S
C688 C685 1.526 . S
C688 C689 1.396 . S
C688 C693 1.390 . S
C689 C683 1.465 1_565 S
C689 C688 1.396 . S
C689 C690 1.399 . S
C690 H676 0.929 1_565 S
C690 C689 1.399 . S
C690 C691 1.385 . S
C691 H677 0.931 . S
C691 C690 1.385 . S
C691 C692 1.389 . S
C692 C691 1.389 . S
C692 C693 1.387 . S
C693 H678 0.930 . S
C693 C688 1.390 . S
C693 C692 1.387 . S
H694 C706 0.930 . S
H695 C708 0.930 . S
H696 C709 0.930 . S
H697 C713 0.959 . S
H698 C713 0.959 . S
H699 C713 0.961 . S
H700 C714 0.960 . S
H701 C714 0.961 . S
H702 C714 0.959 . S
H703 C717 0.929 . S
H704 C718 0.931 . S
H705 C720 0.930 . S
C706 H694 0.930 . S
C706 C707 1.399 . S
C706 C711 1.399 . S
C707 C706 1.399 . S
C707 C708 1.376 . S
C708 H695 0.930 . S
C708 C707 1.376 . S
C708 C709 1.388 . S
C709 H696 0.930 . S
C709 C708 1.388 . S
C709 C710 1.390 . S
C710 C709 1.390 . S
C710 C711 1.394 . S
C710 C716 1.465 . S
C711 C706 1.399 . S
C711 C710 1.394 . S
C711 C712 1.516 . S
C712 C711 1.516 . S
C712 C713 1.502 . S
C712 C714 1.561 . S
C712 C715 1.526 . S
C713 H697 0.959 . S
C713 H698 0.959 . S
C713 H699 0.961 . S
C713 C712 1.502 . S
C714 H700 0.960 . S
C714 H701 0.961 . S
C714 H702 0.959 . S
C714 C712 1.561 . S
C715 C712 1.526 . S
C715 C716 1.396 . S
C715 C720 1.390 . S
C716 C710 1.465 . S
C716 C715 1.396 . S
C716 C717 1.399 . S
C717 H703 0.929 . S
C717 C716 1.399 . S
C717 C718 1.385 . S
C718 H704 0.931 . S
C718 C717 1.385 . S
C718 C719 1.389 . S
C719 C718 1.389 . S
C719 C720 1.387 . S
C720 H705 0.930 . S
C720 C715 1.390 . S
C720 C719 1.387 . S
H721 C733 0.930 . S
H722 C735 0.930 . S
H723 C736 0.930 . S
H724 C740 0.959 . S
H725 C740 0.959 . S
H726 C740 0.961 . S
H727 C741 0.960 . S
H728 C741 0.961 . S
H729 C741 0.959 . S
H730 C744 0.929 . S
H731 C745 0.931 . S
H732 C747 0.930 . S
C733 H721 0.930 . S
C733 C734 1.399 . S
C733 C738 1.399 . S
C734 C733 1.399 . S
C734 C735 1.376 . S
C735 H722 0.930 . S
C735 C734 1.376 . S
C735 C736 1.388 . S
C736 H723 0.930 . S
C736 C735 1.388 . S
C736 C737 1.390 . S
C737 C736 1.390 . S
C737 C738 1.394 . S
C737 C743 1.465 1_554 S
C738 C733 1.399 . S
C738 C737 1.394 . S
C738 C739 1.516 . S
C739 C738 1.516 . S
C739 C740 1.502 . S
C739 C741 1.561 . S
C739 C742 1.526 1_554 S
C740 H724 0.959 . S
C740 H725 0.959 . S
C740 H726 0.961 . S
C740 C739 1.502 . S
C741 H727 0.960 . S
C741 H728 0.961 . S
C741 H729 0.959 . S
C741 C739 1.561 . S
C742 C739 1.526 1_556 S
C742 C743 1.396 . S
C742 C747 1.390 . S
C743 C737 1.465 1_556 S
C743 C742 1.396 . S
C743 C744 1.399 . S
C744 H730 0.929 . S
C744 C743 1.399 . S
C744 C745 1.385 . S
C745 H731 0.931 . S
C745 C744 1.385 . S
C745 C746 1.389 . S
C746 C745 1.389 . S
C746 C747 1.387 . S
C747 H732 0.930 . S
C747 C742 1.390 . S
C747 C746 1.387 . S
H748 C760 0.930 . S
H749 C762 0.930 . S
H750 C763 0.931 . S
H751 C767 0.959 . S
H752 C767 0.959 1_554 S
H753 C767 0.961 . S
H754 C768 0.960 . S
H755 C768 0.961 . S
H756 C768 0.959 . S
H757 C771 0.929 . S
H758 C772 0.931 . S
H759 C774 0.930 . S
C760 H748 0.930 . S
C760 C761 1.399 . S
C760 C765 1.399 . S
C761 C760 1.399 . S
C761 C762 1.376 . S
C762 H749 0.930 . S
C762 C761 1.376 . S
C762 C763 1.388 . S
C763 H750 0.931 . S
C763 C762 1.388 . S
C763 C764 1.390 1_556 S
C764 C763 1.390 1_554 S
C764 C765 1.394 1_554 S
C764 C770 1.465 . S
C765 C760 1.399 . S
C765 C764 1.394 1_556 S
C765 C766 1.516 1_556 S
C766 C765 1.516 1_554 S
C766 C767 1.502 1_554 S
C766 C768 1.561 . S
C766 C769 1.526 . S
C767 H751 0.959 . S
C767 H752 0.959 1_556 S
C767 H753 0.961 . S
C767 C766 1.502 1_556 S
C768 H754 0.960 . S
C768 H755 0.961 . S
C768 H756 0.959 . S
C768 C766 1.561 . S
C769 C766 1.526 . S
C769 C770 1.396 . S
C769 C774 1.390 . S
C770 C764 1.465 . S
C770 C769 1.396 . S
C770 C771 1.399 . S
C771 H757 0.929 . S
C771 C770 1.399 . S
C771 C772 1.385 . S
C772 H758 0.931 . S
C772 C771 1.385 . S
C772 C773 1.389 . S
C773 C772 1.389 . S
C773 C774 1.387 . S
C774 H759 0.930 . S
C774 C769 1.390 . S
C774 C773 1.387 . S
H775 C787 0.930 . S
H776 C789 0.930 . S
H777 C790 0.930 . S
H778 C794 0.959 . S
H779 C794 0.959 . S
H780 C794 0.961 . S
H781 C795 0.960 . S
H782 C795 0.961 . S
H783 C795 0.959 . S
H784 C798 0.929 . S
H785 C799 0.931 . S
H786 C801 0.930 . S
C787 H775 0.930 . S
C787 C788 1.399 . S
C787 C792 1.399 . S
C788 C787 1.399 . S
C788 C789 1.376 . S
C789 H776 0.930 . S
C789 C788 1.376 . S
C789 C790 1.388 . S
C790 H777 0.930 . S
C790 C789 1.388 . S
C790 C791 1.390 . S
C791 C790 1.390 . S
C791 C792 1.394 . S
C791 C797 1.465 . S
C792 C787 1.399 . S
C792 C791 1.394 . S
C792 C793 1.516 . S
C793 C792 1.516 . S
C793 C794 1.502 . S
C793 C795 1.561 . S
C793 C796 1.526 . S
C794 H778 0.959 . S
C794 H779 0.959 . S
C794 H780 0.961 . S
C794 C793 1.502 . S
C795 H781 0.960 . S
C795 H782 0.961 . S
C795 H783 0.959 . S
C795 C793 1.561 . S
C796 C793 1.526 . S
C796 C797 1.396 . S
C796 C801 1.390 . S
C797 C791 1.465 . S
C797 C796 1.396 . S
C797 C798 1.399 . S
C798 H784 0.929 . S
C798 C797 1.399 . S
C798 C799 1.385 . S
C799 H785 0.931 . S
C799 C798 1.385 . S
C799 C800 1.389 . S
C800 C799 1.389 . S
C800 C801 1.387 . S
C801 H786 0.930 . S
C801 C796 1.390 . S
C801 C800 1.387 . S
H802 C814 0.930 . S
H803 C816 0.930 . S
H804 C817 0.930 . S
H805 C821 0.959 . S
H806 C821 0.959 . S
H807 C821 0.961 . S
H808 C822 0.960 . S
H809 C822 0.961 . S
H810 C822 0.959 . S
H811 C825 0.929 . S
H812 C826 0.931 . S
H813 C828 0.930 . S
C814 H802 0.930 . S
C814 C815 1.399 . S
C814 C819 1.399 . S
C815 C814 1.399 . S
C815 C816 1.376 . S
C816 H803 0.930 . S
C816 C815 1.376 . S
C816 C817 1.388 . S
C817 H804 0.930 . S
C817 C816 1.388 . S
C817 C818 1.390 . S
C818 C817 1.390 . S
C818 C819 1.394 . S
C818 C824 1.465 . S
C819 C814 1.399 . S
C819 C818 1.394 . S
C819 C820 1.516 . S
C820 C819 1.516 . S
C820 C821 1.502 . S
C820 C822 1.561 . S
C820 C823 1.526 . S
C821 H805 0.959 . S
C821 H806 0.959 . S
C821 H807 0.961 . S
C821 C820 1.502 . S
C822 H808 0.960 . S
C822 H809 0.961 . S
C822 H810 0.959 . S
C822 C820 1.561 . S
C823 C820 1.526 . S
C823 C824 1.396 . S
C823 C828 1.390 . S
C824 C818 1.465 . S
C824 C823 1.396 . S
C824 C825 1.399 . S
C825 H811 0.929 . S
C825 C824 1.399 . S
C825 C826 1.385 . S
C826 H812 0.931 . S
C826 C825 1.385 . S
C826 C827 1.389 . S
C827 C826 1.389 . S
C827 C828 1.387 . S
C828 H813 0.930 . S
C828 C823 1.390 . S
C828 C827 1.387 . S
H829 C841 0.930 . S
H830 C843 0.930 . S
H831 C844 0.930 1_655 S
H832 C848 0.959 . S
H833 C848 0.959 . S
H834 C848 0.961 . S
H835 C849 0.960 . S
H836 C849 0.961 . S
H837 C849 0.946 1_655 S
H838 C852 0.929 . S
H839 C853 0.931 . S
H840 C855 0.930 . S
C841 H829 0.930 . S
C841 C842 1.399 . S
C841 C846 1.399 . S
C842 C841 1.399 . S
C842 C843 1.376 . S
C843 H830 0.930 . S
C843 C842 1.376 . S
C843 C844 1.388 . S
C844 H831 0.930 1_455 S
C844 C843 1.388 . S
C844 C845 1.390 . S
C845 C844 1.390 . S
C845 C846 1.394 . S
C845 C851 1.465 1_455 S
C846 C841 1.399 . S
C846 C845 1.394 . S
C846 C847 1.516 . S
C847 C846 1.516 . S
C847 C848 1.502 . S
C847 C849 1.561 . S
C847 C850 1.526 1_455 S
C848 H832 0.959 . S
C848 H833 0.959 . S
C848 H834 0.961 . S
C848 C847 1.502 . S
C849 H835 0.960 . S
C849 H836 0.961 . S
C849 H837 0.946 1_455 S
C849 C847 1.561 . S
C850 C847 1.526 1_655 S
C850 C851 1.396 . S
C850 C855 1.390 . S
C851 C845 1.465 1_655 S
C851 C850 1.396 . S
C851 C852 1.399 . S
C852 H838 0.929 . S
C852 C851 1.399 . S
C852 C853 1.385 . S
C853 H839 0.931 . S
C853 C852 1.385 . S
C853 C854 1.389 . S
C854 C853 1.389 . S
C854 C855 1.387 . S
C855 H840 0.930 . S
C855 C850 1.390 . S
C855 C854 1.387 . S
H856 C868 0.930 . S
H857 C870 0.930 . S
H858 C871 0.930 . S
H859 C875 0.959 . S
H860 C875 0.959 . S
H861 C875 0.961 . S
H862 C876 0.960 . S
H863 C876 0.961 1_655 S
H864 C876 0.959 . S
H865 C879 0.929 . S
H866 C880 0.931 . S
H867 C882 0.930 . S
C868 H856 0.930 . S
C868 C869 1.399 . S
C868 C873 1.399 . S
C869 C868 1.399 . S
C869 C870 1.376 . S
C870 H857 0.930 . S
C870 C869 1.376 . S
C870 C871 1.388 . S
C871 H858 0.930 . S
C871 C870 1.388 . S
C871 C872 1.390 . S
C872 C871 1.390 . S
C872 C873 1.394 . S
C872 C878 1.465 1_455 S
C873 C868 1.399 . S
C873 C872 1.394 . S
C873 C874 1.516 1_455 S
C874 C873 1.516 1_655 S
C874 C875 1.502 . S
C874 C876 1.561 1_655 S
C874 C877 1.526 . S
C875 H859 0.959 . S
C875 H860 0.959 . S
C875 H861 0.961 . S
C875 C874 1.502 . S
C876 H862 0.960 . S
C876 H863 0.961 1_455 S
C876 H864 0.959 . S
C876 C874 1.561 1_455 S
C877 C874 1.526 . S
C877 C878 1.396 . S
C877 C882 1.390 . S
C878 C872 1.465 1_655 S
C878 C877 1.396 . S
C878 C879 1.399 . S
C879 H865 0.929 . S
C879 C878 1.399 . S
C879 C880 1.385 . S
C880 H866 0.931 . S
C880 C879 1.385 . S
C880 C881 1.389 . S
C881 C880 1.389 . S
C881 C882 1.387 . S
C882 H867 0.930 . S
C882 C877 1.390 . S
C882 C881 1.387 . S
H883 C895 0.930 . S
H884 C897 0.930 . S
H885 C898 0.930 . S
H886 C902 0.959 . S
H887 C902 0.959 . S
H888 C902 0.961 . S
H889 C903 0.960 . S
H890 C903 0.961 . S
H891 C903 0.959 . S
H892 C906 0.929 . S
H893 C907 0.931 . S
H894 C909 0.930 . S
C895 H883 0.930 . S
C895 C896 1.399 . S
C895 C900 1.399 . S
C896 C895 1.399 . S
C896 C897 1.376 . S
C897 H884 0.930 . S
C897 C896 1.376 . S
C897 C898 1.388 . S
C898 H885 0.930 . S
C898 C897 1.388 . S
C898 C899 1.390 . S
C899 C898 1.390 . S
C899 C900 1.394 . S
C899 C905 1.465 . S
C900 C895 1.399 . S
C900 C899 1.394 . S
C900 C901 1.516 . S
C901 C900 1.516 . S
C901 C902 1.502 . S
C901 C903 1.561 . S
C901 C904 1.526 . S
C902 H886 0.959 . S
C902 H887 0.959 . S
C902 H888 0.961 . S
C902 C901 1.502 . S
C903 H889 0.960 . S
C903 H890 0.961 . S
C903 H891 0.959 . S
C903 C901 1.561 . S
C904 C901 1.526 . S
C904 C905 1.396 . S
C904 C909 1.390 . S
C905 C899 1.465 . S
C905 C904 1.396 . S
C905 C906 1.399 . S
C906 H892 0.929 . S
C906 C905 1.399 . S
C906 C907 1.385 . S
C907 H893 0.931 . S
C907 C906 1.385 . S
C907 C908 1.389 . S
C908 C907 1.389 . S
C908 C909 1.387 . S
C909 H894 0.930 . S
C909 C904 1.390 . S
C909 C908 1.387 . S
H910 C922 0.930 . S
H911 C924 0.930 . S
H912 C925 0.930 . S
H913 C929 0.959 . S
H914 C929 0.959 . S
H915 C929 0.961 . S
H916 C930 0.960 . S
H917 C930 0.961 . S
H918 C930 0.959 . S
H919 C933 0.929 . S
H920 C934 0.931 . S
H921 C936 0.930 . S
C922 H910 0.930 . S
C922 C923 1.399 . S
C922 C927 1.399 . S
C923 C922 1.399 . S
C923 C924 1.376 . S
C924 H911 0.930 . S
C924 C923 1.376 . S
C924 C925 1.388 . S
C925 H912 0.930 . S
C925 C924 1.388 . S
C925 C926 1.390 . S
C926 C925 1.390 . S
C926 C927 1.394 . S
C926 C932 1.465 . S
C927 C922 1.399 . S
C927 C926 1.394 . S
C927 C928 1.516 . S
C928 C927 1.516 . S
C928 C929 1.502 . S
C928 C930 1.561 . S
C928 C931 1.526 . S
C929 H913 0.959 . S
C929 H914 0.959 . S
C929 H915 0.961 . S
C929 C928 1.502 . S
C930 H916 0.960 . S
C930 H917 0.961 . S
C930 H918 0.959 . S
C930 C928 1.561 . S
C931 C928 1.526 . S
C931 C932 1.396 . S
C931 C936 1.390 . S
C932 C926 1.465 . S
C932 C931 1.396 . S
C932 C933 1.399 . S
C933 H919 0.929 . S
C933 C932 1.399 . S
C933 C934 1.385 . S
C934 H920 0.931 . S
C934 C933 1.385 . S
C934 C935 1.389 . S
C935 C934 1.389 . S
C935 C936 1.387 . S
C936 H921 0.930 . S
C936 C931 1.390 . S
C936 C935 1.387 . S
H937 C949 0.930 . S
H938 C951 0.930 . S
H939 C952 0.930 . S
H940 C956 0.959 . S
H941 C956 0.959 . S
H942 C956 0.961 . S
H943 C957 0.960 . S
H944 C957 0.961 . S
H945 C957 0.959 . S
H946 C960 0.929 . S
H947 C961 0.931 . S
H948 C963 0.930 . S
C949 H937 0.930 . S
C949 C950 1.399 . S
C949 C954 1.399 . S
C950 C949 1.399 . S
C950 C951 1.376 . S
C951 H938 0.930 . S
C951 C950 1.376 . S
C951 C952 1.388 . S
C952 H939 0.930 . S
C952 C951 1.388 . S
C952 C953 1.390 . S
C953 C952 1.390 . S
C953 C954 1.394 . S
C953 C959 1.465 . S
C954 C949 1.399 . S
C954 C953 1.394 . S
C954 C955 1.516 . S
C955 C954 1.516 . S
C955 C956 1.502 . S
C955 C957 1.561 1_545 S
C955 C958 1.526 1_545 S
C956 H940 0.959 . S
C956 H941 0.959 . S
C956 H942 0.961 . S
C956 C955 1.502 . S
C957 H943 0.960 . S
C957 H944 0.961 . S
C957 H945 0.959 . S
C957 C955 1.561 1_565 S
C958 C955 1.526 1_565 S
C958 C959 1.396 1_565 S
C958 C963 1.390 . S
C959 C953 1.465 . S
C959 C958 1.396 1_545 S
C959 C960 1.399 . S
C960 H946 0.929 . S
C960 C959 1.399 . S
C960 C961 1.385 1_545 S
C961 H947 0.931 . S
C961 C960 1.385 1_565 S
C961 C962 1.389 . S
C962 C961 1.389 . S
C962 C963 1.387 . S
C963 H948 0.930 . S
C963 C958 1.390 . S
C963 C962 1.387 . S
H964 C976 0.930 . S
H965 C978 0.930 . S
H966 C979 0.930 . S
H967 C983 0.959 . S
H968 C983 0.959 . S
H969 C983 0.961 . S
H970 C984 0.960 . S
H971 C984 0.961 . S
H972 C984 0.959 . S
H973 C987 0.929 . S
H974 C988 0.931 . S
H975 C990 0.930 . S
C976 H964 0.930 . S
C976 C977 1.399 . S
C976 C981 1.399 . S
C977 C976 1.399 . S
C977 C978 1.376 . S
C978 H965 0.930 . S
C978 C977 1.376 . S
C978 C979 1.388 . S
C979 H966 0.930 . S
C979 C978 1.388 . S
C979 C980 1.390 . S
C980 C979 1.390 . S
C980 C981 1.394 . S
C980 C986 1.465 . S
C981 C976 1.399 . S
C981 C980 1.394 . S
C981 C982 1.516 . S
C982 C981 1.516 . S
C982 C983 1.502 . S
C982 C984 1.561 . S
C982 C985 1.526 . S
C983 H967 0.959 . S
C983 H968 0.959 . S
C983 H969 0.961 . S
C983 C982 1.502 . S
C984 H970 0.960 . S
C984 H971 0.961 . S
C984 H972 0.959 . S
C984 C982 1.561 . S
C985 C982 1.526 . S
C985 C986 1.396 . S
C985 C990 1.390 . S
C986 C980 1.465 . S
C986 C985 1.396 . S
C986 C987 1.399 . S
C987 H973 0.929 . S
C987 C986 1.399 . S
C987 C988 1.385 . S
C988 H974 0.931 . S
C988 C987 1.385 . S
C988 C989 1.389 . S
C989 C988 1.389 . S
C989 C990 1.387 . S
C990 H975 0.930 . S
C990 C985 1.390 . S
C990 C989 1.387 . S
H991 C1003 0.930 . S
H992 C1005 0.930 . S
H993 C1006 0.930 . S
H994 C1010 0.959 . S
H995 C1010 0.959 . S
H996 C1010 0.961 . S
H997 C1011 0.960 . S
H998 C1011 0.961 . S
H999 C1011 0.959 . S
H1000 C1014 0.929 . S
H1001 C1015 0.931 . S
H1002 C1017 0.930 . S
C1003 H991 0.930 . S
C1003 C1004 1.399 . S
C1003 C1008 1.399 . S
C1004 C1003 1.399 . S
C1004 C1005 1.376 . S
C1005 H992 0.930 . S
C1005 C1004 1.376 . S
C1005 C1006 1.388 . S
C1006 H993 0.930 . S
C1006 C1005 1.388 . S
C1006 C1007 1.390 . S
C1007 C1006 1.390 . S
C1007 C1008 1.394 . S
C1007 C1013 1.465 . S
C1008 C1003 1.399 . S
C1008 C1007 1.394 . S
C1008 C1009 1.516 . S
C1009 C1008 1.516 . S
C1009 C1010 1.502 . S
C1009 C1011 1.561 . S
C1009 C1012 1.526 . S
C1010 H994 0.959 . S
C1010 H995 0.959 . S
C1010 H996 0.961 . S
C1010 C1009 1.502 . S
C1011 H997 0.960 . S
C1011 H998 0.961 . S
C1011 H999 0.959 . S
C1011 C1009 1.561 . S
C1012 C1009 1.526 . S
C1012 C1013 1.396 . S
C1012 C1017 1.390 . S
C1013 C1007 1.465 . S
C1013 C1012 1.396 . S
C1013 C1014 1.399 . S
C1014 H1000 0.929 . S
C1014 C1013 1.399 . S
C1014 C1015 1.385 . S
C1015 H1001 0.931 . S
C1015 C1014 1.385 . S
C1015 C1016 1.389 . S
C1016 C1015 1.389 . S
C1016 C1017 1.387 . S
C1017 H1002 0.930 . S
C1017 C1012 1.390 . S
C1017 C1016 1.387 . S
H1018 C1030 0.930 . S
H1019 C1032 0.930 . S
H1020 C1033 0.930 . S
H1021 C1037 0.959 1_545 S
H1022 C1037 0.959 . S
H1023 C1037 0.961 1_545 S
H1024 C1038 0.960 . S
H1025 C1038 0.961 . S
H1026 C1038 0.959 . S
H1027 C1041 0.929 1_545 S
H1028 C1042 0.931 . S
H1029 C1044 0.930 . S
C1030 H1018 0.930 . S
C1030 C1031 1.399 . S
C1030 C1035 1.399 . S
C1031 C1030 1.399 . S
C1031 C1032 1.376 . S
C1032 H1019 0.930 . S
C1032 C1031 1.376 . S
C1032 C1033 1.388 . S
C1033 H1020 0.930 . S
C1033 C1032 1.388 . S
C1033 C1034 1.390 . S
C1034 C1033 1.390 . S
C1034 C1035 1.394 . S
C1034 C1040 1.465 1_545 S
C1035 C1030 1.399 . S
C1035 C1034 1.394 . S
C1035 C1036 1.516 1_545 S
C1036 C1035 1.516 1_565 S
C1036 C1037 1.502 . S
C1036 C1038 1.561 . S
C1036 C1039 1.526 . S
C1037 H1021 0.959 1_565 S
C1037 H1022 0.959 . S
C1037 H1023 0.961 1_565 S
C1037 C1036 1.502 . S
C1038 H1024 0.960 . S
C1038 H1025 0.961 . S
C1038 H1026 0.959 . S
C1038 C1036 1.561 . S
C1039 C1036 1.526 . S
C1039 C1040 1.396 . S
C1039 C1044 1.390 . S
C1040 C1034 1.465 1_565 S
C1040 C1039 1.396 . S
C1040 C1041 1.399 . S
C1041 H1027 0.929 1_565 S
C1041 C1040 1.399 . S
C1041 C1042 1.385 . S
C1042 H1028 0.931 . S
C1042 C1041 1.385 . S
C1042 C1043 1.389 . S
C1043 C1042 1.389 . S
C1043 C1044 1.387 . S
C1044 H1029 0.930 . S
C1044 C1039 1.390 . S
C1044 C1043 1.387 . S
H1045 C1057 0.930 . S
H1046 C1059 0.930 . S
H1047 C1060 0.930 . S
H1048 C1064 0.959 . S
H1049 C1064 0.959 . S
H1050 C1064 0.961 . S
H1051 C1065 0.960 . S
H1052 C1065 0.961 . S
H1053 C1065 0.959 . S
H1054 C1068 0.929 . S
H1055 C1069 0.931 . S
H1056 C1071 0.930 . S
C1057 H1045 0.930 . S
C1057 C1058 1.399 . S
C1057 C1062 1.399 . S
C1058 C1057 1.399 . S
C1058 C1059 1.376 . S
C1059 H1046 0.930 . S
C1059 C1058 1.376 . S
C1059 C1060 1.388 . S
C1060 H1047 0.930 . S
C1060 C1059 1.388 . S
C1060 C1061 1.390 . S
C1061 C1060 1.390 . S
C1061 C1062 1.394 . S
C1061 C1067 1.465 . S
C1062 C1057 1.399 . S
C1062 C1061 1.394 . S
C1062 C1063 1.516 . S
C1063 C1062 1.516 . S
C1063 C1064 1.502 . S
C1063 C1065 1.561 . S
C1063 C1066 1.526 . S
C1064 H1048 0.959 . S
C1064 H1049 0.959 . S
C1064 H1050 0.961 . S
C1064 C1063 1.502 . S
C1065 H1051 0.960 . S
C1065 H1052 0.961 . S
C1065 H1053 0.959 . S
C1065 C1063 1.561 . S
C1066 C1063 1.526 . S
C1066 C1067 1.396 . S
C1066 C1071 1.390 . S
C1067 C1061 1.465 . S
C1067 C1066 1.396 . S
C1067 C1068 1.399 . S
C1068 H1054 0.929 . S
C1068 C1067 1.399 . S
C1068 C1069 1.385 . S
C1069 H1055 0.931 . S
C1069 C1068 1.385 . S
C1069 C1070 1.389 . S
C1070 C1069 1.389 . S
C1070 C1071 1.387 . S
C1071 H1056 0.930 . S
C1071 C1066 1.390 . S
C1071 C1070 1.387 . S
C221 C3 1.230 . S
C233 C172 1.199 . S
C248 C18 1.228 . S
C260 C122 1.207 . S
C275 C185 0.784 . S
C287 C29 0.893 . S
C302 C42 0.793 . S
C314 C200 0.854 . S
C329 C57 1.226 . S
C341 C81 1.214 . S
C356 C135 1.210 . S
C368 C70 1.234 . S
C383 C146 0.815 . S
C395 C94 0.895 . S
C410 C109 0.794 . S
C422 C159 0.844 . S
C437 C30 1.862 . S
C449 C5 1.844 . S
C464 C16 1.829 . S
C476 C43 1.863 . S
C491 C161 1.623 . S
C503 C10 1.635 . S
C518 C17 1.601 . S
C530 C148 1.631 . S
C545 C56 1.609 . S
C557 C31 1.628 . S
C572 C134 1.612 . S
C584 C44 1.627 . S
C599 C23 2.093 . S
C611 C4 2.083 . S
C626 C49 1.033 . S
C638 C36 1.069 . S
C653 C140 2.095 . S
C665 C62 2.083 . S
C680 C96 1.609 . S
C692 C75 1.616 . S
C707 C82 1.610 . S
C719 C107 1.612 . S
C734 C205 1.730 . S
C746 C69 1.705 . S
C761 C88 1.728 . S
C773 C186 1.711 . S
C788 C121 1.697 . S
C800 C95 1.719 . S
C815 C114 1.720 . S
C827 C179 1.719 . S
C842 C83 2.101 . S
C854 C68 2.115 . S
C869 C108 1.091 . S
C881 C101 1.137 . S
C896 C120 2.105 . S
C908 C174 2.114 . S
C923 C133 1.859 . S
C935 C147 1.859 . S
C950 C160 1.862 . S
C962 C55 1.849 . S
C977 C166 1.029 . S
C989 C153 1.070 . S
C1004 C187 1.624 . S
C1016 C173 1.572 . S
C1031 C127 1.581 . S
C1043 C198 1.619 . S
C1058 C199 1.091 . S
C1070 C192 1.138 . S
