# Generated by pormake.
# Topology uom, (4)-cn, num edge types: 1
# Building blocks:
#     Node 0, Type 0, BuildingBlock: NAWXER_clean_sbu_0, # of connection points: 4
#     Node 1, Type 0, BuildingBlock: NAWXER_clean_sbu_0, # of connection points: 4
#     Node 2, Type 0, BuildingBlock: NAWXER_clean_sbu_0, # of connection points: 4
#     Node 3, Type 0, BuildingBlock: NAWXER_clean_sbu_0, # of connection points: 4
#     Node 4, Type 0, BuildingBlock: NAWXER_clean_sbu_0, # of connection points: 4
#     Node 5, Type 0, BuildingBlock: NAWXER_clean_sbu_0, # of connection points: 4
#     Edge 6, Type (0, 0), BuildingBlock: MIFKUJ_clean_linker_0, # of connection points: 2
#     Edge 7, Type (0, 0), BuildingBlock: MIFKUJ_clean_linker_0, # of connection points: 2
#     Edge 8, Type (0, 0), BuildingBlock: MIFKUJ_clean_linker_0, # of connection points: 2
#     Edge 9, Type (0, 0), BuildingBlock: MIFKUJ_clean_linker_0, # of connection points: 2
#     Edge 10, Type (0, 0), BuildingBlock: MIFKUJ_clean_linker_0, # of connection points: 2
#     Edge 11, Type (0, 0), BuildingBlock: MIFKUJ_clean_linker_0, # of connection points: 2
#     Edge 12, Type (0, 0), BuildingBlock: MIFKUJ_clean_linker_0, # of connection points: 2
#     Edge 13, Type (0, 0), BuildingBlock: MIFKUJ_clean_linker_0, # of connection points: 2
#     Edge 14, Type (0, 0), BuildingBlock: MIFKUJ_clean_linker_0, # of connection points: 2
#     Edge 15, Type (0, 0), BuildingBlock: MIFKUJ_clean_linker_0, # of connection points: 2
#     Edge 16, Type (0, 0), BuildingBlock: MIFKUJ_clean_linker_0, # of connection points: 2
#     Edge 17, Type (0, 0), BuildingBlock: MIFKUJ_clean_linker_0, # of connection points: 2
# Relax obj value: 0.104
# Max RMSD: 0.115
# Mean RMSD: 0.115
data_MOF--net-uom--node1-NAWXER_clean_sbu_0--edge1-MIFKUJ_clean_linker_0
_symmetry_space_group_name_H-M    P1
_symmetry_Int_Tables_number       1
_symmetry_cell_setting            triclinic
loop_
_symmetry_equiv_pos_as_xyz
'x, y, z'
_cell_length_a     37.314186
_cell_length_b     37.396182
_cell_length_c     50.949999
_cell_angle_alpha  89.860581
_cell_angle_beta   90.116096
_cell_angle_gamma 119.79647
loop_
_atom_site_label
_atom_site_type_symbol
_atom_site_fract_x
_atom_site_fract_y
_atom_site_fract_z
_atom_type_partial_charge
C0 C 0.23939 0.97981 1.00807 0.0
C1 C 0.28109 0.05166 0.09255 0.0
O2 O 0.2669 0.01795 1.00577 0.0
Zn3 Zn 0.30149 0.07049 0.03095 0.0
O4 O 0.22753 0.96443 0.03084 0.0
Zn5 Zn 0.26203 0.01449 0.05051 0.0
O6 O 0.23488 0.05113 0.03876 0.0
O7 O 0.28236 0.10641 1.01781 0.0
O8 O 0.25757 0.0134 0.08843 0.0
O9 O 0.29887 0.07578 0.07301 0.0
O10 O 0.35791 0.0861 0.02438 0.0
O11 O 0.32352 0.02544 0.04373 0.0
C12 C 0.24569 0.08477 0.02625 0.0
C13 C 0.35706 0.0542 0.0337 0.0
C14 C 0.36485 0.35936 0.36963 0.0
C15 C 0.22209 0.25147 0.36347 0.0
O16 O 0.35945 0.32551 0.37961 0.0
Zn17 Zn 0.30829 0.26483 0.38652 0.0
O18 O 0.33417 0.36125 0.36049 0.0
Zn19 Zn 0.29259 0.30553 0.36724 0.0
O20 O 0.28547 0.30297 0.40935 0.0
O21 O 0.30505 0.26008 0.42449 0.0
O22 O 0.23749 0.28805 0.35478 0.0
O23 O 0.24476 0.2399 0.37556 0.0
O24 O 0.32183 0.22907 0.36624 0.0
O25 O 0.30844 0.26966 0.34166 0.0
C26 C 0.29124 0.2845 0.42879 0.0
C27 C 0.31802 0.24123 0.34361 0.0
C28 C 0.13067 0.31605 0.67843 0.0
C29 C 0.05908 0.28611 0.76316 0.0
O30 O 0.09305 0.30777 0.67626 0.0
Zn31 Zn 0.04102 0.29179 0.70178 0.0
O32 O 0.14568 0.31791 0.70114 0.0
Zn33 Zn 0.09621 0.30439 0.72115 0.0
O34 O 0.05704 0.24207 0.70868 0.0
O35 O 0.00261 0.23786 0.6883 0.0
O36 O 0.09676 0.29742 0.75882 0.0
O37 O 0.03554 0.28325 0.74392 0.0
O38 O 0.0279 0.33419 0.69585 0.0
O39 O 0.08786 0.35719 0.71591 0.0
C40 C 0.02292 0.22098 0.69631 0.0
C41 C 0.06001 0.36379 0.70596 0.0
C42 C 0.7289 0.0298 0.03138 0.0
C43 C 0.84833 0.01061 0.03233 0.0
O44 O 0.76076 0.06057 0.04152 0.0
Zn45 Zn 0.82326 0.07763 0.05044 0.0
O46 O 0.73115 -0.00116 0.02341 0.0
Zn47 Zn 0.78815 0.01879 0.0322 0.0
O48 O 0.78802 0.01762 0.07445 0.0
O49 O 0.82601 0.08145 0.08854 0.0
O50 O 0.81281 0.98548 0.0232 0.0
O51 O 0.85506 0.04446 0.04288 0.0
O52 O 0.85571 0.1265 0.02884 0.0
O53 O 0.82203 0.06946 1.00573 0.0
C54 C 0.80356 0.04323 0.09352 0.0
C55 C 0.84706 0.10841 1.00669 0.0
C56 C 0.8849 0.86314 0.36547 0.0
C57 C 0.75275 0.73594 0.36845 0.0
O58 O 0.856 0.86683 0.37644 0.0
Zn59 Zn 0.79186 0.82989 0.38629 0.0
O60 O 0.87819 0.82779 0.35814 0.0
Zn61 Zn 0.82054 0.79887 0.36808 0.0
O62 O 0.79901 0.82917 0.34173 0.0
O63 O 0.76951 0.85761 0.36464 0.0
O64 O 0.78703 0.74081 0.36031 0.0
O65 O 0.75102 0.76658 0.37821 0.0
O66 O 0.79222 0.83304 0.42461 0.0
O67 O 0.82478 0.80151 0.40994 0.0
C68 C 0.78131 0.85105 0.34263 0.0
C69 C 0.813 0.81514 0.4292 0.0
C70 C 0.06118 0.74705 0.7018 0.0
C71 C 0.06148 0.87643 0.69231 0.0
O72 O 0.02886 0.74547 0.71173 0.0
Zn73 Zn 0.00561 0.78672 0.71823 0.0
O74 O 0.08937 0.78065 0.69217 0.0
Zn75 Zn 0.06352 0.81333 0.69852 0.0
O76 O 0.06803 0.82194 0.74023 0.0
O77 O 0.00489 0.79126 0.75624 0.0
O78 O 0.09016 0.86938 0.68547 0.0
O79 O 0.03013 0.84888 0.70491 0.0
O80 O 0.95408 0.76186 0.69868 0.0
O81 O 0.00952 0.78628 0.67355 0.0
C82 C 0.04365 0.81207 0.75998 0.0
C83 C 0.97013 0.7689 0.67589 0.0
H84 H 0.31625 0.13249 0.10685 0.0
H85 H 0.32588 0.16095 0.15095 0.0
H86 H 0.27133 0.03848 0.18373 0.0
H87 H 0.26023 0.00961 0.1394 0.0
H88 H 0.24264 0.07921 0.2085 0.0
H89 H 0.37867 0.10916 0.18619 0.0
H90 H 0.44147 0.13529 0.1591 0.0
H91 H 0.45934 0.25775 0.16353 0.0
H92 H 0.39632 0.23227 0.19034 0.0
H93 H 0.30964 0.16428 0.33843 0.0
H94 H 0.30568 0.12816 0.29736 0.0
H95 H 0.32925 0.23609 0.25312 0.0
H96 H 0.33202 0.27185 0.29383 0.0
H97 H 0.37624 0.19765 0.23683 0.0
H98 H 0.23554 0.16455 0.25485 0.0
H99 H 0.17098 0.13703 0.2802 0.0
H100 H 0.16336 0.01878 0.28446 0.0
H101 H 0.22807 0.04569 0.25914 0.0
C102 C 0.30645 0.11154 0.12342 0.0
C103 C 0.28763 0.06874 0.11955 0.0
C104 C 0.31222 0.12792 0.14872 0.0
C105 C 0.30014 0.10202 0.17085 0.0
C106 C 0.28112 0.0592 0.16705 0.0
C107 C 0.27485 0.04271 0.14167 0.0
C108 C 0.30621 0.11971 0.19781 0.0
C109 C 0.27215 0.10451 0.21484 0.0
C110 C 0.34451 0.1532 0.20615 0.0
C111 C 0.38257 0.16872 0.19012 0.0
C112 C 0.39584 0.14162 0.18124 0.0
C113 C 0.4315 0.15632 0.16596 0.0
C114 C 0.45433 0.19814 0.15956 0.0
C115 C 0.44161 0.22536 0.16849 0.0
C116 C 0.40595 0.21081 0.18376 0.0
C117 C 0.31434 0.18042 0.31996 0.0
C118 C 0.32096 0.22088 0.31938 0.0
C119 C 0.31189 0.15968 0.29653 0.0
C120 C 0.31689 0.17938 0.2722 0.0
C121 C 0.32523 0.22031 0.27167 0.0
C122 C 0.32681 0.24069 0.29497 0.0
C123 C 0.31264 0.15739 0.24714 0.0
C124 C 0.34703 0.17185 0.23053 0.0
C125 C 0.27482 0.12302 0.2393 0.0
C126 C 0.23689 0.10726 0.2554 0.0
C127 C 0.22038 0.13282 0.26147 0.0
C128 C 0.18362 0.11727 0.27569 0.0
C129 C 0.16305 0.07617 0.28393 0.0
C130 C 0.1793 0.05059 0.27805 0.0
C131 C 0.21598 0.06596 0.26373 0.0
H132 H 0.13452 0.06417 0.29488 0.0
H133 H 0.48193 0.20946 0.14772 0.0
H134 H 0.25298 0.32743 0.44345 0.0
H135 H 0.23283 0.33606 0.48739 0.0
H136 H 0.28515 0.26529 0.51961 0.0
H137 H 0.30452 0.25555 0.47538 0.0
H138 H 0.21313 0.24152 0.54122 0.0
H139 H 0.33278 0.3721 0.52689 0.0
H140 H 0.37868 0.43622 0.50296 0.0
H141 H 0.28568 0.47183 0.50592 0.0
H142 H 0.23894 0.40761 0.5295 0.0
H143 H 0.1965 0.30307 0.6733 0.0
H144 H 0.22944 0.29987 0.63237 0.0
H145 H 0.15232 0.33413 0.58838 0.0
H146 H 0.11816 0.33582 0.62898 0.0
H147 H 0.2433 0.37787 0.57534 0.0
H148 H 0.12197 0.24313 0.58484 0.0
H149 H 0.07513 0.17694 0.60625 0.0
H150 H 0.17389 0.14977 0.61257 0.0
H151 H 0.22153 0.21614 0.59133 0.0
C152 C 0.2605 0.31387 0.45985 0.0
C153 C 0.28055 0.2909 0.45582 0.0
C154 C 0.24912 0.31905 0.48507 0.0
C155 C 0.25803 0.30195 0.507 0.0
C156 C 0.27805 0.27895 0.50307 0.0
C157 C 0.2892 0.27349 0.47775 0.0
C158 C 0.24503 0.30692 0.53381 0.0
C159 C 0.22056 0.27148 0.54887 0.0
C160 C 0.25402 0.34592 0.54375 0.0
C161 C 0.28222 0.38485 0.52981 0.0
C162 C 0.322 0.39347 0.52229 0.0
C163 C 0.34819 0.42985 0.5088 0.0
C164 C 0.33508 0.45804 0.50289 0.0
C165 C 0.29579 0.44995 0.51051 0.0
C166 C 0.26945 0.41358 0.52397 0.0
C167 C 0.18682 0.31029 0.65494 0.0
C168 C 0.15459 0.31954 0.65438 0.0
C169 C 0.20558 0.30831 0.63159 0.0
C170 C 0.19315 0.31658 0.60736 0.0
C171 C 0.16232 0.32762 0.60687 0.0
C172 C 0.14285 0.32857 0.63009 0.0
C173 C 0.21128 0.31251 0.58239 0.0
C174 C 0.23661 0.3481 0.56776 0.0
C175 C 0.20341 0.27375 0.57292 0.0
C176 C 0.17543 0.23483 0.58682 0.0
C177 C 0.13387 0.22334 0.59115 0.0
C178 C 0.10711 0.18566 0.6031 0.0
C179 C 0.12148 0.15908 0.6107 0.0
C180 C 0.16278 0.17034 0.6066 0.0
C181 C 0.18967 0.20798 0.5946 0.0
H182 H 0.10063 0.1298 0.6198 0.0
H183 H 0.35538 0.48618 0.49243 0.0
H184 H 0.83628 0.07642 0.95743 0.0
H185 H 0.87471 0.10977 0.91783 0.0
H186 H 0.94429 0.2239 0.96014 0.0
H187 H 0.90635 0.19016 1.00037 0.0
H188 H 0.88123 0.16733 0.88839 0.0
H189 H 0.04248 0.27765 0.93475 0.0
H190 H 0.08456 0.27889 0.97257 0.0
H191 H 0.01741 0.14669 0.97585 0.0
H192 H 0.97528 0.14464 0.93791 0.0
H193 H -0.00216 0.29575 0.78505 0.0
H194 H 0.96532 0.27146 0.82793 0.0
H195 H 0.04596 0.22193 0.84363 0.0
H196 H 0.0805 0.24901 0.80151 0.0
H197 H 0.03434 0.24525 0.88674 0.0
H198 H 0.94059 0.1616 0.82051 0.0
H199 H 0.89858 0.14498 0.78022 0.0
H200 H 0.83016 0.19838 0.81326 0.0
H201 H 0.87216 0.21582 0.85363 0.0
C202 C 0.85955 0.10872 0.95842 0.0
C203 C 0.86816 0.13057 0.98221 0.0
C204 C 0.88155 0.12781 0.93563 0.0
C205 C 0.91278 0.16933 0.9359 0.0
C206 C 0.92082 0.19166 0.95945 0.0
C207 C 0.89885 0.17243 0.98242 0.0
C208 C 0.9366 0.18879 0.91144 0.0
C209 C 0.91472 0.18456 0.88811 0.0
C210 C 0.98034 0.21003 0.91069 0.0
C211 C 0.00535 0.21107 0.93369 0.0
C212 C 0.0367 0.24887 0.94354 0.0
C213 C 0.06057 0.24969 0.96499 0.0
C214 C 0.05353 0.2129 0.97667 0.0
C215 C 0.02268 0.17517 0.96688 0.0
C216 C -0.00126 0.17418 0.94544 0.0
C217 C 0.00891 0.28011 0.79783 0.0
C218 C 0.04153 0.27406 0.7899 0.0
C219 C 0.99008 0.26589 0.8223 0.0
C220 C 0.0022 0.24366 0.83894 0.0
C221 C 0.03578 0.23882 0.83131 0.0
C222 C 0.0555 0.25423 0.80716 0.0
C223 C 0.97893 0.22419 0.86367 0.0
C224 C 0.00086 0.22838 0.88705 0.0
C225 C 0.93515 0.20079 0.86421 0.0
C226 C 0.90982 0.19042 0.83997 0.0
C227 C 0.91678 0.17006 0.8191 0.0
C228 C 0.89295 0.16046 0.79626 0.0
C229 C 0.8618 0.17073 0.79415 0.0
C230 C 0.85435 0.19053 0.8149 0.0
C231 C 0.87814 0.20026 0.83777 0.0
H232 H 0.84337 0.16326 0.77645 0.0
H233 H 0.07204 0.21361 0.99325 0.0
H234 H 0.84547 0.08358 0.13825 0.0
H235 H 0.83869 0.05399 0.18223 0.0
H236 H 0.73885 0.93804 0.15471 0.0
H237 H 0.74611 0.96691 0.11079 0.0
H238 H 0.78074 0.01881 0.21974 0.0
H239 H 0.74713 0.85977 0.17996 0.0
H240 H 0.76214 0.83094 0.14071 0.0
H241 H 0.87068 0.94749 0.12568 0.0
H242 H 0.85667 0.9768 0.16505 0.0
H243 H 0.72655 0.87732 0.32838 0.0
H244 H 0.72711 0.91272 0.28745 0.0
H245 H 0.83715 0.91156 0.26271 0.0
H246 H 0.83532 0.87473 0.3024 0.0
H247 H 0.79081 0.89158 0.22397 0.0
H248 H 0.833 -0.00125 0.28782 0.0
H249 H 0.82806 0.03382 0.32733 0.0
H250 H 0.71931 0.03045 0.29635 0.0
H251 H 0.72348 0.99502 0.25668 0.0
C252 C 0.82178 0.05192 0.14166 0.0
C253 C 0.79673 0.02746 0.1209 0.0
C254 C 0.81785 0.03507 0.16684 0.0
C255 C 0.78873 0.99354 0.17172 0.0
C256 C 0.76212 0.96989 0.15135 0.0
C257 C 0.7663 0.98651 0.12621 0.0
C258 C 0.78785 0.97395 0.19741 0.0
C259 C 0.78286 0.99094 0.22074 0.0
C260 C 0.79157 0.93811 0.19881 0.0
C261 C 0.80055 0.92057 0.17529 0.0
C262 C 0.77427 0.87918 0.16833 0.0
C263 C 0.7826 0.86276 0.14606 0.0
C264 C 0.81726 0.88741 0.13066 0.0
C265 C 0.84377 0.92847 0.13757 0.0
C266 C 0.83562 0.94501 0.15984 0.0
C267 C 0.75062 0.88454 0.31406 0.0
C268 C 0.78045 0.87266 0.31841 0.0
C269 C 0.75118 0.90505 0.29076 0.0
C270 C 0.78232 0.91512 0.27186 0.0
C271 C 0.81247 0.90386 0.27665 0.0
C272 C 0.81134 0.88267 0.29944 0.0
C273 C 0.78348 0.93617 0.24664 0.0
C274 C 0.78847 0.91935 0.2232 0.0
C275 C 0.78113 0.97287 0.24537 0.0
C276 C 0.77843 0.99394 0.26931 0.0
C277 C 0.80796 0.00531 0.28945 0.0
C278 C 0.80529 0.02528 0.31189 0.0
C279 C 0.77333 0.03429 0.31438 0.0
C280 C 0.74403 0.02341 0.29441 0.0
C281 C 0.74656 0.00342 0.27192 0.0
H282 H 0.77131 0.04975 0.33178 0.0
H283 H 0.82362 0.87466 0.11341 0.0
H284 H 0.89458 0.76438 0.67223 0.0
H285 H 0.86144 0.77026 0.63213 0.0
H286 H 0.95666 0.76781 0.58558 0.0
H287 H 0.99027 0.76297 0.62545 0.0
H288 H 0.94874 0.83124 0.57224 0.0
H289 H 0.85416 0.68658 0.58699 0.0
H290 H 0.80411 0.62611 0.61244 0.0
H291 H 0.72433 0.67786 0.61861 0.0
H292 H 0.77419 0.73892 0.59347 0.0
H293 H 0.87203 0.79646 0.44352 0.0
H294 H 0.8927 0.78873 0.4876 0.0
H295 H 0.80217 0.81516 0.52071 0.0
H296 H 0.78138 0.82356 0.47624 0.0
H297 H 0.80333 0.74467 0.54349 0.0
H298 H 0.89571 0.88695 0.52641 0.0
H299 H 0.94598 0.94788 0.50142 0.0
H300 H 0.03014 0.9009 0.50029 0.0
H301 H 0.98012 0.83939 0.52498 0.0
C302 C 0.90779 0.76398 0.6534 0.0
C303 C 0.94509 0.76327 0.65202 0.0
C304 C 0.88887 0.76746 0.63046 0.0
C305 C 0.90659 0.76963 0.60575 0.0
C306 C 0.94254 0.76655 0.60437 0.0
C307 C 0.96162 0.76352 0.62721 0.0
C308 C 0.88991 0.77823 0.58142 0.0
C309 C 0.91705 0.8119 0.56584 0.0
C310 C 0.8481 0.75422 0.57355 0.0
C311 C 0.81811 0.71751 0.58861 0.0
C312 C 0.8261 0.68522 0.59396 0.0
C313 C 0.79773 0.65081 0.60829 0.0
C314 C 0.76112 0.6482 0.61721 0.0
C315 C 0.75273 0.67995 0.61174 0.0
C316 C 0.78102 0.71445 0.59743 0.0
C317 C 0.85637 0.80067 0.4601 0.0
C318 C 0.82499 0.81064 0.45631 0.0
C319 C 0.86838 0.79636 0.48533 0.0
C320 C 0.84915 0.80158 0.50744 0.0
C321 C 0.81743 0.81106 0.50388 0.0
C322 C 0.80571 0.81598 0.47849 0.0
C323 C 0.86258 0.7968 0.53408 0.0
C324 C 0.83491 0.76404 0.55006 0.0
C325 C 0.90394 0.82163 0.54243 0.0
C326 C 0.93395 0.85833 0.5273 0.0
C327 C 0.92474 0.88939 0.52058 0.0
C328 C 0.95325 0.92409 0.50654 0.0
C329 C 0.99118 0.9282 0.49921 0.0
C330 C 0.00072 0.89765 0.50596 0.0
C331 C 0.97232 0.86288 0.52 0.0
H332 H 0.01321 0.9551 0.48834 0.0
H333 H 0.73919 0.62153 0.6283 0.0
H334 H 0.1632 0.91049 1.00343 0.0
H335 H 0.12681 0.87744 0.96275 0.0
H336 H 0.23408 0.96154 0.91789 0.0
H337 H 0.26983 0.99548 0.9583 0.0
H338 H 0.17014 0.9592 0.89729 0.0
H339 H 0.20087 0.85484 0.92657 0.0
H340 H 0.20117 0.80429 0.95762 0.0
H341 H 0.06857 0.73853 0.95874 0.0
H342 H 0.06749 0.78901 0.92793 0.0
H343 H 0.12396 0.8648 0.77307 0.0
H344 H 0.15321 0.88855 0.81664 0.0
H345 H 0.03297 0.81423 0.85129 0.0
H346 H 0.00314 0.79017 0.80747 0.0
H347 H 0.09716 0.80936 0.87825 0.0
H348 H 0.06794 0.91303 0.84657 0.0
H349 H 0.06924 0.96332 0.81465 0.0
H350 H 0.20176 0.03049 0.81746 0.0
H351 H 0.20129 0.98024 0.84912 0.0
C352 C 0.17924 0.92141 0.9849 0.0
C353 C 0.21939 0.95563 0.98408 0.0
C354 C 0.1584 0.90246 0.96162 0.0
C355 C 0.17765 0.91682 0.93711 0.0
C356 C 0.21835 0.94998 0.93645 0.0
C357 C 0.23888 0.96927 0.95961 0.0
C358 C 0.15499 0.89921 0.91203 0.0
C359 C 0.15469 0.92645 0.89309 0.0
C360 C 0.13352 0.85634 0.90669 0.0
C361 C 0.13412 0.82594 0.92517 0.0
C362 C 0.17178 0.82978 0.9336 0.0
C363 C 0.17209 0.80111 0.95112 0.0
C364 C 0.13492 0.76829 0.96021 0.0
C365 C 0.09735 0.76401 0.95172 0.0
C366 C 0.09687 0.79261 0.93421 0.0
C367 C 0.1036 0.85333 0.7899 0.0
C368 C 0.0611 0.82565 0.78672 0.0
C369 C 0.12042 0.86706 0.81483 0.0
C370 C 0.09524 0.85344 0.83721 0.0
C371 C 0.05294 0.82516 0.83426 0.0
C372 C 0.03594 0.81159 0.80921 0.0
C373 C 0.11337 0.86952 0.86351 0.0
C374 C 0.11259 0.84205 0.88263 0.0
C375 C 0.13419 0.91223 0.869 0.0
C376 C 0.13457 0.94265 0.85006 0.0
C377 C 0.09737 0.93834 0.84023 0.0
C378 C 0.09796 0.96688 0.82221 0.0
C379 C 0.13556 3e-05 0.81398 0.0
C380 C 0.17266 0.00477 0.82382 0.0
C381 C 0.17224 0.9763 0.84183 0.0
H382 H 0.13595 0.02209 0.80003 0.0
H383 H 0.13522 0.74613 0.97377 0.0
H384 H 0.21941 0.08857 0.97739 0.0
H385 H 0.15252 0.08285 0.96646 0.0
H386 H 0.13203 0.09466 0.04851 0.0
H387 H 0.19783 0.09873 0.05945 0.0
H388 H 0.08018 0.01476 0.98957 0.0
H389 H 0.07599 0.1448 0.05121 0.0
H390 H 0.11999 0.21935 0.0589 0.0
H391 H 0.18259 0.23199 0.98593 0.0
H392 H 0.13863 0.15762 0.9776 0.0
H393 H 0.90928 0.02679 0.0667 0.0
H394 H 0.97877 0.04136 0.05551 0.0
H395 H 0.93939 0.00101 0.97607 0.0
H396 H 0.86914 0.98576 0.98742 0.0
H397 H 0.02151 0.10179 1.0178 0.0
H398 H 0.01619 0.9758 0.95215 0.0
H399 H 0.97269 0.90132 0.9436 0.0
H400 H 0.93065 0.88154 0.02351 0.0
H401 H 0.97431 0.95576 0.0326 0.0
C402 C 0.20125 0.09166 0.99286 0.0
C403 C 0.21353 0.09452 0.01919 0.0
C404 C 0.16311 0.08813 0.98664 0.0
C405 C 0.1376 0.08853 1.00668 0.0
C406 C 0.1516 0.09485 0.03276 0.0
C407 C 0.1891 0.09727 0.03902 0.0
C408 C 0.09386 0.0755 1.00161 0.0
C409 C 0.06725 0.03407 0.99497 0.0
C410 C 0.07727 0.10072 1.00879 0.0
C411 C 0.10413 0.14548 1.01386 0.0
C412 C 0.09903 0.16347 0.03674 0.0
C413 C 0.12401 0.20572 0.04123 0.0
C414 C 0.15414 0.23037 0.02295 0.0
C415 C 0.15936 0.21283 1.00013 0.0
C416 C 0.13449 0.1706 0.99555 0.0
C417 C 0.91507 0.01948 0.04715 0.0
C418 C 0.88414 0.00522 0.0279 0.0
C419 C 0.95478 0.02817 0.0407 0.0
C420 C 0.96425 0.02299 1.01487 0.0
C421 C 0.93256 0.00522 0.99611 0.0
C422 C 0.89247 0.99614 1.00266 0.0
C423 C 0.00805 0.04048 1.00751 0.0
C424 C 0.03446 0.08281 1.01166 0.0
C425 C 0.02437 0.01609 0.99801 0.0
C426 C -0.00201 0.97141 0.9929 0.0
C427 C 0.99763 0.95552 0.96788 0.0
C428 C 0.973 0.91336 0.96295 0.0
C429 C 0.94876 0.88674 0.98296 0.0
C430 C 0.94925 0.90222 1.00798 0.0
C431 C 0.97387 0.94435 1.01301 0.0
H432 H 0.92971 0.85411 0.97911 0.0
H433 H 0.17339 0.26309 0.02644 0.0
H434 H 0.90263 0.94145 0.37476 0.0
H435 H 0.96207 0.00471 0.36033 0.0
H436 H 0.01488 0.93592 0.32619 0.0
H437 H 0.95412 0.87109 0.3404 0.0
H438 H 0.06991 0.00319 0.35719 0.0
H439 H 0.98771 0.98084 0.28432 0.0
H440 H 0.92525 0.95996 0.25768 0.0
H441 H 0.91167 0.05793 0.29091 0.0
H442 H 0.97353 0.07894 0.31822 0.0
H443 H 0.18774 0.2309 0.315 0.0
H444 H 0.13009 0.1628 0.30318 0.0
H445 H 0.10579 0.13211 0.38534 0.0
H446 H 0.16394 0.19928 0.39706 0.0
H447 H 0.04874 0.10887 0.31164 0.0
H448 H 0.10462 0.04221 0.39724 0.0
H449 H 0.16906 0.06263 0.42154 0.0
H450 H 0.23978 0.14044 0.35754 0.0
H451 H 0.17607 0.11986 0.33261 0.0
C452 C 0.92672 0.93936 0.36425 0.0
C453 C 0.92357 0.90108 0.35872 0.0
C454 C 0.96054 0.9757 0.35574 0.0
C455 C 0.99224 0.97484 0.34164 0.0
C456 C 0.99022 0.93696 0.33671 0.0
C457 C 0.95578 0.90013 0.345 0.0
C458 C 0.02828 0.01452 0.33411 0.0
C459 C 0.06575 0.02626 0.34684 0.0
C460 C 0.02308 0.04394 0.31959 0.0
C461 C 0.98548 0.03153 0.30337 0.0
C462 C 0.97128 -0.0022 0.28614 0.0
C463 C 0.93595 0.98593 0.27089 0.0
C464 C 0.91458 0.00766 0.27254 0.0
C465 C 0.92835 0.04119 0.28958 0.0
C466 C 0.96362 0.05314 0.30494 0.0
C467 C 0.1688 0.21017 0.33044 0.0
C468 C 0.18002 0.21982 0.35689 0.0
C469 C 0.13624 0.17125 0.32369 0.0
C470 C 0.11494 0.14206 0.34341 0.0
C471 C 0.12273 0.15394 0.36986 0.0
C472 C 0.15556 0.19235 0.37656 0.0
C473 C 0.08858 0.09799 0.33696 0.0
C474 C 0.05341 0.08568 0.32137 0.0
C475 C 0.09637 0.06783 0.34832 0.0
C476 C 0.13527 0.07923 0.36289 0.0
C477 C 0.1339 0.06319 0.38813 0.0
C478 C 0.17038 0.07491 0.40208 0.0
C479 C 0.20852 0.10272 0.39106 0.0
C480 C 0.21027 0.11874 0.36602 0.0
C481 C 0.17394 0.10696 0.35193 0.0
H482 H 0.23671 0.11193 0.40196 0.0
H483 H 0.8874 -0.00146 0.26057 0.0
H484 H 0.01567 0.1604 0.7283 0.0
H485 H 0.02132 0.1008 0.71479 0.0
H486 H 0.01516 0.12997 0.6335 0.0
H487 H 0.00799 0.18909 0.64713 0.0
H488 H 0.98385 0.04792 0.64023 0.0
H489 H 0.10461 0.17009 0.66263 0.0
H490 H 0.15033 0.23107 0.6888 0.0
H491 H 0.1528 0.15353 0.75019 0.0
H492 H 0.10625 0.0918 0.72461 0.0
H493 H 0.12331 0.94568 0.66799 0.0
H494 H 0.1196 0.00651 0.65323 0.0
H495 H 0.99466 0.95137 0.68217 0.0
H496 H -0.00203 0.89154 0.69677 0.0
H497 H 0.10845 0.05869 0.68312 0.0
H498 H 0.93574 0.97308 0.64613 0.0
H499 H 0.89147 0.91398 0.61783 0.0
H500 H -0.0013 0.92274 0.58069 0.0
H501 H 0.04377 0.98229 0.60855 0.0
C502 C 0.01365 0.15292 0.70762 0.0
C503 C 0.01151 0.17901 0.6887 0.0
C504 C 0.01729 0.11923 0.69988 0.0
C505 C 0.02035 0.11218 0.67314 0.0
C506 C 0.01359 0.13549 0.65421 0.0
C507 C 0.00912 0.1689 0.66199 0.0
C508 C 0.03565 0.08405 0.66553 0.0
C509 C 0.01118 0.05026 0.64939 0.0
C510 C 0.07292 0.08882 0.67619 0.0
C511 C 0.10197 0.12606 0.69147 0.0
C512 C 0.11494 0.16586 0.68162 0.0
C513 C 0.14095 0.20066 0.69643 0.0
C514 C 0.15464 0.19623 0.7211 0.0
C515 C 0.14229 0.15693 0.73102 0.0
C516 C 0.11609 0.12198 0.71633 0.0
C517 C 0.0951 0.94665 0.67107 0.0
C518 C 0.0611 0.91398 0.68376 0.0
C519 C 0.09292 0.98116 0.66246 0.0
C520 C 0.0565 0.98293 0.66603 0.0
C521 C 0.02266 0.95019 0.67851 0.0
C522 C 0.0249 0.91619 0.68726 0.0
C523 C 0.05438 0.02052 0.66002 0.0
C524 C 0.08167 0.05671 0.67334 0.0
C525 C 0.0203 0.01833 0.64629 0.0
C526 C 0.99322 0.98232 0.6295 0.0
C527 C 0.94997 0.96268 0.63182 0.0
C528 C 0.92471 0.92899 0.61589 0.0
C529 C 0.94227 0.91465 0.59749 0.0
C530 C 0.98516 0.93386 0.59501 0.0
C531 C 0.01059 0.96754 0.61092 0.0
H532 H 0.92261 0.8887 0.58513 0.0
H533 H 0.17474 0.22323 0.73255 0.0
H534 H 0.71862 0.09681 0.03345 0.0
H535 H 0.65394 0.09807 0.03317 0.0
H536 H 0.58573 0.96551 0.02651 0.0
H537 H 0.65073 0.96422 0.02573 0.0
H538 H 0.55135 0.99661 0.99684 0.0
H539 H 0.59517 0.0155 0.08595 0.0
H540 H 0.64293 0.04611 0.12331 0.0
H541 H 0.65202 0.16324 0.10773 0.0
H542 H 0.60476 0.13346 0.07002 0.0
H543 H 0.36178 0.98409 0.03975 0.0
H544 H 0.42392 0.97757 0.03865 0.0
H545 H 0.49874 0.10842 0.02565 0.0
H546 H 0.43677 0.1152 0.02631 0.0
H547 H 0.52687 0.07413 0.0668 0.0
H548 H 0.4821 0.05123 0.97596 0.0
H549 H 0.4313 0.01639 0.9406 0.0
H550 H 0.42005 0.90046 0.96295 0.0
H551 H 0.47038 0.93456 0.99872 0.0
C552 C 0.68986 0.06792 0.03182 0.0
C553 C 0.68969 0.03037 0.02981 0.0
C554 C 0.65288 0.06866 0.03181 0.0
C555 C 0.6149 0.03181 0.03046 0.0
C556 C 0.61466 0.99431 0.02772 0.0
C557 C 0.65178 0.99361 0.02729 0.0
C558 C 0.57562 0.03263 0.03209 0.0
C559 C 0.54579 0.01304 1.01238 0.0
C560 C 0.56835 0.05427 0.05227 0.0
C561 C 0.59669 0.07231 0.07501 0.0
C562 C 0.60758 0.04785 0.09037 0.0
C563 C 0.63453 0.06505 0.11163 0.0
C564 C 0.65057 0.10661 0.11785 0.0
C565 C 0.6396 0.13105 0.10287 0.0
C566 C 0.6127 0.11402 0.08156 0.0
C567 C 0.39146 0.01147 0.03665 0.0
C568 C 0.39444 0.05016 0.03308 0.0
C569 C 0.42683 0.00765 0.03596 0.0
C570 C 0.46572 0.04251 0.03199 0.0
C571 C 0.46889 0.08121 0.02872 0.0
C572 C 0.43349 0.08498 0.029 0.0
C573 C 0.50327 0.03873 0.03141 0.0
C574 C 0.53258 0.05762 0.05138 0.0
C575 C 0.50965 0.01581 1.0118 0.0
C576 C 0.47966 0.99537 0.99018 0.0
C577 C 0.46852 0.01825 0.97348 0.0
C578 C 0.43987 -0.00134 0.95333 0.0
C579 C 0.42237 0.95622 0.94958 0.0
C580 C 0.43359 0.93332 0.96591 0.0
C581 C 0.46219 0.95277 0.98611 0.0
H582 H 0.40019 0.9411 0.93397 0.0
H583 H 0.67143 0.11987 0.13432 0.0
H584 H 0.74601 0.65984 0.36329 0.0
H585 H 0.68244 0.59275 0.36401 0.0
H586 H 0.6105 0.65381 0.37085 0.0
H587 H 0.67366 0.72046 0.37114 0.0
H588 H 0.5827 0.59363 0.40375 0.0
H589 H 0.61945 0.60884 0.31212 0.0
H590 H 0.66458 0.61959 0.27412 0.0
H591 H 0.67033 0.51118 0.29484 0.0
H592 H 0.62562 0.50008 0.33317 0.0
H593 H 0.38466 0.43935 0.36219 0.0
H594 H 0.45349 0.50038 0.36262 0.0
H595 H 0.50789 0.42363 0.37596 0.0
H596 H 0.43898 0.36228 0.37594 0.0
H597 H 0.54677 0.48703 0.33521 0.0
H598 H 0.50386 0.47023 0.42542 0.0
H599 H 0.45542 0.45966 0.46138 0.0
H600 H 0.45863 0.57271 0.44109 0.0
H601 H 0.50658 0.58362 0.4047 0.0
C602 C 0.71658 0.65884 0.36479 0.0
C603 C 0.71477 0.69534 0.3672 0.0
C604 C 0.68028 0.62053 0.36513 0.0
C605 C 0.64162 0.61821 0.36731 0.0
C606 C 0.63992 0.65475 0.36932 0.0
C607 C 0.67608 0.69287 0.36939 0.0
C608 C 0.60273 0.57794 0.36805 0.0
C609 C 0.57479 0.57055 0.3886 0.0
C610 C 0.59271 0.54727 0.34869 0.0
C611 C 0.6196 0.55391 0.32567 0.0
C612 C 0.63062 0.58749 0.30869 0.0
C613 C 0.65607 0.59361 0.28707 0.0
C614 C 0.67042 0.56616 0.28212 0.0
C615 C 0.65925 0.53246 0.29873 0.0
C616 C 0.63384 0.52623 0.32039 0.0
C617 C 0.41125 0.43541 0.36512 0.0
C618 C 0.40645 0.39607 0.36912 0.0
C619 C 0.45047 0.47026 0.36542 0.0
C620 C 0.48555 0.46634 0.36944 0.0
C621 C 0.48105 0.42712 0.37285 0.0
C622 C 0.44174 0.39223 0.37294 0.0
C623 C 0.52681 0.5035 0.37049 0.0
C624 C 0.55507 0.51014 0.3504 0.0
C625 C 0.53695 0.53373 0.39006 0.0
C626 C 0.50855 0.52755 0.41217 0.0
C627 C 0.49399 0.49267 0.42848 0.0
C628 C 0.46666 0.48664 0.44897 0.0
C629 C 0.45388 0.51544 0.45348 0.0
C630 C 0.46852 0.55041 0.43756 0.0
C631 C 0.49581 0.55655 0.41701 0.0
H632 H 0.4327 0.5107 0.46934 0.0
H633 H 0.69011 0.57094 0.26536 0.0
H634 H 0.13182 0.74236 0.69709 0.0
H635 H 0.13812 0.68029 0.69931 0.0
H636 H 0.00591 0.60576 0.70811 0.0
H637 H -0.00027 0.66762 0.70703 0.0
H638 H 0.0405 0.58058 0.74094 0.0
H639 H 0.05946 0.61409 0.6488 0.0
H640 H 0.09192 0.65809 0.61006 0.0
H641 H 0.20827 0.66822 0.63063 0.0
H642 H 0.17659 0.62468 0.66969 0.0
H643 H -4e-05 0.3841 0.69917 0.0
H644 H 0.00733 0.45272 0.70026 0.0
H645 H 0.13799 0.50639 0.71448 0.0
H646 H 0.13084 0.43746 0.71383 0.0
H647 H 0.11266 0.54516 0.67293 0.0
H648 H 0.08781 0.5037 0.76351 0.0
H649 H 0.05088 0.45603 0.79997 0.0
H650 H 0.93992 0.45744 0.77944 0.0
H651 H 0.97602 0.50461 0.74258 0.0
C652 C 0.10414 0.71267 0.69939 0.0
C653 C 0.06529 0.70979 0.70189 0.0
C654 C 0.10775 0.67721 0.70057 0.0
C655 C 0.07244 0.63824 0.70363 0.0
C656 C 0.03363 0.63544 0.70587 0.0
C657 C 0.03011 0.67084 0.70517 0.0
C658 C 0.07553 0.60019 0.70498 0.0
C659 C 0.05603 0.5728 0.72592 0.0
C660 C 0.09669 0.59037 0.68578 0.0
C661 C 0.11577 0.61655 0.66233 0.0
C662 C 0.09204 0.62598 0.64517 0.0
C663 C 0.11028 0.65078 0.62314 0.0
C664 C 0.15216 0.66605 0.61794 0.0
C665 C 0.17586 0.65645 0.63471 0.0
C666 C 0.15777 0.63169 0.65679 0.0
C667 C 0.0303 0.41045 0.70251 0.0
C668 C 0.06483 0.40543 0.70646 0.0
C669 C 0.03441 0.44958 0.70318 0.0
C670 C 0.07315 0.4844 0.70755 0.0
C671 C 0.10787 0.47973 0.71111 0.0
C672 C 0.10368 0.44042 0.71084 0.0
C673 C 0.07685 0.52556 0.70845 0.0
C674 C 0.09762 0.55341 0.68803 0.0
C675 C 0.05627 0.53555 0.72784 0.0
C676 C 0.03456 0.50745 0.75015 0.0
C677 C 0.05545 0.49358 0.76663 0.0
C678 C 0.03468 0.46669 0.7874 0.0
C679 C 0.99306 0.45365 0.79199 0.0
C680 C 0.97215 0.46755 0.77585 0.0
C681 C 0.99277 0.4944 0.75504 0.0
H682 H 0.97703 0.43283 0.80807 0.0
H683 H 0.16623 0.68524 0.60086 0.0
loop_
_geom_bond_atom_site_label_1
_geom_bond_atom_site_label_2
_geom_bond_distance
_geom_bond_site_symmetry_2
_ccdc_geom_bond_type
C0 O2 1.247 . S
C0 O4 1.258 . S
C1 O8 1.247 . S
C1 O9 1.258 . S
O2 C0 1.247 . S
O2 Zn3 2.028 1_556 S
Zn3 O2 2.028 1_554 S
Zn3 O7 2.035 . S
Zn3 O9 2.035 . S
Zn3 O10 2.028 . S
O4 C0 1.258 . S
O4 Zn5 2.035 1_556 S
Zn5 O4 2.035 1_554 S
Zn5 O6 2.028 . S
Zn5 O8 2.028 . S
Zn5 O11 2.035 . S
O6 Zn5 2.028 . S
O6 C12 1.247 . S
O7 Zn3 2.035 . S
O7 C12 1.258 . S
O8 C1 1.247 . S
O8 Zn5 2.028 . S
O9 C1 1.258 . S
O9 Zn3 2.035 . S
O10 Zn3 2.028 . S
O10 C13 1.247 . S
O11 Zn5 2.035 . S
O11 C13 1.258 . S
C12 O6 1.247 . S
C12 O7 1.258 . S
C13 O10 1.247 . S
C13 O11 1.258 . S
C14 O16 1.247 . S
C14 O18 1.258 . S
C15 O22 1.247 . S
C15 O23 1.258 . S
O16 C14 1.247 . S
O16 Zn17 2.028 . S
Zn17 O16 2.028 . S
Zn17 O21 2.035 . S
Zn17 O23 2.035 . S
Zn17 O24 2.028 . S
O18 C14 1.258 . S
O18 Zn19 2.035 . S
Zn19 O18 2.035 . S
Zn19 O20 2.028 . S
Zn19 O22 2.028 . S
Zn19 O25 2.035 . S
O20 Zn19 2.028 . S
O20 C26 1.247 . S
O21 Zn17 2.035 . S
O21 C26 1.258 . S
O22 C15 1.247 . S
O22 Zn19 2.028 . S
O23 C15 1.258 . S
O23 Zn17 2.035 . S
O24 Zn17 2.028 . S
O24 C27 1.247 . S
O25 Zn19 2.035 . S
O25 C27 1.258 . S
C26 O20 1.247 . S
C26 O21 1.258 . S
C27 O24 1.247 . S
C27 O25 1.258 . S
C28 O30 1.247 1_455 S
C28 O32 1.258 . S
C29 O36 1.247 1_655 S
C29 O37 1.258 . S
O30 C28 1.247 1_655 S
O30 Zn31 2.028 . S
Zn31 O30 2.028 . S
Zn31 O35 2.035 . S
Zn31 O37 2.035 . S
Zn31 O38 2.028 . S
O32 C28 1.258 . S
O32 Zn33 2.035 . S
Zn33 O32 2.035 . S
Zn33 O34 2.028 . S
Zn33 O36 2.028 . S
Zn33 O39 2.035 . S
O34 Zn33 2.028 . S
O34 C40 1.247 . S
O35 Zn31 2.035 . S
O35 C40 1.258 1_655 S
O36 C29 1.247 1_455 S
O36 Zn33 2.028 . S
O37 C29 1.258 . S
O37 Zn31 2.035 . S
O38 Zn31 2.028 . S
O38 C41 1.247 1_655 S
O39 Zn33 2.035 . S
O39 C41 1.258 . S
C40 O34 1.247 . S
C40 O35 1.258 1_455 S
C41 O38 1.247 1_455 S
C41 O39 1.258 . S
C42 O44 1.247 . S
C42 O46 1.258 1_545 S
C43 O50 1.247 1_545 S
C43 O51 1.258 . S
O44 C42 1.247 . S
O44 Zn45 2.028 . S
Zn45 O44 2.028 . S
Zn45 O49 2.035 . S
Zn45 O51 2.035 . S
Zn45 O52 2.028 1_554 S
O46 C42 1.258 1_565 S
O46 Zn47 2.035 . S
Zn47 O46 2.035 . S
Zn47 O48 2.028 . S
Zn47 O50 2.028 . S
Zn47 O53 2.035 1_554 S
O48 Zn47 2.028 . S
O48 C54 1.247 . S
O49 Zn45 2.035 . S
O49 C54 1.258 1_545 S
O50 C43 1.247 1_565 S
O50 Zn47 2.028 . S
O51 C43 1.258 . S
O51 Zn45 2.035 . S
O52 Zn45 2.028 1_556 S
O52 C55 1.247 . S
O53 Zn47 2.035 1_556 S
O53 C55 1.258 1_565 S
C54 O48 1.247 . S
C54 O49 1.258 1_565 S
C55 O52 1.247 . S
C55 O53 1.258 1_545 S
C56 O58 1.247 . S
C56 O60 1.258 . S
C57 O64 1.247 . S
C57 O65 1.258 . S
O58 C56 1.247 . S
O58 Zn59 2.028 . S
Zn59 O58 2.028 . S
Zn59 O63 2.035 . S
Zn59 O65 2.035 . S
Zn59 O66 2.028 . S
O60 C56 1.258 . S
O60 Zn61 2.035 . S
Zn61 O60 2.035 . S
Zn61 O62 2.028 . S
Zn61 O64 2.028 . S
Zn61 O67 2.035 . S
O62 Zn61 2.028 . S
O62 C68 1.247 . S
O63 Zn59 2.035 . S
O63 C68 1.258 . S
O64 C57 1.247 . S
O64 Zn61 2.028 . S
O65 C57 1.258 . S
O65 Zn59 2.035 . S
O66 Zn59 2.028 . S
O66 C69 1.247 . S
O67 Zn61 2.035 . S
O67 C69 1.258 . S
C68 O62 1.247 . S
C68 O63 1.258 . S
C69 O66 1.247 . S
C69 O67 1.258 . S
C70 O72 1.247 . S
C70 O74 1.258 . S
C71 O78 1.247 . S
C71 O79 1.258 . S
O72 C70 1.247 . S
O72 Zn73 2.028 . S
Zn73 O72 2.028 . S
Zn73 O77 2.035 . S
Zn73 O79 2.035 . S
Zn73 O80 2.028 . S
O74 C70 1.258 . S
O74 Zn75 2.035 . S
Zn75 O74 2.035 . S
Zn75 O76 2.028 . S
Zn75 O78 2.028 . S
Zn75 O81 2.035 . S
O76 Zn75 2.028 . S
O76 C82 1.247 . S
O77 Zn73 2.035 . S
O77 C82 1.258 . S
O78 C71 1.247 . S
O78 Zn75 2.028 . S
O79 C71 1.258 . S
O79 Zn73 2.035 . S
O80 Zn73 2.028 . S
O80 C83 1.247 . S
O81 Zn75 2.035 . S
O81 C83 1.258 . S
C82 O76 1.247 . S
C82 O77 1.258 . S
C83 O80 1.247 . S
C83 O81 1.258 . S
H84 C102 0.951 . S
H85 C104 0.951 . S
H86 C106 0.950 . S
H87 C107 0.950 . S
H88 C109 0.950 . S
H89 C112 0.950 . S
H90 C113 0.950 . S
H91 C115 0.950 . S
H92 C116 0.950 . S
H93 C117 0.951 . S
H94 C119 0.951 . S
H95 C121 0.950 . S
H96 C122 0.950 . S
H97 C124 0.950 . S
H98 C127 0.950 . S
H99 C128 0.950 . S
H100 C130 0.950 . S
H101 C131 0.950 . S
C102 H84 0.951 . S
C102 C103 1.366 . S
C102 C104 1.388 . S
C103 C102 1.366 . S
C103 C107 1.385 . S
C104 H85 0.951 . S
C104 C102 1.388 . S
C104 C105 1.366 . S
C105 C104 1.366 . S
C105 C106 1.414 . S
C105 C108 1.499 . S
C106 H86 0.950 . S
C106 C105 1.414 . S
C106 C107 1.374 . S
C107 H87 0.950 . S
C107 C103 1.385 . S
C107 C106 1.374 . S
C108 C105 1.499 . S
C108 C109 1.373 . S
C108 C110 1.389 . S
C109 H88 0.950 . S
C109 C108 1.373 . S
C109 C125 1.377 . S
C110 C108 1.389 . S
C110 C111 1.524 . S
C110 C124 1.377 . S
C111 C110 1.524 . S
C111 C112 1.397 . S
C111 C116 1.363 . S
C112 H89 0.950 . S
C112 C111 1.397 . S
C112 C113 1.334 . S
C113 H90 0.950 . S
C113 C112 1.334 . S
C113 C114 1.287 . S
C114 C113 1.287 . S
C114 C115 1.524 . S
C114 H133 0.913 . S
C115 H91 0.950 . S
C115 C114 1.524 . S
C115 C116 1.415 . S
C116 H92 0.950 . S
C116 C111 1.363 . S
C116 C115 1.415 . S
C117 H93 0.951 . S
C117 C118 1.366 . S
C117 C119 1.388 . S
C118 C117 1.366 . S
C118 C122 1.385 . S
C119 H94 0.951 . S
C119 C117 1.388 . S
C119 C120 1.366 . S
C120 C119 1.366 . S
C120 C121 1.414 . S
C120 C123 1.499 . S
C121 H95 0.950 . S
C121 C120 1.414 . S
C121 C122 1.374 . S
C122 H96 0.950 . S
C122 C118 1.385 . S
C122 C121 1.374 . S
C123 C120 1.499 . S
C123 C124 1.373 . S
C123 C125 1.389 . S
C124 H97 0.950 . S
C124 C110 1.377 . S
C124 C123 1.373 . S
C125 C109 1.377 . S
C125 C123 1.389 . S
C125 C126 1.524 . S
C126 C125 1.524 . S
C126 C127 1.397 . S
C126 C131 1.363 . S
C127 H98 0.950 . S
C127 C126 1.397 . S
C127 C128 1.334 . S
C128 H99 0.950 . S
C128 C127 1.334 . S
C128 C129 1.287 . S
C129 C128 1.287 . S
C129 C130 1.524 . S
C129 H132 0.999 . S
C130 H100 0.950 . S
C130 C129 1.524 . S
C130 C131 1.415 . S
C131 H101 0.950 . S
C131 C126 1.363 . S
C131 C130 1.415 . S
H132 C129 0.999 . S
H133 C114 0.913 . S
H134 C152 0.951 . S
H135 C154 0.951 . S
H136 C156 0.950 . S
H137 C157 0.950 . S
H138 C159 0.950 . S
H139 C162 0.950 . S
H140 C163 0.950 . S
H141 C165 0.950 . S
H142 C166 0.950 . S
H143 C167 0.951 . S
H144 C169 0.951 . S
H145 C171 0.950 . S
H146 C172 0.950 . S
H147 C174 0.950 . S
H148 C177 0.950 . S
H149 C178 0.950 . S
H150 C180 0.950 . S
H151 C181 0.950 . S
C152 H134 0.951 . S
C152 C153 1.366 . S
C152 C154 1.388 . S
C153 C152 1.366 . S
C153 C157 1.385 . S
C154 H135 0.951 . S
C154 C152 1.388 . S
C154 C155 1.366 . S
C155 C154 1.366 . S
C155 C156 1.414 . S
C155 C158 1.499 . S
C156 H136 0.950 . S
C156 C155 1.414 . S
C156 C157 1.374 . S
C157 H137 0.950 . S
C157 C153 1.385 . S
C157 C156 1.374 . S
C158 C155 1.499 . S
C158 C159 1.373 . S
C158 C160 1.389 . S
C159 H138 0.950 . S
C159 C158 1.373 . S
C159 C175 1.377 . S
C160 C158 1.389 . S
C160 C161 1.524 . S
C160 C174 1.377 . S
C161 C160 1.524 . S
C161 C162 1.397 . S
C161 C166 1.363 . S
C162 H139 0.950 . S
C162 C161 1.397 . S
C162 C163 1.334 . S
C163 H140 0.950 . S
C163 C162 1.334 . S
C163 C164 1.287 . S
C164 C163 1.287 . S
C164 C165 1.524 . S
C164 H183 0.913 . S
C165 H141 0.950 . S
C165 C164 1.524 . S
C165 C166 1.415 . S
C166 H142 0.950 . S
C166 C161 1.363 . S
C166 C165 1.415 . S
C167 H143 0.951 . S
C167 C168 1.366 . S
C167 C169 1.388 . S
C168 C167 1.366 . S
C168 C172 1.385 . S
C169 H144 0.951 . S
C169 C167 1.388 . S
C169 C170 1.366 . S
C170 C169 1.366 . S
C170 C171 1.414 . S
C170 C173 1.499 . S
C171 H145 0.950 . S
C171 C170 1.414 . S
C171 C172 1.374 . S
C172 H146 0.950 . S
C172 C168 1.385 . S
C172 C171 1.374 . S
C173 C170 1.499 . S
C173 C174 1.373 . S
C173 C175 1.389 . S
C174 H147 0.950 . S
C174 C160 1.377 . S
C174 C173 1.373 . S
C175 C159 1.377 . S
C175 C173 1.389 . S
C175 C176 1.524 . S
C176 C175 1.524 . S
C176 C177 1.397 . S
C176 C181 1.363 . S
C177 H148 0.950 . S
C177 C176 1.397 . S
C177 C178 1.334 . S
C178 H149 0.950 . S
C178 C177 1.334 . S
C178 C179 1.287 . S
C179 C178 1.287 . S
C179 C180 1.524 . S
C179 H182 0.999 . S
C180 H150 0.950 . S
C180 C179 1.524 . S
C180 C181 1.415 . S
C181 H151 0.950 . S
C181 C176 1.363 . S
C181 C180 1.415 . S
H182 C179 0.999 . S
H183 C164 0.913 . S
H184 C202 0.951 . S
H185 C204 0.951 . S
H186 C206 0.950 . S
H187 C207 0.950 . S
H188 C209 0.950 . S
H189 C212 0.950 . S
H190 C213 0.950 . S
H191 C215 0.950 1_455 S
H192 C216 0.950 . S
H193 C217 0.951 . S
H194 C219 0.951 . S
H195 C221 0.950 . S
H196 C222 0.950 . S
H197 C224 0.950 . S
H198 C227 0.950 . S
H199 C228 0.950 . S
H200 C230 0.950 . S
H201 C231 0.950 . S
C202 H184 0.951 . S
C202 C203 1.366 . S
C202 C204 1.388 . S
C203 C202 1.366 . S
C203 C207 1.385 . S
C204 H185 0.951 . S
C204 C202 1.388 . S
C204 C205 1.366 . S
C205 C204 1.366 . S
C205 C206 1.414 . S
C205 C208 1.499 . S
C206 H186 0.950 . S
C206 C205 1.414 . S
C206 C207 1.374 . S
C207 H187 0.950 . S
C207 C203 1.385 . S
C207 C206 1.374 . S
C208 C205 1.499 . S
C208 C209 1.373 . S
C208 C210 1.389 . S
C209 H188 0.950 . S
C209 C208 1.373 . S
C209 C225 1.377 . S
C210 C208 1.389 . S
C210 C211 1.524 . S
C210 C224 1.377 . S
C211 C210 1.524 . S
C211 C212 1.397 . S
C211 C216 1.363 . S
C212 H189 0.950 . S
C212 C211 1.397 . S
C212 C213 1.334 . S
C213 H190 0.950 . S
C213 C212 1.334 . S
C213 C214 1.287 . S
C214 C213 1.287 . S
C214 C215 1.524 . S
C214 H233 0.913 1_655 S
C215 H191 0.950 1_655 S
C215 C214 1.524 . S
C215 C216 1.415 . S
C216 H192 0.950 . S
C216 C211 1.363 . S
C216 C215 1.415 . S
C217 H193 0.951 . S
C217 C218 1.366 . S
C217 C219 1.388 . S
C218 C217 1.366 . S
C218 C222 1.385 . S
C219 H194 0.951 . S
C219 C217 1.388 . S
C219 C220 1.366 . S
C220 C219 1.366 . S
C220 C221 1.414 . S
C220 C223 1.499 . S
C221 H195 0.950 . S
C221 C220 1.414 . S
C221 C222 1.374 . S
C222 H196 0.950 . S
C222 C218 1.385 . S
C222 C221 1.374 . S
C223 C220 1.499 . S
C223 C224 1.373 . S
C223 C225 1.389 . S
C224 H197 0.950 . S
C224 C210 1.377 . S
C224 C223 1.373 . S
C225 C209 1.377 . S
C225 C223 1.389 . S
C225 C226 1.524 . S
C226 C225 1.524 . S
C226 C227 1.397 . S
C226 C231 1.363 . S
C227 H198 0.950 . S
C227 C226 1.397 . S
C227 C228 1.334 . S
C228 H199 0.950 . S
C228 C227 1.334 . S
C228 C229 1.287 . S
C229 C228 1.287 . S
C229 C230 1.524 . S
C229 H232 0.999 . S
C230 H200 0.950 . S
C230 C229 1.524 . S
C230 C231 1.415 . S
C231 H201 0.950 . S
C231 C226 1.363 . S
C231 C230 1.415 . S
H232 C229 0.999 . S
H233 C214 0.913 1_455 S
H234 C252 0.951 . S
H235 C254 0.951 . S
H236 C256 0.950 . S
H237 C257 0.950 . S
H238 C259 0.950 . S
H239 C262 0.950 . S
H240 C263 0.950 . S
H241 C265 0.950 . S
H242 C266 0.950 . S
H243 C267 0.951 . S
H244 C269 0.951 . S
H245 C271 0.950 . S
H246 C272 0.950 . S
H247 C274 0.950 . S
H248 C277 0.950 . S
H249 C278 0.950 . S
H250 C280 0.950 . S
H251 C281 0.950 . S
C252 H234 0.951 . S
C252 C253 1.366 . S
C252 C254 1.388 . S
C253 C252 1.366 . S
C253 C257 1.385 . S
C254 H235 0.951 . S
C254 C252 1.388 . S
C254 C255 1.366 . S
C255 C254 1.366 . S
C255 C256 1.414 . S
C255 C258 1.499 . S
C256 H236 0.950 . S
C256 C255 1.414 . S
C256 C257 1.374 . S
C257 H237 0.950 . S
C257 C253 1.385 . S
C257 C256 1.374 . S
C258 C255 1.499 . S
C258 C259 1.373 . S
C258 C260 1.389 . S
C259 H238 0.950 . S
C259 C258 1.373 . S
C259 C275 1.377 . S
C260 C258 1.389 . S
C260 C261 1.524 . S
C260 C274 1.377 . S
C261 C260 1.524 . S
C261 C262 1.397 . S
C261 C266 1.363 . S
C262 H239 0.950 . S
C262 C261 1.397 . S
C262 C263 1.334 . S
C263 H240 0.950 . S
C263 C262 1.334 . S
C263 C264 1.287 . S
C264 C263 1.287 . S
C264 C265 1.524 . S
C264 H283 0.913 . S
C265 H241 0.950 . S
C265 C264 1.524 . S
C265 C266 1.415 . S
C266 H242 0.950 . S
C266 C261 1.363 . S
C266 C265 1.415 . S
C267 H243 0.951 . S
C267 C268 1.366 . S
C267 C269 1.388 . S
C268 C267 1.366 . S
C268 C272 1.385 . S
C269 H244 0.951 . S
C269 C267 1.388 . S
C269 C270 1.366 . S
C270 C269 1.366 . S
C270 C271 1.414 . S
C270 C273 1.499 . S
C271 H245 0.950 . S
C271 C270 1.414 . S
C271 C272 1.374 . S
C272 H246 0.950 . S
C272 C268 1.385 . S
C272 C271 1.374 . S
C273 C270 1.499 . S
C273 C274 1.373 . S
C273 C275 1.389 . S
C274 H247 0.950 . S
C274 C260 1.377 . S
C274 C273 1.373 . S
C275 C259 1.377 . S
C275 C273 1.389 . S
C275 C276 1.524 . S
C276 C275 1.524 . S
C276 C277 1.397 . S
C276 C281 1.363 . S
C277 H248 0.950 . S
C277 C276 1.397 . S
C277 C278 1.334 . S
C278 H249 0.950 . S
C278 C277 1.334 . S
C278 C279 1.287 . S
C279 C278 1.287 . S
C279 C280 1.524 . S
C279 H282 0.999 . S
C280 H250 0.950 . S
C280 C279 1.524 . S
C280 C281 1.415 . S
C281 H251 0.950 . S
C281 C276 1.363 . S
C281 C280 1.415 . S
H282 C279 0.999 . S
H283 C264 0.913 . S
H284 C302 0.951 . S
H285 C304 0.951 . S
H286 C306 0.950 . S
H287 C307 0.950 . S
H288 C309 0.950 . S
H289 C312 0.950 . S
H290 C313 0.950 . S
H291 C315 0.950 . S
H292 C316 0.950 . S
H293 C317 0.951 . S
H294 C319 0.951 . S
H295 C321 0.950 . S
H296 C322 0.950 . S
H297 C324 0.950 . S
H298 C327 0.950 1_655 S
H299 C328 0.950 . S
H300 C330 0.950 . S
H301 C331 0.950 . S
C302 H284 0.951 . S
C302 C303 1.366 . S
C302 C304 1.388 1_455 S
C303 C302 1.366 . S
C303 C307 1.385 . S
C304 H285 0.951 . S
C304 C302 1.388 1_655 S
C304 C305 1.366 1_655 S
C305 C304 1.366 1_455 S
C305 C306 1.414 . S
C305 C308 1.499 1_455 S
C306 H286 0.950 . S
C306 C305 1.414 . S
C306 C307 1.374 . S
C307 H287 0.950 . S
C307 C303 1.385 . S
C307 C306 1.374 . S
C308 C305 1.499 1_655 S
C308 C309 1.373 1_655 S
C308 C310 1.389 . S
C309 H288 0.950 . S
C309 C308 1.373 1_455 S
C309 C325 1.377 1_455 S
C310 C308 1.389 . S
C310 C311 1.524 . S
C310 C324 1.377 . S
C311 C310 1.524 . S
C311 C312 1.397 . S
C311 C316 1.363 . S
C312 H289 0.950 . S
C312 C311 1.397 . S
C312 C313 1.334 . S
C313 H290 0.950 . S
C313 C312 1.334 . S
C313 C314 1.287 . S
C314 C313 1.287 . S
C314 C315 1.524 . S
C314 H333 0.913 . S
C315 H291 0.950 . S
C315 C314 1.524 . S
C315 C316 1.415 . S
C316 H292 0.950 . S
C316 C311 1.363 . S
C316 C315 1.415 . S
C317 H293 0.951 . S
C317 C318 1.366 . S
C317 C319 1.388 . S
C318 C317 1.366 . S
C318 C322 1.385 . S
C319 H294 0.951 . S
C319 C317 1.388 . S
C319 C320 1.366 . S
C320 C319 1.366 . S
C320 C321 1.414 . S
C320 C323 1.499 . S
C321 H295 0.950 . S
C321 C320 1.414 . S
C321 C322 1.374 . S
C322 H296 0.950 . S
C322 C318 1.385 . S
C322 C321 1.374 . S
C323 C320 1.499 . S
C323 C324 1.373 . S
C323 C325 1.389 . S
C324 H297 0.950 . S
C324 C310 1.377 . S
C324 C323 1.373 . S
C325 C309 1.377 1_655 S
C325 C323 1.389 . S
C325 C326 1.524 1_655 S
C326 C325 1.524 1_455 S
C326 C327 1.397 . S
C326 C331 1.363 . S
C327 H298 0.950 1_455 S
C327 C326 1.397 . S
C327 C328 1.334 . S
C328 H299 0.950 . S
C328 C327 1.334 . S
C328 C329 1.287 . S
C329 C328 1.287 . S
C329 C330 1.524 . S
C329 H332 0.999 . S
C330 H300 0.950 . S
C330 C329 1.524 . S
C330 C331 1.415 . S
C331 H301 0.950 . S
C331 C326 1.363 . S
C331 C330 1.415 . S
H332 C329 0.999 . S
H333 C314 0.913 . S
H334 C352 0.951 . S
H335 C354 0.951 . S
H336 C356 0.950 . S
H337 C357 0.950 . S
H338 C359 0.950 1_545 S
H339 C362 0.950 . S
H340 C363 0.950 . S
H341 C365 0.950 . S
H342 C366 0.950 . S
H343 C367 0.951 . S
H344 C369 0.951 . S
H345 C371 0.950 . S
H346 C372 0.950 . S
H347 C374 0.950 . S
H348 C377 0.950 . S
H349 C378 0.950 . S
H350 C380 0.950 . S
H351 C381 0.952 1_565 S
C352 H334 0.951 . S
C352 C353 1.366 . S
C352 C354 1.388 . S
C353 C352 1.366 . S
C353 C357 1.385 . S
C354 H335 0.951 . S
C354 C352 1.388 . S
C354 C355 1.366 . S
C355 C354 1.366 . S
C355 C356 1.414 . S
C355 C358 1.499 1_545 S
C356 H336 0.950 . S
C356 C355 1.414 . S
C356 C357 1.374 . S
C357 H337 0.950 . S
C357 C353 1.385 . S
C357 C356 1.374 . S
C358 C355 1.499 1_565 S
C358 C359 1.373 . S
C358 C360 1.389 . S
C359 H338 0.950 1_565 S
C359 C358 1.373 . S
C359 C375 1.377 . S
C360 C358 1.389 . S
C360 C361 1.524 . S
C360 C374 1.377 . S
C361 C360 1.524 . S
C361 C362 1.397 . S
C361 C366 1.363 . S
C362 H339 0.950 . S
C362 C361 1.397 . S
C362 C363 1.334 . S
C363 H340 0.950 . S
C363 C362 1.334 . S
C363 C364 1.287 . S
C364 C363 1.287 . S
C364 C365 1.524 . S
C364 H383 0.913 . S
C365 H341 0.950 . S
C365 C364 1.524 . S
C365 C366 1.415 . S
C366 H342 0.950 . S
C366 C361 1.363 . S
C366 C365 1.415 . S
C367 H343 0.951 . S
C367 C368 1.366 . S
C367 C369 1.388 . S
C368 C367 1.366 . S
C368 C372 1.385 . S
C369 H344 0.951 . S
C369 C367 1.388 . S
C369 C370 1.366 . S
C370 C369 1.366 . S
C370 C371 1.414 . S
C370 C373 1.499 . S
C371 H345 0.950 . S
C371 C370 1.414 . S
C371 C372 1.374 . S
C372 H346 0.950 . S
C372 C368 1.385 . S
C372 C371 1.374 . S
C373 C370 1.499 . S
C373 C374 1.373 . S
C373 C375 1.389 . S
C374 H347 0.950 . S
C374 C360 1.377 . S
C374 C373 1.373 . S
C375 C359 1.377 . S
C375 C373 1.389 . S
C375 C376 1.524 . S
C376 C375 1.524 . S
C376 C377 1.397 1_565 S
C376 C381 1.363 1_565 S
C377 H348 0.950 . S
C377 C376 1.397 1_545 S
C377 C378 1.334 . S
C378 H349 0.950 . S
C378 C377 1.334 . S
C378 C379 1.287 . S
C379 C378 1.287 . S
C379 C380 1.524 . S
C379 H382 0.999 . S
C380 H350 0.950 . S
C380 C379 1.524 . S
C380 C381 1.415 . S
C381 H351 0.952 1_545 S
C381 C376 1.363 1_545 S
C381 C380 1.415 . S
H382 C379 0.999 . S
H383 C364 0.913 . S
H384 C402 0.951 . S
H385 C404 0.951 . S
H386 C406 0.950 . S
H387 C407 0.950 . S
H388 C409 0.950 . S
H389 C412 0.950 . S
H390 C413 0.950 . S
H391 C415 0.950 . S
H392 C416 0.950 . S
H393 C417 0.951 . S
H394 C419 0.951 . S
H395 C421 0.950 . S
H396 C422 0.950 . S
H397 C424 0.950 . S
H398 C427 0.950 1_545 S
H399 C428 0.950 . S
H400 C430 0.950 . S
H401 C431 0.930 1_454 S
C402 H384 0.951 . S
C402 C403 1.366 . S
C402 C404 1.388 . S
C403 C402 1.366 . S
C403 C407 1.385 . S
C404 H385 0.951 . S
C404 C402 1.388 . S
C404 C405 1.366 . S
C405 C404 1.366 . S
C405 C406 1.414 . S
C405 C408 1.499 . S
C406 H386 0.950 . S
C406 C405 1.414 . S
C406 C407 1.374 . S
C407 H387 0.950 . S
C407 C403 1.385 . S
C407 C406 1.374 . S
C408 C405 1.499 . S
C408 C409 1.373 . S
C408 C410 1.389 . S
C409 H388 0.950 . S
C409 C408 1.373 . S
C409 C425 1.377 . S
C410 C408 1.389 . S
C410 C411 1.524 . S
C410 C424 1.377 . S
C411 C410 1.524 . S
C411 C412 1.397 . S
C411 C416 1.363 . S
C412 H389 0.950 . S
C412 C411 1.397 . S
C412 C413 1.334 . S
C413 H390 0.950 . S
C413 C412 1.334 . S
C413 C414 1.287 . S
C414 C413 1.287 . S
C414 C415 1.524 . S
C414 H433 0.913 . S
C415 H391 0.950 . S
C415 C414 1.524 . S
C415 C416 1.415 . S
C416 H392 0.950 . S
C416 C411 1.363 . S
C416 C415 1.415 . S
C417 H393 0.951 . S
C417 C418 1.366 1_565 S
C417 C419 1.388 . S
C418 C417 1.366 1_545 S
C418 C422 1.385 . S
C419 H394 0.951 . S
C419 C417 1.388 . S
C419 C420 1.366 1_565 S
C420 C419 1.366 1_545 S
C420 C421 1.414 . S
C420 C423 1.499 1_655 S
C421 H395 0.950 . S
C421 C420 1.414 . S
C421 C422 1.374 . S
C422 H396 0.950 . S
C422 C418 1.385 . S
C422 C421 1.374 . S
C423 C420 1.499 1_455 S
C423 C424 1.373 . S
C423 C425 1.389 . S
C424 H397 0.950 . S
C424 C410 1.377 . S
C424 C423 1.373 . S
C425 C409 1.377 . S
C425 C423 1.389 . S
C425 C426 1.520 1_444 S
C426 C425 1.520 1_666 S
C426 C427 1.411 . S
C426 C431 1.367 . S
C427 H398 0.950 1_565 S
C427 C426 1.411 . S
C427 C428 1.334 . S
C428 H399 0.950 . S
C428 C427 1.334 . S
C428 C429 1.287 . S
C429 C428 1.287 . S
C429 C430 1.524 . S
C429 H432 0.999 . S
C430 H400 0.950 . S
C430 C429 1.524 . S
C430 C431 1.421 . S
C431 H401 0.930 1_656 S
C431 C426 1.367 . S
C431 C430 1.421 . S
H432 C429 0.999 . S
H433 C414 0.913 . S
H434 C452 0.951 . S
H435 C454 0.951 . S
H436 C456 0.950 . S
H437 C457 0.950 . S
H438 C459 0.950 . S
H439 C462 0.950 . S
H440 C463 0.950 . S
H441 C465 0.950 . S
H442 C466 0.950 . S
H443 C467 0.951 . S
H444 C469 0.951 . S
H445 C471 0.950 . S
H446 C472 0.950 . S
H447 C474 0.950 . S
H448 C477 0.950 . S
H449 C478 0.950 . S
H450 C480 0.950 . S
H451 C481 0.950 . S
C452 H434 0.951 . S
C452 C453 1.366 . S
C452 C454 1.388 . S
C453 C452 1.366 . S
C453 C457 1.385 . S
C454 H435 0.951 . S
C454 C452 1.388 . S
C454 C455 1.366 . S
C455 C454 1.366 . S
C455 C456 1.414 1_655 S
C455 C458 1.499 1_665 S
C456 H436 0.950 . S
C456 C455 1.414 1_455 S
C456 C457 1.374 1_455 S
C457 H437 0.950 . S
C457 C453 1.385 . S
C457 C456 1.374 1_655 S
C458 C455 1.499 1_445 S
C458 C459 1.373 . S
C458 C460 1.389 . S
C459 H438 0.950 . S
C459 C458 1.373 . S
C459 C475 1.377 . S
C460 C458 1.389 . S
C460 C461 1.524 . S
C460 C474 1.377 . S
C461 C460 1.524 . S
C461 C462 1.397 1_545 S
C461 C466 1.363 1_455 S
C462 H439 0.950 . S
C462 C461 1.397 1_565 S
C462 C463 1.334 1_455 S
C463 H440 0.950 . S
C463 C462 1.334 1_655 S
C463 C464 1.287 . S
C464 C463 1.287 . S
C464 C465 1.524 1_565 S
C464 H483 0.913 . S
C465 H441 0.950 . S
C465 C464 1.524 1_545 S
C465 C466 1.415 . S
C466 H442 0.950 . S
C466 C461 1.363 1_655 S
C466 C465 1.415 . S
C467 H443 0.951 . S
C467 C468 1.366 . S
C467 C469 1.388 . S
C468 C467 1.366 . S
C468 C472 1.385 . S
C469 H444 0.951 . S
C469 C467 1.388 . S
C469 C470 1.366 . S
C470 C469 1.366 . S
C470 C471 1.414 . S
C470 C473 1.499 . S
C471 H445 0.950 . S
C471 C470 1.414 . S
C471 C472 1.374 . S
C472 H446 0.950 . S
C472 C468 1.385 . S
C472 C471 1.374 . S
C473 C470 1.499 . S
C473 C474 1.373 . S
C473 C475 1.389 . S
C474 H447 0.950 . S
C474 C460 1.377 . S
C474 C473 1.373 . S
C475 C459 1.377 . S
C475 C473 1.389 . S
C475 C476 1.524 . S
C476 C475 1.524 . S
C476 C477 1.397 . S
C476 C481 1.363 . S
C477 H448 0.950 . S
C477 C476 1.397 . S
C477 C478 1.334 . S
C478 H449 0.950 . S
C478 C477 1.334 . S
C478 C479 1.287 . S
C479 C478 1.287 . S
C479 C480 1.524 . S
C479 H482 0.999 . S
C480 H450 0.950 . S
C480 C479 1.524 . S
C480 C481 1.415 . S
C481 H451 0.950 . S
C481 C476 1.363 . S
C481 C480 1.415 . S
H482 C479 0.999 . S
H483 C464 0.913 . S
H484 C502 0.951 . S
H485 C504 0.951 . S
H486 C506 0.950 . S
H487 C507 0.950 . S
H488 C509 0.950 . S
H489 C512 0.950 . S
H490 C513 0.950 . S
H491 C515 0.950 . S
H492 C516 0.950 1_565 S
H493 C517 0.951 . S
H494 C519 0.930 1_545 S
H495 C521 0.950 . S
H496 C522 0.950 . S
H497 C524 0.950 1_565 S
H498 C527 0.950 . S
H499 C528 0.950 . S
H500 C530 0.950 . S
H501 C531 0.950 . S
C502 H484 0.951 . S
C502 C503 1.366 1_655 S
C502 C504 1.388 . S
C503 C502 1.366 1_455 S
C503 C507 1.385 . S
C504 H485 0.951 . S
C504 C502 1.388 . S
C504 C505 1.366 1_655 S
C505 C504 1.366 1_455 S
C505 C506 1.414 . S
C505 C508 1.499 . S
C506 H486 0.950 . S
C506 C505 1.414 . S
C506 C507 1.374 . S
C507 H487 0.950 . S
C507 C503 1.385 . S
C507 C506 1.374 . S
C508 C505 1.499 . S
C508 C509 1.373 . S
C508 C510 1.389 . S
C509 H488 0.950 . S
C509 C508 1.373 . S
C509 C525 1.377 . S
C510 C508 1.389 . S
C510 C511 1.524 1_455 S
C510 C524 1.377 . S
C511 C510 1.524 1_655 S
C511 C512 1.397 1_655 S
C511 C516 1.363 . S
C512 H489 0.950 . S
C512 C511 1.397 1_455 S
C512 C513 1.334 1_455 S
C513 H490 0.950 . S
C513 C512 1.334 1_655 S
C513 C514 1.287 . S
C514 C513 1.287 . S
C514 C515 1.524 1_545 S
C514 H533 0.913 . S
C515 H491 0.950 . S
C515 C514 1.524 1_565 S
C515 C516 1.415 1_565 S
C516 H492 0.950 1_545 S
C516 C511 1.363 . S
C516 C515 1.415 1_545 S
C517 H493 0.951 . S
C517 C518 1.366 . S
C517 C519 1.416 . S
C518 C517 1.366 . S
C518 C522 1.385 . S
C519 H494 0.930 1_565 S
C519 C517 1.416 . S
C519 C520 1.358 . S
C520 C519 1.358 . S
C520 C521 1.414 . S
C520 C523 1.499 1_565 S
C521 H495 0.950 . S
C521 C520 1.414 . S
C521 C522 1.374 . S
C522 H496 0.950 . S
C522 C518 1.385 . S
C522 C521 1.374 . S
C523 C520 1.499 1_545 S
C523 C524 1.373 . S
C523 C525 1.389 . S
C524 H497 0.950 1_545 S
C524 C510 1.377 . S
C524 C523 1.373 . S
C525 C509 1.377 . S
C525 C523 1.389 . S
C525 C526 1.524 . S
C526 C525 1.524 . S
C526 C527 1.397 . S
C526 C531 1.363 . S
C527 H498 0.950 . S
C527 C526 1.397 . S
C527 C528 1.334 . S
C528 H499 0.950 . S
C528 C527 1.334 . S
C528 C529 1.287 . S
C529 C528 1.287 . S
C529 C530 1.524 . S
C529 H532 0.999 . S
C530 H500 0.950 . S
C530 C529 1.524 . S
C530 C531 1.415 . S
C531 H501 0.950 . S
C531 C526 1.363 . S
C531 C530 1.415 . S
H532 C529 0.999 . S
H533 C514 0.913 . S
H534 C552 0.951 . S
H535 C554 0.951 . S
H536 C556 0.950 . S
H537 C557 0.950 . S
H538 C559 0.950 1_556 S
H539 C562 0.950 . S
H540 C563 0.950 . S
H541 C565 0.950 . S
H542 C566 0.950 . S
H543 C567 0.951 . S
H544 C569 0.951 . S
H545 C571 0.950 . S
H546 C572 0.950 . S
H547 C574 0.950 . S
H548 C577 0.950 . S
H549 C578 0.950 . S
H550 C580 0.950 . S
H551 C581 0.950 . S
C552 H534 0.951 . S
C552 C553 1.366 . S
C552 C554 1.388 . S
C553 C552 1.366 . S
C553 C557 1.385 1_545 S
C554 H535 0.951 . S
C554 C552 1.388 . S
C554 C555 1.366 . S
C555 C554 1.366 . S
C555 C556 1.414 1_545 S
C555 C558 1.499 . S
C556 H536 0.950 . S
C556 C555 1.414 1_565 S
C556 C557 1.374 . S
C557 H537 0.950 . S
C557 C553 1.385 1_565 S
C557 C556 1.374 . S
C558 C555 1.499 . S
C558 C559 1.373 . S
C558 C560 1.389 . S
C559 H538 0.950 1_554 S
C559 C558 1.373 . S
C559 C575 1.377 1_554 S
C560 C558 1.389 . S
C560 C561 1.524 . S
C560 C574 1.377 . S
C561 C560 1.524 . S
C561 C562 1.397 . S
C561 C566 1.363 . S
C562 H539 0.950 . S
C562 C561 1.397 . S
C562 C563 1.334 . S
C563 H540 0.950 . S
C563 C562 1.334 . S
C563 C564 1.287 . S
C564 C563 1.287 . S
C564 C565 1.524 . S
C564 H583 0.913 . S
C565 H541 0.950 . S
C565 C564 1.524 . S
C565 C566 1.415 . S
C566 H542 0.950 . S
C566 C561 1.363 . S
C566 C565 1.415 . S
C567 H543 0.951 . S
C567 C568 1.366 . S
C567 C569 1.388 . S
C568 C567 1.366 . S
C568 C572 1.385 . S
C569 H544 0.951 . S
C569 C567 1.388 . S
C569 C570 1.366 . S
C570 C569 1.366 . S
C570 C571 1.414 . S
C570 C573 1.499 . S
C571 H545 0.950 . S
C571 C570 1.414 . S
C571 C572 1.374 . S
C572 H546 0.950 . S
C572 C568 1.385 . S
C572 C571 1.374 . S
C573 C570 1.499 . S
C573 C574 1.373 . S
C573 C575 1.391 1_554 S
C574 H547 0.950 . S
C574 C560 1.377 . S
C574 C573 1.373 . S
C575 C559 1.377 1_556 S
C575 C573 1.391 1_556 S
C575 C576 1.522 . S
C576 C575 1.522 . S
C576 C577 1.397 . S
C576 C581 1.363 1_545 S
C577 H548 0.950 . S
C577 C576 1.397 . S
C577 C578 1.334 . S
C578 H549 0.950 . S
C578 C577 1.334 . S
C578 C579 1.287 1_545 S
C579 C578 1.287 1_565 S
C579 C580 1.524 . S
C579 H582 0.999 . S
C580 H550 0.950 . S
C580 C579 1.524 . S
C580 C581 1.415 . S
C581 H551 0.950 . S
C581 C576 1.363 1_565 S
C581 C580 1.415 . S
H582 C579 0.999 . S
H583 C564 0.913 . S
H584 C602 0.951 . S
H585 C604 0.951 . S
H586 C606 0.950 . S
H587 C607 0.950 . S
H588 C609 0.950 . S
H589 C612 0.950 . S
H590 C613 0.950 . S
H591 C615 0.950 . S
H592 C616 0.950 . S
H593 C617 0.951 . S
H594 C619 0.951 . S
H595 C621 0.950 . S
H596 C622 0.950 . S
H597 C624 0.950 . S
H598 C627 0.950 . S
H599 C628 0.950 . S
H600 C630 0.950 . S
H601 C631 0.950 . S
C602 H584 0.951 . S
C602 C603 1.366 . S
C602 C604 1.388 . S
C603 C602 1.366 . S
C603 C607 1.385 . S
C604 H585 0.951 . S
C604 C602 1.388 . S
C604 C605 1.366 . S
C605 C604 1.366 . S
C605 C606 1.414 . S
C605 C608 1.499 . S
C606 H586 0.950 . S
C606 C605 1.414 . S
C606 C607 1.374 . S
C607 H587 0.950 . S
C607 C603 1.385 . S
C607 C606 1.374 . S
C608 C605 1.499 . S
C608 C609 1.373 . S
C608 C610 1.389 . S
C609 H588 0.950 . S
C609 C608 1.373 . S
C609 C625 1.377 . S
C610 C608 1.389 . S
C610 C611 1.524 . S
C610 C624 1.377 . S
C611 C610 1.524 . S
C611 C612 1.397 . S
C611 C616 1.363 . S
C612 H589 0.950 . S
C612 C611 1.397 . S
C612 C613 1.334 . S
C613 H590 0.950 . S
C613 C612 1.334 . S
C613 C614 1.287 . S
C614 C613 1.287 . S
C614 C615 1.524 . S
C614 H633 0.913 . S
C615 H591 0.950 . S
C615 C614 1.524 . S
C615 C616 1.415 . S
C616 H592 0.950 . S
C616 C611 1.363 . S
C616 C615 1.415 . S
C617 H593 0.951 . S
C617 C618 1.366 . S
C617 C619 1.388 . S
C618 C617 1.366 . S
C618 C622 1.385 . S
C619 H594 0.951 . S
C619 C617 1.388 . S
C619 C620 1.366 . S
C620 C619 1.366 . S
C620 C621 1.414 . S
C620 C623 1.499 . S
C621 H595 0.950 . S
C621 C620 1.414 . S
C621 C622 1.374 . S
C622 H596 0.950 . S
C622 C618 1.385 . S
C622 C621 1.374 . S
C623 C620 1.499 . S
C623 C624 1.373 . S
C623 C625 1.389 . S
C624 H597 0.950 . S
C624 C610 1.377 . S
C624 C623 1.373 . S
C625 C609 1.377 . S
C625 C623 1.389 . S
C625 C626 1.524 . S
C626 C625 1.524 . S
C626 C627 1.397 . S
C626 C631 1.363 . S
C627 H598 0.950 . S
C627 C626 1.397 . S
C627 C628 1.334 . S
C628 H599 0.950 . S
C628 C627 1.334 . S
C628 C629 1.287 . S
C629 C628 1.287 . S
C629 C630 1.524 . S
C629 H632 0.999 . S
C630 H600 0.950 . S
C630 C629 1.524 . S
C630 C631 1.415 . S
C631 H601 0.950 . S
C631 C626 1.363 . S
C631 C630 1.415 . S
H632 C629 0.999 . S
H633 C614 0.913 . S
H634 C652 0.951 . S
H635 C654 0.951 . S
H636 C656 0.950 . S
H637 C657 0.950 . S
H638 C659 0.950 . S
H639 C662 0.950 . S
H640 C663 0.950 . S
H641 C665 0.950 . S
H642 C666 0.950 . S
H643 C667 0.951 . S
H644 C669 0.951 . S
H645 C671 0.950 . S
H646 C672 0.950 . S
H647 C674 0.950 . S
H648 C677 0.950 1_455 S
H649 C678 0.950 . S
H650 C680 0.950 . S
H651 C681 0.950 . S
C652 H634 0.951 . S
C652 C653 1.366 . S
C652 C654 1.388 . S
C653 C652 1.366 . S
C653 C657 1.385 . S
C654 H635 0.951 . S
C654 C652 1.388 . S
C654 C655 1.366 . S
C655 C654 1.366 . S
C655 C656 1.414 . S
C655 C658 1.499 . S
C656 H636 0.950 . S
C656 C655 1.414 . S
C656 C657 1.374 . S
C657 H637 0.950 . S
C657 C653 1.385 . S
C657 C656 1.374 . S
C658 C655 1.499 . S
C658 C659 1.373 . S
C658 C660 1.389 . S
C659 H638 0.950 . S
C659 C658 1.373 . S
C659 C675 1.377 . S
C660 C658 1.389 . S
C660 C661 1.524 . S
C660 C674 1.377 . S
C661 C660 1.524 . S
C661 C662 1.397 . S
C661 C666 1.363 . S
C662 H639 0.950 . S
C662 C661 1.397 . S
C662 C663 1.334 . S
C663 H640 0.950 . S
C663 C662 1.334 . S
C663 C664 1.287 . S
C664 C663 1.287 . S
C664 C665 1.524 . S
C664 H683 0.913 . S
C665 H641 0.950 . S
C665 C664 1.524 . S
C665 C666 1.415 . S
C666 H642 0.950 . S
C666 C661 1.363 . S
C666 C665 1.415 . S
C667 H643 0.951 . S
C667 C668 1.366 1_655 S
C667 C669 1.388 . S
C668 C667 1.366 1_455 S
C668 C672 1.385 . S
C669 H644 0.951 . S
C669 C667 1.388 . S
C669 C670 1.366 1_655 S
C670 C669 1.366 1_455 S
C670 C671 1.414 . S
C670 C673 1.499 . S
C671 H645 0.950 . S
C671 C670 1.414 . S
C671 C672 1.374 . S
C672 H646 0.950 . S
C672 C668 1.385 . S
C672 C671 1.374 . S
C673 C670 1.499 . S
C673 C674 1.373 . S
C673 C675 1.389 . S
C674 H647 0.950 . S
C674 C660 1.377 . S
C674 C673 1.373 . S
C675 C659 1.377 . S
C675 C673 1.389 . S
C675 C676 1.524 1_455 S
C676 C675 1.524 1_655 S
C676 C677 1.397 . S
C676 C681 1.363 . S
C677 H648 0.950 1_655 S
C677 C676 1.397 . S
C677 C678 1.334 . S
C678 H649 0.950 . S
C678 C677 1.334 . S
C678 C679 1.287 . S
C679 C678 1.287 . S
C679 C680 1.524 . S
C679 H682 0.999 . S
C680 H650 0.950 . S
C680 C679 1.524 . S
C680 C681 1.415 . S
C681 H651 0.950 . S
C681 C676 1.363 . S
C681 C680 1.415 . S
H682 C679 0.999 . S
H683 C664 0.913 . S
C103 C1 1.773 . S
C118 C27 1.744 . S
C153 C26 1.773 . S
C168 C28 1.745 . S
C203 C55 1.745 . S
C218 C29 1.774 . S
C253 C54 1.774 . S
C268 C68 1.745 . S
C303 C83 1.744 . S
C318 C69 1.774 . S
C353 C0 1.745 . S
C368 C82 1.774 . S
C403 C12 0.976 . S
C418 C43 0.977 . S
C453 C56 0.976 . S
C468 C15 0.977 . S
C503 C40 0.976 . S
C518 C71 0.977 . S
C553 C42 1.554 . S
C568 C13 1.555 . S
C603 C57 1.555 . S
C618 C14 1.554 . S
C653 C70 1.554 . S
C668 C41 1.555 . S
