# Generated by pormake.
# Topology unh, (4)-cn, num edge types: 1
# Building blocks:
#     Node 0, Type 0, BuildingBlock: CEKHIL_clean_sbu_0, # of connection points: 4
#     Node 1, Type 0, BuildingBlock: CEKHIL_clean_sbu_0, # of connection points: 4
#     Node 2, Type 0, BuildingBlock: CEKHIL_clean_sbu_0, # of connection points: 4
#     Node 3, Type 0, BuildingBlock: CEKHIL_clean_sbu_0, # of connection points: 4
#     Node 4, Type 0, BuildingBlock: CEKHIL_clean_sbu_0, # of connection points: 4
#     Node 5, Type 0, BuildingBlock: CEKHIL_clean_sbu_0, # of connection points: 4
#     Edge 6, Type (0, 0), BuildingBlock: FUNLAD_clean_linker_0, # of connection points: 2
#     Edge 7, Type (0, 0), BuildingBlock: FUNLAD_clean_linker_0, # of connection points: 2
#     Edge 8, Type (0, 0), BuildingBlock: FUNLAD_clean_linker_0, # of connection points: 2
#     Edge 9, Type (0, 0), BuildingBlock: FUNLAD_clean_linker_0, # of connection points: 2
#     Edge 10, Type (0, 0), BuildingBlock: FUNLAD_clean_linker_0, # of connection points: 2
#     Edge 11, Type (0, 0), BuildingBlock: FUNLAD_clean_linker_0, # of connection points: 2
#     Edge 12, Type (0, 0), BuildingBlock: FUNLAD_clean_linker_0, # of connection points: 2
#     Edge 13, Type (0, 0), BuildingBlock: FUNLAD_clean_linker_0, # of connection points: 2
#     Edge 14, Type (0, 0), BuildingBlock: FUNLAD_clean_linker_0, # of connection points: 2
#     Edge 15, Type (0, 0), BuildingBlock: FUNLAD_clean_linker_0, # of connection points: 2
#     Edge 16, Type (0, 0), BuildingBlock: FUNLAD_clean_linker_0, # of connection points: 2
#     Edge 17, Type (0, 0), BuildingBlock: FUNLAD_clean_linker_0, # of connection points: 2
# Relax obj value: 0.073
# Max RMSD: 0.184
# Mean RMSD: 0.184
data_MOF--net-unh--node1-CEKHIL_clean_sbu_0--edge1-FUNLAD_clean_linker_0
_symmetry_space_group_name_H-M    P1
_symmetry_Int_Tables_number       1
_symmetry_cell_setting            triclinic
loop_
_symmetry_equiv_pos_as_xyz
'x, y, z'
_cell_length_a     48.968928
_cell_length_b     48.882212
_cell_length_c     25.733768
_cell_angle_alpha  90.101926
_cell_angle_beta   90.263189
_cell_angle_gamma 119.90096
loop_
_atom_site_label
_atom_site_type_symbol
_atom_site_fract_x
_atom_site_fract_y
_atom_site_fract_z
_atom_type_partial_charge
Co0 Co 0.12173 0.54574 0.10095 0.0
O1 O 0.09035 0.51872 0.14996 0.0
O2 O 0.09423 0.56241 0.1175 0.0
C3 C 0.16337 0.54811 0.14294 0.0
O4 O 0.15198 0.58054 0.05215 0.0
Co5 Co 0.15947 0.52167 0.03859 0.0
O6 O 0.18498 0.56624 0.01679 0.0
C7 C 0.09488 0.50289 0.00509 0.0
C8 C 0.08011 0.53862 0.14899 0.0
C9 C 0.1761 0.58639 0.02431 0.0
O10 O 0.09348 0.52055 0.04094 0.0
O11 O 0.11851 0.49871 -0.00054 0.0
O12 O 0.15202 0.56598 0.15681 0.0
O13 O 0.14728 0.52702 0.10788 0.0
Co14 Co 0.56871 0.12192 0.2667 0.0
O15 O 0.5621 0.08578 0.30616 0.0
O16 O 0.52412 0.09443 0.27857 0.0
C17 C 0.60732 0.15877 0.31712 0.0
O18 O 0.56688 0.15712 0.22693 0.0
Co19 Co 0.63231 0.16307 0.21156 0.0
O20 O 0.61681 0.1936 0.20796 0.0
C21 C 0.58599 0.1025 0.16404 0.0
C22 C 0.53232 0.07681 0.30451 0.0
C23 C 0.58761 0.18479 0.21117 0.0
O24 O 0.56634 0.09923 0.19985 0.0
O25 O 0.61442 0.12549 0.16334 0.0
O26 O 0.57795 0.14679 0.32973 0.0
O27 O 0.61269 0.14553 0.27781 0.0
Co28 Co 0.44957 0.5799 0.42997 0.0
O29 O 0.47706 0.57751 0.4807 0.0
O30 O 0.43375 0.53625 0.45023 0.0
C31 C 0.44626 0.61966 0.468 0.0
O32 O 0.41497 0.57402 0.37874 0.0
Co33 Co 0.47467 0.64037 0.36415 0.0
O34 O 0.43018 0.62099 0.34129 0.0
C35 C 0.49197 0.59295 0.33475 0.0
C36 C 0.4579 0.54732 0.48165 0.0
C37 C 0.40978 0.59212 0.34884 0.0
O38 O 0.47465 0.57539 0.37192 0.0
O39 O 0.49668 0.6208 0.32667 0.0
O40 O 0.42876 0.59076 0.4832 0.0
O41 O 0.46785 0.62428 0.43457 0.0
Co42 Co 0.86542 0.44355 0.6051 0.0
O43 O 0.8976 0.47006 0.65417 0.0
O44 O 0.89115 0.42494 0.62265 0.0
C45 C 0.82447 0.4431 0.6452 0.0
O46 O 0.83426 0.40958 0.55529 0.0
Co47 Co 0.83117 0.47122 0.54148 0.0
O48 O 0.80291 0.42652 0.52151 0.0
C49 C 0.89441 0.48545 0.5093 0.0
C50 C 0.90659 0.4492 0.65321 0.0
C51 C 0.81025 0.40512 0.52793 0.0
O52 O 0.89419 0.46728 0.54561 0.0
O53 O 0.87219 0.49176 0.50282 0.0
O54 O 0.83476 0.4245 0.66007 0.0
O55 O 0.8416 0.46415 0.61114 0.0
Co56 Co 0.40897 0.86987 0.76203 0.0
O57 O 0.41154 0.90355 0.80426 0.0
O58 O 0.45228 0.898 0.78332 0.0
C59 C 0.36742 0.83056 0.80358 0.0
O60 O 0.4151 0.83745 0.72092 0.0
Co61 Co 0.34947 0.82874 0.6945 0.0
O62 O 0.36769 0.80062 0.69038 0.0
C63 C 0.39713 0.89187 0.65736 0.0
C64 C 0.44148 0.91367 0.80856 0.0
C65 C 0.39682 0.81062 0.69895 0.0
O66 O 0.41476 0.89529 0.69698 0.0
O67 O 0.36967 0.86782 0.6507 0.0
O68 O 0.39574 0.84205 0.8222 0.0
O69 O 0.36478 0.84501 0.76351 0.0
Co70 Co 0.54091 0.41554 0.93009 0.0
O71 O 0.51506 0.42293 0.97755 0.0
O72 O 0.5599 0.46031 0.94479 0.0
C73 C 0.53993 0.37549 0.97516 0.0
O74 O 0.57473 0.41686 0.88229 0.0
Co75 Co 0.51407 0.35216 0.87095 0.0
O76 O 0.55892 0.36758 0.85435 0.0
C77 C 0.49845 0.3998 0.834 0.0
C78 C 0.53628 0.4526 0.97585 0.0
C79 C 0.57987 0.3966 0.85871 0.0
O80 O 0.51711 0.41921 0.86873 0.0
O81 O 0.49238 0.37115 0.83062 0.0
O82 O 0.5594 0.40464 0.98769 0.0
O83 O 0.51974 0.37135 0.939 0.0
C84 C 0.07447 0.48023 0.9166 0.0
C85 C 0.06894 0.48843 0.96631 0.0
C86 C 0.05107 0.4694 0.87817 0.0
C87 C 0.02146 0.46606 0.88887 0.0
C88 C 0.01537 0.47278 0.93915 0.0
C89 C 0.03901 0.48428 0.97734 0.0
C90 C -0.00308 0.4564 0.84783 0.0
C91 C 0.00405 0.46774 0.79914 0.0
C92 C 0.97952 0.46186 0.75981 0.0
C93 C 0.98253 0.4872 0.73 0.0
C94 C 0.95895 0.48286 0.69466 0.0
C95 C 0.93256 0.45284 0.687 0.0
H96 H 0.95071 0.41165 0.7738 0.0
C97 C 0.93018 0.4271 0.71496 0.0
C98 C 0.9533 0.43165 0.75173 0.0
H99 H 0.90988 0.40377 0.70987 0.0
H100 H 0.09725 0.48313 0.90676 0.0
H101 H 0.05622 0.46379 0.84001 0.0
H102 H -0.00737 0.47019 0.94837 0.0
H103 H 0.03394 0.4902 0.01533 0.0
H104 H 0.97236 0.4424 0.85911 0.0
H105 H 0.02833 0.48465 0.78953 0.0
H106 H 0.00265 0.51062 0.73537 0.0
H107 H 0.96126 0.50303 0.67344 0.0
C108 C 0.49106 0.94579 0.86093 0.0
C109 C 0.46131 0.94013 0.84422 0.0
C110 C 0.5076 0.96813 0.90009 0.0
C111 C 0.49471 0.98542 0.92288 0.0
C112 C 0.46559 0.98053 0.90437 0.0
C113 C 0.4491 0.95822 0.86565 0.0
C114 C 0.50922 0.00702 0.96826 0.0
C115 C 0.53881 0.01789 0.98616 0.0
C116 C 0.55099 0.03844 0.03316 0.0
C117 C 0.58305 0.0613 0.03669 0.0
C118 C 0.59468 0.08176 0.07957 0.0
C119 C 0.57451 0.07947 0.12025 0.0
H120 H 0.5065 0.01723 0.07442 0.0
C121 C 0.54269 0.05563 0.11761 0.0
C122 C 0.53109 0.03536 0.07473 0.0
H123 H 0.52647 0.05282 0.14835 0.0
H124 H 0.50097 0.93205 0.84536 0.0
H125 H 0.52974 0.97076 0.91347 0.0
H126 H 0.45504 0.99346 0.92093 0.0
H127 H 0.4263 0.95455 0.85352 0.0
H128 H 0.49451 0.01467 0.98776 0.0
H129 H 0.55502 0.01299 0.96503 0.0
H130 H 0.599 0.06387 0.0056 0.0
H131 H 0.61937 0.09965 0.08038 0.0
C132 C 0.51627 0.59351 0.24849 0.0
C133 C 0.50426 0.57892 0.29664 0.0
C134 C 0.52316 0.5779 0.20943 0.0
C135 C 0.51843 0.54737 0.21789 0.0
C136 C 0.50797 0.53358 0.26693 0.0
C137 C 0.50098 0.54909 0.30578 0.0
C138 C 0.52134 0.52784 0.17605 0.0
C139 C 0.53438 0.53855 0.12902 0.0
C140 C 0.53393 0.51692 0.08777 0.0
C141 C 0.55875 0.52764 0.05203 0.0
C142 C 0.55925 0.50712 0.01435 0.0
C143 C 0.53466 0.47562 0.01137 0.0
H144 H 0.48853 0.47704 0.10854 0.0
C145 C 0.50913 0.46542 0.04553 0.0
C146 C 0.50871 0.4858 0.08315 0.0
H147 H 0.48961 0.44142 0.04395 0.0
H148 H 0.51899 0.61643 0.23995 0.0
H149 H 0.53082 0.58939 0.17224 0.0
H150 H 0.50416 0.51015 0.27478 0.0
H151 H 0.49195 0.53713 0.34241 0.0
H152 H 0.51187 0.50298 0.18463 0.0
H153 H 0.54651 0.5636 0.12066 0.0
H154 H 0.57821 0.55166 0.05418 0.0
H155 H 0.5792 0.51571 0.98845 0.0
C156 C 0.91819 0.5109 0.42377 0.0
C157 C 0.92031 0.49737 0.47077 0.0
C158 C 0.94058 0.51827 0.38465 0.0
C159 C 0.96582 0.51251 0.39188 0.0
C160 C 0.96857 0.50028 0.43975 0.0
C161 C 0.94617 0.49279 0.47865 0.0
C162 C 0.98853 0.51662 0.35004 0.0
C163 C 0.9907 0.53032 0.30356 0.0
C164 C 0.01247 0.53148 0.26229 0.0
C165 C 0.02513 0.55658 0.2268 0.0
C166 C 0.04651 0.55863 0.18882 0.0
C167 C 0.0553 0.53536 0.18531 0.0
H168 H 0.01006 0.48714 0.28234 0.0
C169 C 0.04154 0.50956 0.21935 0.0
C170 C 0.02032 0.50756 0.25723 0.0
H171 H 0.0475 0.49101 0.21734 0.0
H172 H 0.89854 0.51467 0.41625 0.0
H173 H 0.93718 0.52737 0.34847 0.0
H174 H 0.98773 0.49563 0.44669 0.0
H175 H 0.94873 0.48258 0.51438 0.0
H176 H 0.00438 0.50761 0.35824 0.0
H177 H 0.97713 0.54186 0.29561 0.0
H178 H 0.01908 0.57505 0.22927 0.0
H179 H 0.05662 0.57875 0.16302 0.0
C180 C 0.48494 0.05024 0.3613 0.0
C181 C 0.50966 0.04949 0.33514 0.0
C182 C 0.46669 0.02667 0.39712 0.0
C183 C 0.47244 0.00162 0.40622 0.0
C184 C 0.4959 -6e-05 0.37772 0.0
C185 C 0.51475 0.02397 0.34318 0.0
C186 C 0.45478 0.97733 0.44596 0.0
C187 C 0.44966 0.98491 0.49385 0.0
C188 C 0.43523 0.96114 0.53567 0.0
C189 C 0.4464 0.96939 0.5869 0.0
C190 C 0.43405 0.94698 0.62664 0.0
C191 C 0.40965 0.91612 0.61606 0.0
H192 H 0.40104 0.92355 0.48624 0.0
C193 C 0.3978 0.90823 0.56501 0.0
C194 C 0.41058 0.93042 0.52517 0.0
H195 H 0.37903 0.88465 0.55551 0.0
H196 H 0.48073 0.06982 0.356 0.0
H197 H 0.44835 0.02818 0.41807 0.0
H198 H 0.50055 0.98071 0.38385 0.0
H199 H 0.5337 0.02291 0.32343 0.0
H200 H 0.44892 0.9532 0.43748 0.0
H201 H 0.45878 0.00959 0.50395 0.0
H202 H 0.46526 0.993 0.59597 0.0
H203 H 0.44356 0.95384 0.66561 0.0
C204 C 0.49308 0.44364 0.79368 0.0
C205 C 0.48525 0.41178 0.79369 0.0
C206 C 0.48367 0.45584 0.75268 0.0
C207 C 0.46633 0.43651 0.71045 0.0
C208 C 0.45694 0.40432 0.71185 0.0
C209 C 0.46642 0.39209 0.75284 0.0
C210 C 0.45828 0.44947 0.66425 0.0
C211 C 0.47756 0.47909 0.64743 0.0
C212 C 0.47181 0.49402 0.60135 0.0
C213 C 0.49627 0.52372 0.5861 0.0
C214 C 0.49193 0.54025 0.54591 0.0
C215 C 0.46294 0.52751 0.51956 0.0
H216 H 0.42331 0.45801 0.58443 0.0
C217 C 0.43864 0.49729 0.53318 0.0
C218 C 0.44294 0.48068 0.57391 0.0
H219 H 0.41597 0.48699 0.51373 0.0
H220 H 0.50713 0.45945 0.82476 0.0
H221 H 0.49025 0.48051 0.75404 0.0
H222 H 0.44318 0.3888 0.68025 0.0
H223 H 0.45968 0.36736 0.75167 0.0
H224 H 0.43728 0.43363 0.64231 0.0
H225 H 0.49964 0.4934 0.66812 0.0
H226 H 0.5188 0.53463 0.60615 0.0
H227 H 0.51121 0.56343 0.53626 0.0
C228 C 0.2029 0.53031 0.15858 0.0
C229 C 0.19335 0.55286 0.16498 0.0
C230 C 0.23126 0.53525 0.18079 0.0
C231 C 0.25057 0.56303 0.20924 0.0
C232 C 0.24104 0.58558 0.21485 0.0
C233 C 0.21269 0.58047 0.19344 0.0
C234 C 0.28158 0.57051 0.23136 0.0
C235 C 0.28933 0.54888 0.24667 0.0
C236 C 0.32067 0.55859 0.27033 0.0
C237 C 0.32363 0.54035 0.30975 0.0
C238 C 0.35266 0.55069 0.33499 0.0
C239 C 0.37922 0.57942 0.32092 0.0
H240 H 0.34663 0.60041 0.22289 0.0
C241 C 0.37641 0.59675 0.27973 0.0
C242 C 0.34765 0.58641 0.25459 0.0
H243 H 0.39649 0.61858 0.26685 0.0
H244 H 0.18845 0.50885 0.13667 0.0
H245 H 0.23827 0.51771 0.17471 0.0
H246 H 0.25558 0.6073 0.23614 0.0
H247 H 0.2061 0.5984 0.19883 0.0
H248 H 0.29825 0.59536 0.23816 0.0
H249 H 0.2719 0.52393 0.2452 0.0
H250 H 0.30327 0.51858 0.32212 0.0
H251 H 0.35409 0.53664 0.36623 0.0
C252 C 0.66407 0.20058 0.33155 0.0
C253 C 0.63199 0.1874 0.34366 0.0
C254 C 0.68674 0.22833 0.35645 0.0
C255 C 0.67755 0.24333 0.39363 0.0
C256 C 0.64552 0.22995 0.40556 0.0
C257 C 0.62307 0.20228 0.38123 0.0
C258 C 0.69991 0.27393 0.41854 0.0
C259 C 0.73098 0.2849 0.42525 0.0
C260 C 0.75174 0.31594 0.45062 0.0
C261 C 0.77775 0.32051 0.48059 0.0
C262 C 0.79685 0.34936 0.50605 0.0
C263 C 0.79043 0.37431 0.50147 0.0
H264 H 0.7268 0.339 0.42073 0.0
C265 C 0.76483 0.36983 0.47029 0.0
C266 C 0.74588 0.34117 0.44505 0.0
H267 H 0.75934 0.38855 0.46507 0.0
H268 H 0.67158 0.18967 0.30255 0.0
H269 H 0.71118 0.23838 0.34543 0.0
H270 H 0.63773 0.24107 0.43373 0.0
H271 H 0.59856 0.19285 0.39143 0.0
H272 H 0.68975 0.2875 0.43425 0.0
H273 H 0.74108 0.27033 0.41456 0.0
H274 H 0.78299 0.30156 0.48504 0.0
H275 H 0.81651 0.35205 0.52936 0.0
C276 C 0.3896 0.75882 0.66974 0.0
C277 C 0.4099 0.79118 0.67868 0.0
C278 C 0.40014 0.7408 0.64387 0.0
C279 C 0.43121 0.75477 0.62536 0.0
C280 C 0.45216 0.78665 0.63723 0.0
C281 C 0.4416 0.80478 0.66363 0.0
C282 C 0.44192 0.73627 0.59392 0.0
C283 C 0.42186 0.71238 0.56271 0.0
C284 C 0.42945 0.69016 0.53574 0.0
C285 C 0.40475 0.65929 0.52711 0.0
C286 C 0.4104 0.6368 0.5041 0.0
C287 C 0.44078 0.64481 0.48788 0.0
H288 H 0.47933 0.72239 0.52353 0.0
C289 C 0.46545 0.67604 0.49419 0.0
C290 C 0.4599 0.69857 0.51849 0.0
H291 H 0.48909 0.68273 0.48194 0.0
H292 H 0.36523 0.74744 0.68191 0.0
H293 H 0.3837 0.71592 0.63812 0.0
H294 H 0.4764 0.79783 0.62442 0.0
H295 H 0.45784 0.82965 0.67016 0.0
H296 H 0.46641 0.74228 0.59699 0.0
H297 H 0.39764 0.70725 0.55922 0.0
H298 H 0.38103 0.65224 0.53955 0.0
H299 H 0.3909 0.61295 0.49933 0.0
C300 C 0.61859 0.38474 0.816 0.0
C301 C 0.61084 0.40719 0.83384 0.0
C302 C 0.64698 0.39408 0.79063 0.0
C303 C 0.66834 0.42624 0.78153 0.0
C304 C 0.66105 0.44878 0.80061 0.0
C305 C 0.63257 0.4394 0.82643 0.0
C306 C 0.69886 0.4368 0.75442 0.0
C307 C 0.70348 0.4179 0.72177 0.0
C308 C 0.73464 0.42572 0.70056 0.0
C309 C 0.74103 0.401 0.69392 0.0
C310 C 0.77022 0.40692 0.67574 0.0
C311 C 0.79344 0.43762 0.66231 0.0
H312 H 0.75317 0.47599 0.69028 0.0
C313 C 0.78683 0.46237 0.66695 0.0
C314 C 0.7577 0.45655 0.68658 0.0
H315 H 0.80439 0.48623 0.65664 0.0
H316 H 0.60275 0.35975 0.82184 0.0
H317 H 0.65214 0.37586 0.77913 0.0
H318 H 0.67726 0.47372 0.79502 0.0
H319 H 0.62742 0.45734 0.83986 0.0
H320 H 0.71814 0.46042 0.7627 0.0
H321 H 0.68416 0.39446 0.71286 0.0
H322 H 0.72359 0.37703 0.70397 0.0
H323 H 0.77456 0.38733 0.67199 0.0
C324 C 0.34272 0.79171 0.87549 0.0
C325 C 0.34046 0.80202 0.82557 0.0
C326 C 0.31767 0.76427 0.89611 0.0
C327 C 0.28995 0.74635 0.86688 0.0
C328 C 0.28774 0.75662 0.81693 0.0
C329 C 0.31259 0.78444 0.79669 0.0
C330 C 0.26428 0.71561 0.88592 0.0
C331 C 0.25685 0.70969 0.93657 0.0
C332 C 0.23398 0.67778 0.95608 0.0
C333 C 0.2164 0.67466 0.00091 0.0
C334 C 0.19656 0.64484 0.0222 0.0
C335 C 0.19468 0.61771 -0.00022 0.0
H336 H 0.2452 0.65208 0.89915 0.0
C337 C 0.21211 0.62088 0.95471 0.0
C338 C 0.23141 0.65051 0.93294 0.0
H339 H 0.21115 0.60041 0.93649 0.0
H340 H 0.36396 0.80477 0.8986 0.0
H341 H 0.32049 0.75659 0.93419 0.0
H342 H 0.26678 0.74303 0.79342 0.0
H343 H 0.31024 0.79174 0.75802 0.0
H344 H 0.25103 0.69736 0.85715 0.0
H345 H 0.26784 0.72879 0.96479 0.0
H346 H 0.21824 0.69536 0.01976 0.0
H347 H 0.18358 0.64315 0.05716 0.0
C348 C 0.56427 0.35558 0.03897 0.0
C349 C 0.54078 0.34911 0.00167 0.0
C350 C 0.56509 0.33113 0.06546 0.0
C351 C 0.54213 0.29945 0.05581 0.0
C352 C 0.519 0.29295 0.01768 0.0
C353 C 0.51823 0.31753 0.99096 0.0
C354 C 0.54286 0.27285 0.0828 0.0
C355 C 0.55717 0.27624 0.12918 0.0
C356 C 0.56273 0.25173 0.15266 0.0
C357 C 0.59045 0.26169 0.18167 0.0
C358 C 0.59803 0.23979 0.20157 0.0
C359 C 0.57763 0.20732 0.19413 0.0
H360 H 0.51979 0.21071 0.12529 0.0
C361 C 0.54902 0.1971 0.16746 0.0
C362 C 0.54173 0.21916 0.1464 0.0
H363 H 0.53288 0.17217 0.16127 0.0
H364 H 0.58224 0.37964 0.04765 0.0
H365 H 0.58423 0.33736 0.09263 0.0
H366 H 0.50134 0.26879 0.00879 0.0
H367 H 0.49992 0.31182 0.96219 0.0
H368 H 0.53214 0.25018 0.06296 0.0
H369 H 0.5676 0.29877 0.14934 0.0
H370 H 0.60687 0.28662 0.18748 0.0
H371 H 0.62011 0.2483 0.22242 0.0
loop_
_geom_bond_atom_site_label_1
_geom_bond_atom_site_label_2
_geom_bond_distance
_geom_bond_site_symmetry_2
_ccdc_geom_bond_type
Co0 O1 2.216 . S
Co0 O2 2.091 . S
Co0 O4 2.004 . S
Co0 O10 2.021 . S
Co0 O12 2.137 . S
Co0 O13 2.244 . S
O1 Co0 2.216 . S
O1 C8 1.247 . S
O2 Co0 2.091 . S
O2 C8 1.261 . S
C3 O12 1.247 . S
C3 O13 1.272 . S
O4 Co0 2.004 . S
O4 C9 1.259 . S
Co5 O6 2.062 . S
Co5 O11 2.049 1_554 S
Co5 O13 2.157 . S
O6 Co5 2.062 . S
O6 C9 1.235 . S
C7 O10 1.238 . S
C7 O11 1.241 1_554 S
C8 O1 1.247 . S
C8 O2 1.261 . S
C9 O4 1.259 . S
C9 O6 1.235 . S
O10 Co0 2.021 . S
O10 C7 1.238 . S
O11 Co5 2.049 1_556 S
O11 C7 1.241 1_556 S
O12 Co0 2.137 . S
O12 C3 1.247 . S
O13 Co0 2.244 . S
O13 C3 1.272 . S
O13 Co5 2.157 . S
Co14 O15 2.216 . S
Co14 O16 2.091 . S
Co14 O18 2.004 . S
Co14 O24 2.021 . S
Co14 O26 2.137 . S
Co14 O27 2.244 . S
O15 Co14 2.216 . S
O15 C22 1.247 . S
O16 Co14 2.091 . S
O16 C22 1.261 . S
C17 O26 1.247 . S
C17 O27 1.272 . S
O18 Co14 2.004 . S
O18 C23 1.259 . S
Co19 O20 2.061 . S
Co19 O25 2.052 . S
Co19 O27 2.135 . S
O20 Co19 2.061 . S
O20 C23 1.235 . S
C21 O24 1.238 . S
C21 O25 1.241 . S
C22 O15 1.247 . S
C22 O16 1.261 . S
C23 O18 1.259 . S
C23 O20 1.235 . S
O24 Co14 2.021 . S
O24 C21 1.238 . S
O25 Co19 2.052 . S
O25 C21 1.241 . S
O26 Co14 2.137 . S
O26 C17 1.247 . S
O27 Co14 2.244 . S
O27 C17 1.272 . S
O27 Co19 2.135 . S
Co28 O29 2.216 . S
Co28 O30 2.091 . S
Co28 O32 2.004 . S
Co28 O38 2.021 . S
Co28 O40 2.137 . S
Co28 O41 2.244 . S
O29 Co28 2.216 . S
O29 C36 1.247 . S
O30 Co28 2.091 . S
O30 C36 1.261 . S
C31 O40 1.247 . S
C31 O41 1.272 . S
O32 Co28 2.004 . S
O32 C37 1.259 . S
Co33 O34 2.061 . S
Co33 O39 2.052 . S
Co33 O41 2.135 . S
O34 Co33 2.061 . S
O34 C37 1.235 . S
C35 O38 1.238 . S
C35 O39 1.241 . S
C36 O29 1.247 . S
C36 O30 1.261 . S
C37 O32 1.259 . S
C37 O34 1.235 . S
O38 Co28 2.021 . S
O38 C35 1.238 . S
O39 Co33 2.052 . S
O39 C35 1.241 . S
O40 Co28 2.137 . S
O40 C31 1.247 . S
O41 Co28 2.244 . S
O41 C31 1.272 . S
O41 Co33 2.135 . S
Co42 O43 2.216 . S
Co42 O44 2.091 . S
Co42 O46 2.004 . S
Co42 O52 2.021 . S
Co42 O54 2.137 . S
Co42 O55 2.244 . S
O43 Co42 2.216 . S
O43 C50 1.247 . S
O44 Co42 2.091 . S
O44 C50 1.261 . S
C45 O54 1.247 . S
C45 O55 1.272 . S
O46 Co42 2.004 . S
O46 C51 1.259 . S
Co47 O48 2.061 . S
Co47 O53 2.052 . S
Co47 O55 2.135 . S
O48 Co47 2.061 . S
O48 C51 1.235 . S
C49 O52 1.238 . S
C49 O53 1.241 . S
C50 O43 1.247 . S
C50 O44 1.261 . S
C51 O46 1.259 . S
C51 O48 1.235 . S
O52 Co42 2.021 . S
O52 C49 1.238 . S
O53 Co47 2.052 . S
O53 C49 1.241 . S
O54 Co42 2.137 . S
O54 C45 1.247 . S
O55 Co42 2.244 . S
O55 C45 1.272 . S
O55 Co47 2.135 . S
Co56 O57 2.216 . S
Co56 O58 2.091 . S
Co56 O60 2.004 . S
Co56 O66 2.021 . S
Co56 O68 2.137 . S
Co56 O69 2.244 . S
O57 Co56 2.216 . S
O57 C64 1.247 . S
O58 Co56 2.091 . S
O58 C64 1.261 . S
C59 O68 1.247 . S
C59 O69 1.272 . S
O60 Co56 2.004 . S
O60 C65 1.259 . S
Co61 O62 2.061 . S
Co61 O67 2.052 . S
Co61 O69 2.135 . S
O62 Co61 2.061 . S
O62 C65 1.235 . S
C63 O66 1.238 . S
C63 O67 1.241 . S
C64 O57 1.247 . S
C64 O58 1.261 . S
C65 O60 1.259 . S
C65 O62 1.235 . S
O66 Co56 2.021 . S
O66 C63 1.238 . S
O67 Co61 2.052 . S
O67 C63 1.241 . S
O68 Co56 2.137 . S
O68 C59 1.247 . S
O69 Co56 2.244 . S
O69 C59 1.272 . S
O69 Co61 2.135 . S
Co70 O71 2.216 . S
Co70 O72 2.091 . S
Co70 O74 2.004 . S
Co70 O80 2.021 . S
Co70 O82 2.137 . S
Co70 O83 2.244 . S
O71 Co70 2.216 . S
O71 C78 1.254 . S
O72 Co70 2.091 . S
O72 C78 1.268 . S
C73 O82 1.247 . S
C73 O83 1.272 . S
O74 Co70 2.004 . S
O74 C79 1.259 . S
Co75 O76 2.061 . S
Co75 O81 2.052 . S
Co75 O83 2.135 . S
O76 Co75 2.061 . S
O76 C79 1.235 . S
C77 O80 1.238 . S
C77 O81 1.241 . S
C78 O71 1.254 . S
C78 O72 1.268 . S
C79 O74 1.259 . S
C79 O76 1.235 . S
O80 Co70 2.021 . S
O80 C77 1.238 . S
O81 Co75 2.052 . S
O81 C77 1.241 . S
O82 Co70 2.137 . S
O82 C73 1.247 . S
O83 Co70 2.244 . S
O83 C73 1.272 . S
O83 Co75 2.135 . S
C84 C85 1.386 . S
C84 C86 1.383 . S
C84 H100 0.951 . S
C85 C84 1.386 . S
C85 C89 1.383 . S
C86 C84 1.383 . S
C86 C87 1.402 . S
C86 H101 0.951 . S
C87 C86 1.402 . S
C87 C88 1.375 . S
C87 C90 1.481 . S
C88 C87 1.375 . S
C88 C89 1.367 . S
C88 H102 0.951 . S
C89 C85 1.383 . S
C89 C88 1.367 . S
C89 H103 0.950 1_556 S
C90 C87 1.481 . S
C90 C91 1.297 . S
C90 H104 0.950 1_455 S
C91 C90 1.297 . S
C91 C92 1.479 1_455 S
C91 H105 0.950 . S
C92 C91 1.479 1_655 S
C92 C93 1.375 . S
C92 C98 1.404 . S
C93 C92 1.375 . S
C93 C94 1.369 . S
C93 H106 0.950 1_655 S
C94 C93 1.369 . S
C94 C95 1.392 . S
C94 H107 0.951 . S
C95 C94 1.392 . S
C95 C97 1.384 . S
H96 C98 0.949 . S
C97 C95 1.384 . S
C97 C98 1.385 . S
C97 H99 0.950 . S
C98 C92 1.404 . S
C98 H96 0.949 . S
C98 C97 1.385 . S
H99 C97 0.950 . S
H100 C84 0.951 . S
H101 C86 0.951 . S
H102 C88 0.951 . S
H103 C89 0.950 1_554 S
H104 C90 0.950 1_655 S
H105 C91 0.950 . S
H106 C93 0.950 1_455 S
H107 C94 0.951 . S
C108 C109 1.386 . S
C108 C110 1.383 . S
C108 H124 0.951 . S
C109 C108 1.386 . S
C109 C113 1.383 . S
C110 C108 1.383 . S
C110 C111 1.402 . S
C110 H125 0.951 . S
C111 C110 1.402 . S
C111 C112 1.375 . S
C111 C114 1.481 1_565 S
C112 C111 1.375 . S
C112 C113 1.367 . S
C112 H126 0.951 . S
C113 C109 1.383 . S
C113 C112 1.367 . S
C113 H127 0.950 . S
C114 C111 1.481 1_545 S
C114 C115 1.297 1_556 S
C114 H128 0.950 . S
C115 C114 1.297 1_554 S
C115 C116 1.479 . S
C115 H129 0.950 . S
C116 C115 1.479 . S
C116 C117 1.375 . S
C116 C122 1.404 . S
C117 C116 1.375 . S
C117 C118 1.369 . S
C117 H130 0.950 . S
C118 C117 1.369 . S
C118 C119 1.392 . S
C118 H131 0.951 . S
C119 C118 1.392 . S
C119 C121 1.384 . S
H120 C122 0.949 . S
C121 C119 1.384 . S
C121 C122 1.385 . S
C121 H123 0.950 . S
C122 C116 1.404 . S
C122 H120 0.949 . S
C122 C121 1.385 . S
H123 C121 0.950 . S
H124 C108 0.951 . S
H125 C110 0.951 . S
H126 C112 0.951 . S
H127 C113 0.950 . S
H128 C114 0.950 . S
H129 C115 0.950 . S
H130 C117 0.950 . S
H131 C118 0.951 . S
C132 C133 1.386 . S
C132 C134 1.383 . S
C132 H148 0.951 . S
C133 C132 1.386 . S
C133 C137 1.383 . S
C134 C132 1.383 . S
C134 C135 1.402 . S
C134 H149 0.951 . S
C135 C134 1.402 . S
C135 C136 1.375 . S
C135 C138 1.481 . S
C136 C135 1.375 . S
C136 C137 1.367 . S
C136 H150 0.951 . S
C137 C133 1.383 . S
C137 C136 1.367 . S
C137 H151 0.950 . S
C138 C135 1.481 . S
C138 C139 1.297 . S
C138 H152 0.950 . S
C139 C138 1.297 . S
C139 C140 1.479 . S
C139 H153 0.950 . S
C140 C139 1.479 . S
C140 C141 1.375 . S
C140 C146 1.404 . S
C141 C140 1.375 . S
C141 C142 1.369 . S
C141 H154 0.950 . S
C142 C141 1.369 . S
C142 C143 1.392 . S
C142 H155 0.951 . S
C143 C142 1.392 . S
C143 C145 1.384 . S
H144 C146 0.949 . S
C145 C143 1.384 . S
C145 C146 1.385 . S
C145 H147 0.950 . S
C146 C140 1.404 . S
C146 H144 0.949 . S
C146 C145 1.385 . S
H147 C145 0.950 . S
H148 C132 0.951 . S
H149 C134 0.951 . S
H150 C136 0.951 . S
H151 C137 0.950 . S
H152 C138 0.950 . S
H153 C139 0.950 . S
H154 C141 0.950 . S
H155 C142 0.951 . S
C156 C157 1.386 . S
C156 C158 1.383 . S
C156 H172 0.951 . S
C157 C156 1.386 . S
C157 C161 1.383 . S
C158 C156 1.383 . S
C158 C159 1.402 . S
C158 H173 0.951 . S
C159 C158 1.402 . S
C159 C160 1.375 . S
C159 C162 1.481 1_655 S
C160 C159 1.375 . S
C160 C161 1.367 . S
C160 H174 0.991 . S
C161 C157 1.383 . S
C161 C160 1.367 . S
C161 H175 0.950 . S
C162 C159 1.481 1_455 S
C162 C163 1.297 . S
C162 H176 0.950 . S
C163 C162 1.297 . S
C163 C164 1.479 . S
C163 H177 0.950 1_455 S
C164 C163 1.479 . S
C164 C165 1.375 . S
C164 C170 1.404 . S
C165 C164 1.375 . S
C165 C166 1.369 . S
C165 H178 0.972 . S
C166 C165 1.369 . S
C166 C167 1.392 . S
C166 H179 0.951 . S
C167 C166 1.392 . S
C167 C169 1.384 . S
H168 C170 0.949 . S
C169 C167 1.384 . S
C169 C170 1.385 . S
C169 H171 0.950 . S
C170 C164 1.404 . S
C170 H168 0.949 . S
C170 C169 1.385 . S
H171 C169 0.950 . S
H172 C156 0.951 . S
H173 C158 0.951 . S
H174 C160 0.991 . S
H175 C161 0.950 . S
H176 C162 0.950 . S
H177 C163 0.950 1_655 S
H178 C165 0.972 . S
H179 C166 0.951 . S
C180 C181 1.386 . S
C180 C182 1.383 . S
C180 H196 0.951 . S
C181 C180 1.386 . S
C181 C185 1.383 . S
C182 C180 1.383 . S
C182 C183 1.402 . S
C182 H197 0.951 . S
C183 C182 1.402 . S
C183 C184 1.375 . S
C183 C186 1.481 1_545 S
C184 C183 1.375 . S
C184 C185 1.367 . S
C184 H198 0.951 1_545 S
C185 C181 1.383 . S
C185 C184 1.367 . S
C185 H199 0.950 . S
C186 C183 1.481 1_565 S
C186 C187 1.297 . S
C186 H200 0.950 . S
C187 C186 1.297 . S
C187 C188 1.479 . S
C187 H201 0.950 1_565 S
C188 C187 1.479 . S
C188 C189 1.375 . S
C188 C194 1.404 . S
C189 C188 1.375 . S
C189 C190 1.369 . S
C189 H202 0.950 . S
C190 C189 1.369 . S
C190 C191 1.392 . S
C190 H203 0.951 . S
C191 C190 1.392 . S
C191 C193 1.384 . S
H192 C194 0.949 . S
C193 C191 1.384 . S
C193 C194 1.385 . S
C193 H195 0.950 . S
C194 C188 1.404 . S
C194 H192 0.949 . S
C194 C193 1.385 . S
H195 C193 0.950 . S
H196 C180 0.951 . S
H197 C182 0.951 . S
H198 C184 0.951 1_565 S
H199 C185 0.950 . S
H200 C186 0.950 . S
H201 C187 0.950 1_545 S
H202 C189 0.950 . S
H203 C190 0.951 . S
C204 C205 1.386 . S
C204 C206 1.383 . S
C204 H220 0.951 . S
C205 C204 1.386 . S
C205 C209 1.383 . S
C206 C204 1.383 . S
C206 C207 1.402 . S
C206 H221 0.951 . S
C207 C206 1.402 . S
C207 C208 1.375 . S
C207 C210 1.481 . S
C208 C207 1.375 . S
C208 C209 1.367 . S
C208 H222 0.951 . S
C209 C205 1.383 . S
C209 C208 1.367 . S
C209 H223 0.950 . S
C210 C207 1.481 . S
C210 C211 1.297 . S
C210 H224 0.950 . S
C211 C210 1.297 . S
C211 C212 1.479 . S
C211 H225 0.950 . S
C212 C211 1.479 . S
C212 C213 1.375 . S
C212 C218 1.404 . S
C213 C212 1.375 . S
C213 C214 1.369 . S
C213 H226 0.950 . S
C214 C213 1.369 . S
C214 C215 1.392 . S
C214 H227 0.951 . S
C215 C214 1.392 . S
C215 C217 1.384 . S
H216 C218 0.949 . S
C217 C215 1.384 . S
C217 C218 1.385 . S
C217 H219 0.950 . S
C218 C212 1.404 . S
C218 H216 0.949 . S
C218 C217 1.385 . S
H219 C217 0.950 . S
H220 C204 0.951 . S
H221 C206 0.951 . S
H222 C208 0.951 . S
H223 C209 0.950 . S
H224 C210 0.950 . S
H225 C211 0.950 . S
H226 C213 0.950 . S
H227 C214 0.951 . S
C228 C229 1.386 . S
C228 C230 1.383 . S
C228 H244 0.951 . S
C229 C228 1.386 . S
C229 C233 1.383 . S
C230 C228 1.383 . S
C230 C231 1.402 . S
C230 H245 0.951 . S
C231 C230 1.402 . S
C231 C232 1.375 . S
C231 C234 1.481 . S
C232 C231 1.375 . S
C232 C233 1.367 . S
C232 H246 0.951 . S
C233 C229 1.383 . S
C233 C232 1.367 . S
C233 H247 0.950 . S
C234 C231 1.481 . S
C234 C235 1.297 . S
C234 H248 0.950 . S
C235 C234 1.297 . S
C235 C236 1.479 . S
C235 H249 0.950 . S
C236 C235 1.479 . S
C236 C237 1.375 . S
C236 C242 1.404 . S
C237 C236 1.375 . S
C237 C238 1.369 . S
C237 H250 0.950 . S
C238 C237 1.369 . S
C238 C239 1.392 . S
C238 H251 0.951 . S
C239 C238 1.392 . S
C239 C241 1.384 . S
H240 C242 0.949 . S
C241 C239 1.384 . S
C241 C242 1.385 . S
C241 H243 0.950 . S
C242 C236 1.404 . S
C242 H240 0.949 . S
C242 C241 1.385 . S
H243 C241 0.950 . S
H244 C228 0.951 . S
H245 C230 0.951 . S
H246 C232 0.951 . S
H247 C233 0.950 . S
H248 C234 0.950 . S
H249 C235 0.950 . S
H250 C237 0.950 . S
H251 C238 0.951 . S
C252 C253 1.386 . S
C252 C254 1.383 . S
C252 H268 0.951 . S
C253 C252 1.386 . S
C253 C257 1.383 . S
C254 C252 1.383 . S
C254 C255 1.402 . S
C254 H269 0.951 . S
C255 C254 1.402 . S
C255 C256 1.375 . S
C255 C258 1.481 . S
C256 C255 1.375 . S
C256 C257 1.367 . S
C256 H270 0.951 . S
C257 C253 1.383 . S
C257 C256 1.367 . S
C257 H271 0.950 . S
C258 C255 1.481 . S
C258 C259 1.297 . S
C258 H272 0.950 . S
C259 C258 1.297 . S
C259 C260 1.479 . S
C259 H273 0.950 . S
C260 C259 1.479 . S
C260 C261 1.375 . S
C260 C266 1.404 . S
C261 C260 1.375 . S
C261 C262 1.369 . S
C261 H274 0.950 . S
C262 C261 1.369 . S
C262 C263 1.392 . S
C262 H275 0.951 . S
C263 C262 1.392 . S
C263 C265 1.384 . S
H264 C266 0.949 . S
C265 C263 1.384 . S
C265 C266 1.385 . S
C265 H267 0.950 . S
C266 C260 1.404 . S
C266 H264 0.949 . S
C266 C265 1.385 . S
H267 C265 0.950 . S
H268 C252 0.951 . S
H269 C254 0.951 . S
H270 C256 0.951 . S
H271 C257 0.950 . S
H272 C258 0.950 . S
H273 C259 0.950 . S
H274 C261 0.950 . S
H275 C262 0.951 . S
C276 C277 1.386 . S
C276 C278 1.383 . S
C276 H292 0.951 . S
C277 C276 1.386 . S
C277 C281 1.383 . S
C278 C276 1.383 . S
C278 C279 1.402 . S
C278 H293 0.951 . S
C279 C278 1.402 . S
C279 C280 1.375 . S
C279 C282 1.481 . S
C280 C279 1.375 . S
C280 C281 1.367 . S
C280 H294 0.951 . S
C281 C277 1.383 . S
C281 C280 1.367 . S
C281 H295 0.950 . S
C282 C279 1.481 . S
C282 C283 1.297 . S
C282 H296 0.950 . S
C283 C282 1.297 . S
C283 C284 1.479 . S
C283 H297 0.950 . S
C284 C283 1.479 . S
C284 C285 1.375 . S
C284 C290 1.404 . S
C285 C284 1.375 . S
C285 C286 1.369 . S
C285 H298 0.950 . S
C286 C285 1.369 . S
C286 C287 1.392 . S
C286 H299 0.951 . S
C287 C286 1.392 . S
C287 C289 1.384 . S
H288 C290 0.949 . S
C289 C287 1.384 . S
C289 C290 1.385 . S
C289 H291 0.950 . S
C290 C284 1.404 . S
C290 H288 0.949 . S
C290 C289 1.385 . S
H291 C289 0.950 . S
H292 C276 0.951 . S
H293 C278 0.951 . S
H294 C280 0.951 . S
H295 C281 0.950 . S
H296 C282 0.950 . S
H297 C283 0.950 . S
H298 C285 0.950 . S
H299 C286 0.951 . S
C300 C301 1.386 . S
C300 C302 1.383 . S
C300 H316 0.951 . S
C301 C300 1.386 . S
C301 C305 1.383 . S
C302 C300 1.383 . S
C302 C303 1.402 . S
C302 H317 0.951 . S
C303 C302 1.402 . S
C303 C304 1.375 . S
C303 C306 1.481 . S
C304 C303 1.375 . S
C304 C305 1.367 . S
C304 H318 0.951 . S
C305 C301 1.383 . S
C305 C304 1.367 . S
C305 H319 0.950 . S
C306 C303 1.481 . S
C306 C307 1.297 . S
C306 H320 0.950 . S
C307 C306 1.297 . S
C307 C308 1.479 . S
C307 H321 0.950 . S
C308 C307 1.479 . S
C308 C309 1.375 . S
C308 C314 1.404 . S
C309 C308 1.375 . S
C309 C310 1.369 . S
C309 H322 0.950 . S
C310 C309 1.369 . S
C310 C311 1.392 . S
C310 H323 0.951 . S
C311 C310 1.392 . S
C311 C313 1.384 . S
H312 C314 0.949 . S
C313 C311 1.384 . S
C313 C314 1.385 . S
C313 H315 0.950 . S
C314 C308 1.404 . S
C314 H312 0.949 . S
C314 C313 1.385 . S
H315 C313 0.950 . S
H316 C300 0.951 . S
H317 C302 0.951 . S
H318 C304 0.951 . S
H319 C305 0.950 . S
H320 C306 0.950 . S
H321 C307 0.950 . S
H322 C309 0.950 . S
H323 C310 0.951 . S
C324 C325 1.386 . S
C324 C326 1.383 . S
C324 H340 0.951 . S
C325 C324 1.386 . S
C325 C329 1.383 . S
C326 C324 1.383 . S
C326 C327 1.402 . S
C326 H341 0.951 . S
C327 C326 1.402 . S
C327 C328 1.375 . S
C327 C330 1.481 . S
C328 C327 1.375 . S
C328 C329 1.367 . S
C328 H342 0.951 . S
C329 C325 1.383 . S
C329 C328 1.367 . S
C329 H343 0.950 . S
C330 C327 1.481 . S
C330 C331 1.297 . S
C330 H344 0.950 . S
C331 C330 1.297 . S
C331 C332 1.479 . S
C331 H345 0.950 . S
C332 C331 1.479 . S
C332 C333 1.375 1_556 S
C332 C338 1.404 . S
C333 C332 1.375 1_554 S
C333 C334 1.369 . S
C333 H346 0.950 . S
C334 C333 1.369 . S
C334 C335 1.392 . S
C334 H347 0.951 . S
C335 C334 1.392 . S
C335 C337 1.384 1_554 S
H336 C338 0.949 . S
C337 C335 1.384 1_556 S
C337 C338 1.385 . S
C337 H339 0.950 . S
C338 C332 1.404 . S
C338 H336 0.949 . S
C338 C337 1.385 . S
H339 C337 0.950 . S
H340 C324 0.951 . S
H341 C326 0.951 . S
H342 C328 0.951 . S
H343 C329 0.950 . S
H344 C330 0.950 . S
H345 C331 0.950 . S
H346 C333 0.950 . S
H347 C334 0.951 . S
C348 C349 1.386 1_554 S
C348 C350 1.383 . S
C348 H364 0.951 . S
C349 C348 1.386 1_556 S
C349 C353 1.383 . S
C350 C348 1.383 . S
C350 C351 1.402 . S
C350 H365 0.951 . S
C351 C350 1.402 . S
C351 C352 1.375 1_554 S
C351 C354 1.481 . S
C352 C351 1.375 1_556 S
C352 C353 1.367 . S
C352 H366 0.951 . S
C353 C349 1.383 . S
C353 C352 1.367 . S
C353 H367 0.950 . S
C354 C351 1.481 . S
C354 C355 1.297 . S
C354 H368 0.950 . S
C355 C354 1.297 . S
C355 C356 1.479 . S
C355 H369 0.950 . S
C356 C355 1.479 . S
C356 C357 1.375 . S
C356 C362 1.404 . S
C357 C356 1.375 . S
C357 C358 1.369 . S
C357 H370 0.950 . S
C358 C357 1.369 . S
C358 C359 1.392 . S
C358 H371 0.951 . S
C359 C358 1.392 . S
C359 C361 1.384 . S
H360 C362 0.949 . S
C361 C359 1.384 . S
C361 C362 1.385 . S
C361 H363 0.950 . S
C362 C356 1.404 . S
C362 H360 0.949 . S
C362 C361 1.385 . S
H363 C361 0.950 . S
H364 C348 0.951 . S
H365 C350 0.951 . S
H366 C352 0.951 . S
H367 C353 0.950 . S
H368 C354 0.950 . S
H369 C355 0.950 . S
H370 C357 0.950 . S
H371 C358 0.951 . S
C85 C7 1.282 1_556 S
C95 C50 1.296 . S
C109 C64 1.289 . S
C119 C21 1.240 . S
C133 C35 1.293 . S
C143 C78 1.266 1_554 S
C157 C49 1.294 . S
C167 C8 1.290 . S
C181 C22 1.294 . S
C191 C63 1.262 . S
C205 C77 1.253 . S
C215 C36 1.275 . S
C229 C3 1.190 . S
C239 C37 1.157 . S
C253 C17 1.187 . S
C263 C51 1.151 . S
C277 C65 1.175 . S
C287 C31 1.192 . S
C301 C79 1.198 . S
C311 C45 1.217 . S
C325 C59 1.213 . S
C335 C9 1.218 . S
C349 C73 1.212 . S
C359 C23 1.221 . S
