# Generated by pormake.
# Topology dia-g, (3)-cn, num edge types: 1
# Building blocks:
#     Node 0, Type 0, BuildingBlock: WUSLED_clean_sbu_0, # of connection points: 3
#     Node 1, Type 0, BuildingBlock: WUSLED_clean_sbu_0, # of connection points: 3
#     Node 2, Type 0, BuildingBlock: WUSLED_clean_sbu_0, # of connection points: 3
#     Node 3, Type 0, BuildingBlock: WUSLED_clean_sbu_0, # of connection points: 3
#     Node 4, Type 0, BuildingBlock: WUSLED_clean_sbu_0, # of connection points: 3
#     Node 5, Type 0, BuildingBlock: WUSLED_clean_sbu_0, # of connection points: 3
#     Node 6, Type 0, BuildingBlock: WUSLED_clean_sbu_0, # of connection points: 3
#     Node 7, Type 0, BuildingBlock: WUSLED_clean_sbu_0, # of connection points: 3
#     Node 8, Type 0, BuildingBlock: WUSLED_clean_sbu_0, # of connection points: 3
#     Node 9, Type 0, BuildingBlock: WUSLED_clean_sbu_0, # of connection points: 3
#     Node 10, Type 0, BuildingBlock: WUSLED_clean_sbu_0, # of connection points: 3
#     Node 11, Type 0, BuildingBlock: WUSLED_clean_sbu_0, # of connection points: 3
#     Node 12, Type 0, BuildingBlock: WUSLED_clean_sbu_0, # of connection points: 3
#     Node 13, Type 0, BuildingBlock: WUSLED_clean_sbu_0, # of connection points: 3
#     Node 14, Type 0, BuildingBlock: WUSLED_clean_sbu_0, # of connection points: 3
#     Node 15, Type 0, BuildingBlock: WUSLED_clean_sbu_0, # of connection points: 3
#     Edge 16, Type (0, 0), BuildingBlock: KIFKEQ_clean_linker_1, # of connection points: 2
#     Edge 17, Type (0, 0), BuildingBlock: KIFKEQ_clean_linker_1, # of connection points: 2
#     Edge 18, Type (0, 0), BuildingBlock: KIFKEQ_clean_linker_1, # of connection points: 2
#     Edge 19, Type (0, 0), BuildingBlock: KIFKEQ_clean_linker_1, # of connection points: 2
#     Edge 20, Type (0, 0), BuildingBlock: KIFKEQ_clean_linker_1, # of connection points: 2
#     Edge 21, Type (0, 0), BuildingBlock: KIFKEQ_clean_linker_1, # of connection points: 2
#     Edge 22, Type (0, 0), BuildingBlock: KIFKEQ_clean_linker_1, # of connection points: 2
#     Edge 23, Type (0, 0), BuildingBlock: KIFKEQ_clean_linker_1, # of connection points: 2
#     Edge 24, Type (0, 0), BuildingBlock: KIFKEQ_clean_linker_1, # of connection points: 2
#     Edge 25, Type (0, 0), BuildingBlock: KIFKEQ_clean_linker_1, # of connection points: 2
#     Edge 26, Type (0, 0), BuildingBlock: KIFKEQ_clean_linker_1, # of connection points: 2
#     Edge 27, Type (0, 0), BuildingBlock: KIFKEQ_clean_linker_1, # of connection points: 2
#     Edge 28, Type (0, 0), BuildingBlock: KIFKEQ_clean_linker_1, # of connection points: 2
#     Edge 29, Type (0, 0), BuildingBlock: KIFKEQ_clean_linker_1, # of connection points: 2
#     Edge 30, Type (0, 0), BuildingBlock: KIFKEQ_clean_linker_1, # of connection points: 2
#     Edge 31, Type (0, 0), BuildingBlock: KIFKEQ_clean_linker_1, # of connection points: 2
#     Edge 32, Type (0, 0), BuildingBlock: KIFKEQ_clean_linker_1, # of connection points: 2
#     Edge 33, Type (0, 0), BuildingBlock: KIFKEQ_clean_linker_1, # of connection points: 2
#     Edge 34, Type (0, 0), BuildingBlock: KIFKEQ_clean_linker_1, # of connection points: 2
#     Edge 35, Type (0, 0), BuildingBlock: KIFKEQ_clean_linker_1, # of connection points: 2
#     Edge 36, Type (0, 0), BuildingBlock: KIFKEQ_clean_linker_1, # of connection points: 2
#     Edge 37, Type (0, 0), BuildingBlock: KIFKEQ_clean_linker_1, # of connection points: 2
#     Edge 38, Type (0, 0), BuildingBlock: KIFKEQ_clean_linker_1, # of connection points: 2
#     Edge 39, Type (0, 0), BuildingBlock: KIFKEQ_clean_linker_1, # of connection points: 2
# Relax obj value: 0.111
# Max RMSD: 0.094
# Mean RMSD: 0.093
data_MOF--net-dia-g--node1-WUSLED_clean_sbu_0--edge1-KIFKEQ_clean_linker_1
_symmetry_space_group_name_H-M    P1
_symmetry_Int_Tables_number       1
_symmetry_cell_setting            triclinic
loop_
_symmetry_equiv_pos_as_xyz
'x, y, z'
_cell_length_a     70.067629
_cell_length_b     70.952982
_cell_length_c     145.14596
_cell_angle_alpha  90.859991
_cell_angle_beta   90.068723
_cell_angle_gamma 90.07462
loop_
_atom_site_label
_atom_site_type_symbol
_atom_site_fract_x
_atom_site_fract_y
_atom_site_fract_z
_atom_type_partial_charge
C0 C 0.10909 0.08238 0.42023 0.0
C1 C 0.09624 0.0824 0.42763 0.0
C2 C 0.07721 0.05808 0.41997 0.0
C3 C 0.08045 0.0704 0.4275 0.0
C4 C 0.09004 0.05827 0.41251 0.0
C5 C 0.10587 0.07034 0.41264 0.0
U6 U 0.14021 0.11515 0.43414 0.0
O7 O 0.17124 0.11666 0.43604 0.0
O8 O 0.15586 0.14097 0.43051 0.0
C9 C 0.17253 0.13332 0.43225 0.0
C10 C 0.12623 0.09428 0.42069 0.0
C11 C 0.18699 0.13502 0.42496 0.0
C12 C 0.20545 0.12137 0.41238 0.0
C13 C 0.19086 0.11993 0.41889 0.0
C14 C 0.21194 0.15329 0.41767 0.0
C15 C 0.21634 0.138 0.41175 0.0
C16 C 0.19744 0.15177 0.42423 0.0
C17 C 0.1237 0.12498 0.45902 0.0
C18 C 0.14354 0.13418 0.47208 0.0
C19 C 0.10909 0.13449 0.47349 0.0
C20 C 0.10738 0.12848 0.46433 0.0
C21 C 0.12718 0.13706 0.47753 0.0
C22 C 0.14181 0.12824 0.46287 0.0
C23 C 0.12142 0.11663 0.44975 0.0
O24 O 0.12299 0.11248 0.4215 0.0
O25 O 0.13943 0.08831 0.42638 0.0
O26 O 0.13351 0.10314 0.44758 0.0
O27 O 0.11835 0.12843 0.44302 0.0
H28 H 0.09863 0.0915 0.43358 0.0
H29 H 0.07107 0.0704 0.43343 0.0
H30 H 0.08786 0.04907 0.40658 0.0
H31 H 0.1157 0.07013 0.40689 0.0
H32 H 0.20855 0.10923 0.40803 0.0
H33 H 0.18287 0.10689 0.4193 0.0
H34 H 0.21977 0.16642 0.41727 0.0
H35 H 0.19454 0.16362 0.42881 0.0
H36 H 0.15767 0.13622 0.47497 0.0
H37 H 0.09621 0.13632 0.47753 0.0
H38 H 0.0933 0.12597 0.46147 0.0
H39 H 0.1546 0.1257 0.45885 0.0
C40 C 0.95929 0.6124 0.67202 0.0
C41 C 0.96044 0.59998 0.67942 0.0
C42 C 0.98148 0.57938 0.67053 0.0
C43 C 0.97143 0.58362 0.67868 0.0
C44 C 0.98002 0.59176 0.66307 0.0
C45 C 0.96903 0.60817 0.66382 0.0
U46 U 0.92946 0.64549 0.68666 0.0
O47 O 0.93043 0.67632 0.68832 0.0
O48 O 0.90425 0.66255 0.68333 0.0
C49 C 0.9133 0.67855 0.68481 0.0
C50 C 0.94846 0.63002 0.67295 0.0
C51 C 0.91213 0.69219 0.67734 0.0
C52 C 0.91973 0.70151 0.66174 0.0
C53 C 0.92035 0.68817 0.66873 0.0
C54 C 0.90253 0.72293 0.67189 0.0
C55 C 0.91091 0.71909 0.66326 0.0
C56 C 0.90317 0.70958 0.67887 0.0
C57 C 0.91906 0.63154 0.71146 0.0
C58 C 0.90414 0.65279 0.72257 0.0
C59 C 0.91204 0.62086 0.72688 0.0
C60 C 0.91925 0.61736 0.71806 0.0
C61 C 0.9045 0.63865 0.72927 0.0
C62 C 0.91134 0.64924 0.71372 0.0
C63 C 0.92741 0.62776 0.70236 0.0
O64 O 0.92994 0.62799 0.67401 0.0
O65 O 0.95595 0.64251 0.67867 0.0
O66 O 0.94176 0.63872 0.70013 0.0
O67 O 0.91516 0.62506 0.6956 0.0
H68 H 0.95297 0.60305 0.6858 0.0
H69 H 0.97202 0.57425 0.6845 0.0
H70 H 0.98774 0.58901 0.65673 0.0
H71 H 0.96833 0.61766 0.65806 0.0
H72 H 0.92609 0.69801 0.65513 0.0
H73 H 0.92733 0.67477 0.66744 0.0
H74 H 0.89585 0.73641 0.67333 0.0
H75 H 0.89683 0.71291 0.68551 0.0
H76 H 0.89827 0.66657 0.72416 0.0
H77 H 0.9128 0.60975 0.73191 0.0
H78 H 0.92523 0.60363 0.71642 0.0
H79 H 0.91105 0.66034 0.70867 0.0
C80 C 0.37276 0.39835 0.9595 0.0
C81 C 0.39127 0.39584 0.96298 0.0
C82 C 0.37894 0.39542 0.97865 0.0
C83 C 0.39431 0.39425 0.97244 0.0
C84 C 0.36033 0.39736 0.97511 0.0
C85 C 0.35729 0.39882 0.96561 0.0
U86 U 0.39144 0.41942 0.93771 0.0
O87 O 0.39036 0.41025 0.92319 0.0
O88 O 0.37777 0.43737 0.9274 0.0
C89 C 0.3801 0.42485 0.92073 0.0
C90 C 0.36978 0.40231 0.94968 0.0
C91 C 0.36294 0.42054 0.91528 0.0
C92 C 0.33335 0.40326 0.91287 0.0
C93 C 0.34966 0.40703 0.91816 0.0
C94 C 0.34339 0.42662 0.90186 0.0
C95 C 0.33004 0.413 0.90463 0.0
C96 C 0.35969 0.43031 0.90712 0.0
C97 C 0.44081 0.44253 0.93933 0.0
C98 C 0.45413 0.46264 0.92755 0.0
C99 C 0.47302 0.45467 0.94094 0.0
C100 C 0.45792 0.4439 0.94427 0.0
C101 C 0.47127 0.4643 0.93257 0.0
C102 C 0.43901 0.45179 0.9309 0.0
C103 C 0.42483 0.43198 0.94327 0.0
O104 O 0.36808 0.4203 0.94782 0.0
O105 O 0.38103 0.39322 0.94389 0.0
O106 O 0.42218 0.41485 0.93994 0.0
O107 O 0.4089 0.44152 0.94431 0.0
H108 H 0.40347 0.39561 0.95839 0.0
H109 H 0.40878 0.39244 0.9749 0.0
H110 H 0.34819 0.39853 0.97969 0.0
H111 H 0.34292 0.40095 0.96307 0.0
H112 H 0.32346 0.39258 0.91517 0.0
H113 H 0.35193 0.39941 0.92448 0.0
H114 H 0.34113 0.43465 0.89566 0.0
H115 H 0.36974 0.44089 0.90485 0.0
H116 H 0.4524 0.46975 0.92105 0.0
H117 H 0.48588 0.45588 0.94505 0.0
H118 H 0.45949 0.43689 0.95081 0.0
H119 H 0.42586 0.45082 0.92698 0.0
C120 C 0.58509 0.93091 0.16936 0.0
C121 C 0.58522 0.9445 0.17648 0.0
C122 C 0.56369 0.96431 0.16771 0.0
C123 C 0.57467 0.96108 0.17565 0.0
C124 C 0.56372 0.95067 0.16056 0.0
C125 C 0.57436 0.9341 0.16139 0.0
U126 U 0.6101 0.89706 0.18501 0.0
O127 O 0.6082 0.86633 0.18621 0.0
O128 O 0.63575 0.87951 0.18305 0.0
C129 C 0.62604 0.86372 0.18371 0.0
C130 C 0.59534 0.91304 0.17048 0.0
C131 C 0.62892 0.8499 0.17619 0.0
C132 C 0.61896 0.8356 0.16165 0.0
C133 C 0.61663 0.84935 0.16855 0.0
C134 C 0.64631 0.82319 0.16979 0.0
C135 C 0.63375 0.82225 0.16221 0.0
C136 C 0.64386 0.83687 0.17672 0.0
C137 C 0.61212 0.91119 0.21063 0.0
C138 C 0.62951 0.89434 0.22243 0.0
C139 C 0.60531 0.91717 0.22677 0.0
C140 C 0.60191 0.92083 0.2175 0.0
C141 C 0.61902 0.90378 0.22934 0.0
C142 C 0.626 0.89794 0.21311 0.0
C143 C 0.60738 0.91474 0.20095 0.0
O144 O 0.61344 0.91465 0.17276 0.0
O145 O 0.58618 0.90046 0.17535 0.0
O146 O 0.59375 0.90405 0.1975 0.0
O147 O 0.62183 0.91703 0.1953 0.0
H148 H 0.59326 0.94216 0.18274 0.0
H149 H 0.57472 0.97115 0.18133 0.0
H150 H 0.55553 0.95282 0.15433 0.0
H151 H 0.57405 0.92368 0.15585 0.0
H152 H 0.60886 0.83518 0.156 0.0
H153 H 0.60504 0.85936 0.16799 0.0
H154 H 0.65805 0.81337 0.17037 0.0
H155 H 0.65357 0.83719 0.18254 0.0
H156 H 0.6401 0.8839 0.22422 0.0
H157 H 0.59721 0.92487 0.23195 0.0
H158 H 0.59115 0.93109 0.2157 0.0
H159 H 0.63391 0.89025 0.20787 0.0
C160 C 0.10474 0.45699 0.85474 0.0
C161 C 0.09229 0.45635 0.84717 0.0
C162 C 0.07226 0.48038 0.85436 0.0
C163 C 0.07621 0.46791 0.84698 0.0
C164 C 0.08472 0.48086 0.86198 0.0
C165 C 0.10086 0.46922 0.86216 0.0
U166 U 0.13735 0.42538 0.8412 0.0
O167 O 0.16848 0.42454 0.83972 0.0
O168 O 0.15322 0.39972 0.84483 0.0
C169 C 0.16985 0.40774 0.84338 0.0
C170 C 0.12218 0.44553 0.85457 0.0
C171 C 0.18403 0.40596 0.85081 0.0
C172 C 0.20266 0.41963 0.86336 0.0
C173 C 0.18818 0.42115 0.85679 0.0
C174 C 0.20843 0.38742 0.85835 0.0
C175 C 0.21315 0.40282 0.86415 0.0
C176 C 0.19405 0.38901 0.85173 0.0
C177 C 0.12257 0.41635 0.81603 0.0
C178 C 0.14355 0.40381 0.80412 0.0
C179 C 0.11068 0.41134 0.80049 0.0
C180 C 0.10765 0.41697 0.80963 0.0
C181 C 0.12874 0.40496 0.79759 0.0
C182 C 0.14048 0.40945 0.81328 0.0
C183 C 0.11947 0.42424 0.8253 0.0
O184 O 0.11938 0.42727 0.8536 0.0
O185 O 0.13566 0.45194 0.84916 0.0
O186 O 0.13125 0.43782 0.82777 0.0
O187 O 0.11628 0.41206 0.83186 0.0
H188 H 0.0952 0.44713 0.84132 0.0
H189 H 0.06715 0.46742 0.84093 0.0
H190 H 0.08201 0.49022 0.86779 0.0
H191 H 0.11039 0.46992 0.86804 0.0
H192 H 0.20601 0.43186 0.86761 0.0
H193 H 0.18053 0.43435 0.85624 0.0
H194 H 0.21595 0.37415 0.85888 0.0
H195 H 0.19094 0.37709 0.84722 0.0
H196 H 0.15756 0.3988 0.80212 0.0
H197 H 0.09904 0.41272 0.79563 0.0
H198 H 0.09377 0.42237 0.81163 0.0
H199 H 0.15216 0.40888 0.81817 0.0
C200 C 0.5828 0.61085 0.10566 0.0
C201 C 0.58301 0.59717 0.09858 0.0
C202 C 0.56093 0.57766 0.1072 0.0
C203 C 0.57222 0.58071 0.09935 0.0
C204 C 0.56082 0.59142 0.11429 0.0
C205 C 0.57169 0.60788 0.11352 0.0
U206 U 0.61181 0.64311 0.09073 0.0
O207 O 0.61121 0.6738 0.08908 0.0
O208 O 0.63752 0.66006 0.09371 0.0
C209 C 0.62855 0.67606 0.0924 0.0
C210 C 0.59365 0.62842 0.10469 0.0
C211 C 0.63051 0.69021 0.09985 0.0
C212 C 0.61832 0.70591 0.11361 0.0
C213 C 0.61654 0.69205 0.10672 0.0
C214 C 0.64835 0.7159 0.107 0.0
C215 C 0.63421 0.71807 0.11382 0.0
C216 C 0.64647 0.70212 0.10007 0.0
C217 C 0.61951 0.62748 0.06565 0.0
C218 C 0.63255 0.64791 0.05393 0.0
C219 C 0.62328 0.61587 0.04997 0.0
C220 C 0.61785 0.61294 0.05908 0.0
C221 C 0.63049 0.63346 0.04725 0.0
C222 C 0.62711 0.64493 0.06308 0.0
C223 C 0.61226 0.62446 0.07499 0.0
O224 O 0.61208 0.6263 0.10334 0.0
O225 O 0.58588 0.64074 0.09916 0.0
O226 O 0.59825 0.63567 0.07754 0.0
O227 O 0.6252 0.62218 0.08144 0.0
H228 H 0.59139 0.59934 0.09241 0.0
H229 H 0.5724 0.57054 0.09371 0.0
H230 H 0.55242 0.58941 0.12046 0.0
H231 H 0.57134 0.61834 0.11903 0.0
H232 H 0.60703 0.70731 0.11866 0.0
H233 H 0.60414 0.68291 0.1067 0.0
H234 H 0.66093 0.72478 0.10704 0.0
H235 H 0.65747 0.70079 0.09486 0.0
H236 H 0.63821 0.66154 0.05208 0.0
H237 H 0.62118 0.60454 0.04499 0.0
H238 H 0.61191 0.59942 0.06096 0.0
H239 H 0.62849 0.65631 0.06809 0.0
C240 C 0.37276 0.14522 0.31584 0.0
C241 C 0.39032 0.14158 0.31154 0.0
C242 C 0.37705 0.15052 0.29674 0.0
C243 C 0.39246 0.14425 0.30209 0.0
C244 C 0.35954 0.15445 0.30111 0.0
C245 C 0.35742 0.15181 0.3106 0.0
U246 U 0.39153 0.12141 0.33687 0.0
O247 O 0.3919 0.12948 0.35156 0.0
O248 O 0.37745 0.10344 0.34704 0.0
C249 C 0.38093 0.11527 0.35389 0.0
C250 C 0.3702 0.14081 0.32561 0.0
C251 C 0.36437 0.12005 0.35965 0.0
C252 C 0.33543 0.13801 0.36253 0.0
C253 C 0.35136 0.13401 0.35703 0.0
C254 C 0.34535 0.11405 0.37324 0.0
C255 C 0.33222 0.12805 0.3707 0.0
C256 C 0.36128 0.11013 0.36777 0.0
C257 C 0.43891 0.09515 0.33402 0.0
C258 C 0.45318 0.07657 0.34614 0.0
C259 C 0.46759 0.07705 0.33097 0.0
C260 C 0.45339 0.08933 0.32799 0.0
C261 C 0.46754 0.07036 0.34004 0.0
C262 C 0.43891 0.08885 0.34314 0.0
C263 C 0.42355 0.10714 0.33054 0.0
O264 O 0.3674 0.12284 0.32721 0.0
O265 O 0.38264 0.14869 0.33127 0.0
O266 O 0.42234 0.1241 0.33426 0.0
O267 O 0.40692 0.09878 0.32957 0.0
H268 H 0.40226 0.13624 0.31547 0.0
H269 H 0.40603 0.14076 0.29894 0.0
H270 H 0.34744 0.15944 0.29718 0.0
H271 H 0.34374 0.15458 0.3138 0.0
H272 H 0.32571 0.14899 0.3604 0.0
H273 H 0.35351 0.14176 0.35074 0.0
H274 H 0.34317 0.10585 0.37939 0.0
H275 H 0.37111 0.0992 0.36985 0.0
H276 H 0.45268 0.07155 0.35315 0.0
H277 H 0.47861 0.07276 0.32615 0.0
H278 H 0.45359 0.09411 0.32094 0.0
H279 H 0.42773 0.09318 0.34786 0.0
C280 C 0.95908 0.92609 0.60597 0.0
C281 C 0.95955 0.93894 0.59873 0.0
C282 C 0.98025 0.95977 0.60774 0.0
C283 C 0.97002 0.95564 0.5996 0.0
C284 C 0.97961 0.94687 0.615 0.0
C285 C 0.96909 0.93016 0.61412 0.0
U286 U 0.93037 0.89263 0.59096 0.0
O287 O 0.93199 0.86185 0.58918 0.0
O288 O 0.90538 0.87499 0.59397 0.0
C289 C 0.91478 0.8592 0.59252 0.0
C290 C 0.94868 0.90822 0.60489 0.0
C291 C 0.91358 0.84543 0.59994 0.0
C292 C 0.92027 0.83626 0.61566 0.0
C293 C 0.92109 0.84962 0.60869 0.0
C294 C 0.90433 0.81443 0.60519 0.0
C295 C 0.91194 0.81847 0.61398 0.0
C296 C 0.90516 0.82782 0.59823 0.0
C297 C 0.92036 0.90744 0.56605 0.0
C298 C 0.91742 0.8886 0.55197 0.0
C299 C 0.9036 0.91985 0.5528 0.0
C300 C 0.91001 0.92189 0.56188 0.0
C301 C 0.90755 0.90333 0.54766 0.0
C302 C 0.92372 0.89061 0.56108 0.0
C303 C 0.92829 0.91067 0.57536 0.0
O304 O 0.93014 0.90981 0.60371 0.0
O305 O 0.95658 0.89603 0.59917 0.0
O306 O 0.94291 0.90014 0.57767 0.0
O307 O 0.9158 0.91296 0.58203 0.0
H308 H 0.95199 0.93593 0.59235 0.0
H309 H 0.97045 0.96511 0.59382 0.0
H310 H 0.98717 0.94972 0.62139 0.0
H311 H 0.96887 0.92035 0.61977 0.0
H312 H 0.92604 0.83991 0.62238 0.0
H313 H 0.92764 0.86321 0.61011 0.0
H314 H 0.89805 0.8008 0.60363 0.0
H315 H 0.89936 0.82435 0.59149 0.0
H316 H 0.92088 0.87576 0.54821 0.0
H317 H 0.89572 0.93133 0.54977 0.0
H318 H 0.90718 0.93495 0.5656 0.0
H319 H 0.9316 0.87917 0.56415 0.0
C320 C 0.60774 0.5831 0.92138 0.0
C321 C 0.59744 0.58053 0.92954 0.0
C322 C 0.57742 0.55704 0.9219 0.0
C323 C 0.58244 0.56762 0.9298 0.0
C324 C 0.58739 0.56007 0.91364 0.0
C325 C 0.60254 0.57298 0.9134 0.0
U326 U 0.63911 0.61628 0.93479 0.0
O327 O 0.67026 0.61812 0.93618 0.0
O328 O 0.65414 0.6424 0.93114 0.0
C329 C 0.67106 0.63497 0.93258 0.0
C330 C 0.62447 0.59559 0.92144 0.0
C331 C 0.68488 0.63681 0.92506 0.0
C332 C 0.69574 0.62831 0.90967 0.0
C333 C 0.6817 0.62788 0.91651 0.0
C334 C 0.71603 0.64701 0.9198 0.0
C335 C 0.7132 0.63764 0.91129 0.0
C336 C 0.70198 0.64657 0.92662 0.0
C337 C 0.62452 0.62435 0.96007 0.0
C338 C 0.64522 0.637 0.9721 0.0
C339 C 0.61236 0.62908 0.97555 0.0
C340 C 0.60951 0.6235 0.9664 0.0
C341 C 0.63032 0.63562 0.97856 0.0
C342 C 0.64233 0.63141 0.96291 0.0
C343 C 0.62159 0.61652 0.95076 0.0
O344 O 0.6207 0.61364 0.92252 0.0
O345 O 0.6385 0.58986 0.92671 0.0
O346 O 0.63381 0.60344 0.9482 0.0
O347 O 0.61783 0.62869 0.94426 0.0
H348 H 0.60125 0.58828 0.93577 0.0
H349 H 0.57483 0.56581 0.93622 0.0
H350 H 0.58389 0.55205 0.90746 0.0
H351 H 0.6104 0.57478 0.90705 0.0
H352 H 0.69301 0.62116 0.90316 0.0
H353 H 0.66854 0.62024 0.9152 0.0
H354 H 0.72938 0.65409 0.92133 0.0
H355 H 0.70468 0.65343 0.93322 0.0
H356 H 0.65916 0.64214 0.97417 0.0
H357 H 0.60067 0.62753 0.98036 0.0
H358 H 0.59571 0.61798 0.96432 0.0
H359 H 0.65407 0.63217 0.95808 0.0
C360 C 0.45925 0.11399 0.17125 0.0
C361 C 0.45896 0.10022 0.17808 0.0
C362 C 0.48109 0.08087 0.16913 0.0
C363 C 0.46975 0.08378 0.17702 0.0
C364 C 0.48121 0.09471 0.16228 0.0
C365 C 0.47036 0.11113 0.16334 0.0
U366 U 0.42975 0.14668 0.18638 0.0
O367 O 0.43083 0.17747 0.18818 0.0
O368 O 0.40452 0.16386 0.18325 0.0
C369 C 0.41365 0.17982 0.18474 0.0
C370 C 0.44849 0.13158 0.17248 0.0
C371 C 0.41246 0.19349 0.17727 0.0
C372 C 0.41982 0.20273 0.16164 0.0
C373 C 0.42051 0.18942 0.16863 0.0
C374 C 0.40288 0.22425 0.17184 0.0
C375 C 0.41108 0.22035 0.16317 0.0
C376 C 0.40359 0.21091 0.17883 0.0
C377 C 0.41957 0.13223 0.21112 0.0
C378 C 0.40477 0.15334 0.22232 0.0
C379 C 0.41282 0.12139 0.22654 0.0
C380 C 0.41991 0.11799 0.21768 0.0
C381 C 0.40527 0.13914 0.22899 0.0
C382 C 0.41184 0.14989 0.21344 0.0
C383 C 0.42783 0.12858 0.20198 0.0
O384 O 0.42999 0.12958 0.17361 0.0
O385 O 0.45615 0.14377 0.17831 0.0
O386 O 0.44219 0.13954 0.19977 0.0
O387 O 0.4155 0.12606 0.19524 0.0
H388 H 0.45055 0.10229 0.18427 0.0
H389 H 0.46955 0.07353 0.18248 0.0
H390 H 0.48964 0.0928 0.15609 0.0
H391 H 0.47075 0.12165 0.15801 0.0
H392 H 0.42604 0.19917 0.15501 0.0
H393 H 0.42741 0.17598 0.16732 0.0
H394 H 0.39626 0.23775 0.17329 0.0
H395 H 0.39738 0.21428 0.18549 0.0
H396 H 0.39888 0.16709 0.22396 0.0
H397 H 0.41369 0.11025 0.23154 0.0
H398 H 0.4259 0.1043 0.216 0.0
H399 H 0.41144 0.16103 0.20842 0.0
C400 C 0.87503 0.89793 0.46001 0.0
C401 C 0.8936 0.89583 0.46347 0.0
C402 C 0.8813 0.89504 0.47914 0.0
C403 C 0.89669 0.89425 0.47293 0.0
C404 C 0.86265 0.89659 0.47561 0.0
C405 C 0.85956 0.89803 0.46612 0.0
U406 U 0.89321 0.9193 0.43817 0.0
O407 O 0.89197 0.91017 0.42364 0.0
O408 O 0.87915 0.93713 0.42793 0.0
C409 C 0.88154 0.92469 0.42124 0.0
C410 C 0.87194 0.90187 0.45019 0.0
C411 C 0.86438 0.92028 0.4158 0.0
C412 C 0.83465 0.90316 0.41353 0.0
C413 C 0.85098 0.90701 0.4188 0.0
C414 C 0.84496 0.92595 0.40229 0.0
C415 C 0.83146 0.91258 0.4052 0.0
C416 C 0.86127 0.92971 0.40754 0.0
C417 C 0.94208 0.94323 0.43948 0.0
C418 C 0.95457 0.96292 0.42733 0.0
C419 C 0.9737 0.95691 0.4409 0.0
C420 C 0.95907 0.94575 0.44442 0.0
C421 C 0.97157 0.96577 0.43235 0.0
C422 C 0.93994 0.9517 0.43087 0.0
C423 C 0.9265 0.93236 0.44358 0.0
O424 O 0.86996 0.91984 0.44835 0.0
O425 O 0.88328 0.89294 0.44438 0.0
O426 O 0.92405 0.91519 0.44025 0.0
O427 O 0.91043 0.94161 0.44474 0.0
H428 H 0.90579 0.89588 0.45888 0.0
H429 H 0.9112 0.89275 0.47539 0.0
H430 H 0.85049 0.89745 0.4802 0.0
H431 H 0.84515 0.89985 0.46358 0.0
H432 H 0.82464 0.89268 0.41593 0.0
H433 H 0.85316 0.89964 0.4252 0.0
H434 H 0.84281 0.93373 0.39602 0.0
H435 H 0.87142 0.9401 0.40517 0.0
H436 H 0.95256 0.96939 0.42069 0.0
H437 H 0.98646 0.95902 0.445 0.0
H438 H 0.9609 0.93936 0.4511 0.0
H439 H 0.92687 0.94984 0.42695 0.0
C440 C 0.08499 0.42887 0.6702 0.0
C441 C 0.08457 0.44182 0.67759 0.0
C442 C 0.06388 0.46252 0.66885 0.0
C443 C 0.07413 0.45849 0.67692 0.0
C444 C 0.06444 0.44951 0.66143 0.0
C445 C 0.07494 0.43281 0.6621 0.0
U446 U 0.11259 0.39603 0.68527 0.0
O447 O 0.11105 0.36534 0.68694 0.0
O448 O 0.13797 0.3785 0.68272 0.0
C449 C 0.1286 0.36269 0.684 0.0
C450 C 0.09536 0.41102 0.67111 0.0
C451 C 0.13067 0.34835 0.67669 0.0
C452 C 0.12501 0.33743 0.66099 0.0
C453 C 0.12356 0.35148 0.66781 0.0
C454 C 0.14084 0.31706 0.67186 0.0
C455 C 0.13355 0.31999 0.66295 0.0
C456 C 0.1394 0.33113 0.67866 0.0
C457 C 0.11958 0.41194 0.71038 0.0
C458 C 0.13231 0.39171 0.72225 0.0
C459 C 0.12282 0.42373 0.72606 0.0
C460 C 0.11765 0.42653 0.7169 0.0
C461 C 0.13003 0.40622 0.72888 0.0
C462 C 0.12713 0.39456 0.71306 0.0
C463 C 0.11275 0.41489 0.70096 0.0
O464 O 0.11379 0.41272 0.67263 0.0
O465 O 0.08711 0.39879 0.67654 0.0
O466 O 0.09864 0.40387 0.6983 0.0
O467 O 0.12601 0.41685 0.69464 0.0
H468 H 0.09213 0.4389 0.68392 0.0
H469 H 0.07376 0.46802 0.68281 0.0
H470 H 0.05684 0.45228 0.65509 0.0
H471 H 0.07509 0.42291 0.65635 0.0
H472 H 0.11905 0.34005 0.65424 0.0
H473 H 0.11669 0.36471 0.66619 0.0
H474 H 0.14771 0.3039 0.67356 0.0
H475 H 0.14498 0.32852 0.68549 0.0
H476 H 0.13797 0.37813 0.72418 0.0
H477 H 0.12056 0.4351 0.731 0.0
H478 H 0.11175 0.44001 0.71494 0.0
H479 H 0.1287 0.38314 0.70808 0.0
C480 C 0.60614 0.95634 0.35483 0.0
C481 C 0.59348 0.95516 0.34736 0.0
C482 C 0.57352 0.97953 0.35431 0.0
C483 C 0.57733 0.96662 0.3471 0.0
C484 C 0.5862 0.98057 0.36184 0.0
C485 C 0.6024 0.96903 0.3621 0.0
U486 U 0.6388 0.9243 0.34155 0.0
O487 O 0.66994 0.92342 0.34009 0.0
O488 O 0.65469 0.8988 0.34542 0.0
C489 C 0.67132 0.90676 0.34389 0.0
C490 C 0.62363 0.94496 0.35474 0.0
C491 C 0.68552 0.9052 0.35132 0.0
C492 C 0.70439 0.91925 0.3637 0.0
C493 C 0.68993 0.92064 0.3571 0.0
C494 C 0.70965 0.8867 0.3591 0.0
C495 C 0.71462 0.90232 0.3647 0.0
C496 C 0.69528 0.88817 0.35245 0.0
C497 C 0.62371 0.91398 0.31647 0.0
C498 C 0.6442 0.9057 0.30353 0.0
C499 C 0.60982 0.90375 0.30192 0.0
C500 C 0.60767 0.90969 0.31107 0.0
C501 C 0.62809 0.90206 0.29798 0.0
C502 C 0.64203 0.91156 0.31272 0.0
C503 C 0.62086 0.92232 0.3257 0.0
O504 O 0.62091 0.92666 0.35397 0.0
O505 O 0.63704 0.95119 0.34924 0.0
O506 O 0.63259 0.93607 0.328 0.0
O507 O 0.61765 0.9105 0.33241 0.0
H508 H 0.59628 0.94558 0.34164 0.0
H509 H 0.56809 0.9657 0.34113 0.0
H510 H 0.5836 0.99029 0.36753 0.0
H511 H 0.61209 0.97015 0.3679 0.0
H512 H 0.70795 0.93164 0.3678 0.0
H513 H 0.68248 0.93392 0.35639 0.0
H514 H 0.71695 0.87336 0.35979 0.0
H515 H 0.69197 0.87605 0.3481 0.0
H516 H 0.65845 0.90434 0.30072 0.0
H517 H 0.59711 0.90132 0.29781 0.0
H518 H 0.59343 0.91154 0.31384 0.0
H519 H 0.65461 0.91472 0.31681 0.0
C520 C 0.08581 0.10915 0.60627 0.0
C521 C 0.08453 0.09647 0.59879 0.0
C522 C 0.0636 0.07615 0.60761 0.0
C523 C 0.07357 0.08011 0.59946 0.0
C524 C 0.06527 0.08872 0.61517 0.0
C525 C 0.07627 0.10513 0.61449 0.0
U526 U 0.11016 0.14336 0.59066 0.0
O527 O 0.10788 0.17414 0.58962 0.0
O528 O 0.1357 0.16117 0.59238 0.0
C529 C 0.12586 0.17689 0.59187 0.0
C530 C 0.09606 0.12706 0.60525 0.0
C531 C 0.12892 0.19057 0.59941 0.0
C532 C 0.12692 0.19918 0.61563 0.0
C533 C 0.12505 0.18572 0.60855 0.0
C534 C 0.13673 0.22239 0.6045 0.0
C535 C 0.1326 0.21774 0.61368 0.0
C536 C 0.13489 0.2089 0.59743 0.0
C537 C 0.1112 0.12941 0.565 0.0
C538 C 0.12788 0.14657 0.55307 0.0
C539 C 0.10443 0.12278 0.54889 0.0
C540 C 0.10125 0.11924 0.55819 0.0
C541 C 0.11767 0.13656 0.54622 0.0
C542 C 0.12458 0.14309 0.56241 0.0
C543 C 0.10683 0.12582 0.5747 0.0
O544 O 0.11407 0.12554 0.6028 0.0
O545 O 0.08673 0.13976 0.60054 0.0
O546 O 0.09333 0.13644 0.57828 0.0
O547 O 0.12152 0.12358 0.58023 0.0
H548 H 0.09176 0.09941 0.59237 0.0
H549 H 0.07283 0.07059 0.59356 0.0
H550 H 0.05763 0.08617 0.62151 0.0
H551 H 0.077 0.11487 0.6203 0.0
H552 H 0.12388 0.19506 0.62263 0.0
H553 H 0.12037 0.1716 0.61019 0.0
H554 H 0.14089 0.23659 0.60273 0.0
H555 H 0.1378 0.21288 0.59039 0.0
H556 H 0.13808 0.15734 0.55121 0.0
H557 H 0.09657 0.11464 0.54378 0.0
H558 H 0.09088 0.10863 0.56007 0.0
H559 H 0.1323 0.15117 0.5676 0.0
C560 C 0.87099 0.64492 0.81599 0.0
C561 C 0.8886 0.64136 0.81174 0.0
C562 C 0.87544 0.65025 0.79691 0.0
C563 C 0.89082 0.64403 0.8023 0.0
C564 C 0.85786 0.6541 0.80124 0.0
C565 C 0.85567 0.65145 0.81072 0.0
U566 U 0.89007 0.62195 0.83719 0.0
O567 O 0.8897 0.63025 0.85187 0.0
O568 O 0.87651 0.60359 0.84732 0.0
C569 C 0.87927 0.61563 0.85416 0.0
C570 C 0.86838 0.64055 0.82577 0.0
C571 C 0.8623 0.61985 0.85973 0.0
C572 C 0.82962 0.63096 0.86108 0.0
C573 C 0.84606 0.62801 0.85578 0.0
C574 C 0.84571 0.61798 0.87434 0.0
C575 C 0.8292 0.62576 0.8704 0.0
C576 C 0.8621 0.61503 0.86904 0.0
C577 C 0.93825 0.59698 0.83457 0.0
C578 C 0.9523 0.5779 0.84657 0.0
C579 C 0.96751 0.57977 0.83162 0.0
C580 C 0.95321 0.59195 0.82866 0.0
C581 C 0.96709 0.57239 0.84055 0.0
C582 C 0.93792 0.59008 0.84358 0.0
C583 C 0.92265 0.6086 0.83104 0.0
O584 O 0.8661 0.62253 0.82741 0.0
O585 O 0.88047 0.64887 0.83146 0.0
O586 O 0.92088 0.6255 0.83478 0.0
O587 O 0.90628 0.59979 0.82996 0.0
H588 H 0.90053 0.63608 0.8157 0.0
H589 H 0.90444 0.6406 0.79917 0.0
H590 H 0.84579 0.65904 0.79729 0.0
H591 H 0.84194 0.65417 0.8139 0.0
H592 H 0.81711 0.63683 0.85781 0.0
H593 H 0.846 0.63178 0.84857 0.0
H594 H 0.84596 0.61412 0.88153 0.0
H595 H 0.87455 0.60878 0.8722 0.0
H596 H 0.95152 0.57235 0.85347 0.0
H597 H 0.97887 0.57602 0.82687 0.0
H598 H 0.95366 0.59719 0.82169 0.0
H599 H 0.92637 0.5938 0.84822 0.0
C600 C 0.45781 0.42664 0.1053 0.0
C601 C 0.45714 0.44015 0.09836 0.0
C602 C 0.47918 0.4602 0.10704 0.0
C603 C 0.4677 0.45681 0.09922 0.0
C604 C 0.47966 0.44663 0.11401 0.0
C605 C 0.46904 0.42999 0.11315 0.0
U606 U 0.42887 0.39313 0.09037 0.0
O607 O 0.43057 0.36235 0.0886 0.0
O608 O 0.40401 0.3754 0.0935 0.0
C609 C 0.41344 0.35964 0.09202 0.0
C610 C 0.44741 0.40876 0.10421 0.0
C611 C 0.41247 0.34591 0.09947 0.0
C612 C 0.41956 0.33688 0.11517 0.0
C613 C 0.4202 0.35018 0.10817 0.0
C614 C 0.40335 0.31496 0.10484 0.0
C615 C 0.41119 0.31908 0.11358 0.0
C616 C 0.40401 0.32829 0.09785 0.0
C617 C 0.41833 0.40792 0.0655 0.0
C618 C 0.41498 0.38896 0.05148 0.0
C619 C 0.40169 0.42044 0.05224 0.0
C620 C 0.40819 0.42249 0.0613 0.0
C621 C 0.40535 0.4038 0.04715 0.0
C622 C 0.42137 0.39097 0.06058 0.0
C623 C 0.42641 0.41116 0.07477 0.0
O624 O 0.42885 0.41031 0.10312 0.0
O625 O 0.45525 0.39663 0.09844 0.0
O626 O 0.44111 0.40066 0.07701 0.0
O627 O 0.41404 0.4134 0.0815 0.0
H628 H 0.44865 0.43769 0.09221 0.0
H629 H 0.46723 0.46682 0.09367 0.0
H630 H 0.48821 0.44891 0.12015 0.0
H631 H 0.46973 0.41966 0.11856 0.0
H632 H 0.4255 0.34059 0.12185 0.0
H633 H 0.42678 0.36378 0.10953 0.0
H634 H 0.39704 0.30132 0.10335 0.0
H635 H 0.39804 0.32477 0.09115 0.0
H636 H 0.41821 0.37602 0.04776 0.0
H637 H 0.39399 0.43201 0.04919 0.0
H638 H 0.40561 0.43563 0.06499 0.0
H639 H 0.42908 0.37945 0.06368 0.0
H640 H 0.09032 0.14076 0.53308 0.0
H641 H 0.15143 0.141 0.53696 0.0
H642 H 0.09468 0.14408 0.51657 0.0
H643 H 0.15586 0.14483 0.52036 0.0
H644 H 0.15161 0.12126 0.48991 0.0
H645 H 0.15096 0.12449 0.50665 0.0
H646 H 0.10554 0.16533 0.50462 0.0
H647 H 0.10617 0.16207 0.48786 0.0
C648 C 0.10471 0.14169 0.5304 0.0
C649 C 0.12054 0.14042 0.5363 0.0
C650 C 0.10721 0.14383 0.52094 0.0
C651 C 0.12563 0.14472 0.51714 0.0
C652 C 0.1415 0.14404 0.52307 0.0
C653 C 0.13897 0.14199 0.53258 0.0
C654 C 0.14182 0.13129 0.49302 0.0
C655 C 0.12879 0.14125 0.48757 0.0
C656 C 0.14145 0.13314 0.50262 0.0
C657 C 0.12804 0.14501 0.50697 0.0
C658 C 0.11578 0.1558 0.50148 0.0
C659 C 0.11614 0.15394 0.49189 0.0
H660 H 0.88323 0.61562 0.7402 0.0
H661 H 0.91042 0.67029 0.73994 0.0
H662 H 0.87466 0.62058 0.7563 0.0
H663 H 0.90119 0.67558 0.75597 0.0
H664 H 0.90577 0.66431 0.78732 0.0
H665 H 0.91092 0.66315 0.77073 0.0
H666 H 0.85491 0.63874 0.76687 0.0
H667 H 0.85007 0.6392 0.78351 0.0
C668 C 0.88723 0.62878 0.74356 0.0
C669 C 0.89766 0.64248 0.7388 0.0
C670 C 0.88211 0.63172 0.75277 0.0
C671 C 0.88728 0.64846 0.75744 0.0
C672 C 0.89717 0.66244 0.7526 0.0
C673 C 0.90229 0.65949 0.74338 0.0
C674 C 0.89454 0.65873 0.78293 0.0
C675 C 0.87759 0.65168 0.78675 0.0
C676 C 0.8974 0.65827 0.77341 0.0
C677 C 0.88337 0.65075 0.76747 0.0
C678 C 0.8661 0.64439 0.77126 0.0
C679 C 0.86324 0.64486 0.78079 0.0
H680 H 0.40787 0.41324 0.98792 0.0
H681 H 0.35795 0.37869 0.99231 0.0
H682 H 0.41369 0.41448 1.0044 0.0
H683 H 0.36327 0.38075 1.00893 0.0
H684 H 0.3913 0.37305 0.03754 0.0
H685 H 0.38479 0.37044 0.02104 0.0
H686 H 0.40028 0.42895 0.01789 0.0
H687 H 0.40771 0.43129 0.03421 0.0
C688 C 0.39818 0.4058 0.99239 0.0
C689 C 0.38249 0.39578 0.98876 0.0
C690 C 0.40135 0.40676 1.00188 0.0
C691 C 0.38885 0.39786 1.00801 0.0
C692 C 0.37325 0.38767 1.0044 0.0
C693 C 0.37008 0.38666 0.99488 0.0
C694 C 0.39343 0.38532 0.03331 0.0
C695 C 0.40009 0.40237 0.03722 0.0
C696 C 0.38949 0.38388 0.02387 0.0
C697 C 0.39213 0.39945 0.01812 0.0
C698 C 0.39839 0.41658 0.02208 0.0
C699 C 0.40238 0.418 0.03148 0.0
H700 H 0.59187 0.89796 0.24238 0.0
H701 H 0.65294 0.90046 0.23863 0.0
H702 H 0.59635 0.8943 0.25888 0.0
H703 H 0.6575 0.89633 0.25521 0.0
H704 H 0.65198 0.91912 0.28577 0.0
H705 H 0.65165 0.91614 0.26903 0.0
H706 H 0.60811 0.87318 0.27071 0.0
H707 H 0.60842 0.87618 0.28748 0.0
C708 C 0.60628 0.89756 0.24509 0.0
C709 C 0.62205 0.89971 0.23923 0.0
C710 C 0.60886 0.89523 0.25453 0.0
C711 C 0.62729 0.89501 0.25836 0.0
C712 C 0.64312 0.89657 0.25247 0.0
C713 C 0.64053 0.8988 0.24298 0.0
C714 C 0.64269 0.90869 0.28259 0.0
C715 C 0.63006 0.89804 0.28795 0.0
C716 C 0.64251 0.90698 0.27298 0.0
C717 C 0.62969 0.89459 0.26853 0.0
C718 C 0.61789 0.88312 0.27392 0.0
C719 C 0.61807 0.88483 0.28352 0.0
H720 H 0.10529 0.38651 0.78533 0.0
H721 H 0.16001 0.4144 0.78733 0.0
H722 H 0.10868 0.38439 0.76867 0.0
H723 H 0.16385 0.41145 0.77068 0.0
H724 H 0.14715 0.43033 0.74126 0.0
H725 H 0.14944 0.42699 0.75787 0.0
H726 H 0.12501 0.37115 0.75557 0.0
H727 H 0.12187 0.37489 0.73896 0.0
C728 C 0.11819 0.39192 0.78222 0.0
C729 C 0.13224 0.40087 0.78765 0.0
C730 C 0.12026 0.39049 0.77267 0.0
C731 C 0.13648 0.39789 0.76831 0.0
C732 C 0.15104 0.40586 0.7738 0.0
C733 C 0.14894 0.40735 0.78336 0.0
C734 C 0.14233 0.41731 0.74429 0.0
C735 C 0.13407 0.40299 0.73879 0.0
C736 C 0.14388 0.41528 0.75382 0.0
C737 C 0.13728 0.39884 0.75808 0.0
C738 C 0.12997 0.38411 0.75252 0.0
C739 C 0.12837 0.38616 0.74299 0.0
H740 H 0.60657 0.65371 0.99076 0.0
H741 H 0.66151 0.62635 0.98894 0.0
H742 H 0.60968 0.65565 1.00743 0.0
H743 H 0.66506 0.62911 1.00561 0.0
H744 H 0.64795 0.60965 0.03489 0.0
H745 H 0.65051 0.61324 0.0183 0.0
H746 H 0.62574 0.66886 0.02066 0.0
H747 H 0.62235 0.66487 0.03723 0.0
C748 C 0.61946 0.64838 0.99391 0.0
C749 C 0.63365 0.63963 0.98852 0.0
C750 C 0.62136 0.6497 1.00348 0.0
C751 C 0.63756 0.64238 1.00789 0.0
C752 C 0.65226 0.63463 1.00245 0.0
C753 C 0.65033 0.63325 0.99287 0.0
C754 C 0.64312 0.62268 0.03187 0.0
C755 C 0.6347 0.63686 0.03737 0.0
C756 C 0.64482 0.62486 0.02236 0.0
C757 C 0.6382 0.6413 0.01812 0.0
C758 C 0.63072 0.6559 0.02369 0.0
C759 C 0.62898 0.6537 0.03321 0.0
H760 H 0.38425 0.116 0.23997 0.0
H761 H 0.41131 0.17073 0.23969 0.0
H762 H 0.3759 0.12086 0.25611 0.0
H763 H 0.40231 0.17591 0.25576 0.0
H764 H 0.40731 0.16454 0.28708 0.0
H765 H 0.41228 0.1634 0.27048 0.0
H766 H 0.35622 0.139 0.26675 0.0
H767 H 0.35155 0.13948 0.2834 0.0
C768 C 0.38827 0.12914 0.24334 0.0
C769 C 0.39859 0.1429 0.23856 0.0
C770 C 0.38328 0.13203 0.25256 0.0
C771 C 0.38848 0.14876 0.25724 0.0
C772 C 0.39828 0.16278 0.25239 0.0
C773 C 0.40326 0.15989 0.24314 0.0
C774 C 0.39602 0.15898 0.28272 0.0
C775 C 0.37911 0.15194 0.28658 0.0
C776 C 0.39878 0.15852 0.27319 0.0
C777 C 0.38468 0.15101 0.26728 0.0
C778 C 0.36746 0.14465 0.27112 0.0
C779 C 0.36469 0.14512 0.28066 0.0
H780 H 0.86069 0.87777 0.49277 0.0
H781 H 0.90985 0.9134 0.48845 0.0
H782 H 0.86596 0.87982 0.5094 0.0
H783 H 0.91564 0.91463 0.50493 0.0
H784 H 0.9094 0.931 0.53479 0.0
H785 H 0.90201 0.92868 0.51847 0.0
H786 H 0.88764 0.86986 0.52148 0.0
H787 H 0.89409 0.87243 0.53798 0.0
C788 C 0.87264 0.88597 0.49535 0.0
C789 C 0.88484 0.8954 0.48926 0.0
C790 C 0.87578 0.88698 0.50488 0.0
C791 C 0.89117 0.89747 0.50851 0.0
C792 C 0.90347 0.90668 0.5024 0.0
C793 C 0.90031 0.90572 0.49291 0.0
C794 C 0.90432 0.91764 0.53203 0.0
C795 C 0.90233 0.90191 0.53773 0.0
C796 C 0.90035 0.91623 0.52262 0.0
C797 C 0.89442 0.89903 0.51863 0.0
C798 C 0.89208 0.88335 0.52434 0.0
C799 C 0.89599 0.88477 0.53378 0.0
H800 H 0.96727 1.0 0.42414 0.0
H801 H 1.01023 0.96044 0.43286 0.0
H802 H 0.99224 0.02199 0.41963 0.0
H803 H 0.03516 0.98269 0.4287 0.0
H804 H 0.07688 0.02093 0.41455 0.0
H805 H 0.05087 0.99828 0.41603 0.0
H806 H 1.01502 0.04202 0.42768 0.0
H807 H 0.04072 0.06477 0.42585 0.0
C808 C 0.98204 0.9959 0.425 0.0
C809 C 0.98676 0.97851 0.42891 0.0
C810 C 0.99635 1.00859 0.4225 0.0
C811 C 1.01571 1.00417 0.42386 0.0
C812 C 0.02041 0.9865 0.42748 0.0
C813 C 1.00612 0.97383 0.42998 0.0
C814 C 0.06331 0.02579 0.41725 0.0
C815 C 0.06092 0.04464 0.42014 0.0
C816 C 0.04848 1.01276 0.41819 0.0
C817 C 0.0309 1.01829 0.42203 0.0
C818 C 0.0283 0.03729 0.42462 0.0
C819 C 0.04312 0.0503 0.42368 0.0
H820 H 0.02802 0.46677 0.6616 0.0
H821 H 0.07361 0.49794 0.67491 0.0
H822 H 1.0084 0.49517 0.66161 0.0
H823 H 0.05401 0.52628 0.67492 0.0
H824 H 1.00559 0.56578 0.68364 0.0
H825 H 0.02553 0.53773 0.68278 0.0
H826 H 1.00577 0.52671 0.65501 0.0
H827 H 0.98527 0.55451 0.65599 0.0
C828 C 0.03396 0.47974 0.66441 0.0
C829 C 0.05235 0.48005 0.66831 0.0
C830 C 0.02271 0.49601 0.66442 0.0
C831 C 0.02959 0.51296 0.66833 0.0
C832 C 0.04815 0.51337 0.67202 0.0
C833 C 0.05938 0.49713 0.67201 0.0
C834 C 1.00535 0.55728 0.67738 0.0
C835 C 0.99378 0.56235 0.6699 0.0
C836 C 1.01697 0.54133 0.67684 0.0
C837 C 0.01731 0.53002 0.66881 0.0
C838 C 1.00573 0.53506 0.66132 0.0
C839 C 0.99413 0.55107 0.66185 0.0
H840 H 0.57272 0.53096 0.93525 0.0
H841 H 0.54803 0.5501 0.90978 0.0
H842 H 0.54732 0.50778 0.93669 0.0
H843 H 0.52263 0.52651 0.91112 0.0
H844 H 0.46866 0.49942 0.92507 0.0
H845 H 0.49473 0.52091 0.92142 0.0
H846 H 0.53561 0.47858 0.9293 0.0
H847 H 0.50959 0.45707 0.9329 0.0
C848 C 0.56185 0.53018 0.92995 0.0
C849 C 0.56228 0.54244 0.92244 0.0
C850 C 0.54741 0.51675 0.93071 0.0
C851 C 0.533 0.51526 0.924 0.0
C852 C 0.5335 0.52739 0.91643 0.0
C853 C 0.54809 0.54079 0.91563 0.0
C854 C 0.48321 0.49456 0.92584 0.0
C855 C 0.48705 0.4766 0.92937 0.0
C856 C 0.49815 0.50688 0.92375 0.0
C857 C 0.51722 0.50151 0.92517 0.0
C858 C 0.52105 0.48326 0.92831 0.0
C859 C 0.50615 0.47095 0.93038 0.0
H860 H 0.57358 1.00042 0.17257 0.0
H861 H 0.52699 0.96726 0.16142 0.0
H862 H 0.55349 0.02846 0.17242 0.0
H863 H 0.50707 0.99544 0.16101 0.0
H864 H 0.47131 0.04454 0.17312 0.0
H865 H 0.49142 1.01653 0.17223 0.0
H866 H 0.53785 0.05019 0.16184 0.0
H867 H 0.51792 0.0783 0.163 0.0
C868 C 0.55907 0.99914 0.17005 0.0
C869 C 0.55186 0.9816 0.16704 0.0
C870 C 0.54762 1.01524 0.16987 0.0
C871 C 0.52867 1.01417 0.16672 0.0
C872 C 0.52155 0.99669 0.16357 0.0
C873 C 0.53303 0.98059 0.16371 0.0
C874 C 0.48583 0.04597 0.17068 0.0
C875 C 0.49303 0.06366 0.16816 0.0
C876 C 0.49729 0.02989 0.17007 0.0
C877 C 0.51624 0.03114 0.16696 0.0
C878 C 0.52337 0.04879 0.16434 0.0
C879 C 0.51189 0.06486 0.16491 0.0
H880 H 0.98651 0.57082 0.85697 0.0
H881 H 0.98052 0.54242 0.83059 0.0
H882 H 1.01088 0.54795 0.86142 0.0
H883 H 1.00505 0.51998 0.83492 0.0
H884 H 0.03631 0.47218 0.84814 0.0
H885 H 1.01005 0.49402 0.84564 0.0
H886 H 0.04415 0.5396 0.8569 0.0
H887 H 0.07052 0.51776 0.85935 0.0
C888 C 0.99034 0.55966 0.85215 0.0
C889 C 0.98167 0.55847 0.84341 0.0
C890 C 1.00437 0.54667 0.85466 0.0
C891 C 1.00985 0.53214 0.84853 0.0
C892 C 1.00099 0.53086 0.83985 0.0
C893 C 0.9871 0.54386 0.83732 0.0
C894 C 0.0382 0.48686 0.8501 0.0
C895 C 0.05559 0.49327 0.85384 0.0
C896 C 0.02316 0.49936 0.84867 0.0
C897 C 0.02511 0.51857 0.85098 0.0
C898 C 0.04216 0.52485 0.85511 0.0
C899 C 0.05726 0.51233 0.85653 0.0
H900 H 0.46893 0.4962 0.10268 0.0
H901 H 0.51611 0.46354 0.11301 0.0
H902 H 0.48877 0.52447 0.10314 0.0
H903 H 0.53577 0.49193 0.11376 0.0
H904 H 0.57093 0.54149 0.10255 0.0
H905 H 0.55102 0.51331 0.10293 0.0
H906 H 0.5044 0.54634 0.114 0.0
H907 H 0.52414 0.57466 0.11334 0.0
C908 C 0.48352 0.49507 0.10508 0.0
C909 C 0.49095 0.47761 0.10777 0.0
C910 C 0.49483 0.51131 0.10544 0.0
C911 C 0.51386 0.51045 0.10848 0.0
C912 C 0.52122 0.49303 0.11129 0.0
C913 C 0.50989 0.4768 0.11096 0.0
C914 C 0.5564 0.54275 0.10503 0.0
C915 C 0.5491 0.56034 0.10788 0.0
C916 C 0.54506 0.52656 0.10534 0.0
C917 C 0.52612 0.52757 0.10849 0.0
C918 C 0.51887 0.54512 0.11145 0.0
C919 C 0.53025 0.56131 0.11116 0.0
H920 H 0.4877 0.06987 0.35626 0.0
H921 H 0.48032 0.03955 0.33048 0.0
H922 H 0.51225 0.04731 0.36083 0.0
H923 H 0.50506 1.01742 0.33491 0.0
H924 H 0.53741 0.97077 0.3485 0.0
H925 H 0.51092 0.99228 0.34591 0.0
H926 H 0.54519 0.03873 0.35614 0.0
H927 H 0.57176 1.0172 0.3587 0.0
C928 C 0.49125 0.05835 0.3516 0.0
C929 C 0.48215 0.05654 0.34299 0.0
C930 C 0.5054 0.04554 0.35418 0.0
C931 C 0.51058 0.03057 0.34824 0.0
C932 C 0.50125 0.02865 0.3397 0.0
C933 C 0.48723 0.04147 0.33711 0.0
C934 C 0.53929 0.98557 0.35022 0.0
C935 C 0.55677 0.9923 0.35372 0.0
C936 C 0.52411 0.99789 0.34874 0.0
C937 C 0.52602 1.01724 0.35073 0.0
C938 C 0.54321 0.02387 0.35461 0.0
C939 C 0.55843 1.01153 0.35608 0.0
H940 H 0.05943 0.05156 0.6219 0.0
H941 H 0.03921 0.06269 0.59438 0.0
H942 H 0.0386 0.02395 0.62255 0.0
H943 H 0.01898 0.03483 0.59491 0.0
H944 H 0.97073 0.99516 0.60209 0.0
H945 H 0.99043 0.0235 0.60254 0.0
H946 H 0.03577 0.99238 0.61554 0.0
H947 H 1.01606 0.96401 0.6151 0.0
C948 C 0.05053 0.04814 0.616 0.0
C949 C 0.05103 0.05929 0.60808 0.0
C950 C 0.03873 0.03222 0.61634 0.0
C951 C 0.02711 0.02719 0.60878 0.0
C952 C 0.02757 0.03843 0.60089 0.0
C953 C 0.03936 0.05427 0.60055 0.0
C954 C 0.98492 0.99435 0.60502 0.0
C955 C 0.99186 0.97729 0.60851 0.0
C956 C 0.99622 1.01059 0.60528 0.0
C957 C 1.01473 1.01018 0.60902 0.0
C958 C 0.0215 0.99323 0.61271 0.0
C959 C 1.0102 0.97697 0.61245 0.0
H960 H 0.33004 0.12926 0.38953 0.0
H961 H 0.29564 0.13553 0.36504 0.0
H962 H 0.30178 0.13311 0.39904 0.0
H963 H 0.26745 0.14045 0.3746 0.0
H964 H 0.21882 0.12337 0.39416 0.0
H965 H 0.24665 0.12253 0.38415 0.0
H966 H 0.27852 0.15502 0.40437 0.0
H967 H 0.2511 0.15486 0.41461 0.0
C968 C 0.31645 0.13157 0.38616 0.0
C969 C 0.31512 0.1319 0.3765 0.0
C970 C 0.30025 0.13406 0.39164 0.0
C971 C 0.28228 0.13709 0.3876 0.0
C972 C 0.28101 0.13791 0.37794 0.0
C973 C 0.29723 0.13532 0.37246 0.0
C974 C 0.23179 0.13025 0.3965 0.0
C975 C 0.23272 0.13903 0.40525 0.0
C976 C 0.2477 0.13 0.3907 0.0
C977 C 0.26491 0.13863 0.39346 0.0
C978 C 0.26562 0.14797 0.40207 0.0
C979 C 0.24976 0.14811 0.4079 0.0
H980 H 0.93992 0.72841 0.65157 0.0
H981 H 0.8816 0.74249 0.65838 0.0
H982 H 0.93983 0.75215 0.63962 0.0
H983 H 0.88176 0.76677 0.64666 0.0
H984 H 0.88274 0.79442 0.61827 0.0
H985 H 0.88241 0.77018 0.63001 0.0
H986 H 0.93953 0.78616 0.63824 0.0
H987 H 0.94015 0.80986 0.62627 0.0
C988 C 0.92705 0.73652 0.6505 0.0
C989 C 0.91076 0.73352 0.65593 0.0
C990 C 0.92708 0.7503 0.64372 0.0
C991 C 0.91081 0.76142 0.64221 0.0
C992 C 0.89447 0.75835 0.6476 0.0
C993 C 0.89445 0.74457 0.65438 0.0
C994 C 0.89529 0.79265 0.62253 0.0
C995 C 0.91149 0.80406 0.62131 0.0
C996 C 0.89502 0.77889 0.62933 0.0
C997 C 0.91095 0.77621 0.63506 0.0
C998 C 0.9271 0.7877 0.63387 0.0
C999 C 0.92737 0.80146 0.62708 0.0
H1000 H 0.29349 0.40637 0.91059 0.0
H1001 H 0.32729 0.41101 0.88584 0.0
H1002 H 0.26495 0.40135 0.90123 0.0
H1003 H 0.29872 0.40707 0.87653 0.0
H1004 H 0.24751 0.38519 0.86143 0.0
H1005 H 0.27508 0.3851 0.8716 0.0
H1006 H 0.24413 0.419 0.89153 0.0
H1007 H 0.21612 0.4181 0.8816 0.0
C1008 C 0.29487 0.40621 0.90316 0.0
C1009 C 0.31269 0.4092 0.89898 0.0
C1010 C 0.27845 0.40356 0.89779 0.0
C1011 C 0.27948 0.40388 0.88811 0.0
C1012 C 0.29738 0.4065 0.88395 0.0
C1013 C 0.31376 0.40905 0.8893 0.0
C1014 C 0.24639 0.39227 0.86807 0.0
C1015 C 0.22955 0.40173 0.87066 0.0
C1016 C 0.26233 0.39244 0.87386 0.0
C1017 C 0.26194 0.40222 0.88235 0.0
C1018 C 0.24493 0.4112 0.88507 0.0
C1019 C 0.22892 0.41091 0.87931 0.0
H1020 H 0.62829 0.82489 0.14354 0.0
H1021 H 0.64351 0.78522 0.16463 0.0
H1022 H 0.62922 0.79968 0.13202 0.0
H1023 H 0.64562 0.76025 0.15301 0.0
H1024 H 0.62435 0.71628 0.13208 0.0
H1025 H 0.62514 0.74148 0.1436 0.0
H1026 H 0.6496 0.779 0.12361 0.0
H1027 H 0.64767 0.75414 0.11192 0.0
C1028 C 0.63194 0.81081 0.14573 0.0
C1029 C 0.63569 0.80711 0.15505 0.0
C1030 C 0.63274 0.79638 0.13908 0.0
C1031 C 0.63746 0.77787 0.14157 0.0
C1032 C 0.64166 0.77426 0.15086 0.0
C1033 C 0.64072 0.78867 0.15751 0.0
C1034 C 0.62973 0.72995 0.1301 0.0
C1035 C 0.63582 0.73316 0.12103 0.0
C1036 C 0.63045 0.74436 0.13676 0.0
C1037 C 0.63743 0.76233 0.13456 0.0
C1038 C 0.64389 0.76543 0.12553 0.0
C1039 C 0.64303 0.75106 0.11885 0.0
H1040 H 0.80408 0.65543 0.87073 0.0
H1041 H 0.81416 0.60083 0.88256 0.0
H1042 H 0.77493 0.65864 0.87985 0.0
H1043 H 0.78554 0.60432 0.89189 0.0
H1044 H 0.72417 0.60721 0.90082 0.0
H1045 H 0.75112 0.60483 0.89031 0.0
H1046 H 0.76531 0.66313 0.89597 0.0
H1047 H 0.73783 0.66574 0.90623 0.0
C1048 C 0.80006 0.64411 0.87526 0.0
C1049 C 0.81148 0.6279 0.87594 0.0
C1050 C 0.78347 0.64602 0.88055 0.0
C1051 C 0.77789 0.63172 0.88659 0.0
C1052 C 0.78928 0.6155 0.88722 0.0
C1053 C 0.80584 0.61361 0.88196 0.0
C1054 C 0.73279 0.61964 0.89969 0.0
C1055 C 0.72885 0.63666 0.90439 0.0
C1056 C 0.7484 0.6182 0.89375 0.0
C1057 C 0.76048 0.63373 0.89237 0.0
C1058 C 0.75623 0.65092 0.89684 0.0
C1059 C 0.7406 0.65237 0.9028 0.0
H1060 H 0.43966 0.31058 0.12574 0.0
H1061 H 0.38206 0.29511 0.11809 0.0
H1062 H 0.43928 0.28705 0.13779 0.0
H1063 H 0.38196 0.27104 0.12992 0.0
H1064 H 0.38172 0.24377 0.1584 0.0
H1065 H 0.38167 0.2679 0.14659 0.0
H1066 H 0.43956 0.25307 0.13931 0.0
H1067 H 0.43987 0.2295 0.15133 0.0
C1068 C 0.42689 0.3022 0.12665 0.0
C1069 C 0.41089 0.30475 0.12095 0.0
C1070 C 0.42676 0.28855 0.13349 0.0
C1071 C 0.41062 0.2771 0.1348 0.0
C1072 C 0.39457 0.27973 0.12914 0.0
C1073 C 0.3947 0.29338 0.1223 0.0
C1074 C 0.39449 0.24578 0.15433 0.0
C1075 C 0.41081 0.23472 0.15582 0.0
C1076 C 0.39439 0.25946 0.14749 0.0
C1077 C 0.41061 0.26243 0.14201 0.0
C1078 C 0.4269 0.25131 0.14348 0.0
C1079 C 0.42699 0.23762 0.1503 0.0
H1080 H 0.79481 0.90668 0.41119 0.0
H1081 H 0.82878 0.90976 0.38643 0.0
H1082 H 0.76623 0.90169 0.40185 0.0
H1083 H 0.80019 0.90582 0.37712 0.0
H1084 H 0.74869 0.88406 0.3622 0.0
H1085 H 0.77621 0.88399 0.3724 0.0
H1086 H 0.74576 0.9193 0.39193 0.0
H1087 H 0.71778 0.91841 0.38198 0.0
C1088 C 0.79621 0.90618 0.40376 0.0
C1089 C 0.8141 0.90873 0.39956 0.0
C1090 C 0.77979 0.90355 0.3984 0.0
C1091 C 0.78086 0.90343 0.38872 0.0
C1092 C 0.79881 0.9056 0.38454 0.0
C1093 C 0.81521 0.90815 0.38989 0.0
C1094 C 0.74767 0.89146 0.36876 0.0
C1095 C 0.73099 0.90132 0.37123 0.0
C1096 C 0.76359 0.89164 0.37456 0.0
C1097 C 0.76332 0.90181 0.38295 0.0
C1098 C 0.74646 0.9112 0.38556 0.0
C1099 C 0.73047 0.91091 0.37978 0.0
H1100 H 0.1266 0.2824 0.66513 0.0
H1101 H 0.14237 0.32313 0.64465 0.0
H1102 H 0.12747 0.25742 0.65342 0.0
H1103 H 0.14262 0.29822 0.63287 0.0
H1104 H 0.15958 0.24541 0.61618 0.0
H1105 H 0.16053 0.26993 0.62816 0.0
H1106 H 0.10879 0.24763 0.63995 0.0
H1107 H 0.10776 0.22324 0.62799 0.0
C1108 C 0.13036 0.28601 0.65814 0.0
C1109 C 0.13442 0.30476 0.65583 0.0
C1110 C 0.13065 0.27173 0.65141 0.0
C1111 C 0.13505 0.27584 0.64221 0.0
C1112 C 0.13934 0.29455 0.63991 0.0
C1113 C 0.13899 0.30886 0.64664 0.0
C1114 C 0.14835 0.24581 0.6213 0.0
C1115 C 0.1336 0.23234 0.62113 0.0
C1116 C 0.1489 0.25985 0.62816 0.0
C1117 C 0.13474 0.26073 0.63501 0.0
C1118 C 0.12009 0.24718 0.63487 0.0
C1119 C 0.11952 0.23317 0.62801 0.0
loop_
_geom_bond_atom_site_label_1
_geom_bond_atom_site_label_2
_geom_bond_distance
_geom_bond_site_symmetry_2
_ccdc_geom_bond_type
C0 C1 1.264 . S
C0 C5 1.479 . S
C0 C10 1.465 . S
C1 C0 1.264 . S
C1 C3 1.339 . S
C1 H28 0.931 . S
C2 C3 1.395 . S
C2 C4 1.320 . S
C3 C1 1.339 . S
C3 C2 1.395 . S
C3 H29 0.929 . S
C4 C2 1.320 . S
C4 C5 1.405 . S
C4 H30 0.930 . S
C5 C0 1.479 . S
C5 C4 1.405 . S
C5 H31 0.931 . S
U6 O7 2.454 . S
U6 O8 2.458 . S
U6 C9 2.984 . S
U6 C10 2.847 . S
U6 C23 2.882 . S
U6 O24 2.441 . S
U6 O25 2.420 . S
U6 O26 2.455 . S
U6 O27 2.449 . S
O7 U6 2.454 . S
O7 C9 1.353 . S
O8 U6 2.458 . S
O8 C9 1.286 . S
C9 U6 2.984 . S
C9 O7 1.353 . S
C9 O8 1.286 . S
C9 C11 1.363 . S
C10 C0 1.465 . S
C10 U6 2.847 . S
C10 O24 1.249 . S
C10 O25 1.202 . S
C11 C9 1.363 . S
C11 C13 1.408 . S
C11 C16 1.342 . S
C12 C13 1.310 . S
C12 C15 1.461 . S
C12 H32 0.932 . S
C13 C11 1.408 . S
C13 C12 1.310 . S
C13 H33 0.930 . S
C14 C15 1.474 . S
C14 C16 1.285 . S
C14 H34 0.929 . S
C15 C12 1.461 . S
C15 C14 1.474 . S
C16 C11 1.342 . S
C16 C14 1.285 . S
C16 H35 0.930 . S
C17 C20 1.424 . S
C17 C22 1.245 . S
C17 C23 1.428 . S
C18 C21 1.260 . S
C18 C22 1.477 . S
C18 H36 0.932 . S
C19 C20 1.384 . S
C19 C21 1.479 . S
C19 H37 0.929 . S
C20 C17 1.424 . S
C20 C19 1.384 . S
C20 H38 0.928 . S
C21 C18 1.260 . S
C21 C19 1.479 . S
C22 C17 1.245 . S
C22 C18 1.477 . S
C22 H39 0.932 . S
C23 U6 2.882 . S
C23 C17 1.428 . S
C23 O26 1.301 . S
C23 O27 1.282 . S
O24 U6 2.441 . S
O24 C10 1.249 . S
O25 U6 2.420 . S
O25 C10 1.202 . S
O26 U6 2.455 . S
O26 C23 1.301 . S
O27 U6 2.449 . S
O27 C23 1.282 . S
H28 C1 0.931 . S
H29 C3 0.929 . S
H30 C4 0.930 . S
H31 C5 0.931 . S
H32 C12 0.932 . S
H33 C13 0.930 . S
H34 C14 0.929 . S
H35 C16 0.930 . S
H36 C18 0.932 . S
H37 C19 0.929 . S
H38 C20 0.928 . S
H39 C22 0.932 . S
C40 C41 1.264 . S
C40 C45 1.479 . S
C40 C50 1.465 . S
C41 C40 1.264 . S
C41 C43 1.339 . S
C41 H68 0.931 . S
C42 C43 1.395 . S
C42 C44 1.320 . S
C43 C41 1.339 . S
C43 C42 1.395 . S
C43 H69 0.929 . S
C44 C42 1.320 . S
C44 C45 1.405 . S
C44 H70 0.930 . S
C45 C40 1.479 . S
C45 C44 1.405 . S
C45 H71 0.931 . S
U46 O47 2.454 . S
U46 O48 2.458 . S
U46 C49 2.984 . S
U46 C50 2.847 . S
U46 C63 2.882 . S
U46 O64 2.441 . S
U46 O65 2.420 . S
U46 O66 2.455 . S
U46 O67 2.449 . S
O47 U46 2.454 . S
O47 C49 1.353 . S
O48 U46 2.458 . S
O48 C49 1.286 . S
C49 U46 2.984 . S
C49 O47 1.353 . S
C49 O48 1.286 . S
C49 C51 1.363 . S
C50 C40 1.465 . S
C50 U46 2.847 . S
C50 O64 1.249 . S
C50 O65 1.202 . S
C51 C49 1.363 . S
C51 C53 1.408 . S
C51 C56 1.342 . S
C52 C53 1.310 . S
C52 C55 1.461 . S
C52 H72 0.932 . S
C53 C51 1.408 . S
C53 C52 1.310 . S
C53 H73 0.930 . S
C54 C55 1.474 . S
C54 C56 1.285 . S
C54 H74 0.929 . S
C55 C52 1.461 . S
C55 C54 1.474 . S
C56 C51 1.342 . S
C56 C54 1.285 . S
C56 H75 0.930 . S
C57 C60 1.424 . S
C57 C62 1.245 . S
C57 C63 1.428 . S
C58 C61 1.260 . S
C58 C62 1.477 . S
C58 H76 0.932 . S
C59 C60 1.384 . S
C59 C61 1.479 . S
C59 H77 0.929 . S
C60 C57 1.424 . S
C60 C59 1.384 . S
C60 H78 0.928 . S
C61 C58 1.260 . S
C61 C59 1.479 . S
C62 C57 1.245 . S
C62 C58 1.477 . S
C62 H79 0.932 . S
C63 U46 2.882 . S
C63 C57 1.428 . S
C63 O66 1.301 . S
C63 O67 1.282 . S
O64 U46 2.441 . S
O64 C50 1.249 . S
O65 U46 2.420 . S
O65 C50 1.202 . S
O66 U46 2.455 . S
O66 C63 1.301 . S
O67 U46 2.449 . S
O67 C63 1.282 . S
H68 C41 0.931 . S
H69 C43 0.929 . S
H70 C44 0.930 . S
H71 C45 0.931 . S
H72 C52 0.932 . S
H73 C53 0.930 . S
H74 C54 0.929 . S
H75 C56 0.930 . S
H76 C58 0.932 . S
H77 C59 0.929 . S
H78 C60 0.928 . S
H79 C62 0.932 . S
C80 C81 1.264 . S
C80 C85 1.479 . S
C80 C90 1.465 . S
C81 C80 1.264 . S
C81 C83 1.339 . S
C81 H108 0.931 . S
C82 C83 1.395 . S
C82 C84 1.320 . S
C83 C81 1.339 . S
C83 C82 1.395 . S
C83 H109 0.929 . S
C84 C82 1.320 . S
C84 C85 1.405 . S
C84 H110 0.930 . S
C85 C80 1.479 . S
C85 C84 1.405 . S
C85 H111 0.931 . S
U86 O87 2.454 . S
U86 O88 2.458 . S
U86 C89 2.984 . S
U86 C90 2.847 . S
U86 C103 2.882 . S
U86 O104 2.441 . S
U86 O105 2.420 . S
U86 O106 2.455 . S
U86 O107 2.449 . S
O87 U86 2.454 . S
O87 C89 1.353 . S
O88 U86 2.458 . S
O88 C89 1.286 . S
C89 U86 2.984 . S
C89 O87 1.353 . S
C89 O88 1.286 . S
C89 C91 1.363 . S
C90 C80 1.465 . S
C90 U86 2.847 . S
C90 O104 1.249 . S
C90 O105 1.202 . S
C91 C89 1.363 . S
C91 C93 1.408 . S
C91 C96 1.342 . S
C92 C93 1.310 . S
C92 C95 1.461 . S
C92 H112 0.932 . S
C93 C91 1.408 . S
C93 C92 1.310 . S
C93 H113 0.930 . S
C94 C95 1.474 . S
C94 C96 1.285 . S
C94 H114 0.929 . S
C95 C92 1.461 . S
C95 C94 1.474 . S
C96 C91 1.342 . S
C96 C94 1.285 . S
C96 H115 0.930 . S
C97 C100 1.424 . S
C97 C102 1.245 . S
C97 C103 1.428 . S
C98 C101 1.260 . S
C98 C102 1.477 . S
C98 H116 0.932 . S
C99 C100 1.384 . S
C99 C101 1.479 . S
C99 H117 0.929 . S
C100 C97 1.424 . S
C100 C99 1.384 . S
C100 H118 0.928 . S
C101 C98 1.260 . S
C101 C99 1.479 . S
C102 C97 1.245 . S
C102 C98 1.477 . S
C102 H119 0.932 . S
C103 U86 2.882 . S
C103 C97 1.428 . S
C103 O106 1.301 . S
C103 O107 1.282 . S
O104 U86 2.441 . S
O104 C90 1.249 . S
O105 U86 2.420 . S
O105 C90 1.202 . S
O106 U86 2.455 . S
O106 C103 1.301 . S
O107 U86 2.449 . S
O107 C103 1.282 . S
H108 C81 0.931 . S
H109 C83 0.929 . S
H110 C84 0.930 . S
H111 C85 0.931 . S
H112 C92 0.932 . S
H113 C93 0.930 . S
H114 C94 0.929 . S
H115 C96 0.930 . S
H116 C98 0.932 . S
H117 C99 0.929 . S
H118 C100 0.928 . S
H119 C102 0.932 . S
C120 C121 1.264 . S
C120 C125 1.479 . S
C120 C130 1.465 . S
C121 C120 1.264 . S
C121 C123 1.339 . S
C121 H148 0.931 . S
C122 C123 1.395 . S
C122 C124 1.320 . S
C123 C121 1.339 . S
C123 C122 1.395 . S
C123 H149 0.929 . S
C124 C122 1.320 . S
C124 C125 1.405 . S
C124 H150 0.930 . S
C125 C120 1.479 . S
C125 C124 1.405 . S
C125 H151 0.931 . S
U126 O127 2.454 . S
U126 O128 2.458 . S
U126 C129 2.984 . S
U126 C130 2.847 . S
U126 C143 2.882 . S
U126 O144 2.441 . S
U126 O145 2.420 . S
U126 O146 2.455 . S
U126 O147 2.449 . S
O127 U126 2.454 . S
O127 C129 1.353 . S
O128 U126 2.458 . S
O128 C129 1.286 . S
C129 U126 2.984 . S
C129 O127 1.353 . S
C129 O128 1.286 . S
C129 C131 1.363 . S
C130 C120 1.465 . S
C130 U126 2.847 . S
C130 O144 1.249 . S
C130 O145 1.202 . S
C131 C129 1.363 . S
C131 C133 1.408 . S
C131 C136 1.342 . S
C132 C133 1.310 . S
C132 C135 1.461 . S
C132 H152 0.932 . S
C133 C131 1.408 . S
C133 C132 1.310 . S
C133 H153 0.930 . S
C134 C135 1.474 . S
C134 C136 1.285 . S
C134 H154 0.929 . S
C135 C132 1.461 . S
C135 C134 1.474 . S
C136 C131 1.342 . S
C136 C134 1.285 . S
C136 H155 0.930 . S
C137 C140 1.424 . S
C137 C142 1.245 . S
C137 C143 1.428 . S
C138 C141 1.260 . S
C138 C142 1.477 . S
C138 H156 0.932 . S
C139 C140 1.384 . S
C139 C141 1.479 . S
C139 H157 0.929 . S
C140 C137 1.424 . S
C140 C139 1.384 . S
C140 H158 0.928 . S
C141 C138 1.260 . S
C141 C139 1.479 . S
C142 C137 1.245 . S
C142 C138 1.477 . S
C142 H159 0.932 . S
C143 U126 2.882 . S
C143 C137 1.428 . S
C143 O146 1.301 . S
C143 O147 1.282 . S
O144 U126 2.441 . S
O144 C130 1.249 . S
O145 U126 2.420 . S
O145 C130 1.202 . S
O146 U126 2.455 . S
O146 C143 1.301 . S
O147 U126 2.449 . S
O147 C143 1.282 . S
H148 C121 0.931 . S
H149 C123 0.929 . S
H150 C124 0.930 . S
H151 C125 0.931 . S
H152 C132 0.932 . S
H153 C133 0.930 . S
H154 C134 0.929 . S
H155 C136 0.930 . S
H156 C138 0.932 . S
H157 C139 0.929 . S
H158 C140 0.928 . S
H159 C142 0.932 . S
C160 C161 1.264 . S
C160 C165 1.479 . S
C160 C170 1.465 . S
C161 C160 1.264 . S
C161 C163 1.339 . S
C161 H188 0.931 . S
C162 C163 1.395 . S
C162 C164 1.320 . S
C163 C161 1.339 . S
C163 C162 1.395 . S
C163 H189 0.929 . S
C164 C162 1.320 . S
C164 C165 1.405 . S
C164 H190 0.930 . S
C165 C160 1.479 . S
C165 C164 1.405 . S
C165 H191 0.931 . S
U166 O167 2.454 . S
U166 O168 2.458 . S
U166 C169 2.984 . S
U166 C170 2.847 . S
U166 C183 2.882 . S
U166 O184 2.441 . S
U166 O185 2.420 . S
U166 O186 2.455 . S
U166 O187 2.449 . S
O167 U166 2.454 . S
O167 C169 1.353 . S
O168 U166 2.458 . S
O168 C169 1.286 . S
C169 U166 2.984 . S
C169 O167 1.353 . S
C169 O168 1.286 . S
C169 C171 1.363 . S
C170 C160 1.465 . S
C170 U166 2.847 . S
C170 O184 1.249 . S
C170 O185 1.202 . S
C171 C169 1.363 . S
C171 C173 1.408 . S
C171 C176 1.342 . S
C172 C173 1.310 . S
C172 C175 1.461 . S
C172 H192 0.932 . S
C173 C171 1.408 . S
C173 C172 1.310 . S
C173 H193 0.930 . S
C174 C175 1.474 . S
C174 C176 1.285 . S
C174 H194 0.929 . S
C175 C172 1.461 . S
C175 C174 1.474 . S
C176 C171 1.342 . S
C176 C174 1.285 . S
C176 H195 0.930 . S
C177 C180 1.424 . S
C177 C182 1.245 . S
C177 C183 1.428 . S
C178 C181 1.260 . S
C178 C182 1.477 . S
C178 H196 0.932 . S
C179 C180 1.384 . S
C179 C181 1.479 . S
C179 H197 0.929 . S
C180 C177 1.424 . S
C180 C179 1.384 . S
C180 H198 0.928 . S
C181 C178 1.260 . S
C181 C179 1.479 . S
C182 C177 1.245 . S
C182 C178 1.477 . S
C182 H199 0.932 . S
C183 U166 2.882 . S
C183 C177 1.428 . S
C183 O186 1.301 . S
C183 O187 1.282 . S
O184 U166 2.441 . S
O184 C170 1.249 . S
O185 U166 2.420 . S
O185 C170 1.202 . S
O186 U166 2.455 . S
O186 C183 1.301 . S
O187 U166 2.449 . S
O187 C183 1.282 . S
H188 C161 0.931 . S
H189 C163 0.929 . S
H190 C164 0.930 . S
H191 C165 0.931 . S
H192 C172 0.932 . S
H193 C173 0.930 . S
H194 C174 0.929 . S
H195 C176 0.930 . S
H196 C178 0.932 . S
H197 C179 0.929 . S
H198 C180 0.928 . S
H199 C182 0.932 . S
C200 C201 1.264 . S
C200 C205 1.479 . S
C200 C210 1.465 . S
C201 C200 1.264 . S
C201 C203 1.339 . S
C201 H228 0.931 . S
C202 C203 1.395 . S
C202 C204 1.320 . S
C203 C201 1.339 . S
C203 C202 1.395 . S
C203 H229 0.929 . S
C204 C202 1.320 . S
C204 C205 1.405 . S
C204 H230 0.930 . S
C205 C200 1.479 . S
C205 C204 1.405 . S
C205 H231 0.931 . S
U206 O207 2.454 . S
U206 O208 2.458 . S
U206 C209 2.984 . S
U206 C210 2.847 . S
U206 C223 2.882 . S
U206 O224 2.441 . S
U206 O225 2.420 . S
U206 O226 2.455 . S
U206 O227 2.449 . S
O207 U206 2.454 . S
O207 C209 1.353 . S
O208 U206 2.458 . S
O208 C209 1.286 . S
C209 U206 2.984 . S
C209 O207 1.353 . S
C209 O208 1.286 . S
C209 C211 1.363 . S
C210 C200 1.465 . S
C210 U206 2.847 . S
C210 O224 1.249 . S
C210 O225 1.202 . S
C211 C209 1.363 . S
C211 C213 1.408 . S
C211 C216 1.342 . S
C212 C213 1.310 . S
C212 C215 1.461 . S
C212 H232 0.932 . S
C213 C211 1.408 . S
C213 C212 1.310 . S
C213 H233 0.930 . S
C214 C215 1.474 . S
C214 C216 1.285 . S
C214 H234 0.929 . S
C215 C212 1.461 . S
C215 C214 1.474 . S
C216 C211 1.342 . S
C216 C214 1.285 . S
C216 H235 0.930 . S
C217 C220 1.424 . S
C217 C222 1.245 . S
C217 C223 1.428 . S
C218 C221 1.260 . S
C218 C222 1.477 . S
C218 H236 0.932 . S
C219 C220 1.384 . S
C219 C221 1.479 . S
C219 H237 0.929 . S
C220 C217 1.424 . S
C220 C219 1.384 . S
C220 H238 0.928 . S
C221 C218 1.260 . S
C221 C219 1.479 . S
C222 C217 1.245 . S
C222 C218 1.477 . S
C222 H239 0.932 . S
C223 U206 2.882 . S
C223 C217 1.428 . S
C223 O226 1.301 . S
C223 O227 1.282 . S
O224 U206 2.441 . S
O224 C210 1.249 . S
O225 U206 2.420 . S
O225 C210 1.202 . S
O226 U206 2.455 . S
O226 C223 1.301 . S
O227 U206 2.449 . S
O227 C223 1.282 . S
H228 C201 0.931 . S
H229 C203 0.929 . S
H230 C204 0.930 . S
H231 C205 0.931 . S
H232 C212 0.932 . S
H233 C213 0.930 . S
H234 C214 0.929 . S
H235 C216 0.930 . S
H236 C218 0.932 . S
H237 C219 0.929 . S
H238 C220 0.928 . S
H239 C222 0.932 . S
C240 C241 1.264 . S
C240 C245 1.479 . S
C240 C250 1.465 . S
C241 C240 1.264 . S
C241 C243 1.339 . S
C241 H268 0.931 . S
C242 C243 1.395 . S
C242 C244 1.320 . S
C243 C241 1.339 . S
C243 C242 1.395 . S
C243 H269 0.929 . S
C244 C242 1.320 . S
C244 C245 1.405 . S
C244 H270 0.930 . S
C245 C240 1.479 . S
C245 C244 1.405 . S
C245 H271 0.931 . S
U246 O247 2.454 . S
U246 O248 2.458 . S
U246 C249 2.984 . S
U246 C250 2.847 . S
U246 C263 2.882 . S
U246 O264 2.441 . S
U246 O265 2.420 . S
U246 O266 2.455 . S
U246 O267 2.449 . S
O247 U246 2.454 . S
O247 C249 1.353 . S
O248 U246 2.458 . S
O248 C249 1.286 . S
C249 U246 2.984 . S
C249 O247 1.353 . S
C249 O248 1.286 . S
C249 C251 1.363 . S
C250 C240 1.465 . S
C250 U246 2.847 . S
C250 O264 1.249 . S
C250 O265 1.202 . S
C251 C249 1.363 . S
C251 C253 1.408 . S
C251 C256 1.342 . S
C252 C253 1.310 . S
C252 C255 1.461 . S
C252 H272 0.932 . S
C253 C251 1.408 . S
C253 C252 1.310 . S
C253 H273 0.930 . S
C254 C255 1.474 . S
C254 C256 1.285 . S
C254 H274 0.929 . S
C255 C252 1.461 . S
C255 C254 1.474 . S
C256 C251 1.342 . S
C256 C254 1.285 . S
C256 H275 0.930 . S
C257 C260 1.424 . S
C257 C262 1.245 . S
C257 C263 1.428 . S
C258 C261 1.260 . S
C258 C262 1.477 . S
C258 H276 0.932 . S
C259 C260 1.384 . S
C259 C261 1.479 . S
C259 H277 0.929 . S
C260 C257 1.424 . S
C260 C259 1.384 . S
C260 H278 0.928 . S
C261 C258 1.260 . S
C261 C259 1.479 . S
C262 C257 1.245 . S
C262 C258 1.477 . S
C262 H279 0.932 . S
C263 U246 2.882 . S
C263 C257 1.428 . S
C263 O266 1.301 . S
C263 O267 1.282 . S
O264 U246 2.441 . S
O264 C250 1.249 . S
O265 U246 2.420 . S
O265 C250 1.202 . S
O266 U246 2.455 . S
O266 C263 1.301 . S
O267 U246 2.449 . S
O267 C263 1.282 . S
H268 C241 0.931 . S
H269 C243 0.929 . S
H270 C244 0.930 . S
H271 C245 0.931 . S
H272 C252 0.932 . S
H273 C253 0.930 . S
H274 C254 0.929 . S
H275 C256 0.930 . S
H276 C258 0.932 . S
H277 C259 0.929 . S
H278 C260 0.928 . S
H279 C262 0.932 . S
C280 C281 1.264 . S
C280 C285 1.479 . S
C280 C290 1.465 . S
C281 C280 1.264 . S
C281 C283 1.339 . S
C281 H308 0.931 . S
C282 C283 1.395 . S
C282 C284 1.320 . S
C283 C281 1.339 . S
C283 C282 1.395 . S
C283 H309 0.929 . S
C284 C282 1.320 . S
C284 C285 1.405 . S
C284 H310 0.930 . S
C285 C280 1.479 . S
C285 C284 1.405 . S
C285 H311 0.931 . S
U286 O287 2.454 . S
U286 O288 2.458 . S
U286 C289 2.984 . S
U286 C290 2.847 . S
U286 C303 2.882 . S
U286 O304 2.441 . S
U286 O305 2.420 . S
U286 O306 2.455 . S
U286 O307 2.449 . S
O287 U286 2.454 . S
O287 C289 1.353 . S
O288 U286 2.458 . S
O288 C289 1.286 . S
C289 U286 2.984 . S
C289 O287 1.353 . S
C289 O288 1.286 . S
C289 C291 1.363 . S
C290 C280 1.465 . S
C290 U286 2.847 . S
C290 O304 1.249 . S
C290 O305 1.202 . S
C291 C289 1.363 . S
C291 C293 1.408 . S
C291 C296 1.342 . S
C292 C293 1.310 . S
C292 C295 1.461 . S
C292 H312 0.932 . S
C293 C291 1.408 . S
C293 C292 1.310 . S
C293 H313 0.930 . S
C294 C295 1.474 . S
C294 C296 1.285 . S
C294 H314 0.929 . S
C295 C292 1.461 . S
C295 C294 1.474 . S
C296 C291 1.342 . S
C296 C294 1.285 . S
C296 H315 0.930 . S
C297 C300 1.424 . S
C297 C302 1.245 . S
C297 C303 1.428 . S
C298 C301 1.260 . S
C298 C302 1.477 . S
C298 H316 0.932 . S
C299 C300 1.384 . S
C299 C301 1.479 . S
C299 H317 0.929 . S
C300 C297 1.424 . S
C300 C299 1.384 . S
C300 H318 0.928 . S
C301 C298 1.260 . S
C301 C299 1.479 . S
C302 C297 1.245 . S
C302 C298 1.477 . S
C302 H319 0.932 . S
C303 U286 2.882 . S
C303 C297 1.428 . S
C303 O306 1.301 . S
C303 O307 1.282 . S
O304 U286 2.441 . S
O304 C290 1.249 . S
O305 U286 2.420 . S
O305 C290 1.202 . S
O306 U286 2.455 . S
O306 C303 1.301 . S
O307 U286 2.449 . S
O307 C303 1.282 . S
H308 C281 0.931 . S
H309 C283 0.929 . S
H310 C284 0.930 . S
H311 C285 0.931 . S
H312 C292 0.932 . S
H313 C293 0.930 . S
H314 C294 0.929 . S
H315 C296 0.930 . S
H316 C298 0.932 . S
H317 C299 0.929 . S
H318 C300 0.928 . S
H319 C302 0.932 . S
C320 C321 1.264 . S
C320 C325 1.479 . S
C320 C330 1.465 . S
C321 C320 1.264 . S
C321 C323 1.339 . S
C321 H348 0.931 . S
C322 C323 1.395 . S
C322 C324 1.320 . S
C323 C321 1.339 . S
C323 C322 1.395 . S
C323 H349 0.929 . S
C324 C322 1.320 . S
C324 C325 1.405 . S
C324 H350 0.930 . S
C325 C320 1.479 . S
C325 C324 1.405 . S
C325 H351 0.931 . S
U326 O327 2.454 . S
U326 O328 2.458 . S
U326 C329 2.984 . S
U326 C330 2.847 . S
U326 C343 2.882 . S
U326 O344 2.441 . S
U326 O345 2.420 . S
U326 O346 2.455 . S
U326 O347 2.449 . S
O327 U326 2.454 . S
O327 C329 1.353 . S
O328 U326 2.458 . S
O328 C329 1.286 . S
C329 U326 2.984 . S
C329 O327 1.353 . S
C329 O328 1.286 . S
C329 C331 1.363 . S
C330 C320 1.465 . S
C330 U326 2.847 . S
C330 O344 1.249 . S
C330 O345 1.202 . S
C331 C329 1.363 . S
C331 C333 1.408 . S
C331 C336 1.342 . S
C332 C333 1.310 . S
C332 C335 1.461 . S
C332 H352 0.932 . S
C333 C331 1.408 . S
C333 C332 1.310 . S
C333 H353 0.930 . S
C334 C335 1.474 . S
C334 C336 1.285 . S
C334 H354 0.929 . S
C335 C332 1.461 . S
C335 C334 1.474 . S
C336 C331 1.342 . S
C336 C334 1.285 . S
C336 H355 0.930 . S
C337 C340 1.424 . S
C337 C342 1.245 . S
C337 C343 1.428 . S
C338 C341 1.260 . S
C338 C342 1.477 . S
C338 H356 0.932 . S
C339 C340 1.384 . S
C339 C341 1.479 . S
C339 H357 0.929 . S
C340 C337 1.424 . S
C340 C339 1.384 . S
C340 H358 0.928 . S
C341 C338 1.260 . S
C341 C339 1.479 . S
C342 C337 1.245 . S
C342 C338 1.477 . S
C342 H359 0.932 . S
C343 U326 2.882 . S
C343 C337 1.428 . S
C343 O346 1.301 . S
C343 O347 1.282 . S
O344 U326 2.441 . S
O344 C330 1.249 . S
O345 U326 2.420 . S
O345 C330 1.202 . S
O346 U326 2.455 . S
O346 C343 1.301 . S
O347 U326 2.449 . S
O347 C343 1.282 . S
H348 C321 0.931 . S
H349 C323 0.929 . S
H350 C324 0.930 . S
H351 C325 0.931 . S
H352 C332 0.932 . S
H353 C333 0.930 . S
H354 C334 0.929 . S
H355 C336 0.930 . S
H356 C338 0.932 . S
H357 C339 0.929 . S
H358 C340 0.928 . S
H359 C342 0.932 . S
C360 C361 1.264 . S
C360 C365 1.479 . S
C360 C370 1.465 . S
C361 C360 1.264 . S
C361 C363 1.339 . S
C361 H388 0.931 . S
C362 C363 1.395 . S
C362 C364 1.320 . S
C363 C361 1.339 . S
C363 C362 1.395 . S
C363 H389 0.929 . S
C364 C362 1.320 . S
C364 C365 1.405 . S
C364 H390 0.930 . S
C365 C360 1.479 . S
C365 C364 1.405 . S
C365 H391 0.931 . S
U366 O367 2.454 . S
U366 O368 2.458 . S
U366 C369 2.984 . S
U366 C370 2.847 . S
U366 C383 2.882 . S
U366 O384 2.441 . S
U366 O385 2.420 . S
U366 O386 2.455 . S
U366 O387 2.449 . S
O367 U366 2.454 . S
O367 C369 1.353 . S
O368 U366 2.458 . S
O368 C369 1.286 . S
C369 U366 2.984 . S
C369 O367 1.353 . S
C369 O368 1.286 . S
C369 C371 1.363 . S
C370 C360 1.465 . S
C370 U366 2.847 . S
C370 O384 1.249 . S
C370 O385 1.202 . S
C371 C369 1.363 . S
C371 C373 1.408 . S
C371 C376 1.342 . S
C372 C373 1.310 . S
C372 C375 1.461 . S
C372 H392 0.932 . S
C373 C371 1.408 . S
C373 C372 1.310 . S
C373 H393 0.930 . S
C374 C375 1.474 . S
C374 C376 1.285 . S
C374 H394 0.929 . S
C375 C372 1.461 . S
C375 C374 1.474 . S
C376 C371 1.342 . S
C376 C374 1.285 . S
C376 H395 0.930 . S
C377 C380 1.424 . S
C377 C382 1.245 . S
C377 C383 1.428 . S
C378 C381 1.260 . S
C378 C382 1.477 . S
C378 H396 0.932 . S
C379 C380 1.384 . S
C379 C381 1.479 . S
C379 H397 0.929 . S
C380 C377 1.424 . S
C380 C379 1.384 . S
C380 H398 0.928 . S
C381 C378 1.260 . S
C381 C379 1.479 . S
C382 C377 1.245 . S
C382 C378 1.477 . S
C382 H399 0.932 . S
C383 U366 2.882 . S
C383 C377 1.428 . S
C383 O386 1.301 . S
C383 O387 1.282 . S
O384 U366 2.441 . S
O384 C370 1.249 . S
O385 U366 2.420 . S
O385 C370 1.202 . S
O386 U366 2.455 . S
O386 C383 1.301 . S
O387 U366 2.449 . S
O387 C383 1.282 . S
H388 C361 0.931 . S
H389 C363 0.929 . S
H390 C364 0.930 . S
H391 C365 0.931 . S
H392 C372 0.932 . S
H393 C373 0.930 . S
H394 C374 0.929 . S
H395 C376 0.930 . S
H396 C378 0.932 . S
H397 C379 0.929 . S
H398 C380 0.928 . S
H399 C382 0.932 . S
C400 C401 1.264 . S
C400 C405 1.479 . S
C400 C410 1.465 . S
C401 C400 1.264 . S
C401 C403 1.339 . S
C401 H428 0.931 . S
C402 C403 1.395 . S
C402 C404 1.320 . S
C403 C401 1.339 . S
C403 C402 1.395 . S
C403 H429 0.929 . S
C404 C402 1.320 . S
C404 C405 1.405 . S
C404 H430 0.930 . S
C405 C400 1.479 . S
C405 C404 1.405 . S
C405 H431 0.931 . S
U406 O407 2.454 . S
U406 O408 2.458 . S
U406 C409 2.984 . S
U406 C410 2.847 . S
U406 C423 2.882 . S
U406 O424 2.441 . S
U406 O425 2.420 . S
U406 O426 2.455 . S
U406 O427 2.449 . S
O407 U406 2.454 . S
O407 C409 1.353 . S
O408 U406 2.458 . S
O408 C409 1.286 . S
C409 U406 2.984 . S
C409 O407 1.353 . S
C409 O408 1.286 . S
C409 C411 1.363 . S
C410 C400 1.465 . S
C410 U406 2.847 . S
C410 O424 1.249 . S
C410 O425 1.202 . S
C411 C409 1.363 . S
C411 C413 1.408 . S
C411 C416 1.342 . S
C412 C413 1.310 . S
C412 C415 1.461 . S
C412 H432 0.932 . S
C413 C411 1.408 . S
C413 C412 1.310 . S
C413 H433 0.930 . S
C414 C415 1.474 . S
C414 C416 1.285 . S
C414 H434 0.929 . S
C415 C412 1.461 . S
C415 C414 1.474 . S
C416 C411 1.342 . S
C416 C414 1.285 . S
C416 H435 0.930 . S
C417 C420 1.424 . S
C417 C422 1.245 . S
C417 C423 1.428 . S
C418 C421 1.260 . S
C418 C422 1.477 . S
C418 H436 0.932 . S
C419 C420 1.384 . S
C419 C421 1.479 . S
C419 H437 0.929 . S
C420 C417 1.424 . S
C420 C419 1.384 . S
C420 H438 0.928 . S
C421 C418 1.260 . S
C421 C419 1.479 . S
C422 C417 1.245 . S
C422 C418 1.477 . S
C422 H439 0.932 . S
C423 U406 2.882 . S
C423 C417 1.428 . S
C423 O426 1.301 . S
C423 O427 1.282 . S
O424 U406 2.441 . S
O424 C410 1.249 . S
O425 U406 2.420 . S
O425 C410 1.202 . S
O426 U406 2.455 . S
O426 C423 1.301 . S
O427 U406 2.449 . S
O427 C423 1.282 . S
H428 C401 0.931 . S
H429 C403 0.929 . S
H430 C404 0.930 . S
H431 C405 0.931 . S
H432 C412 0.932 . S
H433 C413 0.930 . S
H434 C414 0.929 . S
H435 C416 0.930 . S
H436 C418 0.932 . S
H437 C419 0.929 . S
H438 C420 0.928 . S
H439 C422 0.932 . S
C440 C441 1.264 . S
C440 C445 1.479 . S
C440 C450 1.465 . S
C441 C440 1.264 . S
C441 C443 1.339 . S
C441 H468 0.931 . S
C442 C443 1.395 . S
C442 C444 1.320 . S
C443 C441 1.339 . S
C443 C442 1.395 . S
C443 H469 0.929 . S
C444 C442 1.320 . S
C444 C445 1.405 . S
C444 H470 0.930 . S
C445 C440 1.479 . S
C445 C444 1.405 . S
C445 H471 0.931 . S
U446 O447 2.454 . S
U446 O448 2.458 . S
U446 C449 2.984 . S
U446 C450 2.847 . S
U446 C463 2.882 . S
U446 O464 2.441 . S
U446 O465 2.420 . S
U446 O466 2.455 . S
U446 O467 2.449 . S
O447 U446 2.454 . S
O447 C449 1.353 . S
O448 U446 2.458 . S
O448 C449 1.286 . S
C449 U446 2.984 . S
C449 O447 1.353 . S
C449 O448 1.286 . S
C449 C451 1.363 . S
C450 C440 1.465 . S
C450 U446 2.847 . S
C450 O464 1.249 . S
C450 O465 1.202 . S
C451 C449 1.363 . S
C451 C453 1.408 . S
C451 C456 1.342 . S
C452 C453 1.310 . S
C452 C455 1.461 . S
C452 H472 0.932 . S
C453 C451 1.408 . S
C453 C452 1.310 . S
C453 H473 0.930 . S
C454 C455 1.474 . S
C454 C456 1.285 . S
C454 H474 0.929 . S
C455 C452 1.461 . S
C455 C454 1.474 . S
C456 C451 1.342 . S
C456 C454 1.285 . S
C456 H475 0.930 . S
C457 C460 1.424 . S
C457 C462 1.245 . S
C457 C463 1.428 . S
C458 C461 1.260 . S
C458 C462 1.477 . S
C458 H476 0.932 . S
C459 C460 1.384 . S
C459 C461 1.479 . S
C459 H477 0.929 . S
C460 C457 1.424 . S
C460 C459 1.384 . S
C460 H478 0.928 . S
C461 C458 1.260 . S
C461 C459 1.479 . S
C462 C457 1.245 . S
C462 C458 1.477 . S
C462 H479 0.932 . S
C463 U446 2.882 . S
C463 C457 1.428 . S
C463 O466 1.301 . S
C463 O467 1.282 . S
O464 U446 2.441 . S
O464 C450 1.249 . S
O465 U446 2.420 . S
O465 C450 1.202 . S
O466 U446 2.455 . S
O466 C463 1.301 . S
O467 U446 2.449 . S
O467 C463 1.282 . S
H468 C441 0.931 . S
H469 C443 0.929 . S
H470 C444 0.930 . S
H471 C445 0.931 . S
H472 C452 0.932 . S
H473 C453 0.930 . S
H474 C454 0.929 . S
H475 C456 0.930 . S
H476 C458 0.932 . S
H477 C459 0.929 . S
H478 C460 0.928 . S
H479 C462 0.932 . S
C480 C481 1.264 . S
C480 C485 1.479 . S
C480 C490 1.465 . S
C481 C480 1.264 . S
C481 C483 1.339 . S
C481 H508 0.931 . S
C482 C483 1.395 . S
C482 C484 1.320 . S
C483 C481 1.339 . S
C483 C482 1.395 . S
C483 H509 0.929 . S
C484 C482 1.320 . S
C484 C485 1.405 . S
C484 H510 0.930 . S
C485 C480 1.479 . S
C485 C484 1.405 . S
C485 H511 0.931 . S
U486 O487 2.454 . S
U486 O488 2.458 . S
U486 C489 2.984 . S
U486 C490 2.847 . S
U486 C503 2.882 . S
U486 O504 2.441 . S
U486 O505 2.420 . S
U486 O506 2.455 . S
U486 O507 2.449 . S
O487 U486 2.454 . S
O487 C489 1.353 . S
O488 U486 2.458 . S
O488 C489 1.286 . S
C489 U486 2.984 . S
C489 O487 1.353 . S
C489 O488 1.286 . S
C489 C491 1.363 . S
C490 C480 1.465 . S
C490 U486 2.847 . S
C490 O504 1.249 . S
C490 O505 1.202 . S
C491 C489 1.363 . S
C491 C493 1.408 . S
C491 C496 1.342 . S
C492 C493 1.310 . S
C492 C495 1.461 . S
C492 H512 0.932 . S
C493 C491 1.408 . S
C493 C492 1.310 . S
C493 H513 0.930 . S
C494 C495 1.474 . S
C494 C496 1.285 . S
C494 H514 0.929 . S
C495 C492 1.461 . S
C495 C494 1.474 . S
C496 C491 1.342 . S
C496 C494 1.285 . S
C496 H515 0.930 . S
C497 C500 1.424 . S
C497 C502 1.245 . S
C497 C503 1.428 . S
C498 C501 1.260 . S
C498 C502 1.477 . S
C498 H516 0.932 . S
C499 C500 1.384 . S
C499 C501 1.479 . S
C499 H517 0.929 . S
C500 C497 1.424 . S
C500 C499 1.384 . S
C500 H518 0.928 . S
C501 C498 1.260 . S
C501 C499 1.479 . S
C502 C497 1.245 . S
C502 C498 1.477 . S
C502 H519 0.932 . S
C503 U486 2.882 . S
C503 C497 1.428 . S
C503 O506 1.301 . S
C503 O507 1.282 . S
O504 U486 2.441 . S
O504 C490 1.249 . S
O505 U486 2.420 . S
O505 C490 1.202 . S
O506 U486 2.455 . S
O506 C503 1.301 . S
O507 U486 2.449 . S
O507 C503 1.282 . S
H508 C481 0.931 . S
H509 C483 0.929 . S
H510 C484 0.930 . S
H511 C485 0.931 . S
H512 C492 0.932 . S
H513 C493 0.930 . S
H514 C494 0.929 . S
H515 C496 0.930 . S
H516 C498 0.932 . S
H517 C499 0.929 . S
H518 C500 0.928 . S
H519 C502 0.932 . S
C520 C521 1.264 . S
C520 C525 1.479 . S
C520 C530 1.465 . S
C521 C520 1.264 . S
C521 C523 1.339 . S
C521 H548 0.931 . S
C522 C523 1.395 . S
C522 C524 1.320 . S
C523 C521 1.339 . S
C523 C522 1.395 . S
C523 H549 0.929 . S
C524 C522 1.320 . S
C524 C525 1.405 . S
C524 H550 0.930 . S
C525 C520 1.479 . S
C525 C524 1.405 . S
C525 H551 0.931 . S
U526 O527 2.454 . S
U526 O528 2.458 . S
U526 C529 2.984 . S
U526 C530 2.847 . S
U526 C543 2.882 . S
U526 O544 2.441 . S
U526 O545 2.420 . S
U526 O546 2.455 . S
U526 O547 2.449 . S
O527 U526 2.454 . S
O527 C529 1.353 . S
O528 U526 2.458 . S
O528 C529 1.286 . S
C529 U526 2.984 . S
C529 O527 1.353 . S
C529 O528 1.286 . S
C529 C531 1.363 . S
C530 C520 1.465 . S
C530 U526 2.847 . S
C530 O544 1.249 . S
C530 O545 1.202 . S
C531 C529 1.363 . S
C531 C533 1.408 . S
C531 C536 1.342 . S
C532 C533 1.310 . S
C532 C535 1.461 . S
C532 H552 0.932 . S
C533 C531 1.408 . S
C533 C532 1.310 . S
C533 H553 0.930 . S
C534 C535 1.474 . S
C534 C536 1.285 . S
C534 H554 0.929 . S
C535 C532 1.461 . S
C535 C534 1.474 . S
C536 C531 1.342 . S
C536 C534 1.285 . S
C536 H555 0.930 . S
C537 C540 1.424 . S
C537 C542 1.245 . S
C537 C543 1.428 . S
C538 C541 1.260 . S
C538 C542 1.477 . S
C538 H556 0.932 . S
C539 C540 1.384 . S
C539 C541 1.479 . S
C539 H557 0.929 . S
C540 C537 1.424 . S
C540 C539 1.384 . S
C540 H558 0.928 . S
C541 C538 1.260 . S
C541 C539 1.479 . S
C542 C537 1.245 . S
C542 C538 1.477 . S
C542 H559 0.932 . S
C543 U526 2.882 . S
C543 C537 1.428 . S
C543 O546 1.301 . S
C543 O547 1.282 . S
O544 U526 2.441 . S
O544 C530 1.249 . S
O545 U526 2.420 . S
O545 C530 1.202 . S
O546 U526 2.455 . S
O546 C543 1.301 . S
O547 U526 2.449 . S
O547 C543 1.282 . S
H548 C521 0.931 . S
H549 C523 0.929 . S
H550 C524 0.930 . S
H551 C525 0.931 . S
H552 C532 0.932 . S
H553 C533 0.930 . S
H554 C534 0.929 . S
H555 C536 0.930 . S
H556 C538 0.932 . S
H557 C539 0.929 . S
H558 C540 0.928 . S
H559 C542 0.932 . S
C560 C561 1.264 . S
C560 C565 1.479 . S
C560 C570 1.465 . S
C561 C560 1.264 . S
C561 C563 1.339 . S
C561 H588 0.931 . S
C562 C563 1.395 . S
C562 C564 1.320 . S
C563 C561 1.339 . S
C563 C562 1.395 . S
C563 H589 0.929 . S
C564 C562 1.320 . S
C564 C565 1.405 . S
C564 H590 0.930 . S
C565 C560 1.479 . S
C565 C564 1.405 . S
C565 H591 0.931 . S
U566 O567 2.454 . S
U566 O568 2.458 . S
U566 C569 2.984 . S
U566 C570 2.847 . S
U566 C583 2.882 . S
U566 O584 2.441 . S
U566 O585 2.420 . S
U566 O586 2.455 . S
U566 O587 2.449 . S
O567 U566 2.454 . S
O567 C569 1.353 . S
O568 U566 2.458 . S
O568 C569 1.286 . S
C569 U566 2.984 . S
C569 O567 1.353 . S
C569 O568 1.286 . S
C569 C571 1.363 . S
C570 C560 1.465 . S
C570 U566 2.847 . S
C570 O584 1.249 . S
C570 O585 1.202 . S
C571 C569 1.363 . S
C571 C573 1.408 . S
C571 C576 1.342 . S
C572 C573 1.310 . S
C572 C575 1.461 . S
C572 H592 0.932 . S
C573 C571 1.408 . S
C573 C572 1.310 . S
C573 H593 0.930 . S
C574 C575 1.474 . S
C574 C576 1.285 . S
C574 H594 0.929 . S
C575 C572 1.461 . S
C575 C574 1.474 . S
C576 C571 1.342 . S
C576 C574 1.285 . S
C576 H595 0.930 . S
C577 C580 1.424 . S
C577 C582 1.245 . S
C577 C583 1.428 . S
C578 C581 1.260 . S
C578 C582 1.477 . S
C578 H596 0.932 . S
C579 C580 1.384 . S
C579 C581 1.479 . S
C579 H597 0.929 . S
C580 C577 1.424 . S
C580 C579 1.384 . S
C580 H598 0.928 . S
C581 C578 1.260 . S
C581 C579 1.479 . S
C582 C577 1.245 . S
C582 C578 1.477 . S
C582 H599 0.932 . S
C583 U566 2.882 . S
C583 C577 1.428 . S
C583 O586 1.301 . S
C583 O587 1.282 . S
O584 U566 2.441 . S
O584 C570 1.249 . S
O585 U566 2.420 . S
O585 C570 1.202 . S
O586 U566 2.455 . S
O586 C583 1.301 . S
O587 U566 2.449 . S
O587 C583 1.282 . S
H588 C561 0.931 . S
H589 C563 0.929 . S
H590 C564 0.930 . S
H591 C565 0.931 . S
H592 C572 0.932 . S
H593 C573 0.930 . S
H594 C574 0.929 . S
H595 C576 0.930 . S
H596 C578 0.932 . S
H597 C579 0.929 . S
H598 C580 0.928 . S
H599 C582 0.932 . S
C600 C601 1.264 . S
C600 C605 1.479 . S
C600 C610 1.465 . S
C601 C600 1.264 . S
C601 C603 1.339 . S
C601 H628 0.931 . S
C602 C603 1.395 . S
C602 C604 1.320 . S
C603 C601 1.339 . S
C603 C602 1.395 . S
C603 H629 0.929 . S
C604 C602 1.320 . S
C604 C605 1.405 . S
C604 H630 0.930 . S
C605 C600 1.479 . S
C605 C604 1.405 . S
C605 H631 0.931 . S
U606 O607 2.454 . S
U606 O608 2.458 . S
U606 C609 2.984 . S
U606 C610 2.847 . S
U606 C623 2.882 . S
U606 O624 2.441 . S
U606 O625 2.420 . S
U606 O626 2.455 . S
U606 O627 2.449 . S
O607 U606 2.454 . S
O607 C609 1.353 . S
O608 U606 2.458 . S
O608 C609 1.286 . S
C609 U606 2.984 . S
C609 O607 1.353 . S
C609 O608 1.286 . S
C609 C611 1.363 . S
C610 C600 1.465 . S
C610 U606 2.847 . S
C610 O624 1.249 . S
C610 O625 1.202 . S
C611 C609 1.363 . S
C611 C613 1.408 . S
C611 C616 1.342 . S
C612 C613 1.310 . S
C612 C615 1.461 . S
C612 H632 0.932 . S
C613 C611 1.408 . S
C613 C612 1.310 . S
C613 H633 0.930 . S
C614 C615 1.474 . S
C614 C616 1.285 . S
C614 H634 0.929 . S
C615 C612 1.461 . S
C615 C614 1.474 . S
C616 C611 1.342 . S
C616 C614 1.285 . S
C616 H635 0.930 . S
C617 C620 1.424 . S
C617 C622 1.245 . S
C617 C623 1.428 . S
C618 C621 1.260 . S
C618 C622 1.477 . S
C618 H636 0.932 . S
C619 C620 1.384 . S
C619 C621 1.479 . S
C619 H637 0.929 . S
C620 C617 1.424 . S
C620 C619 1.384 . S
C620 H638 0.928 . S
C621 C618 1.260 . S
C621 C619 1.479 . S
C622 C617 1.245 . S
C622 C618 1.477 . S
C622 H639 0.932 . S
C623 U606 2.882 . S
C623 C617 1.428 . S
C623 O626 1.301 . S
C623 O627 1.282 . S
O624 U606 2.441 . S
O624 C610 1.249 . S
O625 U606 2.420 . S
O625 C610 1.202 . S
O626 U606 2.455 . S
O626 C623 1.301 . S
O627 U606 2.449 . S
O627 C623 1.282 . S
H628 C601 0.931 . S
H629 C603 0.929 . S
H630 C604 0.930 . S
H631 C605 0.931 . S
H632 C612 0.932 . S
H633 C613 0.930 . S
H634 C614 0.929 . S
H635 C616 0.930 . S
H636 C618 0.932 . S
H637 C619 0.929 . S
H638 C620 0.928 . S
H639 C622 0.932 . S
H640 C648 0.950 . S
H641 C653 0.950 . S
H642 C650 0.950 . S
H643 C652 0.950 . S
H644 C654 0.950 . S
H645 C656 0.950 . S
H646 C658 0.950 . S
H647 C659 0.950 . S
C648 H640 0.950 . S
C648 C649 1.386 . S
C648 C650 1.391 . S
C649 C648 1.386 . S
C649 C653 1.393 . S
C650 H642 0.950 . S
C650 C648 1.391 . S
C650 C651 1.400 . S
C651 C650 1.400 . S
C651 C652 1.398 . S
C651 C657 1.491 . S
C652 H643 0.950 . S
C652 C651 1.398 . S
C652 C653 1.391 . S
C653 H641 0.950 . S
C653 C649 1.393 . S
C653 C652 1.391 . S
C654 H644 0.950 . S
C654 C655 1.386 . S
C654 C656 1.391 . S
C655 C654 1.386 . S
C655 C659 1.393 . S
C656 H645 0.950 . S
C656 C654 1.391 . S
C656 C657 1.400 . S
C657 C651 1.491 . S
C657 C656 1.400 . S
C657 C658 1.398 . S
C658 H646 0.950 . S
C658 C657 1.398 . S
C658 C659 1.391 . S
C659 H647 0.950 . S
C659 C655 1.393 . S
C659 C658 1.391 . S
H660 C668 0.950 . S
H661 C673 0.950 . S
H662 C670 0.950 . S
H663 C672 0.950 . S
H664 C674 0.950 . S
H665 C676 0.950 . S
H666 C678 0.950 . S
H667 C679 0.950 . S
C668 H660 0.950 . S
C668 C669 1.386 . S
C668 C670 1.391 . S
C669 C668 1.386 . S
C669 C673 1.393 . S
C670 H662 0.950 . S
C670 C668 1.391 . S
C670 C671 1.400 . S
C671 C670 1.400 . S
C671 C672 1.398 . S
C671 C677 1.491 . S
C672 H663 0.950 . S
C672 C671 1.398 . S
C672 C673 1.391 . S
C673 H661 0.950 . S
C673 C669 1.393 . S
C673 C672 1.391 . S
C674 H664 0.950 . S
C674 C675 1.386 . S
C674 C676 1.391 . S
C675 C674 1.386 . S
C675 C679 1.393 . S
C676 H665 0.950 . S
C676 C674 1.391 . S
C676 C677 1.400 . S
C677 C671 1.491 . S
C677 C676 1.400 . S
C677 C678 1.398 . S
C678 H666 0.950 . S
C678 C677 1.398 . S
C678 C679 1.391 . S
C679 H667 0.950 . S
C679 C675 1.393 . S
C679 C678 1.391 . S
H680 C688 0.950 . S
H681 C693 0.950 . S
H682 C690 0.950 . S
H683 C692 0.950 . S
H684 C694 0.950 . S
H685 C696 0.950 . S
H686 C698 0.950 . S
H687 C699 0.950 . S
C688 H680 0.950 . S
C688 C689 1.386 . S
C688 C690 1.391 . S
C689 C688 1.386 . S
C689 C693 1.393 . S
C690 H682 0.950 . S
C690 C688 1.391 . S
C690 C691 1.400 . S
C691 C690 1.400 . S
C691 C692 1.398 . S
C691 C697 1.491 1_556 S
C692 H683 0.950 . S
C692 C691 1.398 . S
C692 C693 1.391 . S
C693 H681 0.950 . S
C693 C689 1.393 . S
C693 C692 1.391 . S
C694 H684 0.950 . S
C694 C695 1.386 . S
C694 C696 1.391 . S
C695 C694 1.386 . S
C695 C699 1.393 . S
C696 H685 0.950 . S
C696 C694 1.391 . S
C696 C697 1.400 . S
C697 C691 1.491 1_554 S
C697 C696 1.400 . S
C697 C698 1.398 . S
C698 H686 0.950 . S
C698 C697 1.398 . S
C698 C699 1.391 . S
C699 H687 0.950 . S
C699 C695 1.393 . S
C699 C698 1.391 . S
H700 C708 0.950 . S
H701 C713 0.950 . S
H702 C710 0.950 . S
H703 C712 0.950 . S
H704 C714 0.950 . S
H705 C716 0.950 . S
H706 C718 0.950 . S
H707 C719 0.950 . S
C708 H700 0.950 . S
C708 C709 1.386 . S
C708 C710 1.391 . S
C709 C708 1.386 . S
C709 C713 1.393 . S
C710 H702 0.950 . S
C710 C708 1.391 . S
C710 C711 1.400 . S
C711 C710 1.400 . S
C711 C712 1.398 . S
C711 C717 1.491 . S
C712 H703 0.950 . S
C712 C711 1.398 . S
C712 C713 1.391 . S
C713 H701 0.950 . S
C713 C709 1.393 . S
C713 C712 1.391 . S
C714 H704 0.950 . S
C714 C715 1.386 . S
C714 C716 1.391 . S
C715 C714 1.386 . S
C715 C719 1.393 . S
C716 H705 0.950 . S
C716 C714 1.391 . S
C716 C717 1.400 . S
C717 C711 1.491 . S
C717 C716 1.400 . S
C717 C718 1.398 . S
C718 H706 0.950 . S
C718 C717 1.398 . S
C718 C719 1.391 . S
C719 H707 0.950 . S
C719 C715 1.393 . S
C719 C718 1.391 . S
H720 C728 0.950 . S
H721 C733 0.950 . S
H722 C730 0.950 . S
H723 C732 0.950 . S
H724 C734 0.950 . S
H725 C736 0.950 . S
H726 C738 0.950 . S
H727 C739 0.950 . S
C728 H720 0.950 . S
C728 C729 1.386 . S
C728 C730 1.391 . S
C729 C728 1.386 . S
C729 C733 1.393 . S
C730 H722 0.950 . S
C730 C728 1.391 . S
C730 C731 1.400 . S
C731 C730 1.400 . S
C731 C732 1.398 . S
C731 C737 1.491 . S
C732 H723 0.950 . S
C732 C731 1.398 . S
C732 C733 1.391 . S
C733 H721 0.950 . S
C733 C729 1.393 . S
C733 C732 1.391 . S
C734 H724 0.950 . S
C734 C735 1.386 . S
C734 C736 1.391 . S
C735 C734 1.386 . S
C735 C739 1.393 . S
C736 H725 0.950 . S
C736 C734 1.391 . S
C736 C737 1.400 . S
C737 C731 1.491 . S
C737 C736 1.400 . S
C737 C738 1.398 . S
C738 H726 0.950 . S
C738 C737 1.398 . S
C738 C739 1.391 . S
C739 H727 0.950 . S
C739 C735 1.393 . S
C739 C738 1.391 . S
H740 C748 0.950 . S
H741 C753 0.950 . S
H742 C750 1.026 . S
H743 C752 0.950 . S
H744 C754 0.950 . S
H745 C756 0.950 . S
H746 C758 0.950 . S
H747 C759 0.950 . S
C748 H740 0.950 . S
C748 C749 1.386 . S
C748 C750 1.391 . S
C749 C748 1.386 . S
C749 C753 1.393 . S
C750 H742 1.026 . S
C750 C748 1.391 . S
C750 C751 1.400 . S
C751 C750 1.400 . S
C751 C752 1.398 . S
C751 C757 1.491 1_556 S
C752 H743 0.950 . S
C752 C751 1.398 . S
C752 C753 1.391 . S
C753 H741 0.950 . S
C753 C749 1.393 . S
C753 C752 1.391 . S
C754 H744 0.950 . S
C754 C755 1.386 . S
C754 C756 1.391 . S
C755 C754 1.386 . S
C755 C759 1.393 . S
C756 H745 0.950 . S
C756 C754 1.391 . S
C756 C757 1.400 . S
C757 C751 1.491 1_554 S
C757 C756 1.400 . S
C757 C758 1.398 . S
C758 H746 0.950 . S
C758 C757 1.398 . S
C758 C759 1.391 . S
C759 H747 0.950 . S
C759 C755 1.393 . S
C759 C758 1.391 . S
H760 C768 0.950 . S
H761 C773 0.950 . S
H762 C770 0.950 . S
H763 C772 0.950 . S
H764 C774 0.950 . S
H765 C776 0.950 . S
H766 C778 0.950 . S
H767 C779 0.950 . S
C768 H760 0.950 . S
C768 C769 1.386 . S
C768 C770 1.391 . S
C769 C768 1.386 . S
C769 C773 1.393 . S
C770 H762 0.950 . S
C770 C768 1.391 . S
C770 C771 1.400 . S
C771 C770 1.400 . S
C771 C772 1.398 . S
C771 C777 1.491 . S
C772 H763 0.950 . S
C772 C771 1.398 . S
C772 C773 1.391 . S
C773 H761 0.950 . S
C773 C769 1.393 . S
C773 C772 1.391 . S
C774 H764 0.950 . S
C774 C775 1.386 . S
C774 C776 1.391 . S
C775 C774 1.386 . S
C775 C779 1.393 . S
C776 H765 0.950 . S
C776 C774 1.391 . S
C776 C777 1.400 . S
C777 C771 1.491 . S
C777 C776 1.400 . S
C777 C778 1.398 . S
C778 H766 0.950 . S
C778 C777 1.398 . S
C778 C779 1.391 . S
C779 H767 0.950 . S
C779 C775 1.393 . S
C779 C778 1.391 . S
H780 C788 0.950 . S
H781 C793 0.950 . S
H782 C790 0.950 . S
H783 C792 0.950 . S
H784 C794 0.950 . S
H785 C796 0.950 . S
H786 C798 0.950 . S
H787 C799 0.950 . S
C788 H780 0.950 . S
C788 C789 1.386 . S
C788 C790 1.391 . S
C789 C788 1.386 . S
C789 C793 1.393 . S
C790 H782 0.950 . S
C790 C788 1.391 . S
C790 C791 1.400 . S
C791 C790 1.400 . S
C791 C792 1.398 . S
C791 C797 1.491 . S
C792 H783 0.950 . S
C792 C791 1.398 . S
C792 C793 1.391 . S
C793 H781 0.950 . S
C793 C789 1.393 . S
C793 C792 1.391 . S
C794 H784 0.950 . S
C794 C795 1.386 . S
C794 C796 1.391 . S
C795 C794 1.386 . S
C795 C799 1.393 . S
C796 H785 0.950 . S
C796 C794 1.391 . S
C796 C797 1.400 . S
C797 C791 1.491 . S
C797 C796 1.400 . S
C797 C798 1.398 . S
C798 H786 0.950 . S
C798 C797 1.398 . S
C798 C799 1.391 . S
C799 H787 0.950 . S
C799 C795 1.393 . S
C799 C798 1.391 . S
H800 C808 0.950 . S
H801 C813 0.940 1_455 S
H802 C810 0.950 . S
H803 C812 0.950 . S
H804 C814 0.950 . S
H805 C816 0.942 1_565 S
H806 C818 0.950 . S
H807 C819 0.950 . S
C808 H800 0.950 . S
C808 C809 1.386 . S
C808 C810 1.391 . S
C809 C808 1.386 . S
C809 C813 1.393 . S
C810 H802 0.950 . S
C810 C808 1.391 . S
C810 C811 1.400 . S
C811 C810 1.400 . S
C811 C812 1.398 1_655 S
C811 C817 1.496 1_565 S
C812 H803 0.950 . S
C812 C811 1.398 1_455 S
C812 C813 1.391 1_455 S
C813 H801 0.940 1_655 S
C813 C809 1.393 . S
C813 C812 1.391 1_655 S
C814 H804 0.950 . S
C814 C815 1.386 . S
C814 C816 1.391 . S
C815 C814 1.386 . S
C815 C819 1.393 1_455 S
C816 H805 0.942 1_545 S
C816 C814 1.391 . S
C816 C817 1.388 1_455 S
C817 C811 1.496 1_545 S
C817 C816 1.388 1_655 S
C817 C818 1.405 . S
C818 H806 0.950 . S
C818 C817 1.405 . S
C818 C819 1.391 . S
C819 H807 0.950 . S
C819 C815 1.393 1_655 S
C819 C818 1.391 . S
H820 C828 0.950 . S
H821 C833 0.950 . S
H822 C830 0.950 . S
H823 C832 0.950 . S
H824 C834 0.950 . S
H825 C836 0.950 . S
H826 C838 0.950 . S
H827 C839 0.950 . S
C828 H820 0.950 . S
C828 C829 1.386 . S
C828 C830 1.391 . S
C829 C828 1.386 . S
C829 C833 1.393 . S
C830 H822 0.950 . S
C830 C828 1.391 . S
C830 C831 1.400 . S
C831 C830 1.400 . S
C831 C832 1.398 . S
C831 C837 1.491 1_455 S
C832 H823 0.950 . S
C832 C831 1.398 . S
C832 C833 1.391 . S
C833 H821 0.950 . S
C833 C829 1.393 . S
C833 C832 1.391 . S
C834 H824 0.950 . S
C834 C835 1.386 . S
C834 C836 1.391 . S
C835 C834 1.386 . S
C835 C839 1.393 . S
C836 H825 0.950 . S
C836 C834 1.391 . S
C836 C837 1.400 . S
C837 C831 1.491 1_655 S
C837 C836 1.400 . S
C837 C838 1.398 . S
C838 H826 0.950 . S
C838 C837 1.398 . S
C838 C839 1.391 . S
C839 H827 0.950 . S
C839 C835 1.393 . S
C839 C838 1.391 . S
H840 C848 0.950 . S
H841 C853 0.950 . S
H842 C850 0.950 . S
H843 C852 0.950 . S
H844 C854 0.950 . S
H845 C856 0.950 . S
H846 C858 0.950 . S
H847 C859 0.950 . S
C848 H840 0.950 . S
C848 C849 1.386 . S
C848 C850 1.391 . S
C849 C848 1.386 . S
C849 C853 1.393 . S
C850 H842 0.950 . S
C850 C848 1.391 . S
C850 C851 1.400 . S
C851 C850 1.400 . S
C851 C852 1.398 . S
C851 C857 1.491 . S
C852 H843 0.950 . S
C852 C851 1.398 . S
C852 C853 1.391 . S
C853 H841 0.950 . S
C853 C849 1.393 . S
C853 C852 1.391 . S
C854 H844 0.950 . S
C854 C855 1.386 . S
C854 C856 1.391 . S
C855 C854 1.386 . S
C855 C859 1.393 . S
C856 H845 0.950 . S
C856 C854 1.391 . S
C856 C857 1.400 . S
C857 C851 1.491 . S
C857 C856 1.400 . S
C857 C858 1.398 . S
C858 H846 0.950 . S
C858 C857 1.398 . S
C858 C859 1.391 . S
C859 H847 0.950 . S
C859 C855 1.393 . S
C859 C858 1.391 . S
H860 C868 0.922 1_545 S
H861 C873 0.950 . S
H862 C870 0.950 . S
H863 C872 0.950 . S
H864 C874 0.950 1_565 S
H865 C876 0.950 . S
H866 C878 0.950 . S
H867 C879 0.950 . S
C868 H860 0.922 1_565 S
C868 C869 1.434 . S
C868 C870 1.372 1_565 S
C869 C868 1.434 . S
C869 C873 1.393 . S
C870 H862 0.950 . S
C870 C868 1.372 1_545 S
C870 C871 1.400 1_545 S
C871 C870 1.400 1_565 S
C871 C872 1.398 . S
C871 C877 1.491 1_565 S
C872 H863 0.950 . S
C872 C871 1.398 . S
C872 C873 1.391 . S
C873 H861 0.950 . S
C873 C869 1.393 . S
C873 C872 1.391 . S
C874 H864 0.950 1_545 S
C874 C875 1.386 . S
C874 C876 1.391 1_545 S
C875 C874 1.386 . S
C875 C879 1.393 . S
C876 H865 0.950 . S
C876 C874 1.391 1_565 S
C876 C877 1.400 1_565 S
C877 C871 1.491 1_545 S
C877 C876 1.400 1_545 S
C877 C878 1.398 . S
C878 H866 0.950 . S
C878 C877 1.398 . S
C878 C879 1.391 . S
C879 H867 0.950 . S
C879 C875 1.393 . S
C879 C878 1.391 . S
H880 C888 0.950 . S
H881 C893 0.950 . S
H882 C890 0.950 . S
H883 C892 0.950 . S
H884 C894 0.950 . S
H885 C896 0.949 . S
H886 C898 0.950 . S
H887 C899 0.950 . S
C888 H880 0.950 . S
C888 C889 1.386 . S
C888 C890 1.391 . S
C889 C888 1.386 . S
C889 C893 1.393 . S
C890 H882 0.950 . S
C890 C888 1.391 . S
C890 C891 1.400 . S
C891 C890 1.400 . S
C891 C892 1.398 . S
C891 C897 1.487 1_655 S
C892 H883 0.950 . S
C892 C891 1.398 . S
C892 C893 1.391 . S
C893 H881 0.950 . S
C893 C889 1.393 . S
C893 C892 1.391 . S
C894 H884 0.950 . S
C894 C895 1.386 . S
C894 C896 1.391 . S
C895 C894 1.386 . S
C895 C899 1.393 . S
C896 H885 0.949 . S
C896 C894 1.391 . S
C896 C897 1.402 . S
C897 C891 1.487 1_455 S
C897 C896 1.402 . S
C897 C898 1.401 . S
C898 H886 0.950 . S
C898 C897 1.401 . S
C898 C899 1.391 . S
C899 H887 0.950 . S
C899 C895 1.393 . S
C899 C898 1.391 . S
H900 C908 0.950 . S
H901 C913 0.950 . S
H902 C910 0.950 . S
H903 C912 0.950 . S
H904 C914 0.950 . S
H905 C916 0.950 . S
H906 C918 0.950 . S
H907 C919 0.950 . S
C908 H900 0.950 . S
C908 C909 1.386 . S
C908 C910 1.391 . S
C909 C908 1.386 . S
C909 C913 1.393 . S
C910 H902 0.950 . S
C910 C908 1.391 . S
C910 C911 1.400 . S
C911 C910 1.400 . S
C911 C912 1.398 . S
C911 C917 1.491 . S
C912 H903 0.950 . S
C912 C911 1.398 . S
C912 C913 1.391 . S
C913 H901 0.950 . S
C913 C909 1.393 . S
C913 C912 1.391 . S
C914 H904 0.950 . S
C914 C915 1.386 . S
C914 C916 1.391 . S
C915 C914 1.386 . S
C915 C919 1.393 . S
C916 H905 0.950 . S
C916 C914 1.391 . S
C916 C917 1.400 . S
C917 C911 1.491 . S
C917 C916 1.400 . S
C917 C918 1.398 . S
C918 H906 0.950 . S
C918 C917 1.398 . S
C918 C919 1.391 . S
C919 H907 0.950 . S
C919 C915 1.393 . S
C919 C918 1.391 . S
H920 C928 0.950 . S
H921 C933 0.950 . S
H922 C930 0.950 . S
H923 C932 0.950 . S
H924 C934 0.950 . S
H925 C936 0.950 . S
H926 C938 0.950 . S
H927 C939 0.950 . S
C928 H920 0.950 . S
C928 C929 1.386 . S
C928 C930 1.391 . S
C929 C928 1.386 . S
C929 C933 1.393 . S
C930 H922 0.950 . S
C930 C928 1.391 . S
C930 C931 1.400 . S
C931 C930 1.400 . S
C931 C932 1.398 . S
C931 C937 1.491 1_545 S
C932 H923 0.950 . S
C932 C931 1.398 . S
C932 C933 1.391 . S
C933 H921 0.950 . S
C933 C929 1.393 . S
C933 C932 1.391 . S
C934 H924 0.950 . S
C934 C935 1.386 . S
C934 C936 1.391 . S
C935 C934 1.386 . S
C935 C939 1.393 . S
C936 H925 0.950 . S
C936 C934 1.391 . S
C936 C937 1.400 . S
C937 C931 1.491 1_565 S
C937 C936 1.400 . S
C937 C938 1.398 . S
C938 H926 0.950 . S
C938 C937 1.398 . S
C938 C939 1.391 . S
C939 H927 0.950 . S
C939 C935 1.393 . S
C939 C938 1.391 . S
H940 C948 0.950 . S
H941 C953 0.950 . S
H942 C950 0.950 . S
H943 C952 0.950 . S
H944 C954 0.950 . S
H945 C956 0.950 . S
H946 C958 0.950 . S
H947 C959 0.950 . S
C948 H940 0.950 . S
C948 C949 1.386 . S
C948 C950 1.391 . S
C949 C948 1.386 . S
C949 C953 1.393 . S
C950 H942 0.950 . S
C950 C948 1.391 . S
C950 C951 1.400 . S
C951 C950 1.400 . S
C951 C952 1.398 . S
C951 C957 1.491 1_445 S
C952 H943 0.950 . S
C952 C951 1.398 . S
C952 C953 1.391 . S
C953 H941 0.950 . S
C953 C949 1.393 . S
C953 C952 1.391 . S
C954 H944 0.950 . S
C954 C955 1.386 . S
C954 C956 1.391 . S
C955 C954 1.386 . S
C955 C959 1.393 . S
C956 H945 0.950 . S
C956 C954 1.391 . S
C956 C957 1.400 . S
C957 C951 1.491 1_665 S
C957 C956 1.400 . S
C957 C958 1.398 . S
C958 H946 0.950 . S
C958 C957 1.398 . S
C958 C959 1.391 . S
C959 H947 0.950 . S
C959 C955 1.393 . S
C959 C958 1.391 . S
H960 C968 0.950 . S
H961 C973 0.950 . S
H962 C970 0.950 . S
H963 C972 0.950 . S
H964 C974 0.950 . S
H965 C976 0.950 . S
H966 C978 0.950 . S
H967 C979 0.950 . S
C968 H960 0.950 . S
C968 C969 1.386 . S
C968 C970 1.391 . S
C969 C968 1.386 . S
C969 C973 1.393 . S
C970 H962 0.950 . S
C970 C968 1.391 . S
C970 C971 1.400 . S
C971 C970 1.400 . S
C971 C972 1.398 . S
C971 C977 1.491 . S
C972 H963 0.950 . S
C972 C971 1.398 . S
C972 C973 1.391 . S
C973 H961 0.950 . S
C973 C969 1.393 . S
C973 C972 1.391 . S
C974 H964 0.950 . S
C974 C975 1.386 . S
C974 C976 1.391 . S
C975 C974 1.386 . S
C975 C979 1.393 . S
C976 H965 0.950 . S
C976 C974 1.391 . S
C976 C977 1.400 . S
C977 C971 1.491 . S
C977 C976 1.400 . S
C977 C978 1.398 . S
C978 H966 0.950 . S
C978 C977 1.398 . S
C978 C979 1.391 . S
C979 H967 0.950 . S
C979 C975 1.393 . S
C979 C978 1.391 . S
H980 C988 0.950 . S
H981 C993 0.950 . S
H982 C990 0.950 . S
H983 C992 0.950 . S
H984 C994 0.950 . S
H985 C996 0.950 . S
H986 C998 0.950 . S
H987 C999 0.950 . S
C988 H980 0.950 . S
C988 C989 1.386 . S
C988 C990 1.391 . S
C989 C988 1.386 . S
C989 C993 1.393 . S
C990 H982 0.950 . S
C990 C988 1.391 . S
C990 C991 1.400 . S
C991 C990 1.400 . S
C991 C992 1.398 . S
C991 C997 1.491 . S
C992 H983 0.950 . S
C992 C991 1.398 . S
C992 C993 1.391 . S
C993 H981 0.950 . S
C993 C989 1.393 . S
C993 C992 1.391 . S
C994 H984 0.950 . S
C994 C995 1.386 . S
C994 C996 1.391 . S
C995 C994 1.386 . S
C995 C999 1.393 . S
C996 H985 0.950 . S
C996 C994 1.391 . S
C996 C997 1.400 . S
C997 C991 1.491 . S
C997 C996 1.400 . S
C997 C998 1.398 . S
C998 H986 0.950 . S
C998 C997 1.398 . S
C998 C999 1.391 . S
C999 H987 0.950 . S
C999 C995 1.393 . S
C999 C998 1.391 . S
H1000 C1008 0.950 . S
H1001 C1013 0.950 . S
H1002 C1010 0.950 . S
H1003 C1012 0.950 . S
H1004 C1014 0.950 . S
H1005 C1016 0.950 . S
H1006 C1018 0.950 . S
H1007 C1019 0.950 . S
C1008 H1000 0.950 . S
C1008 C1009 1.386 . S
C1008 C1010 1.391 . S
C1009 C1008 1.386 . S
C1009 C1013 1.393 . S
C1010 H1002 0.950 . S
C1010 C1008 1.391 . S
C1010 C1011 1.400 . S
C1011 C1010 1.400 . S
C1011 C1012 1.398 . S
C1011 C1017 1.491 . S
C1012 H1003 0.950 . S
C1012 C1011 1.398 . S
C1012 C1013 1.391 . S
C1013 H1001 0.950 . S
C1013 C1009 1.393 . S
C1013 C1012 1.391 . S
C1014 H1004 0.950 . S
C1014 C1015 1.386 . S
C1014 C1016 1.391 . S
C1015 C1014 1.386 . S
C1015 C1019 1.393 . S
C1016 H1005 0.950 . S
C1016 C1014 1.391 . S
C1016 C1017 1.400 . S
C1017 C1011 1.491 . S
C1017 C1016 1.400 . S
C1017 C1018 1.398 . S
C1018 H1006 0.950 . S
C1018 C1017 1.398 . S
C1018 C1019 1.391 . S
C1019 H1007 0.950 . S
C1019 C1015 1.393 . S
C1019 C1018 1.391 . S
H1020 C1028 0.950 . S
H1021 C1033 0.950 . S
H1022 C1030 0.950 . S
H1023 C1032 0.950 . S
H1024 C1034 0.950 . S
H1025 C1036 0.950 . S
H1026 C1038 0.950 . S
H1027 C1039 0.950 . S
C1028 H1020 0.950 . S
C1028 C1029 1.386 . S
C1028 C1030 1.391 . S
C1029 C1028 1.386 . S
C1029 C1033 1.393 . S
C1030 H1022 0.950 . S
C1030 C1028 1.391 . S
C1030 C1031 1.400 . S
C1031 C1030 1.400 . S
C1031 C1032 1.398 . S
C1031 C1037 1.491 . S
C1032 H1023 0.950 . S
C1032 C1031 1.398 . S
C1032 C1033 1.391 . S
C1033 H1021 0.950 . S
C1033 C1029 1.393 . S
C1033 C1032 1.391 . S
C1034 H1024 0.950 . S
C1034 C1035 1.386 . S
C1034 C1036 1.391 . S
C1035 C1034 1.386 . S
C1035 C1039 1.393 . S
C1036 H1025 0.950 . S
C1036 C1034 1.391 . S
C1036 C1037 1.400 . S
C1037 C1031 1.491 . S
C1037 C1036 1.400 . S
C1037 C1038 1.398 . S
C1038 H1026 0.950 . S
C1038 C1037 1.398 . S
C1038 C1039 1.391 . S
C1039 H1027 0.950 . S
C1039 C1035 1.393 . S
C1039 C1038 1.391 . S
H1040 C1048 0.950 . S
H1041 C1053 0.950 . S
H1042 C1050 0.950 . S
H1043 C1052 0.950 . S
H1044 C1054 0.950 . S
H1045 C1056 0.950 . S
H1046 C1058 0.950 . S
H1047 C1059 0.950 . S
C1048 H1040 0.950 . S
C1048 C1049 1.386 . S
C1048 C1050 1.391 . S
C1049 C1048 1.386 . S
C1049 C1053 1.393 . S
C1050 H1042 0.950 . S
C1050 C1048 1.391 . S
C1050 C1051 1.400 . S
C1051 C1050 1.400 . S
C1051 C1052 1.398 . S
C1051 C1057 1.491 . S
C1052 H1043 0.950 . S
C1052 C1051 1.398 . S
C1052 C1053 1.391 . S
C1053 H1041 0.950 . S
C1053 C1049 1.393 . S
C1053 C1052 1.391 . S
C1054 H1044 0.950 . S
C1054 C1055 1.386 . S
C1054 C1056 1.391 . S
C1055 C1054 1.386 . S
C1055 C1059 1.393 . S
C1056 H1045 0.950 . S
C1056 C1054 1.391 . S
C1056 C1057 1.400 . S
C1057 C1051 1.491 . S
C1057 C1056 1.400 . S
C1057 C1058 1.398 . S
C1058 H1046 0.950 . S
C1058 C1057 1.398 . S
C1058 C1059 1.391 . S
C1059 H1047 0.950 . S
C1059 C1055 1.393 . S
C1059 C1058 1.391 . S
H1060 C1068 0.950 . S
H1061 C1073 0.950 . S
H1062 C1070 0.950 . S
H1063 C1072 0.950 . S
H1064 C1074 0.950 . S
H1065 C1076 0.950 . S
H1066 C1078 0.950 . S
H1067 C1079 0.950 . S
C1068 H1060 0.950 . S
C1068 C1069 1.386 . S
C1068 C1070 1.391 . S
C1069 C1068 1.386 . S
C1069 C1073 1.393 . S
C1070 H1062 0.950 . S
C1070 C1068 1.391 . S
C1070 C1071 1.400 . S
C1071 C1070 1.400 . S
C1071 C1072 1.398 . S
C1071 C1077 1.491 . S
C1072 H1063 0.950 . S
C1072 C1071 1.398 . S
C1072 C1073 1.391 . S
C1073 H1061 0.950 . S
C1073 C1069 1.393 . S
C1073 C1072 1.391 . S
C1074 H1064 0.950 . S
C1074 C1075 1.386 . S
C1074 C1076 1.391 . S
C1075 C1074 1.386 . S
C1075 C1079 1.393 . S
C1076 H1065 0.950 . S
C1076 C1074 1.391 . S
C1076 C1077 1.400 . S
C1077 C1071 1.491 . S
C1077 C1076 1.400 . S
C1077 C1078 1.398 . S
C1078 H1066 0.950 . S
C1078 C1077 1.398 . S
C1078 C1079 1.391 . S
C1079 H1067 0.950 . S
C1079 C1075 1.393 . S
C1079 C1078 1.391 . S
H1080 C1088 0.950 . S
H1081 C1093 0.950 . S
H1082 C1090 0.950 . S
H1083 C1092 0.950 . S
H1084 C1094 0.950 . S
H1085 C1096 0.950 . S
H1086 C1098 0.950 . S
H1087 C1099 0.950 . S
C1088 H1080 0.950 . S
C1088 C1089 1.386 . S
C1088 C1090 1.391 . S
C1089 C1088 1.386 . S
C1089 C1093 1.393 . S
C1090 H1082 0.950 . S
C1090 C1088 1.391 . S
C1090 C1091 1.400 . S
C1091 C1090 1.400 . S
C1091 C1092 1.398 . S
C1091 C1097 1.491 . S
C1092 H1083 0.950 . S
C1092 C1091 1.398 . S
C1092 C1093 1.391 . S
C1093 H1081 0.950 . S
C1093 C1089 1.393 . S
C1093 C1092 1.391 . S
C1094 H1084 0.950 . S
C1094 C1095 1.386 . S
C1094 C1096 1.391 . S
C1095 C1094 1.386 . S
C1095 C1099 1.393 . S
C1096 H1085 0.950 . S
C1096 C1094 1.391 . S
C1096 C1097 1.400 . S
C1097 C1091 1.491 . S
C1097 C1096 1.400 . S
C1097 C1098 1.398 . S
C1098 H1086 0.950 . S
C1098 C1097 1.398 . S
C1098 C1099 1.391 . S
C1099 H1087 0.950 . S
C1099 C1095 1.393 . S
C1099 C1098 1.391 . S
H1100 C1108 0.950 . S
H1101 C1113 0.950 . S
H1102 C1110 0.950 . S
H1103 C1112 0.950 . S
H1104 C1114 0.950 . S
H1105 C1116 0.950 . S
H1106 C1118 0.950 . S
H1107 C1119 0.950 . S
C1108 H1100 0.950 . S
C1108 C1109 1.386 . S
C1108 C1110 1.391 . S
C1109 C1108 1.386 . S
C1109 C1113 1.393 . S
C1110 H1102 0.950 . S
C1110 C1108 1.391 . S
C1110 C1111 1.400 . S
C1111 C1110 1.400 . S
C1111 C1112 1.398 . S
C1111 C1117 1.491 . S
C1112 H1103 0.950 . S
C1112 C1111 1.398 . S
C1112 C1113 1.391 . S
C1113 H1101 0.950 . S
C1113 C1109 1.393 . S
C1113 C1112 1.391 . S
C1114 H1104 0.950 . S
C1114 C1115 1.386 . S
C1114 C1116 1.391 . S
C1115 C1114 1.386 . S
C1115 C1119 1.393 . S
C1116 H1105 0.950 . S
C1116 C1114 1.391 . S
C1116 C1117 1.400 . S
C1117 C1111 1.491 . S
C1117 C1116 1.400 . S
C1117 C1118 1.398 . S
C1118 H1106 0.950 . S
C1118 C1117 1.398 . S
C1118 C1119 1.391 . S
C1119 H1107 0.950 . S
C1119 C1115 1.393 . S
C1119 C1118 1.391 . S
C649 C541 2.025 . S
C655 C21 2.023 . S
C669 C61 1.998 . S
C675 C562 2.145 . S
C689 C82 2.137 . S
C695 C621 1.990 . S
C709 C141 2.032 . S
C715 C501 2.026 . S
C729 C181 2.034 . S
C735 C461 2.042 . S
C749 C341 2.028 . S
C755 C221 2.035 . S
C769 C381 1.996 . S
C775 C242 2.144 . S
C789 C402 2.148 . S
C795 C301 2.017 . S
C809 C421 2.146 . S
C815 C2 2.027 . S
C829 C442 1.981 . S
C835 C42 1.987 . S
C849 C322 2.024 . S
C855 C101 2.153 . S
C869 C122 1.994 . S
C875 C362 1.990 . S
C889 C581 2.141 . S
C895 C162 2.004 . S
C909 C602 2.000 . S
C915 C202 1.990 . S
C929 C261 2.143 . S
C935 C482 2.003 . S
C949 C522 1.982 . S
C955 C282 1.985 . S
C969 C255 1.814 . S
C975 C15 1.800 . S
C989 C55 1.800 . S
C995 C295 1.804 . S
C1009 C95 1.812 . S
C1015 C175 1.815 . S
C1029 C135 1.827 . S
C1035 C215 1.818 . S
C1049 C575 1.804 . S
C1055 C335 1.803 . S
C1069 C615 1.804 . S
C1075 C375 1.799 . S
C1089 C415 1.811 . S
C1095 C495 1.815 . S
C1109 C455 1.828 . S
C1115 C535 1.835 . S
