# Generated by pormake.
# Topology unf, (4)-cn, num edge types: 1
# Building blocks:
#     Node 0, Type 0, BuildingBlock: ICAMEG_clean_sbu_1, # of connection points: 4
#     Node 1, Type 0, BuildingBlock: ICAMEG_clean_sbu_1, # of connection points: 4
#     Node 2, Type 0, BuildingBlock: ICAMEG_clean_sbu_1, # of connection points: 4
#     Node 3, Type 0, BuildingBlock: ICAMEG_clean_sbu_1, # of connection points: 4
#     Node 4, Type 0, BuildingBlock: ICAMEG_clean_sbu_1, # of connection points: 4
#     Node 5, Type 0, BuildingBlock: ICAMEG_clean_sbu_1, # of connection points: 4
#     Node 6, Type 0, BuildingBlock: ICAMEG_clean_sbu_1, # of connection points: 4
#     Node 7, Type 0, BuildingBlock: ICAMEG_clean_sbu_1, # of connection points: 4
#     Node 8, Type 0, BuildingBlock: ICAMEG_clean_sbu_1, # of connection points: 4
#     Node 9, Type 0, BuildingBlock: ICAMEG_clean_sbu_1, # of connection points: 4
#     Node 10, Type 0, BuildingBlock: ICAMEG_clean_sbu_1, # of connection points: 4
#     Node 11, Type 0, BuildingBlock: ICAMEG_clean_sbu_1, # of connection points: 4
#     Edge 12, Type (0, 0), BuildingBlock: EZIPEK_clean_linker_0, # of connection points: 2
#     Edge 13, Type (0, 0), BuildingBlock: EZIPEK_clean_linker_0, # of connection points: 2
#     Edge 14, Type (0, 0), BuildingBlock: EZIPEK_clean_linker_0, # of connection points: 2
#     Edge 15, Type (0, 0), BuildingBlock: EZIPEK_clean_linker_0, # of connection points: 2
#     Edge 16, Type (0, 0), BuildingBlock: EZIPEK_clean_linker_0, # of connection points: 2
#     Edge 17, Type (0, 0), BuildingBlock: EZIPEK_clean_linker_0, # of connection points: 2
#     Edge 18, Type (0, 0), BuildingBlock: EZIPEK_clean_linker_0, # of connection points: 2
#     Edge 19, Type (0, 0), BuildingBlock: EZIPEK_clean_linker_0, # of connection points: 2
#     Edge 20, Type (0, 0), BuildingBlock: EZIPEK_clean_linker_0, # of connection points: 2
#     Edge 21, Type (0, 0), BuildingBlock: EZIPEK_clean_linker_0, # of connection points: 2
#     Edge 22, Type (0, 0), BuildingBlock: EZIPEK_clean_linker_0, # of connection points: 2
#     Edge 23, Type (0, 0), BuildingBlock: EZIPEK_clean_linker_0, # of connection points: 2
#     Edge 24, Type (0, 0), BuildingBlock: EZIPEK_clean_linker_0, # of connection points: 2
#     Edge 25, Type (0, 0), BuildingBlock: EZIPEK_clean_linker_0, # of connection points: 2
#     Edge 26, Type (0, 0), BuildingBlock: EZIPEK_clean_linker_0, # of connection points: 2
#     Edge 27, Type (0, 0), BuildingBlock: EZIPEK_clean_linker_0, # of connection points: 2
#     Edge 28, Type (0, 0), BuildingBlock: EZIPEK_clean_linker_0, # of connection points: 2
#     Edge 29, Type (0, 0), BuildingBlock: EZIPEK_clean_linker_0, # of connection points: 2
#     Edge 30, Type (0, 0), BuildingBlock: EZIPEK_clean_linker_0, # of connection points: 2
#     Edge 31, Type (0, 0), BuildingBlock: EZIPEK_clean_linker_0, # of connection points: 2
#     Edge 32, Type (0, 0), BuildingBlock: EZIPEK_clean_linker_0, # of connection points: 2
#     Edge 33, Type (0, 0), BuildingBlock: EZIPEK_clean_linker_0, # of connection points: 2
#     Edge 34, Type (0, 0), BuildingBlock: EZIPEK_clean_linker_0, # of connection points: 2
#     Edge 35, Type (0, 0), BuildingBlock: EZIPEK_clean_linker_0, # of connection points: 2
# Relax obj value: 0.240
# Max RMSD: 0.196
# Mean RMSD: 0.196
data_MOF--net-unf--node1-ICAMEG_clean_sbu_1--edge1-EZIPEK_clean_linker_0
_symmetry_space_group_name_H-M    P1
_symmetry_Int_Tables_number       1
_symmetry_cell_setting            triclinic
loop_
_symmetry_equiv_pos_as_xyz
'x, y, z'
_cell_length_a     28.562514
_cell_length_b     28.699635
_cell_length_c     29.717604
_cell_angle_alpha  90.258401
_cell_angle_beta   89.813714
_cell_angle_gamma 120.36339
loop_
_atom_site_label
_atom_site_type_symbol
_atom_site_fract_x
_atom_site_fract_y
_atom_site_fract_z
_atom_type_partial_charge
Co0 Co 0.12071 0.41499 0.03781 0.0
Co1 Co 0.08495 0.39838 0.15024 0.0
O2 O 0.13888 0.42182 0.10181 0.0
C3 C 0.18221 0.35869 0.04416 0.0
O4 O 0.14634 0.32833 0.07443 0.0
C5 C 0.18994 0.49436 0.18555 0.0
O6 O 0.20759 0.51297 0.14508 0.0
O7 O 0.05553 0.44326 0.1235 0.0
O8 O 0.06296 0.43296 0.04896 0.0
H9 H 0.89742 0.33161 0.21153 0.0
H10 H 0.23484 0.48569 0.06597 0.0
O11 O 0.17699 0.39544 1.02536 0.0
H12 H 0.19133 0.59832 0.96991 0.0
H13 H 0.16514 0.43519 0.87233 0.0
H14 H 0.01848 0.36802 0.98491 0.0
H15 H 0.12026 0.50633 0.99117 0.0
H16 H 0.1862 0.4445 0.95331 0.0
O17 O 0.1399 0.45857 0.19145 0.0
H18 H 0.96656 0.35715 0.15228 0.0
H19 H 0.08794 0.39546 0.25136 0.0
H20 H 0.99557 0.35906 0.90434 0.0
H21 H 0.3065 0.57813 0.04754 0.0
H22 H 0.06932 0.39287 0.84749 0.0
H23 H 0.2854 0.63454 0.99728 0.0
O24 O 0.0663 0.33833 0.04547 0.0
H25 H 0.22582 0.34578 0.1791 0.0
H26 H 0.0338 0.29152 0.19859 0.0
H27 H 0.06548 0.23095 0.22402 0.0
H28 H 0.16216 0.2575 0.21348 0.0
H29 H 0.19241 0.40482 0.15362 0.0
H30 H 0.02023 0.37154 0.31155 0.0
H31 H 0.92408 0.33893 0.29188 0.0
O32 O 0.03038 0.33541 0.11304 0.0
C33 C 0.04225 0.44436 0.08221 0.0
C34 C 0.93916 0.34561 0.22054 0.0
C35 C 0.00812 0.36818 0.27666 0.0
N36 N 0.03134 0.37745 0.19811 0.0
C37 C 0.97853 0.35989 0.18709 0.0
C38 C 0.0464 0.38207 0.24233 0.0
C39 C 0.95416 0.3498 0.2656 0.0
C40 C 0.22506 0.51058 0.04541 0.0
N41 N 0.17372 0.49056 1.02929 0.0
C42 C 0.26595 0.56277 0.03462 0.0
C43 C 0.25408 0.59422 1.00653 0.0
C44 C 0.20117 0.57403 0.99126 0.0
C45 C 0.16103 0.52214 1.00376 0.0
C46 C 0.13268 0.42042 0.89685 0.0
C47 C 0.05073 0.3833 0.96045 0.0
C48 C 0.14432 0.42531 0.94279 0.0
N49 N 0.10357 0.40726 0.974 0.0
C50 C 0.03753 0.3778 0.91482 0.0
C51 C 0.07889 0.39665 0.8829 0.0
C52 C 0.02987 0.3139 0.07507 0.0
C53 C 0.18377 0.33404 0.18418 0.0
C54 C 0.07592 0.3039 0.19405 0.0
C55 C 0.09371 0.26933 0.20884 0.0
C56 C 0.14796 0.28438 0.20335 0.0
N57 N 0.11102 0.35231 0.17439 0.0
C58 C 0.1645 0.36752 0.16985 0.0
Co59 Co 0.56904 0.72581 0.05036 0.0
Co60 Co 0.59724 0.68771 0.15294 0.0
O61 O 0.57189 0.72723 0.11631 0.0
C62 C 0.64455 0.83795 0.0735 0.0
O63 O 0.66708 0.81895 0.10042 0.0
C64 C 0.50386 0.68719 0.20469 0.0
O65 O 0.4797 0.68902 0.16781 0.0
O66 O 0.54765 0.61796 0.11857 0.0
O67 O 0.53839 0.64611 0.04988 0.0
H68 H 0.66355 0.55758 0.17849 0.0
H69 H 0.52046 0.78198 0.09905 0.0
O70 O 0.60302 0.80627 0.0501 0.0
H71 H 0.3766 0.64644 1.00121 0.0
H72 H 0.53456 0.77945 0.89807 0.0
H73 H 0.58826 0.66447 0.97899 0.0
H74 H 0.46396 0.65019 1.00779 0.0
H75 H 0.54287 0.78447 0.981 0.0
O76 O 0.54164 0.67555 0.20202 0.0
H77 H 0.63401 0.60962 0.13334 0.0
H78 H 0.61149 0.67905 0.25202 0.0
H79 H 0.58173 0.65949 0.89644 0.0
H80 H 0.43209 0.77808 0.09514 0.0
H81 H 0.5547 0.71739 0.85538 0.0
H82 H 0.36023 0.71095 0.04445 0.0
O83 O 0.64183 0.73544 0.0449 0.0
H84 H 0.65413 0.86914 0.22297 0.0
H85 H 0.71111 0.73749 0.18637 0.0
H86 H 0.77622 0.82398 0.22193 0.0
H87 H 0.74821 0.89101 0.23972 0.0
H88 H 0.59098 0.78301 0.18638 0.0
H89 H 0.64013 0.62712 0.29851 0.0
H90 H 0.66685 0.56607 0.2618 0.0
O91 O 0.65661 0.70292 0.10809 0.0
C92 C 0.53373 0.60941 0.07666 0.0
C93 C 0.65218 0.58412 0.19491 0.0
C94 C 0.63885 0.62302 0.26224 0.0
N95 N 0.621 0.64751 0.18972 0.0
C96 C 0.63545 0.61383 0.16942 0.0
C97 C 0.62229 0.65209 0.23564 0.0
C98 C 0.65391 0.58884 0.24164 0.0
C99 C 0.48849 0.75157 0.07833 0.0
N100 N 0.49722 0.71642 0.05362 0.0
C101 C 0.43871 0.74967 0.07609 0.0
C102 C 0.3982 0.71178 0.04799 0.0
C103 C 0.40719 0.6754 1.02374 0.0
C104 C 0.45687 0.6777 1.0276 0.0
C105 C 0.54714 0.75481 0.9157 0.0
C106 C 0.57652 0.68993 0.96156 0.0
C107 C 0.55185 0.75734 0.96258 0.0
N108 N 0.5659 0.72472 0.98497 0.0
C109 C 0.57304 0.68699 0.91469 0.0
C110 C 0.55805 0.71957 0.89169 0.0
C111 C 0.67073 0.72335 0.06866 0.0
C112 C 0.66695 0.8404 0.21513 0.0
C113 C 0.69836 0.76616 0.19423 0.0
C114 C 0.73546 0.81512 0.21445 0.0
C115 C 0.71968 0.85263 0.22454 0.0
N116 N 0.64697 0.75474 0.1841 0.0
C117 C 0.63103 0.79107 0.19479 0.0
Co118 Co 0.25612 0.85158 0.04975 0.0
Co119 Co 0.31342 0.91016 0.15281 0.0
O120 O 0.25848 0.85072 0.11568 0.0
C121 C 0.14356 0.82304 0.07698 0.0
O122 O 0.16156 0.85959 0.109 0.0
C123 C 0.28931 0.80478 0.20001 0.0
O124 O 0.27948 0.77851 0.16208 0.0
O125 O 0.37448 0.91376 0.11381 0.0
O126 O 0.33603 0.88758 0.04535 0.0
H127 H 0.4908 0.08106 0.18525 0.0
H128 H 0.17625 0.74486 1.00896 0.0
O129 O 0.17589 0.81637 0.05203 0.0
H130 H 0.30091 0.71197 0.09922 0.0
H131 H 0.30957 0.83 0.89287 0.0
H132 H 0.19599 0.87884 0.98397 0.0
H133 H 0.3216 0.80461 0.08431 0.0
H134 H 0.311 0.8268 0.97578 0.0
O135 O 0.31089 0.85627 0.19951 0.0
H136 H 0.42113 0.01041 0.13721 0.0
H137 H 0.32472 0.93135 0.25174 0.0
H138 H 0.19308 0.88235 0.9011 0.0
H139 H 0.15522 0.6515 1.02169 0.0
H140 H 0.25032 0.85799 0.855 0.0
H141 H 0.21512 0.63469 0.07103 0.0
O142 O 0.26344 0.92426 0.05067 0.0
H143 H 0.13571 0.82572 0.23723 0.0
H144 H 0.29128 0.99622 0.1832 0.0
H145 H 0.21853 -0.0016 0.22625 0.0
H146 H 0.14039 0.91278 0.25419 0.0
H147 H 0.20827 0.82527 0.1929 0.0
H148 H 0.39379 0.00086 0.3012 0.0
H149 H 0.47755 0.07664 0.2681 0.0
O150 O 0.31517 0.96578 0.11136 0.0
C151 C 0.37759 0.91293 0.07019 0.0
C152 C 0.45415 0.04863 0.20008 0.0
C153 C 0.39982 0.00358 0.26511 0.0
N154 N 0.36772 0.9674 0.19103 0.0
C155 C 0.41411 0.00864 0.17279 0.0
C156 C 0.36072 0.96433 0.23677 0.0
C157 C 0.44679 0.04606 0.24654 0.0
C158 C 0.20388 0.73804 1.02876 0.0
N159 N 0.24862 0.78034 0.04826 0.0
C160 C 0.19161 0.68497 0.03584 0.0
C161 C 0.22575 0.67549 0.06267 0.0
C162 C 0.27379 0.71889 0.0787 0.0
C163 C 0.28527 0.77144 0.07014 0.0
C164 C 0.28435 0.84059 0.91258 0.0
C165 C 0.22063 0.86773 0.96408 0.0
C166 C 0.28495 0.8388 0.95953 0.0
N167 N 0.25328 0.85223 0.98462 0.0
C168 C 0.21895 0.86995 0.91721 0.0
C169 C 0.2511 0.85631 0.89136 0.0
C170 C 0.29253 0.9662 0.07454 0.0
C171 C 0.16985 0.86337 0.2257 0.0
C172 C 0.25725 0.95869 0.19491 0.0
C173 C 0.21623 0.96023 0.2194 0.0
C174 C 0.17241 0.9122 0.23508 0.0
N175 N 0.25505 0.91072 0.18652 0.0
C176 C 0.21154 0.8634 0.20098 0.0
Co177 Co 0.59605 0.87678 0.52282 0.0
Co178 Co 0.57494 0.89549 0.41298 0.0
O179 O 0.57257 0.84855 0.46188 0.0
C180 C 0.66444 0.82639 0.51164 0.0
O181 O 0.68999 0.85769 0.47729 0.0
C182 C 0.49648 0.78064 0.38054 0.0
O183 O 0.48924 0.75756 0.41996 0.0
O184 O 0.52449 0.9122 0.45022 0.0
O185 O 0.56696 0.92606 0.51691 0.0
H186 H 0.58179 0.06184 0.35149 0.0
H187 H 0.52685 0.75915 0.50872 0.0
O188 O 0.62533 0.82766 0.53101 0.0
H189 H 0.42744 0.80618 0.6181 0.0
H190 H 0.62855 0.86356 0.68765 0.0
H191 H 0.64974 0.98635 0.56368 0.0
H192 H 0.51437 0.87673 0.58621 0.0
H193 H 0.59618 0.82784 0.61132 0.0
O194 O 0.51375 0.83152 0.37898 0.0
H195 H 0.58567 0.00383 0.41041 0.0
H196 H 0.56176 0.88556 0.31238 0.0
H197 H 0.68256 0.0237 0.63939 0.0
H198 H 0.44257 0.68691 0.54195 0.0
H199 H 0.67191 0.96211 0.70212 0.0
H200 H 0.39147 0.71014 0.59685 0.0
O201 O 0.66684 0.93354 0.4992 0.0
H202 H 0.66057 0.78515 0.36863 0.0
H203 H 0.66962 0.9598 0.35047 0.0
H204 H 0.73724 0.94458 0.31298 0.0
H205 H 0.73345 0.85675 0.32218 0.0
H206 H 0.59485 0.80243 0.40649 0.0
H207 H 0.55654 0.94182 0.25263 0.0
H208 H 0.56688 0.03087 0.27189 0.0
O209 O 0.63861 0.96079 0.44079 0.0
C210 C 0.53455 0.93112 0.49095 0.0
C211 C 0.57739 0.0232 0.34263 0.0
C212 C 0.56309 0.95581 0.28717 0.0
N213 N 0.57443 0.94142 0.36509 0.0
C214 C 0.57977 0.99021 0.37588 0.0
C215 C 0.56575 0.92394 0.32131 0.0
C216 C 0.56895 0.00578 0.29799 0.0
C217 C 0.50578 0.76938 0.53327 0.0
N218 N 0.5263 0.82177 0.54623 0.0
C219 C 0.45753 0.7284 0.55165 0.0
C220 C 0.42912 0.74154 0.58249 0.0
C221 C 0.44928 0.79539 0.59441 0.0
C222 C 0.49835 0.8352 0.57598 0.0
C223 C 0.63331 0.89078 0.66062 0.0
C224 C 0.64475 0.95921 0.59075 0.0
C225 C 0.61514 0.8708 0.6173 0.0
N226 N 0.6207 0.9049 0.58307 0.0
C227 C 0.66353 0.98064 0.63358 0.0
C228 C 0.65762 0.94608 0.66873 0.0
C229 C 0.67523 0.96848 0.46932 0.0
C230 C 0.66253 0.82351 0.36415 0.0
C231 C 0.66691 0.92136 0.35462 0.0
C232 C 0.7056 0.91293 0.33312 0.0
C233 C 0.70338 0.86367 0.33811 0.0
N234 N 0.62649 0.88175 0.3801 0.0
C235 C 0.62468 0.83347 0.38521 0.0
Co236 Co 0.16586 0.72027 0.52887 0.0
Co237 Co 0.09728 0.68321 0.42673 0.0
O238 O 0.16221 0.72613 0.46316 0.0
C239 C 0.19873 0.83292 0.51408 0.0
O240 O 0.16008 0.81498 0.48403 0.0
C241 C 0.19359 0.69575 0.37173 0.0
O242 O 0.21999 0.69505 0.40748 0.0
O243 O 0.08562 0.61419 0.45571 0.0
O244 O 0.11947 0.63949 0.52559 0.0
H245 H 0.90115 0.54287 0.40221 0.0
H246 H 0.26603 0.78429 0.47587 0.0
O247 O 0.20968 0.80057 0.53405 0.0
H248 H 0.29106 0.64778 0.55449 0.0
H249 H 0.26109 0.77609 0.67862 0.0
H250 H 0.09 0.65173 0.60148 0.0
H251 H 0.20906 0.65347 0.56674 0.0
H252 H 0.25367 0.77972 0.59633 0.0
O253 O 0.14333 0.68135 0.37489 0.0
H254 H 0.98376 0.59779 0.44688 0.0
H255 H 0.07111 0.67696 0.3284 0.0
H256 H 0.0958 0.64602 0.68359 0.0
H257 H 0.34891 0.77992 0.46164 0.0
H258 H 0.18186 0.70868 0.72288 0.0
H259 H 0.36148 0.71065 0.50031 0.0
O260 O 0.0984 0.72351 0.5382 0.0
H261 H 0.20134 0.86718 0.35491 0.0
H262 H 0.02222 0.72456 0.40853 0.0
H263 H 0.0312 0.80666 0.37425 0.0
H264 H 0.12116 0.87847 0.3466 0.0
H265 H 0.19083 0.78536 0.3907 0.0
H266 H 0.98962 0.62218 0.28248 0.0
H267 H 0.9037 0.55468 0.31931 0.0
O268 O 0.05077 0.68767 0.47458 0.0
C269 C 0.08981 0.60289 0.49697 0.0
C270 C 0.93838 0.57201 0.38572 0.0
C271 C 0.98808 0.6164 0.31854 0.0
N272 N 0.03272 0.64009 0.3904 0.0
C273 C 0.98541 0.60332 0.41087 0.0
C274 C 0.03433 0.64699 0.34477 0.0
C275 C 0.93986 0.57861 0.33922 0.0
C276 C 0.27116 0.7538 0.49255 0.0
N277 N 0.23158 0.71733 0.52042 0.0
C278 C 0.31825 0.7517 0.48457 0.0
C279 C 0.32527 0.7128 0.50634 0.0
C280 C 0.28568 0.67721 0.53623 0.0
C281 C 0.23883 0.68007 0.54278 0.0
C282 C 0.22332 0.74861 0.66192 0.0
C283 C 0.1275 0.67898 0.61805 0.0
C284 C 0.21874 0.75063 0.61528 0.0
N285 N 0.17122 0.716 0.59384 0.0
C286 C 0.13061 0.67563 0.66471 0.0
C287 C 0.17888 0.71078 0.68673 0.0
C288 C 0.0557 0.70606 0.51437 0.0
C289 C 0.1618 0.83593 0.36636 0.0
C290 C 0.06159 0.7556 0.39676 0.0
C291 C 0.06639 0.80204 0.37731 0.0
C292 C 0.11685 0.84231 0.36183 0.0
N293 N 0.10575 0.74924 0.40067 0.0
C294 C 0.15549 0.78906 0.38621 0.0
Co295 Co 0.2793 0.39754 0.49729 0.0
Co296 Co 0.33008 0.40438 0.39266 0.0
O297 O 0.28137 0.41188 0.43347 0.0
C298 C 0.16016 0.33815 0.51384 0.0
O299 O 0.16626 0.30296 0.53739 0.0
C300 C 0.29121 0.47319 0.34656 0.0
O301 O 0.25536 0.46037 0.37874 0.0
O302 O 0.39268 0.45635 0.43233 0.0
O303 O 0.35765 0.41834 0.49909 0.0
H304 H 0.48348 0.3694 0.36428 0.0
H305 H 0.2438 0.47231 0.46429 0.0
O306 O 0.20106 0.37755 0.49512 0.0
H307 H 0.39484 0.58031 0.56851 0.0
H308 H 0.22999 0.40252 0.66018 0.0
H309 H 0.31605 0.33703 0.55309 0.0
H310 H 0.36166 0.48346 0.55733 0.0
H311 H 0.23541 0.42426 0.57964 0.0
O312 O 0.3303 0.46297 0.35141 0.0
H313 H 0.41407 0.37448 0.40873 0.0
H314 H 0.37542 0.4402 0.29694 0.0
H315 H 0.31166 0.31432 0.63331 0.0
H316 H 0.2755 0.56902 0.47475 0.0
H317 H 0.26836 0.34713 0.68761 0.0
H318 H 0.35219 0.62362 0.52647 0.0
O319 O 0.25959 0.32231 0.4821 0.0
H320 H 0.13278 0.29228 0.34516 0.0
H321 H 0.31542 0.31899 0.32382 0.0
H322 H 0.23975 0.24759 0.28273 0.0
H323 H 0.14698 0.23253 0.2936 0.0
H324 H 0.20862 0.36331 0.38605 0.0
H325 H 0.44417 0.43591 0.25162 0.0
H326 H 0.49884 0.3996 0.28471 0.0
O327 O 0.32328 0.34273 0.42965 0.0
C328 C 0.39842 0.44621 0.47362 0.0
C329 C 0.45858 0.38343 0.34884 0.0
C330 C 0.43655 0.42072 0.28574 0.0
N331 N 0.38533 0.40203 0.3546 0.0
C332 C 0.41801 0.38536 0.37369 0.0
C333 C 0.39636 0.42207 0.31168 0.0
C334 C 0.46738 0.40062 0.30434 0.0
C335 C 0.27669 0.4957 0.48733 0.0
N336 N 0.30072 0.4721 0.51013 0.0
C337 C 0.2945 0.55046 0.49308 0.0
C338 C 0.33745 0.58111 0.52223 0.0
C339 C 0.36148 0.5568 0.54573 0.0
C340 C 0.34249 0.50192 0.53922 0.0
C341 C 0.24871 0.38773 0.63684 0.0
C342 C 0.29672 0.35112 0.57628 0.0
C343 C 0.25164 0.39975 0.59106 0.0
N344 N 0.27513 0.38122 0.56128 0.0
C345 C 0.29454 0.33827 0.62179 0.0
C346 C 0.27027 0.35669 0.65222 0.0
C347 C 0.2881 0.3093 0.45759 0.0
C348 C 0.17317 0.29878 0.33982 0.0
C349 C 0.27643 0.31542 0.32833 0.0
C350 C 0.23307 0.27372 0.30489 0.0
C351 C 0.18111 0.26531 0.31087 0.0
N352 N 0.26903 0.34913 0.35663 0.0
C353 C 0.2174 0.34008 0.36274 0.0
Co354 Co 0.82515 0.56071 1.02759 0.0
Co355 Co 0.8986 0.57844 0.92987 0.0
O356 O 0.83394 0.56636 0.9622 0.0
C357 C 0.79899 0.64281 1.00372 0.0
O358 O 0.83933 0.66108 0.9751 0.0
C359 C 0.79988 0.49617 0.87583 0.0
O360 O 0.77355 0.47266 0.91284 0.0
O361 O 0.89837 0.51713 0.96423 0.0
O362 O 0.86776 0.52333 0.03267 0.0
H363 H 0.07902 0.58847 0.91132 0.0
H364 H 0.7239 0.52634 0.97637 0.0
O365 O 0.78466 0.59996 1.02581 0.0
H366 H 0.70228 0.35882 0.04113 0.0
H367 H 0.71001 0.50488 0.16815 0.0
H368 H 0.89665 0.60676 0.11082 0.0
H369 H 0.78308 0.44671 0.05876 0.0
H370 H 0.72702 0.51408 0.0871 0.0
O371 O 0.85074 0.53115 0.87771 0.0
H372 H -0.00118 0.57546 0.95295 0.0
H373 H 0.93299 0.60009 0.83374 0.0
H374 H 0.88128 0.59845 0.19173 0.0
H375 H 0.64264 0.43941 0.95813 0.0
H376 H 0.78731 0.54689 0.2215 0.0
H377 H 0.63156 0.35501 0.99019 0.0
O378 O 0.89482 0.63115 0.03492 0.0
H379 H 0.82112 0.68028 0.85256 0.0
H380 H 0.98687 0.69101 0.91204 0.0
H381 H 0.99208 0.77168 0.87827 0.0
H382 H 0.90864 0.76663 0.84805 0.0
H383 H 0.81794 0.60028 0.88526 0.0
H384 H 0.01212 0.61241 0.79044 0.0
H385 H 0.08615 0.60712 0.82928 0.0
O386 O 0.94677 0.6292 0.97829 0.0
C387 C 0.89475 0.50943 1.00727 0.0
C388 C 0.04739 0.5916 0.89409 0.0
C389 C 0.00978 0.60487 0.82626 0.0
N390 N 0.96193 0.58886 0.89642 0.0
C391 C 0.00203 0.58486 0.91774 0.0
C392 C 0.96504 0.59789 0.85104 0.0
C393 C 0.05129 0.60189 0.84806 0.0
C394 C 0.71923 0.48994 0.9911 0.0
N395 N 0.75878 0.49186 1.01816 0.0
C396 C 0.67305 0.44075 0.98056 0.0
C397 C 0.66703 0.39331 0.9984 0.0
C398 C 0.70682 0.39549 1.02681 0.0
C399 C 0.7527 0.44542 0.0364 0.0
C400 C 0.75128 0.52601 0.15568 0.0
C401 C 0.85588 0.5815 0.12241 0.0
C402 C 0.76146 0.53043 0.10944 0.0
N403 N 0.81346 0.55573 0.09298 0.0
C404 C 0.84727 0.57821 0.16888 0.0
C405 C 0.79459 0.54964 0.18558 0.0
C406 C 0.94051 0.6496 1.0147 0.0
C407 C 0.85786 0.6826 0.86443 0.0
C408 C 0.95044 0.68816 0.89848 0.0
C409 C 0.9537 0.73409 0.87942 0.0
C410 C 0.90694 0.73121 0.8624 0.0
N411 N 0.90212 0.64039 0.90006 0.0
C412 C 0.8563 0.63724 0.88299 0.0
Co413 Co 0.40472 0.28939 1.01374 0.0
Co414 Co 0.41961 0.32726 0.90365 0.0
O415 O 0.42804 0.28577 0.95243 0.0
C416 C 0.34049 0.17087 1.00048 0.0
O417 O 0.31689 0.17791 0.9655 0.0
C418 C 0.50614 0.30152 0.87054 0.0
O419 O 0.51741 0.29136 0.91083 0.0
O420 O 0.46953 0.39661 0.93854 0.0
O421 O 0.43097 0.36808 1.00694 0.0
H422 H 0.39333 0.47504 0.84127 0.0
H423 H 0.47628 0.24219 1.00452 0.0
O424 O 0.37804 0.21081 1.02189 0.0
H425 H 0.57193 0.39677 0.10809 0.0
H426 H 0.37483 0.24384 0.17884 0.0
H427 H 0.34793 0.34159 0.05501 0.0
H428 H 0.4855 0.37644 0.07348 0.0
H429 H 0.40752 0.24188 0.10228 0.0
O430 O 0.47997 0.32678 0.86672 0.0
H431 H 0.40609 0.42325 0.90097 0.0
H432 H 0.42128 0.32351 0.80282 0.0
H433 H 0.31469 0.34471 0.13092 0.0
H434 H 0.56048 0.2585 0.04178 0.0
H435 H 0.32817 0.29567 0.19358 0.0
H436 H 0.60911 0.33646 0.09342 0.0
O437 O 0.3324 0.27082 0.99126 0.0
H438 H 0.34732 0.13405 0.85484 0.0
H439 H 0.31457 0.28677 0.85394 0.0
H440 H 0.24853 0.20116 0.8181 0.0
H441 H 0.26472 0.12391 0.81814 0.0
H442 H 0.41102 0.2195 0.89166 0.0
H443 H 0.408 0.37384 0.74217 0.0
H444 H 0.393 0.44968 0.76122 0.0
O445 O 0.35654 0.32707 0.93384 0.0
C446 C 0.46054 0.40585 0.97953 0.0
C447 C 0.39932 0.44176 0.83256 0.0
C448 C 0.40754 0.38496 0.77696 0.0
N449 N 0.41345 0.36969 0.85561 0.0
C450 C 0.40679 0.41236 0.86625 0.0
C451 C 0.41538 0.35681 0.81151 0.0
C452 C 0.3991 0.42749 0.78767 0.0
C453 C 0.49685 0.27577 1.02742 0.0
N454 N 0.4756 0.3079 0.03694 0.0
C455 C 0.54471 0.28506 0.04809 0.0
C456 C 0.57192 0.32876 0.07731 0.0
C457 C 0.55113 0.36262 0.08551 0.0
C458 C 0.50244 0.35126 0.06524 0.0
C459 C 0.36884 0.26549 0.15185 0.0
C460 C 0.35423 0.32038 0.08206 0.0
C461 C 0.38721 0.26447 0.10841 0.0
N462 N 0.38005 0.29195 0.07422 0.0
C463 C 0.33519 0.32219 0.125 0.0
C464 C 0.34268 0.29459 0.16011 0.0
C465 C 0.32123 0.29594 0.96221 0.0
C466 C 0.34009 0.16761 0.85408 0.0
C467 C 0.32232 0.25376 0.85408 0.0
C468 C 0.28459 0.20517 0.83367 0.0
C469 C 0.2937 0.16188 0.83365 0.0
N470 N 0.36833 0.25961 0.87357 0.0
C471 C 0.37674 0.21673 0.87432 0.0
Co472 Co 0.70169 0.14401 1.01456 0.0
Co473 Co 0.67832 0.06465 0.91963 0.0
O474 O 0.71413 0.13376 0.95117 0.0
C475 C 0.81723 0.18652 1.00865 0.0
O476 O 0.80393 0.14317 0.98474 0.0
C477 C 0.69195 0.15275 0.85437 0.0
O478 O 0.69702 0.18361 0.88875 0.0
O479 O 0.6047 0.04783 0.94348 0.0
O480 O 0.62324 0.08635 1.01182 0.0
H481 H 0.5506 0.86488 0.92032 0.0
H482 H 0.76518 0.24959 0.96732 0.0
O483 O 0.7811 0.1975 1.02114 0.0
H484 H 0.58027 0.21963 0.98206 0.0
H485 H 0.73008 0.2597 0.15087 0.0
H486 H 0.63673 0.07375 0.09123 0.0
H487 H 0.6045 0.1582 1.01877 0.0
H488 H 0.74297 0.2419 0.07188 0.0
O489 O 0.67376 0.10198 0.86131 0.0
H490 H 0.60383 0.95511 0.95273 0.0
H491 H 0.66271 0.02019 0.82322 0.0
H492 H 0.62237 0.08973 0.17019 0.0
H493 H 0.74402 0.31529 0.9349 0.0
H494 H 0.66935 0.18328 0.20062 0.0
H495 H 0.65027 0.29914 0.94007 0.0
O496 O 0.71699 0.08717 0.03406 0.0
H497 H 0.87134 0.17912 0.86476 0.0
H498 H 0.72612 0.99463 0.90156 0.0
H499 H 0.8133 0.00937 0.873 0.0
H500 H 0.88695 0.1022 0.85452 0.0
H501 H 0.78328 0.1628 0.8924 0.0
H502 H 0.61132 0.93053 0.78942 0.0
H503 H 0.55446 0.85136 0.83787 0.0
O504 O 0.69009 0.0306 0.97446 0.0
C505 C 0.59049 0.05158 0.98378 0.0
C506 C 0.57623 0.89857 0.89875 0.0
C507 C 0.61011 0.93556 0.82545 0.0
N508 N 0.63922 0.99374 0.89048 0.0
C509 C 0.60703 0.95019 0.91707 0.0
C510 C 0.63991 0.98678 0.84499 0.0
C511 C 0.57817 0.89117 0.85262 0.0
C512 C 0.72517 0.24377 0.97249 0.0
N513 N 0.68615 0.19941 0.99486 0.0
C514 C 0.71319 0.28086 0.95327 0.0
C515 C 0.66063 0.2719 0.95632 0.0
C516 C 0.62139 0.22735 0.97996 0.0
C517 C 0.63524 0.19204 1.00001 0.0
C518 C 0.70942 0.21875 0.13803 0.0
C519 C 0.65713 0.1146 0.104 0.0
C520 C 0.71663 0.20841 0.09334 0.0
N521 N 0.69076 0.15681 0.07687 0.0
C522 C 0.64893 0.12339 0.14886 0.0
C523 C 0.67532 0.17587 0.16592 0.0
C524 C 0.70917 0.04423 1.01454 0.0
C525 C 0.83948 0.13845 0.87252 0.0
C526 C 0.75711 0.03509 0.89257 0.0
C527 C 0.80683 0.04322 0.87684 0.0
C528 C 0.84819 0.09528 0.86667 0.0
N529 N 0.74833 0.07747 0.89761 0.0
C530 C 0.78917 0.12878 0.88818 0.0
Co531 Co 0.43494 0.1393 0.54438 0.0
Co532 Co 0.40875 0.09585 0.65608 0.0
O533 O 0.43544 0.15339 0.60971 0.0
C534 C 0.37547 0.19919 0.5493 0.0
O535 O 0.36452 0.18655 0.5918 0.0
C536 C 0.50461 0.19557 0.69998 0.0
O537 O 0.52622 0.21863 0.66141 0.0
O538 O 0.45364 0.06543 0.62878 0.0
O539 O 0.45823 0.08673 0.5555 0.0
H540 H 0.3317 0.9045 0.70921 0.0
H541 H 0.49389 0.25365 0.57359 0.0
O542 O 0.40799 0.18869 0.52862 0.0
H543 H 0.63026 0.2243 0.49675 0.0
H544 H 0.46903 0.18809 0.37988 0.0
H545 H 0.39695 0.03954 0.48983 0.0
H546 H 0.53657 0.14906 0.50703 0.0
H547 H 0.47149 0.20698 0.46109 0.0
O548 O 0.46776 0.14549 0.70065 0.0
H549 H 0.36367 0.97721 0.65316 0.0
H550 H 0.39945 0.09262 0.75709 0.0
H551 H 0.39432 0.01892 0.40904 0.0
H552 H 0.58723 0.33038 0.5636 0.0
H553 H 0.43043 0.09347 0.35335 0.0
H554 H 0.65555 0.31579 0.52404 0.0
O555 O 0.35905 0.08113 0.54728 0.0
H556 H 0.36731 0.24005 0.70448 0.0
H557 H 0.29747 0.04436 0.69668 0.0
H558 H 0.2396 0.07726 0.72789 0.0
H559 H 0.27435 0.17587 0.73191 0.0
H560 H 0.42253 0.20523 0.67156 0.0
H561 H 0.36905 0.02134 0.81419 0.0
H562 H 0.33438 0.92634 0.79049 0.0
O563 O 0.34624 0.04549 0.61607 0.0
C564 C 0.46362 0.06061 0.58721 0.0
C565 C 0.34666 0.94574 0.71998 0.0
C566 C 0.36775 0.0113 0.77889 0.0
N567 N 0.38345 0.03932 0.70148 0.0
C568 C 0.36469 0.98714 0.6883 0.0
C569 C 0.38537 0.05164 0.74627 0.0
C570 C 0.34823 0.95801 0.76557 0.0
C571 C 0.52373 0.24717 0.55675 0.0
N572 N 0.50978 0.19719 0.5406 0.0
C573 C 0.57639 0.29067 0.55113 0.0
C574 C 0.61475 0.28253 0.52893 0.0
C575 C 0.60058 0.23111 0.51363 0.0
C576 C 0.54763 0.18857 0.51997 0.0
C577 C 0.45313 0.15524 0.4038 0.0
C578 C 0.41309 0.07233 0.46594 0.0
C579 C 0.45418 0.1657 0.44986 0.0
N580 N 0.43434 0.1245 0.48034 0.0
C581 C 0.41133 0.06033 0.42016 0.0
C582 C 0.43152 0.10216 0.38894 0.0
C583 C 0.3299 0.04572 0.57602 0.0
C584 C 0.35154 0.19695 0.70274 0.0
C585 C 0.31268 0.08721 0.69737 0.0
C586 C 0.27983 0.10567 0.71559 0.0
C587 C 0.29941 0.16097 0.71805 0.0
N588 N 0.36357 0.12259 0.68168 0.0
C589 C 0.38307 0.17691 0.68457 0.0
Co590 Co 0.84172 0.29745 0.543 0.0
Co591 Co 0.91944 0.32192 0.6385 0.0
O592 O 0.85287 0.27952 0.60385 0.0
C593 C 0.78754 0.17616 0.54548 0.0
O594 O 0.78984 0.17591 0.5895 0.0
C595 C 0.82247 0.28717 0.702 0.0
O596 O 0.79226 0.2805 0.66673 0.0
O597 O 0.9237 0.39291 0.6231 0.0
O598 O 0.88909 0.37612 0.55401 0.0
H599 H 0.11519 0.46743 0.65375 0.0
H600 H 0.72435 0.21074 0.56401 0.0
O601 O 0.8011 0.21969 0.5244 0.0
H602 H 0.74047 0.37987 0.61803 0.0
H603 H 0.72851 0.28985 0.4101 0.0
H604 H 0.91389 0.36801 0.47016 0.0
H605 H 0.81447 0.38199 0.57591 0.0
H606 H 0.7436 0.2665 0.48587 0.0
O607 O 0.87443 0.30999 0.69691 0.0
H608 H 0.02779 0.4147 0.61522 0.0
H609 H 0.95871 0.32145 0.73285 0.0
H610 H 0.90058 0.39177 0.39369 0.0
H611 H 0.64986 0.20796 0.60508 0.0
H612 H 0.80733 0.35296 0.36322 0.0
H613 H 0.65727 0.29267 0.63364 0.0
O614 O 0.90822 0.29744 0.52183 0.0
H615 H 0.83521 0.12485 0.67868 0.0
H616 H 0.00399 0.29053 0.63619 0.0
H617 H 0.00559 0.2067 0.64895 0.0
H618 H 0.92081 0.12299 0.67053 0.0
H619 H 0.83539 0.20937 0.66544 0.0
H620 H 0.04495 0.37291 0.77251 0.0
H621 H 0.12447 0.447 0.73323 0.0
O622 O 0.96217 0.32963 0.5831 0.0
C623 C 0.91902 0.40939 0.5841 0.0
C624 C 0.08085 0.4355 0.67145 0.0
C625 C 0.04143 0.38269 0.73811 0.0
N626 N 0.98719 0.36449 0.6716 0.0
C627 C 0.03097 0.4052 0.64975 0.0
C628 C 0.99217 0.35342 0.71536 0.0
C629 C 0.08603 0.42405 0.71598 0.0
C630 C 0.72947 0.24852 0.5749 0.0
N631 N 0.7763 0.2966 0.5667 0.0
C632 C 0.68619 0.24637 0.59874 0.0
C633 C 0.69028 0.29378 0.61473 0.0
C634 C 0.73686 0.34268 0.60568 0.0
C635 C 0.77922 0.34339 0.58134 0.0
C636 C 0.76938 0.30708 0.42298 0.0
C637 C 0.87319 0.35034 0.45713 0.0
C638 C 0.77825 0.29396 0.4661 0.0
N639 N 0.82967 0.31558 0.48281 0.0
C640 C 0.8659 0.36425 0.4138 0.0
C641 C 0.81359 0.34247 0.39671 0.0
C642 C 0.95358 0.31475 0.54199 0.0
C643 C 0.87255 0.16113 0.66964 0.0
C644 C 0.96694 0.25455 0.64603 0.0
C645 C 0.96811 0.20706 0.65302 0.0
C646 C 0.92054 0.1601 0.66504 0.0
N647 N 0.9198 0.25553 0.6511 0.0
C648 C 0.87291 0.20932 0.6621 0.0
Co649 Co 0.73189 0.58743 0.55008 0.0
Co650 Co 0.67053 0.57191 0.65358 0.0
O651 O 0.72527 0.572 0.61435 0.0
C652 C 0.8478 0.67486 0.56093 0.0
O653 O 0.8337 0.71145 0.56559 0.0
C654 C 0.71529 0.51405 0.70459 0.0
O655 O 0.7611 0.54891 0.68513 0.0
O656 O 0.6112 0.52131 0.60985 0.0
O657 O 0.65113 0.54914 0.54192 0.0
H658 H 0.5746 0.64997 0.74192 0.0
H659 H 0.79196 0.53786 0.58882 0.0
O660 O 0.81245 0.62512 0.55672 0.0
H661 H 0.67537 0.41103 0.47105 0.0
H662 H 0.81588 0.5996 0.3981 0.0
H663 H 0.69304 0.63976 0.48397 0.0
H664 H 0.66994 0.4922 0.48916 0.0
H665 H 0.8004 0.5785 0.47875 0.0
O666 O 0.67103 0.51192 0.6915 0.0
H667 H 0.64832 0.65492 0.69488 0.0
H668 H 0.57022 0.4838 0.69172 0.0
H669 H 0.70609 0.66029 0.40339 0.0
H670 H 0.80108 0.45957 0.56995 0.0
H671 H 0.76794 0.64012 0.35955 0.0
H672 H 0.74312 0.3956 0.51017 0.0
O673 O 0.7301 0.65529 0.56165 0.0
H674 H 0.85212 0.73434 0.69064 0.0
H675 H 0.68153 0.58769 0.75372 0.0
H676 H 0.7498 0.65466 0.80443 0.0
H677 H 0.83668 0.72888 0.77325 0.0
H678 H 0.78133 0.66692 0.64094 0.0
H679 H 0.49639 0.477 0.73919 0.0
H680 H 0.49802 0.56039 0.76486 0.0
O681 O 0.67286 0.63314 0.62026 0.0
C682 C 0.60865 0.52485 0.56659 0.0
C683 C 0.57341 0.61329 0.73123 0.0
C684 C 0.52946 0.51622 0.72985 0.0
N685 N 0.61396 0.56957 0.69136 0.0
C686 C 0.61494 0.61582 0.70446 0.0
C687 C 0.57157 0.52028 0.70313 0.0
C688 C 0.53048 0.56305 0.74409 0.0
C689 C 0.76654 0.51046 0.56275 0.0
N690 N 0.73126 0.5203 0.5395 0.0
C691 C 0.77164 0.46583 0.55238 0.0
C692 C 0.73901 0.43 0.51896 0.0
C693 C 0.70118 0.43878 0.49688 0.0
C694 C 0.69785 0.48448 0.50763 0.0
C695 C 0.78784 0.60748 0.41655 0.0
C696 C 0.71794 0.6286 0.46524 0.0
C697 C 0.7785 0.59522 0.4623 0.0
N698 N 0.74266 0.60436 0.48596 0.0
C699 C 0.72617 0.64136 0.4195 0.0
C700 C 0.76106 0.6303 0.39497 0.0
C701 C 0.69955 0.66399 0.58773 0.0
C702 C 0.81458 0.70244 0.70475 0.0
C703 C 0.71854 0.6199 0.73954 0.0
C704 C 0.75755 0.6577 0.76863 0.0
C705 C 0.80596 0.69926 0.75108 0.0
N706 N 0.72663 0.6238 0.69399 0.0
C707 C 0.77421 0.6642 0.67663 0.0
C708 C 0.21691 0.29334 0.03597 0.0
C709 C 0.22031 0.34295 1.02396 0.0
C710 C 0.27135 0.34678 0.95632 0.0
C711 C 0.27227 0.30065 0.97092 0.0
N712 N 0.22182 0.21626 1.00902 0.0
N713 N 0.27049 0.42587 0.98124 0.0
C714 C 0.23696 0.26937 1.00577 0.0
C715 C 0.2525 0.37212 0.98612 0.0
N716 N 0.20059 0.2721 0.07795 0.0
N717 N 0.28696 0.36548 0.91366 0.0
H718 H 0.26746 0.44891 1.007 0.0
H719 H 0.29681 0.44927 0.95561 0.0
H720 H 0.29568 0.34406 0.89004 0.0
H721 H 0.28344 0.3971 0.90032 0.0
H722 H 0.20122 0.23796 0.08886 0.0
H723 H 0.19578 0.29345 0.10411 0.0
H724 H 0.19268 0.18987 1.03176 0.0
H725 H 0.2336 0.19793 0.98459 0.0
C726 C 0.66435 0.93066 0.09352 0.0
C727 C 0.6731 0.89617 0.06491 0.0
C728 C 0.73315 0.97259 1.0174 0.0
C729 C 0.71558 0.0038 0.04068 0.0
N730 N 0.69419 0.02328 0.11423 0.0
N731 N 0.7217 0.88415 1.0036 0.0
C732 C 0.69059 0.98645 0.08326 0.0
C733 C 0.71023 0.91733 1.02843 0.0
N734 N 0.6293 0.90985 0.12903 0.0
N735 N 0.77345 0.9973 0.98625 0.0
H736 H 0.7077 0.84418 1.01253 0.0
H737 H 0.7437 0.89549 0.97371 0.0
H738 H 0.79231 0.03888 0.98082 0.0
H739 H 0.7914 0.97852 0.96928 0.0
H740 H 0.61674 0.93223 0.14791 0.0
H741 H 0.60993 0.8691 0.13776 0.0
H742 H 0.67896 0.01316 0.14683 0.0
H743 H 0.7195 0.06461 0.10934 0.0
C744 C 0.0756 0.72696 0.07611 0.0
C745 C 0.08598 0.78029 0.07427 0.0
C746 C 0.99528 0.74679 0.04279 0.0
C747 C 0.99 0.69498 0.03615 0.0
N748 N 0.03498 0.64226 0.03766 0.0
N749 N 0.05719 0.84297 0.05442 0.0
C750 C 0.03279 0.68674 0.05045 0.0
C751 C 0.04586 0.79086 0.05793 0.0
N752 N 0.108 0.7152 0.10157 0.0
N753 N 0.95302 0.75454 0.03342 0.0
H754 H 0.09321 0.87558 0.06646 0.0
H755 H 0.03232 0.85399 0.03762 0.0
H756 H 0.91702 0.72477 1.0193 0.0
H757 H 0.95256 0.78948 0.04221 0.0
H758 H 0.13965 0.74453 0.12103 0.0
H759 H 0.09992 0.67593 0.10675 0.0
H760 H 0.06855 0.638 0.0435 0.0
H761 H 0.00505 0.61106 1.01888 0.0
C762 C 0.63832 0.69841 0.56425 0.0
C763 C 0.69082 0.70951 0.57675 0.0
C764 C 0.72868 0.80202 0.54826 0.0
C765 C 0.67779 0.78609 0.52802 0.0
N766 N 0.58886 0.7149 0.50719 0.0
N767 N 0.78483 0.77484 0.58861 0.0
C768 C 0.63405 0.73296 0.53325 0.0
C769 C 0.73596 0.7623 0.57069 0.0
N770 N 0.59249 0.65579 0.58188 0.0
N771 N 0.76868 0.85512 0.54808 0.0
H772 H 0.78827 0.7495 0.61172 0.0
H773 H 0.82122 0.80978 0.58104 0.0
H774 H 0.76463 0.88495 0.5318 0.0
H775 H 0.80483 0.87035 0.56588 0.0
H776 H 0.55388 0.6499 0.57606 0.0
H777 H 0.59266 0.62941 0.60561 0.0
H778 H 0.55587 0.67582 0.50907 0.0
H779 H 0.58741 0.73752 0.48038 0.0
C780 C 0.25121 0.93169 0.49751 0.0
C781 C 0.2242 0.88944 0.52916 0.0
C782 C 0.2454 0.95595 0.58915 0.0
C783 C 0.27983 0.99682 0.55894 0.0
N784 N 0.28429 0.02589 0.48226 0.0
N785 N 0.18809 0.86033 0.60419 0.0
C786 C 0.27321 0.98567 0.5122 0.0
C787 C 0.21869 0.90121 0.57482 0.0
N788 N 0.25878 0.92071 0.45419 0.0
N789 N 0.23433 0.97074 0.6296 0.0
H790 H 0.16324 0.82033 0.59408 0.0
H791 H 0.18806 0.8657 0.63884 0.0
H792 H 0.24655 0.01108 0.63578 0.0
H793 H 0.20785 0.94399 0.65354 0.0
H794 H 0.28317 0.95078 0.43131 0.0
H795 H 0.24504 0.88166 0.44234 0.0
H796 H 0.27665 0.01902 0.44788 0.0
H797 H 0.29347 0.06435 0.49273 0.0
C798 C 0.04652 0.37196 0.51398 0.0
C799 C 0.00097 0.3197 0.51772 0.0
C800 C 0.059 0.28134 0.50302 0.0
C801 C 0.10563 0.33307 0.51044 0.0
N802 N 0.14175 0.42803 0.52862 0.0
N803 N 0.96244 0.2233 0.51615 0.0
C804 C 0.09913 0.37887 0.51644 0.0
C805 C 0.00658 0.27385 0.51158 0.0
N806 N 0.03916 0.41516 0.50973 0.0
N807 N 0.06466 0.23985 0.48679 0.0
H808 H 0.92327 0.21665 0.52052 0.0
H809 H 0.9652 0.18851 0.51778 0.0
H810 H 0.10223 0.24466 0.47792 0.0
H811 H 0.03182 0.20258 0.47746 0.0
H812 H 0.07071 0.45406 0.50271 0.0
H813 H 0.00052 0.41045 0.50832 0.0
H814 H 0.13725 0.46054 0.53819 0.0
H815 H 0.18064 0.43529 0.53408 0.0
C816 C 0.75964 0.72701 0.07478 0.0
C817 C 0.71916 0.72574 0.04709 0.0
C818 C 0.74412 0.68551 0.98594 0.0
C819 C 0.77659 0.67684 1.01671 0.0
N820 N 0.82114 0.69401 0.08906 0.0
N821 N 0.7009 0.73712 0.96973 0.0
C822 C 0.78684 0.69973 0.06064 0.0
C823 C 0.7196 0.71521 1.0004 0.0
N824 N 0.77439 0.75804 0.1127 0.0
N825 N 0.73419 0.66294 0.9439 0.0
H826 H 0.68983 0.76532 0.97858 0.0
H827 H 0.70406 0.73377 0.93508 0.0
H828 H 0.75191 0.64123 0.93185 0.0
H829 H 0.70527 0.66242 0.92228 0.0
H830 H 0.80606 0.76415 0.13376 0.0
H831 H 0.7586 0.78317 0.11939 0.0
H832 H 0.825 0.70398 0.1231 0.0
H833 H 0.8445 0.67728 0.07899 0.0
C834 C 0.36566 0.10201 1.01634 0.0
C835 C 0.32505 0.11605 1.01523 0.0
C836 C 0.26088 0.0297 0.05036 0.0
C837 C 0.30384 0.019 0.05652 0.0
N838 N 0.40068 0.05277 0.05439 0.0
N839 N 0.23596 0.09761 0.03729 0.0
C840 C 0.35734 0.05763 0.04251 0.0
C841 C 0.27288 0.08091 0.03354 0.0
N842 N 0.41135 0.12966 0.99061 0.0
N843 N 0.20892 0.99157 0.06137 0.0
H844 H 0.24381 0.13514 1.02602 0.0
H845 H 0.19952 0.07631 0.05482 0.0
H846 H 0.1992 0.95561 0.07742 0.0
H847 H 0.17522 0.99445 0.0525 0.0
H848 H 0.44025 0.1179 0.98708 0.0
H849 H 0.41689 0.1603 0.96861 0.0
H850 H 0.44079 0.08352 0.0498 0.0
H851 H 0.39667 0.01915 0.07062 0.0
C852 C 0.96917 0.2535 1.01369 0.0
C853 C 0.97873 0.26476 0.06018 0.0
C854 C 0.88091 0.21523 0.07421 0.0
C855 C 0.87247 0.21595 1.02707 0.0
N856 N 0.90908 0.23993 0.95188 0.0
N857 N 0.94561 0.23151 0.13378 0.0
C858 C 0.91672 0.23571 0.9967 0.0
C859 C 0.93489 0.23851 0.09052 0.0
N860 N 0.00928 0.25676 0.98646 0.0
N861 N 0.8377 0.19188 0.10309 0.0
H862 H 0.98445 0.24029 0.1427 0.0
H863 H 0.91646 0.21129 0.15851 0.0
H864 H 0.79757 0.16953 0.09241 0.0
H865 H 0.84122 0.19559 0.13792 0.0
H866 H 0.00322 0.24545 0.95265 0.0
H867 H 0.04612 0.26345 0.99941 0.0
H868 H 0.941 0.25838 0.92898 0.0
H869 H 0.87143 0.23003 0.9385 0.0
C870 C 0.36901 0.2485 0.48213 0.0
C871 C 0.34571 0.21995 0.52274 0.0
C872 C 0.26624 0.23001 0.50924 0.0
C873 C 0.29268 0.26132 0.47063 0.0
N874 N 0.34905 0.26469 0.40831 0.0
N875 N 0.26027 0.16267 0.56147 0.0
C876 C 0.33655 0.25781 0.45277 0.0
C877 C 0.29066 0.20448 0.53284 0.0
N878 N 0.4225 0.26931 0.47173 0.0
N879 N 0.21726 0.22298 0.52221 0.0
H880 H 0.27349 0.13771 0.5745 0.0
H881 H 0.21918 0.14785 0.56742 0.0
H882 H 0.19416 0.23231 0.50097 0.0
H883 H 0.19989 0.2077 0.55354 0.0
H884 H 0.43894 0.28951 0.44147 0.0
H885 H 0.45125 0.27305 0.4952 0.0
H886 H 0.32415 0.26791 0.38444 0.0
H887 H 0.32415 0.26791 0.38444 0.0
C888 C 0.73501 0.11462 0.48084 0.0
C889 C 0.76798 0.12527 0.51965 0.0
C890 C 0.76016 0.03647 0.5112 0.0
C891 C 0.72236 0.02464 0.4759 0.0
N892 N 0.70644 0.06483 0.41122 0.0
N893 N 0.82948 0.10513 0.55932 0.0
C894 C 0.7209 0.068 0.45519 0.0
C895 C 0.78601 0.08879 0.5313 0.0
N896 N 0.71325 0.14592 0.47004 0.0
N897 N 0.77199 -0.00181 0.52458 0.0
H898 H 0.85211 0.1445 0.57154 0.0
H899 H 0.84684 0.08176 0.56673 0.0
H900 H 0.7611 0.96381 0.50518 0.0
H901 H 0.79263 0.0007 0.55414 0.0
H902 H 0.68589 0.13645 0.44363 0.0
H903 H 0.71551 0.17599 0.49101 0.0
H904 H 0.70786 0.09705 0.39391 0.0
H905 H 0.70099 0.03284 0.39102 0.0
C906 C 0.99218 0.74158 0.51687 0.0
C907 C 0.00763 0.70516 0.53357 0.0
C908 C 0.92503 0.66116 0.57881 0.0
C909 C 0.90529 0.69082 0.55564 0.0
N910 N 0.91695 0.75204 0.4949 0.0
N911 N 0.98271 0.62249 0.57321 0.0
C912 C 0.93814 0.72973 0.52296 0.0
C913 C 0.97272 0.663 0.563 0.0
N914 N 0.02879 0.78711 0.49466 0.0
N915 N 0.8982 0.63119 0.6157 0.0
H916 H 0.01524 0.62046 0.55956 0.0
H917 H 0.95549 0.58809 0.59106 0.0
H918 H 0.8639 0.63039 0.62896 0.0
H919 H 0.91335 0.61203 0.63566 0.0
H920 H 0.02091 0.81749 0.48547 0.0
H921 H 0.06867 0.79679 0.48952 0.0
H922 H 0.93818 0.77599 0.46745 0.0
H923 H 0.87654 0.74223 0.49553 0.0
C924 C 0.28157 0.46991 0.26019 0.0
C925 C 0.27876 0.49166 0.30259 0.0
C926 C 0.22346 0.52489 0.26584 0.0
C927 C 0.22944 0.50537 0.22347 0.0
N928 N 0.28641 0.48179 0.17972 0.0
N929 N 0.2606 0.55532 0.34081 0.0
C930 C 0.26672 0.48647 0.22033 0.0
C931 C 0.25414 0.52432 0.30376 0.0
N932 N 0.29096 0.42803 0.25777 0.0
N933 N 0.18824 0.5436 0.27011 0.0
H934 H 0.28491 0.5578 0.36793 0.0
H935 H 0.24705 0.58287 0.34231 0.0
H936 H 0.16793 0.5476 0.24259 0.0
H937 H 0.17746 0.55248 0.30114 0.0
H938 H 0.29171 0.40983 0.22758 0.0
H939 H 0.28937 0.40632 0.28602 0.0
H940 H 0.31621 0.47108 0.17702 0.0
H941 H 0.2778 0.49416 0.14958 0.0
C942 C 0.49483 0.68023 0.29026 0.0
C943 C 0.4928 0.70538 0.24978 0.0
C944 C 0.47426 0.76582 0.29668 0.0
C945 C 0.48876 0.74919 0.33677 0.0
N946 N 0.52228 0.69292 0.36803 0.0
N947 N 0.49154 0.78238 0.21721 0.0
C948 C 0.50119 0.70669 0.33275 0.0
C949 C 0.48512 0.75078 0.25362 0.0
N950 N 0.4895 0.6302 0.28854 0.0
N951 N 0.44865 0.79503 0.29933 0.0
H952 H 0.50309 0.77649 0.18548 0.0
H953 H 0.49167 0.81869 0.21996 0.0
H954 H 0.43628 0.80343 0.32986 0.0
H955 H 0.43362 0.80454 0.27108 0.0
H956 H 0.48561 0.60781 0.31729 0.0
H957 H 0.48224 0.60848 0.2586 0.0
H958 H 0.53751 0.66688 0.36442 0.0
H959 H 0.53014 0.71075 0.39962 0.0
C960 C 0.21538 0.72615 0.24575 0.0
C961 C 0.26783 0.77386 0.24368 0.0
C962 C 0.27268 0.77093 0.32653 0.0
C963 C 0.22295 0.72018 0.32788 0.0
N964 N 0.15588 0.64348 0.28584 0.0
N965 N 0.35146 0.83286 0.28255 0.0
C966 C 0.19738 0.69591 0.28651 0.0
C967 C 0.29804 0.79339 0.28421 0.0
N968 N 0.18042 0.71129 0.21019 0.0
N969 N 0.29438 0.80002 0.36506 0.0
H970 H 0.37218 0.84864 0.2524 0.0
H971 H 0.37666 0.84544 0.31068 0.0
H972 H 0.27676 0.78752 0.39658 0.0
H973 H 0.32685 0.83961 0.36508 0.0
H974 H 0.14011 0.68019 0.21207 0.0
H975 H 0.18875 0.73364 0.18083 0.0
H976 H 0.13908 0.6222 0.25608 0.0
H977 H 0.14262 0.61951 0.31462 0.0
C978 C 0.72553 0.49923 0.83012 0.0
C979 C 0.76898 0.48815 0.83225 0.0
C980 C 0.76157 0.47383 0.74973 0.0
C981 C 0.72066 0.48842 0.74758 0.0
N982 N 0.64865 0.49037 0.78834 0.0
N983 N 0.8182 0.45125 0.79546 0.0
C984 C 0.69769 0.49303 0.78858 0.0
C985 C 0.7838 0.47115 0.79235 0.0
N986 N 0.7127 0.51916 0.86699 0.0
N987 N 0.77947 0.46312 0.71049 0.0
H988 H 0.83436 0.44832 0.82604 0.0
H989 H 0.82745 0.43373 0.76876 0.0
H990 H 0.76016 0.45939 0.67978 0.0
H991 H 0.81339 0.45875 0.708 0.0
H992 H 0.68659 0.53454 0.86578 0.0
H993 H 0.73191 0.52542 0.89788 0.0
H994 H 0.62772 0.48903 0.81754 0.0
H995 H 0.62541 0.4819 0.75939 0.0
C996 C 0.52878 0.30735 0.78708 0.0
C997 C 0.51736 0.27833 0.8282 0.0
C998 C 0.51816 0.2046 0.78484 0.0
C999 C 0.51691 0.22836 0.7433 0.0
N1000 N 0.51354 0.30251 0.70697 0.0
N1001 N 0.49296 0.19228 0.86326 0.0
C1002 C 0.52074 0.28005 0.74486 0.0
C1003 C 0.51044 0.22525 0.82648 0.0
N1004 N 0.5486 0.36174 0.7881 0.0
N1005 N 0.52771 0.16252 0.78479 0.0
H1006 H 0.48458 0.20288 0.8944 0.0
H1007 H 0.48135 0.15155 0.86153 0.0
H1008 H 0.53581 0.1479 0.75534 0.0
H1009 H 0.53412 0.1468 0.81416 0.0
H1010 H 0.56183 0.38563 0.75932 0.0
H1011 H 0.55805 0.38372 0.81806 0.0
H1012 H 0.50904 0.33636 0.70799 0.0
H1013 H 0.50679 0.28542 0.67509 0.0
C1014 C 0.75966 0.17517 0.78955 0.0
C1015 C 0.71809 0.18139 0.81011 0.0
C1016 C 0.74705 0.26143 0.76052 0.0
C1017 C 0.793 0.25846 0.7452 0.0
N1018 N 0.85016 0.22053 0.76047 0.0
N1019 N 0.67205 0.23222 0.81371 0.0
C1020 C 0.80147 0.21803 0.76439 0.0
C1021 C 0.71193 0.22529 0.79509 0.0
N1022 N 0.75917 0.12765 0.79202 0.0
N1023 N 0.73719 0.29925 0.74225 0.0
H1024 H 0.64221 0.20356 0.83482 0.0
H1025 H 0.66903 0.26654 0.80913 0.0
H1026 H 0.76483 0.32978 0.72108 0.0
H1027 H 0.70132 0.29972 0.74702 0.0
H1028 H 0.78524 0.11961 0.77325 0.0
H1029 H 0.72931 0.09447 0.80852 0.0
H1030 H 0.85949 0.19462 0.77761 0.0
H1031 H 0.88326 0.25214 0.7451 0.0
C1032 C 0.00113 0.50461 0.0844 0.0
C1033 C -0.00145 0.45656 0.07024 0.0
C1034 C 0.9256 0.44033 1.01645 0.0
C1035 C 0.92785 0.48868 1.03068 0.0
N1036 N 0.95683 0.55603 0.09065 0.0
N1037 N 0.94364 0.36909 0.03619 0.0
C1038 C 0.96143 0.51675 0.06891 0.0
C1039 C 0.95653 0.42163 0.03999 0.0
N1040 N 0.04365 0.54114 0.11015 0.0
N1041 N 0.89289 0.41117 0.98141 0.0
H1042 H 0.96254 0.35343 0.05579 0.0
H1043 H 0.91046 0.34 1.01806 0.0
H1044 H 0.86539 0.42004 0.9664 0.0
H1045 H 0.89479 0.37942 0.96611 0.0
H1046 H 0.05058 0.57966 0.11738 0.0
H1047 H 0.07473 0.53511 0.12124 0.0
H1048 H 0.97226 0.5697 0.12285 0.0
H1049 H 0.93959 0.57623 0.07604 0.0
C1050 C 0.4594 0.52138 0.04446 0.0
C1051 C 0.51507 0.55524 0.0549 0.0
C1052 C 0.53668 0.49584 1.00889 0.0
C1053 C 0.48103 0.46205 0.99815 0.0
N1054 N 0.38874 0.44101 1.00784 0.0
N1055 N 0.60796 0.58111 0.03853 0.0
C1056 C 0.44247 0.47492 1.01631 0.0
C1057 C 0.55398 0.54406 0.03482 0.0
N1058 N 0.42286 0.53537 0.05969 0.0
N1059 N 0.57289 0.48024 0.99664 0.0
H1060 H 0.6224 0.61595 0.05777 0.0
H1061 H 0.6381 0.57944 1.02002 0.0
H1062 H 0.56221 0.44635 0.97668 0.0
H1063 H 0.61249 0.49862 1.00872 0.0
H1064 H 0.38284 0.51746 0.04879 0.0
H1065 H 0.43331 0.56713 0.08223 0.0
H1066 H 0.35777 0.44054 1.02666 0.0
H1067 H 0.37542 0.41136 0.98305 0.0
C1068 C 0.43643 0.97656 1.00546 0.0
C1069 C 0.43117 0.94496 0.04519 0.0
C1070 C 0.52824 0.97564 0.03759 0.0
C1071 C 0.53458 0.01124 1.00145 0.0
N1072 N 0.4925 0.04352 0.95022 0.0
N1073 N 0.47377 0.90979 0.09358 0.0
C1074 C 0.48797 0.01043 0.98503 0.0
C1075 C 0.47769 0.94384 0.05981 0.0
N1076 N 0.39387 0.97776 0.98609 0.0
N1077 N 0.56959 0.96851 0.05038 0.0
H1078 H 0.43707 0.88128 0.10803 0.0
H1079 H 0.50729 0.90852 0.10594 0.0
H1080 H 0.60657 0.98605 0.03376 0.0
H1081 H 0.60657 0.98605 0.03376 0.0
H1082 H 0.35408 0.95834 0.99766 0.0
H1083 H 0.35408 0.95834 0.99766 0.0
H1084 H 0.45946 0.04514 0.93718 0.0
H1085 H 0.52933 0.0699 0.93469 0.0
C1086 C 0.55154 0.01619 0.52959 0.0
C1087 C 0.51302 0.96488 0.51112 0.0
C1088 C 0.44069 0.97218 0.55017 0.0
C1089 C 0.48006 0.02137 0.57131 0.0
N1090 N 0.57334 0.08485 0.58712 0.0
N1091 N 0.42145 0.88975 0.511 0.0
C1092 C 0.53566 0.04132 0.56305 0.0
C1093 C 0.45764 0.94167 0.52337 0.0
N1094 N 0.60349 0.04188 0.51383 0.0
N1095 N 0.38686 0.95546 0.55442 0.0
H1096 H 0.43217 0.86693 0.49061 0.0
H1097 H 0.38193 0.86829 0.52337 0.0
H1098 H 0.37289 0.97515 0.57521 0.0
H1099 H 0.35658 0.92414 0.53548 0.0
H1100 H 0.63259 0.08083 0.52332 0.0
H1101 H 0.61571 0.02605 0.4878 0.0
H1102 H 0.6148 0.09876 0.58623 0.0
H1103 H 0.56236 0.10384 0.61155 0.0
C1104 C 0.00885 0.49998 0.58845 0.0
C1105 C 0.95836 0.46641 0.56702 0.0
C1106 C -0.00095 0.51371 0.49542 0.0
C1107 C 0.04958 0.54752 0.51659 0.0
N1108 N 0.10612 0.55392 0.57866 0.0
N1109 N 0.90202 0.46255 0.50503 0.0
C1110 C 0.05536 0.53557 0.56209 0.0
C1111 C 0.95249 0.47983 0.52197 0.0
N1112 N 0.01182 0.50111 0.63424 0.0
N1113 N 0.99609 0.50926 0.44969 0.0
H1114 H 0.86728 0.44221 0.52475 0.0
H1115 H 0.89564 0.47479 0.47377 0.0
H1116 H 0.03054 0.5266 0.42933 0.0
H1117 H 0.96067 0.48199 0.43283 0.0
H1118 H 0.04669 0.52824 0.65182 0.0
H1119 H 0.97744 0.48016 0.6544 0.0
H1120 H 0.11362 0.54393 0.61044 0.0
H1121 H 0.13975 0.57161 0.55741 0.0
C1122 C 0.46308 0.42979 0.52121 0.0
C1123 C 0.45371 0.46566 0.4944 0.0
C1124 C 0.54635 0.53822 0.51234 0.0
C1125 C 0.55421 0.50397 0.54282 0.0
N1126 N 0.5167 0.41676 0.57794 0.0
N1127 N 0.48414 0.55669 0.4712 0.0
C1128 C 0.51124 0.44982 0.54809 0.0
C1129 C 0.49501 0.52038 0.49136 0.0
N1130 N 0.42731 0.37558 0.51875 0.0
N1131 N 0.58783 0.589 0.5039 0.0
H1132 H 0.44629 0.54667 0.45839 0.0
H1133 H 0.51105 0.59803 0.47028 0.0
H1134 H 0.62148 0.60803 0.52446 0.0
H1135 H 0.58912 0.61176 0.47622 0.0
H1136 H 0.43289 0.34657 0.53465 0.0
H1137 H 0.39448 0.35898 0.49686 0.0
H1138 H 0.48449 0.37983 0.58852 0.0
H1139 H 0.55296 0.42721 0.5942 0.0
loop_
_geom_bond_atom_site_label_1
_geom_bond_atom_site_label_2
_geom_bond_distance
_geom_bond_site_symmetry_2
_ccdc_geom_bond_type
Co0 O2 2.143 . S
Co0 O8 2.074 . S
Co0 O11 2.093 1_554 S
Co0 O24 2.098 . S
Co0 N41 2.151 . S
Co0 N49 2.214 1_554 S
Co1 O2 2.160 . S
Co1 O7 2.058 . S
Co1 O17 2.057 . S
Co1 O32 2.037 . S
Co1 N36 2.145 . S
Co1 N57 2.257 . S
O2 Co0 2.143 . S
O2 Co1 2.160 . S
C3 O4 1.278 . S
C3 O11 1.224 1_554 S
O4 C3 1.278 . S
C5 O6 1.245 . S
C5 O17 1.232 . S
O6 C5 1.245 . S
O7 Co1 2.058 . S
O7 C33 1.269 . S
O8 Co0 2.074 . S
O8 C33 1.257 . S
H9 C34 0.930 . S
H10 C40 0.930 . S
O11 Co0 2.093 1_556 S
O11 C3 1.224 1_556 S
H12 C44 0.929 . S
H13 C46 0.930 . S
H14 C47 0.930 . S
H15 C45 0.929 . S
H16 C48 0.928 . S
O17 Co1 2.057 . S
O17 C5 1.232 . S
H18 C37 0.929 . S
H19 C38 0.929 . S
H20 C50 0.931 . S
H21 C42 0.929 . S
H22 C51 0.930 . S
H23 C43 0.931 . S
O24 Co0 2.098 . S
O24 C52 1.218 . S
H25 C53 0.929 . S
H26 C54 0.929 1_655 S
H27 C55 0.930 1_655 S
H28 C56 0.929 . S
H29 C58 0.930 . S
H30 C35 0.930 . S
H31 C39 0.930 . S
O32 Co1 2.037 . S
O32 C52 1.234 . S
C33 O7 1.269 . S
C33 O8 1.257 . S
C34 H9 0.930 . S
C34 C37 1.388 . S
C34 C39 1.418 . S
C35 H30 0.930 . S
C35 C38 1.404 1_655 S
C35 C39 1.353 . S
N36 Co1 2.145 . S
N36 C37 1.397 1_455 S
N36 C38 1.334 . S
C37 H18 0.929 . S
C37 C34 1.388 . S
C37 N36 1.397 1_655 S
C38 H19 0.929 . S
C38 C35 1.404 1_455 S
C38 N36 1.334 . S
C39 H31 0.930 . S
C39 C34 1.418 . S
C39 C35 1.353 . S
C40 H10 0.930 . S
C40 N41 1.330 . S
C40 C42 1.446 . S
N41 Co0 2.151 . S
N41 C40 1.330 . S
N41 C45 1.418 1_554 S
C42 H21 0.929 . S
C42 C40 1.446 . S
C42 C43 1.332 1_554 S
C43 H23 0.931 . S
C43 C42 1.332 1_556 S
C43 C44 1.267 . S
C44 H12 0.929 . S
C44 C43 1.267 . S
C44 C45 1.251 . S
C45 H15 0.929 . S
C45 N41 1.418 1_556 S
C45 C44 1.251 . S
C46 H13 0.930 . S
C46 C48 1.406 . S
C46 C51 1.261 . S
C47 H14 0.930 . S
C47 N49 1.325 . S
C47 C50 1.357 . S
C48 H16 0.928 . S
C48 C46 1.406 . S
C48 N49 1.261 . S
N49 Co0 2.214 1_556 S
N49 C47 1.325 . S
N49 C48 1.261 . S
C50 H20 0.931 . S
C50 C47 1.357 . S
C50 C51 1.312 . S
C51 H22 0.930 . S
C51 C46 1.261 . S
C51 C50 1.312 . S
C52 O24 1.218 . S
C52 O32 1.234 . S
C53 H25 0.929 . S
C53 C56 1.391 . S
C53 C58 1.391 . S
C54 H26 0.929 1_455 S
C54 C55 1.390 . S
C54 N57 1.391 . S
C55 H27 0.930 1_455 S
C55 C54 1.390 . S
C55 C56 1.392 . S
C56 H28 0.929 . S
C56 C53 1.391 . S
C56 C55 1.392 . S
N57 Co1 2.257 . S
N57 C54 1.391 . S
N57 C58 1.388 . S
C58 H29 0.930 . S
C58 C53 1.391 . S
C58 N57 1.388 . S
Co59 O61 2.143 . S
Co59 O67 2.074 . S
Co59 O70 2.093 1_554 S
Co59 O83 2.098 . S
Co59 N100 2.151 . S
Co59 N108 2.214 1_554 S
Co60 O61 2.160 . S
Co60 O66 2.058 . S
Co60 O76 2.057 . S
Co60 O91 2.037 . S
Co60 N95 2.145 . S
Co60 N116 2.257 . S
O61 Co59 2.143 . S
O61 Co60 2.160 . S
C62 O63 1.278 . S
C62 O70 1.224 1_554 S
O63 C62 1.278 . S
C64 O65 1.245 . S
C64 O76 1.232 . S
O65 C64 1.245 . S
O66 Co60 2.058 . S
O66 C92 1.269 . S
O67 Co59 2.074 . S
O67 C92 1.257 . S
H68 C93 0.930 . S
H69 C99 0.930 . S
O70 Co59 2.093 1_556 S
O70 C62 1.224 1_556 S
H71 C103 0.929 . S
H72 C105 0.930 . S
H73 C106 0.930 . S
H74 C104 0.929 . S
H75 C107 0.928 . S
O76 Co60 2.057 . S
O76 C64 1.232 . S
H77 C96 0.929 . S
H78 C97 0.929 . S
H79 C109 0.931 . S
H80 C101 0.929 . S
H81 C110 0.930 . S
H82 C102 0.931 . S
O83 Co59 2.098 . S
O83 C111 1.218 . S
H84 C112 0.929 . S
H85 C113 0.929 . S
H86 C114 0.930 . S
H87 C115 0.929 . S
H88 C117 0.930 . S
H89 C94 0.930 . S
H90 C98 0.930 . S
O91 Co60 2.037 . S
O91 C111 1.234 . S
C92 O66 1.269 . S
C92 O67 1.257 . S
C93 H68 0.930 . S
C93 C96 1.388 . S
C93 C98 1.418 . S
C94 H89 0.930 . S
C94 C97 1.404 . S
C94 C98 1.353 . S
N95 Co60 2.145 . S
N95 C96 1.397 . S
N95 C97 1.334 . S
C96 H77 0.929 . S
C96 C93 1.388 . S
C96 N95 1.397 . S
C97 H78 0.929 . S
C97 C94 1.404 . S
C97 N95 1.334 . S
C98 H90 0.930 . S
C98 C93 1.418 . S
C98 C94 1.353 . S
C99 H69 0.930 . S
C99 N100 1.330 . S
C99 C101 1.446 . S
N100 Co59 2.151 . S
N100 C99 1.330 . S
N100 C104 1.418 1_554 S
C101 H80 0.929 . S
C101 C99 1.446 . S
C101 C102 1.332 1_554 S
C102 H82 0.931 . S
C102 C101 1.332 1_556 S
C102 C103 1.267 . S
C103 H71 0.929 . S
C103 C102 1.267 . S
C103 C104 1.251 . S
C104 H74 0.929 . S
C104 N100 1.418 1_556 S
C104 C103 1.251 . S
C105 H72 0.930 . S
C105 C107 1.406 . S
C105 C110 1.261 . S
C106 H73 0.930 . S
C106 N108 1.325 . S
C106 C109 1.357 . S
C107 H75 0.928 . S
C107 C105 1.406 . S
C107 N108 1.261 . S
N108 Co59 2.214 1_556 S
N108 C106 1.325 . S
N108 C107 1.261 . S
C109 H79 0.931 . S
C109 C106 1.357 . S
C109 C110 1.312 . S
C110 H81 0.930 . S
C110 C105 1.261 . S
C110 C109 1.312 . S
C111 O83 1.218 . S
C111 O91 1.234 . S
C112 H84 0.929 . S
C112 C115 1.391 . S
C112 C117 1.391 . S
C113 H85 0.929 . S
C113 C114 1.390 . S
C113 N116 1.391 . S
C114 H86 0.930 . S
C114 C113 1.390 . S
C114 C115 1.392 . S
C115 H87 0.929 . S
C115 C112 1.391 . S
C115 C114 1.392 . S
N116 Co60 2.257 . S
N116 C113 1.391 . S
N116 C117 1.388 . S
C117 H88 0.930 . S
C117 C112 1.391 . S
C117 N116 1.388 . S
Co118 O120 2.143 . S
Co118 O126 2.074 . S
Co118 O129 2.093 1_554 S
Co118 O142 2.098 . S
Co118 N159 2.151 . S
Co118 N167 2.214 1_554 S
Co119 O120 2.160 . S
Co119 O125 2.058 . S
Co119 O135 2.057 . S
Co119 O150 2.037 . S
Co119 N154 2.145 . S
Co119 N175 2.257 . S
O120 Co118 2.143 . S
O120 Co119 2.160 . S
C121 O122 1.278 . S
C121 O129 1.224 1_554 S
O122 C121 1.278 . S
C123 O124 1.245 . S
C123 O135 1.232 . S
O124 C123 1.245 . S
O125 Co119 2.058 . S
O125 C151 1.269 . S
O126 Co118 2.074 . S
O126 C151 1.257 . S
H127 C152 0.930 . S
H128 C158 0.930 . S
O129 Co118 2.093 1_556 S
O129 C121 1.224 1_556 S
H130 C162 0.929 . S
H131 C164 0.930 . S
H132 C165 0.930 . S
H133 C163 0.929 . S
H134 C166 0.928 . S
O135 Co119 2.057 . S
O135 C123 1.232 . S
H136 C155 0.929 . S
H137 C156 0.929 . S
H138 C168 0.931 . S
H139 C160 0.929 . S
H140 C169 0.930 . S
H141 C161 0.931 . S
O142 Co118 2.098 . S
O142 C170 1.218 . S
H143 C171 0.929 . S
H144 C172 0.929 1_545 S
H145 C173 0.930 1_545 S
H146 C174 0.929 . S
H147 C176 0.930 . S
H148 C153 0.930 . S
H149 C157 0.930 . S
O150 Co119 2.037 . S
O150 C170 1.234 . S
C151 O125 1.269 . S
C151 O126 1.257 . S
C152 H127 0.930 . S
C152 C155 1.388 . S
C152 C157 1.418 . S
C153 H148 0.930 . S
C153 C156 1.404 1_545 S
C153 C157 1.353 . S
N154 Co119 2.145 . S
N154 C155 1.397 1_565 S
N154 C156 1.334 . S
C155 H136 0.929 . S
C155 C152 1.388 . S
C155 N154 1.397 1_545 S
C156 H137 0.929 . S
C156 C153 1.404 1_565 S
C156 N154 1.334 . S
C157 H149 0.930 . S
C157 C152 1.418 . S
C157 C153 1.353 . S
C158 H128 0.930 . S
C158 N159 1.330 . S
C158 C160 1.446 . S
N159 Co118 2.151 . S
N159 C158 1.330 . S
N159 C163 1.418 1_554 S
C160 H139 0.929 . S
C160 C158 1.446 . S
C160 C161 1.332 1_554 S
C161 H141 0.931 . S
C161 C160 1.332 1_556 S
C161 C162 1.267 . S
C162 H130 0.929 . S
C162 C161 1.267 . S
C162 C163 1.251 . S
C163 H133 0.929 . S
C163 N159 1.418 1_556 S
C163 C162 1.251 . S
C164 H131 0.930 . S
C164 C166 1.406 . S
C164 C169 1.261 . S
C165 H132 0.930 . S
C165 N167 1.325 . S
C165 C168 1.357 . S
C166 H134 0.928 . S
C166 C164 1.406 . S
C166 N167 1.261 . S
N167 Co118 2.214 1_556 S
N167 C165 1.325 . S
N167 C166 1.261 . S
C168 H138 0.931 . S
C168 C165 1.357 . S
C168 C169 1.312 . S
C169 H140 0.930 . S
C169 C164 1.261 . S
C169 C168 1.312 . S
C170 O142 1.218 . S
C170 O150 1.234 . S
C171 H143 0.929 . S
C171 C174 1.391 . S
C171 C176 1.391 . S
C172 H144 0.929 1_565 S
C172 C173 1.390 . S
C172 N175 1.391 . S
C173 H145 0.930 1_565 S
C173 C172 1.390 . S
C173 C174 1.392 . S
C174 H146 0.929 . S
C174 C171 1.391 . S
C174 C173 1.392 . S
N175 Co119 2.257 . S
N175 C172 1.391 . S
N175 C176 1.388 . S
C176 H147 0.930 . S
C176 C171 1.391 . S
C176 N175 1.388 . S
Co177 O179 2.143 . S
Co177 O185 2.074 . S
Co177 O188 2.093 . S
Co177 O201 2.097 . S
Co177 N218 2.151 . S
Co177 N226 2.214 . S
Co178 O179 2.160 . S
Co178 O184 2.058 . S
Co178 O194 2.057 . S
Co178 O209 2.037 . S
Co178 N213 2.145 . S
Co178 N234 2.257 . S
O179 Co177 2.143 . S
O179 Co178 2.160 . S
C180 O181 1.278 . S
C180 O188 1.224 . S
O181 C180 1.278 . S
C182 O183 1.245 . S
C182 O194 1.232 . S
O183 C182 1.245 . S
O184 Co178 2.058 . S
O184 C210 1.269 . S
O185 Co177 2.074 . S
O185 C210 1.257 . S
H186 C211 0.930 . S
H187 C217 0.930 . S
O188 Co177 2.093 . S
O188 C180 1.224 . S
H189 C221 0.929 . S
H190 C223 0.930 . S
H191 C224 0.930 . S
H192 C222 0.929 . S
H193 C225 0.928 . S
O194 Co178 2.057 . S
O194 C182 1.232 . S
H195 C214 0.929 . S
H196 C215 0.929 . S
H197 C227 0.931 . S
H198 C219 0.929 . S
H199 C228 0.930 . S
H200 C220 0.931 . S
O201 Co177 2.097 . S
O201 C229 1.214 . S
H202 C230 0.929 . S
H203 C231 0.929 1_545 S
H204 C232 0.930 1_545 S
H205 C233 0.929 . S
H206 C235 0.930 . S
H207 C212 0.930 . S
H208 C216 0.930 . S
O209 Co178 2.037 . S
O209 C229 1.234 . S
C210 O184 1.269 . S
C210 O185 1.257 . S
C211 H186 0.930 . S
C211 C214 1.388 . S
C211 C216 1.418 . S
C212 H207 0.930 . S
C212 C215 1.404 1_545 S
C212 C216 1.353 . S
N213 Co178 2.145 . S
N213 C214 1.397 1_565 S
N213 C215 1.334 . S
C214 H195 0.929 . S
C214 C211 1.388 . S
C214 N213 1.397 1_545 S
C215 H196 0.929 . S
C215 C212 1.404 1_565 S
C215 N213 1.334 . S
C216 H208 0.930 . S
C216 C211 1.418 . S
C216 C212 1.353 . S
C217 H187 0.930 . S
C217 N218 1.330 . S
C217 C219 1.446 . S
N218 Co177 2.151 . S
N218 C217 1.330 . S
N218 C222 1.418 . S
C219 H198 0.929 . S
C219 C217 1.446 . S
C219 C220 1.332 . S
C220 H200 0.931 . S
C220 C219 1.332 . S
C220 C221 1.267 . S
C221 H189 0.929 . S
C221 C220 1.267 . S
C221 C222 1.251 . S
C222 H192 0.929 . S
C222 N218 1.418 . S
C222 C221 1.251 . S
C223 H190 0.930 . S
C223 C225 1.406 . S
C223 C228 1.261 . S
C224 H191 0.930 . S
C224 N226 1.325 . S
C224 C227 1.357 . S
C225 H193 0.928 . S
C225 C223 1.406 . S
C225 N226 1.261 . S
N226 Co177 2.214 . S
N226 C224 1.325 . S
N226 C225 1.261 . S
C227 H197 0.931 . S
C227 C224 1.357 . S
C227 C228 1.312 . S
C228 H199 0.930 . S
C228 C223 1.261 . S
C228 C227 1.312 . S
C229 O201 1.214 . S
C229 O209 1.234 . S
C230 H202 0.929 . S
C230 C233 1.391 . S
C230 C235 1.391 . S
C231 H203 0.929 1_565 S
C231 C232 1.390 . S
C231 N234 1.391 . S
C232 H204 0.930 1_565 S
C232 C231 1.390 . S
C232 C233 1.392 . S
C233 H205 0.929 . S
C233 C230 1.391 . S
C233 C232 1.392 . S
N234 Co178 2.257 . S
N234 C231 1.391 . S
N234 C235 1.388 . S
C235 H206 0.930 . S
C235 C230 1.391 . S
C235 N234 1.388 . S
Co236 O238 2.143 . S
Co236 O244 2.074 . S
Co236 O247 2.093 . S
Co236 O260 2.097 . S
Co236 N277 2.151 . S
Co236 N285 2.214 . S
Co237 O238 2.160 . S
Co237 O243 2.058 . S
Co237 O253 2.057 . S
Co237 O268 2.037 . S
Co237 N272 2.145 . S
Co237 N293 2.257 . S
O238 Co236 2.143 . S
O238 Co237 2.160 . S
C239 O240 1.278 . S
C239 O247 1.224 . S
O240 C239 1.278 . S
C241 O242 1.245 . S
C241 O253 1.232 . S
O242 C241 1.245 . S
O243 Co237 2.058 . S
O243 C269 1.269 . S
O244 Co236 2.074 . S
O244 C269 1.257 . S
H245 C270 0.930 . S
H246 C276 0.930 . S
O247 Co236 2.093 . S
O247 C239 1.224 . S
H248 C280 0.929 . S
H249 C282 0.930 . S
H250 C283 0.930 . S
H251 C281 0.929 . S
H252 C284 0.928 . S
O253 Co237 2.057 . S
O253 C241 1.232 . S
H254 C273 0.929 . S
H255 C274 0.929 . S
H256 C286 0.931 . S
H257 C278 0.929 . S
H258 C287 0.930 . S
H259 C279 0.931 . S
O260 Co236 2.097 . S
O260 C288 1.214 . S
H261 C289 0.929 . S
H262 C290 0.929 1_655 S
H263 C291 0.930 1_655 S
H264 C292 0.929 . S
H265 C294 0.930 . S
H266 C271 0.930 . S
H267 C275 0.930 . S
O268 Co237 2.037 . S
O268 C288 1.234 . S
C269 O243 1.269 . S
C269 O244 1.257 . S
C270 H245 0.930 . S
C270 C273 1.388 . S
C270 C275 1.418 . S
C271 H266 0.930 . S
C271 C274 1.404 1_655 S
C271 C275 1.353 . S
N272 Co237 2.145 . S
N272 C273 1.397 1_455 S
N272 C274 1.334 . S
C273 H254 0.929 . S
C273 C270 1.388 . S
C273 N272 1.397 1_655 S
C274 H255 0.929 . S
C274 C271 1.404 1_455 S
C274 N272 1.334 . S
C275 H267 0.930 . S
C275 C270 1.418 . S
C275 C271 1.353 . S
C276 H246 0.930 . S
C276 N277 1.330 . S
C276 C278 1.446 . S
N277 Co236 2.151 . S
N277 C276 1.330 . S
N277 C281 1.418 . S
C278 H257 0.929 . S
C278 C276 1.446 . S
C278 C279 1.332 . S
C279 H259 0.931 . S
C279 C278 1.332 . S
C279 C280 1.267 . S
C280 H248 0.929 . S
C280 C279 1.267 . S
C280 C281 1.251 . S
C281 H251 0.929 . S
C281 N277 1.418 . S
C281 C280 1.251 . S
C282 H249 0.930 . S
C282 C284 1.406 . S
C282 C287 1.261 . S
C283 H250 0.930 . S
C283 N285 1.325 . S
C283 C286 1.357 . S
C284 H252 0.928 . S
C284 C282 1.406 . S
C284 N285 1.261 . S
N285 Co236 2.214 . S
N285 C283 1.325 . S
N285 C284 1.261 . S
C286 H256 0.931 . S
C286 C283 1.357 . S
C286 C287 1.312 . S
C287 H258 0.930 . S
C287 C282 1.261 . S
C287 C286 1.312 . S
C288 O260 1.214 . S
C288 O268 1.234 . S
C289 H261 0.929 . S
C289 C292 1.391 . S
C289 C294 1.391 . S
C290 H262 0.929 1_455 S
C290 C291 1.390 . S
C290 N293 1.391 . S
C291 H263 0.930 1_455 S
C291 C290 1.390 . S
C291 C292 1.392 . S
C292 H264 0.929 . S
C292 C289 1.391 . S
C292 C291 1.392 . S
N293 Co237 2.257 . S
N293 C290 1.391 . S
N293 C294 1.388 . S
C294 H265 0.930 . S
C294 C289 1.391 . S
C294 N293 1.388 . S
Co295 O297 2.143 . S
Co295 O303 2.074 . S
Co295 O306 2.093 . S
Co295 O319 2.097 . S
Co295 N336 2.151 . S
Co295 N344 2.214 . S
Co296 O297 2.160 . S
Co296 O302 2.058 . S
Co296 O312 2.057 . S
Co296 O327 2.037 . S
Co296 N331 2.145 . S
Co296 N352 2.257 . S
O297 Co295 2.143 . S
O297 Co296 2.160 . S
C298 O299 1.278 . S
C298 O306 1.224 . S
O299 C298 1.278 . S
C300 O301 1.245 . S
C300 O312 1.232 . S
O301 C300 1.245 . S
O302 Co296 2.058 . S
O302 C328 1.269 . S
O303 Co295 2.074 . S
O303 C328 1.257 . S
H304 C329 0.930 . S
H305 C335 0.930 . S
O306 Co295 2.093 . S
O306 C298 1.224 . S
H307 C339 0.929 . S
H308 C341 0.930 . S
H309 C342 0.930 . S
H310 C340 0.929 . S
H311 C343 0.928 . S
O312 Co296 2.057 . S
O312 C300 1.232 . S
H313 C332 0.929 . S
H314 C333 0.929 . S
H315 C345 0.931 . S
H316 C337 0.929 . S
H317 C346 0.930 . S
H318 C338 0.931 . S
O319 Co295 2.097 . S
O319 C347 1.214 . S
H320 C348 0.929 . S
H321 C349 0.929 . S
H322 C350 0.930 . S
H323 C351 0.929 . S
H324 C353 0.930 . S
H325 C330 0.930 . S
H326 C334 0.930 . S
O327 Co296 2.037 . S
O327 C347 1.234 . S
C328 O302 1.269 . S
C328 O303 1.257 . S
C329 H304 0.930 . S
C329 C332 1.388 . S
C329 C334 1.418 . S
C330 H325 0.930 . S
C330 C333 1.404 . S
C330 C334 1.353 . S
N331 Co296 2.145 . S
N331 C332 1.397 . S
N331 C333 1.334 . S
C332 H313 0.929 . S
C332 C329 1.388 . S
C332 N331 1.397 . S
C333 H314 0.929 . S
C333 C330 1.404 . S
C333 N331 1.334 . S
C334 H326 0.930 . S
C334 C329 1.418 . S
C334 C330 1.353 . S
C335 H305 0.930 . S
C335 N336 1.330 . S
C335 C337 1.446 . S
N336 Co295 2.151 . S
N336 C335 1.330 . S
N336 C340 1.418 . S
C337 H316 0.929 . S
C337 C335 1.446 . S
C337 C338 1.332 . S
C338 H318 0.931 . S
C338 C337 1.332 . S
C338 C339 1.267 . S
C339 H307 0.929 . S
C339 C338 1.267 . S
C339 C340 1.251 . S
C340 H310 0.929 . S
C340 N336 1.418 . S
C340 C339 1.251 . S
C341 H308 0.930 . S
C341 C343 1.406 . S
C341 C346 1.261 . S
C342 H309 0.930 . S
C342 N344 1.325 . S
C342 C345 1.357 . S
C343 H311 0.928 . S
C343 C341 1.406 . S
C343 N344 1.261 . S
N344 Co295 2.214 . S
N344 C342 1.325 . S
N344 C343 1.261 . S
C345 H315 0.931 . S
C345 C342 1.357 . S
C345 C346 1.312 . S
C346 H317 0.930 . S
C346 C341 1.261 . S
C346 C345 1.312 . S
C347 O319 1.214 . S
C347 O327 1.234 . S
C348 H320 0.929 . S
C348 C351 1.391 . S
C348 C353 1.391 . S
C349 H321 0.929 . S
C349 C350 1.390 . S
C349 N352 1.391 . S
C350 H322 0.930 . S
C350 C349 1.390 . S
C350 C351 1.392 . S
C351 H323 0.929 . S
C351 C348 1.391 . S
C351 C350 1.392 . S
N352 Co296 2.257 . S
N352 C349 1.391 . S
N352 C353 1.388 . S
C353 H324 0.930 . S
C353 C348 1.391 . S
C353 N352 1.388 . S
Co354 O356 2.143 . S
Co354 O362 2.074 . S
Co354 O365 2.093 1_556 S
Co354 O378 2.098 . S
Co354 N395 2.151 . S
Co354 N403 2.214 1_556 S
Co355 O356 2.160 . S
Co355 O361 2.058 . S
Co355 O371 2.057 . S
Co355 O386 2.037 . S
Co355 N390 2.145 . S
Co355 N411 2.257 . S
O356 Co354 2.143 . S
O356 Co355 2.160 . S
C357 O358 1.278 . S
C357 O365 1.224 1_556 S
O358 C357 1.278 . S
C359 O360 1.245 . S
C359 O371 1.232 . S
O360 C359 1.245 . S
O361 Co355 2.058 . S
O361 C387 1.269 . S
O362 Co354 2.074 . S
O362 C387 1.257 . S
H363 C388 0.930 . S
H364 C394 0.930 . S
O365 Co354 2.093 1_554 S
O365 C357 1.224 1_554 S
H366 C398 0.929 . S
H367 C400 0.930 . S
H368 C401 0.930 . S
H369 C399 0.929 . S
H370 C402 0.928 . S
O371 Co355 2.057 . S
O371 C359 1.232 . S
H372 C391 0.929 . S
H373 C392 0.929 . S
H374 C404 0.931 . S
H375 C396 0.929 . S
H376 C405 0.930 . S
H377 C397 0.931 . S
O378 Co354 2.098 . S
O378 C406 1.218 . S
H379 C407 0.929 . S
H380 C408 0.929 1_455 S
H381 C409 0.930 1_455 S
H382 C410 0.929 . S
H383 C412 0.930 . S
H384 C389 0.930 . S
H385 C393 0.930 . S
O386 Co355 2.037 . S
O386 C406 1.234 . S
C387 O361 1.269 . S
C387 O362 1.257 . S
C388 H363 0.930 . S
C388 C391 1.388 . S
C388 C393 1.418 . S
C389 H384 0.930 . S
C389 C392 1.404 1_455 S
C389 C393 1.353 . S
N390 Co355 2.145 . S
N390 C391 1.397 1_655 S
N390 C392 1.334 . S
C391 H372 0.929 . S
C391 C388 1.388 . S
C391 N390 1.397 1_455 S
C392 H373 0.929 . S
C392 C389 1.404 1_655 S
C392 N390 1.334 . S
C393 H385 0.930 . S
C393 C388 1.418 . S
C393 C389 1.353 . S
C394 H364 0.930 . S
C394 N395 1.330 . S
C394 C396 1.446 . S
N395 Co354 2.151 . S
N395 C394 1.330 . S
N395 C399 1.418 1_556 S
C396 H375 0.929 . S
C396 C394 1.446 . S
C396 C397 1.332 1_556 S
C397 H377 0.931 . S
C397 C396 1.332 1_554 S
C397 C398 1.267 . S
C398 H366 0.929 . S
C398 C397 1.267 . S
C398 C399 1.251 . S
C399 H369 0.929 . S
C399 N395 1.418 1_554 S
C399 C398 1.251 . S
C400 H367 0.930 . S
C400 C402 1.406 . S
C400 C405 1.261 . S
C401 H368 0.930 . S
C401 N403 1.325 . S
C401 C404 1.357 . S
C402 H370 0.928 . S
C402 C400 1.406 . S
C402 N403 1.261 . S
N403 Co354 2.214 1_554 S
N403 C401 1.325 . S
N403 C402 1.261 . S
C404 H374 0.931 . S
C404 C401 1.357 . S
C404 C405 1.312 . S
C405 H376 0.930 . S
C405 C400 1.261 . S
C405 C404 1.312 . S
C406 O378 1.218 . S
C406 O386 1.234 . S
C407 H379 0.929 . S
C407 C410 1.391 . S
C407 C412 1.391 . S
C408 H380 0.929 1_655 S
C408 C409 1.390 . S
C408 N411 1.391 . S
C409 H381 0.930 1_655 S
C409 C408 1.390 . S
C409 C410 1.392 . S
C410 H382 0.929 . S
C410 C407 1.391 . S
C410 C409 1.392 . S
N411 Co355 2.257 . S
N411 C408 1.391 . S
N411 C412 1.388 . S
C412 H383 0.930 . S
C412 C407 1.391 . S
C412 N411 1.388 . S
Co413 O415 2.143 . S
Co413 O421 2.074 . S
Co413 O424 2.093 1_556 S
Co413 O437 2.098 . S
Co413 N454 2.151 . S
Co413 N462 2.214 1_556 S
Co414 O415 2.160 . S
Co414 O420 2.058 . S
Co414 O430 2.057 . S
Co414 O445 2.037 . S
Co414 N449 2.145 . S
Co414 N470 2.257 . S
O415 Co413 2.143 . S
O415 Co414 2.160 . S
C416 O417 1.278 . S
C416 O424 1.224 1_556 S
O417 C416 1.278 . S
C418 O419 1.245 . S
C418 O430 1.232 . S
O419 C418 1.245 . S
O420 Co414 2.058 . S
O420 C446 1.269 . S
O421 Co413 2.074 . S
O421 C446 1.257 . S
H422 C447 0.930 . S
H423 C453 0.930 . S
O424 Co413 2.093 1_554 S
O424 C416 1.224 1_554 S
H425 C457 0.929 . S
H426 C459 0.930 . S
H427 C460 0.930 . S
H428 C458 0.929 . S
H429 C461 0.928 . S
O430 Co414 2.057 . S
O430 C418 1.232 . S
H431 C450 0.929 . S
H432 C451 0.929 . S
H433 C463 0.931 . S
H434 C455 0.929 . S
H435 C464 0.930 . S
H436 C456 0.931 . S
O437 Co413 2.098 . S
O437 C465 1.218 . S
H438 C466 0.929 . S
H439 C467 0.929 . S
H440 C468 0.930 . S
H441 C469 0.929 . S
H442 C471 0.930 . S
H443 C448 0.930 . S
H444 C452 0.930 . S
O445 Co414 2.037 . S
O445 C465 1.234 . S
C446 O420 1.269 . S
C446 O421 1.257 . S
C447 H422 0.930 . S
C447 C450 1.388 . S
C447 C452 1.418 . S
C448 H443 0.930 . S
C448 C451 1.404 . S
C448 C452 1.353 . S
N449 Co414 2.145 . S
N449 C450 1.397 . S
N449 C451 1.334 . S
C450 H431 0.929 . S
C450 C447 1.388 . S
C450 N449 1.397 . S
C451 H432 0.929 . S
C451 C448 1.404 . S
C451 N449 1.334 . S
C452 H444 0.930 . S
C452 C447 1.418 . S
C452 C448 1.353 . S
C453 H423 0.930 . S
C453 N454 1.330 . S
C453 C455 1.446 . S
N454 Co413 2.151 . S
N454 C453 1.330 . S
N454 C458 1.418 1_556 S
C455 H434 0.929 . S
C455 C453 1.446 . S
C455 C456 1.332 1_556 S
C456 H436 0.931 . S
C456 C455 1.332 1_554 S
C456 C457 1.267 . S
C457 H425 0.929 . S
C457 C456 1.267 . S
C457 C458 1.251 . S
C458 H428 0.929 . S
C458 N454 1.418 1_554 S
C458 C457 1.251 . S
C459 H426 0.930 . S
C459 C461 1.406 . S
C459 C464 1.261 . S
C460 H427 0.930 . S
C460 N462 1.325 . S
C460 C463 1.357 . S
C461 H429 0.928 . S
C461 C459 1.406 . S
C461 N462 1.261 . S
N462 Co413 2.214 1_554 S
N462 C460 1.325 . S
N462 C461 1.261 . S
C463 H433 0.931 . S
C463 C460 1.357 . S
C463 C464 1.312 . S
C464 H435 0.930 . S
C464 C459 1.261 . S
C464 C463 1.312 . S
C465 O437 1.218 . S
C465 O445 1.234 . S
C466 H438 0.929 . S
C466 C469 1.391 . S
C466 C471 1.391 . S
C467 H439 0.929 . S
C467 C468 1.390 . S
C467 N470 1.391 . S
C468 H440 0.930 . S
C468 C467 1.390 . S
C468 C469 1.392 . S
C469 H441 0.929 . S
C469 C466 1.391 . S
C469 C468 1.392 . S
N470 Co414 2.257 . S
N470 C467 1.391 . S
N470 C471 1.388 . S
C471 H442 0.930 . S
C471 C466 1.391 . S
C471 N470 1.388 . S
Co472 O474 2.143 . S
Co472 O480 2.074 . S
Co472 O483 2.093 1_556 S
Co472 O496 2.098 . S
Co472 N513 2.151 . S
Co472 N521 2.214 1_556 S
Co473 O474 2.160 . S
Co473 O479 2.058 . S
Co473 O489 2.057 . S
Co473 O504 2.037 . S
Co473 N508 2.145 . S
Co473 N529 2.257 . S
O474 Co472 2.143 . S
O474 Co473 2.160 . S
C475 O476 1.278 . S
C475 O483 1.224 1_556 S
O476 C475 1.278 . S
C477 O478 1.245 . S
C477 O489 1.232 . S
O478 C477 1.245 . S
O479 Co473 2.058 . S
O479 C505 1.269 . S
O480 Co472 2.074 . S
O480 C505 1.257 . S
H481 C506 0.930 . S
H482 C512 0.930 . S
O483 Co472 2.093 1_554 S
O483 C475 1.224 1_554 S
H484 C516 0.929 . S
H485 C518 0.930 . S
H486 C519 0.930 . S
H487 C517 0.929 . S
H488 C520 0.928 . S
O489 Co473 2.057 . S
O489 C477 1.232 . S
H490 C509 0.929 . S
H491 C510 0.929 . S
H492 C522 0.931 . S
H493 C514 0.929 . S
H494 C523 0.930 . S
H495 C515 0.931 . S
O496 Co472 2.098 . S
O496 C524 1.218 . S
H497 C525 0.929 . S
H498 C526 0.929 1_565 S
H499 C527 0.930 1_565 S
H500 C528 0.929 . S
H501 C530 0.930 . S
H502 C507 0.930 . S
H503 C511 0.930 . S
O504 Co473 2.037 . S
O504 C524 1.234 . S
C505 O479 1.269 . S
C505 O480 1.257 . S
C506 H481 0.930 . S
C506 C509 1.388 . S
C506 C511 1.418 . S
C507 H502 0.930 . S
C507 C510 1.404 1_565 S
C507 C511 1.353 . S
N508 Co473 2.145 . S
N508 C509 1.397 1_545 S
N508 C510 1.334 . S
C509 H490 0.929 . S
C509 C506 1.388 . S
C509 N508 1.397 1_565 S
C510 H491 0.929 . S
C510 C507 1.404 1_545 S
C510 N508 1.334 . S
C511 H503 0.930 . S
C511 C506 1.418 . S
C511 C507 1.353 . S
C512 H482 0.930 . S
C512 N513 1.330 . S
C512 C514 1.446 . S
N513 Co472 2.151 . S
N513 C512 1.330 . S
N513 C517 1.418 1_556 S
C514 H493 0.929 . S
C514 C512 1.446 . S
C514 C515 1.332 1_556 S
C515 H495 0.931 . S
C515 C514 1.332 1_554 S
C515 C516 1.267 . S
C516 H484 0.929 . S
C516 C515 1.267 . S
C516 C517 1.251 . S
C517 H487 0.929 . S
C517 N513 1.418 1_554 S
C517 C516 1.251 . S
C518 H485 0.930 . S
C518 C520 1.406 . S
C518 C523 1.261 . S
C519 H486 0.930 . S
C519 N521 1.325 . S
C519 C522 1.357 . S
C520 H488 0.928 . S
C520 C518 1.406 . S
C520 N521 1.261 . S
N521 Co472 2.214 1_554 S
N521 C519 1.325 . S
N521 C520 1.261 . S
C522 H492 0.931 . S
C522 C519 1.357 . S
C522 C523 1.312 . S
C523 H494 0.930 . S
C523 C518 1.261 . S
C523 C522 1.312 . S
C524 O496 1.218 . S
C524 O504 1.234 . S
C525 H497 0.929 . S
C525 C528 1.391 . S
C525 C530 1.391 . S
C526 H498 0.929 1_545 S
C526 C527 1.390 . S
C526 N529 1.391 . S
C527 H499 0.930 1_545 S
C527 C526 1.390 . S
C527 C528 1.392 . S
C528 H500 0.929 . S
C528 C525 1.391 . S
C528 C527 1.392 . S
N529 Co473 2.257 . S
N529 C526 1.391 . S
N529 C530 1.388 . S
C530 H501 0.930 . S
C530 C525 1.391 . S
C530 N529 1.388 . S
Co531 O533 2.143 . S
Co531 O539 2.074 . S
Co531 O542 2.093 . S
Co531 O555 2.097 . S
Co531 N572 2.151 . S
Co531 N580 2.214 . S
Co532 O533 2.160 . S
Co532 O538 2.058 . S
Co532 O548 2.057 . S
Co532 O563 2.037 . S
Co532 N567 2.145 . S
Co532 N588 2.257 . S
O533 Co531 2.143 . S
O533 Co532 2.160 . S
C534 O535 1.278 . S
C534 O542 1.224 . S
O535 C534 1.278 . S
C536 O537 1.245 . S
C536 O548 1.232 . S
O537 C536 1.245 . S
O538 Co532 2.058 . S
O538 C564 1.269 . S
O539 Co531 2.074 . S
O539 C564 1.257 . S
H540 C565 0.930 . S
H541 C571 0.930 . S
O542 Co531 2.093 . S
O542 C534 1.224 . S
H543 C575 0.929 . S
H544 C577 0.930 . S
H545 C578 0.930 . S
H546 C576 0.929 . S
H547 C579 0.928 . S
O548 Co532 2.057 . S
O548 C536 1.232 . S
H549 C568 0.929 . S
H550 C569 0.929 . S
H551 C581 0.931 . S
H552 C573 0.929 . S
H553 C582 0.930 . S
H554 C574 0.931 . S
O555 Co531 2.097 . S
O555 C583 1.214 . S
H556 C584 0.929 . S
H557 C585 0.929 1_565 S
H558 C586 0.930 1_565 S
H559 C587 0.929 . S
H560 C589 0.930 . S
H561 C566 0.930 . S
H562 C570 0.930 . S
O563 Co532 2.037 . S
O563 C583 1.234 . S
C564 O538 1.269 . S
C564 O539 1.257 . S
C565 H540 0.930 . S
C565 C568 1.388 . S
C565 C570 1.418 . S
C566 H561 0.930 . S
C566 C569 1.404 1_565 S
C566 C570 1.353 . S
N567 Co532 2.145 . S
N567 C568 1.397 1_545 S
N567 C569 1.334 . S
C568 H549 0.929 . S
C568 C565 1.388 . S
C568 N567 1.397 1_565 S
C569 H550 0.929 . S
C569 C566 1.404 1_545 S
C569 N567 1.334 . S
C570 H562 0.930 . S
C570 C565 1.418 . S
C570 C566 1.353 . S
C571 H541 0.930 . S
C571 N572 1.330 . S
C571 C573 1.446 . S
N572 Co531 2.151 . S
N572 C571 1.330 . S
N572 C576 1.418 . S
C573 H552 0.929 . S
C573 C571 1.446 . S
C573 C574 1.332 . S
C574 H554 0.931 . S
C574 C573 1.332 . S
C574 C575 1.267 . S
C575 H543 0.929 . S
C575 C574 1.267 . S
C575 C576 1.251 . S
C576 H546 0.929 . S
C576 N572 1.418 . S
C576 C575 1.251 . S
C577 H544 0.930 . S
C577 C579 1.406 . S
C577 C582 1.261 . S
C578 H545 0.930 . S
C578 N580 1.325 . S
C578 C581 1.357 . S
C579 H547 0.928 . S
C579 C577 1.406 . S
C579 N580 1.261 . S
N580 Co531 2.214 . S
N580 C578 1.325 . S
N580 C579 1.261 . S
C581 H551 0.931 . S
C581 C578 1.357 . S
C581 C582 1.312 . S
C582 H553 0.930 . S
C582 C577 1.261 . S
C582 C581 1.312 . S
C583 O555 1.214 . S
C583 O563 1.234 . S
C584 H556 0.929 . S
C584 C587 1.391 . S
C584 C589 1.391 . S
C585 H557 0.929 1_545 S
C585 C586 1.390 . S
C585 N588 1.391 . S
C586 H558 0.930 1_545 S
C586 C585 1.390 . S
C586 C587 1.392 . S
C587 H559 0.929 . S
C587 C584 1.391 . S
C587 C586 1.392 . S
N588 Co532 2.257 . S
N588 C585 1.391 . S
N588 C589 1.388 . S
C589 H560 0.930 . S
C589 C584 1.391 . S
C589 N588 1.388 . S
Co590 O592 2.143 . S
Co590 O598 2.074 . S
Co590 O601 2.093 . S
Co590 O614 2.097 . S
Co590 N631 2.151 . S
Co590 N639 2.214 . S
Co591 O592 2.160 . S
Co591 O597 2.058 . S
Co591 O607 2.057 . S
Co591 O622 2.037 . S
Co591 N626 2.145 . S
Co591 N647 2.257 . S
O592 Co590 2.143 . S
O592 Co591 2.160 . S
C593 O594 1.278 . S
C593 O601 1.224 . S
O594 C593 1.278 . S
C595 O596 1.245 . S
C595 O607 1.232 . S
O596 C595 1.245 . S
O597 Co591 2.058 . S
O597 C623 1.269 . S
O598 Co590 2.074 . S
O598 C623 1.257 . S
H599 C624 0.930 . S
H600 C630 0.930 . S
O601 Co590 2.093 . S
O601 C593 1.224 . S
H602 C634 0.929 . S
H603 C636 0.930 . S
H604 C637 0.930 . S
H605 C635 0.929 . S
H606 C638 0.928 . S
O607 Co591 2.057 . S
O607 C595 1.232 . S
H608 C627 0.929 . S
H609 C628 0.929 . S
H610 C640 0.931 . S
H611 C632 0.929 . S
H612 C641 0.930 . S
H613 C633 0.931 . S
O614 Co590 2.097 . S
O614 C642 1.214 . S
H615 C643 0.929 . S
H616 C644 0.929 1_455 S
H617 C645 0.930 1_455 S
H618 C646 0.929 . S
H619 C648 0.930 . S
H620 C625 0.930 . S
H621 C629 0.930 . S
O622 Co591 2.037 . S
O622 C642 1.234 . S
C623 O597 1.269 . S
C623 O598 1.257 . S
C624 H599 0.930 . S
C624 C627 1.388 . S
C624 C629 1.418 . S
C625 H620 0.930 . S
C625 C628 1.404 1_455 S
C625 C629 1.353 . S
N626 Co591 2.145 . S
N626 C627 1.397 1_655 S
N626 C628 1.334 . S
C627 H608 0.929 . S
C627 C624 1.388 . S
C627 N626 1.397 1_455 S
C628 H609 0.929 . S
C628 C625 1.404 1_655 S
C628 N626 1.334 . S
C629 H621 0.930 . S
C629 C624 1.418 . S
C629 C625 1.353 . S
C630 H600 0.930 . S
C630 N631 1.330 . S
C630 C632 1.446 . S
N631 Co590 2.151 . S
N631 C630 1.330 . S
N631 C635 1.418 . S
C632 H611 0.929 . S
C632 C630 1.446 . S
C632 C633 1.332 . S
C633 H613 0.931 . S
C633 C632 1.332 . S
C633 C634 1.267 . S
C634 H602 0.929 . S
C634 C633 1.267 . S
C634 C635 1.251 . S
C635 H605 0.929 . S
C635 N631 1.418 . S
C635 C634 1.251 . S
C636 H603 0.930 . S
C636 C638 1.406 . S
C636 C641 1.261 . S
C637 H604 0.930 . S
C637 N639 1.325 . S
C637 C640 1.357 . S
C638 H606 0.928 . S
C638 C636 1.406 . S
C638 N639 1.261 . S
N639 Co590 2.214 . S
N639 C637 1.325 . S
N639 C638 1.261 . S
C640 H610 0.931 . S
C640 C637 1.357 . S
C640 C641 1.312 . S
C641 H612 0.930 . S
C641 C636 1.261 . S
C641 C640 1.312 . S
C642 O614 1.214 . S
C642 O622 1.234 . S
C643 H615 0.929 . S
C643 C646 1.391 . S
C643 C648 1.391 . S
C644 H616 0.929 1_655 S
C644 C645 1.390 . S
C644 N647 1.391 . S
C645 H617 0.930 1_655 S
C645 C644 1.390 . S
C645 C646 1.392 . S
C646 H618 0.929 . S
C646 C643 1.391 . S
C646 C645 1.392 . S
N647 Co591 2.257 . S
N647 C644 1.391 . S
N647 C648 1.388 . S
C648 H619 0.930 . S
C648 C643 1.391 . S
C648 N647 1.388 . S
Co649 O651 2.143 . S
Co649 O657 2.074 . S
Co649 O660 2.093 . S
Co649 O673 2.097 . S
Co649 N690 2.151 . S
Co649 N698 2.214 . S
Co650 O651 2.160 . S
Co650 O656 2.058 . S
Co650 O666 2.057 . S
Co650 O681 2.037 . S
Co650 N685 2.145 . S
Co650 N706 2.257 . S
O651 Co649 2.143 . S
O651 Co650 2.160 . S
C652 O653 1.278 . S
C652 O660 1.224 . S
O653 C652 1.278 . S
C654 O655 1.245 . S
C654 O666 1.232 . S
O655 C654 1.245 . S
O656 Co650 2.058 . S
O656 C682 1.269 . S
O657 Co649 2.074 . S
O657 C682 1.257 . S
H658 C683 0.930 . S
H659 C689 0.930 . S
O660 Co649 2.093 . S
O660 C652 1.224 . S
H661 C693 0.929 . S
H662 C695 0.930 . S
H663 C696 0.930 . S
H664 C694 0.929 . S
H665 C697 0.928 . S
O666 Co650 2.057 . S
O666 C654 1.232 . S
H667 C686 0.929 . S
H668 C687 0.929 . S
H669 C699 0.931 . S
H670 C691 0.929 . S
H671 C700 0.930 . S
H672 C692 0.931 . S
O673 Co649 2.097 . S
O673 C701 1.214 . S
H674 C702 0.929 . S
H675 C703 0.929 . S
H676 C704 0.930 . S
H677 C705 0.929 . S
H678 C707 0.930 . S
H679 C684 0.930 . S
H680 C688 0.930 . S
O681 Co650 2.037 . S
O681 C701 1.234 . S
C682 O656 1.269 . S
C682 O657 1.257 . S
C683 H658 0.930 . S
C683 C686 1.388 . S
C683 C688 1.418 . S
C684 H679 0.930 . S
C684 C687 1.404 . S
C684 C688 1.353 . S
N685 Co650 2.145 . S
N685 C686 1.397 . S
N685 C687 1.334 . S
C686 H667 0.929 . S
C686 C683 1.388 . S
C686 N685 1.397 . S
C687 H668 0.929 . S
C687 C684 1.404 . S
C687 N685 1.334 . S
C688 H680 0.930 . S
C688 C683 1.418 . S
C688 C684 1.353 . S
C689 H659 0.930 . S
C689 N690 1.330 . S
C689 C691 1.446 . S
N690 Co649 2.151 . S
N690 C689 1.330 . S
N690 C694 1.418 . S
C691 H670 0.929 . S
C691 C689 1.446 . S
C691 C692 1.332 . S
C692 H672 0.931 . S
C692 C691 1.332 . S
C692 C693 1.267 . S
C693 H661 0.929 . S
C693 C692 1.267 . S
C693 C694 1.251 . S
C694 H664 0.929 . S
C694 N690 1.418 . S
C694 C693 1.251 . S
C695 H662 0.930 . S
C695 C697 1.406 . S
C695 C700 1.261 . S
C696 H663 0.930 . S
C696 N698 1.325 . S
C696 C699 1.357 . S
C697 H665 0.928 . S
C697 C695 1.406 . S
C697 N698 1.261 . S
N698 Co649 2.214 . S
N698 C696 1.325 . S
N698 C697 1.261 . S
C699 H669 0.931 . S
C699 C696 1.357 . S
C699 C700 1.312 . S
C700 H671 0.930 . S
C700 C695 1.261 . S
C700 C699 1.312 . S
C701 O673 1.214 . S
C701 O681 1.234 . S
C702 H674 0.929 . S
C702 C705 1.391 . S
C702 C707 1.391 . S
C703 H675 0.929 . S
C703 C704 1.390 . S
C703 N706 1.391 . S
C704 H676 0.930 . S
C704 C703 1.390 . S
C704 C705 1.392 . S
C705 H677 0.929 . S
C705 C702 1.391 . S
C705 C704 1.392 . S
N706 Co650 2.257 . S
N706 C703 1.391 . S
N706 C707 1.388 . S
C707 H678 0.930 . S
C707 C702 1.391 . S
C707 N706 1.388 . S
C708 C709 1.363 . S
C708 C714 1.379 . S
C708 N716 1.356 . S
C709 C708 1.363 . S
C709 C715 1.363 1_554 S
C710 C711 1.363 . S
C710 C715 1.379 . S
C710 N717 1.356 . S
C711 C710 1.363 . S
C711 C714 1.363 1_556 S
N712 C714 1.356 . S
N712 H724 0.984 . S
N712 H725 0.985 . S
N713 C715 1.356 . S
N713 H718 0.984 . S
N713 H719 0.985 . S
C714 C708 1.379 . S
C714 C711 1.363 1_554 S
C714 N712 1.356 . S
C715 C709 1.363 1_556 S
C715 C710 1.379 . S
C715 N713 1.356 . S
N716 C708 1.356 . S
N716 H722 0.984 . S
N716 H723 0.984 . S
N717 C710 1.356 . S
N717 H720 0.984 . S
N717 H721 0.985 . S
H718 N713 0.984 . S
H719 N713 0.985 . S
H720 N717 0.984 . S
H721 N717 0.985 . S
H722 N716 0.984 . S
H723 N716 0.984 . S
H724 N712 0.984 . S
H725 N712 0.985 . S
C726 C727 1.363 . S
C726 C732 1.379 . S
C726 N734 1.356 . S
C727 C726 1.363 . S
C727 C733 1.363 1_554 S
C728 C729 1.363 . S
C728 C733 1.379 . S
C728 N735 1.356 . S
C729 C728 1.363 . S
C729 C732 1.363 1_556 S
N730 C732 1.356 1_545 S
N730 H742 0.984 1_545 S
N730 H743 0.985 . S
N731 C733 1.356 . S
N731 H736 0.984 . S
N731 H737 0.985 . S
C732 C726 1.379 . S
C732 C729 1.363 1_554 S
C732 N730 1.356 1_565 S
C733 C727 1.363 1_556 S
C733 C728 1.379 . S
C733 N731 1.356 . S
N734 C726 1.356 . S
N734 H740 0.984 . S
N734 H741 0.984 . S
N735 C728 1.356 . S
N735 H738 0.984 1_565 S
N735 H739 0.985 . S
H736 N731 0.984 . S
H737 N731 0.985 . S
H738 N735 0.984 1_545 S
H739 N735 0.985 . S
H740 N734 0.984 . S
H741 N734 0.984 . S
H742 N730 0.984 1_565 S
H743 N730 0.985 . S
C744 C745 1.363 . S
C744 C750 1.379 1_554 S
C744 N752 1.356 . S
C745 C744 1.363 . S
C745 C751 1.363 1_554 S
C746 C747 1.363 . S
C746 C751 1.379 . S
C746 N753 1.356 1_455 S
C747 C746 1.363 . S
C747 C750 1.363 . S
N748 C750 1.356 . S
N748 H760 0.984 1_556 S
N748 H761 0.985 1_455 S
N749 C751 1.357 . S
N749 H754 0.983 1_556 S
N749 H755 0.986 . S
C750 C744 1.379 1_556 S
C750 C747 1.363 . S
C750 N748 1.356 . S
C751 C745 1.363 1_556 S
C751 C746 1.379 . S
C751 N749 1.357 . S
N752 C744 1.356 . S
N752 H758 0.984 . S
N752 H759 0.984 . S
N753 C746 1.356 1_655 S
N753 H756 0.984 . S
N753 H757 0.985 . S
H754 N749 0.983 1_554 S
H755 N749 0.986 . S
H756 N753 0.984 . S
H757 N753 0.985 . S
H758 N752 0.984 . S
H759 N752 0.984 . S
H760 N748 0.984 1_554 S
H761 N748 0.985 1_655 S
C762 C763 1.363 . S
C762 C768 1.379 . S
C762 N770 1.356 . S
C763 C762 1.363 . S
C763 C769 1.363 . S
C764 C765 1.363 . S
C764 C769 1.379 . S
C764 N771 1.356 . S
C765 C764 1.363 . S
C765 C768 1.363 . S
N766 C768 1.356 . S
N766 H778 0.984 . S
N766 H779 0.985 . S
N767 C769 1.356 . S
N767 H772 0.984 . S
N767 H773 0.985 . S
C768 C762 1.379 . S
C768 C765 1.363 . S
C768 N766 1.356 . S
C769 C763 1.363 . S
C769 C764 1.379 . S
C769 N767 1.356 . S
N770 C762 1.356 . S
N770 H776 0.984 . S
N770 H777 0.984 . S
N771 C764 1.356 . S
N771 H774 0.984 . S
N771 H775 0.985 . S
H772 N767 0.984 . S
H773 N767 0.985 . S
H774 N771 0.984 . S
H775 N771 0.985 . S
H776 N770 0.984 . S
H777 N770 0.984 . S
H778 N766 0.984 . S
H779 N766 0.985 . S
C780 C781 1.363 . S
C780 C786 1.379 . S
C780 N788 1.356 . S
C781 C780 1.363 . S
C781 C787 1.363 . S
C782 C783 1.363 . S
C782 C787 1.379 . S
C782 N789 1.356 . S
C783 C782 1.363 . S
C783 C786 1.363 . S
N784 C786 1.356 1_545 S
N784 H796 0.984 . S
N784 H797 0.985 . S
N785 C787 1.356 . S
N785 H790 0.984 . S
N785 H791 0.985 . S
C786 C780 1.379 . S
C786 C783 1.363 . S
C786 N784 1.356 1_565 S
C787 C781 1.363 . S
C787 C782 1.379 . S
C787 N785 1.356 . S
N788 C780 1.356 . S
N788 H794 0.984 . S
N788 H795 0.984 . S
N789 C782 1.356 . S
N789 H792 0.984 1_565 S
N789 H793 0.985 . S
H790 N785 0.984 . S
H791 N785 0.985 . S
H792 N789 0.984 1_545 S
H793 N789 0.985 . S
H794 N788 0.984 . S
H795 N788 0.984 . S
H796 N784 0.984 . S
H797 N784 0.985 . S
C798 C799 1.363 . S
C798 C804 1.379 . S
C798 N806 1.356 . S
C799 C798 1.363 . S
C799 C805 1.363 . S
C800 C801 1.363 . S
C800 C805 1.379 . S
C800 N807 1.356 . S
C801 C800 1.363 . S
C801 C804 1.363 . S
N802 C804 1.356 . S
N802 H814 0.984 . S
N802 H815 0.985 . S
N803 C805 1.356 1_655 S
N803 H808 0.984 . S
N803 H809 0.985 . S
C804 C798 1.379 . S
C804 C801 1.363 . S
C804 N802 1.356 . S
C805 C799 1.363 . S
C805 C800 1.379 . S
C805 N803 1.356 1_455 S
N806 C798 1.356 . S
N806 H812 0.984 . S
N806 H813 0.984 1_455 S
N807 C800 1.356 . S
N807 H810 0.984 . S
N807 H811 0.985 . S
H808 N803 0.984 . S
H809 N803 0.985 . S
H810 N807 0.984 . S
H811 N807 0.985 . S
H812 N806 0.984 . S
H813 N806 0.984 1_655 S
H814 N802 0.984 . S
H815 N802 0.985 . S
C816 C817 1.363 . S
C816 C822 1.379 . S
C816 N824 1.356 . S
C817 C816 1.363 . S
C817 C823 1.363 1_554 S
C818 C819 1.363 . S
C818 C823 1.379 . S
C818 N825 1.356 . S
C819 C818 1.363 . S
C819 C822 1.363 1_556 S
N820 C822 1.356 . S
N820 H832 0.984 . S
N820 H833 0.985 . S
N821 C823 1.356 . S
N821 H826 0.984 . S
N821 H827 0.985 . S
C822 C816 1.379 . S
C822 C819 1.363 1_554 S
C822 N820 1.356 . S
C823 C817 1.363 1_556 S
C823 C818 1.379 . S
C823 N821 1.356 . S
N824 C816 1.356 . S
N824 H830 0.984 . S
N824 H831 0.984 . S
N825 C818 1.356 . S
N825 H828 0.984 . S
N825 H829 0.985 . S
H826 N821 0.984 . S
H827 N821 0.985 . S
H828 N825 0.984 . S
H829 N825 0.985 . S
H830 N824 0.984 . S
H831 N824 0.984 . S
H832 N820 0.984 . S
H833 N820 0.985 . S
C834 C835 1.363 1_554 S
C834 C840 1.379 . S
C834 N842 1.356 . S
C835 C834 1.363 1_556 S
C835 C841 1.363 . S
C836 C837 1.363 1_556 S
C836 C841 1.379 . S
C836 N843 1.356 1_545 S
C837 C836 1.363 1_554 S
C837 C840 1.363 . S
N838 C840 1.356 . S
N838 H850 0.984 . S
N838 H851 0.985 1_545 S
N839 C841 1.356 . S
N839 H844 0.984 . S
N839 H845 0.985 . S
C840 C834 1.379 . S
C840 C837 1.363 . S
C840 N838 1.356 . S
C841 C835 1.363 . S
C841 C836 1.379 . S
C841 N839 1.356 . S
N842 C834 1.356 . S
N842 H848 0.984 . S
N842 H849 0.984 . S
N843 C836 1.356 1_565 S
N843 H846 0.984 . S
N843 H847 0.985 . S
H844 N839 0.984 . S
H845 N839 0.985 . S
H846 N843 0.984 . S
H847 N843 0.985 . S
H848 N842 0.984 . S
H849 N842 0.984 . S
H850 N838 0.984 . S
H851 N838 0.985 1_565 S
C852 C853 1.363 1_556 S
C852 C858 1.379 . S
C852 N860 1.356 1_655 S
C853 C852 1.363 1_554 S
C853 C859 1.363 . S
C854 C855 1.363 1_554 S
C854 C859 1.379 . S
C854 N861 1.356 . S
C855 C854 1.363 1_556 S
C855 C858 1.363 . S
N856 C858 1.356 . S
N856 H868 0.984 . S
N856 H869 0.985 . S
N857 C859 1.356 . S
N857 H862 0.984 1_655 S
N857 H863 0.985 . S
C858 C852 1.379 . S
C858 C855 1.363 . S
C858 N856 1.356 . S
C859 C853 1.363 . S
C859 C854 1.379 . S
C859 N857 1.356 . S
N860 C852 1.356 1_455 S
N860 H866 0.984 . S
N860 H867 0.984 . S
N861 C854 1.356 . S
N861 H864 0.984 . S
N861 H865 0.985 . S
H862 N857 0.984 1_455 S
H863 N857 0.985 . S
H864 N861 0.984 . S
H865 N861 0.985 . S
H866 N860 0.984 . S
H867 N860 0.984 . S
H868 N856 0.984 . S
H869 N856 0.985 . S
C870 C871 1.363 . S
C870 C876 1.379 . S
C870 N878 1.356 . S
C871 C870 1.363 . S
C871 C877 1.363 . S
C872 C873 1.363 . S
C872 C877 1.379 . S
C872 N879 1.356 . S
C873 C872 1.363 . S
C873 C876 1.363 . S
N874 C876 1.356 . S
N874 H886 0.984 . S
N874 H887 0.985 . S
N875 C877 1.356 . S
N875 H880 0.984 . S
N875 H881 0.985 . S
C876 C870 1.379 . S
C876 C873 1.363 . S
C876 N874 1.356 . S
C877 C871 1.363 . S
C877 C872 1.379 . S
C877 N875 1.356 . S
N878 C870 1.356 . S
N878 H884 0.984 . S
N878 H885 0.984 . S
N879 C872 1.356 . S
N879 H882 0.984 . S
N879 H883 0.985 . S
H880 N875 0.984 . S
H881 N875 0.985 . S
H882 N879 0.984 . S
H883 N879 0.985 . S
H884 N878 0.984 . S
H885 N878 0.984 . S
H886 N874 0.984 . S
H887 N874 0.985 . S
C888 C889 1.363 . S
C888 C894 1.379 . S
C888 N896 1.356 . S
C889 C888 1.363 . S
C889 C895 1.363 . S
C890 C891 1.363 . S
C890 C895 1.379 . S
C890 N897 1.356 1_545 S
C891 C890 1.363 . S
C891 C894 1.363 . S
N892 C894 1.356 . S
N892 H904 0.984 . S
N892 H905 0.985 1_545 S
N893 C895 1.356 . S
N893 H898 0.984 . S
N893 H899 0.985 . S
C894 C888 1.379 . S
C894 C891 1.363 . S
C894 N892 1.356 . S
C895 C889 1.363 . S
C895 C890 1.379 . S
C895 N893 1.356 . S
N896 C888 1.356 . S
N896 H902 0.984 . S
N896 H903 0.984 . S
N897 C890 1.356 1_565 S
N897 H900 0.984 . S
N897 H901 0.985 . S
H898 N893 0.984 . S
H899 N893 0.985 . S
H900 N897 0.984 . S
H901 N897 0.985 . S
H902 N896 0.984 . S
H903 N896 0.984 . S
H904 N892 0.984 . S
H905 N892 0.985 1_565 S
C906 C907 1.363 . S
C906 C912 1.379 . S
C906 N914 1.356 . S
C907 C906 1.363 . S
C907 C913 1.363 . S
C908 C909 1.363 . S
C908 C913 1.379 . S
C908 N915 1.356 . S
C909 C908 1.363 . S
C909 C912 1.363 . S
N910 C912 1.356 . S
N910 H922 0.984 . S
N910 H923 0.985 . S
N911 C913 1.356 1_455 S
N911 H916 0.984 . S
N911 H917 0.985 . S
C912 C906 1.379 . S
C912 C909 1.363 . S
C912 N910 1.356 . S
C913 C907 1.363 . S
C913 C908 1.379 . S
C913 N911 1.356 1_655 S
N914 C906 1.356 . S
N914 H920 0.984 . S
N914 H921 0.984 1_655 S
N915 C908 1.356 . S
N915 H918 0.984 . S
N915 H919 0.985 . S
H916 N911 0.984 . S
H917 N911 0.985 . S
H918 N915 0.984 . S
H919 N915 0.985 . S
H920 N914 0.984 . S
H921 N914 0.984 1_455 S
H922 N910 0.984 . S
H923 N910 0.985 . S
C924 C925 1.363 . S
C924 C930 1.379 . S
C924 N932 1.356 . S
C925 C924 1.363 . S
C925 C931 1.363 . S
C926 C927 1.363 . S
C926 C931 1.379 . S
C926 N933 1.356 . S
C927 C926 1.363 . S
C927 C930 1.363 . S
N928 C930 1.356 . S
N928 H940 0.984 . S
N928 H941 0.985 . S
N929 C931 1.356 . S
N929 H934 0.984 . S
N929 H935 0.985 . S
C930 C924 1.379 . S
C930 C927 1.363 . S
C930 N928 1.356 . S
C931 C925 1.363 . S
C931 C926 1.379 . S
C931 N929 1.356 . S
N932 C924 1.356 . S
N932 H938 0.984 . S
N932 H939 0.984 . S
N933 C926 1.356 . S
N933 H936 0.984 . S
N933 H937 0.985 . S
H934 N929 0.984 . S
H935 N929 0.985 . S
H936 N933 0.984 . S
H937 N933 0.985 . S
H938 N932 0.984 . S
H939 N932 0.984 . S
H940 N928 0.984 . S
H941 N928 0.985 . S
C942 C943 1.363 . S
C942 C948 1.379 . S
C942 N950 1.356 . S
C943 C942 1.363 . S
C943 C949 1.363 . S
C944 C945 1.363 . S
C944 C949 1.379 . S
C944 N951 1.356 . S
C945 C944 1.363 . S
C945 C948 1.363 . S
N946 C948 1.356 . S
N946 H958 0.984 . S
N946 H959 0.985 . S
N947 C949 1.356 . S
N947 H952 0.984 . S
N947 H953 0.985 . S
C948 C942 1.379 . S
C948 C945 1.363 . S
C948 N946 1.356 . S
C949 C943 1.363 . S
C949 C944 1.379 . S
C949 N947 1.356 . S
N950 C942 1.356 . S
N950 H956 0.984 . S
N950 H957 0.984 . S
N951 C944 1.356 . S
N951 H954 0.984 . S
N951 H955 0.985 . S
H952 N947 0.984 . S
H953 N947 0.985 . S
H954 N951 0.984 . S
H955 N951 0.985 . S
H956 N950 0.984 . S
H957 N950 0.984 . S
H958 N946 0.984 . S
H959 N946 0.985 . S
C960 C961 1.363 . S
C960 C966 1.379 . S
C960 N968 1.356 . S
C961 C960 1.363 . S
C961 C967 1.363 . S
C962 C963 1.363 . S
C962 C967 1.379 . S
C962 N969 1.356 . S
C963 C962 1.363 . S
C963 C966 1.363 . S
N964 C966 1.356 . S
N964 H976 0.984 . S
N964 H977 0.985 . S
N965 C967 1.356 . S
N965 H970 0.984 . S
N965 H971 0.985 . S
C966 C960 1.379 . S
C966 C963 1.363 . S
C966 N964 1.356 . S
C967 C961 1.363 . S
C967 C962 1.379 . S
C967 N965 1.356 . S
N968 C960 1.356 . S
N968 H974 0.984 . S
N968 H975 0.984 . S
N969 C962 1.356 . S
N969 H972 0.984 . S
N969 H973 0.985 . S
H970 N965 0.984 . S
H971 N965 0.985 . S
H972 N969 0.984 . S
H973 N969 0.985 . S
H974 N968 0.984 . S
H975 N968 0.984 . S
H976 N964 0.984 . S
H977 N964 0.985 . S
C978 C979 1.363 . S
C978 C984 1.379 . S
C978 N986 1.356 . S
C979 C978 1.363 . S
C979 C985 1.363 . S
C980 C981 1.363 . S
C980 C985 1.379 . S
C980 N987 1.356 . S
C981 C980 1.363 . S
C981 C984 1.363 . S
N982 C984 1.356 . S
N982 H994 0.984 . S
N982 H995 0.985 . S
N983 C985 1.356 . S
N983 H988 0.984 . S
N983 H989 0.985 . S
C984 C978 1.379 . S
C984 C981 1.363 . S
C984 N982 1.356 . S
C985 C979 1.363 . S
C985 C980 1.379 . S
C985 N983 1.356 . S
N986 C978 1.356 . S
N986 H992 0.984 . S
N986 H993 0.984 . S
N987 C980 1.356 . S
N987 H990 0.984 . S
N987 H991 0.985 . S
H988 N983 0.984 . S
H989 N983 0.985 . S
H990 N987 0.984 . S
H991 N987 0.985 . S
H992 N986 0.984 . S
H993 N986 0.984 . S
H994 N982 0.984 . S
H995 N982 0.985 . S
C996 C997 1.363 . S
C996 C1002 1.379 . S
C996 N1004 1.356 . S
C997 C996 1.363 . S
C997 C1003 1.363 . S
C998 C999 1.363 . S
C998 C1003 1.379 . S
C998 N1005 1.356 . S
C999 C998 1.363 . S
C999 C1002 1.363 . S
N1000 C1002 1.356 . S
N1000 H1012 0.984 . S
N1000 H1013 0.985 . S
N1001 C1003 1.356 . S
N1001 H1006 0.984 . S
N1001 H1007 0.985 . S
C1002 C996 1.379 . S
C1002 C999 1.363 . S
C1002 N1000 1.356 . S
C1003 C997 1.363 . S
C1003 C998 1.379 . S
C1003 N1001 1.356 . S
N1004 C996 1.356 . S
N1004 H1010 0.984 . S
N1004 H1011 0.984 . S
N1005 C998 1.356 . S
N1005 H1008 0.984 . S
N1005 H1009 0.985 . S
H1006 N1001 0.984 . S
H1007 N1001 0.985 . S
H1008 N1005 0.984 . S
H1009 N1005 0.985 . S
H1010 N1004 0.984 . S
H1011 N1004 0.984 . S
H1012 N1000 0.984 . S
H1013 N1000 0.985 . S
C1014 C1015 1.363 . S
C1014 C1020 1.379 . S
C1014 N1022 1.356 . S
C1015 C1014 1.363 . S
C1015 C1021 1.363 . S
C1016 C1017 1.363 . S
C1016 C1021 1.379 . S
C1016 N1023 1.356 . S
C1017 C1016 1.363 . S
C1017 C1020 1.363 . S
N1018 C1020 1.356 . S
N1018 H1030 0.984 . S
N1018 H1031 0.985 . S
N1019 C1021 1.356 . S
N1019 H1024 0.984 . S
N1019 H1025 0.985 . S
C1020 C1014 1.379 . S
C1020 C1017 1.363 . S
C1020 N1018 1.356 . S
C1021 C1015 1.363 . S
C1021 C1016 1.379 . S
C1021 N1019 1.356 . S
N1022 C1014 1.356 . S
N1022 H1028 0.984 . S
N1022 H1029 0.984 . S
N1023 C1016 1.356 . S
N1023 H1026 0.984 . S
N1023 H1027 0.985 . S
H1024 N1019 0.984 . S
H1025 N1019 0.985 . S
H1026 N1023 0.984 . S
H1027 N1023 0.985 . S
H1028 N1022 0.984 . S
H1029 N1022 0.984 . S
H1030 N1018 0.984 . S
H1031 N1018 0.985 . S
C1032 C1033 1.363 . S
C1032 C1038 1.379 1_455 S
C1032 N1040 1.356 . S
C1033 C1032 1.363 . S
C1033 C1039 1.363 1_554 S
C1034 C1035 1.363 . S
C1034 C1039 1.379 1_655 S
C1034 N1041 1.356 . S
C1035 C1034 1.363 . S
C1035 C1038 1.363 1_556 S
N1036 C1038 1.356 . S
N1036 H1048 0.984 . S
N1036 H1049 0.985 1_554 S
N1037 C1039 1.356 . S
N1037 H1042 0.984 1_556 S
N1037 H1043 0.985 . S
C1038 C1032 1.379 1_655 S
C1038 C1035 1.363 1_554 S
C1038 N1036 1.356 . S
C1039 C1033 1.363 1_556 S
C1039 C1034 1.379 1_455 S
C1039 N1037 1.356 . S
N1040 C1032 1.356 . S
N1040 H1046 0.984 . S
N1040 H1047 0.984 . S
N1041 C1034 1.356 . S
N1041 H1044 0.984 . S
N1041 H1045 0.985 . S
H1042 N1037 0.984 1_554 S
H1043 N1037 0.985 . S
H1044 N1041 0.984 . S
H1045 N1041 0.985 . S
H1046 N1040 0.984 . S
H1047 N1040 0.984 . S
H1048 N1036 0.984 . S
H1049 N1036 0.985 1_556 S
C1050 C1051 1.363 . S
C1050 C1056 1.379 1_554 S
C1050 N1058 1.356 . S
C1051 C1050 1.363 . S
C1051 C1057 1.363 . S
C1052 C1053 1.363 . S
C1052 C1057 1.379 1_556 S
C1052 N1059 1.356 . S
C1053 C1052 1.363 . S
C1053 C1056 1.363 . S
N1054 C1056 1.356 . S
N1054 H1066 0.984 . S
N1054 H1067 0.985 . S
N1055 C1057 1.356 . S
N1055 H1060 0.984 . S
N1055 H1061 0.985 . S
C1056 C1050 1.379 1_556 S
C1056 C1053 1.363 . S
C1056 N1054 1.356 . S
C1057 C1051 1.363 . S
C1057 C1052 1.379 1_554 S
C1057 N1055 1.356 . S
N1058 C1050 1.356 . S
N1058 H1064 0.981 1_554 S
N1058 H1065 0.984 . S
N1059 C1052 1.356 . S
N1059 H1062 0.984 . S
N1059 H1063 0.981 1_556 S
H1060 N1055 0.984 . S
H1061 N1055 0.985 . S
H1062 N1059 0.984 . S
H1063 N1059 0.981 1_554 S
H1064 N1058 0.981 1_556 S
H1065 N1058 0.984 . S
H1066 N1054 0.984 . S
H1067 N1054 0.985 . S
C1068 C1069 1.363 1_556 S
C1068 C1074 1.379 1_565 S
C1068 N1076 1.356 . S
C1069 C1068 1.363 1_554 S
C1069 C1075 1.363 . S
C1070 C1071 1.363 1_554 S
C1070 C1075 1.379 1_545 S
C1070 N1077 1.356 . S
C1071 C1070 1.363 1_556 S
C1071 C1074 1.363 . S
N1072 C1074 1.356 . S
N1072 H1084 0.984 . S
N1072 H1085 0.985 . S
N1073 C1075 1.356 . S
N1073 H1078 0.984 . S
N1073 H1079 0.985 . S
C1074 C1068 1.379 1_545 S
C1074 C1071 1.363 . S
C1074 N1072 1.356 . S
C1075 C1069 1.363 . S
C1075 C1070 1.379 1_565 S
C1075 N1073 1.356 . S
N1076 C1068 1.356 . S
N1076 H1082 0.984 . S
N1076 H1083 0.984 1_556 S
N1077 C1070 1.356 . S
N1077 H1080 0.984 1_554 S
N1077 H1081 0.985 . S
H1078 N1073 0.984 . S
H1079 N1073 0.985 . S
H1080 N1077 0.984 1_556 S
H1081 N1077 0.985 . S
H1082 N1076 0.984 . S
H1083 N1076 0.984 1_554 S
H1084 N1072 0.984 . S
H1085 N1072 0.985 . S
C1086 C1087 1.363 . S
C1086 C1092 1.379 1_565 S
C1086 N1094 1.356 . S
C1087 C1086 1.363 . S
C1087 C1093 1.363 . S
C1088 C1089 1.363 . S
C1088 C1093 1.379 1_545 S
C1088 N1095 1.356 . S
C1089 C1088 1.363 . S
C1089 C1092 1.363 . S
N1090 C1092 1.356 . S
N1090 H1102 0.984 . S
N1090 H1103 0.985 . S
N1091 C1093 1.356 . S
N1091 H1096 0.984 . S
N1091 H1097 0.985 . S
C1092 C1086 1.379 1_545 S
C1092 C1089 1.363 . S
C1092 N1090 1.356 . S
C1093 C1087 1.363 . S
C1093 C1088 1.379 1_565 S
C1093 N1091 1.356 . S
N1094 C1086 1.356 . S
N1094 H1100 0.984 . S
N1094 H1101 0.984 . S
N1095 C1088 1.356 . S
N1095 H1098 0.984 . S
N1095 H1099 0.985 . S
H1096 N1091 0.984 . S
H1097 N1091 0.985 . S
H1098 N1095 0.984 . S
H1099 N1095 0.985 . S
H1100 N1094 0.984 . S
H1101 N1094 0.984 . S
H1102 N1090 0.984 . S
H1103 N1090 0.985 . S
C1104 C1105 1.363 1_455 S
C1104 C1110 1.379 . S
C1104 N1112 1.356 . S
C1105 C1104 1.363 1_655 S
C1105 C1111 1.363 . S
C1106 C1107 1.363 1_655 S
C1106 C1111 1.379 . S
C1106 N1113 1.356 . S
C1107 C1106 1.363 1_455 S
C1107 C1110 1.363 . S
N1108 C1110 1.356 . S
N1108 H1120 0.984 . S
N1108 H1121 0.985 . S
N1109 C1111 1.356 . S
N1109 H1114 0.984 . S
N1109 H1115 0.985 . S
C1110 C1104 1.379 . S
C1110 C1107 1.363 . S
C1110 N1108 1.356 . S
C1111 C1105 1.363 . S
C1111 C1106 1.379 . S
C1111 N1109 1.356 . S
N1112 C1104 1.356 . S
N1112 H1118 0.984 . S
N1112 H1119 0.984 1_455 S
N1113 C1106 1.356 . S
N1113 H1116 0.984 1_655 S
N1113 H1117 0.985 . S
H1114 N1109 0.984 . S
H1115 N1109 0.985 . S
H1116 N1113 0.984 1_455 S
H1117 N1113 0.985 . S
H1118 N1112 0.984 . S
H1119 N1112 0.984 1_655 S
H1120 N1108 0.984 . S
H1121 N1108 0.985 . S
C1122 C1123 1.363 . S
C1122 C1128 1.379 . S
C1122 N1130 1.356 . S
C1123 C1122 1.363 . S
C1123 C1129 1.363 . S
C1124 C1125 1.363 . S
C1124 C1129 1.379 . S
C1124 N1131 1.356 . S
C1125 C1124 1.363 . S
C1125 C1128 1.363 . S
N1126 C1128 1.356 . S
N1126 H1138 0.984 . S
N1126 H1139 0.985 . S
N1127 C1129 1.356 . S
N1127 H1132 0.984 . S
N1127 H1133 0.985 . S
C1128 C1122 1.379 . S
C1128 C1125 1.363 . S
C1128 N1126 1.356 . S
C1129 C1123 1.363 . S
C1129 C1124 1.379 . S
C1129 N1127 1.356 . S
N1130 C1122 1.356 . S
N1130 H1136 0.984 . S
N1130 H1137 0.984 . S
N1131 C1124 1.356 . S
N1131 H1134 0.984 . S
N1131 H1135 0.985 . S
H1132 N1127 0.984 . S
H1133 N1127 0.985 . S
H1134 N1131 0.984 . S
H1135 N1131 0.985 . S
H1136 N1130 0.984 . S
H1137 N1130 0.984 . S
H1138 N1126 0.984 . S
H1139 N1126 0.985 . S
C709 C3 1.064 . S
C711 C465 1.060 . S
C727 C62 1.064 . S
C729 C524 1.060 1_565 S
C745 C121 1.064 . S
C747 C406 1.060 1_455 S
C763 C701 1.060 . S
C765 C180 1.064 . S
C781 C239 1.064 . S
C783 C583 1.060 1_565 S
C799 C642 1.060 1_455 S
C801 C298 1.064 . S
C817 C111 1.060 . S
C819 C357 1.064 . S
C835 C416 1.064 . S
C837 C170 1.060 1_545 S
C853 C52 1.060 1_655 S
C855 C475 1.064 . S
C871 C534 1.064 . S
C873 C347 1.060 . S
C889 C593 1.064 . S
C891 C229 1.060 1_545 S
C907 C288 1.060 1_655 S
C909 C652 1.064 . S
C925 C300 1.685 . S
C927 C5 1.685 . S
C943 C64 1.685 . S
C945 C182 1.685 . S
C961 C123 1.685 . S
C963 C241 1.685 . S
C979 C359 1.685 . S
C981 C654 1.685 . S
C997 C418 1.685 . S
C999 C536 1.685 . S
C1015 C477 1.685 . S
C1017 C595 1.685 . S
C1033 C33 1.827 . S
C1035 C387 1.827 . S
C1051 C92 1.827 . S
C1053 C446 1.827 . S
C1069 C151 1.827 . S
C1071 C505 1.827 . S
C1087 C210 1.827 . S
C1089 C564 1.827 . S
C1105 C623 1.827 . S
C1107 C269 1.827 . S
C1123 C328 1.827 . S
C1125 C682 1.827 . S
