# Generated by pormake.
# Topology ukd, (4)-cn, num edge types: 1
# Building blocks:
#     Node 0, Type 0, BuildingBlock: QUQFOY_clean_sbu_1, # of connection points: 4
#     Node 1, Type 0, BuildingBlock: QUQFOY_clean_sbu_1, # of connection points: 4
#     Node 2, Type 0, BuildingBlock: QUQFOY_clean_sbu_1, # of connection points: 4
#     Node 3, Type 0, BuildingBlock: QUQFOY_clean_sbu_1, # of connection points: 4
#     Node 4, Type 0, BuildingBlock: QUQFOY_clean_sbu_1, # of connection points: 4
#     Node 5, Type 0, BuildingBlock: QUQFOY_clean_sbu_1, # of connection points: 4
#     Node 6, Type 0, BuildingBlock: QUQFOY_clean_sbu_1, # of connection points: 4
#     Node 7, Type 0, BuildingBlock: QUQFOY_clean_sbu_1, # of connection points: 4
#     Node 8, Type 0, BuildingBlock: QUQFOY_clean_sbu_1, # of connection points: 4
#     Node 9, Type 0, BuildingBlock: QUQFOY_clean_sbu_1, # of connection points: 4
#     Node 10, Type 0, BuildingBlock: QUQFOY_clean_sbu_1, # of connection points: 4
#     Node 11, Type 0, BuildingBlock: QUQFOY_clean_sbu_1, # of connection points: 4
#     Node 12, Type 0, BuildingBlock: QUQFOY_clean_sbu_1, # of connection points: 4
#     Node 13, Type 0, BuildingBlock: QUQFOY_clean_sbu_1, # of connection points: 4
#     Node 14, Type 0, BuildingBlock: QUQFOY_clean_sbu_1, # of connection points: 4
#     Node 15, Type 0, BuildingBlock: QUQFOY_clean_sbu_1, # of connection points: 4
#     Node 16, Type 0, BuildingBlock: QUQFOY_clean_sbu_1, # of connection points: 4
#     Node 17, Type 0, BuildingBlock: QUQFOY_clean_sbu_1, # of connection points: 4
#     Node 18, Type 0, BuildingBlock: QUQFOY_clean_sbu_1, # of connection points: 4
#     Node 19, Type 0, BuildingBlock: QUQFOY_clean_sbu_1, # of connection points: 4
#     Node 20, Type 0, BuildingBlock: QUQFOY_clean_sbu_1, # of connection points: 4
#     Node 21, Type 0, BuildingBlock: QUQFOY_clean_sbu_1, # of connection points: 4
#     Node 22, Type 0, BuildingBlock: QUQFOY_clean_sbu_1, # of connection points: 4
#     Node 23, Type 0, BuildingBlock: QUQFOY_clean_sbu_1, # of connection points: 4
#     Node 24, Type 0, BuildingBlock: QUQFOY_clean_sbu_1, # of connection points: 4
#     Node 25, Type 0, BuildingBlock: QUQFOY_clean_sbu_1, # of connection points: 4
#     Node 26, Type 0, BuildingBlock: QUQFOY_clean_sbu_1, # of connection points: 4
#     Node 27, Type 0, BuildingBlock: QUQFOY_clean_sbu_1, # of connection points: 4
#     Node 28, Type 0, BuildingBlock: QUQFOY_clean_sbu_1, # of connection points: 4
#     Node 29, Type 0, BuildingBlock: QUQFOY_clean_sbu_1, # of connection points: 4
#     Node 30, Type 0, BuildingBlock: QUQFOY_clean_sbu_1, # of connection points: 4
#     Node 31, Type 0, BuildingBlock: QUQFOY_clean_sbu_1, # of connection points: 4
#     Edge 32, Type (0, 0), BuildingBlock: OJICUG_clean_linker_0, # of connection points: 2
#     Edge 33, Type (0, 0), BuildingBlock: OJICUG_clean_linker_0, # of connection points: 2
#     Edge 34, Type (0, 0), BuildingBlock: OJICUG_clean_linker_0, # of connection points: 2
#     Edge 35, Type (0, 0), BuildingBlock: OJICUG_clean_linker_0, # of connection points: 2
#     Edge 36, Type (0, 0), BuildingBlock: OJICUG_clean_linker_0, # of connection points: 2
#     Edge 37, Type (0, 0), BuildingBlock: OJICUG_clean_linker_0, # of connection points: 2
#     Edge 38, Type (0, 0), BuildingBlock: OJICUG_clean_linker_0, # of connection points: 2
#     Edge 39, Type (0, 0), BuildingBlock: OJICUG_clean_linker_0, # of connection points: 2
#     Edge 40, Type (0, 0), BuildingBlock: OJICUG_clean_linker_0, # of connection points: 2
#     Edge 41, Type (0, 0), BuildingBlock: OJICUG_clean_linker_0, # of connection points: 2
#     Edge 42, Type (0, 0), BuildingBlock: OJICUG_clean_linker_0, # of connection points: 2
#     Edge 43, Type (0, 0), BuildingBlock: OJICUG_clean_linker_0, # of connection points: 2
#     Edge 44, Type (0, 0), BuildingBlock: OJICUG_clean_linker_0, # of connection points: 2
#     Edge 45, Type (0, 0), BuildingBlock: OJICUG_clean_linker_0, # of connection points: 2
#     Edge 46, Type (0, 0), BuildingBlock: OJICUG_clean_linker_0, # of connection points: 2
#     Edge 47, Type (0, 0), BuildingBlock: OJICUG_clean_linker_0, # of connection points: 2
#     Edge 48, Type (0, 0), BuildingBlock: OJICUG_clean_linker_0, # of connection points: 2
#     Edge 49, Type (0, 0), BuildingBlock: OJICUG_clean_linker_0, # of connection points: 2
#     Edge 50, Type (0, 0), BuildingBlock: OJICUG_clean_linker_0, # of connection points: 2
#     Edge 51, Type (0, 0), BuildingBlock: OJICUG_clean_linker_0, # of connection points: 2
#     Edge 52, Type (0, 0), BuildingBlock: OJICUG_clean_linker_0, # of connection points: 2
#     Edge 53, Type (0, 0), BuildingBlock: OJICUG_clean_linker_0, # of connection points: 2
#     Edge 54, Type (0, 0), BuildingBlock: OJICUG_clean_linker_0, # of connection points: 2
#     Edge 55, Type (0, 0), BuildingBlock: OJICUG_clean_linker_0, # of connection points: 2
#     Edge 56, Type (0, 0), BuildingBlock: OJICUG_clean_linker_0, # of connection points: 2
#     Edge 57, Type (0, 0), BuildingBlock: OJICUG_clean_linker_0, # of connection points: 2
#     Edge 58, Type (0, 0), BuildingBlock: OJICUG_clean_linker_0, # of connection points: 2
#     Edge 59, Type (0, 0), BuildingBlock: OJICUG_clean_linker_0, # of connection points: 2
#     Edge 60, Type (0, 0), BuildingBlock: OJICUG_clean_linker_0, # of connection points: 2
#     Edge 61, Type (0, 0), BuildingBlock: OJICUG_clean_linker_0, # of connection points: 2
#     Edge 62, Type (0, 0), BuildingBlock: OJICUG_clean_linker_0, # of connection points: 2
#     Edge 63, Type (0, 0), BuildingBlock: OJICUG_clean_linker_0, # of connection points: 2
#     Edge 64, Type (0, 0), BuildingBlock: OJICUG_clean_linker_0, # of connection points: 2
#     Edge 65, Type (0, 0), BuildingBlock: OJICUG_clean_linker_0, # of connection points: 2
#     Edge 66, Type (0, 0), BuildingBlock: OJICUG_clean_linker_0, # of connection points: 2
#     Edge 67, Type (0, 0), BuildingBlock: OJICUG_clean_linker_0, # of connection points: 2
#     Edge 68, Type (0, 0), BuildingBlock: OJICUG_clean_linker_0, # of connection points: 2
#     Edge 69, Type (0, 0), BuildingBlock: OJICUG_clean_linker_0, # of connection points: 2
#     Edge 70, Type (0, 0), BuildingBlock: OJICUG_clean_linker_0, # of connection points: 2
#     Edge 71, Type (0, 0), BuildingBlock: OJICUG_clean_linker_0, # of connection points: 2
#     Edge 72, Type (0, 0), BuildingBlock: OJICUG_clean_linker_0, # of connection points: 2
#     Edge 73, Type (0, 0), BuildingBlock: OJICUG_clean_linker_0, # of connection points: 2
#     Edge 74, Type (0, 0), BuildingBlock: OJICUG_clean_linker_0, # of connection points: 2
#     Edge 75, Type (0, 0), BuildingBlock: OJICUG_clean_linker_0, # of connection points: 2
#     Edge 76, Type (0, 0), BuildingBlock: OJICUG_clean_linker_0, # of connection points: 2
#     Edge 77, Type (0, 0), BuildingBlock: OJICUG_clean_linker_0, # of connection points: 2
#     Edge 78, Type (0, 0), BuildingBlock: OJICUG_clean_linker_0, # of connection points: 2
#     Edge 79, Type (0, 0), BuildingBlock: OJICUG_clean_linker_0, # of connection points: 2
#     Edge 80, Type (0, 0), BuildingBlock: OJICUG_clean_linker_0, # of connection points: 2
#     Edge 81, Type (0, 0), BuildingBlock: OJICUG_clean_linker_0, # of connection points: 2
#     Edge 82, Type (0, 0), BuildingBlock: OJICUG_clean_linker_0, # of connection points: 2
#     Edge 83, Type (0, 0), BuildingBlock: OJICUG_clean_linker_0, # of connection points: 2
#     Edge 84, Type (0, 0), BuildingBlock: OJICUG_clean_linker_0, # of connection points: 2
#     Edge 85, Type (0, 0), BuildingBlock: OJICUG_clean_linker_0, # of connection points: 2
#     Edge 86, Type (0, 0), BuildingBlock: OJICUG_clean_linker_0, # of connection points: 2
#     Edge 87, Type (0, 0), BuildingBlock: OJICUG_clean_linker_0, # of connection points: 2
#     Edge 88, Type (0, 0), BuildingBlock: OJICUG_clean_linker_0, # of connection points: 2
#     Edge 89, Type (0, 0), BuildingBlock: OJICUG_clean_linker_0, # of connection points: 2
#     Edge 90, Type (0, 0), BuildingBlock: OJICUG_clean_linker_0, # of connection points: 2
#     Edge 91, Type (0, 0), BuildingBlock: OJICUG_clean_linker_0, # of connection points: 2
#     Edge 92, Type (0, 0), BuildingBlock: OJICUG_clean_linker_0, # of connection points: 2
#     Edge 93, Type (0, 0), BuildingBlock: OJICUG_clean_linker_0, # of connection points: 2
#     Edge 94, Type (0, 0), BuildingBlock: OJICUG_clean_linker_0, # of connection points: 2
#     Edge 95, Type (0, 0), BuildingBlock: OJICUG_clean_linker_0, # of connection points: 2
# Relax obj value: 0.012
# Max RMSD: 0.047
# Mean RMSD: 0.047
data_MOF--net-ukd--node1-QUQFOY_clean_sbu_1--edge1-OJICUG_clean_linker_0
_symmetry_space_group_name_H-M    P1
_symmetry_Int_Tables_number       1
_symmetry_cell_setting            triclinic
loop_
_symmetry_equiv_pos_as_xyz
'x, y, z'
_cell_length_a     33.991591
_cell_length_b     34.000294
_cell_length_c     57.987832
_cell_angle_alpha  90.002354
_cell_angle_beta   90.001011
_cell_angle_gamma 90.002574
loop_
_atom_site_label
_atom_site_type_symbol
_atom_site_fract_x
_atom_site_fract_y
_atom_site_fract_z
_atom_type_partial_charge
O0 O 0.19305 0.16221 0.39295 0.0
Cd1 Cd 0.23984 0.20057 0.39165 0.0
Cd2 Cd 0.20619 0.21784 0.35033 0.0
O3 O 0.17153 0.16891 0.35727 0.0
O4 O 0.2816 0.17805 0.412 0.0
O5 O 0.28759 0.18282 0.37409 0.0
C6 C 0.3017 0.17084 0.39358 0.0
C7 C 0.23098 0.23164 0.31363 0.0
C8 C 0.16958 0.15224 0.3769 0.0
C9 C 0.20626 0.28028 0.38807 0.0
O10 O 0.19438 0.26839 0.36851 0.0
O11 O 0.22762 0.25835 0.40068 0.0
O12 O 0.19395 0.23433 0.31809 0.0
O13 O 0.25381 0.2185 0.3297 0.0
O14 O 0.11132 0.94261 0.64286 0.0
Cd15 Cd 0.07289 0.98935 0.64154 0.0
Cd16 Cd 0.05567 0.95572 0.60024 0.0
O17 O 0.10465 0.92111 0.60717 0.0
O18 O 0.09537 0.03116 0.66187 0.0
O19 O 0.09059 0.03707 0.62395 0.0
C20 C 0.10256 0.05123 0.64344 0.0
C21 C 0.04188 0.98061 0.56356 0.0
C22 C 0.12132 0.91918 0.6268 0.0
C23 C 0.99319 0.95569 0.63796 0.0
O24 O 1.00511 0.94382 0.6184 0.0
O25 O 0.01511 0.97708 0.65056 0.0
O26 O 0.03922 0.94357 0.56798 0.0
O27 O 0.055 1.00339 0.57966 0.0
O28 O 0.33079 0.86117 0.89285 0.0
Cd29 Cd 0.284 0.8228 0.8915 0.0
Cd30 Cd 0.31772 0.80555 0.85022 0.0
O31 O 0.35236 0.85448 0.85718 0.0
O32 O 0.24215 0.84531 0.91179 0.0
O33 O 0.23632 0.84052 0.87387 0.0
C34 C 0.22213 0.8525 0.89334 0.0
C35 C 0.2929 0.79176 0.81353 0.0
C36 C 0.35427 0.87116 0.87681 0.0
C37 C 0.31762 0.74309 0.88795 0.0
O38 O 0.32954 0.755 0.8684 0.0
O39 O 0.29622 0.76502 0.90054 0.0
O40 O 0.32994 0.78907 0.81797 0.0
O41 O 0.27008 0.80489 0.8296 0.0
O42 O 0.41232 0.08089 0.14281 0.0
Cd43 Cd 0.45075 0.03416 0.14148 0.0
Cd44 Cd 0.46795 0.06784 0.10019 0.0
O45 O 0.41897 0.10243 0.10713 0.0
O46 O 0.42828 0.99234 0.1618 0.0
O47 O 0.43306 0.98645 0.12388 0.0
C48 C 0.42109 0.97229 0.14336 0.0
C49 C 0.48176 0.04293 0.06351 0.0
C50 C 0.4023 0.10434 0.12676 0.0
C51 C 0.53044 0.06785 0.1379 0.0
O52 O 0.51851 0.07974 0.11835 0.0
O53 O 0.50854 0.04645 0.1505 0.0
O54 O 0.48441 0.07998 0.06792 0.0
O55 O 0.46864 0.02016 0.07962 0.0
O56 O 0.1928 0.86127 0.14795 0.0
Cd57 Cd 0.23959 0.82291 0.14933 0.0
Cd58 Cd 0.20592 0.80578 0.19063 0.0
O59 O 0.17127 0.8547 0.18364 0.0
O60 O 0.28143 0.84537 0.12902 0.0
O61 O 0.28727 0.84067 0.16694 0.0
C62 C 0.30146 0.85261 0.14746 0.0
C63 C 0.23079 0.79207 0.22733 0.0
C64 C 0.16933 0.8713 0.16399 0.0
C65 C 0.20597 0.74322 0.15297 0.0
O66 O 0.19406 0.75518 0.17251 0.0
O67 O 0.22737 0.7651 0.14035 0.0
O68 O 0.19374 0.78938 0.2229 0.0
O69 O 0.25358 0.80517 0.21123 0.0
O70 O 0.41251 0.94253 0.39834 0.0
Cd71 Cd 0.45094 0.98926 0.39972 0.0
Cd72 Cd 0.4681 0.95547 0.44099 0.0
O73 O 0.41913 0.92088 0.434 0.0
O74 O 0.42851 0.03108 0.37938 0.0
O75 O 0.4332 0.03698 0.4173 0.0
C76 C 0.42128 0.05114 0.39781 0.0
C77 C 0.48183 0.98035 0.47768 0.0
C78 C 0.40248 0.91903 0.41436 0.0
C79 C 0.53063 0.95556 0.40331 0.0
O80 O 0.51868 0.94362 0.42285 0.0
O81 O 0.50874 0.977 0.39072 0.0
O82 O 0.4845 0.9433 0.47326 0.0
O83 O 0.46873 1.00313 0.46158 0.0
O84 O 0.33085 0.1622 0.64822 0.0
Cd85 Cd 0.28407 0.20059 0.64949 0.0
Cd86 Cd 0.31774 0.218 0.69077 0.0
O87 O 0.3524 0.16905 0.68389 0.0
O88 O 0.24231 0.17803 0.62915 0.0
O89 O 0.23631 0.18291 0.66707 0.0
C90 C 0.22221 0.17089 0.64758 0.0
C91 C 0.29287 0.23187 0.72745 0.0
C92 C 0.35432 0.15229 0.66429 0.0
C93 C 0.31768 0.28032 0.65297 0.0
O94 O 0.32956 0.2685 0.67255 0.0
O95 O 0.29632 0.25834 0.64039 0.0
O96 O 0.32991 0.23457 0.72302 0.0
O97 O 0.27007 0.21868 0.71137 0.0
O98 O 0.11123 0.08078 0.89796 0.0
Cd99 Cd 0.07281 0.03403 0.89923 0.0
Cd100 Cd 0.05553 0.06761 0.94055 0.0
O101 O 0.10451 0.10224 0.93365 0.0
O102 O 0.09533 0.99222 0.87893 0.0
O103 O 0.09047 0.98631 0.91684 0.0
C104 C 0.10248 0.97216 0.89737 0.0
C105 C 0.04168 0.04273 0.97722 0.0
C106 C 0.12121 0.1042 0.91403 0.0
C107 C 0.9931 0.06767 0.9028 0.0
O108 O 1.00499 0.0795 0.92237 0.0
O109 O 0.01504 0.04631 0.89018 0.0
O110 O 0.03902 0.07977 0.9728 0.0
O111 O 0.05483 0.01995 0.96114 0.0
O112 O 0.8296 0.75495 0.67265 0.0
Cd113 Cd 0.81775 0.80549 0.69082 0.0
Cd114 Cd 0.78406 0.82273 0.64953 0.0
O115 O 0.7963 0.76496 0.6405 0.0
O116 O 0.82993 0.78902 0.72308 0.0
O117 O 0.77009 0.80482 0.71142 0.0
C118 C 0.79289 0.79169 0.72751 0.0
C119 C 0.72219 0.85243 0.64767 0.0
C120 C 0.8177 0.74304 0.65309 0.0
C121 C 0.8543 0.87111 0.66425 0.0
O122 O 0.83083 0.86112 0.6482 0.0
O123 O 0.85238 0.85444 0.68388 0.0
O124 O 0.74223 0.84524 0.62923 0.0
O125 O 0.73636 0.84045 0.66715 0.0
O126 O 0.91249 0.08078 0.39819 0.0
Cd127 Cd 0.95092 0.03405 0.39954 0.0
Cd128 Cd 0.96809 0.06775 0.44084 0.0
O129 O 0.91911 0.10234 0.43387 0.0
O130 O 0.92848 0.99222 0.37922 0.0
O131 O 0.93322 0.98634 0.41715 0.0
C132 C 0.92128 0.97217 0.39766 0.0
C133 C 0.98184 0.04287 0.47752 0.0
C134 C 0.90246 0.10424 0.41424 0.0
C135 C 0.03061 0.06774 0.40315 0.0
O136 O 0.01867 0.07964 0.4227 0.0
O137 O 1.00872 0.04633 0.39054 0.0
O138 O 0.9845 0.07991 0.47311 0.0
O139 O 0.96874 0.02008 0.46142 0.0
O140 O 0.69413 0.26853 0.17258 0.0
Cd141 Cd 0.706 0.21797 0.19074 0.0
Cd142 Cd 0.73962 0.20074 0.14942 0.0
O143 O 0.72737 0.25852 0.1404 0.0
O144 O 0.69384 0.23444 0.223 0.0
O145 O 0.75367 0.21862 0.21133 0.0
C146 C 0.73088 0.23175 0.22742 0.0
C147 C 0.80147 0.17102 0.14746 0.0
C148 C 0.706 0.28044 0.15302 0.0
C149 C 0.66938 0.15238 0.16417 0.0
O150 O 0.69283 0.16237 0.14811 0.0
O151 O 0.67134 0.16904 0.1838 0.0
O152 O 0.78136 0.17824 0.12904 0.0
O153 O 0.78739 0.18299 0.16696 0.0
O154 O 0.61131 0.94263 0.8982 0.0
Cd155 Cd 0.57288 0.98937 0.89952 0.0
Cd156 Cd 0.55568 0.95572 0.94083 0.0
O157 O 0.60465 0.92112 0.93389 0.0
O158 O 0.59534 0.03115 0.87917 0.0
O159 O 0.5906 0.03712 0.91709 0.0
C160 C 0.60254 0.05125 0.89759 0.0
C161 C 0.54189 0.98063 0.9775 0.0
C162 C 0.62132 0.91919 0.91426 0.0
C163 C 0.49318 0.9557 0.90312 0.0
O164 O 0.50511 0.94382 0.92267 0.0
O165 O 0.51509 0.97709 0.89051 0.0
O166 O 0.53923 0.94359 0.97309 0.0
O167 O 0.55501 1.00341 0.9614 0.0
O168 O 0.82952 0.26853 0.86833 0.0
Cd169 Cd 0.81767 0.21804 0.8501 0.0
Cd170 Cd 0.784 0.20065 0.89139 0.0
O171 O 0.79627 0.25839 0.90048 0.0
O172 O 0.82986 0.23462 0.81786 0.0
O173 O 0.77001 0.21876 0.8295 0.0
C174 C 0.79281 0.23195 0.81343 0.0
C175 C 0.72214 0.17094 0.89334 0.0
C176 C 0.81764 0.28036 0.8879 0.0
C177 C 0.85423 0.15232 0.87658 0.0
O178 O 0.83077 0.16225 0.89264 0.0
O179 O 0.85231 0.16908 0.85698 0.0
O180 O 0.74228 0.1781 0.91176 0.0
O181 O 0.73621 0.18296 0.87385 0.0
O182 O 0.61136 0.08075 0.643 0.0
Cd183 Cd 0.57293 0.03401 0.64172 0.0
Cd184 Cd 0.55571 0.06754 0.60039 0.0
O185 O 0.60469 0.10216 0.6073 0.0
O186 O 0.59543 0.9922 0.66204 0.0
O187 O 0.5906 0.98628 0.62412 0.0
C188 C 0.60258 0.97213 0.6436 0.0
C189 C 0.5419 0.04262 0.56371 0.0
C190 C 0.62136 0.10415 0.62692 0.0
C191 C 0.49323 0.06765 0.63811 0.0
O192 O 0.50515 0.07947 0.61854 0.0
O193 O 0.51515 0.0463 0.65074 0.0
O194 O 0.53925 0.07967 0.56812 0.0
O195 O 0.55502 0.01985 0.57982 0.0
O196 O 0.69433 0.75502 0.36845 0.0
Cd197 Cd 0.70617 0.80562 0.35033 0.0
Cd198 Cd 0.73983 0.82274 0.39165 0.0
O199 O 0.72759 0.76494 0.40063 0.0
O200 O 0.69393 0.78922 0.31807 0.0
O201 O 0.7538 0.805 0.3297 0.0
C202 C 0.73097 0.7919 0.31362 0.0
C203 C 0.80169 0.85245 0.39353 0.0
C204 C 0.70621 0.74305 0.388 0.0
C205 C 0.66958 0.87114 0.37697 0.0
O206 O 0.69304 0.8611 0.39302 0.0
O207 O 0.67153 0.85453 0.35733 0.0
O208 O 0.78166 0.84521 0.41197 0.0
O209 O 0.78752 0.8405 0.37405 0.0
O210 O 0.91226 0.94269 0.14261 0.0
Cd211 Cd 0.95069 0.98942 0.14124 0.0
Cd212 Cd 0.96785 0.95567 0.09996 0.0
O213 O 0.91888 0.92107 0.10694 0.0
O214 O 0.92826 0.03122 0.1616 0.0
O215 O 0.93294 0.03716 0.12367 0.0
C216 C 0.92103 0.0513 0.14317 0.0
C217 C 0.98158 0.98052 0.06327 0.0
C218 C 0.90223 0.9192 0.12658 0.0
C219 C 0.03038 0.95573 0.13764 0.0
O220 O 0.01843 0.9438 0.1181 0.0
O221 O 1.00849 0.97716 0.15024 0.0
O222 O 0.98425 0.94348 0.06769 0.0
O223 O 0.96849 1.00332 0.07937 0.0
O224 O 0.6927 0.66224 0.89287 0.0
Cd225 Cd 0.73949 0.70061 0.89155 0.0
Cd226 Cd 0.70583 0.71785 0.85025 0.0
O227 O 0.67117 0.66891 0.85719 0.0
O228 O 0.78126 0.67812 0.91191 0.0
O229 O 0.78723 0.68287 0.87399 0.0
C230 C 0.80135 0.67091 0.89348 0.0
C231 C 0.73069 0.73162 0.81356 0.0
C232 C 0.66924 0.65225 0.87682 0.0
C233 C 0.70587 0.78032 0.88797 0.0
O234 O 0.69398 0.76841 0.86841 0.0
O235 O 0.72725 0.7584 0.90057 0.0
O236 O 0.69364 0.73431 0.81799 0.0
O237 O 0.75349 0.71849 0.82965 0.0
O238 O 0.61135 0.4427 0.14281 0.0
Cd239 Cd 0.57291 0.48943 0.14151 0.0
Cd240 Cd 0.55567 0.45578 0.10021 0.0
O241 O 0.60466 0.42119 0.10713 0.0
O242 O 0.59539 0.53122 0.16185 0.0
O243 O 0.5906 0.53718 0.12394 0.0
C244 C 0.60257 0.55131 0.14343 0.0
C245 C 0.54184 0.48065 0.06353 0.0
C246 C 0.62135 0.41926 0.12676 0.0
C247 C 0.49321 0.45575 0.13794 0.0
O248 O 0.50513 0.44387 0.11838 0.0
O249 O 0.51513 0.47715 0.15054 0.0
O250 O 0.53919 0.44361 0.06795 0.0
O251 O 0.55496 0.50344 0.07962 0.0
O252 O 0.83105 0.36111 0.39281 0.0
Cd253 Cd 0.78426 0.32275 0.39144 0.0
Cd254 Cd 0.81799 0.30552 0.35017 0.0
O255 O 0.85264 0.35444 0.35714 0.0
O256 O 0.7424 0.34526 0.41173 0.0
O257 O 0.73659 0.3405 0.3738 0.0
C258 C 0.72239 0.35247 0.39328 0.0
C259 C 0.79313 0.29177 0.31348 0.0
C260 C 0.85455 0.3711 0.37678 0.0
C261 C 0.81787 0.24305 0.38788 0.0
O262 O 0.8298 0.25496 0.36834 0.0
O263 O 0.79646 0.26497 0.40047 0.0
O264 O 0.83017 0.28906 0.31791 0.0
O265 O 0.77033 0.3049 0.32957 0.0
O266 O 0.91232 0.58077 0.64282 0.0
Cd267 Cd 0.95074 0.53403 0.6415 0.0
Cd268 Cd 0.96796 0.5677 0.60021 0.0
O269 O 0.91898 0.6023 0.60714 0.0
O270 O 0.92825 0.49223 0.66183 0.0
O271 O 0.93304 0.48631 0.6239 0.0
C272 C 0.92106 0.47216 0.64339 0.0
C273 C 0.98179 0.5428 0.56353 0.0
C274 C 0.90231 0.60422 0.62677 0.0
C275 C 0.03044 0.5677 0.63792 0.0
O276 O 0.01851 0.57959 0.61837 0.0
O277 O 1.00853 0.5463 0.65052 0.0
O278 O 0.98444 0.57985 0.56794 0.0
O279 O 0.96866 0.52002 0.57963 0.0
O280 O 0.69275 0.36115 0.64795 0.0
Cd281 Cd 0.73954 0.3228 0.64936 0.0
Cd282 Cd 0.70584 0.30574 0.69066 0.0
O283 O 0.67121 0.35465 0.68364 0.0
O284 O 0.7814 0.34524 0.62905 0.0
O285 O 0.7872 0.34059 0.66698 0.0
C286 C 0.80141 0.3525 0.6475 0.0
C287 C 0.73066 0.29207 0.72737 0.0
C288 C 0.66928 0.37122 0.66398 0.0
C289 C 0.70593 0.24311 0.65303 0.0
O290 O 0.694 0.25511 0.67256 0.0
O291 O 0.72734 0.26497 0.64041 0.0
O292 O 0.69362 0.28939 0.72293 0.0
O293 O 0.75348 0.30515 0.71128 0.0
O294 O 0.91222 0.44263 0.8983 0.0
Cd295 Cd 0.95064 0.48937 0.89963 0.0
Cd296 Cd 0.96787 0.45564 0.94091 0.0
O297 O 0.9189 0.42103 0.93396 0.0
O298 O 0.92818 0.53116 0.87929 0.0
O299 O 0.93292 0.53711 0.9172 0.0
C300 C 0.92097 0.55124 0.89771 0.0
C301 C 0.98167 0.48053 0.97759 0.0
C302 C 0.90222 0.41915 0.91433 0.0
C303 C 0.03035 0.45569 0.9032 0.0
O304 O 0.01843 0.44378 0.92274 0.0
O305 O 1.00843 0.47711 0.89061 0.0
O306 O 0.98434 0.44349 0.97317 0.0
O307 O 0.96854 0.50331 0.96149 0.0
O308 O 0.83086 0.6623 0.14823 0.0
Cd309 Cd 0.78408 0.70068 0.14953 0.0
Cd310 Cd 0.81779 0.71804 0.19081 0.0
O311 O 0.85244 0.6691 0.18389 0.0
O312 O 0.74231 0.67815 0.12919 0.0
O313 O 0.73633 0.68297 0.1671 0.0
C314 C 0.72221 0.67098 0.14762 0.0
C315 C 0.793 0.73188 0.22751 0.0
C316 C 0.85435 0.65237 0.16428 0.0
C317 C 0.81769 0.78041 0.15304 0.0
O318 O 0.8296 0.76855 0.1726 0.0
O319 O 0.79631 0.75844 0.14046 0.0
O320 O 0.83003 0.73458 0.22305 0.0
O321 O 0.77017 0.71871 0.21144 0.0
O322 O 0.61156 0.58076 0.39798 0.0
Cd323 Cd 0.57311 0.53403 0.39921 0.0
Cd324 Cd 0.55575 0.56758 0.44053 0.0
O325 O 0.60475 0.6022 0.43367 0.0
O326 O 0.59566 0.49225 0.37889 0.0
O327 O 0.59072 0.48627 0.4168 0.0
C328 C 0.60277 0.47215 0.39732 0.0
C329 C 0.54182 0.54268 0.47719 0.0
C330 C 0.62151 0.60416 0.41407 0.0
C331 C 0.4934 0.56767 0.40273 0.0
O332 O 0.50525 0.57949 0.42231 0.0
O333 O 0.51536 0.54633 0.39012 0.0
O334 O 0.53918 0.57972 0.47277 0.0
O335 O 0.55499 0.5199 0.4611 0.0
O336 O 0.32959 0.25503 0.17265 0.0
Cd337 Cd 0.31777 0.30557 0.19083 0.0
Cd338 Cd 0.28405 0.32284 0.14954 0.0
O339 O 0.29628 0.26507 0.1405 0.0
O340 O 0.33003 0.28908 0.22308 0.0
O341 O 0.27015 0.3049 0.21147 0.0
C342 C 0.29299 0.29176 0.22754 0.0
C343 C 0.22219 0.35255 0.14765 0.0
C344 C 0.31768 0.24314 0.15309 0.0
C345 C 0.35432 0.37119 0.16426 0.0
O346 O 0.33084 0.36122 0.14821 0.0
O347 O 0.35241 0.35452 0.18388 0.0
O348 O 0.24226 0.34535 0.12922 0.0
O349 O 0.23634 0.34058 0.16714 0.0
O350 O 0.41218 0.5808 0.89821 0.0
Cd351 Cd 0.45061 0.53406 0.89953 0.0
Cd352 Cd 0.46783 0.56773 0.94083 0.0
O353 O 0.41886 0.60233 0.93389 0.0
O354 O 0.42814 0.49227 0.87919 0.0
O355 O 0.43291 0.48632 0.91711 0.0
C356 C 0.42095 0.47218 0.89761 0.0
C357 C 0.48164 0.54286 0.97751 0.0
C358 C 0.40218 0.60425 0.91426 0.0
C359 C 0.53031 0.56773 0.90311 0.0
O360 O 0.51839 0.57962 0.92267 0.0
O361 O 0.5084 0.54634 0.89051 0.0
O362 O 0.4843 0.5799 0.97309 0.0
O363 O 0.46852 0.52007 0.96142 0.0
O364 O 0.19408 0.76841 0.67261 0.0
Cd365 Cd 0.20595 0.71785 0.69076 0.0
Cd366 Cd 0.23958 0.70063 0.64944 0.0
O367 O 0.22732 0.75842 0.64043 0.0
O368 O 0.19374 0.73432 0.72302 0.0
O369 O 0.2536 0.71853 0.71137 0.0
C370 C 0.23079 0.73165 0.72746 0.0
C371 C 0.30143 0.67093 0.64746 0.0
C372 C 0.20595 0.78033 0.65305 0.0
C373 C 0.16935 0.65225 0.6642 0.0
O374 O 0.1928 0.66225 0.64814 0.0
O375 O 0.17131 0.66891 0.68382 0.0
O376 O 0.28131 0.67815 0.62905 0.0
O377 O 0.28736 0.68288 0.66697 0.0
O378 O 0.11162 0.44254 0.39829 0.0
Cd379 Cd 0.07318 0.48927 0.39958 0.0
Cd380 Cd 0.05592 0.45561 0.44088 0.0
O381 O 0.10492 0.42102 0.43397 0.0
O382 O 0.09564 0.53102 0.37921 0.0
O383 O 0.09088 0.53705 0.41712 0.0
C384 C 0.10283 0.55115 0.39762 0.0
C385 C 0.04207 0.48052 0.47755 0.0
C386 C 0.12162 0.4191 0.41435 0.0
C387 C 0.99348 0.45557 0.40315 0.0
O388 O 1.00538 0.44369 0.42271 0.0
O389 O 0.0154 0.47697 0.39055 0.0
O390 O 0.03943 0.44347 0.47314 0.0
O391 O 0.0552 0.5033 0.46145 0.0
O392 O 0.32977 0.76849 0.36826 0.0
Cd393 Cd 0.31794 0.71801 0.35002 0.0
Cd394 Cd 0.28426 0.70057 0.39131 0.0
O395 O 0.29652 0.75831 0.40041 0.0
O396 O 0.33009 0.73462 0.31778 0.0
O397 O 0.27026 0.71872 0.32943 0.0
C398 C 0.29304 0.73193 0.31335 0.0
C399 C 0.22241 0.67085 0.39329 0.0
C400 C 0.31789 0.7803 0.38784 0.0
C401 C 0.35452 0.65229 0.37648 0.0
O402 O 0.33104 0.66218 0.39254 0.0
O403 O 0.35261 0.66906 0.35688 0.0
O404 O 0.24257 0.67801 0.41169 0.0
O405 O 0.23644 0.68287 0.37379 0.0
O406 O 0.11138 0.58088 0.14287 0.0
Cd407 Cd 0.07295 0.53414 0.14159 0.0
Cd408 Cd 0.05569 0.56772 0.10027 0.0
O409 O 0.10467 0.60234 0.10718 0.0
O410 O 0.09545 0.49236 0.16192 0.0
O411 O 0.09062 0.48639 0.12401 0.0
C412 C 0.10261 0.47227 0.1435 0.0
C413 C 0.04185 0.54281 0.0636 0.0
C414 C 0.12136 0.6043 0.1268 0.0
C415 C 0.99324 0.56779 0.13801 0.0
O416 O 1.00514 0.57963 0.11844 0.0
O417 O 0.01517 0.54643 0.15062 0.0
O418 O 0.03919 0.57986 0.06801 0.0
O419 O 0.05498 0.52004 0.0797 0.0
O420 O 0.19394 0.25506 0.86833 0.0
Cd421 Cd 0.2058 0.30565 0.8502 0.0
Cd422 Cd 0.23948 0.32278 0.89151 0.0
O423 O 0.22723 0.26498 0.90049 0.0
O424 O 0.19361 0.28925 0.81793 0.0
O425 O 0.25346 0.30503 0.8296 0.0
C426 C 0.23066 0.29193 0.81351 0.0
C427 C 0.30134 0.35248 0.89342 0.0
C428 C 0.20584 0.2431 0.88787 0.0
C429 C 0.16924 0.3712 0.87683 0.0
O430 O 0.1927 0.36116 0.89287 0.0
O431 O 0.17117 0.35458 0.85719 0.0
O432 O 0.28129 0.34524 0.91185 0.0
O433 O 0.28719 0.34055 0.87393 0.0
O434 O 0.41223 0.4426 0.64252 0.0
Cd435 Cd 0.45066 0.48934 0.64116 0.0
Cd436 Cd 0.46783 0.45557 0.59988 0.0
O437 O 0.41886 0.42098 0.60686 0.0
O438 O 0.42823 0.53112 0.66153 0.0
O439 O 0.43291 0.53709 0.62361 0.0
C440 C 0.421 0.55121 0.64311 0.0
C441 C 0.48159 0.48044 0.56319 0.0
C442 C 0.4022 0.41911 0.62649 0.0
C443 C 0.53035 0.45564 0.63757 0.0
O444 O 0.5184 0.4437 0.61803 0.0
O445 O 0.50846 0.47707 0.65016 0.0
O446 O 0.48425 0.4434 0.56761 0.0
O447 O 0.46849 0.50323 0.57929 0.0
C448 C 0.16358 0.38222 0.38639 0.0
C449 C 0.14977 0.38694 0.40908 0.0
H450 H 0.19252 0.34481 0.36212 0.0
C451 C 0.16002 0.35855 0.42572 0.0
H452 H 0.15669 0.40357 0.37314 0.0
C453 C 0.18133 0.32488 0.41937 0.0
C454 C 0.19218 0.31894 0.39625 0.0
H455 H 0.15005 0.3614 0.44338 0.0
H456 H 0.18698 0.30239 0.43219 0.0
C457 C 0.18422 0.34851 0.38004 0.0
C458 C 0.92498 0.93357 0.62991 0.0
C459 C 0.95453 0.9416 0.64613 0.0
H460 H 0.86991 0.90602 0.623 0.0
C461 C 0.94856 0.93082 0.66926 0.0
H462 H 0.9287 0.94183 0.61199 0.0
C463 C 0.91487 0.90952 0.67561 0.0
C464 C 0.88649 0.89922 0.65897 0.0
H465 H 0.97103 0.93651 0.68208 0.0
H466 H 0.91199 0.89961 0.69328 0.0
C467 C 0.89125 0.91296 0.63627 0.0
C468 C 0.36028 0.64115 0.88629 0.0
C469 C 0.37405 0.63642 0.90899 0.0
H470 H 0.33139 0.67858 0.862 0.0
C471 C 0.36377 0.66481 0.92562 0.0
H472 H 0.36719 0.6198 0.87303 0.0
C473 C 0.34248 0.69849 0.91926 0.0
C474 C 0.33167 0.70444 0.89613 0.0
H475 H 0.37371 0.66195 0.94329 0.0
H476 H 0.33681 0.72097 0.93207 0.0
C477 C 0.33966 0.67487 0.87992 0.0
C478 C 0.5751 0.09272 0.16919 0.0
C479 C 0.56911 0.08193 0.14607 0.0
H480 H 0.61168 0.12393 0.19321 0.0
C481 C 0.59867 0.08993 0.12984 0.0
H482 H 0.55262 0.08705 0.18201 0.0
C483 C 0.63241 0.11053 0.1362 0.0
C484 C 0.63718 0.12428 0.1589 0.0
H485 H 0.59493 0.08166 0.11193 0.0
H486 H 0.65375 0.11744 0.12293 0.0
C487 C 0.60879 0.114 0.17555 0.0
C488 C 0.1839 0.67502 0.16107 0.0
C489 C 0.1919 0.70454 0.14482 0.0
H490 H 0.15635 0.61998 0.16802 0.0
C491 C 0.18108 0.69852 0.1217 0.0
H492 H 0.19217 0.67879 0.17898 0.0
C493 C 0.15978 0.66483 0.11537 0.0
C494 C 0.1495 0.63649 0.13204 0.0
H495 H 0.18676 0.72096 0.10887 0.0
H496 H 0.14984 0.66192 0.09771 0.0
C497 C 0.16327 0.64129 0.15474 0.0
C498 C 0.59884 0.93343 0.41137 0.0
C499 C 0.5693 0.94151 0.39514 0.0
H500 H 0.6539 0.90588 0.41826 0.0
C501 C 0.57532 0.93082 0.372 0.0
H502 H 0.59508 0.94162 0.4293 0.0
C503 C 0.60902 0.90957 0.36563 0.0
C504 C 0.63738 0.89921 0.38228 0.0
H505 H 0.55286 0.93656 0.35918 0.0
H506 H 0.61193 0.89973 0.34795 0.0
C507 C 0.63258 0.91286 0.405 0.0
C508 C 0.34253 0.32483 0.62161 0.0
C509 C 0.33174 0.31895 0.64475 0.0
H510 H 0.37373 0.3613 0.59754 0.0
C511 C 0.33973 0.34857 0.66093 0.0
H512 H 0.33685 0.30231 0.60882 0.0
C513 C 0.36033 0.38228 0.65452 0.0
C514 C 0.37409 0.38694 0.63181 0.0
H515 H 0.33147 0.34492 0.67885 0.0
H516 H 0.36725 0.40368 0.66775 0.0
C517 C 0.36381 0.3585 0.61521 0.0
C518 C 0.94852 0.09269 0.87151 0.0
C519 C 0.95445 0.08176 0.89462 0.0
H520 H 0.91201 0.12404 0.84753 0.0
C521 C 0.92484 0.08965 0.91083 0.0
H522 H 0.97103 0.08711 0.8587 0.0
C523 C 0.89112 0.11029 0.90449 0.0
C524 C 0.88642 0.12418 0.88182 0.0
H525 H 0.92853 0.08127 0.92874 0.0
H526 H 0.86975 0.11712 0.91775 0.0
C527 C 0.91484 0.11401 0.86517 0.0
C528 C 0.8604 0.64111 0.65475 0.0
C529 C 0.87417 0.63639 0.63205 0.0
H530 H 0.8315 0.67853 0.67904 0.0
C531 C 0.86389 0.66478 0.61541 0.0
H532 H 0.86733 0.61976 0.66801 0.0
C533 C 0.84259 0.69845 0.62178 0.0
C534 C 0.83178 0.70439 0.6449 0.0
H535 H 0.87382 0.66192 0.59775 0.0
H536 H 0.83691 0.72093 0.60897 0.0
C537 C 0.83978 0.67482 0.66112 0.0
C538 C 0.109 0.11386 0.36552 0.0
C539 C 0.13737 0.12415 0.38217 0.0
H540 H 0.05284 0.0869 0.35903 0.0
C541 C 0.13257 0.11043 0.40487 0.0
H542 H 0.11191 0.12376 0.34785 0.0
C543 C 0.09883 0.08983 0.41122 0.0
C544 C 0.06929 0.08181 0.39499 0.0
H545 H 0.1539 0.11736 0.41814 0.0
H546 H 0.09507 0.08159 0.42914 0.0
C547 C 0.0753 0.09259 0.37186 0.0
C548 C 0.66328 0.38236 0.15472 0.0
C549 C 0.64949 0.3871 0.13202 0.0
H550 H 0.69221 0.34493 0.17898 0.0
C551 C 0.65977 0.35872 0.11538 0.0
H552 H 0.65637 0.4037 0.16798 0.0
C553 C 0.68109 0.32505 0.12172 0.0
C554 C 0.69191 0.31909 0.14485 0.0
H555 H 0.64982 0.36159 0.09771 0.0
H556 H 0.68675 0.30258 0.1089 0.0
C557 C 0.68392 0.34865 0.16107 0.0
C558 C 0.42498 0.93356 0.91117 0.0
C559 C 0.45452 0.94161 0.89495 0.0
H560 H 0.36991 0.906 0.91807 0.0
C561 C 0.44853 0.93085 0.87182 0.0
H562 H 0.42872 0.94179 0.9291 0.0
C563 C 0.41484 0.90957 0.86546 0.0
C564 C 0.38647 0.89925 0.8821 0.0
H565 H 0.47099 0.93656 0.859 0.0
H566 H 0.41195 0.89968 0.84778 0.0
C567 C 0.39124 0.91296 0.90481 0.0
C568 C 0.86385 0.35853 0.92564 0.0
C569 C 0.87409 0.38698 0.90903 0.0
H570 H 0.83692 0.30235 0.93204 0.0
C571 C 0.86029 0.38232 0.88634 0.0
H572 H 0.87382 0.36134 0.94331 0.0
C573 C 0.83967 0.34862 0.87994 0.0
C574 C 0.83171 0.31899 0.89613 0.0
H575 H 0.86717 0.40372 0.8731 0.0
H576 H 0.83136 0.34497 0.86202 0.0
C577 C 0.84256 0.32487 0.91925 0.0
C578 C 0.39128 0.11032 0.63637 0.0
C579 C 0.38652 0.12417 0.65905 0.0
H580 H 0.42873 0.08135 0.61213 0.0
C581 C 0.41491 0.11396 0.6757 0.0
H582 H 0.36993 0.11719 0.6231 0.0
C583 C 0.4486 0.09265 0.66938 0.0
C584 C 0.45457 0.08176 0.64627 0.0
H585 H 0.41204 0.12395 0.69336 0.0
H586 H 0.47108 0.08703 0.6822 0.0
C587 C 0.425 0.08969 0.63003 0.0
C588 C 0.68122 0.69837 0.41923 0.0
C589 C 0.69213 0.70437 0.39613 0.0
H590 H 0.64986 0.6618 0.44318 0.0
C591 C 0.68421 0.67484 0.37988 0.0
H592 H 0.68683 0.72083 0.43207 0.0
C593 C 0.66355 0.64111 0.38619 0.0
C594 C 0.64967 0.63634 0.40886 0.0
H595 H 0.69256 0.67859 0.36198 0.0
H596 H 0.65669 0.6198 0.3729 0.0
C597 C 0.65988 0.66469 0.42554 0.0
C598 C 0.10877 0.90974 0.17533 0.0
C599 C 0.13712 0.89937 0.15868 0.0
H600 H 0.05263 0.93675 0.18178 0.0
C601 C 0.13232 0.91299 0.13596 0.0
H602 H 0.11169 0.89992 0.19301 0.0
C603 C 0.09858 0.93357 0.12959 0.0
C604 C 0.06905 0.94167 0.14581 0.0
H605 H 0.15363 0.90599 0.1227 0.0
H606 H 0.09482 0.94173 0.11165 0.0
C607 C 0.07507 0.931 0.16896 0.0
C608 C 0.68102 0.82495 0.91927 0.0
C609 C 0.69181 0.81898 0.89614 0.0
H610 H 0.64981 0.86151 0.94329 0.0
C611 C 0.6838 0.84853 0.87992 0.0
H612 H 0.6867 0.80248 0.93208 0.0
C613 C 0.66319 0.88225 0.88628 0.0
C614 C 0.64944 0.88701 0.90898 0.0
H615 H 0.69207 0.84481 0.862 0.0
H616 H 0.65627 0.90359 0.87302 0.0
C617 C 0.65973 0.85863 0.92562 0.0
C618 C 0.42499 0.43364 0.1299 0.0
C619 C 0.45456 0.44166 0.14612 0.0
H620 H 0.36992 0.4061 0.12301 0.0
C621 C 0.4486 0.43088 0.16925 0.0
H622 H 0.42871 0.4419 0.11198 0.0
C623 C 0.41491 0.40959 0.17561 0.0
C624 C 0.38652 0.3993 0.15897 0.0
H625 H 0.47107 0.43656 0.18206 0.0
H626 H 0.41204 0.39968 0.19328 0.0
C627 C 0.39126 0.41304 0.13627 0.0
C628 C 0.86059 0.14113 0.38624 0.0
C629 C 0.87432 0.1364 0.40894 0.0
H630 H 0.83172 0.17854 0.36194 0.0
C631 C 0.864 0.16478 0.42558 0.0
H632 H 0.86754 0.11978 0.37298 0.0
C633 C 0.8427 0.19845 0.4192 0.0
C634 C 0.83193 0.2044 0.39607 0.0
H635 H 0.87391 0.16193 0.44325 0.0
H636 H 0.837 0.22092 0.43201 0.0
C637 C 0.83996 0.17483 0.37986 0.0
C638 C 0.10878 0.61387 0.67557 0.0
C639 C 0.13716 0.62414 0.65892 0.0
H640 H 0.05261 0.58691 0.68204 0.0
C641 C 0.13239 0.61038 0.63623 0.0
H642 H 0.11166 0.62379 0.69324 0.0
C643 C 0.09866 0.58977 0.62987 0.0
C644 C 0.0691 0.58177 0.6461 0.0
H645 H 0.15374 0.6173 0.62296 0.0
H646 H 0.09493 0.5815 0.61195 0.0
C647 C 0.07508 0.59258 0.66922 0.0
C648 C 0.6598 0.16465 0.61548 0.0
C649 C 0.64949 0.13634 0.63216 0.0
H650 H 0.68678 0.22076 0.60894 0.0
C651 C 0.66323 0.14119 0.65486 0.0
H652 H 0.64988 0.1617 0.59781 0.0
C653 C 0.68385 0.17494 0.66117 0.0
C654 C 0.69187 0.20442 0.64491 0.0
H655 H 0.65629 0.11991 0.66815 0.0
H656 H 0.69209 0.17874 0.67909 0.0
C657 C 0.68109 0.19835 0.62179 0.0
C658 C 0.10866 0.40962 0.8655 0.0
C659 C 0.13705 0.39929 0.88213 0.0
H660 H 0.05251 0.43661 0.85906 0.0
C661 C 0.13229 0.41298 0.90485 0.0
H662 H 0.11154 0.39974 0.84782 0.0
C663 C 0.09856 0.43357 0.91122 0.0
C664 C 0.06901 0.44163 0.89501 0.0
H665 H 0.15364 0.40602 0.9181 0.0
H666 H 0.09484 0.44179 0.92915 0.0
C667 C 0.07498 0.43089 0.87187 0.0
C668 C 0.86038 0.88235 0.15461 0.0
C669 C 0.87411 0.88704 0.1319 0.0
H670 H 0.83152 0.84498 0.17893 0.0
C671 C 0.86381 0.85861 0.11529 0.0
H672 H 0.86731 0.90373 0.16784 0.0
C673 C 0.84252 0.82494 0.12168 0.0
C674 C 0.83175 0.81904 0.14482 0.0
H675 H 0.87371 0.86143 0.09761 0.0
H676 H 0.83683 0.80244 0.10889 0.0
C677 C 0.83977 0.84865 0.16101 0.0
C678 C 0.42512 0.5896 0.41074 0.0
C679 C 0.45475 0.58176 0.39453 0.0
H680 H 0.36999 0.61702 0.41764 0.0
C681 C 0.44886 0.59273 0.37143 0.0
H682 H 0.42878 0.58119 0.42864 0.0
C683 C 0.41518 0.61404 0.36509 0.0
C684 C 0.38672 0.62416 0.38172 0.0
H685 H 0.4714 0.58718 0.35863 0.0
H686 H 0.41237 0.6241 0.34744 0.0
C687 C 0.39139 0.61022 0.40439 0.0
C688 C 0.36387 0.1649 0.11541 0.0
C689 C 0.37416 0.1365 0.13204 0.0
H690 H 0.3369 0.22105 0.10897 0.0
C691 C 0.36037 0.14121 0.15474 0.0
H692 H 0.37382 0.16205 0.09774 0.0
C693 C 0.33974 0.17492 0.16111 0.0
C694 C 0.33174 0.20449 0.1449 0.0
H695 H 0.36729 0.11986 0.16799 0.0
H696 H 0.33146 0.17861 0.17903 0.0
C697 C 0.34256 0.19856 0.12177 0.0
C698 C 0.57495 0.59259 0.87181 0.0
C699 C 0.56897 0.58181 0.89494 0.0
H700 H 0.61153 0.62378 0.84779 0.0
C701 C 0.59853 0.58981 0.91116 0.0
H702 H 0.55248 0.58691 0.85899 0.0
C703 C 0.63227 0.61041 0.9048 0.0
C704 C 0.63703 0.62415 0.8821 0.0
H705 H 0.59481 0.58156 0.92908 0.0
H706 H 0.65362 0.61734 0.91806 0.0
C707 C 0.60865 0.61387 0.86545 0.0
C708 C 0.18386 0.84853 0.66111 0.0
C709 C 0.19187 0.81899 0.64488 0.0
H710 H 0.1563 0.90357 0.66803 0.0
C711 C 0.18106 0.82497 0.62176 0.0
H712 H 0.19213 0.8448 0.67903 0.0
C713 C 0.15975 0.85864 0.61541 0.0
C714 C 0.14946 0.887 0.63207 0.0
H715 H 0.18674 0.8025 0.60894 0.0
H716 H 0.14982 0.86152 0.59775 0.0
C717 C 0.16323 0.88224 0.65476 0.0
C718 C 0.92526 0.43344 0.41117 0.0
C719 C 0.95482 0.44149 0.39496 0.0
H720 H 0.87018 0.4059 0.41805 0.0
C721 C 0.94885 0.43075 0.37182 0.0
H722 H 0.92898 0.44166 0.4291 0.0
C723 C 0.91515 0.40949 0.36545 0.0
C724 C 0.88676 0.39917 0.38208 0.0
H725 H 0.97132 0.43646 0.35901 0.0
H726 H 0.91227 0.39961 0.34777 0.0
C727 C 0.89152 0.41286 0.4048 0.0
C728 C 0.33995 0.84856 0.37992 0.0
C729 C 0.33196 0.81891 0.39608 0.0
H730 H 0.36748 0.90365 0.37311 0.0
C731 C 0.34278 0.82476 0.41922 0.0
H732 H 0.33167 0.84493 0.36199 0.0
C733 C 0.36407 0.85841 0.42563 0.0
C734 C 0.37435 0.88688 0.40904 0.0
H735 H 0.33711 0.80222 0.432 0.0
H736 H 0.37402 0.86119 0.4433 0.0
C737 C 0.36057 0.88225 0.38633 0.0
C738 C 0.92501 0.58984 0.12997 0.0
C739 C 0.95459 0.58188 0.14619 0.0
H740 H 0.86992 0.61734 0.12306 0.0
C741 C 0.94864 0.59273 0.16931 0.0
H742 H 0.92872 0.58153 0.11205 0.0
C743 C 0.91495 0.61402 0.17566 0.0
C744 C 0.88654 0.62426 0.15901 0.0
H745 H 0.97112 0.58708 0.18212 0.0
H746 H 0.91209 0.62399 0.19332 0.0
C747 C 0.89128 0.61045 0.13632 0.0
C748 C 0.18378 0.1749 0.87977 0.0
C749 C 0.19176 0.20443 0.89602 0.0
H750 H 0.15624 0.11986 0.87282 0.0
C751 C 0.18092 0.19842 0.91913 0.0
H752 H 0.19207 0.17866 0.86186 0.0
C753 C 0.15961 0.16473 0.92546 0.0
C754 C 0.14935 0.13638 0.90879 0.0
H755 H 0.18658 0.22087 0.93197 0.0
H756 H 0.14966 0.16183 0.94312 0.0
C757 C 0.16315 0.14117 0.8861 0.0
C758 C 0.57503 0.43095 0.6689 0.0
C759 C 0.56901 0.44157 0.64575 0.0
H760 H 0.61163 0.39991 0.69298 0.0
C761 C 0.59854 0.43342 0.62952 0.0
H762 H 0.55259 0.43674 0.68172 0.0
C763 C 0.63227 0.41285 0.63591 0.0
C764 C 0.63707 0.39928 0.65865 0.0
H765 H 0.59478 0.44156 0.61159 0.0
H766 H 0.65359 0.40582 0.62266 0.0
C767 C 0.60872 0.4097 0.67528 0.0
C768 C 0.23647 0.27762 0.25411 0.0
C769 C 0.27714 0.27751 0.24983 0.0
H770 H 0.19 0.26278 0.27742 0.0
C771 C 0.30248 0.26141 0.26654 0.0
H772 H 0.21613 0.28953 0.24154 0.0
C773 C 0.2875 0.24578 0.28706 0.0
C774 C 0.24683 0.24589 0.29133 0.0
H775 H 0.33398 0.26062 0.26374 0.0
H776 H 0.30784 0.23387 0.29963 0.0
C777 C 0.22149 0.26199 0.27462 0.0
C778 C 1.01159 0.97124 0.52453 0.0
C779 C 0.02766 0.99653 0.54128 0.0
H780 H 0.98411 0.96598 0.49142 0.0
C781 C 0.02773 0.0372 0.53706 0.0
H782 H 1.01082 0.93974 0.52729 0.0
C783 C 0.01212 0.05224 0.51656 0.0
C784 C 0.99606 0.02696 0.49981 0.0
H785 H 0.03961 0.0575 0.54966 0.0
H786 H 0.01289 0.08374 0.5138 0.0
C787 C 0.99598 0.98628 0.50402 0.0
C788 C 0.22135 0.76198 0.76647 0.0
C789 C 0.24667 0.74589 0.74975 0.0
H790 H 0.21602 0.78951 0.79956 0.0
C791 C 0.28734 0.7458 0.754 0.0
H792 H 0.18985 0.76277 0.76369 0.0
C793 C 0.30235 0.76143 0.77451 0.0
C794 C 0.27703 0.77752 0.79123 0.0
H795 H 0.30767 0.73391 0.74142 0.0
H796 H 0.33385 0.76065 0.77729 0.0
C797 C 0.23635 0.77761 0.78698 0.0
C798 C 0.49594 0.98633 0.03703 0.0
C799 C 0.49601 0.02701 0.04124 0.0
H800 H 0.51082 0.93978 1.01378 0.0
C801 C 0.51208 0.05229 0.02449 0.0
H802 H 0.48406 0.96604 0.04963 0.0
C803 C 0.52772 0.03724 1.00399 0.0
C804 C 0.52765 0.99656 0.99978 0.0
H805 H 0.51284 0.08379 0.02724 0.0
H806 H 0.5396 0.05753 0.99139 0.0
C807 C 0.51158 0.97128 1.01653 0.0
C808 C 0.23645 0.7461 0.28685 0.0
C809 C 0.27713 0.74621 0.29108 0.0
H810 H 0.1899 0.76094 0.26357 0.0
C811 C 0.30242 0.76234 0.27435 0.0
H812 H 0.21614 0.73418 0.29943 0.0
C813 C 0.28738 0.77797 0.25385 0.0
C814 C 0.2467 0.77785 0.24961 0.0
H815 H 0.33392 0.76313 0.27712 0.0
H816 H 0.30768 0.78989 0.24126 0.0
C817 C 0.2214 0.76174 0.26635 0.0
C818 C 0.51211 0.97098 0.51671 0.0
C819 C 0.49605 0.99626 0.49996 0.0
H820 H 0.53961 0.96572 0.54982 0.0
C821 C 0.49597 0.03693 0.50418 0.0
H822 H 0.51288 0.93948 0.51395 0.0
C823 C 0.51159 0.05198 0.52469 0.0
C824 C 0.52766 0.0267 0.54144 0.0
H825 H 0.48409 0.05724 0.49158 0.0
H826 H 0.51082 0.08348 0.52745 0.0
C827 C 0.52773 0.98602 0.53722 0.0
C828 C 0.28724 0.27784 0.78697 0.0
C829 C 0.24656 0.27772 0.79121 0.0
H830 H 0.33377 0.26303 0.76369 0.0
C831 C 0.22126 0.26162 0.77448 0.0
H832 H 0.30755 0.28975 0.79956 0.0
C833 C 0.23629 0.24601 0.75397 0.0
C834 C 0.27697 0.24612 0.74973 0.0
H835 H 0.18976 0.26082 0.77726 0.0
H836 H 0.21597 0.2341 0.74139 0.0
C837 C 0.30227 0.26223 0.76646 0.0
C838 C 1.01134 0.05212 1.01624 0.0
C839 C 0.02743 0.02683 0.9995 0.0
H840 H 0.98383 0.0574 0.04934 0.0
C841 C 0.0275 0.98616 1.00373 0.0
H842 H 1.01057 0.08362 1.01348 0.0
C843 C 0.01188 0.97113 0.02424 0.0
C844 C 0.9958 0.99642 0.04098 0.0
H845 H 0.03939 0.96585 0.99114 0.0
H846 H 0.01265 0.93963 0.027 0.0
C847 C 0.99571 0.03709 0.03675 0.0
C848 C 0.80229 0.76137 0.76653 0.0
C849 C 0.77699 0.77746 0.74979 0.0
H850 H 0.80758 0.73385 0.79962 0.0
C851 C 0.73631 0.77756 0.75403 0.0
H852 H 0.83379 0.76058 0.76375 0.0
C853 C 0.72128 0.76194 0.77454 0.0
C854 C 0.74659 0.74585 0.79127 0.0
H855 H 0.71599 0.78945 0.74144 0.0
H856 H 0.68978 0.76273 0.77731 0.0
C857 C 0.78727 0.74575 0.78703 0.0
C858 C 0.78748 0.24586 0.25394 0.0
C859 C 0.7468 0.24597 0.24971 0.0
H860 H 0.83402 0.26066 0.27723 0.0
C861 C 0.7215 0.26207 0.26644 0.0
H862 H 0.80778 0.23396 0.24135 0.0
C863 C 0.73654 0.27768 0.28695 0.0
C864 C 0.77722 0.27756 0.29119 0.0
H865 H 0.69 0.26287 0.26367 0.0
H866 H 0.71623 0.28957 0.29954 0.0
C867 C 0.80252 0.26146 0.27445 0.0
C868 C 0.73624 0.24614 0.7869 0.0
C869 C 0.77692 0.24623 0.79115 0.0
H870 H 0.68973 0.26099 0.76362 0.0
C871 C 0.80224 0.26233 0.77442 0.0
H872 H 0.71592 0.23424 0.79948 0.0
C873 C 0.78722 0.27796 0.75392 0.0
C874 C 0.74654 0.27786 0.74967 0.0
H875 H 0.83374 0.26311 0.7772 0.0
H876 H 0.80754 0.28986 0.74133 0.0
C877 C 0.72123 0.26178 0.7664 0.0
C878 C 0.78749 0.77782 0.28704 0.0
C879 C 0.74682 0.7777 0.29131 0.0
H880 H 0.83397 0.76301 0.26373 0.0
C881 C 0.72148 0.76161 0.27459 0.0
H882 H 0.80783 0.78972 0.29962 0.0
C883 C 0.73647 0.746 0.25407 0.0
C884 C 0.77714 0.74612 0.24981 0.0
H885 H 0.68999 0.76081 0.27739 0.0
H886 H 0.71613 0.7341 0.2415 0.0
C887 C 0.80248 0.76221 0.26652 0.0
C888 C 0.51149 0.47126 0.02451 0.0
C889 C 0.52757 0.49655 0.04125 0.0
H890 H 0.48395 0.46598 0.99142 0.0
C891 C 0.52763 0.53723 0.03703 0.0
H892 H 0.51073 0.43976 0.02728 0.0
C893 C 0.51198 0.55226 1.01653 0.0
C894 C 0.4959 0.52696 0.99979 0.0
H895 H 0.53952 0.55754 0.04962 0.0
H896 H 0.51274 0.58375 1.01377 0.0
C897 C 0.49584 0.48629 1.00402 0.0
C898 C 0.02783 0.53712 0.50403 0.0
C899 C 0.02779 0.49644 0.49982 0.0
H900 H 0.01291 0.58366 0.52727 0.0
C901 C 1.0117 0.47115 0.51656 0.0
H902 H 0.03973 0.55742 0.49144 0.0
C903 C 0.99602 0.4862 0.53705 0.0
C904 C 0.99607 0.52688 0.54126 0.0
H905 H 1.01095 0.43966 0.51381 0.0
H906 H 0.98413 0.4659 0.54965 0.0
C907 C 0.01216 0.55216 0.52452 0.0
C908 C 0.02766 0.48622 0.03711 0.0
C909 C 0.02758 0.52689 0.04133 0.0
H910 H 0.01278 0.43967 1.01385 0.0
C911 C 1.01149 0.55217 0.02458 0.0
H912 H 0.03955 0.46592 0.0497 0.0
C913 C 0.99584 0.53712 1.00409 0.0
C914 C 0.99592 0.49645 0.99987 0.0
H915 H 1.01072 0.58367 0.02734 0.0
H916 H 0.98394 0.55742 0.99149 0.0
C917 C 0.01201 0.47117 1.01661 0.0
C918 C 0.52759 0.48609 0.50368 0.0
C919 C 0.52752 0.52677 0.49946 0.0
H920 H 0.51269 0.43956 0.52693 0.0
C921 C 0.51142 0.55206 0.51619 0.0
H922 H 0.53949 0.46579 0.49109 0.0
C923 C 0.49576 0.53702 0.53669 0.0
C924 C 0.49583 0.49634 0.54091 0.0
H925 H 0.51066 0.58355 0.51343 0.0
H926 H 0.48386 0.55732 0.54928 0.0
C927 C 0.51193 0.47105 0.52417 0.0
C928 C 0.35214 0.13286 0.41602 0.0
C929 C 0.33744 0.14579 0.39464 0.0
H930 H 0.39062 0.09325 0.43382 0.0
C931 C 0.35439 0.13086 0.37433 0.0
H932 H 0.3399 0.14388 0.43201 0.0
C933 C 0.38339 0.10167 0.37538 0.0
C934 C 0.39626 0.0869 0.39676 0.0
H935 H 0.34386 0.14022 0.35758 0.0
H936 H 0.39443 0.08944 0.3594 0.0
C937 C 0.38131 0.10383 0.41707 0.0
C938 C 0.14252 0.10389 0.62415 0.0
C939 C 0.12759 0.08698 0.64447 0.0
H940 H 0.18394 0.1439 0.60918 0.0
C941 C 0.1405 0.10176 0.66583 0.0
H942 H 0.13319 0.09329 0.6074 0.0
C943 C 0.16951 0.13095 0.66686 0.0
C944 C 0.18645 0.14585 0.64655 0.0
H945 H 0.12947 0.08956 0.68183 0.0
H946 H 0.18007 0.14031 0.68361 0.0
C947 C 0.17171 0.13291 0.62518 0.0
C948 C 0.17156 0.89046 0.91569 0.0
C949 C 0.18637 0.87754 0.89433 0.0
H950 H 0.13298 0.93006 0.93343 0.0
C951 C 0.16951 0.89246 0.874 0.0
H952 H 0.18373 0.87945 0.9317 0.0
C953 C 0.14049 0.92164 0.875 0.0
C954 C 0.12752 0.9364 0.89636 0.0
H955 H 0.18013 0.88311 0.85727 0.0
H956 H 0.12953 0.93386 0.859 0.0
C957 C 0.14237 0.91948 0.91669 0.0
C958 C 0.35199 0.89057 0.12508 0.0
C959 C 0.33721 0.87766 0.14644 0.0
H960 H 0.39054 0.93017 0.10732 0.0
C961 C 0.3541 0.89258 0.16677 0.0
H962 H 0.3398 0.87955 0.10908 0.0
C963 C 0.38312 0.92177 0.16575 0.0
C964 C 0.39606 0.93653 0.14438 0.0
H965 H 0.34351 0.88324 0.18351 0.0
H966 H 0.39411 0.934 0.18175 0.0
C967 C 0.38118 0.91959 0.12406 0.0
C968 C 0.67164 0.8904 0.6253 0.0
C969 C 0.68644 0.87748 0.64666 0.0
H970 H 0.6331 0.93001 0.60755 0.0
C971 C 0.66956 0.8924 0.66699 0.0
H972 H 0.68383 0.87938 0.6093 0.0
C973 C 0.64055 0.9216 0.66598 0.0
C974 C 0.6276 0.93636 0.64462 0.0
H975 H 0.68016 0.88305 0.68373 0.0
H976 H 0.62958 0.93383 0.68198 0.0
C977 C 0.64247 0.91943 0.62429 0.0
C978 C 0.88137 0.91947 0.41695 0.0
C979 C 0.89626 0.9364 0.39663 0.0
H980 H 0.83999 0.87942 0.43193 0.0
C981 C 0.88334 0.92163 0.37527 0.0
H982 H 0.89072 0.93006 0.4337 0.0
C983 C 0.85434 0.89242 0.37424 0.0
C984 C 0.83744 0.8775 0.39456 0.0
H985 H 0.89434 0.93385 0.35927 0.0
H986 H 0.84376 0.88307 0.3575 0.0
C987 C 0.8522 0.89043 0.41593 0.0
C988 C 0.8519 0.13304 0.125 0.0
C989 C 0.83721 0.14596 0.14639 0.0
H990 H 0.89035 0.09343 0.10718 0.0
C991 C 0.85418 0.13103 0.16668 0.0
H992 H 0.83964 0.14407 0.10902 0.0
C993 C 0.88318 0.10183 0.16562 0.0
C994 C 0.89602 0.08707 0.14423 0.0
H995 H 0.84366 0.14038 0.18344 0.0
H996 H 0.89423 0.08959 0.1816 0.0
C997 C 0.88106 0.10401 0.12394 0.0
C998 C 0.64252 0.10394 0.91684 0.0
C999 C 0.62756 0.08701 0.89654 0.0
H1000 H 0.68395 0.14399 0.93177 0.0
C1001 C 0.64042 0.10177 0.87516 0.0
H1002 H 0.63322 0.09336 0.9336 0.0
C1003 C 0.66942 0.13097 0.8741 0.0
C1004 C 0.68639 0.1459 0.89441 0.0
H1005 H 0.62938 0.08954 0.85917 0.0
H1006 H 0.67996 0.14032 0.85735 0.0
C1007 C 0.67169 0.13297 0.91579 0.0
C1008 C 0.85404 0.63093 0.87423 0.0
C1009 C 0.8371 0.64586 0.89454 0.0
H1010 H 0.89408 0.5895 0.85929 0.0
C1011 C 0.85183 0.63296 0.91591 0.0
H1012 H 0.84349 0.64026 0.85748 0.0
C1013 C 0.88101 0.60394 0.91697 0.0
C1014 C 0.89594 0.587 0.89666 0.0
H1015 H 0.83959 0.64399 0.9319 0.0
H1016 H 0.89033 0.59337 0.93372 0.0
C1017 C 0.88305 0.60174 0.87528 0.0
C1018 C 0.66952 0.63101 0.16689 0.0
C1019 C 0.68645 0.64593 0.14657 0.0
H1020 H 0.62949 0.58959 0.18184 0.0
C1021 C 0.67171 0.63302 0.1252 0.0
H1022 H 0.68009 0.64035 0.18363 0.0
C1023 C 0.64252 0.604 0.12416 0.0
C1024 C 0.6276 0.58707 0.14447 0.0
H1025 H 0.68394 0.64404 0.10921 0.0
H1026 H 0.63319 0.59343 0.10741 0.0
C1027 C 0.64051 0.60182 0.16584 0.0
C1028 C 0.67181 0.39042 0.41563 0.0
C1029 C 0.68664 0.37752 0.39427 0.0
H1030 H 0.63323 0.43 0.43337 0.0
C1031 C 0.6698 0.39246 0.37394 0.0
H1032 H 0.68397 0.37938 0.43164 0.0
C1033 C 0.64079 0.42165 0.37495 0.0
C1034 C 0.62779 0.43639 0.39631 0.0
H1035 H 0.68043 0.38313 0.35721 0.0
H1036 H 0.62984 0.43389 0.35894 0.0
C1037 C 0.64263 0.41944 0.41664 0.0
C1038 C 0.88115 0.41946 0.6241 0.0
C1039 C 0.89602 0.43641 0.64442 0.0
H1040 H 0.83978 0.37941 0.60912 0.0
C1041 C 0.88306 0.42167 0.66578 0.0
H1042 H 0.89053 0.43002 0.60735 0.0
C1043 C 0.85405 0.39249 0.66681 0.0
C1044 C 0.83717 0.37755 0.64648 0.0
H1045 H 0.89405 0.43391 0.68178 0.0
H1046 H 0.84344 0.38316 0.68355 0.0
C1047 C 0.85197 0.39044 0.62512 0.0
C1048 C 0.14055 0.42176 0.16591 0.0
C1049 C 0.12762 0.4365 0.14454 0.0
H1050 H 0.18014 0.38322 0.18369 0.0
C1051 C 0.14251 0.41955 0.12422 0.0
H1052 H 0.12956 0.434 0.1819 0.0
C1053 C 0.17168 0.39051 0.12525 0.0
C1054 C 0.18645 0.37761 0.14662 0.0
H1055 H 0.13316 0.43011 0.10747 0.0
H1056 H 0.18388 0.37948 0.10926 0.0
C1057 C 0.16955 0.39256 0.16694 0.0
C1058 C 0.38102 0.41947 0.91688 0.0
C1059 C 0.39593 0.43642 0.89657 0.0
H1060 H 0.33963 0.3794 0.93183 0.0
C1061 C 0.38301 0.42168 0.87519 0.0
H1062 H 0.39037 0.43003 0.93363 0.0
C1063 C 0.35401 0.39248 0.87415 0.0
C1064 C 0.33709 0.37753 0.89446 0.0
H1065 H 0.39402 0.43392 0.8592 0.0
H1066 H 0.34343 0.38315 0.8574 0.0
C1067 C 0.35185 0.39043 0.91584 0.0
C1068 C 0.38315 0.60172 0.66558 0.0
C1069 C 0.39599 0.58698 0.64419 0.0
H1070 H 0.34365 0.64025 0.68343 0.0
C1071 C 0.38101 0.60394 0.6239 0.0
H1072 H 0.39421 0.58947 0.68156 0.0
C1073 C 0.35185 0.63297 0.62498 0.0
C1074 C 0.33718 0.64587 0.64637 0.0
H1075 H 0.3903 0.59338 0.60714 0.0
H1076 H 0.33958 0.64401 0.609 0.0
C1077 C 0.35416 0.63092 0.66666 0.0
C1078 C 0.14068 0.60165 0.37515 0.0
C1079 C 0.12784 0.58691 0.39654 0.0
H1080 H 0.18019 0.64019 0.35732 0.0
C1081 C 0.14282 0.60387 0.41684 0.0
H1082 H 0.12962 0.58941 0.35918 0.0
C1083 C 0.17199 0.63289 0.41576 0.0
C1084 C 0.18666 0.6458 0.39437 0.0
H1085 H 0.13353 0.5933 0.4336 0.0
H1086 H 0.18426 0.64393 0.43174 0.0
C1087 C 0.16968 0.63086 0.37408 0.0
loop_
_geom_bond_atom_site_label_1
_geom_bond_atom_site_label_2
_geom_bond_distance
_geom_bond_site_symmetry_2
_ccdc_geom_bond_type
O0 Cd1 2.223 . S
O0 C8 1.315 . S
Cd1 O0 2.223 . S
Cd1 O4 2.297 . S
Cd1 O5 2.439 . S
Cd1 O11 2.240 . S
Cd2 O3 2.240 . S
Cd2 O10 2.223 . S
Cd2 O12 2.297 . S
Cd2 O13 2.439 . S
O3 Cd2 2.240 . S
O3 C8 1.279 . S
O4 Cd1 2.297 . S
O4 C6 1.247 . S
O5 Cd1 2.439 . S
O5 C6 1.208 . S
C6 O4 1.247 . S
C6 O5 1.208 . S
C7 O12 1.247 . S
C7 O13 1.208 . S
C8 O0 1.315 . S
C8 O3 1.279 . S
C9 O10 1.315 . S
C9 O11 1.279 . S
O10 Cd2 2.223 . S
O10 C9 1.315 . S
O11 Cd1 2.240 . S
O11 C9 1.279 . S
O12 Cd2 2.297 . S
O12 C7 1.247 . S
O13 Cd2 2.439 . S
O13 C7 1.208 . S
O14 Cd15 2.223 . S
O14 C22 1.315 . S
Cd15 O14 2.223 . S
Cd15 O18 2.297 . S
Cd15 O19 2.439 1_565 S
Cd15 O25 2.240 . S
Cd16 O17 2.240 . S
Cd16 O24 2.223 . S
Cd16 O26 2.297 . S
Cd16 O27 2.439 . S
O17 Cd16 2.240 . S
O17 C22 1.279 . S
O18 Cd15 2.297 . S
O18 C20 1.247 1_565 S
O19 Cd15 2.439 1_545 S
O19 C20 1.208 . S
C20 O18 1.247 1_545 S
C20 O19 1.208 . S
C21 O26 1.247 . S
C21 O27 1.208 . S
C22 O14 1.315 . S
C22 O17 1.279 . S
C23 O24 1.315 . S
C23 O25 1.279 . S
O24 Cd16 2.223 . S
O24 C23 1.315 . S
O25 Cd15 2.240 . S
O25 C23 1.279 . S
O26 Cd16 2.297 . S
O26 C21 1.247 . S
O27 Cd16 2.439 . S
O27 C21 1.208 . S
O28 Cd29 2.223 . S
O28 C36 1.315 . S
Cd29 O28 2.223 . S
Cd29 O32 2.297 . S
Cd29 O33 2.439 . S
Cd29 O39 2.240 . S
Cd30 O31 2.240 . S
Cd30 O38 2.223 . S
Cd30 O40 2.297 . S
Cd30 O41 2.439 . S
O31 Cd30 2.240 . S
O31 C36 1.279 . S
O32 Cd29 2.297 . S
O32 C34 1.247 . S
O33 Cd29 2.439 . S
O33 C34 1.208 . S
C34 O32 1.247 . S
C34 O33 1.208 . S
C35 O40 1.247 . S
C35 O41 1.208 . S
C36 O28 1.315 . S
C36 O31 1.279 . S
C37 O38 1.315 . S
C37 O39 1.279 . S
O38 Cd30 2.223 . S
O38 C37 1.315 . S
O39 Cd29 2.240 . S
O39 C37 1.279 . S
O40 Cd30 2.297 . S
O40 C35 1.247 . S
O41 Cd30 2.439 . S
O41 C35 1.208 . S
O42 Cd43 2.223 . S
O42 C50 1.315 . S
Cd43 O42 2.223 . S
Cd43 O46 2.297 . S
Cd43 O47 2.439 1_545 S
Cd43 O53 2.240 . S
Cd44 O45 2.240 . S
Cd44 O52 2.223 . S
Cd44 O54 2.297 . S
Cd44 O55 2.439 . S
O45 Cd44 2.240 . S
O45 C50 1.279 . S
O46 Cd43 2.297 . S
O46 C48 1.247 1_545 S
O47 Cd43 2.439 1_565 S
O47 C48 1.208 . S
C48 O46 1.247 1_565 S
C48 O47 1.208 . S
C49 O54 1.247 . S
C49 O55 1.208 . S
C50 O42 1.315 . S
C50 O45 1.279 . S
C51 O52 1.315 . S
C51 O53 1.279 . S
O52 Cd44 2.223 . S
O52 C51 1.315 . S
O53 Cd43 2.240 . S
O53 C51 1.279 . S
O54 Cd44 2.297 . S
O54 C49 1.247 . S
O55 Cd44 2.439 . S
O55 C49 1.208 . S
O56 Cd57 2.223 . S
O56 C64 1.315 . S
Cd57 O56 2.223 . S
Cd57 O60 2.297 . S
Cd57 O61 2.439 . S
Cd57 O67 2.240 . S
Cd58 O59 2.240 . S
Cd58 O66 2.223 . S
Cd58 O68 2.297 . S
Cd58 O69 2.439 . S
O59 Cd58 2.240 . S
O59 C64 1.279 . S
O60 Cd57 2.297 . S
O60 C62 1.247 . S
O61 Cd57 2.439 . S
O61 C62 1.208 . S
C62 O60 1.247 . S
C62 O61 1.208 . S
C63 O68 1.247 . S
C63 O69 1.208 . S
C64 O56 1.315 . S
C64 O59 1.279 . S
C65 O66 1.315 . S
C65 O67 1.279 . S
O66 Cd58 2.223 . S
O66 C65 1.315 . S
O67 Cd57 2.240 . S
O67 C65 1.279 . S
O68 Cd58 2.297 . S
O68 C63 1.247 . S
O69 Cd58 2.439 . S
O69 C63 1.208 . S
O70 Cd71 2.223 . S
O70 C78 1.315 . S
Cd71 O70 2.223 . S
Cd71 O74 2.297 . S
Cd71 O75 2.439 1_565 S
Cd71 O81 2.240 . S
Cd72 O73 2.240 . S
Cd72 O80 2.223 . S
Cd72 O82 2.297 . S
Cd72 O83 2.439 . S
O73 Cd72 2.240 . S
O73 C78 1.279 . S
O74 Cd71 2.297 . S
O74 C76 1.247 1_565 S
O75 Cd71 2.439 1_545 S
O75 C76 1.208 . S
C76 O74 1.247 1_545 S
C76 O75 1.208 . S
C77 O82 1.247 . S
C77 O83 1.208 . S
C78 O70 1.315 . S
C78 O73 1.279 . S
C79 O80 1.315 . S
C79 O81 1.279 . S
O80 Cd72 2.223 . S
O80 C79 1.315 . S
O81 Cd71 2.240 . S
O81 C79 1.279 . S
O82 Cd72 2.297 . S
O82 C77 1.247 . S
O83 Cd72 2.439 . S
O83 C77 1.208 . S
O84 Cd85 2.223 . S
O84 C92 1.315 . S
Cd85 O84 2.223 . S
Cd85 O88 2.297 . S
Cd85 O89 2.439 . S
Cd85 O95 2.240 . S
Cd86 O87 2.240 . S
Cd86 O94 2.223 . S
Cd86 O96 2.297 . S
Cd86 O97 2.439 . S
O87 Cd86 2.240 . S
O87 C92 1.279 . S
O88 Cd85 2.297 . S
O88 C90 1.247 . S
O89 Cd85 2.439 . S
O89 C90 1.208 . S
C90 O88 1.247 . S
C90 O89 1.208 . S
C91 O96 1.247 . S
C91 O97 1.208 . S
C92 O84 1.315 . S
C92 O87 1.279 . S
C93 O94 1.315 . S
C93 O95 1.279 . S
O94 Cd86 2.223 . S
O94 C93 1.315 . S
O95 Cd85 2.240 . S
O95 C93 1.279 . S
O96 Cd86 2.297 . S
O96 C91 1.247 . S
O97 Cd86 2.439 . S
O97 C91 1.208 . S
O98 Cd99 2.223 . S
O98 C106 1.315 . S
Cd99 O98 2.223 . S
Cd99 O102 2.297 . S
Cd99 O103 2.439 1_545 S
Cd99 O109 2.240 . S
Cd100 O101 2.240 . S
Cd100 O108 2.223 . S
Cd100 O110 2.297 . S
Cd100 O111 2.439 . S
O101 Cd100 2.240 . S
O101 C106 1.279 . S
O102 Cd99 2.297 . S
O102 C104 1.247 1_545 S
O103 Cd99 2.439 1_565 S
O103 C104 1.208 . S
C104 O102 1.247 1_565 S
C104 O103 1.208 . S
C105 O110 1.247 . S
C105 O111 1.208 . S
C106 O98 1.315 . S
C106 O101 1.279 . S
C107 O108 1.315 . S
C107 O109 1.279 . S
O108 Cd100 2.223 . S
O108 C107 1.315 . S
O109 Cd99 2.240 . S
O109 C107 1.279 . S
O110 Cd100 2.297 . S
O110 C105 1.247 . S
O111 Cd100 2.439 . S
O111 C105 1.208 . S
O112 Cd113 2.223 . S
O112 C120 1.315 . S
Cd113 O112 2.223 . S
Cd113 O116 2.297 . S
Cd113 O117 2.439 . S
Cd113 O123 2.240 . S
Cd114 O115 2.240 . S
Cd114 O122 2.223 . S
Cd114 O124 2.297 . S
Cd114 O125 2.439 . S
O115 Cd114 2.240 . S
O115 C120 1.279 . S
O116 Cd113 2.297 . S
O116 C118 1.247 . S
O117 Cd113 2.439 . S
O117 C118 1.208 . S
C118 O116 1.247 . S
C118 O117 1.208 . S
C119 O124 1.247 . S
C119 O125 1.208 . S
C120 O112 1.315 . S
C120 O115 1.279 . S
C121 O122 1.315 . S
C121 O123 1.279 . S
O122 Cd114 2.223 . S
O122 C121 1.315 . S
O123 Cd113 2.240 . S
O123 C121 1.279 . S
O124 Cd114 2.297 . S
O124 C119 1.247 . S
O125 Cd114 2.439 . S
O125 C119 1.208 . S
O126 Cd127 2.223 . S
O126 C134 1.315 . S
Cd127 O126 2.223 . S
Cd127 O130 2.297 . S
Cd127 O131 2.439 1_545 S
Cd127 O137 2.240 . S
Cd128 O129 2.240 . S
Cd128 O136 2.223 . S
Cd128 O138 2.297 . S
Cd128 O139 2.439 . S
O129 Cd128 2.240 . S
O129 C134 1.279 . S
O130 Cd127 2.297 . S
O130 C132 1.247 1_545 S
O131 Cd127 2.439 1_565 S
O131 C132 1.208 . S
C132 O130 1.247 1_565 S
C132 O131 1.208 . S
C133 O138 1.247 . S
C133 O139 1.208 . S
C134 O126 1.315 . S
C134 O129 1.279 . S
C135 O136 1.315 . S
C135 O137 1.279 . S
O136 Cd128 2.223 . S
O136 C135 1.315 . S
O137 Cd127 2.240 . S
O137 C135 1.279 . S
O138 Cd128 2.297 . S
O138 C133 1.247 . S
O139 Cd128 2.439 . S
O139 C133 1.208 . S
O140 Cd141 2.223 . S
O140 C148 1.315 . S
Cd141 O140 2.223 . S
Cd141 O144 2.297 . S
Cd141 O145 2.439 . S
Cd141 O151 2.240 . S
Cd142 O143 2.240 . S
Cd142 O150 2.223 . S
Cd142 O152 2.297 . S
Cd142 O153 2.439 . S
O143 Cd142 2.240 . S
O143 C148 1.279 . S
O144 Cd141 2.297 . S
O144 C146 1.247 . S
O145 Cd141 2.439 . S
O145 C146 1.208 . S
C146 O144 1.247 . S
C146 O145 1.208 . S
C147 O152 1.247 . S
C147 O153 1.208 . S
C148 O140 1.315 . S
C148 O143 1.279 . S
C149 O150 1.315 . S
C149 O151 1.279 . S
O150 Cd142 2.223 . S
O150 C149 1.315 . S
O151 Cd141 2.240 . S
O151 C149 1.279 . S
O152 Cd142 2.297 . S
O152 C147 1.247 . S
O153 Cd142 2.439 . S
O153 C147 1.208 . S
O154 Cd155 2.223 . S
O154 C162 1.315 . S
Cd155 O154 2.223 . S
Cd155 O158 2.297 . S
Cd155 O159 2.439 1_565 S
Cd155 O165 2.240 . S
Cd156 O157 2.240 . S
Cd156 O164 2.223 . S
Cd156 O166 2.297 . S
Cd156 O167 2.439 . S
O157 Cd156 2.240 . S
O157 C162 1.279 . S
O158 Cd155 2.297 . S
O158 C160 1.247 1_565 S
O159 Cd155 2.439 1_545 S
O159 C160 1.208 . S
C160 O158 1.247 1_545 S
C160 O159 1.208 . S
C161 O166 1.247 . S
C161 O167 1.208 . S
C162 O154 1.315 . S
C162 O157 1.279 . S
C163 O164 1.315 . S
C163 O165 1.279 . S
O164 Cd156 2.223 . S
O164 C163 1.315 . S
O165 Cd155 2.240 . S
O165 C163 1.279 . S
O166 Cd156 2.297 . S
O166 C161 1.247 . S
O167 Cd156 2.439 . S
O167 C161 1.208 . S
O168 Cd169 2.223 . S
O168 C176 1.315 . S
Cd169 O168 2.223 . S
Cd169 O172 2.297 . S
Cd169 O173 2.439 . S
Cd169 O179 2.240 . S
Cd170 O171 2.240 . S
Cd170 O178 2.223 . S
Cd170 O180 2.297 . S
Cd170 O181 2.439 . S
O171 Cd170 2.240 . S
O171 C176 1.279 . S
O172 Cd169 2.297 . S
O172 C174 1.247 . S
O173 Cd169 2.439 . S
O173 C174 1.208 . S
C174 O172 1.247 . S
C174 O173 1.208 . S
C175 O180 1.247 . S
C175 O181 1.208 . S
C176 O168 1.315 . S
C176 O171 1.279 . S
C177 O178 1.315 . S
C177 O179 1.279 . S
O178 Cd170 2.223 . S
O178 C177 1.315 . S
O179 Cd169 2.240 . S
O179 C177 1.279 . S
O180 Cd170 2.297 . S
O180 C175 1.247 . S
O181 Cd170 2.439 . S
O181 C175 1.208 . S
O182 Cd183 2.223 . S
O182 C190 1.315 . S
Cd183 O182 2.223 . S
Cd183 O186 2.297 . S
Cd183 O187 2.439 1_545 S
Cd183 O193 2.240 . S
Cd184 O185 2.240 . S
Cd184 O192 2.223 . S
Cd184 O194 2.297 . S
Cd184 O195 2.439 . S
O185 Cd184 2.240 . S
O185 C190 1.279 . S
O186 Cd183 2.297 . S
O186 C188 1.247 1_545 S
O187 Cd183 2.439 1_565 S
O187 C188 1.208 . S
C188 O186 1.247 1_565 S
C188 O187 1.208 . S
C189 O194 1.247 . S
C189 O195 1.208 . S
C190 O182 1.315 . S
C190 O185 1.279 . S
C191 O192 1.315 . S
C191 O193 1.279 . S
O192 Cd184 2.223 . S
O192 C191 1.315 . S
O193 Cd183 2.240 . S
O193 C191 1.279 . S
O194 Cd184 2.297 . S
O194 C189 1.247 . S
O195 Cd184 2.439 . S
O195 C189 1.208 . S
O196 Cd197 2.223 . S
O196 C204 1.315 . S
Cd197 O196 2.223 . S
Cd197 O200 2.297 . S
Cd197 O201 2.439 . S
Cd197 O207 2.240 . S
Cd198 O199 2.240 . S
Cd198 O206 2.223 . S
Cd198 O208 2.297 . S
Cd198 O209 2.439 . S
O199 Cd198 2.240 . S
O199 C204 1.279 . S
O200 Cd197 2.297 . S
O200 C202 1.247 . S
O201 Cd197 2.439 . S
O201 C202 1.208 . S
C202 O200 1.247 . S
C202 O201 1.208 . S
C203 O208 1.247 . S
C203 O209 1.208 . S
C204 O196 1.315 . S
C204 O199 1.279 . S
C205 O206 1.315 . S
C205 O207 1.279 . S
O206 Cd198 2.223 . S
O206 C205 1.315 . S
O207 Cd197 2.240 . S
O207 C205 1.279 . S
O208 Cd198 2.297 . S
O208 C203 1.247 . S
O209 Cd198 2.439 . S
O209 C203 1.208 . S
O210 Cd211 2.223 . S
O210 C218 1.315 . S
Cd211 O210 2.223 . S
Cd211 O214 2.297 . S
Cd211 O215 2.439 1_565 S
Cd211 O221 2.240 . S
Cd212 O213 2.240 . S
Cd212 O220 2.223 . S
Cd212 O222 2.297 . S
Cd212 O223 2.439 . S
O213 Cd212 2.240 . S
O213 C218 1.279 . S
O214 Cd211 2.297 . S
O214 C216 1.247 1_565 S
O215 Cd211 2.439 1_545 S
O215 C216 1.208 . S
C216 O214 1.247 1_545 S
C216 O215 1.208 . S
C217 O222 1.247 . S
C217 O223 1.208 . S
C218 O210 1.315 . S
C218 O213 1.279 . S
C219 O220 1.315 . S
C219 O221 1.279 . S
O220 Cd212 2.223 . S
O220 C219 1.315 . S
O221 Cd211 2.240 . S
O221 C219 1.279 . S
O222 Cd212 2.297 . S
O222 C217 1.247 . S
O223 Cd212 2.439 . S
O223 C217 1.208 . S
O224 Cd225 2.223 . S
O224 C232 1.315 . S
Cd225 O224 2.223 . S
Cd225 O228 2.297 . S
Cd225 O229 2.439 . S
Cd225 O235 2.240 . S
Cd226 O227 2.240 . S
Cd226 O234 2.223 . S
Cd226 O236 2.297 . S
Cd226 O237 2.439 . S
O227 Cd226 2.240 . S
O227 C232 1.279 . S
O228 Cd225 2.297 . S
O228 C230 1.247 . S
O229 Cd225 2.439 . S
O229 C230 1.208 . S
C230 O228 1.247 . S
C230 O229 1.208 . S
C231 O236 1.247 . S
C231 O237 1.208 . S
C232 O224 1.315 . S
C232 O227 1.279 . S
C233 O234 1.315 . S
C233 O235 1.279 . S
O234 Cd226 2.223 . S
O234 C233 1.315 . S
O235 Cd225 2.240 . S
O235 C233 1.279 . S
O236 Cd226 2.297 . S
O236 C231 1.247 . S
O237 Cd226 2.439 . S
O237 C231 1.208 . S
O238 Cd239 2.223 . S
O238 C246 1.315 . S
Cd239 O238 2.223 . S
Cd239 O242 2.297 . S
Cd239 O243 2.439 . S
Cd239 O249 2.240 . S
Cd240 O241 2.240 . S
Cd240 O248 2.223 . S
Cd240 O250 2.297 . S
Cd240 O251 2.439 . S
O241 Cd240 2.240 . S
O241 C246 1.279 . S
O242 Cd239 2.297 . S
O242 C244 1.247 . S
O243 Cd239 2.439 . S
O243 C244 1.208 . S
C244 O242 1.247 . S
C244 O243 1.208 . S
C245 O250 1.247 . S
C245 O251 1.208 . S
C246 O238 1.315 . S
C246 O241 1.279 . S
C247 O248 1.315 . S
C247 O249 1.279 . S
O248 Cd240 2.223 . S
O248 C247 1.315 . S
O249 Cd239 2.240 . S
O249 C247 1.279 . S
O250 Cd240 2.297 . S
O250 C245 1.247 . S
O251 Cd240 2.439 . S
O251 C245 1.208 . S
O252 Cd253 2.223 . S
O252 C260 1.315 . S
Cd253 O252 2.223 . S
Cd253 O256 2.297 . S
Cd253 O257 2.439 . S
Cd253 O263 2.240 . S
Cd254 O255 2.240 . S
Cd254 O262 2.223 . S
Cd254 O264 2.297 . S
Cd254 O265 2.439 . S
O255 Cd254 2.240 . S
O255 C260 1.279 . S
O256 Cd253 2.297 . S
O256 C258 1.247 . S
O257 Cd253 2.439 . S
O257 C258 1.208 . S
C258 O256 1.247 . S
C258 O257 1.208 . S
C259 O264 1.247 . S
C259 O265 1.208 . S
C260 O252 1.315 . S
C260 O255 1.279 . S
C261 O262 1.315 . S
C261 O263 1.279 . S
O262 Cd254 2.223 . S
O262 C261 1.315 . S
O263 Cd253 2.240 . S
O263 C261 1.279 . S
O264 Cd254 2.297 . S
O264 C259 1.247 . S
O265 Cd254 2.439 . S
O265 C259 1.208 . S
O266 Cd267 2.223 . S
O266 C274 1.315 . S
Cd267 O266 2.223 . S
Cd267 O270 2.297 . S
Cd267 O271 2.439 . S
Cd267 O277 2.240 . S
Cd268 O269 2.240 . S
Cd268 O276 2.223 . S
Cd268 O278 2.297 . S
Cd268 O279 2.439 . S
O269 Cd268 2.240 . S
O269 C274 1.279 . S
O270 Cd267 2.297 . S
O270 C272 1.247 . S
O271 Cd267 2.439 . S
O271 C272 1.208 . S
C272 O270 1.247 . S
C272 O271 1.208 . S
C273 O278 1.247 . S
C273 O279 1.208 . S
C274 O266 1.315 . S
C274 O269 1.279 . S
C275 O276 1.315 . S
C275 O277 1.279 . S
O276 Cd268 2.223 . S
O276 C275 1.315 . S
O277 Cd267 2.240 . S
O277 C275 1.279 . S
O278 Cd268 2.297 . S
O278 C273 1.247 . S
O279 Cd268 2.439 . S
O279 C273 1.208 . S
O280 Cd281 2.223 . S
O280 C288 1.315 . S
Cd281 O280 2.223 . S
Cd281 O284 2.297 . S
Cd281 O285 2.439 . S
Cd281 O291 2.240 . S
Cd282 O283 2.240 . S
Cd282 O290 2.223 . S
Cd282 O292 2.297 . S
Cd282 O293 2.439 . S
O283 Cd282 2.240 . S
O283 C288 1.279 . S
O284 Cd281 2.297 . S
O284 C286 1.247 . S
O285 Cd281 2.439 . S
O285 C286 1.208 . S
C286 O284 1.247 . S
C286 O285 1.208 . S
C287 O292 1.247 . S
C287 O293 1.208 . S
C288 O280 1.315 . S
C288 O283 1.279 . S
C289 O290 1.315 . S
C289 O291 1.279 . S
O290 Cd282 2.223 . S
O290 C289 1.315 . S
O291 Cd281 2.240 . S
O291 C289 1.279 . S
O292 Cd282 2.297 . S
O292 C287 1.247 . S
O293 Cd282 2.439 . S
O293 C287 1.208 . S
O294 Cd295 2.223 . S
O294 C302 1.315 . S
Cd295 O294 2.223 . S
Cd295 O298 2.297 . S
Cd295 O299 2.439 . S
Cd295 O305 2.240 . S
Cd296 O297 2.240 . S
Cd296 O304 2.223 . S
Cd296 O306 2.297 . S
Cd296 O307 2.439 . S
O297 Cd296 2.240 . S
O297 C302 1.279 . S
O298 Cd295 2.297 . S
O298 C300 1.247 . S
O299 Cd295 2.439 . S
O299 C300 1.208 . S
C300 O298 1.247 . S
C300 O299 1.208 . S
C301 O306 1.247 . S
C301 O307 1.208 . S
C302 O294 1.315 . S
C302 O297 1.279 . S
C303 O304 1.315 . S
C303 O305 1.279 . S
O304 Cd296 2.223 . S
O304 C303 1.315 . S
O305 Cd295 2.240 . S
O305 C303 1.279 . S
O306 Cd296 2.297 . S
O306 C301 1.247 . S
O307 Cd296 2.439 . S
O307 C301 1.208 . S
O308 Cd309 2.223 . S
O308 C316 1.315 . S
Cd309 O308 2.223 . S
Cd309 O312 2.297 . S
Cd309 O313 2.439 . S
Cd309 O319 2.240 . S
Cd310 O311 2.240 . S
Cd310 O318 2.223 . S
Cd310 O320 2.297 . S
Cd310 O321 2.439 . S
O311 Cd310 2.240 . S
O311 C316 1.279 . S
O312 Cd309 2.297 . S
O312 C314 1.247 . S
O313 Cd309 2.439 . S
O313 C314 1.208 . S
C314 O312 1.247 . S
C314 O313 1.208 . S
C315 O320 1.247 . S
C315 O321 1.208 . S
C316 O308 1.315 . S
C316 O311 1.279 . S
C317 O318 1.315 . S
C317 O319 1.279 . S
O318 Cd310 2.223 . S
O318 C317 1.315 . S
O319 Cd309 2.240 . S
O319 C317 1.279 . S
O320 Cd310 2.297 . S
O320 C315 1.247 . S
O321 Cd310 2.439 . S
O321 C315 1.208 . S
O322 Cd323 2.223 . S
O322 C330 1.315 . S
Cd323 O322 2.223 . S
Cd323 O326 2.297 . S
Cd323 O327 2.439 . S
Cd323 O333 2.240 . S
Cd324 O325 2.240 . S
Cd324 O332 2.223 . S
Cd324 O334 2.297 . S
Cd324 O335 2.439 . S
O325 Cd324 2.240 . S
O325 C330 1.279 . S
O326 Cd323 2.297 . S
O326 C328 1.247 . S
O327 Cd323 2.439 . S
O327 C328 1.208 . S
C328 O326 1.247 . S
C328 O327 1.208 . S
C329 O334 1.247 . S
C329 O335 1.208 . S
C330 O322 1.315 . S
C330 O325 1.279 . S
C331 O332 1.315 . S
C331 O333 1.279 . S
O332 Cd324 2.223 . S
O332 C331 1.315 . S
O333 Cd323 2.240 . S
O333 C331 1.279 . S
O334 Cd324 2.297 . S
O334 C329 1.247 . S
O335 Cd324 2.439 . S
O335 C329 1.208 . S
O336 Cd337 2.223 . S
O336 C344 1.315 . S
Cd337 O336 2.223 . S
Cd337 O340 2.297 . S
Cd337 O341 2.439 . S
Cd337 O347 2.240 . S
Cd338 O339 2.240 . S
Cd338 O346 2.223 . S
Cd338 O348 2.297 . S
Cd338 O349 2.439 . S
O339 Cd338 2.240 . S
O339 C344 1.279 . S
O340 Cd337 2.297 . S
O340 C342 1.247 . S
O341 Cd337 2.439 . S
O341 C342 1.208 . S
C342 O340 1.247 . S
C342 O341 1.208 . S
C343 O348 1.247 . S
C343 O349 1.208 . S
C344 O336 1.315 . S
C344 O339 1.279 . S
C345 O346 1.315 . S
C345 O347 1.279 . S
O346 Cd338 2.223 . S
O346 C345 1.315 . S
O347 Cd337 2.240 . S
O347 C345 1.279 . S
O348 Cd338 2.297 . S
O348 C343 1.247 . S
O349 Cd338 2.439 . S
O349 C343 1.208 . S
O350 Cd351 2.223 . S
O350 C358 1.315 . S
Cd351 O350 2.223 . S
Cd351 O354 2.297 . S
Cd351 O355 2.439 . S
Cd351 O361 2.240 . S
Cd352 O353 2.240 . S
Cd352 O360 2.223 . S
Cd352 O362 2.297 . S
Cd352 O363 2.439 . S
O353 Cd352 2.240 . S
O353 C358 1.279 . S
O354 Cd351 2.297 . S
O354 C356 1.247 . S
O355 Cd351 2.439 . S
O355 C356 1.208 . S
C356 O354 1.247 . S
C356 O355 1.208 . S
C357 O362 1.247 . S
C357 O363 1.208 . S
C358 O350 1.315 . S
C358 O353 1.279 . S
C359 O360 1.315 . S
C359 O361 1.279 . S
O360 Cd352 2.223 . S
O360 C359 1.315 . S
O361 Cd351 2.240 . S
O361 C359 1.279 . S
O362 Cd352 2.297 . S
O362 C357 1.247 . S
O363 Cd352 2.439 . S
O363 C357 1.208 . S
O364 Cd365 2.223 . S
O364 C372 1.315 . S
Cd365 O364 2.223 . S
Cd365 O368 2.297 . S
Cd365 O369 2.439 . S
Cd365 O375 2.240 . S
Cd366 O367 2.240 . S
Cd366 O374 2.223 . S
Cd366 O376 2.297 . S
Cd366 O377 2.439 . S
O367 Cd366 2.240 . S
O367 C372 1.279 . S
O368 Cd365 2.297 . S
O368 C370 1.247 . S
O369 Cd365 2.439 . S
O369 C370 1.208 . S
C370 O368 1.247 . S
C370 O369 1.208 . S
C371 O376 1.247 . S
C371 O377 1.208 . S
C372 O364 1.315 . S
C372 O367 1.279 . S
C373 O374 1.315 . S
C373 O375 1.279 . S
O374 Cd366 2.223 . S
O374 C373 1.315 . S
O375 Cd365 2.240 . S
O375 C373 1.279 . S
O376 Cd366 2.297 . S
O376 C371 1.247 . S
O377 Cd366 2.439 . S
O377 C371 1.208 . S
O378 Cd379 2.223 . S
O378 C386 1.315 . S
Cd379 O378 2.223 . S
Cd379 O382 2.297 . S
Cd379 O383 2.439 . S
Cd379 O389 2.240 . S
Cd380 O381 2.240 . S
Cd380 O388 2.223 . S
Cd380 O390 2.297 . S
Cd380 O391 2.439 . S
O381 Cd380 2.240 . S
O381 C386 1.279 . S
O382 Cd379 2.297 . S
O382 C384 1.247 . S
O383 Cd379 2.439 . S
O383 C384 1.208 . S
C384 O382 1.247 . S
C384 O383 1.208 . S
C385 O390 1.247 . S
C385 O391 1.208 . S
C386 O378 1.315 . S
C386 O381 1.279 . S
C387 O388 1.315 . S
C387 O389 1.279 . S
O388 Cd380 2.223 . S
O388 C387 1.315 . S
O389 Cd379 2.240 . S
O389 C387 1.279 . S
O390 Cd380 2.297 . S
O390 C385 1.247 . S
O391 Cd380 2.439 . S
O391 C385 1.208 . S
O392 Cd393 2.223 . S
O392 C400 1.315 . S
Cd393 O392 2.223 . S
Cd393 O396 2.297 . S
Cd393 O397 2.439 . S
Cd393 O403 2.240 . S
Cd394 O395 2.240 . S
Cd394 O402 2.223 . S
Cd394 O404 2.297 . S
Cd394 O405 2.439 . S
O395 Cd394 2.240 . S
O395 C400 1.279 . S
O396 Cd393 2.297 . S
O396 C398 1.247 . S
O397 Cd393 2.439 . S
O397 C398 1.208 . S
C398 O396 1.247 . S
C398 O397 1.208 . S
C399 O404 1.247 . S
C399 O405 1.208 . S
C400 O392 1.315 . S
C400 O395 1.279 . S
C401 O402 1.315 . S
C401 O403 1.279 . S
O402 Cd394 2.223 . S
O402 C401 1.315 . S
O403 Cd393 2.240 . S
O403 C401 1.279 . S
O404 Cd394 2.297 . S
O404 C399 1.247 . S
O405 Cd394 2.439 . S
O405 C399 1.208 . S
O406 Cd407 2.223 . S
O406 C414 1.315 . S
Cd407 O406 2.223 . S
Cd407 O410 2.297 . S
Cd407 O411 2.439 . S
Cd407 O417 2.240 . S
Cd408 O409 2.240 . S
Cd408 O416 2.223 . S
Cd408 O418 2.297 . S
Cd408 O419 2.439 . S
O409 Cd408 2.240 . S
O409 C414 1.279 . S
O410 Cd407 2.297 . S
O410 C412 1.247 . S
O411 Cd407 2.439 . S
O411 C412 1.208 . S
C412 O410 1.247 . S
C412 O411 1.208 . S
C413 O418 1.247 . S
C413 O419 1.208 . S
C414 O406 1.315 . S
C414 O409 1.279 . S
C415 O416 1.315 . S
C415 O417 1.279 . S
O416 Cd408 2.223 . S
O416 C415 1.315 . S
O417 Cd407 2.240 . S
O417 C415 1.279 . S
O418 Cd408 2.297 . S
O418 C413 1.247 . S
O419 Cd408 2.439 . S
O419 C413 1.208 . S
O420 Cd421 2.223 . S
O420 C428 1.315 . S
Cd421 O420 2.223 . S
Cd421 O424 2.297 . S
Cd421 O425 2.439 . S
Cd421 O431 2.240 . S
Cd422 O423 2.240 . S
Cd422 O430 2.223 . S
Cd422 O432 2.297 . S
Cd422 O433 2.439 . S
O423 Cd422 2.240 . S
O423 C428 1.279 . S
O424 Cd421 2.297 . S
O424 C426 1.247 . S
O425 Cd421 2.439 . S
O425 C426 1.208 . S
C426 O424 1.247 . S
C426 O425 1.208 . S
C427 O432 1.247 . S
C427 O433 1.208 . S
C428 O420 1.315 . S
C428 O423 1.279 . S
C429 O430 1.315 . S
C429 O431 1.279 . S
O430 Cd422 2.223 . S
O430 C429 1.315 . S
O431 Cd421 2.240 . S
O431 C429 1.279 . S
O432 Cd422 2.297 . S
O432 C427 1.247 . S
O433 Cd422 2.439 . S
O433 C427 1.208 . S
O434 Cd435 2.223 . S
O434 C442 1.315 . S
Cd435 O434 2.223 . S
Cd435 O438 2.297 . S
Cd435 O439 2.439 . S
Cd435 O445 2.240 . S
Cd436 O437 2.240 . S
Cd436 O444 2.223 . S
Cd436 O446 2.297 . S
Cd436 O447 2.439 . S
O437 Cd436 2.240 . S
O437 C442 1.279 . S
O438 Cd435 2.297 . S
O438 C440 1.247 . S
O439 Cd435 2.439 . S
O439 C440 1.208 . S
C440 O438 1.247 . S
C440 O439 1.208 . S
C441 O446 1.247 . S
C441 O447 1.208 . S
C442 O434 1.315 . S
C442 O437 1.279 . S
C443 O444 1.315 . S
C443 O445 1.279 . S
O444 Cd436 2.223 . S
O444 C443 1.315 . S
O445 Cd435 2.240 . S
O445 C443 1.279 . S
O446 Cd436 2.297 . S
O446 C441 1.247 . S
O447 Cd436 2.439 . S
O447 C441 1.208 . S
C448 C449 1.387 . S
C448 H452 0.950 . S
C448 C457 1.390 . S
C449 C448 1.387 . S
C449 C451 1.387 . S
H450 C457 0.950 . S
C451 C449 1.387 . S
C451 C453 1.390 . S
C451 H455 0.950 . S
H452 C448 0.950 . S
C453 C451 1.390 . S
C453 C454 1.387 . S
C453 H456 0.950 . S
C454 C453 1.387 . S
C454 C457 1.387 . S
H455 C451 0.950 . S
H456 C453 0.950 . S
C457 C448 1.390 . S
C457 H450 0.950 . S
C457 C454 1.387 . S
C458 C459 1.387 . S
C458 H462 0.950 . S
C458 C467 1.390 . S
C459 C458 1.387 . S
C459 C461 1.387 . S
H460 C467 0.950 . S
C461 C459 1.387 . S
C461 C463 1.390 . S
C461 H465 0.950 . S
H462 C458 0.950 . S
C463 C461 1.390 . S
C463 C464 1.387 . S
C463 H466 0.950 . S
C464 C463 1.387 . S
C464 C467 1.387 . S
H465 C461 0.950 . S
H466 C463 0.950 . S
C467 C458 1.390 . S
C467 H460 0.950 . S
C467 C464 1.387 . S
C468 C469 1.387 . S
C468 H472 0.950 . S
C468 C477 1.390 . S
C469 C468 1.387 . S
C469 C471 1.387 . S
H470 C477 0.950 . S
C471 C469 1.387 . S
C471 C473 1.390 . S
C471 H475 0.950 . S
H472 C468 0.950 . S
C473 C471 1.390 . S
C473 C474 1.387 . S
C473 H476 0.950 . S
C474 C473 1.387 . S
C474 C477 1.387 . S
H475 C471 0.950 . S
H476 C473 0.950 . S
C477 C468 1.390 . S
C477 H470 0.950 . S
C477 C474 1.387 . S
C478 C479 1.387 . S
C478 H482 0.950 . S
C478 C487 1.390 . S
C479 C478 1.387 . S
C479 C481 1.387 . S
H480 C487 0.950 . S
C481 C479 1.387 . S
C481 C483 1.390 . S
C481 H485 0.950 . S
H482 C478 0.950 . S
C483 C481 1.390 . S
C483 C484 1.387 . S
C483 H486 0.950 . S
C484 C483 1.387 . S
C484 C487 1.387 . S
H485 C481 0.950 . S
H486 C483 0.950 . S
C487 C478 1.390 . S
C487 H480 0.950 . S
C487 C484 1.387 . S
C488 C489 1.387 . S
C488 H492 0.950 . S
C488 C497 1.390 . S
C489 C488 1.387 . S
C489 C491 1.387 . S
H490 C497 0.950 . S
C491 C489 1.387 . S
C491 C493 1.390 . S
C491 H495 0.950 . S
H492 C488 0.950 . S
C493 C491 1.390 . S
C493 C494 1.387 . S
C493 H496 0.950 . S
C494 C493 1.387 . S
C494 C497 1.387 . S
H495 C491 0.950 . S
H496 C493 0.950 . S
C497 C488 1.390 . S
C497 H490 0.950 . S
C497 C494 1.387 . S
C498 C499 1.387 . S
C498 H502 0.950 . S
C498 C507 1.390 . S
C499 C498 1.387 . S
C499 C501 1.387 . S
H500 C507 0.950 . S
C501 C499 1.387 . S
C501 C503 1.390 . S
C501 H505 0.950 . S
H502 C498 0.950 . S
C503 C501 1.390 . S
C503 C504 1.387 . S
C503 H506 0.950 . S
C504 C503 1.387 . S
C504 C507 1.387 . S
H505 C501 0.950 . S
H506 C503 0.950 . S
C507 C498 1.390 . S
C507 H500 0.950 . S
C507 C504 1.387 . S
C508 C509 1.387 . S
C508 H512 0.950 . S
C508 C517 1.390 . S
C509 C508 1.387 . S
C509 C511 1.387 . S
H510 C517 0.950 . S
C511 C509 1.387 . S
C511 C513 1.390 . S
C511 H515 0.950 . S
H512 C508 0.950 . S
C513 C511 1.390 . S
C513 C514 1.387 . S
C513 H516 0.950 . S
C514 C513 1.387 . S
C514 C517 1.387 . S
H515 C511 0.950 . S
H516 C513 0.950 . S
C517 C508 1.390 . S
C517 H510 0.950 . S
C517 C514 1.387 . S
C518 C519 1.387 . S
C518 H522 0.950 . S
C518 C527 1.390 . S
C519 C518 1.387 . S
C519 C521 1.387 . S
H520 C527 0.950 . S
C521 C519 1.387 . S
C521 C523 1.390 . S
C521 H525 0.950 . S
H522 C518 0.950 . S
C523 C521 1.390 . S
C523 C524 1.387 . S
C523 H526 0.950 . S
C524 C523 1.387 . S
C524 C527 1.387 . S
H525 C521 0.950 . S
H526 C523 0.950 . S
C527 C518 1.390 . S
C527 H520 0.950 . S
C527 C524 1.387 . S
C528 C529 1.387 . S
C528 H532 0.950 . S
C528 C537 1.390 . S
C529 C528 1.387 . S
C529 C531 1.387 . S
H530 C537 0.950 . S
C531 C529 1.387 . S
C531 C533 1.390 . S
C531 H535 0.950 . S
H532 C528 0.950 . S
C533 C531 1.390 . S
C533 C534 1.387 . S
C533 H536 0.950 . S
C534 C533 1.387 . S
C534 C537 1.387 . S
H535 C531 0.950 . S
H536 C533 0.950 . S
C537 C528 1.390 . S
C537 H530 0.950 . S
C537 C534 1.387 . S
C538 C539 1.387 . S
C538 H542 0.950 . S
C538 C547 1.390 . S
C539 C538 1.387 . S
C539 C541 1.387 . S
H540 C547 0.950 . S
C541 C539 1.387 . S
C541 C543 1.390 . S
C541 H545 0.950 . S
H542 C538 0.950 . S
C543 C541 1.390 . S
C543 C544 1.387 . S
C543 H546 0.950 . S
C544 C543 1.387 . S
C544 C547 1.387 . S
H545 C541 0.950 . S
H546 C543 0.950 . S
C547 C538 1.390 . S
C547 H540 0.950 . S
C547 C544 1.387 . S
C548 C549 1.387 . S
C548 H552 0.950 . S
C548 C557 1.390 . S
C549 C548 1.387 . S
C549 C551 1.387 . S
H550 C557 0.950 . S
C551 C549 1.387 . S
C551 C553 1.390 . S
C551 H555 0.950 . S
H552 C548 0.950 . S
C553 C551 1.390 . S
C553 C554 1.387 . S
C553 H556 0.950 . S
C554 C553 1.387 . S
C554 C557 1.387 . S
H555 C551 0.950 . S
H556 C553 0.950 . S
C557 C548 1.390 . S
C557 H550 0.950 . S
C557 C554 1.387 . S
C558 C559 1.387 . S
C558 H562 0.950 . S
C558 C567 1.390 . S
C559 C558 1.387 . S
C559 C561 1.387 . S
H560 C567 0.950 . S
C561 C559 1.387 . S
C561 C563 1.390 . S
C561 H565 0.950 . S
H562 C558 0.950 . S
C563 C561 1.390 . S
C563 C564 1.387 . S
C563 H566 0.950 . S
C564 C563 1.387 . S
C564 C567 1.387 . S
H565 C561 0.950 . S
H566 C563 0.950 . S
C567 C558 1.390 . S
C567 H560 0.950 . S
C567 C564 1.387 . S
C568 C569 1.387 . S
C568 H572 0.950 . S
C568 C577 1.390 . S
C569 C568 1.387 . S
C569 C571 1.387 . S
H570 C577 0.950 . S
C571 C569 1.387 . S
C571 C573 1.390 . S
C571 H575 0.950 . S
H572 C568 0.950 . S
C573 C571 1.390 . S
C573 C574 1.387 . S
C573 H576 0.950 . S
C574 C573 1.387 . S
C574 C577 1.387 . S
H575 C571 0.950 . S
H576 C573 0.950 . S
C577 C568 1.390 . S
C577 H570 0.950 . S
C577 C574 1.387 . S
C578 C579 1.387 . S
C578 H582 0.950 . S
C578 C587 1.390 . S
C579 C578 1.387 . S
C579 C581 1.387 . S
H580 C587 0.950 . S
C581 C579 1.387 . S
C581 C583 1.390 . S
C581 H585 0.950 . S
H582 C578 0.950 . S
C583 C581 1.390 . S
C583 C584 1.387 . S
C583 H586 0.950 . S
C584 C583 1.387 . S
C584 C587 1.387 . S
H585 C581 0.950 . S
H586 C583 0.950 . S
C587 C578 1.390 . S
C587 H580 0.950 . S
C587 C584 1.387 . S
C588 C589 1.387 . S
C588 H592 0.950 . S
C588 C597 1.390 . S
C589 C588 1.387 . S
C589 C591 1.387 . S
H590 C597 0.950 . S
C591 C589 1.387 . S
C591 C593 1.390 . S
C591 H595 0.950 . S
H592 C588 0.950 . S
C593 C591 1.390 . S
C593 C594 1.387 . S
C593 H596 0.950 . S
C594 C593 1.387 . S
C594 C597 1.387 . S
H595 C591 0.950 . S
H596 C593 0.950 . S
C597 C588 1.390 . S
C597 H590 0.950 . S
C597 C594 1.387 . S
C598 C599 1.387 . S
C598 H602 0.950 . S
C598 C607 1.390 . S
C599 C598 1.387 . S
C599 C601 1.387 . S
H600 C607 0.950 . S
C601 C599 1.387 . S
C601 C603 1.390 . S
C601 H605 0.950 . S
H602 C598 0.950 . S
C603 C601 1.390 . S
C603 C604 1.387 . S
C603 H606 0.950 . S
C604 C603 1.387 . S
C604 C607 1.387 . S
H605 C601 0.950 . S
H606 C603 0.950 . S
C607 C598 1.390 . S
C607 H600 0.950 . S
C607 C604 1.387 . S
C608 C609 1.387 . S
C608 H612 0.950 . S
C608 C617 1.390 . S
C609 C608 1.387 . S
C609 C611 1.387 . S
H610 C617 0.950 . S
C611 C609 1.387 . S
C611 C613 1.390 . S
C611 H615 0.950 . S
H612 C608 0.950 . S
C613 C611 1.390 . S
C613 C614 1.387 . S
C613 H616 0.950 . S
C614 C613 1.387 . S
C614 C617 1.387 . S
H615 C611 0.950 . S
H616 C613 0.950 . S
C617 C608 1.390 . S
C617 H610 0.950 . S
C617 C614 1.387 . S
C618 C619 1.387 . S
C618 H622 0.950 . S
C618 C627 1.390 . S
C619 C618 1.387 . S
C619 C621 1.387 . S
H620 C627 0.950 . S
C621 C619 1.387 . S
C621 C623 1.390 . S
C621 H625 0.950 . S
H622 C618 0.950 . S
C623 C621 1.390 . S
C623 C624 1.387 . S
C623 H626 0.950 . S
C624 C623 1.387 . S
C624 C627 1.387 . S
H625 C621 0.950 . S
H626 C623 0.950 . S
C627 C618 1.390 . S
C627 H620 0.950 . S
C627 C624 1.387 . S
C628 C629 1.387 . S
C628 H632 0.950 . S
C628 C637 1.390 . S
C629 C628 1.387 . S
C629 C631 1.387 . S
H630 C637 0.950 . S
C631 C629 1.387 . S
C631 C633 1.390 . S
C631 H635 0.950 . S
H632 C628 0.950 . S
C633 C631 1.390 . S
C633 C634 1.387 . S
C633 H636 0.950 . S
C634 C633 1.387 . S
C634 C637 1.387 . S
H635 C631 0.950 . S
H636 C633 0.950 . S
C637 C628 1.390 . S
C637 H630 0.950 . S
C637 C634 1.387 . S
C638 C639 1.387 . S
C638 H642 0.950 . S
C638 C647 1.390 . S
C639 C638 1.387 . S
C639 C641 1.387 . S
H640 C647 0.950 . S
C641 C639 1.387 . S
C641 C643 1.390 . S
C641 H645 0.950 . S
H642 C638 0.950 . S
C643 C641 1.390 . S
C643 C644 1.387 . S
C643 H646 0.950 . S
C644 C643 1.387 . S
C644 C647 1.387 . S
H645 C641 0.950 . S
H646 C643 0.950 . S
C647 C638 1.390 . S
C647 H640 0.950 . S
C647 C644 1.387 . S
C648 C649 1.387 . S
C648 H652 0.950 . S
C648 C657 1.390 . S
C649 C648 1.387 . S
C649 C651 1.387 . S
H650 C657 0.950 . S
C651 C649 1.387 . S
C651 C653 1.390 . S
C651 H655 0.950 . S
H652 C648 0.950 . S
C653 C651 1.390 . S
C653 C654 1.387 . S
C653 H656 0.950 . S
C654 C653 1.387 . S
C654 C657 1.387 . S
H655 C651 0.950 . S
H656 C653 0.950 . S
C657 C648 1.390 . S
C657 H650 0.950 . S
C657 C654 1.387 . S
C658 C659 1.387 . S
C658 H662 0.950 . S
C658 C667 1.390 . S
C659 C658 1.387 . S
C659 C661 1.387 . S
H660 C667 0.950 . S
C661 C659 1.387 . S
C661 C663 1.390 . S
C661 H665 0.950 . S
H662 C658 0.950 . S
C663 C661 1.390 . S
C663 C664 1.387 . S
C663 H666 0.950 . S
C664 C663 1.387 . S
C664 C667 1.387 . S
H665 C661 0.950 . S
H666 C663 0.950 . S
C667 C658 1.390 . S
C667 H660 0.950 . S
C667 C664 1.387 . S
C668 C669 1.387 . S
C668 H672 0.950 . S
C668 C677 1.390 . S
C669 C668 1.387 . S
C669 C671 1.387 . S
H670 C677 0.950 . S
C671 C669 1.387 . S
C671 C673 1.390 . S
C671 H675 0.950 . S
H672 C668 0.950 . S
C673 C671 1.390 . S
C673 C674 1.387 . S
C673 H676 0.950 . S
C674 C673 1.387 . S
C674 C677 1.387 . S
H675 C671 0.950 . S
H676 C673 0.950 . S
C677 C668 1.390 . S
C677 H670 0.950 . S
C677 C674 1.387 . S
C678 C679 1.387 . S
C678 H682 0.950 . S
C678 C687 1.390 . S
C679 C678 1.387 . S
C679 C681 1.387 . S
H680 C687 0.950 . S
C681 C679 1.387 . S
C681 C683 1.390 . S
C681 H685 0.950 . S
H682 C678 0.950 . S
C683 C681 1.390 . S
C683 C684 1.387 . S
C683 H686 0.950 . S
C684 C683 1.387 . S
C684 C687 1.387 . S
H685 C681 0.950 . S
H686 C683 0.950 . S
C687 C678 1.390 . S
C687 H680 0.950 . S
C687 C684 1.387 . S
C688 C689 1.387 . S
C688 H692 0.950 . S
C688 C697 1.390 . S
C689 C688 1.387 . S
C689 C691 1.387 . S
H690 C697 0.950 . S
C691 C689 1.387 . S
C691 C693 1.390 . S
C691 H695 0.950 . S
H692 C688 0.950 . S
C693 C691 1.390 . S
C693 C694 1.387 . S
C693 H696 0.950 . S
C694 C693 1.387 . S
C694 C697 1.387 . S
H695 C691 0.950 . S
H696 C693 0.950 . S
C697 C688 1.390 . S
C697 H690 0.950 . S
C697 C694 1.387 . S
C698 C699 1.387 . S
C698 H702 0.950 . S
C698 C707 1.390 . S
C699 C698 1.387 . S
C699 C701 1.387 . S
H700 C707 0.950 . S
C701 C699 1.387 . S
C701 C703 1.390 . S
C701 H705 0.950 . S
H702 C698 0.950 . S
C703 C701 1.390 . S
C703 C704 1.387 . S
C703 H706 0.950 . S
C704 C703 1.387 . S
C704 C707 1.387 . S
H705 C701 0.950 . S
H706 C703 0.950 . S
C707 C698 1.390 . S
C707 H700 0.950 . S
C707 C704 1.387 . S
C708 C709 1.387 . S
C708 H712 0.950 . S
C708 C717 1.390 . S
C709 C708 1.387 . S
C709 C711 1.387 . S
H710 C717 0.950 . S
C711 C709 1.387 . S
C711 C713 1.390 . S
C711 H715 0.950 . S
H712 C708 0.950 . S
C713 C711 1.390 . S
C713 C714 1.387 . S
C713 H716 0.950 . S
C714 C713 1.387 . S
C714 C717 1.387 . S
H715 C711 0.950 . S
H716 C713 0.950 . S
C717 C708 1.390 . S
C717 H710 0.950 . S
C717 C714 1.387 . S
C718 C719 1.387 . S
C718 H722 0.950 . S
C718 C727 1.390 . S
C719 C718 1.387 . S
C719 C721 1.387 . S
H720 C727 0.950 . S
C721 C719 1.387 . S
C721 C723 1.390 . S
C721 H725 0.950 . S
H722 C718 0.950 . S
C723 C721 1.390 . S
C723 C724 1.387 . S
C723 H726 0.950 . S
C724 C723 1.387 . S
C724 C727 1.387 . S
H725 C721 0.950 . S
H726 C723 0.950 . S
C727 C718 1.390 . S
C727 H720 0.950 . S
C727 C724 1.387 . S
C728 C729 1.387 . S
C728 H732 0.950 . S
C728 C737 1.390 . S
C729 C728 1.387 . S
C729 C731 1.387 . S
H730 C737 0.950 . S
C731 C729 1.387 . S
C731 C733 1.390 . S
C731 H735 0.950 . S
H732 C728 0.950 . S
C733 C731 1.390 . S
C733 C734 1.387 . S
C733 H736 0.950 . S
C734 C733 1.387 . S
C734 C737 1.387 . S
H735 C731 0.950 . S
H736 C733 0.950 . S
C737 C728 1.390 . S
C737 H730 0.950 . S
C737 C734 1.387 . S
C738 C739 1.387 . S
C738 H742 0.950 . S
C738 C747 1.390 . S
C739 C738 1.387 . S
C739 C741 1.387 . S
H740 C747 0.950 . S
C741 C739 1.387 . S
C741 C743 1.390 . S
C741 H745 0.950 . S
H742 C738 0.950 . S
C743 C741 1.390 . S
C743 C744 1.387 . S
C743 H746 0.950 . S
C744 C743 1.387 . S
C744 C747 1.387 . S
H745 C741 0.950 . S
H746 C743 0.950 . S
C747 C738 1.390 . S
C747 H740 0.950 . S
C747 C744 1.387 . S
C748 C749 1.387 . S
C748 H752 0.950 . S
C748 C757 1.390 . S
C749 C748 1.387 . S
C749 C751 1.387 . S
H750 C757 0.950 . S
C751 C749 1.387 . S
C751 C753 1.390 . S
C751 H755 0.950 . S
H752 C748 0.950 . S
C753 C751 1.390 . S
C753 C754 1.387 . S
C753 H756 0.950 . S
C754 C753 1.387 . S
C754 C757 1.387 . S
H755 C751 0.950 . S
H756 C753 0.950 . S
C757 C748 1.390 . S
C757 H750 0.950 . S
C757 C754 1.387 . S
C758 C759 1.387 . S
C758 H762 0.950 . S
C758 C767 1.390 . S
C759 C758 1.387 . S
C759 C761 1.387 . S
H760 C767 0.950 . S
C761 C759 1.387 . S
C761 C763 1.390 . S
C761 H765 0.950 . S
H762 C758 0.950 . S
C763 C761 1.390 . S
C763 C764 1.387 . S
C763 H766 0.950 . S
C764 C763 1.387 . S
C764 C767 1.387 . S
H765 C761 0.950 . S
H766 C763 0.950 . S
C767 C758 1.390 . S
C767 H760 0.950 . S
C767 C764 1.387 . S
C768 C769 1.387 . S
C768 H772 0.950 . S
C768 C777 1.390 . S
C769 C768 1.387 . S
C769 C771 1.387 . S
H770 C777 0.950 . S
C771 C769 1.387 . S
C771 C773 1.390 . S
C771 H775 0.950 . S
H772 C768 0.950 . S
C773 C771 1.390 . S
C773 C774 1.387 . S
C773 H776 0.950 . S
C774 C773 1.387 . S
C774 C777 1.387 . S
H775 C771 0.950 . S
H776 C773 0.950 . S
C777 C768 1.390 . S
C777 H770 0.950 . S
C777 C774 1.387 . S
C778 C779 1.387 1_655 S
C778 H782 0.950 . S
C778 C787 1.390 . S
C779 C778 1.387 1_455 S
C779 C781 1.387 1_565 S
H780 C787 0.950 . S
C781 C779 1.387 1_545 S
C781 C783 1.390 . S
C781 H785 0.950 . S
H782 C778 0.950 . S
C783 C781 1.390 . S
C783 C784 1.387 1_455 S
C783 H786 0.950 . S
C784 C783 1.387 1_655 S
C784 C787 1.387 1_545 S
H785 C781 0.950 . S
H786 C783 0.950 . S
C787 C778 1.390 . S
C787 H780 0.950 . S
C787 C784 1.387 1_565 S
C788 C789 1.387 . S
C788 H792 0.950 . S
C788 C797 1.390 . S
C789 C788 1.387 . S
C789 C791 1.387 . S
H790 C797 0.950 . S
C791 C789 1.387 . S
C791 C793 1.390 . S
C791 H795 0.950 . S
H792 C788 0.950 . S
C793 C791 1.390 . S
C793 C794 1.387 . S
C793 H796 0.950 . S
C794 C793 1.387 . S
C794 C797 1.387 . S
H795 C791 0.950 . S
H796 C793 0.950 . S
C797 C788 1.390 . S
C797 H790 0.950 . S
C797 C794 1.387 . S
C798 C799 1.387 1_565 S
C798 H802 0.950 . S
C798 C807 1.390 1_554 S
C799 C798 1.387 1_545 S
C799 C801 1.387 . S
H800 C807 0.950 . S
C801 C799 1.387 . S
C801 C803 1.390 1_554 S
C801 H805 0.950 . S
H802 C798 0.950 . S
C803 C801 1.390 1_556 S
C803 C804 1.387 1_545 S
C803 H806 0.950 . S
C804 C803 1.387 1_565 S
C804 C807 1.387 . S
H805 C801 0.950 . S
H806 C803 0.950 . S
C807 C798 1.390 1_556 S
C807 H800 0.950 . S
C807 C804 1.387 . S
C808 C809 1.387 . S
C808 H812 0.950 . S
C808 C817 1.390 . S
C809 C808 1.387 . S
C809 C811 1.387 . S
H810 C817 0.950 . S
C811 C809 1.387 . S
C811 C813 1.390 . S
C811 H815 0.950 . S
H812 C808 0.950 . S
C813 C811 1.390 . S
C813 C814 1.387 . S
C813 H816 0.950 . S
C814 C813 1.387 . S
C814 C817 1.387 . S
H815 C811 0.950 . S
H816 C813 0.950 . S
C817 C808 1.390 . S
C817 H810 0.950 . S
C817 C814 1.387 . S
C818 C819 1.387 . S
C818 H822 0.950 . S
C818 C827 1.390 . S
C819 C818 1.387 . S
C819 C821 1.387 1_565 S
H820 C827 0.950 . S
C821 C819 1.387 1_545 S
C821 C823 1.390 . S
C821 H825 0.950 . S
H822 C818 0.950 . S
C823 C821 1.390 . S
C823 C824 1.387 . S
C823 H826 0.950 . S
C824 C823 1.387 . S
C824 C827 1.387 1_545 S
H825 C821 0.950 . S
H826 C823 0.950 . S
C827 C818 1.390 . S
C827 H820 0.950 . S
C827 C824 1.387 1_565 S
C828 C829 1.387 . S
C828 H832 0.950 . S
C828 C837 1.390 . S
C829 C828 1.387 . S
C829 C831 1.387 . S
H830 C837 0.950 . S
C831 C829 1.387 . S
C831 C833 1.390 . S
C831 H835 0.950 . S
H832 C828 0.950 . S
C833 C831 1.390 . S
C833 C834 1.387 . S
C833 H836 0.950 . S
C834 C833 1.387 . S
C834 C837 1.387 . S
H835 C831 0.950 . S
H836 C833 0.950 . S
C837 C828 1.390 . S
C837 H830 0.950 . S
C837 C834 1.387 . S
C838 C839 1.387 1_655 S
C838 H842 0.950 . S
C838 C847 1.390 1_556 S
C839 C838 1.387 1_455 S
C839 C841 1.387 1_545 S
H840 C847 0.950 . S
C841 C839 1.387 1_565 S
C841 C843 1.390 1_556 S
C841 H845 0.950 . S
H842 C838 0.950 . S
C843 C841 1.390 1_554 S
C843 C844 1.387 1_455 S
C843 H846 0.950 . S
C844 C843 1.387 1_655 S
C844 C847 1.387 1_565 S
H845 C841 0.950 . S
H846 C843 0.950 . S
C847 C838 1.390 1_554 S
C847 H840 0.950 . S
C847 C844 1.387 1_545 S
C848 C849 1.387 . S
C848 H852 0.950 . S
C848 C857 1.390 . S
C849 C848 1.387 . S
C849 C851 1.387 . S
H850 C857 0.950 . S
C851 C849 1.387 . S
C851 C853 1.390 . S
C851 H855 0.950 . S
H852 C848 0.950 . S
C853 C851 1.390 . S
C853 C854 1.387 . S
C853 H856 0.950 . S
C854 C853 1.387 . S
C854 C857 1.387 . S
H855 C851 0.950 . S
H856 C853 0.950 . S
C857 C848 1.390 . S
C857 H850 0.950 . S
C857 C854 1.387 . S
C858 C859 1.387 . S
C858 H862 0.950 . S
C858 C867 1.390 . S
C859 C858 1.387 . S
C859 C861 1.387 . S
H860 C867 0.950 . S
C861 C859 1.387 . S
C861 C863 1.390 . S
C861 H865 0.950 . S
H862 C858 0.950 . S
C863 C861 1.390 . S
C863 C864 1.387 . S
C863 H866 0.950 . S
C864 C863 1.387 . S
C864 C867 1.387 . S
H865 C861 0.950 . S
H866 C863 0.950 . S
C867 C858 1.390 . S
C867 H860 0.950 . S
C867 C864 1.387 . S
C868 C869 1.387 . S
C868 H872 0.950 . S
C868 C877 1.390 . S
C869 C868 1.387 . S
C869 C871 1.387 . S
H870 C877 0.950 . S
C871 C869 1.387 . S
C871 C873 1.390 . S
C871 H875 0.950 . S
H872 C868 0.950 . S
C873 C871 1.390 . S
C873 C874 1.387 . S
C873 H876 0.950 . S
C874 C873 1.387 . S
C874 C877 1.387 . S
H875 C871 0.950 . S
H876 C873 0.950 . S
C877 C868 1.390 . S
C877 H870 0.950 . S
C877 C874 1.387 . S
C878 C879 1.387 . S
C878 H882 0.950 . S
C878 C887 1.390 . S
C879 C878 1.387 . S
C879 C881 1.387 . S
H880 C887 0.950 . S
C881 C879 1.387 . S
C881 C883 1.390 . S
C881 H885 0.950 . S
H882 C878 0.950 . S
C883 C881 1.390 . S
C883 C884 1.387 . S
C883 H886 0.950 . S
C884 C883 1.387 . S
C884 C887 1.387 . S
H885 C881 0.950 . S
H886 C883 0.950 . S
C887 C878 1.390 . S
C887 H880 0.950 . S
C887 C884 1.387 . S
C888 C889 1.387 . S
C888 H892 0.950 . S
C888 C897 1.390 1_554 S
C889 C888 1.387 . S
C889 C891 1.387 . S
H890 C897 0.950 . S
C891 C889 1.387 . S
C891 C893 1.390 1_554 S
C891 H895 0.950 . S
H892 C888 0.950 . S
C893 C891 1.390 1_556 S
C893 C894 1.387 . S
C893 H896 0.950 . S
C894 C893 1.387 . S
C894 C897 1.387 . S
H895 C891 0.950 . S
H896 C893 0.950 . S
C897 C888 1.390 1_556 S
C897 H890 0.950 . S
C897 C894 1.387 . S
C898 C899 1.387 1_655 S
C898 H902 0.950 . S
C898 C907 1.390 . S
C899 C898 1.387 1_455 S
C899 C901 1.387 . S
H900 C907 0.950 . S
C901 C899 1.387 . S
C901 C903 1.390 . S
C901 H905 0.950 . S
H902 C898 0.950 . S
C903 C901 1.390 . S
C903 C904 1.387 1_455 S
C903 H906 0.950 . S
C904 C903 1.387 1_655 S
C904 C907 1.387 . S
H905 C901 0.950 . S
H906 C903 0.950 . S
C907 C898 1.390 . S
C907 H900 0.950 . S
C907 C904 1.387 . S
C908 C909 1.387 . S
C908 H912 0.950 . S
C908 C917 1.390 1_554 S
C909 C908 1.387 . S
C909 C911 1.387 1_455 S
H910 C917 0.950 . S
C911 C909 1.387 1_655 S
C911 C913 1.390 1_554 S
C911 H915 0.950 . S
H912 C908 0.950 . S
C913 C911 1.390 1_556 S
C913 C914 1.387 . S
C913 H916 0.950 . S
C914 C913 1.387 . S
C914 C917 1.387 1_655 S
H915 C911 0.950 . S
H916 C913 0.950 . S
C917 C908 1.390 1_556 S
C917 H910 0.950 . S
C917 C914 1.387 1_455 S
C918 C919 1.387 . S
C918 H922 0.950 . S
C918 C927 1.390 . S
C919 C918 1.387 . S
C919 C921 1.387 . S
H920 C927 0.950 . S
C921 C919 1.387 . S
C921 C923 1.390 . S
C921 H925 0.950 . S
H922 C918 0.950 . S
C923 C921 1.390 . S
C923 C924 1.387 . S
C923 H926 0.950 . S
C924 C923 1.387 . S
C924 C927 1.387 . S
H925 C921 0.950 . S
H926 C923 0.950 . S
C927 C918 1.390 . S
C927 H920 0.950 . S
C927 C924 1.387 . S
C928 C929 1.387 . S
C928 H932 0.950 . S
C928 C937 1.390 . S
C929 C928 1.387 . S
C929 C931 1.387 . S
H930 C937 0.950 . S
C931 C929 1.387 . S
C931 C933 1.390 . S
C931 H935 0.950 . S
H932 C928 0.950 . S
C933 C931 1.390 . S
C933 C934 1.387 . S
C933 H936 0.950 1_545 S
C934 C933 1.387 . S
C934 C937 1.387 . S
H935 C931 0.950 . S
H936 C933 0.950 1_565 S
C937 C928 1.390 . S
C937 H930 0.950 . S
C937 C934 1.387 . S
C938 C939 1.387 . S
C938 H942 0.950 . S
C938 C947 1.390 . S
C939 C938 1.387 . S
C939 C941 1.387 . S
H940 C947 0.950 . S
C941 C939 1.387 . S
C941 C943 1.390 . S
C941 H945 0.950 . S
H942 C938 0.950 . S
C943 C941 1.390 . S
C943 C944 1.387 . S
C943 H946 0.950 . S
C944 C943 1.387 . S
C944 C947 1.387 . S
H945 C941 0.950 . S
H946 C943 0.950 . S
C947 C938 1.390 . S
C947 H940 0.950 . S
C947 C944 1.387 . S
C948 C949 1.387 . S
C948 H952 0.950 . S
C948 C957 1.390 . S
C949 C948 1.387 . S
C949 C951 1.387 . S
H950 C957 0.950 . S
C951 C949 1.387 . S
C951 C953 1.390 . S
C951 H955 0.950 . S
H952 C948 0.950 . S
C953 C951 1.390 . S
C953 C954 1.387 . S
C953 H956 0.950 . S
C954 C953 1.387 . S
C954 C957 1.387 . S
H955 C951 0.950 . S
H956 C953 0.950 . S
C957 C948 1.390 . S
C957 H950 0.950 . S
C957 C954 1.387 . S
C958 C959 1.387 . S
C958 H962 0.950 . S
C958 C967 1.390 . S
C959 C958 1.387 . S
C959 C961 1.387 . S
H960 C967 0.950 . S
C961 C959 1.387 . S
C961 C963 1.390 . S
C961 H965 0.950 . S
H962 C958 0.950 . S
C963 C961 1.390 . S
C963 C964 1.387 . S
C963 H966 0.950 . S
C964 C963 1.387 . S
C964 C967 1.387 . S
H965 C961 0.950 . S
H966 C963 0.950 . S
C967 C958 1.390 . S
C967 H960 0.950 . S
C967 C964 1.387 . S
C968 C969 1.387 . S
C968 H972 0.950 . S
C968 C977 1.390 . S
C969 C968 1.387 . S
C969 C971 1.387 . S
H970 C977 0.950 . S
C971 C969 1.387 . S
C971 C973 1.390 . S
C971 H975 0.950 . S
H972 C968 0.950 . S
C973 C971 1.390 . S
C973 C974 1.387 . S
C973 H976 0.950 . S
C974 C973 1.387 . S
C974 C977 1.387 . S
H975 C971 0.950 . S
H976 C973 0.950 . S
C977 C968 1.390 . S
C977 H970 0.950 . S
C977 C974 1.387 . S
C978 C979 1.387 . S
C978 H982 0.950 . S
C978 C987 1.390 . S
C979 C978 1.387 . S
C979 C981 1.387 . S
H980 C987 0.950 . S
C981 C979 1.387 . S
C981 C983 1.390 . S
C981 H985 0.950 . S
H982 C978 0.950 . S
C983 C981 1.390 . S
C983 C984 1.387 . S
C983 H986 0.950 . S
C984 C983 1.387 . S
C984 C987 1.387 . S
H985 C981 0.950 . S
H986 C983 0.950 . S
C987 C978 1.390 . S
C987 H980 0.950 . S
C987 C984 1.387 . S
C988 C989 1.387 . S
C988 H992 0.950 . S
C988 C997 1.390 . S
C989 C988 1.387 . S
C989 C991 1.387 . S
H990 C997 0.950 . S
C991 C989 1.387 . S
C991 C993 1.390 . S
C991 H995 0.950 . S
H992 C988 0.950 . S
C993 C991 1.390 . S
C993 C994 1.387 . S
C993 H996 0.950 . S
C994 C993 1.387 . S
C994 C997 1.387 . S
H995 C991 0.950 . S
H996 C993 0.950 . S
C997 C988 1.390 . S
C997 H990 0.950 . S
C997 C994 1.387 . S
C998 C999 1.387 . S
C998 H1002 0.950 . S
C998 C1007 1.390 . S
C999 C998 1.387 . S
C999 C1001 1.387 . S
H1000 C1007 0.950 . S
C1001 C999 1.387 . S
C1001 C1003 1.390 . S
C1001 H1005 0.950 . S
H1002 C998 0.950 . S
C1003 C1001 1.390 . S
C1003 C1004 1.387 . S
C1003 H1006 0.950 . S
C1004 C1003 1.387 . S
C1004 C1007 1.387 . S
H1005 C1001 0.950 . S
H1006 C1003 0.950 . S
C1007 C998 1.390 . S
C1007 H1000 0.950 . S
C1007 C1004 1.387 . S
C1008 C1009 1.387 . S
C1008 H1012 0.950 . S
C1008 C1017 1.390 . S
C1009 C1008 1.387 . S
C1009 C1011 1.387 . S
H1010 C1017 0.950 . S
C1011 C1009 1.387 . S
C1011 C1013 1.390 . S
C1011 H1015 0.950 . S
H1012 C1008 0.950 . S
C1013 C1011 1.390 . S
C1013 C1014 1.387 . S
C1013 H1016 0.950 . S
C1014 C1013 1.387 . S
C1014 C1017 1.387 . S
H1015 C1011 0.950 . S
H1016 C1013 0.950 . S
C1017 C1008 1.390 . S
C1017 H1010 0.950 . S
C1017 C1014 1.387 . S
C1018 C1019 1.387 . S
C1018 H1022 0.950 . S
C1018 C1027 1.390 . S
C1019 C1018 1.387 . S
C1019 C1021 1.387 . S
H1020 C1027 0.950 . S
C1021 C1019 1.387 . S
C1021 C1023 1.390 . S
C1021 H1025 0.950 . S
H1022 C1018 0.950 . S
C1023 C1021 1.390 . S
C1023 C1024 1.387 . S
C1023 H1026 0.950 . S
C1024 C1023 1.387 . S
C1024 C1027 1.387 . S
H1025 C1021 0.950 . S
H1026 C1023 0.950 . S
C1027 C1018 1.390 . S
C1027 H1020 0.950 . S
C1027 C1024 1.387 . S
C1028 C1029 1.387 . S
C1028 H1032 0.950 . S
C1028 C1037 1.390 . S
C1029 C1028 1.387 . S
C1029 C1031 1.387 . S
H1030 C1037 0.950 . S
C1031 C1029 1.387 . S
C1031 C1033 1.390 . S
C1031 H1035 0.950 . S
H1032 C1028 0.950 . S
C1033 C1031 1.390 . S
C1033 C1034 1.387 . S
C1033 H1036 0.950 . S
C1034 C1033 1.387 . S
C1034 C1037 1.387 . S
H1035 C1031 0.950 . S
H1036 C1033 0.950 . S
C1037 C1028 1.390 . S
C1037 H1030 0.950 . S
C1037 C1034 1.387 . S
C1038 C1039 1.387 . S
C1038 H1042 0.950 . S
C1038 C1047 1.390 . S
C1039 C1038 1.387 . S
C1039 C1041 1.387 . S
H1040 C1047 0.950 . S
C1041 C1039 1.387 . S
C1041 C1043 1.390 . S
C1041 H1045 0.950 . S
H1042 C1038 0.950 . S
C1043 C1041 1.390 . S
C1043 C1044 1.387 . S
C1043 H1046 0.950 . S
C1044 C1043 1.387 . S
C1044 C1047 1.387 . S
H1045 C1041 0.950 . S
H1046 C1043 0.950 . S
C1047 C1038 1.390 . S
C1047 H1040 0.950 . S
C1047 C1044 1.387 . S
C1048 C1049 1.387 . S
C1048 H1052 0.950 . S
C1048 C1057 1.390 . S
C1049 C1048 1.387 . S
C1049 C1051 1.387 . S
H1050 C1057 0.950 . S
C1051 C1049 1.387 . S
C1051 C1053 1.390 . S
C1051 H1055 0.950 . S
H1052 C1048 0.950 . S
C1053 C1051 1.390 . S
C1053 C1054 1.387 . S
C1053 H1056 0.950 . S
C1054 C1053 1.387 . S
C1054 C1057 1.387 . S
H1055 C1051 0.950 . S
H1056 C1053 0.950 . S
C1057 C1048 1.390 . S
C1057 H1050 0.950 . S
C1057 C1054 1.387 . S
C1058 C1059 1.387 . S
C1058 H1062 0.950 . S
C1058 C1067 1.390 . S
C1059 C1058 1.387 . S
C1059 C1061 1.387 . S
H1060 C1067 0.950 . S
C1061 C1059 1.387 . S
C1061 C1063 1.390 . S
C1061 H1065 0.950 . S
H1062 C1058 0.950 . S
C1063 C1061 1.390 . S
C1063 C1064 1.387 . S
C1063 H1066 0.950 . S
C1064 C1063 1.387 . S
C1064 C1067 1.387 . S
H1065 C1061 0.950 . S
H1066 C1063 0.950 . S
C1067 C1058 1.390 . S
C1067 H1060 0.950 . S
C1067 C1064 1.387 . S
C1068 C1069 1.387 . S
C1068 H1072 0.950 . S
C1068 C1077 1.390 . S
C1069 C1068 1.387 . S
C1069 C1071 1.387 . S
H1070 C1077 0.950 . S
C1071 C1069 1.387 . S
C1071 C1073 1.390 . S
C1071 H1075 0.950 . S
H1072 C1068 0.950 . S
C1073 C1071 1.390 . S
C1073 C1074 1.387 . S
C1073 H1076 0.950 . S
C1074 C1073 1.387 . S
C1074 C1077 1.387 . S
H1075 C1071 0.950 . S
H1076 C1073 0.950 . S
C1077 C1068 1.390 . S
C1077 H1070 0.950 . S
C1077 C1074 1.387 . S
C1078 C1079 1.387 . S
C1078 H1082 0.950 . S
C1078 C1087 1.390 . S
C1079 C1078 1.387 . S
C1079 C1081 1.387 . S
H1080 C1087 0.950 . S
C1081 C1079 1.387 . S
C1081 C1083 1.390 . S
C1081 H1085 0.950 . S
H1082 C1078 0.950 . S
C1083 C1081 1.390 . S
C1083 C1084 1.387 . S
C1083 H1086 0.950 . S
C1084 C1083 1.387 . S
C1084 C1087 1.387 . S
H1085 C1081 0.950 . S
H1086 C1083 0.950 . S
C1087 C1078 1.390 . S
C1087 H1080 0.950 . S
C1087 C1084 1.387 . S
C449 C386 1.554 . S
C454 C9 1.561 . S
C459 C23 1.561 1_655 S
C464 C121 1.554 . S
C469 C358 1.554 . S
C474 C37 1.561 . S
C479 C51 1.561 . S
C484 C149 1.553 . S
C489 C65 1.561 . S
C494 C414 1.554 . S
C499 C79 1.561 . S
C504 C205 1.554 . S
C509 C93 1.560 . S
C514 C442 1.554 . S
C519 C107 1.560 1_655 S
C524 C177 1.555 . S
C529 C274 1.553 . S
C534 C120 1.561 . S
C539 C8 1.555 . S
C544 C135 1.560 1_455 S
C549 C246 1.554 . S
C554 C148 1.560 . S
C559 C163 1.561 . S
C564 C36 1.553 . S
C569 C302 1.554 . S
C574 C176 1.561 . S
C579 C92 1.553 . S
C584 C191 1.561 . S
C589 C204 1.562 . S
C594 C330 1.553 . S
C599 C64 1.554 . S
C604 C219 1.561 1_455 S
C609 C233 1.561 . S
C614 C162 1.553 . S
C619 C247 1.561 . S
C624 C345 1.555 . S
C629 C134 1.553 . S
C634 C261 1.562 . S
C639 C373 1.553 . S
C644 C275 1.561 1_455 S
C649 C190 1.553 . S
C654 C289 1.561 . S
C659 C429 1.553 . S
C664 C303 1.561 1_455 S
C669 C218 1.554 . S
C674 C317 1.561 . S
C679 C331 1.562 . S
C684 C401 1.553 . S
C689 C50 1.554 . S
C694 C344 1.561 . S
C699 C359 1.561 . S
C704 C232 1.554 . S
C709 C372 1.561 . S
C714 C22 1.553 . S
C719 C387 1.561 1_655 S
C724 C260 1.553 . S
C729 C400 1.561 . S
C734 C78 1.554 . S
C739 C415 1.561 1_655 S
C744 C316 1.553 . S
C749 C428 1.560 . S
C754 C106 1.554 . S
C759 C443 1.560 . S
C764 C288 1.555 . S
C769 C342 1.489 . S
C774 C7 1.489 . S
C779 C21 1.488 . S
C784 C133 1.488 . S
C789 C370 1.489 . S
C794 C35 1.489 . S
C799 C49 1.489 . S
C804 C161 1.489 . S
C809 C398 1.488 . S
C814 C63 1.488 . S
C819 C77 1.489 . S
C824 C189 1.489 . S
C829 C426 1.488 . S
C834 C91 1.488 . S
C839 C105 1.488 . S
C844 C217 1.488 . S
C849 C118 1.489 . S
C854 C231 1.489 . S
C859 C146 1.488 . S
C864 C259 1.488 . S
C869 C174 1.488 . S
C874 C287 1.488 . S
C879 C202 1.488 . S
C884 C315 1.488 . S
C889 C245 1.489 . S
C894 C357 1.489 . S
C899 C385 1.489 . S
C904 C273 1.489 . S
C909 C413 1.488 . S
C914 C301 1.488 . S
C919 C329 1.489 . S
C924 C441 1.489 . S
C929 C6 1.388 . S
C934 C76 1.388 . S
C939 C20 1.387 . S
C944 C90 1.387 . S
C949 C34 1.387 . S
C954 C104 1.387 . S
C959 C62 1.387 . S
C964 C48 1.388 . S
C969 C119 1.387 . S
C974 C188 1.387 . S
C979 C132 1.387 . S
C984 C203 1.387 . S
C989 C147 1.388 . S
C994 C216 1.387 . S
C999 C160 1.387 . S
C1004 C175 1.388 . S
C1009 C230 1.387 . S
C1014 C300 1.386 . S
C1019 C314 1.388 . S
C1024 C244 1.387 . S
C1029 C258 1.387 . S
C1034 C328 1.388 . S
C1039 C272 1.388 . S
C1044 C286 1.387 . S
C1049 C412 1.388 . S
C1054 C343 1.387 . S
C1059 C356 1.387 . S
C1064 C427 1.388 . S
C1069 C440 1.387 . S
C1074 C371 1.387 . S
C1079 C384 1.387 . S
C1084 C399 1.386 . S
