# Generated by pormake.
# Topology wgp, (5)-cn, num edge types: 1
# Building blocks:
#     Node 0, Type 0, BuildingBlock: XOMCOT_clean_sbu_1, # of connection points: 5
#     Node 1, Type 0, BuildingBlock: XOMCOT_clean_sbu_1, # of connection points: 5
#     Node 2, Type 0, BuildingBlock: XOMCOT_clean_sbu_1, # of connection points: 5
#     Node 3, Type 0, BuildingBlock: XOMCOT_clean_sbu_1, # of connection points: 5
#     Node 4, Type 0, BuildingBlock: XOMCOT_clean_sbu_1, # of connection points: 5
#     Node 5, Type 0, BuildingBlock: XOMCOT_clean_sbu_1, # of connection points: 5
#     Node 6, Type 0, BuildingBlock: XOMCOT_clean_sbu_1, # of connection points: 5
#     Node 7, Type 0, BuildingBlock: XOMCOT_clean_sbu_1, # of connection points: 5
#     Node 8, Type 0, BuildingBlock: XOMCOT_clean_sbu_1, # of connection points: 5
#     Node 9, Type 0, BuildingBlock: XOMCOT_clean_sbu_1, # of connection points: 5
#     Node 10, Type 0, BuildingBlock: XOMCOT_clean_sbu_1, # of connection points: 5
#     Node 11, Type 0, BuildingBlock: XOMCOT_clean_sbu_1, # of connection points: 5
#     Node 12, Type 0, BuildingBlock: XOMCOT_clean_sbu_1, # of connection points: 5
#     Node 13, Type 0, BuildingBlock: XOMCOT_clean_sbu_1, # of connection points: 5
#     Node 14, Type 0, BuildingBlock: XOMCOT_clean_sbu_1, # of connection points: 5
#     Node 15, Type 0, BuildingBlock: XOMCOT_clean_sbu_1, # of connection points: 5
#     Node 16, Type 0, BuildingBlock: XOMCOT_clean_sbu_1, # of connection points: 5
#     Node 17, Type 0, BuildingBlock: XOMCOT_clean_sbu_1, # of connection points: 5
#     Node 18, Type 0, BuildingBlock: XOMCOT_clean_sbu_1, # of connection points: 5
#     Node 19, Type 0, BuildingBlock: XOMCOT_clean_sbu_1, # of connection points: 5
#     Node 20, Type 0, BuildingBlock: XOMCOT_clean_sbu_1, # of connection points: 5
#     Node 21, Type 0, BuildingBlock: XOMCOT_clean_sbu_1, # of connection points: 5
#     Node 22, Type 0, BuildingBlock: XOMCOT_clean_sbu_1, # of connection points: 5
#     Node 23, Type 0, BuildingBlock: XOMCOT_clean_sbu_1, # of connection points: 5
#     Node 24, Type 0, BuildingBlock: XOMCOT_clean_sbu_1, # of connection points: 5
#     Node 25, Type 0, BuildingBlock: XOMCOT_clean_sbu_1, # of connection points: 5
#     Node 26, Type 0, BuildingBlock: XOMCOT_clean_sbu_1, # of connection points: 5
#     Node 27, Type 0, BuildingBlock: XOMCOT_clean_sbu_1, # of connection points: 5
#     Node 28, Type 0, BuildingBlock: XOMCOT_clean_sbu_1, # of connection points: 5
#     Node 29, Type 0, BuildingBlock: XOMCOT_clean_sbu_1, # of connection points: 5
#     Node 30, Type 0, BuildingBlock: XOMCOT_clean_sbu_1, # of connection points: 5
#     Node 31, Type 0, BuildingBlock: XOMCOT_clean_sbu_1, # of connection points: 5
#     Edge 32, Type (0, 0), BuildingBlock: CIFDUS_clean_linker_0, # of connection points: 2
#     Edge 33, Type (0, 0), BuildingBlock: CIFDUS_clean_linker_0, # of connection points: 2
#     Edge 34, Type (0, 0), BuildingBlock: CIFDUS_clean_linker_0, # of connection points: 2
#     Edge 35, Type (0, 0), BuildingBlock: CIFDUS_clean_linker_0, # of connection points: 2
#     Edge 36, Type (0, 0), BuildingBlock: CIFDUS_clean_linker_0, # of connection points: 2
#     Edge 37, Type (0, 0), BuildingBlock: CIFDUS_clean_linker_0, # of connection points: 2
#     Edge 38, Type (0, 0), BuildingBlock: CIFDUS_clean_linker_0, # of connection points: 2
#     Edge 39, Type (0, 0), BuildingBlock: CIFDUS_clean_linker_0, # of connection points: 2
#     Edge 40, Type (0, 0), BuildingBlock: CIFDUS_clean_linker_0, # of connection points: 2
#     Edge 41, Type (0, 0), BuildingBlock: CIFDUS_clean_linker_0, # of connection points: 2
#     Edge 42, Type (0, 0), BuildingBlock: CIFDUS_clean_linker_0, # of connection points: 2
#     Edge 43, Type (0, 0), BuildingBlock: CIFDUS_clean_linker_0, # of connection points: 2
#     Edge 44, Type (0, 0), BuildingBlock: CIFDUS_clean_linker_0, # of connection points: 2
#     Edge 45, Type (0, 0), BuildingBlock: CIFDUS_clean_linker_0, # of connection points: 2
#     Edge 46, Type (0, 0), BuildingBlock: CIFDUS_clean_linker_0, # of connection points: 2
#     Edge 47, Type (0, 0), BuildingBlock: CIFDUS_clean_linker_0, # of connection points: 2
#     Edge 48, Type (0, 0), BuildingBlock: CIFDUS_clean_linker_0, # of connection points: 2
#     Edge 49, Type (0, 0), BuildingBlock: CIFDUS_clean_linker_0, # of connection points: 2
#     Edge 50, Type (0, 0), BuildingBlock: CIFDUS_clean_linker_0, # of connection points: 2
#     Edge 51, Type (0, 0), BuildingBlock: CIFDUS_clean_linker_0, # of connection points: 2
#     Edge 52, Type (0, 0), BuildingBlock: CIFDUS_clean_linker_0, # of connection points: 2
#     Edge 53, Type (0, 0), BuildingBlock: CIFDUS_clean_linker_0, # of connection points: 2
#     Edge 54, Type (0, 0), BuildingBlock: CIFDUS_clean_linker_0, # of connection points: 2
#     Edge 55, Type (0, 0), BuildingBlock: CIFDUS_clean_linker_0, # of connection points: 2
#     Edge 56, Type (0, 0), BuildingBlock: CIFDUS_clean_linker_0, # of connection points: 2
#     Edge 57, Type (0, 0), BuildingBlock: CIFDUS_clean_linker_0, # of connection points: 2
#     Edge 58, Type (0, 0), BuildingBlock: CIFDUS_clean_linker_0, # of connection points: 2
#     Edge 59, Type (0, 0), BuildingBlock: CIFDUS_clean_linker_0, # of connection points: 2
#     Edge 60, Type (0, 0), BuildingBlock: CIFDUS_clean_linker_0, # of connection points: 2
#     Edge 61, Type (0, 0), BuildingBlock: CIFDUS_clean_linker_0, # of connection points: 2
#     Edge 62, Type (0, 0), BuildingBlock: CIFDUS_clean_linker_0, # of connection points: 2
#     Edge 63, Type (0, 0), BuildingBlock: CIFDUS_clean_linker_0, # of connection points: 2
#     Edge 64, Type (0, 0), BuildingBlock: CIFDUS_clean_linker_0, # of connection points: 2
#     Edge 65, Type (0, 0), BuildingBlock: CIFDUS_clean_linker_0, # of connection points: 2
#     Edge 66, Type (0, 0), BuildingBlock: CIFDUS_clean_linker_0, # of connection points: 2
#     Edge 67, Type (0, 0), BuildingBlock: CIFDUS_clean_linker_0, # of connection points: 2
#     Edge 68, Type (0, 0), BuildingBlock: CIFDUS_clean_linker_0, # of connection points: 2
#     Edge 69, Type (0, 0), BuildingBlock: CIFDUS_clean_linker_0, # of connection points: 2
#     Edge 70, Type (0, 0), BuildingBlock: CIFDUS_clean_linker_0, # of connection points: 2
#     Edge 71, Type (0, 0), BuildingBlock: CIFDUS_clean_linker_0, # of connection points: 2
#     Edge 72, Type (0, 0), BuildingBlock: CIFDUS_clean_linker_0, # of connection points: 2
#     Edge 73, Type (0, 0), BuildingBlock: CIFDUS_clean_linker_0, # of connection points: 2
#     Edge 74, Type (0, 0), BuildingBlock: CIFDUS_clean_linker_0, # of connection points: 2
#     Edge 75, Type (0, 0), BuildingBlock: CIFDUS_clean_linker_0, # of connection points: 2
#     Edge 76, Type (0, 0), BuildingBlock: CIFDUS_clean_linker_0, # of connection points: 2
#     Edge 77, Type (0, 0), BuildingBlock: CIFDUS_clean_linker_0, # of connection points: 2
#     Edge 78, Type (0, 0), BuildingBlock: CIFDUS_clean_linker_0, # of connection points: 2
#     Edge 79, Type (0, 0), BuildingBlock: CIFDUS_clean_linker_0, # of connection points: 2
#     Edge 80, Type (0, 0), BuildingBlock: CIFDUS_clean_linker_0, # of connection points: 2
#     Edge 81, Type (0, 0), BuildingBlock: CIFDUS_clean_linker_0, # of connection points: 2
#     Edge 82, Type (0, 0), BuildingBlock: CIFDUS_clean_linker_0, # of connection points: 2
#     Edge 83, Type (0, 0), BuildingBlock: CIFDUS_clean_linker_0, # of connection points: 2
#     Edge 84, Type (0, 0), BuildingBlock: CIFDUS_clean_linker_0, # of connection points: 2
#     Edge 85, Type (0, 0), BuildingBlock: CIFDUS_clean_linker_0, # of connection points: 2
#     Edge 86, Type (0, 0), BuildingBlock: CIFDUS_clean_linker_0, # of connection points: 2
#     Edge 87, Type (0, 0), BuildingBlock: CIFDUS_clean_linker_0, # of connection points: 2
#     Edge 88, Type (0, 0), BuildingBlock: CIFDUS_clean_linker_0, # of connection points: 2
#     Edge 89, Type (0, 0), BuildingBlock: CIFDUS_clean_linker_0, # of connection points: 2
#     Edge 90, Type (0, 0), BuildingBlock: CIFDUS_clean_linker_0, # of connection points: 2
#     Edge 91, Type (0, 0), BuildingBlock: CIFDUS_clean_linker_0, # of connection points: 2
#     Edge 92, Type (0, 0), BuildingBlock: CIFDUS_clean_linker_0, # of connection points: 2
#     Edge 93, Type (0, 0), BuildingBlock: CIFDUS_clean_linker_0, # of connection points: 2
#     Edge 94, Type (0, 0), BuildingBlock: CIFDUS_clean_linker_0, # of connection points: 2
#     Edge 95, Type (0, 0), BuildingBlock: CIFDUS_clean_linker_0, # of connection points: 2
#     Edge 96, Type (0, 0), BuildingBlock: CIFDUS_clean_linker_0, # of connection points: 2
#     Edge 97, Type (0, 0), BuildingBlock: CIFDUS_clean_linker_0, # of connection points: 2
#     Edge 98, Type (0, 0), BuildingBlock: CIFDUS_clean_linker_0, # of connection points: 2
#     Edge 99, Type (0, 0), BuildingBlock: CIFDUS_clean_linker_0, # of connection points: 2
#     Edge 100, Type (0, 0), BuildingBlock: CIFDUS_clean_linker_0, # of connection points: 2
#     Edge 101, Type (0, 0), BuildingBlock: CIFDUS_clean_linker_0, # of connection points: 2
#     Edge 102, Type (0, 0), BuildingBlock: CIFDUS_clean_linker_0, # of connection points: 2
#     Edge 103, Type (0, 0), BuildingBlock: CIFDUS_clean_linker_0, # of connection points: 2
#     Edge 104, Type (0, 0), BuildingBlock: CIFDUS_clean_linker_0, # of connection points: 2
#     Edge 105, Type (0, 0), BuildingBlock: CIFDUS_clean_linker_0, # of connection points: 2
#     Edge 106, Type (0, 0), BuildingBlock: CIFDUS_clean_linker_0, # of connection points: 2
#     Edge 107, Type (0, 0), BuildingBlock: CIFDUS_clean_linker_0, # of connection points: 2
#     Edge 108, Type (0, 0), BuildingBlock: CIFDUS_clean_linker_0, # of connection points: 2
#     Edge 109, Type (0, 0), BuildingBlock: CIFDUS_clean_linker_0, # of connection points: 2
#     Edge 110, Type (0, 0), BuildingBlock: CIFDUS_clean_linker_0, # of connection points: 2
#     Edge 111, Type (0, 0), BuildingBlock: CIFDUS_clean_linker_0, # of connection points: 2
# Relax obj value: 0.164
# Max RMSD: 0.159
# Mean RMSD: 0.159
data_MOF--net-wgp--node1-XOMCOT_clean_sbu_1--edge1-CIFDUS_clean_linker_0
_symmetry_space_group_name_H-M    P1
_symmetry_Int_Tables_number       1
_symmetry_cell_setting            triclinic
loop_
_symmetry_equiv_pos_as_xyz
'x, y, z'
_cell_length_a     31.978442
_cell_length_b     31.971471
_cell_length_c     90.649445
_cell_angle_alpha  89.919933
_cell_angle_beta   89.932664
_cell_angle_gamma 89.962725
loop_
_atom_site_label
_atom_site_type_symbol
_atom_site_fract_x
_atom_site_fract_y
_atom_site_fract_z
_atom_type_partial_charge
C0 C 0.22988 0.26181 0.10225 0.0
C1 C 0.2286 0.30472 0.10258 0.0
N2 N 0.22566 0.31921 0.08865 0.0
N3 N 0.2275 0.24825 0.08819 0.0
C4 C 0.22418 0.2841 0.08017 0.0
H5 H 0.23609 0.24225 0.1117 0.0
Co6 Co 0.24301 0.19283 0.08256 0.0
C7 C 0.20623 0.20745 0.05046 0.0
O8 O 0.16567 0.21382 0.05097 0.0
N9 N 0.25999 0.13684 0.0767 0.0
C10 C 0.29795 0.08401 0.06755 0.0
C11 C 0.29406 0.12664 0.06856 0.0
C12 C 0.24273 0.09898 0.07976 0.0
N13 N 0.26594 0.06617 0.07485 0.0
O14 O 0.1898 0.17208 0.08901 0.0
H15 H 0.31588 0.14852 0.06377 0.0
H16 H 0.21319 0.09556 0.08521 0.0
O17 O 0.22618 0.20109 0.06239 0.0
C18 C 0.19713 0.16253 0.10249 0.0
O19 O 0.23546 0.16665 0.10745 0.0
N20 N 0.295 0.21256 0.07847 0.0
C21 C 0.37762 0.23369 0.07531 0.0
C22 C 0.34789 0.25038 0.06566 0.0
C23 C 0.30623 0.23968 0.06755 0.0
C24 C 0.32318 0.19828 0.08848 0.0
C25 C 0.36503 0.20762 0.0869 0.0
H26 H 0.28339 0.25269 0.06011 0.0
H27 H 0.31312 0.17791 0.09732 0.0
H28 H 0.22347 0.28448 0.06827 0.0
H29 H 0.23318 0.32355 0.11234 0.0
H30 H 0.32285 0.06772 0.06188 0.0
H31 H 0.3567 0.27163 0.05687 0.0
H32 H 0.38732 0.19417 0.09455 0.0
C33 C 0.98969 0.01285 0.35121 0.0
C34 C 0.94678 0.01313 0.35098 0.0
N35 N 0.93376 0.99342 0.3387 0.0
N36 N 0.00435 0.993 0.33915 0.0
C37 C 0.96939 0.98117 0.33174 0.0
H38 H 0.00912 0.02723 0.35954 0.0
Co39 Co 0.06232 0.99012 0.33471 0.0
C40 C 0.06784 1.00061 0.30265 0.0
O41 O 0.09903 0.02609 0.30554 0.0
N42 N 0.12126 0.98614 0.3305 0.0
C43 C 0.17988 0.96187 0.32002 0.0
C44 C 0.13711 0.95808 0.32079 0.0
C45 C 0.15595 0.00486 0.33613 0.0
N46 N 0.19165 0.99127 0.32969 0.0
O47 O 0.06315 0.93181 0.33951 0.0
H48 H 0.11861 0.93586 0.31463 0.0
H49 H 0.15582 0.02726 0.34501 0.0
O50 O 0.04947 0.9815 0.31336 0.0
C51 C 0.06826 0.93339 0.35351 0.0
O52 O 0.06932 0.97032 0.35983 0.0
N53 N 0.06166 0.04784 0.33235 0.0
C54 C 0.04919 0.13307 0.33566 0.0
C55 C 0.02923 0.11129 0.32428 0.0
C56 C 0.03497 0.06841 0.32306 0.0
C57 C 0.08032 0.06856 0.34368 0.0
C58 C 0.0754 0.11144 0.34534 0.0
H59 H 0.01567 0.05161 0.31532 0.0
H60 H 0.09592 0.05125 0.35228 0.0
H61 H 0.97004 0.96512 0.32124 0.0
H62 H 0.92669 0.02681 0.3593 0.0
H63 H 0.20091 0.9432 0.31337 0.0
H64 H 0.00786 0.12691 0.31682 0.0
H65 H 0.08959 0.12695 0.3547 0.0
C66 C 0.24214 0.74353 0.60216 0.0
C67 C 0.24365 0.70088 0.6028 0.0
N68 N 0.26132 0.6866 0.5903 0.0
N69 N 0.25949 0.75696 0.58944 0.0
C70 C 0.27108 0.72139 0.58239 0.0
H71 H 0.22749 0.76339 0.6103 0.0
Co72 Co 0.25859 0.8142 0.58435 0.0
C73 C 0.25619 0.81987 0.55234 0.0
O74 O 0.22762 0.84863 0.5548 0.0
N75 N 0.25884 0.87298 0.5799 0.0
C76 C 0.28512 0.93298 0.57128 0.0
C77 C 0.29034 0.89047 0.57203 0.0
C78 C 0.23568 0.9064 0.58431 0.0
N79 N 0.25079 0.94311 0.57904 0.0
O80 O 0.31481 0.82043 0.59081 0.0
H81 H 0.31624 0.8733 0.56732 0.0
H82 H 0.20903 0.90458 0.59157 0.0
O83 O 0.27401 0.80178 0.56339 0.0
C84 C 0.30811 0.82893 0.60437 0.0
O85 O 0.26951 0.82728 0.60928 0.0
N86 N 0.20222 0.80786 0.58008 0.0
C87 C 0.11983 0.78135 0.58166 0.0
C88 C 0.14681 0.76473 0.57102 0.0
C89 C 0.18805 0.77792 0.57055 0.0
C90 C 0.17635 0.8241 0.59053 0.0
C91 C 0.13467 0.81209 0.59129 0.0
H92 H 0.20918 0.76101 0.56344 0.0
H93 H 0.1889 0.84325 0.59924 0.0
H94 H 0.28442 0.72095 0.57142 0.0
H95 H 0.23184 0.68192 0.61177 0.0
H96 H 0.30618 0.95499 0.56605 0.0
H97 H 0.13704 0.73958 0.56381 0.0
H98 H 0.11491 0.82514 0.59984 0.0
C99 C 0.51427 0.01459 0.85516 0.0
C100 C 0.5569 0.01989 0.85494 0.0
N101 N 0.56858 0.03006 0.84113 0.0
N102 N 0.49872 0.02162 0.84155 0.0
C103 C 0.53262 0.03183 0.83329 0.0
H104 H 0.49626 0.00324 0.86442 0.0
Co105 Co 0.44275 0.01042 0.83596 0.0
C106 C 0.46382 0.9963 0.80363 0.0
O107 O 0.46279 0.95575 0.80554 0.0
N108 N 0.3855 0.9999 0.8301 0.0
C109 C 0.33061 0.97254 0.81838 0.0
C110 C 0.37322 0.97368 0.81925 0.0
C111 C 0.34867 0.01418 0.83573 0.0
N112 N 0.31469 0.99778 0.82882 0.0
O113 O 0.42962 0.0679 0.84007 0.0
H114 H 0.39329 0.95438 0.81271 0.0
H115 H 0.34672 0.03536 0.84498 0.0
O116 O 0.45646 0.02116 0.81453 0.0
C117 C 0.42335 0.06302 0.85396 0.0
O118 O 0.4206 0.02473 0.8592 0.0
N119 N 0.45549 0.95309 0.83535 0.0
C120 C 0.47143 0.8686 0.83919 0.0
C121 C 0.50155 0.89447 0.83275 0.0
C122 C 0.49344 0.93688 0.8313 0.0
C123 C 0.4278 0.92873 0.84297 0.0
C124 C 0.43465 0.88614 0.84471 0.0
H125 H 0.517 0.95602 0.82615 0.0
H126 H 0.40018 0.94229 0.8479 0.0
H127 H 0.53151 0.03704 0.82151 0.0
H128 H 0.57801 0.01306 0.86396 0.0
H129 H 0.31298 0.95396 0.81062 0.0
H130 H 0.53101 0.882 0.8288 0.0
H131 H 0.41119 0.86712 0.85013 0.0
C132 C 0.26655 0.74363 0.41844 0.0
C133 C 0.26497 0.70099 0.41691 0.0
N134 N 0.23783 0.68525 0.42687 0.0
N135 N 0.24083 0.75594 0.4294 0.0
C136 C 0.22228 0.71971 0.43386 0.0
H137 H 0.28669 0.76434 0.41224 0.0
Co138 Co 0.24176 0.81286 0.43636 0.0
C139 C 0.22993 0.76789 0.46688 0.0
O140 O 0.24195 0.72963 0.46379 0.0
N141 N 0.24447 0.86966 0.44346 0.0
C142 C 0.26591 0.91951 0.45885 0.0
C143 C 0.26287 0.87749 0.45657 0.0
C144 C 0.23689 0.90866 0.43788 0.0
N145 N 0.24951 0.93987 0.44719 0.0
O146 O 0.1841 0.8196 0.43121 0.0
H147 H 0.27584 0.85403 0.46383 0.0
H148 H 0.22359 0.91396 0.42707 0.0
O149 O 0.2292 0.79608 0.45682 0.0
C150 C 0.18608 0.82533 0.41724 0.0
O151 O 0.22311 0.82546 0.41095 0.0
N152 N 0.29859 0.80863 0.43917 0.0
C153 C 0.384 0.801 0.43576 0.0
C154 C 0.36338 0.77975 0.44718 0.0
C155 C 0.32034 0.78373 0.44863 0.0
C156 C 0.31856 0.83141 0.42859 0.0
C157 C 0.36142 0.82807 0.42666 0.0
H158 H 0.30508 0.76553 0.45693 0.0
H159 H 0.30059 0.85058 0.42108 0.0
H160 H 0.19864 0.71855 0.44236 0.0
H161 H 0.28359 0.68322 0.40919 0.0
H162 H 0.28134 0.93362 0.4682 0.0
H163 H 0.38014 0.75908 0.45459 0.0
H164 H 0.37623 0.8447 0.41765 0.0
C165 C 0.51802 0.00184 0.66592 0.0
C166 C 0.56074 1.00043 0.6652 0.0
N167 N 0.57549 0.98738 0.67832 0.0
N168 N 0.50505 0.98928 0.67939 0.0
C169 C 0.54097 0.98024 0.68672 0.0
H170 H 0.49783 0.01359 0.65731 0.0
Co171 Co 0.44795 0.99402 0.68491 0.0
C172 C 0.44949 0.01044 0.71673 0.0
O173 O 0.42419 0.04178 0.71375 0.0
N174 N 0.3891 0.99778 0.68987 0.0
C175 C 0.3281 0.98453 0.70108 0.0
C176 C 0.37065 0.97909 0.70163 0.0
C177 C 0.35594 0.01143 0.68175 0.0
N178 N 0.31879 0.0048 0.68855 0.0
O179 O 0.43966 0.93579 0.6812 0.0
H180 H 0.38667 0.96049 0.70982 0.0
H181 H 0.35833 0.02371 0.67069 0.0
O182 O 0.4618 0.98618 0.70623 0.0
C183 C 0.42901 0.94042 0.6677 0.0
O184 O 0.43043 0.97813 0.66192 0.0
N185 N 0.45595 0.05146 0.68633 0.0
C186 C 0.47404 0.13573 0.68421 0.0
C187 C 0.4972 0.11008 0.69364 0.0
C188 C 0.48822 0.06786 0.69433 0.0
C189 C 0.43516 0.07562 0.67635 0.0
C190 C 0.44314 0.11824 0.67528 0.0
H191 H 0.50793 0.04828 0.70108 0.0
H192 H 0.41396 0.06169 0.6686 0.0
H193 H 0.54192 0.97129 0.69823 0.0
H194 H 0.5795 0.00946 0.65578 0.0
H195 H 0.30544 0.97197 0.70879 0.0
H196 H 0.52273 0.12239 0.70018 0.0
H197 H 0.42576 0.13714 0.66748 0.0
C198 C 0.24869 0.25937 0.91574 0.0
C199 C 0.24958 0.30235 0.91508 0.0
N200 N 0.26378 0.31718 0.92804 0.0
N201 N 0.26256 0.24642 0.92903 0.0
C202 C 0.27188 0.28252 0.93626 0.0
H203 H 0.23636 0.23896 0.90731 0.0
Co204 Co 0.25997 0.18937 0.93544 0.0
C205 C 0.29426 0.2112 0.9672 0.0
O206 O 0.33491 0.20601 0.96626 0.0
N207 N 0.25693 0.13216 0.94222 0.0
C208 C 0.24192 0.0799 0.95771 0.0
C209 C 0.24203 0.12234 0.95577 0.0
C210 C 0.26468 0.09413 0.93597 0.0
N211 N 0.25603 0.0619 0.9453 0.0
O212 O 0.31696 0.18209 0.92932 0.0
H213 H 0.2303 0.14455 0.96373 0.0
H214 H 0.27617 0.09003 0.92483 0.0
O215 O 0.27149 0.20523 0.95585 0.0
C216 C 0.30843 0.17352 0.91581 0.0
O217 O 0.26921 0.16657 0.91222 0.0
N218 N 0.20383 0.19562 0.93892 0.0
C219 C 0.11842 0.20756 0.9396 0.0
C220 C 0.14501 0.23468 0.94724 0.0
C221 C 0.18776 0.22892 0.94632 0.0
C222 C 0.1785 0.16864 0.93152 0.0
C223 C 0.13543 0.1739 0.93177 0.0
H224 H 0.20793 0.25205 0.95119 0.0
H225 H 0.19187 0.14387 0.92491 0.0
H226 H 0.28228 0.28349 0.9476 0.0
H227 H 0.23794 0.32124 0.90605 0.0
H228 H 0.23087 0.06333 0.96739 0.0
H229 H 0.13306 0.26102 0.95346 0.0
H230 H 0.11592 0.153 0.92538 0.0
C231 C 0.98179 0.98233 0.17151 0.0
C232 C 0.93944 0.98634 0.16944 0.0
N233 N 0.92556 0.01841 0.1777 0.0
N234 N 0.99537 0.01138 0.18117 0.0
C235 C 0.96038 0.03388 0.18437 0.0
H236 H 1.00135 0.95837 0.16667 0.0
Co237 Co 0.05253 0.01147 0.18769 0.0
C238 C 0.0099 0.03331 0.21776 0.0
O239 O 0.97079 0.02396 0.21493 0.0
N240 N 0.11011 0.0102 0.1941 0.0
C241 C 0.16318 0.9925 0.20881 0.0
C242 C 0.12088 0.99856 0.20793 0.0
C243 C 0.14736 0.01091 0.18672 0.0
N244 N 0.18011 0.99995 0.1955 0.0
O245 O 0.05988 0.06703 0.18025 0.0
H246 H 0.09907 0.99128 0.21667 0.0
H247 H 0.15006 0.01603 0.17495 0.0
O248 O 0.03792 0.03005 0.20772 0.0
C249 C 0.0683 0.0573 0.16689 0.0
O250 O 0.06562 0.01773 0.16306 0.0
N251 N 0.04781 0.95587 0.19293 0.0
C252 C 0.04472 0.86971 0.19549 0.0
C253 C 0.01759 0.89491 0.20378 0.0
C254 C 0.01957 0.93817 0.2023 0.0
C255 C 0.07404 0.9317 0.18472 0.0
C256 C 0.07371 0.88861 0.18606 0.0
H257 H 0.99702 0.95673 0.20807 0.0
H258 H 0.09488 0.946 0.17679 0.0
H259 H 0.96014 0.06067 0.19163 0.0
H260 H 0.91997 0.96542 0.16307 0.0
H261 H 0.18008 0.98133 0.21839 0.0
H262 H 0.9938 0.88137 0.21083 0.0
H263 H 0.09529 0.8703 0.17949 0.0
C264 C 0.76751 0.74157 0.91502 0.0
C265 C 0.77219 0.69902 0.91524 0.0
N266 N 0.77371 0.68637 0.92937 0.0
N267 N 0.76634 0.75644 0.92894 0.0
C268 C 0.7708 0.72183 0.93752 0.0
H269 H 0.76176 0.75985 0.90522 0.0
Co270 Co 0.74731 0.81147 0.93252 0.0
C271 C 0.73164 0.81677 0.96461 0.0
O272 O 0.69623 0.83539 0.96152 0.0
N273 N 0.72721 0.86852 0.93529 0.0
C274 C 0.68604 0.92498 0.93757 0.0
C275 C 0.68718 0.88214 0.93678 0.0
C276 C 0.74953 0.90481 0.9349 0.0
N277 N 0.72524 0.93934 0.93627 0.0
O278 O 0.80275 0.8318 0.92966 0.0
H279 H 0.65978 0.86254 0.93745 0.0
H280 H 0.78301 0.90635 0.93342 0.0
O281 O 0.75601 0.80521 0.95409 0.0
C282 C 0.80493 0.83869 0.91582 0.0
O283 O 0.77074 0.8353 0.90789 0.0
N284 N 0.69394 0.78977 0.9334 0.0
C285 C 0.61768 0.75151 0.92904 0.0
C286 C 0.64162 0.7415 0.94143 0.0
C287 C 0.68016 0.76065 0.94332 0.0
C288 C 0.6722 0.79751 0.92078 0.0
C289 C 0.63332 0.77943 0.91853 0.0
H290 H 0.6991 0.75098 0.95253 0.0
H291 H 0.68514 0.81824 0.91252 0.0
H292 H 0.76823 0.72208 0.94943 0.0
H293 H 0.77228 0.67866 0.90571 0.0
H294 H 0.65826 0.94421 0.93841 0.0
H295 H 0.63039 0.71959 0.94966 0.0
H296 H 0.6156 0.7872 0.90872 0.0
C297 C 0.01825 0.98189 0.66962 0.0
C298 C 0.06063 0.98527 0.66776 0.0
N299 N 0.07472 0.01671 0.67628 0.0
N300 N 0.00485 0.01049 0.67949 0.0
C301 C 0.03991 0.0323 0.68295 0.0
H302 H 0.9985 0.95887 0.66439 0.0
Co303 Co 0.94781 0.01151 0.68567 0.0
C304 C 0.98946 0.02775 0.71642 0.0
O305 O 0.02882 0.0194 0.71354 0.0
N306 N 0.8909 0.01103 0.69156 0.0
C307 C 0.83487 0.99439 0.70494 0.0
C308 C 0.87763 0.99661 0.70478 0.0
C309 C 0.85515 0.01702 0.68378 0.0
N310 N 0.82046 0.00684 0.69169 0.0
O311 O 0.94289 0.06858 0.6799 0.0
H312 H 0.8978 0.98584 0.71355 0.0
H313 H 0.85475 0.02641 0.67231 0.0
O314 O 0.96191 0.02563 0.7062 0.0
C315 C 0.93975 0.0676 0.66586 0.0
O316 O 0.94299 0.03127 0.65919 0.0
N317 N 0.9504 0.95513 0.68958 0.0
C318 C 0.95712 0.86924 0.68895 0.0
C319 C 0.97932 0.89243 0.69942 0.0
C320 C 0.97589 0.93563 0.69944 0.0
C321 C 0.92697 0.93282 0.67982 0.0
C322 C 0.92968 0.88956 0.67935 0.0
H323 H 0.99558 0.95284 0.70678 0.0
H324 H 0.90787 0.94901 0.67179 0.0
H325 H 0.04002 0.05871 0.69038 0.0
H326 H 0.07976 0.96442 0.66121 0.0
H327 H 0.81597 0.98355 0.71408 0.0
H328 H 1.0007 0.87744 0.70705 0.0
H329 H 0.91255 0.87254 0.67098 0.0
C330 C 0.74849 0.26185 0.41463 0.0
C331 C 0.74485 0.30452 0.41357 0.0
N332 N 0.7321 0.31954 0.4267 0.0
N333 N 0.73781 0.24934 0.42834 0.0
C334 C 0.72732 0.28528 0.4354 0.0
H335 H 0.76053 0.24154 0.4061 0.0
Co336 Co 0.74643 0.19383 0.43522 0.0
C337 C 0.7592 0.20876 0.46705 0.0
O338 O 0.79564 0.19021 0.46556 0.0
N339 N 0.75417 0.13645 0.44189 0.0
C340 C 0.74782 0.0778 0.45516 0.0
C341 C 0.74161 0.12017 0.45494 0.0
C342 C 0.76583 0.10187 0.43409 0.0
N343 N 0.76295 0.06573 0.44198 0.0
O344 O 0.68974 0.18086 0.43071 0.0
H345 H 0.72576 0.13691 0.4636 0.0
H346 H 0.77411 0.10287 0.42256 0.0
O347 O 0.73434 0.21151 0.45592 0.0
C348 C 0.69579 0.17091 0.41718 0.0
O349 O 0.73442 0.16929 0.41224 0.0
N350 N 0.80292 0.20634 0.43686 0.0
C351 C 0.88262 0.23394 0.43002 0.0
C352 C 0.85758 0.2568 0.43975 0.0
C353 C 0.81745 0.24286 0.44283 0.0
C354 C 0.82709 0.18412 0.42731 0.0
C355 C 0.8672 0.19705 0.42386 0.0
H356 H 0.79758 0.26247 0.44951 0.0
H357 H 0.8143 0.15833 0.42127 0.0
H358 H 0.71944 0.28665 0.447 0.0
H359 H 0.75236 0.32308 0.40394 0.0
H360 H 0.73901 0.05743 0.46416 0.0
H361 H 0.86856 0.28553 0.44474 0.0
H362 H 0.88524 0.17929 0.41591 0.0
C363 C 0.48161 0.99601 0.16311 0.0
C364 C 0.43899 0.99849 0.16202 0.0
N365 N 0.42237 0.99278 0.17548 0.0
N366 N 0.49284 0.98857 0.17723 0.0
C367 C 0.45561 0.98637 0.18457 0.0
H368 H 0.503 0.00254 0.15419 0.0
Co369 Co 0.55047 0.9931 0.18277 0.0
C370 C 0.55049 0.00551 0.21479 0.0
O371 O 0.57504 0.03759 0.21204 0.0
N372 N 0.60972 0.99684 0.18777 0.0
C373 C 0.67023 0.98028 0.19878 0.0
C374 C 0.62773 0.97416 0.19869 0.0
C375 C 0.64327 0.01432 0.18075 0.0
N376 N 0.68018 0.00546 0.18747 0.0
O377 O 0.55936 0.93524 0.17837 0.0
H378 H 0.61133 0.95265 0.20585 0.0
H379 H 0.64141 0.03137 0.1705 0.0
O380 O 0.53728 0.98262 0.20406 0.0
C381 C 0.57216 0.93995 0.16511 0.0
O382 O 0.57287 0.97788 0.15952 0.0
N383 N 0.54219 0.05027 0.18481 0.0
C384 C 0.52623 0.13512 0.18329 0.0
C385 C 0.50421 0.11001 0.19326 0.0
C386 C 0.51189 0.06739 0.19358 0.0
C387 C 0.56155 0.07396 0.17435 0.0
C388 C 0.55467 0.11679 0.17356 0.0
H389 H 0.49304 0.04824 0.20078 0.0
H390 H 0.5808 0.05939 0.16608 0.0
H391 H 0.45301 0.98366 0.19644 0.0
H392 H 0.42152 0.00641 0.15218 0.0
H393 H 0.69248 0.96511 0.20603 0.0
H394 H 0.48051 0.12306 0.20046 0.0
H395 H 0.57102 0.13524 0.16534 0.0
C396 C 0.74497 0.2591 0.60397 0.0
C397 C 0.74775 0.30175 0.60504 0.0
N398 N 0.76316 0.31719 0.59227 0.0
N399 N 0.75875 0.24683 0.59064 0.0
C400 C 0.76989 0.28282 0.58374 0.0
H401 H 0.73249 0.23834 0.61229 0.0
Co402 Co 0.75772 0.19032 0.58488 0.0
C403 C 0.7522 0.18967 0.5528 0.0
O404 O 0.72378 0.16051 0.55486 0.0
N405 N 0.75846 0.13213 0.57961 0.0
C406 C 0.78762 0.07453 0.57023 0.0
C407 C 0.7901 0.11714 0.57121 0.0
C408 C 0.73751 0.097 0.58389 0.0
N409 N 0.75469 0.06167 0.57824 0.0
O410 O 0.81481 0.18492 0.59061 0.0
H411 H 0.81462 0.13607 0.56642 0.0
H412 H 0.71206 0.0965 0.59169 0.0
O413 O 0.77159 0.20511 0.56399 0.0
C414 C 0.81268 0.17522 0.60424 0.0
O415 O 0.77555 0.17056 0.61025 0.0
N416 N 0.70065 0.1965 0.58096 0.0
C417 C 0.61555 0.21083 0.57809 0.0
C418 C 0.64412 0.23429 0.5699 0.0
C419 C 0.6865 0.22744 0.57179 0.0
C420 C 0.67335 0.17561 0.58983 0.0
C421 C 0.63038 0.1816 0.58836 0.0
H422 H 0.70787 0.2479 0.56605 0.0
H423 H 0.68489 0.15585 0.59857 0.0
H424 H 0.78147 0.28364 0.57254 0.0
H425 H 0.73776 0.31965 0.61451 0.0
H426 H 0.80926 0.05432 0.56443 0.0
H427 H 0.63387 0.25891 0.56251 0.0
H428 H 0.60909 0.16425 0.59537 0.0
C429 C 0.4921 0.03781 0.3513 0.0
C430 C 0.44954 0.04255 0.35157 0.0
N431 N 0.43466 0.03601 0.33789 0.0
N432 N 0.50497 0.02871 0.33748 0.0
C433 C 0.46903 0.02857 0.32947 0.0
H434 H 0.5117 0.03792 0.36096 0.0
Co435 Co 0.55953 0.00756 0.33374 0.0
C436 C 0.56644 0.99677 0.30156 0.0
O437 O 0.58512 0.96107 0.30426 0.0
N438 N 0.61593 0.98541 0.33076 0.0
C439 C 0.67106 0.94232 0.32929 0.0
C440 C 0.62827 0.94485 0.33011 0.0
C441 C 0.65286 0.00671 0.33032 0.0
N442 N 0.68683 0.98124 0.32954 0.0
O443 O 0.58238 0.06129 0.3379 0.0
H444 H 0.60789 0.918 0.33011 0.0
H445 H 0.65505 0.0404 0.3308 0.0
O446 O 0.55439 0.01993 0.31232 0.0
C447 C 0.59096 0.05857 0.35162 0.0
O448 O 0.58681 0.02218 0.35822 0.0
N449 N 0.53571 0.95526 0.33188 0.0
C450 C 0.49829 0.87819 0.33508 0.0
C451 C 0.49065 0.90206 0.32246 0.0
C452 C 0.50936 0.94107 0.32113 0.0
C453 C 0.54041 0.9337 0.34473 0.0
C454 C 0.52271 0.8945 0.34645 0.0
H455 H 0.50184 0.95966 0.3116 0.0
H456 H 0.55912 0.94666 0.35352 0.0
H457 H 0.46761 0.02 0.31795 0.0
H458 H 0.43088 0.04835 0.36132 0.0
H459 H 0.68915 0.9137 0.32913 0.0
H460 H 0.47129 0.89026 0.31359 0.0
H461 H 0.52856 0.8768 0.35645 0.0
C462 C 0.74206 0.73954 0.10312 0.0
C463 C 0.7374 0.6969 0.10363 0.0
N464 N 0.72609 0.68332 0.09018 0.0
N465 N 0.73369 0.75383 0.08942 0.0
C466 C 0.72291 0.71861 0.08182 0.0
H467 H 0.75474 0.75819 0.11196 0.0
Co468 Co 0.75255 0.80852 0.08357 0.0
C469 C 0.75438 0.80037 0.05085 0.0
O470 O 0.79459 0.80746 0.05132 0.0
N471 N 0.77295 0.86526 0.07799 0.0
C472 C 0.81548 0.91548 0.06944 0.0
C473 C 0.80888 0.87353 0.07058 0.0
C474 C 0.75876 0.90473 0.08136 0.0
N475 N 0.78468 0.93577 0.07649 0.0
O476 O 0.70057 0.83206 0.08979 0.0
H477 H 0.83153 0.85099 0.06686 0.0
H478 H 0.73088 0.91081 0.08773 0.0
O479 O 0.73264 0.79978 0.0628 0.0
C480 C 0.71041 0.84058 0.10312 0.0
O481 O 0.74907 0.83385 0.10741 0.0
N482 N 0.80451 0.78483 0.08022 0.0
C483 C 0.88444 0.75228 0.07957 0.0
C484 C 0.85251 0.73329 0.07146 0.0
C485 C 0.81247 0.74979 0.07208 0.0
C486 C 0.83411 0.80045 0.08948 0.0
C487 C 0.87479 0.78575 0.08893 0.0
H488 H 0.78837 0.73514 0.0656 0.0
H489 H 0.82645 0.82587 0.09686 0.0
H490 H 0.71735 0.7182 0.07004 0.0
H491 H 0.74433 0.6771 0.11301 0.0
H492 H 0.84227 0.92985 0.06418 0.0
H493 H 0.85845 0.70621 0.0646 0.0
H494 H 0.89844 0.80118 0.0955 0.0
C495 C 0.00944 0.02056 0.84947 0.0
C496 C 0.0522 0.02157 0.84995 0.0
N497 N 0.06721 1.00142 0.83803 0.0
N498 N 0.99683 0.9996 0.83739 0.0
C499 C 0.03283 0.98808 0.83059 0.0
H500 H 0.98871 0.0349 0.85742 0.0
Co501 Co 0.93949 0.99432 0.83319 0.0
C502 C 0.93038 0.99032 0.80107 0.0
O503 O 0.89738 0.01402 0.80326 0.0
N504 N 0.88078 0.98832 0.82979 0.0
C505 C 0.82084 0.95789 0.82316 0.0
C506 C 0.86365 0.95401 0.8235 0.0
C507 C 0.84719 0.01198 0.83359 0.0
N508 N 0.81051 0.99438 0.82956 0.0
O509 O 0.93994 0.93852 0.84063 0.0
H510 H 0.88133 0.92754 0.81945 0.0
H511 H 0.84893 0.04131 0.83937 0.0
O512 O 0.95134 0.97721 0.81231 0.0
C513 C 0.93222 0.94471 0.85429 0.0
O514 O 0.9275 0.98347 0.85881 0.0
N515 N 0.93962 0.05045 0.82786 0.0
C516 C 0.95223 0.13599 0.82578 0.0
C517 C 0.96975 0.109 0.81533 0.0
C518 C 0.96434 0.06625 0.81688 0.0
C519 C 0.92336 0.07631 0.83833 0.0
C520 C 0.92842 0.1194 0.83733 0.0
H521 H 0.98263 0.04615 0.80984 0.0
H522 H 0.90913 0.06327 0.84811 0.0
H523 H 0.03379 0.9712 0.82025 0.0
H524 H 0.07073 0.03586 0.85855 0.0
H525 H 0.79896 0.9349 0.81904 0.0
H526 H 0.98935 0.12065 0.80648 0.0
H527 H 0.91622 0.1392 0.84601 0.0
C528 C 0.75651 0.75856 0.60491 0.0
C529 C 0.75706 0.80123 0.60619 0.0
N530 N 0.74453 0.81796 0.59333 0.0
N531 N 0.7438 0.74781 0.59125 0.0
C532 C 0.73665 0.78495 0.58438 0.0
H533 H 0.7671 0.73676 0.61322 0.0
Co534 Co 0.74321 0.691 0.58548 0.0
C535 C 0.74983 0.69065 0.55322 0.0
O536 O 0.77803 0.66135 0.55544 0.0
N537 N 0.74102 0.63258 0.58041 0.0
C538 C 0.71874 0.57329 0.56995 0.0
C539 C 0.7151 0.61608 0.57013 0.0
C540 C 0.75747 0.59825 0.58712 0.0
N541 N 0.7454 0.56214 0.58066 0.0
O542 O 0.68611 0.68712 0.59178 0.0
H543 H 0.69351 0.6339 0.56344 0.0
H544 H 0.77582 0.59903 0.59709 0.0
O545 O 0.72979 0.70604 0.56437 0.0
C546 C 0.69158 0.67667 0.60528 0.0
O547 O 0.72974 0.66852 0.60981 0.0
N548 N 0.80059 0.69532 0.58137 0.0
C549 C 0.88608 0.70381 0.57733 0.0
C550 C 0.85835 0.72983 0.56976 0.0
C551 C 0.81582 0.72593 0.57227 0.0
C552 C 0.82742 0.67209 0.58968 0.0
C553 C 0.87046 0.67512 0.58761 0.0
H554 H 0.79522 0.74775 0.56684 0.0
H555 H 0.81579 0.65268 0.59845 0.0
H556 H 0.72872 0.78786 0.57282 0.0
H557 H 0.76861 0.8188 0.61554 0.0
H558 H 0.70107 0.55182 0.56316 0.0
H559 H 0.86949 0.75413 0.5624 0.0
H560 H 0.89129 0.65605 0.59422 0.0
C561 C 0.49458 0.46618 0.85145 0.0
C562 C 0.45226 0.46037 0.85224 0.0
N563 N 0.43567 0.46864 0.83896 0.0
N564 N 0.50592 0.4773 0.83761 0.0
C565 C 0.46873 0.47908 0.83024 0.0
H566 H 0.5151 0.46389 0.86082 0.0
Co567 Co 0.56245 0.49197 0.8324 0.0
C568 C 0.5751 0.47007 0.80056 0.0
O569 O 0.61504 0.46218 0.80244 0.0
N570 N 0.61979 0.50809 0.8277 0.0
C571 C 0.67465 0.54379 0.81885 0.0
C572 C 0.6317 0.54045 0.819 0.0
C573 C 0.65693 0.4923 0.8326 0.0
N574 N 0.6908 0.51345 0.82743 0.0
O575 O 0.58056 0.43686 0.83773 0.0
H576 H 0.61061 0.56051 0.81294 0.0
H577 H 0.65942 0.46597 0.83999 0.0
O578 O 0.5517 0.47722 0.81173 0.0
C579 C 0.58936 0.44094 0.8514 0.0
O580 O 0.58908 0.47875 0.85711 0.0
N581 N 0.54476 0.54568 0.82897 0.0
C582 C 0.5223 0.62894 0.8279 0.0
C583 C 0.51135 0.60209 0.81635 0.0
C584 C 0.52276 0.5602 0.81711 0.0
C585 C 0.5548 0.57114 0.8404 0.0
C586 C 0.54415 0.61312 0.84006 0.0
H587 H 0.51364 0.53986 0.80821 0.0
H588 H 0.57174 0.5587 0.84975 0.0
H589 H 0.46575 0.4883 0.8188 0.0
H590 H 0.43467 0.45238 0.86206 0.0
H591 H 0.6925 0.56653 0.81263 0.0
H592 H 0.49385 0.61328 0.80691 0.0
H593 H 0.5535 0.63308 0.84912 0.0
C594 C 0.74416 0.23935 0.10264 0.0
C595 C 0.74223 0.19649 0.10338 0.0
N596 N 0.75757 0.18066 0.09078 0.0
N597 N 0.76057 0.25131 0.08956 0.0
C598 C 0.76887 0.21444 0.08255 0.0
H599 H 0.73124 0.26048 0.11074 0.0
Co600 Co 0.75715 0.30872 0.08324 0.0
C601 C 0.79023 0.29392 0.05177 0.0
O602 O 0.82836 0.30868 0.0531 0.0
N603 N 0.75251 0.3664 0.07691 0.0
C604 C 0.7314 0.42135 0.06358 0.0
C605 C 0.73475 0.37849 0.06407 0.0
C606 C 0.75961 0.40321 0.08406 0.0
N607 N 0.74684 0.43725 0.07619 0.0
O608 O 0.81446 0.31688 0.08813 0.0
H609 H 0.72309 0.3574 0.05573 0.0
H610 H 0.77218 0.40499 0.09511 0.0
O611 O 0.76608 0.29302 0.06293 0.0
C612 C 0.80873 0.32529 0.1018 0.0
O613 O 0.77012 0.328 0.10672 0.0
N614 N 0.70121 0.30181 0.08055 0.0
C615 C 0.6166 0.28804 0.08175 0.0
C616 C 0.64204 0.26186 0.07327 0.0
C617 C 0.68461 0.26912 0.07293 0.0
C618 C 0.67688 0.32738 0.08892 0.0
C619 C 0.63411 0.32139 0.08952 0.0
H620 H 0.70436 0.24725 0.06714 0.0
H621 H 0.69094 0.35172 0.09552 0.0
H622 H 0.77952 0.2124 0.07124 0.0
H623 H 0.72856 0.17827 0.11224 0.0
H624 H 0.71814 0.43931 0.05461 0.0
H625 H 0.62941 0.23509 0.06746 0.0
H626 H 0.61507 0.34206 0.0962 0.0
C627 C 0.00939 0.50098 0.35344 0.0
C628 C 0.05226 0.50325 0.35392 0.0
N629 N 0.06628 0.51791 0.34089 0.0
N630 N 0.99553 0.51416 0.34017 0.0
C631 C 0.03112 0.52511 0.33281 0.0
H632 H 0.98976 0.48776 0.36197 0.0
Co633 Co 0.93834 0.50637 0.33422 0.0
C634 C 0.96021 0.49425 0.30173 0.0
O635 O 0.95964 0.4535 0.30312 0.0
N636 N 0.88037 0.49894 0.3282 0.0
C637 C 0.8251 0.47765 0.31506 0.0
C638 C 0.86779 0.47717 0.31619 0.0
C639 C 0.84354 0.5117 0.33439 0.0
N640 N 0.80968 0.49922 0.32648 0.0
O641 O 0.92745 0.56414 0.33832 0.0
H642 H 0.88772 0.46009 0.30885 0.0
H643 H 0.84141 0.52956 0.34449 0.0
O644 O 0.95278 0.51791 0.31293 0.0
C645 C 0.92087 0.56186 0.35224 0.0
O646 O 0.92006 0.52464 0.35841 0.0
N647 N 0.94809 0.44859 0.33314 0.0
C648 C 0.96303 0.36398 0.33789 0.0
C649 C 0.99294 0.38901 0.33086 0.0
C650 C 0.98556 0.4314 0.32913 0.0
C651 C 0.91948 0.42492 0.3406 0.0
C652 C 0.926 0.38241 0.3429 0.0
H653 H 0.00971 0.45008 0.32407 0.0
H654 H 0.89205 0.43921 0.3454 0.0
H655 H 0.03152 0.53486 0.32137 0.0
H656 H 0.07171 0.49345 0.36306 0.0
H657 H 0.80656 0.46222 0.30669 0.0
H658 H 0.02195 0.37613 0.32669 0.0
H659 H 0.90283 0.36451 0.34892 0.0
C660 C 0.75977 0.24393 0.91692 0.0
C661 C 0.75835 0.20111 0.91623 0.0
N662 N 0.74171 0.18635 0.92888 0.0
N663 N 0.74356 0.25701 0.92984 0.0
C664 C 0.73264 0.22112 0.93691 0.0
H665 H 0.77357 0.26419 0.9087 0.0
Co666 Co 0.74626 0.31391 0.93581 0.0
C667 C 0.71418 0.29 0.96743 0.0
O668 O 0.67337 0.2871 0.96617 0.0
N669 N 0.74991 0.37086 0.94187 0.0
C670 C 0.76531 0.42623 0.95572 0.0
C671 C 0.76352 0.3835 0.95524 0.0
C672 C 0.74405 0.40711 0.93432 0.0
N673 N 0.75338 0.44145 0.94253 0.0
O674 O 0.68871 0.3214 0.93096 0.0
H675 H 0.77302 0.36312 0.96409 0.0
H676 H 0.73461 0.40818 0.92288 0.0
O677 O 0.73622 0.29918 0.9562 0.0
C678 C 0.6917 0.328 0.91708 0.0
O679 O 0.72919 0.32944 0.91114 0.0
N680 N 0.80237 0.30768 0.93875 0.0
C681 C 0.88763 0.2954 0.93891 0.0
C682 C 0.86163 0.27087 0.94785 0.0
C683 C 0.81884 0.27673 0.94728 0.0
C684 C 0.82707 0.33218 0.9301 0.0
C685 C 0.8701 0.3267 0.93005 0.0
H686 H 0.79892 0.25562 0.95338 0.0
H687 H 0.81309 0.35504 0.92281 0.0
H688 H 0.72033 0.22042 0.94801 0.0
H689 H 0.76949 0.1825 0.90708 0.0
H690 H 0.77501 0.44447 0.96515 0.0
H691 H 0.87407 0.2465 0.95491 0.0
H692 H 0.88915 0.34551 0.92271 0.0
C693 C 0.01359 0.46876 0.16655 0.0
C694 C 0.0562 0.46444 0.16714 0.0
N695 N 0.06883 0.46995 0.18117 0.0
N696 N 0.9984 0.47679 0.18014 0.0
C697 C 0.03288 0.47648 0.18889 0.0
H698 H 0.99561 0.46966 0.1565 0.0
Co699 Co 0.94352 0.4982 0.18301 0.0
C700 C 0.93225 0.51075 0.21508 0.0
O701 O 0.91161 0.54506 0.21195 0.0
N702 N 0.887 0.52044 0.18512 0.0
C703 C 0.83172 0.56342 0.18594 0.0
C704 C 0.87442 0.56097 0.18486 0.0
C705 C 0.85027 0.49904 0.18633 0.0
N706 N 0.81623 0.52447 0.1868 0.0
O707 O 0.9211 0.44412 0.17935 0.0
H708 H 0.8945 0.58795 0.18427 0.0
H709 H 0.84833 0.46531 0.18676 0.0
O710 O 0.9467 0.48794 0.20458 0.0
C711 C 0.91412 0.4447 0.1655 0.0
O712 O 0.91941 0.47995 0.15826 0.0
N713 N 0.96718 0.55071 0.18467 0.0
C714 C 0.00468 0.62847 0.18246 0.0
C715 C 0.01169 0.60311 0.19483 0.0
C716 C 0.99247 0.56438 0.19577 0.0
C717 C 0.96408 0.57275 0.17185 0.0
C718 C 0.9814 0.61244 0.17066 0.0
H719 H 0.99909 0.5454 0.20529 0.0
H720 H 0.94632 0.56007 0.16275 0.0
H721 H 0.03189 0.48351 0.20053 0.0
H722 H 0.0764 0.46119 0.15763 0.0
H723 H 0.81346 0.59191 0.18565 0.0
H724 H 0.03153 0.61318 0.20382 0.0
H725 H 0.97533 0.63066 0.16082 0.0
C726 C 0.75572 0.76467 0.415 0.0
C727 C 0.7604 0.80737 0.41472 0.0
N728 N 0.77454 0.82004 0.42798 0.0
N729 N 0.76695 0.74979 0.42836 0.0
C730 C 0.77891 0.78431 0.43597 0.0
H731 H 0.74202 0.74606 0.40631 0.0
Co732 Co 0.75764 0.69345 0.4345 0.0
C733 C 0.74213 0.71673 0.46671 0.0
O734 O 0.70166 0.71282 0.46494 0.0
N735 N 0.74896 0.6361 0.44059 0.0
C736 C 0.72979 0.57948 0.45336 0.0
C737 C 0.73257 0.62215 0.45344 0.0
C738 C 0.75583 0.60026 0.43285 0.0
N739 N 0.74411 0.56529 0.44035 0.0
O740 O 0.8155 0.68134 0.43093 0.0
H741 H 0.7222 0.64092 0.46249 0.0
H742 H 0.76797 0.59992 0.42172 0.0
O743 O 0.76724 0.70925 0.45586 0.0
C744 C 0.81379 0.67498 0.41698 0.0
O745 O 0.77696 0.67572 0.41055 0.0
N746 N 0.70012 0.70415 0.43501 0.0
C747 C 0.61567 0.71916 0.43034 0.0
C748 C 0.6408 0.74933 0.43714 0.0
C749 C 0.68317 0.74185 0.43887 0.0
C750 C 0.67646 0.6756 0.42758 0.0
C751 C 0.63403 0.68216 0.42531 0.0
H752 H 0.70193 0.76586 0.44395 0.0
H753 H 0.6906 0.64811 0.42281 0.0
H754 H 0.78814 0.78353 0.44743 0.0
H755 H 0.75098 0.82771 0.40577 0.0
H756 H 0.71808 0.56057 0.46235 0.0
H757 H 0.62794 0.77838 0.44129 0.0
H758 H 0.61604 0.65887 0.41942 0.0
C759 C 0.49309 0.47827 0.67015 0.0
C760 C 0.45109 0.47977 0.66724 0.0
N761 N 0.43406 0.50988 0.67559 0.0
N762 N 0.50346 0.50715 0.68041 0.0
C763 C 0.46641 0.52667 0.6833 0.0
H764 H 0.51493 0.45651 0.66524 0.0
Co765 Co 0.56137 0.50854 0.68625 0.0
C766 C 0.52532 0.53764 0.71713 0.0
O767 O 0.48494 0.53835 0.71469 0.0
N768 N 0.61946 0.50788 0.69145 0.0
C769 C 0.67635 0.49125 0.70438 0.0
C770 C 0.63357 0.49356 0.70455 0.0
C771 C 0.65496 0.51373 0.6834 0.0
N772 N 0.69032 0.50387 0.69106 0.0
O773 O 0.56709 0.56337 0.67782 0.0
H774 H 0.61383 0.48251 0.71341 0.0
H775 H 0.6547 0.52359 0.67199 0.0
O776 O 0.55054 0.52845 0.70662 0.0
C777 C 0.57137 0.55451 0.66413 0.0
O778 O 0.57359 0.51489 0.66035 0.0
N779 N 0.55641 0.45416 0.69272 0.0
C780 C 0.54224 0.36985 0.69654 0.0
C781 C 0.51902 0.39902 0.70458 0.0
C782 C 0.52633 0.44129 0.70239 0.0
C783 C 0.5802 0.4261 0.68517 0.0
C784 C 0.57387 0.38352 0.68702 0.0
H785 H 0.5055 0.46326 0.70754 0.0
H786 H 0.60266 0.4369 0.67709 0.0
H787 H 0.46299 0.55332 0.69047 0.0
H788 H 0.43398 0.45919 0.65995 0.0
H789 H 0.69532 0.47876 0.71321 0.0
H790 H 0.49348 0.38938 0.71167 0.0
H791 H 0.59217 0.36157 0.68059 0.0
C792 C 0.27319 0.24254 0.41329 0.0
C793 C 0.27221 0.2002 0.41134 0.0
N794 N 0.26674 0.18148 0.4245 0.0
N795 N 0.26945 0.25206 0.42774 0.0
C796 C 0.26603 0.21372 0.43436 0.0
H797 H 0.27407 0.2647 0.40435 0.0
Co798 Co 0.2604 0.30912 0.43409 0.0
C799 C 0.28456 0.30643 0.46624 0.0
O800 O 0.31432 0.33443 0.46482 0.0
N801 N 0.24997 0.36636 0.44004 0.0
C802 C 0.22197 0.42098 0.45186 0.0
C803 C 0.22588 0.37807 0.45157 0.0
C804 C 0.25993 0.40335 0.43343 0.0
N805 N 0.24326 0.43723 0.44037 0.0
O806 O 0.31863 0.32096 0.4314 0.0
H807 H 0.21086 0.35667 0.45913 0.0
H808 H 0.27797 0.40548 0.4234 0.0
O809 O 0.26539 0.29324 0.45482 0.0
C810 C 0.31813 0.33138 0.41777 0.0
O811 O 0.28177 0.33562 0.41118 0.0
N812 N 0.20441 0.29834 0.43472 0.0
C813 C 0.12356 0.27374 0.42913 0.0
C814 C 0.14583 0.25581 0.44079 0.0
C815 C 0.18657 0.26824 0.44331 0.0
C816 C 0.1827 0.31732 0.42369 0.0
C817 C 0.14183 0.30554 0.4207 0.0
H818 H 0.2042 0.25171 0.45156 0.0
H819 H 0.19793 0.34026 0.41676 0.0
H820 H 0.26072 0.20962 0.44605 0.0
H821 H 0.27415 0.18472 0.40076 0.0
H822 H 0.20439 0.43861 0.45994 0.0
H823 H 0.13228 0.23161 0.44768 0.0
H824 H 0.12533 0.31994 0.41158 0.0
C825 C 0.51151 0.49052 0.16969 0.0
C826 C 0.55439 0.49132 0.16903 0.0
N827 N 0.56883 0.51344 0.18058 0.0
N828 N 0.49827 0.51222 0.18156 0.0
C829 C 0.53407 0.5263 0.18792 0.0
H830 H 0.49125 0.47322 0.16237 0.0
Co831 Co 0.44142 0.51054 0.18765 0.0
C832 C 0.46725 0.54718 0.21931 0.0
O833 O 0.48063 0.586 0.21889 0.0
N834 N 0.38399 0.50823 0.19354 0.0
C835 C 0.32644 0.50448 0.20738 0.0
C836 C 0.36896 0.50937 0.20747 0.0
C837 C 0.34921 0.50284 0.18513 0.0
N838 N 0.31364 0.50043 0.19333 0.0
O839 O 0.43288 0.56585 0.18012 0.0
H840 H 0.3872 0.51297 0.21731 0.0
H841 H 0.35008 0.5002 0.17324 0.0
O842 O 0.45615 0.52965 0.2073 0.0
C843 C 0.42698 0.56142 0.16627 0.0
O844 O 0.42711 0.52337 0.16081 0.0
N845 N 0.44931 0.45596 0.19349 0.0
C846 C 0.46823 0.37209 0.19629 0.0
C847 C 0.49191 0.40194 0.2038 0.0
C848 C 0.48224 0.44396 0.20209 0.0
C849 C 0.42567 0.42721 0.18626 0.0
C850 C 0.43426 0.38486 0.18767 0.0
H851 H 0.50223 0.46688 0.20723 0.0
H852 H 0.40148 0.4372 0.17874 0.0
H853 H 0.53486 0.54333 0.19821 0.0
H854 H 0.57349 0.47598 0.16079 0.0
H855 H 0.30669 0.50277 0.21706 0.0
H856 H 0.51898 0.39309 0.21027 0.0
H857 H 0.41554 0.36245 0.18163 0.0
C858 C 0.25128 0.76067 0.91459 0.0
C859 C 0.25165 0.80318 0.91292 0.0
N860 N 0.23726 0.82066 0.9254 0.0
N861 N 0.23606 0.75039 0.92801 0.0
C862 C 0.22823 0.788 0.93452 0.0
H863 H 0.26269 0.7385 0.90655 0.0
Co864 Co 0.23367 0.69263 0.93315 0.0
C865 C 0.24276 0.68622 0.96521 0.0
O866 O 0.2684 0.65535 0.96204 0.0
N867 N 0.23041 0.63342 0.93746 0.0
C868 C 0.20392 0.57422 0.94679 0.0
C869 C 0.20055 0.61709 0.94636 0.0
C870 C 0.25037 0.59893 0.9321 0.0
N871 N 0.23524 0.56267 0.93778 0.0
O872 O 0.17538 0.69092 0.92838 0.0
H873 H 0.17714 0.63534 0.95209 0.0
H874 H 0.2749 0.59971 0.92395 0.0
O875 O 0.22405 0.70565 0.95461 0.0
C876 C 0.17576 0.68327 0.91455 0.0
O877 O 0.21206 0.67951 0.90792 0.0
N878 N 0.29114 0.69465 0.93586 0.0
C879 C 0.37533 0.71242 0.9331 0.0
C880 C 0.35175 0.73158 0.94414 0.0
C881 C 0.30942 0.7229 0.94516 0.0
C882 C 0.31378 0.6765 0.92487 0.0
C883 C 0.35641 0.684 0.92353 0.0
H884 H 0.29104 0.74162 0.95265 0.0
H885 H 0.29811 0.65946 0.91624 0.0
H886 H 0.2164 0.79141 0.94565 0.0
H887 H 0.2628 0.82016 0.90335 0.0
H888 H 0.18366 0.55305 0.95279 0.0
H889 H 0.36548 0.75469 0.9514 0.0
H890 H 0.37369 0.67026 0.91446 0.0
C891 C 0.99489 0.50766 0.66499 0.0
C892 C 0.9519 0.50707 0.66451 0.0
N893 N 0.93724 0.49196 0.67742 0.0
N894 N 0.00811 0.49281 0.6781 0.0
C895 C 0.9722 0.48307 0.68539 0.0
H896 H 0.01513 0.5209 0.65664 0.0
Co897 Co 0.06466 0.49733 0.68477 0.0
C898 C 0.05113 0.46637 0.71645 0.0
O899 O 0.07199 0.43115 0.71522 0.0
N900 N 0.12127 0.50294 0.69169 0.0
C901 C 0.17255 0.52408 0.70656 0.0
C902 C 0.1302 0.52202 0.70461 0.0
C903 C 0.15967 0.4945 0.6858 0.0
N904 N 0.19146 0.50686 0.69479 0.0
O905 O 0.07331 0.4393 0.68071 0.0
H906 H 0.10731 0.53524 0.71204 0.0
H907 H 0.16428 0.47986 0.67517 0.0
O908 O 0.04649 0.48983 0.70518 0.0
C909 C 0.08117 0.44218 0.66688 0.0
O910 O 0.08416 0.47968 0.661 0.0
N911 N 0.05731 0.5539 0.68668 0.0
C912 C 0.04453 0.63912 0.68568 0.0
C913 C 0.01837 0.61362 0.69421 0.0
C914 C 0.02474 0.57087 0.69427 0.0
C915 C 0.0832 0.57814 0.67835 0.0
C916 C 0.07756 0.62119 0.67777 0.0
H917 H 0.00229 0.55132 0.69984 0.0
H918 H 0.10759 0.5638 0.67181 0.0
H919 H 0.97173 0.4719 0.69665 0.0
H920 H 0.93306 0.51963 0.65565 0.0
H921 H 0.18839 0.53841 0.71581 0.0
H922 H 0.99251 0.62644 0.70047 0.0
H923 H 0.0978 0.63996 0.67083 0.0
C924 C 0.24176 0.76284 0.09844 0.0
C925 C 0.24315 0.80547 0.09964 0.0
N926 N 0.27141 0.82025 0.08995 0.0
N927 N 0.2686 0.74979 0.0879 0.0
C928 C 0.2879 0.78559 0.08347 0.0
H929 H 0.22116 0.7426 0.10464 0.0
Co930 Co 0.26819 0.69226 0.08194 0.0
C931 C 0.28033 0.73388 0.05082 0.0
O932 O 0.26964 0.77244 0.05402 0.0
N933 N 0.26602 0.63476 0.07635 0.0
C934 C 0.24874 0.5788 0.06307 0.0
C935 C 0.25285 0.62145 0.06301 0.0
C936 C 0.26886 0.59905 0.08447 0.0
N937 N 0.25861 0.56436 0.07657 0.0
O938 O 0.32564 0.6861 0.08742 0.0
H939 H 0.24352 0.64159 0.05403 0.0
H940 H 0.27652 0.59875 0.0961 0.0
O941 O 0.28119 0.70575 0.06095 0.0
C942 C 0.32382 0.68244 0.10147 0.0
O943 O 0.28714 0.68582 0.10791 0.0
N944 N 0.21157 0.6958 0.07877 0.0
C945 C 0.12635 0.70469 0.08189 0.0
C946 C 0.14728 0.7248 0.07032 0.0
C947 C 0.19023 0.72003 0.06896 0.0
C948 C 0.19127 0.67473 0.0897 0.0
C949 C 0.14848 0.67874 0.09149 0.0
H950 H 0.20576 0.73742 0.06052 0.0
H951 H 0.20891 0.65653 0.0976 0.0
H952 H 0.31245 0.78648 0.07527 0.0
H953 H 0.2239 0.82418 0.10691 0.0
H954 H 0.23653 0.5602 0.05408 0.0
H955 H 0.1309 0.74546 0.0628 0.0
H956 H 0.13303 0.66254 0.10048 0.0
C957 C 0.99584 0.47197 0.8482 0.0
C958 C 0.95289 0.47326 0.84911 0.0
N959 N 0.93846 0.50146 0.8393 0.0
N960 N 0.00918 0.49917 0.83783 0.0
C961 C 0.97335 0.51715 0.83272 0.0
H962 H 0.01603 0.451 0.85428 0.0
Co963 Co 0.06623 0.50196 0.83124 0.0
C964 C 0.03607 0.54458 0.80067 0.0
O965 O 0.02144 0.58296 0.80115 0.0
N966 N 0.1238 0.5051 0.82453 0.0
C967 C 0.17857 0.51107 0.80932 0.0
C968 C 0.13592 0.50989 0.81032 0.0
C969 C 0.16085 0.50319 0.83199 0.0
N970 N 0.1945 0.50694 0.82291 0.0
O971 O 0.07324 0.5538 0.84178 0.0
H972 H 0.1156 0.51295 0.80102 0.0
H973 H 0.16322 0.4996 0.84383 0.0
O974 O 0.04802 0.52767 0.81276 0.0
C975 C 0.08344 0.53777 0.85425 0.0
O976 O 0.08544 0.49675 0.85515 0.0
N977 N 0.06077 0.44924 0.82333 0.0
C978 C 0.04605 0.36457 0.81997 0.0
C979 C 0.01862 0.39395 0.81378 0.0
C980 C 0.02615 0.43634 0.81584 0.0
C981 C 0.0883 0.42103 0.82904 0.0
C982 C 0.0818 0.37845 0.82734 0.0
H983 H 0.00346 0.45877 0.8119 0.0
H984 H 0.11377 0.43135 0.83594 0.0
H985 H 0.97258 0.53967 0.82382 0.0
H986 H 0.93373 0.45425 0.85633 0.0
H987 H 0.1967 0.51464 0.7993 0.0
H988 H 0.99065 0.38426 0.80799 0.0
H989 H 0.10298 0.35672 0.83267 0.0
C990 C 0.24037 0.24261 0.60182 0.0
C991 C 0.23629 0.19994 0.60208 0.0
N992 N 0.2244 0.18701 0.5886 0.0
N993 N 0.23066 0.25727 0.58828 0.0
C994 C 0.22106 0.22246 0.58043 0.0
H995 H 0.25252 0.26137 0.61074 0.0
Co996 Co 0.23945 0.31389 0.58296 0.0
C997 C 0.20915 0.29383 0.55075 0.0
O998 O 0.16855 0.28875 0.55204 0.0
N999 N 0.24908 0.37055 0.57768 0.0
C1000 C 0.27196 0.42588 0.5651 0.0
C1001 C 0.26868 0.38317 0.56525 0.0
C1002 C 0.24112 0.40663 0.58502 0.0
N1003 N 0.2548 0.44089 0.57758 0.0
O1004 O 0.18193 0.32622 0.58714 0.0
H1005 H 0.28078 0.36269 0.55686 0.0
H1006 H 0.22647 0.40772 0.59576 0.0
O1007 O 0.23092 0.30229 0.56212 0.0
C1008 C 0.1838 0.33199 0.60111 0.0
O1009 O 0.22073 0.33138 0.60744 0.0
N1010 N 0.29531 0.30251 0.58084 0.0
C1011 C 0.37837 0.27999 0.5832 0.0
C1012 C 0.35236 0.25997 0.57299 0.0
C1013 C 0.31062 0.27149 0.57206 0.0
C1014 C 0.32016 0.32254 0.59074 0.0
C1015 C 0.3621 0.31195 0.59204 0.0
H1016 H 0.29031 0.25413 0.5648 0.0
H1017 H 0.30692 0.34588 0.598 0.0
H1018 H 0.2139 0.22278 0.56879 0.0
H1019 H 0.24456 0.17978 0.61123 0.0
H1020 H 0.2858 0.4443 0.55635 0.0
H1021 H 0.36374 0.23448 0.56621 0.0
H1022 H 0.38141 0.32811 0.60002 0.0
C1023 C 0.50782 0.49429 0.35584 0.0
C1024 C 0.55019 0.4906 0.3577 0.0
N1025 N 0.56758 0.48125 0.34461 0.0
N1026 N 0.49755 0.48649 0.34166 0.0
C1027 C 0.53507 0.47884 0.335 0.0
H1028 H 0.48613 0.50402 0.3643 0.0
Co1029 Co 0.44117 0.49342 0.33488 0.0
C1030 C 0.4485 0.46509 0.30296 0.0
O1031 O 0.42204 0.43382 0.30405 0.0
N1032 N 0.38422 0.50131 0.32833 0.0
C1033 C 0.32982 0.5259 0.31552 0.0
C1034 C 0.37274 0.52275 0.31613 0.0
C1035 C 0.34713 0.49198 0.33497 0.0
N1036 N 0.31338 0.50667 0.32742 0.0
O1037 O 0.43059 0.43558 0.33875 0.0
H1038 H 0.39431 0.53657 0.30833 0.0
H1039 H 0.34485 0.476 0.34545 0.0
O1040 O 0.45844 0.4858 0.31444 0.0
C1041 C 0.42148 0.43821 0.35247 0.0
O1042 O 0.41714 0.47559 0.35831 0.0
N1043 N 0.45105 0.54967 0.33298 0.0
C1044 C 0.4699 0.63361 0.33466 0.0
C1045 C 0.49431 0.60706 0.32597 0.0
C1046 C 0.48469 0.56493 0.32546 0.0
C1047 C 0.4269 0.57506 0.3415 0.0
C1048 C 0.43556 0.61753 0.34239 0.0
H1049 H 0.50547 0.54442 0.31953 0.0
H1050 H 0.40166 0.56201 0.34798 0.0
H1051 H 0.53867 0.47283 0.32332 0.0
H1052 H 0.56726 0.49622 0.36781 0.0
H1053 H 0.31224 0.54145 0.30692 0.0
H1054 H 0.52112 0.61857 0.31988 0.0
H1055 H 0.4166 0.63727 0.34944 0.0
H1056 H 0.13132 0.18915 0.11937 0.0
H1057 H 0.20585 0.08115 0.10823 0.0
H1058 H 0.17192 0.04047 0.12699 0.0
H1059 H 0.12627 0.03601 0.14771 0.0
H1060 H 0.05348 0.14216 0.16179 0.0
H1061 H 0.08295 0.18398 0.14129 0.0
C1062 C 0.13863 0.15625 0.12076 0.0
C1063 C 0.16869 0.13727 0.11154 0.0
C1064 C 0.12077 0.13335 0.13253 0.0
C1065 C 0.18027 0.09555 0.1141 0.0
C1066 C 0.16182 0.07249 0.12526 0.0
C1067 C 0.11644 0.0683 0.14631 0.0
C1068 C 0.0876 0.08598 0.15613 0.0
C1069 C 0.13277 0.09124 0.13463 0.0
C1070 C 0.076 0.12806 0.15438 0.0
C1071 C 0.09246 0.15166 0.14259 0.0
H1072 H 0.04993 0.92234 0.38211 0.0
H1073 H 0.11572 0.86542 0.34576 0.0
H1074 H 0.15367 0.82024 0.36307 0.0
H1075 H 0.17708 0.80739 0.3885 0.0
H1076 H 0.1149 0.86829 0.42484 0.0
H1077 H 0.06587 0.90125 0.40757 0.0
C1078 C 0.07162 0.89903 0.37795 0.0
C1079 C 0.08024 0.89721 0.36271 0.0
C1080 C 0.09431 0.87453 0.388 0.0
C1081 C 0.10826 0.86701 0.35741 0.0
C1082 C 0.13034 0.84167 0.36734 0.0
C1083 C 0.15206 0.82706 0.39267 0.0
C1084 C 0.14974 0.83583 0.4079 0.0
C1085 C 0.12498 0.84668 0.38265 0.0
C1086 C 0.11712 0.86096 0.4132 0.0
C1087 C 0.08942 0.88008 0.4033 0.0
H1088 H 0.37567 0.80512 0.62094 0.0
H1089 H 0.29851 0.90997 0.6083 0.0
H1090 H 0.32249 0.94937 0.62949 0.0
H1091 H 0.36249 0.95355 0.65168 0.0
H1092 H 0.45118 0.85729 0.66298 0.0
H1093 H 0.42438 0.81352 0.6426 0.0
C1094 C 0.36589 0.83728 0.62252 0.0
C1095 C 0.33613 0.85514 0.61298 0.0
C1096 C 0.38044 0.86027 0.63474 0.0
C1097 C 0.32236 0.89627 0.6153 0.0
C1098 C 0.33529 0.91842 0.62757 0.0
C1099 C 0.37597 0.92282 0.64975 0.0
C1100 C 0.40842 0.90837 0.65876 0.0
C1101 C 0.36355 0.90039 0.63744 0.0
C1102 C 0.42542 0.86851 0.65632 0.0
C1103 C 0.41077 0.8441 0.64449 0.0
H1104 H 0.37474 0.13359 0.85377 0.0
H1105 H 0.46628 0.06617 0.87924 0.0
H1106 H 0.44396 0.10154 0.90165 0.0
H1107 H 0.38687 0.13844 0.91468 0.0
H1108 H 0.29651 0.20728 0.88911 0.0
H1109 H 0.33026 0.18581 0.86629 0.0
C1110 C 0.39116 0.12839 0.86408 0.0
C1111 C 0.42162 0.09701 0.86491 0.0
C1112 C 0.37764 0.14848 0.87709 0.0
C1113 C 0.44241 0.09012 0.87839 0.0
C1114 C 0.42942 0.11004 0.89128 0.0
C1115 C 0.37591 0.15028 0.90415 0.0
C1116 C 0.33885 0.17356 0.90355 0.0
C1117 C 0.3953 0.13737 0.89092 0.0
C1118 C 0.32476 0.18863 0.88981 0.0
C1119 C 0.34387 0.1762 0.87671 0.0
H1120 H 0.93501 0.94942 0.8838 0.0
H1121 H 0.90399 0.86544 0.84824 0.0
H1122 H 0.8677 0.8194 0.8657 0.0
H1123 H 0.83323 0.81161 0.88982 0.0
H1124 H 0.86007 0.8986 0.92482 0.0
H1125 H 0.90988 0.9353 0.90882 0.0
C1126 C 0.92113 0.92049 0.87991 0.0
C1127 C 0.9214 0.91107 0.86473 0.0
C1128 C 0.89911 0.89533 0.88988 0.0
C1129 C 0.90404 0.87331 0.85985 0.0
C1130 C 0.88297 0.8473 0.86982 0.0
C1131 C 0.85107 0.83786 0.89404 0.0
C1132 C 0.84309 0.8528 0.90835 0.0
C1133 C 0.87857 0.85921 0.88466 0.0
C1134 C 0.86614 0.88655 0.91386 0.0
C1135 C 0.89421 0.90768 0.90466 0.0
H1136 H 0.95549 0.08222 0.63721 0.0
H1137 H 0.8881 0.13105 0.67466 0.0
H1138 H 0.84647 0.17542 0.65824 0.0
H1139 H 0.82104 0.1895 0.63318 0.0
H1140 H 0.88567 0.13763 0.59566 0.0
H1141 H 0.9373 0.10548 0.61216 0.0
C1142 C 0.93252 0.10358 0.64179 0.0
C1143 C 0.92449 0.10324 0.65707 0.0
C1144 C 0.90797 0.12781 0.63225 0.0
C1145 C 0.89496 0.13105 0.66295 0.0
C1146 C 0.87085 0.15598 0.65354 0.0
C1147 C 0.84712 0.17202 0.62862 0.0
C1148 C 0.84953 0.16541 0.6133 0.0
C1149 C 0.87582 0.15302 0.63817 0.0
C1150 C 0.88344 0.14318 0.60743 0.0
C1151 C 0.91263 0.12454 0.61687 0.0
H1152 H 0.56491 0.07719 0.37881 0.0
H1153 H 0.64997 0.117 0.34464 0.0
H1154 H 0.68598 0.16244 0.36232 0.0
H1155 H 0.69955 0.18095 0.38798 0.0
H1156 H 0.61823 0.13667 0.42265 0.0
H1157 H 0.57292 0.10378 0.40412 0.0
C1158 C 0.59062 0.09683 0.37519 0.0
C1159 C 0.60512 0.09396 0.36055 0.0
C1160 C 0.61163 0.12167 0.38548 0.0
C1161 C 0.6382 0.11929 0.35583 0.0
C1162 C 0.65893 0.1448 0.36596 0.0
C1163 C 0.67146 0.16469 0.39149 0.0
C1164 C 0.66249 0.16035 0.40665 0.0
C1165 C 0.64688 0.14479 0.3809 0.0
C1166 C 0.6257 0.14017 0.41106 0.0
C1167 C 0.60015 0.12112 0.40048 0.0
H1168 H 0.6485 0.94886 0.15535 0.0
H1169 H 0.54511 0.86287 0.15507 0.0
H1170 H 0.57738 0.82454 0.13432 0.0
H1171 H 0.63413 0.81957 0.11509 0.0
H1172 H 0.73102 0.91352 0.1148 0.0
H1173 H 0.70099 0.94635 0.13643 0.0
C1174 C 0.63347 0.92108 0.15094 0.0
C1175 C 0.5951 0.9081 0.15677 0.0
C1176 C 0.65011 0.90206 0.13846 0.0
C1177 C 0.5754 0.87257 0.15095 0.0
C1178 C 0.59334 0.85145 0.13889 0.0
C1179 C 0.64756 0.84801 0.11954 0.0
C1180 C 0.68409 0.86485 0.11319 0.0
C1181 C 0.63012 0.86682 0.13222 0.0
C1182 C 0.70227 0.9008 0.11929 0.0
C1183 C 0.68564 0.91911 0.13182 0.0
H1184 H 0.61969 0.63135 0.60376 0.0
H1185 H 0.69119 0.7124 0.63197 0.0
H1186 H 0.65366 0.68678 0.65361 0.0
H1187 H 0.61198 0.63 0.66484 0.0
H1188 H 0.54203 0.54765 0.63651 0.0
H1189 H 0.56639 0.58527 0.61478 0.0
C1190 C 0.62542 0.6448 0.61455 0.0
C1191 C 0.65803 0.67354 0.61633 0.0
C1192 C 0.60459 0.62884 0.62705 0.0
C1193 C 0.66598 0.6902 0.63041 0.0
C1194 C 0.64486 0.67523 0.64281 0.0
C1195 C 0.60083 0.6215 0.65395 0.0
C1196 C 0.57589 0.58579 0.65224 0.0
C1197 C 0.61577 0.64282 0.64137 0.0
C1198 C 0.56182 0.5748 0.63806 0.0
C1199 C 0.57584 0.59619 0.62559 0.0
H1200 H 0.68298 0.30717 0.88871 0.0
H1201 H 0.62315 0.37567 0.92382 0.0
H1202 H 0.57968 0.41257 0.90572 0.0
H1203 H 0.56976 0.43455 0.88001 0.0
H1204 H 0.63334 0.36963 0.84486 0.0
H1205 H 0.66435 0.3214 0.8629 0.0
C1206 C 0.6594 0.32925 0.8924 0.0
C1207 C 0.65631 0.33914 0.90751 0.0
C1208 C 0.63602 0.35133 0.88192 0.0
C1209 C 0.62572 0.36745 0.91226 0.0
C1210 C 0.60139 0.38889 0.90189 0.0
C1211 C 0.58968 0.40919 0.87628 0.0
C1212 C 0.59993 0.40579 0.86121 0.0
C1213 C 0.60794 0.38255 0.8867 0.0
C1214 C 0.62514 0.37267 0.85641 0.0
C1215 C 0.64303 0.34542 0.86673 0.0
H1216 H 0.80436 0.31881 0.13116 0.0
H1217 H 0.88743 0.3564 0.09602 0.0
H1218 H 0.93309 0.39073 0.11408 0.0
H1219 H 0.94084 0.42118 0.13886 0.0
H1220 H 0.85389 0.38847 0.17337 0.0
H1221 H 0.81765 0.34087 0.15648 0.0
C1222 C 0.83291 0.33387 0.12745 0.0
C1223 C 0.84224 0.33597 0.11226 0.0
C1224 C 0.85764 0.35483 0.13775 0.0
C1225 C 0.87963 0.35464 0.10763 0.0
C1226 C 0.90538 0.37455 0.11794 0.0
C1227 C 0.91462 0.40263 0.14275 0.0
C1228 C 0.89963 0.40819 0.15721 0.0
C1229 C 0.89348 0.37653 0.13288 0.0
C1230 C 0.86598 0.38418 0.1623 0.0
C1231 C 0.84514 0.3574 0.15261 0.0
H1232 H 0.94026 0.56968 0.38084 0.0
H1233 H 0.8778 0.63357 0.34519 0.0
H1234 H 0.84518 0.68144 0.36296 0.0
H1235 H 0.82451 0.69529 0.3886 0.0
H1236 H 0.88205 0.62691 0.42423 0.0
H1237 H 0.92763 0.59097 0.40649 0.0
C1238 C 0.9203 0.59482 0.37693 0.0
C1239 C 0.91091 0.59793 0.36176 0.0
C1240 C 0.90068 0.62096 0.38723 0.0
C1241 C 0.88554 0.63075 0.35678 0.0
C1242 C 0.86661 0.65774 0.36697 0.0
C1243 C 0.8479 0.67333 0.39251 0.0
C1244 C 0.84978 0.6633 0.40766 0.0
C1245 C 0.87248 0.65175 0.38222 0.0
C1246 C 0.88029 0.63523 0.41266 0.0
C1247 C 0.90588 0.61438 0.40249 0.0
H1248 H 0.33172 0.30491 0.39034 0.0
H1249 H 0.38569 0.37985 0.42489 0.0
H1250 H 0.43118 0.41432 0.40676 0.0
H1251 H 0.44288 0.43331 0.38086 0.0
H1252 H 0.38267 0.36374 0.34616 0.0
H1253 H 0.35269 0.31594 0.36456 0.0
C1254 C 0.35465 0.3277 0.39394 0.0
C1255 C 0.35547 0.34016 0.40885 0.0
C1256 C 0.37881 0.34864 0.38338 0.0
C1257 C 0.38501 0.36957 0.41351 0.0
C1258 C 0.41045 0.38964 0.4031 0.0
C1259 C 0.42413 0.40689 0.37731 0.0
C1260 C 0.41435 0.40215 0.36225 0.0
C1261 C 0.40577 0.381 0.38796 0.0
C1262 C 0.39059 0.36777 0.35769 0.0
C1263 C 0.37316 0.34085 0.36823 0.0
H1264 H 0.44054 0.56442 0.13698 0.0
H1265 H 0.38938 0.63621 0.17299 0.0
H1266 H 0.35905 0.6859 0.15535 0.0
H1267 H 0.33777 0.70147 0.12987 0.0
H1268 H 0.38596 0.62743 0.09394 0.0
H1269 H 0.42788 0.58643 0.11138 0.0
C1270 C 0.42342 0.59144 0.14098 0.0
C1271 C 0.4166 0.59642 0.15625 0.0
C1272 C 0.40559 0.61924 0.13078 0.0
C1273 C 0.39498 0.63176 0.16131 0.0
C1274 C 0.37745 0.65995 0.15122 0.0
C1275 C 0.3585 0.67717 0.12582 0.0
C1276 C 0.35875 0.66727 0.11067 0.0
C1277 C 0.38125 0.65301 0.13595 0.0
C1278 C 0.38565 0.63588 0.10551 0.0
C1279 C 0.40911 0.6121 0.11552 0.0
H1280 H 0.07834 0.62351 0.8597 0.0
H1281 H 0.1147 0.50557 0.87934 0.0
H1282 H 0.13615 0.54051 0.90153 0.0
H1283 H 0.15252 0.60418 0.91464 0.0
H1284 H 0.12469 0.72352 0.89515 0.0
H1285 H 0.09011 0.68892 0.87428 0.0
C1286 C 0.09059 0.60561 0.8689 0.0
C1287 C 0.09483 0.56188 0.86767 0.0
C1288 C 0.10359 0.62613 0.88195 0.0
C1289 C 0.11081 0.53919 0.87978 0.0
C1290 C 0.12309 0.55909 0.89264 0.0
C1291 C 0.13691 0.62254 0.90618 0.0
C1292 C 0.13983 0.66615 0.9066 0.0
C1293 C 0.1202 0.60246 0.8938 0.0
C1294 C 0.12144 0.6898 0.89525 0.0
C1295 C 0.10261 0.66995 0.88315 0.0
H1296 H 0.17228 0.30875 0.62915 0.0
H1297 H 0.11663 0.38194 0.59435 0.0
H1298 H 0.07199 0.4174 0.61249 0.0
H1299 H 0.06041 0.437 0.63836 0.0
H1300 H 0.12112 0.36823 0.67324 0.0
H1301 H 0.1518 0.32066 0.65495 0.0
C1302 C 0.1494 0.3316 0.62551 0.0
C1303 C 0.14786 0.34317 0.6105 0.0
C1304 C 0.12538 0.35286 0.63604 0.0
C1305 C 0.11808 0.37243 0.60581 0.0
C1306 C 0.09303 0.39301 0.61622 0.0
C1307 C 0.07949 0.41084 0.64198 0.0
C1308 C 0.0891 0.40628 0.65708 0.0
C1309 C 0.0981 0.38492 0.63139 0.0
C1310 C 0.11328 0.37217 0.6617 0.0
C1311 C 0.13113 0.34536 0.65122 0.0
H1312 H 0.32847 0.20368 0.99503 0.0
H1313 H 0.21117 0.22444 0.97298 0.0
H1314 H 0.17479 0.22749 0.99607 0.0
H1315 H 0.17472 0.22216 0.02296 0.0
H1316 H 0.28924 0.19002 0.0452 0.0
H1317 H 0.32764 0.19392 0.02213 0.0
C1318 C 0.29507 0.20948 0.99526 0.0
C1319 C 0.27319 0.21534 0.98192 0.0
C1320 C 0.27347 0.20912 1.00889 0.0
C1321 C 0.22963 0.22152 0.9827 0.0
C1322 C 0.20836 0.22269 0.9961 0.0
C1323 C 0.20809 0.21609 0.02281 0.0
C1324 C 0.22911 0.2075 0.03607 0.0
C1325 C 0.22982 0.2163 0.00929 0.0
C1326 C 0.27226 0.19866 0.03543 0.0
C1327 C 0.29435 0.20035 0.02211 0.0
H1328 H 0.10424 0.03404 0.27853 0.0
H1329 H 0.99284 0.96892 0.29255 0.0
H1330 H 0.96362 0.97619 0.26764 0.0
H1331 H 0.97023 1.00113 0.2419 0.0
H1332 H 0.08211 0.06649 0.22845 0.0
H1333 H 0.11037 0.05969 0.25334 0.0
C1334 C 0.07356 0.02122 0.2762 0.0
C1335 C 0.05085 1.00075 0.28742 0.0
C1336 C 0.05686 0.02611 0.26202 0.0
C1337 C 0.0112 0.98437 0.28411 0.0
C1338 C 0.99436 0.98888 0.2699 0.0
C1339 C 1.00046 0.0146 0.24448 0.0
C1340 C 0.02394 0.03461 0.23332 0.0
C1341 C 0.01685 0.00995 0.2588 0.0
C1342 C 0.06336 0.05116 0.23682 0.0
C1343 C 0.07963 0.04703 0.25103 0.0
H1344 H 0.23065 0.8601 0.52801 0.0
H1345 H 0.28959 0.74542 0.54213 0.0
H1346 H 0.28503 0.71823 0.51682 0.0
H1347 H 0.26146 0.72665 0.49092 0.0
H1348 H 0.19974 0.84111 0.47785 0.0
H1349 H 0.2073 0.86841 0.50277 0.0
C1350 C 0.24276 0.82914 0.52561 0.0
C1351 C 0.26037 0.80477 0.53697 0.0
C1352 C 0.23875 0.81344 0.5113 0.0
C1353 C 0.27625 0.76496 0.53357 0.0
C1354 C 0.27316 0.74928 0.51915 0.0
C1355 C 0.24909 0.75731 0.49357 0.0
C1356 C 0.2298 0.78172 0.48249 0.0
C1357 C 0.25375 0.77302 0.50798 0.0
C1358 C 0.21456 0.82162 0.48612 0.0
C1359 C 0.21909 0.83737 0.50035 0.0
H1360 H 0.49477 0.95194 0.78091 0.0
H1361 H 0.44215 0.07263 0.79151 0.0
H1362 H 0.43697 0.08885 0.76509 0.0
H1363 H 0.43961 0.06497 0.73932 0.0
H1364 H 0.48834 0.94236 0.72906 0.0
H1365 H 0.50249 0.93034 0.75527 0.0
C1366 C 0.48249 0.98208 0.7775 0.0
C1367 C 0.46822 0.01087 0.78819 0.0
C1368 C 0.4783 0.99039 0.76242 0.0
C1369 C 0.45326 0.04997 0.78355 0.0
C1370 C 0.44995 0.059 0.76845 0.0
C1371 C 0.45356 0.03563 0.74277 0.0
C1372 C 0.46231 0.00421 0.73226 0.0
C1373 C 0.46106 0.02883 0.75783 0.0
C1374 C 0.48108 0.96683 0.73691 0.0
C1375 C 0.4891 0.95999 0.75188 0.0
H1376 H 0.68179 0.83277 0.98818 0.0
H1377 H 0.79818 0.77318 0.97605 0.0
H1378 H 0.81084 0.75578 1.00196 0.0
H1379 H 0.79212 0.76356 0.02798 0.0
H1380 H 0.67811 0.82659 0.04033 0.0
H1381 H 0.66007 0.83504 0.01415 0.0
C1382 C 0.70994 0.81581 0.99113 0.0
C1383 C 0.73946 0.80493 0.98017 0.0
C1384 C 0.71699 0.8061 1.00601 0.0
C1385 C 0.77535 0.78249 0.98425 0.0
C1386 C 0.78244 0.77235 0.99905 0.0
C1387 C 0.76284 0.77843 0.02493 0.0
C1388 C 0.73653 0.79481 0.036 0.0
C1389 C 0.75387 0.78475 0.01 0.0
C1390 C 0.69857 0.81349 0.032 0.0
C1391 C 0.68871 0.81887 0.01705 0.0
H1392 H 0.89206 0.01799 0.77651 0.0
H1393 H 0.00758 0.96208 0.79129 0.0
H1394 H 0.03709 0.97067 0.76642 0.0
H1395 H 0.03003 0.99596 0.7406 0.0
H1396 H 0.91492 0.05536 0.72706 0.0
H1397 H 0.88563 0.04436 0.75157 0.0
C1398 C 0.92372 0.00738 0.77438 0.0
C1399 C 0.9475 0.98927 0.78582 0.0
C1400 C 0.94077 0.01378 0.76034 0.0
C1401 C 0.98838 0.9757 0.7827 0.0
C1402 C 0.00538 0.98106 0.76852 0.0
C1403 C 0.9988 0.00714 0.74308 0.0
C1404 C 0.97467 0.02651 0.73194 0.0
C1405 C 0.982 1.00063 0.75729 0.0
C1406 C 0.9341 0.04029 0.73535 0.0
C1407 C 0.91725 0.03384 0.74936 0.0
H1408 H 0.69486 0.18717 0.53109 0.0
H1409 H 0.81935 0.23123 0.54075 0.0
H1410 H 0.82938 0.24904 0.51462 0.0
H1411 H 0.80651 0.24093 0.48876 0.0
H1412 H 0.68244 0.19562 0.47936 0.0
H1413 H 0.668 0.18999 0.50583 0.0
C1414 C 0.72417 0.20097 0.52752 0.0
C1415 C 0.75695 0.20667 0.53772 0.0
C1416 C 0.72962 0.21077 0.51258 0.0
C1417 C 0.79405 0.2259 0.53304 0.0
C1418 C 0.79973 0.23598 0.51813 0.0
C1419 C 0.77589 0.23102 0.49256 0.0
C1420 C 0.74565 0.21823 0.48221 0.0
C1421 C 0.7683 0.22701 0.50775 0.0
C1422 C 0.706 0.20581 0.48714 0.0
C1423 C 0.69801 0.20209 0.50226 0.0
H1424 H 0.55391 0.94039 0.27985 0.0
H1425 H 0.55149 0.073 0.28862 0.0
H1426 H 0.54054 0.08691 0.26227 0.0
H1427 H 0.54009 0.06135 0.23664 0.0
H1428 H 0.54246 0.92881 0.22796 0.0
H1429 H 0.54429 0.91461 0.25457 0.0
C1430 C 0.55077 0.9724 0.27603 0.0
C1431 C 0.55456 0.0058 0.2861 0.0
C1432 C 0.54445 0.97998 0.26095 0.0
C1433 C 0.54916 0.04691 0.28105 0.0
C1434 C 0.543 0.05479 0.26601 0.0
C1435 C 0.54019 0.02931 0.24061 0.0
C1436 C 0.54154 0.99607 0.23042 0.0
C1437 C 0.5418 0.0216 0.25584 0.0
C1438 C 0.54116 0.95477 0.23561 0.0
C1439 C 0.54266 0.94676 0.2508 0.0
H1440 H 0.80414 0.67944 0.53073 0.0
H1441 H 0.68653 0.73868 0.54134 0.0
H1442 H 0.67773 0.7581 0.5153 0.0
H1443 H 0.6998 0.75095 0.48943 0.0
H1444 H 0.81571 0.68852 0.47887 0.0
H1445 H 0.82952 0.6785 0.50524 0.0
C1446 C 0.77651 0.69675 0.52742 0.0
C1447 C 0.74542 0.70678 0.53794 0.0
C1448 C 0.77163 0.70734 0.5125 0.0
C1449 C 0.71057 0.73017 0.53347 0.0
C1450 C 0.70561 0.74121 0.51859 0.0
C1451 C 0.72854 0.73582 0.4929 0.0
C1452 C 0.75659 0.72013 0.48219 0.0
C1453 C 0.73542 0.72896 0.50799 0.0
C1454 C 0.79381 0.70108 0.48685 0.0
C1455 C 0.80138 0.69491 0.50192 0.0
H1456 H 0.47979 0.5144 0.74131 0.0
H1457 H 0.60482 0.54779 0.72783 0.0
H1458 H 0.63156 0.52701 0.75202 0.0
H1459 H 0.61975 0.49753 0.77684 0.0
H1460 H 0.49425 0.46762 0.79076 0.0
H1461 H 0.46742 0.4888 0.76659 0.0
C1462 C 0.51281 0.51788 0.74371 0.0
C1463 C 0.54033 0.53223 0.7326 0.0
C1464 C 0.52798 0.50588 0.75769 0.0
C1465 C 0.58302 0.53623 0.73601 0.0
C1466 C 0.59834 0.5243 0.74987 0.0
C1467 C 0.58657 0.49509 0.77453 0.0
C1468 C 0.55916 0.48007 0.78553 0.0
C1469 C 0.57123 0.50839 0.76071 0.0
C1470 C 0.51611 0.47843 0.78245 0.0
C1471 C 0.50073 0.4908 0.76865 0.0
H1472 H 0.6782 0.27717 0.9945 0.0
H1473 H 0.79772 0.29908 0.97384 0.0
H1474 H 0.83216 0.29764 0.99749 0.0
H1475 H 0.82852 0.29486 0.0246 0.0
H1476 H 0.70787 0.28006 0.04521 0.0
H1477 H 0.67461 0.27396 0.02149 0.0
C1478 C 0.71182 0.28121 0.99512 0.0
C1479 C 0.73506 0.2873 0.98214 0.0
C1480 C 0.73167 0.2818 1.009 0.0
C1481 C 0.77866 0.29303 0.98337 0.0
C1482 C 0.79864 0.29274 0.99705 0.0
C1483 C 0.79506 0.28974 0.02392 0.0
C1484 C 0.77124 0.28689 0.03693 0.0
C1485 C 0.77545 0.28764 0.01 0.0
C1486 C 0.72769 0.2809 0.03565 0.0
C1487 C 0.70825 0.27797 0.02194 0.0
H1488 H 0.99408 0.45598 0.27822 0.0
H1489 H 0.92578 0.56687 0.29072 0.0
H1490 H 0.91222 0.58214 0.26462 0.0
H1491 H 0.91356 0.55959 0.23871 0.0
H1492 H 0.9794 0.44672 0.22651 0.0
H1493 H 0.99935 0.43596 0.25228 0.0
C1494 C 0.97675 0.48393 0.27525 0.0
C1495 C 0.96072 0.51018 0.2864 0.0
C1496 C 0.96776 0.49143 0.26036 0.0
C1497 C 0.93875 0.54642 0.28236 0.0
C1498 C 0.93051 0.55474 0.26746 0.0
C1499 C 0.9323 0.53255 0.24163 0.0
C1500 C 0.94441 0.50355 0.23067 0.0
C1501 C 0.94371 0.52668 0.25643 0.0
C1502 C 0.96915 0.46914 0.2347 0.0
C1503 C 0.98077 0.46315 0.24942 0.0
H1504 H 0.17339 0.28251 0.52355 0.0
H1505 H 0.29285 0.30241 0.54445 0.0
H1506 H 0.32671 0.30716 0.52059 0.0
H1507 H 0.32256 0.30881 0.49336 0.0
H1508 H 0.20318 0.28786 0.47265 0.0
H1509 H 0.17006 0.27954 0.49648 0.0
C1510 C 0.20687 0.28758 0.52293 0.0
C1511 C 0.23005 0.2929 0.53598 0.0
C1512 C 0.22662 0.28979 0.50901 0.0
C1513 C 0.27361 0.29899 0.53477 0.0
C1514 C 0.2933 0.30159 0.52102 0.0
C1515 C 0.28942 0.30193 0.49407 0.0
C1516 C 0.26585 0.29803 0.48105 0.0
C1517 C 0.27009 0.29759 0.50802 0.0
C1518 C 0.22276 0.28946 0.48228 0.0
C1519 C 0.20343 0.28532 0.49603 0.0
H1520 H 0.48491 0.57693 0.24675 0.0
H1521 H 0.43988 0.46636 0.22474 0.0
H1522 H 0.4352 0.4297 0.24809 0.0
H1523 H 0.43931 0.43007 0.27537 0.0
H1524 H 0.47773 0.54362 0.29706 0.0
H1525 H 0.48882 0.57746 0.27364 0.0
C1526 C 0.47432 0.54472 0.24698 0.0
C1527 C 0.46403 0.52442 0.23372 0.0
C1528 C 0.47004 0.52408 0.26063 0.0
C1529 C 0.44977 0.48273 0.23449 0.0
C1530 C 0.44638 0.46169 0.24799 0.0
C1531 C 0.45065 0.462 0.27497 0.0
C1532 C 0.45862 0.48358 0.28822 0.0
C1533 C 0.45604 0.48215 0.2612 0.0
C1534 C 0.47272 0.52527 0.28731 0.0
C1535 C 0.4786 0.54513 0.27378 0.0
H1536 H 0.24884 0.77712 0.02723 0.0
H1537 H 0.30742 0.66 0.03906 0.0
H1538 H 0.29716 0.63434 0.01399 0.0
H1539 H 0.27167 0.64467 0.98897 0.0
H1540 H 0.21509 0.76193 0.97633 0.0
H1541 H 0.22381 0.78784 1.00166 0.0
C1542 C 0.25992 0.74617 0.02431 0.0
C1543 C 0.27892 0.72049 0.03512 0.0
C1544 C 0.25372 0.73147 0.00982 0.0
C1545 C 0.29261 0.68037 0.03106 0.0
C1546 C 0.28662 0.66562 0.01672 0.0
C1547 C 0.26098 0.67593 0.99169 0.0
C1548 C 0.24258 0.70129 0.98072 0.0
C1549 C 0.267 0.69077 1.00608 0.0
C1550 C 0.22885 0.74156 0.98456 0.0
C1551 C 0.23426 0.75649 0.99901 0.0
H1552 H 0.01616 0.57513 0.77349 0.0
H1553 H 0.06607 0.46477 0.79434 0.0
H1554 H 0.06811 0.42884 0.77093 0.0
H1555 H 0.06136 0.43015 0.7438 0.0
H1556 H 0.02054 0.54431 0.72292 0.0
H1557 H 0.01077 0.57704 0.7466 0.0
C1558 C 0.02722 0.54309 0.77302 0.0
C1559 C 0.03891 0.52234 0.78611 0.0
C1560 C 0.03084 0.52321 0.7592 0.0
C1561 C 0.05409 0.48109 0.78491 0.0
C1562 C 0.05632 0.46061 0.7713 0.0
C1563 C 0.04974 0.46196 0.74441 0.0
C1564 C 0.04114 0.48415 0.73132 0.0
C1565 C 0.04516 0.48146 0.75831 0.0
C1566 C 0.02665 0.52567 0.73254 0.0
C1567 C 0.02132 0.54483 0.74622 0.0
H1568 H 0.21499 0.88283 0.09287 0.0
H1569 H 0.34026 0.85676 0.07773 0.0
H1570 H 0.3493 0.93073 0.0713 0.0
H1571 H 0.32227 0.0028 0.07075 0.0
H1572 H 0.19623 0.02761 0.08576 0.0
H1573 H 0.18757 0.95412 0.09184 0.0
C1574 C 0.24462 0.89315 0.08838 0.0
C1575 C 0.27719 0.86394 0.08604 0.0
C1576 C 0.24955 0.93566 0.08473 0.0
C1577 C 0.31469 0.87824 0.07969 0.0
C1578 C 0.31988 0.92065 0.07606 0.0
C1579 C 0.29258 0.99248 0.07516 0.0
C1580 C 0.26001 0.02172 0.07774 0.0
C1581 C 0.28754 0.94969 0.07858 0.0
C1582 C 0.22218 0.00675 0.08371 0.0
C1583 C 0.21706 0.96438 0.08717 0.0
H1584 H 0.37153 0.01161 0.35583 0.0
H1585 H 0.39881 0.04868 0.31108 0.0
H1586 H 0.32501 0.03917 0.30452 0.0
H1587 H 0.25255 0.01838 0.31153 0.0
H1588 H 0.22605 0.98489 0.35656 0.0
H1589 H 0.29973 0.99512 0.3631 0.0
C1590 C 0.36147 0.01835 0.34468 0.0
C1591 C 0.39098 0.03109 0.33397 0.0
C1592 C 0.31903 0.01325 0.34106 0.0
C1593 C 0.37704 0.03849 0.3195 0.0
C1594 C 0.33477 0.03322 0.31577 0.0
C1595 C 0.26311 0.01385 0.32277 0.0
C1596 C 0.23413 1.0012 0.33362 0.0
C1597 C 0.3055 0.02035 0.32644 0.0
C1598 C 0.24782 0.99525 0.34816 0.0
C1599 C 0.28991 1.00084 0.35183 0.0
H1600 H 0.20591 0.11912 0.60507 0.0
H1601 H 0.2413 0.15734 0.56114 0.0
H1602 H 0.24925 0.08417 0.55393 0.0
H1603 H 0.25259 0.00948 0.56078 0.0
H1604 H 0.21908 0.97145 0.60485 0.0
H1605 H 0.20414 0.04423 0.61138 0.0
C1606 C 0.21522 0.11148 0.5939 0.0
C1607 C 0.22343 0.14392 0.58373 0.0
C1608 C 0.22041 0.06928 0.5899 0.0
C1609 C 0.23454 0.13327 0.5692 0.0
C1610 C 0.23946 0.09133 0.5651 0.0
C1611 C 0.24169 0.01719 0.57177 0.0
C1612 C 0.23713 0.98513 0.58234 0.0
C1613 C 0.23348 0.05915 0.57545 0.0
C1614 C 0.22245 0.99543 0.59649 0.0
C1615 C 0.21421 0.03709 0.60024 0.0
H1616 H 0.24938 0.94946 0.81988 0.0
H1617 H 0.27915 0.06052 0.84489 0.0
H1618 H 0.20491 0.07156 0.84973 0.0
H1619 H 0.13172 0.05059 0.8465 0.0
H1620 H 0.10205 0.94016 0.82127 0.0
H1621 H 0.17643 0.92921 0.81629 0.0
C1622 C 0.24008 0.97653 0.82622 0.0
C1623 C 0.27057 0.00422 0.83191 0.0
C1624 C 0.19719 0.98311 0.82878 0.0
C1625 C 0.25697 0.03839 0.84043 0.0
C1626 C 0.21432 0.04492 0.84313 0.0
C1627 C 0.14134 0.02383 0.84003 0.0
C1628 C 0.111 0.99601 0.83439 0.0
C1629 C 0.1842 0.01752 0.83734 0.0
C1630 C 0.12441 0.96223 0.82568 0.0
C1631 C 0.16704 0.9558 0.82292 0.0
H1632 H 0.2718 0.13643 0.45012 0.0
H1633 H 0.24246 0.12428 0.40383 0.0
H1634 H 0.2343 0.04956 0.40663 0.0
H1635 H 0.23776 0.98562 0.42191 0.0
H1636 H 0.26027 0.99879 0.46866 0.0
H1637 H 0.26852 0.07342 0.46583 0.0
C1638 C 0.26336 0.11764 0.44064 0.0
C1639 C 0.25916 0.13684 0.42671 0.0
C1640 C 0.25763 0.0739 0.44232 0.0
C1641 C 0.24769 0.11119 0.41466 0.0
C1642 C 0.24249 0.06794 0.41624 0.0
C1643 C 0.24405 0.00466 0.43153 0.0
C1644 C 0.24957 0.98532 0.44539 0.0
C1645 C 0.24786 0.04867 0.42997 0.0
C1646 C 0.2573 0.01152 0.45767 0.0
C1647 C 0.26172 0.05484 0.45614 0.0
H1648 H 0.14192 0.99909 0.65899 0.0
H1649 H 0.10707 0.05429 0.70068 0.0
H1650 H 0.1806 0.05876 0.70762 0.0
H1651 H 0.25452 0.03956 0.70308 0.0
H1652 H 0.28932 0.98381 0.66167 0.0
H1653 H 0.21619 0.98597 0.65351 0.0
C1654 C 0.15019 0.01214 0.66961 0.0
C1655 C 0.1184 0.02554 0.67939 0.0
C1656 C 0.19269 0.01392 0.67367 0.0
C1657 C 0.13036 0.0436 0.69289 0.0
C1658 C 0.17258 0.04585 0.69694 0.0
C1659 C 0.24597 0.02853 0.69219 0.0
C1660 C 0.2771 0.01156 0.68297 0.0
C1661 C 0.20389 0.02999 0.68761 0.0
C1662 C 0.26594 0.99743 0.66886 0.0
C1663 C 0.2241 0.99844 0.66426 0.0
H1664 H 0.26361 0.86499 0.94911 0.0
H1665 H 0.20597 0.87702 0.90644 0.0
H1666 H 0.20933 0.95327 0.90812 0.0
H1667 H 0.22949 0.01743 0.92169 0.0
H1668 H 0.28687 0.00554 0.9644 0.0
H1669 H 0.28355 0.92925 0.96273 0.0
C1670 C 0.25113 0.88444 0.94035 0.0
C1671 C 0.23417 0.86533 0.92773 0.0
C1672 C 0.25392 0.92856 0.94128 0.0
C1673 C 0.21897 0.891 0.91629 0.0
C1674 C 0.22114 0.93463 0.91721 0.0
C1675 C 0.24187 0.99801 0.93047 0.0
C1676 C 0.25877 0.01715 0.94309 0.0
C1677 C 0.23901 0.95391 0.92956 0.0
C1678 C 0.27387 0.99153 0.95455 0.0
C1679 C 0.27175 0.94787 0.95364 0.0
H1680 H 0.23361 0.04929 0.18012 0.0
H1681 H 0.22431 0.93145 0.20289 0.0
H1682 H 0.29924 0.91935 0.19961 0.0
H1683 H 0.36875 0.94287 0.19057 0.0
H1684 H 0.37802 0.06064 0.16779 0.0
H1685 H 0.30296 0.07252 0.1709 0.0
C1686 C 0.24802 0.02078 0.18415 0.0
C1687 C 0.22331 0.99132 0.19171 0.0
C1688 C 0.2916 0.01433 0.18245 0.0
C1689 C 0.24262 0.9547 0.19707 0.0
C1690 C 0.28557 0.94782 0.19525 0.0
C1691 C 0.35428 0.97132 0.18652 0.0
C1692 C 0.37901 1.001 0.17908 0.0
C1693 C 0.31065 0.97764 0.18814 0.0
C1694 C 0.35966 0.03742 0.1736 0.0
C1695 C 0.31666 0.04413 0.17532 0.0
H1696 H 0.69527 0.0052 0.95151 0.0
H1697 H 0.78042 0.97103 0.9167 0.0
H1698 H 0.79388 0.045 0.91153 0.0
H1699 H 0.77949 0.11887 0.91629 0.0
H1700 H 0.69378 0.15382 0.95103 0.0
H1701 H 0.68356 0.08016 0.95713 0.0
C1702 C 0.71707 0.01411 0.9429 0.0
C1703 C 0.73689 0.9827 0.9345 0.0
C1704 C 0.72462 0.05679 0.94 0.0
C1705 C 0.76527 0.99455 0.92343 0.0
C1706 C 0.77268 0.03686 0.92041 0.0
C1707 C 0.75816 0.11081 0.92511 0.0
C1708 C 0.73691 0.1426 0.93297 0.0
C1709 C 0.75213 0.06824 0.9285 0.0
C1710 C 0.71056 0.13061 0.9447 0.0
C1711 C 0.70452 0.08827 0.94817 0.0
H1712 H 0.75771 0.95841 0.70239 0.0
H1713 H 0.7848 0.05517 0.67054 0.0
H1714 H 0.71094 0.05753 0.66359 0.0
H1715 H 0.63868 0.03394 0.66715 0.0
H1716 H 0.61117 0.93761 0.69909 0.0
H1717 H 0.68531 0.93426 0.70579 0.0
C1718 C 0.74759 0.98037 0.69402 0.0
C1719 C 0.77707 0.00689 0.68709 0.0
C1720 C 0.70495 0.98188 0.69021 0.0
C1721 C 0.76312 0.03424 0.67599 0.0
C1722 C 0.72078 0.03579 0.67209 0.0
C1723 C 0.64878 0.01178 0.67546 0.0
C1724 C 0.61914 0.98581 0.68254 0.0
C1725 C 0.69142 0.00993 0.67918 0.0
C1726 C 0.63305 0.95814 0.69355 0.0
C1727 C 0.67552 0.95608 0.69731 0.0
H1728 H 0.76387 0.9952 0.45898 0.0
H1729 H 0.77884 0.03754 0.41395 0.0
H1730 H 0.78664 0.96541 0.40589 0.0
H1731 H 0.78592 0.88978 0.41134 0.0
H1732 H 0.76682 0.84813 0.45616 0.0
H1733 H 0.76397 0.92051 0.46445 0.0
C1734 C 0.7684 0.98921 0.44735 0.0
C1735 C 0.76994 0.02278 0.43716 0.0
C1736 C 0.77222 0.94737 0.44269 0.0
C1737 C 0.7772 0.01317 0.4222 0.0
C1738 C 0.78159 0.97159 0.41751 0.0
C1739 C 0.78108 0.89641 0.42293 0.0
C1740 C 0.7766 0.86304 0.43306 0.0
C1741 C 0.7786 0.93839 0.42763 0.0
C1742 C 0.77103 0.87268 0.44808 0.0
C1743 C 0.769 0.91427 0.45283 0.0
H1744 H 0.85962 0.01056 0.15916 0.0
H1745 H 0.89237 0.04471 0.20365 0.0
H1746 H 0.81837 0.04659 0.21041 0.0
H1747 H 0.7444 0.03111 0.20435 0.0
H1748 H 0.71122 0.99901 0.15978 0.0
H1749 H 0.78491 0.0035 0.15236 0.0
C1750 C 0.85055 0.01891 0.17029 0.0
C1751 C 0.88187 0.02702 0.18091 0.0
C1752 C 0.8077 0.0198 0.17412 0.0
C1753 C 0.8693 0.03846 0.19522 0.0
C1754 C 0.82684 0.03917 0.19914 0.0
C1755 C 0.75337 0.02579 0.19297 0.0
C1756 C 0.72239 0.01456 0.18263 0.0
C1757 C 0.79583 0.0288 0.18879 0.0
C1758 C 0.73433 0.00798 0.1679 0.0
C1759 C 0.77654 0.01029 0.1637 0.0
H1760 H 0.68681 0.8774 0.5869 0.0
H1761 H 0.8188 0.85483 0.59166 0.0
H1762 H 0.83344 0.92914 0.58801 0.0
H1763 H 0.80906 1.00037 0.58385 0.0
H1764 H 0.67756 0.02596 0.57947 0.0
H1765 H 0.6619 0.95102 0.58272 0.0
C1766 C 0.71866 0.88896 0.58684 0.0
C1767 C 0.75191 0.86083 0.58924 0.0
C1768 C 0.72674 0.93219 0.58499 0.0
C1769 C 0.79303 0.87602 0.58956 0.0
C1770 C 0.80131 0.91843 0.58759 0.0
C1771 C 0.77697 0.98951 0.58355 0.0
C1772 C 0.74454 0.01852 0.58134 0.0
C1773 C 0.76849 0.94677 0.58537 0.0
C1774 C 0.703 0.00418 0.58128 0.0
C1775 C 0.69416 0.96134 0.58301 0.0
H1776 H 0.75322 0.93653 0.31946 0.0
H1777 H 0.72046 0.05038 0.34226 0.0
H1778 H 0.7944 0.06526 0.34633 0.0
H1779 H 0.86821 0.04406 0.34477 0.0
H1780 H 0.90147 0.92961 0.32256 0.0
H1781 H 0.82764 0.91693 0.31688 0.0
C1782 C 0.76214 0.96462 0.32533 0.0
C1783 C 0.73084 0.99209 0.33063 0.0
C1784 C 0.80494 0.97279 0.32781 0.0
C1785 C 0.74344 0.02878 0.33793 0.0
C1786 C 0.78588 0.03716 0.34038 0.0
C1787 C 0.8594 0.01623 0.33872 0.0
C1788 C 0.89057 0.98755 0.33426 0.0
C1789 C 0.81685 0.00907 0.33559 0.0
C1790 C 0.87839 0.95226 0.32609 0.0
C1791 C 0.83607 0.94491 0.32292 0.0
H1792 H 0.71791 0.9888 0.08075 0.0
H1793 H 0.85281 0.98516 0.07927 0.0
H1794 H 0.85609 0.06034 0.08176 0.0
H1795 H 0.82164 0.12867 0.08489 0.0
H1796 H 0.6878 0.13408 0.08843 0.0
H1797 H 0.68307 0.05814 0.08463 0.0
C1798 C 0.74795 0.00444 0.08106 0.0
C1799 C 0.78494 0.98066 0.07942 0.0
C1800 C 0.74993 0.04867 0.08278 0.0
C1801 C 0.82357 0.00205 0.07999 0.0
C1802 C 0.82566 0.04543 0.08152 0.0
C1803 C 0.79151 0.11318 0.08453 0.0
C1804 C 0.75511 0.13701 0.08662 0.0
C1805 C 0.78918 0.06925 0.08282 0.0
C1806 C 0.71622 0.11638 0.0866 0.0
C1807 C 0.71356 0.07289 0.08454 0.0
H1808 H 0.74145 0.98306 0.81296 0.0
H1809 H 0.78545 0.03913 0.85329 0.0
H1810 H 0.71405 0.05904 0.85978 0.0
H1811 H 0.63834 0.05531 0.855 0.0
H1812 H 0.59406 0.99879 0.81482 0.0
H1813 H 0.66602 0.98479 0.80717 0.0
C1814 C 0.73535 0.99975 0.82314 0.0
C1815 C 0.76876 0.00922 0.83269 0.0
C1816 C 0.69408 0.01105 0.82682 0.0
C1817 C 0.76046 0.03162 0.8457 0.0
C1818 C 0.71955 0.04281 0.84946 0.0
C1819 C 0.64457 0.04038 0.8445 0.0
C1820 C 0.61085 0.02801 0.83555 0.0
C1821 C 0.68604 0.03199 0.84025 0.0
C1822 C 0.61934 0.00907 0.82187 0.0
C1823 C 0.66053 1.00065 0.81755 0.0
H1824 H 0.74773 0.38522 0.60966 0.0
H1825 H 0.78905 0.35046 0.5659 0.0
H1826 H 0.78967 0.42378 0.55874 0.0
H1827 H 0.77287 0.49796 0.56425 0.0
H1828 H 0.73316 0.53191 0.60799 0.0
H1829 H 0.73691 0.45851 0.61575 0.0
C1830 C 0.7569 0.39299 0.59852 0.0
C1831 C 0.76729 0.36117 0.58831 0.0
C1832 C 0.75713 0.43542 0.59441 0.0
C1833 C 0.78006 0.37338 0.57405 0.0
C1834 C 0.78046 0.41562 0.56989 0.0
C1835 C 0.76565 0.48907 0.57551 0.0
C1836 C 0.75282 0.51999 0.58559 0.0
C1837 C 0.76817 0.44682 0.57988 0.0
C1838 C 0.74358 0.50854 0.60016 0.0
C1839 C 0.74547 0.46661 0.60453 0.0
H1840 H 0.75658 0.56748 0.82469 0.0
H1841 H 0.72588 0.44016 0.8364 0.0
H1842 H 0.79946 0.42554 0.84104 0.0
H1843 H 0.87293 0.44816 0.84166 0.0
H1844 H 0.90478 0.57459 0.82953 0.0
H1845 H 0.83076 0.58987 0.82489 0.0
C1846 C 0.76581 0.53638 0.82815 0.0
C1847 C 0.73494 0.50509 0.83022 0.0
C1848 C 0.80869 0.52789 0.83068 0.0
C1849 C 0.7482 0.46521 0.8349 0.0
C1850 C 0.79057 0.45667 0.83748 0.0
C1851 C 0.86379 0.4792 0.8381 0.0
C1852 C 0.89475 0.51025 0.83606 0.0
C1853 C 0.8211 0.48772 0.83544 0.0
C1854 C 0.88197 0.54998 0.83112 0.0
C1855 C 0.8395 0.55878 0.82853 0.0
H1856 H 0.77649 0.62085 0.09969 0.0
H1857 H 0.67435 0.64727 0.07016 0.0
H1858 H 0.67109 0.57296 0.06332 0.0
H1859 H 0.6966 0.50023 0.06617 0.0
H1860 H 0.79983 0.47474 0.09547 0.0
H1861 H 0.80286 0.54874 0.10213 0.0
C1862 C 0.75329 0.6104 0.09182 0.0
C1863 C 0.72536 0.6398 0.08554 0.0
C1864 C 0.75174 0.56765 0.08795 0.0
C1865 C 0.69626 0.62556 0.0751 0.0
C1866 C 0.69432 0.58298 0.07126 0.0
C1867 C 0.72005 0.5107 0.07393 0.0
C1868 C 0.74797 0.4813 0.08031 0.0
C1869 C 0.72184 0.55366 0.07765 0.0
C1870 C 0.77758 0.49604 0.09052 0.0
C1871 C 0.77949 0.53857 0.09427 0.0
H1872 H 0.76355 0.46228 0.3476 0.0
H1873 H 0.75655 0.54548 0.31044 0.0
H1874 H 0.67984 0.54548 0.31186 0.0
H1875 H 0.61394 0.52032 0.32361 0.0
H1876 H 0.62173 0.43635 0.36065 0.0
H1877 H 0.69813 0.43722 0.35927 0.0
C1878 C 0.74507 0.48117 0.3401 0.0
C1879 C 0.76556 0.50492 0.32922 0.0
C1880 C 0.7009 0.47994 0.34076 0.0
C1881 C 0.74133 0.52796 0.31915 0.0
C1882 C 0.6975 0.52749 0.31986 0.0
C1883 C 0.6325 0.50171 0.33117 0.0
C1884 C 0.61217 0.47784 0.34211 0.0
C1885 C 0.67677 0.50315 0.33051 0.0
C1886 C 0.63667 0.45464 0.35207 0.0
C1887 C 0.68038 0.4554 0.35136 0.0
H1888 H 0.79421 0.50602 0.95567 0.0
H1889 H 0.71066 0.47669 0.91972 0.0
H1890 H 0.70911 0.5504 0.91267 0.0
H1891 H 0.73145 0.62316 0.91668 0.0
H1892 H 0.81255 0.65291 0.9531 0.0
H1893 H 0.81401 0.57887 0.96034 0.0
C1894 C 0.77511 0.51545 0.9464 0.0
C1895 C 0.75254 0.48522 0.93826 0.0
C1896 C 0.77377 0.55808 0.94256 0.0
C1897 C 0.7288 0.49873 0.9261 0.0
C1898 C 0.72767 0.54105 0.92211 0.0
C1899 C 0.74959 0.6134 0.92617 0.0
C1900 C 0.77232 0.6434 0.93428 0.0
C1901 C 0.75011 0.57094 0.93024 0.0
C1902 C 0.7948 0.63044 0.94675 0.0
C1903 C 0.79577 0.58813 0.9508 0.0
H1904 H 0.7513 0.5705 0.19715 0.0
H1905 H 0.78124 0.45352 0.17592 0.0
H1906 H 0.70677 0.43868 0.17295 0.0
H1907 H 0.63333 0.4611 0.17476 0.0
H1908 H 0.60306 0.57875 0.1954 0.0
H1909 H 0.6774 0.59109 0.20025 0.0
C1910 C 0.74163 0.54173 0.19186 0.0
C1911 C 0.77221 0.51342 0.18661 0.0
C1912 C 0.6986 0.53366 0.18999 0.0
C1913 C 0.75875 0.47582 0.18014 0.0
C1914 C 0.71604 0.46747 0.17832 0.0
C1915 C 0.64289 0.48959 0.18026 0.0
C1916 C 0.61243 0.51933 0.18447 0.0
C1917 C 0.68573 0.49655 0.18292 0.0
C1918 C 0.6256 0.55538 0.19201 0.0
C1919 C 0.66819 0.56251 0.19472 0.0
H1920 H 0.77294 0.38506 0.41426 0.0
H1921 H 0.68541 0.35308 0.44876 0.0
H1922 H 0.68107 0.42666 0.4559 0.0
H1923 H 0.70121 0.49972 0.45212 0.0
H1924 H 0.79004 0.53164 0.41796 0.0
H1925 H 0.7934 0.45834 0.41058 0.0
C1926 C 0.75241 0.39403 0.42322 0.0
C1927 C 0.72926 0.36321 0.43088 0.0
C1928 C 0.75002 0.43648 0.42726 0.0
C1929 C 0.70376 0.3758 0.44271 0.0
C1930 C 0.70112 0.41799 0.44675 0.0
C1931 C 0.7218 0.49099 0.44316 0.0
C1932 C 0.74554 0.52184 0.4357 0.0
C1933 C 0.72413 0.44858 0.43911 0.0
C1934 C 0.7711 0.50917 0.42388 0.0
C1935 C 0.77325 0.46704 0.41969 0.0
H1936 H 0.76039 0.4995 0.70808 0.0
H1937 H 0.71966 0.50612 0.66271 0.0
H1938 H 0.79229 0.50194 0.65453 0.0
H1939 H 0.86743 0.49517 0.66016 0.0
H1940 H 0.90736 0.48836 0.70562 0.0
H1941 H 0.83485 0.49186 0.71368 0.0
C1942 C 0.76691 0.49956 0.69636 0.0
C1943 C 0.73371 0.50293 0.68609 0.0
C1944 C 0.8089 0.49652 0.69168 0.0
C1945 C 0.74391 0.50392 0.67098 0.0
C1946 C 0.78568 0.50121 0.66625 0.0
C1947 C 0.8606 0.49472 0.67186 0.0
C1948 C 0.89368 0.49161 0.68219 0.0
C1949 C 0.81847 0.49738 0.6765 0.0
C1950 C 0.88328 0.49028 0.69729 0.0
C1951 C 0.84154 0.49266 0.70196 0.0
H1952 H 0.2831 0.61842 0.41682 0.0
H1953 H 0.17936 0.65015 0.44529 0.0
H1954 H 0.17187 0.57652 0.45197 0.0
H1955 H 0.19478 0.50282 0.4498 0.0
H1956 H 0.29937 0.47277 0.42148 0.0
H1957 H 0.30541 0.54592 0.4145 0.0
C1958 C 0.25834 0.60985 0.42435 0.0
C1959 C 0.23175 0.64097 0.4304 0.0
C1960 C 0.25415 0.56724 0.42819 0.0
C1961 C 0.20053 0.62778 0.44037 0.0
C1962 C 0.19616 0.58534 0.44422 0.0
C1963 C 0.21919 0.51198 0.44218 0.0
C1964 C 0.24653 0.4813 0.43623 0.0
C1965 C 0.22292 0.55473 0.43825 0.0
C1966 C 0.27741 0.49473 0.42619 0.0
C1967 C 0.28111 0.53695 0.42222 0.0
H1968 H 0.13997 0.44623 0.16686 0.0
H1969 H 0.09604 0.5085 0.20625 0.0
H1970 H 0.16782 0.52383 0.21318 0.0
H1971 H 0.24285 0.5221 0.20779 0.0
H1972 H 0.28742 0.46141 0.1683 0.0
H1973 H 0.21534 0.44491 0.16136 0.0
C1974 C 0.14574 0.46342 0.17693 0.0
C1975 C 0.11182 0.47613 0.18593 0.0
C1976 C 0.18736 0.47316 0.18073 0.0
C1977 C 0.12083 0.49767 0.19909 0.0
C1978 C 0.16212 0.50691 0.20303 0.0
C1979 C 0.23705 0.50491 0.19771 0.0
C1980 C 0.27094 0.49281 0.18865 0.0
C1981 C 0.19556 0.49512 0.19389 0.0
C1982 C 0.26225 0.47147 0.17545 0.0
C1983 C 0.22095 0.46169 0.17155 0.0
H1984 H 0.27387 0.38547 0.91069 0.0
H1985 H 0.25182 0.34776 0.95572 0.0
H1986 H 0.24302 0.42094 0.96289 0.0
H1987 H 0.23674 0.49575 0.95605 0.0
H1988 H 0.25906 0.53331 0.91106 0.0
H1989 H 0.27235 0.46046 0.90419 0.0
C1990 C 0.26724 0.3932 0.92209 0.0
C1991 C 0.26324 0.36075 0.9326 0.0
C1992 C 0.26194 0.43552 0.92613 0.0
C1993 C 0.25541 0.37173 0.94738 0.0
C1994 C 0.25001 0.41371 0.95147 0.0
C1995 C 0.2447 0.48794 0.94476 0.0
C1996 C 0.24669 0.52007 0.93406 0.0
C1997 C 0.25245 0.44584 0.9409 0.0
C1998 C 0.25765 0.50944 0.91952 0.0
C1999 C 0.265 0.46767 0.91558 0.0
H2000 H 0.38802 0.50226 0.70025 0.0
H2001 H 0.38 0.52897 0.65387 0.0
H2002 H 0.30327 0.52883 0.65524 0.0
H2003 H 0.2376 0.51903 0.66978 0.0
H2004 H 0.24718 0.48877 0.71599 0.0
H2005 H 0.32323 0.49159 0.71457 0.0
C2006 C 0.36932 0.50904 0.69056 0.0
C2007 C 0.38956 0.51674 0.67706 0.0
C2008 C 0.3252 0.50731 0.69136 0.0
C2009 C 0.36501 0.52387 0.66444 0.0
C2010 C 0.32115 0.52332 0.6652 0.0
C2011 C 0.25643 0.51254 0.67945 0.0
C2012 C 0.23648 0.50379 0.69299 0.0
C2013 C 0.30072 0.51447 0.67858 0.0
C2014 C 0.26155 0.4959 0.70546 0.0
C2015 C 0.30517 0.49763 0.70468 0.0
H2016 H 0.21877 0.38957 0.10556 0.0
H2017 H 0.24587 0.34821 0.06117 0.0
H2018 H 0.2594 0.42008 0.05381 0.0
H2019 H 0.26531 0.49468 0.05989 0.0
H2020 H 0.23993 0.53646 0.10421 0.0
H2021 H 0.22585 0.46422 0.11176 0.0
C2022 C 0.22794 0.39585 0.09428 0.0
C2023 C 0.23118 0.36256 0.08402 0.0
C2024 C 0.2367 0.43754 0.09011 0.0
C2025 C 0.24244 0.37243 0.06939 0.0
C2026 C 0.25064 0.41379 0.06515 0.0
C2027 C 0.25655 0.48814 0.0712 0.0
C2028 C 0.25362 0.52134 0.08144 0.0
C2029 C 0.24809 0.44654 0.07542 0.0
C2030 C 0.24294 0.5118 0.09612 0.0
C2031 C 0.23448 0.47042 0.1004 0.0
H2032 H 0.39048 0.52727 0.82429 0.0
H2033 H 0.38048 0.41017 0.84751 0.0
H2034 H 0.30423 0.41295 0.84583 0.0
H2035 H 0.2394 0.44911 0.83786 0.0
H2036 H 0.24923 0.56561 0.81435 0.0
H2037 H 0.32559 0.56331 0.81622 0.0
C2038 C 0.37153 0.50211 0.82873 0.0
C2039 C 0.39122 0.46837 0.83591 0.0
C2040 C 0.32735 0.5043 0.82795 0.0
C2041 C 0.3661 0.43639 0.84189 0.0
C2042 C 0.32243 0.43809 0.84101 0.0
C2043 C 0.25838 0.47427 0.83344 0.0
C2044 C 0.23872 0.50783 0.82619 0.0
C2045 C 0.30254 0.47213 0.83423 0.0
C2046 C 0.26373 0.53974 0.82013 0.0
C2047 C 0.30741 0.53823 0.82109 0.0
H2048 H 0.302 0.50547 0.56747 0.0
H2049 H 0.20091 0.47542 0.59731 0.0
H2050 H 0.19438 0.54904 0.60383 0.0
H2051 H 0.21535 0.62172 0.60046 0.0
H2052 H 0.31604 0.65273 0.57064 0.0
H2053 H 0.32341 0.57874 0.5642 0.0
C2054 C 0.27818 0.51483 0.57529 0.0
C2055 C 0.25183 0.48447 0.58181 0.0
C2056 C 0.27415 0.55745 0.57885 0.0
C2057 C 0.22191 0.49763 0.59219 0.0
C2058 C 0.21793 0.5399 0.59585 0.0
C2059 C 0.23942 0.61254 0.59271 0.0
C2060 C 0.2654 0.64307 0.58616 0.0
C2061 C 0.24371 0.57003 0.58919 0.0
C2062 C 0.29546 0.63017 0.5758 0.0
C2063 C 0.29984 0.58778 0.57219 0.0
H2064 H 0.13013 0.46827 0.34983 0.0
H2065 H 0.10139 0.57331 0.32177 0.0
H2066 H 0.17561 0.57958 0.31516 0.0
H2067 H 0.24898 0.55603 0.31784 0.0
H2068 H 0.27669 0.44983 0.34566 0.0
H2069 H 0.20284 0.44388 0.35208 0.0
C2070 C 0.14 0.49279 0.34234 0.0
C2071 C 0.10991 0.52057 0.33641 0.0
C2072 C 0.18277 0.49613 0.3386 0.0
C2073 C 0.12356 0.55141 0.32644 0.0
C2074 C 0.16613 0.55509 0.32273 0.0
C2075 C 0.23908 0.53128 0.32521 0.0
C2076 C 0.26916 0.50348 0.33125 0.0
C2077 C 0.1961 0.5277 0.32878 0.0
C2078 C 0.25498 0.47212 0.34096 0.0
C2079 C 0.21248 0.4685 0.34458 0.0
H2080 H 0.56439 0.27022 0.05948 0.0
H2081 H 0.57017 0.28616 0.10673 0.0
H2082 H 0.49544 0.27208 0.10872 0.0
H2083 H 0.42938 0.2559 0.09702 0.0
H2084 H 0.42366 0.23504 0.05002 0.0
H2085 H 0.49824 0.25103 0.04782 0.0
C2086 C 0.54917 0.27031 0.07019 0.0
C2087 C 0.57204 0.27949 0.08292 0.0
C2088 C 0.5067 0.26168 0.07125 0.0
C2089 C 0.55252 0.27989 0.09678 0.0
C2090 C 0.5101 0.27165 0.09793 0.0
C2091 C 0.44461 0.25444 0.08632 0.0
C2092 C 0.42168 0.24431 0.07371 0.0
C2093 C 0.48704 0.26266 0.08523 0.0
C2094 C 0.44111 0.24329 0.05983 0.0
C2095 C 0.48354 0.25209 0.0586 0.0
H2096 H 0.03652 0.32674 0.34472 0.0
H2097 H 0.90668 0.30011 0.33554 0.0
H2098 H 0.92169 0.22535 0.33561 0.0
H2099 H 0.97282 0.16858 0.33561 0.0
H2100 H 0.10371 0.19588 0.34199 0.0
H2101 H 0.08729 0.26994 0.34539 0.0
C2102 C 0.01153 0.30462 0.34261 0.0
C2103 C 0.97077 0.31891 0.33982 0.0
C2104 C 0.02069 0.26206 0.34194 0.0
C2105 C 0.93836 0.28988 0.33773 0.0
C2106 C 0.94697 0.24719 0.33761 0.0
C2107 C 0.99775 0.19086 0.33762 0.0
C2108 C 0.03942 0.17729 0.33827 0.0
C2109 C 0.98821 0.23315 0.33923 0.0
C2110 C 0.07141 0.20595 0.34139 0.0
C2111 C 0.06206 0.24812 0.34331 0.0
H2112 H 0.06615 0.76057 0.55992 0.0
H2113 H 0.07937 0.76241 0.60732 0.0
H2114 H 0.00884 0.73454 0.61013 0.0
H2115 H 0.94234 0.71365 0.59908 0.0
H2116 H 0.92969 0.71054 0.55172 0.0
H2117 H 0.00206 0.73376 0.54888 0.0
C2118 C 0.05377 0.75437 0.57086 0.0
C2119 C 0.07749 0.76412 0.58338 0.0
C2120 C 0.01368 0.73781 0.57238 0.0
C2121 C 0.06112 0.75623 0.59751 0.0
C2122 C 0.02106 0.73986 0.59913 0.0
C2123 C 0.95585 0.71705 0.58816 0.0
C2124 C 0.93114 0.7106 0.57562 0.0
C2125 C 0.99696 0.73102 0.58664 0.0
C2126 C 0.94845 0.71569 0.5615 0.0
C2127 C 0.98958 0.72905 0.55988 0.0
H2128 H 0.49659 0.82057 0.81668 0.0
H2129 H 0.45961 0.81579 0.86245 0.0
H2130 H 0.46986 0.73993 0.86269 0.0
H2131 H 0.49066 0.67586 0.84993 0.0
H2132 H 0.53043 0.68144 0.80444 0.0
H2133 H 0.5171 0.75663 0.80394 0.0
C2134 C 0.49118 0.80286 0.82673 0.0
C2135 C 0.47778 0.82328 0.83955 0.0
C2136 C 0.49726 0.75974 0.82678 0.0
C2137 C 0.46987 0.80031 0.85245 0.0
C2138 C 0.47578 0.75717 0.8526 0.0
C2139 C 0.49657 0.69366 0.83995 0.0
C2140 C 0.51165 0.67353 0.82728 0.0
C2141 C 0.48964 0.73669 0.83983 0.0
C2142 C 0.51842 0.69646 0.81428 0.0
C2143 C 0.51116 0.73935 0.81402 0.0
H2144 H 0.57663 0.79193 0.42377 0.0
H2145 H 0.55321 0.66177 0.43367 0.0
H2146 H 0.47835 0.67547 0.43467 0.0
H2147 H 0.42091 0.72549 0.43539 0.0
H2148 H 0.4452 0.85695 0.42861 0.0
H2149 H 0.51893 0.84177 0.42394 0.0
C2150 C 0.55518 0.7666 0.42624 0.0
C2151 C 0.5704 0.72613 0.42891 0.0
C2152 C 0.51261 0.77503 0.42757 0.0
C2153 C 0.54221 0.69323 0.43152 0.0
C2154 C 0.49949 0.70109 0.43226 0.0
C2155 C 0.44247 0.75086 0.43306 0.0
C2156 C 0.42814 0.79228 0.43263 0.0
C2157 C 0.48462 0.74207 0.43079 0.0
C2158 C 0.45583 0.8248 0.42905 0.0
C2159 C 0.49784 0.81617 0.42641 0.0
H2160 H 0.48219 0.18632 0.70741 0.0
H2161 H 0.48658 0.18431 0.65985 0.0
H2162 H 0.50861 0.25767 0.65952 0.0
H2163 H 0.52876 0.32094 0.67296 0.0
H2164 H 0.52647 0.32159 0.72057 0.0
H2165 H 0.50171 0.24928 0.72076 0.0
C2166 C 0.48805 0.20208 0.69699 0.0
C2167 C 0.48323 0.18045 0.6837 0.0
C2168 C 0.50141 0.24342 0.69694 0.0
C2169 C 0.48997 0.20087 0.6702 0.0
C2170 C 0.50286 0.24247 0.67003 0.0
C2171 C 0.52346 0.30491 0.68336 0.0
C2172 C 0.5299 0.32584 0.69675 0.0
C2173 C 0.50925 0.26374 0.68335 0.0
C2174 C 0.52181 0.3056 0.71018 0.0
C2175 C 0.50765 0.26453 0.71028 0.0
H2176 H 0.92315 0.2191 0.9383 0.0
H2177 H 0.9522 0.35104 0.93735 0.0
H2178 H 0.02676 0.33479 0.93634 0.0
H2179 H 0.08274 0.28337 0.93658 0.0
H2180 H 0.0538 0.15183 0.94059 0.0
H2181 H 0.9792 0.16779 0.93951 0.0
C2182 C 0.94579 0.24435 0.93814 0.0
C2183 C 0.93246 0.28615 0.9381 0.0
C2184 C 0.9882 0.23488 0.93808 0.0
C2185 C 0.96193 0.31859 0.93733 0.0
C2186 C 0.0044 0.30935 0.93684 0.0
C2187 C 0.06015 0.2582 0.9375 0.0
C2188 C 0.07353 0.21658 0.93887 0.0
C2189 C 0.01774 0.26765 0.93739 0.0
C2190 C 0.04405 0.18413 0.93948 0.0
C2191 C 0.00155 0.19322 0.93895 0.0
H2192 H 0.00737 0.68032 0.20588 0.0
H2193 H 0.03226 0.67576 0.15902 0.0
H2194 H 0.04715 0.75059 0.15902 0.0
H2195 H 0.04921 0.81719 0.17217 0.0
H2196 H 0.03046 0.81986 0.21938 0.0
H2197 H 0.01764 0.74467 0.21941 0.0
C2198 C 0.01733 0.69515 0.19571 0.0
C2199 C 0.01859 0.67242 0.18247 0.0
C2200 C 0.02671 0.73762 0.19585 0.0
C2201 C 0.03032 0.69269 0.16933 0.0
C2202 C 0.03908 0.73536 0.16933 0.0
C2203 C 0.04335 0.80122 0.18253 0.0
C2204 C 0.04056 0.82394 0.19576 0.0
C2205 C 0.03679 0.75813 0.18251 0.0
C2206 C 0.03203 0.80301 0.20904 0.0
C2207 C 0.02495 0.76012 0.20907 0.0
H2208 H 0.44323 0.66287 0.93203 0.0
H2209 H 0.40276 0.79121 0.92865 0.0
H2210 H 0.47509 0.8142 0.92559 0.0
H2211 H 0.54944 0.79808 0.92553 0.0
H2212 H 0.59116 0.67062 0.93049 0.0
H2213 H 0.5184 0.64645 0.93117 0.0
C2214 C 0.45054 0.69573 0.93049 0.0
C2215 C 0.41847 0.72549 0.93065 0.0
C2216 C 0.49203 0.70865 0.92903 0.0
C2217 C 0.42754 0.76806 0.92872 0.0
C2218 C 0.46863 0.78112 0.92693 0.0
C2219 C 0.54242 0.76495 0.92647 0.0
C2220 C 0.57491 0.73596 0.92785 0.0
C2221 C 0.50105 0.75173 0.92727 0.0
C2222 C 0.56609 0.69322 0.9294 0.0
C2223 C 0.52474 0.67953 0.92981 0.0
H2224 H 0.96912 0.67496 0.68219 0.0
H2225 H 0.10054 0.70328 0.68653 0.0
H2226 H 0.08465 0.77805 0.68683 0.0
H2227 H 0.03312 0.83422 0.68768 0.0
H2228 H 0.90141 0.8056 0.68534 0.0
H2229 H 0.91767 0.73121 0.68254 0.0
C2230 C 0.99423 0.69753 0.68332 0.0
C2231 C 0.03578 0.68398 0.68461 0.0
C2232 C 0.98479 0.73995 0.68397 0.0
C2233 C 0.0683 0.71328 0.68554 0.0
C2234 C 0.05922 0.75583 0.68582 0.0
C2235 C 0.00801 0.81156 0.68673 0.0
C2236 C 0.96622 0.82476 0.68703 0.0
C2237 C 0.01754 0.7693 0.68539 0.0
C2238 C 0.93382 0.79569 0.68524 0.0
C2239 C 0.94308 0.7534 0.68366 0.0
H2240 H 0.95092 0.18562 0.42823 0.0
H2241 H 0.90893 0.31345 0.42402 0.0
H2242 H 0.9813 0.33698 0.42149 0.0
H2243 H 0.05599 0.32147 0.42364 0.0
H2244 H 0.09709 0.19329 0.42758 0.0
H2245 H 0.02481 0.16924 0.42672 0.0
C2246 C 0.95751 0.2185 0.42638 0.0
C2247 C 0.92509 0.24791 0.42656 0.0
C2248 C 0.99872 0.23162 0.42497 0.0
C2249 C 0.93383 0.29047 0.42428 0.0
C2250 C 0.975 0.30386 0.42275 0.0
C2251 C 0.04906 0.28826 0.42392 0.0
C2252 C 0.08124 0.25915 0.42597 0.0
C2253 C 0.00767 0.27478 0.42357 0.0
C2254 C 0.07232 0.21617 0.42635 0.0
C2255 C 0.03121 0.20244 0.42583 0.0
H2256 H 0.52496 0.18673 0.2065 0.0
H2257 H 0.50976 0.18337 0.15924 0.0
H2258 H 0.49121 0.25765 0.15911 0.0
H2259 H 0.47676 0.32214 0.17267 0.0
H2260 H 0.49007 0.32481 0.22003 0.0
H2261 H 0.51222 0.25159 0.21996 0.0
C2262 C 0.51755 0.20243 0.1962 0.0
C2263 C 0.51832 0.18013 0.18293 0.0
C2264 C 0.50648 0.24454 0.19627 0.0
C2265 C 0.50949 0.20042 0.16956 0.0
C2266 C 0.49866 0.24259 0.1695 0.0
C2267 C 0.48406 0.30645 0.18297 0.0
C2268 C 0.48125 0.32818 0.19636 0.0
C2269 C 0.4965 0.26469 0.18283 0.0
C2270 C 0.49195 0.30828 0.20963 0.0
C2271 C 0.5045 0.26662 0.20959 0.0
H2272 H 0.55998 0.22276 0.60015 0.0
H2273 H 0.57161 0.22021 0.55272 0.0
H2274 H 0.49891 0.2423 0.55016 0.0
H2275 H 0.43319 0.26421 0.56139 0.0
H2276 H 0.42064 0.26555 0.60879 0.0
H2277 H 0.49305 0.24219 0.61143 0.0
C2278 C 0.54626 0.22625 0.58928 0.0
C2279 C 0.57072 0.21979 0.57664 0.0
C2280 C 0.50471 0.23914 0.5879 0.0
C2281 C 0.55312 0.22524 0.56258 0.0
C2282 C 0.51172 0.23785 0.56111 0.0
C2283 C 0.44627 0.25899 0.57228 0.0
C2284 C 0.422 0.26657 0.58487 0.0
C2285 C 0.48744 0.24524 0.57369 0.0
C2286 C 0.4392 0.2604 0.59895 0.0
C2287 C 0.48035 0.24677 0.60046 0.0
H2288 H 0.54752 0.81242 0.33942 0.0
H2289 H 0.4193 0.84782 0.33173 0.0
H2290 H 0.39857 0.77391 0.33151 0.0
H2291 H 0.41816 0.69977 0.33253 0.0
H2292 H 0.54713 0.66537 0.33969 0.0
H2293 H 0.5668 0.73896 0.34098 0.0
C2294 C 0.51498 0.80378 0.33791 0.0
C2295 C 0.48473 0.83474 0.33574 0.0
C2296 C 0.50373 0.76182 0.33755 0.0
C2297 C 0.4428 0.82388 0.33344 0.0
C2298 C 0.43109 0.78192 0.33331 0.0
C2299 C 0.45041 0.70857 0.33455 0.0
C2300 C 0.48123 0.67771 0.33598 0.0
C2301 C 0.46142 0.7507 0.33523 0.0
C2302 C 0.52308 0.68898 0.33839 0.0
C2303 C 0.53428 0.73085 0.3392 0.0
H2304 H 0.06639 0.70177 0.06132 0.0
H2305 H 0.08742 0.72418 0.10764 0.0
H2306 H 0.01297 0.73828 0.11125 0.0
H2307 H 0.94283 0.74539 0.10101 0.0
H2308 H 0.92334 0.72875 0.05421 0.0
H2309 H 0.99655 0.70999 0.05104 0.0
C2310 C 0.05453 0.70984 0.07217 0.0
C2311 C 0.08173 0.71189 0.0842 0.0
C2312 C 0.01223 0.71842 0.07408 0.0
C2313 C 0.06649 0.72194 0.09828 0.0
C2314 C 0.02417 0.73016 0.10033 0.0
C2315 C 0.95467 0.73797 0.0901 0.0
C2316 C 0.92789 0.73842 0.07787 0.0
C2317 C 0.99689 0.72866 0.08827 0.0
C2318 C 0.94332 0.7279 0.06385 0.0
C2319 C 0.98518 0.71762 0.06198 0.0
H2320 H 0.97031 0.33132 0.82569 0.0
H2321 H 0.098 0.29809 0.81545 0.0
H2322 H 0.08023 0.22396 0.81717 0.0
H2323 H 0.02838 0.16931 0.8212 0.0
H2324 H 0.89996 0.20219 0.83023 0.0
H2325 H 0.91817 0.27649 0.82943 0.0
C2326 C 0.99405 0.30784 0.82353 0.0
C2327 C 0.03518 0.31992 0.8202 0.0
C2328 C 0.98356 0.26558 0.82438 0.0
C2329 C 0.06606 0.28933 0.81798 0.0
C2330 C 0.05594 0.24709 0.81894 0.0
C2331 C 0.00425 0.19277 0.82276 0.0
C2332 C 0.9628 0.18065 0.8255 0.0
C2333 C 0.01477 0.23499 0.82204 0.0
C2334 C 0.93206 0.2111 0.82805 0.0
C2335 C 0.9424 0.25339 0.82754 0.0
loop_
_geom_bond_atom_site_label_1
_geom_bond_atom_site_label_2
_geom_bond_distance
_geom_bond_site_symmetry_2
_ccdc_geom_bond_type
C0 C1 1.351 . S
C0 N3 1.368 . S
C0 H5 0.931 . S
C1 C0 1.351 . S
C1 N2 1.373 . S
C1 H29 0.930 . S
N2 C1 1.373 . S
N2 C4 1.340 . S
N3 C0 1.368 . S
N3 C4 1.321 . S
N3 Co6 2.135 . S
C4 N2 1.340 . S
C4 N3 1.321 . S
C4 H28 0.930 . S
H5 C0 0.931 . S
Co6 N3 2.135 . S
Co6 N9 2.121 . S
Co6 O14 2.055 . S
Co6 O17 2.039 . S
Co6 N20 2.140 . S
C7 O8 1.227 . S
C7 O17 1.265 . S
O8 C7 1.227 . S
N9 Co6 2.121 . S
N9 C11 1.375 . S
N9 C12 1.313 . S
C10 C11 1.338 . S
C10 N13 1.377 . S
C10 H30 0.930 . S
C11 N9 1.375 . S
C11 C10 1.338 . S
C11 H15 0.931 . S
C12 N9 1.313 . S
C12 N13 1.344 . S
C12 H16 0.930 . S
N13 C10 1.377 . S
N13 C12 1.344 . S
O14 Co6 2.055 . S
O14 C18 1.253 . S
H15 C11 0.931 . S
H16 C12 0.930 . S
O17 Co6 2.039 . S
O17 C7 1.265 . S
C18 O14 1.253 . S
C18 O19 1.227 . S
O19 C18 1.227 . S
N20 Co6 2.140 . S
N20 C23 1.346 . S
N20 C24 1.345 . S
C21 C22 1.387 . S
C21 C25 1.391 . S
C22 C21 1.387 . S
C22 C23 1.369 . S
C22 H31 0.929 . S
C23 N20 1.346 . S
C23 C22 1.369 . S
C23 H26 0.928 . S
C24 N20 1.345 . S
C24 C25 1.371 . S
C24 H27 0.931 . S
C25 C21 1.391 . S
C25 C24 1.371 . S
C25 H32 0.930 . S
H26 C23 0.928 . S
H27 C24 0.931 . S
H28 C4 0.930 . S
H29 C1 0.930 . S
H30 C10 0.930 . S
H31 C22 0.929 . S
H32 C25 0.930 . S
C33 C34 1.351 . S
C33 N36 1.368 . S
C33 H38 0.931 . S
C34 C33 1.351 . S
C34 N35 1.373 . S
C34 H62 0.930 . S
N35 C34 1.373 . S
N35 C37 1.340 . S
N36 C33 1.368 . S
N36 C37 1.321 . S
N36 Co39 2.135 1_655 S
C37 N35 1.340 . S
C37 N36 1.321 . S
C37 H61 0.930 . S
H38 C33 0.931 . S
Co39 N36 2.135 1_455 S
Co39 N42 2.121 1_565 S
Co39 O47 2.055 . S
Co39 O50 2.039 . S
Co39 N53 2.140 1_565 S
C40 O41 1.227 1_565 S
C40 O50 1.265 . S
O41 C40 1.227 1_545 S
N42 Co39 2.121 1_545 S
N42 C44 1.375 . S
N42 C45 1.313 1_545 S
C43 C44 1.338 . S
C43 N46 1.377 . S
C43 H63 0.930 . S
C44 N42 1.375 . S
C44 C43 1.338 . S
C44 H48 0.931 . S
C45 N42 1.313 1_565 S
C45 N46 1.344 1_565 S
C45 H49 0.930 . S
N46 C43 1.377 . S
N46 C45 1.344 1_545 S
O47 Co39 2.055 . S
O47 C51 1.253 . S
H48 C44 0.931 . S
H49 C45 0.930 . S
O50 Co39 2.039 . S
O50 C40 1.265 . S
C51 O47 1.253 . S
C51 O52 1.227 . S
O52 C51 1.227 . S
N53 Co39 2.140 1_545 S
N53 C56 1.346 . S
N53 C57 1.345 . S
C54 C55 1.387 1_455 S
C54 C58 1.391 . S
C55 C54 1.387 1_655 S
C55 C56 1.369 1_655 S
C55 H64 0.929 . S
C56 N53 1.346 . S
C56 C55 1.369 1_455 S
C56 H59 0.928 1_455 S
C57 N53 1.345 . S
C57 C58 1.371 . S
C57 H60 0.931 . S
C58 C54 1.391 . S
C58 C57 1.371 . S
C58 H65 0.930 . S
H59 C56 0.928 1_655 S
H60 C57 0.931 . S
H61 C37 0.930 . S
H62 C34 0.930 . S
H63 C43 0.930 . S
H64 C55 0.929 . S
H65 C58 0.930 . S
C66 C67 1.351 . S
C66 N69 1.368 . S
C66 H71 0.931 . S
C67 C66 1.351 . S
C67 N68 1.373 . S
C67 H95 0.930 . S
N68 C67 1.373 . S
N68 C70 1.340 . S
N69 C66 1.368 . S
N69 C70 1.321 . S
N69 Co72 2.135 . S
C70 N68 1.340 . S
C70 N69 1.321 . S
C70 H94 0.930 . S
H71 C66 0.931 . S
Co72 N69 2.135 . S
Co72 N75 2.121 . S
Co72 O80 2.055 . S
Co72 O83 2.039 . S
Co72 N86 2.140 . S
C73 O74 1.227 . S
C73 O83 1.265 . S
O74 C73 1.227 . S
N75 Co72 2.121 . S
N75 C77 1.375 . S
N75 C78 1.313 . S
C76 C77 1.338 . S
C76 N79 1.377 . S
C76 H96 0.930 . S
C77 N75 1.375 . S
C77 C76 1.338 . S
C77 H81 0.931 . S
C78 N75 1.313 . S
C78 N79 1.344 . S
C78 H82 0.930 . S
N79 C76 1.377 . S
N79 C78 1.344 . S
O80 Co72 2.055 . S
O80 C84 1.253 . S
H81 C77 0.931 . S
H82 C78 0.930 . S
O83 Co72 2.039 . S
O83 C73 1.265 . S
C84 O80 1.253 . S
C84 O85 1.227 . S
O85 C84 1.227 . S
N86 Co72 2.140 . S
N86 C89 1.346 . S
N86 C90 1.345 . S
C87 C88 1.387 . S
C87 C91 1.391 . S
C88 C87 1.387 . S
C88 C89 1.369 . S
C88 H97 0.929 . S
C89 N86 1.346 . S
C89 C88 1.369 . S
C89 H92 0.928 . S
C90 N86 1.345 . S
C90 C91 1.371 . S
C90 H93 0.931 . S
C91 C87 1.391 . S
C91 C90 1.371 . S
C91 H98 0.930 . S
H92 C89 0.928 . S
H93 C90 0.931 . S
H94 C70 0.930 . S
H95 C67 0.930 . S
H96 C76 0.930 . S
H97 C88 0.929 . S
H98 C91 0.930 . S
C99 C100 1.351 . S
C99 N102 1.368 . S
C99 H104 0.931 . S
C100 C99 1.351 . S
C100 N101 1.373 . S
C100 H128 0.930 . S
N101 C100 1.373 . S
N101 C103 1.340 . S
N102 C99 1.368 . S
N102 C103 1.321 . S
N102 Co105 2.135 . S
C103 N101 1.340 . S
C103 N102 1.321 . S
C103 H127 0.930 . S
H104 C99 0.931 . S
Co105 N102 2.135 . S
Co105 N108 2.121 1_545 S
Co105 O113 2.055 . S
Co105 O116 2.039 . S
Co105 N119 2.140 1_545 S
C106 O107 1.227 1_545 S
C106 O116 1.265 . S
O107 C106 1.227 1_565 S
N108 Co105 2.121 1_565 S
N108 C110 1.375 . S
N108 C111 1.313 1_565 S
C109 C110 1.338 . S
C109 N112 1.377 . S
C109 H129 0.930 . S
C110 N108 1.375 . S
C110 C109 1.338 . S
C110 H114 0.931 . S
C111 N108 1.313 1_545 S
C111 N112 1.344 1_545 S
C111 H115 0.930 . S
N112 C109 1.377 . S
N112 C111 1.344 1_565 S
O113 Co105 2.055 . S
O113 C117 1.253 . S
H114 C110 0.931 . S
H115 C111 0.930 . S
O116 Co105 2.039 . S
O116 C106 1.265 . S
C117 O113 1.253 . S
C117 O118 1.227 . S
O118 C117 1.227 . S
N119 Co105 2.140 1_565 S
N119 C122 1.346 . S
N119 C123 1.345 . S
C120 C121 1.387 . S
C120 C124 1.391 . S
C121 C120 1.387 . S
C121 C122 1.369 . S
C121 H130 0.929 . S
C122 N119 1.346 . S
C122 C121 1.369 . S
C122 H125 0.928 . S
C123 N119 1.345 . S
C123 C124 1.371 . S
C123 H126 0.931 . S
C124 C120 1.391 . S
C124 C123 1.371 . S
C124 H131 0.930 . S
H125 C122 0.928 . S
H126 C123 0.931 . S
H127 C103 0.930 . S
H128 C100 0.930 . S
H129 C109 0.930 . S
H130 C121 0.929 . S
H131 C124 0.930 . S
C132 C133 1.351 . S
C132 N135 1.368 . S
C132 H137 0.931 . S
C133 C132 1.351 . S
C133 N134 1.373 . S
C133 H161 0.930 . S
N134 C133 1.373 . S
N134 C136 1.340 . S
N135 C132 1.368 . S
N135 C136 1.321 . S
N135 Co138 2.135 . S
C136 N134 1.340 . S
C136 N135 1.321 . S
C136 H160 0.930 . S
H137 C132 0.931 . S
Co138 N135 2.135 . S
Co138 N141 2.121 . S
Co138 O146 2.055 . S
Co138 O149 2.039 . S
Co138 N152 2.140 . S
C139 O140 1.227 . S
C139 O149 1.265 . S
O140 C139 1.227 . S
N141 Co138 2.121 . S
N141 C143 1.375 . S
N141 C144 1.313 . S
C142 C143 1.338 . S
C142 N145 1.377 . S
C142 H162 0.930 . S
C143 N141 1.375 . S
C143 C142 1.338 . S
C143 H147 0.931 . S
C144 N141 1.313 . S
C144 N145 1.344 . S
C144 H148 0.930 . S
N145 C142 1.377 . S
N145 C144 1.344 . S
O146 Co138 2.055 . S
O146 C150 1.253 . S
H147 C143 0.931 . S
H148 C144 0.930 . S
O149 Co138 2.039 . S
O149 C139 1.265 . S
C150 O146 1.253 . S
C150 O151 1.227 . S
O151 C150 1.227 . S
N152 Co138 2.140 . S
N152 C155 1.346 . S
N152 C156 1.345 . S
C153 C154 1.387 . S
C153 C157 1.391 . S
C154 C153 1.387 . S
C154 C155 1.369 . S
C154 H163 0.929 . S
C155 N152 1.346 . S
C155 C154 1.369 . S
C155 H158 0.928 . S
C156 N152 1.345 . S
C156 C157 1.371 . S
C156 H159 0.931 . S
C157 C153 1.391 . S
C157 C156 1.371 . S
C157 H164 0.930 . S
H158 C155 0.928 . S
H159 C156 0.931 . S
H160 C136 0.930 . S
H161 C133 0.930 . S
H162 C142 0.930 . S
H163 C154 0.929 . S
H164 C157 0.930 . S
C165 C166 1.351 . S
C165 N168 1.368 . S
C165 H170 0.931 . S
C166 C165 1.351 . S
C166 N167 1.373 . S
C166 H194 0.930 . S
N167 C166 1.373 . S
N167 C169 1.340 . S
N168 C165 1.368 . S
N168 C169 1.321 . S
N168 Co171 2.135 . S
C169 N167 1.340 . S
C169 N168 1.321 . S
C169 H193 0.930 . S
H170 C165 0.931 . S
Co171 N168 2.135 . S
Co171 N174 2.121 1_565 S
Co171 O179 2.055 . S
Co171 O182 2.039 . S
Co171 N185 2.140 1_565 S
C172 O173 1.227 1_565 S
C172 O182 1.265 . S
O173 C172 1.227 1_545 S
N174 Co171 2.121 1_545 S
N174 C176 1.375 . S
N174 C177 1.313 1_545 S
C175 C176 1.338 . S
C175 N178 1.377 . S
C175 H195 0.930 . S
C176 N174 1.375 . S
C176 C175 1.338 . S
C176 H180 0.931 . S
C177 N174 1.313 1_565 S
C177 N178 1.344 1_565 S
C177 H181 0.930 . S
N178 C175 1.377 . S
N178 C177 1.344 1_545 S
O179 Co171 2.055 . S
O179 C183 1.253 . S
H180 C176 0.931 . S
H181 C177 0.930 . S
O182 Co171 2.039 . S
O182 C172 1.265 . S
C183 O179 1.253 . S
C183 O184 1.227 . S
O184 C183 1.227 . S
N185 Co171 2.140 1_545 S
N185 C188 1.346 . S
N185 C189 1.345 . S
C186 C187 1.387 . S
C186 C190 1.391 . S
C187 C186 1.387 . S
C187 C188 1.369 . S
C187 H196 0.929 . S
C188 N185 1.346 . S
C188 C187 1.369 . S
C188 H191 0.928 . S
C189 N185 1.345 . S
C189 C190 1.371 . S
C189 H192 0.931 . S
C190 C186 1.391 . S
C190 C189 1.371 . S
C190 H197 0.930 . S
H191 C188 0.928 . S
H192 C189 0.931 . S
H193 C169 0.930 . S
H194 C166 0.930 . S
H195 C175 0.930 . S
H196 C187 0.929 . S
H197 C190 0.930 . S
C198 C199 1.351 . S
C198 N201 1.368 . S
C198 H203 0.931 . S
C199 C198 1.351 . S
C199 N200 1.373 . S
C199 H227 0.930 . S
N200 C199 1.373 . S
N200 C202 1.340 . S
N201 C198 1.368 . S
N201 C202 1.321 . S
N201 Co204 2.135 . S
C202 N200 1.340 . S
C202 N201 1.321 . S
C202 H226 0.930 . S
H203 C198 0.931 . S
Co204 N201 2.135 . S
Co204 N207 2.121 . S
Co204 O212 2.055 . S
Co204 O215 2.039 . S
Co204 N218 2.140 . S
C205 O206 1.227 . S
C205 O215 1.265 . S
O206 C205 1.227 . S
N207 Co204 2.121 . S
N207 C209 1.375 . S
N207 C210 1.313 . S
C208 C209 1.338 . S
C208 N211 1.377 . S
C208 H228 0.930 . S
C209 N207 1.375 . S
C209 C208 1.338 . S
C209 H213 0.931 . S
C210 N207 1.313 . S
C210 N211 1.344 . S
C210 H214 0.930 . S
N211 C208 1.377 . S
N211 C210 1.344 . S
O212 Co204 2.055 . S
O212 C216 1.253 . S
H213 C209 0.931 . S
H214 C210 0.930 . S
O215 Co204 2.039 . S
O215 C205 1.265 . S
C216 O212 1.253 . S
C216 O217 1.227 . S
O217 C216 1.227 . S
N218 Co204 2.140 . S
N218 C221 1.346 . S
N218 C222 1.345 . S
C219 C220 1.387 . S
C219 C223 1.391 . S
C220 C219 1.387 . S
C220 C221 1.369 . S
C220 H229 0.929 . S
C221 N218 1.346 . S
C221 C220 1.369 . S
C221 H224 0.928 . S
C222 N218 1.345 . S
C222 C223 1.371 . S
C222 H225 0.931 . S
C223 C219 1.391 . S
C223 C222 1.371 . S
C223 H230 0.930 . S
H224 C221 0.928 . S
H225 C222 0.931 . S
H226 C202 0.930 . S
H227 C199 0.930 . S
H228 C208 0.930 . S
H229 C220 0.929 . S
H230 C223 0.930 . S
C231 C232 1.351 . S
C231 N234 1.368 . S
C231 H236 0.931 . S
C232 C231 1.351 . S
C232 N233 1.373 . S
C232 H260 0.930 . S
N233 C232 1.373 . S
N233 C235 1.340 . S
N234 C231 1.368 . S
N234 C235 1.321 . S
N234 Co237 2.135 1_655 S
C235 N233 1.340 . S
C235 N234 1.321 . S
C235 H259 0.930 . S
H236 C231 0.931 . S
Co237 N234 2.135 1_455 S
Co237 N240 2.121 1_545 S
Co237 O245 2.055 . S
Co237 O248 2.039 . S
Co237 N251 2.140 1_545 S
C238 O239 1.227 1_545 S
C238 O248 1.265 . S
O239 C238 1.227 1_565 S
N240 Co237 2.121 1_565 S
N240 C242 1.375 . S
N240 C243 1.313 1_565 S
C241 C242 1.338 . S
C241 N244 1.377 . S
C241 H261 0.930 . S
C242 N240 1.375 . S
C242 C241 1.338 . S
C242 H246 0.931 . S
C243 N240 1.313 1_545 S
C243 N244 1.344 1_545 S
C243 H247 0.930 . S
N244 C241 1.377 . S
N244 C243 1.344 1_565 S
O245 Co237 2.055 . S
O245 C249 1.253 . S
H246 C242 0.931 . S
H247 C243 0.930 . S
O248 Co237 2.039 . S
O248 C238 1.265 . S
C249 O245 1.253 . S
C249 O250 1.227 . S
O250 C249 1.227 . S
N251 Co237 2.140 1_565 S
N251 C254 1.346 . S
N251 C255 1.345 . S
C252 C253 1.387 1_455 S
C252 C256 1.391 . S
C253 C252 1.387 1_655 S
C253 C254 1.369 1_655 S
C253 H262 0.929 . S
C254 N251 1.346 . S
C254 C253 1.369 1_455 S
C254 H257 0.928 1_455 S
C255 N251 1.345 . S
C255 C256 1.371 . S
C255 H258 0.931 . S
C256 C252 1.391 . S
C256 C255 1.371 . S
C256 H263 0.930 . S
H257 C254 0.928 1_655 S
H258 C255 0.931 . S
H259 C235 0.930 . S
H260 C232 0.930 . S
H261 C241 0.930 . S
H262 C253 0.929 . S
H263 C256 0.930 . S
C264 C265 1.351 . S
C264 N267 1.368 . S
C264 H269 0.931 . S
C265 C264 1.351 . S
C265 N266 1.373 . S
C265 H293 0.930 . S
N266 C265 1.373 . S
N266 C268 1.340 . S
N267 C264 1.368 . S
N267 C268 1.321 . S
N267 Co270 2.135 . S
C268 N266 1.340 . S
C268 N267 1.321 . S
C268 H292 0.930 . S
H269 C264 0.931 . S
Co270 N267 2.135 . S
Co270 N273 2.121 . S
Co270 O278 2.055 . S
Co270 O281 2.039 . S
Co270 N284 2.140 . S
C271 O272 1.227 . S
C271 O281 1.265 . S
O272 C271 1.227 . S
N273 Co270 2.121 . S
N273 C275 1.375 . S
N273 C276 1.313 . S
C274 C275 1.338 . S
C274 N277 1.377 . S
C274 H294 0.930 . S
C275 N273 1.375 . S
C275 C274 1.338 . S
C275 H279 0.931 . S
C276 N273 1.313 . S
C276 N277 1.344 . S
C276 H280 0.930 . S
N277 C274 1.377 . S
N277 C276 1.344 . S
O278 Co270 2.055 . S
O278 C282 1.253 . S
H279 C275 0.931 . S
H280 C276 0.930 . S
O281 Co270 2.039 . S
O281 C271 1.265 . S
C282 O278 1.253 . S
C282 O283 1.227 . S
O283 C282 1.227 . S
N284 Co270 2.140 . S
N284 C287 1.346 . S
N284 C288 1.345 . S
C285 C286 1.387 . S
C285 C289 1.391 . S
C286 C285 1.387 . S
C286 C287 1.369 . S
C286 H295 0.929 . S
C287 N284 1.346 . S
C287 C286 1.369 . S
C287 H290 0.928 . S
C288 N284 1.345 . S
C288 C289 1.371 . S
C288 H291 0.931 . S
C289 C285 1.391 . S
C289 C288 1.371 . S
C289 H296 0.930 . S
H290 C287 0.928 . S
H291 C288 0.931 . S
H292 C268 0.930 . S
H293 C265 0.930 . S
H294 C274 0.930 . S
H295 C286 0.929 . S
H296 C289 0.930 . S
C297 C298 1.351 . S
C297 N300 1.368 . S
C297 H302 0.931 . S
C298 C297 1.351 . S
C298 N299 1.373 . S
C298 H326 0.930 . S
N299 C298 1.373 . S
N299 C301 1.340 . S
N300 C297 1.368 . S
N300 C301 1.321 . S
N300 Co303 2.135 1_455 S
C301 N299 1.340 . S
C301 N300 1.321 . S
C301 H325 0.930 . S
H302 C297 0.931 . S
Co303 N300 2.135 1_655 S
Co303 N306 2.121 1_545 S
Co303 O311 2.055 . S
Co303 O314 2.039 . S
Co303 N317 2.140 1_545 S
C304 O305 1.227 1_545 S
C304 O314 1.265 . S
O305 C304 1.227 1_565 S
N306 Co303 2.121 1_565 S
N306 C308 1.375 . S
N306 C309 1.313 1_565 S
C307 C308 1.338 . S
C307 N310 1.377 . S
C307 H327 0.930 . S
C308 N306 1.375 . S
C308 C307 1.338 . S
C308 H312 0.931 . S
C309 N306 1.313 1_545 S
C309 N310 1.344 1_545 S
C309 H313 0.930 . S
N310 C307 1.377 . S
N310 C309 1.344 1_565 S
O311 Co303 2.055 . S
O311 C315 1.253 . S
H312 C308 0.931 . S
H313 C309 0.930 . S
O314 Co303 2.039 . S
O314 C304 1.265 . S
C315 O311 1.253 . S
C315 O316 1.227 . S
O316 C315 1.227 . S
N317 Co303 2.140 1_565 S
N317 C320 1.346 . S
N317 C321 1.345 . S
C318 C319 1.387 1_655 S
C318 C322 1.391 . S
C319 C318 1.387 1_455 S
C319 C320 1.369 1_455 S
C319 H328 0.929 . S
C320 N317 1.346 . S
C320 C319 1.369 1_655 S
C320 H323 0.928 1_655 S
C321 N317 1.345 . S
C321 C322 1.371 . S
C321 H324 0.931 . S
C322 C318 1.391 . S
C322 C321 1.371 . S
C322 H329 0.930 . S
H323 C320 0.928 1_455 S
H324 C321 0.931 . S
H325 C301 0.930 . S
H326 C298 0.930 . S
H327 C307 0.930 . S
H328 C319 0.929 . S
H329 C322 0.930 . S
C330 C331 1.351 . S
C330 N333 1.368 . S
C330 H335 0.931 . S
C331 C330 1.351 . S
C331 N332 1.373 . S
C331 H359 0.930 . S
N332 C331 1.373 . S
N332 C334 1.340 . S
N333 C330 1.368 . S
N333 C334 1.321 . S
N333 Co336 2.135 . S
C334 N332 1.340 . S
C334 N333 1.321 . S
C334 H358 0.930 . S
H335 C330 0.931 . S
Co336 N333 2.135 . S
Co336 N339 2.121 . S
Co336 O344 2.055 . S
Co336 O347 2.039 . S
Co336 N350 2.140 . S
C337 O338 1.227 . S
C337 O347 1.265 . S
O338 C337 1.227 . S
N339 Co336 2.121 . S
N339 C341 1.375 . S
N339 C342 1.313 . S
C340 C341 1.338 . S
C340 N343 1.377 . S
C340 H360 0.930 . S
C341 N339 1.375 . S
C341 C340 1.338 . S
C341 H345 0.931 . S
C342 N339 1.313 . S
C342 N343 1.344 . S
C342 H346 0.930 . S
N343 C340 1.377 . S
N343 C342 1.344 . S
O344 Co336 2.055 . S
O344 C348 1.253 . S
H345 C341 0.931 . S
H346 C342 0.930 . S
O347 Co336 2.039 . S
O347 C337 1.265 . S
C348 O344 1.253 . S
C348 O349 1.227 . S
O349 C348 1.227 . S
N350 Co336 2.140 . S
N350 C353 1.346 . S
N350 C354 1.345 . S
C351 C352 1.387 . S
C351 C355 1.391 . S
C352 C351 1.387 . S
C352 C353 1.369 . S
C352 H361 0.929 . S
C353 N350 1.346 . S
C353 C352 1.369 . S
C353 H356 0.928 . S
C354 N350 1.345 . S
C354 C355 1.371 . S
C354 H357 0.931 . S
C355 C351 1.391 . S
C355 C354 1.371 . S
C355 H362 0.930 . S
H356 C353 0.928 . S
H357 C354 0.931 . S
H358 C334 0.930 . S
H359 C331 0.930 . S
H360 C340 0.930 . S
H361 C352 0.929 . S
H362 C355 0.930 . S
C363 C364 1.351 . S
C363 N366 1.368 . S
C363 H368 0.931 . S
C364 C363 1.351 . S
C364 N365 1.373 . S
C364 H392 0.930 . S
N365 C364 1.373 . S
N365 C367 1.340 . S
N366 C363 1.368 . S
N366 C367 1.321 . S
N366 Co369 2.135 . S
C367 N365 1.340 . S
C367 N366 1.321 . S
C367 H391 0.930 . S
H368 C363 0.931 . S
Co369 N366 2.135 . S
Co369 N372 2.121 1_565 S
Co369 O377 2.055 . S
Co369 O380 2.039 . S
Co369 N383 2.140 1_565 S
C370 O371 1.227 1_565 S
C370 O380 1.265 . S
O371 C370 1.227 1_545 S
N372 Co369 2.121 1_545 S
N372 C374 1.375 . S
N372 C375 1.313 1_545 S
C373 C374 1.338 . S
C373 N376 1.377 . S
C373 H393 0.930 . S
C374 N372 1.375 . S
C374 C373 1.338 . S
C374 H378 0.931 . S
C375 N372 1.313 1_565 S
C375 N376 1.344 1_565 S
C375 H379 0.930 . S
N376 C373 1.377 . S
N376 C375 1.344 1_545 S
O377 Co369 2.055 . S
O377 C381 1.253 . S
H378 C374 0.931 . S
H379 C375 0.930 . S
O380 Co369 2.039 . S
O380 C370 1.265 . S
C381 O377 1.253 . S
C381 O382 1.227 . S
O382 C381 1.227 . S
N383 Co369 2.140 1_545 S
N383 C386 1.346 . S
N383 C387 1.345 . S
C384 C385 1.387 . S
C384 C388 1.391 . S
C385 C384 1.387 . S
C385 C386 1.369 . S
C385 H394 0.929 . S
C386 N383 1.346 . S
C386 C385 1.369 . S
C386 H389 0.928 . S
C387 N383 1.345 . S
C387 C388 1.371 . S
C387 H390 0.931 . S
C388 C384 1.391 . S
C388 C387 1.371 . S
C388 H395 0.930 . S
H389 C386 0.928 . S
H390 C387 0.931 . S
H391 C367 0.930 . S
H392 C364 0.930 . S
H393 C373 0.930 . S
H394 C385 0.929 . S
H395 C388 0.930 . S
C396 C397 1.351 . S
C396 N399 1.368 . S
C396 H401 0.931 . S
C397 C396 1.351 . S
C397 N398 1.373 . S
C397 H425 0.930 . S
N398 C397 1.373 . S
N398 C400 1.340 . S
N399 C396 1.368 . S
N399 C400 1.321 . S
N399 Co402 2.135 . S
C400 N398 1.340 . S
C400 N399 1.321 . S
C400 H424 0.930 . S
H401 C396 0.931 . S
Co402 N399 2.135 . S
Co402 N405 2.121 . S
Co402 O410 2.055 . S
Co402 O413 2.039 . S
Co402 N416 2.140 . S
C403 O404 1.227 . S
C403 O413 1.265 . S
O404 C403 1.227 . S
N405 Co402 2.121 . S
N405 C407 1.375 . S
N405 C408 1.313 . S
C406 C407 1.338 . S
C406 N409 1.377 . S
C406 H426 0.930 . S
C407 N405 1.375 . S
C407 C406 1.338 . S
C407 H411 0.931 . S
C408 N405 1.313 . S
C408 N409 1.344 . S
C408 H412 0.930 . S
N409 C406 1.377 . S
N409 C408 1.344 . S
O410 Co402 2.055 . S
O410 C414 1.253 . S
H411 C407 0.931 . S
H412 C408 0.930 . S
O413 Co402 2.039 . S
O413 C403 1.265 . S
C414 O410 1.253 . S
C414 O415 1.227 . S
O415 C414 1.227 . S
N416 Co402 2.140 . S
N416 C419 1.346 . S
N416 C420 1.345 . S
C417 C418 1.387 . S
C417 C421 1.391 . S
C418 C417 1.387 . S
C418 C419 1.369 . S
C418 H427 0.929 . S
C419 N416 1.346 . S
C419 C418 1.369 . S
C419 H422 0.928 . S
C420 N416 1.345 . S
C420 C421 1.371 . S
C420 H423 0.931 . S
C421 C417 1.391 . S
C421 C420 1.371 . S
C421 H428 0.930 . S
H422 C419 0.928 . S
H423 C420 0.931 . S
H424 C400 0.930 . S
H425 C397 0.930 . S
H426 C406 0.930 . S
H427 C418 0.929 . S
H428 C421 0.930 . S
C429 C430 1.351 . S
C429 N432 1.368 . S
C429 H434 0.931 . S
C430 C429 1.351 . S
C430 N431 1.373 . S
C430 H458 0.930 . S
N431 C430 1.373 . S
N431 C433 1.340 . S
N432 C429 1.368 . S
N432 C433 1.321 . S
N432 Co435 2.135 . S
C433 N431 1.340 . S
C433 N432 1.321 . S
C433 H457 0.930 . S
H434 C429 0.931 . S
Co435 N432 2.135 . S
Co435 N438 2.121 1_545 S
Co435 O443 2.055 . S
Co435 O446 2.039 . S
Co435 N449 2.140 1_545 S
C436 O437 1.227 1_545 S
C436 O446 1.265 . S
O437 C436 1.227 1_565 S
N438 Co435 2.121 1_565 S
N438 C440 1.375 . S
N438 C441 1.313 1_565 S
C439 C440 1.338 . S
C439 N442 1.377 . S
C439 H459 0.930 . S
C440 N438 1.375 . S
C440 C439 1.338 . S
C440 H444 0.931 . S
C441 N438 1.313 1_545 S
C441 N442 1.344 1_545 S
C441 H445 0.930 . S
N442 C439 1.377 . S
N442 C441 1.344 1_565 S
O443 Co435 2.055 . S
O443 C447 1.253 . S
H444 C440 0.931 . S
H445 C441 0.930 . S
O446 Co435 2.039 . S
O446 C436 1.265 . S
C447 O443 1.253 . S
C447 O448 1.227 . S
O448 C447 1.227 . S
N449 Co435 2.140 1_565 S
N449 C452 1.346 . S
N449 C453 1.345 . S
C450 C451 1.387 . S
C450 C454 1.391 . S
C451 C450 1.387 . S
C451 C452 1.369 . S
C451 H460 0.929 . S
C452 N449 1.346 . S
C452 C451 1.369 . S
C452 H455 0.928 . S
C453 N449 1.345 . S
C453 C454 1.371 . S
C453 H456 0.931 . S
C454 C450 1.391 . S
C454 C453 1.371 . S
C454 H461 0.930 . S
H455 C452 0.928 . S
H456 C453 0.931 . S
H457 C433 0.930 . S
H458 C430 0.930 . S
H459 C439 0.930 . S
H460 C451 0.929 . S
H461 C454 0.930 . S
C462 C463 1.351 . S
C462 N465 1.368 . S
C462 H467 0.931 . S
C463 C462 1.351 . S
C463 N464 1.373 . S
C463 H491 0.930 . S
N464 C463 1.373 . S
N464 C466 1.340 . S
N465 C462 1.368 . S
N465 C466 1.321 . S
N465 Co468 2.135 . S
C466 N464 1.340 . S
C466 N465 1.321 . S
C466 H490 0.930 . S
H467 C462 0.931 . S
Co468 N465 2.135 . S
Co468 N471 2.121 . S
Co468 O476 2.055 . S
Co468 O479 2.039 . S
Co468 N482 2.140 . S
C469 O470 1.227 . S
C469 O479 1.265 . S
O470 C469 1.227 . S
N471 Co468 2.121 . S
N471 C473 1.375 . S
N471 C474 1.313 . S
C472 C473 1.338 . S
C472 N475 1.377 . S
C472 H492 0.930 . S
C473 N471 1.375 . S
C473 C472 1.338 . S
C473 H477 0.931 . S
C474 N471 1.313 . S
C474 N475 1.344 . S
C474 H478 0.930 . S
N475 C472 1.377 . S
N475 C474 1.344 . S
O476 Co468 2.055 . S
O476 C480 1.253 . S
H477 C473 0.931 . S
H478 C474 0.930 . S
O479 Co468 2.039 . S
O479 C469 1.265 . S
C480 O476 1.253 . S
C480 O481 1.227 . S
O481 C480 1.227 . S
N482 Co468 2.140 . S
N482 C485 1.346 . S
N482 C486 1.345 . S
C483 C484 1.387 . S
C483 C487 1.391 . S
C484 C483 1.387 . S
C484 C485 1.369 . S
C484 H493 0.929 . S
C485 N482 1.346 . S
C485 C484 1.369 . S
C485 H488 0.928 . S
C486 N482 1.345 . S
C486 C487 1.371 . S
C486 H489 0.931 . S
C487 C483 1.391 . S
C487 C486 1.371 . S
C487 H494 0.930 . S
H488 C485 0.928 . S
H489 C486 0.931 . S
H490 C466 0.930 . S
H491 C463 0.930 . S
H492 C472 0.930 . S
H493 C484 0.929 . S
H494 C487 0.930 . S
C495 C496 1.351 . S
C495 N498 1.368 . S
C495 H500 0.931 . S
C496 C495 1.351 . S
C496 N497 1.373 . S
C496 H524 0.930 . S
N497 C496 1.373 . S
N497 C499 1.340 . S
N498 C495 1.368 . S
N498 C499 1.321 . S
N498 Co501 2.135 1_455 S
C499 N497 1.340 . S
C499 N498 1.321 . S
C499 H523 0.930 . S
H500 C495 0.931 . S
Co501 N498 2.135 1_655 S
Co501 N504 2.121 1_565 S
Co501 O509 2.055 . S
Co501 O512 2.039 . S
Co501 N515 2.140 1_565 S
C502 O503 1.227 1_565 S
C502 O512 1.265 . S
O503 C502 1.227 1_545 S
N504 Co501 2.121 1_545 S
N504 C506 1.375 . S
N504 C507 1.313 1_545 S
C505 C506 1.338 . S
C505 N508 1.377 . S
C505 H525 0.930 . S
C506 N504 1.375 . S
C506 C505 1.338 . S
C506 H510 0.931 . S
C507 N504 1.313 1_565 S
C507 N508 1.344 1_565 S
C507 H511 0.930 . S
N508 C505 1.377 . S
N508 C507 1.344 1_545 S
O509 Co501 2.055 . S
O509 C513 1.253 . S
H510 C506 0.931 . S
H511 C507 0.930 . S
O512 Co501 2.039 . S
O512 C502 1.265 . S
C513 O509 1.253 . S
C513 O514 1.227 . S
O514 C513 1.227 . S
N515 Co501 2.140 1_545 S
N515 C518 1.346 . S
N515 C519 1.345 . S
C516 C517 1.387 1_655 S
C516 C520 1.391 . S
C517 C516 1.387 1_455 S
C517 C518 1.369 1_455 S
C517 H526 0.929 . S
C518 N515 1.346 . S
C518 C517 1.369 1_655 S
C518 H521 0.928 1_655 S
C519 N515 1.345 . S
C519 C520 1.371 . S
C519 H522 0.931 . S
C520 C516 1.391 . S
C520 C519 1.371 . S
C520 H527 0.930 . S
H521 C518 0.928 1_455 S
H522 C519 0.931 . S
H523 C499 0.930 . S
H524 C496 0.930 . S
H525 C505 0.930 . S
H526 C517 0.929 . S
H527 C520 0.930 . S
C528 C529 1.351 . S
C528 N531 1.368 . S
C528 H533 0.931 . S
C529 C528 1.351 . S
C529 N530 1.373 . S
C529 H557 0.930 . S
N530 C529 1.373 . S
N530 C532 1.340 . S
N531 C528 1.368 . S
N531 C532 1.321 . S
N531 Co534 2.135 . S
C532 N530 1.340 . S
C532 N531 1.321 . S
C532 H556 0.930 . S
H533 C528 0.931 . S
Co534 N531 2.135 . S
Co534 N537 2.121 . S
Co534 O542 2.055 . S
Co534 O545 2.039 . S
Co534 N548 2.140 . S
C535 O536 1.227 . S
C535 O545 1.265 . S
O536 C535 1.227 . S
N537 Co534 2.121 . S
N537 C539 1.375 . S
N537 C540 1.313 . S
C538 C539 1.338 . S
C538 N541 1.377 . S
C538 H558 0.930 . S
C539 N537 1.375 . S
C539 C538 1.338 . S
C539 H543 0.931 . S
C540 N537 1.313 . S
C540 N541 1.344 . S
C540 H544 0.930 . S
N541 C538 1.377 . S
N541 C540 1.344 . S
O542 Co534 2.055 . S
O542 C546 1.253 . S
H543 C539 0.931 . S
H544 C540 0.930 . S
O545 Co534 2.039 . S
O545 C535 1.265 . S
C546 O542 1.253 . S
C546 O547 1.227 . S
O547 C546 1.227 . S
N548 Co534 2.140 . S
N548 C551 1.346 . S
N548 C552 1.345 . S
C549 C550 1.387 . S
C549 C553 1.391 . S
C550 C549 1.387 . S
C550 C551 1.369 . S
C550 H559 0.929 . S
C551 N548 1.346 . S
C551 C550 1.369 . S
C551 H554 0.928 . S
C552 N548 1.345 . S
C552 C553 1.371 . S
C552 H555 0.931 . S
C553 C549 1.391 . S
C553 C552 1.371 . S
C553 H560 0.930 . S
H554 C551 0.928 . S
H555 C552 0.931 . S
H556 C532 0.930 . S
H557 C529 0.930 . S
H558 C538 0.930 . S
H559 C550 0.929 . S
H560 C553 0.930 . S
C561 C562 1.351 . S
C561 N564 1.368 . S
C561 H566 0.931 . S
C562 C561 1.351 . S
C562 N563 1.373 . S
C562 H590 0.930 . S
N563 C562 1.373 . S
N563 C565 1.340 . S
N564 C561 1.368 . S
N564 C565 1.321 . S
N564 Co567 2.135 . S
C565 N563 1.340 . S
C565 N564 1.321 . S
C565 H589 0.930 . S
H566 C561 0.931 . S
Co567 N564 2.135 . S
Co567 N570 2.121 . S
Co567 O575 2.055 . S
Co567 O578 2.039 . S
Co567 N581 2.140 . S
C568 O569 1.227 . S
C568 O578 1.265 . S
O569 C568 1.227 . S
N570 Co567 2.121 . S
N570 C572 1.375 . S
N570 C573 1.313 . S
C571 C572 1.338 . S
C571 N574 1.377 . S
C571 H591 0.930 . S
C572 N570 1.375 . S
C572 C571 1.338 . S
C572 H576 0.931 . S
C573 N570 1.313 . S
C573 N574 1.344 . S
C573 H577 0.930 . S
N574 C571 1.377 . S
N574 C573 1.344 . S
O575 Co567 2.055 . S
O575 C579 1.253 . S
H576 C572 0.931 . S
H577 C573 0.930 . S
O578 Co567 2.039 . S
O578 C568 1.265 . S
C579 O575 1.253 . S
C579 O580 1.227 . S
O580 C579 1.227 . S
N581 Co567 2.140 . S
N581 C584 1.346 . S
N581 C585 1.345 . S
C582 C583 1.387 . S
C582 C586 1.391 . S
C583 C582 1.387 . S
C583 C584 1.369 . S
C583 H592 0.929 . S
C584 N581 1.346 . S
C584 C583 1.369 . S
C584 H587 0.928 . S
C585 N581 1.345 . S
C585 C586 1.371 . S
C585 H588 0.931 . S
C586 C582 1.391 . S
C586 C585 1.371 . S
C586 H593 0.930 . S
H587 C584 0.928 . S
H588 C585 0.931 . S
H589 C565 0.930 . S
H590 C562 0.930 . S
H591 C571 0.930 . S
H592 C583 0.929 . S
H593 C586 0.930 . S
C594 C595 1.351 . S
C594 N597 1.368 . S
C594 H599 0.931 . S
C595 C594 1.351 . S
C595 N596 1.373 . S
C595 H623 0.930 . S
N596 C595 1.373 . S
N596 C598 1.340 . S
N597 C594 1.368 . S
N597 C598 1.321 . S
N597 Co600 2.135 . S
C598 N596 1.340 . S
C598 N597 1.321 . S
C598 H622 0.930 . S
H599 C594 0.931 . S
Co600 N597 2.135 . S
Co600 N603 2.121 . S
Co600 O608 2.055 . S
Co600 O611 2.039 . S
Co600 N614 2.140 . S
C601 O602 1.227 . S
C601 O611 1.265 . S
O602 C601 1.227 . S
N603 Co600 2.121 . S
N603 C605 1.375 . S
N603 C606 1.313 . S
C604 C605 1.338 . S
C604 N607 1.377 . S
C604 H624 0.930 . S
C605 N603 1.375 . S
C605 C604 1.338 . S
C605 H609 0.931 . S
C606 N603 1.313 . S
C606 N607 1.344 . S
C606 H610 0.930 . S
N607 C604 1.377 . S
N607 C606 1.344 . S
O608 Co600 2.055 . S
O608 C612 1.253 . S
H609 C605 0.931 . S
H610 C606 0.930 . S
O611 Co600 2.039 . S
O611 C601 1.265 . S
C612 O608 1.253 . S
C612 O613 1.227 . S
O613 C612 1.227 . S
N614 Co600 2.140 . S
N614 C617 1.346 . S
N614 C618 1.345 . S
C615 C616 1.387 . S
C615 C619 1.391 . S
C616 C615 1.387 . S
C616 C617 1.369 . S
C616 H625 0.929 . S
C617 N614 1.346 . S
C617 C616 1.369 . S
C617 H620 0.928 . S
C618 N614 1.345 . S
C618 C619 1.371 . S
C618 H621 0.931 . S
C619 C615 1.391 . S
C619 C618 1.371 . S
C619 H626 0.930 . S
H620 C617 0.928 . S
H621 C618 0.931 . S
H622 C598 0.930 . S
H623 C595 0.930 . S
H624 C604 0.930 . S
H625 C616 0.929 . S
H626 C619 0.930 . S
C627 C628 1.351 . S
C627 N630 1.368 . S
C627 H632 0.931 . S
C628 C627 1.351 . S
C628 N629 1.373 . S
C628 H656 0.930 . S
N629 C628 1.373 . S
N629 C631 1.340 . S
N630 C627 1.368 . S
N630 C631 1.321 . S
N630 Co633 2.135 1_455 S
C631 N629 1.340 . S
C631 N630 1.321 . S
C631 H655 0.930 . S
H632 C627 0.931 . S
Co633 N630 2.135 1_655 S
Co633 N636 2.121 . S
Co633 O641 2.055 . S
Co633 O644 2.039 . S
Co633 N647 2.140 . S
C634 O635 1.227 . S
C634 O644 1.265 . S
O635 C634 1.227 . S
N636 Co633 2.121 . S
N636 C638 1.375 . S
N636 C639 1.313 . S
C637 C638 1.338 . S
C637 N640 1.377 . S
C637 H657 0.930 . S
C638 N636 1.375 . S
C638 C637 1.338 . S
C638 H642 0.931 . S
C639 N636 1.313 . S
C639 N640 1.344 . S
C639 H643 0.930 . S
N640 C637 1.377 . S
N640 C639 1.344 . S
O641 Co633 2.055 . S
O641 C645 1.253 . S
H642 C638 0.931 . S
H643 C639 0.930 . S
O644 Co633 2.039 . S
O644 C634 1.265 . S
C645 O641 1.253 . S
C645 O646 1.227 . S
O646 C645 1.227 . S
N647 Co633 2.140 . S
N647 C650 1.346 . S
N647 C651 1.345 . S
C648 C649 1.387 1_655 S
C648 C652 1.391 . S
C649 C648 1.387 1_455 S
C649 C650 1.369 1_455 S
C649 H658 0.929 . S
C650 N647 1.346 . S
C650 C649 1.369 1_655 S
C650 H653 0.928 1_655 S
C651 N647 1.345 . S
C651 C652 1.371 . S
C651 H654 0.931 . S
C652 C648 1.391 . S
C652 C651 1.371 . S
C652 H659 0.930 . S
H653 C650 0.928 1_455 S
H654 C651 0.931 . S
H655 C631 0.930 . S
H656 C628 0.930 . S
H657 C637 0.930 . S
H658 C649 0.929 . S
H659 C652 0.930 . S
C660 C661 1.351 . S
C660 N663 1.368 . S
C660 H665 0.931 . S
C661 C660 1.351 . S
C661 N662 1.373 . S
C661 H689 0.930 . S
N662 C661 1.373 . S
N662 C664 1.340 . S
N663 C660 1.368 . S
N663 C664 1.321 . S
N663 Co666 2.135 . S
C664 N662 1.340 . S
C664 N663 1.321 . S
C664 H688 0.930 . S
H665 C660 0.931 . S
Co666 N663 2.135 . S
Co666 N669 2.121 . S
Co666 O674 2.055 . S
Co666 O677 2.039 . S
Co666 N680 2.140 . S
C667 O668 1.227 . S
C667 O677 1.265 . S
O668 C667 1.227 . S
N669 Co666 2.121 . S
N669 C671 1.375 . S
N669 C672 1.313 . S
C670 C671 1.338 . S
C670 N673 1.377 . S
C670 H690 0.930 . S
C671 N669 1.375 . S
C671 C670 1.338 . S
C671 H675 0.931 . S
C672 N669 1.313 . S
C672 N673 1.344 . S
C672 H676 0.930 . S
N673 C670 1.377 . S
N673 C672 1.344 . S
O674 Co666 2.055 . S
O674 C678 1.253 . S
H675 C671 0.931 . S
H676 C672 0.930 . S
O677 Co666 2.039 . S
O677 C667 1.265 . S
C678 O674 1.253 . S
C678 O679 1.227 . S
O679 C678 1.227 . S
N680 Co666 2.140 . S
N680 C683 1.346 . S
N680 C684 1.345 . S
C681 C682 1.387 . S
C681 C685 1.391 . S
C682 C681 1.387 . S
C682 C683 1.369 . S
C682 H691 0.929 . S
C683 N680 1.346 . S
C683 C682 1.369 . S
C683 H686 0.928 . S
C684 N680 1.345 . S
C684 C685 1.371 . S
C684 H687 0.931 . S
C685 C681 1.391 . S
C685 C684 1.371 . S
C685 H692 0.930 . S
H686 C683 0.928 . S
H687 C684 0.931 . S
H688 C664 0.930 . S
H689 C661 0.930 . S
H690 C670 0.930 . S
H691 C682 0.929 . S
H692 C685 0.930 . S
C693 C694 1.351 . S
C693 N696 1.368 . S
C693 H698 0.931 . S
C694 C693 1.351 . S
C694 N695 1.373 . S
C694 H722 0.930 . S
N695 C694 1.373 . S
N695 C697 1.340 . S
N696 C693 1.368 . S
N696 C697 1.321 . S
N696 Co699 2.135 1_455 S
C697 N695 1.340 . S
C697 N696 1.321 . S
C697 H721 0.930 . S
H698 C693 0.931 . S
Co699 N696 2.135 1_655 S
Co699 N702 2.121 . S
Co699 O707 2.055 . S
Co699 O710 2.039 . S
Co699 N713 2.140 . S
C700 O701 1.227 . S
C700 O710 1.265 . S
O701 C700 1.227 . S
N702 Co699 2.121 . S
N702 C704 1.375 . S
N702 C705 1.313 . S
C703 C704 1.338 . S
C703 N706 1.377 . S
C703 H723 0.930 . S
C704 N702 1.375 . S
C704 C703 1.338 . S
C704 H708 0.931 . S
C705 N702 1.313 . S
C705 N706 1.344 . S
C705 H709 0.930 . S
N706 C703 1.377 . S
N706 C705 1.344 . S
O707 Co699 2.055 . S
O707 C711 1.253 . S
H708 C704 0.931 . S
H709 C705 0.930 . S
O710 Co699 2.039 . S
O710 C700 1.265 . S
C711 O707 1.253 . S
C711 O712 1.227 . S
O712 C711 1.227 . S
N713 Co699 2.140 . S
N713 C716 1.346 . S
N713 C717 1.345 . S
C714 C715 1.387 1_655 S
C714 C718 1.391 . S
C715 C714 1.387 1_455 S
C715 C716 1.369 1_455 S
C715 H724 0.929 . S
C716 N713 1.346 . S
C716 C715 1.369 1_655 S
C716 H719 0.928 1_655 S
C717 N713 1.345 . S
C717 C718 1.371 . S
C717 H720 0.931 . S
C718 C714 1.391 . S
C718 C717 1.371 . S
C718 H725 0.930 . S
H719 C716 0.928 1_455 S
H720 C717 0.931 . S
H721 C697 0.930 . S
H722 C694 0.930 . S
H723 C703 0.930 . S
H724 C715 0.929 . S
H725 C718 0.930 . S
C726 C727 1.351 . S
C726 N729 1.368 . S
C726 H731 0.931 . S
C727 C726 1.351 . S
C727 N728 1.373 . S
C727 H755 0.930 . S
N728 C727 1.373 . S
N728 C730 1.340 . S
N729 C726 1.368 . S
N729 C730 1.321 . S
N729 Co732 2.135 . S
C730 N728 1.340 . S
C730 N729 1.321 . S
C730 H754 0.930 . S
H731 C726 0.931 . S
Co732 N729 2.135 . S
Co732 N735 2.121 . S
Co732 O740 2.055 . S
Co732 O743 2.039 . S
Co732 N746 2.140 . S
C733 O734 1.227 . S
C733 O743 1.265 . S
O734 C733 1.227 . S
N735 Co732 2.121 . S
N735 C737 1.375 . S
N735 C738 1.313 . S
C736 C737 1.338 . S
C736 N739 1.377 . S
C736 H756 0.930 . S
C737 N735 1.375 . S
C737 C736 1.338 . S
C737 H741 0.931 . S
C738 N735 1.313 . S
C738 N739 1.344 . S
C738 H742 0.930 . S
N739 C736 1.377 . S
N739 C738 1.344 . S
O740 Co732 2.055 . S
O740 C744 1.253 . S
H741 C737 0.931 . S
H742 C738 0.930 . S
O743 Co732 2.039 . S
O743 C733 1.265 . S
C744 O740 1.253 . S
C744 O745 1.227 . S
O745 C744 1.227 . S
N746 Co732 2.140 . S
N746 C749 1.346 . S
N746 C750 1.345 . S
C747 C748 1.387 . S
C747 C751 1.391 . S
C748 C747 1.387 . S
C748 C749 1.369 . S
C748 H757 0.929 . S
C749 N746 1.346 . S
C749 C748 1.369 . S
C749 H752 0.928 . S
C750 N746 1.345 . S
C750 C751 1.371 . S
C750 H753 0.931 . S
C751 C747 1.391 . S
C751 C750 1.371 . S
C751 H758 0.930 . S
H752 C749 0.928 . S
H753 C750 0.931 . S
H754 C730 0.930 . S
H755 C727 0.930 . S
H756 C736 0.930 . S
H757 C748 0.929 . S
H758 C751 0.930 . S
C759 C760 1.351 . S
C759 N762 1.368 . S
C759 H764 0.931 . S
C760 C759 1.351 . S
C760 N761 1.373 . S
C760 H788 0.930 . S
N761 C760 1.373 . S
N761 C763 1.340 . S
N762 C759 1.368 . S
N762 C763 1.321 . S
N762 Co765 2.135 . S
C763 N761 1.340 . S
C763 N762 1.321 . S
C763 H787 0.930 . S
H764 C759 0.931 . S
Co765 N762 2.135 . S
Co765 N768 2.121 . S
Co765 O773 2.055 . S
Co765 O776 2.039 . S
Co765 N779 2.140 . S
C766 O767 1.227 . S
C766 O776 1.265 . S
O767 C766 1.227 . S
N768 Co765 2.121 . S
N768 C770 1.375 . S
N768 C771 1.313 . S
C769 C770 1.338 . S
C769 N772 1.377 . S
C769 H789 0.930 . S
C770 N768 1.375 . S
C770 C769 1.338 . S
C770 H774 0.931 . S
C771 N768 1.313 . S
C771 N772 1.344 . S
C771 H775 0.930 . S
N772 C769 1.377 . S
N772 C771 1.344 . S
O773 Co765 2.055 . S
O773 C777 1.253 . S
H774 C770 0.931 . S
H775 C771 0.930 . S
O776 Co765 2.039 . S
O776 C766 1.265 . S
C777 O773 1.253 . S
C777 O778 1.227 . S
O778 C777 1.227 . S
N779 Co765 2.140 . S
N779 C782 1.346 . S
N779 C783 1.345 . S
C780 C781 1.387 . S
C780 C784 1.391 . S
C781 C780 1.387 . S
C781 C782 1.369 . S
C781 H790 0.929 . S
C782 N779 1.346 . S
C782 C781 1.369 . S
C782 H785 0.928 . S
C783 N779 1.345 . S
C783 C784 1.371 . S
C783 H786 0.931 . S
C784 C780 1.391 . S
C784 C783 1.371 . S
C784 H791 0.930 . S
H785 C782 0.928 . S
H786 C783 0.931 . S
H787 C763 0.930 . S
H788 C760 0.930 . S
H789 C769 0.930 . S
H790 C781 0.929 . S
H791 C784 0.930 . S
C792 C793 1.351 . S
C792 N795 1.368 . S
C792 H797 0.931 . S
C793 C792 1.351 . S
C793 N794 1.373 . S
C793 H821 0.930 . S
N794 C793 1.373 . S
N794 C796 1.340 . S
N795 C792 1.368 . S
N795 C796 1.321 . S
N795 Co798 2.135 . S
C796 N794 1.340 . S
C796 N795 1.321 . S
C796 H820 0.930 . S
H797 C792 0.931 . S
Co798 N795 2.135 . S
Co798 N801 2.121 . S
Co798 O806 2.055 . S
Co798 O809 2.039 . S
Co798 N812 2.140 . S
C799 O800 1.227 . S
C799 O809 1.265 . S
O800 C799 1.227 . S
N801 Co798 2.121 . S
N801 C803 1.375 . S
N801 C804 1.313 . S
C802 C803 1.338 . S
C802 N805 1.377 . S
C802 H822 0.930 . S
C803 N801 1.375 . S
C803 C802 1.338 . S
C803 H807 0.931 . S
C804 N801 1.313 . S
C804 N805 1.344 . S
C804 H808 0.930 . S
N805 C802 1.377 . S
N805 C804 1.344 . S
O806 Co798 2.055 . S
O806 C810 1.253 . S
H807 C803 0.931 . S
H808 C804 0.930 . S
O809 Co798 2.039 . S
O809 C799 1.265 . S
C810 O806 1.253 . S
C810 O811 1.227 . S
O811 C810 1.227 . S
N812 Co798 2.140 . S
N812 C815 1.346 . S
N812 C816 1.345 . S
C813 C814 1.387 . S
C813 C817 1.391 . S
C814 C813 1.387 . S
C814 C815 1.369 . S
C814 H823 0.929 . S
C815 N812 1.346 . S
C815 C814 1.369 . S
C815 H818 0.928 . S
C816 N812 1.345 . S
C816 C817 1.371 . S
C816 H819 0.931 . S
C817 C813 1.391 . S
C817 C816 1.371 . S
C817 H824 0.930 . S
H818 C815 0.928 . S
H819 C816 0.931 . S
H820 C796 0.930 . S
H821 C793 0.930 . S
H822 C802 0.930 . S
H823 C814 0.929 . S
H824 C817 0.930 . S
C825 C826 1.351 . S
C825 N828 1.368 . S
C825 H830 0.931 . S
C826 C825 1.351 . S
C826 N827 1.373 . S
C826 H854 0.930 . S
N827 C826 1.373 . S
N827 C829 1.340 . S
N828 C825 1.368 . S
N828 C829 1.321 . S
N828 Co831 2.135 . S
C829 N827 1.340 . S
C829 N828 1.321 . S
C829 H853 0.930 . S
H830 C825 0.931 . S
Co831 N828 2.135 . S
Co831 N834 2.121 . S
Co831 O839 2.055 . S
Co831 O842 2.039 . S
Co831 N845 2.140 . S
C832 O833 1.227 . S
C832 O842 1.265 . S
O833 C832 1.227 . S
N834 Co831 2.121 . S
N834 C836 1.375 . S
N834 C837 1.313 . S
C835 C836 1.338 . S
C835 N838 1.377 . S
C835 H855 0.930 . S
C836 N834 1.375 . S
C836 C835 1.338 . S
C836 H840 0.931 . S
C837 N834 1.313 . S
C837 N838 1.344 . S
C837 H841 0.930 . S
N838 C835 1.377 . S
N838 C837 1.344 . S
O839 Co831 2.055 . S
O839 C843 1.253 . S
H840 C836 0.931 . S
H841 C837 0.930 . S
O842 Co831 2.039 . S
O842 C832 1.265 . S
C843 O839 1.253 . S
C843 O844 1.227 . S
O844 C843 1.227 . S
N845 Co831 2.140 . S
N845 C848 1.346 . S
N845 C849 1.345 . S
C846 C847 1.387 . S
C846 C850 1.391 . S
C847 C846 1.387 . S
C847 C848 1.369 . S
C847 H856 0.929 . S
C848 N845 1.346 . S
C848 C847 1.369 . S
C848 H851 0.928 . S
C849 N845 1.345 . S
C849 C850 1.371 . S
C849 H852 0.931 . S
C850 C846 1.391 . S
C850 C849 1.371 . S
C850 H857 0.930 . S
H851 C848 0.928 . S
H852 C849 0.931 . S
H853 C829 0.930 . S
H854 C826 0.930 . S
H855 C835 0.930 . S
H856 C847 0.929 . S
H857 C850 0.930 . S
C858 C859 1.351 . S
C858 N861 1.368 . S
C858 H863 0.931 . S
C859 C858 1.351 . S
C859 N860 1.373 . S
C859 H887 0.930 . S
N860 C859 1.373 . S
N860 C862 1.340 . S
N861 C858 1.368 . S
N861 C862 1.321 . S
N861 Co864 2.135 . S
C862 N860 1.340 . S
C862 N861 1.321 . S
C862 H886 0.930 . S
H863 C858 0.931 . S
Co864 N861 2.135 . S
Co864 N867 2.121 . S
Co864 O872 2.055 . S
Co864 O875 2.039 . S
Co864 N878 2.140 . S
C865 O866 1.227 . S
C865 O875 1.265 . S
O866 C865 1.227 . S
N867 Co864 2.121 . S
N867 C869 1.375 . S
N867 C870 1.313 . S
C868 C869 1.338 . S
C868 N871 1.377 . S
C868 H888 0.930 . S
C869 N867 1.375 . S
C869 C868 1.338 . S
C869 H873 0.931 . S
C870 N867 1.313 . S
C870 N871 1.344 . S
C870 H874 0.930 . S
N871 C868 1.377 . S
N871 C870 1.344 . S
O872 Co864 2.055 . S
O872 C876 1.253 . S
H873 C869 0.931 . S
H874 C870 0.930 . S
O875 Co864 2.039 . S
O875 C865 1.265 . S
C876 O872 1.253 . S
C876 O877 1.227 . S
O877 C876 1.227 . S
N878 Co864 2.140 . S
N878 C881 1.346 . S
N878 C882 1.345 . S
C879 C880 1.387 . S
C879 C883 1.391 . S
C880 C879 1.387 . S
C880 C881 1.369 . S
C880 H889 0.929 . S
C881 N878 1.346 . S
C881 C880 1.369 . S
C881 H884 0.928 . S
C882 N878 1.345 . S
C882 C883 1.371 . S
C882 H885 0.931 . S
C883 C879 1.391 . S
C883 C882 1.371 . S
C883 H890 0.930 . S
H884 C881 0.928 . S
H885 C882 0.931 . S
H886 C862 0.930 . S
H887 C859 0.930 . S
H888 C868 0.930 . S
H889 C880 0.929 . S
H890 C883 0.930 . S
C891 C892 1.351 . S
C891 N894 1.368 . S
C891 H896 0.931 . S
C892 C891 1.351 . S
C892 N893 1.373 . S
C892 H920 0.930 . S
N893 C892 1.373 . S
N893 C895 1.340 . S
N894 C891 1.368 . S
N894 C895 1.321 . S
N894 Co897 2.135 1_655 S
C895 N893 1.340 . S
C895 N894 1.321 . S
C895 H919 0.930 . S
H896 C891 0.931 . S
Co897 N894 2.135 1_455 S
Co897 N900 2.121 . S
Co897 O905 2.055 . S
Co897 O908 2.039 . S
Co897 N911 2.140 . S
C898 O899 1.227 . S
C898 O908 1.265 . S
O899 C898 1.227 . S
N900 Co897 2.121 . S
N900 C902 1.375 . S
N900 C903 1.313 . S
C901 C902 1.338 . S
C901 N904 1.377 . S
C901 H921 0.930 . S
C902 N900 1.375 . S
C902 C901 1.338 . S
C902 H906 0.931 . S
C903 N900 1.313 . S
C903 N904 1.344 . S
C903 H907 0.930 . S
N904 C901 1.377 . S
N904 C903 1.344 . S
O905 Co897 2.055 . S
O905 C909 1.253 . S
H906 C902 0.931 . S
H907 C903 0.930 . S
O908 Co897 2.039 . S
O908 C898 1.265 . S
C909 O905 1.253 . S
C909 O910 1.227 . S
O910 C909 1.227 . S
N911 Co897 2.140 . S
N911 C914 1.346 . S
N911 C915 1.345 . S
C912 C913 1.387 1_455 S
C912 C916 1.391 . S
C913 C912 1.387 1_655 S
C913 C914 1.369 1_655 S
C913 H922 0.929 . S
C914 N911 1.346 . S
C914 C913 1.369 1_455 S
C914 H917 0.928 1_455 S
C915 N911 1.345 . S
C915 C916 1.371 . S
C915 H918 0.931 . S
C916 C912 1.391 . S
C916 C915 1.371 . S
C916 H923 0.930 . S
H917 C914 0.928 1_655 S
H918 C915 0.931 . S
H919 C895 0.930 . S
H920 C892 0.930 . S
H921 C901 0.930 . S
H922 C913 0.929 . S
H923 C916 0.930 . S
C924 C925 1.351 . S
C924 N927 1.368 . S
C924 H929 0.931 . S
C925 C924 1.351 . S
C925 N926 1.373 . S
C925 H953 0.930 . S
N926 C925 1.373 . S
N926 C928 1.340 . S
N927 C924 1.368 . S
N927 C928 1.321 . S
N927 Co930 2.135 . S
C928 N926 1.340 . S
C928 N927 1.321 . S
C928 H952 0.930 . S
H929 C924 0.931 . S
Co930 N927 2.135 . S
Co930 N933 2.121 . S
Co930 O938 2.055 . S
Co930 O941 2.039 . S
Co930 N944 2.140 . S
C931 O932 1.227 . S
C931 O941 1.265 . S
O932 C931 1.227 . S
N933 Co930 2.121 . S
N933 C935 1.375 . S
N933 C936 1.313 . S
C934 C935 1.338 . S
C934 N937 1.377 . S
C934 H954 0.930 . S
C935 N933 1.375 . S
C935 C934 1.338 . S
C935 H939 0.931 . S
C936 N933 1.313 . S
C936 N937 1.344 . S
C936 H940 0.930 . S
N937 C934 1.377 . S
N937 C936 1.344 . S
O938 Co930 2.055 . S
O938 C942 1.253 . S
H939 C935 0.931 . S
H940 C936 0.930 . S
O941 Co930 2.039 . S
O941 C931 1.265 . S
C942 O938 1.253 . S
C942 O943 1.227 . S
O943 C942 1.227 . S
N944 Co930 2.140 . S
N944 C947 1.346 . S
N944 C948 1.345 . S
C945 C946 1.387 . S
C945 C949 1.391 . S
C946 C945 1.387 . S
C946 C947 1.369 . S
C946 H955 0.929 . S
C947 N944 1.346 . S
C947 C946 1.369 . S
C947 H950 0.928 . S
C948 N944 1.345 . S
C948 C949 1.371 . S
C948 H951 0.931 . S
C949 C945 1.391 . S
C949 C948 1.371 . S
C949 H956 0.930 . S
H950 C947 0.928 . S
H951 C948 0.931 . S
H952 C928 0.930 . S
H953 C925 0.930 . S
H954 C934 0.930 . S
H955 C946 0.929 . S
H956 C949 0.930 . S
C957 C958 1.351 . S
C957 N960 1.368 . S
C957 H962 0.931 . S
C958 C957 1.351 . S
C958 N959 1.373 . S
C958 H986 0.930 . S
N959 C958 1.373 . S
N959 C961 1.340 . S
N960 C957 1.368 . S
N960 C961 1.321 . S
N960 Co963 2.135 1_655 S
C961 N959 1.340 . S
C961 N960 1.321 . S
C961 H985 0.930 . S
H962 C957 0.931 . S
Co963 N960 2.135 1_455 S
Co963 N966 2.121 . S
Co963 O971 2.055 . S
Co963 O974 2.039 . S
Co963 N977 2.140 . S
C964 O965 1.227 . S
C964 O974 1.265 . S
O965 C964 1.227 . S
N966 Co963 2.121 . S
N966 C968 1.375 . S
N966 C969 1.313 . S
C967 C968 1.338 . S
C967 N970 1.377 . S
C967 H987 0.930 . S
C968 N966 1.375 . S
C968 C967 1.338 . S
C968 H972 0.931 . S
C969 N966 1.313 . S
C969 N970 1.344 . S
C969 H973 0.930 . S
N970 C967 1.377 . S
N970 C969 1.344 . S
O971 Co963 2.055 . S
O971 C975 1.253 . S
H972 C968 0.931 . S
H973 C969 0.930 . S
O974 Co963 2.039 . S
O974 C964 1.265 . S
C975 O971 1.253 . S
C975 O976 1.227 . S
O976 C975 1.227 . S
N977 Co963 2.140 . S
N977 C980 1.346 . S
N977 C981 1.345 . S
C978 C979 1.387 1_455 S
C978 C982 1.391 . S
C979 C978 1.387 1_655 S
C979 C980 1.369 1_655 S
C979 H988 0.929 . S
C980 N977 1.346 . S
C980 C979 1.369 1_455 S
C980 H983 0.928 1_455 S
C981 N977 1.345 . S
C981 C982 1.371 . S
C981 H984 0.931 . S
C982 C978 1.391 . S
C982 C981 1.371 . S
C982 H989 0.930 . S
H983 C980 0.928 1_655 S
H984 C981 0.931 . S
H985 C961 0.930 . S
H986 C958 0.930 . S
H987 C967 0.930 . S
H988 C979 0.929 . S
H989 C982 0.930 . S
C990 C991 1.351 . S
C990 N993 1.368 . S
C990 H995 0.931 . S
C991 C990 1.351 . S
C991 N992 1.373 . S
C991 H1019 0.930 . S
N992 C991 1.373 . S
N992 C994 1.340 . S
N993 C990 1.368 . S
N993 C994 1.321 . S
N993 Co996 2.135 . S
C994 N992 1.340 . S
C994 N993 1.321 . S
C994 H1018 0.930 . S
H995 C990 0.931 . S
Co996 N993 2.135 . S
Co996 N999 2.121 . S
Co996 O1004 2.055 . S
Co996 O1007 2.039 . S
Co996 N1010 2.140 . S
C997 O998 1.227 . S
C997 O1007 1.265 . S
O998 C997 1.227 . S
N999 Co996 2.121 . S
N999 C1001 1.375 . S
N999 C1002 1.313 . S
C1000 C1001 1.338 . S
C1000 N1003 1.377 . S
C1000 H1020 0.930 . S
C1001 N999 1.375 . S
C1001 C1000 1.338 . S
C1001 H1005 0.931 . S
C1002 N999 1.313 . S
C1002 N1003 1.344 . S
C1002 H1006 0.930 . S
N1003 C1000 1.377 . S
N1003 C1002 1.344 . S
O1004 Co996 2.055 . S
O1004 C1008 1.253 . S
H1005 C1001 0.931 . S
H1006 C1002 0.930 . S
O1007 Co996 2.039 . S
O1007 C997 1.265 . S
C1008 O1004 1.253 . S
C1008 O1009 1.227 . S
O1009 C1008 1.227 . S
N1010 Co996 2.140 . S
N1010 C1013 1.346 . S
N1010 C1014 1.345 . S
C1011 C1012 1.387 . S
C1011 C1015 1.391 . S
C1012 C1011 1.387 . S
C1012 C1013 1.369 . S
C1012 H1021 0.929 . S
C1013 N1010 1.346 . S
C1013 C1012 1.369 . S
C1013 H1016 0.928 . S
C1014 N1010 1.345 . S
C1014 C1015 1.371 . S
C1014 H1017 0.931 . S
C1015 C1011 1.391 . S
C1015 C1014 1.371 . S
C1015 H1022 0.930 . S
H1016 C1013 0.928 . S
H1017 C1014 0.931 . S
H1018 C994 0.930 . S
H1019 C991 0.930 . S
H1020 C1000 0.930 . S
H1021 C1012 0.929 . S
H1022 C1015 0.930 . S
C1023 C1024 1.351 . S
C1023 N1026 1.368 . S
C1023 H1028 0.931 . S
C1024 C1023 1.351 . S
C1024 N1025 1.373 . S
C1024 H1052 0.930 . S
N1025 C1024 1.373 . S
N1025 C1027 1.340 . S
N1026 C1023 1.368 . S
N1026 C1027 1.321 . S
N1026 Co1029 2.135 . S
C1027 N1025 1.340 . S
C1027 N1026 1.321 . S
C1027 H1051 0.930 . S
H1028 C1023 0.931 . S
Co1029 N1026 2.135 . S
Co1029 N1032 2.121 . S
Co1029 O1037 2.055 . S
Co1029 O1040 2.039 . S
Co1029 N1043 2.140 . S
C1030 O1031 1.227 . S
C1030 O1040 1.265 . S
O1031 C1030 1.227 . S
N1032 Co1029 2.121 . S
N1032 C1034 1.375 . S
N1032 C1035 1.313 . S
C1033 C1034 1.338 . S
C1033 N1036 1.377 . S
C1033 H1053 0.930 . S
C1034 N1032 1.375 . S
C1034 C1033 1.338 . S
C1034 H1038 0.931 . S
C1035 N1032 1.313 . S
C1035 N1036 1.344 . S
C1035 H1039 0.930 . S
N1036 C1033 1.377 . S
N1036 C1035 1.344 . S
O1037 Co1029 2.055 . S
O1037 C1041 1.253 . S
H1038 C1034 0.931 . S
H1039 C1035 0.930 . S
O1040 Co1029 2.039 . S
O1040 C1030 1.265 . S
C1041 O1037 1.253 . S
C1041 O1042 1.227 . S
O1042 C1041 1.227 . S
N1043 Co1029 2.140 . S
N1043 C1046 1.346 . S
N1043 C1047 1.345 . S
C1044 C1045 1.387 . S
C1044 C1048 1.391 . S
C1045 C1044 1.387 . S
C1045 C1046 1.369 . S
C1045 H1054 0.929 . S
C1046 N1043 1.346 . S
C1046 C1045 1.369 . S
C1046 H1049 0.928 . S
C1047 N1043 1.345 . S
C1047 C1048 1.371 . S
C1047 H1050 0.931 . S
C1048 C1044 1.391 . S
C1048 C1047 1.371 . S
C1048 H1055 0.930 . S
H1049 C1046 0.928 . S
H1050 C1047 0.931 . S
H1051 C1027 0.930 . S
H1052 C1024 0.930 . S
H1053 C1033 0.930 . S
H1054 C1045 0.929 . S
H1055 C1048 0.930 . S
H1056 C1062 0.930 . S
H1057 C1065 0.930 . S
H1058 C1066 0.930 . S
H1059 C1067 0.930 . S
H1060 C1070 0.930 . S
H1061 C1071 0.930 . S
C1062 H1056 0.930 . S
C1062 C1063 1.355 . S
C1062 C1064 1.415 . S
C1063 C1062 1.355 . S
C1063 C1065 1.419 . S
C1064 C1062 1.415 . S
C1064 C1069 1.425 . S
C1064 C1071 1.409 . S
C1065 H1057 0.930 . S
C1065 C1063 1.419 . S
C1065 C1066 1.362 . S
C1066 H1058 0.930 . S
C1066 C1065 1.362 . S
C1066 C1069 1.409 . S
C1067 H1059 0.930 . S
C1067 C1068 1.355 . S
C1067 C1069 1.415 . S
C1068 C1067 1.355 . S
C1068 C1070 1.419 . S
C1069 C1064 1.425 . S
C1069 C1066 1.409 . S
C1069 C1067 1.415 . S
C1070 H1060 0.930 . S
C1070 C1068 1.419 . S
C1070 C1071 1.362 . S
C1071 H1061 0.930 . S
C1071 C1064 1.409 . S
C1071 C1070 1.362 . S
H1072 C1078 0.930 . S
H1073 C1081 0.930 . S
H1074 C1082 0.930 . S
H1075 C1083 0.930 . S
H1076 C1086 0.930 . S
H1077 C1087 0.930 . S
C1078 H1072 0.930 . S
C1078 C1079 1.355 . S
C1078 C1080 1.415 . S
C1079 C1078 1.355 . S
C1079 C1081 1.419 . S
C1080 C1078 1.415 . S
C1080 C1085 1.425 . S
C1080 C1087 1.409 . S
C1081 H1073 0.930 . S
C1081 C1079 1.419 . S
C1081 C1082 1.362 . S
C1082 H1074 0.930 . S
C1082 C1081 1.362 . S
C1082 C1085 1.409 . S
C1083 H1075 0.930 . S
C1083 C1084 1.355 . S
C1083 C1085 1.415 . S
C1084 C1083 1.355 . S
C1084 C1086 1.419 . S
C1085 C1080 1.425 . S
C1085 C1082 1.409 . S
C1085 C1083 1.415 . S
C1086 H1076 0.930 . S
C1086 C1084 1.419 . S
C1086 C1087 1.362 . S
C1087 H1077 0.930 . S
C1087 C1080 1.409 . S
C1087 C1086 1.362 . S
H1088 C1094 0.930 . S
H1089 C1097 0.930 . S
H1090 C1098 0.930 . S
H1091 C1099 0.930 . S
H1092 C1102 0.930 . S
H1093 C1103 0.930 . S
C1094 H1088 0.930 . S
C1094 C1095 1.355 . S
C1094 C1096 1.415 . S
C1095 C1094 1.355 . S
C1095 C1097 1.419 . S
C1096 C1094 1.415 . S
C1096 C1101 1.425 . S
C1096 C1103 1.409 . S
C1097 H1089 0.930 . S
C1097 C1095 1.419 . S
C1097 C1098 1.362 . S
C1098 H1090 0.930 . S
C1098 C1097 1.362 . S
C1098 C1101 1.409 . S
C1099 H1091 0.930 . S
C1099 C1100 1.355 . S
C1099 C1101 1.415 . S
C1100 C1099 1.355 . S
C1100 C1102 1.419 . S
C1101 C1096 1.425 . S
C1101 C1098 1.409 . S
C1101 C1099 1.415 . S
C1102 H1092 0.930 . S
C1102 C1100 1.419 . S
C1102 C1103 1.362 . S
C1103 H1093 0.930 . S
C1103 C1096 1.409 . S
C1103 C1102 1.362 . S
H1104 C1110 0.930 . S
H1105 C1113 0.930 . S
H1106 C1114 0.930 . S
H1107 C1115 0.930 . S
H1108 C1118 0.930 . S
H1109 C1119 0.930 . S
C1110 H1104 0.930 . S
C1110 C1111 1.355 . S
C1110 C1112 1.415 . S
C1111 C1110 1.355 . S
C1111 C1113 1.419 . S
C1112 C1110 1.415 . S
C1112 C1117 1.425 . S
C1112 C1119 1.409 . S
C1113 H1105 0.930 . S
C1113 C1111 1.419 . S
C1113 C1114 1.362 . S
C1114 H1106 0.930 . S
C1114 C1113 1.362 . S
C1114 C1117 1.409 . S
C1115 H1107 0.930 . S
C1115 C1116 1.355 . S
C1115 C1117 1.415 . S
C1116 C1115 1.355 . S
C1116 C1118 1.419 . S
C1117 C1112 1.425 . S
C1117 C1114 1.409 . S
C1117 C1115 1.415 . S
C1118 H1108 0.930 . S
C1118 C1116 1.419 . S
C1118 C1119 1.362 . S
C1119 H1109 0.930 . S
C1119 C1112 1.409 . S
C1119 C1118 1.362 . S
H1120 C1126 0.930 . S
H1121 C1129 0.930 . S
H1122 C1130 0.930 . S
H1123 C1131 0.930 . S
H1124 C1134 0.930 . S
H1125 C1135 0.930 . S
C1126 H1120 0.930 . S
C1126 C1127 1.355 . S
C1126 C1128 1.415 . S
C1127 C1126 1.355 . S
C1127 C1129 1.419 . S
C1128 C1126 1.415 . S
C1128 C1133 1.425 . S
C1128 C1135 1.409 . S
C1129 H1121 0.930 . S
C1129 C1127 1.419 . S
C1129 C1130 1.362 . S
C1130 H1122 0.930 . S
C1130 C1129 1.362 . S
C1130 C1133 1.409 . S
C1131 H1123 0.930 . S
C1131 C1132 1.355 . S
C1131 C1133 1.415 . S
C1132 C1131 1.355 . S
C1132 C1134 1.419 . S
C1133 C1128 1.425 . S
C1133 C1130 1.409 . S
C1133 C1131 1.415 . S
C1134 H1124 0.930 . S
C1134 C1132 1.419 . S
C1134 C1135 1.362 . S
C1135 H1125 0.930 . S
C1135 C1128 1.409 . S
C1135 C1134 1.362 . S
H1136 C1142 0.930 . S
H1137 C1145 0.930 . S
H1138 C1146 0.930 . S
H1139 C1147 0.930 . S
H1140 C1150 0.930 . S
H1141 C1151 0.930 . S
C1142 H1136 0.930 . S
C1142 C1143 1.355 . S
C1142 C1144 1.415 . S
C1143 C1142 1.355 . S
C1143 C1145 1.419 . S
C1144 C1142 1.415 . S
C1144 C1149 1.425 . S
C1144 C1151 1.409 . S
C1145 H1137 0.930 . S
C1145 C1143 1.419 . S
C1145 C1146 1.362 . S
C1146 H1138 0.930 . S
C1146 C1145 1.362 . S
C1146 C1149 1.409 . S
C1147 H1139 0.930 . S
C1147 C1148 1.355 . S
C1147 C1149 1.415 . S
C1148 C1147 1.355 . S
C1148 C1150 1.419 . S
C1149 C1144 1.425 . S
C1149 C1146 1.409 . S
C1149 C1147 1.415 . S
C1150 H1140 0.930 . S
C1150 C1148 1.419 . S
C1150 C1151 1.362 . S
C1151 H1141 0.930 . S
C1151 C1144 1.409 . S
C1151 C1150 1.362 . S
H1152 C1158 0.930 . S
H1153 C1161 0.930 . S
H1154 C1162 0.930 . S
H1155 C1163 0.930 . S
H1156 C1166 0.930 . S
H1157 C1167 0.930 . S
C1158 H1152 0.930 . S
C1158 C1159 1.355 . S
C1158 C1160 1.415 . S
C1159 C1158 1.355 . S
C1159 C1161 1.419 . S
C1160 C1158 1.415 . S
C1160 C1165 1.425 . S
C1160 C1167 1.409 . S
C1161 H1153 0.930 . S
C1161 C1159 1.419 . S
C1161 C1162 1.362 . S
C1162 H1154 0.930 . S
C1162 C1161 1.362 . S
C1162 C1165 1.409 . S
C1163 H1155 0.930 . S
C1163 C1164 1.355 . S
C1163 C1165 1.415 . S
C1164 C1163 1.355 . S
C1164 C1166 1.419 . S
C1165 C1160 1.425 . S
C1165 C1162 1.409 . S
C1165 C1163 1.415 . S
C1166 H1156 0.930 . S
C1166 C1164 1.419 . S
C1166 C1167 1.362 . S
C1167 H1157 0.930 . S
C1167 C1160 1.409 . S
C1167 C1166 1.362 . S
H1168 C1174 0.930 . S
H1169 C1177 0.930 . S
H1170 C1178 0.930 . S
H1171 C1179 0.930 . S
H1172 C1182 0.930 . S
H1173 C1183 0.930 . S
C1174 H1168 0.930 . S
C1174 C1175 1.355 . S
C1174 C1176 1.415 . S
C1175 C1174 1.355 . S
C1175 C1177 1.419 . S
C1176 C1174 1.415 . S
C1176 C1181 1.425 . S
C1176 C1183 1.409 . S
C1177 H1169 0.930 . S
C1177 C1175 1.419 . S
C1177 C1178 1.362 . S
C1178 H1170 0.930 . S
C1178 C1177 1.362 . S
C1178 C1181 1.409 . S
C1179 H1171 0.930 . S
C1179 C1180 1.355 . S
C1179 C1181 1.415 . S
C1180 C1179 1.355 . S
C1180 C1182 1.419 . S
C1181 C1176 1.425 . S
C1181 C1178 1.409 . S
C1181 C1179 1.415 . S
C1182 H1172 0.930 . S
C1182 C1180 1.419 . S
C1182 C1183 1.362 . S
C1183 H1173 0.930 . S
C1183 C1176 1.409 . S
C1183 C1182 1.362 . S
H1184 C1190 0.930 . S
H1185 C1193 0.930 . S
H1186 C1194 0.930 . S
H1187 C1195 0.930 . S
H1188 C1198 0.930 . S
H1189 C1199 0.930 . S
C1190 H1184 0.930 . S
C1190 C1191 1.355 . S
C1190 C1192 1.415 . S
C1191 C1190 1.355 . S
C1191 C1193 1.419 . S
C1192 C1190 1.415 . S
C1192 C1197 1.425 . S
C1192 C1199 1.409 . S
C1193 H1185 0.930 . S
C1193 C1191 1.419 . S
C1193 C1194 1.362 . S
C1194 H1186 0.930 . S
C1194 C1193 1.362 . S
C1194 C1197 1.409 . S
C1195 H1187 0.930 . S
C1195 C1196 1.355 . S
C1195 C1197 1.415 . S
C1196 C1195 1.355 . S
C1196 C1198 1.419 . S
C1197 C1192 1.425 . S
C1197 C1194 1.409 . S
C1197 C1195 1.415 . S
C1198 H1188 0.930 . S
C1198 C1196 1.419 . S
C1198 C1199 1.362 . S
C1199 H1189 0.930 . S
C1199 C1192 1.409 . S
C1199 C1198 1.362 . S
H1200 C1206 0.930 . S
H1201 C1209 0.930 . S
H1202 C1210 0.930 . S
H1203 C1211 0.930 . S
H1204 C1214 0.930 . S
H1205 C1215 0.930 . S
C1206 H1200 0.930 . S
C1206 C1207 1.355 . S
C1206 C1208 1.415 . S
C1207 C1206 1.355 . S
C1207 C1209 1.419 . S
C1208 C1206 1.415 . S
C1208 C1213 1.425 . S
C1208 C1215 1.409 . S
C1209 H1201 0.930 . S
C1209 C1207 1.419 . S
C1209 C1210 1.362 . S
C1210 H1202 0.930 . S
C1210 C1209 1.362 . S
C1210 C1213 1.409 . S
C1211 H1203 0.930 . S
C1211 C1212 1.355 . S
C1211 C1213 1.415 . S
C1212 C1211 1.355 . S
C1212 C1214 1.419 . S
C1213 C1208 1.425 . S
C1213 C1210 1.409 . S
C1213 C1211 1.415 . S
C1214 H1204 0.930 . S
C1214 C1212 1.419 . S
C1214 C1215 1.362 . S
C1215 H1205 0.930 . S
C1215 C1208 1.409 . S
C1215 C1214 1.362 . S
H1216 C1222 0.930 . S
H1217 C1225 0.930 . S
H1218 C1226 0.930 . S
H1219 C1227 0.930 . S
H1220 C1230 0.930 . S
H1221 C1231 0.930 . S
C1222 H1216 0.930 . S
C1222 C1223 1.355 . S
C1222 C1224 1.415 . S
C1223 C1222 1.355 . S
C1223 C1225 1.419 . S
C1224 C1222 1.415 . S
C1224 C1229 1.425 . S
C1224 C1231 1.409 . S
C1225 H1217 0.930 . S
C1225 C1223 1.419 . S
C1225 C1226 1.362 . S
C1226 H1218 0.930 . S
C1226 C1225 1.362 . S
C1226 C1229 1.409 . S
C1227 H1219 0.930 . S
C1227 C1228 1.355 . S
C1227 C1229 1.415 . S
C1228 C1227 1.355 . S
C1228 C1230 1.419 . S
C1229 C1224 1.425 . S
C1229 C1226 1.409 . S
C1229 C1227 1.415 . S
C1230 H1220 0.930 . S
C1230 C1228 1.419 . S
C1230 C1231 1.362 . S
C1231 H1221 0.930 . S
C1231 C1224 1.409 . S
C1231 C1230 1.362 . S
H1232 C1238 0.930 . S
H1233 C1241 0.930 . S
H1234 C1242 0.930 . S
H1235 C1243 0.930 . S
H1236 C1246 0.930 . S
H1237 C1247 0.930 . S
C1238 H1232 0.930 . S
C1238 C1239 1.355 . S
C1238 C1240 1.415 . S
C1239 C1238 1.355 . S
C1239 C1241 1.419 . S
C1240 C1238 1.415 . S
C1240 C1245 1.425 . S
C1240 C1247 1.409 . S
C1241 H1233 0.930 . S
C1241 C1239 1.419 . S
C1241 C1242 1.362 . S
C1242 H1234 0.930 . S
C1242 C1241 1.362 . S
C1242 C1245 1.409 . S
C1243 H1235 0.930 . S
C1243 C1244 1.355 . S
C1243 C1245 1.415 . S
C1244 C1243 1.355 . S
C1244 C1246 1.419 . S
C1245 C1240 1.425 . S
C1245 C1242 1.409 . S
C1245 C1243 1.415 . S
C1246 H1236 0.930 . S
C1246 C1244 1.419 . S
C1246 C1247 1.362 . S
C1247 H1237 0.930 . S
C1247 C1240 1.409 . S
C1247 C1246 1.362 . S
H1248 C1254 0.930 . S
H1249 C1257 0.930 . S
H1250 C1258 0.930 . S
H1251 C1259 0.930 . S
H1252 C1262 0.930 . S
H1253 C1263 0.930 . S
C1254 H1248 0.930 . S
C1254 C1255 1.355 . S
C1254 C1256 1.415 . S
C1255 C1254 1.355 . S
C1255 C1257 1.419 . S
C1256 C1254 1.415 . S
C1256 C1261 1.425 . S
C1256 C1263 1.409 . S
C1257 H1249 0.930 . S
C1257 C1255 1.419 . S
C1257 C1258 1.362 . S
C1258 H1250 0.930 . S
C1258 C1257 1.362 . S
C1258 C1261 1.409 . S
C1259 H1251 0.930 . S
C1259 C1260 1.355 . S
C1259 C1261 1.415 . S
C1260 C1259 1.355 . S
C1260 C1262 1.419 . S
C1261 C1256 1.425 . S
C1261 C1258 1.409 . S
C1261 C1259 1.415 . S
C1262 H1252 0.930 . S
C1262 C1260 1.419 . S
C1262 C1263 1.362 . S
C1263 H1253 0.930 . S
C1263 C1256 1.409 . S
C1263 C1262 1.362 . S
H1264 C1270 0.930 . S
H1265 C1273 0.930 . S
H1266 C1274 0.930 . S
H1267 C1275 0.930 . S
H1268 C1278 0.930 . S
H1269 C1279 0.930 . S
C1270 H1264 0.930 . S
C1270 C1271 1.355 . S
C1270 C1272 1.415 . S
C1271 C1270 1.355 . S
C1271 C1273 1.419 . S
C1272 C1270 1.415 . S
C1272 C1277 1.425 . S
C1272 C1279 1.409 . S
C1273 H1265 0.930 . S
C1273 C1271 1.419 . S
C1273 C1274 1.362 . S
C1274 H1266 0.930 . S
C1274 C1273 1.362 . S
C1274 C1277 1.409 . S
C1275 H1267 0.930 . S
C1275 C1276 1.355 . S
C1275 C1277 1.415 . S
C1276 C1275 1.355 . S
C1276 C1278 1.419 . S
C1277 C1272 1.425 . S
C1277 C1274 1.409 . S
C1277 C1275 1.415 . S
C1278 H1268 0.930 . S
C1278 C1276 1.419 . S
C1278 C1279 1.362 . S
C1279 H1269 0.930 . S
C1279 C1272 1.409 . S
C1279 C1278 1.362 . S
H1280 C1286 0.930 . S
H1281 C1289 0.930 . S
H1282 C1290 0.930 . S
H1283 C1291 0.930 . S
H1284 C1294 0.930 . S
H1285 C1295 0.930 . S
C1286 H1280 0.930 . S
C1286 C1287 1.355 . S
C1286 C1288 1.415 . S
C1287 C1286 1.355 . S
C1287 C1289 1.419 . S
C1288 C1286 1.415 . S
C1288 C1293 1.425 . S
C1288 C1295 1.409 . S
C1289 H1281 0.930 . S
C1289 C1287 1.419 . S
C1289 C1290 1.362 . S
C1290 H1282 0.930 . S
C1290 C1289 1.362 . S
C1290 C1293 1.409 . S
C1291 H1283 0.930 . S
C1291 C1292 1.355 . S
C1291 C1293 1.415 . S
C1292 C1291 1.355 . S
C1292 C1294 1.419 . S
C1293 C1288 1.425 . S
C1293 C1290 1.409 . S
C1293 C1291 1.415 . S
C1294 H1284 0.930 . S
C1294 C1292 1.419 . S
C1294 C1295 1.362 . S
C1295 H1285 0.930 . S
C1295 C1288 1.409 . S
C1295 C1294 1.362 . S
H1296 C1302 0.930 . S
H1297 C1305 0.930 . S
H1298 C1306 0.930 . S
H1299 C1307 0.930 . S
H1300 C1310 0.930 . S
H1301 C1311 0.930 . S
C1302 H1296 0.930 . S
C1302 C1303 1.355 . S
C1302 C1304 1.415 . S
C1303 C1302 1.355 . S
C1303 C1305 1.419 . S
C1304 C1302 1.415 . S
C1304 C1309 1.425 . S
C1304 C1311 1.409 . S
C1305 H1297 0.930 . S
C1305 C1303 1.419 . S
C1305 C1306 1.362 . S
C1306 H1298 0.930 . S
C1306 C1305 1.362 . S
C1306 C1309 1.409 . S
C1307 H1299 0.930 . S
C1307 C1308 1.355 . S
C1307 C1309 1.415 . S
C1308 C1307 1.355 . S
C1308 C1310 1.419 . S
C1309 C1304 1.425 . S
C1309 C1306 1.409 . S
C1309 C1307 1.415 . S
C1310 H1300 0.930 . S
C1310 C1308 1.419 . S
C1310 C1311 1.362 . S
C1311 H1301 0.930 . S
C1311 C1304 1.409 . S
C1311 C1310 1.362 . S
H1312 C1318 0.930 . S
H1313 C1321 0.930 . S
H1314 C1322 0.930 . S
H1315 C1323 0.930 . S
H1316 C1326 0.930 . S
H1317 C1327 0.930 . S
C1318 H1312 0.930 . S
C1318 C1319 1.355 . S
C1318 C1320 1.415 . S
C1319 C1318 1.355 . S
C1319 C1321 1.419 . S
C1320 C1318 1.415 . S
C1320 C1325 1.425 1_556 S
C1320 C1327 1.409 1_556 S
C1321 H1313 0.930 . S
C1321 C1319 1.419 . S
C1321 C1322 1.362 . S
C1322 H1314 0.930 . S
C1322 C1321 1.362 . S
C1322 C1325 1.409 1_556 S
C1323 H1315 0.930 . S
C1323 C1324 1.355 . S
C1323 C1325 1.415 . S
C1324 C1323 1.355 . S
C1324 C1326 1.419 . S
C1325 C1320 1.425 1_554 S
C1325 C1322 1.409 1_554 S
C1325 C1323 1.415 . S
C1326 H1316 0.930 . S
C1326 C1324 1.419 . S
C1326 C1327 1.362 . S
C1327 H1317 0.930 . S
C1327 C1320 1.409 1_554 S
C1327 C1326 1.362 . S
H1328 C1334 0.930 . S
H1329 C1337 0.918 1_655 S
H1330 C1338 0.930 . S
H1331 C1339 0.930 1_655 S
H1332 C1342 0.930 . S
H1333 C1343 0.930 . S
C1334 H1328 0.930 . S
C1334 C1335 1.355 . S
C1334 C1336 1.415 . S
C1335 C1334 1.355 . S
C1335 C1337 1.434 1_565 S
C1336 C1334 1.415 . S
C1336 C1341 1.425 1_565 S
C1336 C1343 1.409 . S
C1337 H1329 0.918 1_455 S
C1337 C1335 1.434 1_545 S
C1337 C1338 1.360 1_455 S
C1338 H1330 0.930 . S
C1338 C1337 1.360 1_655 S
C1338 C1341 1.409 1_655 S
C1339 H1331 0.930 1_455 S
C1339 C1340 1.355 . S
C1339 C1341 1.415 . S
C1340 C1339 1.355 . S
C1340 C1342 1.419 1_545 S
C1341 C1336 1.425 1_545 S
C1341 C1338 1.409 1_455 S
C1341 C1339 1.415 . S
C1342 H1332 0.930 . S
C1342 C1340 1.419 1_565 S
C1342 C1343 1.362 . S
C1343 H1333 0.930 . S
C1343 C1336 1.409 . S
C1343 C1342 1.362 . S
H1344 C1350 0.930 . S
H1345 C1353 0.930 . S
H1346 C1354 0.930 . S
H1347 C1355 0.930 . S
H1348 C1358 0.930 . S
H1349 C1359 0.930 . S
C1350 H1344 0.930 . S
C1350 C1351 1.355 . S
C1350 C1352 1.415 . S
C1351 C1350 1.355 . S
C1351 C1353 1.419 . S
C1352 C1350 1.415 . S
C1352 C1357 1.425 . S
C1352 C1359 1.409 . S
C1353 H1345 0.930 . S
C1353 C1351 1.419 . S
C1353 C1354 1.362 . S
C1354 H1346 0.930 . S
C1354 C1353 1.362 . S
C1354 C1357 1.409 . S
C1355 H1347 0.930 . S
C1355 C1356 1.355 . S
C1355 C1357 1.415 . S
C1356 C1355 1.355 . S
C1356 C1358 1.419 . S
C1357 C1352 1.425 . S
C1357 C1354 1.409 . S
C1357 C1355 1.415 . S
C1358 H1348 0.930 . S
C1358 C1356 1.419 . S
C1358 C1359 1.362 . S
C1359 H1349 0.930 . S
C1359 C1352 1.409 . S
C1359 C1358 1.362 . S
H1360 C1366 0.930 . S
H1361 C1369 0.930 . S
H1362 C1370 0.930 . S
H1363 C1371 0.930 . S
H1364 C1374 0.930 . S
H1365 C1375 0.930 . S
C1366 H1360 0.930 . S
C1366 C1367 1.355 1_565 S
C1366 C1368 1.415 . S
C1367 C1366 1.355 1_545 S
C1367 C1369 1.419 . S
C1368 C1366 1.415 . S
C1368 C1373 1.425 1_565 S
C1368 C1375 1.409 . S
C1369 H1361 0.930 . S
C1369 C1367 1.419 . S
C1369 C1370 1.362 . S
C1370 H1362 0.930 . S
C1370 C1369 1.362 . S
C1370 C1373 1.409 . S
C1371 H1363 0.930 . S
C1371 C1372 1.355 1_545 S
C1371 C1373 1.415 . S
C1372 C1371 1.355 1_565 S
C1372 C1374 1.419 . S
C1373 C1368 1.425 1_545 S
C1373 C1370 1.409 . S
C1373 C1371 1.415 . S
C1374 H1364 0.930 . S
C1374 C1372 1.419 . S
C1374 C1375 1.362 . S
C1375 H1365 0.930 . S
C1375 C1368 1.409 . S
C1375 C1374 1.362 . S
H1376 C1382 0.930 . S
H1377 C1385 0.930 . S
H1378 C1386 0.927 1_554 S
H1379 C1387 0.930 . S
H1380 C1390 0.930 . S
H1381 C1391 0.927 1_556 S
C1382 H1376 0.930 . S
C1382 C1383 1.355 . S
C1382 C1384 1.415 . S
C1383 C1382 1.355 . S
C1383 C1385 1.419 . S
C1384 C1382 1.415 . S
C1384 C1389 1.425 1_556 S
C1384 C1391 1.409 1_556 S
C1385 H1377 0.930 . S
C1385 C1383 1.419 . S
C1385 C1386 1.362 . S
C1386 H1378 0.927 1_556 S
C1386 C1385 1.362 . S
C1386 C1389 1.409 1_556 S
C1387 H1379 0.930 . S
C1387 C1388 1.355 . S
C1387 C1389 1.415 . S
C1388 C1387 1.355 . S
C1388 C1390 1.419 . S
C1389 C1384 1.425 1_554 S
C1389 C1386 1.409 1_554 S
C1389 C1387 1.415 . S
C1390 H1380 0.930 . S
C1390 C1388 1.419 . S
C1390 C1391 1.362 . S
C1391 H1381 0.927 1_554 S
C1391 C1384 1.409 1_554 S
C1391 C1390 1.362 . S
H1392 C1398 0.930 . S
H1393 C1401 0.930 . S
H1394 C1402 0.930 . S
H1395 C1403 0.930 1_455 S
H1396 C1406 0.930 . S
H1397 C1407 0.930 . S
C1398 H1392 0.930 . S
C1398 C1399 1.355 . S
C1398 C1400 1.415 . S
C1399 C1398 1.355 . S
C1399 C1401 1.419 1_655 S
C1400 C1398 1.415 . S
C1400 C1405 1.425 1_565 S
C1400 C1407 1.409 . S
C1401 H1393 0.930 . S
C1401 C1399 1.419 1_455 S
C1401 C1402 1.362 1_565 S
C1402 H1394 0.930 . S
C1402 C1401 1.362 1_545 S
C1402 C1405 1.409 1_455 S
C1403 H1395 0.930 1_655 S
C1403 C1404 1.355 . S
C1403 C1405 1.415 . S
C1404 C1403 1.355 . S
C1404 C1406 1.419 . S
C1405 C1400 1.425 1_545 S
C1405 C1402 1.409 1_655 S
C1405 C1403 1.415 . S
C1406 H1396 0.930 . S
C1406 C1404 1.419 . S
C1406 C1407 1.362 1_545 S
C1407 H1397 0.930 . S
C1407 C1400 1.409 . S
C1407 C1406 1.362 1_565 S
H1408 C1414 0.930 . S
H1409 C1417 0.930 . S
H1410 C1418 0.930 . S
H1411 C1419 0.930 . S
H1412 C1422 0.930 . S
H1413 C1423 0.930 . S
C1414 H1408 0.930 . S
C1414 C1415 1.355 . S
C1414 C1416 1.415 . S
C1415 C1414 1.355 . S
C1415 C1417 1.419 . S
C1416 C1414 1.415 . S
C1416 C1421 1.425 . S
C1416 C1423 1.409 . S
C1417 H1409 0.930 . S
C1417 C1415 1.419 . S
C1417 C1418 1.362 . S
C1418 H1410 0.930 . S
C1418 C1417 1.362 . S
C1418 C1421 1.409 . S
C1419 H1411 0.930 . S
C1419 C1420 1.355 . S
C1419 C1421 1.415 . S
C1420 C1419 1.355 . S
C1420 C1422 1.419 . S
C1421 C1416 1.425 . S
C1421 C1418 1.409 . S
C1421 C1419 1.415 . S
C1422 H1412 0.930 . S
C1422 C1420 1.419 . S
C1422 C1423 1.362 . S
C1423 H1413 0.930 . S
C1423 C1416 1.409 . S
C1423 C1422 1.362 . S
H1424 C1430 0.930 . S
H1425 C1433 0.930 . S
H1426 C1434 0.930 . S
H1427 C1435 0.930 . S
H1428 C1438 0.930 . S
H1429 C1439 0.930 . S
C1430 H1424 0.930 . S
C1430 C1431 1.355 1_565 S
C1430 C1432 1.415 . S
C1431 C1430 1.355 1_545 S
C1431 C1433 1.419 . S
C1432 C1430 1.415 . S
C1432 C1437 1.425 1_565 S
C1432 C1439 1.409 . S
C1433 H1425 0.930 . S
C1433 C1431 1.419 . S
C1433 C1434 1.362 . S
C1434 H1426 0.930 . S
C1434 C1433 1.362 . S
C1434 C1437 1.409 . S
C1435 H1427 0.930 . S
C1435 C1436 1.355 1_545 S
C1435 C1437 1.415 . S
C1436 C1435 1.355 1_565 S
C1436 C1438 1.419 . S
C1437 C1432 1.425 1_545 S
C1437 C1434 1.409 . S
C1437 C1435 1.415 . S
C1438 H1428 0.930 . S
C1438 C1436 1.419 . S
C1438 C1439 1.362 . S
C1439 H1429 0.930 . S
C1439 C1432 1.409 . S
C1439 C1438 1.362 . S
H1440 C1446 0.930 . S
H1441 C1449 0.930 . S
H1442 C1450 0.930 . S
H1443 C1451 0.930 . S
H1444 C1454 0.930 . S
H1445 C1455 0.930 . S
C1446 H1440 0.930 . S
C1446 C1447 1.355 . S
C1446 C1448 1.415 . S
C1447 C1446 1.355 . S
C1447 C1449 1.419 . S
C1448 C1446 1.415 . S
C1448 C1453 1.425 . S
C1448 C1455 1.409 . S
C1449 H1441 0.930 . S
C1449 C1447 1.419 . S
C1449 C1450 1.362 . S
C1450 H1442 0.930 . S
C1450 C1449 1.362 . S
C1450 C1453 1.409 . S
C1451 H1443 0.930 . S
C1451 C1452 1.355 . S
C1451 C1453 1.415 . S
C1452 C1451 1.355 . S
C1452 C1454 1.419 . S
C1453 C1448 1.425 . S
C1453 C1450 1.409 . S
C1453 C1451 1.415 . S
C1454 H1444 0.930 . S
C1454 C1452 1.419 . S
C1454 C1455 1.362 . S
C1455 H1445 0.930 . S
C1455 C1448 1.409 . S
C1455 C1454 1.362 . S
H1456 C1462 0.930 . S
H1457 C1465 0.930 . S
H1458 C1466 0.930 . S
H1459 C1467 0.930 . S
H1460 C1470 0.930 . S
H1461 C1471 0.930 . S
C1462 H1456 0.930 . S
C1462 C1463 1.355 . S
C1462 C1464 1.415 . S
C1463 C1462 1.355 . S
C1463 C1465 1.419 . S
C1464 C1462 1.415 . S
C1464 C1469 1.425 . S
C1464 C1471 1.409 . S
C1465 H1457 0.930 . S
C1465 C1463 1.419 . S
C1465 C1466 1.362 . S
C1466 H1458 0.930 . S
C1466 C1465 1.362 . S
C1466 C1469 1.409 . S
C1467 H1459 0.930 . S
C1467 C1468 1.355 . S
C1467 C1469 1.415 . S
C1468 C1467 1.355 . S
C1468 C1470 1.419 . S
C1469 C1464 1.425 . S
C1469 C1466 1.409 . S
C1469 C1467 1.415 . S
C1470 H1460 0.930 . S
C1470 C1468 1.419 . S
C1470 C1471 1.362 . S
C1471 H1461 0.930 . S
C1471 C1464 1.409 . S
C1471 C1470 1.362 . S
H1472 C1478 0.930 . S
H1473 C1481 0.930 . S
H1474 C1482 0.930 . S
H1475 C1483 0.930 . S
H1476 C1486 0.930 . S
H1477 C1487 0.930 . S
C1478 H1472 0.930 . S
C1478 C1479 1.355 . S
C1478 C1480 1.415 . S
C1479 C1478 1.355 . S
C1479 C1481 1.419 . S
C1480 C1478 1.415 . S
C1480 C1485 1.425 1_556 S
C1480 C1487 1.409 1_556 S
C1481 H1473 0.930 . S
C1481 C1479 1.419 . S
C1481 C1482 1.362 . S
C1482 H1474 0.930 . S
C1482 C1481 1.362 . S
C1482 C1485 1.409 1_556 S
C1483 H1475 0.930 . S
C1483 C1484 1.355 . S
C1483 C1485 1.415 . S
C1484 C1483 1.355 . S
C1484 C1486 1.419 . S
C1485 C1480 1.425 1_554 S
C1485 C1482 1.409 1_554 S
C1485 C1483 1.415 . S
C1486 H1476 0.930 . S
C1486 C1484 1.419 . S
C1486 C1487 1.362 . S
C1487 H1477 0.930 . S
C1487 C1480 1.409 1_554 S
C1487 C1486 1.362 . S
H1488 C1494 0.930 1_455 S
H1489 C1497 0.930 . S
H1490 C1498 0.930 . S
H1491 C1499 0.930 . S
H1492 C1502 0.930 . S
H1493 C1503 0.930 . S
C1494 H1488 0.930 1_655 S
C1494 C1495 1.355 . S
C1494 C1496 1.415 . S
C1495 C1494 1.355 . S
C1495 C1497 1.419 . S
C1496 C1494 1.415 . S
C1496 C1501 1.425 . S
C1496 C1503 1.409 1_655 S
C1497 H1489 0.930 . S
C1497 C1495 1.419 . S
C1497 C1498 1.362 . S
C1498 H1490 0.930 . S
C1498 C1497 1.362 . S
C1498 C1501 1.409 . S
C1499 H1491 0.930 . S
C1499 C1500 1.355 . S
C1499 C1501 1.415 . S
C1500 C1499 1.355 . S
C1500 C1502 1.419 1_655 S
C1501 C1496 1.425 . S
C1501 C1498 1.409 . S
C1501 C1499 1.415 . S
C1502 H1492 0.930 . S
C1502 C1500 1.419 1_455 S
C1502 C1503 1.362 . S
C1503 H1493 0.930 . S
C1503 C1496 1.409 1_455 S
C1503 C1502 1.362 . S
H1504 C1510 0.930 . S
H1505 C1513 0.930 . S
H1506 C1514 0.930 . S
H1507 C1515 0.930 . S
H1508 C1518 0.930 . S
H1509 C1519 0.930 . S
C1510 H1504 0.930 . S
C1510 C1511 1.355 . S
C1510 C1512 1.415 . S
C1511 C1510 1.355 . S
C1511 C1513 1.419 . S
C1512 C1510 1.415 . S
C1512 C1517 1.425 . S
C1512 C1519 1.409 . S
C1513 H1505 0.930 . S
C1513 C1511 1.419 . S
C1513 C1514 1.362 . S
C1514 H1506 0.930 . S
C1514 C1513 1.362 . S
C1514 C1517 1.409 . S
C1515 H1507 0.930 . S
C1515 C1516 1.355 . S
C1515 C1517 1.415 . S
C1516 C1515 1.355 . S
C1516 C1518 1.419 . S
C1517 C1512 1.425 . S
C1517 C1514 1.409 . S
C1517 C1515 1.415 . S
C1518 H1508 0.930 . S
C1518 C1516 1.419 . S
C1518 C1519 1.362 . S
C1519 H1509 0.930 . S
C1519 C1512 1.409 . S
C1519 C1518 1.362 . S
H1520 C1526 0.930 . S
H1521 C1529 0.930 . S
H1522 C1530 0.930 . S
H1523 C1531 0.930 . S
H1524 C1534 0.930 . S
H1525 C1535 0.930 . S
C1526 H1520 0.930 . S
C1526 C1527 1.355 . S
C1526 C1528 1.415 . S
C1527 C1526 1.355 . S
C1527 C1529 1.419 . S
C1528 C1526 1.415 . S
C1528 C1533 1.425 . S
C1528 C1535 1.409 . S
C1529 H1521 0.930 . S
C1529 C1527 1.419 . S
C1529 C1530 1.362 . S
C1530 H1522 0.930 . S
C1530 C1529 1.362 . S
C1530 C1533 1.409 . S
C1531 H1523 0.930 . S
C1531 C1532 1.355 . S
C1531 C1533 1.415 . S
C1532 C1531 1.355 . S
C1532 C1534 1.419 . S
C1533 C1528 1.425 . S
C1533 C1530 1.409 . S
C1533 C1531 1.415 . S
C1534 H1524 0.930 . S
C1534 C1532 1.419 . S
C1534 C1535 1.362 . S
C1535 H1525 0.930 . S
C1535 C1528 1.409 . S
C1535 C1534 1.362 . S
H1536 C1542 0.930 . S
H1537 C1545 0.930 . S
H1538 C1546 0.930 . S
H1539 C1547 0.930 . S
H1540 C1550 0.930 . S
H1541 C1551 0.930 . S
C1542 H1536 0.930 . S
C1542 C1543 1.355 . S
C1542 C1544 1.415 . S
C1543 C1542 1.355 . S
C1543 C1545 1.419 . S
C1544 C1542 1.415 . S
C1544 C1549 1.425 1_554 S
C1544 C1551 1.409 1_554 S
C1545 H1537 0.930 . S
C1545 C1543 1.419 . S
C1545 C1546 1.362 . S
C1546 H1538 0.930 . S
C1546 C1545 1.362 . S
C1546 C1549 1.409 1_554 S
C1547 H1539 0.930 . S
C1547 C1548 1.355 . S
C1547 C1549 1.415 . S
C1548 C1547 1.355 . S
C1548 C1550 1.419 . S
C1549 C1544 1.425 1_556 S
C1549 C1546 1.409 1_556 S
C1549 C1547 1.415 . S
C1550 H1540 0.930 . S
C1550 C1548 1.419 . S
C1550 C1551 1.362 . S
C1551 H1541 0.930 . S
C1551 C1544 1.409 1_556 S
C1551 C1550 1.362 . S
H1552 C1558 0.930 . S
H1553 C1561 0.930 . S
H1554 C1562 0.930 . S
H1555 C1563 0.930 . S
H1556 C1566 0.930 . S
H1557 C1567 0.930 . S
C1558 H1552 0.930 . S
C1558 C1559 1.355 . S
C1558 C1560 1.415 . S
C1559 C1558 1.355 . S
C1559 C1561 1.419 . S
C1560 C1558 1.415 . S
C1560 C1565 1.425 . S
C1560 C1567 1.409 . S
C1561 H1553 0.930 . S
C1561 C1559 1.419 . S
C1561 C1562 1.362 . S
C1562 H1554 0.930 . S
C1562 C1561 1.362 . S
C1562 C1565 1.409 . S
C1563 H1555 0.930 . S
C1563 C1564 1.355 . S
C1563 C1565 1.415 . S
C1564 C1563 1.355 . S
C1564 C1566 1.419 . S
C1565 C1560 1.425 . S
C1565 C1562 1.409 . S
C1565 C1563 1.415 . S
C1566 H1556 0.930 . S
C1566 C1564 1.419 . S
C1566 C1567 1.362 . S
C1567 H1557 0.930 . S
C1567 C1560 1.409 . S
C1567 C1566 1.362 . S
H1568 C1574 0.930 . S
H1569 C1577 0.930 . S
H1570 C1578 0.930 . S
H1571 C1579 0.930 . S
H1572 C1582 0.930 . S
H1573 C1583 0.930 . S
C1574 H1568 0.930 . S
C1574 C1575 1.355 . S
C1574 C1576 1.415 . S
C1575 C1574 1.355 . S
C1575 C1577 1.419 . S
C1576 C1574 1.415 . S
C1576 C1581 1.425 . S
C1576 C1583 1.409 . S
C1577 H1569 0.930 . S
C1577 C1575 1.419 . S
C1577 C1578 1.362 . S
C1578 H1570 0.930 . S
C1578 C1577 1.362 . S
C1578 C1581 1.409 . S
C1579 H1571 0.930 . S
C1579 C1580 1.355 . S
C1579 C1581 1.415 1_545 S
C1580 C1579 1.355 . S
C1580 C1582 1.419 . S
C1581 C1576 1.425 . S
C1581 C1578 1.409 . S
C1581 C1579 1.415 1_565 S
C1582 H1572 0.930 . S
C1582 C1580 1.419 . S
C1582 C1583 1.362 1_545 S
C1583 H1573 0.930 . S
C1583 C1576 1.409 . S
C1583 C1582 1.362 1_565 S
H1584 C1590 0.930 . S
H1585 C1593 0.930 . S
H1586 C1594 0.930 . S
H1587 C1595 0.930 . S
H1588 C1598 0.930 . S
H1589 C1599 0.930 . S
C1590 H1584 0.930 . S
C1590 C1591 1.355 1_565 S
C1590 C1592 1.415 . S
C1591 C1590 1.355 1_545 S
C1591 C1593 1.419 . S
C1592 C1590 1.415 . S
C1592 C1597 1.425 1_565 S
C1592 C1599 1.409 . S
C1593 H1585 0.930 . S
C1593 C1591 1.419 . S
C1593 C1594 1.362 . S
C1594 H1586 0.930 . S
C1594 C1593 1.362 . S
C1594 C1597 1.409 . S
C1595 H1587 0.930 . S
C1595 C1596 1.355 . S
C1595 C1597 1.415 . S
C1596 C1595 1.355 . S
C1596 C1598 1.419 1_545 S
C1597 C1592 1.425 1_545 S
C1597 C1594 1.409 . S
C1597 C1595 1.415 . S
C1598 H1588 0.930 . S
C1598 C1596 1.419 1_565 S
C1598 C1599 1.362 . S
C1599 H1589 0.930 . S
C1599 C1592 1.409 . S
C1599 C1598 1.362 . S
H1600 C1606 0.930 . S
H1601 C1609 0.930 . S
H1602 C1610 0.930 . S
H1603 C1611 0.930 . S
H1604 C1614 0.930 . S
H1605 C1615 0.930 . S
C1606 H1600 0.930 . S
C1606 C1607 1.355 . S
C1606 C1608 1.415 . S
C1607 C1606 1.355 . S
C1607 C1609 1.419 . S
C1608 C1606 1.415 . S
C1608 C1613 1.425 . S
C1608 C1615 1.409 . S
C1609 H1601 0.930 . S
C1609 C1607 1.419 . S
C1609 C1610 1.362 . S
C1610 H1602 0.930 . S
C1610 C1609 1.362 . S
C1610 C1613 1.409 . S
C1611 H1603 0.930 . S
C1611 C1612 1.355 . S
C1611 C1613 1.415 1_565 S
C1612 C1611 1.355 . S
C1612 C1614 1.419 . S
C1613 C1608 1.425 . S
C1613 C1610 1.409 . S
C1613 C1611 1.415 1_545 S
C1614 H1604 0.930 . S
C1614 C1612 1.419 . S
C1614 C1615 1.362 1_565 S
C1615 H1605 0.930 . S
C1615 C1608 1.409 . S
C1615 C1614 1.362 1_545 S
H1616 C1622 0.930 . S
H1617 C1625 0.930 . S
H1618 C1626 0.930 . S
H1619 C1627 0.930 . S
H1620 C1630 0.930 . S
H1621 C1631 0.930 . S
C1622 H1616 0.930 . S
C1622 C1623 1.355 . S
C1622 C1624 1.415 . S
C1623 C1622 1.355 . S
C1623 C1625 1.419 1_565 S
C1624 C1622 1.415 . S
C1624 C1629 1.425 . S
C1624 C1631 1.409 . S
C1625 H1617 0.930 . S
C1625 C1623 1.419 1_545 S
C1625 C1626 1.362 . S
C1626 H1618 0.930 . S
C1626 C1625 1.362 . S
C1626 C1629 1.409 1_545 S
C1627 H1619 0.930 . S
C1627 C1628 1.355 1_545 S
C1627 C1629 1.415 1_545 S
C1628 C1627 1.355 1_565 S
C1628 C1630 1.419 . S
C1629 C1624 1.425 . S
C1629 C1626 1.409 1_565 S
C1629 C1627 1.415 1_565 S
C1630 H1620 0.930 . S
C1630 C1628 1.419 . S
C1630 C1631 1.362 . S
C1631 H1621 0.930 . S
C1631 C1624 1.409 . S
C1631 C1630 1.362 . S
H1632 C1638 0.930 . S
H1633 C1641 0.930 . S
H1634 C1642 0.930 . S
H1635 C1643 0.930 . S
H1636 C1646 0.930 . S
H1637 C1647 0.930 . S
C1638 H1632 0.930 . S
C1638 C1639 1.355 . S
C1638 C1640 1.415 . S
C1639 C1638 1.355 . S
C1639 C1641 1.419 . S
C1640 C1638 1.415 . S
C1640 C1645 1.425 . S
C1640 C1647 1.409 . S
C1641 H1633 0.930 . S
C1641 C1639 1.419 . S
C1641 C1642 1.362 . S
C1642 H1634 0.930 . S
C1642 C1641 1.362 . S
C1642 C1645 1.409 . S
C1643 H1635 0.930 . S
C1643 C1644 1.355 . S
C1643 C1645 1.415 1_565 S
C1644 C1643 1.355 . S
C1644 C1646 1.419 . S
C1645 C1640 1.425 . S
C1645 C1642 1.409 . S
C1645 C1643 1.415 1_545 S
C1646 H1636 0.930 . S
C1646 C1644 1.419 . S
C1646 C1647 1.362 1_565 S
C1647 H1637 0.930 . S
C1647 C1640 1.409 . S
C1647 C1646 1.362 1_545 S
H1648 C1654 0.930 . S
H1649 C1657 0.930 . S
H1650 C1658 0.930 . S
H1651 C1659 0.930 . S
H1652 C1662 0.930 . S
H1653 C1663 0.930 . S
C1654 H1648 0.930 . S
C1654 C1655 1.355 1_565 S
C1654 C1656 1.415 . S
C1655 C1654 1.355 1_545 S
C1655 C1657 1.419 . S
C1656 C1654 1.415 . S
C1656 C1661 1.425 1_565 S
C1656 C1663 1.409 . S
C1657 H1649 0.930 . S
C1657 C1655 1.419 . S
C1657 C1658 1.362 . S
C1658 H1650 0.930 . S
C1658 C1657 1.362 . S
C1658 C1661 1.409 . S
C1659 H1651 0.930 . S
C1659 C1660 1.355 . S
C1659 C1661 1.415 . S
C1660 C1659 1.355 . S
C1660 C1662 1.419 1_545 S
C1661 C1656 1.425 1_545 S
C1661 C1658 1.409 . S
C1661 C1659 1.415 . S
C1662 H1652 0.930 . S
C1662 C1660 1.419 1_565 S
C1662 C1663 1.362 . S
C1663 H1653 0.930 . S
C1663 C1656 1.409 . S
C1663 C1662 1.362 . S
H1664 C1670 0.930 . S
H1665 C1673 0.930 . S
H1666 C1674 0.930 . S
H1667 C1675 0.930 . S
H1668 C1678 0.930 . S
H1669 C1679 0.930 . S
C1670 H1664 0.930 . S
C1670 C1671 1.355 . S
C1670 C1672 1.415 . S
C1671 C1670 1.355 . S
C1671 C1673 1.419 . S
C1672 C1670 1.415 . S
C1672 C1677 1.425 . S
C1672 C1679 1.409 . S
C1673 H1665 0.930 . S
C1673 C1671 1.419 . S
C1673 C1674 1.362 . S
C1674 H1666 0.930 . S
C1674 C1673 1.362 . S
C1674 C1677 1.409 . S
C1675 H1667 0.930 . S
C1675 C1676 1.355 . S
C1675 C1677 1.415 1_545 S
C1676 C1675 1.355 . S
C1676 C1678 1.419 . S
C1677 C1672 1.425 . S
C1677 C1674 1.409 . S
C1677 C1675 1.415 1_565 S
C1678 H1668 0.930 . S
C1678 C1676 1.419 . S
C1678 C1679 1.362 1_545 S
C1679 H1669 0.930 . S
C1679 C1672 1.409 . S
C1679 C1678 1.362 1_565 S
H1680 C1686 0.930 . S
H1681 C1689 0.930 . S
H1682 C1690 0.930 . S
H1683 C1691 0.930 . S
H1684 C1694 0.930 . S
H1685 C1695 0.930 . S
C1686 H1680 0.930 . S
C1686 C1687 1.355 1_545 S
C1686 C1688 1.415 1_545 S
C1687 C1686 1.355 1_565 S
C1687 C1689 1.419 . S
C1688 C1686 1.415 1_565 S
C1688 C1693 1.425 . S
C1688 C1695 1.409 1_565 S
C1689 H1681 0.930 . S
C1689 C1687 1.419 . S
C1689 C1690 1.362 . S
C1690 H1682 0.930 . S
C1690 C1689 1.362 . S
C1690 C1693 1.409 . S
C1691 H1683 0.930 . S
C1691 C1692 1.355 . S
C1691 C1693 1.415 . S
C1692 C1691 1.355 . S
C1692 C1694 1.419 1_565 S
C1693 C1688 1.425 . S
C1693 C1690 1.409 . S
C1693 C1691 1.415 . S
C1694 H1684 0.930 . S
C1694 C1692 1.419 1_545 S
C1694 C1695 1.362 . S
C1695 H1685 0.930 . S
C1695 C1688 1.409 1_545 S
C1695 C1694 1.362 . S
H1696 C1702 0.935 . S
H1697 C1705 0.930 . S
H1698 C1706 0.930 . S
H1699 C1707 0.930 . S
H1700 C1710 0.930 . S
H1701 C1711 0.930 . S
C1702 H1696 0.935 . S
C1702 C1703 1.367 . S
C1702 C1704 1.397 1_565 S
C1703 C1702 1.367 . S
C1703 C1705 1.419 . S
C1704 C1702 1.397 1_545 S
C1704 C1709 1.425 . S
C1704 C1711 1.409 . S
C1705 H1697 0.930 . S
C1705 C1703 1.419 . S
C1705 C1706 1.362 1_565 S
C1706 H1698 0.930 . S
C1706 C1705 1.362 1_545 S
C1706 C1709 1.409 . S
C1707 H1699 0.930 . S
C1707 C1708 1.355 . S
C1707 C1709 1.415 . S
C1708 C1707 1.355 . S
C1708 C1710 1.419 . S
C1709 C1704 1.425 . S
C1709 C1706 1.409 . S
C1709 C1707 1.415 . S
C1710 H1700 0.930 . S
C1710 C1708 1.419 . S
C1710 C1711 1.362 . S
C1711 H1701 0.930 . S
C1711 C1704 1.409 . S
C1711 C1710 1.362 . S
H1712 C1718 0.930 . S
H1713 C1721 0.930 . S
H1714 C1722 0.930 . S
H1715 C1723 0.930 . S
H1716 C1726 0.930 . S
H1717 C1727 0.930 . S
C1718 H1712 0.930 . S
C1718 C1719 1.355 . S
C1718 C1720 1.415 . S
C1719 C1718 1.355 . S
C1719 C1721 1.419 1_565 S
C1720 C1718 1.415 . S
C1720 C1725 1.425 1_565 S
C1720 C1727 1.409 . S
C1721 H1713 0.930 . S
C1721 C1719 1.419 1_545 S
C1721 C1722 1.362 . S
C1722 H1714 0.930 . S
C1722 C1721 1.362 . S
C1722 C1725 1.409 . S
C1723 H1715 0.930 . S
C1723 C1724 1.355 1_545 S
C1723 C1725 1.415 . S
C1724 C1723 1.355 1_565 S
C1724 C1726 1.419 . S
C1725 C1720 1.425 1_545 S
C1725 C1722 1.409 . S
C1725 C1723 1.415 . S
C1726 H1716 0.930 . S
C1726 C1724 1.419 . S
C1726 C1727 1.362 . S
C1727 H1717 0.930 . S
C1727 C1720 1.409 . S
C1727 C1726 1.362 . S
H1728 C1734 0.938 . S
H1729 C1737 0.930 . S
H1730 C1738 0.930 . S
H1731 C1739 0.930 . S
H1732 C1742 0.930 . S
H1733 C1743 0.930 . S
C1734 H1728 0.938 . S
C1734 C1735 1.373 . S
C1734 C1736 1.388 1_545 S
C1735 C1734 1.373 . S
C1735 C1737 1.419 . S
C1736 C1734 1.388 1_565 S
C1736 C1741 1.425 . S
C1736 C1743 1.409 . S
C1737 H1729 0.930 . S
C1737 C1735 1.419 . S
C1737 C1738 1.362 1_545 S
C1738 H1730 0.930 . S
C1738 C1737 1.362 1_565 S
C1738 C1741 1.409 . S
C1739 H1731 0.930 . S
C1739 C1740 1.355 . S
C1739 C1741 1.415 . S
C1740 C1739 1.355 . S
C1740 C1742 1.419 . S
C1741 C1736 1.425 . S
C1741 C1738 1.409 . S
C1741 C1739 1.415 . S
C1742 H1732 0.930 . S
C1742 C1740 1.419 . S
C1742 C1743 1.362 . S
C1743 H1733 0.930 . S
C1743 C1736 1.409 . S
C1743 C1742 1.362 . S
H1744 C1750 0.930 1_565 S
H1745 C1753 0.930 . S
H1746 C1754 0.930 . S
H1747 C1755 0.930 . S
H1748 C1758 0.930 . S
H1749 C1759 0.930 . S
C1750 H1744 0.930 1_545 S
C1750 C1751 1.355 . S
C1750 C1752 1.415 . S
C1751 C1750 1.355 . S
C1751 C1753 1.419 . S
C1752 C1750 1.415 . S
C1752 C1757 1.425 . S
C1752 C1759 1.409 1_545 S
C1753 H1745 0.930 . S
C1753 C1751 1.419 . S
C1753 C1754 1.362 . S
C1754 H1746 0.930 . S
C1754 C1753 1.362 . S
C1754 C1757 1.409 . S
C1755 H1747 0.930 . S
C1755 C1756 1.355 . S
C1755 C1757 1.415 . S
C1756 C1755 1.355 . S
C1756 C1758 1.419 1_545 S
C1757 C1752 1.425 . S
C1757 C1754 1.409 . S
C1757 C1755 1.415 . S
C1758 H1748 0.930 . S
C1758 C1756 1.419 1_565 S
C1758 C1759 1.362 . S
C1759 H1749 0.930 . S
C1759 C1752 1.409 1_565 S
C1759 C1758 1.362 . S
H1760 C1766 0.930 . S
H1761 C1769 0.930 . S
H1762 C1770 0.930 . S
H1763 C1771 0.930 . S
H1764 C1774 0.930 . S
H1765 C1775 0.930 . S
C1766 H1760 0.930 . S
C1766 C1767 1.355 . S
C1766 C1768 1.415 . S
C1767 C1766 1.355 . S
C1767 C1769 1.419 . S
C1768 C1766 1.415 . S
C1768 C1773 1.425 . S
C1768 C1775 1.409 . S
C1769 H1761 0.930 . S
C1769 C1767 1.419 . S
C1769 C1770 1.362 . S
C1770 H1762 0.930 . S
C1770 C1769 1.362 . S
C1770 C1773 1.409 . S
C1771 H1763 0.930 . S
C1771 C1772 1.355 . S
C1771 C1773 1.415 1_545 S
C1772 C1771 1.355 . S
C1772 C1774 1.419 . S
C1773 C1768 1.425 . S
C1773 C1770 1.409 . S
C1773 C1771 1.415 1_565 S
C1774 H1764 0.930 . S
C1774 C1772 1.419 . S
C1774 C1775 1.362 1_545 S
C1775 H1765 0.930 . S
C1775 C1768 1.409 . S
C1775 C1774 1.362 1_565 S
H1776 C1782 0.930 . S
H1777 C1785 0.930 . S
H1778 C1786 0.930 . S
H1779 C1787 0.930 . S
H1780 C1790 0.930 . S
H1781 C1791 0.930 . S
C1782 H1776 0.930 . S
C1782 C1783 1.355 . S
C1782 C1784 1.415 . S
C1783 C1782 1.355 . S
C1783 C1785 1.419 1_565 S
C1784 C1782 1.415 . S
C1784 C1789 1.425 1_565 S
C1784 C1791 1.409 . S
C1785 H1777 0.930 . S
C1785 C1783 1.419 1_545 S
C1785 C1786 1.362 . S
C1786 H1778 0.930 . S
C1786 C1785 1.362 . S
C1786 C1789 1.409 . S
C1787 H1779 0.930 . S
C1787 C1788 1.355 1_545 S
C1787 C1789 1.415 . S
C1788 C1787 1.355 1_565 S
C1788 C1790 1.419 . S
C1789 C1784 1.425 1_545 S
C1789 C1786 1.409 . S
C1789 C1787 1.415 . S
C1790 H1780 0.930 . S
C1790 C1788 1.419 . S
C1790 C1791 1.362 . S
C1791 H1781 0.930 . S
C1791 C1784 1.409 . S
C1791 C1790 1.362 . S
H1792 C1798 0.930 . S
H1793 C1801 0.930 . S
H1794 C1802 0.930 . S
H1795 C1803 0.930 . S
H1796 C1806 0.930 . S
H1797 C1807 0.930 . S
C1798 H1792 0.930 . S
C1798 C1799 1.355 . S
C1798 C1800 1.415 1_565 S
C1799 C1798 1.355 . S
C1799 C1801 1.419 . S
C1800 C1798 1.415 1_545 S
C1800 C1805 1.425 . S
C1800 C1807 1.409 . S
C1801 H1793 0.930 . S
C1801 C1799 1.419 . S
C1801 C1802 1.362 1_565 S
C1802 H1794 0.930 . S
C1802 C1801 1.362 1_545 S
C1802 C1805 1.409 . S
C1803 H1795 0.930 . S
C1803 C1804 1.355 . S
C1803 C1805 1.415 . S
C1804 C1803 1.355 . S
C1804 C1806 1.419 . S
C1805 C1800 1.425 . S
C1805 C1802 1.409 . S
C1805 C1803 1.415 . S
C1806 H1796 0.930 . S
C1806 C1804 1.419 . S
C1806 C1807 1.362 . S
C1807 H1797 0.930 . S
C1807 C1800 1.409 . S
C1807 C1806 1.362 . S
H1808 C1814 0.930 . S
H1809 C1817 0.930 . S
H1810 C1818 0.930 . S
H1811 C1819 0.930 . S
H1812 C1822 0.930 . S
H1813 C1823 0.930 . S
C1814 H1808 0.930 . S
C1814 C1815 1.355 1_565 S
C1814 C1816 1.415 . S
C1815 C1814 1.355 1_545 S
C1815 C1817 1.419 . S
C1816 C1814 1.415 . S
C1816 C1821 1.425 1_565 S
C1816 C1823 1.409 . S
C1817 H1809 0.930 . S
C1817 C1815 1.419 . S
C1817 C1818 1.362 . S
C1818 H1810 0.930 . S
C1818 C1817 1.362 . S
C1818 C1821 1.409 . S
C1819 H1811 0.930 . S
C1819 C1820 1.355 . S
C1819 C1821 1.415 . S
C1820 C1819 1.355 . S
C1820 C1822 1.419 1_545 S
C1821 C1816 1.425 1_545 S
C1821 C1818 1.409 . S
C1821 C1819 1.415 . S
C1822 H1812 0.930 . S
C1822 C1820 1.419 1_565 S
C1822 C1823 1.362 . S
C1823 H1813 0.930 . S
C1823 C1816 1.409 . S
C1823 C1822 1.362 . S
H1824 C1830 0.930 . S
H1825 C1833 0.930 . S
H1826 C1834 0.930 . S
H1827 C1835 0.930 . S
H1828 C1838 0.930 . S
H1829 C1839 0.930 . S
C1830 H1824 0.930 . S
C1830 C1831 1.355 . S
C1830 C1832 1.415 . S
C1831 C1830 1.355 . S
C1831 C1833 1.419 . S
C1832 C1830 1.415 . S
C1832 C1837 1.425 . S
C1832 C1839 1.409 . S
C1833 H1825 0.930 . S
C1833 C1831 1.419 . S
C1833 C1834 1.362 . S
C1834 H1826 0.930 . S
C1834 C1833 1.362 . S
C1834 C1837 1.409 . S
C1835 H1827 0.930 . S
C1835 C1836 1.355 . S
C1835 C1837 1.415 . S
C1836 C1835 1.355 . S
C1836 C1838 1.419 . S
C1837 C1832 1.425 . S
C1837 C1834 1.409 . S
C1837 C1835 1.415 . S
C1838 H1828 0.930 . S
C1838 C1836 1.419 . S
C1838 C1839 1.362 . S
C1839 H1829 0.930 . S
C1839 C1832 1.409 . S
C1839 C1838 1.362 . S
H1840 C1846 0.930 . S
H1841 C1849 0.930 . S
H1842 C1850 0.930 . S
H1843 C1851 0.930 . S
H1844 C1854 0.930 . S
H1845 C1855 0.930 . S
C1846 H1840 0.930 . S
C1846 C1847 1.355 . S
C1846 C1848 1.415 . S
C1847 C1846 1.355 . S
C1847 C1849 1.419 . S
C1848 C1846 1.415 . S
C1848 C1853 1.425 . S
C1848 C1855 1.409 . S
C1849 H1841 0.930 . S
C1849 C1847 1.419 . S
C1849 C1850 1.362 . S
C1850 H1842 0.930 . S
C1850 C1849 1.362 . S
C1850 C1853 1.409 . S
C1851 H1843 0.930 . S
C1851 C1852 1.355 . S
C1851 C1853 1.415 . S
C1852 C1851 1.355 . S
C1852 C1854 1.419 . S
C1853 C1848 1.425 . S
C1853 C1850 1.409 . S
C1853 C1851 1.415 . S
C1854 H1844 0.930 . S
C1854 C1852 1.419 . S
C1854 C1855 1.362 . S
C1855 H1845 0.930 . S
C1855 C1848 1.409 . S
C1855 C1854 1.362 . S
H1856 C1862 0.930 . S
H1857 C1865 0.930 . S
H1858 C1866 0.930 . S
H1859 C1867 0.930 . S
H1860 C1870 0.930 . S
H1861 C1871 0.930 . S
C1862 H1856 0.930 . S
C1862 C1863 1.355 . S
C1862 C1864 1.415 . S
C1863 C1862 1.355 . S
C1863 C1865 1.419 . S
C1864 C1862 1.415 . S
C1864 C1869 1.425 . S
C1864 C1871 1.409 . S
C1865 H1857 0.930 . S
C1865 C1863 1.419 . S
C1865 C1866 1.362 . S
C1866 H1858 0.930 . S
C1866 C1865 1.362 . S
C1866 C1869 1.409 . S
C1867 H1859 0.930 . S
C1867 C1868 1.355 . S
C1867 C1869 1.415 . S
C1868 C1867 1.355 . S
C1868 C1870 1.419 . S
C1869 C1864 1.425 . S
C1869 C1866 1.409 . S
C1869 C1867 1.415 . S
C1870 H1860 0.930 . S
C1870 C1868 1.419 . S
C1870 C1871 1.362 . S
C1871 H1861 0.930 . S
C1871 C1864 1.409 . S
C1871 C1870 1.362 . S
H1872 C1878 0.930 . S
H1873 C1881 0.930 . S
H1874 C1882 0.930 . S
H1875 C1883 0.930 . S
H1876 C1886 0.930 . S
H1877 C1887 0.930 . S
C1878 H1872 0.930 . S
C1878 C1879 1.355 . S
C1878 C1880 1.415 . S
C1879 C1878 1.355 . S
C1879 C1881 1.419 . S
C1880 C1878 1.415 . S
C1880 C1885 1.425 . S
C1880 C1887 1.409 . S
C1881 H1873 0.930 . S
C1881 C1879 1.419 . S
C1881 C1882 1.362 . S
C1882 H1874 0.930 . S
C1882 C1881 1.362 . S
C1882 C1885 1.409 . S
C1883 H1875 0.930 . S
C1883 C1884 1.355 . S
C1883 C1885 1.415 . S
C1884 C1883 1.355 . S
C1884 C1886 1.419 . S
C1885 C1880 1.425 . S
C1885 C1882 1.409 . S
C1885 C1883 1.415 . S
C1886 H1876 0.930 . S
C1886 C1884 1.419 . S
C1886 C1887 1.362 . S
C1887 H1877 0.930 . S
C1887 C1880 1.409 . S
C1887 C1886 1.362 . S
H1888 C1894 0.930 . S
H1889 C1897 0.930 . S
H1890 C1898 0.930 . S
H1891 C1899 0.930 . S
H1892 C1902 0.930 . S
H1893 C1903 0.930 . S
C1894 H1888 0.930 . S
C1894 C1895 1.355 . S
C1894 C1896 1.415 . S
C1895 C1894 1.355 . S
C1895 C1897 1.419 . S
C1896 C1894 1.415 . S
C1896 C1901 1.425 . S
C1896 C1903 1.409 . S
C1897 H1889 0.930 . S
C1897 C1895 1.419 . S
C1897 C1898 1.362 . S
C1898 H1890 0.930 . S
C1898 C1897 1.362 . S
C1898 C1901 1.409 . S
C1899 H1891 0.930 . S
C1899 C1900 1.355 . S
C1899 C1901 1.415 . S
C1900 C1899 1.355 . S
C1900 C1902 1.419 . S
C1901 C1896 1.425 . S
C1901 C1898 1.409 . S
C1901 C1899 1.415 . S
C1902 H1892 0.930 . S
C1902 C1900 1.419 . S
C1902 C1903 1.362 . S
C1903 H1893 0.930 . S
C1903 C1896 1.409 . S
C1903 C1902 1.362 . S
H1904 C1910 0.930 . S
H1905 C1913 0.930 . S
H1906 C1914 0.930 . S
H1907 C1915 0.930 . S
H1908 C1918 0.930 . S
H1909 C1919 0.930 . S
C1910 H1904 0.930 . S
C1910 C1911 1.355 . S
C1910 C1912 1.415 . S
C1911 C1910 1.355 . S
C1911 C1913 1.419 . S
C1912 C1910 1.415 . S
C1912 C1917 1.425 . S
C1912 C1919 1.409 . S
C1913 H1905 0.930 . S
C1913 C1911 1.419 . S
C1913 C1914 1.362 . S
C1914 H1906 0.930 . S
C1914 C1913 1.362 . S
C1914 C1917 1.409 . S
C1915 H1907 0.930 . S
C1915 C1916 1.355 . S
C1915 C1917 1.415 . S
C1916 C1915 1.355 . S
C1916 C1918 1.419 . S
C1917 C1912 1.425 . S
C1917 C1914 1.409 . S
C1917 C1915 1.415 . S
C1918 H1908 0.930 . S
C1918 C1916 1.419 . S
C1918 C1919 1.362 . S
C1919 H1909 0.930 . S
C1919 C1912 1.409 . S
C1919 C1918 1.362 . S
H1920 C1926 0.930 . S
H1921 C1929 0.930 . S
H1922 C1930 0.930 . S
H1923 C1931 0.930 . S
H1924 C1934 0.930 . S
H1925 C1935 0.930 . S
C1926 H1920 0.930 . S
C1926 C1927 1.355 . S
C1926 C1928 1.415 . S
C1927 C1926 1.355 . S
C1927 C1929 1.419 . S
C1928 C1926 1.415 . S
C1928 C1933 1.425 . S
C1928 C1935 1.409 . S
C1929 H1921 0.930 . S
C1929 C1927 1.419 . S
C1929 C1930 1.362 . S
C1930 H1922 0.930 . S
C1930 C1929 1.362 . S
C1930 C1933 1.409 . S
C1931 H1923 0.930 . S
C1931 C1932 1.355 . S
C1931 C1933 1.415 . S
C1932 C1931 1.355 . S
C1932 C1934 1.419 . S
C1933 C1928 1.425 . S
C1933 C1930 1.409 . S
C1933 C1931 1.415 . S
C1934 H1924 0.930 . S
C1934 C1932 1.419 . S
C1934 C1935 1.362 . S
C1935 H1925 0.930 . S
C1935 C1928 1.409 . S
C1935 C1934 1.362 . S
H1936 C1942 0.930 . S
H1937 C1945 0.930 . S
H1938 C1946 0.930 . S
H1939 C1947 0.930 . S
H1940 C1950 0.930 . S
H1941 C1951 0.930 . S
C1942 H1936 0.930 . S
C1942 C1943 1.355 . S
C1942 C1944 1.415 . S
C1943 C1942 1.355 . S
C1943 C1945 1.419 . S
C1944 C1942 1.415 . S
C1944 C1949 1.425 . S
C1944 C1951 1.409 . S
C1945 H1937 0.930 . S
C1945 C1943 1.419 . S
C1945 C1946 1.362 . S
C1946 H1938 0.930 . S
C1946 C1945 1.362 . S
C1946 C1949 1.409 . S
C1947 H1939 0.930 . S
C1947 C1948 1.355 . S
C1947 C1949 1.415 . S
C1948 C1947 1.355 . S
C1948 C1950 1.419 . S
C1949 C1944 1.425 . S
C1949 C1946 1.409 . S
C1949 C1947 1.415 . S
C1950 H1940 0.930 . S
C1950 C1948 1.419 . S
C1950 C1951 1.362 . S
C1951 H1941 0.930 . S
C1951 C1944 1.409 . S
C1951 C1950 1.362 . S
H1952 C1958 0.930 . S
H1953 C1961 0.930 . S
H1954 C1962 0.930 . S
H1955 C1963 0.930 . S
H1956 C1966 0.930 . S
H1957 C1967 0.930 . S
C1958 H1952 0.930 . S
C1958 C1959 1.355 . S
C1958 C1960 1.415 . S
C1959 C1958 1.355 . S
C1959 C1961 1.419 . S
C1960 C1958 1.415 . S
C1960 C1965 1.425 . S
C1960 C1967 1.409 . S
C1961 H1953 0.930 . S
C1961 C1959 1.419 . S
C1961 C1962 1.362 . S
C1962 H1954 0.930 . S
C1962 C1961 1.362 . S
C1962 C1965 1.409 . S
C1963 H1955 0.930 . S
C1963 C1964 1.355 . S
C1963 C1965 1.415 . S
C1964 C1963 1.355 . S
C1964 C1966 1.419 . S
C1965 C1960 1.425 . S
C1965 C1962 1.409 . S
C1965 C1963 1.415 . S
C1966 H1956 0.930 . S
C1966 C1964 1.419 . S
C1966 C1967 1.362 . S
C1967 H1957 0.930 . S
C1967 C1960 1.409 . S
C1967 C1966 1.362 . S
H1968 C1974 0.930 . S
H1969 C1977 0.930 . S
H1970 C1978 0.930 . S
H1971 C1979 0.930 . S
H1972 C1982 0.930 . S
H1973 C1983 0.930 . S
C1974 H1968 0.930 . S
C1974 C1975 1.355 . S
C1974 C1976 1.415 . S
C1975 C1974 1.355 . S
C1975 C1977 1.419 . S
C1976 C1974 1.415 . S
C1976 C1981 1.425 . S
C1976 C1983 1.409 . S
C1977 H1969 0.930 . S
C1977 C1975 1.419 . S
C1977 C1978 1.362 . S
C1978 H1970 0.930 . S
C1978 C1977 1.362 . S
C1978 C1981 1.409 . S
C1979 H1971 0.930 . S
C1979 C1980 1.355 . S
C1979 C1981 1.415 . S
C1980 C1979 1.355 . S
C1980 C1982 1.419 . S
C1981 C1976 1.425 . S
C1981 C1978 1.409 . S
C1981 C1979 1.415 . S
C1982 H1972 0.930 . S
C1982 C1980 1.419 . S
C1982 C1983 1.362 . S
C1983 H1973 0.930 . S
C1983 C1976 1.409 . S
C1983 C1982 1.362 . S
H1984 C1990 0.930 . S
H1985 C1993 0.930 . S
H1986 C1994 0.930 . S
H1987 C1995 0.930 . S
H1988 C1998 0.930 . S
H1989 C1999 0.930 . S
C1990 H1984 0.930 . S
C1990 C1991 1.355 . S
C1990 C1992 1.415 . S
C1991 C1990 1.355 . S
C1991 C1993 1.419 . S
C1992 C1990 1.415 . S
C1992 C1997 1.425 . S
C1992 C1999 1.409 . S
C1993 H1985 0.930 . S
C1993 C1991 1.419 . S
C1993 C1994 1.362 . S
C1994 H1986 0.930 . S
C1994 C1993 1.362 . S
C1994 C1997 1.409 . S
C1995 H1987 0.930 . S
C1995 C1996 1.355 . S
C1995 C1997 1.415 . S
C1996 C1995 1.355 . S
C1996 C1998 1.419 . S
C1997 C1992 1.425 . S
C1997 C1994 1.409 . S
C1997 C1995 1.415 . S
C1998 H1988 0.930 . S
C1998 C1996 1.419 . S
C1998 C1999 1.362 . S
C1999 H1989 0.930 . S
C1999 C1992 1.409 . S
C1999 C1998 1.362 . S
H2000 C2006 0.930 . S
H2001 C2009 0.930 . S
H2002 C2010 0.930 . S
H2003 C2011 0.930 . S
H2004 C2014 0.930 . S
H2005 C2015 0.930 . S
C2006 H2000 0.930 . S
C2006 C2007 1.355 . S
C2006 C2008 1.415 . S
C2007 C2006 1.355 . S
C2007 C2009 1.419 . S
C2008 C2006 1.415 . S
C2008 C2013 1.425 . S
C2008 C2015 1.409 . S
C2009 H2001 0.930 . S
C2009 C2007 1.419 . S
C2009 C2010 1.362 . S
C2010 H2002 0.930 . S
C2010 C2009 1.362 . S
C2010 C2013 1.409 . S
C2011 H2003 0.930 . S
C2011 C2012 1.355 . S
C2011 C2013 1.415 . S
C2012 C2011 1.355 . S
C2012 C2014 1.419 . S
C2013 C2008 1.425 . S
C2013 C2010 1.409 . S
C2013 C2011 1.415 . S
C2014 H2004 0.930 . S
C2014 C2012 1.419 . S
C2014 C2015 1.362 . S
C2015 H2005 0.930 . S
C2015 C2008 1.409 . S
C2015 C2014 1.362 . S
H2016 C2022 0.930 . S
H2017 C2025 0.930 . S
H2018 C2026 0.930 . S
H2019 C2027 0.930 . S
H2020 C2030 0.930 . S
H2021 C2031 0.930 . S
C2022 H2016 0.930 . S
C2022 C2023 1.355 . S
C2022 C2024 1.415 . S
C2023 C2022 1.355 . S
C2023 C2025 1.419 . S
C2024 C2022 1.415 . S
C2024 C2029 1.425 . S
C2024 C2031 1.409 . S
C2025 H2017 0.930 . S
C2025 C2023 1.419 . S
C2025 C2026 1.362 . S
C2026 H2018 0.930 . S
C2026 C2025 1.362 . S
C2026 C2029 1.409 . S
C2027 H2019 0.930 . S
C2027 C2028 1.355 . S
C2027 C2029 1.415 . S
C2028 C2027 1.355 . S
C2028 C2030 1.419 . S
C2029 C2024 1.425 . S
C2029 C2026 1.409 . S
C2029 C2027 1.415 . S
C2030 H2020 0.930 . S
C2030 C2028 1.419 . S
C2030 C2031 1.362 . S
C2031 H2021 0.930 . S
C2031 C2024 1.409 . S
C2031 C2030 1.362 . S
H2032 C2038 0.930 . S
H2033 C2041 0.930 . S
H2034 C2042 0.930 . S
H2035 C2043 0.930 . S
H2036 C2046 0.930 . S
H2037 C2047 0.930 . S
C2038 H2032 0.930 . S
C2038 C2039 1.355 . S
C2038 C2040 1.415 . S
C2039 C2038 1.355 . S
C2039 C2041 1.419 . S
C2040 C2038 1.415 . S
C2040 C2045 1.425 . S
C2040 C2047 1.409 . S
C2041 H2033 0.930 . S
C2041 C2039 1.419 . S
C2041 C2042 1.362 . S
C2042 H2034 0.930 . S
C2042 C2041 1.362 . S
C2042 C2045 1.409 . S
C2043 H2035 0.930 . S
C2043 C2044 1.355 . S
C2043 C2045 1.415 . S
C2044 C2043 1.355 . S
C2044 C2046 1.419 . S
C2045 C2040 1.425 . S
C2045 C2042 1.409 . S
C2045 C2043 1.415 . S
C2046 H2036 0.930 . S
C2046 C2044 1.419 . S
C2046 C2047 1.362 . S
C2047 H2037 0.930 . S
C2047 C2040 1.409 . S
C2047 C2046 1.362 . S
H2048 C2054 0.930 . S
H2049 C2057 0.930 . S
H2050 C2058 0.930 . S
H2051 C2059 0.930 . S
H2052 C2062 0.930 . S
H2053 C2063 0.930 . S
C2054 H2048 0.930 . S
C2054 C2055 1.355 . S
C2054 C2056 1.415 . S
C2055 C2054 1.355 . S
C2055 C2057 1.419 . S
C2056 C2054 1.415 . S
C2056 C2061 1.425 . S
C2056 C2063 1.409 . S
C2057 H2049 0.930 . S
C2057 C2055 1.419 . S
C2057 C2058 1.362 . S
C2058 H2050 0.930 . S
C2058 C2057 1.362 . S
C2058 C2061 1.409 . S
C2059 H2051 0.930 . S
C2059 C2060 1.355 . S
C2059 C2061 1.415 . S
C2060 C2059 1.355 . S
C2060 C2062 1.419 . S
C2061 C2056 1.425 . S
C2061 C2058 1.409 . S
C2061 C2059 1.415 . S
C2062 H2052 0.930 . S
C2062 C2060 1.419 . S
C2062 C2063 1.362 . S
C2063 H2053 0.930 . S
C2063 C2056 1.409 . S
C2063 C2062 1.362 . S
H2064 C2070 0.930 . S
H2065 C2073 0.930 . S
H2066 C2074 0.930 . S
H2067 C2075 0.930 . S
H2068 C2078 0.930 . S
H2069 C2079 0.930 . S
C2070 H2064 0.930 . S
C2070 C2071 1.355 . S
C2070 C2072 1.415 . S
C2071 C2070 1.355 . S
C2071 C2073 1.419 . S
C2072 C2070 1.415 . S
C2072 C2077 1.425 . S
C2072 C2079 1.409 . S
C2073 H2065 0.930 . S
C2073 C2071 1.419 . S
C2073 C2074 1.362 . S
C2074 H2066 0.930 . S
C2074 C2073 1.362 . S
C2074 C2077 1.409 . S
C2075 H2067 0.930 . S
C2075 C2076 1.355 . S
C2075 C2077 1.415 . S
C2076 C2075 1.355 . S
C2076 C2078 1.419 . S
C2077 C2072 1.425 . S
C2077 C2074 1.409 . S
C2077 C2075 1.415 . S
C2078 H2068 0.930 . S
C2078 C2076 1.419 . S
C2078 C2079 1.362 . S
C2079 H2069 0.930 . S
C2079 C2072 1.409 . S
C2079 C2078 1.362 . S
H2080 C2086 0.930 . S
H2081 C2089 0.930 . S
H2082 C2090 0.930 . S
H2083 C2091 0.930 . S
H2084 C2094 0.930 . S
H2085 C2095 0.930 . S
C2086 H2080 0.930 . S
C2086 C2087 1.355 . S
C2086 C2088 1.415 . S
C2087 C2086 1.355 . S
C2087 C2089 1.419 . S
C2088 C2086 1.415 . S
C2088 C2093 1.425 . S
C2088 C2095 1.409 . S
C2089 H2081 0.930 . S
C2089 C2087 1.419 . S
C2089 C2090 1.362 . S
C2090 H2082 0.930 . S
C2090 C2089 1.362 . S
C2090 C2093 1.409 . S
C2091 H2083 0.930 . S
C2091 C2092 1.355 . S
C2091 C2093 1.415 . S
C2092 C2091 1.355 . S
C2092 C2094 1.419 . S
C2093 C2088 1.425 . S
C2093 C2090 1.409 . S
C2093 C2091 1.415 . S
C2094 H2084 0.930 . S
C2094 C2092 1.419 . S
C2094 C2095 1.362 . S
C2095 H2085 0.930 . S
C2095 C2088 1.409 . S
C2095 C2094 1.362 . S
H2096 C2102 0.930 . S
H2097 C2105 0.930 . S
H2098 C2106 0.930 . S
H2099 C2107 0.930 . S
H2100 C2110 0.930 . S
H2101 C2111 0.930 . S
C2102 H2096 0.930 . S
C2102 C2103 1.355 1_455 S
C2102 C2104 1.415 . S
C2103 C2102 1.355 1_655 S
C2103 C2105 1.419 . S
C2104 C2102 1.415 . S
C2104 C2109 1.425 1_455 S
C2104 C2111 1.409 . S
C2105 H2097 0.930 . S
C2105 C2103 1.419 . S
C2105 C2106 1.362 . S
C2106 H2098 0.930 . S
C2106 C2105 1.362 . S
C2106 C2109 1.409 . S
C2107 H2099 0.930 . S
C2107 C2108 1.355 1_655 S
C2107 C2109 1.415 . S
C2108 C2107 1.355 1_455 S
C2108 C2110 1.419 . S
C2109 C2104 1.425 1_655 S
C2109 C2106 1.409 . S
C2109 C2107 1.415 . S
C2110 H2100 0.930 . S
C2110 C2108 1.419 . S
C2110 C2111 1.362 . S
C2111 H2101 0.930 . S
C2111 C2104 1.409 . S
C2111 C2110 1.362 . S
H2112 C2118 0.930 . S
H2113 C2121 0.930 . S
H2114 C2122 0.930 . S
H2115 C2123 0.930 . S
H2116 C2126 0.930 . S
H2117 C2127 0.930 . S
C2118 H2112 0.930 . S
C2118 C2119 1.355 . S
C2118 C2120 1.415 . S
C2119 C2118 1.355 . S
C2119 C2121 1.419 . S
C2120 C2118 1.415 . S
C2120 C2125 1.425 1_455 S
C2120 C2127 1.409 1_455 S
C2121 H2113 0.930 . S
C2121 C2119 1.419 . S
C2121 C2122 1.362 . S
C2122 H2114 0.930 . S
C2122 C2121 1.362 . S
C2122 C2125 1.409 1_455 S
C2123 H2115 0.930 . S
C2123 C2124 1.355 . S
C2123 C2125 1.415 . S
C2124 C2123 1.355 . S
C2124 C2126 1.419 . S
C2125 C2120 1.425 1_655 S
C2125 C2122 1.409 1_655 S
C2125 C2123 1.415 . S
C2126 H2116 0.930 . S
C2126 C2124 1.419 . S
C2126 C2127 1.362 . S
C2127 H2117 0.930 . S
C2127 C2120 1.409 1_655 S
C2127 C2126 1.362 . S
H2128 C2134 0.930 . S
H2129 C2137 0.930 . S
H2130 C2138 0.930 . S
H2131 C2139 0.930 . S
H2132 C2142 0.930 . S
H2133 C2143 0.930 . S
C2134 H2128 0.930 . S
C2134 C2135 1.355 . S
C2134 C2136 1.415 . S
C2135 C2134 1.355 . S
C2135 C2137 1.419 . S
C2136 C2134 1.415 . S
C2136 C2141 1.425 . S
C2136 C2143 1.409 . S
C2137 H2129 0.930 . S
C2137 C2135 1.419 . S
C2137 C2138 1.362 . S
C2138 H2130 0.930 . S
C2138 C2137 1.362 . S
C2138 C2141 1.409 . S
C2139 H2131 0.930 . S
C2139 C2140 1.355 . S
C2139 C2141 1.415 . S
C2140 C2139 1.355 . S
C2140 C2142 1.419 . S
C2141 C2136 1.425 . S
C2141 C2138 1.409 . S
C2141 C2139 1.415 . S
C2142 H2132 0.930 . S
C2142 C2140 1.419 . S
C2142 C2143 1.362 . S
C2143 H2133 0.930 . S
C2143 C2136 1.409 . S
C2143 C2142 1.362 . S
H2144 C2150 0.930 . S
H2145 C2153 0.930 . S
H2146 C2154 0.930 . S
H2147 C2155 0.930 . S
H2148 C2158 0.930 . S
H2149 C2159 0.930 . S
C2150 H2144 0.930 . S
C2150 C2151 1.355 . S
C2150 C2152 1.415 . S
C2151 C2150 1.355 . S
C2151 C2153 1.419 . S
C2152 C2150 1.415 . S
C2152 C2157 1.425 . S
C2152 C2159 1.409 . S
C2153 H2145 0.930 . S
C2153 C2151 1.419 . S
C2153 C2154 1.362 . S
C2154 H2146 0.930 . S
C2154 C2153 1.362 . S
C2154 C2157 1.409 . S
C2155 H2147 0.930 . S
C2155 C2156 1.355 . S
C2155 C2157 1.415 . S
C2156 C2155 1.355 . S
C2156 C2158 1.419 . S
C2157 C2152 1.425 . S
C2157 C2154 1.409 . S
C2157 C2155 1.415 . S
C2158 H2148 0.930 . S
C2158 C2156 1.419 . S
C2158 C2159 1.362 . S
C2159 H2149 0.930 . S
C2159 C2152 1.409 . S
C2159 C2158 1.362 . S
H2160 C2166 0.930 . S
H2161 C2169 0.930 . S
H2162 C2170 0.930 . S
H2163 C2171 0.930 . S
H2164 C2174 0.930 . S
H2165 C2175 0.930 . S
C2166 H2160 0.930 . S
C2166 C2167 1.355 . S
C2166 C2168 1.415 . S
C2167 C2166 1.355 . S
C2167 C2169 1.419 . S
C2168 C2166 1.415 . S
C2168 C2173 1.425 . S
C2168 C2175 1.409 . S
C2169 H2161 0.930 . S
C2169 C2167 1.419 . S
C2169 C2170 1.362 . S
C2170 H2162 0.930 . S
C2170 C2169 1.362 . S
C2170 C2173 1.409 . S
C2171 H2163 0.930 . S
C2171 C2172 1.355 . S
C2171 C2173 1.415 . S
C2172 C2171 1.355 . S
C2172 C2174 1.419 . S
C2173 C2168 1.425 . S
C2173 C2170 1.409 . S
C2173 C2171 1.415 . S
C2174 H2164 0.930 . S
C2174 C2172 1.419 . S
C2174 C2175 1.362 . S
C2175 H2165 0.930 . S
C2175 C2168 1.409 . S
C2175 C2174 1.362 . S
H2176 C2182 0.930 . S
H2177 C2185 0.930 . S
H2178 C2186 0.930 1_455 S
H2179 C2187 0.930 . S
H2180 C2190 0.930 . S
H2181 C2191 0.930 1_655 S
C2182 H2176 0.930 . S
C2182 C2183 1.355 . S
C2182 C2184 1.415 . S
C2183 C2182 1.355 . S
C2183 C2185 1.419 . S
C2184 C2182 1.415 . S
C2184 C2189 1.425 1_655 S
C2184 C2191 1.409 1_655 S
C2185 H2177 0.930 . S
C2185 C2183 1.419 . S
C2185 C2186 1.362 . S
C2186 H2178 0.930 1_655 S
C2186 C2185 1.362 . S
C2186 C2189 1.409 1_655 S
C2187 H2179 0.930 . S
C2187 C2188 1.355 . S
C2187 C2189 1.415 . S
C2188 C2187 1.355 . S
C2188 C2190 1.419 . S
C2189 C2184 1.425 1_455 S
C2189 C2186 1.409 1_455 S
C2189 C2187 1.415 . S
C2190 H2180 0.930 . S
C2190 C2188 1.419 . S
C2190 C2191 1.362 . S
C2191 H2181 0.930 1_455 S
C2191 C2184 1.409 1_455 S
C2191 C2190 1.362 . S
H2192 C2198 0.930 . S
H2193 C2201 0.930 . S
H2194 C2202 0.930 . S
H2195 C2203 0.930 . S
H2196 C2206 0.930 . S
H2197 C2207 0.930 . S
C2198 H2192 0.930 . S
C2198 C2199 1.355 1_455 S
C2198 C2200 1.415 . S
C2199 C2198 1.355 1_655 S
C2199 C2201 1.419 . S
C2200 C2198 1.415 . S
C2200 C2205 1.425 1_455 S
C2200 C2207 1.409 . S
C2201 H2193 0.930 . S
C2201 C2199 1.419 . S
C2201 C2202 1.362 . S
C2202 H2194 0.930 . S
C2202 C2201 1.362 . S
C2202 C2205 1.409 . S
C2203 H2195 0.930 . S
C2203 C2204 1.355 1_655 S
C2203 C2205 1.415 . S
C2204 C2203 1.355 1_455 S
C2204 C2206 1.419 . S
C2205 C2200 1.425 1_655 S
C2205 C2202 1.409 . S
C2205 C2203 1.415 . S
C2206 H2196 0.930 . S
C2206 C2204 1.419 . S
C2206 C2207 1.362 . S
C2207 H2197 0.930 . S
C2207 C2200 1.409 . S
C2207 C2206 1.362 . S
H2208 C2214 0.930 . S
H2209 C2217 0.930 . S
H2210 C2218 0.930 . S
H2211 C2219 0.930 . S
H2212 C2222 0.930 . S
H2213 C2223 0.930 . S
C2214 H2208 0.930 . S
C2214 C2215 1.355 . S
C2214 C2216 1.415 . S
C2215 C2214 1.355 . S
C2215 C2217 1.419 . S
C2216 C2214 1.415 . S
C2216 C2221 1.425 . S
C2216 C2223 1.409 . S
C2217 H2209 0.930 . S
C2217 C2215 1.419 . S
C2217 C2218 1.362 . S
C2218 H2210 0.930 . S
C2218 C2217 1.362 . S
C2218 C2221 1.409 . S
C2219 H2211 0.930 . S
C2219 C2220 1.355 . S
C2219 C2221 1.415 . S
C2220 C2219 1.355 . S
C2220 C2222 1.419 . S
C2221 C2216 1.425 . S
C2221 C2218 1.409 . S
C2221 C2219 1.415 . S
C2222 H2212 0.930 . S
C2222 C2220 1.419 . S
C2222 C2223 1.362 . S
C2223 H2213 0.930 . S
C2223 C2216 1.409 . S
C2223 C2222 1.362 . S
H2224 C2230 0.930 . S
H2225 C2233 0.930 . S
H2226 C2234 0.930 . S
H2227 C2235 0.930 . S
H2228 C2238 0.930 . S
H2229 C2239 0.930 . S
C2230 H2224 0.930 . S
C2230 C2231 1.355 1_655 S
C2230 C2232 1.415 . S
C2231 C2230 1.355 1_455 S
C2231 C2233 1.419 . S
C2232 C2230 1.415 . S
C2232 C2237 1.425 1_655 S
C2232 C2239 1.409 . S
C2233 H2225 0.930 . S
C2233 C2231 1.419 . S
C2233 C2234 1.362 . S
C2234 H2226 0.930 . S
C2234 C2233 1.362 . S
C2234 C2237 1.409 . S
C2235 H2227 0.930 . S
C2235 C2236 1.355 1_455 S
C2235 C2237 1.415 . S
C2236 C2235 1.355 1_655 S
C2236 C2238 1.419 . S
C2237 C2232 1.425 1_455 S
C2237 C2234 1.409 . S
C2237 C2235 1.415 . S
C2238 H2228 0.930 . S
C2238 C2236 1.419 . S
C2238 C2239 1.362 . S
C2239 H2229 0.930 . S
C2239 C2232 1.409 . S
C2239 C2238 1.362 . S
H2240 C2246 0.930 . S
H2241 C2249 0.930 . S
H2242 C2250 0.930 . S
H2243 C2251 0.930 . S
H2244 C2254 0.930 . S
H2245 C2255 0.930 . S
C2246 H2240 0.930 . S
C2246 C2247 1.355 . S
C2246 C2248 1.415 . S
C2247 C2246 1.355 . S
C2247 C2249 1.419 . S
C2248 C2246 1.415 . S
C2248 C2253 1.425 1_655 S
C2248 C2255 1.409 1_655 S
C2249 H2241 0.930 . S
C2249 C2247 1.419 . S
C2249 C2250 1.362 . S
C2250 H2242 0.930 . S
C2250 C2249 1.362 . S
C2250 C2253 1.409 1_655 S
C2251 H2243 0.930 . S
C2251 C2252 1.355 . S
C2251 C2253 1.415 . S
C2252 C2251 1.355 . S
C2252 C2254 1.419 . S
C2253 C2248 1.425 1_455 S
C2253 C2250 1.409 1_455 S
C2253 C2251 1.415 . S
C2254 H2244 0.930 . S
C2254 C2252 1.419 . S
C2254 C2255 1.362 . S
C2255 H2245 0.930 . S
C2255 C2248 1.409 1_455 S
C2255 C2254 1.362 . S
H2256 C2262 0.930 . S
H2257 C2265 0.930 . S
H2258 C2266 0.930 . S
H2259 C2267 0.930 . S
H2260 C2270 0.930 . S
H2261 C2271 0.930 . S
C2262 H2256 0.930 . S
C2262 C2263 1.355 . S
C2262 C2264 1.415 . S
C2263 C2262 1.355 . S
C2263 C2265 1.419 . S
C2264 C2262 1.415 . S
C2264 C2269 1.425 . S
C2264 C2271 1.409 . S
C2265 H2257 0.930 . S
C2265 C2263 1.419 . S
C2265 C2266 1.362 . S
C2266 H2258 0.930 . S
C2266 C2265 1.362 . S
C2266 C2269 1.409 . S
C2267 H2259 0.930 . S
C2267 C2268 1.355 . S
C2267 C2269 1.415 . S
C2268 C2267 1.355 . S
C2268 C2270 1.419 . S
C2269 C2264 1.425 . S
C2269 C2266 1.409 . S
C2269 C2267 1.415 . S
C2270 H2260 0.930 . S
C2270 C2268 1.419 . S
C2270 C2271 1.362 . S
C2271 H2261 0.930 . S
C2271 C2264 1.409 . S
C2271 C2270 1.362 . S
H2272 C2278 0.930 . S
H2273 C2281 0.930 . S
H2274 C2282 0.930 . S
H2275 C2283 0.930 . S
H2276 C2286 0.930 . S
H2277 C2287 0.930 . S
C2278 H2272 0.930 . S
C2278 C2279 1.355 . S
C2278 C2280 1.415 . S
C2279 C2278 1.355 . S
C2279 C2281 1.419 . S
C2280 C2278 1.415 . S
C2280 C2285 1.425 . S
C2280 C2287 1.409 . S
C2281 H2273 0.930 . S
C2281 C2279 1.419 . S
C2281 C2282 1.362 . S
C2282 H2274 0.930 . S
C2282 C2281 1.362 . S
C2282 C2285 1.409 . S
C2283 H2275 0.930 . S
C2283 C2284 1.355 . S
C2283 C2285 1.415 . S
C2284 C2283 1.355 . S
C2284 C2286 1.419 . S
C2285 C2280 1.425 . S
C2285 C2282 1.409 . S
C2285 C2283 1.415 . S
C2286 H2276 0.930 . S
C2286 C2284 1.419 . S
C2286 C2287 1.362 . S
C2287 H2277 0.930 . S
C2287 C2280 1.409 . S
C2287 C2286 1.362 . S
H2288 C2294 0.930 . S
H2289 C2297 0.930 . S
H2290 C2298 0.930 . S
H2291 C2299 0.930 . S
H2292 C2302 0.930 . S
H2293 C2303 0.930 . S
C2294 H2288 0.930 . S
C2294 C2295 1.355 . S
C2294 C2296 1.415 . S
C2295 C2294 1.355 . S
C2295 C2297 1.419 . S
C2296 C2294 1.415 . S
C2296 C2301 1.425 . S
C2296 C2303 1.409 . S
C2297 H2289 0.930 . S
C2297 C2295 1.419 . S
C2297 C2298 1.362 . S
C2298 H2290 0.930 . S
C2298 C2297 1.362 . S
C2298 C2301 1.409 . S
C2299 H2291 0.930 . S
C2299 C2300 1.355 . S
C2299 C2301 1.415 . S
C2300 C2299 1.355 . S
C2300 C2302 1.419 . S
C2301 C2296 1.425 . S
C2301 C2298 1.409 . S
C2301 C2299 1.415 . S
C2302 H2292 0.930 . S
C2302 C2300 1.419 . S
C2302 C2303 1.362 . S
C2303 H2293 0.930 . S
C2303 C2296 1.409 . S
C2303 C2302 1.362 . S
H2304 C2310 0.930 . S
H2305 C2313 0.930 . S
H2306 C2314 0.930 . S
H2307 C2315 0.930 . S
H2308 C2318 0.930 . S
H2309 C2319 0.930 . S
C2310 H2304 0.930 . S
C2310 C2311 1.355 . S
C2310 C2312 1.415 . S
C2311 C2310 1.355 . S
C2311 C2313 1.419 . S
C2312 C2310 1.415 . S
C2312 C2317 1.425 1_455 S
C2312 C2319 1.409 1_455 S
C2313 H2305 0.930 . S
C2313 C2311 1.419 . S
C2313 C2314 1.362 . S
C2314 H2306 0.930 . S
C2314 C2313 1.362 . S
C2314 C2317 1.409 1_455 S
C2315 H2307 0.930 . S
C2315 C2316 1.355 . S
C2315 C2317 1.415 . S
C2316 C2315 1.355 . S
C2316 C2318 1.419 . S
C2317 C2312 1.425 1_655 S
C2317 C2314 1.409 1_655 S
C2317 C2315 1.415 . S
C2318 H2308 0.930 . S
C2318 C2316 1.419 . S
C2318 C2319 1.362 . S
C2319 H2309 0.930 . S
C2319 C2312 1.409 1_655 S
C2319 C2318 1.362 . S
H2320 C2326 0.930 . S
H2321 C2329 0.930 . S
H2322 C2330 0.930 . S
H2323 C2331 0.930 . S
H2324 C2334 0.930 . S
H2325 C2335 0.930 . S
C2326 H2320 0.930 . S
C2326 C2327 1.355 1_655 S
C2326 C2328 1.415 . S
C2327 C2326 1.355 1_455 S
C2327 C2329 1.419 . S
C2328 C2326 1.415 . S
C2328 C2333 1.425 1_655 S
C2328 C2335 1.409 . S
C2329 H2321 0.930 . S
C2329 C2327 1.419 . S
C2329 C2330 1.362 . S
C2330 H2322 0.930 . S
C2330 C2329 1.362 . S
C2330 C2333 1.409 . S
C2331 H2323 0.930 . S
C2331 C2332 1.355 1_455 S
C2331 C2333 1.415 . S
C2332 C2331 1.355 1_655 S
C2332 C2334 1.419 . S
C2333 C2328 1.425 1_455 S
C2333 C2330 1.409 . S
C2333 C2331 1.415 . S
C2334 H2324 0.930 . S
C2334 C2332 1.419 . S
C2334 C2335 1.362 . S
C2335 H2325 0.930 . S
C2335 C2328 1.409 . S
C2335 C2334 1.362 . S
C1063 C18 1.430 . S
C1068 C249 1.470 . S
C1079 C51 1.419 . S
C1084 C150 1.437 . S
C1095 C84 1.443 . S
C1100 C183 1.471 . S
C1111 C117 1.468 . S
C1116 C216 1.453 . S
C1127 C513 1.465 . S
C1132 C282 1.423 . S
C1143 C315 1.427 . S
C1148 C414 1.425 . S
C1159 C447 1.418 . S
C1164 C348 1.459 . S
C1175 C381 1.471 . S
C1180 C480 1.442 . S
C1191 C546 1.460 . S
C1196 C777 1.463 . S
C1207 C678 1.426 . S
C1212 C579 1.426 . S
C1223 C612 1.451 . S
C1228 C711 1.416 . S
C1239 C645 1.417 . S
C1244 C744 1.442 . S
C1255 C810 1.419 . S
C1260 C1041 1.436 . S
C1271 C843 1.446 . S
C1276 C942 1.416 . S
C1287 C975 1.431 . S
C1292 C876 1.470 . S
C1303 C1008 1.426 . S
C1308 C909 1.427 . S
C1319 C205 1.543 . S
C1324 C7 1.541 . S
C1335 C40 1.542 . S
C1340 C238 1.545 . S
C1351 C73 1.556 . S
C1356 C139 1.561 . S
C1367 C106 1.606 . S
C1372 C172 1.606 . S
C1383 C271 1.606 . S
C1388 C469 1.606 . S
C1399 C502 1.575 . S
C1404 C304 1.581 . S
C1415 C403 1.590 . S
C1420 C337 1.595 . S
C1431 C436 1.606 . S
C1436 C370 1.606 . S
C1447 C535 1.565 . S
C1452 C733 1.572 . S
C1463 C766 1.577 . S
C1468 C568 1.571 . S
C1479 C667 1.543 . S
C1484 C601 1.541 . S
C1495 C634 1.586 . S
C1500 C700 1.581 . S
C1511 C997 1.540 . S
C1516 C799 1.540 . S
C1527 C832 1.544 . S
C1532 C1030 1.548 . S
C1543 C931 1.542 . S
C1548 C865 1.540 . S
C1559 C964 1.542 . S
C1564 C898 1.544 . S
C1575 N926 1.324 . S
C1580 N13 1.329 . S
C1591 N431 1.327 . S
C1596 N46 1.332 . S
C1607 N992 1.338 . S
C1612 N79 1.335 . S
C1623 N112 1.326 . S
C1628 N497 1.320 . S
C1639 N794 1.288 . S
C1644 N145 1.289 . S
C1655 N299 1.332 . S
C1660 N178 1.336 . S
C1671 N860 1.290 . S
C1676 N211 1.294 . S
C1687 N244 1.300 . S
C1692 N365 1.305 . S
C1703 N277 1.323 . S
C1708 N662 1.328 . S
C1719 N310 1.325 . S
C1724 N167 1.319 . S
C1735 N343 1.333 . S
C1740 N728 1.336 . S
C1751 N233 1.333 . S
C1756 N376 1.337 . S
C1767 N530 1.307 . S
C1772 N409 1.302 . S
C1783 N442 1.326 . S
C1788 N35 1.320 . S
C1799 N475 1.295 . S
C1804 N596 1.299 . S
C1815 N508 1.310 . S
C1820 N101 1.315 . S
C1831 N398 1.340 . S
C1836 N541 1.341 . S
C1847 N574 1.300 . S
C1852 N959 1.295 . S
C1863 N464 1.309 . S
C1868 N607 1.315 . S
C1879 N640 1.291 . S
C1884 N1025 1.288 . S
C1895 N673 1.311 . S
C1900 N266 1.305 . S
C1911 N706 1.320 . S
C1916 N827 1.314 . S
C1927 N332 1.341 . S
C1932 N739 1.342 . S
C1943 N772 1.340 . S
C1948 N893 1.341 . S
C1959 N134 1.328 . S
C1964 N805 1.333 . S
C1975 N695 1.327 . S
C1980 N838 1.323 . S
C1991 N200 1.341 . S
C1996 N871 1.342 . S
C2007 N761 1.290 . S
C2012 N904 1.289 . S
C2023 N2 1.330 . S
C2028 N937 1.326 . S
C2039 N563 1.292 . S
C2044 N970 1.296 . S
C2055 N1003 1.340 . S
C2060 N68 1.338 . S
C2071 N629 1.295 . S
C2076 N1036 1.300 . S
C2087 C615 1.036 . S
C2092 C21 1.020 . S
C2103 C648 1.027 . S
C2108 C54 1.032 . S
C2119 C87 1.038 . S
C2124 C549 1.009 . S
C2135 C120 1.038 . S
C2140 C582 1.010 . S
C2151 C747 1.021 . S
C2156 C153 1.036 . S
C2167 C186 1.029 . S
C2172 C780 0.996 . S
C2183 C681 1.023 . S
C2188 C219 1.035 . S
C2199 C714 1.035 . S
C2204 C252 1.024 . S
C2215 C879 0.997 . S
C2220 C285 1.010 . S
C2231 C912 1.029 . S
C2236 C318 1.031 . S
C2247 C351 0.996 . S
C2252 C813 1.014 . S
C2263 C384 1.012 . S
C2268 C846 0.996 . S
C2279 C417 1.001 . S
C2284 C1011 1.035 . S
C2295 C450 1.003 . S
C2300 C1044 1.002 . S
C2311 C945 1.016 . S
C2316 C483 0.995 . S
C2327 C978 1.029 . S
C2332 C516 1.030 . S
