# Generated by pormake.
# Topology unh, (4)-cn, num edge types: 1
# Building blocks:
#     Node 0, Type 0, BuildingBlock: GALJAG_clean_sbu_0, # of connection points: 4
#     Node 1, Type 0, BuildingBlock: GALJAG_clean_sbu_0, # of connection points: 4
#     Node 2, Type 0, BuildingBlock: GALJAG_clean_sbu_0, # of connection points: 4
#     Node 3, Type 0, BuildingBlock: GALJAG_clean_sbu_0, # of connection points: 4
#     Node 4, Type 0, BuildingBlock: GALJAG_clean_sbu_0, # of connection points: 4
#     Node 5, Type 0, BuildingBlock: GALJAG_clean_sbu_0, # of connection points: 4
#     Edge 6, Type (0, 0), BuildingBlock: KIFKEQ_clean_linker_1, # of connection points: 2
#     Edge 7, Type (0, 0), BuildingBlock: KIFKEQ_clean_linker_1, # of connection points: 2
#     Edge 8, Type (0, 0), BuildingBlock: KIFKEQ_clean_linker_1, # of connection points: 2
#     Edge 9, Type (0, 0), BuildingBlock: KIFKEQ_clean_linker_1, # of connection points: 2
#     Edge 10, Type (0, 0), BuildingBlock: KIFKEQ_clean_linker_1, # of connection points: 2
#     Edge 11, Type (0, 0), BuildingBlock: KIFKEQ_clean_linker_1, # of connection points: 2
#     Edge 12, Type (0, 0), BuildingBlock: KIFKEQ_clean_linker_1, # of connection points: 2
#     Edge 13, Type (0, 0), BuildingBlock: KIFKEQ_clean_linker_1, # of connection points: 2
#     Edge 14, Type (0, 0), BuildingBlock: KIFKEQ_clean_linker_1, # of connection points: 2
#     Edge 15, Type (0, 0), BuildingBlock: KIFKEQ_clean_linker_1, # of connection points: 2
#     Edge 16, Type (0, 0), BuildingBlock: KIFKEQ_clean_linker_1, # of connection points: 2
#     Edge 17, Type (0, 0), BuildingBlock: KIFKEQ_clean_linker_1, # of connection points: 2
# Relax obj value: 0.030
# Max RMSD: 0.132
# Mean RMSD: 0.132
data_MOF--net-unh--node1-GALJAG_clean_sbu_0--edge1-KIFKEQ_clean_linker_1
_symmetry_space_group_name_H-M    P1
_symmetry_Int_Tables_number       1
_symmetry_cell_setting            triclinic
loop_
_symmetry_equiv_pos_as_xyz
'x, y, z'
_cell_length_a     46.194156
_cell_length_b     46.223877
_cell_length_c     20.740745
_cell_angle_alpha  89.938836
_cell_angle_beta   89.972179
_cell_angle_gamma 119.92004
loop_
_atom_site_label
_atom_site_type_symbol
_atom_site_fract_x
_atom_site_fract_y
_atom_site_fract_z
_atom_type_partial_charge
In0 In 0.13417 0.56399 0.073 0.0
O1 O 0.10698 0.51863 0.00666 0.0
O2 O 0.11174 0.56491 0.97681 0.0
C3 C 0.16928 0.5459 0.15051 0.0
C4 C 0.08167 0.55309 0.1467 0.0
C5 C 0.18385 0.62188 0.02616 0.0
O6 O 0.16054 0.53418 0.09431 0.0
O7 O 0.15964 0.56592 0.16751 0.0
O8 O 0.15824 0.62011 0.05227 0.0
O9 O 0.18409 0.59472 0.02411 0.0
C10 C 0.1003 0.53436 0.96485 0.0
O11 O 0.10741 0.58172 0.14293 0.0
O12 O 0.08291 0.53078 0.11408 0.0
In13 In 0.56543 0.13696 0.24389 0.0
O14 O 0.58445 0.11588 0.16531 0.0
O15 O 0.53205 0.0915 0.18492 0.0
C16 C 0.62195 0.18165 0.304 0.0
C17 C 0.53711 0.08929 0.33401 0.0
C18 C 0.54562 0.17607 0.18425 0.0
O19 O 0.62245 0.16811 0.25142 0.0
O20 O 0.59318 0.17276 0.32548 0.0
O21 O 0.53479 0.16374 0.23942 0.0
O22 O 0.5658 0.16835 0.15981 0.0
C23 C 0.55553 0.09184 0.15314 0.0
O24 O 0.52355 0.10599 0.31617 0.0
O25 O 0.56497 0.09772 0.3082 0.0
In26 In 0.42479 0.56453 0.41349 0.0
O27 O 0.47302 0.57826 0.35903 0.0
O28 O 0.42674 0.54869 0.31091 0.0
C29 C 0.45249 0.62361 0.47605 0.0
C30 C 0.42598 0.51922 0.4942 0.0
C31 C 0.36417 0.5529 0.37363 0.0
O32 O 0.45467 0.62158 0.41575 0.0
O33 O 0.43748 0.59591 0.5048 0.0
O34 O 0.36954 0.52944 0.38789 0.0
O35 O 0.38906 0.58169 0.37999 0.0
C36 C 0.45816 0.56232 0.30883 0.0
O37 O 0.40697 0.53113 0.5035 0.0
O38 O 0.44367 0.52971 0.44415 0.0
In39 In 0.85818 0.4337 0.57702 0.0
O40 O 0.88877 0.41839 0.64101 0.0
O41 O 0.89821 0.46841 0.64577 0.0
C42 C 0.81353 0.37583 0.52143 0.0
C43 C 0.90137 0.4641 0.47981 0.0
C44 C 0.81556 0.44853 0.63736 0.0
O45 O 0.82737 0.37651 0.57446 0.0
O46 O 0.82211 0.40407 0.49748 0.0
O47 O 0.82901 0.46171 0.58404 0.0
O48 O 0.82384 0.42832 0.65978 0.0
C49 C 0.90591 0.44723 0.66502 0.0
O50 O 0.88612 0.47734 0.5063 0.0
O51 O 0.89439 0.43595 0.50209 0.0
In52 In 0.43589 0.85786 0.75194 0.0
O53 O 0.42072 0.88439 0.6771 0.0
O54 O 0.47099 0.89399 0.67855 0.0
C55 C 0.37979 0.81761 0.81869 0.0
C56 C 0.47087 0.9067 0.83688 0.0
C57 C 0.44913 0.81344 0.69487 0.0
O58 O 0.37887 0.831 0.76609 0.0
O59 O 0.40865 0.82492 0.83696 0.0
O60 O 0.46576 0.8307 0.74261 0.0
O61 O 0.42595 0.8185 0.67679 0.0
C62 C 0.44992 0.90045 0.65361 0.0
O63 O 0.47692 0.88316 0.82799 0.0
O64 O 0.44688 0.90487 0.8046 0.0
In65 In 0.56081 0.42722 0.90915 0.0
O66 O 0.51846 0.40775 0.83483 0.0
O67 O 0.54815 0.46025 0.84954 0.0
C68 C 0.54689 0.36963 0.96818 0.0
C69 C 0.54733 0.4594 0.00167 0.0
C70 C 0.61956 0.44509 0.8499 0.0
O71 O 0.53315 0.37008 0.91582 0.0
O72 O 0.56757 0.398 0.98999 0.0
O73 O 0.61814 0.45485 0.90603 0.0
O74 O 0.59159 0.42679 0.82399 0.0
C75 C 0.52385 0.43665 0.82061 0.0
O76 O 0.57545 0.47257 0.9738 0.0
O77 O 0.52688 0.43 0.98401 0.0
H78 H 0.09377 0.56361 0.85691 0.0
H79 H 0.05324 0.46834 0.95324 0.0
H80 H 0.04789 0.53966 0.78015 0.0
H81 H 0.00645 0.44444 0.87737 0.0
H82 H 0.93536 0.41046 0.69938 0.0
H83 H 0.98565 0.4291 0.76543 0.0
H84 H 0.99 0.52366 0.79592 0.0
H85 H 0.94075 0.50549 0.72956 0.0
C86 C 0.07528 0.53737 0.86095 0.0
C87 C 0.0768 0.51791 0.91132 0.0
C88 C 0.04885 0.5237 0.81737 0.0
C89 C 0.02306 0.49039 0.82378 0.0
C90 C 0.0259 0.47019 0.87124 0.0
C91 C 0.05268 0.48385 0.91462 0.0
C92 C 0.94708 0.43513 0.72063 0.0
C93 C 0.93431 0.45662 0.70905 0.0
C94 C 0.97582 0.44579 0.75832 0.0
C95 C 0.99218 0.47809 0.78483 0.0
C96 C 0.97861 0.499 0.77468 0.0
C97 C 0.95014 0.48845 0.73712 0.0
H98 H 0.48277 0.96986 0.82389 0.0
H99 H 0.50245 0.90665 0.94822 0.0
H100 H 0.51065 0.01583 0.90053 0.0
H101 H 0.5294 0.9526 0.02632 0.0
H102 H 0.50658 0.0275 0.16124 0.0
H103 H 0.49317 0.98277 0.08376 0.0
H104 H 0.57579 0.05083 0.96417 0.0
H105 H 0.59016 0.09567 0.04334 0.0
C106 C 0.49337 0.96598 0.8674 0.0
C107 C 0.49035 0.93479 0.88067 0.0
C108 C 0.50951 0.99229 0.91076 0.0
C109 C 0.52219 0.98758 0.9687 0.0
C110 C 0.51997 0.95669 0.98144 0.0
C111 C 0.50458 0.93054 0.93708 0.0
C112 C 0.52214 0.0328 0.11881 0.0
C113 C 0.54921 0.06495 0.10772 0.0
C114 C 0.51465 0.0072 0.075 0.0
C115 C 0.53364 0.01353 0.01868 0.0
C116 C 0.56107 0.04551 0.00781 0.0
C117 C 0.56918 0.07101 0.05273 0.0
H118 H 0.43151 0.53157 0.195 0.0
H119 H 0.52329 0.57692 0.30433 0.0
H120 H 0.45605 0.51037 0.11767 0.0
H121 H 0.54775 0.55515 0.2271 0.0
H122 H 0.5844 0.52437 0.04247 0.0
H123 H 0.56555 0.5548 0.11177 0.0
H124 H 0.46952 0.46533 0.1324 0.0
H125 H 0.48803 0.43527 0.06351 0.0
C126 C 0.45714 0.53749 0.20189 0.0
C127 C 0.47535 0.55551 0.25609 0.0
C128 C 0.47111 0.52517 0.15785 0.0
C129 C 0.50355 0.53051 0.16719 0.0
C130 C 0.52269 0.55063 0.21877 0.0
C131 C 0.50868 0.56306 0.26295 0.0
C132 C 0.55937 0.51127 0.0623 0.0
C133 C 0.53763 0.4775 0.04744 0.0
C134 C 0.54861 0.52866 0.1018 0.0
C135 C 0.5159 0.51257 0.12652 0.0
C136 C 0.4946 0.47862 0.1128 0.0
C137 C 0.50533 0.46131 0.07379 0.0
H138 H 0.92788 0.52771 0.43064 0.0
H139 H 0.93065 0.43606 0.41098 0.0
H140 H 0.96995 0.55307 0.34463 0.0
H141 H 0.97226 0.46114 0.32667 0.0
H142 H 0.02026 0.49863 0.13866 0.0
H143 H 0.97441 0.48019 0.21481 0.0
H144 H 0.0315 0.57018 0.32594 0.0
H145 H 0.07761 0.58916 0.24817 0.0
C146 C 0.93733 0.513 0.40781 0.0
C147 C 0.92591 0.47989 0.42726 0.0
C148 C 0.96145 0.52753 0.35898 0.0
C149 C 0.97409 0.50896 0.32855 0.0
C150 C 0.96253 0.4759 0.34828 0.0
C151 C 0.9388 0.46158 0.39695 0.0
C152 C 0.02292 0.51476 0.1788 0.0
C153 C 0.05268 0.54506 0.18819 0.0
C154 C 0.99667 0.50416 0.22246 0.0
C155 C -0.00035 0.52345 0.27694 0.0
C156 C 0.02855 0.55484 0.28428 0.0
C157 C 0.05493 0.56563 0.24002 0.0
H158 H 0.48526 0.07251 0.41885 0.0
H159 H 0.55265 0.04061 0.3472 0.0
H160 H 0.46145 0.02532 0.49462 0.0
H161 H 0.52829 0.99328 0.41988 0.0
H162 H 0.51243 0.94139 0.60966 0.0
H163 H 0.53084 0.98637 0.53242 0.0
H164 H 0.42892 0.96416 0.50659 0.0
H165 H 0.41042 0.91925 0.58683 0.0
C166 C 0.49474 0.05528 0.41901 0.0
C167 C 0.52121 0.06053 0.37822 0.0
C168 C 0.48099 0.02818 0.4619 0.0
C169 C 0.49334 0.00582 0.46397 0.0
C170 C 0.51882 0.0105 0.42094 0.0
C171 C 0.53276 0.03764 0.37911 0.0
C172 C 0.49381 0.94587 0.58739 0.0
C173 C 0.45993 0.9266 0.60392 0.0
C174 C 0.50438 0.97163 0.54274 0.0
C175 C 0.48132 0.97864 0.51261 0.0
C176 C 0.44731 0.95947 0.52921 0.0
C177 C 0.43669 0.93364 0.57465 0.0
H178 H 0.48336 0.3959 0.72446 0.0
H179 H 0.5175 0.49165 0.81497 0.0
H180 H 0.45164 0.40891 0.64581 0.0
H181 H 0.48558 0.50422 0.73782 0.0
H182 H 0.40698 0.50906 0.62059 0.0
H183 H 0.42422 0.48268 0.70279 0.0
H184 H 0.47273 0.45545 0.55645 0.0
H185 H 0.45588 0.48208 0.47446 0.0
C186 C 0.48372 0.41946 0.72796 0.0
C187 C 0.50305 0.44291 0.77525 0.0
C188 C 0.46563 0.42685 0.68317 0.0
C189 C 0.46602 0.45743 0.68623 0.0
C190 C 0.48447 0.48028 0.73496 0.0
C191 C 0.503 0.47321 0.77866 0.0
C192 C 0.4206 0.49672 0.60584 0.0
C193 C 0.43044 0.4979 0.5414 0.0
C194 C 0.43052 0.48174 0.65281 0.0
C195 C 0.44995 0.46727 0.63584 0.0
C196 C 0.45758 0.46624 0.57069 0.0
C197 C 0.44811 0.48164 0.52391 0.0
H198 H 0.19982 0.50986 0.12016 0.0
H199 H 0.19023 0.56838 0.27216 0.0
H200 H 0.24377 0.50729 0.18137 0.0
H201 H 0.23372 0.5655 0.3333 0.0
H202 H 0.34556 0.5996 0.359 0.0
H203 H 0.29444 0.59275 0.3115 0.0
H204 H 0.25865 0.48765 0.28377 0.0
H205 H 0.31034 0.49459 0.33164 0.0
C206 C 0.20661 0.52156 0.16715 0.0
C207 C 0.19191 0.53967 0.19103 0.0
C208 C 0.23166 0.51997 0.20229 0.0
C209 C 0.24244 0.53655 0.26173 0.0
C210 C 0.2263 0.55296 0.28714 0.0
C211 C 0.2013 0.55449 0.2522 0.0
C212 C 0.32669 0.57494 0.34336 0.0
C213 C 0.33193 0.54763 0.34892 0.0
C214 C 0.29729 0.57097 0.31653 0.0
C215 C 0.27246 0.53963 0.29417 0.0
C216 C 0.27744 0.51212 0.30042 0.0
C217 C 0.30687 0.51605 0.32803 0.0
H218 H 0.62677 0.20419 0.4267 0.0
H219 H 0.68574 0.21543 0.25695 0.0
H220 H 0.67605 0.24837 0.48018 0.0
H221 H 0.73515 0.25996 0.31057 0.0
H222 H 0.79272 0.36848 0.39722 0.0
H223 H 0.74893 0.31841 0.34543 0.0
H224 H 0.73403 0.26287 0.52169 0.0
H225 H 0.77831 0.31319 0.57372 0.0
C226 C 0.65036 0.21592 0.40105 0.0
C227 C 0.65242 0.20659 0.3375 0.0
C228 C 0.67859 0.24101 0.43187 0.0
C229 C 0.70936 0.25757 0.39946 0.0
C230 C 0.71165 0.24766 0.33646 0.0
C231 C 0.68345 0.2222 0.3059 0.0
C232 C 0.78034 0.34551 0.42478 0.0
C233 C 0.78873 0.34472 0.4896 0.0
C234 C 0.75547 0.31681 0.39495 0.0
C235 C 0.73813 0.28681 0.42956 0.0
C236 C 0.74697 0.28577 0.49406 0.0
C237 C 0.7723 0.31445 0.5237 0.0
H238 H 0.42514 0.7838 0.57917 0.0
H239 H 0.48828 0.7881 0.73674 0.0
H240 H 0.43373 0.74166 0.52637 0.0
H241 H 0.49677 0.74548 0.68364 0.0
H242 H 0.45257 0.63419 0.60542 0.0
H243 H 0.45817 0.68388 0.65839 0.0
H244 H 0.47899 0.73429 0.47449 0.0
H245 H 0.47338 0.68459 0.4214 0.0
C246 C 0.44106 0.77587 0.60231 0.0
C247 C 0.45592 0.78909 0.66219 0.0
C248 C 0.44621 0.75195 0.57178 0.0
C249 C 0.46607 0.74044 0.60075 0.0
C250 C 0.48132 0.75392 0.66034 0.0
C251 C 0.47651 0.77828 0.69058 0.0
C252 C 0.45909 0.65615 0.57652 0.0
C253 C 0.46219 0.65542 0.50921 0.0
C254 C 0.46243 0.68463 0.6069 0.0
C255 C 0.46863 0.71277 0.57042 0.0
C256 C 0.47379 0.71275 0.50363 0.0
C257 C 0.47076 0.68439 0.47333 0.0
H258 H 0.68173 0.47197 0.90368 0.0
H259 H 0.62857 0.43487 0.72416 0.0
H260 H 0.73262 0.47885 0.85265 0.0
H261 H 0.67927 0.4418 0.67334 0.0
H262 H 0.78282 0.4794 0.58869 0.0
H263 H 0.73799 0.48467 0.64049 0.0
H264 H 0.74768 0.43673 0.81139 0.0
H265 H 0.79221 0.4314 0.75984 0.0
C266 C 0.68106 0.46575 0.85315 0.0
C267 C 0.65117 0.45267 0.81799 0.0
C268 C 0.7101 0.46957 0.82406 0.0
C269 C 0.70986 0.46078 0.75908 0.0
C270 C 0.68031 0.44909 0.72328 0.0
C271 C 0.65123 0.44491 0.75252 0.0
C272 C 0.77562 0.47041 0.6376 0.0
C273 C 0.79082 0.4548 0.6701 0.0
C274 C 0.74993 0.47331 0.66711 0.0
C275 C 0.73934 0.46108 0.72993 0.0
C276 C 0.75553 0.44671 0.76324 0.0
C277 C 0.78087 0.44345 0.73352 0.0
H278 H 0.31381 0.79311 0.78697 0.0
H279 H 0.37796 0.78717 0.93161 0.0
H280 H 0.26491 0.74793 0.84157 0.0
H281 H 0.32948 0.74245 0.9855 0.0
H282 H 0.24514 0.63299 0.99228 0.0
H283 H 0.29118 0.68327 0.94595 0.0
H284 H 0.2317 0.73148 0.95163 0.0
H285 H 0.18516 0.68073 -0.00103 0.0
C286 C 0.31741 0.78254 0.83079 0.0
C287 C 0.34972 0.79337 0.85457 0.0
C288 C 0.28948 0.75684 0.8621 0.0
C289 C 0.29355 0.74152 0.91726 0.0
C290 C 0.32571 0.75352 0.94254 0.0
C291 C 0.35345 0.77918 0.91167 0.0
C292 C 0.24183 0.6543 0.98394 0.0
C293 C 0.21161 0.65299 -0.00061 0.0
C294 C 0.26826 0.68314 0.95768 0.0
C295 C 0.26504 0.71129 0.94559 0.0
C296 C 0.23474 0.71005 0.96044 0.0
C297 C 0.20828 0.68116 0.98774 0.0
H298 H 0.51391 0.30591 0.92093 0.0
H299 H 0.56456 0.36329 0.09011 0.0
H300 H 0.50659 0.25526 0.97384 0.0
H301 H 0.55711 0.31284 0.14283 0.0
H302 H 0.51893 0.21178 0.23748 0.0
H303 H 0.51295 0.25621 0.18558 0.0
H304 H 0.5486 0.23785 0.00635 0.0
H305 H 0.55473 0.19383 0.058 0.0
C306 C 0.52311 0.30761 0.96961 0.0
C307 C 0.54005 0.33853 0.00123 0.0
C308 C 0.51897 0.27869 -0.0002 0.0
C309 C 0.53126 0.28014 0.06244 0.0
C310 C 0.54703 0.31089 0.09485 0.0
C311 C 0.55155 0.33981 0.06443 0.0
C312 C 0.52489 0.2169 0.18675 0.0
C313 C 0.53752 0.19959 0.15185 0.0
C314 C 0.52163 0.24237 0.15717 0.0
C315 C 0.53042 0.25052 0.09201 0.0
C316 C 0.54135 0.23194 0.05643 0.0
C317 C 0.54506 0.20688 0.08614 0.0
loop_
_geom_bond_atom_site_label_1
_geom_bond_atom_site_label_2
_geom_bond_distance
_geom_bond_site_symmetry_2
_ccdc_geom_bond_type
In0 O1 2.294 . S
In0 O2 2.326 . S
In0 O6 2.266 . S
In0 O7 2.326 . S
In0 O8 2.266 . S
In0 O9 2.326 . S
In0 O11 2.294 . S
In0 O12 2.326 . S
O1 In0 2.294 . S
O1 C10 1.240 1_554 S
O2 In0 2.326 . S
O2 C10 1.252 1_554 S
C3 O6 1.252 . S
C3 O7 1.260 . S
C4 O11 1.240 . S
C4 O12 1.252 . S
C5 O8 1.252 . S
C5 O9 1.260 . S
O6 In0 2.266 . S
O6 C3 1.252 . S
O7 In0 2.326 . S
O7 C3 1.260 . S
O8 In0 2.266 . S
O8 C5 1.252 . S
O9 In0 2.326 . S
O9 C5 1.260 . S
C10 O1 1.240 1_556 S
C10 O2 1.252 1_556 S
O11 In0 2.294 . S
O11 C4 1.240 . S
O12 In0 2.326 . S
O12 C4 1.252 . S
In13 O14 2.294 . S
In13 O15 2.326 . S
In13 O19 2.266 . S
In13 O20 2.326 . S
In13 O21 2.266 . S
In13 O22 2.326 . S
In13 O24 2.294 . S
In13 O25 2.326 . S
O14 In13 2.294 . S
O14 C23 1.240 . S
O15 In13 2.326 . S
O15 C23 1.252 . S
C16 O19 1.252 . S
C16 O20 1.260 . S
C17 O24 1.240 . S
C17 O25 1.252 . S
C18 O21 1.252 . S
C18 O22 1.260 . S
O19 In13 2.266 . S
O19 C16 1.252 . S
O20 In13 2.326 . S
O20 C16 1.260 . S
O21 In13 2.266 . S
O21 C18 1.252 . S
O22 In13 2.326 . S
O22 C18 1.260 . S
C23 O14 1.240 . S
C23 O15 1.252 . S
O24 In13 2.294 . S
O24 C17 1.240 . S
O25 In13 2.326 . S
O25 C17 1.252 . S
In26 O27 2.294 . S
In26 O28 2.326 . S
In26 O32 2.266 . S
In26 O33 2.326 . S
In26 O34 2.266 . S
In26 O35 2.326 . S
In26 O37 2.294 . S
In26 O38 2.326 . S
O27 In26 2.294 . S
O27 C36 1.240 . S
O28 In26 2.326 . S
O28 C36 1.252 . S
C29 O32 1.252 . S
C29 O33 1.260 . S
C30 O37 1.240 . S
C30 O38 1.252 . S
C31 O34 1.252 . S
C31 O35 1.260 . S
O32 In26 2.266 . S
O32 C29 1.252 . S
O33 In26 2.326 . S
O33 C29 1.260 . S
O34 In26 2.266 . S
O34 C31 1.252 . S
O35 In26 2.326 . S
O35 C31 1.260 . S
C36 O27 1.240 . S
C36 O28 1.252 . S
O37 In26 2.294 . S
O37 C30 1.240 . S
O38 In26 2.326 . S
O38 C30 1.252 . S
In39 O40 2.294 . S
In39 O41 2.326 . S
In39 O45 2.266 . S
In39 O46 2.326 . S
In39 O47 2.266 . S
In39 O48 2.326 . S
In39 O50 2.294 . S
In39 O51 2.326 . S
O40 In39 2.294 . S
O40 C49 1.240 . S
O41 In39 2.326 . S
O41 C49 1.252 . S
C42 O45 1.252 . S
C42 O46 1.260 . S
C43 O50 1.240 . S
C43 O51 1.252 . S
C44 O47 1.252 . S
C44 O48 1.260 . S
O45 In39 2.266 . S
O45 C42 1.252 . S
O46 In39 2.326 . S
O46 C42 1.260 . S
O47 In39 2.266 . S
O47 C44 1.252 . S
O48 In39 2.326 . S
O48 C44 1.260 . S
C49 O40 1.240 . S
C49 O41 1.252 . S
O50 In39 2.294 . S
O50 C43 1.240 . S
O51 In39 2.326 . S
O51 C43 1.252 . S
In52 O53 2.294 . S
In52 O54 2.326 . S
In52 O58 2.266 . S
In52 O59 2.326 . S
In52 O60 2.266 . S
In52 O61 2.326 . S
In52 O63 2.294 . S
In52 O64 2.326 . S
O53 In52 2.294 . S
O53 C62 1.240 . S
O54 In52 2.326 . S
O54 C62 1.252 . S
C55 O58 1.252 . S
C55 O59 1.260 . S
C56 O63 1.240 . S
C56 O64 1.252 . S
C57 O60 1.252 . S
C57 O61 1.260 . S
O58 In52 2.266 . S
O58 C55 1.252 . S
O59 In52 2.326 . S
O59 C55 1.260 . S
O60 In52 2.266 . S
O60 C57 1.252 . S
O61 In52 2.326 . S
O61 C57 1.260 . S
C62 O53 1.240 . S
C62 O54 1.252 . S
O63 In52 2.294 . S
O63 C56 1.240 . S
O64 In52 2.326 . S
O64 C56 1.252 . S
In65 O66 2.294 . S
In65 O67 2.326 . S
In65 O71 2.266 . S
In65 O72 2.326 . S
In65 O73 2.266 . S
In65 O74 2.326 . S
In65 O76 2.294 . S
In65 O77 2.326 . S
O66 In65 2.294 . S
O66 C75 1.240 . S
O67 In65 2.326 . S
O67 C75 1.252 . S
C68 O71 1.252 . S
C68 O72 1.260 . S
C69 O76 1.240 1_554 S
C69 O77 1.252 1_554 S
C70 O73 1.252 . S
C70 O74 1.260 . S
O71 In65 2.266 . S
O71 C68 1.252 . S
O72 In65 2.326 . S
O72 C68 1.260 . S
O73 In65 2.266 . S
O73 C70 1.252 . S
O74 In65 2.326 . S
O74 C70 1.260 . S
C75 O66 1.240 . S
C75 O67 1.252 . S
O76 In65 2.294 . S
O76 C69 1.240 1_556 S
O77 In65 2.326 . S
O77 C69 1.252 1_556 S
H78 C86 0.950 . S
H79 C91 0.950 . S
H80 C88 0.950 . S
H81 C90 0.950 . S
H82 C92 0.950 . S
H83 C94 0.950 . S
H84 C96 0.950 . S
H85 C97 0.950 . S
C86 H78 0.950 . S
C86 C87 1.386 . S
C86 C88 1.391 . S
C87 C86 1.386 . S
C87 C91 1.393 . S
C88 H80 0.950 . S
C88 C86 1.391 . S
C88 C89 1.400 . S
C89 C88 1.400 . S
C89 C90 1.398 . S
C89 C95 1.491 1_455 S
C90 H81 0.950 . S
C90 C89 1.398 . S
C90 C91 1.391 . S
C91 H79 0.950 . S
C91 C87 1.393 . S
C91 C90 1.391 . S
C92 H82 0.950 . S
C92 C93 1.386 . S
C92 C94 1.391 . S
C93 C92 1.386 . S
C93 C97 1.393 . S
C94 H83 0.950 . S
C94 C92 1.391 . S
C94 C95 1.400 . S
C95 C89 1.491 1_655 S
C95 C94 1.400 . S
C95 C96 1.398 . S
C96 H84 0.950 . S
C96 C95 1.398 . S
C96 C97 1.391 . S
C97 H85 0.950 . S
C97 C93 1.393 . S
C97 C96 1.391 . S
H98 C106 0.950 . S
H99 C111 0.950 . S
H100 C108 0.950 1_545 S
H101 C110 0.950 1_554 S
H102 C112 0.950 . S
H103 C114 0.950 1_565 S
H104 C116 0.950 1_556 S
H105 C117 0.950 . S
C106 H98 0.950 . S
C106 C107 1.386 . S
C106 C108 1.391 . S
C107 C106 1.386 . S
C107 C111 1.393 . S
C108 H100 0.950 1_565 S
C108 C106 1.391 . S
C108 C109 1.400 . S
C109 C108 1.400 . S
C109 C110 1.398 . S
C109 C115 1.491 1_566 S
C110 H101 0.950 1_556 S
C110 C109 1.398 . S
C110 C111 1.391 . S
C111 H99 0.950 . S
C111 C107 1.393 . S
C111 C110 1.391 . S
C112 H102 0.950 . S
C112 C113 1.386 . S
C112 C114 1.391 . S
C113 C112 1.386 . S
C113 C117 1.393 . S
C114 H103 0.950 1_545 S
C114 C112 1.391 . S
C114 C115 1.400 . S
C115 C109 1.491 1_544 S
C115 C114 1.400 . S
C115 C116 1.398 . S
C116 H104 0.950 1_554 S
C116 C115 1.398 . S
C116 C117 1.391 . S
C117 H105 0.950 . S
C117 C113 1.393 . S
C117 C116 1.391 . S
H118 C126 0.950 . S
H119 C131 0.950 . S
H120 C128 0.950 . S
H121 C130 0.950 . S
H122 C132 0.950 . S
H123 C134 0.950 . S
H124 C136 0.950 . S
H125 C137 0.950 1_556 S
C126 H118 0.950 . S
C126 C127 1.386 . S
C126 C128 1.391 . S
C127 C126 1.386 . S
C127 C131 1.393 . S
C128 H120 0.950 . S
C128 C126 1.391 . S
C128 C129 1.400 . S
C129 C128 1.400 . S
C129 C130 1.398 . S
C129 C135 1.491 . S
C130 H121 0.950 . S
C130 C129 1.398 . S
C130 C131 1.391 . S
C131 H119 0.950 . S
C131 C127 1.393 . S
C131 C130 1.391 . S
C132 H122 0.950 . S
C132 C133 1.386 . S
C132 C134 1.391 . S
C133 C132 1.386 . S
C133 C137 1.393 . S
C134 H123 0.950 . S
C134 C132 1.391 . S
C134 C135 1.400 . S
C135 C129 1.491 . S
C135 C134 1.400 . S
C135 C136 1.398 . S
C136 H124 0.950 . S
C136 C135 1.398 . S
C136 C137 1.391 . S
C137 H125 0.950 1_554 S
C137 C133 1.393 . S
C137 C136 1.391 . S
H138 C146 0.950 . S
H139 C151 0.950 . S
H140 C148 0.950 1_455 S
H141 C150 0.950 . S
H142 C152 0.950 . S
H143 C154 0.950 1_655 S
H144 C156 0.950 . S
H145 C157 0.950 . S
C146 H138 0.950 . S
C146 C147 1.386 . S
C146 C148 1.391 . S
C147 C146 1.386 . S
C147 C151 1.393 . S
C148 H140 0.950 1_655 S
C148 C146 1.391 . S
C148 C149 1.400 . S
C149 C148 1.400 . S
C149 C150 1.398 . S
C149 C155 1.491 1_655 S
C150 H141 0.950 . S
C150 C149 1.398 . S
C150 C151 1.391 . S
C151 H139 0.950 . S
C151 C147 1.393 . S
C151 C150 1.391 . S
C152 H142 0.950 . S
C152 C153 1.386 . S
C152 C154 1.391 . S
C153 C152 1.386 . S
C153 C157 1.393 . S
C154 H143 0.950 1_455 S
C154 C152 1.391 . S
C154 C155 1.400 . S
C155 C149 1.491 1_455 S
C155 C154 1.400 . S
C155 C156 1.398 . S
C156 H144 0.950 . S
C156 C155 1.398 . S
C156 C157 1.391 . S
C157 H145 0.950 . S
C157 C153 1.393 . S
C157 C156 1.391 . S
H158 C166 0.950 . S
H159 C171 0.950 . S
H160 C168 0.950 . S
H161 C170 0.979 . S
H162 C172 0.950 . S
H163 C174 0.950 . S
H164 C176 0.979 . S
H165 C177 0.950 . S
C166 H158 0.950 . S
C166 C167 1.386 . S
C166 C168 1.391 . S
C167 C166 1.386 . S
C167 C171 1.393 . S
C168 H160 0.950 . S
C168 C166 1.391 . S
C168 C169 1.400 . S
C169 C168 1.400 . S
C169 C170 1.398 . S
C169 C175 1.491 1_545 S
C170 H161 0.979 . S
C170 C169 1.398 . S
C170 C171 1.391 . S
C171 H159 0.950 . S
C171 C167 1.393 . S
C171 C170 1.391 . S
C172 H162 0.950 . S
C172 C173 1.386 . S
C172 C174 1.391 . S
C173 C172 1.386 . S
C173 C177 1.393 . S
C174 H163 0.950 . S
C174 C172 1.391 . S
C174 C175 1.400 . S
C175 C169 1.491 1_565 S
C175 C174 1.400 . S
C175 C176 1.398 . S
C176 H164 0.979 . S
C176 C175 1.398 . S
C176 C177 1.391 . S
C177 H165 0.950 . S
C177 C173 1.393 . S
C177 C176 1.391 . S
H178 C186 0.950 . S
H179 C191 0.950 . S
H180 C188 0.950 . S
H181 C190 0.950 . S
H182 C192 0.950 . S
H183 C194 0.950 . S
H184 C196 0.950 . S
H185 C197 0.950 . S
C186 H178 0.950 . S
C186 C187 1.386 . S
C186 C188 1.391 . S
C187 C186 1.386 . S
C187 C191 1.393 . S
C188 H180 0.950 . S
C188 C186 1.391 . S
C188 C189 1.400 . S
C189 C188 1.400 . S
C189 C190 1.398 . S
C189 C195 1.491 . S
C190 H181 0.950 . S
C190 C189 1.398 . S
C190 C191 1.391 . S
C191 H179 0.950 . S
C191 C187 1.393 . S
C191 C190 1.391 . S
C192 H182 0.950 . S
C192 C193 1.386 . S
C192 C194 1.391 . S
C193 C192 1.386 . S
C193 C197 1.393 . S
C194 H183 0.950 . S
C194 C192 1.391 . S
C194 C195 1.400 . S
C195 C189 1.491 . S
C195 C194 1.400 . S
C195 C196 1.398 . S
C196 H184 0.950 . S
C196 C195 1.398 . S
C196 C197 1.391 . S
C197 H185 0.950 . S
C197 C193 1.393 . S
C197 C196 1.391 . S
H198 C206 0.950 . S
H199 C211 0.950 . S
H200 C208 0.950 . S
H201 C210 0.950 . S
H202 C212 0.950 . S
H203 C214 0.950 . S
H204 C216 0.950 . S
H205 C217 0.950 . S
C206 H198 0.950 . S
C206 C207 1.386 . S
C206 C208 1.391 . S
C207 C206 1.386 . S
C207 C211 1.393 . S
C208 H200 0.950 . S
C208 C206 1.391 . S
C208 C209 1.400 . S
C209 C208 1.400 . S
C209 C210 1.398 . S
C209 C215 1.491 . S
C210 H201 0.950 . S
C210 C209 1.398 . S
C210 C211 1.391 . S
C211 H199 0.950 . S
C211 C207 1.393 . S
C211 C210 1.391 . S
C212 H202 0.950 . S
C212 C213 1.386 . S
C212 C214 1.391 . S
C213 C212 1.386 . S
C213 C217 1.393 . S
C214 H203 0.950 . S
C214 C212 1.391 . S
C214 C215 1.400 . S
C215 C209 1.491 . S
C215 C214 1.400 . S
C215 C216 1.398 . S
C216 H204 0.950 . S
C216 C215 1.398 . S
C216 C217 1.391 . S
C217 H205 0.950 . S
C217 C213 1.393 . S
C217 C216 1.391 . S
H218 C226 0.950 . S
H219 C231 0.950 . S
H220 C228 0.950 . S
H221 C230 0.950 . S
H222 C232 0.950 . S
H223 C234 0.950 . S
H224 C236 0.950 . S
H225 C237 0.950 . S
C226 H218 0.950 . S
C226 C227 1.386 . S
C226 C228 1.391 . S
C227 C226 1.386 . S
C227 C231 1.393 . S
C228 H220 0.950 . S
C228 C226 1.391 . S
C228 C229 1.400 . S
C229 C228 1.400 . S
C229 C230 1.398 . S
C229 C235 1.491 . S
C230 H221 0.950 . S
C230 C229 1.398 . S
C230 C231 1.391 . S
C231 H219 0.950 . S
C231 C227 1.393 . S
C231 C230 1.391 . S
C232 H222 0.950 . S
C232 C233 1.386 . S
C232 C234 1.391 . S
C233 C232 1.386 . S
C233 C237 1.393 . S
C234 H223 0.950 . S
C234 C232 1.391 . S
C234 C235 1.400 . S
C235 C229 1.491 . S
C235 C234 1.400 . S
C235 C236 1.398 . S
C236 H224 0.950 . S
C236 C235 1.398 . S
C236 C237 1.391 . S
C237 H225 0.950 . S
C237 C233 1.393 . S
C237 C236 1.391 . S
H238 C246 0.950 . S
H239 C251 0.950 . S
H240 C248 0.950 . S
H241 C250 0.950 . S
H242 C252 0.950 . S
H243 C254 0.950 . S
H244 C256 0.950 . S
H245 C257 0.950 . S
C246 H238 0.950 . S
C246 C247 1.386 . S
C246 C248 1.391 . S
C247 C246 1.386 . S
C247 C251 1.393 . S
C248 H240 0.950 . S
C248 C246 1.391 . S
C248 C249 1.400 . S
C249 C248 1.400 . S
C249 C250 1.398 . S
C249 C255 1.491 . S
C250 H241 0.950 . S
C250 C249 1.398 . S
C250 C251 1.391 . S
C251 H239 0.950 . S
C251 C247 1.393 . S
C251 C250 1.391 . S
C252 H242 0.950 . S
C252 C253 1.386 . S
C252 C254 1.391 . S
C253 C252 1.386 . S
C253 C257 1.393 . S
C254 H243 0.950 . S
C254 C252 1.391 . S
C254 C255 1.400 . S
C255 C249 1.491 . S
C255 C254 1.400 . S
C255 C256 1.398 . S
C256 H244 0.950 . S
C256 C255 1.398 . S
C256 C257 1.391 . S
C257 H245 0.950 . S
C257 C253 1.393 . S
C257 C256 1.391 . S
H258 C266 0.950 . S
H259 C271 0.950 . S
H260 C268 0.950 . S
H261 C270 0.950 . S
H262 C272 0.950 . S
H263 C274 0.950 . S
H264 C276 0.950 . S
H265 C277 0.950 . S
C266 H258 0.950 . S
C266 C267 1.386 . S
C266 C268 1.391 . S
C267 C266 1.386 . S
C267 C271 1.393 . S
C268 H260 0.950 . S
C268 C266 1.391 . S
C268 C269 1.400 . S
C269 C268 1.400 . S
C269 C270 1.398 . S
C269 C275 1.491 . S
C270 H261 0.950 . S
C270 C269 1.398 . S
C270 C271 1.391 . S
C271 H259 0.950 . S
C271 C267 1.393 . S
C271 C270 1.391 . S
C272 H262 0.950 . S
C272 C273 1.386 . S
C272 C274 1.391 . S
C273 C272 1.386 . S
C273 C277 1.393 . S
C274 H263 0.950 . S
C274 C272 1.391 . S
C274 C275 1.400 . S
C275 C269 1.491 . S
C275 C274 1.400 . S
C275 C276 1.398 . S
C276 H264 0.950 . S
C276 C275 1.398 . S
C276 C277 1.391 . S
C277 H265 0.950 . S
C277 C273 1.393 . S
C277 C276 1.391 . S
H278 C286 0.950 . S
H279 C291 0.950 . S
H280 C288 0.950 . S
H281 C290 0.950 . S
H282 C292 0.950 . S
H283 C294 0.950 . S
H284 C296 0.950 . S
H285 C297 0.950 . S
C286 H278 0.950 . S
C286 C287 1.386 . S
C286 C288 1.391 . S
C287 C286 1.386 . S
C287 C291 1.393 . S
C288 H280 0.950 . S
C288 C286 1.391 . S
C288 C289 1.400 . S
C289 C288 1.400 . S
C289 C290 1.398 . S
C289 C295 1.491 . S
C290 H281 0.950 . S
C290 C289 1.398 . S
C290 C291 1.391 . S
C291 H279 0.950 . S
C291 C287 1.393 . S
C291 C290 1.391 . S
C292 H282 0.950 . S
C292 C293 1.386 . S
C292 C294 1.391 1_554 S
C293 C292 1.386 . S
C293 C297 1.393 1_554 S
C294 H283 0.950 . S
C294 C292 1.391 1_556 S
C294 C295 1.400 . S
C295 C289 1.491 . S
C295 C294 1.400 . S
C295 C296 1.398 . S
C296 H284 0.950 . S
C296 C295 1.398 . S
C296 C297 1.391 . S
C297 H285 0.950 . S
C297 C293 1.393 1_556 S
C297 C296 1.391 . S
H298 C306 0.950 . S
H299 C311 0.950 . S
H300 C308 0.950 . S
H301 C310 0.950 . S
H302 C312 0.950 . S
H303 C314 0.950 . S
H304 C316 0.950 . S
H305 C317 0.950 . S
C306 H298 0.950 . S
C306 C307 1.386 . S
C306 C308 1.391 . S
C307 C306 1.386 . S
C307 C311 1.393 1_556 S
C308 H300 0.950 . S
C308 C306 1.391 . S
C308 C309 1.400 1_556 S
C309 C308 1.400 1_554 S
C309 C310 1.398 . S
C309 C315 1.491 . S
C310 H301 0.950 . S
C310 C309 1.398 . S
C310 C311 1.391 . S
C311 H299 0.950 . S
C311 C307 1.393 1_554 S
C311 C310 1.391 . S
C312 H302 0.950 . S
C312 C313 1.386 . S
C312 C314 1.391 . S
C313 C312 1.386 . S
C313 C317 1.393 . S
C314 H303 0.950 . S
C314 C312 1.391 . S
C314 C315 1.400 . S
C315 C309 1.491 . S
C315 C314 1.400 . S
C315 C316 1.398 . S
C316 H304 0.950 . S
C316 C315 1.398 . S
C316 C317 1.391 . S
C317 H305 0.950 . S
C317 C313 1.393 . S
C317 C316 1.391 . S
C87 C10 1.347 . S
C93 C49 1.347 . S
C107 C56 1.341 . S
C113 C23 1.348 . S
C127 C36 1.348 . S
C133 C69 1.341 . S
C147 C43 1.340 . S
C153 C4 1.346 . S
C167 C17 1.343 . S
C173 C62 1.341 . S
C187 C75 1.348 . S
C193 C30 1.341 . S
C207 C3 1.338 . S
C213 C31 1.341 . S
C227 C16 1.340 . S
C233 C42 1.331 . S
C247 C57 1.342 . S
C253 C29 1.334 . S
C267 C70 1.331 . S
C273 C44 1.338 . S
C287 C55 1.335 . S
C293 C5 1.342 . S
C307 C68 1.331 . S
C313 C18 1.341 . S
