# Generated by pormake.
# Topology sne, (6)-cn, num edge types: 1
# Building blocks:
#     Node 0, Type 0, BuildingBlock: KUMBUR_clean_sbu_1, # of connection points: 6
#     Node 1, Type 0, BuildingBlock: KUMBUR_clean_sbu_1, # of connection points: 6
#     Node 2, Type 0, BuildingBlock: KUMBUR_clean_sbu_1, # of connection points: 6
#     Node 3, Type 0, BuildingBlock: KUMBUR_clean_sbu_1, # of connection points: 6
#     Node 4, Type 0, BuildingBlock: KUMBUR_clean_sbu_1, # of connection points: 6
#     Node 5, Type 0, BuildingBlock: KUMBUR_clean_sbu_1, # of connection points: 6
#     Node 6, Type 0, BuildingBlock: KUMBUR_clean_sbu_1, # of connection points: 6
#     Node 7, Type 0, BuildingBlock: KUMBUR_clean_sbu_1, # of connection points: 6
#     Edge 8, Type (0, 0), BuildingBlock: CIFDUS_clean_linker_0, # of connection points: 2
#     Edge 9, Type (0, 0), BuildingBlock: CIFDUS_clean_linker_0, # of connection points: 2
#     Edge 10, Type (0, 0), BuildingBlock: CIFDUS_clean_linker_0, # of connection points: 2
#     Edge 11, Type (0, 0), BuildingBlock: CIFDUS_clean_linker_0, # of connection points: 2
#     Edge 12, Type (0, 0), BuildingBlock: CIFDUS_clean_linker_0, # of connection points: 2
#     Edge 13, Type (0, 0), BuildingBlock: CIFDUS_clean_linker_0, # of connection points: 2
#     Edge 14, Type (0, 0), BuildingBlock: CIFDUS_clean_linker_0, # of connection points: 2
#     Edge 15, Type (0, 0), BuildingBlock: CIFDUS_clean_linker_0, # of connection points: 2
#     Edge 16, Type (0, 0), BuildingBlock: CIFDUS_clean_linker_0, # of connection points: 2
#     Edge 17, Type (0, 0), BuildingBlock: CIFDUS_clean_linker_0, # of connection points: 2
#     Edge 18, Type (0, 0), BuildingBlock: CIFDUS_clean_linker_0, # of connection points: 2
#     Edge 19, Type (0, 0), BuildingBlock: CIFDUS_clean_linker_0, # of connection points: 2
#     Edge 20, Type (0, 0), BuildingBlock: CIFDUS_clean_linker_0, # of connection points: 2
#     Edge 21, Type (0, 0), BuildingBlock: CIFDUS_clean_linker_0, # of connection points: 2
#     Edge 22, Type (0, 0), BuildingBlock: CIFDUS_clean_linker_0, # of connection points: 2
#     Edge 23, Type (0, 0), BuildingBlock: CIFDUS_clean_linker_0, # of connection points: 2
#     Edge 24, Type (0, 0), BuildingBlock: CIFDUS_clean_linker_0, # of connection points: 2
#     Edge 25, Type (0, 0), BuildingBlock: CIFDUS_clean_linker_0, # of connection points: 2
#     Edge 26, Type (0, 0), BuildingBlock: CIFDUS_clean_linker_0, # of connection points: 2
#     Edge 27, Type (0, 0), BuildingBlock: CIFDUS_clean_linker_0, # of connection points: 2
#     Edge 28, Type (0, 0), BuildingBlock: CIFDUS_clean_linker_0, # of connection points: 2
#     Edge 29, Type (0, 0), BuildingBlock: CIFDUS_clean_linker_0, # of connection points: 2
#     Edge 30, Type (0, 0), BuildingBlock: CIFDUS_clean_linker_0, # of connection points: 2
#     Edge 31, Type (0, 0), BuildingBlock: CIFDUS_clean_linker_0, # of connection points: 2
# Relax obj value: 0.241
# Max RMSD: 0.301
# Mean RMSD: 0.299
data_MOF--net-sne--node1-KUMBUR_clean_sbu_1--edge1-CIFDUS_clean_linker_0
_symmetry_space_group_name_H-M    P1
_symmetry_Int_Tables_number       1
_symmetry_cell_setting            triclinic
loop_
_symmetry_equiv_pos_as_xyz
'x, y, z'
_cell_length_a     38.186725
_cell_length_b     38.049149
_cell_length_c     24.798664
_cell_angle_alpha  89.906308
_cell_angle_beta   90.612747
_cell_angle_gamma 90.612459
loop_
_atom_site_label
_atom_site_type_symbol
_atom_site_fract_x
_atom_site_fract_y
_atom_site_fract_z
_atom_type_partial_charge
Tb0 Tb 0.31671 0.20291 0.41737 0.0
C1 C 0.17326 0.25582 0.33874 0.0
N2 N 0.19388 0.25739 0.38378 0.0
C3 C 0.18708 0.32007 0.38712 0.0
C4 C 0.15938 0.28658 0.31542 0.0
C5 C 0.20044 0.28894 0.4087 0.0
C6 C 0.16656 0.31892 0.3402 0.0
C7 C 0.14453 0.22055 0.26954 0.0
C8 C 0.16591 0.22317 0.31613 0.0
C9 C 0.13139 0.2512 0.24544 0.0
C10 C 0.13879 0.28412 0.2683 0.0
Tb11 Tb 0.2115 0.20419 0.41712 0.0
N12 N 0.17814 0.19393 0.34142 0.0
C13 C 0.13608 0.18714 0.24948 0.0
C14 C 0.16797 0.16122 0.32396 0.0
C15 C 0.14752 0.15736 0.27719 0.0
H16 H 0.21661 0.29032 0.44458 0.0
H17 H 0.1401 0.13141 0.26305 0.0
H18 H 0.36161 0.17877 0.52439 0.0
H19 H 0.30337 0.33616 0.33723 0.0
H20 H 0.17515 0.13797 0.34641 0.0
H21 H 0.11986 0.18405 0.21365 0.0
H22 H 0.31545 0.27327 0.33033 0.0
H23 H 0.1927 0.34495 0.40662 0.0
H24 H 0.11486 0.24969 0.20971 0.0
H25 H 0.12813 0.30748 0.24956 0.0
H26 H 0.38043 0.20481 0.61188 0.0
H27 H 0.15636 0.34313 0.32351 0.0
H28 H 0.30316 0.36479 0.42672 0.0
N29 N 0.33877 0.226 0.49569 0.0
C30 C 0.3331 0.26054 0.50475 0.0
C31 C 0.36708 0.22075 0.58207 0.0
C32 C 0.34261 0.27634 0.55413 0.0
C33 C 0.35671 0.20618 0.53251 0.0
C34 C 0.35938 0.25583 0.5933 0.0
N35 N 0.31292 0.26379 0.41529 0.0
C36 C 0.3116 0.28425 0.3698 0.0
C37 C 0.31473 0.31661 0.46955 0.0
C38 C 0.31871 0.28001 0.46343 0.0
C39 C 0.30644 0.3366 0.42396 0.0
C40 C 0.30631 0.32051 0.37346 0.0
H41 H 0.36698 0.26701 0.63179 0.0
H42 H 0.34223 0.32469 0.60024 0.0
H43 H 0.31822 0.36023 0.52563 0.0
O44 O 0.36755 0.21702 0.38777 0.0
O45 O 0.28878 0.20116 0.49516 0.0
O46 O 0.2413 0.23516 0.4777 0.0
O47 O 0.35619 0.16505 0.41837 0.0
O48 O 0.29261 0.2148 0.33825 0.0
O49 O 0.24354 0.2406 0.36845 0.0
O50 O 0.15681 0.19663 0.42659 0.0
O51 O 0.23258 0.15882 0.37132 0.0
O52 O 0.29281 0.16824 0.35543 0.0
O53 O 0.19007 0.20398 0.49519 0.0
O54 O 0.2329 0.15398 0.44892 0.0
O55 O 0.29483 0.15502 0.45533 0.0
C56 C 0.26339 0.22124 0.51247 0.0
C57 C 0.41571 0.17399 0.38721 0.0
C58 C 0.47595 0.18361 0.35553 0.0
C59 C 0.48325 0.14836 0.36839 0.0
C60 C 0.42434 0.13911 0.39998 0.0
C61 C 0.45774 0.12648 0.39048 0.0
C62 C 0.4417 0.19629 0.36462 0.0
C63 C 0.26288 0.23072 0.3277 0.0
C64 C 0.37942 0.18588 0.39767 0.0
C65 C 0.3357 0.31212 0.56221 0.0
C66 C 0.32178 0.33228 0.51987 0.0
C67 C 0.26255 0.15137 0.34699 0.0
C68 C 0.13425 0.23072 0.49756 0.0
C69 C 0.0756 0.25317 0.51909 0.0
C70 C 0.09096 0.28688 0.52531 0.0
C71 C 0.14847 0.26408 0.50871 0.0
C72 C 0.0977 0.22512 0.50363 0.0
C73 C 0.12695 0.29201 0.52128 0.0
C74 C 0.26357 0.1399 0.46274 0.0
C75 C 0.15777 0.20266 0.47798 0.0
H76 H 0.50876 0.13738 0.36067 0.0
H77 H 0.40514 0.1213 0.41718 0.0
H78 H 0.46387 0.09946 0.4001 0.0
H79 H 0.43547 0.22328 0.35477 0.0
H80 H 0.07529 0.30972 0.53358 0.0
H81 H 0.17636 0.26878 0.50711 0.0
H82 H 0.08686 0.19905 0.49708 0.0
H83 H 0.13825 0.31789 0.52785 0.0
Tb84 Tb 0.19486 0.80496 0.67273 0.0
C85 C 0.23885 0.66359 0.58691 0.0
N86 N 0.20539 0.66658 0.60389 0.0
C87 C 0.18537 0.62592 0.53648 0.0
C88 C 0.24683 0.64174 0.54292 0.0
C89 C 0.17868 0.64813 0.57996 0.0
C90 C 0.2196 0.62273 0.51781 0.0
C91 C 0.29961 0.68199 0.5938 0.0
C92 C 0.26483 0.68354 0.61247 0.0
C93 C 0.30771 0.66021 0.55005 0.0
C94 C 0.28142 0.64012 0.52473 0.0
Tb95 Tb 0.19704 0.70104 0.6764 0.0
N96 N 0.25592 0.70481 0.65453 0.0
C97 C 0.32533 0.70253 0.61929 0.0
C98 C 0.28145 0.72471 0.67938 0.0
C99 C 0.31617 0.72393 0.66218 0.0
H100 H 0.15227 0.65056 0.59465 0.0
H101 H 0.33591 0.74008 0.68209 0.0
H102 H 0.28187 0.79586 0.66205 0.0
H103 H 0.11548 0.88372 0.8039 0.0
H104 H 0.27614 0.74195 0.71197 0.0
H105 H 0.35228 0.70213 0.6061 0.0
H106 H 0.12575 0.84086 0.73116 0.0
H107 H 0.16417 0.61135 0.51733 0.0
H108 H 0.33428 0.65884 0.53531 0.0
H109 H 0.28805 0.62365 0.49081 0.0
H110 H 0.33462 0.82096 0.70539 0.0
H111 H 0.22468 0.60575 0.48379 0.0
H112 H 0.16571 0.91215 0.85092 0.0
N113 N 0.24642 0.82459 0.71026 0.0
C114 C 0.2429 0.85023 0.7482 0.0
C115 C 0.30896 0.82915 0.71818 0.0
C116 C 0.27246 0.86539 0.77391 0.0
C117 C 0.27889 0.81453 0.69418 0.0
C118 C 0.30577 0.85454 0.75837 0.0
N119 N 0.18131 0.84422 0.73833 0.0
C120 C 0.14788 0.85254 0.75226 0.0
C121 C 0.2046 0.88462 0.80471 0.0
C122 C 0.20931 0.85974 0.76348 0.0
C123 C 0.17042 0.89316 0.81938 0.0
C124 C 0.14197 0.87707 0.79302 0.0
H125 H 0.32915 0.86563 0.77707 0.0
H126 H 0.29026 0.90233 0.835 0.0
H127 H 0.23094 0.91913 0.86195 0.0
O128 O 0.1835 0.85835 0.6545 0.0
O129 O 0.14837 0.78165 0.71151 0.0
O130 O 0.16609 0.72594 0.74008 0.0
O131 O 0.20141 0.8239 0.59365 0.0
O132 O 0.14648 0.78088 0.63696 0.0
O133 O 0.14919 0.71889 0.63401 0.0
O134 O 0.21552 0.65128 0.69769 0.0
O135 O 0.19576 0.72626 0.59786 0.0
O136 O 0.22877 0.77405 0.61928 0.0
O137 O 0.16079 0.66213 0.70224 0.0
O138 O 0.2223 0.72304 0.74824 0.0
O139 O 0.21852 0.78419 0.74858 0.0
C140 C 0.14402 0.75246 0.74022 0.0
C141 C 0.22453 0.88168 0.59237 0.0
C142 C 0.24636 0.94056 0.56717 0.0
C143 C 0.2808 0.92779 0.572 0.0
C144 C 0.2592 0.86975 0.59271 0.0
C145 C 0.28702 0.8927 0.5838 0.0
C146 C 0.21808 0.91727 0.57895 0.0
C147 C 0.13384 0.74933 0.62251 0.0
C148 C 0.19592 0.85648 0.60622 0.0
C149 C 0.26785 0.89042 0.81473 0.0
C150 C 0.23404 0.89997 0.83013 0.0
C151 C 0.21598 0.75223 0.5826 0.0
C152 C 0.18538 0.62049 0.76336 0.0
C153 C 0.19815 0.56624 0.81205 0.0
C154 C 0.1983 0.58508 0.86074 0.0
C155 C 0.18542 0.63894 0.81229 0.0
C156 C 0.19121 0.5841 0.76352 0.0
C157 C 0.19158 0.62116 0.8608 0.0
C158 C 0.2268 0.75398 0.77157 0.0
C159 C 0.18515 0.63917 0.71152 0.0
H160 H 0.30329 0.9449 0.5663 0.0
H161 H 0.26494 0.84244 0.59976 0.0
H162 H 0.31362 0.88318 0.58577 0.0
H163 H 0.19134 0.9264 0.57665 0.0
H164 H 0.20358 0.57186 0.89864 0.0
H165 H 0.18182 0.66713 0.81278 0.0
H166 H 0.19212 0.56997 0.7256 0.0
H167 H 0.19191 0.63553 0.89844 0.0
Tb168 Tb 0.69799 0.81783 0.42691 0.0
C169 C 0.836 0.76607 0.32961 0.0
N170 N 0.81502 0.7623 0.3734 0.0
C171 C 0.81836 0.69951 0.36629 0.0
C172 C 0.84863 0.73647 0.30211 0.0
C173 C 0.80683 0.72955 0.39285 0.0
C174 C 0.83923 0.70295 0.32065 0.0
C175 C 0.86773 0.80464 0.26869 0.0
C176 C 0.84513 0.79983 0.31271 0.0
C177 C 0.88057 0.77519 0.24153 0.0
C178 C 0.87072 0.74124 0.25773 0.0
Tb179 Tb 0.80002 0.81382 0.41394 0.0
N180 N 0.83359 0.82781 0.34142 0.0
C181 C 0.87763 0.83889 0.25428 0.0
C182 C 0.84444 0.86119 0.32902 0.0
C183 C 0.86606 0.86725 0.28474 0.0
H184 H 0.79081 0.72639 0.42811 0.0
H185 H 0.87435 0.89374 0.27476 0.0
H186 H 0.66043 0.84398 0.53742 0.0
H187 H 0.71537 0.6849 0.34758 0.0
H188 H 0.83711 0.88317 0.35391 0.0
H189 H 0.89485 0.84365 0.22054 0.0
H190 H 0.70308 0.74735 0.33924 0.0
H191 H 0.81129 0.67368 0.38124 0.0
H192 H 0.89847 0.7784 0.20824 0.0
H193 H 0.88083 0.71882 0.23621 0.0
H194 H 0.64484 0.81812 0.62614 0.0
H195 H 0.84832 0.67958 0.30046 0.0
H196 H 0.7131 0.65622 0.43697 0.0
N197 N 0.67884 0.79572 0.50627 0.0
C198 C 0.68281 0.76064 0.51377 0.0
C199 C 0.6554 0.80174 0.59475 0.0
C200 C 0.67474 0.74493 0.56354 0.0
C201 C 0.66402 0.81622 0.54475 0.0
C202 C 0.66144 0.76611 0.60438 0.0
N203 N 0.70354 0.75725 0.42417 0.0
C204 C 0.70651 0.73682 0.37905 0.0
C205 C 0.70044 0.70434 0.47853 0.0
C206 C 0.69639 0.74095 0.47198 0.0
C207 C 0.70975 0.6844 0.43378 0.0
C208 C 0.71149 0.70055 0.3834 0.0
H209 H 0.65609 0.75525 0.64349 0.0
H210 H 0.67519 0.69644 0.60951 0.0
H211 H 0.69701 0.66068 0.53463 0.0
O212 O 0.64757 0.7982 0.4101 0.0
O213 O 0.72999 0.81552 0.50201 0.0
O214 O 0.77153 0.77962 0.47051 0.0
O215 O 0.65516 0.85279 0.42588 0.0
O216 O 0.71527 0.8103 0.34311 0.0
O217 O 0.7679 0.78367 0.35511 0.0
O218 O 0.85526 0.81731 0.42343 0.0
O219 O 0.77875 0.86227 0.37604 0.0
O220 O 0.71733 0.85727 0.36831 0.0
O221 O 0.82236 0.81184 0.4918 0.0
O222 O 0.78185 0.86262 0.45304 0.0
O223 O 0.72085 0.86457 0.46794 0.0
C224 C 0.75464 0.79255 0.51174 0.0
C225 C 0.60996 0.8354 0.36399 0.0
C226 C 0.5556 0.82149 0.31492 0.0
C227 C 0.56858 0.8399 0.27002 0.0
C228 C 0.62244 0.85356 0.3187 0.0
C229 C 0.60168 0.85597 0.27213 0.0
C230 C 0.57644 0.81967 0.36203 0.0
C231 C 0.74371 0.79649 0.32267 0.0
C232 C 0.63287 0.82859 0.41093 0.0
C233 C 0.68077 0.70893 0.5712 0.0
C234 C 0.69349 0.68865 0.5287 0.0
C235 C 0.74772 0.87318 0.35789 0.0
C236 C 0.87634 0.78263 0.49585 0.0
C237 C 0.93276 0.76092 0.52965 0.0
C238 C 0.9166 0.72815 0.53991 0.0
C239 C 0.8613 0.74947 0.50581 0.0
C240 C 0.91218 0.78823 0.50754 0.0
C241 C 0.88128 0.72251 0.52773 0.0
C242 C 0.75332 0.87765 0.47282 0.0
C243 C 0.85435 0.81144 0.47483 0.0
H244 H 0.55299 0.84213 0.23345 0.0
H245 H 0.64843 0.86521 0.31897 0.0
H246 H 0.61146 0.86997 0.23728 0.0
H247 H 0.56712 0.80491 0.39656 0.0
H248 H 0.93107 0.70687 0.55832 0.0
H249 H 0.8339 0.74454 0.49737 0.0
H250 H 0.92389 0.81371 0.49928 0.0
H251 H 0.86923 0.6972 0.53589 0.0
Tb252 Tb 0.81219 0.31296 0.66851 0.0
C253 C 0.76326 0.18675 0.74836 0.0
N254 N 0.79812 0.18361 0.73963 0.0
C255 C 0.80507 0.15212 0.82272 0.0
C256 C 0.74819 0.1743 0.79642 0.0
C257 C 0.81896 0.16541 0.77471 0.0
C258 C 0.76964 0.15708 0.83399 0.0
C259 C 0.70633 0.20479 0.71556 0.0
C260 C 0.74288 0.20252 0.70868 0.0
C261 C 0.69138 0.19428 0.76465 0.0
C262 C 0.71228 0.17906 0.80502 0.0
Tb263 Tb 0.8188 0.20848 0.66269 0.0
N264 N 0.75833 0.21225 0.66147 0.0
C265 C 0.68568 0.21523 0.67164 0.0
C266 C 0.73743 0.21554 0.61656 0.0
C267 C 0.70118 0.21921 0.62131 0.0
H268 H 0.84648 0.16233 0.76626 0.0
H269 H 0.6851 0.22369 0.58581 0.0
H270 H 0.72631 0.305 0.69079 0.0
H271 H 0.88565 0.38812 0.52148 0.0
H272 H 0.74796 0.21386 0.57663 0.0
H273 H 0.65752 0.21729 0.67509 0.0
H274 H 0.87854 0.35163 0.60265 0.0
H275 H 0.82172 0.13847 0.85125 0.0
H276 H 0.66344 0.1964 0.7709 0.0
H277 H 0.70025 0.17015 0.84206 0.0
H278 H 0.67183 0.32743 0.65028 0.0
H279 H 0.75896 0.14707 0.87133 0.0
H280 H 0.83354 0.4082 0.47056 0.0
N281 N 0.75947 0.32954 0.63285 0.0
C282 C 0.76127 0.35101 0.58904 0.0
C283 C 0.6968 0.33418 0.63258 0.0
C284 C 0.73065 0.36434 0.56453 0.0
C285 C 0.72783 0.3215 0.65546 0.0
C286 C 0.69819 0.35559 0.58684 0.0
N287 N 0.82297 0.34749 0.59476 0.0
C288 C 0.85559 0.35852 0.57934 0.0
C289 C 0.79686 0.38178 0.52329 0.0
C290 C 0.79398 0.35957 0.56865 0.0
C291 C 0.83026 0.39128 0.50537 0.0
C292 C 0.85973 0.3799 0.53389 0.0
H293 H 0.67407 0.36529 0.56918 0.0
H294 H 0.71018 0.39622 0.49914 0.0
H295 H 0.76822 0.41192 0.46362 0.0
O296 O 0.82035 0.36746 0.68159 0.0
O297 O 0.85992 0.29378 0.62881 0.0
O298 O 0.85819 0.23322 0.60894 0.0
O299 O 0.80672 0.33343 0.74676 0.0
O300 O 0.86066 0.29196 0.70696 0.0
O301 O 0.86464 0.22977 0.70847 0.0
O302 O 0.79989 0.15878 0.63977 0.0
O303 O 0.81666 0.23452 0.74197 0.0
O304 O 0.78097 0.28041 0.72325 0.0
O305 O 0.85457 0.16679 0.65209 0.0
O306 O 0.8089 0.23359 0.58411 0.0
O307 O 0.7797 0.28078 0.61418 0.0
C308 C 0.87291 0.26504 0.60611 0.0
C309 C 0.78365 0.39095 0.74848 0.0
C310 C 0.76562 0.45079 0.77132 0.0
C311 C 0.73124 0.43815 0.77854 0.0
C312 C 0.74922 0.3791 0.75736 0.0
C313 C 0.72322 0.4026 0.77178 0.0
C314 C 0.79184 0.42689 0.75608 0.0
C315 C 0.8766 0.26204 0.72066 0.0
C316 C 0.81089 0.3659 0.73158 0.0
C317 C 0.73341 0.38589 0.51871 0.0
C318 C 0.76642 0.39461 0.49822 0.0
C319 C 0.79564 0.25935 0.75844 0.0
C320 C 0.83547 0.1248 0.58633 0.0
C321 C 0.82514 0.0706 0.53555 0.0
C322 C 0.83463 0.0882 0.48805 0.0
C323 C 0.8449 0.14201 0.53846 0.0
C324 C 0.82585 0.08896 0.58473 0.0
C325 C 0.84465 0.12366 0.48964 0.0
C326 C 0.79237 0.26293 0.57364 0.0
C327 C 0.83037 0.14474 0.63643 0.0
H328 H 0.71065 0.45564 0.79101 0.0
H329 H 0.74239 0.35159 0.75365 0.0
H330 H 0.69678 0.39312 0.77837 0.0
H331 H 0.81844 0.43621 0.75003 0.0
H332 H 0.83436 0.07445 0.44982 0.0
H333 H 0.85155 0.16976 0.53865 0.0
H334 H 0.81791 0.07565 0.62139 0.0
H335 H 0.85175 0.1371 0.45277 0.0
Tb336 Tb 0.20687 0.31329 0.92597 0.0
C337 C 0.34322 0.25752 0.83404 0.0
N338 N 0.32082 0.25572 0.87644 0.0
C339 C 0.31923 0.19271 0.86968 0.0
C340 C 0.35401 0.22685 0.80735 0.0
C341 C 0.30913 0.22375 0.89495 0.0
C342 C 0.34176 0.19423 0.82577 0.0
C343 C 0.37602 0.2934 0.77079 0.0
C344 C 0.35392 0.29046 0.81579 0.0
C345 C 0.38736 0.26287 0.74477 0.0
C346 C 0.37625 0.22971 0.76279 0.0
Tb347 Tb 0.30946 0.30873 0.91645 0.0
N348 N 0.34287 0.31954 0.84232 0.0
C349 C 0.38625 0.32695 0.75345 0.0
C350 C 0.35345 0.35234 0.82627 0.0
C351 C 0.37496 0.35652 0.78137 0.0
H352 H 0.29203 0.22197 0.92917 0.0
H353 H 0.38323 0.38253 0.76878 0.0
H354 H 0.16509 0.33563 1.03531 0.0
H355 H 0.22531 0.18232 0.84032 0.0
H356 H 0.34626 0.37533 0.84892 0.0
H357 H 0.40312 0.3303 0.71892 0.0
H358 H 0.21226 0.24478 0.83536 0.0
H359 H 0.30969 0.16758 0.88424 0.0
H360 H 0.40477 0.26462 0.71064 0.0
H361 H 0.38491 0.20645 0.74184 0.0
H362 H 0.14704 0.30725 0.1211 0.0
H363 H 0.34942 0.17009 0.80624 0.0
H364 H 0.22361 0.15168 0.92821 0.0
N365 N 0.18633 0.28882 1.00333 0.0
C366 C 0.1914 0.25383 1.00972 0.0
C367 C 0.15953 0.29198 0.0901 0.0
C368 C 0.18218 0.23673 0.05803 0.0
C369 C 0.16951 0.30789 1.04161 0.0
C370 C 0.16637 0.25635 0.09864 0.0
N371 N 0.21319 0.25284 0.92072 0.0
C372 C 0.2161 0.23343 0.87455 0.0
C373 C 0.2105 0.19872 0.97226 0.0
C374 C 0.20615 0.23541 0.96762 0.0
C375 C 0.22007 0.17988 0.92652 0.0
C376 C 0.22144 0.19713 0.87697 0.0
H377 H 0.15912 0.24415 0.13642 0.0
H378 H 0.18253 0.1872 0.10126 0.0
H379 H 0.20681 0.15372 1.02576 0.0
O380 O 0.15638 0.2949 0.90585 0.0
O381 O 0.23645 0.31107 1.00293 0.0
O382 O 0.2793 0.2763 0.97281 0.0
O383 O 0.16459 0.34888 0.92472 0.0
O384 O 0.22532 0.30723 0.84214 0.0
O385 O 0.27845 0.2811 0.8532 0.0
O386 O 0.36404 0.31824 0.92627 0.0
O387 O 0.28912 0.35824 0.88205 0.0
O388 O 0.22806 0.35316 0.86988 0.0
O389 O 0.33416 0.297 0.99069 0.0
O390 O 0.29118 0.35733 0.9585 0.0
O391 O 0.2298 0.35889 0.97033 0.0
C392 C 0.26234 0.28974 1.01344 0.0
C393 C 0.12165 0.33413 0.85822 0.0
C394 C 0.067 0.32889 0.80663 0.0
C395 C 0.08412 0.34222 0.76106 0.0
C396 C 0.13837 0.34719 0.81209 0.0
C397 C 0.11959 0.35148 0.76394 0.0
C398 C 0.0858 0.32512 0.85538 0.0
C399 C 0.25383 0.29365 0.82135 0.0
C400 C 0.14226 0.32557 0.90698 0.0
C401 C 0.18893 0.20075 0.06412 0.0
C402 C 0.20304 0.18176 1.02128 0.0
C403 C 0.25857 0.36958 0.86276 0.0
C404 C 0.3919 0.2759 0.98177 0.0
C405 C 0.45207 0.25622 1.00092 0.0
C406 C 0.44064 0.22141 0.99119 0.0
C407 C 0.38135 0.24064 0.97696 0.0
C408 C 0.42739 0.28368 0.99456 0.0
C409 C 0.4056 0.21375 0.98025 0.0
C410 C 0.26209 0.37228 0.97735 0.0
C411 C 0.36554 0.30399 0.97372 0.0
H412 H 0.07004 0.34532 0.72322 0.0
H413 H 0.1661 0.35319 0.81295 0.0
H414 H 0.13272 0.36144 0.7285 0.0
H415 H 0.07283 0.31426 0.89045 0.0
H416 H 0.45871 0.1997 0.99253 0.0
H417 H 0.35419 0.23373 0.97108 0.0
H418 H 0.43535 0.31079 1.00075 0.0
H419 H 0.39711 0.18674 0.97476 0.0
Tb420 Tb 0.32434 0.81621 0.1879 0.0
C421 C 0.24214 0.68505 0.25518 0.0
N422 N 0.2773 0.68246 0.24889 0.0
C423 C 0.28012 0.63784 0.31695 0.0
C424 C 0.22447 0.66382 0.29305 0.0
C425 C 0.29657 0.65958 0.27915 0.0
C426 C 0.24387 0.63969 0.32355 0.0
C427 C 0.18891 0.71761 0.23818 0.0
C428 C 0.22459 0.71162 0.22759 0.0
C429 C 0.1708 0.69538 0.27388 0.0
C430 C 0.18852 0.66854 0.30118 0.0
Tb431 Tb 0.29915 0.71361 0.17899 0.0
N432 N 0.24322 0.73331 0.19428 0.0
C433 C 0.17279 0.74667 0.21446 0.0
C434 C 0.22796 0.76305 0.17426 0.0
C435 C 0.1926 0.76983 0.18331 0.0
H436 H 0.32456 0.65794 0.27362 0.0
H437 H 0.18075 0.79328 0.1668 0.0
H438 H 0.33346 0.8482 0.06339 0.0
H439 H 0.39288 0.85324 0.3716 0.0
H440 H 0.24263 0.78251 0.15286 0.0
H441 H 0.14549 0.75225 0.22176 0.0
H442 H 0.34362 0.82871 0.31762 0.0
H443 H 0.29536 0.61963 0.34088 0.0
H444 H 0.14332 0.69946 0.28201 0.0
H445 H 0.17445 0.65239 0.32993 0.0
H446 H 0.3801 0.87697 1.0108 0.0
H447 H 0.23128 0.62308 0.3533 0.0
H448 H 0.4456 0.87645 0.32585 0.0
N449 N 0.36361 0.84653 0.13613 0.0
C450 C 0.39366 0.85678 0.1615 0.0
C451 C 0.38435 0.87122 0.05311 0.0
C452 C 0.42087 0.8737 0.13322 0.0
C453 C 0.35794 0.85489 0.0831 0.0
C454 C 0.41619 0.88014 0.07805 0.0
N455 N 0.36817 0.83794 0.24244 0.0
C456 C 0.36632 0.83914 0.29745 0.0
C457 C 0.42498 0.86614 0.2457 0.0
C458 C 0.39596 0.85251 0.21673 0.0
C459 C 0.42397 0.86592 0.30207 0.0
C460 C 0.3942 0.85296 0.32804 0.0
H461 H 0.4365 0.893 0.0548 0.0
H462 H 0.47264 0.89734 0.14018 0.0
H463 H 0.47608 0.89106 0.23898 0.0
O464 O 0.31902 0.86758 0.21757 0.0
O465 O 0.3577 0.78946 0.1297 0.0
O466 O 0.34321 0.7292 0.12706 0.0
O467 O 0.27664 0.84254 0.17403 0.0
O468 O 0.34862 0.77906 0.24475 0.0
O469 O 0.35325 0.72332 0.20838 0.0
O470 O 0.27087 0.67492 0.13558 0.0
O471 O 0.29761 0.73528 0.2615 0.0
O472 O 0.28526 0.79338 0.24394 0.0
O473 O 0.32044 0.66269 0.17011 0.0
O474 O 0.28325 0.74179 0.10581 0.0
O475 O 0.30134 0.80104 0.10856 0.0
C476 C 0.36222 0.757 0.11246 0.0
C477 C 0.27967 0.90558 0.1739 0.0
C478 C 0.26731 0.96837 0.18573 0.0
C479 C 0.26715 0.97222 0.12926 0.0
C480 C 0.27935 0.91022 0.11783 0.0
C481 C 0.27302 0.94338 0.09576 0.0
C482 C 0.27343 0.93468 0.20767 0.0
C483 C 0.36694 0.75085 0.23398 0.0
C484 C 0.2875 0.87111 0.19852 0.0
C485 C 0.4512 0.88473 0.16128 0.0
C486 C 0.45319 0.8811 0.21752 0.0
C487 C 0.28644 0.76632 0.27729 0.0
C488 C 0.30267 0.63057 0.09212 0.0
C489 C 0.3066 0.57467 0.04279 0.0
C490 C 0.31787 0.59361 0.9973 0.0
C491 C 0.31352 0.64854 0.04577 0.0
C492 C 0.29875 0.59345 0.09038 0.0
C493 C 0.32109 0.63018 0.99877 0.0
C494 C 0.2875 0.77319 0.08361 0.0
C495 C 0.29432 0.65076 0.14138 0.0
H496 H 0.26217 0.99756 0.1109 0.0
H497 H 0.2841 0.88831 0.09118 0.0
H498 H 0.27276 0.94679 0.05241 0.0
H499 H 0.27414 0.93119 0.25106 0.0
H500 H 0.324 0.58001 0.96028 0.0
H501 H 0.31586 0.67687 0.04599 0.0
H502 H 0.29014 0.5793 0.12588 0.0
H503 H 0.32949 0.64439 0.96325 0.0
Tb504 Tb 0.80875 0.70827 0.92139 0.0
C505 C 0.66464 0.71487 0.80039 0.0
N506 N 0.67792 0.73562 0.84034 0.0
C507 C 0.65514 0.7868 0.79593 0.0
C508 C 0.64654 0.72944 0.75593 0.0
C509 C 0.67227 0.77107 0.83965 0.0
C510 C 0.64252 0.76595 0.75364 0.0
C511 C 0.64558 0.65654 0.77275 0.0
C512 C 0.6638 0.67892 0.80897 0.0
C513 C 0.63046 0.67062 0.72579 0.0
C514 C 0.63045 0.70704 0.71782 0.0
Tb515 Tb 0.70242 0.70735 0.91292 0.0
N516 N 0.67539 0.6669 0.85747 0.0
C517 C 0.64038 0.62129 0.78713 0.0
C518 C 0.66764 0.6332 0.87358 0.0
C519 C 0.65098 0.60971 0.83814 0.0
H520 H 0.6816 0.78733 0.87267 0.0
H521 H 0.64603 0.58282 0.85037 0.0
H522 H 0.85111 0.68221 1.03009 0.0
H523 H 0.79255 0.84199 0.84492 0.0
H524 H 0.67561 0.62422 0.91321 0.0
H525 H 0.62667 0.60327 0.76028 0.0
H526 H 0.8049 0.77931 0.83622 0.0
H527 H 0.65132 0.81493 0.7952 0.0
H528 H 0.61653 0.65385 0.69734 0.0
H529 H 0.6161 0.71761 0.68367 0.0
H530 H 0.86868 0.70754 0.11872 0.0
H531 H 0.62822 0.77819 0.72081 0.0
H532 H 0.79304 0.86959 0.93513 0.0
N533 N 0.82909 0.72986 1.00145 0.0
C534 C 0.82378 0.76458 1.0105 0.0
C535 C 0.85603 0.72379 0.08858 0.0
C536 C 0.83272 0.77991 0.06042 0.0
C537 C 0.84633 0.70961 1.03851 0.0
C538 C 0.84856 0.7589 0.09986 0.0
N539 N 0.80262 0.76875 0.92084 0.0
C540 C 0.80085 0.78971 0.87595 0.0
C541 C 0.80504 0.82097 0.97648 0.0
C542 C 0.80916 0.78446 0.96936 0.0
C543 C 0.79633 0.84145 0.93157 0.0
C544 C 0.79568 0.82592 0.88068 0.0
H545 H 0.8554 0.76971 0.13878 0.0
H546 H 0.83206 0.8278 0.10757 0.0
H547 H 0.80847 0.86404 1.03356 0.0
O548 O 0.85763 0.72862 0.89773 0.0
O549 O 0.77992 0.7094 0.99754 0.0
O550 O 0.72986 0.73919 0.97628 0.0
O551 O 0.8528 0.67496 0.92067 0.0
O552 O 0.78569 0.71877 0.84066 0.0
O553 O 0.73543 0.74435 0.86729 0.0
O554 O 0.65999 0.68665 0.95773 0.0
O555 O 0.72871 0.66459 0.86864 0.0
O556 O 0.79028 0.66673 0.86735 0.0
O557 O 0.66472 0.74157 0.94553 0.0
O558 O 0.72468 0.66575 0.96398 0.0
O559 O 0.78647 0.66013 0.96156 0.0
C560 C 0.75234 0.72714 1.01252 0.0
C561 C 0.89421 0.68991 0.85306 0.0
C562 C 0.94582 0.70082 0.79756 0.0
C563 C 0.93079 0.67981 0.75677 0.0
C564 C 0.87976 0.66887 0.81184 0.0
C565 C 0.89813 0.66371 0.76415 0.0
C566 C 0.92753 0.70553 0.84597 0.0
C567 C 0.756 0.73415 0.82794 0.0
C568 C 0.87348 0.69887 0.90092 0.0
C569 C 0.82585 0.81561 0.06912 0.0
C570 C 0.81212 0.83616 1.02713 0.0
C571 C 0.75968 0.65257 0.85405 0.0
C572 C 0.60699 0.71825 0.94725 0.0
C573 C 0.54525 0.7311 0.96508 0.0
C574 C 0.53705 0.72236 0.91126 0.0
C575 C 0.59702 0.70796 0.89511 0.0
C576 C 0.58072 0.72992 0.98275 0.0
C577 C 0.56272 0.7106 0.87683 0.0
C578 C 0.75424 0.64891 0.97492 0.0
C579 C 0.64463 0.71663 0.96346 0.0
H580 H 0.94437 0.67592 0.71913 0.0
H581 H 0.85402 0.657 0.81605 0.0
H582 H 0.88675 0.64763 0.73239 0.0
H583 H 0.9386 0.72235 0.87717 0.0
H584 H 0.51046 0.72408 0.89587 0.0
H585 H 0.61561 0.69753 0.8683 0.0
H586 H 0.58762 0.73706 1.0238 0.0
H587 H 0.55594 0.70304 0.83592 0.0
Tb588 Tb 0.70154 0.31431 0.17157 0.0
C589 C 0.74769 0.17118 0.0634 0.0
N590 N 0.71639 0.17801 0.08667 0.0
C591 C 0.68672 0.14219 1.02069 0.0
C592 C 0.74955 0.14985 1.01707 0.0
C593 C 0.68612 0.16343 0.06662 0.0
C594 C 0.71854 0.13541 0.99573 0.0
C595 C 0.81053 0.18105 0.06063 0.0
C596 C 0.77781 0.18694 0.08486 0.0
C597 C 0.81251 0.15937 1.01501 0.0
C598 C 0.78213 0.14384 0.9933 0.0
Tb599 Tb 0.7191 0.21137 0.16286 0.0
N600 N 0.77478 0.20898 0.128 0.0
C601 C 0.84033 0.19744 0.08251 0.0
C602 C 0.80431 0.22389 0.1505 0.0
C603 C 0.83719 0.21874 0.12775 0.0
H604 H 0.66147 0.1676 0.08641 0.0
H605 H 0.86023 0.23105 0.14554 0.0
H606 H 0.77799 0.29187 0.10738 0.0
H607 H 0.68021 0.37379 0.36513 0.0
H608 H 0.80361 0.23962 0.18635 0.0
H609 H 0.86589 0.19362 0.06502 0.0
H610 H 0.66283 0.34299 0.28086 0.0
H611 H 0.66265 0.13082 1.00479 0.0
H612 H 0.83742 0.15466 0.99594 0.0
H613 H 0.78414 0.12728 0.95801 0.0
H614 H 0.83994 0.30245 0.12102 0.0
H615 H 0.71889 0.11897 0.9601 0.0
H616 H 0.74248 0.38855 0.3824 0.0
N617 N 0.76187 0.31758 0.17949 0.0
C618 C 0.77347 0.33636 0.22334 0.0
C619 C 0.82151 0.31201 0.15029 0.0
C620 C 0.80955 0.34248 0.23294 0.0
C621 C 0.7856 0.30601 0.14274 0.0
C622 C 0.83357 0.33007 0.19566 0.0
N623 N 0.7148 0.34116 0.25114 0.0
C624 C 0.69006 0.34966 0.28825 0.0
C625 C 0.76026 0.36583 0.30771 0.0
C626 C 0.7492 0.34863 0.26009 0.0
C627 C 0.73502 0.37532 0.34541 0.0
C628 C 0.69981 0.36696 0.33584 0.0
H629 H 0.86146 0.33432 0.20149 0.0
H630 H 0.84824 0.36541 0.28743 0.0
H631 H 0.80509 0.38535 0.35325 0.0
O632 O 0.66604 0.35666 0.17579 0.0
O633 O 0.65764 0.28537 0.20957 0.0
O634 O 0.67726 0.22685 0.21998 0.0
O635 O 0.71172 0.36066 0.12756 0.0
O636 O 0.66156 0.28646 0.12189 0.0
O637 O 0.66736 0.22506 0.12962 0.0
O638 O 0.7491 0.17435 0.20539 0.0
O639 O 0.72583 0.23757 0.08466 0.0
O640 O 0.71701 0.29808 0.09017 0.0
O641 O 0.69615 0.16229 0.18371 0.0
O642 O 0.74875 0.24514 0.2187 0.0
O643 O 0.71303 0.28758 0.24871 0.0
C644 C 0.65486 0.25283 0.22928 0.0
C645 C 0.69225 0.41404 0.16456 0.0
C646 C 0.71522 0.47383 0.1468 0.0
C647 C 0.70911 0.48205 0.20131 0.0
C648 C 0.68368 0.42458 0.21691 0.0
C649 C 0.69298 0.4579 0.23552 0.0
C650 C 0.70751 0.4391 0.12918 0.0
C651 C 0.65088 0.25364 0.11254 0.0
C652 C 0.68508 0.37738 0.14607 0.0
C653 C 0.82064 0.36058 0.27956 0.0
C654 C 0.79608 0.37208 0.31695 0.0
C655 C 0.72412 0.26917 0.06322 0.0
C656 C 0.72055 0.13262 0.25961 0.0
C657 C 0.72984 0.07988 0.31472 0.0
C658 C 0.72088 0.09928 0.36068 0.0
C659 C 0.71165 0.15135 0.30603 0.0
C660 C 0.72921 0.09671 0.26398 0.0
C661 C 0.71158 0.13463 0.35621 0.0
C662 C 0.73583 0.26295 0.2587 0.0
C663 C 0.72429 0.1509 0.20745 0.0
H664 H 0.71621 0.50751 0.21772 0.0
H665 H 0.6696 0.40731 0.24365 0.0
H666 H 0.68726 0.46523 0.27663 0.0
H667 H 0.71239 0.4317 0.08781 0.0
H668 H 0.72113 0.08703 0.40016 0.0
H669 H 0.70555 0.17904 0.30353 0.0
H670 H 0.73677 0.0823 0.22834 0.0
H671 H 0.70486 0.14928 0.39194 0.0
H672 H 0.22844 0.0876 0.35463 0.0
H673 H 0.30128 0.14612 0.25664 0.0
H674 H 0.30823 0.09557 0.19777 0.0
H675 H 0.29586 0.03394 0.17572 0.0
H676 H 0.22624 0.97314 0.27588 0.0
H677 H 0.21646 0.02474 0.33267 0.0
C678 C 0.24535 0.08936 0.31985 0.0
C679 C 0.26376 0.12095 0.30947 0.0
C680 C 0.25034 0.05947 0.287 0.0
C681 C 0.28638 0.12244 0.26515 0.0
C682 C 0.29058 0.09339 0.23158 0.0
C683 C 0.27826 0.03199 0.20966 0.0
C684 C 0.26168 0.99963 0.22116 0.0
C685 C 0.273 0.06167 0.24235 0.0
C686 C 0.23956 0.99757 0.26615 0.0
C687 C 0.23377 0.02719 0.29849 0.0
H688 H 0.08062 0.77944 0.7123 0.0
H689 H 0.13021 0.70957 0.82602 0.0
H690 H 0.07287 0.68997 0.85793 0.0
H691 H 1.00837 0.68796 0.84673 0.0
H692 H 0.95953 0.75266 0.7254 0.0
H693 H 0.01646 0.77868 0.70266 0.0
C694 C 0.0789 0.76027 0.74448 0.0
C695 C 0.10973 0.74587 0.76642 0.0
C696 C 0.04578 0.74779 0.7607 0.0
C697 C 0.10694 0.72102 0.80825 0.0
C698 C 0.07411 0.70964 0.82634 0.0
C699 C 0.01031 0.70816 0.81596 0.0
C700 C 0.97994 0.71865 0.788 0.0
C701 C 0.04333 0.72209 0.80183 0.0
C702 C 0.98264 0.74438 0.74752 0.0
C703 C 0.01516 0.75918 0.7345 0.0
H704 H 0.7873 0.93082 0.38332 0.0
H705 H 0.7016 0.89646 0.2812 0.0
H706 H 0.69045 0.95735 0.25464 0.0
H707 H 0.70145 0.02117 0.26731 0.0
H708 H 0.78298 0.05517 0.3774 0.0
H709 H 0.79935 0.99408 0.39403 0.0
C710 C 0.76667 0.93657 0.35434 0.0
C711 C 0.74543 0.90901 0.33404 0.0
C712 C 0.75932 0.97185 0.34134 0.0
C713 C 0.71838 0.91711 0.29733 0.0
C714 C 0.71187 0.95199 0.28237 0.0
C715 C 0.72308 0.01509 0.29432 0.0
C716 C 0.74109 0.04265 0.32089 0.0
C717 C 0.73157 0.97971 0.30518 0.0
C718 C 0.76874 0.03443 0.35648 0.0
C719 C 0.7781 0.99949 0.366 0.0
H720 H 0.03942 0.26841 0.76617 0.0
H721 H 0.01125 0.36749 0.83623 0.0
H722 H 0.94902 0.35425 0.81995 0.0
H723 H 0.90322 0.3164 0.77958 0.0
H724 H 0.93116 0.2167 0.7105 0.0
H725 H 0.99273 0.22786 0.73326 0.0
C726 C 0.01947 0.28672 0.77854 0.0
C727 C 0.02957 0.31881 0.80241 0.0
C728 C 0.98381 0.27881 0.76918 0.0
C729 C 1.00382 0.34259 0.81809 0.0
C730 C 0.96835 0.33504 0.80862 0.0
C731 C 0.92271 0.29682 0.77038 0.0
C732 C 0.91255 0.26575 0.74341 0.0
C733 C 0.95809 0.3035 0.78339 0.0
C734 C 0.93813 0.24062 0.73189 0.0
C735 C 0.97344 0.24715 0.7444 0.0
H736 H 0.24899 0.53129 0.05435 0.0
H737 H 0.35936 0.5302 1.02034 0.0
H738 H 0.35607 0.46723 1.00137 0.0
H739 H 0.32134 0.41326 0.98809 0.0
H740 H 0.21015 0.41421 1.0175 0.0
H741 H 0.21434 0.47576 0.04492 0.0
C742 C 0.27238 0.51702 0.04389 0.0
C743 C 0.30449 0.53544 1.03927 0.0
C744 C 0.27012 0.48067 1.03168 0.0
C745 C 0.33443 0.51667 1.02451 0.0
C746 C 0.33252 0.48064 1.01343 0.0
C747 C 0.29799 0.42663 1.00117 0.0
C748 C 0.26544 0.40865 1.00045 0.0
C749 C 0.30042 0.46243 1.01596 0.0
C750 C 0.23563 0.42698 1.01743 0.0
C751 C 0.23796 0.46241 1.03304 0.0
H752 H 0.48401 0.69596 0.97355 0.0
H753 H 0.53982 0.78601 1.03741 0.0
H754 H 0.48711 0.8036 0.08647 0.0
H755 H 0.42433 0.79379 0.10841 0.0
H756 H 0.3701 0.70358 1.04149 0.0
H757 H 0.42268 0.68646 0.99444 0.0
C758 C 0.48471 0.71958 0.99803 0.0
C759 C 0.51569 0.73988 1.00127 0.0
C760 C 0.45433 0.72989 1.02452 0.0
C761 C 0.51637 0.76984 1.03437 0.0
C762 C 0.48612 0.7801 0.06182 0.0
C763 C 0.42385 0.77082 0.08264 0.0
C764 C 0.39303 0.75007 0.07826 0.0
C765 C 0.45472 0.76061 0.0564 0.0
C766 C 0.39323 0.71994 0.04571 0.0
C767 C 0.42343 0.71001 1.01899 0.0
H768 H 0.70012 0.54361 0.14995 0.0
H769 H 0.75844 0.46875 0.05722 0.0
H770 H 0.77792 0.51617 0.99703 0.0
H771 H 0.77723 0.57993 0.96968 0.0
H772 H 0.71998 0.65261 0.06784 0.0
H773 H 0.70295 0.60535 0.12831 0.0
C774 C 0.7179 0.53737 0.11767 0.0
C775 C 0.72796 0.50227 0.10915 0.0
C776 C 0.72969 0.56475 0.08424 0.0
C777 C 0.74984 0.49525 0.06504 0.0
C778 C 0.76131 0.52252 1.03074 0.0
C779 C 0.76173 0.58534 1.00502 0.0
C780 C 0.75008 0.61987 1.01445 0.0
C781 C 0.75139 0.55753 1.03987 0.0
C782 C 0.7294 0.62638 0.0598 0.0
C783 C 0.71943 0.5993 0.0943 0.0
H784 H 0.6111 0.29936 0.05178 0.0
H785 H 0.60764 0.19748 0.12883 0.0
H786 H 0.54623 0.19085 0.10419 0.0
H787 H 0.49315 0.21401 0.0638 0.0
H788 H 0.49574 0.31327 0.97918 0.0
H789 H 0.55725 0.32143 1.00582 0.0
C790 C 0.59697 0.27555 0.06263 0.0
C791 C 0.61437 0.24881 0.09173 0.0
C792 C 0.56126 0.27164 0.04786 0.0
C793 C 0.59546 0.21824 0.1056 0.0
C794 C 0.56007 0.21453 0.09201 0.0
C795 C 0.50708 0.23719 0.04979 0.0
C796 C 0.48942 0.26268 1.01856 0.0
C797 C 0.54271 0.24104 0.06334 0.0
C798 C 0.50815 0.29317 1.00343 0.0
C799 C 0.54357 0.29771 1.01824 0.0
H800 H 0.80563 0.59936 0.86867 0.0
H801 H 0.71572 0.62956 0.77391 0.0
H802 H 0.71063 0.57002 0.73728 0.0
H803 H 0.72925 0.50819 0.73774 0.0
H804 H 0.81975 0.47802 0.83169 0.0
H805 H 0.82788 0.53884 0.86184 0.0
C806 C 0.78531 0.59303 0.83923 0.0
C807 C 0.7603 0.61851 0.82516 0.0
C808 C 0.7828 0.55872 0.81818 0.0
C809 C 0.73429 0.60999 0.78689 0.0
C810 C 0.73165 0.57604 0.76559 0.0
C811 C 0.75096 0.51501 0.76441 0.0
C812 C 0.77371 0.48851 0.78275 0.0
C813 C 0.75522 0.54995 0.78202 0.0
C814 C 0.80201 0.49789 0.81667 0.0
C815 C 0.8065 0.53263 0.83427 0.0
H816 H 0.58548 0.26642 0.21064 0.0
H817 H 0.65653 0.21846 0.32446 0.0
H818 H 0.6072 0.1965 0.37704 0.0
H819 H 0.5443 0.18678 0.38687 0.0
H820 H 0.47219 0.2301 0.27016 0.0
H821 H 0.52114 0.25875 0.22339 0.0
C822 C 0.59 0.25168 0.2475 0.0
C823 C 0.62458 0.24396 0.26373 0.0
C824 C 0.56127 0.23823 0.27688 0.0
C825 C 0.63017 0.22445 0.31105 0.0
C826 C 0.60196 0.21194 0.34113 0.0
C827 C 0.53916 0.20259 0.35128 0.0
C828 C 0.50452 0.20585 0.33179 0.0
C829 C 0.56745 0.21796 0.32377 0.0
C830 C 0.49846 0.2272 0.28632 0.0
C831 C 0.52653 0.24335 0.25926 0.0
H832 H 0.25657 0.53461 0.85103 0.0
H833 H 0.15792 0.51299 0.77123 0.0
H834 H 0.16971 0.44981 0.77394 0.0
H835 H 0.20632 0.40081 0.80471 0.0
H836 H 0.30597 0.42266 0.88194 0.0
H837 H 0.29603 0.48554 0.8733 0.0
C838 C 0.23779 0.51597 0.83412 0.0
C839 C 0.20622 0.52821 0.81165 0.0
C840 C 0.24507 0.47981 0.83495 0.0
C841 C 0.1823 0.50402 0.78895 0.0
C842 C 0.18906 0.46798 0.79045 0.0
C843 C 0.22614 0.41927 0.81884 0.0
C844 C 0.25659 0.40679 0.84469 0.0
C845 C 0.22016 0.45554 0.814 0.0
C846 C 0.28226 0.43126 0.86185 0.0
C847 C 0.27645 0.46738 0.85743 0.0
H848 H 0.5284 0.77932 0.23561 0.0
H849 H 0.50381 0.82494 0.38955 0.0
H850 H 0.44408 0.80153 0.38266 0.0
H851 H 0.39674 0.77505 0.32704 0.0
H852 H 0.42175 0.72649 0.17596 0.0
H853 H 0.48324 0.74401 0.18722 0.0
C854 C 0.50993 0.78409 0.26763 0.0
C855 C 0.52032 0.80447 0.31253 0.0
C856 C 0.47557 0.77053 0.26341 0.0
C857 C 0.49644 0.80951 0.35447 0.0
C858 C 0.46225 0.7962 0.35049 0.0
C859 C 0.41581 0.76807 0.29693 0.0
C860 C 0.40453 0.75133 0.24925 0.0
C861 C 0.45118 0.77775 0.3043 0.0
C862 C 0.42962 0.74064 0.21193 0.0
C863 C 0.46479 0.75068 0.2184 0.0
H864 H 0.76206 0.04204 0.50654 0.0
H865 H 0.86625 0.01519 0.55919 0.0
H866 H 0.85217 0.95252 0.5492 0.0
H867 H 0.81157 0.90578 0.5197 0.0
H868 H 0.70681 0.93194 0.46825 0.0
H869 H 0.71935 0.9943 0.48457 0.0
C870 C 0.78139 0.0223 0.51645 0.0
C871 C 0.81514 0.03292 0.53352 0.0
C872 C 0.77293 0.98629 0.51107 0.0
C873 C 0.84014 1.00739 0.54611 0.0
C874 C 0.83209 0.97166 0.54034 0.0
C875 C 0.79124 0.92506 0.51304 0.0
C876 C 0.75827 0.91415 0.49291 0.0
C877 C 0.79874 0.96083 0.52216 0.0
C878 C 0.73222 0.93949 0.48455 0.0
C879 C 0.73952 0.97523 0.49332 0.0
H880 H 0.03548 0.28954 0.59009 0.0
H881 H 0.02758 0.20545 0.47372 0.0
H882 H 0.96446 0.20089 0.49003 0.0
H883 H 0.91051 0.22246 0.53648 0.0
H884 H 0.92114 0.31226 0.64227 0.0
H885 H 0.9835 0.31375 0.62861 0.0
C886 C 0.02024 0.27078 0.56658 0.0
C887 C 0.03693 0.24844 0.52966 0.0
C888 C 0.98385 0.26961 0.57375 0.0
C889 C 0.01606 0.22307 0.5026 0.0
C890 C 0.97969 0.22068 0.51149 0.0
C891 C 0.92645 0.24269 0.55571 0.0
C892 C 0.9105 0.26745 0.58992 0.0
C893 C 0.96311 0.24413 0.54667 0.0
C894 C 0.93191 0.29327 0.61474 0.0
C895 C 0.96797 0.29399 0.60751 0.0
H896 H 0.28517 0.97751 0.49459 0.0
H897 H 0.1958 0.98826 0.59813 0.0
H898 H 0.19194 0.05059 0.57347 0.0
H899 H 0.21656 0.10329 0.5259 0.0
H900 H 0.31006 0.09137 0.43167 0.0
H901 H 0.31037 0.02867 0.4509 0.0
C902 C 0.26511 0.99338 0.51288 0.0
C903 C 0.24127 0.97793 0.54924 0.0
C904 C 0.26412 0.02937 0.50066 0.0
C905 C 0.21455 0.99908 0.57002 0.0
C906 C 0.21255 0.03492 0.55632 0.0
C907 C 0.23706 0.08689 0.51 0.0
C908 C 0.26358 0.10215 0.47805 0.0
C909 C 0.23761 0.05056 0.52234 0.0
C910 C 0.28983 0.08055 0.45735 0.0
C911 C 0.28986 0.04457 0.46792 0.0
H912 H 0.08472 0.8012 0.61642 0.0
H913 H 0.10317 0.69357 0.57056 0.0
H914 H 0.04375 0.68881 0.53438 0.0
H915 H 0.98586 0.71399 0.51927 0.0
H916 H 0.96533 0.81985 0.57176 0.0
H917 H 0.0264 0.82665 0.60061 0.0
C918 C 0.07588 0.77674 0.59822 0.0
C919 C 0.09848 0.74768 0.59681 0.0
C920 C 0.04123 0.77384 0.57856 0.0
C921 C 0.08639 0.71627 0.57289 0.0
C922 C 0.05235 0.7135 0.55207 0.0
C923 C 0.99452 0.73853 0.53741 0.0
C924 C 0.97066 0.76625 0.54355 0.0
C925 C 0.02938 0.7419 0.55549 0.0
C926 C 0.98295 0.79813 0.56583 0.0
C927 C 0.0179 0.80196 0.58281 0.0
H928 H 0.23786 0.31632 0.10894 0.0
H929 H 0.29455 0.22871 0.04443 0.0
H930 H 0.29836 0.20252 0.13443 0.0
H931 H 0.28592 0.20435 0.23213 0.0
H932 H 0.23253 0.29332 0.29768 0.0
H933 H 0.22613 0.31844 0.20725 0.0
C934 C 0.25105 0.29147 0.11448 0.0
C935 C 0.26588 0.27462 0.06937 0.0
C936 C 0.25321 0.27644 0.16679 0.0
C937 C 0.28306 0.24253 0.07794 0.0
C938 C 0.2851 0.22738 0.12958 0.0
C939 C 0.27265 0.22911 0.22668 0.0
C940 C 0.25836 0.24608 0.27203 0.0
C941 C 0.2703 0.24405 0.17439 0.0
C942 C 0.242 0.2786 0.26375 0.0
C943 C 0.23901 0.29336 0.21187 0.0
H944 H 0.27836 0.72098 1.00992 0.0
H945 H 0.27145 0.83346 1.02603 0.0
H946 H 0.25305 0.83808 0.93109 0.0
H947 H 0.2373 0.80946 0.84355 0.0
H948 H 0.24795 0.69686 0.82948 0.0
H949 H 0.26637 0.69328 0.92304 0.0
C950 C 0.27287 0.74661 0.99298 0.0
C951 C 0.27618 0.77676 1.02574 0.0
C952 C 0.2629 0.7491 0.93824 0.0
C953 C 0.2692 0.80971 1.00219 0.0
C954 C 0.25861 0.81236 0.94774 0.0
C955 C 0.24413 0.78421 0.8605 0.0
C956 C 0.24104 0.75356 0.82838 0.0
C957 C 0.25526 0.78216 0.91522 0.0
C958 C 0.24979 0.72108 0.85225 0.0
C959 C 0.26037 0.71887 0.90622 0.0
H960 H 0.77255 0.74033 0.26774 0.0
H961 H 0.71154 0.8336 0.24276 0.0
H962 H 0.70723 0.82108 0.14621 0.0
H963 H 0.72117 0.78344 0.06671 0.0
H964 H 0.77993 0.68878 0.09426 0.0
H965 H 0.78469 0.70204 0.18981 0.0
C966 C 0.75866 0.75815 0.24118 0.0
C967 C 0.74275 0.78816 0.26313 0.0
C968 C 0.75562 0.75039 0.1852 0.0
C969 C 0.72415 0.81032 0.22753 0.0
C970 C 0.72161 0.80314 0.17196 0.0
C971 C 0.73454 0.76546 0.09369 0.0
C972 C 0.75032 0.73514 0.0722 0.0
C973 C 0.73709 0.77312 0.14998 0.0
C974 C 0.76773 0.71251 0.10864 0.0
C975 C 0.77054 0.72004 0.16383 0.0
H976 H 0.7414 0.29372 0.81002 0.0
H977 H 0.83073 0.22771 0.8405 0.0
H978 H 0.81603 0.2241 0.93532 0.0
H979 H 0.77835 0.23957 1.01067 0.0
H980 H 0.69074 0.30778 0.98474 0.0
H981 H 0.70465 0.3116 0.88823 0.0
C982 C 0.75776 0.27879 0.83748 0.0
C983 C 0.78682 0.2604 0.81726 0.0
C984 C 0.74954 0.27734 0.89321 0.0
C985 C 0.80776 0.24145 0.85402 0.0
C986 C 0.7995 0.23948 0.90868 0.0
C987 C 0.76193 0.25473 0.98386 0.0
C988 C 0.7331 0.27265 1.00489 0.0
C989 C 0.77037 0.25705 0.92873 0.0
C990 C 0.71303 0.29358 0.96968 0.0
C991 C 0.72095 0.29566 0.91439 0.0
H992 H 0.73613 0.82159 0.60899 0.0
H993 H 0.78032 0.72791 0.54149 0.0
H994 H 0.7843 0.70173 0.63158 0.0
H995 H 0.77477 0.70491 0.73091 0.0
H996 H 0.73235 0.79948 0.79804 0.0
H997 H 0.72723 0.82503 0.70786 0.0
C998 C 0.74676 0.79546 0.61389 0.0
C999 C 0.75834 0.77711 0.56781 0.0
C1000 C 0.74869 0.78029 0.66628 0.0
C1001 C 0.77194 0.7432 0.57569 0.0
C1002 C 0.77388 0.72798 0.62747 0.0
C1003 C 0.76428 0.73109 0.72579 0.0
C1004 C 0.75272 0.74959 0.77179 0.0
C1005 C 0.76233 0.7462 0.67326 0.0
C1006 C 0.73983 0.78375 0.76383 0.0
C1007 C 0.73747 0.79871 0.712 0.0
H1008 H 0.82065 0.24091 0.47873 0.0
H1009 H 0.72958 0.29142 0.54221 0.0
H1010 H 0.70544 0.29803 0.45128 0.0
H1011 H 0.70876 0.28701 0.35335 0.0
H1012 H 0.79751 0.23209 0.29006 0.0
H1013 H 0.82323 0.22852 0.38069 0.0
C1014 C 0.79559 0.25356 0.47263 0.0
C1015 C 0.77777 0.26719 0.51756 0.0
C1016 C 0.78106 0.25582 0.41996 0.0
C1017 C 0.74496 0.2827 0.50861 0.0
C1018 C 0.73074 0.28576 0.45645 0.0
C1019 C 0.73389 0.27453 0.35919 0.0
C1020 C 0.75124 0.26018 0.31439 0.0
C1021 C 0.74847 0.27232 0.41174 0.0
C1022 C 0.78346 0.24343 0.32338 0.0
C1023 C 0.79828 0.24146 0.37537 0.0
H1024 H 0.28375 0.23764 0.76763 0.0
H1025 H 0.22021 0.3289 0.74031 0.0
H1026 H 0.21657 0.31522 0.64395 0.0
H1027 H 0.23196 0.27731 0.56562 0.0
H1028 H 0.29384 0.18495 0.59497 0.0
H1029 H 0.29811 0.19939 0.69048 0.0
C1030 C 0.26965 0.25493 0.74061 0.0
C1031 C 0.25279 0.2847 0.76189 0.0
C1032 C 0.26728 0.24663 0.68474 0.0
C1033 C 0.23358 0.30588 0.72569 0.0
C1034 C 0.23148 0.29805 0.67023 0.0
C1035 C 0.24607 0.26013 0.59292 0.0
C1036 C 0.26284 0.2301 0.57203 0.0
C1037 C 0.24816 0.26841 0.64899 0.0
C1038 C 0.28102 0.20845 0.60888 0.0
C1039 C 0.28344 0.21665 0.664 0.0
H1040 H 0.26076 0.71657 0.34504 0.0
H1041 H 0.28551 0.82693 0.33899 0.0
H1042 H 0.27078 0.83243 0.43481 0.0
H1043 H 0.24946 0.80471 0.52118 0.0
H1044 H 0.20502 0.70027 0.50951 0.0
H1045 H 0.22824 0.69335 0.42068 0.0
C1046 C 0.26226 0.74201 0.36369 0.0
C1047 C 0.27496 0.7709 0.33441 0.0
C1048 C 0.25047 0.74572 0.41677 0.0
C1049 C 0.27677 0.80378 0.36057 0.0
C1050 C 0.26802 0.80703 0.41544 0.0
C1051 C 0.24491 0.78047 0.49932 0.0
C1052 C 0.22795 0.75183 0.52501 0.0
C1053 C 0.25476 0.778 0.44428 0.0
C1054 C 0.22067 0.72158 0.49393 0.0
C1055 C 0.23325 0.7178 0.44195 0.0
loop_
_geom_bond_atom_site_label_1
_geom_bond_atom_site_label_2
_geom_bond_distance
_geom_bond_site_symmetry_2
_ccdc_geom_bond_type
Tb0 N29 2.617 . S
Tb0 N35 2.572 . S
Tb0 O44 2.465 . S
Tb0 O45 2.387 . S
Tb0 O47 2.428 . S
Tb0 O48 2.308 . S
Tb0 O52 2.349 . S
Tb0 O55 2.393 . S
Tb0 C64 2.802 . S
C1 N2 1.379 . S
C1 C4 1.416 . S
C1 C8 1.424 . S
N2 C1 1.379 . S
N2 C5 1.334 . S
N2 Tb11 2.617 . S
C3 C5 1.390 . S
C3 C6 1.339 . S
C3 H23 0.930 . S
C4 C1 1.416 . S
C4 C6 1.416 . S
C4 C10 1.448 . S
C5 N2 1.334 . S
C5 C3 1.390 . S
C5 H16 0.930 . S
C6 C3 1.339 . S
C6 C4 1.416 . S
C6 H27 0.930 . S
C7 C8 1.413 . S
C7 C9 1.427 . S
C7 C13 1.416 . S
C8 C1 1.424 . S
C8 C7 1.413 . S
C8 N12 1.361 . S
C9 C7 1.427 . S
C9 C10 1.328 . S
C9 H24 0.929 . S
C10 C4 1.448 . S
C10 C9 1.328 . S
C10 H25 0.930 . S
Tb11 N2 2.617 . S
Tb11 N12 2.572 . S
Tb11 O46 2.349 . S
Tb11 O49 2.393 . S
Tb11 O50 2.465 . S
Tb11 O51 2.387 . S
Tb11 O53 2.428 . S
Tb11 O54 2.308 . S
Tb11 C75 2.802 . S
N12 C8 1.361 . S
N12 Tb11 2.572 . S
N12 C14 1.340 . S
C13 C7 1.416 . S
C13 C15 1.332 . S
C13 H21 0.931 . S
C14 N12 1.340 . S
C14 C15 1.407 . S
C14 H20 0.930 . S
C15 C13 1.332 . S
C15 C14 1.407 . S
C15 H17 0.929 . S
H16 C5 0.930 . S
H17 C15 0.929 . S
H18 C33 0.930 . S
H19 C40 0.929 . S
H20 C14 0.930 . S
H21 C13 0.931 . S
H22 C36 0.930 . S
H23 C3 0.930 . S
H24 C9 0.929 . S
H25 C10 0.930 . S
H26 C31 0.930 . S
H27 C6 0.930 . S
H28 C39 0.931 . S
N29 Tb0 2.617 . S
N29 C30 1.379 . S
N29 C33 1.334 . S
C30 N29 1.379 . S
C30 C32 1.416 . S
C30 C38 1.424 . S
C31 H26 0.930 . S
C31 C33 1.390 . S
C31 C34 1.339 . S
C32 C30 1.416 . S
C32 C34 1.416 . S
C32 C65 1.448 . S
C33 H18 0.930 . S
C33 N29 1.334 . S
C33 C31 1.390 . S
C34 C31 1.339 . S
C34 C32 1.416 . S
C34 H41 0.930 . S
N35 Tb0 2.572 . S
N35 C36 1.340 . S
N35 C38 1.361 . S
C36 H22 0.930 . S
C36 N35 1.340 . S
C36 C40 1.407 . S
C37 C38 1.413 . S
C37 C39 1.416 . S
C37 C66 1.427 . S
C38 C30 1.424 . S
C38 N35 1.361 . S
C38 C37 1.413 . S
C39 H28 0.931 . S
C39 C37 1.416 . S
C39 C40 1.332 . S
C40 H19 0.929 . S
C40 C36 1.407 . S
C40 C39 1.332 . S
H41 C34 0.930 . S
H42 C65 0.930 . S
H43 C66 0.929 . S
O44 Tb0 2.465 . S
O44 C64 1.264 . S
O45 Tb0 2.387 . S
O45 C56 1.264 . S
O46 Tb11 2.349 . S
O46 C56 1.243 . S
O47 Tb0 2.428 . S
O47 C64 1.256 . S
O48 Tb0 2.308 . S
O48 C63 1.266 . S
O49 Tb11 2.393 . S
O49 C63 1.248 . S
O50 Tb11 2.465 . S
O50 C75 1.264 . S
O51 Tb11 2.387 . S
O51 C67 1.264 . S
O52 Tb0 2.349 . S
O52 C67 1.243 . S
O53 Tb11 2.428 . S
O53 C75 1.256 . S
O54 Tb11 2.308 . S
O54 C74 1.266 . S
O55 Tb0 2.393 . S
O55 C74 1.248 . S
C56 O45 1.264 . S
C56 O46 1.243 . S
C57 C60 1.399 . S
C57 C62 1.383 . S
C57 C64 1.496 . S
C58 C59 1.399 . S
C58 C62 1.389 . S
C59 C58 1.399 . S
C59 C61 1.380 . S
C59 H76 0.929 . S
C60 C57 1.399 . S
C60 C61 1.392 . S
C60 H77 0.929 . S
C61 C59 1.380 . S
C61 C60 1.392 . S
C61 H78 0.929 . S
C62 C57 1.383 . S
C62 C58 1.389 . S
C62 H79 0.931 . S
C63 O48 1.266 . S
C63 O49 1.248 . S
C64 Tb0 2.802 . S
C64 O44 1.264 . S
C64 O47 1.256 . S
C64 C57 1.496 . S
C65 C32 1.448 . S
C65 H42 0.930 . S
C65 C66 1.328 . S
C66 C37 1.427 . S
C66 H43 0.929 . S
C66 C65 1.328 . S
C67 O51 1.264 . S
C67 O52 1.243 . S
C68 C71 1.399 . S
C68 C72 1.383 . S
C68 C75 1.496 . S
C69 C70 1.399 . S
C69 C72 1.389 . S
C70 C69 1.399 . S
C70 C73 1.380 . S
C70 H80 0.929 . S
C71 C68 1.399 . S
C71 C73 1.392 . S
C71 H81 0.929 . S
C72 C68 1.383 . S
C72 C69 1.389 . S
C72 H82 0.931 . S
C73 C70 1.380 . S
C73 C71 1.392 . S
C73 H83 0.929 . S
C74 O54 1.266 . S
C74 O55 1.248 . S
C75 Tb11 2.802 . S
C75 O50 1.264 . S
C75 O53 1.256 . S
C75 C68 1.496 . S
H76 C59 0.929 . S
H77 C60 0.929 . S
H78 C61 0.929 . S
H79 C62 0.931 . S
H80 C70 0.929 . S
H81 C71 0.929 . S
H82 C72 0.931 . S
H83 C73 0.929 . S
Tb84 N113 2.617 . S
Tb84 N119 2.572 . S
Tb84 O128 2.465 . S
Tb84 O129 2.387 . S
Tb84 O131 2.428 . S
Tb84 O132 2.308 . S
Tb84 O136 2.349 . S
Tb84 O139 2.393 . S
Tb84 C148 2.802 . S
C85 N86 1.379 . S
C85 C88 1.416 . S
C85 C92 1.424 . S
N86 C85 1.379 . S
N86 C89 1.334 . S
N86 Tb95 2.617 . S
C87 C89 1.390 . S
C87 C90 1.339 . S
C87 H107 0.930 . S
C88 C85 1.416 . S
C88 C90 1.416 . S
C88 C94 1.448 . S
C89 N86 1.334 . S
C89 C87 1.390 . S
C89 H100 0.930 . S
C90 C87 1.339 . S
C90 C88 1.416 . S
C90 H111 0.930 . S
C91 C92 1.413 . S
C91 C93 1.427 . S
C91 C97 1.416 . S
C92 C85 1.424 . S
C92 C91 1.413 . S
C92 N96 1.361 . S
C93 C91 1.427 . S
C93 C94 1.328 . S
C93 H108 0.929 . S
C94 C88 1.448 . S
C94 C93 1.328 . S
C94 H109 0.930 . S
Tb95 N86 2.617 . S
Tb95 N96 2.572 . S
Tb95 O130 2.349 . S
Tb95 O133 2.393 . S
Tb95 O134 2.465 . S
Tb95 O135 2.387 . S
Tb95 O137 2.428 . S
Tb95 O138 2.308 . S
Tb95 C159 2.802 . S
N96 C92 1.361 . S
N96 Tb95 2.572 . S
N96 C98 1.340 . S
C97 C91 1.416 . S
C97 C99 1.332 . S
C97 H105 0.931 . S
C98 N96 1.340 . S
C98 C99 1.407 . S
C98 H104 0.930 . S
C99 C97 1.332 . S
C99 C98 1.407 . S
C99 H101 0.929 . S
H100 C89 0.930 . S
H101 C99 0.929 . S
H102 C117 0.930 . S
H103 C124 0.929 . S
H104 C98 0.930 . S
H105 C97 0.931 . S
H106 C120 0.930 . S
H107 C87 0.930 . S
H108 C93 0.929 . S
H109 C94 0.930 . S
H110 C115 0.930 . S
H111 C90 0.930 . S
H112 C123 0.931 . S
N113 Tb84 2.617 . S
N113 C114 1.379 . S
N113 C117 1.334 . S
C114 N113 1.379 . S
C114 C116 1.416 . S
C114 C122 1.424 . S
C115 H110 0.930 . S
C115 C117 1.390 . S
C115 C118 1.339 . S
C116 C114 1.416 . S
C116 C118 1.416 . S
C116 C149 1.448 . S
C117 H102 0.930 . S
C117 N113 1.334 . S
C117 C115 1.390 . S
C118 C115 1.339 . S
C118 C116 1.416 . S
C118 H125 0.930 . S
N119 Tb84 2.572 . S
N119 C120 1.340 . S
N119 C122 1.361 . S
C120 H106 0.930 . S
C120 N119 1.340 . S
C120 C124 1.407 . S
C121 C122 1.413 . S
C121 C123 1.416 . S
C121 C150 1.427 . S
C122 C114 1.424 . S
C122 N119 1.361 . S
C122 C121 1.413 . S
C123 H112 0.931 . S
C123 C121 1.416 . S
C123 C124 1.332 . S
C124 H103 0.929 . S
C124 C120 1.407 . S
C124 C123 1.332 . S
H125 C118 0.930 . S
H126 C149 0.930 . S
H127 C150 0.929 . S
O128 Tb84 2.465 . S
O128 C148 1.264 . S
O129 Tb84 2.387 . S
O129 C140 1.264 . S
O130 Tb95 2.349 . S
O130 C140 1.243 . S
O131 Tb84 2.428 . S
O131 C148 1.256 . S
O132 Tb84 2.308 . S
O132 C147 1.266 . S
O133 Tb95 2.393 . S
O133 C147 1.248 . S
O134 Tb95 2.465 . S
O134 C159 1.264 . S
O135 Tb95 2.387 . S
O135 C151 1.264 . S
O136 Tb84 2.349 . S
O136 C151 1.243 . S
O137 Tb95 2.428 . S
O137 C159 1.256 . S
O138 Tb95 2.308 . S
O138 C158 1.266 . S
O139 Tb84 2.393 . S
O139 C158 1.248 . S
C140 O129 1.264 . S
C140 O130 1.243 . S
C141 C144 1.399 . S
C141 C146 1.383 . S
C141 C148 1.496 . S
C142 C143 1.399 . S
C142 C146 1.389 . S
C143 C142 1.399 . S
C143 C145 1.380 . S
C143 H160 0.929 . S
C144 C141 1.399 . S
C144 C145 1.392 . S
C144 H161 0.929 . S
C145 C143 1.380 . S
C145 C144 1.392 . S
C145 H162 0.929 . S
C146 C141 1.383 . S
C146 C142 1.389 . S
C146 H163 0.931 . S
C147 O132 1.266 . S
C147 O133 1.248 . S
C148 Tb84 2.802 . S
C148 O128 1.264 . S
C148 O131 1.256 . S
C148 C141 1.496 . S
C149 C116 1.448 . S
C149 H126 0.930 . S
C149 C150 1.328 . S
C150 C121 1.427 . S
C150 H127 0.929 . S
C150 C149 1.328 . S
C151 O135 1.264 . S
C151 O136 1.243 . S
C152 C155 1.399 . S
C152 C156 1.383 . S
C152 C159 1.496 . S
C153 C154 1.399 . S
C153 C156 1.389 . S
C154 C153 1.399 . S
C154 C157 1.380 . S
C154 H164 0.929 . S
C155 C152 1.399 . S
C155 C157 1.392 . S
C155 H165 0.929 . S
C156 C152 1.383 . S
C156 C153 1.389 . S
C156 H166 0.931 . S
C157 C154 1.380 . S
C157 C155 1.392 . S
C157 H167 0.929 . S
C158 O138 1.266 . S
C158 O139 1.248 . S
C159 Tb95 2.802 . S
C159 O134 1.264 . S
C159 O137 1.256 . S
C159 C152 1.496 . S
H160 C143 0.929 . S
H161 C144 0.929 . S
H162 C145 0.929 . S
H163 C146 0.931 . S
H164 C154 0.929 . S
H165 C155 0.929 . S
H166 C156 0.931 . S
H167 C157 0.929 . S
Tb168 N197 2.617 . S
Tb168 N203 2.572 . S
Tb168 O212 2.465 . S
Tb168 O213 2.387 . S
Tb168 O215 2.428 . S
Tb168 O216 2.308 . S
Tb168 O220 2.349 . S
Tb168 O223 2.393 . S
Tb168 C232 2.802 . S
C169 N170 1.379 . S
C169 C172 1.416 . S
C169 C176 1.424 . S
N170 C169 1.379 . S
N170 C173 1.334 . S
N170 Tb179 2.617 . S
C171 C173 1.390 . S
C171 C174 1.339 . S
C171 H191 0.930 . S
C172 C169 1.416 . S
C172 C174 1.416 . S
C172 C178 1.448 . S
C173 N170 1.334 . S
C173 C171 1.390 . S
C173 H184 0.930 . S
C174 C171 1.339 . S
C174 C172 1.416 . S
C174 H195 0.930 . S
C175 C176 1.413 . S
C175 C177 1.427 . S
C175 C181 1.416 . S
C176 C169 1.424 . S
C176 C175 1.413 . S
C176 N180 1.361 . S
C177 C175 1.427 . S
C177 C178 1.328 . S
C177 H192 0.929 . S
C178 C172 1.448 . S
C178 C177 1.328 . S
C178 H193 0.930 . S
Tb179 N170 2.617 . S
Tb179 N180 2.572 . S
Tb179 O214 2.349 . S
Tb179 O217 2.393 . S
Tb179 O218 2.465 . S
Tb179 O219 2.387 . S
Tb179 O221 2.428 . S
Tb179 O222 2.308 . S
Tb179 C243 2.802 . S
N180 C176 1.361 . S
N180 Tb179 2.572 . S
N180 C182 1.340 . S
C181 C175 1.416 . S
C181 C183 1.332 . S
C181 H189 0.931 . S
C182 N180 1.340 . S
C182 C183 1.407 . S
C182 H188 0.930 . S
C183 C181 1.332 . S
C183 C182 1.407 . S
C183 H185 0.929 . S
H184 C173 0.930 . S
H185 C183 0.929 . S
H186 C201 0.930 . S
H187 C208 0.929 . S
H188 C182 0.930 . S
H189 C181 0.931 . S
H190 C204 0.930 . S
H191 C171 0.930 . S
H192 C177 0.929 . S
H193 C178 0.930 . S
H194 C199 0.930 . S
H195 C174 0.930 . S
H196 C207 0.931 . S
N197 Tb168 2.617 . S
N197 C198 1.379 . S
N197 C201 1.334 . S
C198 N197 1.379 . S
C198 C200 1.416 . S
C198 C206 1.424 . S
C199 H194 0.930 . S
C199 C201 1.390 . S
C199 C202 1.339 . S
C200 C198 1.416 . S
C200 C202 1.416 . S
C200 C233 1.448 . S
C201 H186 0.930 . S
C201 N197 1.334 . S
C201 C199 1.390 . S
C202 C199 1.339 . S
C202 C200 1.416 . S
C202 H209 0.930 . S
N203 Tb168 2.572 . S
N203 C204 1.340 . S
N203 C206 1.361 . S
C204 H190 0.930 . S
C204 N203 1.340 . S
C204 C208 1.407 . S
C205 C206 1.413 . S
C205 C207 1.416 . S
C205 C234 1.427 . S
C206 C198 1.424 . S
C206 N203 1.361 . S
C206 C205 1.413 . S
C207 H196 0.931 . S
C207 C205 1.416 . S
C207 C208 1.332 . S
C208 H187 0.929 . S
C208 C204 1.407 . S
C208 C207 1.332 . S
H209 C202 0.930 . S
H210 C233 0.930 . S
H211 C234 0.929 . S
O212 Tb168 2.465 . S
O212 C232 1.264 . S
O213 Tb168 2.387 . S
O213 C224 1.264 . S
O214 Tb179 2.349 . S
O214 C224 1.243 . S
O215 Tb168 2.428 . S
O215 C232 1.256 . S
O216 Tb168 2.308 . S
O216 C231 1.266 . S
O217 Tb179 2.393 . S
O217 C231 1.248 . S
O218 Tb179 2.465 . S
O218 C243 1.264 . S
O219 Tb179 2.387 . S
O219 C235 1.264 . S
O220 Tb168 2.349 . S
O220 C235 1.243 . S
O221 Tb179 2.428 . S
O221 C243 1.256 . S
O222 Tb179 2.308 . S
O222 C242 1.266 . S
O223 Tb168 2.393 . S
O223 C242 1.248 . S
C224 O213 1.264 . S
C224 O214 1.243 . S
C225 C228 1.399 . S
C225 C230 1.383 . S
C225 C232 1.496 . S
C226 C227 1.399 . S
C226 C230 1.389 . S
C227 C226 1.399 . S
C227 C229 1.380 . S
C227 H244 0.929 . S
C228 C225 1.399 . S
C228 C229 1.392 . S
C228 H245 0.929 . S
C229 C227 1.380 . S
C229 C228 1.392 . S
C229 H246 0.929 . S
C230 C225 1.383 . S
C230 C226 1.389 . S
C230 H247 0.931 . S
C231 O216 1.266 . S
C231 O217 1.248 . S
C232 Tb168 2.802 . S
C232 O212 1.264 . S
C232 O215 1.256 . S
C232 C225 1.496 . S
C233 C200 1.448 . S
C233 H210 0.930 . S
C233 C234 1.328 . S
C234 C205 1.427 . S
C234 H211 0.929 . S
C234 C233 1.328 . S
C235 O219 1.264 . S
C235 O220 1.243 . S
C236 C239 1.399 . S
C236 C240 1.383 . S
C236 C243 1.496 . S
C237 C238 1.399 . S
C237 C240 1.389 . S
C238 C237 1.399 . S
C238 C241 1.380 . S
C238 H248 0.929 . S
C239 C236 1.399 . S
C239 C241 1.392 . S
C239 H249 0.929 . S
C240 C236 1.383 . S
C240 C237 1.389 . S
C240 H250 0.931 . S
C241 C238 1.380 . S
C241 C239 1.392 . S
C241 H251 0.929 . S
C242 O222 1.266 . S
C242 O223 1.248 . S
C243 Tb179 2.802 . S
C243 O218 1.264 . S
C243 O221 1.256 . S
C243 C236 1.496 . S
H244 C227 0.929 . S
H245 C228 0.929 . S
H246 C229 0.929 . S
H247 C230 0.931 . S
H248 C238 0.929 . S
H249 C239 0.929 . S
H250 C240 0.931 . S
H251 C241 0.929 . S
Tb252 N281 2.617 . S
Tb252 N287 2.572 . S
Tb252 O296 2.465 . S
Tb252 O297 2.387 . S
Tb252 O299 2.428 . S
Tb252 O300 2.308 . S
Tb252 O304 2.349 . S
Tb252 O307 2.393 . S
Tb252 C316 2.802 . S
C253 N254 1.379 . S
C253 C256 1.416 . S
C253 C260 1.424 . S
N254 C253 1.379 . S
N254 C257 1.334 . S
N254 Tb263 2.617 . S
C255 C257 1.390 . S
C255 C258 1.339 . S
C255 H275 0.930 . S
C256 C253 1.416 . S
C256 C258 1.416 . S
C256 C262 1.448 . S
C257 N254 1.334 . S
C257 C255 1.390 . S
C257 H268 0.930 . S
C258 C255 1.339 . S
C258 C256 1.416 . S
C258 H279 0.930 . S
C259 C260 1.413 . S
C259 C261 1.427 . S
C259 C265 1.416 . S
C260 C253 1.424 . S
C260 C259 1.413 . S
C260 N264 1.361 . S
C261 C259 1.427 . S
C261 C262 1.328 . S
C261 H276 0.929 . S
C262 C256 1.448 . S
C262 C261 1.328 . S
C262 H277 0.930 . S
Tb263 N254 2.617 . S
Tb263 N264 2.572 . S
Tb263 O298 2.349 . S
Tb263 O301 2.393 . S
Tb263 O302 2.465 . S
Tb263 O303 2.387 . S
Tb263 O305 2.428 . S
Tb263 O306 2.308 . S
Tb263 C327 2.802 . S
N264 C260 1.361 . S
N264 Tb263 2.572 . S
N264 C266 1.340 . S
C265 C259 1.416 . S
C265 C267 1.332 . S
C265 H273 0.931 . S
C266 N264 1.340 . S
C266 C267 1.407 . S
C266 H272 0.930 . S
C267 C265 1.332 . S
C267 C266 1.407 . S
C267 H269 0.929 . S
H268 C257 0.930 . S
H269 C267 0.929 . S
H270 C285 0.930 . S
H271 C292 0.929 . S
H272 C266 0.930 . S
H273 C265 0.931 . S
H274 C288 0.930 . S
H275 C255 0.930 . S
H276 C261 0.929 . S
H277 C262 0.930 . S
H278 C283 0.930 . S
H279 C258 0.930 . S
H280 C291 0.931 . S
N281 Tb252 2.617 . S
N281 C282 1.379 . S
N281 C285 1.334 . S
C282 N281 1.379 . S
C282 C284 1.416 . S
C282 C290 1.424 . S
C283 H278 0.930 . S
C283 C285 1.390 . S
C283 C286 1.339 . S
C284 C282 1.416 . S
C284 C286 1.416 . S
C284 C317 1.448 . S
C285 H270 0.930 . S
C285 N281 1.334 . S
C285 C283 1.390 . S
C286 C283 1.339 . S
C286 C284 1.416 . S
C286 H293 0.930 . S
N287 Tb252 2.572 . S
N287 C288 1.340 . S
N287 C290 1.361 . S
C288 H274 0.930 . S
C288 N287 1.340 . S
C288 C292 1.407 . S
C289 C290 1.413 . S
C289 C291 1.416 . S
C289 C318 1.427 . S
C290 C282 1.424 . S
C290 N287 1.361 . S
C290 C289 1.413 . S
C291 H280 0.931 . S
C291 C289 1.416 . S
C291 C292 1.332 . S
C292 H271 0.929 . S
C292 C288 1.407 . S
C292 C291 1.332 . S
H293 C286 0.930 . S
H294 C317 0.930 . S
H295 C318 0.929 . S
O296 Tb252 2.465 . S
O296 C316 1.264 . S
O297 Tb252 2.387 . S
O297 C308 1.264 . S
O298 Tb263 2.349 . S
O298 C308 1.243 . S
O299 Tb252 2.428 . S
O299 C316 1.256 . S
O300 Tb252 2.308 . S
O300 C315 1.266 . S
O301 Tb263 2.393 . S
O301 C315 1.248 . S
O302 Tb263 2.465 . S
O302 C327 1.264 . S
O303 Tb263 2.387 . S
O303 C319 1.264 . S
O304 Tb252 2.349 . S
O304 C319 1.243 . S
O305 Tb263 2.428 . S
O305 C327 1.256 . S
O306 Tb263 2.308 . S
O306 C326 1.266 . S
O307 Tb252 2.393 . S
O307 C326 1.248 . S
C308 O297 1.264 . S
C308 O298 1.243 . S
C309 C312 1.399 . S
C309 C314 1.383 . S
C309 C316 1.496 . S
C310 C311 1.399 . S
C310 C314 1.389 . S
C311 C310 1.399 . S
C311 C313 1.380 . S
C311 H328 0.929 . S
C312 C309 1.399 . S
C312 C313 1.392 . S
C312 H329 0.929 . S
C313 C311 1.380 . S
C313 C312 1.392 . S
C313 H330 0.929 . S
C314 C309 1.383 . S
C314 C310 1.389 . S
C314 H331 0.931 . S
C315 O300 1.266 . S
C315 O301 1.248 . S
C316 Tb252 2.802 . S
C316 O296 1.264 . S
C316 O299 1.256 . S
C316 C309 1.496 . S
C317 C284 1.448 . S
C317 H294 0.930 . S
C317 C318 1.328 . S
C318 C289 1.427 . S
C318 H295 0.929 . S
C318 C317 1.328 . S
C319 O303 1.264 . S
C319 O304 1.243 . S
C320 C323 1.399 . S
C320 C324 1.383 . S
C320 C327 1.496 . S
C321 C322 1.399 . S
C321 C324 1.389 . S
C322 C321 1.399 . S
C322 C325 1.380 . S
C322 H332 0.929 . S
C323 C320 1.399 . S
C323 C325 1.392 . S
C323 H333 0.929 . S
C324 C320 1.383 . S
C324 C321 1.389 . S
C324 H334 0.931 . S
C325 C322 1.380 . S
C325 C323 1.392 . S
C325 H335 0.929 . S
C326 O306 1.266 . S
C326 O307 1.248 . S
C327 Tb263 2.802 . S
C327 O302 1.264 . S
C327 O305 1.256 . S
C327 C320 1.496 . S
H328 C311 0.929 . S
H329 C312 0.929 . S
H330 C313 0.929 . S
H331 C314 0.931 . S
H332 C322 0.929 . S
H333 C323 0.929 . S
H334 C324 0.931 . S
H335 C325 0.929 . S
Tb336 N365 2.617 . S
Tb336 N371 2.572 . S
Tb336 O380 2.465 . S
Tb336 O381 2.387 . S
Tb336 O383 2.428 . S
Tb336 O384 2.308 . S
Tb336 O388 2.349 . S
Tb336 O391 2.393 . S
Tb336 C400 2.802 . S
C337 N338 1.379 . S
C337 C340 1.416 . S
C337 C344 1.424 . S
N338 C337 1.379 . S
N338 C341 1.334 . S
N338 Tb347 2.617 . S
C339 C341 1.390 . S
C339 C342 1.339 . S
C339 H359 0.930 . S
C340 C337 1.416 . S
C340 C342 1.416 . S
C340 C346 1.448 . S
C341 N338 1.334 . S
C341 C339 1.390 . S
C341 H352 0.930 . S
C342 C339 1.339 . S
C342 C340 1.416 . S
C342 H363 0.930 . S
C343 C344 1.413 . S
C343 C345 1.427 . S
C343 C349 1.416 . S
C344 C337 1.424 . S
C344 C343 1.413 . S
C344 N348 1.361 . S
C345 C343 1.427 . S
C345 C346 1.328 . S
C345 H360 0.929 . S
C346 C340 1.448 . S
C346 C345 1.328 . S
C346 H361 0.930 . S
Tb347 N338 2.617 . S
Tb347 N348 2.572 . S
Tb347 O382 2.349 . S
Tb347 O385 2.393 . S
Tb347 O386 2.465 . S
Tb347 O387 2.387 . S
Tb347 O389 2.428 . S
Tb347 O390 2.308 . S
Tb347 C411 2.802 . S
N348 C344 1.361 . S
N348 Tb347 2.572 . S
N348 C350 1.340 . S
C349 C343 1.416 . S
C349 C351 1.332 . S
C349 H357 0.931 . S
C350 N348 1.340 . S
C350 C351 1.407 . S
C350 H356 0.930 . S
C351 C349 1.332 . S
C351 C350 1.407 . S
C351 H353 0.929 . S
H352 C341 0.930 . S
H353 C351 0.929 . S
H354 C369 0.930 1_556 S
H355 C376 0.929 . S
H356 C350 0.930 . S
H357 C349 0.931 . S
H358 C372 0.930 . S
H359 C339 0.930 . S
H360 C345 0.929 . S
H361 C346 0.930 . S
H362 C367 0.930 . S
H363 C342 0.930 . S
H364 C375 0.931 . S
N365 Tb336 2.617 . S
N365 C366 1.377 1_556 S
N365 C369 1.334 1_556 S
C366 N365 1.377 1_554 S
C366 C368 1.422 . S
C366 C374 1.420 1_554 S
C367 H362 0.930 . S
C367 C369 1.390 . S
C367 C370 1.339 . S
C368 C366 1.422 . S
C368 C370 1.416 . S
C368 C401 1.448 . S
C369 H354 0.930 1_554 S
C369 N365 1.334 1_554 S
C369 C367 1.390 . S
C370 C367 1.339 . S
C370 C368 1.416 . S
C370 H377 0.930 . S
N371 Tb336 2.572 . S
N371 C372 1.340 . S
N371 C374 1.361 . S
C372 H358 0.930 . S
C372 N371 1.340 . S
C372 C376 1.407 . S
C373 C374 1.413 . S
C373 C375 1.416 . S
C373 C402 1.427 1_556 S
C374 C366 1.420 1_556 S
C374 N371 1.361 . S
C374 C373 1.413 . S
C375 H364 0.931 . S
C375 C373 1.416 . S
C375 C376 1.332 . S
C376 H355 0.929 . S
C376 C372 1.407 . S
C376 C375 1.332 . S
H377 C370 0.930 . S
H378 C401 0.930 . S
H379 C402 0.929 . S
O380 Tb336 2.465 . S
O380 C400 1.264 . S
O381 Tb336 2.387 . S
O381 C392 1.264 . S
O382 Tb347 2.349 . S
O382 C392 1.243 . S
O383 Tb336 2.428 . S
O383 C400 1.256 . S
O384 Tb336 2.308 . S
O384 C399 1.266 . S
O385 Tb347 2.393 . S
O385 C399 1.248 . S
O386 Tb347 2.465 . S
O386 C411 1.264 . S
O387 Tb347 2.387 . S
O387 C403 1.264 . S
O388 Tb336 2.349 . S
O388 C403 1.243 . S
O389 Tb347 2.428 . S
O389 C411 1.256 . S
O390 Tb347 2.308 . S
O390 C410 1.266 . S
O391 Tb336 2.393 . S
O391 C410 1.248 . S
C392 O381 1.264 . S
C392 O382 1.243 . S
C393 C396 1.399 . S
C393 C398 1.383 . S
C393 C400 1.496 . S
C394 C395 1.399 . S
C394 C398 1.389 . S
C395 C394 1.399 . S
C395 C397 1.380 . S
C395 H412 0.929 . S
C396 C393 1.399 . S
C396 C397 1.392 . S
C396 H413 0.929 . S
C397 C395 1.380 . S
C397 C396 1.392 . S
C397 H414 0.929 . S
C398 C393 1.383 . S
C398 C394 1.389 . S
C398 H415 0.931 . S
C399 O384 1.266 . S
C399 O385 1.248 . S
C400 Tb336 2.802 . S
C400 O380 1.264 . S
C400 O383 1.256 . S
C400 C393 1.496 . S
C401 C368 1.448 . S
C401 H378 0.930 . S
C401 C402 1.328 . S
C402 C373 1.427 1_554 S
C402 H379 0.929 . S
C402 C401 1.328 . S
C403 O387 1.264 . S
C403 O388 1.243 . S
C404 C407 1.399 . S
C404 C408 1.383 . S
C404 C411 1.496 . S
C405 C406 1.399 . S
C405 C408 1.389 . S
C406 C405 1.399 . S
C406 C409 1.380 . S
C406 H416 0.929 . S
C407 C404 1.399 . S
C407 C409 1.392 . S
C407 H417 0.929 . S
C408 C404 1.383 . S
C408 C405 1.389 . S
C408 H418 0.931 . S
C409 C406 1.380 . S
C409 C407 1.392 . S
C409 H419 0.929 . S
C410 O390 1.266 . S
C410 O391 1.248 . S
C411 Tb347 2.802 . S
C411 O386 1.264 . S
C411 O389 1.256 . S
C411 C404 1.496 . S
H412 C395 0.929 . S
H413 C396 0.929 . S
H414 C397 0.929 . S
H415 C398 0.931 . S
H416 C406 0.929 . S
H417 C407 0.929 . S
H418 C408 0.931 . S
H419 C409 0.929 . S
Tb420 N449 2.617 . S
Tb420 N455 2.572 . S
Tb420 O464 2.465 . S
Tb420 O465 2.387 . S
Tb420 O467 2.428 . S
Tb420 O468 2.308 . S
Tb420 O472 2.349 . S
Tb420 O475 2.393 . S
Tb420 C484 2.802 . S
C421 N422 1.379 . S
C421 C424 1.416 . S
C421 C428 1.424 . S
N422 C421 1.379 . S
N422 C425 1.334 . S
N422 Tb431 2.617 . S
C423 C425 1.390 . S
C423 C426 1.339 . S
C423 H443 0.930 . S
C424 C421 1.416 . S
C424 C426 1.416 . S
C424 C430 1.448 . S
C425 N422 1.334 . S
C425 C423 1.390 . S
C425 H436 0.930 . S
C426 C423 1.339 . S
C426 C424 1.416 . S
C426 H447 0.930 . S
C427 C428 1.413 . S
C427 C429 1.427 . S
C427 C433 1.416 . S
C428 C421 1.424 . S
C428 C427 1.413 . S
C428 N432 1.361 . S
C429 C427 1.427 . S
C429 C430 1.328 . S
C429 H444 0.929 . S
C430 C424 1.448 . S
C430 C429 1.328 . S
C430 H445 0.930 . S
Tb431 N422 2.617 . S
Tb431 N432 2.572 . S
Tb431 O466 2.349 . S
Tb431 O469 2.393 . S
Tb431 O470 2.465 . S
Tb431 O471 2.387 . S
Tb431 O473 2.428 . S
Tb431 O474 2.308 . S
Tb431 C495 2.802 . S
N432 C428 1.361 . S
N432 Tb431 2.572 . S
N432 C434 1.340 . S
C433 C427 1.416 . S
C433 C435 1.332 . S
C433 H441 0.931 . S
C434 N432 1.340 . S
C434 C435 1.407 . S
C434 H440 0.930 . S
C435 C433 1.332 . S
C435 C434 1.407 . S
C435 H437 0.929 . S
H436 C425 0.930 . S
H437 C435 0.929 . S
H438 C453 0.927 1_554 S
H439 C460 0.929 . S
H440 C434 0.930 . S
H441 C433 0.931 . S
H442 C456 0.930 . S
H443 C423 0.930 . S
H444 C429 0.929 . S
H445 C430 0.930 . S
H446 C451 0.930 . S
H447 C426 0.930 . S
H448 C459 0.931 . S
N449 Tb420 2.617 . S
N449 C450 1.379 1_554 S
N449 C453 1.334 1_554 S
C450 N449 1.379 1_556 S
C450 C452 1.416 . S
C450 C458 1.424 1_556 S
C451 H446 0.930 . S
C451 C453 1.390 . S
C451 C454 1.339 . S
C452 C450 1.416 . S
C452 C454 1.416 . S
C452 C485 1.448 . S
C453 H438 0.927 1_556 S
C453 N449 1.334 1_556 S
C453 C451 1.390 . S
C454 C451 1.339 . S
C454 C452 1.416 . S
C454 H461 0.930 . S
N455 Tb420 2.572 . S
N455 C456 1.340 . S
N455 C458 1.361 . S
C456 H442 0.930 . S
C456 N455 1.340 . S
C456 C460 1.407 . S
C457 C458 1.413 . S
C457 C459 1.416 . S
C457 C486 1.427 1_554 S
C458 C450 1.424 1_554 S
C458 N455 1.361 . S
C458 C457 1.413 . S
C459 H448 0.931 . S
C459 C457 1.416 . S
C459 C460 1.332 . S
C460 H439 0.929 . S
C460 C456 1.407 . S
C460 C459 1.332 . S
H461 C454 0.930 . S
H462 C485 0.930 . S
H463 C486 0.929 . S
O464 Tb420 2.465 . S
O464 C484 1.264 . S
O465 Tb420 2.387 . S
O465 C476 1.264 . S
O466 Tb431 2.349 . S
O466 C476 1.243 . S
O467 Tb420 2.428 . S
O467 C484 1.256 . S
O468 Tb420 2.308 . S
O468 C483 1.266 . S
O469 Tb431 2.393 . S
O469 C483 1.248 . S
O470 Tb431 2.465 . S
O470 C495 1.264 . S
O471 Tb431 2.387 . S
O471 C487 1.264 . S
O472 Tb420 2.349 . S
O472 C487 1.243 . S
O473 Tb431 2.428 . S
O473 C495 1.256 . S
O474 Tb431 2.308 . S
O474 C494 1.266 . S
O475 Tb420 2.393 . S
O475 C494 1.248 . S
C476 O465 1.264 . S
C476 O466 1.243 . S
C477 C480 1.399 . S
C477 C482 1.383 . S
C477 C484 1.496 . S
C478 C479 1.399 . S
C478 C482 1.389 . S
C479 C478 1.399 . S
C479 C481 1.380 . S
C479 H496 0.929 . S
C480 C477 1.399 . S
C480 C481 1.392 . S
C480 H497 0.929 . S
C481 C479 1.380 . S
C481 C480 1.392 . S
C481 H498 0.929 . S
C482 C477 1.383 . S
C482 C478 1.389 . S
C482 H499 0.931 . S
C483 O468 1.266 . S
C483 O469 1.248 . S
C484 Tb420 2.802 . S
C484 O464 1.264 . S
C484 O467 1.256 . S
C484 C477 1.496 . S
C485 C452 1.448 . S
C485 H462 0.930 . S
C485 C486 1.328 . S
C486 C457 1.427 1_556 S
C486 H463 0.929 . S
C486 C485 1.328 . S
C487 O471 1.264 . S
C487 O472 1.243 . S
C488 C491 1.399 . S
C488 C492 1.383 . S
C488 C495 1.496 . S
C489 C490 1.399 . S
C489 C492 1.389 . S
C490 C489 1.399 . S
C490 C493 1.380 . S
C490 H500 0.929 . S
C491 C488 1.399 . S
C491 C493 1.392 . S
C491 H501 0.929 . S
C492 C488 1.383 . S
C492 C489 1.389 . S
C492 H502 0.931 . S
C493 C490 1.380 . S
C493 C491 1.392 . S
C493 H503 0.929 . S
C494 O474 1.266 . S
C494 O475 1.248 . S
C495 Tb431 2.802 . S
C495 O470 1.264 . S
C495 O473 1.256 . S
C495 C488 1.496 . S
H496 C479 0.929 . S
H497 C480 0.929 . S
H498 C481 0.929 . S
H499 C482 0.931 . S
H500 C490 0.929 . S
H501 C491 0.929 . S
H502 C492 0.931 . S
H503 C493 0.929 . S
Tb504 N533 2.617 . S
Tb504 N539 2.572 . S
Tb504 O548 2.465 . S
Tb504 O549 2.387 . S
Tb504 O551 2.428 . S
Tb504 O552 2.308 . S
Tb504 O556 2.349 . S
Tb504 O559 2.393 . S
Tb504 C568 2.802 . S
C505 N506 1.379 . S
C505 C508 1.416 . S
C505 C512 1.424 . S
N506 C505 1.379 . S
N506 C509 1.334 . S
N506 Tb515 2.617 . S
C507 C509 1.390 . S
C507 C510 1.339 . S
C507 H527 0.930 . S
C508 C505 1.416 . S
C508 C510 1.416 . S
C508 C514 1.448 . S
C509 N506 1.334 . S
C509 C507 1.390 . S
C509 H520 0.930 . S
C510 C507 1.339 . S
C510 C508 1.416 . S
C510 H531 0.930 . S
C511 C512 1.413 . S
C511 C513 1.427 . S
C511 C517 1.416 . S
C512 C505 1.424 . S
C512 C511 1.413 . S
C512 N516 1.361 . S
C513 C511 1.427 . S
C513 C514 1.328 . S
C513 H528 0.929 . S
C514 C508 1.448 . S
C514 C513 1.328 . S
C514 H529 0.930 . S
Tb515 N506 2.617 . S
Tb515 N516 2.572 . S
Tb515 O550 2.349 . S
Tb515 O553 2.393 . S
Tb515 O554 2.465 . S
Tb515 O555 2.387 . S
Tb515 O557 2.428 . S
Tb515 O558 2.308 . S
Tb515 C579 2.802 . S
N516 C512 1.361 . S
N516 Tb515 2.572 . S
N516 C518 1.340 . S
C517 C511 1.416 . S
C517 C519 1.332 . S
C517 H525 0.931 . S
C518 N516 1.340 . S
C518 C519 1.407 . S
C518 H524 0.930 . S
C519 C517 1.332 . S
C519 C518 1.407 . S
C519 H521 0.929 . S
H520 C509 0.930 . S
H521 C519 0.929 . S
H522 C537 0.930 1_556 S
H523 C544 0.929 . S
H524 C518 0.930 . S
H525 C517 0.931 . S
H526 C540 0.930 . S
H527 C507 0.930 . S
H528 C513 0.929 . S
H529 C514 0.930 . S
H530 C535 0.930 . S
H531 C510 0.930 . S
H532 C543 0.931 . S
N533 Tb504 2.617 . S
N533 C534 1.379 1_556 S
N533 C537 1.334 1_556 S
C534 N533 1.379 1_554 S
C534 C536 1.416 . S
C534 C542 1.424 1_554 S
C535 H530 0.930 . S
C535 C537 1.390 . S
C535 C538 1.339 . S
C536 C534 1.416 . S
C536 C538 1.416 . S
C536 C569 1.448 . S
C537 H522 0.930 1_554 S
C537 N533 1.334 1_554 S
C537 C535 1.390 . S
C538 C535 1.339 . S
C538 C536 1.416 . S
C538 H545 0.930 . S
N539 Tb504 2.572 . S
N539 C540 1.340 . S
N539 C542 1.361 . S
C540 H526 0.930 . S
C540 N539 1.340 . S
C540 C544 1.407 . S
C541 C542 1.413 . S
C541 C543 1.416 . S
C541 C570 1.427 1_556 S
C542 C534 1.424 1_556 S
C542 N539 1.361 . S
C542 C541 1.413 . S
C543 H532 0.931 . S
C543 C541 1.416 . S
C543 C544 1.332 . S
C544 H523 0.929 . S
C544 C540 1.407 . S
C544 C543 1.332 . S
H545 C538 0.930 . S
H546 C569 0.930 . S
H547 C570 0.929 . S
O548 Tb504 2.465 . S
O548 C568 1.264 . S
O549 Tb504 2.387 . S
O549 C560 1.264 . S
O550 Tb515 2.349 . S
O550 C560 1.243 . S
O551 Tb504 2.428 . S
O551 C568 1.256 . S
O552 Tb504 2.308 . S
O552 C567 1.266 . S
O553 Tb515 2.393 . S
O553 C567 1.248 . S
O554 Tb515 2.465 . S
O554 C579 1.264 . S
O555 Tb515 2.387 . S
O555 C571 1.264 . S
O556 Tb504 2.349 . S
O556 C571 1.243 . S
O557 Tb515 2.428 . S
O557 C579 1.256 . S
O558 Tb515 2.308 . S
O558 C578 1.266 . S
O559 Tb504 2.393 . S
O559 C578 1.248 . S
C560 O549 1.264 . S
C560 O550 1.243 . S
C561 C564 1.399 . S
C561 C566 1.383 . S
C561 C568 1.496 . S
C562 C563 1.399 . S
C562 C566 1.389 . S
C563 C562 1.399 . S
C563 C565 1.380 . S
C563 H580 0.929 . S
C564 C561 1.399 . S
C564 C565 1.392 . S
C564 H581 0.929 . S
C565 C563 1.380 . S
C565 C564 1.392 . S
C565 H582 0.929 . S
C566 C561 1.383 . S
C566 C562 1.389 . S
C566 H583 0.931 . S
C567 O552 1.266 . S
C567 O553 1.248 . S
C568 Tb504 2.802 . S
C568 O548 1.264 . S
C568 O551 1.256 . S
C568 C561 1.496 . S
C569 C536 1.448 . S
C569 H546 0.930 . S
C569 C570 1.328 . S
C570 C541 1.427 1_554 S
C570 H547 0.929 . S
C570 C569 1.328 . S
C571 O555 1.264 . S
C571 O556 1.243 . S
C572 C575 1.399 . S
C572 C576 1.383 . S
C572 C579 1.496 . S
C573 C574 1.399 . S
C573 C576 1.389 . S
C574 C573 1.399 . S
C574 C577 1.380 . S
C574 H584 0.929 . S
C575 C572 1.399 . S
C575 C577 1.392 . S
C575 H585 0.929 . S
C576 C572 1.383 . S
C576 C573 1.389 . S
C576 H586 0.931 . S
C577 C574 1.380 . S
C577 C575 1.392 . S
C577 H587 0.929 . S
C578 O558 1.266 . S
C578 O559 1.248 . S
C579 Tb515 2.802 . S
C579 O554 1.264 . S
C579 O557 1.256 . S
C579 C572 1.496 . S
H580 C563 0.929 . S
H581 C564 0.929 . S
H582 C565 0.929 . S
H583 C566 0.931 . S
H584 C574 0.929 . S
H585 C575 0.929 . S
H586 C576 0.931 . S
H587 C577 0.929 . S
Tb588 N617 2.617 . S
Tb588 N623 2.572 . S
Tb588 O632 2.465 . S
Tb588 O633 2.387 . S
Tb588 O635 2.428 . S
Tb588 O636 2.308 . S
Tb588 O640 2.349 . S
Tb588 O643 2.393 . S
Tb588 C652 2.802 . S
C589 N590 1.379 . S
C589 C592 1.417 1_554 S
C589 C596 1.423 . S
N590 C589 1.379 . S
N590 C593 1.334 1_554 S
N590 Tb599 2.617 . S
C591 C593 1.390 . S
C591 C594 1.339 . S
C591 H611 0.930 . S
C592 C589 1.417 1_556 S
C592 C594 1.416 . S
C592 C598 1.448 . S
C593 N590 1.334 1_556 S
C593 C591 1.390 . S
C593 H604 0.930 1_556 S
C594 C591 1.339 . S
C594 C592 1.416 . S
C594 H615 0.930 . S
C595 C596 1.413 . S
C595 C597 1.427 1_554 S
C595 C601 1.416 . S
C596 C589 1.423 . S
C596 C595 1.413 . S
C596 N600 1.361 . S
C597 C595 1.427 1_556 S
C597 C598 1.328 . S
C597 H612 0.929 . S
C598 C592 1.448 . S
C598 C597 1.328 . S
C598 H613 0.930 . S
Tb599 N590 2.617 . S
Tb599 N600 2.572 . S
Tb599 O634 2.349 . S
Tb599 O637 2.393 . S
Tb599 O638 2.465 . S
Tb599 O639 2.387 . S
Tb599 O641 2.428 . S
Tb599 O642 2.308 . S
Tb599 C663 2.802 . S
N600 C596 1.361 . S
N600 Tb599 2.572 . S
N600 C602 1.340 . S
C601 C595 1.416 . S
C601 C603 1.332 . S
C601 H609 0.931 . S
C602 N600 1.340 . S
C602 C603 1.407 . S
C602 H608 0.930 . S
C603 C601 1.332 . S
C603 C602 1.407 . S
C603 H605 0.929 . S
H604 C593 0.930 1_554 S
H605 C603 0.929 . S
H606 C621 0.930 . S
H607 C628 0.929 . S
H608 C602 0.930 . S
H609 C601 0.931 . S
H610 C624 0.930 . S
H611 C591 0.930 . S
H612 C597 0.929 . S
H613 C598 0.930 . S
H614 C619 0.930 . S
H615 C594 0.930 . S
H616 C627 0.931 . S
N617 Tb588 2.617 . S
N617 C618 1.379 . S
N617 C621 1.334 . S
C618 N617 1.379 . S
C618 C620 1.416 . S
C618 C626 1.424 . S
C619 H614 0.930 . S
C619 C621 1.390 . S
C619 C622 1.339 . S
C620 C618 1.416 . S
C620 C622 1.416 . S
C620 C653 1.448 . S
C621 H606 0.930 . S
C621 N617 1.334 . S
C621 C619 1.390 . S
C622 C619 1.339 . S
C622 C620 1.416 . S
C622 H629 0.930 . S
N623 Tb588 2.572 . S
N623 C624 1.340 . S
N623 C626 1.361 . S
C624 H610 0.930 . S
C624 N623 1.340 . S
C624 C628 1.407 . S
C625 C626 1.413 . S
C625 C627 1.416 . S
C625 C654 1.427 . S
C626 C618 1.424 . S
C626 N623 1.361 . S
C626 C625 1.413 . S
C627 H616 0.931 . S
C627 C625 1.416 . S
C627 C628 1.332 . S
C628 H607 0.929 . S
C628 C624 1.407 . S
C628 C627 1.332 . S
H629 C622 0.930 . S
H630 C653 0.930 . S
H631 C654 0.929 . S
O632 Tb588 2.465 . S
O632 C652 1.264 . S
O633 Tb588 2.387 . S
O633 C644 1.264 . S
O634 Tb599 2.349 . S
O634 C644 1.243 . S
O635 Tb588 2.428 . S
O635 C652 1.256 . S
O636 Tb588 2.308 . S
O636 C651 1.266 . S
O637 Tb599 2.393 . S
O637 C651 1.248 . S
O638 Tb599 2.465 . S
O638 C663 1.264 . S
O639 Tb599 2.387 . S
O639 C655 1.264 . S
O640 Tb588 2.349 . S
O640 C655 1.243 . S
O641 Tb599 2.428 . S
O641 C663 1.256 . S
O642 Tb599 2.308 . S
O642 C662 1.266 . S
O643 Tb588 2.393 . S
O643 C662 1.248 . S
C644 O633 1.264 . S
C644 O634 1.243 . S
C645 C648 1.399 . S
C645 C650 1.383 . S
C645 C652 1.496 . S
C646 C647 1.399 . S
C646 C650 1.389 . S
C647 C646 1.399 . S
C647 C649 1.380 . S
C647 H664 0.929 . S
C648 C645 1.399 . S
C648 C649 1.392 . S
C648 H665 0.929 . S
C649 C647 1.380 . S
C649 C648 1.392 . S
C649 H666 0.929 . S
C650 C645 1.383 . S
C650 C646 1.389 . S
C650 H667 0.931 . S
C651 O636 1.266 . S
C651 O637 1.248 . S
C652 Tb588 2.802 . S
C652 O632 1.264 . S
C652 O635 1.256 . S
C652 C645 1.496 . S
C653 C620 1.448 . S
C653 H630 0.930 . S
C653 C654 1.328 . S
C654 C625 1.427 . S
C654 H631 0.929 . S
C654 C653 1.328 . S
C655 O639 1.264 . S
C655 O640 1.243 . S
C656 C659 1.399 . S
C656 C660 1.383 . S
C656 C663 1.496 . S
C657 C658 1.399 . S
C657 C660 1.389 . S
C658 C657 1.399 . S
C658 C661 1.380 . S
C658 H668 0.929 . S
C659 C656 1.399 . S
C659 C661 1.392 . S
C659 H669 0.929 . S
C660 C656 1.383 . S
C660 C657 1.389 . S
C660 H670 0.931 . S
C661 C658 1.380 . S
C661 C659 1.392 . S
C661 H671 0.929 . S
C662 O642 1.266 . S
C662 O643 1.248 . S
C663 Tb599 2.802 . S
C663 O638 1.264 . S
C663 O641 1.256 . S
C663 C656 1.496 . S
H664 C647 0.929 . S
H665 C648 0.929 . S
H666 C649 0.929 . S
H667 C650 0.931 . S
H668 C658 0.929 . S
H669 C659 0.929 . S
H670 C660 0.931 . S
H671 C661 0.929 . S
H672 C678 0.930 . S
H673 C681 0.930 . S
H674 C682 0.930 . S
H675 C683 0.930 . S
H676 C686 0.930 . S
H677 C687 0.930 . S
C678 H672 0.930 . S
C678 C679 1.355 . S
C678 C680 1.415 . S
C679 C678 1.355 . S
C679 C681 1.419 . S
C680 C678 1.415 . S
C680 C685 1.425 . S
C680 C687 1.409 . S
C681 H673 0.930 . S
C681 C679 1.419 . S
C681 C682 1.362 . S
C682 H674 0.930 . S
C682 C681 1.362 . S
C682 C685 1.409 . S
C683 H675 0.930 . S
C683 C684 1.355 . S
C683 C685 1.415 1_565 S
C684 C683 1.355 . S
C684 C686 1.419 . S
C685 C680 1.425 . S
C685 C682 1.409 . S
C685 C683 1.415 1_545 S
C686 H676 0.930 . S
C686 C684 1.419 . S
C686 C687 1.362 1_565 S
C687 H677 0.930 . S
C687 C680 1.409 . S
C687 C686 1.362 1_545 S
H688 C694 0.930 . S
H689 C697 0.930 . S
H690 C698 0.930 . S
H691 C699 0.930 . S
H692 C702 0.930 . S
H693 C703 0.930 . S
C694 H688 0.930 . S
C694 C695 1.355 . S
C694 C696 1.415 . S
C695 C694 1.355 . S
C695 C697 1.419 . S
C696 C694 1.415 . S
C696 C701 1.425 . S
C696 C703 1.409 1_455 S
C697 H689 0.930 . S
C697 C695 1.419 . S
C697 C698 1.362 . S
C698 H690 0.930 . S
C698 C697 1.362 . S
C698 C701 1.409 . S
C699 H691 0.930 . S
C699 C700 1.355 . S
C699 C701 1.415 1_655 S
C700 C699 1.355 . S
C700 C702 1.419 . S
C701 C696 1.425 . S
C701 C698 1.409 . S
C701 C699 1.415 1_455 S
C702 H692 0.930 . S
C702 C700 1.419 . S
C702 C703 1.362 . S
C703 H693 0.930 . S
C703 C696 1.409 1_655 S
C703 C702 1.362 . S
H704 C710 0.930 . S
H705 C713 0.930 . S
H706 C714 0.930 . S
H707 C715 0.930 . S
H708 C718 0.930 . S
H709 C719 0.930 . S
C710 H704 0.930 . S
C710 C711 1.355 . S
C710 C712 1.415 . S
C711 C710 1.355 . S
C711 C713 1.419 . S
C712 C710 1.415 . S
C712 C717 1.425 . S
C712 C719 1.409 . S
C713 H705 0.930 . S
C713 C711 1.419 . S
C713 C714 1.362 . S
C714 H706 0.930 . S
C714 C713 1.362 . S
C714 C717 1.409 . S
C715 H707 0.930 . S
C715 C716 1.355 . S
C715 C717 1.415 1_545 S
C716 C715 1.355 . S
C716 C718 1.419 . S
C717 C712 1.425 . S
C717 C714 1.409 . S
C717 C715 1.415 1_565 S
C718 H708 0.930 . S
C718 C716 1.419 . S
C718 C719 1.362 1_545 S
C719 H709 0.930 . S
C719 C712 1.409 . S
C719 C718 1.362 1_565 S
H720 C726 0.930 . S
H721 C729 0.930 . S
H722 C730 0.930 . S
H723 C731 0.930 . S
H724 C734 0.930 . S
H725 C735 0.930 . S
C726 H720 0.930 . S
C726 C727 1.355 . S
C726 C728 1.415 1_455 S
C727 C726 1.355 . S
C727 C729 1.419 . S
C728 C726 1.415 1_655 S
C728 C733 1.425 . S
C728 C735 1.409 . S
C729 H721 0.930 . S
C729 C727 1.419 . S
C729 C730 1.362 1_455 S
C730 H722 0.930 . S
C730 C729 1.362 1_655 S
C730 C733 1.409 . S
C731 H723 0.930 . S
C731 C732 1.355 . S
C731 C733 1.415 . S
C732 C731 1.355 . S
C732 C734 1.419 . S
C733 C728 1.425 . S
C733 C730 1.409 . S
C733 C731 1.415 . S
C734 H724 0.930 . S
C734 C732 1.419 . S
C734 C735 1.362 . S
C735 H725 0.930 . S
C735 C728 1.409 . S
C735 C734 1.362 . S
H736 C742 0.930 . S
H737 C745 0.930 . S
H738 C746 0.930 . S
H739 C747 0.930 1_554 S
H740 C750 0.930 . S
H741 C751 0.930 . S
C742 H736 0.930 . S
C742 C743 1.355 . S
C742 C744 1.415 . S
C743 C742 1.355 . S
C743 C745 1.419 1_556 S
C744 C742 1.415 . S
C744 C749 1.425 . S
C744 C751 1.409 . S
C745 H737 0.930 . S
C745 C743 1.419 1_554 S
C745 C746 1.362 . S
C746 H738 0.930 . S
C746 C745 1.362 . S
C746 C749 1.409 1_554 S
C747 H739 0.930 1_556 S
C747 C748 1.355 . S
C747 C749 1.415 . S
C748 C747 1.355 . S
C748 C750 1.419 . S
C749 C744 1.425 . S
C749 C746 1.409 1_556 S
C749 C747 1.415 . S
C750 H740 0.930 . S
C750 C748 1.419 . S
C750 C751 1.362 . S
C751 H741 0.930 . S
C751 C744 1.409 . S
C751 C750 1.362 . S
H752 C758 0.930 1_556 S
H753 C761 0.930 . S
H754 C762 0.930 . S
H755 C763 0.930 . S
H756 C766 0.930 . S
H757 C767 0.930 . S
C758 H752 0.930 1_554 S
C758 C759 1.355 . S
C758 C760 1.415 . S
C759 C758 1.355 . S
C759 C761 1.419 . S
C760 C758 1.415 . S
C760 C765 1.425 . S
C760 C767 1.409 . S
C761 H753 0.930 . S
C761 C759 1.419 . S
C761 C762 1.362 . S
C762 H754 0.930 . S
C762 C761 1.362 . S
C762 C765 1.409 . S
C763 H755 0.930 . S
C763 C764 1.355 . S
C763 C765 1.415 . S
C764 C763 1.355 . S
C764 C766 1.419 . S
C765 C760 1.425 . S
C765 C762 1.409 . S
C765 C763 1.415 . S
C766 H756 0.930 . S
C766 C764 1.419 . S
C766 C767 1.362 . S
C767 H757 0.930 . S
C767 C760 1.409 . S
C767 C766 1.362 . S
H768 C774 0.930 . S
H769 C777 0.930 1_554 S
H770 C778 0.930 1_554 S
H771 C779 0.930 . S
H772 C782 0.930 . S
H773 C783 0.930 . S
C774 H768 0.930 . S
C774 C775 1.355 . S
C774 C776 1.415 . S
C775 C774 1.355 . S
C775 C777 1.419 . S
C776 C774 1.415 . S
C776 C781 1.425 . S
C776 C783 1.409 . S
C777 H769 0.930 1_556 S
C777 C775 1.419 . S
C777 C778 1.362 . S
C778 H770 0.930 1_556 S
C778 C777 1.362 . S
C778 C781 1.409 . S
C779 H771 0.930 . S
C779 C780 1.355 . S
C779 C781 1.415 . S
C780 C779 1.355 . S
C780 C782 1.419 . S
C781 C776 1.425 . S
C781 C778 1.409 . S
C781 C779 1.415 . S
C782 H772 0.930 . S
C782 C780 1.419 . S
C782 C783 1.362 . S
C783 H773 0.930 . S
C783 C776 1.409 . S
C783 C782 1.362 . S
H784 C790 0.930 . S
H785 C793 0.930 1_556 S
H786 C794 0.930 . S
H787 C795 0.930 1_556 S
H788 C798 0.930 . S
H789 C799 0.930 . S
C790 H784 0.930 . S
C790 C791 1.355 . S
C790 C792 1.415 . S
C791 C790 1.355 . S
C791 C793 1.419 . S
C792 C790 1.415 . S
C792 C797 1.425 . S
C792 C799 1.409 . S
C793 H785 0.930 1_554 S
C793 C791 1.419 . S
C793 C794 1.362 1_554 S
C794 H786 0.930 . S
C794 C793 1.362 1_556 S
C794 C797 1.409 1_556 S
C795 H787 0.930 1_554 S
C795 C796 1.355 . S
C795 C797 1.415 . S
C796 C795 1.355 . S
C796 C798 1.419 . S
C797 C792 1.425 . S
C797 C794 1.409 1_554 S
C797 C795 1.415 . S
C798 H788 0.930 . S
C798 C796 1.419 . S
C798 C799 1.362 . S
C799 H789 0.930 . S
C799 C792 1.409 . S
C799 C798 1.362 . S
H800 C806 0.930 . S
H801 C809 0.930 . S
H802 C810 0.930 . S
H803 C811 0.930 . S
H804 C814 0.930 . S
H805 C815 0.930 . S
C806 H800 0.930 . S
C806 C807 1.355 . S
C806 C808 1.415 . S
C807 C806 1.355 . S
C807 C809 1.419 . S
C808 C806 1.415 . S
C808 C813 1.425 . S
C808 C815 1.409 . S
C809 H801 0.930 . S
C809 C807 1.419 . S
C809 C810 1.362 . S
C810 H802 0.930 . S
C810 C809 1.362 . S
C810 C813 1.409 . S
C811 H803 0.930 . S
C811 C812 1.355 . S
C811 C813 1.415 . S
C812 C811 1.355 . S
C812 C814 1.419 . S
C813 C808 1.425 . S
C813 C810 1.409 . S
C813 C811 1.415 . S
C814 H804 0.930 . S
C814 C812 1.419 . S
C814 C815 1.362 . S
C815 H805 0.930 . S
C815 C808 1.409 . S
C815 C814 1.362 . S
H816 C822 0.930 . S
H817 C825 0.930 . S
H818 C826 0.930 . S
H819 C827 0.930 . S
H820 C830 0.930 . S
H821 C831 0.930 . S
C822 H816 0.930 . S
C822 C823 1.355 . S
C822 C824 1.415 . S
C823 C822 1.355 . S
C823 C825 1.419 . S
C824 C822 1.415 . S
C824 C829 1.425 . S
C824 C831 1.409 . S
C825 H817 0.930 . S
C825 C823 1.419 . S
C825 C826 1.362 . S
C826 H818 0.930 . S
C826 C825 1.362 . S
C826 C829 1.409 . S
C827 H819 0.930 . S
C827 C828 1.355 . S
C827 C829 1.415 . S
C828 C827 1.355 . S
C828 C830 1.419 . S
C829 C824 1.425 . S
C829 C826 1.409 . S
C829 C827 1.415 . S
C830 H820 0.930 . S
C830 C828 1.419 . S
C830 C831 1.362 . S
C831 H821 0.930 . S
C831 C824 1.409 . S
C831 C830 1.362 . S
H832 C838 0.930 . S
H833 C841 0.930 . S
H834 C842 0.930 . S
H835 C843 0.930 . S
H836 C846 0.930 . S
H837 C847 0.930 . S
C838 H832 0.930 . S
C838 C839 1.355 . S
C838 C840 1.415 . S
C839 C838 1.355 . S
C839 C841 1.419 . S
C840 C838 1.415 . S
C840 C845 1.425 . S
C840 C847 1.409 . S
C841 H833 0.930 . S
C841 C839 1.419 . S
C841 C842 1.362 . S
C842 H834 0.930 . S
C842 C841 1.362 . S
C842 C845 1.409 . S
C843 H835 0.930 . S
C843 C844 1.355 . S
C843 C845 1.415 . S
C844 C843 1.355 . S
C844 C846 1.419 . S
C845 C840 1.425 . S
C845 C842 1.409 . S
C845 C843 1.415 . S
C846 H836 0.930 . S
C846 C844 1.419 . S
C846 C847 1.362 . S
C847 H837 0.930 . S
C847 C840 1.409 . S
C847 C846 1.362 . S
H848 C854 0.930 . S
H849 C857 0.930 . S
H850 C858 0.930 . S
H851 C859 0.930 . S
H852 C862 0.930 . S
H853 C863 0.930 . S
C854 H848 0.930 . S
C854 C855 1.355 . S
C854 C856 1.415 . S
C855 C854 1.355 . S
C855 C857 1.419 . S
C856 C854 1.415 . S
C856 C861 1.425 . S
C856 C863 1.409 . S
C857 H849 0.930 . S
C857 C855 1.419 . S
C857 C858 1.362 . S
C858 H850 0.930 . S
C858 C857 1.362 . S
C858 C861 1.409 . S
C859 H851 0.930 . S
C859 C860 1.355 . S
C859 C861 1.415 . S
C860 C859 1.355 . S
C860 C862 1.419 . S
C861 C856 1.425 . S
C861 C858 1.409 . S
C861 C859 1.415 . S
C862 H852 0.930 . S
C862 C860 1.419 . S
C862 C863 1.362 . S
C863 H853 0.930 . S
C863 C856 1.409 . S
C863 C862 1.362 . S
H864 C870 0.930 . S
H865 C873 0.930 . S
H866 C874 0.930 . S
H867 C875 0.930 . S
H868 C878 0.930 . S
H869 C879 0.930 . S
C870 H864 0.930 . S
C870 C871 1.355 . S
C870 C872 1.415 1_545 S
C871 C870 1.355 . S
C871 C873 1.419 . S
C872 C870 1.415 1_565 S
C872 C877 1.425 . S
C872 C879 1.409 . S
C873 H865 0.930 . S
C873 C871 1.419 . S
C873 C874 1.362 1_545 S
C874 H866 0.930 . S
C874 C873 1.362 1_565 S
C874 C877 1.409 . S
C875 H867 0.930 . S
C875 C876 1.355 . S
C875 C877 1.415 . S
C876 C875 1.355 . S
C876 C878 1.419 . S
C877 C872 1.425 . S
C877 C874 1.409 . S
C877 C875 1.415 . S
C878 H868 0.930 . S
C878 C876 1.419 . S
C878 C879 1.362 . S
C879 H869 0.930 . S
C879 C872 1.409 . S
C879 C878 1.362 . S
H880 C886 0.930 . S
H881 C889 0.930 . S
H882 C890 0.930 . S
H883 C891 0.930 . S
H884 C894 0.930 . S
H885 C895 0.930 1_455 S
C886 H880 0.930 . S
C886 C887 1.355 . S
C886 C888 1.415 1_455 S
C887 C886 1.355 . S
C887 C889 1.419 . S
C888 C886 1.415 1_655 S
C888 C893 1.425 . S
C888 C895 1.409 . S
C889 H881 0.930 . S
C889 C887 1.419 . S
C889 C890 1.362 1_455 S
C890 H882 0.930 . S
C890 C889 1.362 1_655 S
C890 C893 1.409 . S
C891 H883 0.930 . S
C891 C892 1.355 . S
C891 C893 1.415 . S
C892 C891 1.355 . S
C892 C894 1.419 . S
C893 C888 1.425 . S
C893 C890 1.409 . S
C893 C891 1.415 . S
C894 H884 0.930 . S
C894 C892 1.419 . S
C894 C895 1.362 . S
C895 H885 0.930 1_655 S
C895 C888 1.409 . S
C895 C894 1.362 . S
H896 C902 0.930 . S
H897 C905 0.930 . S
H898 C906 0.930 . S
H899 C907 0.930 . S
H900 C910 0.930 . S
H901 C911 0.930 . S
C902 H896 0.930 . S
C902 C903 1.355 . S
C902 C904 1.415 1_565 S
C903 C902 1.355 . S
C903 C905 1.419 . S
C904 C902 1.415 1_545 S
C904 C909 1.425 . S
C904 C911 1.409 . S
C905 H897 0.930 . S
C905 C903 1.419 . S
C905 C906 1.362 1_565 S
C906 H898 0.930 . S
C906 C905 1.362 1_545 S
C906 C909 1.409 . S
C907 H899 0.930 . S
C907 C908 1.355 . S
C907 C909 1.415 . S
C908 C907 1.355 . S
C908 C910 1.419 . S
C909 C904 1.425 . S
C909 C906 1.409 . S
C909 C907 1.415 . S
C910 H900 0.930 . S
C910 C908 1.419 . S
C910 C911 1.362 . S
C911 H901 0.930 . S
C911 C904 1.409 . S
C911 C910 1.362 . S
H912 C918 0.930 . S
H913 C921 0.930 . S
H914 C922 0.930 . S
H915 C923 0.930 . S
H916 C926 0.930 . S
H917 C927 0.930 . S
C918 H912 0.930 . S
C918 C919 1.355 . S
C918 C920 1.415 . S
C919 C918 1.355 . S
C919 C921 1.419 . S
C920 C918 1.415 . S
C920 C925 1.425 . S
C920 C927 1.409 . S
C921 H913 0.930 . S
C921 C919 1.419 . S
C921 C922 1.362 . S
C922 H914 0.930 . S
C922 C921 1.362 . S
C922 C925 1.409 . S
C923 H915 0.930 . S
C923 C924 1.355 . S
C923 C925 1.415 1_655 S
C924 C923 1.355 . S
C924 C926 1.419 . S
C925 C920 1.425 . S
C925 C922 1.409 . S
C925 C923 1.415 1_455 S
C926 H916 0.930 . S
C926 C924 1.419 . S
C926 C927 1.362 1_655 S
C927 H917 0.930 . S
C927 C920 1.409 . S
C927 C926 1.362 1_455 S
H928 C934 0.930 . S
H929 C937 0.930 . S
H930 C938 0.930 . S
H931 C939 0.930 . S
H932 C942 0.930 . S
H933 C943 0.930 . S
C934 H928 0.930 . S
C934 C935 1.355 . S
C934 C936 1.415 . S
C935 C934 1.355 . S
C935 C937 1.419 . S
C936 C934 1.415 . S
C936 C941 1.425 . S
C936 C943 1.409 . S
C937 H929 0.930 . S
C937 C935 1.419 . S
C937 C938 1.362 . S
C938 H930 0.930 . S
C938 C937 1.362 . S
C938 C941 1.409 . S
C939 H931 0.930 . S
C939 C940 1.355 . S
C939 C941 1.415 . S
C940 C939 1.355 . S
C940 C942 1.419 . S
C941 C936 1.425 . S
C941 C938 1.409 . S
C941 C939 1.415 . S
C942 H932 0.930 . S
C942 C940 1.419 . S
C942 C943 1.362 . S
C943 H933 0.930 . S
C943 C936 1.409 . S
C943 C942 1.362 . S
H944 C950 0.930 . S
H945 C953 0.930 . S
H946 C954 0.930 . S
H947 C955 0.930 . S
H948 C958 0.930 . S
H949 C959 0.930 . S
C950 H944 0.930 . S
C950 C951 1.355 . S
C950 C952 1.415 . S
C951 C950 1.355 . S
C951 C953 1.419 . S
C952 C950 1.415 . S
C952 C957 1.425 . S
C952 C959 1.409 . S
C953 H945 0.930 . S
C953 C951 1.419 . S
C953 C954 1.362 . S
C954 H946 0.930 . S
C954 C953 1.362 . S
C954 C957 1.409 . S
C955 H947 0.930 . S
C955 C956 1.355 . S
C955 C957 1.415 . S
C956 C955 1.355 . S
C956 C958 1.419 . S
C957 C952 1.425 . S
C957 C954 1.409 . S
C957 C955 1.415 . S
C958 H948 0.930 . S
C958 C956 1.419 . S
C958 C959 1.362 . S
C959 H949 0.930 . S
C959 C952 1.409 . S
C959 C958 1.362 . S
H960 C966 0.930 . S
H961 C969 0.930 . S
H962 C970 0.930 . S
H963 C971 0.930 . S
H964 C974 0.930 . S
H965 C975 0.930 . S
C966 H960 0.930 . S
C966 C967 1.355 . S
C966 C968 1.415 . S
C967 C966 1.355 . S
C967 C969 1.419 . S
C968 C966 1.415 . S
C968 C973 1.425 . S
C968 C975 1.409 . S
C969 H961 0.930 . S
C969 C967 1.419 . S
C969 C970 1.362 . S
C970 H962 0.930 . S
C970 C969 1.362 . S
C970 C973 1.409 . S
C971 H963 0.930 . S
C971 C972 1.355 . S
C971 C973 1.415 . S
C972 C971 1.355 . S
C972 C974 1.419 . S
C973 C968 1.425 . S
C973 C970 1.409 . S
C973 C971 1.415 . S
C974 H964 0.930 . S
C974 C972 1.419 . S
C974 C975 1.362 . S
C975 H965 0.930 . S
C975 C968 1.409 . S
C975 C974 1.362 . S
H976 C982 0.930 . S
H977 C985 0.930 . S
H978 C986 0.930 . S
H979 C987 0.930 . S
H980 C990 0.930 . S
H981 C991 0.930 . S
C982 H976 0.930 . S
C982 C983 1.355 . S
C982 C984 1.415 . S
C983 C982 1.355 . S
C983 C985 1.419 . S
C984 C982 1.415 . S
C984 C989 1.425 . S
C984 C991 1.409 . S
C985 H977 0.930 . S
C985 C983 1.419 . S
C985 C986 1.362 . S
C986 H978 0.930 . S
C986 C985 1.362 . S
C986 C989 1.409 . S
C987 H979 0.930 . S
C987 C988 1.355 . S
C987 C989 1.415 . S
C988 C987 1.355 . S
C988 C990 1.419 . S
C989 C984 1.425 . S
C989 C986 1.409 . S
C989 C987 1.415 . S
C990 H980 0.930 . S
C990 C988 1.419 . S
C990 C991 1.362 . S
C991 H981 0.930 . S
C991 C984 1.409 . S
C991 C990 1.362 . S
H992 C998 0.930 . S
H993 C1001 0.930 . S
H994 C1002 0.930 . S
H995 C1003 0.930 . S
H996 C1006 0.930 . S
H997 C1007 0.930 . S
C998 H992 0.930 . S
C998 C999 1.355 . S
C998 C1000 1.415 . S
C999 C998 1.355 . S
C999 C1001 1.419 . S
C1000 C998 1.415 . S
C1000 C1005 1.425 . S
C1000 C1007 1.409 . S
C1001 H993 0.930 . S
C1001 C999 1.419 . S
C1001 C1002 1.362 . S
C1002 H994 0.930 . S
C1002 C1001 1.362 . S
C1002 C1005 1.409 . S
C1003 H995 0.930 . S
C1003 C1004 1.355 . S
C1003 C1005 1.415 . S
C1004 C1003 1.355 . S
C1004 C1006 1.419 . S
C1005 C1000 1.425 . S
C1005 C1002 1.409 . S
C1005 C1003 1.415 . S
C1006 H996 0.930 . S
C1006 C1004 1.419 . S
C1006 C1007 1.362 . S
C1007 H997 0.930 . S
C1007 C1000 1.409 . S
C1007 C1006 1.362 . S
H1008 C1014 0.930 . S
H1009 C1017 0.930 . S
H1010 C1018 0.930 . S
H1011 C1019 0.930 . S
H1012 C1022 0.930 . S
H1013 C1023 0.930 . S
C1014 H1008 0.930 . S
C1014 C1015 1.355 . S
C1014 C1016 1.415 . S
C1015 C1014 1.355 . S
C1015 C1017 1.419 . S
C1016 C1014 1.415 . S
C1016 C1021 1.425 . S
C1016 C1023 1.409 . S
C1017 H1009 0.930 . S
C1017 C1015 1.419 . S
C1017 C1018 1.362 . S
C1018 H1010 0.930 . S
C1018 C1017 1.362 . S
C1018 C1021 1.409 . S
C1019 H1011 0.930 . S
C1019 C1020 1.355 . S
C1019 C1021 1.415 . S
C1020 C1019 1.355 . S
C1020 C1022 1.419 . S
C1021 C1016 1.425 . S
C1021 C1018 1.409 . S
C1021 C1019 1.415 . S
C1022 H1012 0.930 . S
C1022 C1020 1.419 . S
C1022 C1023 1.362 . S
C1023 H1013 0.930 . S
C1023 C1016 1.409 . S
C1023 C1022 1.362 . S
H1024 C1030 0.930 . S
H1025 C1033 0.930 . S
H1026 C1034 0.930 . S
H1027 C1035 0.930 . S
H1028 C1038 0.930 . S
H1029 C1039 0.930 . S
C1030 H1024 0.930 . S
C1030 C1031 1.355 . S
C1030 C1032 1.415 . S
C1031 C1030 1.355 . S
C1031 C1033 1.419 . S
C1032 C1030 1.415 . S
C1032 C1037 1.425 . S
C1032 C1039 1.409 . S
C1033 H1025 0.930 . S
C1033 C1031 1.419 . S
C1033 C1034 1.362 . S
C1034 H1026 0.930 . S
C1034 C1033 1.362 . S
C1034 C1037 1.409 . S
C1035 H1027 0.930 . S
C1035 C1036 1.355 . S
C1035 C1037 1.415 . S
C1036 C1035 1.355 . S
C1036 C1038 1.419 . S
C1037 C1032 1.425 . S
C1037 C1034 1.409 . S
C1037 C1035 1.415 . S
C1038 H1028 0.930 . S
C1038 C1036 1.419 . S
C1038 C1039 1.362 . S
C1039 H1029 0.930 . S
C1039 C1032 1.409 . S
C1039 C1038 1.362 . S
H1040 C1046 0.930 . S
H1041 C1049 0.930 . S
H1042 C1050 0.930 . S
H1043 C1051 0.930 . S
H1044 C1054 0.930 . S
H1045 C1055 0.930 . S
C1046 H1040 0.930 . S
C1046 C1047 1.355 . S
C1046 C1048 1.415 . S
C1047 C1046 1.355 . S
C1047 C1049 1.419 . S
C1048 C1046 1.415 . S
C1048 C1053 1.425 . S
C1048 C1055 1.409 . S
C1049 H1041 0.930 . S
C1049 C1047 1.419 . S
C1049 C1050 1.362 . S
C1050 H1042 0.930 . S
C1050 C1049 1.362 . S
C1050 C1053 1.409 . S
C1051 H1043 0.930 . S
C1051 C1052 1.355 . S
C1051 C1053 1.415 . S
C1052 C1051 1.355 . S
C1052 C1054 1.419 . S
C1053 C1048 1.425 . S
C1053 C1050 1.409 . S
C1053 C1051 1.415 . S
C1054 H1044 0.930 . S
C1054 C1052 1.419 . S
C1054 C1055 1.362 . S
C1055 H1045 0.930 . S
C1055 C1048 1.409 . S
C1055 C1054 1.362 . S
C679 C67 1.405 . S
C684 C478 1.145 . S
C695 C140 1.440 . S
C700 C562 1.389 . S
C711 C235 1.481 . S
C716 C657 1.393 . S
C727 C394 1.346 . S
C732 C315 1.385 . S
C743 C489 1.311 1_556 S
C748 C410 1.357 . S
C759 C573 1.068 1_554 S
C764 C476 1.408 . S
C775 C646 1.047 1_556 S
C780 C578 1.354 . S
C791 C651 1.380 . S
C796 C405 1.187 1_554 S
C807 C571 1.401 . S
C812 C310 1.137 . S
C823 C644 1.404 . S
C828 C58 1.379 . S
C839 C153 1.312 . S
C844 C403 1.418 . S
C855 C226 1.267 . S
C860 C483 1.313 . S
C871 C321 1.311 . S
C876 C242 1.358 . S
C887 C69 1.168 . S
C892 C308 1.444 . S
C903 C142 1.164 . S
C908 C74 1.343 . S
C919 C147 1.407 . S
C924 C237 1.208 . S
C935 C392 2.675 1_554 S
C940 C63 2.730 . S
C951 C494 2.730 1_556 S
C956 C158 2.750 . S
C967 C231 2.745 . S
C972 C560 2.676 1_554 S
C983 C319 2.720 . S
C988 C655 2.727 1_556 S
C999 C224 2.693 . S
C1004 C567 2.727 . S
C1015 C326 2.717 . S
C1020 C662 2.739 . S
C1031 C399 2.746 . S
C1036 C56 2.676 . S
C1047 C487 2.704 . S
C1052 C151 2.698 . S
