# Generated by pormake.
# Topology utk, (3)-cn, num edge types: 1
# Building blocks:
#     Node 0, Type 0, BuildingBlock: OLANEW_clean_sbu_2, # of connection points: 3
#     Node 1, Type 0, BuildingBlock: OLANEW_clean_sbu_2, # of connection points: 3
#     Node 2, Type 0, BuildingBlock: OLANEW_clean_sbu_2, # of connection points: 3
#     Node 3, Type 0, BuildingBlock: OLANEW_clean_sbu_2, # of connection points: 3
#     Node 4, Type 0, BuildingBlock: OLANEW_clean_sbu_2, # of connection points: 3
#     Node 5, Type 0, BuildingBlock: OLANEW_clean_sbu_2, # of connection points: 3
#     Node 6, Type 0, BuildingBlock: OLANEW_clean_sbu_2, # of connection points: 3
#     Node 7, Type 0, BuildingBlock: OLANEW_clean_sbu_2, # of connection points: 3
#     Edge 8, Type (0, 0), BuildingBlock: KIFKEQ_clean_linker_1, # of connection points: 2
#     Edge 9, Type (0, 0), BuildingBlock: KIFKEQ_clean_linker_1, # of connection points: 2
#     Edge 10, Type (0, 0), BuildingBlock: KIFKEQ_clean_linker_1, # of connection points: 2
#     Edge 11, Type (0, 0), BuildingBlock: KIFKEQ_clean_linker_1, # of connection points: 2
#     Edge 12, Type (0, 0), BuildingBlock: KIFKEQ_clean_linker_1, # of connection points: 2
#     Edge 13, Type (0, 0), BuildingBlock: KIFKEQ_clean_linker_1, # of connection points: 2
#     Edge 14, Type (0, 0), BuildingBlock: KIFKEQ_clean_linker_1, # of connection points: 2
#     Edge 15, Type (0, 0), BuildingBlock: KIFKEQ_clean_linker_1, # of connection points: 2
#     Edge 16, Type (0, 0), BuildingBlock: KIFKEQ_clean_linker_1, # of connection points: 2
#     Edge 17, Type (0, 0), BuildingBlock: KIFKEQ_clean_linker_1, # of connection points: 2
#     Edge 18, Type (0, 0), BuildingBlock: KIFKEQ_clean_linker_1, # of connection points: 2
#     Edge 19, Type (0, 0), BuildingBlock: KIFKEQ_clean_linker_1, # of connection points: 2
# Relax obj value: 0.000
# Max RMSD: 0.043
# Mean RMSD: 0.043
data_MOF--net-utk--node1-OLANEW_clean_sbu_2--edge1-KIFKEQ_clean_linker_1
_symmetry_space_group_name_H-M    P1
_symmetry_Int_Tables_number       1
_symmetry_cell_setting            triclinic
loop_
_symmetry_equiv_pos_as_xyz
'x, y, z'
_cell_length_a     44.705705
_cell_length_b     44.719195
_cell_length_c     32.383941
_cell_angle_alpha  90.61201
_cell_angle_beta   89.71082
_cell_angle_gamma 90.058327
loop_
_atom_site_label
_atom_site_type_symbol
_atom_site_fract_x
_atom_site_fract_y
_atom_site_fract_z
_atom_type_partial_charge
O0 O 0.15659 0.36837 0.21158 0.0
Cd1 Cd 0.16147 0.31507 0.19514 0.0
O2 O 0.11094 0.37154 0.18694 0.0
Cd3 Cd 0.10811 0.32618 0.16156 0.0
O4 O 0.0881 0.30041 0.11113 0.0
C5 C 0.06459 0.2849 0.11652 0.0
O6 O 0.05384 0.28202 0.15411 0.0
C7 C 0.13324 0.38369 0.20465 0.0
C8 C 0.1848 0.28382 0.26187 0.0
O9 O 0.202 0.29683 0.23585 0.0
O10 O 0.15649 0.2854 0.25624 0.0
O11 O 0.60905 0.11366 0.5125 0.0
Cd12 Cd 0.66143 0.09802 0.51122 0.0
O13 O 0.60245 0.10667 0.44581 0.0
Cd14 Cd 0.64722 0.08975 0.43187 0.0
O15 O 0.67299 0.06001 0.39136 0.0
C16 C 0.68762 0.07002 0.36072 0.0
O17 O 0.68948 0.09908 0.35575 0.0
C18 C 0.5922 0.11438 0.48102 0.0
C19 C 0.69884 0.13921 0.5506 0.0
O20 O 0.69606 0.13906 0.51122 0.0
O21 O 0.6839 0.11999 0.57132 0.0
O22 O 0.85655 0.61987 0.70055 0.0
Cd23 Cd 0.85882 0.673 0.6836 0.0
O24 O 0.90359 0.61957 0.72011 0.0
Cd25 Cd 0.9143 0.66301 0.69349 0.0
O26 O 0.93907 0.68627 0.64514 0.0
C27 C 0.92615 0.69767 0.61419 0.0
O28 O 0.89678 0.69766 0.6128 0.0
C29 C 0.87861 0.60621 0.71627 0.0
C30 C 0.82642 0.70733 0.74076 0.0
O31 O 0.81439 0.69808 0.70712 0.0
O32 O 0.85381 0.70048 0.74727 0.0
O33 O 0.36838 0.83735 0.9301 0.0
Cd34 Cd 0.31569 0.83571 0.91037 0.0
O35 O 0.36736 0.885 0.9476 0.0
Cd36 Cd 0.32403 0.89369 0.91915 0.0
O37 O 0.29866 0.91901 0.87373 0.0
C38 C 0.30119 0.9473 0.87576 0.0
O39 O 0.31681 0.95915 0.90607 0.0
C40 C 0.38127 0.86024 0.94541 0.0
C41 C 0.28241 0.80809 0.97246 0.0
O42 O 0.29544 0.79271 0.94403 0.0
O43 O 0.28471 0.83665 0.97124 0.0
O44 O 0.1476 0.6223 0.25956 0.0
Cd45 Cd 0.14922 0.67612 0.27361 0.0
O46 O 0.10293 0.61604 0.28705 0.0
Cd47 Cd 0.09622 0.66179 0.30953 0.0
O48 O 0.07248 0.68917 0.35536 0.0
C49 C 0.04408 0.68785 0.35468 0.0
O50 O 0.03116 0.6725 0.32487 0.0
C51 C 0.12575 0.60532 0.26862 0.0
C52 C 0.17716 0.70629 0.20888 0.0
O53 O 0.19242 0.69467 0.238 0.0
O54 O 0.1486 0.70386 0.21045 0.0
O55 O 0.35811 0.14663 0.55154 0.0
Cd56 Cd 0.30461 0.14744 0.56744 0.0
O57 O 0.35569 0.10323 0.51917 0.0
Cd58 Cd 0.31233 0.09198 0.54633 0.0
O59 O 0.29184 0.0645 0.59423 0.0
C60 C 0.28244 0.07578 0.62805 0.0
O61 O 0.28263 0.105 0.63285 0.0
C62 C 0.37051 0.12638 0.52958 0.0
C63 C 0.27444 0.17653 0.50416 0.0
O64 O 0.2858 0.1912 0.53447 0.0
O65 O 0.27686 0.14797 0.50408 0.0
O66 O 0.87549 0.36656 0.73421 0.0
Cd67 Cd 0.88741 0.31319 0.73381 0.0
O68 O 0.89641 0.37427 0.79474 0.0
Cd69 Cd 0.90953 0.32815 0.80687 0.0
O70 O 0.93466 0.29844 0.847 0.0
C71 C 0.92468 0.29493 0.88344 0.0
O72 O 0.8988 0.30696 0.89344 0.0
C73 C 0.88289 0.3843 0.76335 0.0
C74 C 0.84393 0.27822 0.69493 0.0
O75 O 0.84432 0.28111 0.73435 0.0
O76 O 0.86392 0.292 0.67394 0.0
O77 O 0.61934 0.85349 -0.00388 0.0
Cd78 Cd 0.67309 0.86002 0.00697 0.0
O79 O 0.60757 0.87312 0.05663 0.0
Cd80 Cd 0.65292 0.88324 0.07737 0.0
O81 O 0.68084 0.9085 0.12057 0.0
C82 C 0.68194 0.93669 0.11627 0.0
O83 O 0.66858 0.94859 0.08434 0.0
C84 C 0.59963 0.86133 0.02251 0.0
C85 C 0.70682 0.82723 0.94956 0.0
O86 O 0.70021 0.81636 0.98492 0.0
O87 O 0.69751 0.8536 0.9414 0.0
H88 H 0.08653 0.42224 0.19492 0.0
H89 H 0.17762 0.41834 0.23871 0.0
H90 H 0.08519 0.47562 0.20988 0.0
H91 H 0.17603 0.47188 0.25435 0.0
H92 H 0.17183 0.57366 0.23288 0.0
H93 H 0.17382 0.52001 0.21821 0.0
H94 H 0.0848 0.50988 0.26865 0.0
H95 H 0.08255 0.56336 0.28267 0.0
C96 C 0.10623 0.4327 0.20803 0.0
C97 C 0.13219 0.41595 0.21563 0.0
C98 C 0.10539 0.46333 0.21677 0.0
C99 C 0.1305 0.47802 0.2333 0.0
C100 C 0.15643 0.46128 0.24115 0.0
C101 C 0.15726 0.43056 0.23248 0.0
C102 C 0.15264 0.56 0.24071 0.0
C103 C 0.127 0.57287 0.25885 0.0
C104 C 0.15388 0.52922 0.23258 0.0
C105 C 0.12947 0.51067 0.24229 0.0
C106 C 0.10384 0.52358 0.26033 0.0
C107 C 0.10262 0.55427 0.26852 0.0
H108 H 0.56212 0.13145 0.55139 0.0
H109 H 0.5493 0.1138 0.42115 0.0
H110 H 0.50826 0.1379 0.56013 0.0
H111 H 0.49558 0.12054 0.42996 0.0
H112 H 0.40264 0.08964 0.47806 0.0
H113 H 0.4562 0.09087 0.46421 0.0
H114 H 0.46478 0.16961 0.54166 0.0
H115 H 0.41109 0.16831 0.55588 0.0
C116 C 0.5479 0.12938 0.52452 0.0
C117 C 0.56004 0.12184 0.48564 0.0
C118 C 0.51704 0.13322 0.52951 0.0
C119 C 0.49766 0.1295 0.49577 0.0
C120 C 0.50991 0.12313 0.45663 0.0
C121 C 0.54074 0.11943 0.45159 0.0
C122 C 0.41585 0.10741 0.49185 0.0
C123 C 0.40257 0.12878 0.51825 0.0
C124 C 0.44655 0.10821 0.4837 0.0
C125 C 0.46473 0.13031 0.50192 0.0
C126 C 0.45138 0.15214 0.52751 0.0
C127 C 0.4206 0.15147 0.53545 0.0
H128 H 0.83115 0.56826 0.70378 0.0
H129 H 0.92036 0.57182 0.75446 0.0
H130 H 0.82877 0.51476 0.71825 0.0
H131 H 0.91807 0.51856 0.76832 0.0
H132 H 0.89703 0.428 0.81952 0.0
H133 H 0.89275 0.48187 0.81168 0.0
H134 H 0.85312 0.46867 0.6915 0.0
H135 H 0.857 0.41458 0.69949 0.0
C136 C 0.85014 0.55773 0.7183 0.0
C137 C 0.87598 0.57433 0.72787 0.0
C138 C 0.84883 0.52705 0.72633 0.0
C139 C 0.87324 0.51241 0.74437 0.0
C140 C 0.89873 0.52921 0.75488 0.0
C141 C 0.9001 0.55976 0.7467 0.0
C142 C 0.8871 0.4365 0.79156 0.0
C143 C 0.87759 0.41692 0.75997 0.0
C144 C 0.88479 0.46742 0.78702 0.0
C145 C 0.87285 0.47956 0.75082 0.0
C146 C 0.86222 0.46001 0.71989 0.0
C147 C 0.8646 0.42901 0.72439 0.0
H148 H 0.5738 0.83706 0.95309 0.0
H149 H 0.55224 0.87852 0.07071 0.0
H150 H 0.52062 0.8351 0.93626 0.0
H151 H 0.49928 0.87625 0.05399 0.0
H152 H 0.41388 0.90344 0.98504 0.0
H153 H 0.4663 0.90159 0.00483 0.0
H154 H 0.47261 0.81126 0.95712 0.0
H155 H 0.42008 0.81312 0.93687 0.0
C156 C 0.55776 0.84549 0.9755 0.0
C157 C 0.56734 0.85811 0.01314 0.0
C158 C 0.52728 0.84424 0.96593 0.0
C159 C 0.50578 0.85569 -0.0063 0.0
C160 C 0.51533 0.86764 0.0317 0.0
C161 C 0.54572 0.86878 0.04134 0.0
C162 C 0.42634 0.8831 0.97892 0.0
C163 C 0.41275 0.85845 0.95931 0.0
C164 C 0.45637 0.882 -0.00952 0.0
C165 C 0.47359 0.85627 0.98255 0.0
C166 C 0.45998 0.83149 0.96328 0.0
C167 C 0.42984 0.83252 0.95193 0.0
H168 H 0.24186 0.28647 0.29121 0.0
H169 H 0.15606 0.24481 0.31318 0.0
H170 H 0.26249 0.26048 0.35054 0.0
H171 H 0.17692 0.2186 0.37242 0.0
H172 H 0.23957 0.1524 0.44307 0.0
H173 H 0.21705 0.17829 0.38475 0.0
H174 H 0.25408 0.26184 0.42878 0.0
H175 H 0.27638 0.23614 0.48721 0.0
C176 C 0.22742 0.27171 0.30862 0.0
C177 C 0.19732 0.26772 0.29754 0.0
C178 C 0.23921 0.25698 0.34271 0.0
C179 C 0.22127 0.2376 0.36609 0.0
C180 C 0.19127 0.2333 0.35477 0.0
C181 C 0.17933 0.24839 0.32101 0.0
C182 C 0.24277 0.17631 0.4404 0.0
C183 C 0.25978 0.19222 0.46971 0.0
C184 C 0.22978 0.19112 0.40714 0.0
C185 C 0.23394 0.22203 0.40222 0.0
C186 C 0.25076 0.23795 0.43165 0.0
C187 C 0.26338 0.22325 0.4652 0.0
H188 H 0.74661 0.16859 0.51759 0.0
H189 H 0.6966 0.15815 0.63087 0.0
H190 H 0.78117 0.20223 0.55265 0.0
H191 H 0.72989 0.1933 0.66558 0.0
H192 H 0.81215 0.23216 0.72799 0.0
H193 H 0.77707 0.19898 0.69308 0.0
H194 H 0.78855 0.24926 0.58064 0.0
H195 H 0.82507 0.2811 0.61515 0.0
C196 C 0.74278 0.17388 0.54991 0.0
C197 C 0.71901 0.16067 0.57154 0.0
C198 C 0.76248 0.19339 0.57006 0.0
C199 C 0.7585 0.2007 0.61216 0.0
C200 C 0.73423 0.18782 0.63347 0.0
C201 C 0.71493 0.1678 0.61351 0.0
C202 C 0.80709 0.23608 0.69582 0.0
C203 C 0.82143 0.25911 0.67424 0.0
C204 C 0.78677 0.21717 0.67576 0.0
C205 C 0.77979 0.22124 0.63381 0.0
C206 C 0.79375 0.24484 0.61261 0.0
C207 C 0.81456 0.26332 0.63246 0.0
H208 H 0.8425 0.72272 0.81952 0.0
H209 H 0.77118 0.73238 0.7311 0.0
H210 H 0.81373 0.75187 0.87005 0.0
H211 H 0.74249 0.76153 0.78168 0.0
H212 H 0.71706 0.84033 0.86846 0.0
H213 H 0.74619 0.81152 0.818 0.0
H214 H 0.76595 0.74605 0.911 0.0
H215 H 0.7368 0.7748 0.96155 0.0
C216 C 0.82072 0.73109 0.81084 0.0
C217 C 0.80912 0.72523 0.77129 0.0
C218 C 0.8042 0.74763 0.83986 0.0
C219 C 0.77588 0.75896 0.8298 0.0
C220 C 0.76437 0.75331 0.79017 0.0
C221 C 0.78075 0.73649 0.7613 0.0
C222 C 0.72763 0.8198 0.87818 0.0
C223 C 0.72461 0.80984 0.91901 0.0
C224 C 0.74418 0.80324 0.84921 0.0
C225 C 0.75833 0.77654 0.86057 0.0
C226 C 0.7555 0.76669 0.90147 0.0
C227 C 0.73868 0.78307 0.93033 0.0
H228 H 0.28409 0.74917 -0.00663 0.0
H229 H 0.24345 0.83346 0.02804 0.0
H230 H 0.25821 0.72489 0.05055 0.0
H231 H 0.21732 0.80896 0.08505 0.0
H232 H 0.15194 0.74315 0.15187 0.0
H233 H 0.17683 0.76811 0.09421 0.0
H234 H 0.26094 0.72892 0.12969 0.0
H235 H 0.23625 0.70422 0.18752 0.0
C236 C 0.26951 0.76248 0.01304 0.0
C237 C 0.26584 0.79325 0.00623 0.0
C238 C 0.25484 0.7486 0.04588 0.0
C239 C 0.23585 0.76508 0.07224 0.0
C240 C 0.23172 0.79572 0.06503 0.0
C241 C 0.24676 0.80973 0.03253 0.0
C242 C 0.17575 0.73991 0.14739 0.0
C243 C 0.19214 0.72171 0.17423 0.0
C244 C 0.18998 0.75429 0.11453 0.0
C245 C 0.22076 0.75035 0.10748 0.0
C246 C 0.23713 0.73212 0.13423 0.0
C247 C 0.22301 0.71812 0.16744 0.0
H248 H 0.01183 0.25366 0.11621 0.0
H249 H 0.07649 0.29477 0.03496 0.0
H250 H 0.9781 0.24623 0.05802 0.0
H251 H 0.04256 0.28831 0.97736 0.0
H252 H 0.98059 0.27036 0.87458 0.0
H253 H 0.01548 0.25803 0.92952 0.0
H254 H 0.94781 0.28018 0.0206 0.0
H255 H 0.91285 0.29145 0.96595 0.0
C256 C 0.01906 0.2607 0.08585 0.0
C257 C 0.04664 0.27527 0.08039 0.0
C258 C -0.00036 0.25659 0.05252 0.0
C259 C 0.00734 0.26711 0.01306 0.0
C260 C 0.03587 0.27969 0.00713 0.0
C261 C 0.05533 0.28361 0.04036 0.0
C262 C 0.97299 0.27195 0.90634 0.0
C263 C 0.94408 0.28236 0.91589 0.0
C264 C 0.99305 0.26504 0.93785 0.0
C265 C 0.98467 0.26853 0.97958 0.0
C266 C 0.95507 0.27694 0.98892 0.0
C267 C 0.935 0.28366 0.95747 0.0
H268 H 0.68045 0.00937 0.35691 0.0
H269 H 0.71681 0.08371 0.28877 0.0
H270 H 0.68759 0.97693 0.29716 0.0
H271 H 0.72487 0.0509 0.2291 0.0
H272 H 0.68112 -0.00236 0.12053 0.0
H273 H 0.69104 0.02906 0.18045 0.0
H274 H 0.71917 0.95146 0.24852 0.0
H275 H 0.7083 0.91976 0.18865 0.0
C276 C 0.69069 0.01865 0.3295 0.0
C277 C 0.69753 0.04928 0.32739 0.0
C278 C 0.69501 -6e-05 0.2952 0.0
C279 C 0.70646 0.01135 0.25802 0.0
C280 C 0.71541 0.04151 0.25696 0.0
C281 C 0.71095 0.06029 0.29126 0.0
C282 C 0.68992 0.98729 0.148 0.0
C283 C 0.6934 0.95611 0.15001 0.0
C284 C 0.69586 0.00539 0.18239 0.0
C285 C 0.70559 0.99278 0.21959 0.0
C286 C 0.71113 0.96183 0.22063 0.0
C287 C 0.70505 0.94368 0.18623 0.0
H288 H 0.90605 0.72089 0.54146 0.0
H289 H 0.98666 0.69336 0.60348 0.0
H290 H 0.93444 0.72728 0.47763 0.0
H291 H 0.01473 0.69878 0.53966 0.0
H292 H 0.0636 0.71811 0.42361 0.0
H293 H 0.03501 0.72928 0.48629 0.0
H294 H 0.95564 0.69276 0.42906 0.0
H295 H 0.98386 0.68256 0.36632 0.0
C296 C 0.92988 0.71657 0.54165 0.0
C297 C 0.94399 0.7062 0.57744 0.0
C298 C 0.94613 0.72007 0.50498 0.0
C299 C 0.97682 0.71315 0.50325 0.0
C300 C 0.99123 0.7046 0.53979 0.0
C301 C 0.97503 0.70126 0.57644 0.0
C302 C 0.03991 0.71303 0.42417 0.0
C303 C 0.02611 0.69905 0.39016 0.0
C304 C 0.02355 0.71928 0.4602 0.0
C305 C 0.99308 0.71157 0.46302 0.0
C306 C 0.97895 0.6993 0.42801 0.0
C307 C -0.00475 0.69321 0.392 0.0
H308 H 0.27039 0.93021 0.80627 0.0
H309 H 0.30753 0.00765 0.86839 0.0
H310 H 0.25808 0.96104 0.74696 0.0
H311 H 0.29614 0.03812 0.80897 0.0
H312 H 0.2625 0.09214 0.70511 0.0
H313 H 0.25948 0.06091 0.76627 0.0
H314 H 0.28637 0.9841 0.69299 0.0
H315 H 0.28845 0.01503 0.63184 0.0
C316 C 0.27565 0.95385 0.80747 0.0
C317 C 0.29022 0.96639 0.84191 0.0
C318 C 0.26875 0.9715 0.77337 0.0
C319 C 0.27633 0.00205 0.77294 0.0
C320 C 0.28959 0.0148 0.80828 0.0
C321 C 0.29637 -0.00278 0.84235 0.0
C322 C 0.26722 0.06847 0.70193 0.0
C323 C 0.27609 0.05618 0.66367 0.0
C324 C 0.26566 0.05059 0.73706 0.0
C325 C 0.2731 0.02004 0.73477 0.0
C326 C 0.28024 0.00745 0.69597 0.0
C327 C 0.28162 0.02528 0.66084 0.0
loop_
_geom_bond_atom_site_label_1
_geom_bond_atom_site_label_2
_geom_bond_distance
_geom_bond_site_symmetry_2
_ccdc_geom_bond_type
O0 Cd1 2.300 . S
O0 C7 1.275 . S
Cd1 O0 2.300 . S
Cd1 O9 2.381 . S
Cd1 O10 2.378 . S
O2 Cd3 2.385 . S
O2 C7 1.255 . S
Cd3 O2 2.385 . S
Cd3 O4 2.317 . S
O4 Cd3 2.317 . S
O4 C5 1.232 . S
C5 O4 1.232 . S
C5 O6 1.218 . S
O6 C5 1.218 . S
C7 O0 1.275 . S
C7 O2 1.255 . S
C8 O9 1.258 . S
C8 O10 1.256 . S
O9 Cd1 2.381 . S
O9 C8 1.258 . S
O10 Cd1 2.378 . S
O10 C8 1.256 . S
O11 Cd12 2.300 . S
O11 C18 1.275 . S
Cd12 O11 2.300 . S
Cd12 O20 2.381 . S
Cd12 O21 2.378 . S
O13 Cd14 2.385 . S
O13 C18 1.255 . S
Cd14 O13 2.385 . S
Cd14 O15 2.317 . S
O15 Cd14 2.317 . S
O15 C16 1.232 . S
C16 O15 1.232 . S
C16 O17 1.218 . S
O17 C16 1.218 . S
C18 O11 1.275 . S
C18 O13 1.255 . S
C19 O20 1.258 . S
C19 O21 1.256 . S
O20 Cd12 2.381 . S
O20 C19 1.258 . S
O21 Cd12 2.378 . S
O21 C19 1.256 . S
O22 Cd23 2.300 . S
O22 C29 1.275 . S
Cd23 O22 2.300 . S
Cd23 O31 2.381 . S
Cd23 O32 2.378 . S
O24 Cd25 2.385 . S
O24 C29 1.255 . S
Cd25 O24 2.385 . S
Cd25 O26 2.317 . S
O26 Cd25 2.317 . S
O26 C27 1.232 . S
C27 O26 1.232 . S
C27 O28 1.218 . S
O28 C27 1.218 . S
C29 O22 1.275 . S
C29 O24 1.255 . S
C30 O31 1.258 . S
C30 O32 1.256 . S
O31 Cd23 2.381 . S
O31 C30 1.258 . S
O32 Cd23 2.378 . S
O32 C30 1.256 . S
O33 Cd34 2.300 . S
O33 C40 1.275 1_554 S
Cd34 O33 2.300 . S
Cd34 O42 2.381 . S
Cd34 O43 2.378 . S
O35 Cd36 2.385 . S
O35 C40 1.255 . S
Cd36 O35 2.385 . S
Cd36 O37 2.317 . S
O37 Cd36 2.317 . S
O37 C38 1.232 . S
C38 O37 1.232 . S
C38 O39 1.218 . S
O39 C38 1.218 . S
C40 O33 1.275 1_556 S
C40 O35 1.255 . S
C41 O42 1.258 . S
C41 O43 1.256 . S
O42 Cd34 2.381 . S
O42 C41 1.258 . S
O43 Cd34 2.378 . S
O43 C41 1.256 . S
O44 Cd45 2.300 . S
O44 C51 1.275 . S
Cd45 O44 2.300 . S
Cd45 O53 2.381 . S
Cd45 O54 2.378 . S
O46 Cd47 2.385 . S
O46 C51 1.255 . S
Cd47 O46 2.385 . S
Cd47 O48 2.317 . S
O48 Cd47 2.317 . S
O48 C49 1.232 . S
C49 O48 1.232 . S
C49 O50 1.218 . S
O50 C49 1.218 . S
C51 O44 1.275 . S
C51 O46 1.255 . S
C52 O53 1.258 . S
C52 O54 1.256 . S
O53 Cd45 2.381 . S
O53 C52 1.258 . S
O54 Cd45 2.378 . S
O54 C52 1.256 . S
O55 Cd56 2.300 . S
O55 C62 1.275 . S
Cd56 O55 2.300 . S
Cd56 O64 2.381 . S
Cd56 O65 2.378 . S
O57 Cd58 2.385 . S
O57 C62 1.255 . S
Cd58 O57 2.385 . S
Cd58 O59 2.317 . S
O59 Cd58 2.317 . S
O59 C60 1.232 . S
C60 O59 1.232 . S
C60 O61 1.218 . S
O61 C60 1.218 . S
C62 O55 1.275 . S
C62 O57 1.255 . S
C63 O64 1.258 . S
C63 O65 1.256 . S
O64 Cd56 2.381 . S
O64 C63 1.258 . S
O65 Cd56 2.378 . S
O65 C63 1.256 . S
O66 Cd67 2.300 . S
O66 C73 1.275 . S
Cd67 O66 2.300 . S
Cd67 O75 2.381 . S
Cd67 O76 2.378 . S
O68 Cd69 2.385 . S
O68 C73 1.255 . S
Cd69 O68 2.385 . S
Cd69 O70 2.317 . S
O70 Cd69 2.317 . S
O70 C71 1.232 . S
C71 O70 1.232 . S
C71 O72 1.218 . S
O72 C71 1.218 . S
C73 O66 1.275 . S
C73 O68 1.255 . S
C74 O75 1.258 . S
C74 O76 1.256 . S
O75 Cd67 2.381 . S
O75 C74 1.258 . S
O76 Cd67 2.378 . S
O76 C74 1.256 . S
O77 Cd78 2.300 . S
O77 C84 1.275 1_556 S
Cd78 O77 2.300 . S
Cd78 O86 2.381 . S
Cd78 O87 2.378 . S
O79 Cd80 2.385 . S
O79 C84 1.255 . S
Cd80 O79 2.385 . S
Cd80 O81 2.317 . S
O81 Cd80 2.317 . S
O81 C82 1.232 . S
C82 O81 1.232 . S
C82 O83 1.218 . S
O83 C82 1.218 . S
C84 O77 1.275 1_554 S
C84 O79 1.255 . S
C85 O86 1.258 . S
C85 O87 1.256 . S
O86 Cd78 2.381 . S
O86 C85 1.258 . S
O87 Cd78 2.378 . S
O87 C85 1.256 . S
H88 C96 0.950 . S
H89 C101 0.950 . S
H90 C98 0.950 . S
H91 C100 0.950 . S
H92 C102 0.950 . S
H93 C104 0.950 . S
H94 C106 0.950 . S
H95 C107 0.950 . S
C96 H88 0.950 . S
C96 C97 1.386 . S
C96 C98 1.391 . S
C97 C96 1.386 . S
C97 C101 1.393 . S
C98 H90 0.950 . S
C98 C96 1.391 . S
C98 C99 1.400 . S
C99 C98 1.400 . S
C99 C100 1.398 . S
C99 C105 1.491 . S
C100 H91 0.950 . S
C100 C99 1.398 . S
C100 C101 1.391 . S
C101 H89 0.950 . S
C101 C97 1.393 . S
C101 C100 1.391 . S
C102 H92 0.950 . S
C102 C103 1.386 . S
C102 C104 1.391 . S
C103 C102 1.386 . S
C103 C107 1.393 . S
C104 H93 0.950 . S
C104 C102 1.391 . S
C104 C105 1.400 . S
C105 C99 1.491 . S
C105 C104 1.400 . S
C105 C106 1.398 . S
C106 H94 0.950 . S
C106 C105 1.398 . S
C106 C107 1.391 . S
C107 H95 0.950 . S
C107 C103 1.393 . S
C107 C106 1.391 . S
H108 C116 0.950 . S
H109 C121 0.950 . S
H110 C118 0.950 . S
H111 C120 0.950 . S
H112 C122 0.950 . S
H113 C124 0.950 . S
H114 C126 0.950 . S
H115 C127 0.950 . S
C116 H108 0.950 . S
C116 C117 1.386 . S
C116 C118 1.391 . S
C117 C116 1.386 . S
C117 C121 1.393 . S
C118 H110 0.950 . S
C118 C116 1.391 . S
C118 C119 1.400 . S
C119 C118 1.400 . S
C119 C120 1.398 . S
C119 C125 1.491 . S
C120 H111 0.950 . S
C120 C119 1.398 . S
C120 C121 1.391 . S
C121 H109 0.950 . S
C121 C117 1.393 . S
C121 C120 1.391 . S
C122 H112 0.950 . S
C122 C123 1.386 . S
C122 C124 1.391 . S
C123 C122 1.386 . S
C123 C127 1.393 . S
C124 H113 0.950 . S
C124 C122 1.391 . S
C124 C125 1.400 . S
C125 C119 1.491 . S
C125 C124 1.400 . S
C125 C126 1.398 . S
C126 H114 0.950 . S
C126 C125 1.398 . S
C126 C127 1.391 . S
C127 H115 0.950 . S
C127 C123 1.393 . S
C127 C126 1.391 . S
H128 C136 0.950 . S
H129 C141 0.950 . S
H130 C138 0.950 . S
H131 C140 0.950 . S
H132 C142 0.950 . S
H133 C144 0.950 . S
H134 C146 0.950 . S
H135 C147 0.950 . S
C136 H128 0.950 . S
C136 C137 1.386 . S
C136 C138 1.391 . S
C137 C136 1.386 . S
C137 C141 1.393 . S
C138 H130 0.950 . S
C138 C136 1.391 . S
C138 C139 1.400 . S
C139 C138 1.400 . S
C139 C140 1.398 . S
C139 C145 1.491 . S
C140 H131 0.950 . S
C140 C139 1.398 . S
C140 C141 1.391 . S
C141 H129 0.950 . S
C141 C137 1.393 . S
C141 C140 1.391 . S
C142 H132 0.950 . S
C142 C143 1.386 . S
C142 C144 1.391 . S
C143 C142 1.386 . S
C143 C147 1.393 . S
C144 H133 0.950 . S
C144 C142 1.391 . S
C144 C145 1.400 . S
C145 C139 1.491 . S
C145 C144 1.400 . S
C145 C146 1.398 . S
C146 H134 0.950 . S
C146 C145 1.398 . S
C146 C147 1.391 . S
C147 H135 0.950 . S
C147 C143 1.393 . S
C147 C146 1.391 . S
H148 C156 0.950 . S
H149 C161 0.950 . S
H150 C158 0.950 . S
H151 C160 0.950 . S
H152 C162 0.950 . S
H153 C164 0.950 . S
H154 C166 0.950 . S
H155 C167 0.950 . S
C156 H148 0.950 . S
C156 C157 1.386 1_556 S
C156 C158 1.391 . S
C157 C156 1.386 1_554 S
C157 C161 1.393 . S
C158 H150 0.950 . S
C158 C156 1.391 . S
C158 C159 1.400 1_556 S
C159 C158 1.400 1_554 S
C159 C160 1.398 . S
C159 C165 1.491 1_554 S
C160 H151 0.950 . S
C160 C159 1.398 . S
C160 C161 1.391 . S
C161 H149 0.950 . S
C161 C157 1.393 . S
C161 C160 1.391 . S
C162 H152 0.950 . S
C162 C163 1.386 1_554 S
C162 C164 1.391 . S
C163 C162 1.386 1_556 S
C163 C167 1.393 . S
C164 H153 0.950 . S
C164 C162 1.391 . S
C164 C165 1.400 1_554 S
C165 C159 1.491 1_556 S
C165 C164 1.400 1_556 S
C165 C166 1.398 . S
C166 H154 0.950 . S
C166 C165 1.398 . S
C166 C167 1.391 . S
C167 H155 0.950 . S
C167 C163 1.393 . S
C167 C166 1.391 . S
H168 C176 0.950 . S
H169 C181 0.950 . S
H170 C178 0.950 . S
H171 C180 0.950 . S
H172 C182 0.950 . S
H173 C184 0.950 . S
H174 C186 0.950 . S
H175 C187 0.950 . S
C176 H168 0.950 . S
C176 C177 1.386 . S
C176 C178 1.391 . S
C177 C176 1.386 . S
C177 C181 1.393 . S
C178 H170 0.950 . S
C178 C176 1.391 . S
C178 C179 1.400 . S
C179 C178 1.400 . S
C179 C180 1.398 . S
C179 C185 1.491 . S
C180 H171 0.950 . S
C180 C179 1.398 . S
C180 C181 1.391 . S
C181 H169 0.950 . S
C181 C177 1.393 . S
C181 C180 1.391 . S
C182 H172 0.950 . S
C182 C183 1.386 . S
C182 C184 1.391 . S
C183 C182 1.386 . S
C183 C187 1.393 . S
C184 H173 0.950 . S
C184 C182 1.391 . S
C184 C185 1.400 . S
C185 C179 1.491 . S
C185 C184 1.400 . S
C185 C186 1.398 . S
C186 H174 0.950 . S
C186 C185 1.398 . S
C186 C187 1.391 . S
C187 H175 0.950 . S
C187 C183 1.393 . S
C187 C186 1.391 . S
H188 C196 0.950 . S
H189 C201 0.950 . S
H190 C198 0.950 . S
H191 C200 0.950 . S
H192 C202 0.950 . S
H193 C204 0.950 . S
H194 C206 0.950 . S
H195 C207 0.950 . S
C196 H188 0.950 . S
C196 C197 1.386 . S
C196 C198 1.391 . S
C197 C196 1.386 . S
C197 C201 1.393 . S
C198 H190 0.950 . S
C198 C196 1.391 . S
C198 C199 1.400 . S
C199 C198 1.400 . S
C199 C200 1.398 . S
C199 C205 1.491 . S
C200 H191 0.950 . S
C200 C199 1.398 . S
C200 C201 1.391 . S
C201 H189 0.950 . S
C201 C197 1.393 . S
C201 C200 1.391 . S
C202 H192 0.950 . S
C202 C203 1.386 . S
C202 C204 1.391 . S
C203 C202 1.386 . S
C203 C207 1.393 . S
C204 H193 0.950 . S
C204 C202 1.391 . S
C204 C205 1.400 . S
C205 C199 1.491 . S
C205 C204 1.400 . S
C205 C206 1.398 . S
C206 H194 0.950 . S
C206 C205 1.398 . S
C206 C207 1.391 . S
C207 H195 0.950 . S
C207 C203 1.393 . S
C207 C206 1.391 . S
H208 C216 0.950 . S
H209 C221 0.950 . S
H210 C218 0.950 . S
H211 C220 0.950 . S
H212 C222 0.950 . S
H213 C224 0.950 . S
H214 C226 0.950 . S
H215 C227 0.950 . S
C216 H208 0.950 . S
C216 C217 1.386 . S
C216 C218 1.391 . S
C217 C216 1.386 . S
C217 C221 1.393 . S
C218 H210 0.950 . S
C218 C216 1.391 . S
C218 C219 1.400 . S
C219 C218 1.400 . S
C219 C220 1.398 . S
C219 C225 1.491 . S
C220 H211 0.950 . S
C220 C219 1.398 . S
C220 C221 1.391 . S
C221 H209 0.950 . S
C221 C217 1.393 . S
C221 C220 1.391 . S
C222 H212 0.950 . S
C222 C223 1.386 . S
C222 C224 1.391 . S
C223 C222 1.386 . S
C223 C227 1.393 . S
C224 H213 0.950 . S
C224 C222 1.391 . S
C224 C225 1.400 . S
C225 C219 1.491 . S
C225 C224 1.400 . S
C225 C226 1.398 . S
C226 H214 0.950 . S
C226 C225 1.398 . S
C226 C227 1.391 . S
C227 H215 0.950 . S
C227 C223 1.393 . S
C227 C226 1.391 . S
H228 C236 0.950 . S
H229 C241 0.950 . S
H230 C238 0.950 . S
H231 C240 0.950 . S
H232 C242 0.950 . S
H233 C244 0.950 . S
H234 C246 0.950 . S
H235 C247 0.950 . S
C236 H228 0.950 . S
C236 C237 1.386 . S
C236 C238 1.391 . S
C237 C236 1.386 . S
C237 C241 1.393 . S
C238 H230 0.950 . S
C238 C236 1.391 . S
C238 C239 1.400 . S
C239 C238 1.400 . S
C239 C240 1.398 . S
C239 C245 1.491 . S
C240 H231 0.950 . S
C240 C239 1.398 . S
C240 C241 1.391 . S
C241 H229 0.950 . S
C241 C237 1.393 . S
C241 C240 1.391 . S
C242 H232 0.950 . S
C242 C243 1.386 . S
C242 C244 1.391 . S
C243 C242 1.386 . S
C243 C247 1.393 . S
C244 H233 0.950 . S
C244 C242 1.391 . S
C244 C245 1.400 . S
C245 C239 1.491 . S
C245 C244 1.400 . S
C245 C246 1.398 . S
C246 H234 0.950 . S
C246 C245 1.398 . S
C246 C247 1.391 . S
C247 H235 0.950 . S
C247 C243 1.393 . S
C247 C246 1.391 . S
H248 C256 0.950 . S
H249 C261 0.950 . S
H250 C258 0.950 . S
H251 C260 0.950 1_556 S
H252 C262 0.950 . S
H253 C264 0.950 . S
H254 C266 0.950 1_554 S
H255 C267 0.950 . S
C256 H248 0.950 . S
C256 C257 1.386 . S
C256 C258 1.391 1_455 S
C257 C256 1.386 . S
C257 C261 1.393 . S
C258 H250 0.950 . S
C258 C256 1.391 1_655 S
C258 C259 1.400 1_655 S
C259 C258 1.400 1_455 S
C259 C260 1.398 . S
C259 C265 1.491 1_454 S
C260 H251 0.950 1_554 S
C260 C259 1.398 . S
C260 C261 1.391 . S
C261 H249 0.950 . S
C261 C257 1.393 . S
C261 C260 1.391 . S
C262 H252 0.950 . S
C262 C263 1.386 . S
C262 C264 1.391 1_655 S
C263 C262 1.386 . S
C263 C267 1.393 . S
C264 H253 0.950 . S
C264 C262 1.391 1_455 S
C264 C265 1.400 1_455 S
C265 C259 1.491 1_656 S
C265 C264 1.400 1_655 S
C265 C266 1.398 . S
C266 H254 0.950 1_556 S
C266 C265 1.398 . S
C266 C267 1.391 . S
C267 H255 0.950 . S
C267 C263 1.393 . S
C267 C266 1.391 . S
H268 C276 0.950 . S
H269 C281 0.950 . S
H270 C278 0.961 . S
H271 C280 0.950 . S
H272 C282 0.950 . S
H273 C284 0.961 . S
H274 C286 0.950 . S
H275 C287 0.950 . S
C276 H268 0.950 . S
C276 C277 1.386 . S
C276 C278 1.384 1_545 S
C277 C276 1.386 . S
C277 C281 1.393 . S
C278 H270 0.961 . S
C278 C276 1.384 1_565 S
C278 C279 1.396 1_565 S
C279 C278 1.396 1_545 S
C279 C280 1.398 . S
C279 C285 1.491 1_545 S
C280 H271 0.950 . S
C280 C279 1.398 . S
C280 C281 1.391 . S
C281 H269 0.950 . S
C281 C277 1.393 . S
C281 C280 1.391 . S
C282 H272 0.950 . S
C282 C283 1.386 . S
C282 C284 1.384 1_565 S
C283 C282 1.386 . S
C283 C287 1.393 . S
C284 H273 0.961 . S
C284 C282 1.384 1_545 S
C284 C285 1.396 1_545 S
C285 C279 1.491 1_565 S
C285 C284 1.396 1_565 S
C285 C286 1.398 . S
C286 H274 0.950 . S
C286 C285 1.398 . S
C286 C287 1.391 . S
C287 H275 0.950 . S
C287 C283 1.393 . S
C287 C286 1.391 . S
H288 C296 0.950 . S
H289 C301 0.950 . S
H290 C298 0.950 . S
H291 C300 0.950 . S
H292 C302 0.950 . S
H293 C304 0.950 . S
H294 C306 0.950 . S
H295 C307 0.950 . S
C296 H288 0.950 . S
C296 C297 1.386 . S
C296 C298 1.391 . S
C297 C296 1.386 . S
C297 C301 1.393 . S
C298 H290 0.950 . S
C298 C296 1.391 . S
C298 C299 1.400 . S
C299 C298 1.400 . S
C299 C300 1.398 . S
C299 C305 1.491 1_655 S
C300 H291 0.950 . S
C300 C299 1.398 . S
C300 C301 1.391 . S
C301 H289 0.950 . S
C301 C297 1.393 . S
C301 C300 1.391 . S
C302 H292 0.950 . S
C302 C303 1.386 . S
C302 C304 1.391 . S
C303 C302 1.386 . S
C303 C307 1.393 . S
C304 H293 0.950 . S
C304 C302 1.391 . S
C304 C305 1.400 . S
C305 C299 1.491 1_455 S
C305 C304 1.400 . S
C305 C306 1.398 . S
C306 H294 0.950 . S
C306 C305 1.398 . S
C306 C307 1.391 . S
C307 H295 0.950 . S
C307 C303 1.393 . S
C307 C306 1.391 . S
H308 C316 0.950 . S
H309 C321 0.950 . S
H310 C318 0.950 . S
H311 C320 0.950 1_545 S
H312 C322 0.950 . S
H313 C324 0.950 . S
H314 C326 0.950 1_565 S
H315 C327 0.950 . S
C316 H308 0.950 . S
C316 C317 1.386 . S
C316 C318 1.391 . S
C317 C316 1.386 . S
C317 C321 1.393 . S
C318 H310 0.950 . S
C318 C316 1.391 . S
C318 C319 1.400 . S
C319 C318 1.400 . S
C319 C320 1.398 . S
C319 C325 1.491 1_565 S
C320 H311 0.950 1_565 S
C320 C319 1.398 . S
C320 C321 1.391 . S
C321 H309 0.950 . S
C321 C317 1.393 . S
C321 C320 1.391 . S
C322 H312 0.950 . S
C322 C323 1.386 . S
C322 C324 1.391 . S
C323 C322 1.386 . S
C323 C327 1.393 . S
C324 H313 0.950 . S
C324 C322 1.391 . S
C324 C325 1.400 . S
C325 C319 1.491 1_545 S
C325 C324 1.400 . S
C325 C326 1.398 . S
C326 H314 0.950 1_545 S
C326 C325 1.398 . S
C326 C327 1.391 . S
C327 H315 0.950 . S
C327 C323 1.393 . S
C327 C326 1.391 . S
C97 C7 1.486 . S
C103 C51 1.485 . S
C117 C18 1.500 . S
C123 C62 1.499 . S
C137 C29 1.499 . S
C143 C73 1.499 . S
C157 C84 1.498 . S
C163 C40 1.498 . S
C177 C8 1.512 . S
C183 C63 1.513 . S
C197 C19 1.517 . S
C203 C74 1.515 . S
C217 C30 1.514 . S
C223 C85 1.516 . S
C237 C41 1.512 . S
C243 C52 1.511 . S
C257 C5 1.354 . S
C263 C71 1.362 . S
C277 C16 1.328 . S
C283 C82 1.336 . S
C297 C27 1.368 . S
C303 C49 1.365 . S
C317 C38 1.330 . S
C323 C60 1.324 . S
