# Generated by pormake.
# Topology hjm, (4)-cn, num edge types: 1
# Building blocks:
#     Node 0, Type 0, BuildingBlock: QUQFOY_clean_sbu_3, # of connection points: 4
#     Node 1, Type 0, BuildingBlock: QUQFOY_clean_sbu_3, # of connection points: 4
#     Node 2, Type 0, BuildingBlock: QUQFOY_clean_sbu_3, # of connection points: 4
#     Node 3, Type 0, BuildingBlock: QUQFOY_clean_sbu_3, # of connection points: 4
#     Node 4, Type 0, BuildingBlock: QUQFOY_clean_sbu_3, # of connection points: 4
#     Node 5, Type 0, BuildingBlock: QUQFOY_clean_sbu_3, # of connection points: 4
#     Node 6, Type 0, BuildingBlock: QUQFOY_clean_sbu_3, # of connection points: 4
#     Node 7, Type 0, BuildingBlock: QUQFOY_clean_sbu_3, # of connection points: 4
#     Edge 8, Type (0, 0), BuildingBlock: OJICUG_clean_linker_0, # of connection points: 2
#     Edge 9, Type (0, 0), BuildingBlock: OJICUG_clean_linker_0, # of connection points: 2
#     Edge 10, Type (0, 0), BuildingBlock: OJICUG_clean_linker_0, # of connection points: 2
#     Edge 11, Type (0, 0), BuildingBlock: OJICUG_clean_linker_0, # of connection points: 2
#     Edge 12, Type (0, 0), BuildingBlock: OJICUG_clean_linker_0, # of connection points: 2
#     Edge 13, Type (0, 0), BuildingBlock: OJICUG_clean_linker_0, # of connection points: 2
#     Edge 14, Type (0, 0), BuildingBlock: OJICUG_clean_linker_0, # of connection points: 2
#     Edge 15, Type (0, 0), BuildingBlock: OJICUG_clean_linker_0, # of connection points: 2
#     Edge 16, Type (0, 0), BuildingBlock: OJICUG_clean_linker_0, # of connection points: 2
#     Edge 17, Type (0, 0), BuildingBlock: OJICUG_clean_linker_0, # of connection points: 2
#     Edge 18, Type (0, 0), BuildingBlock: OJICUG_clean_linker_0, # of connection points: 2
#     Edge 19, Type (0, 0), BuildingBlock: OJICUG_clean_linker_0, # of connection points: 2
#     Edge 20, Type (0, 0), BuildingBlock: OJICUG_clean_linker_0, # of connection points: 2
#     Edge 21, Type (0, 0), BuildingBlock: OJICUG_clean_linker_0, # of connection points: 2
#     Edge 22, Type (0, 0), BuildingBlock: OJICUG_clean_linker_0, # of connection points: 2
#     Edge 23, Type (0, 0), BuildingBlock: OJICUG_clean_linker_0, # of connection points: 2
# Relax obj value: 0.091
# Max RMSD: 0.135
# Mean RMSD: 0.135
data_MOF--net-hjm--node1-QUQFOY_clean_sbu_3--edge1-OJICUG_clean_linker_0
_symmetry_space_group_name_H-M    P1
_symmetry_Int_Tables_number       1
_symmetry_cell_setting            triclinic
loop_
_symmetry_equiv_pos_as_xyz
'x, y, z'
_cell_length_a     20.088422
_cell_length_b     17.41086
_cell_length_c     19.946235
_cell_angle_alpha  89.986568
_cell_angle_beta   59.507507
_cell_angle_gamma 89.988914
loop_
_atom_site_label
_atom_site_type_symbol
_atom_site_fract_x
_atom_site_fract_y
_atom_site_fract_z
_atom_type_partial_charge
C0 C 0.11861 0.3206 0.16647 0.0
O1 O 0.12467 0.38922 0.18411 0.0
Cd2 Cd 0.14384 0.42638 0.28653 0.0
O3 O 0.1195 0.26415 0.20702 0.0
Cd4 Cd 0.13023 0.24866 0.32556 0.0
C5 C 0.31061 0.32283 0.22702 0.0
O6 O 0.04832 0.35537 0.39493 0.0
O7 O 0.12415 0.31849 0.43532 0.0
O8 O 0.03448 0.14503 0.38559 0.0
C9 C 0.06657 0.35842 0.44678 0.0
O10 O 0.27836 0.38842 0.23883 0.0
C11 C 0.07632 0.10458 0.40289 0.0
O12 O 0.27017 0.2618 0.24908 0.0
O13 O 0.1447 0.1281 0.37811 0.0
C14 C 0.76412 0.30149 0.25085 0.0
O15 O 0.7688 0.3687 0.22405 0.0
Cd16 Cd 0.79476 0.3994 0.09842 0.0
O17 O 0.77286 0.24179 0.20959 0.0
Cd18 Cd 0.80354 0.21436 0.07268 0.0
C19 C 0.63902 0.30602 0.10794 0.0
O20 O 0.89772 0.31154 0.03105 0.0
O21 O 0.87896 0.274 0.93988 0.0
O22 O 0.87809 0.10139 0.06995 0.0
C23 C 0.91926 0.313 0.95995 0.0
O24 O 0.6738 0.3686 0.10356 0.0
C25 C 0.8644 0.06266 0.0243 0.0
O26 O 0.67157 0.24149 0.10195 0.0
O27 O 0.81677 0.09156 0.00732 0.0
C28 C 0.94697 0.60734 0.66508 0.0
O29 O 0.98947 0.63563 0.68889 0.0
Cd30 Cd 0.95783 0.74629 0.7667 0.0
O31 O 0.88199 0.63771 0.6836 0.0
Cd32 Cd 0.80252 0.74781 0.76333 0.0
C33 C 0.94396 0.87028 0.6407 0.0
O34 O 0.8283 0.71733 0.86577 0.0
O35 O 0.77181 0.82588 0.87893 0.0
O36 O 0.68686 0.67125 0.7941 0.0
C37 C 0.79374 0.77432 0.90835 0.0
O38 O 0.98136 0.8489 0.67327 0.0
C39 C 0.64971 0.72829 0.78987 0.0
O40 O 0.87829 0.84126 0.66104 0.0
O41 O 0.68436 0.7925 0.77191 0.0
C42 C 0.11509 0.56325 0.78356 0.0
O43 O 0.1052 0.59123 0.73058 0.0
Cd44 Cd 0.15672 0.7101 0.67059 0.0
O45 O 0.15658 0.59786 0.80596 0.0
Cd46 Cd 0.23793 0.71591 0.77036 0.0
C47 C 0.07762 0.82503 0.83452 0.0
O48 O 0.28865 0.69373 0.63487 0.0
O49 O 0.30697 0.80832 0.66109 0.0
O50 O 0.3351 0.64846 0.78918 0.0
C51 C 0.32216 0.75726 0.61 0.0
O52 O 0.0805 0.80592 0.77147 0.0
C53 C 0.35174 0.70733 0.81538 0.0
O54 O 0.12646 0.79807 0.85107 0.0
O55 O 0.31101 0.7669 0.82653 0.0
C56 C 0.75407 0.80215 0.2142 0.0
O57 O 0.74955 0.86933 0.24095 0.0
Cd58 Cd 0.72373 0.89988 0.36657 0.0
O59 O 0.74525 0.74241 0.25547 0.0
Cd60 Cd 0.7146 0.71488 0.39237 0.0
C61 C 0.87929 0.80614 0.35707 0.0
O62 O 0.62056 0.81224 0.43401 0.0
O63 O 0.63931 0.77453 0.52516 0.0
O64 O 0.63983 0.60209 0.39519 0.0
C65 C 0.59904 0.81363 0.50511 0.0
O66 O 0.84465 0.86881 0.36145 0.0
C67 C 0.65359 0.56322 0.44073 0.0
O68 O 0.84661 0.74169 0.36307 0.0
O69 O 0.70133 0.59198 0.45763 0.0
C70 C 0.39985 0.81954 0.29847 0.0
O71 O 0.39393 0.88817 0.28074 0.0
Cd72 Cd 0.37469 0.92541 0.17837 0.0
O73 O 0.3988 0.7631 0.25803 0.0
Cd74 Cd 0.38796 0.74767 0.13954 0.0
C75 C 0.20772 0.82215 0.23808 0.0
O76 O 0.47002 0.85423 0.07002 0.0
O77 O 0.39401 0.81755 0.02981 0.0
O78 O 0.48358 0.64393 0.07956 0.0
C79 C 0.45168 0.85736 0.01824 0.0
O80 O 0.24009 0.88767 0.2262 0.0
C81 C 0.4417 0.60355 0.06228 0.0
O82 O 0.24804 0.76104 0.21606 0.0
O83 O 0.37333 0.62715 0.08706 0.0
C84 C 0.40307 0.06375 0.68165 0.0
O85 O 0.41293 0.0917 0.73465 0.0
Cd86 Cd 0.36149 0.21062 0.79451 0.0
O87 O 0.36159 0.09838 0.65923 0.0
Cd88 Cd 0.28017 0.2164 0.6948 0.0
C89 C 0.44051 0.32547 0.63046 0.0
O90 O 0.22953 0.19442 0.83031 0.0
O91 O 0.21124 0.30897 0.80389 0.0
O92 O 0.18297 0.14872 0.67624 0.0
C93 C 0.19608 0.258 0.85507 0.0
O94 O 0.43772 0.30632 0.69347 0.0
C95 C 0.16627 0.20746 0.64989 0.0
O96 O 0.39159 0.29857 0.614 0.0
O97 O 0.20696 0.26709 0.63858 0.0
C98 C 0.57115 0.10645 0.80005 0.0
O99 O 0.52861 0.13481 0.77631 0.0
Cd100 Cd 0.56011 0.24545 0.69844 0.0
O101 O 0.63615 0.13677 0.78148 0.0
Cd102 Cd 0.71548 0.24695 0.70179 0.0
C103 C 0.57395 0.36937 0.82442 0.0
O104 O 0.68966 0.21649 0.59937 0.0
O105 O 0.74612 0.32506 0.58622 0.0
O106 O 0.83125 0.17057 0.67109 0.0
C107 C 0.7242 0.2735 0.55679 0.0
O108 O 0.53657 0.34807 0.79182 0.0
C109 C 0.86834 0.2277 0.67523 0.0
O110 O 0.6396 0.3403 0.8041 0.0
O111 O 0.8336 0.29187 0.69312 0.0
C112 C 0.08865 0.0047 0.48582 0.0
C113 C 0.04449 0.03894 0.45737 0.0
H114 H 0.09145 0.92579 0.56642 0.0
C115 C 0.96754 0.01532 0.48775 0.0
H116 H 0.14798 0.0219 0.46406 0.0
C117 C 0.93498 0.95988 0.54666 0.0
C118 C 0.97849 0.92758 0.57694 0.0
H119 H 0.93191 0.04087 0.46728 0.0
H120 H 0.87526 0.94353 0.5695 0.0
C121 C 0.05597 0.94999 0.5451 0.0
C122 C 0.96175 0.90803 0.87172 0.0
C123 C 0.01753 0.87994 0.88826 0.0
H124 H 0.86883 0.98669 0.90243 0.0
C125 C 0.01648 0.90656 0.95539 0.0
H126 H 0.96007 0.88823 0.82116 0.0
C127 C 0.96361 0.96293 0.00244 0.0
C128 C 0.91044 -0.00634 -0.01642 0.0
H129 H 0.05804 0.88563 0.9704 0.0
H130 H 0.96631 0.98441 0.05197 0.0
C131 C 0.90891 0.96422 0.91877 0.0
C132 C 0.55662 0.40818 0.59297 0.0
C133 C 0.50057 0.38039 0.57669 0.0
H134 H 0.6497 0.48664 0.56208 0.0
C135 C 0.50131 0.40734 0.5098 0.0
H136 H 0.55855 0.38809 0.64332 0.0
C137 C 0.55413 0.46375 0.46277 0.0
C138 C 0.60756 0.49419 0.48139 0.0
H139 H 0.45953 0.38666 0.495 0.0
H140 H 0.55118 0.4855 0.41345 0.0
C141 C 0.6094 0.46441 0.54594 0.0
C142 C 0.4293 0.50381 0.97931 0.0
C143 C 0.47348 0.53793 0.00779 0.0
H144 H 0.42649 0.42502 0.89866 0.0
C145 C 0.5504 0.51424 0.97743 0.0
H146 H 0.37 0.52107 0.00106 0.0
C147 C 0.58294 0.45883 0.91851 0.0
C148 C 0.53943 0.42665 0.88819 0.0
H149 H 0.58604 0.53969 -0.00208 0.0
H150 H 0.64264 0.44241 0.89568 0.0
C151 C 0.46196 0.44913 0.92 0.0
C152 C 0.98844 0.38704 0.83532 0.0
C153 C 0.97652 0.37021 0.90931 0.0
H154 H 0.04248 0.4618 0.73684 0.0
C155 C 0.01601 0.41276 0.9382 0.0
H156 H 0.95869 0.35504 0.81179 0.0
C157 C 0.06397 0.47329 0.89558 0.0
C158 C 0.073 0.49289 0.82335 0.0
H159 H 1.00797 0.40094 -0.00482 0.0
H160 H 0.0913 0.50664 0.92084 0.0
C161 C 0.0362 0.44822 0.7927 0.0
C162 C 0.96028 0.44816 0.53028 0.0
C163 C 0.0337 0.41796 0.50681 0.0
H164 H 0.8745 0.53143 0.59987 0.0
C165 C 0.07688 0.44788 0.53804 0.0
H166 H 0.92585 0.42551 0.50703 0.0
C167 C 0.04794 0.50866 0.59051 0.0
C168 C 0.97502 0.54014 0.61314 0.0
H169 H 0.13385 0.42573 0.52041 0.0
H170 H 0.08359 0.53187 0.612 0.0
C171 C 0.93094 0.50859 0.58338 0.0
C172 C 0.47005 0.00796 0.87487 0.0
C173 C 0.5431 0.03922 0.85198 0.0
H174 H 0.38407 0.92515 0.94512 0.0
C175 C 0.58734 0.00742 0.88145 0.0
H176 H 0.43428 0.03137 0.8536 0.0
C177 C 0.55804 0.94695 0.93452 0.0
C178 C 0.4845 0.91695 0.95824 0.0
H179 H 0.64389 0.03008 0.86476 0.0
H180 H 0.59259 0.92409 0.95755 0.0
C181 C 0.44114 0.94714 0.9273 0.0
C182 C 0.53002 0.88771 0.6297 0.0
C183 C 0.54177 0.87081 0.5558 0.0
H184 H 0.4761 0.9625 0.72813 0.0
C185 C 0.50208 0.91325 0.52703 0.0
H186 H 0.55993 0.8558 0.65313 0.0
C187 C 0.45407 0.97373 0.5697 0.0
C188 C 0.44521 -0.00659 0.64183 0.0
H189 H 0.51001 0.90138 0.47011 0.0
H190 H 0.42656 0.00698 0.54454 0.0
C191 C 0.48222 0.94885 0.67236 0.0
C192 C 0.40184 0.73055 0.39576 0.0
C193 C 0.3965 0.80548 0.37301 0.0
H194 H 0.38363 0.65692 0.48944 0.0
C195 C 0.37763 0.86609 0.42644 0.0
H196 H 0.41692 0.68282 0.35577 0.0
C197 C 0.3576 0.8511 0.50303 0.0
C198 C 0.35759 0.77555 0.52702 0.0
H199 H 0.37325 0.92466 0.41075 0.0
H200 H 0.33766 0.898 0.54438 0.0
C201 C 0.38265 0.71576 0.47221 0.0
C202 C 0.75711 0.85028 0.02814 0.0
C203 C 0.78431 0.78167 -0.0138 0.0
H204 H 0.72771 0.91086 0.13252 0.0
C205 C 0.80218 0.7195 0.01941 0.0
H206 H 0.74275 0.89899 0.00406 0.0
C207 C 0.79231 0.72569 0.09371 0.0
C208 C 0.76571 0.7946 0.13537 0.0
H209 H 0.82313 0.66573 -0.01168 0.0
H210 H 0.80596 0.67684 0.11823 0.0
C211 C 0.74873 0.85699 0.10164 0.0
C212 C 0.72584 0.22495 0.37133 0.0
C213 C 0.75239 0.2939 0.32971 0.0
H214 H 0.69501 0.16491 0.47671 0.0
C215 C 0.76923 0.35629 0.36353 0.0
H216 H 0.71229 0.1761 0.34676 0.0
C217 C 0.76078 0.34954 0.43705 0.0
C218 C 0.73366 0.28089 0.47894 0.0
H219 H 0.7902 0.4102 0.33269 0.0
H220 H 0.77505 0.39826 0.46118 0.0
C221 C 0.7159 0.21872 0.44566 0.0
C222 C 0.11632 0.23162 0.06937 0.0
C223 C 0.12197 0.30652 0.09193 0.0
H224 H 0.13421 0.15793 0.97587 0.0
C225 C 0.14114 0.36706 0.03835 0.0
H226 H 0.10102 0.18396 0.10948 0.0
C227 C 0.1611 0.35198 0.9618 0.0
C228 C 0.16076 0.27644 0.938 0.0
H229 H 0.14578 0.42561 0.05388 0.0
H230 H 0.18126 0.3988 0.92032 0.0
C231 C 0.13545 0.21675 -0.00705 0.0
C232 C 0.4323 0.24615 0.17942 0.0
C233 C 0.39585 0.31765 0.18912 0.0
H234 H 0.5378 0.18613 0.14527 0.0
C235 C 0.44149 0.38441 0.16448 0.0
H236 H 0.39903 0.19346 0.19699 0.0
C237 C 0.52109 0.38015 0.13468 0.0
C238 C 0.55701 0.30903 0.12862 0.0
H239 H 0.41556 0.44035 0.17003 0.0
H240 H 0.55403 0.43303 0.1186 0.0
C241 C 0.51202 0.24187 0.14941 0.0
C242 C 0.52891 0.78777 0.80831 0.0
C243 C 0.57021 0.7212 0.80417 0.0
H244 H 0.42664 0.83531 0.8178 0.0
C245 C 0.53566 0.64906 0.81138 0.0
H246 H 0.55407 0.84413 0.80251 0.0
C247 C 0.46262 0.64389 0.81862 0.0
C248 C 0.42248 0.71083 0.82057 0.0
H249 H 0.56605 0.59671 0.80871 0.0
H250 H 0.43852 0.58769 0.82068 0.0
C251 C 0.45558 0.78269 0.81744 0.0
C252 C 0.07694 0.88399 0.30074 0.0
C253 C 0.12247 0.81715 0.27599 0.0
H254 H 0.96448 0.93287 0.34669 0.0
C255 C 0.0859 0.74575 0.28556 0.0
H256 H 0.10296 0.93986 0.2953 0.0
C257 C 1.00618 0.74167 0.31554 0.0
C258 C 0.9613 0.80892 0.33643 0.0
H259 H 0.11908 0.69301 0.26791 0.0
H260 H 0.98031 0.68601 0.31958 0.0
C261 C 0.99734 0.87992 0.33052 0.0
C262 C 0.05539 0.14368 0.64698 0.0
C263 C 0.09556 0.21073 0.64464 0.0
H264 H 0.95193 0.09626 0.65721 0.0
C265 C 0.0625 0.28251 0.6473 0.0
H266 H 0.07944 0.08754 0.6453 0.0
C267 C 0.98919 0.28744 0.65636 0.0
C268 C 0.94785 0.22077 0.66093 0.0
H269 H 0.09148 0.33521 0.64661 0.0
H270 H 0.96407 0.34376 0.66176 0.0
C271 C 0.98236 0.14869 0.65418 0.0
loop_
_geom_bond_atom_site_label_1
_geom_bond_atom_site_label_2
_geom_bond_distance
_geom_bond_site_symmetry_2
_ccdc_geom_bond_type
C0 O1 1.306 . S
C0 O3 1.160 . S
O1 C0 1.306 . S
O1 Cd2 2.228 . S
Cd2 O1 2.228 . S
Cd2 O6 2.273 . S
Cd2 O10 2.277 . S
O3 C0 1.160 . S
O3 Cd4 2.203 . S
Cd4 O3 2.203 . S
Cd4 O6 2.411 . S
Cd4 O7 2.333 . S
Cd4 O8 2.352 . S
Cd4 O12 2.277 . S
Cd4 O13 2.356 . S
C5 O10 1.209 . S
C5 O12 1.226 . S
O6 Cd2 2.273 . S
O6 Cd4 2.411 . S
O6 C9 1.320 . S
O7 Cd4 2.333 . S
O7 C9 1.214 . S
O8 Cd4 2.352 . S
O8 C11 1.258 . S
C9 O6 1.320 . S
C9 O7 1.214 . S
O10 Cd2 2.277 . S
O10 C5 1.209 . S
C11 O8 1.258 . S
C11 O13 1.282 . S
O12 Cd4 2.277 . S
O12 C5 1.226 . S
O13 Cd4 2.356 . S
O13 C11 1.282 . S
C14 O15 1.306 . S
C14 O17 1.160 . S
O15 C14 1.306 . S
O15 Cd16 2.228 . S
Cd16 O15 2.228 . S
Cd16 O20 2.273 . S
Cd16 O24 2.277 . S
O17 C14 1.160 . S
O17 Cd18 2.203 . S
Cd18 O17 2.203 . S
Cd18 O20 2.411 . S
Cd18 O21 2.333 . S
Cd18 O22 2.352 . S
Cd18 O26 2.277 . S
Cd18 O27 2.356 . S
C19 O24 1.209 . S
C19 O26 1.226 . S
O20 Cd16 2.273 . S
O20 Cd18 2.411 . S
O20 C23 1.320 . S
O21 Cd18 2.333 . S
O21 C23 1.214 . S
O22 Cd18 2.352 . S
O22 C25 1.258 . S
C23 O20 1.320 . S
C23 O21 1.214 . S
O24 Cd16 2.277 . S
O24 C19 1.209 . S
C25 O22 1.258 . S
C25 O27 1.282 . S
O26 Cd18 2.277 . S
O26 C19 1.226 . S
O27 Cd18 2.356 . S
O27 C25 1.282 . S
C28 O29 1.306 . S
C28 O31 1.160 . S
O29 C28 1.306 . S
O29 Cd30 2.228 . S
Cd30 O29 2.228 . S
Cd30 O34 2.273 . S
Cd30 O38 2.277 . S
O31 C28 1.160 . S
O31 Cd32 2.203 . S
Cd32 O31 2.203 . S
Cd32 O34 2.411 . S
Cd32 O35 2.333 . S
Cd32 O36 2.352 . S
Cd32 O40 2.277 . S
Cd32 O41 2.356 . S
C33 O38 1.209 . S
C33 O40 1.226 . S
O34 Cd30 2.273 . S
O34 Cd32 2.411 . S
O34 C37 1.320 . S
O35 Cd32 2.333 . S
O35 C37 1.214 . S
O36 Cd32 2.352 . S
O36 C39 1.258 . S
C37 O34 1.320 . S
C37 O35 1.214 . S
O38 Cd30 2.277 . S
O38 C33 1.209 . S
C39 O36 1.258 . S
C39 O41 1.282 . S
O40 Cd32 2.277 . S
O40 C33 1.226 . S
O41 Cd32 2.356 . S
O41 C39 1.282 . S
C42 O43 1.306 . S
C42 O45 1.160 . S
O43 C42 1.306 . S
O43 Cd44 2.228 . S
Cd44 O43 2.228 . S
Cd44 O48 2.273 . S
Cd44 O52 2.277 . S
O45 C42 1.160 . S
O45 Cd46 2.203 . S
Cd46 O45 2.203 . S
Cd46 O48 2.411 . S
Cd46 O49 2.333 . S
Cd46 O50 2.352 . S
Cd46 O54 2.277 . S
Cd46 O55 2.356 . S
C47 O52 1.209 . S
C47 O54 1.226 . S
O48 Cd44 2.273 . S
O48 Cd46 2.411 . S
O48 C51 1.320 . S
O49 Cd46 2.333 . S
O49 C51 1.214 . S
O50 Cd46 2.352 . S
O50 C53 1.258 . S
C51 O48 1.320 . S
C51 O49 1.214 . S
O52 Cd44 2.277 . S
O52 C47 1.209 . S
C53 O50 1.258 . S
C53 O55 1.282 . S
O54 Cd46 2.277 . S
O54 C47 1.226 . S
O55 Cd46 2.356 . S
O55 C53 1.282 . S
C56 O57 1.306 . S
C56 O59 1.160 . S
O57 C56 1.306 . S
O57 Cd58 2.228 . S
Cd58 O57 2.228 . S
Cd58 O62 2.273 . S
Cd58 O66 2.277 . S
O59 C56 1.160 . S
O59 Cd60 2.203 . S
Cd60 O59 2.203 . S
Cd60 O62 2.411 . S
Cd60 O63 2.333 . S
Cd60 O64 2.352 . S
Cd60 O68 2.277 . S
Cd60 O69 2.356 . S
C61 O66 1.209 . S
C61 O68 1.226 . S
O62 Cd58 2.273 . S
O62 Cd60 2.411 . S
O62 C65 1.320 . S
O63 Cd60 2.333 . S
O63 C65 1.214 . S
O64 Cd60 2.352 . S
O64 C67 1.258 . S
C65 O62 1.320 . S
C65 O63 1.214 . S
O66 Cd58 2.277 . S
O66 C61 1.209 . S
C67 O64 1.258 . S
C67 O69 1.282 . S
O68 Cd60 2.277 . S
O68 C61 1.226 . S
O69 Cd60 2.356 . S
O69 C67 1.282 . S
C70 O71 1.306 . S
C70 O73 1.160 . S
O71 C70 1.306 . S
O71 Cd72 2.228 . S
Cd72 O71 2.228 . S
Cd72 O76 2.273 . S
Cd72 O80 2.277 . S
O73 C70 1.160 . S
O73 Cd74 2.203 . S
Cd74 O73 2.203 . S
Cd74 O76 2.411 . S
Cd74 O77 2.333 . S
Cd74 O78 2.352 . S
Cd74 O82 2.277 . S
Cd74 O83 2.356 . S
C75 O80 1.209 . S
C75 O82 1.226 . S
O76 Cd72 2.273 . S
O76 Cd74 2.411 . S
O76 C79 1.320 . S
O77 Cd74 2.333 . S
O77 C79 1.214 . S
O78 Cd74 2.352 . S
O78 C81 1.258 . S
C79 O76 1.320 . S
C79 O77 1.214 . S
O80 Cd72 2.277 . S
O80 C75 1.209 . S
C81 O78 1.258 . S
C81 O83 1.282 . S
O82 Cd74 2.277 . S
O82 C75 1.226 . S
O83 Cd74 2.356 . S
O83 C81 1.282 . S
C84 O85 1.306 . S
C84 O87 1.160 . S
O85 C84 1.306 . S
O85 Cd86 2.228 . S
Cd86 O85 2.228 . S
Cd86 O90 2.273 . S
Cd86 O94 2.277 . S
O87 C84 1.160 . S
O87 Cd88 2.203 . S
Cd88 O87 2.203 . S
Cd88 O90 2.411 . S
Cd88 O91 2.333 . S
Cd88 O92 2.352 . S
Cd88 O96 2.277 . S
Cd88 O97 2.356 . S
C89 O94 1.209 . S
C89 O96 1.226 . S
O90 Cd86 2.273 . S
O90 Cd88 2.411 . S
O90 C93 1.320 . S
O91 Cd88 2.333 . S
O91 C93 1.214 . S
O92 Cd88 2.352 . S
O92 C95 1.258 . S
C93 O90 1.320 . S
C93 O91 1.214 . S
O94 Cd86 2.277 . S
O94 C89 1.209 . S
C95 O92 1.258 . S
C95 O97 1.282 . S
O96 Cd88 2.277 . S
O96 C89 1.226 . S
O97 Cd88 2.356 . S
O97 C95 1.282 . S
C98 O99 1.306 . S
C98 O101 1.160 . S
O99 C98 1.306 . S
O99 Cd100 2.228 . S
Cd100 O99 2.228 . S
Cd100 O104 2.273 . S
Cd100 O108 2.277 . S
O101 C98 1.160 . S
O101 Cd102 2.203 . S
Cd102 O101 2.203 . S
Cd102 O104 2.411 . S
Cd102 O105 2.333 . S
Cd102 O106 2.352 . S
Cd102 O110 2.277 . S
Cd102 O111 2.356 . S
C103 O108 1.209 . S
C103 O110 1.226 . S
O104 Cd100 2.273 . S
O104 Cd102 2.411 . S
O104 C107 1.320 . S
O105 Cd102 2.333 . S
O105 C107 1.214 . S
O106 Cd102 2.352 . S
O106 C109 1.258 . S
C107 O104 1.320 . S
C107 O105 1.214 . S
O108 Cd100 2.277 . S
O108 C103 1.209 . S
C109 O106 1.258 . S
C109 O111 1.282 . S
O110 Cd102 2.277 . S
O110 C103 1.226 . S
O111 Cd102 2.356 . S
O111 C109 1.282 . S
C112 C113 1.387 . S
C112 H116 0.950 . S
C112 C121 1.390 1_545 S
C113 C112 1.387 . S
C113 C115 1.387 1_455 S
H114 C121 0.950 . S
C115 C113 1.387 1_655 S
C115 C117 1.390 1_545 S
C115 H119 0.950 . S
H116 C112 0.950 . S
C117 C115 1.390 1_565 S
C117 C118 1.387 . S
C117 H120 0.950 . S
C118 C117 1.387 . S
C118 C121 1.387 1_655 S
H119 C115 0.950 . S
H120 C117 0.950 . S
C121 C112 1.390 1_565 S
C121 H114 0.950 . S
C121 C118 1.387 1_455 S
C122 C123 1.387 1_655 S
C122 H126 0.950 . S
C122 C131 1.390 1_565 S
C123 C122 1.387 1_455 S
C123 C125 1.387 . S
H124 C131 0.950 . S
C125 C123 1.387 . S
C125 C127 1.390 1_566 S
C125 H129 0.950 . S
H126 C122 0.950 . S
C127 C125 1.390 1_544 S
C127 C128 1.387 1_455 S
C127 H130 0.950 . S
C128 C127 1.387 1_655 S
C128 C131 1.387 1_554 S
H129 C125 0.950 . S
H130 C127 0.950 . S
C131 C122 1.390 1_545 S
C131 H124 0.950 . S
C131 C128 1.387 1_556 S
C132 C133 1.387 . S
C132 H136 0.950 . S
C132 C141 1.390 . S
C133 C132 1.387 . S
C133 C135 1.387 . S
H134 C141 0.950 . S
C135 C133 1.387 . S
C135 C137 1.390 . S
C135 H139 0.950 . S
H136 C132 0.950 . S
C137 C135 1.390 . S
C137 C138 1.387 . S
C137 H140 0.950 . S
C138 C137 1.387 . S
C138 C141 1.387 . S
H139 C135 0.950 . S
H140 C137 0.950 . S
C141 C132 1.390 . S
C141 H134 0.950 . S
C141 C138 1.387 . S
C142 C143 1.387 . S
C142 H146 0.950 . S
C142 C151 1.390 . S
C143 C142 1.387 . S
C143 C145 1.387 1_554 S
H144 C151 0.950 . S
C145 C143 1.387 1_556 S
C145 C147 1.390 . S
C145 H149 0.950 . S
H146 C142 0.950 . S
C147 C145 1.390 . S
C147 C148 1.387 . S
C147 H150 0.950 . S
C148 C147 1.387 . S
C148 C151 1.387 1_556 S
H149 C145 0.950 . S
H150 C147 0.950 . S
C151 C142 1.390 . S
C151 H144 0.950 . S
C151 C148 1.387 1_554 S
C152 C153 1.387 1_556 S
C152 H156 0.950 . S
C152 C161 1.390 1_655 S
C153 C152 1.387 1_554 S
C153 C155 1.387 . S
H154 C161 0.950 . S
C155 C153 1.387 . S
C155 C157 1.391 . S
C155 H159 0.950 . S
H156 C152 0.950 . S
C157 C155 1.391 . S
C157 C158 1.387 1_654 S
C157 H160 0.949 1_655 S
C158 C157 1.387 1_456 S
C158 C161 1.387 . S
H159 C155 0.950 . S
H160 C157 0.949 1_455 S
C161 C152 1.390 1_455 S
C161 H154 0.950 . S
C161 C158 1.387 . S
C162 C163 1.387 . S
C162 H166 0.950 . S
C162 C171 1.390 1_455 S
C163 C162 1.387 . S
C163 C165 1.387 . S
H164 C171 0.950 . S
C165 C163 1.387 . S
C165 C167 1.390 1_455 S
C165 H169 0.950 . S
H166 C162 0.950 . S
C167 C165 1.390 1_655 S
C167 C168 1.387 . S
C167 H170 0.950 . S
C168 C167 1.387 . S
C168 C171 1.387 . S
H169 C165 0.950 . S
H170 C167 0.950 . S
C171 C162 1.390 1_655 S
C171 H164 0.950 . S
C171 C168 1.387 . S
C172 C173 1.387 1_565 S
C172 H176 0.950 . S
C172 C181 1.390 . S
C173 C172 1.387 1_545 S
C173 C175 1.387 1_556 S
H174 C181 0.950 . S
C175 C173 1.387 1_554 S
C175 C177 1.390 . S
C175 H179 0.950 . S
H176 C172 0.950 . S
C177 C175 1.390 . S
C177 C178 1.387 1_545 S
C177 H180 0.950 . S
C178 C177 1.387 1_565 S
C178 C181 1.387 1_554 S
H179 C175 0.950 . S
H180 C177 0.950 . S
C181 C172 1.390 . S
C181 H174 0.950 . S
C181 C178 1.387 1_556 S
C182 C183 1.387 . S
C182 H186 0.950 . S
C182 C191 1.390 1_565 S
C183 C182 1.387 . S
C183 C185 1.387 . S
H184 C191 0.950 . S
C185 C183 1.387 . S
C185 C187 1.390 1_565 S
C185 H189 0.950 . S
H186 C182 0.950 . S
C187 C185 1.390 1_545 S
C187 C188 1.387 . S
C187 H190 0.950 . S
C188 C187 1.387 . S
C188 C191 1.387 . S
H189 C185 0.950 . S
H190 C187 0.950 . S
C191 C182 1.390 1_545 S
C191 H184 0.950 . S
C191 C188 1.387 . S
C192 C193 1.387 . S
C192 H196 0.950 . S
C192 C201 1.390 . S
C193 C192 1.387 . S
C193 C195 1.387 . S
H194 C201 0.950 . S
C195 C193 1.387 . S
C195 C197 1.390 . S
C195 H199 0.950 . S
H196 C192 0.950 . S
C197 C195 1.390 . S
C197 C198 1.387 . S
C197 H200 0.950 . S
C198 C197 1.387 . S
C198 C201 1.387 . S
H199 C195 0.950 . S
H200 C197 0.950 . S
C201 C192 1.390 . S
C201 H194 0.950 . S
C201 C198 1.387 . S
C202 C203 1.387 . S
C202 H206 0.950 . S
C202 C211 1.390 1_556 S
C203 C202 1.387 . S
C203 C205 1.387 . S
H204 C211 0.950 . S
C205 C203 1.387 . S
C205 C207 1.390 1_556 S
C205 H209 0.950 . S
H206 C202 0.950 . S
C207 C205 1.390 1_554 S
C207 C208 1.387 . S
C207 H210 0.950 . S
C208 C207 1.387 . S
C208 C211 1.387 . S
H209 C205 0.950 . S
H210 C207 0.950 . S
C211 C202 1.390 1_554 S
C211 H204 0.950 . S
C211 C208 1.387 . S
C212 C213 1.387 . S
C212 H216 0.950 . S
C212 C221 1.390 . S
C213 C212 1.387 . S
C213 C215 1.387 . S
H214 C221 0.950 . S
C215 C213 1.387 . S
C215 C217 1.390 . S
C215 H219 0.950 . S
H216 C212 0.950 . S
C217 C215 1.390 . S
C217 C218 1.387 . S
C217 H220 0.950 . S
C218 C217 1.387 . S
C218 C221 1.387 . S
H219 C215 0.950 . S
H220 C217 0.950 . S
C221 C212 1.390 . S
C221 H214 0.950 . S
C221 C218 1.387 . S
C222 C223 1.387 . S
C222 H226 0.950 . S
C222 C231 1.390 1_554 S
C223 C222 1.387 . S
C223 C225 1.387 . S
H224 C231 0.950 . S
C225 C223 1.387 . S
C225 C227 1.390 1_554 S
C225 H229 0.950 . S
H226 C222 0.950 . S
C227 C225 1.390 1_556 S
C227 C228 1.387 . S
C227 H230 0.950 . S
C228 C227 1.387 . S
C228 C231 1.387 . S
H229 C225 0.950 . S
H230 C227 0.950 . S
C231 C222 1.390 1_556 S
C231 H224 0.950 . S
C231 C228 1.387 . S
C232 C233 1.387 . S
C232 H236 0.950 . S
C232 C241 1.390 . S
C233 C232 1.387 . S
C233 C235 1.387 . S
H234 C241 0.950 . S
C235 C233 1.387 . S
C235 C237 1.390 . S
C235 H239 0.950 . S
H236 C232 0.950 . S
C237 C235 1.390 . S
C237 C238 1.387 . S
C237 H240 0.950 . S
C238 C237 1.387 . S
C238 C241 1.387 . S
H239 C235 0.950 . S
H240 C237 0.950 . S
C241 C232 1.390 . S
C241 H234 0.950 . S
C241 C238 1.387 . S
C242 C243 1.387 . S
C242 H246 0.950 . S
C242 C251 1.390 . S
C243 C242 1.387 . S
C243 C245 1.387 . S
H244 C251 0.950 . S
C245 C243 1.387 . S
C245 C247 1.390 . S
C245 H249 0.950 . S
H246 C242 0.950 . S
C247 C245 1.390 . S
C247 C248 1.387 . S
C247 H250 0.950 . S
C248 C247 1.387 . S
C248 C251 1.387 . S
H249 C245 0.950 . S
H250 C247 0.950 . S
C251 C242 1.390 . S
C251 H244 0.950 . S
C251 C248 1.387 . S
C252 C253 1.387 . S
C252 H256 0.950 . S
C252 C261 1.390 1_455 S
C253 C252 1.387 . S
C253 C255 1.387 . S
H254 C261 0.950 . S
C255 C253 1.387 . S
C255 C257 1.390 1_455 S
C255 H259 0.950 . S
H256 C252 0.950 . S
C257 C255 1.390 1_655 S
C257 C258 1.387 . S
C257 H260 0.950 . S
C258 C257 1.387 . S
C258 C261 1.387 . S
H259 C255 0.950 . S
H260 C257 0.950 . S
C261 C252 1.390 1_655 S
C261 H254 0.950 . S
C261 C258 1.387 . S
C262 C263 1.387 . S
C262 H266 0.950 . S
C262 C271 1.390 1_455 S
C263 C262 1.387 . S
C263 C265 1.387 . S
H264 C271 0.950 . S
C265 C263 1.387 . S
C265 C267 1.390 1_455 S
C265 H269 0.950 . S
H266 C262 0.950 . S
C267 C265 1.390 1_655 S
C267 C268 1.387 . S
C267 H270 0.950 . S
C268 C267 1.387 . S
C268 C271 1.387 . S
H269 C265 0.950 . S
H270 C267 0.950 . S
C271 C262 1.390 1_655 S
C271 H264 0.950 . S
C271 C268 1.387 . S
C113 C11 1.747 . S
C118 C33 1.766 . S
C123 C47 1.766 . S
C128 C25 1.747 . S
C133 C89 1.767 . S
C138 C67 1.748 . S
C143 C81 1.748 . S
C148 C103 1.767 . S
C153 C23 1.357 . S
C158 C42 1.336 . S
C163 C9 1.359 . S
C168 C28 1.339 . S
C173 C98 1.336 . S
C178 C79 1.357 . S
C183 C65 1.357 . S
C188 C84 1.336 . S
C193 C70 1.508 . S
C198 C51 1.522 . S
C203 C37 1.522 . S
C208 C56 1.508 . S
C213 C14 1.508 . S
C218 C107 1.522 . S
C223 C0 1.508 . S
C228 C93 1.522 . S
C233 C5 1.549 . S
C238 C19 1.549 . S
C243 C39 1.572 . S
C248 C53 1.572 . S
C253 C75 1.549 . S
C258 C61 1.549 . S
C263 C95 1.571 . S
C268 C109 1.571 . S
