# Generated by pormake.
# Topology smu, (6)-cn, num edge types: 1
# Building blocks:
#     Node 0, Type 0, BuildingBlock: BETDIP_clean_sbu_0, # of connection points: 6
#     Node 1, Type 0, BuildingBlock: BETDIP_clean_sbu_0, # of connection points: 6
#     Node 2, Type 0, BuildingBlock: BETDIP_clean_sbu_0, # of connection points: 6
#     Node 3, Type 0, BuildingBlock: BETDIP_clean_sbu_0, # of connection points: 6
#     Node 4, Type 0, BuildingBlock: BETDIP_clean_sbu_0, # of connection points: 6
#     Node 5, Type 0, BuildingBlock: BETDIP_clean_sbu_0, # of connection points: 6
#     Edge 6, Type (0, 0), BuildingBlock: XUDNAN_clean_linker_2, # of connection points: 2
#     Edge 7, Type (0, 0), BuildingBlock: XUDNAN_clean_linker_2, # of connection points: 2
#     Edge 8, Type (0, 0), BuildingBlock: XUDNAN_clean_linker_2, # of connection points: 2
#     Edge 9, Type (0, 0), BuildingBlock: XUDNAN_clean_linker_2, # of connection points: 2
#     Edge 10, Type (0, 0), BuildingBlock: XUDNAN_clean_linker_2, # of connection points: 2
#     Edge 11, Type (0, 0), BuildingBlock: XUDNAN_clean_linker_2, # of connection points: 2
#     Edge 12, Type (0, 0), BuildingBlock: XUDNAN_clean_linker_2, # of connection points: 2
#     Edge 13, Type (0, 0), BuildingBlock: XUDNAN_clean_linker_2, # of connection points: 2
#     Edge 14, Type (0, 0), BuildingBlock: XUDNAN_clean_linker_2, # of connection points: 2
#     Edge 15, Type (0, 0), BuildingBlock: XUDNAN_clean_linker_2, # of connection points: 2
#     Edge 16, Type (0, 0), BuildingBlock: XUDNAN_clean_linker_2, # of connection points: 2
#     Edge 17, Type (0, 0), BuildingBlock: XUDNAN_clean_linker_2, # of connection points: 2
#     Edge 18, Type (0, 0), BuildingBlock: XUDNAN_clean_linker_2, # of connection points: 2
#     Edge 19, Type (0, 0), BuildingBlock: XUDNAN_clean_linker_2, # of connection points: 2
#     Edge 20, Type (0, 0), BuildingBlock: XUDNAN_clean_linker_2, # of connection points: 2
#     Edge 21, Type (0, 0), BuildingBlock: XUDNAN_clean_linker_2, # of connection points: 2
#     Edge 22, Type (0, 0), BuildingBlock: XUDNAN_clean_linker_2, # of connection points: 2
#     Edge 23, Type (0, 0), BuildingBlock: XUDNAN_clean_linker_2, # of connection points: 2
# Relax obj value: 0.227
# Max RMSD: 0.314
# Mean RMSD: 0.314
data_MOF--net-smu--node1-BETDIP_clean_sbu_0--edge1-XUDNAN_clean_linker_2
_symmetry_space_group_name_H-M    P1
_symmetry_Int_Tables_number       1
_symmetry_cell_setting            triclinic
loop_
_symmetry_equiv_pos_as_xyz
'x, y, z'
_cell_length_a     38.355998
_cell_length_b     38.402081
_cell_length_c     26.443353
_cell_angle_alpha  89.833387
_cell_angle_beta   90.01182
_cell_angle_gamma 120.19986
loop_
_atom_site_label
_atom_site_type_symbol
_atom_site_fract_x
_atom_site_fract_y
_atom_site_fract_z
_atom_type_partial_charge
Tb0 Tb 0.34274 0.05758 0.27901 0.0
Tb1 Tb 0.39988 0.145 0.28769 0.0
C2 C 0.28334 0.98814 0.29333 0.0
C3 C 0.23905 0.97103 0.29049 0.0
C4 C 0.21891 0.98327 0.32426 0.0
C5 C 0.17716 0.96696 0.32118 0.0
C6 C 0.15442 0.93809 0.28422 0.0
C7 C 0.1747 0.92617 0.25019 0.0
C8 C 0.21647 0.94236 0.25343 0.0
C9 C 0.36971 0.09155 0.19103 0.0
C10 C 0.31094 0.12163 0.28944 0.0
C11 C 0.45692 0.21677 0.27882 0.0
C12 C 0.47107 0.25925 0.29211 0.0
C13 C 0.44872 0.27824 0.28086 0.0
C14 C 0.46605 0.32007 0.28712 0.0
C15 C 0.50605 0.34352 0.30423 0.0
C16 C 0.52739 0.32398 0.31776 0.0
C17 C 0.51012 0.28242 0.31172 0.0
C18 C 0.37488 0.10364 0.3742 0.0
C19 C 0.434 0.0864 0.27208 0.0
O20 O 0.30212 1.014 0.32954 0.0
O21 O 0.30318 0.99962 0.25057 0.0
O22 O 0.36033 0.10718 0.22723 0.0
O23 O 0.36232 0.05594 0.20387 0.0
O24 O 0.30284 0.08364 0.2894 0.0
O25 O 0.34805 0.15198 0.28597 0.0
O26 O 0.45463 0.19258 0.3152 0.0
O27 O 0.42742 0.19901 0.24625 0.0
O28 O 0.3842 0.09389 0.33377 0.0
O29 O 0.38088 0.13985 0.3687 0.0
O30 O 0.43712 0.12109 0.25906 0.0
O31 O 0.39923 0.0566 0.28981 0.0
H32 H 0.23529 1.00537 0.35333 0.0
H33 H 0.16263 0.97647 0.34852 0.0
H34 H 0.15833 0.90446 0.22074 0.0
H35 H 0.23118 0.93249 0.2268 0.0
H36 H 0.4185 0.26111 0.2656 0.0
H37 H 0.4489 0.33428 0.27627 0.0
H38 H 0.55802 0.34108 0.33177 0.0
H39 H 0.52799 0.26855 0.32059 0.0
Tb40 Tb 0.76311 0.7241 0.29219 0.0
Tb41 Tb 0.79753 0.67112 0.28092 0.0
C42 C 0.75448 0.78166 0.32148 0.0
C43 C 0.7819 0.82625 0.3207 0.0
C44 C 0.77652 0.84995 0.28443 0.0
C45 C 0.80273 0.89172 0.28221 0.0
C46 C 0.83497 0.9112 0.31658 0.0
C47 C 0.84023 0.88744 0.35308 0.0
C48 C 0.81408 0.84558 0.35514 0.0
C49 C 0.75924 0.70099 0.1981 0.0
C50 C 0.85975 0.76065 0.27854 0.0
C51 C 0.81229 0.61501 0.26274 0.0
C52 C 0.83931 0.59824 0.27232 0.0
C53 C 0.82263 0.55957 0.29371 0.0
C54 C 0.84518 0.54016 0.29752 0.0
C55 C 0.88521 0.55874 0.27981 0.0
C56 C 0.90246 0.5981 0.25984 0.0
C57 C 0.87972 0.61756 0.25587 0.0
C58 C 0.79391 0.69486 0.37444 0.0
C59 C 0.70349 0.63296 0.2854 0.0
O60 O 0.76418 0.7608 0.35168 0.0
O61 O 0.74189 0.76409 0.27758 0.0
O62 O 0.78879 0.70994 0.22801 0.0
O63 O 0.73223 0.70594 0.22109 0.0
O64 O 0.8294 0.7662 0.29129 0.0
O65 O 0.85384 0.72476 0.26761 0.0
O66 O 0.78975 0.61445 0.30013 0.0
O67 O 0.82514 0.64728 0.23452 0.0
O68 O 0.76807 0.68351 0.34044 0.0
O69 O 0.82453 0.69301 0.35715 0.0
O70 O 0.73403 0.6335 0.2616 0.0
O71 O 0.70862 0.66593 0.30838 0.0
H72 H 0.75213 0.83612 0.25731 0.0
H73 H 0.79792 0.90864 0.25298 0.0
H74 H 0.86423 0.9012 0.38069 0.0
H75 H 0.81921 0.82842 0.38377 0.0
H76 H 0.79151 0.54371 0.30633 0.0
H77 H 0.83097 0.51025 0.31396 0.0
H78 H 0.93309 0.61334 0.24555 0.0
H79 H 0.89346 0.64722 0.23877 0.0
Tb80 Tb 1.01342 0.30305 0.2832 0.0
Tb81 Tb 0.9271 0.26186 0.29412 0.0
C82 C 0.08641 0.32154 0.28907 0.0
C83 C 0.10584 0.29664 0.29305 0.0
C84 C 0.13913 0.3054 0.26238 0.0
C85 C 0.1563 0.28067 0.26339 0.0
C86 C 0.14043 0.24648 0.29505 0.0
C87 C 0.10726 0.238 0.32608 0.0
C88 C 0.0902 0.26279 0.32514 0.0
C89 C 0.97818 0.29112 0.19447 0.0
C90 C 0.9605 0.20665 0.2867 0.0
C91 C 0.85179 0.23085 0.29171 0.0
C92 C 0.80708 0.21006 0.29077 0.0
C93 C 0.78686 0.2312 0.28022 0.0
C94 C 0.74451 0.21124 0.28029 0.0
C95 C 0.72133 0.16947 0.2902 0.0
C96 C 0.74197 0.14845 0.29991 0.0
C97 C 0.7842 0.16851 0.30055 0.0
C98 C 0.96967 0.28304 0.38096 0.0
C99 C 0.97382 0.35725 0.28277 0.0
O100 O 0.06498 0.32091 0.32779 0.0
O101 O 0.06812 0.31882 0.24641 0.0
O102 O 0.96602 0.26581 0.23096 0.0
O103 O 1.00782 0.32482 0.21052 0.0
O104 O 0.99426 0.23881 0.30207 0.0
O105 O 0.93181 0.21175 0.26811 0.0
O106 O 0.87569 0.26176 0.26328 0.0
O107 O 0.87047 0.21836 0.32146 0.0
O108 O 0.97613 0.30248 0.34111 0.0
O109 O 0.93647 0.24939 0.37467 0.0
O110 O 0.93963 0.32278 0.27687 0.0
O111 O 1.00808 0.35746 0.29231 0.0
H112 H 0.15153 0.3311 0.23702 0.0
H113 H 0.18149 0.2879 0.23853 0.0
H114 H 0.09456 0.2123 0.35141 0.0
H115 H 0.06451 0.25517 0.34928 0.0
H116 H 0.80379 0.2633 0.27272 0.0
H117 H 0.73006 0.22881 0.27344 0.0
H118 H 0.7256 0.11625 0.30654 0.0
H119 H 0.799 0.15134 0.30822 0.0
Tb120 Tb 0.11291 0.39274 0.7971 0.0
Tb121 Tb 0.13792 0.33145 0.78539 0.0
C122 C 0.10824 0.4523 0.82795 0.0
C123 C 0.13481 0.49643 0.82305 0.0
C124 C 0.12819 0.52247 0.85328 0.0
C125 C 0.1527 0.56434 0.84817 0.0
C126 C 0.18455 0.58111 0.8128 0.0
C127 C 0.19136 0.55479 0.78298 0.0
C128 C 0.16663 0.51291 0.78788 0.0
C129 C 0.10789 0.36852 0.70404 0.0
C130 C 0.20809 0.41962 0.79285 0.0
C131 C 0.14777 0.27416 0.75837 0.0
C132 C 0.17399 0.25724 0.76903 0.0
C133 C 0.15622 0.2153 0.77184 0.0
C134 C 0.1799 0.19765 0.77941 0.0
C135 C 0.22205 0.22157 0.78404 0.0
C136 C 0.23981 0.26378 0.78294 0.0
C137 C 0.21594 0.28153 0.77542 0.0
C138 C 0.12861 0.34725 0.88153 0.0
C139 C 0.04532 0.30378 0.78645 0.0
O140 O 0.12205 0.4335 0.85559 0.0
O141 O 0.09179 0.43303 0.78599 0.0
O142 O 0.13595 0.37438 0.73466 0.0
O143 O 0.08493 0.38064 0.72351 0.0
O144 O 0.17958 0.4294 0.79729 0.0
O145 O 0.19903 0.38199 0.7865 0.0
O146 O 0.16365 0.3088 0.73461 0.0
O147 O 0.12361 0.27146 0.79489 0.0
O148 O 0.10838 0.3457 0.84355 0.0
O149 O 0.15523 0.33834 0.86578 0.0
O150 O 0.0739 0.29875 0.76594 0.0
O151 O 0.05429 0.33793 0.80968 0.0
H152 H 0.10389 0.51041 0.88073 0.0
H153 H 0.14685 0.58362 0.87222 0.0
H154 H 0.21525 0.56653 0.755 0.0
H155 H 0.17211 0.49339 0.76382 0.0
H156 H 0.12389 0.19606 0.76753 0.0
H157 H 0.16513 0.16509 0.78121 0.0
H158 H 0.27219 0.28298 0.78635 0.0
H159 H 0.23027 0.31407 0.77381 0.0
Tb160 Tb 0.35062 0.96986 0.79538 0.0
Tb161 Tb 0.26098 0.93261 0.78114 0.0
C162 C 0.419 0.98308 0.82433 0.0
C163 C 0.44069 0.96075 0.81714 0.0
C164 C 0.42944 0.93217 0.77835 0.0
C165 C 0.44838 0.90934 0.77336 0.0
C166 C 0.47944 0.91504 0.80657 0.0
C167 C 0.49137 0.94441 0.84463 0.0
C168 C 0.47194 0.96687 0.85006 0.0
C169 C 0.32962 0.9752 0.70329 0.0
C170 C 0.29695 0.87494 0.78578 0.0
C171 C 0.19 0.89062 0.74915 0.0
C172 C 0.14769 0.88046 0.75232 0.0
C173 C 0.12113 0.85543 0.71487 0.0
C174 C 0.07949 0.83724 0.72167 0.0
C175 C 0.06363 0.8439 0.76608 0.0
C176 C 0.09037 0.8708 0.80244 0.0
C177 C 0.13217 0.88877 0.79577 0.0
C178 C 0.28574 0.96249 0.87276 0.0
C179 C 0.31339 1.02613 0.78606 0.0
O180 O 0.3865 0.96506 0.85222 0.0
O181 O 0.41317 0.99873 0.78357 0.0
O182 O 0.31046 0.94451 0.73179 0.0
O183 O 0.36238 1.00212 0.72493 0.0
O184 O 0.33351 0.90669 0.78102 0.0
O185 O 0.26517 0.87903 0.79028 0.0
O186 O 0.2167 0.9243 0.72717 0.0
O187 O 0.20418 0.88191 0.78915 0.0
O188 O 0.29991 0.9459 0.84468 0.0
O189 O 0.25334 0.95833 0.85157 0.0
O190 O 0.2817 0.99526 0.76462 0.0
O191 O 0.3424 1.02207 0.8083 0.0
H192 H 0.40584 0.92728 0.75198 0.0
H193 H 0.43888 0.88735 0.74326 0.0
H194 H 0.51506 0.94933 0.87093 0.0
H195 H 0.48106 0.98874 0.88026 0.0
H196 H 0.13256 0.8483 0.68136 0.0
H197 H 0.05966 0.8173 0.69258 0.0
H198 H 0.07897 0.8765 0.83704 0.0
H199 H 0.15223 0.90757 0.82547 0.0
Tb200 Tb 0.68768 0.73568 0.78511 0.0
Tb201 Tb 0.74914 0.82649 0.77557 0.0
C202 C 0.63665 0.66447 0.81082 0.0
C203 C 0.59196 0.64096 0.80582 0.0
C204 C 0.569 0.60436 0.83185 0.0
C205 C 0.52658 0.58327 0.8291 0.0
C206 C 0.50611 0.59854 0.80059 0.0
C207 C 0.52945 0.63494 0.77387 0.0
C208 C 0.57172 0.6558 0.77642 0.0
C209 C 0.70838 0.76444 0.69031 0.0
C210 C 0.65544 0.79726 0.78101 0.0
C211 C 0.79213 0.89732 0.74306 0.0
C212 C 0.80175 0.93909 0.75385 0.0
C213 C 0.80213 0.96361 0.71411 0.0
C214 C 0.81763 1.00496 0.72148 0.0
C215 C 0.83347 1.02266 0.76868 0.0
C216 C 0.83109 0.99767 0.80912 0.0
C217 C 0.81527 0.95633 0.80188 0.0
C218 C 0.7393 0.799 0.86903 0.0
C219 C 0.78128 0.76673 0.78459 0.0
O220 O 0.65081 0.69524 0.84165 0.0
O221 O 0.65737 0.67371 0.76862 0.0
O222 O 0.72966 0.77488 0.72938 0.0
O223 O 0.67325 0.73514 0.70395 0.0
O224 O 0.64663 0.75947 0.78699 0.0
O225 O 0.69281 0.82736 0.77515 0.0
O226 O 0.80414 0.8804 0.77652 0.0
O227 O 0.75641 0.87207 0.72453 0.0
O228 O 0.71274 0.78647 0.83452 0.0
O229 O 0.76969 0.83256 0.85332 0.0
O230 O 0.78584 0.79942 0.76153 0.0
O231 O 0.74546 0.73793 0.80126 0.0
H232 H 0.58386 0.59234 0.85493 0.0
H233 H 0.50979 0.55562 0.85053 0.0
H234 H 0.51503 0.64745 0.75085 0.0
H235 H 0.58863 0.68382 0.75574 0.0
H236 H 0.7921 0.95111 0.67669 0.0
H237 H 0.81929 1.02342 0.68949 0.0
H238 H 0.84261 1.01035 0.84608 0.0
H239 H 0.81522 0.93826 0.83343 0.0
H240 H 0.25106 0.98091 0.95094 0.0
H241 H 0.36723 1.00849 0.89112 0.0
H242 H 0.4014 0.05795 0.95844 0.0
H243 H 0.28069 0.08278 0.99756 0.0
H244 H 0.25109 0.06406 0.05455 0.0
H245 H 0.23518 0.03422 0.99769 0.0
H246 H 0.23396 0.97432 0.04499 0.0
H247 H 0.2485 1.00357 0.10205 0.0
H248 H 0.27823 0.98258 0.07899 0.0
H249 H 0.42335 0.10089 0.03522 0.0
H250 H 0.43081 0.12274 0.12415 0.0
H251 H 0.30131 0.06751 0.13742 0.0
C252 C 0.28372 0.99762 0.9519 0.0
C253 C 0.30647 0.99055 0.91549 0.0
C254 C 0.34904 1.01253 0.91866 0.0
C255 C 0.3688 0.04147 0.95642 0.0
C256 C 0.3456 0.048 0.99143 0.0
C257 C 0.30394 1.02609 0.99024 0.0
C258 C 0.28619 0.03518 0.0362 0.0
C259 C 0.26184 0.05526 1.02054 0.0
C260 C 0.26022 0.99664 0.0674 0.0
C261 C 0.32442 0.06464 0.06414 0.0
C262 C 0.35835 0.07258 0.03673 0.0
C263 C 0.39709 0.09566 0.0566 0.0
C264 C 0.40117 0.10859 0.10694 0.0
C265 C 0.36679 0.0982 0.13689 0.0
C266 C 0.32812 0.07771 0.11442 0.0
H267 H 0.67243 0.71763 0.60554 0.0
H268 H 0.78673 0.81342 0.66233 0.0
H269 H 0.82158 0.80645 0.58807 0.0
H270 H 0.70664 0.65589 0.55784 0.0
H271 H 0.67628 0.64078 0.50134 0.0
H272 H 0.65934 0.65529 0.55664 0.0
H273 H 0.65364 0.70959 0.50479 0.0
H274 H 0.66978 0.69463 0.44906 0.0
H275 H 0.69661 0.74644 0.46921 0.0
H276 H 0.84538 0.78302 0.51232 0.0
H277 H 0.85409 0.75204 0.43445 0.0
H278 H 0.72437 0.67514 0.42405 0.0
C279 C 0.70459 0.7379 0.60163 0.0
C280 C 0.72682 0.76585 0.64018 0.0
C281 C 0.769 0.79155 0.63365 0.0
C282 C 0.78916 0.78778 0.59154 0.0
C283 C 0.76673 0.7587 0.55539 0.0
C284 C 0.7252 0.73496 0.55926 0.0
C285 C 0.70828 0.70581 0.51528 0.0
C286 C 0.68635 0.66185 0.53392 0.0
C287 C 0.68043 0.71466 0.48265 0.0
C288 C 0.74677 0.71602 0.4871 0.0
C289 C 0.78026 0.74647 0.51089 0.0
C290 C 0.81927 0.75955 0.49298 0.0
C291 C 0.82405 0.7416 0.44909 0.0
C292 C 0.78998 0.71131 0.42337 0.0
C293 C 0.75098 0.69842 0.4429 0.0
H294 H 0.98367 0.33183 0.10801 0.0
H295 H 0.99352 0.23171 0.16657 0.0
H296 H 1.03301 0.23462 0.09124 0.0
H297 H 0.97933 0.3039 0.96845 0.0
H298 H 1.00794 0.35633 0.9508 0.0
H299 H 0.97433 0.34098 1.00439 0.0
H300 H 1.03381 0.39177 0.05989 0.0
H301 H 0.06799 0.40611 1.00716 0.0
H302 H 0.07857 0.38776 0.0646 0.0
H303 H 0.08331 0.25802 1.01862 0.0
H304 H 0.12722 0.28947 0.94404 0.0
H305 H 0.0817 0.37197 0.92964 0.0
C306 C 0.99202 0.30895 0.10338 0.0
C307 C 0.98465 0.28092 0.14265 0.0
C308 C 0.99763 0.25257 0.13637 0.0
C309 C 1.02074 0.2545 0.094 0.0
C310 C 1.02991 0.28439 0.05768 0.0
C311 C 1.01462 0.31012 0.06094 0.0
C312 C 1.03055 0.34086 1.01824 0.0
C313 C 0.99598 0.33516 0.98339 0.0
C314 C 0.05412 0.38417 0.03874 0.0
C315 C 0.0584 0.32947 0.99162 0.0
C316 C 0.05788 0.29702 1.01514 0.0
C317 C 0.08325 0.28289 0.99935 0.0
C318 C 0.10858 0.30135 0.95737 0.0
C319 C 0.10814 0.3334 0.93126 0.0
C320 C 0.08285 0.34769 0.94902 0.0
H321 H 0.36019 0.11996 0.47238 0.0
H322 H 0.36368 1.02841 0.38049 0.0
H323 H 0.33855 0.98112 0.45165 0.0
H324 H 0.40322 0.09743 0.57821 0.0
H325 H 0.37625 0.10865 0.62517 0.0
H326 H 0.3871 0.13319 0.56446 0.0
H327 H 0.31091 0.10758 0.55223 0.0
H328 H 0.3004 0.08251 0.61271 0.0
H329 H 0.27511 0.05433 0.55681 0.0
H330 H 0.31433 0.94315 0.53286 0.0
H331 H 0.30974 0.92375 0.62323 0.0
H332 H 0.33136 0.04168 0.66648 0.0
C333 C 0.3548 0.08969 0.46714 0.0
C334 C 0.36152 0.07719 0.41971 0.0
C335 C 0.35649 0.0381 0.41536 0.0
C336 C 0.34227 1.01084 0.45575 0.0
C337 C 0.33476 1.02344 0.50153 0.0
C338 C 0.34219 0.06238 0.50812 0.0
C339 C 0.33837 0.07009 0.56353 0.0
C340 C 0.37863 0.10435 0.58404 0.0
C341 C 0.30411 0.07917 0.57171 0.0
C342 C 0.32793 0.02965 0.58658 0.0
C343 C 0.32468 1.00273 0.5499 0.0
C344 C 0.31655 0.96386 0.56205 0.0
C345 C 0.31353 0.95285 0.61332 0.0
C346 C 0.31961 0.981 0.65139 0.0
C347 C 0.32581 1.01939 0.63779 0.0
H348 H 0.68442 0.74519 0.9396 0.0
H349 H 0.80905 0.80164 0.89087 0.0
H350 H 0.82502 0.77158 0.96255 0.0
H351 H 0.70683 0.7665 0.06578 0.0
H352 H 0.66532 0.72054 0.09064 0.0
H353 H 0.66107 0.73881 1.02964 0.0
H354 H 0.64429 0.67072 0.98927 0.0
H355 H 0.6485 0.65222 0.05041 0.0
H356 H 0.67832 0.6517 0.99806 0.0
H357 H 0.83094 0.74482 0.04609 0.0
H358 H 0.82577 0.72545 0.13648 0.0
H359 H 0.69833 0.68683 0.13386 0.0
C360 C 0.71457 0.74979 0.94315 0.0
C361 C 0.74519 0.77491 0.90869 0.0
C362 C 0.78481 0.78176 0.91592 0.0
C363 C 0.79429 0.76478 0.95672 0.0
C364 C 0.76396 0.74112 0.99092 0.0
C365 C 0.72483 0.7335 0.9847 0.0
C366 C 0.6994 0.71148 1.03061 0.0
C367 C 0.68217 0.7358 0.05563 0.0
C368 C 0.66562 0.669 1.01622 0.0
C369 C 0.73075 0.70967 0.06405 0.0
C370 C 0.76762 0.72616 0.04006 0.0
C371 C 0.80199 0.73104 0.06501 0.0
C372 C 0.79885 0.71986 0.11632 0.0
C373 C 0.7617 0.70439 0.14212 0.0
C374 C 0.7271 0.6981 0.11495 0.0
H375 H 0.96103 0.24815 0.47696 0.0
H376 H 1.03929 0.35412 0.38765 0.0
H377 H 0.08925 0.37949 0.4558 0.0
H378 H 0.97894 0.30614 0.59016 0.0
H379 H 0.97562 0.26752 0.63218 0.0
H380 H 0.94875 0.25377 0.57311 0.0
H381 H 0.98421 0.21374 0.54933 0.0
H382 H 1.01178 0.22824 0.60806 0.0
H383 H 1.03854 0.23898 0.54881 0.0
H384 H 0.13117 0.39501 0.53329 0.0
H385 H 0.15386 0.40807 0.62242 0.0
H386 H 0.04564 0.2987 0.66777 0.0
C387 C 0.989 0.27631 0.47163 0.0
C388 C 0.99723 0.29788 0.42546 0.0
C389 C 1.0332 0.33574 0.42121 0.0
C390 C 0.06189 0.35062 0.45994 0.0
C391 C 0.05371 0.32828 0.50422 0.0
C392 C 1.01753 0.29269 0.51122 0.0
C393 C 1.01394 0.27829 0.56566 0.0
C394 C 0.97714 0.27634 0.59182 0.0
C395 C 1.012 0.23737 0.56808 0.0
C396 C 0.05338 0.31156 0.58776 0.0
C397 C 0.07645 0.33929 0.55109 0.0
C398 C 0.11354 0.37336 0.56237 0.0
C399 C 0.12654 0.38035 0.61294 0.0
C400 C 0.10216 0.35383 0.65156 0.0
C401 C 0.06554 0.31865 0.63861 0.0
H402 H 0.50311 0.13422 0.21944 0.0
H403 H 0.45157 0.03702 0.32938 0.0
H404 H 0.51922 0.04496 0.34284 0.0
H405 H 0.57933 0.11188 0.16678 0.0
H406 H 0.6159 0.16463 0.15931 0.0
H407 H 0.56283 0.14752 0.1544 0.0
H408 H 0.57036 0.19815 0.22405 0.0
H409 H 0.62322 0.21492 0.22988 0.0
H410 H 0.59092 0.19633 0.28467 0.0
H411 H 0.59458 0.07011 0.35179 0.0
H412 H 0.66885 0.10553 0.35066 0.0
H413 H 0.67023 0.18478 0.23212 0.0
C414 C 0.50575 0.11384 0.24547 0.0
C415 C 0.47191 0.08479 0.2732 0.0
C416 C 0.47686 0.05905 0.30718 0.0
C417 C 0.51527 0.06359 0.3153 0.0
C418 C 0.54828 0.09367 0.28869 0.0
C419 C 0.54365 0.11786 0.25379 0.0
C420 C 0.58393 0.14928 0.23182 0.0
C421 C 0.58559 0.14293 0.17469 0.0
C422 C 0.59259 0.19219 0.24331 0.0
C423 C 0.61227 0.13975 0.26063 0.0
C424 C 0.5912 0.10757 0.29319 0.0
C425 C 0.6112 0.09477 0.32561 0.0
C426 C 0.65362 0.11509 0.32445 0.0
C427 C 0.676 0.14795 0.29088 0.0
C428 C 0.65457 0.1601 0.25854 0.0
H429 H 0.69226 0.56114 0.25311 0.0
H430 H 0.62954 0.61414 0.32831 0.0
H431 H 0.56955 0.54556 0.33884 0.0
H432 H 0.60815 0.48151 0.18725 0.0
H433 H 0.62593 0.4466 0.19728 0.0
H434 H 0.66145 0.4998 0.19285 0.0
H435 H 0.69119 0.49744 0.28002 0.0
H436 H 0.65565 0.44433 0.28493 0.0
H437 H 0.65824 0.47791 0.33415 0.0
H438 H 0.5165 0.46825 0.34197 0.0
H439 H 0.479 0.3933 0.3408 0.0
H440 H 0.58062 0.39512 0.2666 0.0
C441 C 0.66586 0.55887 0.27119 0.0
C442 C 0.66558 0.59333 0.28936 0.0
C443 C 0.63039 0.58829 0.31361 0.0
C444 C 0.59624 0.54943 0.31978 0.0
C445 C 0.59804 0.51607 0.30185 0.0
C446 C 0.63225 0.52078 0.2782 0.0
C447 C 0.62846 0.48085 0.26466 0.0
C448 C 0.63114 0.47697 0.20709 0.0
C449 C 0.66026 0.4748 0.29262 0.0
C450 C 0.58656 0.45241 0.28416 0.0
C451 C 0.56906 0.47291 0.30522 0.0
C452 C 0.53014 0.45214 0.32559 0.0
C453 C 0.50901 0.40961 0.32467 0.0
C454 C 0.52708 0.38838 0.30414 0.0
C455 C 0.5662 0.41038 0.28335 0.0
H456 H 0.90813 0.36387 0.25886 0.0
H457 H 1.03334 0.43602 0.3045 0.0
H458 H 1.02569 0.49659 0.30669 0.0
H459 H 0.90446 0.43852 0.17903 0.0
H460 H 0.85353 0.42337 0.19753 0.0
H461 H 0.87018 0.38709 0.19749 0.0
H462 H 0.84912 0.37043 0.29148 0.0
H463 H 0.83262 0.40679 0.29198 0.0
H464 H 0.86932 0.41043 0.33745 0.0
H465 H 1.00194 0.54943 0.30603 0.0
H466 H 0.96556 0.58755 0.30315 0.0
H467 H 0.85647 0.47879 0.25822 0.0
C468 C 0.93427 0.39234 0.26904 0.0
C469 C 0.97149 0.39497 0.28147 0.0
C470 C 1.0046 0.43311 0.29457 0.0
C471 C 1.00044 0.46767 0.296 0.0
C472 C 0.96301 0.46367 0.28411 0.0
C473 C 0.93062 0.42679 0.27072 0.0
C474 C 0.89322 0.42961 0.26069 0.0
C475 C 0.87956 0.41903 0.2054 0.0
C476 C 0.85907 0.40273 0.29761 0.0
C477 C 0.9092 0.47383 0.27102 0.0
C478 C 0.94955 0.49325 0.28419 0.0
C479 C 0.9704 0.53434 0.29558 0.0
C480 C 0.94949 0.55584 0.29363 0.0
C481 C 0.90795 0.53631 0.28074 0.0
C482 C 0.88796 0.49472 0.26904 0.0
H483 H 0.15943 0.63662 0.81148 0.0
H484 H 0.26699 0.62692 0.79922 0.0
H485 H 0.30843 0.701 0.789 0.0
H486 H 0.18857 0.71586 0.71982 0.0
H487 H 0.16626 0.74007 0.7546 0.0
H488 H 0.14564 0.68649 0.76022 0.0
H489 H 0.15448 0.69334 0.85756 0.0
H490 H 0.17502 0.74691 0.8522 0.0
H491 H 0.20345 0.72751 0.88365 0.0
H492 H 0.33845 0.77833 0.78223 0.0
H493 H 0.35266 0.84896 0.77857 0.0
H494 H 0.22458 0.80536 0.79496 0.0
C495 C 0.19174 0.64999 0.80705 0.0
C496 C 0.20987 0.62579 0.8064 0.0
C497 C 0.25226 0.64469 0.79948 0.0
C498 C 0.2761 0.68682 0.79385 0.0
C499 C 0.25717 0.70977 0.79489 0.0
C500 C 0.21585 0.6918 0.80116 0.0
C501 C 0.20249 0.72273 0.80093 0.0
C502 C 0.17407 0.71587 0.75623 0.0
C503 C 0.18271 0.72261 0.8516 0.0
C504 C 0.24268 0.76102 0.79404 0.0
C505 C 0.27405 0.75326 0.79055 0.0
C506 C 0.31396 0.78457 0.78476 0.0
C507 C 0.32182 0.82465 0.78267 0.0
C508 C 0.28989 0.83303 0.78634 0.0
C509 C 0.24992 0.80044 0.79187 0.0
H510 H 0.5604 0.94011 0.80785 0.0
H511 H 0.44215 0.83332 0.79424 0.0
H512 H 0.47396 0.79134 0.78586 0.0
H513 H 0.60988 0.90997 0.71665 0.0
H514 H 0.65666 0.93153 0.75122 0.0
H515 H 0.6245 0.95298 0.75686 0.0
H516 H 0.62262 0.94402 0.85419 0.0
H517 H 0.65483 0.92262 0.84881 0.0
H518 H 0.60683 0.89491 0.8805 0.0
H519 H 0.519 0.76077 0.78089 0.0
H520 H 0.57365 0.74453 0.77651 0.0
H521 H 0.66239 0.87169 0.79073 0.0
C522 C 0.54122 0.90785 0.80343 0.0
C523 C 0.49878 0.88995 0.8018 0.0
C524 C 0.47473 0.8477 0.79523 0.0
C525 C 0.49252 0.8236 0.79064 0.0
C526 C 0.53445 0.84221 0.79227 0.0
C527 C 0.5585 0.88341 0.79822 0.0
C528 C 0.60283 0.89603 0.79781 0.0
C529 C 0.62475 0.9243 0.75296 0.0
C530 C 0.62295 0.91554 0.84834 0.0
C531 C 0.59997 0.8555 0.79106 0.0
C532 C 0.56029 0.82478 0.78816 0.0
C533 C 0.55019 0.78464 0.78288 0.0
C534 C 0.58147 0.77569 0.78049 0.0
C535 C 0.6224 0.80678 0.78301 0.0
C536 C 0.6315 0.84718 0.78824 0.0
H537 H 0.2767 0.41252 0.79042 0.0
H538 H 0.23836 0.5012 0.79927 0.0
H539 H 0.30942 0.55553 0.80192 0.0
H540 H 0.36126 0.46309 0.87578 0.0
H541 H 0.39321 0.4498 0.84084 0.0
H542 H 0.33921 0.41752 0.83887 0.0
H543 H 0.34087 0.42228 0.74117 0.0
H544 H 0.39488 0.45453 0.74279 0.0
H545 H 0.36412 0.47111 0.71115 0.0
H546 H 0.38491 0.60079 0.80341 0.0
H547 H 0.45905 0.63355 0.80491 0.0
H548 H 0.44997 0.5164 0.79574 0.0
C549 C 0.28318 0.44335 0.79283 0.0
C550 C 0.25148 0.45231 0.79442 0.0
C551 C 0.26168 0.49323 0.79783 0.0
C552 C 0.30214 0.52446 0.79939 0.0
C553 C 0.3325 0.51459 0.79776 0.0
C554 C 0.32359 0.47505 0.79468 0.0
C555 C 0.36212 0.47281 0.79393 0.0
C556 C 0.36405 0.44942 0.84011 0.0
C557 C 0.3657 0.45407 0.7443 0.0
C558 C 0.39403 0.51726 0.79702 0.0
C559 C 0.37617 0.54076 0.79904 0.0
C560 C 0.39918 0.58264 0.80169 0.0
C561 C 0.44144 0.60104 0.8022 0.0
C562 C 0.46079 0.57782 0.80011 0.0
C563 C 0.4364 0.53519 0.79774 0.0
H564 H 0.31847 0.19629 0.2882 0.0
H565 H 0.22859 0.06902 0.29613 0.0
H566 H 0.17467 0.08666 0.29907 0.0
H567 H 0.26967 0.23126 0.37269 0.0
H568 H 0.2848 0.2768 0.33714 0.0
H569 H 0.31565 0.25371 0.33621 0.0
H570 H 0.31181 0.25059 0.23839 0.0
H571 H 0.28086 0.27356 0.23893 0.0
H572 H 0.26319 0.22584 0.20791 0.0
H573 H 0.13055 0.1195 0.30047 0.0
H574 H 0.10073 0.16356 0.29971 0.0
H575 H 0.2207 0.26874 0.29143 0.0
C576 C 0.2875 0.1719 0.29066 0.0
C577 C 0.27787 0.13115 0.29197 0.0
C578 C 0.23681 0.10044 0.29512 0.0
C579 C 0.20598 0.11021 0.2968 0.0
C580 C 0.21672 0.1508 0.29527 0.0
C581 C 0.25659 0.18107 0.29228 0.0
C582 C 0.26057 0.22234 0.29078 0.0
C583 C 0.28406 0.24749 0.33696 0.0
C584 C 0.28026 0.24436 0.24104 0.0
C585 C 0.21665 0.21078 0.29326 0.0
C586 C 0.19172 0.16943 0.29594 0.0
C587 C 0.14989 0.15189 0.29855 0.0
C588 C 0.13323 0.17722 0.29838 0.0
C589 C 0.1583 0.21973 0.29554 0.0
C590 C 0.20058 0.23644 0.293 0.0
H591 H 0.92807 0.75771 0.25903 0.0
H592 H 0.88704 0.84107 0.29775 0.0
H593 H 0.95813 0.89676 0.30028 0.0
H594 H 1.01238 0.79869 0.34012 0.0
H595 H 0.04364 0.78998 0.29711 0.0
H596 H 0.9897 0.75781 0.29548 0.0
H597 H 0.9894 0.77367 0.20019 0.0
H598 H 0.0434 0.80593 0.20146 0.0
H599 H 1.01194 0.82536 0.17964 0.0
H600 H 1.03497 0.94294 0.30069 0.0
H601 H 0.10928 0.97478 0.3002 0.0
H602 H 0.09793 0.85928 0.26426 0.0
C603 C 0.93375 0.78768 0.26758 0.0
C604 C 0.90182 0.79498 0.27796 0.0
C605 C 0.91093 0.83472 0.28944 0.0
C606 C 0.95123 0.86653 0.29095 0.0
C607 C 0.98195 0.85803 0.28091 0.0
C608 C 0.97351 0.81949 0.26945 0.0
C609 C 1.0116 0.81758 0.26191 0.0
C610 C 1.01449 0.78936 0.30099 0.0
C611 C 1.01423 0.80489 0.20757 0.0
C612 C 1.04308 0.86107 0.27131 0.0
C613 C 1.02555 0.8841 0.2819 0.0
C614 C 0.04891 0.9251 0.29246 0.0
C615 C 0.09114 0.94286 0.29243 0.0
C616 C 0.10968 0.91962 0.28221 0.0
C617 C 0.085 0.87819 0.27136 0.0
H618 H 0.88837 0.13824 0.274 0.0
H619 H 1.0128 0.17919 0.31393 0.0
H620 H 0.99523 0.10779 0.32529 0.0
H621 H 0.84355 0.05891 0.36392 0.0
H622 H 0.80262 1.02633 0.32272 0.0
H623 H 0.82604 0.08016 0.31626 0.0
H624 H 0.84095 0.07505 0.22185 0.0
H625 H 0.81757 1.02118 0.22792 0.0
H626 H 0.86862 0.05028 0.20489 0.0
H627 H 0.9617 0.02961 0.332 0.0
H628 H 0.91723 0.95552 0.3348 0.0
H629 H 0.81511 0.96918 0.2941 0.0
C630 C 0.9123 0.13255 0.28472 0.0
C631 C 0.95219 0.16455 0.29266 0.0
C632 C 0.98212 0.15528 0.30743 0.0
C633 C 0.97232 0.11478 0.31394 0.0
C634 C 0.93244 0.08402 0.30592 0.0
C635 C 0.90302 0.09276 0.29177 0.0
C636 C 0.86216 0.05506 0.28663 0.0
C637 C 0.83182 0.05513 0.32465 0.0
C638 C 0.84642 0.05011 0.23208 0.0
C639 C 0.87283 1.02324 0.29985 0.0
C640 C 0.91344 0.04025 0.31076 0.0
C641 C 0.92988 1.01623 0.32374 0.0
C642 C 0.90422 0.97406 0.32557 0.0
C643 C 0.86239 0.95607 0.31469 0.0
C644 C 0.84688 0.98146 0.30184 0.0
H645 H 0.21295 0.15758 0.72956 0.0
H646 H 0.28699 0.24073 0.84673 0.0
H647 H 0.32435 0.20374 0.8554 0.0
H648 H 0.20174 0.07081 0.78919 0.0
H649 H 0.20188 0.04654 0.73103 0.0
H650 H 0.18444 0.08211 0.73138 0.0
H651 H 0.23735 0.12577 0.66205 0.0
H652 H 0.25181 0.08796 0.66075 0.0
H653 H 0.28946 0.14003 0.6713 0.0
H654 H 0.34897 0.152 0.85582 0.0
H655 H 0.35777 0.09241 0.84749 0.0
H656 H 0.26763 0.0463 0.72867 0.0
C657 C 0.23715 0.16824 0.75695 0.0
C658 C 0.24691 0.20189 0.78765 0.0
C659 C 0.27917 0.21513 0.82255 0.0
C660 C 0.30046 0.19424 0.82778 0.0
C661 C 0.28934 0.16052 0.79746 0.0
C662 C 0.25848 0.14792 0.76257 0.0
C663 C 0.25023 0.10966 0.73647 0.0
C664 C 0.20703 0.07527 0.74772 0.0
C665 C 0.25776 0.11634 0.67925 0.0
C666 C 0.28126 0.10243 0.7619 0.0
C667 C 0.30363 0.13181 0.79714 0.0
C668 C 0.33204 0.12924 0.82771 0.0
C669 C 0.33701 0.09543 0.8226 0.0
C670 C 0.31359 0.06478 0.78729 0.0
C671 C 0.28621 0.06916 0.75596 0.0
H672 H 1.01761 0.8751 0.79958 0.0
H673 H 1.00972 0.76369 0.7508 0.0
H674 H 0.93549 0.72829 0.76062 0.0
H675 H 0.93345 0.82999 0.89179 0.0
H676 H 0.91706 0.86506 0.87526 0.0
H677 H 0.96969 0.88009 0.8706 0.0
H678 H 0.97026 0.89954 0.77639 0.0
H679 H 0.9179 0.88488 0.78097 0.0
H680 H 0.93422 0.86266 0.73336 0.0
H681 H 0.86065 0.70624 0.77029 0.0
H682 H 0.79375 0.7022 0.77196 0.0
H683 H 0.85276 0.82854 0.81193 0.0
C684 C 1.00034 0.84307 0.7921 0.0
C685 C 1.01936 0.82212 0.77465 0.0
C686 C 0.99564 0.78038 0.76398 0.0
C687 C 0.95352 0.75993 0.76989 0.0
C688 C 0.93559 0.78162 0.78662 0.0
C689 C 0.95839 0.82235 0.79744 0.0
C690 C 0.93196 0.83981 0.81022 0.0
C691 C 0.93844 0.85461 0.86524 0.0
C692 C 0.939 0.87369 0.773 0.0
C693 C 0.89079 0.80299 0.80333 0.0
C694 C 0.89314 0.76934 0.79087 0.0
C695 C 0.85849 0.73234 0.78058 0.0
C696 C 0.82067 0.73016 0.78181 0.0
C697 C 0.81838 0.76502 0.79218 0.0
C698 C 0.85377 0.80138 0.8041 0.0
H699 H 1.02951 0.23258 0.82417 0.0
H700 H 0.97184 0.29283 0.75482 0.0
H701 H 0.90776 0.22701 0.74851 0.0
H702 H 0.98713 0.14868 0.7482 0.0
H703 H 0.98195 0.11355 0.79707 0.0
H704 H 1.02065 0.16561 0.80183 0.0
H705 H 0.9933 0.17047 0.88957 0.0
H706 H 0.95465 0.11819 0.8854 0.0
H707 H 0.94097 0.15611 0.89622 0.0
H708 H 0.8529 0.15211 0.74016 0.0
H709 H 0.81196 0.07753 0.73565 0.0
H710 H 0.90702 0.06868 0.81253 0.0
C711 C 1.00299 0.23202 0.80896 0.0
C712 C 1.00513 0.26751 0.79052 0.0
C713 C 0.97031 0.26588 0.77004 0.0
C714 C 0.93401 0.22864 0.76609 0.0
C715 C 0.93323 0.19378 0.78349 0.0
C716 C 0.96683 0.19549 0.80528 0.0
C717 C 0.95961 0.15403 0.81838 0.0
C718 C 0.98907 0.14496 0.78964 0.0
C719 C 0.96228 0.14944 0.87581 0.0
C720 C 0.91691 0.12827 0.79957 0.0
C721 C 0.90198 0.15151 0.77957 0.0
C722 C 0.86411 0.13379 0.75659 0.0
C723 C 0.84114 0.09144 0.75397 0.0
C724 C 0.85603 0.06728 0.77444 0.0
C725 C 0.89428 0.08622 0.79783 0.0
loop_
_geom_bond_atom_site_label_1
_geom_bond_atom_site_label_2
_geom_bond_distance
_geom_bond_site_symmetry_2
_ccdc_geom_bond_type
Tb0 C2 2.809 1_545 S
Tb0 O20 2.484 . S
Tb0 O21 2.440 1_545 S
Tb0 O22 2.658 . S
Tb0 O23 2.409 . S
Tb0 O24 2.378 . S
Tb0 O28 2.325 . S
Tb0 O31 2.341 . S
Tb1 C11 2.809 . S
Tb1 O22 2.325 . S
Tb1 O25 2.341 . S
Tb1 O26 2.484 . S
Tb1 O27 2.440 . S
Tb1 O28 2.658 . S
Tb1 O29 2.409 . S
Tb1 O30 2.378 . S
C2 Tb0 2.809 1_565 S
C2 C3 1.514 . S
C2 O20 1.248 1_565 S
C2 O21 1.266 . S
C3 C2 1.514 . S
C3 C4 1.359 . S
C3 C8 1.348 . S
C4 C3 1.359 . S
C4 C5 1.380 . S
C4 H32 0.929 . S
C5 C4 1.380 . S
C5 C6 1.347 . S
C5 H33 0.931 . S
C6 C5 1.347 . S
C6 C7 1.369 . S
C7 C6 1.369 . S
C7 C8 1.408 . S
C7 H34 0.930 . S
C8 C3 1.348 . S
C8 C7 1.408 . S
C8 H35 0.930 . S
C9 O22 1.281 . S
C9 O23 1.254 . S
C10 O24 1.236 . S
C10 O25 1.266 . S
C11 Tb1 2.809 . S
C11 C12 1.514 . S
C11 O26 1.248 . S
C11 O27 1.266 . S
C12 C11 1.514 . S
C12 C13 1.359 . S
C12 C17 1.348 . S
C13 C12 1.359 . S
C13 C14 1.380 . S
C13 H36 0.929 . S
C14 C13 1.380 . S
C14 C15 1.347 . S
C14 H37 0.931 . S
C15 C14 1.347 . S
C15 C16 1.369 . S
C16 C15 1.369 . S
C16 C17 1.408 . S
C16 H38 0.930 . S
C17 C12 1.348 . S
C17 C16 1.408 . S
C17 H39 0.930 . S
C18 O28 1.281 . S
C18 O29 1.254 . S
C19 O30 1.236 . S
C19 O31 1.266 . S
O20 Tb0 2.484 . S
O20 C2 1.248 1_545 S
O21 Tb0 2.440 1_565 S
O21 C2 1.266 . S
O22 Tb0 2.658 . S
O22 Tb1 2.325 . S
O22 C9 1.281 . S
O23 Tb0 2.409 . S
O23 C9 1.254 . S
O24 Tb0 2.378 . S
O24 C10 1.236 . S
O25 Tb1 2.341 . S
O25 C10 1.266 . S
O26 Tb1 2.484 . S
O26 C11 1.248 . S
O27 Tb1 2.440 . S
O27 C11 1.266 . S
O28 Tb0 2.325 . S
O28 Tb1 2.658 . S
O28 C18 1.281 . S
O29 Tb1 2.409 . S
O29 C18 1.254 . S
O30 Tb1 2.378 . S
O30 C19 1.236 . S
O31 Tb0 2.341 . S
O31 C19 1.266 . S
H32 C4 0.929 . S
H33 C5 0.931 . S
H34 C7 0.930 . S
H35 C8 0.930 . S
H36 C13 0.929 . S
H37 C14 0.931 . S
H38 C16 0.930 . S
H39 C17 0.930 . S
Tb40 C42 2.809 . S
Tb40 O60 2.484 . S
Tb40 O61 2.440 . S
Tb40 O62 2.658 . S
Tb40 O63 2.409 . S
Tb40 O64 2.378 . S
Tb40 O68 2.325 . S
Tb40 O71 2.341 . S
Tb41 C51 2.809 . S
Tb41 O62 2.325 . S
Tb41 O65 2.341 . S
Tb41 O66 2.484 . S
Tb41 O67 2.440 . S
Tb41 O68 2.658 . S
Tb41 O69 2.409 . S
Tb41 O70 2.378 . S
C42 Tb40 2.809 . S
C42 C43 1.514 . S
C42 O60 1.248 . S
C42 O61 1.266 . S
C43 C42 1.514 . S
C43 C44 1.359 . S
C43 C48 1.348 . S
C44 C43 1.359 . S
C44 C45 1.380 . S
C44 H72 0.929 . S
C45 C44 1.380 . S
C45 C46 1.347 . S
C45 H73 0.931 . S
C46 C45 1.347 . S
C46 C47 1.369 . S
C47 C46 1.369 . S
C47 C48 1.408 . S
C47 H74 0.930 . S
C48 C43 1.348 . S
C48 C47 1.408 . S
C48 H75 0.930 . S
C49 O62 1.281 . S
C49 O63 1.254 . S
C50 O64 1.236 . S
C50 O65 1.266 . S
C51 Tb41 2.809 . S
C51 C52 1.514 . S
C51 O66 1.248 . S
C51 O67 1.266 . S
C52 C51 1.514 . S
C52 C53 1.359 . S
C52 C57 1.348 . S
C53 C52 1.359 . S
C53 C54 1.380 . S
C53 H76 0.929 . S
C54 C53 1.380 . S
C54 C55 1.347 . S
C54 H77 0.931 . S
C55 C54 1.347 . S
C55 C56 1.369 . S
C56 C55 1.369 . S
C56 C57 1.408 . S
C56 H78 0.930 . S
C57 C52 1.348 . S
C57 C56 1.408 . S
C57 H79 0.930 . S
C58 O68 1.281 . S
C58 O69 1.254 . S
C59 O70 1.236 . S
C59 O71 1.266 . S
O60 Tb40 2.484 . S
O60 C42 1.248 . S
O61 Tb40 2.440 . S
O61 C42 1.266 . S
O62 Tb40 2.658 . S
O62 Tb41 2.325 . S
O62 C49 1.281 . S
O63 Tb40 2.409 . S
O63 C49 1.254 . S
O64 Tb40 2.378 . S
O64 C50 1.236 . S
O65 Tb41 2.341 . S
O65 C50 1.266 . S
O66 Tb41 2.484 . S
O66 C51 1.248 . S
O67 Tb41 2.440 . S
O67 C51 1.266 . S
O68 Tb40 2.325 . S
O68 Tb41 2.658 . S
O68 C58 1.281 . S
O69 Tb41 2.409 . S
O69 C58 1.254 . S
O70 Tb41 2.378 . S
O70 C59 1.236 . S
O71 Tb40 2.341 . S
O71 C59 1.266 . S
H72 C44 0.929 . S
H73 C45 0.931 . S
H74 C47 0.930 . S
H75 C48 0.930 . S
H76 C53 0.929 . S
H77 C54 0.931 . S
H78 C56 0.930 . S
H79 C57 0.930 . S
Tb80 C82 2.809 1_655 S
Tb80 O100 2.484 . S
Tb80 O101 2.440 1_655 S
Tb80 O102 2.658 . S
Tb80 O103 2.409 . S
Tb80 O104 2.378 . S
Tb80 O108 2.325 . S
Tb80 O111 2.341 . S
Tb81 C91 2.809 . S
Tb81 O102 2.325 . S
Tb81 O105 2.341 . S
Tb81 O106 2.484 . S
Tb81 O107 2.440 . S
Tb81 O108 2.658 . S
Tb81 O109 2.409 . S
Tb81 O110 2.378 . S
C82 Tb80 2.809 1_455 S
C82 C83 1.514 . S
C82 O100 1.248 1_455 S
C82 O101 1.266 . S
C83 C82 1.514 . S
C83 C84 1.359 . S
C83 C88 1.348 . S
C84 C83 1.359 . S
C84 C85 1.380 . S
C84 H112 0.929 . S
C85 C84 1.380 . S
C85 C86 1.347 . S
C85 H113 0.931 . S
C86 C85 1.347 . S
C86 C87 1.369 . S
C87 C86 1.369 . S
C87 C88 1.408 . S
C87 H114 0.930 . S
C88 C83 1.348 . S
C88 C87 1.408 . S
C88 H115 0.930 . S
C89 O102 1.281 . S
C89 O103 1.254 . S
C90 O104 1.236 . S
C90 O105 1.266 . S
C91 Tb81 2.809 . S
C91 C92 1.514 . S
C91 O106 1.248 . S
C91 O107 1.266 . S
C92 C91 1.514 . S
C92 C93 1.359 . S
C92 C97 1.348 . S
C93 C92 1.359 . S
C93 C94 1.380 . S
C93 H116 0.929 . S
C94 C93 1.380 . S
C94 C95 1.347 . S
C94 H117 0.931 . S
C95 C94 1.347 . S
C95 C96 1.369 . S
C96 C95 1.369 . S
C96 C97 1.408 . S
C96 H118 0.930 . S
C97 C92 1.348 . S
C97 C96 1.408 . S
C97 H119 0.930 . S
C98 O108 1.281 . S
C98 O109 1.254 . S
C99 O110 1.236 . S
C99 O111 1.266 . S
O100 Tb80 2.484 . S
O100 C82 1.248 1_655 S
O101 Tb80 2.440 1_455 S
O101 C82 1.266 . S
O102 Tb80 2.658 . S
O102 Tb81 2.325 . S
O102 C89 1.281 . S
O103 Tb80 2.409 . S
O103 C89 1.254 . S
O104 Tb80 2.378 . S
O104 C90 1.236 . S
O105 Tb81 2.341 . S
O105 C90 1.266 . S
O106 Tb81 2.484 . S
O106 C91 1.248 . S
O107 Tb81 2.440 . S
O107 C91 1.266 . S
O108 Tb80 2.325 . S
O108 Tb81 2.658 . S
O108 C98 1.281 . S
O109 Tb81 2.409 . S
O109 C98 1.254 . S
O110 Tb81 2.378 . S
O110 C99 1.236 . S
O111 Tb80 2.341 . S
O111 C99 1.266 . S
H112 C84 0.929 . S
H113 C85 0.931 . S
H114 C87 0.930 . S
H115 C88 0.930 . S
H116 C93 0.929 . S
H117 C94 0.931 . S
H118 C96 0.930 . S
H119 C97 0.930 . S
Tb120 C122 2.809 . S
Tb120 O140 2.484 . S
Tb120 O141 2.440 . S
Tb120 O142 2.658 . S
Tb120 O143 2.409 . S
Tb120 O144 2.378 . S
Tb120 O148 2.325 . S
Tb120 O151 2.341 . S
Tb121 C131 2.809 . S
Tb121 O142 2.325 . S
Tb121 O145 2.341 . S
Tb121 O146 2.484 . S
Tb121 O147 2.440 . S
Tb121 O148 2.658 . S
Tb121 O149 2.409 . S
Tb121 O150 2.378 . S
C122 Tb120 2.809 . S
C122 C123 1.514 . S
C122 O140 1.248 . S
C122 O141 1.266 . S
C123 C122 1.514 . S
C123 C124 1.359 . S
C123 C128 1.348 . S
C124 C123 1.359 . S
C124 C125 1.380 . S
C124 H152 0.929 . S
C125 C124 1.380 . S
C125 C126 1.347 . S
C125 H153 0.931 . S
C126 C125 1.347 . S
C126 C127 1.369 . S
C127 C126 1.369 . S
C127 C128 1.408 . S
C127 H154 0.930 . S
C128 C123 1.348 . S
C128 C127 1.408 . S
C128 H155 0.930 . S
C129 O142 1.281 . S
C129 O143 1.254 . S
C130 O144 1.236 . S
C130 O145 1.266 . S
C131 Tb121 2.809 . S
C131 C132 1.514 . S
C131 O146 1.248 . S
C131 O147 1.266 . S
C132 C131 1.514 . S
C132 C133 1.359 . S
C132 C137 1.348 . S
C133 C132 1.359 . S
C133 C134 1.380 . S
C133 H156 0.929 . S
C134 C133 1.380 . S
C134 C135 1.347 . S
C134 H157 0.931 . S
C135 C134 1.347 . S
C135 C136 1.369 . S
C136 C135 1.369 . S
C136 C137 1.408 . S
C136 H158 0.930 . S
C137 C132 1.348 . S
C137 C136 1.408 . S
C137 H159 0.930 . S
C138 O148 1.281 . S
C138 O149 1.254 . S
C139 O150 1.236 . S
C139 O151 1.266 . S
O140 Tb120 2.484 . S
O140 C122 1.248 . S
O141 Tb120 2.440 . S
O141 C122 1.266 . S
O142 Tb120 2.658 . S
O142 Tb121 2.325 . S
O142 C129 1.281 . S
O143 Tb120 2.409 . S
O143 C129 1.254 . S
O144 Tb120 2.378 . S
O144 C130 1.236 . S
O145 Tb121 2.341 . S
O145 C130 1.266 . S
O146 Tb121 2.484 . S
O146 C131 1.248 . S
O147 Tb121 2.440 . S
O147 C131 1.266 . S
O148 Tb120 2.325 . S
O148 Tb121 2.658 . S
O148 C138 1.281 . S
O149 Tb121 2.409 . S
O149 C138 1.254 . S
O150 Tb121 2.378 . S
O150 C139 1.236 . S
O151 Tb120 2.341 . S
O151 C139 1.266 . S
H152 C124 0.929 . S
H153 C125 0.931 . S
H154 C127 0.930 . S
H155 C128 0.930 . S
H156 C133 0.929 . S
H157 C134 0.931 . S
H158 C136 0.930 . S
H159 C137 0.930 . S
Tb160 C162 2.809 . S
Tb160 O180 2.484 . S
Tb160 O181 2.440 . S
Tb160 O182 2.658 . S
Tb160 O183 2.409 . S
Tb160 O184 2.378 . S
Tb160 O188 2.325 . S
Tb160 O191 2.341 . S
Tb161 C171 2.809 . S
Tb161 O182 2.325 . S
Tb161 O185 2.341 . S
Tb161 O186 2.484 . S
Tb161 O187 2.440 . S
Tb161 O188 2.658 . S
Tb161 O189 2.409 . S
Tb161 O190 2.378 . S
C162 Tb160 2.809 . S
C162 C163 1.514 . S
C162 O180 1.248 . S
C162 O181 1.266 . S
C163 C162 1.514 . S
C163 C164 1.359 . S
C163 C168 1.348 . S
C164 C163 1.359 . S
C164 C165 1.380 . S
C164 H192 0.929 . S
C165 C164 1.380 . S
C165 C166 1.347 . S
C165 H193 0.931 . S
C166 C165 1.347 . S
C166 C167 1.369 . S
C167 C166 1.369 . S
C167 C168 1.408 . S
C167 H194 0.930 . S
C168 C163 1.348 . S
C168 C167 1.408 . S
C168 H195 0.930 . S
C169 O182 1.281 . S
C169 O183 1.254 . S
C170 O184 1.236 . S
C170 O185 1.266 . S
C171 Tb161 2.809 . S
C171 C172 1.514 . S
C171 O186 1.248 . S
C171 O187 1.266 . S
C172 C171 1.514 . S
C172 C173 1.359 . S
C172 C177 1.348 . S
C173 C172 1.359 . S
C173 C174 1.380 . S
C173 H196 0.929 . S
C174 C173 1.380 . S
C174 C175 1.347 . S
C174 H197 0.931 . S
C175 C174 1.347 . S
C175 C176 1.369 . S
C176 C175 1.369 . S
C176 C177 1.408 . S
C176 H198 0.930 . S
C177 C172 1.348 . S
C177 C176 1.408 . S
C177 H199 0.930 . S
C178 O188 1.281 . S
C178 O189 1.254 . S
C179 O190 1.236 . S
C179 O191 1.266 . S
O180 Tb160 2.484 . S
O180 C162 1.248 . S
O181 Tb160 2.440 . S
O181 C162 1.266 . S
O182 Tb160 2.658 . S
O182 Tb161 2.325 . S
O182 C169 1.281 . S
O183 Tb160 2.409 . S
O183 C169 1.254 . S
O184 Tb160 2.378 . S
O184 C170 1.236 . S
O185 Tb161 2.341 . S
O185 C170 1.266 . S
O186 Tb161 2.484 . S
O186 C171 1.248 . S
O187 Tb161 2.440 . S
O187 C171 1.266 . S
O188 Tb160 2.325 . S
O188 Tb161 2.658 . S
O188 C178 1.281 . S
O189 Tb161 2.409 . S
O189 C178 1.254 . S
O190 Tb161 2.378 . S
O190 C179 1.236 . S
O191 Tb160 2.341 . S
O191 C179 1.266 . S
H192 C164 0.929 . S
H193 C165 0.931 . S
H194 C167 0.930 . S
H195 C168 0.930 . S
H196 C173 0.929 . S
H197 C174 0.931 . S
H198 C176 0.930 . S
H199 C177 0.930 . S
Tb200 C202 2.809 . S
Tb200 O220 2.484 . S
Tb200 O221 2.440 . S
Tb200 O222 2.658 . S
Tb200 O223 2.409 . S
Tb200 O224 2.378 . S
Tb200 O228 2.325 . S
Tb200 O231 2.341 . S
Tb201 C211 2.809 . S
Tb201 O222 2.325 . S
Tb201 O225 2.341 . S
Tb201 O226 2.484 . S
Tb201 O227 2.440 . S
Tb201 O228 2.658 . S
Tb201 O229 2.409 . S
Tb201 O230 2.378 . S
C202 Tb200 2.809 . S
C202 C203 1.514 . S
C202 O220 1.248 . S
C202 O221 1.266 . S
C203 C202 1.514 . S
C203 C204 1.359 . S
C203 C208 1.348 . S
C204 C203 1.359 . S
C204 C205 1.380 . S
C204 H232 0.929 . S
C205 C204 1.380 . S
C205 C206 1.347 . S
C205 H233 0.931 . S
C206 C205 1.347 . S
C206 C207 1.369 . S
C207 C206 1.369 . S
C207 C208 1.408 . S
C207 H234 0.930 . S
C208 C203 1.348 . S
C208 C207 1.408 . S
C208 H235 0.930 . S
C209 O222 1.281 . S
C209 O223 1.254 . S
C210 O224 1.236 . S
C210 O225 1.266 . S
C211 Tb201 2.809 . S
C211 C212 1.514 . S
C211 O226 1.248 . S
C211 O227 1.266 . S
C212 C211 1.514 . S
C212 C213 1.359 . S
C212 C217 1.348 . S
C213 C212 1.359 . S
C213 C214 1.380 . S
C213 H236 0.929 . S
C214 C213 1.380 . S
C214 C215 1.347 . S
C214 H237 0.931 . S
C215 C214 1.347 . S
C215 C216 1.369 . S
C216 C215 1.369 . S
C216 C217 1.408 . S
C216 H238 0.930 . S
C217 C212 1.348 . S
C217 C216 1.408 . S
C217 H239 0.930 . S
C218 O228 1.281 . S
C218 O229 1.254 . S
C219 O230 1.236 . S
C219 O231 1.266 . S
O220 Tb200 2.484 . S
O220 C202 1.248 . S
O221 Tb200 2.440 . S
O221 C202 1.266 . S
O222 Tb200 2.658 . S
O222 Tb201 2.325 . S
O222 C209 1.281 . S
O223 Tb200 2.409 . S
O223 C209 1.254 . S
O224 Tb200 2.378 . S
O224 C210 1.236 . S
O225 Tb201 2.341 . S
O225 C210 1.266 . S
O226 Tb201 2.484 . S
O226 C211 1.248 . S
O227 Tb201 2.440 . S
O227 C211 1.266 . S
O228 Tb200 2.325 . S
O228 Tb201 2.658 . S
O228 C218 1.281 . S
O229 Tb201 2.409 . S
O229 C218 1.254 . S
O230 Tb201 2.378 . S
O230 C219 1.236 . S
O231 Tb200 2.341 . S
O231 C219 1.266 . S
H232 C204 0.929 . S
H233 C205 0.931 . S
H234 C207 0.930 . S
H235 C208 0.930 . S
H236 C213 0.929 . S
H237 C214 0.931 . S
H238 C216 0.930 . S
H239 C217 0.930 . S
H240 C252 0.930 . S
H241 C254 0.930 . S
H242 C255 0.930 1_545 S
H243 C259 0.959 . S
H244 C259 0.959 . S
H245 C259 0.961 . S
H246 C260 0.960 . S
H247 C260 0.961 . S
H248 C260 0.959 . S
H249 C263 0.929 1_556 S
H250 C264 0.931 . S
H251 C266 0.930 . S
C252 H240 0.930 . S
C252 C253 1.399 . S
C252 C257 1.399 . S
C253 C252 1.399 . S
C253 C254 1.376 . S
C254 H241 0.930 . S
C254 C253 1.376 . S
C254 C255 1.388 . S
C255 H242 0.930 1_565 S
C255 C254 1.388 . S
C255 C256 1.390 . S
C256 C255 1.390 . S
C256 C257 1.394 . S
C256 C262 1.465 1_566 S
C257 C252 1.399 . S
C257 C256 1.394 . S
C257 C258 1.516 1_556 S
C258 C257 1.516 1_554 S
C258 C259 1.502 . S
C258 C260 1.561 . S
C258 C261 1.526 1_565 S
C259 H243 0.959 . S
C259 H244 0.959 . S
C259 H245 0.961 . S
C259 C258 1.502 . S
C260 H246 0.960 . S
C260 H247 0.961 . S
C260 H248 0.959 . S
C260 C258 1.561 . S
C261 C258 1.526 1_545 S
C261 C262 1.396 . S
C261 C266 1.390 . S
C262 C256 1.465 1_544 S
C262 C261 1.396 . S
C262 C263 1.399 . S
C263 H249 0.929 1_554 S
C263 C262 1.399 . S
C263 C264 1.385 . S
C264 H250 0.931 . S
C264 C263 1.385 . S
C264 C265 1.389 . S
C265 C264 1.389 . S
C265 C266 1.387 . S
C266 H251 0.930 . S
C266 C261 1.390 . S
C266 C265 1.387 . S
H267 C279 0.930 . S
H268 C281 0.930 . S
H269 C282 0.930 . S
H270 C286 0.959 . S
H271 C286 0.959 . S
H272 C286 0.961 . S
H273 C287 0.960 . S
H274 C287 0.961 . S
H275 C287 0.959 . S
H276 C290 0.929 . S
H277 C291 0.931 . S
H278 C293 0.930 . S
C279 H267 0.930 . S
C279 C280 1.399 . S
C279 C284 1.399 . S
C280 C279 1.399 . S
C280 C281 1.376 . S
C281 H268 0.930 . S
C281 C280 1.376 . S
C281 C282 1.388 . S
C282 H269 0.930 . S
C282 C281 1.388 . S
C282 C283 1.390 . S
C283 C282 1.390 . S
C283 C284 1.394 . S
C283 C289 1.465 . S
C284 C279 1.399 . S
C284 C283 1.394 . S
C284 C285 1.516 . S
C285 C284 1.516 . S
C285 C286 1.502 . S
C285 C287 1.561 . S
C285 C288 1.526 . S
C286 H270 0.959 . S
C286 H271 0.959 . S
C286 H272 0.961 . S
C286 C285 1.502 . S
C287 H273 0.960 . S
C287 H274 0.961 . S
C287 H275 0.959 . S
C287 C285 1.561 . S
C288 C285 1.526 . S
C288 C289 1.396 . S
C288 C293 1.390 . S
C289 C283 1.465 . S
C289 C288 1.396 . S
C289 C290 1.399 . S
C290 H276 0.929 . S
C290 C289 1.399 . S
C290 C291 1.385 . S
C291 H277 0.931 . S
C291 C290 1.385 . S
C291 C292 1.389 . S
C292 C291 1.389 . S
C292 C293 1.387 . S
C293 H278 0.930 . S
C293 C288 1.390 . S
C293 C292 1.387 . S
H294 C306 0.930 . S
H295 C308 0.930 . S
H296 C309 0.930 . S
H297 C313 0.959 . S
H298 C313 0.959 1_455 S
H299 C313 0.961 1_554 S
H300 C314 0.960 . S
H301 C314 0.961 . S
H302 C314 0.959 . S
H303 C317 0.929 . S
H304 C318 0.931 . S
H305 C320 0.930 . S
C306 H294 0.930 . S
C306 C307 1.399 . S
C306 C311 1.399 . S
C307 C306 1.399 . S
C307 C308 1.376 . S
C308 H295 0.930 . S
C308 C307 1.376 . S
C308 C309 1.388 . S
C309 H296 0.930 . S
C309 C308 1.388 . S
C309 C310 1.390 . S
C310 C309 1.390 . S
C310 C311 1.394 . S
C310 C316 1.465 1_654 S
C311 C306 1.399 . S
C311 C310 1.394 . S
C311 C312 1.516 1_655 S
C312 C311 1.516 1_455 S
C312 C313 1.502 1_454 S
C312 C314 1.561 . S
C312 C315 1.526 1_554 S
C313 H297 0.959 . S
C313 H298 0.959 1_655 S
C313 H299 0.961 1_556 S
C313 C312 1.502 1_656 S
C314 H300 0.960 . S
C314 H301 0.961 . S
C314 H302 0.959 . S
C314 C312 1.561 . S
C315 C312 1.526 1_556 S
C315 C316 1.396 . S
C315 C320 1.390 . S
C316 C310 1.465 1_456 S
C316 C315 1.396 . S
C316 C317 1.399 . S
C317 H303 0.929 . S
C317 C316 1.399 . S
C317 C318 1.385 . S
C318 H304 0.931 . S
C318 C317 1.385 . S
C318 C319 1.389 . S
C319 C318 1.389 . S
C319 C320 1.387 . S
C320 H305 0.930 . S
C320 C315 1.390 . S
C320 C319 1.387 . S
H321 C333 0.930 . S
H322 C335 0.930 . S
H323 C336 0.930 . S
H324 C340 0.959 . S
H325 C340 0.959 . S
H326 C340 0.961 . S
H327 C341 0.960 . S
H328 C341 0.961 . S
H329 C341 0.959 . S
H330 C344 0.929 . S
H331 C345 0.931 . S
H332 C347 0.930 . S
C333 H321 0.930 . S
C333 C334 1.399 . S
C333 C338 1.399 . S
C334 C333 1.399 . S
C334 C335 1.376 . S
C335 H322 0.930 . S
C335 C334 1.376 . S
C335 C336 1.388 1_545 S
C336 H323 0.930 . S
C336 C335 1.388 1_565 S
C336 C337 1.390 . S
C337 C336 1.390 . S
C337 C338 1.394 1_565 S
C337 C343 1.465 . S
C338 C333 1.399 . S
C338 C337 1.394 1_545 S
C338 C339 1.516 . S
C339 C338 1.516 . S
C339 C340 1.502 . S
C339 C341 1.561 . S
C339 C342 1.526 1_545 S
C340 H324 0.959 . S
C340 H325 0.959 . S
C340 H326 0.961 . S
C340 C339 1.502 . S
C341 H327 0.960 . S
C341 H328 0.961 . S
C341 H329 0.959 . S
C341 C339 1.561 . S
C342 C339 1.526 1_565 S
C342 C343 1.396 . S
C342 C347 1.390 . S
C343 C337 1.465 . S
C343 C342 1.396 . S
C343 C344 1.399 . S
C344 H330 0.929 . S
C344 C343 1.399 . S
C344 C345 1.385 . S
C345 H331 0.931 . S
C345 C344 1.385 . S
C345 C346 1.389 . S
C346 C345 1.389 . S
C346 C347 1.387 . S
C347 H332 0.930 . S
C347 C342 1.390 . S
C347 C346 1.387 . S
H348 C360 0.930 . S
H349 C362 0.930 . S
H350 C363 0.930 1_554 S
H351 C367 0.959 . S
H352 C367 0.959 . S
H353 C367 0.961 . S
H354 C368 0.960 . S
H355 C368 0.961 . S
H356 C368 0.959 . S
H357 C371 0.929 . S
H358 C372 0.931 . S
H359 C374 0.930 . S
C360 H348 0.930 . S
C360 C361 1.399 . S
C360 C365 1.399 . S
C361 C360 1.399 . S
C361 C362 1.376 . S
C362 H349 0.930 . S
C362 C361 1.376 . S
C362 C363 1.388 . S
C363 H350 0.930 1_556 S
C363 C362 1.388 . S
C363 C364 1.390 . S
C364 C363 1.390 . S
C364 C365 1.394 . S
C364 C370 1.465 1_556 S
C365 C360 1.399 . S
C365 C364 1.394 . S
C365 C366 1.516 . S
C366 C365 1.516 . S
C366 C367 1.502 . S
C366 C368 1.561 . S
C366 C369 1.526 1_556 S
C367 H351 0.959 . S
C367 H352 0.959 . S
C367 H353 0.961 . S
C367 C366 1.502 . S
C368 H354 0.960 . S
C368 H355 0.961 . S
C368 H356 0.959 . S
C368 C366 1.561 . S
C369 C366 1.526 1_554 S
C369 C370 1.396 . S
C369 C374 1.390 . S
C370 C364 1.465 1_554 S
C370 C369 1.396 . S
C370 C371 1.399 . S
C371 H357 0.929 . S
C371 C370 1.399 . S
C371 C372 1.385 . S
C372 H358 0.931 . S
C372 C371 1.385 . S
C372 C373 1.389 . S
C373 C372 1.389 . S
C373 C374 1.387 . S
C374 H359 0.930 . S
C374 C369 1.390 . S
C374 C373 1.387 . S
H375 C387 0.930 . S
H376 C389 0.930 . S
H377 C390 0.930 . S
H378 C394 0.959 . S
H379 C394 0.959 . S
H380 C394 0.961 . S
H381 C395 0.960 . S
H382 C395 0.961 . S
H383 C395 0.959 . S
H384 C398 0.929 . S
H385 C399 0.931 . S
H386 C401 0.930 . S
C387 H375 0.930 . S
C387 C388 1.399 . S
C387 C392 1.399 . S
C388 C387 1.399 . S
C388 C389 1.376 . S
C389 H376 0.930 . S
C389 C388 1.376 . S
C389 C390 1.388 1_655 S
C390 H377 0.930 . S
C390 C389 1.388 1_455 S
C390 C391 1.390 . S
C391 C390 1.390 . S
C391 C392 1.394 1_455 S
C391 C397 1.465 . S
C392 C387 1.399 . S
C392 C391 1.394 1_655 S
C392 C393 1.516 . S
C393 C392 1.516 . S
C393 C394 1.502 . S
C393 C395 1.561 . S
C393 C396 1.526 1_655 S
C394 H378 0.959 . S
C394 H379 0.959 . S
C394 H380 0.961 . S
C394 C393 1.502 . S
C395 H381 0.960 . S
C395 H382 0.961 . S
C395 H383 0.959 . S
C395 C393 1.561 . S
C396 C393 1.526 1_455 S
C396 C397 1.396 . S
C396 C401 1.390 . S
C397 C391 1.465 . S
C397 C396 1.396 . S
C397 C398 1.399 . S
C398 H384 0.929 . S
C398 C397 1.399 . S
C398 C399 1.385 . S
C399 H385 0.931 . S
C399 C398 1.385 . S
C399 C400 1.389 . S
C400 C399 1.389 . S
C400 C401 1.387 . S
C401 H386 0.930 . S
C401 C396 1.390 . S
C401 C400 1.387 . S
H402 C414 0.930 . S
H403 C416 0.930 . S
H404 C417 0.930 . S
H405 C421 0.959 . S
H406 C421 0.959 . S
H407 C421 0.961 . S
H408 C422 0.960 . S
H409 C422 0.961 . S
H410 C422 0.959 . S
H411 C425 0.929 . S
H412 C426 0.931 . S
H413 C428 0.930 . S
C414 H402 0.930 . S
C414 C415 1.399 . S
C414 C419 1.399 . S
C415 C414 1.399 . S
C415 C416 1.376 . S
C416 H403 0.930 . S
C416 C415 1.376 . S
C416 C417 1.388 . S
C417 H404 0.930 . S
C417 C416 1.388 . S
C417 C418 1.390 . S
C418 C417 1.390 . S
C418 C419 1.394 . S
C418 C424 1.465 . S
C419 C414 1.399 . S
C419 C418 1.394 . S
C419 C420 1.516 . S
C420 C419 1.516 . S
C420 C421 1.502 . S
C420 C422 1.561 . S
C420 C423 1.526 . S
C421 H405 0.959 . S
C421 H406 0.959 . S
C421 H407 0.961 . S
C421 C420 1.502 . S
C422 H408 0.960 . S
C422 H409 0.961 . S
C422 H410 0.959 . S
C422 C420 1.561 . S
C423 C420 1.526 . S
C423 C424 1.396 . S
C423 C428 1.390 . S
C424 C418 1.465 . S
C424 C423 1.396 . S
C424 C425 1.399 . S
C425 H411 0.929 . S
C425 C424 1.399 . S
C425 C426 1.385 . S
C426 H412 0.931 . S
C426 C425 1.385 . S
C426 C427 1.389 . S
C427 C426 1.389 . S
C427 C428 1.387 . S
C428 H413 0.930 . S
C428 C423 1.390 . S
C428 C427 1.387 . S
H429 C441 0.930 . S
H430 C443 0.930 . S
H431 C444 0.930 . S
H432 C448 0.959 . S
H433 C448 0.959 . S
H434 C448 0.961 . S
H435 C449 0.960 . S
H436 C449 0.961 . S
H437 C449 0.959 . S
H438 C452 0.929 . S
H439 C453 0.931 . S
H440 C455 0.930 . S
C441 H429 0.930 . S
C441 C442 1.399 . S
C441 C446 1.399 . S
C442 C441 1.399 . S
C442 C443 1.376 . S
C443 H430 0.930 . S
C443 C442 1.376 . S
C443 C444 1.388 . S
C444 H431 0.930 . S
C444 C443 1.388 . S
C444 C445 1.390 . S
C445 C444 1.390 . S
C445 C446 1.394 . S
C445 C451 1.465 . S
C446 C441 1.399 . S
C446 C445 1.394 . S
C446 C447 1.516 . S
C447 C446 1.516 . S
C447 C448 1.502 . S
C447 C449 1.561 . S
C447 C450 1.526 . S
C448 H432 0.959 . S
C448 H433 0.959 . S
C448 H434 0.961 . S
C448 C447 1.502 . S
C449 H435 0.960 . S
C449 H436 0.961 . S
C449 H437 0.959 . S
C449 C447 1.561 . S
C450 C447 1.526 . S
C450 C451 1.396 . S
C450 C455 1.390 . S
C451 C445 1.465 . S
C451 C450 1.396 . S
C451 C452 1.399 . S
C452 H438 0.929 . S
C452 C451 1.399 . S
C452 C453 1.385 . S
C453 H439 0.931 . S
C453 C452 1.385 . S
C453 C454 1.389 . S
C454 C453 1.389 . S
C454 C455 1.387 . S
C455 H440 0.930 . S
C455 C450 1.390 . S
C455 C454 1.387 . S
H456 C468 0.930 . S
H457 C470 0.930 . S
H458 C471 0.930 . S
H459 C475 0.959 . S
H460 C475 0.959 . S
H461 C475 0.961 . S
H462 C476 0.960 . S
H463 C476 0.961 . S
H464 C476 0.959 . S
H465 C479 0.929 . S
H466 C480 0.931 . S
H467 C482 0.930 . S
C468 H456 0.930 . S
C468 C469 1.399 . S
C468 C473 1.399 . S
C469 C468 1.399 . S
C469 C470 1.376 . S
C470 H457 0.930 . S
C470 C469 1.376 . S
C470 C471 1.388 . S
C471 H458 0.930 . S
C471 C470 1.388 . S
C471 C472 1.390 . S
C472 C471 1.390 . S
C472 C473 1.394 . S
C472 C478 1.465 . S
C473 C468 1.399 . S
C473 C472 1.394 . S
C473 C474 1.516 . S
C474 C473 1.516 . S
C474 C475 1.502 . S
C474 C476 1.561 . S
C474 C477 1.526 . S
C475 H459 0.959 . S
C475 H460 0.959 . S
C475 H461 0.961 . S
C475 C474 1.502 . S
C476 H462 0.960 . S
C476 H463 0.961 . S
C476 H464 0.959 . S
C476 C474 1.561 . S
C477 C474 1.526 . S
C477 C478 1.396 . S
C477 C482 1.390 . S
C478 C472 1.465 . S
C478 C477 1.396 . S
C478 C479 1.399 . S
C479 H465 0.929 . S
C479 C478 1.399 . S
C479 C480 1.385 . S
C480 H466 0.931 . S
C480 C479 1.385 . S
C480 C481 1.389 . S
C481 C480 1.389 . S
C481 C482 1.387 . S
C482 H467 0.930 . S
C482 C477 1.390 . S
C482 C481 1.387 . S
H483 C495 0.930 . S
H484 C497 0.930 . S
H485 C498 0.930 . S
H486 C502 0.959 . S
H487 C502 0.959 . S
H488 C502 0.961 . S
H489 C503 0.960 . S
H490 C503 0.961 . S
H491 C503 0.959 . S
H492 C506 0.929 . S
H493 C507 0.931 . S
H494 C509 0.930 . S
C495 H483 0.930 . S
C495 C496 1.399 . S
C495 C500 1.399 . S
C496 C495 1.399 . S
C496 C497 1.376 . S
C497 H484 0.930 . S
C497 C496 1.376 . S
C497 C498 1.388 . S
C498 H485 0.930 . S
C498 C497 1.388 . S
C498 C499 1.390 . S
C499 C498 1.390 . S
C499 C500 1.394 . S
C499 C505 1.465 . S
C500 C495 1.399 . S
C500 C499 1.394 . S
C500 C501 1.516 . S
C501 C500 1.516 . S
C501 C502 1.502 . S
C501 C503 1.561 . S
C501 C504 1.526 . S
C502 H486 0.959 . S
C502 H487 0.959 . S
C502 H488 0.961 . S
C502 C501 1.502 . S
C503 H489 0.960 . S
C503 H490 0.961 . S
C503 H491 0.959 . S
C503 C501 1.561 . S
C504 C501 1.526 . S
C504 C505 1.396 . S
C504 C509 1.390 . S
C505 C499 1.465 . S
C505 C504 1.396 . S
C505 C506 1.399 . S
C506 H492 0.929 . S
C506 C505 1.399 . S
C506 C507 1.385 . S
C507 H493 0.931 . S
C507 C506 1.385 . S
C507 C508 1.389 . S
C508 C507 1.389 . S
C508 C509 1.387 . S
C509 H494 0.930 . S
C509 C504 1.390 . S
C509 C508 1.387 . S
H510 C522 0.930 . S
H511 C524 0.930 . S
H512 C525 0.930 . S
H513 C529 0.959 . S
H514 C529 0.959 . S
H515 C529 0.961 . S
H516 C530 0.960 . S
H517 C530 0.961 . S
H518 C530 0.959 . S
H519 C533 0.929 . S
H520 C534 0.931 . S
H521 C536 0.930 . S
C522 H510 0.930 . S
C522 C523 1.399 . S
C522 C527 1.399 . S
C523 C522 1.399 . S
C523 C524 1.376 . S
C524 H511 0.930 . S
C524 C523 1.376 . S
C524 C525 1.388 . S
C525 H512 0.930 . S
C525 C524 1.388 . S
C525 C526 1.390 . S
C526 C525 1.390 . S
C526 C527 1.394 . S
C526 C532 1.465 . S
C527 C522 1.399 . S
C527 C526 1.394 . S
C527 C528 1.516 . S
C528 C527 1.516 . S
C528 C529 1.502 . S
C528 C530 1.561 . S
C528 C531 1.526 . S
C529 H513 0.959 . S
C529 H514 0.959 . S
C529 H515 0.961 . S
C529 C528 1.502 . S
C530 H516 0.960 . S
C530 H517 0.961 . S
C530 H518 0.959 . S
C530 C528 1.561 . S
C531 C528 1.526 . S
C531 C532 1.396 . S
C531 C536 1.390 . S
C532 C526 1.465 . S
C532 C531 1.396 . S
C532 C533 1.399 . S
C533 H519 0.929 . S
C533 C532 1.399 . S
C533 C534 1.385 . S
C534 H520 0.931 . S
C534 C533 1.385 . S
C534 C535 1.389 . S
C535 C534 1.389 . S
C535 C536 1.387 . S
C536 H521 0.930 . S
C536 C531 1.390 . S
C536 C535 1.387 . S
H537 C549 0.930 . S
H538 C551 0.930 . S
H539 C552 0.930 . S
H540 C556 0.959 . S
H541 C556 0.959 . S
H542 C556 0.961 . S
H543 C557 0.960 . S
H544 C557 0.961 . S
H545 C557 0.959 . S
H546 C560 0.929 . S
H547 C561 0.931 . S
H548 C563 0.930 . S
C549 H537 0.930 . S
C549 C550 1.399 . S
C549 C554 1.399 . S
C550 C549 1.399 . S
C550 C551 1.376 . S
C551 H538 0.930 . S
C551 C550 1.376 . S
C551 C552 1.388 . S
C552 H539 0.930 . S
C552 C551 1.388 . S
C552 C553 1.390 . S
C553 C552 1.390 . S
C553 C554 1.394 . S
C553 C559 1.465 . S
C554 C549 1.399 . S
C554 C553 1.394 . S
C554 C555 1.516 . S
C555 C554 1.516 . S
C555 C556 1.502 . S
C555 C557 1.561 . S
C555 C558 1.526 . S
C556 H540 0.959 . S
C556 H541 0.959 . S
C556 H542 0.961 . S
C556 C555 1.502 . S
C557 H543 0.960 . S
C557 H544 0.961 . S
C557 H545 0.959 . S
C557 C555 1.561 . S
C558 C555 1.526 . S
C558 C559 1.396 . S
C558 C563 1.390 . S
C559 C553 1.465 . S
C559 C558 1.396 . S
C559 C560 1.399 . S
C560 H546 0.929 . S
C560 C559 1.399 . S
C560 C561 1.385 . S
C561 H547 0.931 . S
C561 C560 1.385 . S
C561 C562 1.389 . S
C562 C561 1.389 . S
C562 C563 1.387 . S
C563 H548 0.930 . S
C563 C558 1.390 . S
C563 C562 1.387 . S
H564 C576 0.930 . S
H565 C578 0.930 . S
H566 C579 0.930 . S
H567 C583 0.959 . S
H568 C583 0.959 . S
H569 C583 0.961 . S
H570 C584 0.960 . S
H571 C584 0.961 . S
H572 C584 0.959 . S
H573 C587 0.929 . S
H574 C588 0.931 . S
H575 C590 0.930 . S
C576 H564 0.930 . S
C576 C577 1.399 . S
C576 C581 1.399 . S
C577 C576 1.399 . S
C577 C578 1.376 . S
C578 H565 0.930 . S
C578 C577 1.376 . S
C578 C579 1.388 . S
C579 H566 0.930 . S
C579 C578 1.388 . S
C579 C580 1.390 . S
C580 C579 1.390 . S
C580 C581 1.394 . S
C580 C586 1.465 . S
C581 C576 1.399 . S
C581 C580 1.394 . S
C581 C582 1.516 . S
C582 C581 1.516 . S
C582 C583 1.502 . S
C582 C584 1.561 . S
C582 C585 1.526 . S
C583 H567 0.959 . S
C583 H568 0.959 . S
C583 H569 0.961 . S
C583 C582 1.502 . S
C584 H570 0.960 . S
C584 H571 0.961 . S
C584 H572 0.959 . S
C584 C582 1.561 . S
C585 C582 1.526 . S
C585 C586 1.396 . S
C585 C590 1.390 . S
C586 C580 1.465 . S
C586 C585 1.396 . S
C586 C587 1.399 . S
C587 H573 0.929 . S
C587 C586 1.399 . S
C587 C588 1.385 . S
C588 H574 0.931 . S
C588 C587 1.385 . S
C588 C589 1.389 . S
C589 C588 1.389 . S
C589 C590 1.387 . S
C590 H575 0.930 . S
C590 C585 1.390 . S
C590 C589 1.387 . S
H591 C603 0.930 . S
H592 C605 0.930 . S
H593 C606 0.930 . S
H594 C610 0.959 . S
H595 C610 0.973 . S
H596 C610 0.961 . S
H597 C611 0.960 . S
H598 C611 0.961 1_455 S
H599 C611 0.959 . S
H600 C614 0.929 . S
H601 C615 0.931 . S
H602 C617 0.930 . S
C603 H591 0.930 . S
C603 C604 1.399 . S
C603 C608 1.399 . S
C604 C603 1.399 . S
C604 C605 1.376 . S
C605 H592 0.930 . S
C605 C604 1.376 . S
C605 C606 1.388 . S
C606 H593 0.930 . S
C606 C605 1.388 . S
C606 C607 1.390 . S
C607 C606 1.390 . S
C607 C608 1.394 . S
C607 C613 1.465 . S
C608 C603 1.399 . S
C608 C607 1.394 . S
C608 C609 1.516 . S
C609 C608 1.516 . S
C609 C610 1.502 . S
C609 C611 1.561 . S
C609 C612 1.526 1_655 S
C610 H594 0.959 . S
C610 H595 0.973 . S
C610 H596 0.961 . S
C610 C609 1.502 . S
C611 H597 0.960 . S
C611 H598 0.961 1_655 S
C611 H599 0.959 . S
C611 C609 1.561 . S
C612 C609 1.526 1_455 S
C612 C613 1.396 1_455 S
C612 C617 1.390 . S
C613 C607 1.465 . S
C613 C612 1.396 1_655 S
C613 C614 1.399 1_655 S
C614 H600 0.929 . S
C614 C613 1.399 1_455 S
C614 C615 1.385 . S
C615 H601 0.931 . S
C615 C614 1.385 . S
C615 C616 1.389 . S
C616 C615 1.389 . S
C616 C617 1.387 . S
C617 H602 0.930 . S
C617 C612 1.390 . S
C617 C616 1.387 . S
H618 C630 0.930 . S
H619 C632 0.930 . S
H620 C633 0.930 . S
H621 C637 0.959 . S
H622 C637 0.959 . S
H623 C637 0.961 . S
H624 C638 0.960 . S
H625 C638 0.961 . S
H626 C638 0.959 . S
H627 C641 0.929 . S
H628 C642 0.931 . S
H629 C644 0.930 . S
C630 H618 0.930 . S
C630 C631 1.399 . S
C630 C635 1.399 . S
C631 C630 1.399 . S
C631 C632 1.376 . S
C632 H619 0.930 . S
C632 C631 1.376 . S
C632 C633 1.388 . S
C633 H620 0.930 . S
C633 C632 1.388 . S
C633 C634 1.390 . S
C634 C633 1.390 . S
C634 C635 1.394 . S
C634 C640 1.465 . S
C635 C630 1.399 . S
C635 C634 1.394 . S
C635 C636 1.516 . S
C636 C635 1.516 . S
C636 C637 1.502 . S
C636 C638 1.561 . S
C636 C639 1.526 1_545 S
C637 H621 0.959 . S
C637 H622 0.959 . S
C637 H623 0.961 . S
C637 C636 1.502 . S
C638 H624 0.960 . S
C638 H625 0.961 . S
C638 H626 0.959 . S
C638 C636 1.561 . S
C639 C636 1.526 1_565 S
C639 C640 1.396 1_565 S
C639 C644 1.390 . S
C640 C634 1.465 . S
C640 C639 1.396 1_545 S
C640 C641 1.399 1_545 S
C641 H627 0.929 . S
C641 C640 1.399 1_565 S
C641 C642 1.385 . S
C642 H628 0.931 . S
C642 C641 1.385 . S
C642 C643 1.389 . S
C643 C642 1.389 . S
C643 C644 1.387 . S
C644 H629 0.930 . S
C644 C639 1.390 . S
C644 C643 1.387 . S
H645 C657 0.930 . S
H646 C659 0.930 . S
H647 C660 0.930 1_565 S
H648 C664 0.959 . S
H649 C664 0.959 . S
H650 C664 0.961 . S
H651 C665 0.960 . S
H652 C665 0.961 . S
H653 C665 0.959 . S
H654 C668 0.929 . S
H655 C669 0.931 . S
H656 C671 0.930 . S
C657 H645 0.930 . S
C657 C658 1.399 . S
C657 C662 1.399 . S
C658 C657 1.399 . S
C658 C659 1.376 . S
C659 H646 0.930 . S
C659 C658 1.376 . S
C659 C660 1.388 . S
C660 H647 0.930 1_545 S
C660 C659 1.388 . S
C660 C661 1.390 . S
C661 C660 1.390 . S
C661 C662 1.394 . S
C661 C667 1.465 . S
C662 C657 1.399 . S
C662 C661 1.394 . S
C662 C663 1.516 . S
C663 C662 1.516 . S
C663 C664 1.502 . S
C663 C665 1.561 . S
C663 C666 1.526 . S
C664 H648 0.959 . S
C664 H649 0.959 . S
C664 H650 0.961 . S
C664 C663 1.502 . S
C665 H651 0.960 . S
C665 H652 0.961 . S
C665 H653 0.959 . S
C665 C663 1.561 . S
C666 C663 1.526 . S
C666 C667 1.396 . S
C666 C671 1.390 . S
C667 C661 1.465 . S
C667 C666 1.396 . S
C667 C668 1.399 1_545 S
C668 H654 0.929 . S
C668 C667 1.399 1_565 S
C668 C669 1.385 . S
C669 H655 0.931 . S
C669 C668 1.385 . S
C669 C670 1.389 . S
C670 C669 1.389 . S
C670 C671 1.387 1_565 S
C671 H656 0.930 . S
C671 C666 1.390 . S
C671 C670 1.387 1_545 S
H672 C684 0.930 . S
H673 C686 0.930 . S
H674 C687 0.930 . S
H675 C691 0.959 . S
H676 C691 0.959 . S
H677 C691 0.961 . S
H678 C692 0.960 . S
H679 C692 0.961 . S
H680 C692 0.959 . S
H681 C695 0.929 . S
H682 C696 0.931 . S
H683 C698 0.930 . S
C684 H672 0.930 . S
C684 C685 1.399 . S
C684 C689 1.399 . S
C685 C684 1.399 . S
C685 C686 1.376 . S
C686 H673 0.930 . S
C686 C685 1.376 . S
C686 C687 1.388 . S
C687 H674 0.930 . S
C687 C686 1.388 . S
C687 C688 1.390 . S
C688 C687 1.390 . S
C688 C689 1.394 . S
C688 C694 1.465 . S
C689 C684 1.399 . S
C689 C688 1.394 . S
C689 C690 1.516 . S
C690 C689 1.516 . S
C690 C691 1.502 . S
C690 C692 1.561 . S
C690 C693 1.526 . S
C691 H675 0.959 . S
C691 H676 0.959 . S
C691 H677 0.961 . S
C691 C690 1.502 . S
C692 H678 0.960 . S
C692 H679 0.961 . S
C692 H680 0.959 . S
C692 C690 1.561 . S
C693 C690 1.526 . S
C693 C694 1.396 . S
C693 C698 1.390 . S
C694 C688 1.465 . S
C694 C693 1.396 . S
C694 C695 1.399 . S
C695 H681 0.929 . S
C695 C694 1.399 . S
C695 C696 1.385 . S
C696 H682 0.931 . S
C696 C695 1.385 . S
C696 C697 1.389 . S
C697 C696 1.389 . S
C697 C698 1.387 . S
C698 H683 0.930 . S
C698 C693 1.390 . S
C698 C697 1.387 . S
H699 C711 0.930 . S
H700 C713 0.930 . S
H701 C714 0.930 . S
H702 C718 0.959 . S
H703 C718 0.959 . S
H704 C718 0.961 . S
H705 C719 0.960 . S
H706 C719 0.961 . S
H707 C719 0.959 . S
H708 C722 0.929 . S
H709 C723 0.931 . S
H710 C725 0.930 . S
C711 H699 0.930 . S
C711 C712 1.399 . S
C711 C716 1.399 1_455 S
C712 C711 1.399 . S
C712 C713 1.376 1_455 S
C713 H700 0.930 . S
C713 C712 1.376 1_655 S
C713 C714 1.388 . S
C714 H701 0.930 . S
C714 C713 1.388 . S
C714 C715 1.390 . S
C715 C714 1.390 . S
C715 C716 1.394 . S
C715 C721 1.465 . S
C716 C711 1.399 1_655 S
C716 C715 1.394 . S
C716 C717 1.516 . S
C717 C716 1.516 . S
C717 C718 1.502 1_655 S
C717 C719 1.561 . S
C717 C720 1.526 . S
C718 H702 0.959 . S
C718 H703 0.959 . S
C718 H704 0.961 . S
C718 C717 1.502 1_455 S
C719 H705 0.960 . S
C719 H706 0.961 . S
C719 H707 0.959 . S
C719 C717 1.561 . S
C720 C717 1.526 . S
C720 C721 1.396 . S
C720 C725 1.390 . S
C721 C715 1.465 . S
C721 C720 1.396 . S
C721 C722 1.399 . S
C722 H708 0.929 . S
C722 C721 1.399 . S
C722 C723 1.385 . S
C723 H709 0.931 . S
C723 C722 1.385 . S
C723 C724 1.389 . S
C724 C723 1.389 . S
C724 C725 1.387 . S
C725 H710 0.930 . S
C725 C720 1.390 . S
C725 C724 1.387 . S
C253 C178 2.561 . S
C265 C9 2.236 . S
C280 C209 2.181 . S
C292 C58 2.559 . S
C307 C89 2.198 . S
C319 C138 2.532 . S
C334 C18 2.543 . S
C346 C169 2.252 . S
C361 C218 2.546 . S
C373 C49 2.167 . S
C388 C98 2.543 . S
C400 C129 2.252 . S
C415 C19 2.030 . S
C427 C95 1.994 . S
C442 C59 2.069 . S
C454 C15 1.966 . S
C469 C99 2.032 . S
C481 C55 1.991 . S
C496 C126 1.883 . S
C508 C170 1.863 . S
C523 C166 1.919 . S
C535 C210 1.851 . S
C550 C130 1.834 . S
C562 C206 1.895 . S
C577 C10 1.026 . S
C589 C86 1.130 . S
C604 C50 1.138 . S
C616 C6 1.083 . S
C631 C90 1.035 . S
C643 C46 1.115 . S
C658 C135 1.255 . S
C670 C179 1.231 . S
C685 C175 1.271 1_655 S
C697 C219 1.261 . S
C712 C139 1.300 . S
C724 C215 1.208 1_545 S
