# Generated by pormake.
# Topology smw, (6)-cn, num edge types: 1
# Building blocks:
#     Node 0, Type 0, BuildingBlock: IZENUY_clean_sbu_0, # of connection points: 6
#     Node 1, Type 0, BuildingBlock: IZENUY_clean_sbu_0, # of connection points: 6
#     Node 2, Type 0, BuildingBlock: IZENUY_clean_sbu_0, # of connection points: 6
#     Node 3, Type 0, BuildingBlock: IZENUY_clean_sbu_0, # of connection points: 6
#     Node 4, Type 0, BuildingBlock: IZENUY_clean_sbu_0, # of connection points: 6
#     Node 5, Type 0, BuildingBlock: IZENUY_clean_sbu_0, # of connection points: 6
#     Node 6, Type 0, BuildingBlock: IZENUY_clean_sbu_0, # of connection points: 6
#     Node 7, Type 0, BuildingBlock: IZENUY_clean_sbu_0, # of connection points: 6
#     Node 8, Type 0, BuildingBlock: IZENUY_clean_sbu_0, # of connection points: 6
#     Node 9, Type 0, BuildingBlock: IZENUY_clean_sbu_0, # of connection points: 6
#     Node 10, Type 0, BuildingBlock: IZENUY_clean_sbu_0, # of connection points: 6
#     Node 11, Type 0, BuildingBlock: IZENUY_clean_sbu_0, # of connection points: 6
#     Edge 12, Type (0, 0), BuildingBlock: CIFDUS_clean_linker_0, # of connection points: 2
#     Edge 13, Type (0, 0), BuildingBlock: CIFDUS_clean_linker_0, # of connection points: 2
#     Edge 14, Type (0, 0), BuildingBlock: CIFDUS_clean_linker_0, # of connection points: 2
#     Edge 15, Type (0, 0), BuildingBlock: CIFDUS_clean_linker_0, # of connection points: 2
#     Edge 16, Type (0, 0), BuildingBlock: CIFDUS_clean_linker_0, # of connection points: 2
#     Edge 17, Type (0, 0), BuildingBlock: CIFDUS_clean_linker_0, # of connection points: 2
#     Edge 18, Type (0, 0), BuildingBlock: CIFDUS_clean_linker_0, # of connection points: 2
#     Edge 19, Type (0, 0), BuildingBlock: CIFDUS_clean_linker_0, # of connection points: 2
#     Edge 20, Type (0, 0), BuildingBlock: CIFDUS_clean_linker_0, # of connection points: 2
#     Edge 21, Type (0, 0), BuildingBlock: CIFDUS_clean_linker_0, # of connection points: 2
#     Edge 22, Type (0, 0), BuildingBlock: CIFDUS_clean_linker_0, # of connection points: 2
#     Edge 23, Type (0, 0), BuildingBlock: CIFDUS_clean_linker_0, # of connection points: 2
#     Edge 24, Type (0, 0), BuildingBlock: CIFDUS_clean_linker_0, # of connection points: 2
#     Edge 25, Type (0, 0), BuildingBlock: CIFDUS_clean_linker_0, # of connection points: 2
#     Edge 26, Type (0, 0), BuildingBlock: CIFDUS_clean_linker_0, # of connection points: 2
#     Edge 27, Type (0, 0), BuildingBlock: CIFDUS_clean_linker_0, # of connection points: 2
#     Edge 28, Type (0, 0), BuildingBlock: CIFDUS_clean_linker_0, # of connection points: 2
#     Edge 29, Type (0, 0), BuildingBlock: CIFDUS_clean_linker_0, # of connection points: 2
#     Edge 30, Type (0, 0), BuildingBlock: CIFDUS_clean_linker_0, # of connection points: 2
#     Edge 31, Type (0, 0), BuildingBlock: CIFDUS_clean_linker_0, # of connection points: 2
#     Edge 32, Type (0, 0), BuildingBlock: CIFDUS_clean_linker_0, # of connection points: 2
#     Edge 33, Type (0, 0), BuildingBlock: CIFDUS_clean_linker_0, # of connection points: 2
#     Edge 34, Type (0, 0), BuildingBlock: CIFDUS_clean_linker_0, # of connection points: 2
#     Edge 35, Type (0, 0), BuildingBlock: CIFDUS_clean_linker_0, # of connection points: 2
#     Edge 36, Type (0, 0), BuildingBlock: CIFDUS_clean_linker_0, # of connection points: 2
#     Edge 37, Type (0, 0), BuildingBlock: CIFDUS_clean_linker_0, # of connection points: 2
#     Edge 38, Type (0, 0), BuildingBlock: CIFDUS_clean_linker_0, # of connection points: 2
#     Edge 39, Type (0, 0), BuildingBlock: CIFDUS_clean_linker_0, # of connection points: 2
#     Edge 40, Type (0, 0), BuildingBlock: CIFDUS_clean_linker_0, # of connection points: 2
#     Edge 41, Type (0, 0), BuildingBlock: CIFDUS_clean_linker_0, # of connection points: 2
#     Edge 42, Type (0, 0), BuildingBlock: CIFDUS_clean_linker_0, # of connection points: 2
#     Edge 43, Type (0, 0), BuildingBlock: CIFDUS_clean_linker_0, # of connection points: 2
#     Edge 44, Type (0, 0), BuildingBlock: CIFDUS_clean_linker_0, # of connection points: 2
#     Edge 45, Type (0, 0), BuildingBlock: CIFDUS_clean_linker_0, # of connection points: 2
#     Edge 46, Type (0, 0), BuildingBlock: CIFDUS_clean_linker_0, # of connection points: 2
#     Edge 47, Type (0, 0), BuildingBlock: CIFDUS_clean_linker_0, # of connection points: 2
# Relax obj value: 0.143
# Max RMSD: 0.113
# Mean RMSD: 0.113
data_MOF--net-smw--node1-IZENUY_clean_sbu_0--edge1-CIFDUS_clean_linker_0
_symmetry_space_group_name_H-M    P1
_symmetry_Int_Tables_number       1
_symmetry_cell_setting            triclinic
loop_
_symmetry_equiv_pos_as_xyz
'x, y, z'
_cell_length_a     49.690897
_cell_length_b     49.719527
_cell_length_c     17.680804
_cell_angle_alpha  90.070124
_cell_angle_beta   90.091355
_cell_angle_gamma 119.74985
loop_
_atom_site_label
_atom_site_type_symbol
_atom_site_fract_x
_atom_site_fract_y
_atom_site_fract_z
_atom_type_partial_charge
Fe0 Fe 0.49533 0.1625 0.99752 0.0
Fe1 Fe 0.4646 0.09221 0.00366 0.0
O2 O 0.46124 0.1259 0.0038 0.0
Fe3 Fe 0.42371 0.12215 0.01035 0.0
O4 O 0.43298 0.15572 0.95022 0.0
O5 O 0.48118 0.17271 0.91369 0.0
O6 O 0.51533 0.14893 0.9336 0.0
C7 C 0.50542 0.12492 0.89233 0.0
C8 C 0.45864 0.17199 0.10518 0.0
O9 O 0.48073 0.1003 0.90897 0.0
C10 C 0.42212 0.0779 0.11504 0.0
O11 O 0.51249 0.15549 0.08208 0.0
O12 O 0.50311 0.10986 0.04478 0.0
O13 O 0.43435 0.14598 0.09596 0.0
O14 O 0.48105 0.18194 0.05938 0.0
C15 C 0.41214 0.0739 0.9154 0.0
O16 O 0.44895 0.08304 0.09803 0.0
O17 O 0.40801 0.08774 0.07309 0.0
C18 C 0.5171 0.1328 0.088 0.0
O19 O 0.42669 0.06728 0.96302 0.0
O20 O 0.41049 0.09828 0.92371 0.0
C21 C 0.45536 0.17164 0.906 0.0
Fe22 Fe 0.35295 0.50092 0.0138 0.0
Fe23 Fe 0.39073 0.46834 0.99532 0.0
O24 O 0.3543 0.46627 1.00338 0.0
Fe25 Fe 0.31972 0.42973 1.0016 0.0
O26 O 0.30447 0.44058 0.92023 0.0
O27 O 0.31616 0.48672 0.96296 0.0
O28 O 0.37238 0.51575 0.92386 0.0
C29 C 0.39888 0.51961 0.90897 0.0
C30 C 0.30844 0.46374 0.11527 0.0
O31 O 0.41008 0.50627 0.94839 0.0
C32 C 0.35734 0.41589 0.08764 0.0
O33 O 0.38951 0.52137 0.06747 0.0
O34 O 0.40242 0.48569 0.08808 0.0
O35 O 0.29861 0.44122 0.0689 0.0
O36 O 0.3336 0.48841 0.10371 0.0
C37 C 0.35787 0.42541 0.88758 0.0
O38 O 0.3786 0.43073 0.04006 0.0
O39 O 0.33223 0.41639 0.08372 0.0
C40 C 0.40373 0.51084 0.10621 0.0
O41 O 0.38091 0.4514 0.9026 0.0
O42 O 0.33521 0.41217 0.93331 0.0
C43 C 0.30167 0.4645 0.91702 0.0
Fe44 Fe 0.90471 0.30852 0.99931 0.0
Fe45 Fe 0.86077 0.33593 1.00082 0.0
O46 O 0.89876 0.34105 1.0007 0.0
Fe47 Fe 0.93097 0.37898 1.00147 0.0
O48 O 0.9444 0.37242 0.91186 0.0
O49 O 0.94053 0.32771 0.94268 0.0
O50 O 0.88319 0.29443 0.9105 0.0
C51 C 0.85636 0.29047 0.89848 0.0
C52 C 0.95092 0.34647 0.09651 0.0
O53 O 0.84399 0.30087 0.94341 0.0
C54 C 0.89324 0.38559 0.10322 0.0
O55 O 0.87017 0.28366 0.05575 0.0
O56 O 0.85138 0.31395 0.08772 0.0
O57 O 0.95617 0.36885 0.0538 0.0
O58 O 0.92681 0.32036 0.08792 0.0
C59 C 0.88977 0.38452 0.9028 0.0
O60 O 0.87069 0.37015 0.05891 0.0
O61 O 0.91935 0.38782 0.09137 0.0
C62 C 0.85359 0.29001 0.09833 0.0
O63 O 0.86744 0.35753 0.91299 0.0
O64 O 0.91216 0.39648 0.94862 0.0
C65 C 0.95117 0.3514 0.90063 0.0
Fe66 Fe 0.55623 0.92101 1.00317 0.0
Fe67 Fe 0.60732 0.90377 0.99878 0.0
O68 O 0.56752 0.89264 0.00597 0.0
Fe69 Fe 0.53868 0.85336 0.01553 0.0
O70 O 0.51939 0.85411 0.92881 0.0
O71 O 0.51809 0.89592 0.96069 0.0
O72 O 0.5712 0.93159 0.90895 0.0
C73 C 0.59962 0.94339 0.89415 0.0
C74 C 0.51958 0.88497 0.1167 0.0
O75 O 0.61698 0.93702 0.9345 0.0
C76 C 0.58344 0.85516 0.10842 0.0
O77 O 0.59208 0.95192 0.04468 0.0
O78 O 0.61726 0.9285 0.08257 0.0
O79 O 0.51291 0.86139 0.07587 0.0
O80 O 0.54091 0.91145 0.09763 0.0
C81 C 0.58102 0.8516 0.91029 0.0
O82 O 0.60432 0.87241 0.06153 0.0
O83 O 0.55608 0.85012 0.10164 0.0
C84 C 0.61217 0.95095 0.08655 0.0
O85 O 0.60028 0.88018 0.91481 0.0
O86 O 0.55938 0.83851 0.95828 0.0
C87 C 0.50902 0.87234 0.91886 0.0
Fe88 Fe 0.6516 0.56432 0.00679 0.0
Fe89 Fe 0.72207 0.59969 0.99253 0.0
O90 O 0.68691 0.56398 1.00114 0.0
Fe91 Fe 0.68695 0.52835 0.00358 0.0
O92 O 0.65007 0.50653 0.9502 0.0
O93 O 0.63743 0.54198 0.92099 0.0
O94 O 0.6646 0.59922 0.94877 0.0
C95 C 0.68517 0.61006 0.89801 0.0
C96 C 0.64182 0.51637 0.10795 0.0
O97 O 0.70938 0.60807 0.90379 0.0
C98 C 0.73906 0.56957 0.09484 0.0
O99 O 0.66383 0.5864 0.09331 0.0
O100 O 0.70846 0.62245 0.04861 0.0
O101 O 0.66725 0.51752 0.09439 0.0
O102 O 0.63167 0.52968 0.06531 0.0
C103 C 0.73167 0.5592 0.89636 0.0
O104 O 0.73668 0.59312 0.08005 0.0
O105 O 0.724 0.54458 0.05693 0.0
C106 C 0.68706 0.61313 0.09786 0.0
O107 O 0.74225 0.5838 0.93556 0.0
O108 O 0.70619 0.53584 0.91309 0.0
C109 C 0.63501 0.5158 0.90985 0.0
Fe110 Fe 0.10347 0.64048 0.99169 0.0
Fe111 Fe 0.13051 0.71008 0.01458 0.0
O112 O 0.13605 0.67763 0.00357 0.0
Fe113 Fe 0.17363 0.6819 0.00452 0.0
O114 O 0.16866 0.66425 0.91141 0.0
O115 O 0.12329 0.62446 0.93624 0.0
O116 O 0.09364 0.65224 0.90403 0.0
C117 C 0.08704 0.67369 0.90052 0.0
C118 C 0.13738 0.62838 0.0938 0.0
O119 O 0.096 0.69428 0.95196 0.0
C120 C 0.18003 0.72299 0.11645 0.0
O121 O 0.07673 0.64858 0.04501 0.0
O122 O 0.10669 0.69354 0.09881 0.0
O123 O 0.16148 0.64479 0.05437 0.0
O124 O 0.11208 0.62751 0.07893 0.0
C125 C 0.18044 0.7335 0.91864 0.0
O126 O 0.16421 0.73182 0.07815 0.0
O127 O 0.18169 0.69952 0.09699 0.0
C128 C 0.08163 0.66802 0.0967 0.0
O129 O 0.15339 0.72847 0.93144 0.0
O130 O 0.19194 0.71978 0.95609 0.0
C131 C 0.14739 0.63722 0.89601 0.0
Fe132 Fe 0.90501 0.59437 0.4971 0.0
Fe133 Fe 0.86227 0.52332 0.49632 0.0
O134 O 0.8996 0.55635 0.5034 0.0
Fe135 Fe 0.93207 0.55166 0.51782 0.0
O136 O 0.93942 0.57125 0.60756 0.0
O137 O 0.93926 0.61203 0.56179 0.0
O138 O 0.88099 0.58797 0.57909 0.0
C139 C 0.85366 0.56594 0.58804 0.0
C140 C 0.95495 0.60247 0.41703 0.0
O141 O 0.84276 0.54181 0.54641 0.0
C142 C 0.9015 0.50751 0.41103 0.0
O143 O 0.87185 0.58368 0.4317 0.0
O144 O 0.85614 0.53501 0.40458 0.0
O145 O 0.95934 0.58722 0.46796 0.0
O146 O 0.92987 0.60313 0.41421 0.0
C147 C 0.88623 0.50251 0.60499 0.0
O148 O 0.87598 0.49966 0.4448 0.0
O149 O 0.92595 0.53189 0.42923 0.0
C150 C 0.85713 0.56014 0.38921 0.0
O151 O 0.86521 0.50851 0.58789 0.0
O152 O 0.91151 0.51503 0.56923 0.0
C153 C 0.9483 0.59971 0.61144 0.0
Fe154 Fe 0.32278 0.8963 0.5115 0.0
Fe155 Fe 0.34558 0.8485 0.51309 0.0
O156 O 0.35321 0.88725 0.51069 0.0
Fe157 Fe 0.39197 0.91728 0.50785 0.0
O158 O 0.38533 0.94586 0.55659 0.0
O159 O 0.33753 0.91967 0.59742 0.0
O160 O 0.29717 0.86326 0.57399 0.0
C161 C 0.30383 0.84681 0.6169 0.0
C162 C 0.36751 0.93977 0.40735 0.0
O163 O 0.32585 0.8421 0.60161 0.0
C164 C 0.39356 0.87212 0.41428 0.0
O165 O 0.30571 0.87379 0.42626 0.0
O166 O 0.30923 0.83289 0.45876 0.0
O167 O 0.38557 0.9291 0.41696 0.0
O168 O 0.34382 0.93108 0.44961 0.0
C169 C 0.39568 0.88009 0.6144 0.0
O170 O 0.36536 0.85249 0.42362 0.0
O171 O 0.40686 0.89499 0.45862 0.0
C172 C 0.29817 0.84575 0.41676 0.0
O173 O 0.38044 0.85732 0.57004 0.0
O174 O 0.39944 0.90647 0.59917 0.0
C175 C 0.36468 0.94231 0.60325 0.0
Fe176 Fe 0.50533 0.34202 0.49875 0.0
Fe177 Fe 0.4793 0.38616 0.49961 0.0
O178 O 0.47299 0.34785 0.50142 0.0
Fe179 Fe 0.43455 0.31599 0.50587 0.0
O180 O 0.44479 0.29164 0.56626 0.0
O181 O 0.49474 0.32175 0.58706 0.0
O182 O 0.53065 0.3771 0.55478 0.0
C183 C 0.52405 0.39308 0.59938 0.0
C184 C 0.46041 0.29275 0.40678 0.0
O185 O 0.50008 0.39532 0.58873 0.0
C186 C 0.43186 0.35746 0.39854 0.0
O187 O 0.5187 0.36226 0.40932 0.0
O188 O 0.51556 0.40265 0.44568 0.0
O189 O 0.43925 0.29903 0.42 0.0
O190 O 0.4856 0.30566 0.44395 0.0
C191 C 0.42808 0.35617 0.59871 0.0
O192 O 0.45928 0.37873 0.41055 0.0
O193 O 0.41803 0.33493 0.44459 0.0
C194 C 0.52581 0.39014 0.40054 0.0
O195 O 0.44413 0.3776 0.55256 0.0
O196 O 0.42651 0.33021 0.59285 0.0
C197 C 0.46938 0.2981 0.60289 0.0
Fe198 Fe 0.12842 0.42417 0.50044 0.0
Fe199 Fe 0.17565 0.49473 0.50764 0.0
O200 O 0.1372 0.46343 0.49832 0.0
Fe201 Fe 0.10669 0.47144 0.48577 0.0
O202 O 0.07689 0.43555 0.52672 0.0
O203 O 0.10199 0.41522 0.58122 0.0
O204 O 0.15933 0.4308 0.56821 0.0
C205 C 0.17715 0.45358 0.60984 0.0
C206 C 0.09119 0.42626 0.38117 0.0
O207 O 0.18131 0.48037 0.59716 0.0
C208 C 0.15366 0.51959 0.4026 0.0
O209 O 0.15371 0.43007 0.4207 0.0
O210 O 0.1931 0.47539 0.45455 0.0
O211 O 0.09899 0.45431 0.39238 0.0
O212 O 0.09633 0.41085 0.43083 0.0
C213 C 0.13897 0.51142 0.59969 0.0
O214 O 0.1738 0.51198 0.41733 0.0
O215 O 0.12971 0.5092 0.44253 0.0
C216 C 0.18153 0.45133 0.4131 0.0
O217 O 0.16398 0.51895 0.5638 0.0
O218 O 0.11348 0.48869 0.57855 0.0
C219 C 0.07844 0.41863 0.57731 0.0
Fe220 Fe 0.68527 0.17076 0.51141 0.0
Fe221 Fe 0.64171 0.10117 0.5005 0.0
O222 O 0.67986 0.13293 0.50133 0.0
Fe223 Fe 0.71186 0.12649 0.49235 0.0
O224 O 0.72913 0.1465 0.58016 0.0
O225 O 0.72181 0.18625 0.56456 0.0
O226 O 0.66511 0.16146 0.60178 0.0
C227 C 0.63722 0.14046 0.60852 0.0
C228 C 0.7286 0.18046 0.40305 0.0
O229 O 0.62497 0.11946 0.55903 0.0
C230 C 0.67168 0.08124 0.39733 0.0
O231 O 0.6499 0.16228 0.45807 0.0
O232 O 0.63281 0.11502 0.41445 0.0
O233 O 0.73538 0.16179 0.43559 0.0
O234 O 0.70542 0.18261 0.4229 0.0
C235 C 0.67056 0.07986 0.59413 0.0
O236 O 0.65022 0.07575 0.44321 0.0
O237 O 0.69756 0.10558 0.40322 0.0
C238 C 0.63447 0.1412 0.40974 0.0
O239 O 0.64926 0.08651 0.586 0.0
O240 O 0.69343 0.09026 0.54878 0.0
C241 C 0.7352 0.17349 0.5976 0.0
Fe242 Fe 0.60648 0.71444 0.50268 0.0
Fe243 Fe 0.53546 0.6813 0.5117 0.0
O244 O 0.57002 0.67976 0.50348 0.0
Fe245 Fe 0.56815 0.64348 0.49705 0.0
O246 O 0.60482 0.6559 0.54744 0.0
O247 O 0.61838 0.70279 0.58787 0.0
O248 O 0.59404 0.73619 0.56537 0.0
C249 C 0.57194 0.72611 0.61276 0.0
C250 C 0.61441 0.67509 0.39716 0.0
O251 O 0.54761 0.70057 0.60196 0.0
C252 C 0.51763 0.6356 0.40657 0.0
O253 O 0.59636 0.72836 0.41791 0.0
O254 O 0.55065 0.71807 0.46068 0.0
O255 O 0.58703 0.65344 0.40623 0.0
O256 O 0.62568 0.6985 0.44102 0.0
C257 C 0.52383 0.63014 0.6041 0.0
O258 O 0.5212 0.66195 0.42171 0.0
O259 O 0.53112 0.62442 0.44561 0.0
C260 C 0.57279 0.73174 0.41417 0.0
O261 O 0.51398 0.64477 0.56475 0.0
O262 O 0.5491 0.63137 0.58787 0.0
C263 C 0.61897 0.67784 0.59413 0.0
H264 H 0.41525 0.18509 0.16264 0.0
H265 H 0.50976 0.20542 0.18968 0.0
H266 H 0.51863 0.24401 0.2864 0.0
H267 H 0.50055 0.27389 0.35894 0.0
H268 H 0.40677 0.25575 0.32864 0.0
H269 H 0.39677 0.21485 0.23771 0.0
C270 C 0.43756 0.19769 0.19072 0.0
C271 C 0.46178 0.1924 0.16939 0.0
C272 C 0.44283 0.22061 0.24503 0.0
C273 C 0.49079 0.20919 0.20518 0.0
C274 C 0.49592 0.23131 0.26033 0.0
C275 C 0.47789 0.261 0.33263 0.0
C276 C 0.45455 0.26807 0.35076 0.0
C277 C 0.4723 0.2376 0.27986 0.0
C278 C 0.42531 0.25101 0.31576 0.0
C279 C 0.41948 0.22747 0.26377 0.0
H280 H 0.24375 0.48781 0.39333 0.0
H281 H 0.16391 0.40673 0.303 0.0
H282 H 0.1962 0.40217 0.20542 0.0
H283 H 0.24696 0.4226 0.14209 0.0
H284 H 0.32626 0.50393 0.2338 0.0
H285 H 0.29437 0.50671 0.33425 0.0
C286 C 0.23334 0.46905 0.35252 0.0
C287 C 0.20136 0.44776 0.35558 0.0
C288 C 0.252 0.46656 0.29646 0.0
C289 C 0.18845 0.4235 0.30224 0.0
C290 C 0.20691 0.42088 0.24622 0.0
C291 C 0.25732 0.44073 0.18448 0.0
C292 C 0.28898 0.46313 0.17974 0.0
C293 C 0.2387 0.44244 0.24232 0.0
C294 C 0.30194 0.4865 0.23534 0.0
C295 C 0.2837 0.48816 0.29301 0.0
H296 H 0.80351 0.28662 0.16766 0.0
H297 H 0.85918 0.24221 0.15835 0.0
H298 H 0.82554 0.20411 0.25193 0.0
H299 H 0.77986 0.1833 0.33631 0.0
H300 H 0.724 0.22779 0.33961 0.0
H301 H 0.7581 0.26568 0.24847 0.0
C302 C 0.80845 0.26873 0.18629 0.0
C303 C 0.83387 0.26736 0.15628 0.0
C304 C 0.78884 0.24672 0.23895 0.0
C305 C 0.83969 0.24377 0.18054 0.0
C306 C 0.82047 0.22197 0.23404 0.0
C307 C 0.77516 0.20125 0.31696 0.0
C308 C 0.74937 0.20257 0.34524 0.0
C309 C 0.79487 0.22315 0.26355 0.0
C310 C 0.74359 0.226 0.31913 0.0
C311 C 0.76314 0.24786 0.26693 0.0
H312 H 0.61765 0.77175 0.31436 0.0
H313 H 0.52512 0.74287 0.395 0.0
H314 H 0.52187 0.77996 0.31268 0.0
H315 H 0.54389 0.81944 0.21693 0.0
H316 H 0.63519 0.84859 0.12863 0.0
H317 H 0.64049 0.81307 0.21598 0.0
C318 C 0.5968 0.77358 0.31374 0.0
C319 C 0.57171 0.75438 0.36121 0.0
C320 C 0.59487 0.79517 0.2654 0.0
C321 C 0.54489 0.7572 0.35957 0.0
C322 C 0.54294 0.77852 0.31245 0.0
C323 C 0.56512 0.81827 0.21652 0.0
C324 C 0.58903 0.83662 0.16577 0.0
C325 C 0.56766 0.79749 0.26517 0.0
C326 C 0.61639 0.8348 0.16712 0.0
C327 C 0.61934 0.81433 0.21674 0.0
H328 H 0.76332 0.53152 0.1187 0.0
H329 H 0.76651 0.61457 0.20284 0.0
H330 H 0.80456 0.62033 0.29823 0.0
H331 H 0.83629 0.60109 0.36058 0.0
H332 H 0.83302 0.51818 0.27476 0.0
H333 H 0.79622 0.51344 0.17757 0.0
C334 C 0.77225 0.55083 0.15801 0.0
C335 C 0.76186 0.57244 0.15351 0.0
C336 C 0.79441 0.55423 0.21257 0.0
C337 C 0.77402 0.59752 0.2047 0.0
C338 C 0.79587 0.60089 0.25942 0.0
C339 C 0.82782 0.58223 0.32004 0.0
C340 C 0.83742 0.56 0.32556 0.0
C341 C 0.80625 0.57937 0.26409 0.0
C342 C 0.82597 0.53558 0.27252 0.0
C343 C 0.8048 0.53275 0.21676 0.0
H344 H 0.27232 0.78389 0.39021 0.0
H345 H 0.27076 0.8653 0.31189 0.0
H346 H 0.23261 0.83439 0.21506 0.0
H347 H 0.20087 0.78426 0.14928 0.0
H348 H 0.20363 0.70355 0.22852 0.0
H349 H 0.23975 0.73411 0.32828 0.0
C350 C 0.26366 0.79497 0.35215 0.0
C351 C 0.2746 0.82697 0.35845 0.0
C352 C 0.24177 0.7771 0.29656 0.0
C353 C 0.26287 0.84074 0.30852 0.0
C354 C 0.24099 0.82306 0.25302 0.0
C355 C 0.20911 0.77333 0.18896 0.0
C356 C 0.19959 0.74165 0.181 0.0
C357 C 0.23037 0.79121 0.24615 0.0
C358 C 0.21069 0.72791 0.23276 0.0
C359 C 0.23142 0.74538 0.28996 0.0
H360 H 0.60958 0.78867 0.6333 0.0
H361 H 0.53487 0.70709 0.73644 0.0
H362 H 0.53162 0.73854 0.83758 0.0
H363 H 0.54821 0.78907 0.89439 0.0
H364 H 0.62244 0.87131 0.79261 0.0
H365 H 0.62758 0.83975 0.69366 0.0
C366 C 0.59283 0.77779 0.67833 0.0
C367 C 0.57239 0.74557 0.67685 0.0
C368 C 0.59078 0.79612 0.73641 0.0
C369 C 0.55073 0.73186 0.73563 0.0
C370 C 0.54881 0.74982 0.79365 0.0
C371 C 0.56559 0.80019 0.85075 0.0
C372 C 0.5848 0.83257 0.851 0.0
C373 C 0.5684 0.78198 0.79407 0.0
C374 C 0.60728 0.84643 0.79394 0.0
C375 C 0.61025 0.82839 0.73724 0.0
H376 H 0.79069 0.60138 0.85221 0.0
H377 H 0.71434 0.51061 0.79877 0.0
H378 H 0.74469 0.50472 0.6987 0.0
H379 H 0.79344 0.52473 0.62716 0.0
H380 H 0.86977 0.61545 0.68152 0.0
H381 H 0.83898 0.62173 0.77939 0.0
C382 C 0.78062 0.58034 0.81857 0.0
C383 C 0.75024 0.55649 0.83368 0.0
C384 C 0.79827 0.57695 0.76087 0.0
C385 C 0.73769 0.5294 0.78908 0.0
C386 C 0.75505 0.52595 0.73156 0.0
C387 C 0.80332 0.54592 0.66018 0.0
C388 C 0.83399 0.5695 0.64644 0.0
C389 C 0.78546 0.54948 0.71712 0.0
C390 C 0.84629 0.59679 0.6903 0.0
C391 C 0.82868 0.60048 0.74662 0.0
H392 H 0.24162 0.82489 0.6418 0.0
H393 H 0.32384 0.83126 0.74223 0.0
H394 H 0.2933 0.79753 0.84491 0.0
H395 H 0.24303 0.7632 0.90216 0.0
H396 H 0.16022 0.75635 0.8047 0.0
H397 H 0.19101 0.79303 0.70571 0.0
C398 C 0.25281 0.8193 0.68692 0.0
C399 C 0.2849 0.83033 0.68378 0.0
C400 C 0.23496 0.79939 0.74609 0.0
C401 C 0.29909 0.82277 0.74266 0.0
C402 C 0.28166 0.80341 0.80151 0.0
C403 C 0.2317 0.76977 0.85942 0.0
C404 C 0.19936 0.75681 0.86062 0.0
C405 C 0.24952 0.79099 0.80292 0.0
C406 C 0.18513 0.76594 0.80519 0.0
C407 C 0.20272 0.78693 0.7484 0.0
H408 H 0.42088 0.24622 0.66961 0.0
H409 H 0.52089 0.3014 0.66484 0.0
H410 H 0.52508 0.26699 0.75429 0.0
H411 H 0.50131 0.22156 0.83498 0.0
H412 H 0.40173 0.16657 0.84772 0.0
H413 H 0.3966 0.20028 0.75471 0.0
C414 C 0.44353 0.25069 0.68828 0.0
C415 C 0.47041 0.27654 0.6599 0.0
C416 C 0.44602 0.23074 0.74133 0.0
C417 C 0.49961 0.2819 0.6853 0.0
C418 C 0.50219 0.26212 0.73664 0.0
C419 C 0.47843 0.21676 0.8172 0.0
C420 C 0.452 0.19145 0.84811 0.0
C421 C 0.47565 0.2365 0.76498 0.0
C422 C 0.42254 0.18592 0.82491 0.0
C423 C 0.41958 0.20521 0.77166 0.0
H424 H 0.22021 0.49769 0.70324 0.0
H425 H 0.17799 0.40045 0.64854 0.0
H426 H 0.21269 0.39498 0.73752 0.0
H427 H 0.25629 0.41826 0.82918 0.0
H428 H 0.29783 0.51569 0.88197 0.0
H429 H 0.26239 0.52045 0.79545 0.0
C430 C 0.21835 0.47519 0.71097 0.0
C431 C 0.19639 0.44957 0.66883 0.0
C432 C 0.23854 0.47222 0.76177 0.0
C433 C 0.19455 0.42065 0.68005 0.0
C434 C 0.21452 0.4175 0.73083 0.0
C435 C 0.25762 0.44053 0.82163 0.0
C436 C 0.27984 0.46654 0.86243 0.0
C437 C 0.23686 0.44321 0.77158 0.0
C438 C 0.281 0.49517 0.8519 0.0
C439 C 0.26069 0.49799 0.80225 0.0
H440 H 0.83945 0.23167 0.85126 0.0
H441 H 0.83118 0.31184 0.79815 0.0
H442 H 0.79353 0.28308 0.69897 0.0
H443 H 0.76031 0.23444 0.63346 0.0
H444 H 0.76647 0.15303 0.68756 0.0
H445 H 0.80725 0.18275 0.78012 0.0
C446 C 0.82985 0.24286 0.81661 0.0
C447 C 0.83815 0.27381 0.83122 0.0
C448 C 0.80739 0.22582 0.76084 0.0
C449 C 0.82515 0.28803 0.78734 0.0
C450 C 0.8035 0.27157 0.73101 0.0
C451 C 0.77052 0.2231 0.66536 0.0
C452 C 0.76006 0.19145 0.65378 0.0
C453 C 0.79392 0.24028 0.71842 0.0
C454 C 0.7739 0.17734 0.69541 0.0
C455 C 0.79732 0.19435 0.74834 0.0
H456 H 0.33672 0.96168 0.31808 0.0
H457 H 0.42733 0.98369 0.40036 0.0
H458 H 0.45136 0.03025 0.32469 0.0
H459 H 0.44792 0.0625 0.22789 0.0
H460 H 0.35903 0.04143 0.13685 0.0
H461 H 0.33313 0.99746 0.22402 0.0
C462 C 0.36163 0.97687 0.31952 0.0
C463 C 0.3802 0.9688 0.36343 0.0
C464 C 0.37571 1.00386 0.27439 0.0
C465 C 0.4125 0.98885 0.36552 0.0
C466 C 0.42636 0.01568 0.32264 0.0
C467 C 0.42282 0.04851 0.22745 0.0
C468 C 0.4055 0.05497 0.17538 0.0
C469 C 0.40834 0.02301 0.27567 0.0
C470 C 0.37295 0.03692 0.17647 0.0
C471 C 0.35815 0.01161 0.22588 0.0
H472 H 0.37622 0.35677 0.38705 0.0
H473 H 0.45425 0.36713 0.25767 0.0
H474 H 0.43635 0.38327 0.14744 0.0
H475 H 0.4022 0.39999 0.09207 0.0
H476 H 0.32484 0.39226 0.21993 0.0
H477 H 0.33849 0.36939 0.32572 0.0
C478 C 0.38869 0.36174 0.33398 0.0
C479 C 0.41642 0.36059 0.33018 0.0
C480 C 0.37866 0.37198 0.27084 0.0
C481 C 0.43279 0.36772 0.26167 0.0
C482 C 0.42267 0.37714 0.19875 0.0
C483 C 0.38803 0.39301 0.14267 0.0
C484 C 0.36267 0.39815 0.14806 0.0
C485 C 0.39622 0.38027 0.20336 0.0
C486 C 0.34449 0.38861 0.21403 0.0
C487 C 0.35238 0.37563 0.27478 0.0
H488 H 0.03745 0.37079 0.38007 0.0
H489 H 0.09914 0.44717 0.23819 0.0
H490 H 0.06225 0.42599 0.13362 0.0
H491 H 1.0109 0.38972 0.08791 0.0
H492 H 0.94594 0.31544 0.23024 0.0
H493 H 0.9859 0.33136 0.32922 0.0
C494 C 0.04295 0.38227 0.32558 0.0
C495 C 0.07089 0.41042 0.31624 0.0
C496 C 0.021 0.37054 0.26649 0.0
C497 C 0.07773 0.42552 0.24621 0.0
C498 C 0.05665 0.41347 0.18668 0.0
C499 C 1.00538 0.37676 0.14039 0.0
C500 C 0.97532 0.35176 0.15235 0.0
C501 C 0.02792 0.38661 0.19706 0.0
C502 C 0.96887 0.33484 0.21986 0.0
C503 C 0.99166 0.34409 0.27649 0.0
H504 H 0.62631 0.95347 0.23574 0.0
H505 H 0.64092 1.01031 0.03948 0.0
H506 H 0.66543 0.05708 0.11761 0.0
H507 H 0.67635 0.08125 0.24418 0.0
H508 H 0.65684 0.02375 0.4413 0.0
H509 H 0.64108 0.97811 0.36147 0.0
C510 C 0.63567 0.97619 0.21023 0.0
C511 C 0.63202 0.97861 0.13235 0.0
C512 C 0.64856 1.00292 0.25601 0.0
C513 C 0.64358 1.00806 0.09962 0.0
C514 C 0.65747 0.03477 0.14423 0.0
C515 C 0.66938 0.05882 0.26916 0.0
C516 C 0.66779 0.05568 0.34801 0.0
C517 C 0.65918 0.03245 0.22284 0.0
C518 C 0.6582 0.02651 0.38037 0.0
C519 C 0.6491 1.00043 0.33485 0.0
H520 H 0.6715 0.60188 0.24375 0.0
H521 H 0.69609 0.67142 0.07195 0.0
H522 H 0.67879 0.69991 0.15377 0.0
H523 H 0.64924 0.70038 0.26808 0.0
H524 H 0.62501 0.62947 0.43678 0.0
H525 H 0.64984 0.60648 0.36335 0.0
C526 C 0.67391 0.62378 0.22524 0.0
C527 C 0.68501 0.6346 0.15231 0.0
C528 C 0.66354 0.63959 0.27191 0.0
C529 C 0.68794 0.66288 0.12844 0.0
C530 C 0.67769 0.67895 0.1749 0.0
C531 C 0.65021 0.68042 0.28924 0.0
C532 C 0.63515 0.66645 0.35736 0.0
C533 C 0.66437 0.66692 0.24585 0.0
C534 C 0.63633 0.64047 0.38427 0.0
C535 C 0.65045 0.62724 0.34226 0.0
H536 H 0.95426 0.61275 0.26614 0.0
H537 H 1.01506 0.6364 0.459 0.0
H538 H 0.06034 0.66317 0.37746 0.0
H539 H 0.08285 0.67441 0.24949 0.0
H540 H 0.02203 0.64649 0.05599 0.0
H541 H 0.97686 0.62738 0.13861 0.0
C542 C 0.97743 0.62438 0.29012 0.0
C543 C 0.9814 0.62255 0.36811 0.0
C544 C 1.00347 0.6388 0.24248 0.0
C545 C 1.01151 0.63732 0.3988 0.0
C546 C 0.03743 0.65262 0.35226 0.0
C547 C 0.05973 0.66481 0.22581 0.0
C548 C 0.05564 0.66182 0.1472 0.0
C549 C 0.03375 0.65273 0.27375 0.0
C550 C 0.02559 0.64888 0.11668 0.0
C551 C 0.99977 0.63789 0.1638 0.0
H552 H 0.63225 0.06352 0.71267 0.0
H553 H 0.69779 0.04312 0.60436 0.0
H554 H 0.68335 0.99963 0.69169 0.0
H555 H 0.64829 0.96469 0.79319 0.0
H556 H 0.5815 0.98587 0.89214 0.0
H557 H 0.60013 0.03154 0.81388 0.0
C558 C 0.64357 0.0497 0.70806 0.0
C559 C 0.66573 0.05627 0.65153 0.0
C560 C 0.63462 0.02456 0.75647 0.0
C561 C 0.68056 0.03848 0.64746 0.0
C562 C 0.67216 0.0135 0.69703 0.0
C563 C 0.63807 0.97948 0.79745 0.0
C564 C 0.61314 0.97155 0.84715 0.0
C565 C 0.64862 1.00585 0.75081 0.0
C566 C 0.60019 0.99101 0.85293 0.0
C567 C 0.61093 0.01729 0.80859 0.0
H568 H 0.66334 0.65001 0.90086 0.0
H569 H 0.69673 0.60481 0.75044 0.0
H570 H 0.68106 0.62398 0.6408 0.0
H571 H 0.65281 0.64895 0.58919 0.0
H572 H 0.62211 0.69662 0.7395 0.0
H573 H 0.64217 0.68152 0.84828 0.0
C574 C 0.66759 0.64485 0.84392 0.0
C575 C 0.68076 0.62585 0.8331 0.0
C576 C 0.65891 0.65624 0.78161 0.0
C577 C 0.68664 0.6195 0.75957 0.0
C578 C 0.67752 0.63027 0.69712 0.0
C579 C 0.65104 0.65643 0.64576 0.0
C580 C 0.63582 0.67353 0.65694 0.0
C581 C 0.6629 0.64796 0.70761 0.0
C582 C 0.63388 0.68349 0.72996 0.0
C583 C 0.64512 0.6747 0.79203 0.0
H584 H 0.96321 0.64098 0.72948 0.0
H585 H 1.00064 0.59985 0.57784 0.0
H586 H 0.04901 0.6231 0.64818 0.0
H587 H 0.07805 0.649 0.76149 0.0
H588 H 0.04176 0.68945 0.91806 0.0
H589 H 0.99604 0.67318 0.83726 0.0
C590 C 0.98229 0.6378 0.71135 0.0
C591 C 0.97842 0.61867 0.649 0.0
C592 C 1.01015 0.65084 0.75341 0.0
C593 C 1.00314 0.61448 0.62585 0.0
C594 C 0.0308 0.62766 0.66615 0.0
C595 C 0.06039 0.65477 0.77714 0.0
C596 C 0.06304 0.67006 0.84566 0.0
C597 C 0.03416 0.64496 0.73134 0.0
C598 C 0.04022 0.67772 0.86519 0.0
C599 C 1.01395 0.66818 0.81936 0.0
H600 H 0.33709 0.97518 0.65717 0.0
H601 H 0.41504 0.96044 0.68763 0.0
H602 H 0.43652 1.00055 0.78369 0.0
H603 H 0.43441 0.04006 0.85637 0.0
H604 H 0.35884 0.05854 0.83053 0.0
H605 H 0.33553 0.0174 0.73332 0.0
C606 C 0.35847 0.98058 0.686 0.0
C607 C 0.37428 0.96457 0.66641 0.0
C608 C 0.37137 1.00465 0.74049 0.0
C609 C 0.40233 0.97217 0.70251 0.0
C610 C 0.41476 0.99526 0.75701 0.0
C611 C 0.41271 0.03516 0.8299 0.0
C612 C 0.39817 0.05205 0.85124 0.0
C613 C 0.39966 0.01171 0.77583 0.0
C614 C 0.3705 0.04585 0.81493 0.0
C615 C 0.35711 0.02217 0.75996 0.0
H616 H 0.35971 0.37161 0.88301 0.0
H617 H 0.36581 0.44566 0.74452 0.0
H618 H 0.38637 0.42927 0.63982 0.0
H619 H 0.40879 0.39837 0.5938 0.0
H620 H 0.40456 0.32488 0.73168 0.0
H621 H 0.37714 0.33642 0.83037 0.0
C622 C 0.36445 0.38328 0.82883 0.0
C623 C 0.36085 0.40946 0.82068 0.0
C624 C 0.37737 0.37436 0.76959 0.0
C625 C 0.36796 0.42513 0.75125 0.0
C626 C 0.38007 0.41601 0.69181 0.0
C627 C 0.4017 0.38471 0.64523 0.0
C628 C 0.40917 0.36115 0.65591 0.0
C629 C 0.38596 0.39143 0.70137 0.0
C630 C 0.39927 0.3433 0.72228 0.0
C631 C 0.3836 0.3499 0.77873 0.0
H632 H 0.95518 0.37272 0.75989 0.0
H633 H 1.00133 0.34323 0.91775 0.0
H634 H 0.04497 0.35958 0.82986 0.0
H635 H 0.07178 0.38663 0.7109 0.0
H636 H 0.02212 0.41274 0.55322 0.0
H637 H 0.97833 0.39309 0.63738 0.0
C638 C 0.97465 0.36952 0.77443 0.0
C639 C 0.97532 0.35709 0.84476 0.0
C640 C 0.99922 0.37855 0.72367 0.0
C641 C 1.00041 0.3527 0.86327 0.0
C642 C 0.02539 0.3622 0.81329 0.0
C643 C 0.05119 0.38752 0.69466 0.0
C644 C 0.05078 0.40184 0.62636 0.0
C645 C 0.02536 0.37576 0.74363 0.0
C646 C 0.02365 0.40252 0.60598 0.0
C647 C 0.99834 0.39121 0.65406 0.0
H648 H 0.55071 0.17439 0.20193 0.0
H649 H 0.53588 0.09024 0.09251 0.0
H650 H 0.57095 0.08612 0.18008 0.0
H651 H 0.60456 0.10463 0.28989 0.0
H652 H 0.62109 0.18858 0.40207 0.0
H653 H 0.58708 0.19451 0.31147 0.0
C654 C 0.55537 0.15534 0.19709 0.0
C655 C 0.54035 0.13265 0.14068 0.0
C656 C 0.57587 0.15286 0.24836 0.0
C657 C 0.54676 0.10806 0.13537 0.0
C658 C 0.56692 0.10556 0.18555 0.0
C659 C 0.6008 0.12428 0.29467 0.0
C660 C 0.61515 0.14591 0.3531 0.0
C661 C 0.58133 0.12757 0.24266 0.0
C662 C 0.61026 0.17145 0.35768 0.0
C663 C 0.59075 0.17486 0.30593 0.0
H664 H 0.41912 0.56961 0.14648 0.0
H665 H 0.43645 0.49503 0.20313 0.0
H666 H 0.47315 0.52714 0.30072 0.0
H667 H 0.50081 0.5764 0.36852 0.0
H668 H 0.48385 0.6512 0.31201 0.0
H669 H 0.44652 0.61887 0.21545 0.0
C670 C 0.43083 0.5603 0.18028 0.0
C671 C 0.42511 0.52998 0.16719 0.0
C672 C 0.45205 0.57893 0.23609 0.0
C673 C 0.44051 0.51834 0.21166 0.0
C674 C 0.46151 0.53668 0.26751 0.0
C675 C 0.48899 0.58571 0.33516 0.0
C676 C 0.49516 0.61621 0.34759 0.0
C677 C 0.46758 0.56704 0.27988 0.0
C678 C 0.47956 0.62781 0.30374 0.0
C679 C 0.45819 0.60933 0.24852 0.0
H680 H 0.85517 0.45488 0.34419 0.0
H681 H 0.95474 0.51348 0.35228 0.0
H682 H 0.96094 0.48032 0.2618 0.0
H683 H 0.93862 0.43537 0.17776 0.0
H684 H 0.83927 0.37731 0.16437 0.0
H685 H 0.83264 0.40929 0.25934 0.0
C686 C 0.87819 0.46032 0.32623 0.0
C687 C 0.90433 0.48671 0.35527 0.0
C688 C 0.88177 0.44119 0.27308 0.0
C689 C 0.93404 0.49344 0.33097 0.0
C690 C 0.93774 0.47442 0.27915 0.0
C691 C 0.91552 0.42955 0.19603 0.0
C692 C 0.88954 0.40403 0.16395 0.0
C693 C 0.91182 0.44831 0.24961 0.0
C694 C 0.85973 0.39698 0.1879 0.0
C695 C 0.85588 0.41525 0.24224 0.0
H696 H 0.45557 0.90582 0.39785 0.0
H697 H 0.37435 0.8283 0.3005 0.0
H698 H 0.40663 0.82351 0.20237 0.0
H699 H 0.45799 0.84368 0.14033 0.0
H700 H 0.53783 0.92233 0.23907 0.0
H701 H 0.50595 0.92408 0.34115 0.0
C702 C 0.44475 0.88773 0.35547 0.0
C703 C 0.41251 0.86759 0.35633 0.0
C704 C 0.46328 0.8853 0.29945 0.0
C705 C 0.39911 0.84418 0.30108 0.0
C706 C 0.41756 0.84146 0.24496 0.0
C707 C 0.46837 0.86085 0.1849 0.0
C708 C 0.50018 0.88295 0.18202 0.0
C709 C 0.44968 0.86216 0.24308 0.0
C710 C 0.51336 0.90525 0.23972 0.0
C711 C 0.49516 0.9063 0.29808 0.0
H712 H 0.63041 0.45919 0.15368 0.0
H713 H 0.60751 0.53068 0.19956 0.0
H714 H 0.56987 0.49803 0.29448 0.0
H715 H 0.54206 0.44876 0.36062 0.0
H716 H 0.56236 0.37557 0.31225 0.0
H717 H 0.60207 0.40905 0.22149 0.0
C718 C 0.61745 0.46765 0.18543 0.0
C719 C 0.62177 0.4973 0.17026 0.0
C720 C 0.59508 0.44832 0.23854 0.0
C721 C 0.6045 0.5079 0.21051 0.0
C722 C 0.58293 0.48924 0.26454 0.0
C723 C 0.55517 0.44005 0.33043 0.0
C724 C 0.54922 0.40969 0.34344 0.0
C725 C 0.57774 0.45929 0.27826 0.0
C726 C 0.56635 0.39882 0.30324 0.0
C727 C 0.58918 0.418 0.25153 0.0
H728 H 0.11422 0.54012 0.36915 0.0
H729 H 0.20154 0.54934 0.29889 0.0
H730 H 0.20496 0.58472 0.19727 0.0
H731 H 0.18183 0.61207 0.12695 0.0
H732 H 0.09374 0.60016 0.2016 0.0
H733 H 0.09211 0.56672 0.30303 0.0
C734 C 0.13422 0.5498 0.33208 0.0
C735 C 0.15762 0.54199 0.34196 0.0
C736 C 0.13581 0.56963 0.2742 0.0
C737 C 0.1832 0.55496 0.29282 0.0
C738 C 0.1851 0.57514 0.23466 0.0
C739 C 0.16237 0.60219 0.1656 0.0
C740 C 0.13782 0.60854 0.15596 0.0
C741 C 0.16137 0.58253 0.22452 0.0
C742 C 0.11279 0.59553 0.20673 0.0
C743 C 0.11183 0.57641 0.26514 0.0
H744 H 0.47301 0.8986 0.90861 0.0
H745 H 0.4911 0.83159 0.79916 0.0
H746 H 0.45495 0.82554 0.69722 0.0
H747 H 0.42152 0.84301 0.63406 0.0
H748 H 0.40561 0.91114 0.74539 0.0
H749 H 0.43746 0.91289 0.85195 0.0
C750 C 0.46898 0.88249 0.86277 0.0
C751 C 0.48499 0.86585 0.86103 0.0
C752 C 0.44861 0.87945 0.80445 0.0
C753 C 0.4791 0.84475 0.8017 0.0
C754 C 0.45852 0.84137 0.74331 0.0
C755 C 0.42473 0.85782 0.68228 0.0
C756 C 0.41171 0.8773 0.68153 0.0
C757 C 0.44359 0.85909 0.74331 0.0
C758 C 0.41596 0.89643 0.74416 0.0
C759 C 0.43408 0.89739 0.80519 0.0
H760 H 0.63034 0.46383 0.84272 0.0
H761 H 0.58727 0.52085 0.85014 0.0
H762 H 0.54887 0.48752 0.75766 0.0
H763 H 0.52764 0.44277 0.67299 0.0
H764 H 0.5713 0.38651 0.65938 0.0
H765 H 0.60909 0.41878 0.75566 0.0
C766 C 0.61247 0.46885 0.82425 0.0
C767 C 0.61178 0.49484 0.85363 0.0
C768 C 0.59049 0.44972 0.76974 0.0
C769 C 0.58857 0.50114 0.82846 0.0
C770 C 0.56647 0.48202 0.77555 0.0
C771 C 0.5453 0.43741 0.69128 0.0
C772 C 0.54655 0.4122 0.65902 0.0
C773 C 0.56723 0.45634 0.74562 0.0
C774 C 0.56984 0.40585 0.68305 0.0
C775 C 0.59146 0.42429 0.7382 0.0
H776 H 0.18149 0.57209 0.63319 0.0
H777 H 0.09431 0.49492 0.70569 0.0
H778 H 0.08954 0.52705 0.80234 0.0
H779 H 0.10876 0.57679 0.8641 0.0
H780 H 0.19561 0.65507 0.7949 0.0
H781 H 0.20173 0.6228 0.699 0.0
C782 C 0.16164 0.5623 0.67065 0.0
C783 C 0.13822 0.53113 0.66176 0.0
C784 C 0.15878 0.58112 0.72626 0.0
C785 C 0.11255 0.51885 0.71064 0.0
C786 C 0.10976 0.53721 0.76606 0.0
C787 C 0.12911 0.58699 0.82818 0.0
C788 C 0.15163 0.61842 0.83672 0.0
C789 C 0.1325 0.56839 0.77379 0.0
C790 C 0.17784 0.63098 0.78957 0.0
C791 C 0.18138 0.6125 0.73479 0.0
H792 H 0.57665 0.09936 0.63309 0.0
H793 H 0.65223 0.18565 0.71639 0.0
H794 H 0.61759 0.18895 0.80955 0.0
H795 H 0.56595 0.16725 0.86687 0.0
H796 H 0.4908 0.08062 0.78359 0.0
H797 H 0.52534 0.07782 0.68977 0.0
C798 C 0.58568 0.11896 0.67154 0.0
C799 C 0.61705 0.14229 0.66753 0.0
C800 C 0.56568 0.12075 0.72448 0.0
C801 C 0.62824 0.16737 0.71819 0.0
C802 C 0.60841 0.16931 0.77129 0.0
C803 C 0.557 0.14785 0.82784 0.0
C804 C 0.52575 0.12419 0.83222 0.0
C805 C 0.57707 0.14617 0.77469 0.0
C806 C 0.5147 0.09912 0.78155 0.0
C807 C 0.53445 0.09747 0.728 0.0
H808 H 0.46523 0.61614 0.64493 0.0
H809 H 0.53853 0.59675 0.70131 0.0
H810 H 0.50642 0.56123 0.80005 0.0
H811 H 0.45761 0.53517 0.86948 0.0
H812 H 0.38387 0.55395 0.81421 0.0
H813 H 0.41614 0.59017 0.71594 0.0
C814 C 0.47423 0.6042 0.67888 0.0
C815 C 0.50427 0.6091 0.66525 0.0
C816 C 0.45556 0.58364 0.73574 0.0
C817 C 0.51549 0.59339 0.71005 0.0
C818 C 0.49714 0.57304 0.76669 0.0
C819 C 0.44851 0.54717 0.83614 0.0
C820 C 0.4183 0.5418 0.84948 0.0
C821 C 0.46713 0.5679 0.77981 0.0
C822 C 0.40702 0.55762 0.8054 0.0
C823 C 0.42547 0.57835 0.74912 0.0
H824 H 0.92584 0.48286 0.6468 0.0
H825 H 0.83353 0.46697 0.68889 0.0
H826 H 0.82487 0.42638 0.78017 0.0
H827 H 0.8448 0.39681 0.85229 0.0
H828 H 0.93797 0.41542 0.81038 0.0
H829 H 0.94477 0.45306 0.71357 0.0
C830 C 0.90373 0.47057 0.67567 0.0
C831 C 0.88046 0.47812 0.66118 0.0
C832 C 0.89897 0.44747 0.72773 0.0
C833 C 0.85196 0.46177 0.69925 0.0
C834 C 0.84694 0.43848 0.75126 0.0
C835 C 0.86627 0.40877 0.82072 0.0
C836 C 0.89084 0.4034 0.8378 0.0
C837 C 0.87038 0.43121 0.76632 0.0
C838 C 0.9188 0.41928 0.79781 0.0
C839 C 0.92275 0.44088 0.74279 0.0
loop_
_geom_bond_atom_site_label_1
_geom_bond_atom_site_label_2
_geom_bond_distance
_geom_bond_site_symmetry_2
_ccdc_geom_bond_type
Fe0 O2 1.918 . S
Fe0 O5 1.997 1_554 S
Fe0 O6 2.002 1_554 S
Fe0 O11 1.976 . S
Fe0 O14 1.996 . S
Fe1 O2 1.918 . S
Fe1 O9 1.997 1_554 S
Fe1 O12 1.996 . S
Fe1 O16 1.976 . S
Fe1 O19 2.002 1_554 S
O2 Fe0 1.918 . S
O2 Fe1 1.918 . S
O2 Fe3 1.918 . S
Fe3 O2 1.918 . S
Fe3 O4 2.002 1_554 S
Fe3 O13 1.976 . S
Fe3 O17 1.996 . S
Fe3 O20 1.997 1_554 S
O4 Fe3 2.002 1_556 S
O4 C21 1.295 . S
O5 Fe0 1.997 1_556 S
O5 C21 1.235 . S
O6 Fe0 2.002 1_556 S
O6 C7 1.295 . S
C7 O6 1.295 . S
C7 O9 1.235 . S
C8 O13 1.287 . S
C8 O14 1.255 . S
O9 Fe1 1.997 1_556 S
O9 C7 1.235 . S
C10 O16 1.287 . S
C10 O17 1.255 . S
O11 Fe0 1.976 . S
O11 C18 1.287 . S
O12 Fe1 1.996 . S
O12 C18 1.255 . S
O13 Fe3 1.976 . S
O13 C8 1.287 . S
O14 Fe0 1.996 . S
O14 C8 1.255 . S
C15 O19 1.295 . S
C15 O20 1.235 . S
O16 Fe1 1.976 . S
O16 C10 1.287 . S
O17 Fe3 1.996 . S
O17 C10 1.255 . S
C18 O11 1.287 . S
C18 O12 1.255 . S
O19 Fe1 2.002 1_556 S
O19 C15 1.295 . S
O20 Fe3 1.997 1_556 S
O20 C15 1.235 . S
C21 O4 1.295 . S
C21 O5 1.235 . S
Fe22 O24 1.918 . S
Fe22 O27 1.997 1_554 S
Fe22 O28 2.002 1_554 S
Fe22 O33 1.976 . S
Fe22 O36 1.996 . S
Fe23 O24 1.918 . S
Fe23 O31 1.997 1_554 S
Fe23 O34 1.996 . S
Fe23 O38 1.976 . S
Fe23 O41 2.002 1_554 S
O24 Fe22 1.918 . S
O24 Fe23 1.918 . S
O24 Fe25 1.918 . S
Fe25 O24 1.918 . S
Fe25 O26 2.002 1_554 S
Fe25 O35 1.976 . S
Fe25 O39 1.996 . S
Fe25 O42 1.997 1_554 S
O26 Fe25 2.002 1_556 S
O26 C43 1.295 . S
O27 Fe22 1.997 1_556 S
O27 C43 1.235 . S
O28 Fe22 2.002 1_556 S
O28 C29 1.295 . S
C29 O28 1.295 . S
C29 O31 1.235 . S
C30 O35 1.287 . S
C30 O36 1.255 . S
O31 Fe23 1.997 1_556 S
O31 C29 1.235 . S
C32 O38 1.287 . S
C32 O39 1.255 . S
O33 Fe22 1.976 . S
O33 C40 1.287 . S
O34 Fe23 1.996 . S
O34 C40 1.255 . S
O35 Fe25 1.976 . S
O35 C30 1.287 . S
O36 Fe22 1.996 . S
O36 C30 1.255 . S
C37 O41 1.295 . S
C37 O42 1.235 . S
O38 Fe23 1.976 . S
O38 C32 1.287 . S
O39 Fe25 1.996 . S
O39 C32 1.255 . S
C40 O33 1.287 . S
C40 O34 1.255 . S
O41 Fe23 2.002 1_556 S
O41 C37 1.295 . S
O42 Fe25 1.997 1_556 S
O42 C37 1.235 . S
C43 O26 1.295 . S
C43 O27 1.235 . S
Fe44 O46 1.918 . S
Fe44 O49 1.997 1_554 S
Fe44 O50 2.002 1_554 S
Fe44 O55 1.976 . S
Fe44 O58 1.996 . S
Fe45 O46 1.918 . S
Fe45 O53 1.997 1_554 S
Fe45 O56 1.996 . S
Fe45 O60 1.976 . S
Fe45 O63 2.002 1_554 S
O46 Fe44 1.918 . S
O46 Fe45 1.918 . S
O46 Fe47 1.918 . S
Fe47 O46 1.918 . S
Fe47 O48 2.002 1_554 S
Fe47 O57 1.976 . S
Fe47 O61 1.996 . S
Fe47 O64 1.997 1_554 S
O48 Fe47 2.002 1_556 S
O48 C65 1.295 . S
O49 Fe44 1.997 1_556 S
O49 C65 1.235 . S
O50 Fe44 2.002 1_556 S
O50 C51 1.295 . S
C51 O50 1.295 . S
C51 O53 1.235 . S
C52 O57 1.287 . S
C52 O58 1.255 . S
O53 Fe45 1.997 1_556 S
O53 C51 1.235 . S
C54 O60 1.287 . S
C54 O61 1.255 . S
O55 Fe44 1.976 . S
O55 C62 1.287 . S
O56 Fe45 1.996 . S
O56 C62 1.255 . S
O57 Fe47 1.976 . S
O57 C52 1.287 . S
O58 Fe44 1.996 . S
O58 C52 1.255 . S
C59 O63 1.295 . S
C59 O64 1.235 . S
O60 Fe45 1.976 . S
O60 C54 1.287 . S
O61 Fe47 1.996 . S
O61 C54 1.255 . S
C62 O55 1.287 . S
C62 O56 1.255 . S
O63 Fe45 2.002 1_556 S
O63 C59 1.295 . S
O64 Fe47 1.997 1_556 S
O64 C59 1.235 . S
C65 O48 1.295 . S
C65 O49 1.235 . S
Fe66 O68 1.918 . S
Fe66 O71 1.997 1_554 S
Fe66 O72 2.002 1_554 S
Fe66 O77 1.976 . S
Fe66 O80 1.996 . S
Fe67 O68 1.918 . S
Fe67 O75 1.997 1_554 S
Fe67 O78 1.996 . S
Fe67 O82 1.976 . S
Fe67 O85 2.002 1_554 S
O68 Fe66 1.918 . S
O68 Fe67 1.918 . S
O68 Fe69 1.918 . S
Fe69 O68 1.918 . S
Fe69 O70 2.002 1_554 S
Fe69 O79 1.976 . S
Fe69 O83 1.996 . S
Fe69 O86 1.997 1_554 S
O70 Fe69 2.002 1_556 S
O70 C87 1.295 . S
O71 Fe66 1.997 1_556 S
O71 C87 1.235 . S
O72 Fe66 2.002 1_556 S
O72 C73 1.295 . S
C73 O72 1.295 . S
C73 O75 1.235 . S
C74 O79 1.287 . S
C74 O80 1.255 . S
O75 Fe67 1.997 1_556 S
O75 C73 1.235 . S
C76 O82 1.287 . S
C76 O83 1.255 . S
O77 Fe66 1.976 . S
O77 C84 1.287 . S
O78 Fe67 1.996 . S
O78 C84 1.255 . S
O79 Fe69 1.976 . S
O79 C74 1.287 . S
O80 Fe66 1.996 . S
O80 C74 1.255 . S
C81 O85 1.295 . S
C81 O86 1.235 . S
O82 Fe67 1.976 . S
O82 C76 1.287 . S
O83 Fe69 1.996 . S
O83 C76 1.255 . S
C84 O77 1.287 . S
C84 O78 1.255 . S
O85 Fe67 2.002 1_556 S
O85 C81 1.295 . S
O86 Fe69 1.997 1_556 S
O86 C81 1.235 . S
C87 O70 1.295 . S
C87 O71 1.235 . S
Fe88 O90 1.918 . S
Fe88 O93 1.997 1_554 S
Fe88 O94 2.002 1_554 S
Fe88 O99 1.976 . S
Fe88 O102 1.996 . S
Fe89 O90 1.918 . S
Fe89 O97 1.997 1_554 S
Fe89 O100 1.996 . S
Fe89 O104 1.976 . S
Fe89 O107 2.002 1_554 S
O90 Fe88 1.918 . S
O90 Fe89 1.918 . S
O90 Fe91 1.918 . S
Fe91 O90 1.918 . S
Fe91 O92 2.002 1_554 S
Fe91 O101 1.976 . S
Fe91 O105 1.996 . S
Fe91 O108 1.997 1_554 S
O92 Fe91 2.002 1_556 S
O92 C109 1.295 . S
O93 Fe88 1.997 1_556 S
O93 C109 1.235 . S
O94 Fe88 2.002 1_556 S
O94 C95 1.295 . S
C95 O94 1.295 . S
C95 O97 1.235 . S
C96 O101 1.287 . S
C96 O102 1.255 . S
O97 Fe89 1.997 1_556 S
O97 C95 1.235 . S
C98 O104 1.287 . S
C98 O105 1.255 . S
O99 Fe88 1.976 . S
O99 C106 1.287 . S
O100 Fe89 1.996 . S
O100 C106 1.255 . S
O101 Fe91 1.976 . S
O101 C96 1.287 . S
O102 Fe88 1.996 . S
O102 C96 1.255 . S
C103 O107 1.295 . S
C103 O108 1.235 . S
O104 Fe89 1.976 . S
O104 C98 1.287 . S
O105 Fe91 1.996 . S
O105 C98 1.255 . S
C106 O99 1.287 . S
C106 O100 1.255 . S
O107 Fe89 2.002 1_556 S
O107 C103 1.295 . S
O108 Fe91 1.997 1_556 S
O108 C103 1.235 . S
C109 O92 1.295 . S
C109 O93 1.235 . S
Fe110 O112 1.918 . S
Fe110 O115 1.997 1_554 S
Fe110 O116 2.002 1_554 S
Fe110 O121 1.976 . S
Fe110 O124 1.996 . S
Fe111 O112 1.918 . S
Fe111 O119 1.997 1_554 S
Fe111 O122 1.996 . S
Fe111 O126 1.976 . S
Fe111 O129 2.002 1_554 S
O112 Fe110 1.918 . S
O112 Fe111 1.918 . S
O112 Fe113 1.918 . S
Fe113 O112 1.918 . S
Fe113 O114 2.002 1_554 S
Fe113 O123 1.976 . S
Fe113 O127 1.996 . S
Fe113 O130 1.997 1_554 S
O114 Fe113 2.002 1_556 S
O114 C131 1.295 . S
O115 Fe110 1.997 1_556 S
O115 C131 1.235 . S
O116 Fe110 2.002 1_556 S
O116 C117 1.295 . S
C117 O116 1.295 . S
C117 O119 1.235 . S
C118 O123 1.287 . S
C118 O124 1.255 . S
O119 Fe111 1.997 1_556 S
O119 C117 1.235 . S
C120 O126 1.287 . S
C120 O127 1.255 . S
O121 Fe110 1.976 . S
O121 C128 1.287 . S
O122 Fe111 1.996 . S
O122 C128 1.255 . S
O123 Fe113 1.976 . S
O123 C118 1.287 . S
O124 Fe110 1.996 . S
O124 C118 1.255 . S
C125 O129 1.295 . S
C125 O130 1.235 . S
O126 Fe111 1.976 . S
O126 C120 1.287 . S
O127 Fe113 1.996 . S
O127 C120 1.255 . S
C128 O121 1.287 . S
C128 O122 1.255 . S
O129 Fe111 2.002 1_556 S
O129 C125 1.295 . S
O130 Fe113 1.997 1_556 S
O130 C125 1.235 . S
C131 O114 1.295 . S
C131 O115 1.235 . S
Fe132 O134 1.918 . S
Fe132 O137 1.997 . S
Fe132 O138 2.002 . S
Fe132 O143 1.976 . S
Fe132 O146 1.996 . S
Fe133 O134 1.918 . S
Fe133 O141 1.997 . S
Fe133 O144 1.996 . S
Fe133 O148 1.976 . S
Fe133 O151 2.002 . S
O134 Fe132 1.918 . S
O134 Fe133 1.918 . S
O134 Fe135 1.918 . S
Fe135 O134 1.918 . S
Fe135 O136 2.002 . S
Fe135 O145 1.976 . S
Fe135 O149 1.996 . S
Fe135 O152 1.997 . S
O136 Fe135 2.002 . S
O136 C153 1.295 . S
O137 Fe132 1.997 . S
O137 C153 1.235 . S
O138 Fe132 2.002 . S
O138 C139 1.295 . S
C139 O138 1.295 . S
C139 O141 1.235 . S
C140 O145 1.287 . S
C140 O146 1.255 . S
O141 Fe133 1.997 . S
O141 C139 1.235 . S
C142 O148 1.287 . S
C142 O149 1.255 . S
O143 Fe132 1.976 . S
O143 C150 1.287 . S
O144 Fe133 1.996 . S
O144 C150 1.255 . S
O145 Fe135 1.976 . S
O145 C140 1.287 . S
O146 Fe132 1.996 . S
O146 C140 1.255 . S
C147 O151 1.295 . S
C147 O152 1.235 . S
O148 Fe133 1.976 . S
O148 C142 1.287 . S
O149 Fe135 1.996 . S
O149 C142 1.255 . S
C150 O143 1.287 . S
C150 O144 1.255 . S
O151 Fe133 2.002 . S
O151 C147 1.295 . S
O152 Fe135 1.997 . S
O152 C147 1.235 . S
C153 O136 1.295 . S
C153 O137 1.235 . S
Fe154 O156 1.918 . S
Fe154 O159 1.997 . S
Fe154 O160 2.002 . S
Fe154 O165 1.976 . S
Fe154 O168 1.996 . S
Fe155 O156 1.918 . S
Fe155 O163 1.997 . S
Fe155 O166 1.996 . S
Fe155 O170 1.976 . S
Fe155 O173 2.002 . S
O156 Fe154 1.918 . S
O156 Fe155 1.918 . S
O156 Fe157 1.918 . S
Fe157 O156 1.918 . S
Fe157 O158 2.002 . S
Fe157 O167 1.976 . S
Fe157 O171 1.996 . S
Fe157 O174 1.997 . S
O158 Fe157 2.002 . S
O158 C175 1.295 . S
O159 Fe154 1.997 . S
O159 C175 1.235 . S
O160 Fe154 2.002 . S
O160 C161 1.295 . S
C161 O160 1.295 . S
C161 O163 1.235 . S
C162 O167 1.287 . S
C162 O168 1.255 . S
O163 Fe155 1.997 . S
O163 C161 1.235 . S
C164 O170 1.287 . S
C164 O171 1.255 . S
O165 Fe154 1.976 . S
O165 C172 1.287 . S
O166 Fe155 1.996 . S
O166 C172 1.255 . S
O167 Fe157 1.976 . S
O167 C162 1.287 . S
O168 Fe154 1.996 . S
O168 C162 1.255 . S
C169 O173 1.295 . S
C169 O174 1.235 . S
O170 Fe155 1.976 . S
O170 C164 1.287 . S
O171 Fe157 1.996 . S
O171 C164 1.255 . S
C172 O165 1.287 . S
C172 O166 1.255 . S
O173 Fe155 2.002 . S
O173 C169 1.295 . S
O174 Fe157 1.997 . S
O174 C169 1.235 . S
C175 O158 1.295 . S
C175 O159 1.235 . S
Fe176 O178 1.918 . S
Fe176 O181 1.997 . S
Fe176 O182 2.002 . S
Fe176 O187 1.976 . S
Fe176 O190 1.996 . S
Fe177 O178 1.918 . S
Fe177 O185 1.997 . S
Fe177 O188 1.996 . S
Fe177 O192 1.976 . S
Fe177 O195 2.002 . S
O178 Fe176 1.918 . S
O178 Fe177 1.918 . S
O178 Fe179 1.918 . S
Fe179 O178 1.918 . S
Fe179 O180 2.002 . S
Fe179 O189 1.976 . S
Fe179 O193 1.996 . S
Fe179 O196 1.997 . S
O180 Fe179 2.002 . S
O180 C197 1.295 . S
O181 Fe176 1.997 . S
O181 C197 1.235 . S
O182 Fe176 2.002 . S
O182 C183 1.295 . S
C183 O182 1.295 . S
C183 O185 1.235 . S
C184 O189 1.287 . S
C184 O190 1.255 . S
O185 Fe177 1.997 . S
O185 C183 1.235 . S
C186 O192 1.287 . S
C186 O193 1.255 . S
O187 Fe176 1.976 . S
O187 C194 1.287 . S
O188 Fe177 1.996 . S
O188 C194 1.255 . S
O189 Fe179 1.976 . S
O189 C184 1.287 . S
O190 Fe176 1.996 . S
O190 C184 1.255 . S
C191 O195 1.295 . S
C191 O196 1.235 . S
O192 Fe177 1.976 . S
O192 C186 1.287 . S
O193 Fe179 1.996 . S
O193 C186 1.255 . S
C194 O187 1.287 . S
C194 O188 1.255 . S
O195 Fe177 2.002 . S
O195 C191 1.295 . S
O196 Fe179 1.997 . S
O196 C191 1.235 . S
C197 O180 1.295 . S
C197 O181 1.235 . S
Fe198 O200 1.918 . S
Fe198 O203 1.997 . S
Fe198 O204 2.002 . S
Fe198 O209 1.976 . S
Fe198 O212 1.996 . S
Fe199 O200 1.918 . S
Fe199 O207 1.997 . S
Fe199 O210 1.996 . S
Fe199 O214 1.976 . S
Fe199 O217 2.002 . S
O200 Fe198 1.918 . S
O200 Fe199 1.918 . S
O200 Fe201 1.918 . S
Fe201 O200 1.918 . S
Fe201 O202 2.002 . S
Fe201 O211 1.976 . S
Fe201 O215 1.996 . S
Fe201 O218 1.997 . S
O202 Fe201 2.002 . S
O202 C219 1.295 . S
O203 Fe198 1.997 . S
O203 C219 1.235 . S
O204 Fe198 2.002 . S
O204 C205 1.295 . S
C205 O204 1.295 . S
C205 O207 1.235 . S
C206 O211 1.287 . S
C206 O212 1.255 . S
O207 Fe199 1.997 . S
O207 C205 1.235 . S
C208 O214 1.287 . S
C208 O215 1.255 . S
O209 Fe198 1.976 . S
O209 C216 1.287 . S
O210 Fe199 1.996 . S
O210 C216 1.255 . S
O211 Fe201 1.976 . S
O211 C206 1.287 . S
O212 Fe198 1.996 . S
O212 C206 1.255 . S
C213 O217 1.295 . S
C213 O218 1.235 . S
O214 Fe199 1.976 . S
O214 C208 1.287 . S
O215 Fe201 1.996 . S
O215 C208 1.255 . S
C216 O209 1.287 . S
C216 O210 1.255 . S
O217 Fe199 2.002 . S
O217 C213 1.295 . S
O218 Fe201 1.997 . S
O218 C213 1.235 . S
C219 O202 1.295 . S
C219 O203 1.235 . S
Fe220 O222 1.918 . S
Fe220 O225 1.997 . S
Fe220 O226 2.002 . S
Fe220 O231 1.976 . S
Fe220 O234 1.996 . S
Fe221 O222 1.918 . S
Fe221 O229 1.997 . S
Fe221 O232 1.996 . S
Fe221 O236 1.976 . S
Fe221 O239 2.002 . S
O222 Fe220 1.918 . S
O222 Fe221 1.918 . S
O222 Fe223 1.918 . S
Fe223 O222 1.918 . S
Fe223 O224 2.002 . S
Fe223 O233 1.976 . S
Fe223 O237 1.996 . S
Fe223 O240 1.997 . S
O224 Fe223 2.002 . S
O224 C241 1.295 . S
O225 Fe220 1.997 . S
O225 C241 1.235 . S
O226 Fe220 2.002 . S
O226 C227 1.295 . S
C227 O226 1.295 . S
C227 O229 1.235 . S
C228 O233 1.287 . S
C228 O234 1.255 . S
O229 Fe221 1.997 . S
O229 C227 1.235 . S
C230 O236 1.287 . S
C230 O237 1.255 . S
O231 Fe220 1.976 . S
O231 C238 1.287 . S
O232 Fe221 1.996 . S
O232 C238 1.255 . S
O233 Fe223 1.976 . S
O233 C228 1.287 . S
O234 Fe220 1.996 . S
O234 C228 1.255 . S
C235 O239 1.295 . S
C235 O240 1.235 . S
O236 Fe221 1.976 . S
O236 C230 1.287 . S
O237 Fe223 1.996 . S
O237 C230 1.255 . S
C238 O231 1.287 . S
C238 O232 1.255 . S
O239 Fe221 2.002 . S
O239 C235 1.295 . S
O240 Fe223 1.997 . S
O240 C235 1.235 . S
C241 O224 1.295 . S
C241 O225 1.235 . S
Fe242 O244 1.918 . S
Fe242 O247 1.997 . S
Fe242 O248 2.002 . S
Fe242 O253 1.976 . S
Fe242 O256 1.996 . S
Fe243 O244 1.918 . S
Fe243 O251 1.997 . S
Fe243 O254 1.996 . S
Fe243 O258 1.976 . S
Fe243 O261 2.002 . S
O244 Fe242 1.918 . S
O244 Fe243 1.918 . S
O244 Fe245 1.918 . S
Fe245 O244 1.918 . S
Fe245 O246 2.002 . S
Fe245 O255 1.976 . S
Fe245 O259 1.996 . S
Fe245 O262 1.997 . S
O246 Fe245 2.002 . S
O246 C263 1.295 . S
O247 Fe242 1.997 . S
O247 C263 1.235 . S
O248 Fe242 2.002 . S
O248 C249 1.295 . S
C249 O248 1.295 . S
C249 O251 1.235 . S
C250 O255 1.287 . S
C250 O256 1.255 . S
O251 Fe243 1.997 . S
O251 C249 1.235 . S
C252 O258 1.287 . S
C252 O259 1.255 . S
O253 Fe242 1.976 . S
O253 C260 1.287 . S
O254 Fe243 1.996 . S
O254 C260 1.255 . S
O255 Fe245 1.976 . S
O255 C250 1.287 . S
O256 Fe242 1.996 . S
O256 C250 1.255 . S
C257 O261 1.295 . S
C257 O262 1.235 . S
O258 Fe243 1.976 . S
O258 C252 1.287 . S
O259 Fe245 1.996 . S
O259 C252 1.255 . S
C260 O253 1.287 . S
C260 O254 1.255 . S
O261 Fe243 2.002 . S
O261 C257 1.295 . S
O262 Fe245 1.997 . S
O262 C257 1.235 . S
C263 O246 1.295 . S
C263 O247 1.235 . S
H264 C270 0.930 . S
H265 C273 0.930 . S
H266 C274 0.930 . S
H267 C275 0.930 . S
H268 C278 0.930 . S
H269 C279 0.930 . S
C270 H264 0.930 . S
C270 C271 1.355 . S
C270 C272 1.415 . S
C271 C270 1.355 . S
C271 C273 1.419 . S
C272 C270 1.415 . S
C272 C277 1.425 . S
C272 C279 1.409 . S
C273 H265 0.930 . S
C273 C271 1.419 . S
C273 C274 1.362 . S
C274 H266 0.930 . S
C274 C273 1.362 . S
C274 C277 1.409 . S
C275 H267 0.930 . S
C275 C276 1.355 . S
C275 C277 1.415 . S
C276 C275 1.355 . S
C276 C278 1.419 . S
C277 C272 1.425 . S
C277 C274 1.409 . S
C277 C275 1.415 . S
C278 H268 0.930 . S
C278 C276 1.419 . S
C278 C279 1.362 . S
C279 H269 0.930 . S
C279 C272 1.409 . S
C279 C278 1.362 . S
H280 C286 0.930 . S
H281 C289 0.930 . S
H282 C290 0.930 . S
H283 C291 0.930 . S
H284 C294 0.930 . S
H285 C295 0.930 . S
C286 H280 0.930 . S
C286 C287 1.355 . S
C286 C288 1.415 . S
C287 C286 1.355 . S
C287 C289 1.419 . S
C288 C286 1.415 . S
C288 C293 1.425 . S
C288 C295 1.409 . S
C289 H281 0.930 . S
C289 C287 1.419 . S
C289 C290 1.362 . S
C290 H282 0.930 . S
C290 C289 1.362 . S
C290 C293 1.409 . S
C291 H283 0.930 . S
C291 C292 1.355 . S
C291 C293 1.415 . S
C292 C291 1.355 . S
C292 C294 1.419 . S
C293 C288 1.425 . S
C293 C290 1.409 . S
C293 C291 1.415 . S
C294 H284 0.930 . S
C294 C292 1.419 . S
C294 C295 1.362 . S
C295 H285 0.930 . S
C295 C288 1.409 . S
C295 C294 1.362 . S
H296 C302 0.930 . S
H297 C305 0.930 . S
H298 C306 0.930 . S
H299 C307 0.930 . S
H300 C310 0.930 . S
H301 C311 0.930 . S
C302 H296 0.930 . S
C302 C303 1.355 . S
C302 C304 1.415 . S
C303 C302 1.355 . S
C303 C305 1.419 . S
C304 C302 1.415 . S
C304 C309 1.425 . S
C304 C311 1.409 . S
C305 H297 0.930 . S
C305 C303 1.419 . S
C305 C306 1.362 . S
C306 H298 0.930 . S
C306 C305 1.362 . S
C306 C309 1.409 . S
C307 H299 0.930 . S
C307 C308 1.355 . S
C307 C309 1.415 . S
C308 C307 1.355 . S
C308 C310 1.419 . S
C309 C304 1.425 . S
C309 C306 1.409 . S
C309 C307 1.415 . S
C310 H300 0.930 . S
C310 C308 1.419 . S
C310 C311 1.362 . S
C311 H301 0.930 . S
C311 C304 1.409 . S
C311 C310 1.362 . S
H312 C318 0.930 . S
H313 C321 0.930 . S
H314 C322 0.930 . S
H315 C323 0.930 . S
H316 C326 0.930 . S
H317 C327 0.930 . S
C318 H312 0.930 . S
C318 C319 1.355 . S
C318 C320 1.415 . S
C319 C318 1.355 . S
C319 C321 1.419 . S
C320 C318 1.415 . S
C320 C325 1.425 . S
C320 C327 1.409 . S
C321 H313 0.930 . S
C321 C319 1.419 . S
C321 C322 1.362 . S
C322 H314 0.930 . S
C322 C321 1.362 . S
C322 C325 1.409 . S
C323 H315 0.930 . S
C323 C324 1.355 . S
C323 C325 1.415 . S
C324 C323 1.355 . S
C324 C326 1.419 . S
C325 C320 1.425 . S
C325 C322 1.409 . S
C325 C323 1.415 . S
C326 H316 0.930 . S
C326 C324 1.419 . S
C326 C327 1.362 . S
C327 H317 0.930 . S
C327 C320 1.409 . S
C327 C326 1.362 . S
H328 C334 0.930 . S
H329 C337 0.930 . S
H330 C338 0.930 . S
H331 C339 0.930 . S
H332 C342 0.930 . S
H333 C343 0.930 . S
C334 H328 0.930 . S
C334 C335 1.355 . S
C334 C336 1.415 . S
C335 C334 1.355 . S
C335 C337 1.419 . S
C336 C334 1.415 . S
C336 C341 1.425 . S
C336 C343 1.409 . S
C337 H329 0.930 . S
C337 C335 1.419 . S
C337 C338 1.362 . S
C338 H330 0.930 . S
C338 C337 1.362 . S
C338 C341 1.409 . S
C339 H331 0.930 . S
C339 C340 1.355 . S
C339 C341 1.415 . S
C340 C339 1.355 . S
C340 C342 1.419 . S
C341 C336 1.425 . S
C341 C338 1.409 . S
C341 C339 1.415 . S
C342 H332 0.930 . S
C342 C340 1.419 . S
C342 C343 1.362 . S
C343 H333 0.930 . S
C343 C336 1.409 . S
C343 C342 1.362 . S
H344 C350 0.930 . S
H345 C353 0.930 . S
H346 C354 0.930 . S
H347 C355 0.930 . S
H348 C358 0.930 . S
H349 C359 0.930 . S
C350 H344 0.930 . S
C350 C351 1.355 . S
C350 C352 1.415 . S
C351 C350 1.355 . S
C351 C353 1.419 . S
C352 C350 1.415 . S
C352 C357 1.425 . S
C352 C359 1.409 . S
C353 H345 0.930 . S
C353 C351 1.419 . S
C353 C354 1.362 . S
C354 H346 0.930 . S
C354 C353 1.362 . S
C354 C357 1.409 . S
C355 H347 0.930 . S
C355 C356 1.355 . S
C355 C357 1.415 . S
C356 C355 1.355 . S
C356 C358 1.419 . S
C357 C352 1.425 . S
C357 C354 1.409 . S
C357 C355 1.415 . S
C358 H348 0.930 . S
C358 C356 1.419 . S
C358 C359 1.362 . S
C359 H349 0.930 . S
C359 C352 1.409 . S
C359 C358 1.362 . S
H360 C366 0.930 . S
H361 C369 0.930 . S
H362 C370 0.930 . S
H363 C371 0.930 . S
H364 C374 0.930 . S
H365 C375 0.930 . S
C366 H360 0.930 . S
C366 C367 1.355 . S
C366 C368 1.415 . S
C367 C366 1.355 . S
C367 C369 1.419 . S
C368 C366 1.415 . S
C368 C373 1.425 . S
C368 C375 1.409 . S
C369 H361 0.930 . S
C369 C367 1.419 . S
C369 C370 1.362 . S
C370 H362 0.930 . S
C370 C369 1.362 . S
C370 C373 1.409 . S
C371 H363 0.930 . S
C371 C372 1.355 . S
C371 C373 1.415 . S
C372 C371 1.355 . S
C372 C374 1.419 . S
C373 C368 1.425 . S
C373 C370 1.409 . S
C373 C371 1.415 . S
C374 H364 0.930 . S
C374 C372 1.419 . S
C374 C375 1.362 . S
C375 H365 0.930 . S
C375 C368 1.409 . S
C375 C374 1.362 . S
H376 C382 0.930 . S
H377 C385 0.930 . S
H378 C386 0.930 . S
H379 C387 0.930 . S
H380 C390 0.930 . S
H381 C391 0.930 . S
C382 H376 0.930 . S
C382 C383 1.355 . S
C382 C384 1.415 . S
C383 C382 1.355 . S
C383 C385 1.419 . S
C384 C382 1.415 . S
C384 C389 1.425 . S
C384 C391 1.409 . S
C385 H377 0.930 . S
C385 C383 1.419 . S
C385 C386 1.362 . S
C386 H378 0.930 . S
C386 C385 1.362 . S
C386 C389 1.409 . S
C387 H379 0.930 . S
C387 C388 1.355 . S
C387 C389 1.415 . S
C388 C387 1.355 . S
C388 C390 1.419 . S
C389 C384 1.425 . S
C389 C386 1.409 . S
C389 C387 1.415 . S
C390 H380 0.930 . S
C390 C388 1.419 . S
C390 C391 1.362 . S
C391 H381 0.930 . S
C391 C384 1.409 . S
C391 C390 1.362 . S
H392 C398 0.930 . S
H393 C401 0.930 . S
H394 C402 0.930 . S
H395 C403 0.930 . S
H396 C406 0.930 . S
H397 C407 0.930 . S
C398 H392 0.930 . S
C398 C399 1.355 . S
C398 C400 1.415 . S
C399 C398 1.355 . S
C399 C401 1.419 . S
C400 C398 1.415 . S
C400 C405 1.425 . S
C400 C407 1.409 . S
C401 H393 0.930 . S
C401 C399 1.419 . S
C401 C402 1.362 . S
C402 H394 0.930 . S
C402 C401 1.362 . S
C402 C405 1.409 . S
C403 H395 0.930 . S
C403 C404 1.355 . S
C403 C405 1.415 . S
C404 C403 1.355 . S
C404 C406 1.419 . S
C405 C400 1.425 . S
C405 C402 1.409 . S
C405 C403 1.415 . S
C406 H396 0.930 . S
C406 C404 1.419 . S
C406 C407 1.362 . S
C407 H397 0.930 . S
C407 C400 1.409 . S
C407 C406 1.362 . S
H408 C414 0.930 . S
H409 C417 0.930 . S
H410 C418 0.930 . S
H411 C419 0.930 . S
H412 C422 0.930 . S
H413 C423 0.930 . S
C414 H408 0.930 . S
C414 C415 1.355 . S
C414 C416 1.415 . S
C415 C414 1.355 . S
C415 C417 1.419 . S
C416 C414 1.415 . S
C416 C421 1.425 . S
C416 C423 1.409 . S
C417 H409 0.930 . S
C417 C415 1.419 . S
C417 C418 1.362 . S
C418 H410 0.930 . S
C418 C417 1.362 . S
C418 C421 1.409 . S
C419 H411 0.930 . S
C419 C420 1.355 . S
C419 C421 1.415 . S
C420 C419 1.355 . S
C420 C422 1.419 . S
C421 C416 1.425 . S
C421 C418 1.409 . S
C421 C419 1.415 . S
C422 H412 0.930 . S
C422 C420 1.419 . S
C422 C423 1.362 . S
C423 H413 0.930 . S
C423 C416 1.409 . S
C423 C422 1.362 . S
H424 C430 0.930 . S
H425 C433 0.930 . S
H426 C434 0.930 . S
H427 C435 0.930 . S
H428 C438 0.930 . S
H429 C439 0.930 . S
C430 H424 0.930 . S
C430 C431 1.355 . S
C430 C432 1.415 . S
C431 C430 1.355 . S
C431 C433 1.419 . S
C432 C430 1.415 . S
C432 C437 1.425 . S
C432 C439 1.409 . S
C433 H425 0.930 . S
C433 C431 1.419 . S
C433 C434 1.362 . S
C434 H426 0.930 . S
C434 C433 1.362 . S
C434 C437 1.409 . S
C435 H427 0.930 . S
C435 C436 1.355 . S
C435 C437 1.415 . S
C436 C435 1.355 . S
C436 C438 1.419 . S
C437 C432 1.425 . S
C437 C434 1.409 . S
C437 C435 1.415 . S
C438 H428 0.930 . S
C438 C436 1.419 . S
C438 C439 1.362 . S
C439 H429 0.930 . S
C439 C432 1.409 . S
C439 C438 1.362 . S
H440 C446 0.930 . S
H441 C449 0.930 . S
H442 C450 0.930 . S
H443 C451 0.930 . S
H444 C454 0.930 . S
H445 C455 0.930 . S
C446 H440 0.930 . S
C446 C447 1.355 . S
C446 C448 1.415 . S
C447 C446 1.355 . S
C447 C449 1.419 . S
C448 C446 1.415 . S
C448 C453 1.425 . S
C448 C455 1.409 . S
C449 H441 0.930 . S
C449 C447 1.419 . S
C449 C450 1.362 . S
C450 H442 0.930 . S
C450 C449 1.362 . S
C450 C453 1.409 . S
C451 H443 0.930 . S
C451 C452 1.355 . S
C451 C453 1.415 . S
C452 C451 1.355 . S
C452 C454 1.419 . S
C453 C448 1.425 . S
C453 C450 1.409 . S
C453 C451 1.415 . S
C454 H444 0.930 . S
C454 C452 1.419 . S
C454 C455 1.362 . S
C455 H445 0.930 . S
C455 C448 1.409 . S
C455 C454 1.362 . S
H456 C462 0.930 . S
H457 C465 0.930 . S
H458 C466 0.930 . S
H459 C467 0.930 . S
H460 C470 0.930 . S
H461 C471 0.930 . S
C462 H456 0.930 . S
C462 C463 1.355 . S
C462 C464 1.415 . S
C463 C462 1.355 . S
C463 C465 1.419 . S
C464 C462 1.415 . S
C464 C469 1.425 1_565 S
C464 C471 1.409 . S
C465 H457 0.930 . S
C465 C463 1.419 . S
C465 C466 1.362 1_565 S
C466 H458 0.930 . S
C466 C465 1.362 1_545 S
C466 C469 1.409 . S
C467 H459 0.930 . S
C467 C468 1.355 . S
C467 C469 1.415 . S
C468 C467 1.355 . S
C468 C470 1.419 . S
C469 C464 1.425 1_545 S
C469 C466 1.409 . S
C469 C467 1.415 . S
C470 H460 0.930 . S
C470 C468 1.419 . S
C470 C471 1.362 1_545 S
C471 H461 0.930 . S
C471 C464 1.409 . S
C471 C470 1.362 1_565 S
H472 C478 0.930 . S
H473 C481 0.930 . S
H474 C482 0.930 . S
H475 C483 0.930 . S
H476 C486 0.930 . S
H477 C487 0.930 . S
C478 H472 0.930 . S
C478 C479 1.355 . S
C478 C480 1.415 . S
C479 C478 1.355 . S
C479 C481 1.419 . S
C480 C478 1.415 . S
C480 C485 1.425 . S
C480 C487 1.409 . S
C481 H473 0.930 . S
C481 C479 1.419 . S
C481 C482 1.362 . S
C482 H474 0.930 . S
C482 C481 1.362 . S
C482 C485 1.409 . S
C483 H475 0.930 . S
C483 C484 1.355 . S
C483 C485 1.415 . S
C484 C483 1.355 . S
C484 C486 1.419 . S
C485 C480 1.425 . S
C485 C482 1.409 . S
C485 C483 1.415 . S
C486 H476 0.930 . S
C486 C484 1.419 . S
C486 C487 1.362 . S
C487 H477 0.930 . S
C487 C480 1.409 . S
C487 C486 1.362 . S
H488 C494 0.930 . S
H489 C497 0.930 . S
H490 C498 0.930 . S
H491 C499 0.930 . S
H492 C502 0.930 . S
H493 C503 0.930 . S
C494 H488 0.930 . S
C494 C495 1.355 . S
C494 C496 1.415 . S
C495 C494 1.355 . S
C495 C497 1.419 . S
C496 C494 1.415 . S
C496 C501 1.425 1_455 S
C496 C503 1.409 1_455 S
C497 H489 0.930 . S
C497 C495 1.419 . S
C497 C498 1.362 . S
C498 H490 0.930 . S
C498 C497 1.362 . S
C498 C501 1.409 1_455 S
C499 H491 0.930 . S
C499 C500 1.355 . S
C499 C501 1.415 . S
C500 C499 1.355 . S
C500 C502 1.419 . S
C501 C496 1.425 1_655 S
C501 C498 1.409 1_655 S
C501 C499 1.415 . S
C502 H492 0.930 . S
C502 C500 1.419 . S
C502 C503 1.362 . S
C503 H493 0.930 . S
C503 C496 1.409 1_655 S
C503 C502 1.362 . S
H504 C510 0.930 . S
H505 C513 0.930 . S
H506 C514 0.930 . S
H507 C515 0.930 . S
H508 C518 0.930 . S
H509 C519 0.930 . S
C510 H504 0.930 . S
C510 C511 1.355 . S
C510 C512 1.415 . S
C511 C510 1.355 . S
C511 C513 1.419 . S
C512 C510 1.415 . S
C512 C517 1.425 1_565 S
C512 C519 1.409 . S
C513 H505 0.930 . S
C513 C511 1.419 . S
C513 C514 1.362 1_565 S
C514 H506 0.930 . S
C514 C513 1.362 1_545 S
C514 C517 1.409 . S
C515 H507 0.930 . S
C515 C516 1.355 . S
C515 C517 1.415 . S
C516 C515 1.355 . S
C516 C518 1.419 . S
C517 C512 1.425 1_545 S
C517 C514 1.409 . S
C517 C515 1.415 . S
C518 H508 0.930 . S
C518 C516 1.419 . S
C518 C519 1.362 1_545 S
C519 H509 0.930 . S
C519 C512 1.409 . S
C519 C518 1.362 1_565 S
H520 C526 0.930 . S
H521 C529 0.930 . S
H522 C530 0.930 . S
H523 C531 0.930 . S
H524 C534 0.930 . S
H525 C535 0.930 . S
C526 H520 0.930 . S
C526 C527 1.355 . S
C526 C528 1.415 . S
C527 C526 1.355 . S
C527 C529 1.419 . S
C528 C526 1.415 . S
C528 C533 1.425 . S
C528 C535 1.409 . S
C529 H521 0.930 . S
C529 C527 1.419 . S
C529 C530 1.362 . S
C530 H522 0.930 . S
C530 C529 1.362 . S
C530 C533 1.409 . S
C531 H523 0.930 . S
C531 C532 1.355 . S
C531 C533 1.415 . S
C532 C531 1.355 . S
C532 C534 1.419 . S
C533 C528 1.425 . S
C533 C530 1.409 . S
C533 C531 1.415 . S
C534 H524 0.930 . S
C534 C532 1.419 . S
C534 C535 1.362 . S
C535 H525 0.930 . S
C535 C528 1.409 . S
C535 C534 1.362 . S
H536 C542 0.930 . S
H537 C545 0.930 . S
H538 C546 0.930 . S
H539 C547 0.930 . S
H540 C550 0.930 . S
H541 C551 0.930 . S
C542 H536 0.930 . S
C542 C543 1.355 . S
C542 C544 1.415 . S
C543 C542 1.355 . S
C543 C545 1.419 . S
C544 C542 1.415 . S
C544 C549 1.425 1_655 S
C544 C551 1.409 . S
C545 H537 0.930 . S
C545 C543 1.419 . S
C545 C546 1.362 1_655 S
C546 H538 0.930 . S
C546 C545 1.362 1_455 S
C546 C549 1.409 . S
C547 H539 0.930 . S
C547 C548 1.355 . S
C547 C549 1.415 . S
C548 C547 1.355 . S
C548 C550 1.419 . S
C549 C544 1.425 1_455 S
C549 C546 1.409 . S
C549 C547 1.415 . S
C550 H540 0.930 . S
C550 C548 1.419 . S
C550 C551 1.362 1_455 S
C551 H541 0.930 . S
C551 C544 1.409 . S
C551 C550 1.362 1_655 S
H552 C558 0.930 . S
H553 C561 0.930 . S
H554 C562 0.930 . S
H555 C563 0.930 . S
H556 C566 0.930 . S
H557 C567 0.930 . S
C558 H552 0.930 . S
C558 C559 1.355 . S
C558 C560 1.415 . S
C559 C558 1.355 . S
C559 C561 1.419 . S
C560 C558 1.415 . S
C560 C565 1.425 1_545 S
C560 C567 1.409 . S
C561 H553 0.930 . S
C561 C559 1.419 . S
C561 C562 1.362 1_545 S
C562 H554 0.930 . S
C562 C561 1.362 1_565 S
C562 C565 1.409 . S
C563 H555 0.930 . S
C563 C564 1.355 . S
C563 C565 1.415 . S
C564 C563 1.355 . S
C564 C566 1.419 . S
C565 C560 1.425 1_565 S
C565 C562 1.409 . S
C565 C563 1.415 . S
C566 H556 0.930 . S
C566 C564 1.419 . S
C566 C567 1.362 1_565 S
C567 H557 0.930 . S
C567 C560 1.409 . S
C567 C566 1.362 1_545 S
H568 C574 0.930 . S
H569 C577 0.930 . S
H570 C578 0.930 . S
H571 C579 0.930 . S
H572 C582 0.930 . S
H573 C583 0.930 . S
C574 H568 0.930 . S
C574 C575 1.355 . S
C574 C576 1.415 . S
C575 C574 1.355 . S
C575 C577 1.419 . S
C576 C574 1.415 . S
C576 C581 1.425 . S
C576 C583 1.409 . S
C577 H569 0.930 . S
C577 C575 1.419 . S
C577 C578 1.362 . S
C578 H570 0.930 . S
C578 C577 1.362 . S
C578 C581 1.409 . S
C579 H571 0.930 . S
C579 C580 1.355 . S
C579 C581 1.415 . S
C580 C579 1.355 . S
C580 C582 1.419 . S
C581 C576 1.425 . S
C581 C578 1.409 . S
C581 C579 1.415 . S
C582 H572 0.930 . S
C582 C580 1.419 . S
C582 C583 1.362 . S
C583 H573 0.930 . S
C583 C576 1.409 . S
C583 C582 1.362 . S
H584 C590 0.930 . S
H585 C593 0.930 . S
H586 C594 0.930 . S
H587 C595 0.930 . S
H588 C598 0.930 . S
H589 C599 0.930 . S
C590 H584 0.930 . S
C590 C591 1.355 . S
C590 C592 1.415 . S
C591 C590 1.355 . S
C591 C593 1.419 . S
C592 C590 1.415 . S
C592 C597 1.425 1_655 S
C592 C599 1.409 . S
C593 H585 0.930 . S
C593 C591 1.419 . S
C593 C594 1.362 1_655 S
C594 H586 0.930 . S
C594 C593 1.362 1_455 S
C594 C597 1.409 . S
C595 H587 0.930 . S
C595 C596 1.355 . S
C595 C597 1.415 . S
C596 C595 1.355 . S
C596 C598 1.419 . S
C597 C592 1.425 1_455 S
C597 C594 1.409 . S
C597 C595 1.415 . S
C598 H588 0.930 . S
C598 C596 1.419 . S
C598 C599 1.362 1_455 S
C599 H589 0.930 . S
C599 C592 1.409 . S
C599 C598 1.362 1_655 S
H600 C606 0.930 . S
H601 C609 0.930 . S
H602 C610 0.930 . S
H603 C611 0.930 . S
H604 C614 0.930 . S
H605 C615 0.930 . S
C606 H600 0.930 . S
C606 C607 1.355 . S
C606 C608 1.415 . S
C607 C606 1.355 . S
C607 C609 1.419 . S
C608 C606 1.415 . S
C608 C613 1.425 1_565 S
C608 C615 1.409 1_565 S
C609 H601 0.930 . S
C609 C607 1.419 . S
C609 C610 1.362 . S
C610 H602 0.930 . S
C610 C609 1.362 . S
C610 C613 1.409 1_565 S
C611 H603 0.930 . S
C611 C612 1.355 . S
C611 C613 1.415 . S
C612 C611 1.355 . S
C612 C614 1.419 . S
C613 C608 1.425 1_545 S
C613 C610 1.409 1_545 S
C613 C611 1.415 . S
C614 H604 0.930 . S
C614 C612 1.419 . S
C614 C615 1.362 . S
C615 H605 0.930 . S
C615 C608 1.409 1_545 S
C615 C614 1.362 . S
H616 C622 0.930 . S
H617 C625 0.930 . S
H618 C626 0.930 . S
H619 C627 0.930 . S
H620 C630 0.930 . S
H621 C631 0.930 . S
C622 H616 0.930 . S
C622 C623 1.355 . S
C622 C624 1.415 . S
C623 C622 1.355 . S
C623 C625 1.419 . S
C624 C622 1.415 . S
C624 C629 1.425 . S
C624 C631 1.409 . S
C625 H617 0.930 . S
C625 C623 1.419 . S
C625 C626 1.362 . S
C626 H618 0.930 . S
C626 C625 1.362 . S
C626 C629 1.409 . S
C627 H619 0.930 . S
C627 C628 1.355 . S
C627 C629 1.415 . S
C628 C627 1.355 . S
C628 C630 1.419 . S
C629 C624 1.425 . S
C629 C626 1.409 . S
C629 C627 1.415 . S
C630 H620 0.930 . S
C630 C628 1.419 . S
C630 C631 1.362 . S
C631 H621 0.930 . S
C631 C624 1.409 . S
C631 C630 1.362 . S
H632 C638 0.930 . S
H633 C641 0.930 . S
H634 C642 0.930 . S
H635 C643 0.930 . S
H636 C646 0.930 . S
H637 C647 0.930 . S
C638 H632 0.930 . S
C638 C639 1.355 . S
C638 C640 1.415 . S
C639 C638 1.355 . S
C639 C641 1.419 . S
C640 C638 1.415 . S
C640 C645 1.425 1_655 S
C640 C647 1.409 . S
C641 H633 0.930 . S
C641 C639 1.419 . S
C641 C642 1.362 1_655 S
C642 H634 0.930 . S
C642 C641 1.362 1_455 S
C642 C645 1.409 . S
C643 H635 0.930 . S
C643 C644 1.355 . S
C643 C645 1.415 . S
C644 C643 1.355 . S
C644 C646 1.419 . S
C645 C640 1.425 1_455 S
C645 C642 1.409 . S
C645 C643 1.415 . S
C646 H636 0.930 . S
C646 C644 1.419 . S
C646 C647 1.362 1_455 S
C647 H637 0.930 . S
C647 C640 1.409 . S
C647 C646 1.362 1_655 S
H648 C654 0.930 . S
H649 C657 0.930 . S
H650 C658 0.930 . S
H651 C659 0.930 . S
H652 C662 0.930 . S
H653 C663 0.930 . S
C654 H648 0.930 . S
C654 C655 1.355 . S
C654 C656 1.415 . S
C655 C654 1.355 . S
C655 C657 1.419 . S
C656 C654 1.415 . S
C656 C661 1.425 . S
C656 C663 1.409 . S
C657 H649 0.930 . S
C657 C655 1.419 . S
C657 C658 1.362 . S
C658 H650 0.930 . S
C658 C657 1.362 . S
C658 C661 1.409 . S
C659 H651 0.930 . S
C659 C660 1.355 . S
C659 C661 1.415 . S
C660 C659 1.355 . S
C660 C662 1.419 . S
C661 C656 1.425 . S
C661 C658 1.409 . S
C661 C659 1.415 . S
C662 H652 0.930 . S
C662 C660 1.419 . S
C662 C663 1.362 . S
C663 H653 0.930 . S
C663 C656 1.409 . S
C663 C662 1.362 . S
H664 C670 0.930 . S
H665 C673 0.930 . S
H666 C674 0.930 . S
H667 C675 0.930 . S
H668 C678 0.930 . S
H669 C679 0.930 . S
C670 H664 0.930 . S
C670 C671 1.355 . S
C670 C672 1.415 . S
C671 C670 1.355 . S
C671 C673 1.419 . S
C672 C670 1.415 . S
C672 C677 1.425 . S
C672 C679 1.409 . S
C673 H665 0.930 . S
C673 C671 1.419 . S
C673 C674 1.362 . S
C674 H666 0.930 . S
C674 C673 1.362 . S
C674 C677 1.409 . S
C675 H667 0.930 . S
C675 C676 1.355 . S
C675 C677 1.415 . S
C676 C675 1.355 . S
C676 C678 1.419 . S
C677 C672 1.425 . S
C677 C674 1.409 . S
C677 C675 1.415 . S
C678 H668 0.930 . S
C678 C676 1.419 . S
C678 C679 1.362 . S
C679 H669 0.930 . S
C679 C672 1.409 . S
C679 C678 1.362 . S
H680 C686 0.930 . S
H681 C689 0.930 . S
H682 C690 0.930 . S
H683 C691 0.930 . S
H684 C694 0.930 . S
H685 C695 0.930 . S
C686 H680 0.930 . S
C686 C687 1.355 . S
C686 C688 1.415 . S
C687 C686 1.355 . S
C687 C689 1.419 . S
C688 C686 1.415 . S
C688 C693 1.425 . S
C688 C695 1.409 . S
C689 H681 0.930 . S
C689 C687 1.419 . S
C689 C690 1.362 . S
C690 H682 0.930 . S
C690 C689 1.362 . S
C690 C693 1.409 . S
C691 H683 0.930 . S
C691 C692 1.355 . S
C691 C693 1.415 . S
C692 C691 1.355 . S
C692 C694 1.419 . S
C693 C688 1.425 . S
C693 C690 1.409 . S
C693 C691 1.415 . S
C694 H684 0.930 . S
C694 C692 1.419 . S
C694 C695 1.362 . S
C695 H685 0.930 . S
C695 C688 1.409 . S
C695 C694 1.362 . S
H696 C702 0.930 . S
H697 C705 0.930 . S
H698 C706 0.930 . S
H699 C707 0.930 . S
H700 C710 0.930 . S
H701 C711 0.930 . S
C702 H696 0.930 . S
C702 C703 1.355 . S
C702 C704 1.415 . S
C703 C702 1.355 . S
C703 C705 1.419 . S
C704 C702 1.415 . S
C704 C709 1.425 . S
C704 C711 1.409 . S
C705 H697 0.930 . S
C705 C703 1.419 . S
C705 C706 1.362 . S
C706 H698 0.930 . S
C706 C705 1.362 . S
C706 C709 1.409 . S
C707 H699 0.930 . S
C707 C708 1.355 . S
C707 C709 1.415 . S
C708 C707 1.355 . S
C708 C710 1.419 . S
C709 C704 1.425 . S
C709 C706 1.409 . S
C709 C707 1.415 . S
C710 H700 0.930 . S
C710 C708 1.419 . S
C710 C711 1.362 . S
C711 H701 0.930 . S
C711 C704 1.409 . S
C711 C710 1.362 . S
H712 C718 0.930 . S
H713 C721 0.930 . S
H714 C722 0.930 . S
H715 C723 0.930 . S
H716 C726 0.930 . S
H717 C727 0.930 . S
C718 H712 0.930 . S
C718 C719 1.355 . S
C718 C720 1.415 . S
C719 C718 1.355 . S
C719 C721 1.419 . S
C720 C718 1.415 . S
C720 C725 1.425 . S
C720 C727 1.409 . S
C721 H713 0.930 . S
C721 C719 1.419 . S
C721 C722 1.362 . S
C722 H714 0.930 . S
C722 C721 1.362 . S
C722 C725 1.409 . S
C723 H715 0.930 . S
C723 C724 1.355 . S
C723 C725 1.415 . S
C724 C723 1.355 . S
C724 C726 1.419 . S
C725 C720 1.425 . S
C725 C722 1.409 . S
C725 C723 1.415 . S
C726 H716 0.930 . S
C726 C724 1.419 . S
C726 C727 1.362 . S
C727 H717 0.930 . S
C727 C720 1.409 . S
C727 C726 1.362 . S
H728 C734 0.930 . S
H729 C737 0.930 . S
H730 C738 0.930 . S
H731 C739 0.930 . S
H732 C742 0.930 . S
H733 C743 0.930 . S
C734 H728 0.930 . S
C734 C735 1.355 . S
C734 C736 1.415 . S
C735 C734 1.355 . S
C735 C737 1.419 . S
C736 C734 1.415 . S
C736 C741 1.425 . S
C736 C743 1.409 . S
C737 H729 0.930 . S
C737 C735 1.419 . S
C737 C738 1.362 . S
C738 H730 0.930 . S
C738 C737 1.362 . S
C738 C741 1.409 . S
C739 H731 0.930 . S
C739 C740 1.355 . S
C739 C741 1.415 . S
C740 C739 1.355 . S
C740 C742 1.419 . S
C741 C736 1.425 . S
C741 C738 1.409 . S
C741 C739 1.415 . S
C742 H732 0.930 . S
C742 C740 1.419 . S
C742 C743 1.362 . S
C743 H733 0.930 . S
C743 C736 1.409 . S
C743 C742 1.362 . S
H744 C750 0.930 . S
H745 C753 0.930 . S
H746 C754 0.930 . S
H747 C755 0.930 . S
H748 C758 0.930 . S
H749 C759 0.930 . S
C750 H744 0.930 . S
C750 C751 1.355 . S
C750 C752 1.415 . S
C751 C750 1.355 . S
C751 C753 1.419 . S
C752 C750 1.415 . S
C752 C757 1.425 . S
C752 C759 1.409 . S
C753 H745 0.930 . S
C753 C751 1.419 . S
C753 C754 1.362 . S
C754 H746 0.930 . S
C754 C753 1.362 . S
C754 C757 1.409 . S
C755 H747 0.930 . S
C755 C756 1.355 . S
C755 C757 1.415 . S
C756 C755 1.355 . S
C756 C758 1.419 . S
C757 C752 1.425 . S
C757 C754 1.409 . S
C757 C755 1.415 . S
C758 H748 0.930 . S
C758 C756 1.419 . S
C758 C759 1.362 . S
C759 H749 0.930 . S
C759 C752 1.409 . S
C759 C758 1.362 . S
H760 C766 0.930 . S
H761 C769 0.930 . S
H762 C770 0.930 . S
H763 C771 0.930 . S
H764 C774 0.930 . S
H765 C775 0.930 . S
C766 H760 0.930 . S
C766 C767 1.355 . S
C766 C768 1.415 . S
C767 C766 1.355 . S
C767 C769 1.419 . S
C768 C766 1.415 . S
C768 C773 1.425 . S
C768 C775 1.409 . S
C769 H761 0.930 . S
C769 C767 1.419 . S
C769 C770 1.362 . S
C770 H762 0.930 . S
C770 C769 1.362 . S
C770 C773 1.409 . S
C771 H763 0.930 . S
C771 C772 1.355 . S
C771 C773 1.415 . S
C772 C771 1.355 . S
C772 C774 1.419 . S
C773 C768 1.425 . S
C773 C770 1.409 . S
C773 C771 1.415 . S
C774 H764 0.930 . S
C774 C772 1.419 . S
C774 C775 1.362 . S
C775 H765 0.930 . S
C775 C768 1.409 . S
C775 C774 1.362 . S
H776 C782 0.930 . S
H777 C785 0.930 . S
H778 C786 0.930 . S
H779 C787 0.930 . S
H780 C790 0.930 . S
H781 C791 0.930 . S
C782 H776 0.930 . S
C782 C783 1.355 . S
C782 C784 1.415 . S
C783 C782 1.355 . S
C783 C785 1.419 . S
C784 C782 1.415 . S
C784 C789 1.425 . S
C784 C791 1.409 . S
C785 H777 0.930 . S
C785 C783 1.419 . S
C785 C786 1.362 . S
C786 H778 0.930 . S
C786 C785 1.362 . S
C786 C789 1.409 . S
C787 H779 0.930 . S
C787 C788 1.355 . S
C787 C789 1.415 . S
C788 C787 1.355 . S
C788 C790 1.419 . S
C789 C784 1.425 . S
C789 C786 1.409 . S
C789 C787 1.415 . S
C790 H780 0.930 . S
C790 C788 1.419 . S
C790 C791 1.362 . S
C791 H781 0.930 . S
C791 C784 1.409 . S
C791 C790 1.362 . S
H792 C798 0.930 . S
H793 C801 0.930 . S
H794 C802 0.930 . S
H795 C803 0.930 . S
H796 C806 0.930 . S
H797 C807 0.930 . S
C798 H792 0.930 . S
C798 C799 1.355 . S
C798 C800 1.415 . S
C799 C798 1.355 . S
C799 C801 1.419 . S
C800 C798 1.415 . S
C800 C805 1.425 . S
C800 C807 1.409 . S
C801 H793 0.930 . S
C801 C799 1.419 . S
C801 C802 1.362 . S
C802 H794 0.930 . S
C802 C801 1.362 . S
C802 C805 1.409 . S
C803 H795 0.930 . S
C803 C804 1.355 . S
C803 C805 1.415 . S
C804 C803 1.355 . S
C804 C806 1.419 . S
C805 C800 1.425 . S
C805 C802 1.409 . S
C805 C803 1.415 . S
C806 H796 0.930 . S
C806 C804 1.419 . S
C806 C807 1.362 . S
C807 H797 0.930 . S
C807 C800 1.409 . S
C807 C806 1.362 . S
H808 C814 0.930 . S
H809 C817 0.930 . S
H810 C818 0.930 . S
H811 C819 0.930 . S
H812 C822 0.930 . S
H813 C823 0.930 . S
C814 H808 0.930 . S
C814 C815 1.355 . S
C814 C816 1.415 . S
C815 C814 1.355 . S
C815 C817 1.419 . S
C816 C814 1.415 . S
C816 C821 1.425 . S
C816 C823 1.409 . S
C817 H809 0.930 . S
C817 C815 1.419 . S
C817 C818 1.362 . S
C818 H810 0.930 . S
C818 C817 1.362 . S
C818 C821 1.409 . S
C819 H811 0.930 . S
C819 C820 1.355 . S
C819 C821 1.415 . S
C820 C819 1.355 . S
C820 C822 1.419 . S
C821 C816 1.425 . S
C821 C818 1.409 . S
C821 C819 1.415 . S
C822 H812 0.930 . S
C822 C820 1.419 . S
C822 C823 1.362 . S
C823 H813 0.930 . S
C823 C816 1.409 . S
C823 C822 1.362 . S
H824 C830 0.930 . S
H825 C833 0.930 . S
H826 C834 0.930 . S
H827 C835 0.930 . S
H828 C838 0.930 . S
H829 C839 0.930 . S
C830 H824 0.930 . S
C830 C831 1.355 . S
C830 C832 1.415 . S
C831 C830 1.355 . S
C831 C833 1.419 . S
C832 C830 1.415 . S
C832 C837 1.425 . S
C832 C839 1.409 . S
C833 H825 0.930 . S
C833 C831 1.419 . S
C833 C834 1.362 . S
C834 H826 0.930 . S
C834 C833 1.362 . S
C834 C837 1.409 . S
C835 H827 0.930 . S
C835 C836 1.355 . S
C835 C837 1.415 . S
C836 C835 1.355 . S
C836 C838 1.419 . S
C837 C832 1.425 . S
C837 C834 1.409 . S
C837 C835 1.415 . S
C838 H828 0.930 . S
C838 C836 1.419 . S
C838 C839 1.362 . S
C839 H829 0.930 . S
C839 C832 1.409 . S
C839 C838 1.362 . S
C271 C8 1.191 . S
C276 C184 1.215 . S
C287 C216 1.204 . S
C292 C30 1.203 . S
C303 C62 1.208 . S
C308 C228 1.197 . S
C319 C260 1.190 . S
C324 C76 1.216 . S
C335 C98 1.211 . S
C340 C150 1.196 . S
C351 C172 1.211 . S
C356 C120 1.194 . S
C367 C249 1.290 . S
C372 C81 1.298 . S
C383 C103 1.320 . S
C388 C139 1.319 . S
C399 C161 1.317 . S
C404 C125 1.321 . S
C415 C197 1.319 . S
C420 C21 1.321 . S
C431 C205 1.292 . S
C436 C43 1.290 . S
C447 C51 1.290 . S
C452 C241 1.297 . S
C463 C162 1.273 . S
C468 C10 1.294 . S
C479 C186 1.299 . S
C484 C32 1.280 . S
C495 C206 1.301 . S
C500 C52 1.268 . S
C511 C84 1.277 . S
C516 C230 1.289 . S
C527 C106 1.278 . S
C532 C250 1.287 . S
C543 C140 1.271 . S
C548 C128 1.297 . S
C559 C235 1.374 . S
C564 C73 1.343 . S
C575 C95 1.386 . S
C580 C263 1.382 . S
C591 C153 1.346 . S
C596 C117 1.352 . S
C607 C175 1.345 . S
C612 C15 1.381 . S
C623 C37 1.359 . S
C628 C191 1.391 . S
C639 C65 1.355 . S
C644 C219 1.344 . S
C655 C18 1.505 . S
C660 C238 1.498 . S
C671 C40 1.512 . S
C676 C252 1.515 . S
C687 C142 1.500 . S
C692 C54 1.519 . S
C703 C164 1.513 . S
C708 C74 1.495 . S
C719 C96 1.507 . S
C724 C194 1.497 . S
C735 C208 1.519 . S
C740 C118 1.506 . S
C751 C87 1.629 . S
C756 C169 1.626 . S
C767 C109 1.602 . S
C772 C183 1.611 . S
C783 C213 1.601 . S
C788 C131 1.610 . S
C799 C227 1.628 . S
C804 C7 1.622 . S
C815 C257 1.613 . S
C820 C29 1.622 . S
C831 C147 1.597 . S
C836 C59 1.596 . S
