# Generated by pormake.
# Topology wfa, (4)-cn, num edge types: 1
# Building blocks:
#     Node 0, Type 0, BuildingBlock: ESEHIV_clean_sbu_0, # of connection points: 4
#     Node 1, Type 0, BuildingBlock: ESEHIV_clean_sbu_0, # of connection points: 4
#     Node 2, Type 0, BuildingBlock: ESEHIV_clean_sbu_0, # of connection points: 4
#     Node 3, Type 0, BuildingBlock: ESEHIV_clean_sbu_0, # of connection points: 4
#     Node 4, Type 0, BuildingBlock: ESEHIV_clean_sbu_0, # of connection points: 4
#     Node 5, Type 0, BuildingBlock: ESEHIV_clean_sbu_0, # of connection points: 4
#     Node 6, Type 0, BuildingBlock: ESEHIV_clean_sbu_0, # of connection points: 4
#     Node 7, Type 0, BuildingBlock: ESEHIV_clean_sbu_0, # of connection points: 4
#     Node 8, Type 0, BuildingBlock: ESEHIV_clean_sbu_0, # of connection points: 4
#     Node 9, Type 0, BuildingBlock: ESEHIV_clean_sbu_0, # of connection points: 4
#     Node 10, Type 0, BuildingBlock: ESEHIV_clean_sbu_0, # of connection points: 4
#     Node 11, Type 0, BuildingBlock: ESEHIV_clean_sbu_0, # of connection points: 4
#     Node 12, Type 0, BuildingBlock: ESEHIV_clean_sbu_0, # of connection points: 4
#     Node 13, Type 0, BuildingBlock: ESEHIV_clean_sbu_0, # of connection points: 4
#     Node 14, Type 0, BuildingBlock: ESEHIV_clean_sbu_0, # of connection points: 4
#     Node 15, Type 0, BuildingBlock: ESEHIV_clean_sbu_0, # of connection points: 4
#     Edge 16, Type (0, 0), BuildingBlock: TEMPAE_clean_linker_10, # of connection points: 2
#     Edge 17, Type (0, 0), BuildingBlock: TEMPAE_clean_linker_10, # of connection points: 2
#     Edge 18, Type (0, 0), BuildingBlock: TEMPAE_clean_linker_10, # of connection points: 2
#     Edge 19, Type (0, 0), BuildingBlock: TEMPAE_clean_linker_10, # of connection points: 2
#     Edge 20, Type (0, 0), BuildingBlock: TEMPAE_clean_linker_10, # of connection points: 2
#     Edge 21, Type (0, 0), BuildingBlock: TEMPAE_clean_linker_10, # of connection points: 2
#     Edge 22, Type (0, 0), BuildingBlock: TEMPAE_clean_linker_10, # of connection points: 2
#     Edge 23, Type (0, 0), BuildingBlock: TEMPAE_clean_linker_10, # of connection points: 2
#     Edge 24, Type (0, 0), BuildingBlock: TEMPAE_clean_linker_10, # of connection points: 2
#     Edge 25, Type (0, 0), BuildingBlock: TEMPAE_clean_linker_10, # of connection points: 2
#     Edge 26, Type (0, 0), BuildingBlock: TEMPAE_clean_linker_10, # of connection points: 2
#     Edge 27, Type (0, 0), BuildingBlock: TEMPAE_clean_linker_10, # of connection points: 2
#     Edge 28, Type (0, 0), BuildingBlock: TEMPAE_clean_linker_10, # of connection points: 2
#     Edge 29, Type (0, 0), BuildingBlock: TEMPAE_clean_linker_10, # of connection points: 2
#     Edge 30, Type (0, 0), BuildingBlock: TEMPAE_clean_linker_10, # of connection points: 2
#     Edge 31, Type (0, 0), BuildingBlock: TEMPAE_clean_linker_10, # of connection points: 2
#     Edge 32, Type (0, 0), BuildingBlock: TEMPAE_clean_linker_10, # of connection points: 2
#     Edge 33, Type (0, 0), BuildingBlock: TEMPAE_clean_linker_10, # of connection points: 2
#     Edge 34, Type (0, 0), BuildingBlock: TEMPAE_clean_linker_10, # of connection points: 2
#     Edge 35, Type (0, 0), BuildingBlock: TEMPAE_clean_linker_10, # of connection points: 2
#     Edge 36, Type (0, 0), BuildingBlock: TEMPAE_clean_linker_10, # of connection points: 2
#     Edge 37, Type (0, 0), BuildingBlock: TEMPAE_clean_linker_10, # of connection points: 2
#     Edge 38, Type (0, 0), BuildingBlock: TEMPAE_clean_linker_10, # of connection points: 2
#     Edge 39, Type (0, 0), BuildingBlock: TEMPAE_clean_linker_10, # of connection points: 2
#     Edge 40, Type (0, 0), BuildingBlock: TEMPAE_clean_linker_10, # of connection points: 2
#     Edge 41, Type (0, 0), BuildingBlock: TEMPAE_clean_linker_10, # of connection points: 2
#     Edge 42, Type (0, 0), BuildingBlock: TEMPAE_clean_linker_10, # of connection points: 2
#     Edge 43, Type (0, 0), BuildingBlock: TEMPAE_clean_linker_10, # of connection points: 2
#     Edge 44, Type (0, 0), BuildingBlock: TEMPAE_clean_linker_10, # of connection points: 2
#     Edge 45, Type (0, 0), BuildingBlock: TEMPAE_clean_linker_10, # of connection points: 2
#     Edge 46, Type (0, 0), BuildingBlock: TEMPAE_clean_linker_10, # of connection points: 2
#     Edge 47, Type (0, 0), BuildingBlock: TEMPAE_clean_linker_10, # of connection points: 2
# Relax obj value: 0.146
# Max RMSD: 0.162
# Mean RMSD: 0.152
data_MOF--net-wfa--node1-ESEHIV_clean_sbu_0--edge1-TEMPAE_clean_linker_10
_symmetry_space_group_name_H-M    P1
_symmetry_Int_Tables_number       1
_symmetry_cell_setting            triclinic
loop_
_symmetry_equiv_pos_as_xyz
'x, y, z'
_cell_length_a     53.482514
_cell_length_b     53.395921
_cell_length_c     23.287568
_cell_angle_alpha  88.848923
_cell_angle_beta   87.952909
_cell_angle_gamma 88.616816
loop_
_atom_site_label
_atom_site_type_symbol
_atom_site_fract_x
_atom_site_fract_y
_atom_site_fract_z
_atom_type_partial_charge
Cu0 Cu 0.67059 0.02404 0.04451 0.0
N1 N 0.65311 1.00731 0.10416 0.0
N2 N 0.62068 1.01068 0.16745 0.0
C3 C 0.63975 0.02236 0.13977 0.0
C4 C 0.62327 0.98647 0.1517 0.0
C5 C 0.64309 0.98452 0.11156 0.0
O6 O 0.64144 0.04134 0.00988 0.0
C7 C 0.70786 0.02871 0.11953 0.0
O8 O 0.70453 1.00444 0.11787 0.0
H9 H 0.6422 0.04242 0.13954 0.0
H10 H 0.64758 0.96858 0.08492 0.0
N11 N 0.68943 1.00491 0.98993 0.0
N12 N 0.71855 0.99628 0.92022 0.0
C13 C 0.70629 1.01436 0.95102 0.0
C14 C 0.69103 0.97994 0.98358 0.0
C15 C 0.70884 0.97458 0.94076 0.0
C16 C 0.62657 0.02763 0.98289 0.0
O17 O 0.63491 1.00545 0.96677 0.0
H18 H 0.71001 0.03415 0.94676 0.0
H19 H 0.68032 0.9665 0.00884 0.0
O20 O 0.69488 0.04311 0.08685 0.0
H21 H 0.60979 0.9721 0.16188 0.0
H22 H 0.71415 0.95606 0.92595 0.0
Cu23 Cu 0.50118 0.64892 0.05713 0.0
N24 N 0.46672 0.64364 0.06389 0.0
N25 N 0.43381 0.61954 0.08373 0.0
C26 C 0.45542 0.62821 0.10269 0.0
C27 C 0.43105 0.63014 0.03136 0.0
C28 C 0.45126 0.64516 0.01941 0.0
O29 O 0.51615 0.61441 0.05381 0.0
C30 C 0.50415 0.67492 0.16695 0.0
O31 O 0.48688 0.65959 0.1866 0.0
H32 H 0.46416 0.62096 0.14083 0.0
H33 H 0.45583 0.65399 0.9783 0.0
N34 N 0.50716 0.66385 0.98416 0.0
N35 N 0.50618 0.68987 0.90726 0.0
C36 C 0.50104 0.68716 0.96448 0.0
C37 C 0.51659 0.65162 0.93806 0.0
C38 C 0.51606 0.66752 0.89086 0.0
C39 C 0.51448 0.59745 0.09329 0.0
O40 O 0.5072 0.604 0.14541 0.0
H41 H 0.49224 0.70149 0.99108 0.0
H42 H 0.52295 0.63223 0.93856 0.0
O43 O 0.51298 0.67233 0.11554 0.0
H44 H 0.41671 0.62554 1.0019 0.0
H45 H 0.52253 0.66295 0.84767 0.0
Cu46 Cu 0.84803 0.4925 0.98034 0.0
N47 N 0.85087 0.46037 0.01245 0.0
N48 N 0.85683 0.43036 0.07901 0.0
C49 C 0.8497 0.4544 0.06886 0.0
C50 C 0.86218 0.4207 0.02674 0.0
C51 C 0.85842 0.43926 0.98573 0.0
O52 O 0.88211 0.50654 0.97682 0.0
C53 C 0.82464 0.51972 0.07556 0.0
O54 O 0.84717 0.52074 0.09592 0.0
H55 H 0.84582 0.46799 0.10205 0.0
H56 H 0.86232 0.43787 0.94001 0.0
N57 N 0.8371 0.48932 0.90509 0.0
N58 N 0.81315 0.48631 0.82846 0.0
C59 C 0.81375 0.49189 0.88494 0.0
C60 C 0.85167 0.48205 0.85991 0.0
C61 C 0.83703 0.48018 0.81279 0.0
C62 C 0.89788 0.50222 0.01609 0.0
O63 O 0.89035 0.49064 0.06361 0.0
H64 H 0.7975 0.49718 0.91139 0.0
H65 H 0.87156 0.47809 0.86144 0.0
O66 O 0.82196 0.51027 0.02636 0.0
H67 H 0.86944 0.40194 0.01886 0.0
H68 H 0.84355 0.47494 0.77006 0.0
Cu69 Cu 0.03345 0.86141 0.01814 0.0
N70 N 0.06667 0.85841 0.03884 0.0
N71 N 0.10078 0.86317 0.08947 0.0
C72 C 0.07841 0.87314 0.07495 0.0
C73 C 0.10335 0.84152 0.06072 0.0
C74 C 0.08227 0.83867 0.02938 0.0
O75 O 0.02365 0.89736 0.01875 0.0
C76 C 0.0192 0.83763 0.12418 0.0
O77 O 0.03493 0.85338 0.14471 0.0
H78 H 0.06981 0.88973 0.09391 0.0
H79 H 0.07794 0.82264 1.00416 0.0
N80 N 0.03216 0.85033 0.94239 0.0
N81 N 0.0337 0.82648 0.86392 0.0
C82 C 0.03282 0.82675 0.92224 0.0
C83 C 0.03276 0.86542 0.89554 0.0
C84 C 0.03367 0.8509 0.84736 0.0
C85 C 0.01568 0.91018 0.06164 0.0
O86 O 1.01161 0.89879 0.11145 0.0
H87 H 0.03281 0.81021 0.94987 0.0
H88 H 0.03313 0.88566 0.89646 0.0
O89 O 1.01445 0.83904 0.07081 0.0
H90 H 0.11886 0.82822 0.06404 0.0
H91 H 0.03491 0.85794 0.8035 0.0
Cu92 Cu 0.18078 1.00237 0.49445 0.0
N93 N 0.18805 0.96955 0.47323 0.0
N94 N 0.18458 0.93575 0.41953 0.0
C95 C 0.17271 0.95593 0.44251 0.0
C96 C 0.20836 0.93659 0.43678 0.0
C97 C 0.21045 0.95751 0.46994 0.0
O98 O 0.14368 1.00513 0.4977 0.0
C99 C 0.22184 0.02559 0.43604 0.0
O100 O 0.23322 0.0176 0.48211 0.0
H101 H 0.15394 0.96214 0.43222 0.0
H102 H 0.22758 0.96455 0.48597 0.0
N103 N 0.19252 1.00794 0.56853 0.0
N104 N 0.21518 1.00747 0.64796 0.0
C105 C 0.21356 0.99926 0.59362 0.0
C106 C 0.18041 0.02186 0.60872 0.0
C107 C 0.19426 0.02162 0.65752 0.0
C108 C 0.12948 0.02451 0.4917 0.0
O109 O 0.13968 0.04627 0.48026 0.0
H110 H 0.22745 0.98721 0.57264 0.0
H111 H 0.16276 0.03171 0.6027 0.0
O112 O 0.19819 0.02278 0.43394 0.0
H113 H 0.22348 0.92396 0.42327 0.0
H114 H 0.18963 0.03172 0.69647 0.0
Cu115 Cu 0.51686 0.15052 0.48343 0.0
N116 N 0.49067 0.14593 0.43251 0.0
N117 N 0.48959 0.11994 0.35758 0.0
C118 C 0.48828 0.12221 0.41541 0.0
C119 C 0.48866 0.14377 0.33764 0.0
C120 C 0.48895 0.15965 0.38351 0.0
O121 O 0.53163 0.11565 0.49053 0.0
C122 C 0.53085 0.1972 0.43625 0.0
O123 O 0.51065 0.20404 0.46623 0.0
H124 H 0.49091 0.10669 0.44463 0.0
H125 H 0.49281 0.17935 0.37948 0.0
N126 N 0.50583 0.16489 0.55443 0.0
N127 N 0.50162 0.1918 0.62808 0.0
C128 C 0.51639 0.18356 0.58331 0.0
C129 C 0.48387 0.16091 0.58265 0.0
C130 C 0.48125 0.1773 0.62776 0.0
C131 C 0.52817 0.09946 0.53136 0.0
O132 O 0.51803 0.10686 0.5805 0.0
H133 H 0.53393 0.19189 0.56969 0.0
H134 H 0.47028 0.14759 0.57003 0.0
O135 O 0.53852 0.17436 0.44028 0.0
H136 H 0.49245 0.14933 0.29324 0.0
H137 H 0.46525 0.17865 0.65742 0.0
Cu138 Cu 0.34744 0.5131 0.4677 0.0
N139 N 0.35251 0.48898 0.41134 0.0
N140 N 0.36459 0.48395 0.31915 0.0
C141 C 0.37033 0.49312 0.37034 0.0
C142 C 0.34239 0.47281 0.32858 0.0
C143 C 0.33504 0.47582 0.38565 0.0
O144 O 0.38159 0.525 0.48117 0.0
C145 C 0.30157 0.53038 0.42635 0.0
O146 O 0.29401 0.51079 0.45652 0.0
H147 H 0.38471 0.50679 0.37497 0.0
H148 H 0.31666 0.47208 0.40421 0.0
N149 N 0.33198 0.50053 0.53614 0.0
N150 N 0.30553 0.49735 0.61293 0.0
C151 C 0.31437 0.51232 0.56961 0.0
C152 C 0.33458 0.47743 0.55961 0.0
C153 C 0.31841 0.47544 0.60699 0.0
C154 C 0.39819 0.50788 0.49086 0.0
O155 O 0.39079 0.48469 0.4978 0.0
H156 H 0.30766 0.53129 0.5613 0.0
H157 H 0.34679 0.46277 0.54237 0.0
O158 O 0.32447 0.53664 0.42849 0.0
H159 H 0.3309 0.46586 0.29533 0.0
H160 H 0.31556 0.45879 0.63346 0.0
Cu161 Cu 0.99722 0.36178 0.50804 0.0
N162 N 0.96297 0.36346 0.49468 0.0
N163 N 0.92808 0.37313 0.44809 0.0
C164 C 0.95241 0.37826 0.45446 0.0
C165 C 0.92301 0.35468 0.48696 0.0
C166 C 0.94455 0.34879 0.5157 0.0
O167 O 1.0088 0.39658 0.50606 0.0
C168 C 1.00728 0.33781 0.39966 0.0
O169 O 0.99138 0.35463 0.37967 0.0
H170 H 0.96293 0.39125 0.42745 0.0
H171 H 0.94677 0.33408 0.54771 0.0
N172 N 1.00267 0.34867 0.58206 0.0
N173 N 1.00332 0.32418 0.66121 0.0
C174 C 0.99396 0.32765 0.60837 0.0
C175 C 0.01801 0.35864 0.61957 0.0
C176 C 0.01851 0.34359 0.66823 0.0
C177 C 1.0144 0.4102 0.46202 0.0
O178 O 0.01496 0.40019 0.41093 0.0
H179 H 0.98171 0.31475 0.5887 0.0
H180 H 0.02838 0.37558 0.61167 0.0
O181 O 1.01338 0.33879 0.45208 0.0
H182 H 0.90529 0.34543 0.49282 0.0
H183 H 0.02915 0.3467 0.70603 0.0
Cu184 Cu 0.39489 0.03556 0.98137 0.0
N185 N 0.41113 0.05571 0.92434 0.0
N186 N 0.44141 0.05164 0.85523 0.0
C187 C 0.43556 0.0507 0.91191 0.0
C188 C 0.42025 0.05983 0.8306 0.0
C189 C 0.40168 0.06237 0.87311 0.0
O190 O 0.4236 0.01652 0.01323 0.0
C191 C 0.35119 0.03037 0.9243 0.0
O192 O 0.349 0.0533 0.94354 0.0
H193 H 0.44794 0.04197 0.94187 0.0
H194 H 0.382 0.06469 0.86517 0.0
N195 N 0.37678 0.05278 0.04039 0.0
N196 N 0.34775 0.05982 0.11113 0.0
C197 C 0.35897 0.04269 0.07586 0.0
C198 C 0.37694 0.07717 0.05358 0.0
C199 C 0.3592 0.08154 0.09713 0.0
C200 C 0.43722 0.02809 0.04777 0.0
O201 O 0.4272 0.04755 0.0743 0.0
H202 H 0.35383 0.02325 0.07425 0.0
H203 H 0.38888 0.09087 0.03248 0.0
O204 O 0.37024 0.01702 0.93871 0.0
H205 H 0.41731 0.06004 0.78483 0.0
H206 H 0.35519 0.09942 0.11689 0.0
Cu207 Cu 0.54951 0.366 0.97755 0.0
N208 N 0.57534 0.37991 0.93194 0.0
N209 N 0.5977 0.40934 0.8854 0.0
C210 C 0.579 0.40461 0.92412 0.0
C211 C 0.60639 0.3866 0.86847 0.0
C212 C 0.59264 0.36845 0.89755 0.0
O213 O 0.53188 0.39573 0.01115 0.0
C214 C 0.53105 0.34282 0.87584 0.0
O215 O 0.53941 0.36288 0.84855 0.0
H216 H 0.56744 0.41896 0.94442 0.0
H217 H 0.59454 0.34839 0.89261 0.0
N218 N 0.56409 0.34723 0.03761 0.0
N219 N 0.57027 0.32008 0.11124 0.0
C220 C 0.55346 0.3305 0.07486 0.0
C221 C 0.58835 0.34734 0.05069 0.0
C222 C 0.59222 0.33074 0.0957 0.0
C223 C 0.5198 0.41282 0.98366 0.0
O224 O 0.51373 0.40875 0.93056 0.0
H225 H 0.53378 0.32622 0.07534 0.0
H226 H 0.60238 0.35856 0.02852 0.0
O227 O 0.53145 0.34193 0.9308 0.0
H228 H 0.62124 0.38329 0.83652 0.0
H229 H 0.61006 0.32656 0.11462 0.0
Cu230 Cu 0.13194 0.54821 0.98833 0.0
N231 N 0.1247 0.58234 0.99092 0.0
N232 N 0.09778 0.61313 0.96674 0.0
C233 C 0.11213 0.59361 0.94821 0.0
C234 C 0.1019 0.61459 0.02339 0.0
C235 C 0.11856 0.59555 0.03821 0.0
O236 O 0.09781 0.53603 0.97964 0.0
C237 C 0.15911 0.5227 0.89508 0.0
O238 O 0.14415 0.5039 0.90571 0.0
H239 H 0.11023 0.58506 0.90684 0.0
H240 H 0.12291 0.58965 0.0815 0.0
N241 N 0.14638 0.53727 0.05718 0.0
N242 N 0.17289 0.53304 0.12951 0.0
C243 C 0.16615 0.54693 0.08302 0.0
C244 C 0.14034 0.51676 0.08862 0.0
C245 C 0.15662 0.51408 0.13304 0.0
C246 C 0.08725 0.5149 0.97896 0.0
O247 O 0.10079 0.49412 0.98263 0.0
H248 H 0.17588 0.56333 0.067 0.0
H249 H 0.12542 0.50433 0.07934 0.0
O250 O 0.1561 0.5426 0.92411 0.0
H251 H 0.09161 0.62674 0.05297 0.0
H252 H 0.1565 0.49926 0.16547 0.0
Cu253 Cu 0.01998 0.15018 1.00773 0.0
N254 N 0.04052 0.14657 0.94209 0.0
N255 N 0.04267 0.14069 0.84707 0.0
C256 C 0.03256 0.13321 0.8983 0.0
C257 C 0.05812 0.15934 0.85942 0.0
C258 C 0.0567 0.16298 0.91812 0.0
O259 O 1.00891 0.11604 0.02798 0.0
C260 C 1.00004 0.19658 0.97311 0.0
O261 O 0.02035 0.2042 0.99669 0.0
H262 H 0.01673 0.12098 0.90304 0.0
H263 H 0.06434 0.17849 0.94035 0.0
N264 N 0.0364 0.16476 0.06866 0.0
N265 N 0.04375 0.19094 0.14017 0.0
C266 C 0.02621 0.1805 0.10827 0.0
C267 C 0.06118 0.16481 0.0766 0.0
C268 C 0.06577 0.18086 0.12054 0.0
C269 C 0.02623 0.09975 0.03775 0.0
O270 O 0.04941 0.10736 0.03787 0.0
H271 H 1.00649 0.1856 0.1106 0.0
H272 H 0.07505 0.15477 0.05047 0.0
O273 O 0.99448 0.17347 0.97797 0.0
H274 H 0.06786 0.1711 0.82799 0.0
H275 H 0.08402 0.18528 0.13561 0.0
Cu276 Cu 0.8905 0.03638 0.5292 0.0
N277 N 0.89589 0.0704 0.53882 0.0
N278 N 0.91766 0.10294 0.5672 0.0
C279 C 0.91864 0.08033 0.54234 0.0
C280 C 0.89299 0.10791 0.57734 0.0
C281 C 0.87963 0.08778 0.55986 0.0
O282 O 0.92464 0.02076 0.52656 0.0
C283 C 0.84749 1.01472 0.59104 0.0
O284 O 0.84057 1.0081 0.5401 0.0
H285 H 0.93582 0.06998 0.5328 0.0
H286 H 0.85979 0.08499 0.56713 0.0
N287 N 0.87618 0.03205 0.45719 0.0
N288 N 0.85125 0.03298 0.38121 0.0
C289 C 0.85395 0.04006 0.43636 0.0
C290 C 0.88796 0.01999 0.41359 0.0
C291 C 0.87282 0.02052 0.36709 0.0
C292 C 0.94008 0.02239 0.56698 0.0
O293 O 0.9318 0.03128 0.61652 0.0
H294 H 0.83994 0.05041 0.46148 0.0
H295 H 0.90648 1.01148 0.41546 0.0
O296 O 0.86851 0.02537 0.59516 0.0
H297 H 0.88522 0.12392 0.60013 0.0
H298 H 0.87761 1.01249 0.32574 0.0
Cu299 Cu 0.52563 0.87102 0.54539 0.0
N300 N 0.54685 0.88936 0.59213 0.0
N301 N 0.54715 0.92193 0.65246 0.0
C302 C 0.54169 0.91397 0.6 0.0
C303 C 0.55769 0.90179 0.6786 0.0
C304 C 0.55742 0.88176 0.64155 0.0
O305 O 0.50558 0.89873 0.51094 0.0
C306 C 0.52327 0.82912 0.61554 0.0
O307 O 0.54578 0.82739 0.59132 0.0
H308 H 0.53035 0.92507 0.57208 0.0
H309 H 0.56126 0.86246 0.65366 0.0
N310 N 0.54098 0.8512 0.48621 0.0
N311 N 0.54551 0.82072 0.42056 0.0
C312 C 0.52933 0.83409 0.45492 0.0
C313 C 0.56538 0.84867 0.4708 0.0
C314 C 0.56822 0.82998 0.43058 0.0
C315 C 0.51633 0.91142 0.47021 0.0
O316 O 0.53426 0.90019 0.43969 0.0
H317 H 0.50946 0.83078 0.45924 0.0
H318 H 0.58017 0.85916 0.48885 0.0
O319 O 0.50891 0.84734 0.59974 0.0
H320 H 0.56202 0.90065 0.72366 0.0
H321 H 0.58575 0.82357 0.41066 0.0
Cu322 Cu 0.63571 0.53426 0.49524 0.0
N323 N 0.62879 0.55743 0.55255 0.0
N324 N 0.62101 0.55941 0.64744 0.0
C325 C 0.61446 0.54954 0.59751 0.0
C326 C 0.63963 0.57521 0.63279 0.0
C327 C 0.64434 0.57403 0.57411 0.0
O328 O 0.60267 0.52002 0.48251 0.0
C329 C 0.68196 0.52112 0.53804 0.0
O330 O 0.6868 0.54254 0.5118 0.0
H331 H 0.60308 0.5331 0.59535 0.0
H332 H 0.66043 0.58162 0.55098 0.0
N333 N 0.65067 0.54847 0.42802 0.0
N334 N 0.6777 0.55331 0.35249 0.0
C335 C 0.66731 0.53706 0.3915 0.0
C336 C 0.6503 0.57272 0.41149 0.0
C337 C 0.66679 0.57575 0.36508 0.0
C338 C 0.58647 0.53282 0.45453 0.0
O339 O 0.5935 0.55342 0.42745 0.0
H340 H 0.67232 0.51737 0.39523 0.0
H341 H 0.63967 0.58738 0.43341 0.0
O342 O 0.66031 0.51192 0.53282 0.0
H343 H 0.65116 0.58434 0.66298 0.0
H344 H 0.67124 0.59348 0.34434 0.0
Cu345 Cu 0.99962 0.64779 0.52991 0.0
N346 N 0.97604 0.64138 0.589 0.0
N347 N 0.9698 0.63601 0.68381 0.0
C348 C 0.98376 0.62959 0.63689 0.0
C349 C 0.95202 0.65208 0.66439 0.0
C350 C 0.95576 0.6552 0.60564 0.0
O351 O 1.01351 0.61455 0.50881 0.0
C352 C 1.01107 0.69082 0.58377 0.0
O353 O 0.98894 0.69637 0.56372 0.0
H354 H 1.00184 0.62007 0.63882 0.0
H355 H 0.9467 0.66928 0.57902 0.0
N356 N 0.98544 0.66469 0.46669 0.0
N357 N 0.97999 0.69244 0.39423 0.0
C358 C 0.99616 0.68239 0.43229 0.0
C359 C 0.96176 0.66339 0.44956 0.0
C360 C 0.95834 0.68042 0.40503 0.0
C361 C 0.9974 0.59862 0.49504 0.0
O362 O 0.97395 0.6063 0.49198 0.0
H363 H 0.01513 0.6885 0.43682 0.0
H364 H 0.94774 0.65135 0.4691 0.0
O365 O 0.02193 0.67029 0.56862 0.0
H366 H 0.93923 0.66304 0.69146 0.0
H367 H 0.94115 0.6838 0.38268 0.0
C368 C 0.53096 0.09985 0.34256 0.0
C369 C 0.5055 0.10117 0.33011 0.0
C370 C 0.54723 0.08189 0.31755 0.0
C371 C 0.53833 0.06565 0.27591 0.0
C372 C 0.51254 0.06697 0.26269 0.0
C373 C 0.49637 0.08465 0.29041 0.0
C374 C 0.57409 0.08049 0.33556 0.0
C375 C 0.50155 0.04961 0.22058 0.0
C376 C 0.5915 0.04735 0.17185 0.0
C377 C 0.59856 0.02324 0.19185 0.0
C378 C 0.57108 0.06066 0.19666 0.0
C379 C 0.55695 0.04968 0.24263 0.0
C380 C 0.56287 0.02471 0.26042 0.0
C381 C 0.58363 1.0118 0.23496 0.0
C382 C 0.56556 0.08704 0.17516 0.0
C383 C 0.54788 1.01204 0.30785 0.0
H384 H 0.53802 0.11284 0.37288 0.0
H385 H 0.47669 0.08567 0.28082 0.0
H386 H 0.57968 0.0608 0.34585 0.0
H387 H 0.58659 0.08717 0.29973 0.0
H388 H 0.57713 0.09207 0.37371 0.0
H389 H 0.48662 0.05941 0.19623 0.0
H390 H 0.51575 0.04172 0.18982 0.0
H391 H 0.49276 0.03382 0.24481 0.0
H392 H 0.60201 0.05608 0.13662 0.0
H393 H 0.5886 0.99304 0.24982 0.0
H394 H 0.57453 0.10051 0.20317 0.0
H395 H 0.54516 0.0914 0.17636 0.0
H396 H 0.57306 0.09012 0.13053 0.0
H397 H 0.54961 0.0226 0.34792 0.0
H398 H 0.55414 0.99231 0.31545 0.0
H399 H 0.52784 1.01227 0.29707 0.0
C400 C 0.35857 0.50651 0.22724 0.0
C401 C 0.37458 0.4944 0.26592 0.0
C402 C 0.36781 0.52421 0.18687 0.0
C403 C 0.39354 0.52995 0.18568 0.0
C404 C 0.41012 0.51563 0.21999 0.0
C405 C 0.40041 0.49798 0.25965 0.0
C406 C 0.34964 0.53865 0.14995 0.0
C407 C 0.43775 0.52078 0.21963 0.0
C408 C 0.42092 0.57594 0.07473 0.0
C409 C 0.42142 0.59785 0.10682 0.0
C410 C 0.4117 0.55361 0.09941 0.0
C411 C 0.40228 0.55349 0.157 0.0
C412 C 0.40214 0.57587 0.18887 0.0
C413 C 0.41208 0.59768 0.16356 0.0
C414 C 0.41293 0.53 0.06475 0.0
C415 C 0.39207 0.57664 0.25027 0.0
H416 H 0.33855 0.50399 0.23215 0.0
H417 H 0.41276 0.48858 0.28953 0.0
H418 H 0.34627 0.55759 0.16783 0.0
H419 H 0.35745 0.54117 0.10552 0.0
H420 H 0.33146 0.52913 0.14819 0.0
H421 H 0.44507 0.5254 0.17563 0.0
H422 H 0.44089 0.53712 0.24698 0.0
H423 H 0.44865 0.50452 0.23694 0.0
H424 H 0.42875 0.57609 0.03117 0.0
H425 H 0.41283 0.61466 0.18813 0.0
H426 H 0.39402 0.52209 0.06247 0.0
H427 H 0.42492 0.51566 0.08621 0.0
H428 H 0.42058 0.53331 0.02033 0.0
H429 H 0.3921 0.59581 0.2679 0.0
H430 H 0.40358 0.56407 0.27779 0.0
H431 H 0.37263 0.56977 0.25303 0.0
C432 C 0.8836 0.40339 0.1395 0.0
C433 C 0.86271 0.41952 0.13418 0.0
C434 C 0.89156 0.39532 0.19366 0.0
C435 C 0.87815 0.40339 0.24374 0.0
C436 C 0.85635 0.41871 0.23861 0.0
C437 C 0.84897 0.42671 0.18382 0.0
C438 C 0.91504 0.37914 0.19731 0.0
C439 C 0.84136 0.42737 0.29096 0.0
C440 C 0.89444 0.36714 0.37976 0.0
C441 C 0.91275 0.38227 0.40205 0.0
C442 C 0.88199 0.37438 0.32977 0.0
C443 C 0.88814 0.39717 0.3012 0.0
C444 C 0.90559 0.41313 0.32517 0.0
C445 C 0.91753 0.40555 0.37545 0.0
C446 C 0.86325 0.35701 0.30589 0.0
C447 C 0.91265 0.43763 0.29609 0.0
H448 H 0.8945 0.39806 0.10142 0.0
H449 H 0.83267 0.43898 0.17975 0.0
H450 H 0.9297 0.38958 0.21859 0.0
H451 H 0.91131 0.36206 0.22383 0.0
H452 H 0.92249 0.37336 0.15432 0.0
H453 H 0.82358 0.43711 0.27949 0.0
H454 H 0.83696 0.4112 0.31995 0.0
H455 H 0.85257 0.44043 0.31543 0.0
H456 H 0.89066 0.34907 0.39965 0.0
H457 H 0.93121 0.4176 0.39309 0.0
H458 H 0.87122 0.34851 0.26598 0.0
H459 H 0.84595 0.36757 0.29442 0.0
H460 H 0.85819 0.34169 0.3368 0.0
H461 H 0.92227 0.43387 0.25401 0.0
H462 H 0.92526 0.44863 0.32227 0.0
H463 H 0.89565 0.4492 0.2875 0.0
C464 C 0.12775 0.85458 0.1716 0.0
C465 C 0.11619 0.87177 0.13408 0.0
C466 C 0.14069 0.86278 0.21885 0.0
C467 C 0.1423 0.88878 0.22827 0.0
C468 C 0.13145 0.90622 0.18927 0.0
C469 C 0.11838 0.89747 0.14284 0.0
C470 C 0.15175 0.84364 0.25989 0.0
C471 C 0.13305 0.93412 0.19742 0.0
C472 C 0.14979 0.91426 0.37714 0.0
C473 C 0.17505 0.92068 0.37513 0.0
C474 C 0.13916 0.90278 0.33054 0.0
C475 C 0.15413 0.8979 0.28046 0.0
C476 C 0.17991 0.90336 0.2791 0.0
C477 C 0.19012 0.91458 0.32668 0.0
C478 C 0.11166 0.89689 0.334 0.0
C479 C 0.19641 0.8986 0.22629 0.0
H480 H 0.12577 0.83468 0.16541 0.0
H481 H 0.10963 0.91073 0.11353 0.0
H482 H 0.17173 0.84749 0.26629 0.0
H483 H 0.14186 0.84496 0.30247 0.0
H484 H 0.15029 0.8242 0.24444 0.0
H485 H 0.12501 0.94513 0.16126 0.0
H486 H 0.12282 0.93945 0.23779 0.0
H487 H 0.15285 0.93938 0.20149 0.0
H488 H 0.13823 0.91884 0.41482 0.0
H489 H 0.20957 0.91983 0.32471 0.0
H490 H 0.10886 0.87718 0.32195 0.0
H491 H 0.10146 0.90906 0.30306 0.0
H492 H 0.1032 0.89983 0.37769 0.0
H493 H 0.19449 0.87908 0.21192 0.0
H494 H 0.21645 0.90185 0.23391 0.0
H495 H 0.19042 0.91122 0.19066 0.0
C496 C 0.46452 1.01122 0.84902 0.0
C497 C 0.46045 0.0358 0.82808 0.0
C498 C 0.48124 0.99456 0.82084 0.0
C499 C 0.49456 1.0026 0.77051 0.0
C500 C 0.49114 0.02768 0.75018 0.0
C501 C 0.47391 0.04391 0.77889 0.0
C502 C 0.48355 0.96788 0.84324 0.0
C503 C 0.50511 0.03717 0.69727 0.0
C504 C 0.54729 0.95767 0.71934 0.0
C505 C 0.53492 0.94325 0.68005 0.0
C506 C 0.53493 0.97805 0.74698 0.0
C507 C 0.50943 0.98372 0.73599 0.0
C508 C 0.497 0.96923 0.69607 0.0
C509 C 0.50986 0.9494 0.66858 0.0
C510 C 0.54897 0.9926 0.78979 0.0
C511 C 0.46964 0.97386 0.68439 0.0
H512 H 0.4537 1.00461 0.88624 0.0
H513 H 0.47071 0.06284 0.76271 0.0
H514 H 0.47588 0.95494 0.81201 0.0
H515 H 0.50353 0.96246 0.84813 0.0
H516 H 0.47332 0.96509 0.88513 0.0
H517 H 0.50144 0.05745 0.68873 0.0
H518 H 0.52548 0.03405 0.70235 0.0
H519 H 0.49952 0.02662 0.6595 0.0
H520 H 0.56658 0.95296 0.72852 0.0
H521 H 0.49987 0.93803 0.63942 0.0
H522 H 0.54602 0.98388 0.83306 0.0
H523 H 0.54235 1.01242 0.79174 0.0
H524 H 0.5694 0.99211 0.7793 0.0
H525 H 0.45807 0.96948 0.72361 0.0
H526 H 0.46322 0.96217 0.64913 0.0
H527 H 0.46606 0.9939 0.67329 0.0
C528 C 0.59339 0.53632 0.71477 0.0
C529 C 0.61688 0.54649 0.70174 0.0
C530 C 0.59065 0.51664 0.75512 0.0
C531 C 0.61194 0.50704 0.78338 0.0
C532 C 0.63501 0.51935 0.77579 0.0
C533 C 0.63727 0.53889 0.73473 0.0
C534 C 0.56551 0.50454 0.76311 0.0
C535 C 0.65794 0.5102 0.80644 0.0
C536 C 0.6005 0.45523 0.8952 0.0
C537 C 0.60413 0.43368 0.86194 0.0
C538 C 0.60381 0.4793 0.87102 0.0
C539 C 0.61096 0.48189 0.81218 0.0
C540 C 0.61571 0.46018 0.77905 0.0
C541 C 0.61226 0.43638 0.80434 0.0
C542 C 0.5993 0.50191 0.90817 0.0
C543 C 0.62321 0.46207 0.71595 0.0
H544 H 0.5776 0.54234 0.68957 0.0
H545 H 0.65554 0.54653 0.72481 0.0
H546 H 0.56618 0.48607 0.74199 0.0
H547 H 0.56089 0.5012 0.80942 0.0
H548 H 0.55027 0.51618 0.74421 0.0
H549 H 0.67277 0.52442 0.80484 0.0
H550 H 0.65327 0.50537 0.85201 0.0
H551 H 0.66544 0.49295 0.78574 0.0
H552 H 0.5947 0.45327 0.94009 0.0
H553 H 0.61486 0.41992 0.7782 0.0
H554 H 0.58627 0.5155 0.88743 0.0
H555 H 0.61717 0.5116 0.91322 0.0
H556 H 0.59152 0.4968 0.95157 0.0
H557 H 0.62889 0.44359 0.69796 0.0
H558 H 0.63891 0.47509 0.70889 0.0
H559 H 0.6072 0.46977 0.6916 0.0
C560 C 0.98916 0.61149 0.76104 0.0
C561 C 0.97935 0.63439 0.74071 0.0
C562 C 1.0053 0.6105 0.80724 0.0
C563 C 1.01223 0.63308 0.83273 0.0
C564 C 1.00052 0.65599 0.8158 0.0
C565 C 0.98404 0.65633 0.77016 0.0
C566 C 0.01669 0.58551 0.82514 0.0
C567 C 1.00713 0.68062 0.84104 0.0
C568 C 0.05273 0.62418 0.96273 0.0
C569 C 0.07675 0.62332 0.93635 0.0
C570 C 0.03142 0.62886 0.9301 0.0
C571 C 0.03431 0.63279 0.86999 0.0
C572 C 0.05864 0.63394 0.84412 0.0
C573 C 0.07954 0.62898 0.87757 0.0
C574 C 1.00579 0.62858 0.95929 0.0
C575 C 0.06257 0.63914 0.78049 0.0
H576 H 0.98549 0.59458 0.73809 0.0
H577 H 0.97664 0.6741 0.75425 0.0
H578 H 0.0365 0.58437 0.80935 0.0
H579 H 0.01651 0.58351 0.87266 0.0
H580 H 1.00663 0.56957 0.8075 0.0
H581 H 0.99031 0.69318 0.84469 0.0
H582 H 0.01533 0.67845 0.88395 0.0
H583 H 0.02091 0.6899 0.81148 0.0
H584 H 0.05049 0.61966 0.00815 0.0
H585 H 0.09813 0.62849 0.85744 0.0
H586 H 0.9946 0.61356 0.94131 0.0
H587 H 0.99574 0.64662 0.9507 0.0
H588 H 1.00667 0.62556 1.00651 0.0
H589 H 0.05526 0.62345 0.75596 0.0
H590 H 0.08263 0.6414 0.76796 0.0
H591 H 0.05205 0.65642 0.76776 0.0
C592 C 0.02167 0.11179 0.78455 0.0
C593 C 0.03237 0.13516 0.79237 0.0
C594 C 1.00614 0.10782 0.73853 0.0
C595 C 1.00121 0.1277 0.69915 0.0
C596 C 1.01418 0.15036 0.70289 0.0
C597 C 0.02954 0.15392 0.74976 0.0
C598 C 0.99352 0.08295 0.73463 0.0
C599 C 1.01066 0.17126 0.65915 0.0
C600 C 0.96307 0.10983 0.57222 0.0
C601 C 0.93853 0.11411 0.59404 0.0
C602 C 0.98389 0.11546 0.60433 0.0
C603 C 0.9801 0.12576 0.65954 0.0
C604 C 0.95545 0.13191 0.67985 0.0
C605 C 0.93502 0.12608 0.64686 0.0
C606 C 1.00964 0.10841 0.58062 0.0
C607 C 0.95051 0.1432 0.73821 0.0
H608 H 0.02437 0.097 0.81644 0.0
H609 H 0.03789 0.17197 0.75493 0.0
H610 H 0.9944 0.07636 0.68971 0.0
H611 H 1.00217 0.06833 0.7627 0.0
H612 H 0.97347 0.08521 0.74791 0.0
H613 H 0.02307 0.18722 0.6662 0.0
H614 H 0.01457 0.16418 0.6152 0.0
H615 H 0.99091 0.17816 0.66099 0.0
H616 H 0.96604 0.10096 0.53103 0.0
H617 H 0.91628 0.12942 0.66449 0.0
H618 H 1.0104 0.10975 0.53293 0.0
H619 H 1.014 0.08869 0.59327 0.0
H620 H 0.02435 0.12031 0.5973 0.0
H621 H 0.9567 0.12985 0.77227 0.0
H622 H 0.9304 0.148 0.74653 0.0
H623 H 0.96141 0.16043 0.74169 0.0
C624 C 0.74004 0.02169 0.84309 0.0
C625 C 0.73817 0.99933 0.87575 0.0
C626 C 0.75855 0.02457 0.7988 0.0
C627 C 0.7759 1.0047 0.78653 0.0
C628 C 0.77442 0.98226 0.82 0.0
C629 C 0.75566 0.97985 0.86384 0.0
C630 C 0.7592 0.04877 0.76422 0.0
C631 C 0.79251 0.96061 0.80903 0.0
C632 C 0.80607 1.00139 0.63513 0.0
C633 C 0.82986 1.01135 0.64214 0.0
C634 C 0.78853 0.99914 0.68148 0.0
C635 C 0.79473 1.00687 0.73697 0.0
C636 C 0.81882 0.01667 0.74466 0.0
C637 C 0.83601 0.01885 0.69731 0.0
C638 C 0.76317 0.98865 0.67083 0.0
C639 C 0.82636 0.02503 0.80294 0.0
H640 H 0.72662 0.03682 0.85122 0.0
H641 H 0.75483 0.96263 0.88912 0.0
H642 H 0.77807 0.05691 0.76513 0.0
H643 H 0.75547 0.04505 0.71865 0.0
H644 H 0.74518 0.06284 0.78049 0.0
H645 H 0.78965 0.94486 0.84028 0.0
H646 H 0.79027 0.95357 0.76506 0.0
H647 H 0.81205 0.96694 0.81141 0.0
H648 H 0.80091 0.99556 0.59294 0.0
H649 H 0.85423 0.02662 0.7035 0.0
H650 H 0.74827 1.00267 0.68233 0.0
H651 H 0.76 0.97182 0.69856 0.0
H652 H 0.76119 0.98343 0.62531 0.0
H653 H 0.81357 0.04035 0.81815 0.0
H654 H 0.84587 0.03175 0.8023 0.0
H655 H 0.82467 1.00931 0.83463 0.0
C656 C 0.49217 0.80866 0.68626 0.0
C657 C 0.51657 0.81085 0.66269 0.0
C658 C 0.48666 0.79051 0.72978 0.0
C659 C 0.506 0.77435 0.75035 0.0
C660 C 0.53068 0.77702 0.72755 0.0
C661 C 0.53558 0.79503 0.6843 0.0
C662 C 0.4601 0.78825 0.75289 0.0
C663 C 0.55202 0.76042 0.748 0.0
C664 C 0.50471 0.73599 0.89049 0.0
C665 C 0.50219 0.71163 0.87022 0.0
C666 C 0.50414 0.75697 0.85263 0.0
C667 C 0.50082 0.75355 0.7931 0.0
C668 C 0.49652 0.72916 0.77332 0.0
C669 C 0.49731 0.70861 0.81193 0.0
C670 C 0.50876 0.78256 0.87577 0.0
C671 C 0.49273 0.7245 0.71052 0.0
H672 H 0.47737 0.8208 0.67013 0.0
H673 H 0.55461 0.7966 0.6672 0.0
H674 H 0.45273 0.76987 0.74111 0.0
H675 H 0.45949 0.78893 0.80051 0.0
H676 H 0.44757 0.80333 0.73586 0.0
H677 H 0.57033 0.76563 0.72773 0.0
H678 H 0.55332 0.76154 0.79531 0.0
H679 H 0.54852 0.74062 0.73792 0.0
H680 H 0.50845 0.73854 0.93538 0.0
H681 H 0.49472 0.68995 0.79608 0.0
H682 H 0.49547 0.79669 0.85786 0.0
H683 H 0.52794 0.78833 0.86243 0.0
H684 H 0.50701 0.78279 0.92343 0.0
H685 H 0.4788 0.73809 0.69307 0.0
H686 H 0.48634 0.70521 0.70321 0.0
H687 H 0.51063 0.72718 0.68583 0.0
C688 C 0.7723 0.50469 0.79984 0.0
C689 C 0.79191 0.48707 0.79149 0.0
C690 C 0.75294 0.50727 0.76051 0.0
C691 C 0.75302 0.49176 0.71172 0.0
C692 C 0.77205 0.47305 0.70482 0.0
C693 C 0.79125 0.47101 0.74453 0.0
C694 C 0.73322 0.52764 0.76947 0.0
C695 C 0.77283 0.45593 0.65395 0.0
C696 C 0.69421 0.49293 0.62195 0.0
C697 C 0.70057 0.51064 0.57881 0.0
C698 C 0.71128 0.486 0.66481 0.0
C699 C 0.73512 0.49716 0.66469 0.0
C700 C 0.74182 0.51437 0.62011 0.0
C701 C 0.72462 0.52073 0.57785 0.0
C702 C 0.70375 0.46705 0.71071 0.0
C703 C 0.76696 0.52675 0.61793 0.0
H704 H 0.77269 0.51726 0.83571 0.0
H705 H 0.80602 0.457 0.73831 0.0
H706 H 0.7372 0.54351 0.73928 0.0
H707 H 0.71443 0.52076 0.76016 0.0
H708 H 0.73283 0.53476 0.814 0.0
H709 H 0.78687 0.4404 0.65853 0.0
H710 H 0.75421 0.44782 0.64827 0.0
H711 H 0.77768 0.46685 0.61423 0.0
H712 H 0.6757 0.48507 0.62327 0.0
H713 H 0.72988 0.5343 0.54462 0.0
H714 H 0.70619 0.47479 0.75397 0.0
H715 H 0.71613 0.45015 0.70718 0.0
H716 H 0.68406 0.46128 0.70728 0.0
H717 H 0.76887 0.53804 0.65694 0.0
H718 H 0.76956 0.53921 0.57952 0.0
H719 H 0.78225 0.51234 0.61749 0.0
C720 C 0.02715 0.80765 0.76934 0.0
C721 C 0.03455 0.80503 0.82649 0.0
C722 C 0.02725 0.78712 0.73256 0.0
C723 C 0.03466 0.76302 0.75314 0.0
C724 C 0.04291 0.76027 0.81021 0.0
C725 C 0.04267 0.78124 0.84613 0.0
C726 C 0.01852 0.79115 0.67199 0.0
C727 C 0.05106 0.73521 0.83501 0.0
C728 C 1.0014 0.71296 0.67443 0.0
C729 C 0.0194 0.70561 0.63244 0.0
C730 C 1.00685 0.73007 0.71679 0.0
C731 C 0.03078 0.74077 0.71656 0.0
C732 C 0.04961 0.73223 0.67651 0.0
C733 C 0.04375 0.71453 0.63497 0.0
C734 C 0.9864 0.73786 0.75962 0.0
C735 C 0.0755 0.74279 0.67576 0.0
H736 H 0.02054 0.8257 0.75342 0.0
H737 H 0.04883 0.77886 0.88972 0.0
H738 H 0.03229 0.78278 0.6407 0.0
H739 H 1.00051 0.78165 0.66722 0.0
H740 H 0.01578 0.81132 0.66071 0.0
H741 H 0.06707 0.7374 0.86347 0.0
H742 H 0.0354 0.72756 0.86195 0.0
H743 H 0.05655 0.72145 0.80154 0.0
H744 H 0.98262 0.70582 0.67307 0.0
H745 H 0.05772 0.70881 0.60269 0.0
H746 H 0.97949 0.75705 0.74855 0.0
H747 H 0.99374 0.73828 0.80356 0.0
H748 H 0.97033 0.72505 0.76002 0.0
H749 H 0.07459 0.76283 0.66217 0.0
H750 H 0.08867 0.73263 0.64596 0.0
H751 H 0.08299 0.74188 0.71961 0.0
C752 C 0.23111 1.00375 0.74625 0.0
C753 C 0.23567 1.00391 0.68653 0.0
C754 C 0.25087 1.00354 0.78453 0.0
C755 C 0.27595 1.0038 0.76276 0.0
C756 C 0.28072 1.00246 0.70257 0.0
C757 C 0.26054 1.00242 0.66523 0.0
C758 C 0.24481 1.00466 0.84825 0.0
C759 C 0.30708 1.00289 0.67728 0.0
C760 C 0.31937 0.04111 0.85192 0.0
C761 C 0.33311 0.02245 0.88133 0.0
C762 C 0.3014 0.03515 0.81241 0.0
C763 C 0.29655 1.00976 0.80194 0.0
C764 C 0.31061 0.99067 0.83056 0.0
C765 C 0.32891 0.99724 0.86969 0.0
C766 C 0.28726 0.05622 0.78254 0.0
C767 C 0.30588 0.96338 0.82089 0.0
H768 H 0.21196 1.0044 0.76309 0.0
H769 H 0.26427 1.00264 0.6192 0.0
H770 H 0.25671 0.99102 0.87212 0.0
H771 H 0.24882 0.02361 0.86376 0.0
H772 H 0.22484 1.00073 0.85873 0.0
H773 H 0.30791 0.9979 0.63115 0.0
H774 H 0.31457 0.02196 0.68115 0.0
H775 H 0.31949 0.98974 0.70114 0.0
H776 H 0.32267 0.06068 0.85972 0.0
H777 H 0.33943 0.98272 0.89212 0.0
H778 H 0.26707 0.05549 0.79498 0.0
H779 H 0.289 0.05412 0.73525 0.0
H780 H 0.29411 0.07497 0.79335 0.0
H781 H 0.28666 0.95888 0.83672 0.0
H782 H 0.3194 0.95082 0.8433 0.0
H783 H 0.30705 0.95941 0.77428 0.0
C784 C 0.48498 0.22611 0.69079 0.0
C785 C 0.50548 0.21294 0.66526 0.0
C786 C 0.48825 0.2468 0.72638 0.0
C787 C 0.51268 0.25477 0.73752 0.0
C788 C 0.53349 0.24149 0.71228 0.0
C789 C 0.52966 0.22093 0.67644 0.0
C790 C 0.46544 0.26041 0.75141 0.0
C791 C 0.55988 0.24908 0.72301 0.0
C792 C 0.52195 0.32267 0.78196 0.0
C793 C 0.52431 0.32045 0.84185 0.0
C794 C 0.51793 0.30165 0.74796 0.0
C795 C 0.51638 0.27745 0.7739 0.0
C796 C 0.51837 0.27508 0.83446 0.0
C797 C 0.52218 0.29652 0.8676 0.0
C798 C 0.51563 0.30534 0.6839 0.0
C799 C 0.51694 0.24977 0.86419 0.0
H800 H 0.46618 0.22059 0.68204 0.0
H801 H 0.54568 0.21091 0.65763 0.0
H802 H 0.46624 0.26072 0.79892 0.0
H803 H 0.46511 0.28017 0.73571 0.0
H804 H 0.44773 0.25163 0.73989 0.0
H805 H 0.57409 0.23649 0.70187 0.0
H806 H 0.56281 0.2685 0.70675 0.0
H807 H 0.563 0.24892 0.76987 0.0
H808 H 0.52353 0.34095 0.76126 0.0
H809 H 0.52416 0.29439 0.91361 0.0
H810 H 0.49766 0.29785 0.67024 0.0
H811 H 0.53088 0.29477 0.66085 0.0
H812 H 0.51654 0.32538 0.67035 0.0
H813 H 0.49899 0.24092 0.85509 0.0
H814 H 0.51849 0.25098 0.9115 0.0
H815 H 0.53222 0.23725 0.84724 0.0
C816 C 0.2646 0.51793 0.6377 0.0
C817 C 0.28501 0.50258 0.65354 0.0
C818 C 0.24388 0.52201 0.67576 0.0
C819 C 0.24363 0.51079 0.73149 0.0
C820 C 0.26442 0.49569 0.74807 0.0
C821 C 0.2847 0.49163 0.70884 0.0
C822 C 0.22203 0.53793 0.65588 0.0
C823 C 0.26519 0.48367 0.80722 0.0
C824 C 0.19956 0.53765 0.84896 0.0
C825 C 0.1802 0.52028 0.8516 0.0
C826 C 0.22019 0.53488 0.81004 0.0
C827 C 0.22147 0.51442 0.7721 0.0
C828 C 0.20175 0.49711 0.77379 0.0
C829 C 0.18151 0.50014 0.81365 0.0
C830 C 0.24087 0.55362 0.81027 0.0
C831 C 0.20213 0.47521 0.73373 0.0
H832 H 0.26449 0.52616 0.59483 0.0
H833 H 0.30048 0.47996 0.72157 0.0
H834 H 0.20487 0.52663 0.65696 0.0
H835 H 0.21846 0.55377 0.68539 0.0
H836 H 0.22522 0.5456 0.61159 0.0
H837 H 0.28306 0.47321 0.81424 0.0
H838 H 0.26269 0.49819 0.84049 0.0
H839 H 0.24954 0.47051 0.81352 0.0
H840 H 0.19886 0.55322 0.87817 0.0
H841 H 0.16667 0.48665 0.81506 0.0
H842 H 0.2435 0.56238 0.76695 0.0
H843 H 0.25877 0.54393 0.82073 0.0
H844 H 0.23698 0.56865 0.84188 0.0
H845 H 0.20401 0.48199 0.68846 0.0
H846 H 0.18495 0.46398 0.73879 0.0
H847 H 0.21858 0.46278 0.74198 0.0
C848 C 0.01854 0.2936 0.7331 0.0
C849 C 0.99876 0.30395 0.70193 0.0
C850 C 1.01444 0.27496 0.77551 0.0
C851 C 0.9898 0.2668 0.78827 0.0
C852 C 0.96973 0.27695 0.75636 0.0
C853 C 0.97451 0.29523 0.71304 0.0
C854 C 0.03654 0.26423 0.80722 0.0
C855 C 0.94316 0.26915 0.76929 0.0
C856 C 0.98879 0.20485 0.8717 0.0
C857 C 0.98925 0.21311 0.92834 0.0
C858 C 0.98717 0.22213 0.82541 0.0
C859 C 0.98541 0.24814 0.83618 0.0
C860 C 0.98333 0.25629 0.89371 0.0
C861 C 0.98571 0.23871 0.93905 0.0
C862 C 0.98991 0.21266 0.76502 0.0
C863 C 0.98082 0.28376 0.90741 0.0
H864 H 0.03732 0.30014 0.72405 0.0
H865 H 0.95918 0.3034 0.68927 0.0
H866 H 0.03458 0.26895 0.85336 0.0
H867 H 0.03714 0.24349 0.80458 0.0
H868 H 0.05463 0.27149 0.78978 0.0
H869 H 0.92987 0.27768 0.7385 0.0
H870 H 0.94186 0.24847 0.76809 0.0
H871 H 0.93728 0.27491 0.81336 0.0
H872 H 0.99214 0.18513 0.86318 0.0
H873 H 0.98634 0.24515 0.98284 0.0
H874 H 1.00848 0.21784 0.74622 0.0
H875 H 0.97546 0.22133 0.73748 0.0
H876 H 0.98842 0.19204 0.76409 0.0
H877 H 0.99904 0.29283 0.89865 0.0
H878 H 0.97514 0.28671 0.95318 0.0
H879 H 0.96687 0.29326 0.87977 0.0
C880 C 0.22914 0.03384 0.32918 0.0
C881 C 0.23748 0.03459 0.38561 0.0
C882 C 0.24552 0.03887 0.28148 0.0
C883 C 0.27081 0.04493 0.2903 0.0
C884 C 0.27893 0.04668 0.34728 0.0
C885 C 0.26229 0.04146 0.39388 0.0
C886 C 0.23602 0.03677 0.22159 0.0
C887 C 0.30553 0.05327 0.35917 0.0
C888 C 0.323 0.03189 0.17732 0.0
C889 C 0.32762 0.0559 0.15393 0.0
C890 C 0.30406 0.02797 0.22005 0.0
C891 C 0.28922 0.0485 0.24057 0.0
C892 C 0.29337 0.07267 0.21637 0.0
C893 C 0.31239 0.07606 0.17353 0.0
C894 C 0.3004 1.00185 0.24445 0.0
C895 C 0.27808 0.09512 0.23669 0.0
H896 H 0.21013 0.02836 0.32216 0.0
H897 H 0.26898 0.04222 0.43719 0.0
H898 H 0.24027 0.05396 0.19588 0.0
H899 H 0.24574 0.02084 0.19969 0.0
H900 H 0.21554 0.03378 0.22176 0.0
H901 H 0.3086 0.0551 0.40581 0.0
H902 H 0.3186 0.03857 0.34198 0.0
H903 H 0.31041 0.07118 0.33701 0.0
H904 H 0.3346 0.01614 0.16331 0.0
H905 H 0.31527 0.09463 0.15542 0.0
H906 H 0.28049 0.99669 0.24223 0.0
H907 H 0.30518 1.00123 0.29043 0.0
H908 H 0.31218 0.98761 0.22133 0.0
H909 H 0.25782 0.09153 0.23386 0.0
H910 H 0.28249 0.11239 0.2113 0.0
H911 H 0.28167 0.09848 0.2825 0.0
C912 C 0.53274 0.24009 0.39147 0.0
C913 C 0.54076 0.21483 0.39086 0.0
C914 C 0.53854 0.25668 0.34558 0.0
C915 C 0.55289 0.24801 0.29741 0.0
C916 C 0.56183 0.22274 0.29722 0.0
C917 C 0.55565 0.20645 0.3439 0.0
C918 C 0.52865 0.2834 0.34803 0.0
C919 C 0.57735 0.21276 0.247 0.0
C920 C 0.54534 0.28587 0.15754 0.0
C921 C 0.5661 0.30154 0.15701 0.0
C922 C 0.54117 0.26797 0.20204 0.0
C923 C 0.55816 0.26548 0.24733 0.0
C924 C 0.5793 0.28095 0.24667 0.0
C925 C 0.58293 0.29876 0.20194 0.0
C926 C 0.51831 0.25197 0.20107 0.0
C927 C 0.59788 0.27906 0.29399 0.0
H928 H 0.52128 0.24687 0.42749 0.0
H929 H 0.56177 0.18696 0.34265 0.0
H930 H 0.5443 0.2966 0.34272 0.0
H931 H 0.51591 0.2872 0.31214 0.0
H932 H 0.51829 0.2874 0.38914 0.0
H933 H 0.58393 0.19311 0.2545 0.0
H934 H 0.56614 0.21353 0.2078 0.0
H935 H 0.59386 0.22463 0.23838 0.0
H936 H 0.53235 0.28746 0.123 0.0
H937 H 0.59883 0.31086 0.20299 0.0
H938 H 0.5059 0.25593 0.23918 0.0
H939 H 0.52388 0.23184 0.20356 0.0
H940 H 0.50747 0.25537 0.16174 0.0
H941 H 0.58861 0.28463 0.33531 0.0
H942 H 0.61423 0.29119 0.28534 0.0
H943 H 0.60471 0.2594 0.29944 0.0
C944 C 0.25868 0.54145 0.39524 0.0
C945 C 0.28452 0.54082 0.38256 0.0
C946 C 0.2413 0.5444 0.35164 0.0
C947 C 0.24987 0.54633 0.29348 0.0
C948 C 0.27599 0.54765 0.28084 0.0
C949 C 0.29303 0.54492 0.32558 0.0
C950 C 0.21372 0.54345 0.36762 0.0
C951 C 0.2862 0.54973 0.21984 0.0
C952 C 0.20642 0.51606 0.19045 0.0
C953 C 0.19349 0.53677 0.16687 0.0
C954 C 0.22549 0.51907 0.22956 0.0
C955 C 0.23168 0.54342 0.24661 0.0
C956 C 0.21922 0.56449 0.22169 0.0
C957 C 0.2004 0.56093 0.18181 0.0
C958 C 0.23867 0.49605 0.25369 0.0
C959 C 0.22528 0.59074 0.23843 0.0
H960 H 0.25201 0.53823 0.43924 0.0
H961 H 0.31297 0.544 0.31526 0.0
H962 H 0.20323 0.55854 0.3447 0.0
H963 H 0.20633 0.52528 0.35444 0.0
H964 H 0.21002 0.54539 0.41459 0.0
H965 H 0.28872 0.53063 0.20225 0.0
H966 H 0.27337 0.56058 0.19184 0.0
H967 H 0.30468 0.55879 0.21813 0.0
H968 H 0.20156 0.49737 0.17824 0.0
H969 H 0.19047 0.57701 0.16383 0.0
H970 H 0.23459 0.49445 0.30066 0.0
H971 H 0.25923 0.49768 0.2472 0.0
H972 H 0.23281 0.47857 0.23342 0.0
H973 H 0.22027 0.59338 0.28461 0.0
H974 H 0.21508 0.60519 0.21278 0.0
H975 H 0.24568 0.59375 0.23266 0.0
C976 C 0.01719 0.21408 0.21186 0.0
C977 C 0.04004 0.211 0.18092 0.0
C978 C 1.01295 0.2342 0.24948 0.0
C979 C 0.03194 0.25187 0.25632 0.0
C980 C 0.05518 0.24866 0.22595 0.0
C981 C 0.05895 0.22832 0.18883 0.0
C982 C 0.98794 0.23679 0.28123 0.0
C983 C 0.07587 0.26711 0.23144 0.0
C984 C 1.01076 0.31719 0.30379 0.0
C985 C 0.01569 0.3165 0.36266 0.0
C986 C 0.01635 0.29652 0.26873 0.0
C987 C 0.02703 0.27436 0.29294 0.0
C988 C 0.03255 0.27368 0.35209 0.0
C989 C 0.02692 0.29476 0.38617 0.0
C990 C 1.01038 0.29825 0.20585 0.0
C991 C 0.04386 0.25044 0.37968 0.0
H992 H 1.00258 0.20072 0.20667 0.0
H993 H 0.07654 0.22645 0.16467 0.0
H994 H 0.99067 0.23792 0.32811 0.0
H995 H 0.9783 0.25442 0.26752 0.0
H996 H 0.97557 0.22088 0.27344 0.0
H997 H 0.09326 0.26133 0.20723 0.0
H998 H 0.06964 0.28581 0.21505 0.0
H999 H 0.08024 0.26919 0.27727 0.0
H1000 H 1.00216 0.33387 0.28502 0.0
H1001 H 0.03068 0.29393 0.4316 0.0
H1002 H 0.99628 0.28416 0.19623 0.0
H1003 H 0.02741 0.29395 0.17891 0.0
H1004 H 1.00297 0.31709 0.19314 0.0
H1005 H 0.03091 0.23464 0.37662 0.0
H1006 H 0.04777 0.25312 0.42566 0.0
H1007 H 0.06157 0.24497 0.3565 0.0
C1008 C 0.72495 0.02632 0.21702 0.0
C1009 C 0.72529 0.03783 0.16232 0.0
C1010 C 0.74428 0.0296 0.25521 0.0
C1011 C 0.76489 0.04451 0.23819 0.0
C1012 C 0.76453 0.0576 0.18442 0.0
C1013 C 0.74463 0.05419 0.14708 0.0
C1014 C 0.74351 1.01545 0.31205 0.0
C1015 C 0.78604 0.07371 0.16448 0.0
C1016 C 0.81221 0.0563 0.35422 0.0
C1017 C 0.82987 0.03674 0.34482 0.0
C1018 C 0.7914 0.05972 0.31883 0.0
C1019 C 0.78805 0.04319 0.27292 0.0
C1020 C 0.80598 0.02367 0.26287 0.0
C1021 C 0.82643 0.02065 0.29881 0.0
C1022 C 0.77275 0.08074 0.33119 0.0
C1023 C 0.80322 1.00539 0.21492 0.0
H1024 H 0.70998 1.01368 0.22904 0.0
H1025 H 0.74513 0.0629 0.10463 0.0
H1026 H 0.75764 0.99989 0.31075 0.0
H1027 H 0.74825 0.02788 0.34746 0.0
H1028 H 0.72486 1.00741 0.32211 0.0
H1029 H 0.78127 0.08568 0.12666 0.0
H1030 H 0.79174 0.08586 0.19958 0.0
H1031 H 0.8024 0.06153 0.15235 0.0
H1032 H 0.81466 0.06902 0.38909 0.0
H1033 H 0.83947 1.00516 0.29139 0.0
H1034 H 0.75442 0.07285 0.34473 0.0
H1035 H 0.7698 0.09223 0.29169 0.0
H1036 H 0.77889 0.0931 0.36555 0.0
H1037 H 0.78617 0.99427 0.22329 0.0
H1038 H 0.81956 0.99224 0.21038 0.0
H1039 H 0.80095 1.01564 0.17346 0.0
C1040 C 0.55773 0.78051 0.37364 0.0
C1041 C 0.54004 0.80002 0.38347 0.0
C1042 C 0.5527 0.76019 0.33819 0.0
C1043 C 0.52948 0.75926 0.31076 0.0
C1044 C 0.51163 0.77903 0.32004 0.0
C1045 C 0.51701 0.79895 0.35647 0.0
C1046 C 0.57217 0.73947 0.33077 0.0
C1047 C 0.48677 0.77917 0.29133 0.0
C1048 C 0.52452 0.71683 0.18002 0.0
C1049 C 0.51191 0.69603 0.20373 0.0
C1050 C 0.53027 0.73746 0.21404 0.0
C1051 C 0.52365 0.73735 0.27368 0.0
C1052 C 0.51137 0.71618 0.29797 0.0
C1053 C 0.50552 0.69602 0.26287 0.0
C1054 C 0.54309 0.75962 0.18589 0.0
C1055 C 0.50425 0.71484 0.36126 0.0
H1056 H 0.57544 0.78084 0.39471 0.0
H1057 H 0.50329 0.81395 0.36312 0.0
H1058 H 0.56432 0.72139 0.34616 0.0
H1059 H 0.57747 0.73743 0.28459 0.0
H1060 H 0.58933 0.74293 0.35464 0.0
H1061 H 0.47522 0.79622 0.30123 0.0
H1062 H 0.48982 0.77812 0.24405 0.0
H1063 H 0.47611 0.76245 0.30551 0.0
H1064 H 0.52941 0.71726 0.13446 0.0
H1065 H 0.49585 0.68014 0.28199 0.0
H1066 H 0.56102 0.76287 0.20678 0.0
H1067 H 0.5312 0.77677 0.19161 0.0
H1068 H 0.54699 0.75697 0.1392 0.0
H1069 H 0.52108 0.71714 0.38702 0.0
H1070 H 0.4955 0.69682 0.37405 0.0
H1071 H 0.49092 0.73038 0.37235 0.0
C1072 C 0.71302 0.52661 0.31359 0.0
C1073 C 0.69782 0.54844 0.31009 0.0
C1074 C 0.7331 0.52218 0.27395 0.0
C1075 C 0.7385 0.54007 0.22974 0.0
C1076 C 0.7232 0.56201 0.22554 0.0
C1077 C 0.70305 0.56582 0.26527 0.0
C1078 C 0.74875 0.49842 0.27983 0.0
C1079 C 0.72832 0.58167 0.17938 0.0
C1080 C 0.80508 0.53926 0.16432 0.0
C1081 C 0.80229 0.52664 0.11268 0.0
C1082 C 0.78446 0.54417 0.2021 0.0
C1083 C 0.76038 0.53601 0.18854 0.0
C1084 C 0.75737 0.52357 0.13609 0.0
C1085 C 0.77827 0.5192 0.09873 0.0
C1086 C 0.78853 0.55781 0.25704 0.0
C1087 C 0.73215 0.5143 0.12009 0.0
H1088 H 0.70962 0.51306 0.34793 0.0
H1089 H 0.6914 0.58254 0.26099 0.0
H1090 H 0.74919 0.48805 0.23897 0.0
H1091 H 0.76833 0.50308 0.28865 0.0
H1092 H 0.74155 0.48587 0.31496 0.0
H1093 H 0.7147 0.59769 0.18172 0.0
H1094 H 0.74744 0.58891 0.18343 0.0
H1095 H 0.72759 0.57329 0.1363 0.0
H1096 H 0.8235 0.54515 0.1756 0.0
H1097 H 0.77586 0.50927 0.05923 0.0
H1098 H 0.78388 0.54546 0.29458 0.0
H1099 H 0.77589 0.57455 0.25986 0.0
H1100 H 0.80815 0.56389 0.26021 0.0
H1101 H 0.72544 0.50034 0.15269 0.0
H1102 H 0.73276 0.50549 0.07723 0.0
H1103 H 0.71822 0.53003 0.11983 0.0
C1104 C 1.0115 0.81844 0.22194 0.0
C1105 C 1.00978 0.81686 0.16209 0.0
C1106 C 1.00548 0.79813 0.25878 0.0
C1107 C 0.99778 0.7754 0.23541 0.0
C1108 C 0.99539 0.77384 0.17511 0.0
C1109 C 1.00126 0.79462 0.13919 0.0
C1110 C 1.00796 0.80084 0.32275 0.0
C1111 C 0.98739 0.74993 0.14837 0.0
C1112 C 1.00828 0.71659 0.32842 0.0
C1113 C 0.98433 0.71275 0.35315 0.0
C1114 C 1.01277 0.73648 0.289 0.0
C1115 C 0.9929 0.75319 0.27424 0.0
C1116 C 0.96865 0.74932 0.29879 0.0
C1117 C 0.96466 0.72915 0.33764 0.0
C1118 C 0.03887 0.73976 0.26356 0.0
C1119 C 0.947 0.76682 0.28501 0.0
H1120 H 0.01796 0.83555 0.24015 0.0
H1121 H 1.00008 0.79312 0.09303 0.0
H1122 H 0.99017 0.79598 0.34579 0.0
H1123 H 0.02266 0.78762 0.33832 0.0
H1124 H 1.01291 0.82014 0.33435 0.0
H1125 H 0.98548 0.752 0.10116 0.0
H1126 H 1.00136 0.73473 0.15697 0.0
H1127 H 0.96925 0.74395 0.16801 0.0
H1128 H 0.02352 0.70389 0.33953 0.0
H1129 H 0.94617 0.72661 0.35702 0.0
H1130 H 0.04622 0.75794 0.27678 0.0
H1131 H 0.03848 0.74017 0.21594 0.0
H1132 H 0.052 0.72453 0.27726 0.0
H1133 H 0.95091 0.78596 0.2995 0.0
H1134 H 0.92911 0.76074 0.30593 0.0
H1135 H 0.94469 0.76803 0.23788 0.0
C1136 C 0.47762 1.00747 0.00935 0.0
C1137 C 0.46528 0.02597 0.04264 0.0
C1138 C 0.50375 1.00806 0.99759 0.0
C1139 C 0.51793 0.02789 0.01839 0.0
C1140 C 0.50562 0.04633 0.05259 0.0
C1141 C 0.47971 0.04504 0.0647 0.0
C1142 C 0.516 0.98781 0.96145 0.0
C1143 C 0.51984 0.06778 0.07569 0.0
C1144 C 0.58777 0.0167 0.03815 0.0
C1145 C 0.59894 0.03047 0.99282 0.0
C1146 C 0.56172 0.01589 0.04709 0.0
C1147 C 0.54589 0.02856 0.00815 0.0
C1148 C 0.55692 0.04205 0.96079 0.0
C1149 C 0.58336 0.04297 0.9538 0.0
C1150 C 0.55117 1.00118 0.0981 0.0
C1151 C 0.54077 0.05486 0.91673 0.0
H1152 H 0.46681 0.99282 0.99135 0.0
H1153 H 0.47062 0.05969 0.08995 0.0
H1154 H 0.51935 0.99537 0.91724 0.0
H1155 H 0.53438 0.98173 0.97818 0.0
H1156 H 0.50408 0.97114 0.95961 0.0
H1157 H 0.53611 0.06036 0.09933 0.0
H1158 H 0.52723 0.07958 0.03952 0.0
H1159 H 0.50806 0.07978 0.10475 0.0
H1160 H 0.59955 1.00581 0.06589 0.0
H1161 H 0.59178 0.0528 0.91712 0.0
H1162 H 0.53711 0.98783 0.08426 0.0
H1163 H 0.54156 1.01421 0.12858 0.0
H1164 H 0.56589 0.99048 0.12126 0.0
H1165 H 0.52933 0.04076 0.89598 0.0
H1166 H 0.55202 0.06488 0.88291 0.0
H1167 H 0.5276 0.06845 0.93791 0.0
C1168 C 0.49798 0.4552 0.99157 0.0
C1169 C 0.51804 0.43903 1.00565 0.0
C1170 C 0.49737 0.48067 1.00734 0.0
C1171 C 0.51784 0.49071 0.03573 0.0
C1172 C 0.53829 0.47449 0.04934 0.0
C1173 C 0.53789 0.44887 0.03535 0.0
C1174 C 0.47493 0.49693 0.9928 0.0
C1175 C 0.56104 0.48439 0.07708 0.0
C1176 C 0.52573 0.56219 0.02465 0.0
C1177 C 0.5171 0.57011 0.07921 0.0
C1178 C 0.52651 0.53655 0.01023 0.0
C1179 C 0.51797 0.51814 0.05081 0.0
C1180 C 0.5093 0.52604 0.10595 0.0
C1181 C 0.50911 0.55171 0.11949 0.0
C1182 C 0.53587 0.52947 0.95072 0.0
C1183 C 0.49942 0.50742 0.15027 0.0
H1184 H 0.48268 0.44791 0.96812 0.0
H1185 H 0.55377 0.43676 0.04532 0.0
H1186 H 0.46816 0.50759 0.03095 0.0
H1187 H 0.48036 0.51076 0.95871 0.0
H1188 H 0.4593 0.48582 0.97739 0.0
H1189 H 0.57616 0.46989 0.0811 0.0
H1190 H 0.56847 0.50048 0.05142 0.0
H1191 H 0.5558 0.49134 0.12053 0.0
H1192 H 0.53172 0.57607 0.99278 0.0
H1193 H 0.50202 0.5574 0.16152 0.0
H1194 H 0.54549 0.51084 0.95067 0.0
H1195 H 0.54891 0.54358 0.93201 0.0
H1196 H 0.51972 0.52863 0.92229 0.0
H1197 H 0.4826 0.49848 0.134 0.0
H1198 H 0.49435 0.51629 0.19195 0.0
H1199 H 0.51354 0.49229 0.15791 0.0
C1200 C 0.93582 0.5127 0.95237 0.0
C1201 C 0.92513 0.50755 1.00721 0.0
C1202 C 0.962 0.5149 0.94373 0.0
C1203 C 0.97794 0.51205 0.99102 0.0
C1204 C 0.96712 0.5077 0.04663 0.0
C1205 C 0.94103 0.50542 0.05394 0.0
C1206 C 0.97268 0.51958 0.88373 0.0
C1207 C 0.98317 0.50495 0.09856 0.0
C1208 C 0.04687 0.49153 0.97267 0.0
C1209 C 0.05928 0.51421 0.97789 0.0
C1210 C 0.02048 0.49071 0.97462 0.0
C1211 C 1.00595 0.51304 0.98282 0.0
C1212 C 0.01838 0.53604 0.98708 0.0
C1213 C 0.04474 0.53638 0.98405 0.0
C1214 C 1.00812 0.4658 0.96925 0.0
C1215 C 1.00386 0.56027 0.99662 0.0
H1216 H 0.92382 0.51425 0.91587 0.0
H1217 H 0.93309 0.50157 0.09659 0.0
H1218 H 0.98446 0.53641 0.88269 0.0
H1219 H 0.98492 0.50347 0.87059 0.0
H1220 H 0.95785 0.52231 0.85183 0.0
H1221 H 0.97184 0.50276 0.1392 0.0
H1222 H 0.99589 0.48834 0.0939 0.0
H1223 H 0.99504 0.52158 0.10189 0.0
H1224 H 0.05778 0.4743 0.96754 0.0
H1225 H 0.05398 0.55409 0.98803 0.0
H1226 H 0.99412 0.46698 0.93522 0.0
H1227 H 0.99798 0.4609 0.01018 0.0
H1228 H 0.02185 0.45045 0.9589 0.0
H1229 H 0.99095 0.56387 0.961 0.0
H1230 H 0.01632 0.57649 0.99953 0.0
H1231 H 0.99223 0.55889 0.03693 0.0
C1232 C 0.99819 0.06218 0.03266 0.0
C1233 C 0.02141 0.07232 0.04445 0.0
C1234 C 0.99468 0.03599 0.03499 0.0
C1235 C 0.01481 0.0195 0.04955 0.0
C1236 C 0.03807 0.02974 0.06258 0.0
C1237 C 0.04105 0.05584 0.05986 0.0
C1238 C 0.96956 0.02593 0.02089 0.0
C1239 C 0.06007 1.01308 0.07863 0.0
C1240 C 1.00566 0.95233 0.10497 0.0
C1241 C 1.013 0.93813 0.05676 0.0
C1242 C 1.00508 0.97874 0.10256 0.0
C1243 C 1.01201 0.99152 0.05069 0.0
C1244 C 0.01853 0.97732 1.00129 0.0
C1245 C 0.01896 0.9509 1.00491 0.0
C1246 C 0.99799 0.99298 0.15632 0.0
C1247 C 0.02602 0.99004 0.94503 0.0
H1248 H 0.98291 0.07465 0.02047 0.0
H1249 H 0.05908 0.06331 0.06931 0.0
H1250 H 0.97158 1.01405 0.98238 0.0
H1251 H 0.96234 1.01388 0.05685 0.0
H1252 H 0.95553 0.04112 0.01244 0.0
H1253 H 0.07677 0.02395 0.08857 0.0
H1254 H 0.05495 1.00119 0.11666 0.0
H1255 H 0.06519 1.00034 0.0428 0.0
H1256 H 1.00091 0.9428 0.14528 0.0
H1257 H 0.02459 0.94026 0.96727 0.0
H1258 H 0.98344 1.00753 0.14719 0.0
H1259 H 0.01457 1.00272 0.17131 0.0
H1260 H 0.99087 0.9805 0.19166 0.0
H1261 H 1.01172 1.00444 0.93317 0.0
H1262 H 0.02847 0.97657 0.90943 0.0
H1263 H 0.04391 0.99979 0.94966 0.0
C1264 C 0.09043 1.0001 0.51749 0.0
C1265 C 0.10156 0.02267 0.49949 0.0
C1266 C 0.06424 0.99848 0.52688 0.0
C1267 C 0.04849 0.01991 0.51813 0.0
C1268 C 0.05961 0.0426 0.49871 0.0
C1269 C 0.08581 0.04367 0.48986 0.0
C1270 C 0.05342 0.97382 0.54679 0.0
C1271 C 0.04437 0.06615 0.48672 0.0
C1272 C 0.97771 1.01343 0.50031 0.0
C1273 C 0.96781 0.01933 0.55528 0.0
C1274 C 1.00381 1.01311 0.48786 0.0
C1275 C 0.02066 0.01876 0.53127 0.0
C1276 C 1.01079 0.02441 0.58696 0.0
C1277 C 0.98469 0.02458 0.59824 0.0
C1278 C 1.01335 1.00763 0.4276 0.0
C1279 C 0.02783 0.03116 0.63429 0.0
H1280 H 0.10223 0.98365 0.52493 0.0
H1281 H 0.09393 0.06122 0.47545 0.0
H1282 H 0.04406 0.97592 0.58978 0.0
H1283 H 0.03898 0.96811 0.5169 0.0
H1284 H 0.06792 0.95864 0.54949 0.0
H1285 H 0.04652 0.07121 0.44036 0.0
H1286 H 0.02415 0.06453 0.49778 0.0
H1287 H 0.05183 0.08188 0.51092 0.0
H1288 H 0.96503 1.00963 0.46645 0.0
H1289 H 0.97748 0.02948 0.64073 0.0
H1290 H 0.02772 0.9923 0.42835 0.0
H1291 H 0.02244 0.0245 0.40867 0.0
H1292 H 0.99814 1.00222 0.39937 0.0
H1293 H 0.0425 0.01635 0.63979 0.0
H1294 H 0.01751 0.0337 0.67609 0.0
H1295 H 0.03746 0.0488 0.62239 0.0
C1296 C 0.53827 0.95212 0.45411 0.0
C1297 C 0.51649 0.93953 0.47252 0.0
C1298 C 0.54142 0.97768 0.46478 0.0
C1299 C 0.52207 0.9916 0.4936 0.0
C1300 C 0.49963 0.97931 0.51046 0.0
C1301 C 0.49724 0.95341 0.50062 0.0
C1302 C 0.56621 0.98909 0.44735 0.0
C1303 C 0.47817 0.99358 0.53923 0.0
C1304 C 0.53755 0.05423 0.56174 0.0
C1305 C 0.52987 0.07181 0.51972 0.0
C1306 C 0.53612 0.02809 0.55288 0.0
C1307 C 0.52481 0.01923 0.50312 0.0
C1308 C 0.51687 0.03691 0.46115 0.0
C1309 C 0.52064 0.06257 0.46884 0.0
C1310 C 0.54645 1.00987 0.59684 0.0
C1311 C 0.50291 0.02927 0.40928 0.0
H1312 H 0.55367 0.94172 0.43364 0.0
H1313 H 0.48049 0.94395 0.51575 0.0
H1314 H 0.56474 1.00961 0.43963 0.0
H1315 H 0.57948 0.98556 0.4823 0.0
H1316 H 0.57447 0.98021 0.40811 0.0
H1317 H 0.46248 0.98127 0.55254 0.0
H1318 H 0.4848 1.00324 0.57734 0.0
H1319 H 0.47099 1.00825 0.5093 0.0
H1320 H 0.54484 0.06091 0.60132 0.0
H1321 H 0.51503 0.07533 0.43556 0.0
H1322 H 0.56053 0.9971 0.57606 0.0
H1323 H 0.53122 0.99804 0.61489 0.0
H1324 H 0.55547 0.01945 0.63226 0.0
H1325 H 0.50665 0.0422 0.37234 0.0
H1326 H 0.48253 0.03053 0.4197 0.0
H1327 H 0.50754 1.00984 0.39605 0.0
C1328 C 0.54366 0.53427 0.41353 0.0
C1329 C 0.55926 0.5271 0.45856 0.0
C1330 C 0.51751 0.53153 0.41841 0.0
C1331 C 0.50636 0.52215 0.47042 0.0
C1332 C 0.52205 0.5149 0.51614 0.0
C1333 C 0.54827 0.51713 0.50939 0.0
C1334 C 0.5018 0.5387 0.36775 0.0
C1335 C 0.51108 0.50524 0.57271 0.0
C1336 C 0.43595 0.53556 0.49798 0.0
C1337 C 0.42568 0.51243 0.4856 0.0
C1338 C 0.46215 0.53894 0.4942 0.0
C1339 C 0.47845 0.51896 0.476 0.0
C1340 C 0.468 0.49582 0.46224 0.0
C1341 C 0.44197 0.49278 0.46787 0.0
C1342 C 0.47245 0.56379 0.5103 0.0
C1343 C 0.48433 0.47422 0.44093 0.0
H1344 H 0.55198 0.54209 0.3742 0.0
H1345 H 0.56009 0.51201 0.54482 0.0
H1346 H 0.49069 0.52249 0.35536 0.0
H1347 H 0.48834 0.55401 0.37966 0.0
H1348 H 0.51334 0.54497 0.32978 0.0
H1349 H 0.52562 0.50143 0.60487 0.0
H1350 H 0.49726 0.51912 0.59054 0.0
H1351 H 0.50096 0.48771 0.56605 0.0
H1352 H 0.42358 0.55082 0.51179 0.0
H1353 H 0.4343 0.47491 0.45733 0.0
H1354 H 0.48263 0.57232 0.47276 0.0
H1355 H 0.4861 0.56093 0.54476 0.0
H1356 H 0.45752 0.57716 0.52542 0.0
H1357 H 0.49529 0.48011 0.40181 0.0
H1358 H 0.47328 0.45765 0.43057 0.0
H1359 H 0.49791 0.46853 0.47392 0.0
C1360 C 0.02771 0.56121 0.49616 0.0
C1361 C 1.0037 0.57143 0.48698 0.0
C1362 C 0.03268 0.53514 0.49188 0.0
C1363 C 1.01318 0.51888 0.47843 0.0
C1364 C 0.98909 0.52923 0.46823 0.0
C1365 C 0.98472 0.55518 0.47243 0.0
C1366 C 0.05868 0.52495 0.50258 0.0
C1367 C 0.96766 0.51279 0.45385 0.0
C1368 C 0.02324 0.45302 0.41938 0.0
C1369 C 0.01739 0.43782 0.46776 0.0
C1370 C 0.0234 0.47935 0.4229 0.0
C1371 C 0.0174 0.49098 0.476 0.0
C1372 C 1.01258 0.4757 0.52551 0.0
C1373 C 1.01271 0.44941 0.52085 0.0
C1374 C 0.02886 0.49477 0.36908 0.0
C1375 C 1.00598 0.48716 0.58297 0.0
H1376 H 0.04253 0.57349 0.50749 0.0
H1377 H 0.96608 0.56269 0.46504 0.0
H1378 H 0.05821 0.51223 0.54082 0.0
H1379 H 0.0657 0.51375 0.46549 0.0
H1380 H 0.07208 0.54006 0.50978 0.0
H1381 H 0.95011 0.52374 0.44647 0.0
H1382 H 0.97258 0.50197 0.41471 0.0
H1383 H 0.96407 0.49906 0.48943 0.0
H1384 H 0.02704 0.44439 0.37816 0.0
H1385 H 1.00822 0.43798 0.55863 0.0
H1386 H 0.0427 0.5093 0.37738 0.0
H1387 H 1.01146 0.50461 0.3556 0.0
H1388 H 0.03616 0.48307 0.33299 0.0
H1389 H 0.01986 0.50135 0.59331 0.0
H1390 H 1.00516 0.47289 0.61833 0.0
H1391 H 0.98746 0.49692 0.58113 0.0
loop_
_geom_bond_atom_site_label_1
_geom_bond_atom_site_label_2
_geom_bond_distance
_geom_bond_site_symmetry_2
_ccdc_geom_bond_type
Cu0 N1 1.999 . S
Cu0 O6 1.974 . S
Cu0 N11 1.985 1_544 S
Cu0 O20 1.959 . S
N1 Cu0 1.999 . S
N1 C3 1.263 . S
N1 C5 1.389 . S
N2 C3 1.358 . S
N2 C4 1.400 . S
C3 N1 1.263 . S
C3 N2 1.358 . S
C3 H9 0.930 . S
C4 N2 1.400 . S
C4 C5 1.351 . S
C4 H21 0.930 . S
C5 N1 1.389 . S
C5 C4 1.351 . S
C5 H10 0.930 . S
O6 Cu0 1.974 . S
O6 C16 1.282 1_545 S
C7 O8 1.261 . S
C7 O20 1.251 1_565 S
O8 C7 1.261 . S
H9 C3 0.930 . S
H10 C5 0.930 . S
N11 Cu0 1.985 1_566 S
N11 C13 1.335 . S
N11 C14 1.390 . S
N12 C13 1.345 . S
N12 C15 1.336 . S
C13 N11 1.335 . S
C13 N12 1.345 . S
C13 H18 0.930 1_565 S
C14 N11 1.390 . S
C14 C15 1.346 . S
C14 H19 0.930 . S
C15 N12 1.336 . S
C15 C14 1.346 . S
C15 H22 0.929 . S
C16 O6 1.282 1_565 S
C16 O17 1.216 . S
O17 C16 1.216 . S
H18 C13 0.930 1_545 S
H19 C14 0.930 . S
O20 Cu0 1.959 . S
O20 C7 1.251 1_545 S
H21 C4 0.930 . S
H22 C15 0.929 . S
Cu23 N24 1.999 . S
Cu23 O29 1.974 . S
Cu23 N34 1.989 . S
Cu23 O43 1.959 . S
N24 Cu23 1.999 . S
N24 C26 1.263 . S
N24 C28 1.389 . S
N25 C26 1.358 . S
N25 C27 1.400 . S
C26 N24 1.263 . S
C26 N25 1.358 . S
C26 H32 0.930 . S
C27 N25 1.400 . S
C27 C28 1.351 . S
C27 H44 0.930 . S
C28 N24 1.389 . S
C28 C27 1.351 . S
C28 H33 0.930 . S
O29 Cu23 1.974 . S
O29 C39 1.282 . S
C30 O31 1.261 . S
C30 O43 1.251 . S
O31 C30 1.261 . S
H32 C26 0.930 . S
H33 C28 0.930 . S
N34 Cu23 1.989 . S
N34 C36 1.334 1_554 S
N34 C37 1.385 1_554 S
N35 C36 1.345 . S
N35 C38 1.336 . S
C36 N34 1.334 1_556 S
C36 N35 1.345 . S
C36 H41 0.930 1_556 S
C37 N34 1.385 1_556 S
C37 C38 1.346 . S
C37 H42 0.930 . S
C38 N35 1.336 . S
C38 C37 1.346 . S
C38 H45 0.929 . S
C39 O29 1.282 . S
C39 O40 1.216 . S
O40 C39 1.216 . S
H41 C36 0.930 1_554 S
H42 C37 0.930 . S
O43 Cu23 1.959 . S
O43 C30 1.251 . S
H44 C27 0.930 . S
H45 C38 0.929 . S
Cu46 N47 1.999 . S
Cu46 O52 1.974 . S
Cu46 N57 1.985 1_554 S
Cu46 O66 1.959 . S
N47 Cu46 1.999 . S
N47 C49 1.263 . S
N47 C51 1.389 . S
N48 C49 1.358 . S
N48 C50 1.400 . S
C49 N47 1.263 . S
C49 N48 1.358 . S
C49 H55 0.930 . S
C50 N48 1.400 . S
C50 C51 1.351 . S
C50 H67 0.930 . S
C51 N47 1.389 . S
C51 C50 1.351 . S
C51 H56 0.930 . S
O52 Cu46 1.974 . S
O52 C62 1.282 . S
C53 O54 1.261 . S
C53 O66 1.251 . S
O54 C53 1.261 . S
H55 C49 0.930 . S
H56 C51 0.930 . S
N57 Cu46 1.985 1_556 S
N57 C59 1.335 . S
N57 C60 1.390 . S
N58 C59 1.345 . S
N58 C61 1.336 . S
C59 N57 1.335 . S
C59 N58 1.345 . S
C59 H64 0.930 1_556 S
C60 N57 1.390 . S
C60 C61 1.346 . S
C60 H65 0.930 . S
C61 N58 1.336 . S
C61 C60 1.346 . S
C61 H68 0.929 . S
C62 O52 1.282 . S
C62 O63 1.216 . S
O63 C62 1.216 . S
H64 C59 0.930 1_554 S
H65 C60 0.930 . S
O66 Cu46 1.959 . S
O66 C53 1.251 . S
H67 C50 0.930 . S
H68 C61 0.929 . S
Cu69 N70 1.999 . S
Cu69 O75 1.969 1_554 S
Cu69 N80 1.985 1_454 S
Cu69 O89 1.959 . S
N70 Cu69 1.999 . S
N70 C72 1.263 . S
N70 C74 1.389 . S
N71 C72 1.358 . S
N71 C73 1.400 . S
C72 N70 1.263 . S
C72 N71 1.358 . S
C72 H78 0.930 . S
C73 N71 1.400 . S
C73 C74 1.351 . S
C73 H90 0.930 . S
C74 N70 1.389 . S
C74 C73 1.351 . S
C74 H79 0.930 . S
O75 Cu69 1.969 1_556 S
O75 C85 1.282 1_456 S
C76 O77 1.261 . S
C76 O89 1.251 1_655 S
O77 C76 1.261 . S
H78 C72 0.930 . S
H79 C74 0.930 . S
N80 Cu69 1.985 1_656 S
N80 C82 1.335 . S
N80 C83 1.390 . S
N81 C82 1.345 . S
N81 C84 1.336 . S
C82 N80 1.335 . S
C82 N81 1.345 . S
C82 H87 0.930 1_655 S
C83 N80 1.390 . S
C83 C84 1.346 . S
C83 H88 0.930 . S
C84 N81 1.336 . S
C84 C83 1.346 . S
C84 H91 0.929 . S
C85 O75 1.282 1_654 S
C85 O86 1.217 . S
O86 C85 1.217 . S
H87 C82 0.930 1_455 S
H88 C83 0.930 . S
O89 Cu69 1.959 . S
O89 C76 1.251 1_455 S
H90 C73 0.930 . S
H91 C84 0.929 . S
Cu92 N93 1.999 . S
Cu92 O98 1.974 . S
Cu92 N103 1.985 1_565 S
Cu92 O112 1.959 . S
N93 Cu92 1.999 . S
N93 C95 1.263 . S
N93 C97 1.389 . S
N94 C95 1.358 . S
N94 C96 1.400 . S
C95 N93 1.263 . S
C95 N94 1.358 . S
C95 H101 0.930 . S
C96 N94 1.400 . S
C96 C97 1.351 . S
C96 H113 0.930 . S
C97 N93 1.389 . S
C97 C96 1.351 . S
C97 H102 0.930 . S
O98 Cu92 1.974 . S
O98 C108 1.282 1_565 S
C99 O100 1.261 . S
C99 O112 1.251 1_545 S
O100 C99 1.261 . S
H101 C95 0.930 . S
H102 C97 0.930 . S
N103 Cu92 1.985 1_545 S
N103 C105 1.335 . S
N103 C106 1.390 . S
N104 C105 1.345 . S
N104 C107 1.336 . S
C105 N103 1.335 . S
C105 N104 1.345 . S
C105 H110 0.930 1_545 S
C106 N103 1.390 . S
C106 C107 1.346 . S
C106 H111 0.930 . S
C107 N104 1.336 . S
C107 C106 1.346 . S
C107 H114 0.929 . S
C108 O98 1.282 1_545 S
C108 O109 1.216 . S
O109 C108 1.216 . S
H110 C105 0.930 1_565 S
H111 C106 0.930 . S
O112 Cu92 1.959 . S
O112 C99 1.251 1_565 S
H113 C96 0.930 . S
H114 C107 0.929 . S
Cu115 N116 1.999 . S
Cu115 O121 1.974 . S
Cu115 N126 1.985 . S
Cu115 O135 1.959 . S
N116 Cu115 1.999 . S
N116 C118 1.263 . S
N116 C120 1.389 . S
N117 C118 1.358 . S
N117 C119 1.400 . S
C118 N116 1.263 . S
C118 N117 1.358 . S
C118 H124 0.930 . S
C119 N117 1.400 . S
C119 C120 1.351 . S
C119 H136 0.930 . S
C120 N116 1.389 . S
C120 C119 1.351 . S
C120 H125 0.930 . S
O121 Cu115 1.974 . S
O121 C131 1.282 . S
C122 O123 1.261 . S
C122 O135 1.251 . S
O123 C122 1.261 . S
H124 C118 0.930 . S
H125 C120 0.930 . S
N126 Cu115 1.985 . S
N126 C128 1.335 . S
N126 C129 1.390 . S
N127 C128 1.345 . S
N127 C130 1.336 . S
C128 N126 1.335 . S
C128 N127 1.345 . S
C128 H133 0.930 . S
C129 N126 1.390 . S
C129 C130 1.346 . S
C129 H134 0.930 . S
C130 N127 1.336 . S
C130 C129 1.346 . S
C130 H137 0.929 . S
C131 O121 1.282 . S
C131 O132 1.216 . S
O132 C131 1.216 . S
H133 C128 0.930 . S
H134 C129 0.930 . S
O135 Cu115 1.959 . S
O135 C122 1.251 . S
H136 C119 0.930 . S
H137 C130 0.929 . S
Cu138 N139 1.999 . S
Cu138 O144 1.974 . S
Cu138 N149 1.985 . S
Cu138 O158 1.959 . S
N139 Cu138 1.999 . S
N139 C141 1.263 . S
N139 C143 1.389 . S
N140 C141 1.358 . S
N140 C142 1.400 . S
C141 N139 1.263 . S
C141 N140 1.358 . S
C141 H147 0.930 . S
C142 N140 1.400 . S
C142 C143 1.351 . S
C142 H159 0.930 . S
C143 N139 1.389 . S
C143 C142 1.351 . S
C143 H148 0.930 . S
O144 Cu138 1.974 . S
O144 C154 1.282 . S
C145 O146 1.261 . S
C145 O158 1.251 . S
O146 C145 1.261 . S
H147 C141 0.930 . S
H148 C143 0.930 . S
N149 Cu138 1.985 . S
N149 C151 1.335 . S
N149 C152 1.390 . S
N150 C151 1.345 . S
N150 C153 1.336 . S
C151 N149 1.335 . S
C151 N150 1.345 . S
C151 H156 0.930 . S
C152 N149 1.390 . S
C152 C153 1.346 . S
C152 H157 0.930 . S
C153 N150 1.336 . S
C153 C152 1.346 . S
C153 H160 0.929 . S
C154 O144 1.282 . S
C154 O155 1.216 . S
O155 C154 1.216 . S
H156 C151 0.930 . S
H157 C152 0.930 . S
O158 Cu138 1.959 . S
O158 C145 1.251 . S
H159 C142 0.930 . S
H160 C153 0.929 . S
Cu161 N162 1.999 . S
Cu161 O167 1.974 . S
Cu161 N172 1.985 1_655 S
Cu161 O181 1.959 . S
N162 Cu161 1.999 . S
N162 C164 1.263 . S
N162 C166 1.389 . S
N163 C164 1.358 . S
N163 C165 1.400 . S
C164 N162 1.263 . S
C164 N163 1.358 . S
C164 H170 0.930 . S
C165 N163 1.400 . S
C165 C166 1.351 . S
C165 H182 0.930 . S
C166 N162 1.389 . S
C166 C165 1.351 . S
C166 H171 0.930 . S
O167 Cu161 1.974 . S
O167 C177 1.282 1_655 S
C168 O169 1.261 . S
C168 O181 1.251 1_455 S
O169 C168 1.261 . S
H170 C164 0.930 . S
H171 C166 0.930 . S
N172 Cu161 1.985 1_455 S
N172 C174 1.335 . S
N172 C175 1.390 . S
N173 C174 1.345 . S
N173 C176 1.336 . S
C174 N172 1.335 . S
C174 N173 1.345 . S
C174 H179 0.930 1_455 S
C175 N172 1.390 . S
C175 C176 1.346 . S
C175 H180 0.930 . S
C176 N173 1.336 . S
C176 C175 1.346 . S
C176 H183 0.929 . S
C177 O167 1.282 1_455 S
C177 O178 1.216 . S
O178 C177 1.216 . S
H179 C174 0.930 1_655 S
H180 C175 0.930 . S
O181 Cu161 1.959 . S
O181 C168 1.251 1_655 S
H182 C165 0.930 . S
H183 C176 0.929 . S
Cu184 N185 1.999 . S
Cu184 O190 1.974 . S
Cu184 N195 1.985 1_566 S
Cu184 O204 1.959 . S
N185 Cu184 1.999 . S
N185 C187 1.263 . S
N185 C189 1.389 . S
N186 C187 1.358 . S
N186 C188 1.400 . S
C187 N185 1.263 . S
C187 N186 1.358 . S
C187 H193 0.930 . S
C188 N186 1.400 . S
C188 C189 1.351 . S
C188 H205 0.930 . S
C189 N185 1.389 . S
C189 C188 1.351 . S
C189 H194 0.930 . S
O190 Cu184 1.974 . S
O190 C200 1.282 1_565 S
C191 O192 1.261 . S
C191 O204 1.251 1_545 S
O192 C191 1.261 . S
H193 C187 0.930 . S
H194 C189 0.930 . S
N195 Cu184 1.985 1_544 S
N195 C197 1.335 . S
N195 C198 1.390 . S
N196 C197 1.345 . S
N196 C199 1.336 . S
C197 N195 1.335 . S
C197 N196 1.345 . S
C197 H202 0.930 1_545 S
C198 N195 1.390 . S
C198 C199 1.346 . S
C198 H203 0.930 . S
C199 N196 1.336 . S
C199 C198 1.346 . S
C199 H206 0.929 . S
C200 O190 1.282 1_545 S
C200 O201 1.216 . S
O201 C200 1.216 . S
H202 C197 0.930 1_565 S
H203 C198 0.930 . S
O204 Cu184 1.959 . S
O204 C191 1.251 1_565 S
H205 C188 0.930 . S
H206 C199 0.929 . S
Cu207 N208 1.999 . S
Cu207 O213 1.974 . S
Cu207 N218 1.989 . S
Cu207 O227 1.959 . S
N208 Cu207 1.999 . S
N208 C210 1.263 . S
N208 C212 1.389 . S
N209 C210 1.358 . S
N209 C211 1.400 . S
C210 N208 1.263 . S
C210 N209 1.358 . S
C210 H216 0.930 . S
C211 N209 1.400 . S
C211 C212 1.351 . S
C211 H228 0.930 . S
C212 N208 1.389 . S
C212 C211 1.351 . S
C212 H217 0.930 . S
O213 Cu207 1.974 . S
O213 C223 1.282 . S
C214 O215 1.261 . S
C214 O227 1.251 . S
O215 C214 1.261 . S
H216 C210 0.930 . S
H217 C212 0.930 . S
N218 Cu207 1.989 . S
N218 C220 1.334 1_556 S
N218 C221 1.385 1_556 S
N219 C220 1.345 . S
N219 C222 1.336 . S
C220 N218 1.334 1_554 S
C220 N219 1.345 . S
C220 H225 0.930 1_554 S
C221 N218 1.385 1_554 S
C221 C222 1.346 . S
C221 H226 0.930 . S
C222 N219 1.336 . S
C222 C221 1.346 . S
C222 H229 0.929 . S
C223 O213 1.282 . S
C223 O224 1.216 . S
O224 C223 1.216 . S
H225 C220 0.930 1_556 S
H226 C221 0.930 . S
O227 Cu207 1.959 . S
O227 C214 1.251 . S
H228 C211 0.930 . S
H229 C222 0.929 . S
Cu230 N231 1.999 . S
Cu230 O236 1.974 . S
Cu230 N241 1.985 1_556 S
Cu230 O250 1.959 . S
N231 Cu230 1.999 . S
N231 C233 1.263 . S
N231 C235 1.389 . S
N232 C233 1.358 . S
N232 C234 1.400 . S
C233 N231 1.263 . S
C233 N232 1.358 . S
C233 H239 0.930 . S
C234 N232 1.400 . S
C234 C235 1.351 . S
C234 H251 0.930 . S
C235 N231 1.389 . S
C235 C234 1.351 . S
C235 H240 0.930 . S
O236 Cu230 1.974 . S
O236 C246 1.282 . S
C237 O238 1.261 . S
C237 O250 1.251 . S
O238 C237 1.261 . S
H239 C233 0.930 . S
H240 C235 0.930 . S
N241 Cu230 1.985 1_554 S
N241 C243 1.335 . S
N241 C244 1.390 . S
N242 C243 1.345 . S
N242 C245 1.336 . S
C243 N241 1.335 . S
C243 N242 1.345 . S
C243 H248 0.930 1_554 S
C244 N241 1.390 . S
C244 C245 1.346 . S
C244 H249 0.930 . S
C245 N242 1.336 . S
C245 C244 1.346 . S
C245 H252 0.929 . S
C246 O236 1.282 . S
C246 O247 1.216 . S
O247 C246 1.216 . S
H248 C243 0.930 1_556 S
H249 C244 0.930 . S
O250 Cu230 1.959 . S
O250 C237 1.251 . S
H251 C234 0.930 . S
H252 C245 0.929 . S
Cu253 N254 1.999 . S
Cu253 O259 1.969 1_556 S
Cu253 N264 1.985 1_656 S
Cu253 O273 1.959 . S
N254 Cu253 1.999 . S
N254 C256 1.263 . S
N254 C258 1.389 . S
N255 C256 1.358 . S
N255 C257 1.400 . S
C256 N254 1.263 . S
C256 N255 1.358 . S
C256 H262 0.930 . S
C257 N255 1.400 . S
C257 C258 1.351 . S
C257 H274 0.930 . S
C258 N254 1.389 . S
C258 C257 1.351 . S
C258 H263 0.930 . S
O259 Cu253 1.969 1_554 S
O259 C269 1.282 1_654 S
C260 O261 1.261 . S
C260 O273 1.251 1_455 S
O261 C260 1.261 . S
H262 C256 0.930 . S
H263 C258 0.930 . S
N264 Cu253 1.985 1_454 S
N264 C266 1.335 . S
N264 C267 1.390 . S
N265 C266 1.345 . S
N265 C268 1.336 . S
C266 N264 1.335 . S
C266 N265 1.345 . S
C266 H271 0.930 1_455 S
C267 N264 1.390 . S
C267 C268 1.346 . S
C267 H272 0.930 . S
C268 N265 1.336 . S
C268 C267 1.346 . S
C268 H275 0.929 . S
C269 O259 1.282 1_456 S
C269 O270 1.217 . S
O270 C269 1.217 . S
H271 C266 0.930 1_655 S
H272 C267 0.930 . S
O273 Cu253 1.959 . S
O273 C260 1.251 1_655 S
H274 C257 0.930 . S
H275 C268 0.929 . S
Cu276 N277 1.999 . S
Cu276 O282 1.974 . S
Cu276 N287 1.985 1_545 S
Cu276 O296 1.959 . S
N277 Cu276 1.999 . S
N277 C279 1.263 . S
N277 C281 1.389 . S
N278 C279 1.358 . S
N278 C280 1.400 . S
C279 N277 1.263 . S
C279 N278 1.358 . S
C279 H285 0.930 . S
C280 N278 1.400 . S
C280 C281 1.351 . S
C280 H297 0.930 . S
C281 N277 1.389 . S
C281 C280 1.351 . S
C281 H286 0.930 . S
O282 Cu276 1.974 . S
O282 C292 1.282 1_545 S
C283 O284 1.261 . S
C283 O296 1.251 1_565 S
O284 C283 1.261 . S
H285 C279 0.930 . S
H286 C281 0.930 . S
N287 Cu276 1.985 1_565 S
N287 C289 1.335 . S
N287 C290 1.390 . S
N288 C289 1.345 . S
N288 C291 1.336 . S
C289 N287 1.335 . S
C289 N288 1.345 . S
C289 H294 0.930 1_565 S
C290 N287 1.390 . S
C290 C291 1.346 . S
C290 H295 0.930 . S
C291 N288 1.336 . S
C291 C290 1.346 . S
C291 H298 0.929 . S
C292 O282 1.282 1_565 S
C292 O293 1.216 . S
O293 C292 1.216 . S
H294 C289 0.930 1_545 S
H295 C290 0.930 . S
O296 Cu276 1.959 . S
O296 C283 1.251 1_545 S
H297 C280 0.930 . S
H298 C291 0.929 . S
Cu299 N300 1.999 . S
Cu299 O305 1.974 . S
Cu299 N310 1.985 . S
Cu299 O319 1.959 . S
N300 Cu299 1.999 . S
N300 C302 1.263 . S
N300 C304 1.389 . S
N301 C302 1.358 . S
N301 C303 1.400 . S
C302 N300 1.263 . S
C302 N301 1.358 . S
C302 H308 0.930 . S
C303 N301 1.400 . S
C303 C304 1.351 . S
C303 H320 0.930 . S
C304 N300 1.389 . S
C304 C303 1.351 . S
C304 H309 0.930 . S
O305 Cu299 1.974 . S
O305 C315 1.282 . S
C306 O307 1.261 . S
C306 O319 1.251 . S
O307 C306 1.261 . S
H308 C302 0.930 . S
H309 C304 0.930 . S
N310 Cu299 1.985 . S
N310 C312 1.335 . S
N310 C313 1.390 . S
N311 C312 1.345 . S
N311 C314 1.336 . S
C312 N310 1.335 . S
C312 N311 1.345 . S
C312 H317 0.930 . S
C313 N310 1.390 . S
C313 C314 1.346 . S
C313 H318 0.930 . S
C314 N311 1.336 . S
C314 C313 1.346 . S
C314 H321 0.929 . S
C315 O305 1.282 . S
C315 O316 1.216 . S
O316 C315 1.216 . S
H317 C312 0.930 . S
H318 C313 0.930 . S
O319 Cu299 1.959 . S
O319 C306 1.251 . S
H320 C303 0.930 . S
H321 C314 0.929 . S
Cu322 N323 1.999 . S
Cu322 O328 1.974 . S
Cu322 N333 1.985 . S
Cu322 O342 1.959 . S
N323 Cu322 1.999 . S
N323 C325 1.263 . S
N323 C327 1.389 . S
N324 C325 1.358 . S
N324 C326 1.400 . S
C325 N323 1.263 . S
C325 N324 1.358 . S
C325 H331 0.930 . S
C326 N324 1.400 . S
C326 C327 1.351 . S
C326 H343 0.930 . S
C327 N323 1.389 . S
C327 C326 1.351 . S
C327 H332 0.930 . S
O328 Cu322 1.974 . S
O328 C338 1.282 . S
C329 O330 1.261 . S
C329 O342 1.251 . S
O330 C329 1.261 . S
H331 C325 0.930 . S
H332 C327 0.930 . S
N333 Cu322 1.985 . S
N333 C335 1.335 . S
N333 C336 1.390 . S
N334 C335 1.345 . S
N334 C337 1.336 . S
C335 N333 1.335 . S
C335 N334 1.345 . S
C335 H340 0.930 . S
C336 N333 1.390 . S
C336 C337 1.346 . S
C336 H341 0.930 . S
C337 N334 1.336 . S
C337 C336 1.346 . S
C337 H344 0.929 . S
C338 O328 1.282 . S
C338 O339 1.216 . S
O339 C338 1.216 . S
H340 C335 0.930 . S
H341 C336 0.930 . S
O342 Cu322 1.959 . S
O342 C329 1.251 . S
H343 C326 0.930 . S
H344 C337 0.929 . S
Cu345 N346 1.999 . S
Cu345 O351 1.974 . S
Cu345 N356 1.985 1_455 S
Cu345 O365 1.959 . S
N346 Cu345 1.999 . S
N346 C348 1.263 . S
N346 C350 1.389 . S
N347 C348 1.358 . S
N347 C349 1.400 . S
C348 N346 1.263 . S
C348 N347 1.358 . S
C348 H354 0.930 . S
C349 N347 1.400 . S
C349 C350 1.351 . S
C349 H366 0.930 . S
C350 N346 1.389 . S
C350 C349 1.351 . S
C350 H355 0.930 . S
O351 Cu345 1.974 . S
O351 C361 1.282 1_455 S
C352 O353 1.261 . S
C352 O365 1.251 1_655 S
O353 C352 1.261 . S
H354 C348 0.930 . S
H355 C350 0.930 . S
N356 Cu345 1.985 1_655 S
N356 C358 1.335 . S
N356 C359 1.390 . S
N357 C358 1.345 . S
N357 C360 1.336 . S
C358 N356 1.335 . S
C358 N357 1.345 . S
C358 H363 0.930 1_655 S
C359 N356 1.390 . S
C359 C360 1.346 . S
C359 H364 0.930 . S
C360 N357 1.336 . S
C360 C359 1.346 . S
C360 H367 0.929 . S
C361 O351 1.282 1_655 S
C361 O362 1.216 . S
O362 C361 1.216 . S
H363 C358 0.930 1_455 S
H364 C359 0.930 . S
O365 Cu345 1.959 . S
O365 C352 1.251 1_455 S
H366 C349 0.930 . S
H367 C360 0.929 . S
C368 C369 1.391 . S
C368 C370 1.394 . S
C368 H384 0.931 . S
C369 C368 1.391 . S
C369 C373 1.376 . S
C370 C368 1.394 . S
C370 C371 1.369 . S
C370 C374 1.531 . S
C371 C370 1.369 . S
C371 C372 1.410 . S
C371 C379 1.503 . S
C372 C371 1.410 . S
C372 C373 1.392 . S
C372 C375 1.511 . S
C373 C369 1.376 . S
C373 C372 1.392 . S
C373 H385 0.929 . S
C374 C370 1.531 . S
C374 H386 0.960 . S
C374 H387 0.962 . S
C374 H388 0.960 . S
C375 C372 1.511 . S
C375 H389 0.961 . S
C375 H390 0.961 . S
C375 H391 0.961 . S
C376 C377 1.370 . S
C376 C378 1.363 . S
C376 H392 0.931 . S
C377 C376 1.370 . S
C377 C381 1.408 . S
C378 C376 1.363 . S
C378 C379 1.370 . S
C378 C382 1.524 . S
C379 C371 1.503 . S
C379 C378 1.370 . S
C379 C380 1.403 . S
C380 C379 1.403 . S
C380 C381 1.404 . S
C380 C383 1.539 . S
C381 C377 1.408 . S
C381 C380 1.404 . S
C381 H393 0.930 1_545 S
C382 C378 1.524 . S
C382 H394 0.956 . S
C382 H395 0.961 . S
C382 H396 0.961 . S
C383 C380 1.539 . S
C383 H397 0.958 . S
C383 H398 0.961 1_545 S
C383 H399 0.960 . S
H384 C368 0.931 . S
H385 C373 0.929 . S
H386 C374 0.960 . S
H387 C374 0.962 . S
H388 C374 0.960 . S
H389 C375 0.961 . S
H390 C375 0.961 . S
H391 C375 0.961 . S
H392 C376 0.931 . S
H393 C381 0.930 1_565 S
H394 C382 0.956 . S
H395 C382 0.961 . S
H396 C382 0.961 . S
H397 C383 0.958 . S
H398 C383 0.961 1_565 S
H399 C383 0.960 . S
C400 C401 1.391 . S
C400 C402 1.394 . S
C400 H416 0.931 . S
C401 C400 1.391 . S
C401 C405 1.376 . S
C402 C400 1.394 . S
C402 C403 1.369 . S
C402 C406 1.531 . S
C403 C402 1.369 . S
C403 C404 1.410 . S
C403 C411 1.503 . S
C404 C403 1.410 . S
C404 C405 1.392 . S
C404 C407 1.511 . S
C405 C401 1.376 . S
C405 C404 1.392 . S
C405 H417 0.929 . S
C406 C402 1.531 . S
C406 H418 0.960 . S
C406 H419 0.962 . S
C406 H420 0.960 . S
C407 C404 1.511 . S
C407 H421 0.961 . S
C407 H422 0.961 . S
C407 H423 0.961 . S
C408 C409 1.370 . S
C408 C410 1.363 . S
C408 H424 0.931 . S
C409 C408 1.370 . S
C409 C413 1.408 . S
C410 C408 1.363 . S
C410 C411 1.370 . S
C410 C414 1.524 . S
C411 C403 1.503 . S
C411 C410 1.370 . S
C411 C412 1.403 . S
C412 C411 1.403 . S
C412 C413 1.404 . S
C412 C415 1.539 . S
C413 C409 1.408 . S
C413 C412 1.404 . S
C413 H425 0.930 . S
C414 C410 1.524 . S
C414 H426 0.956 . S
C414 H427 0.961 . S
C414 H428 0.961 . S
C415 C412 1.539 . S
C415 H429 0.958 . S
C415 H430 0.961 . S
C415 H431 0.960 . S
H416 C400 0.931 . S
H417 C405 0.929 . S
H418 C406 0.960 . S
H419 C406 0.962 . S
H420 C406 0.960 . S
H421 C407 0.961 . S
H422 C407 0.961 . S
H423 C407 0.961 . S
H424 C408 0.931 . S
H425 C413 0.930 . S
H426 C414 0.956 . S
H427 C414 0.961 . S
H428 C414 0.961 . S
H429 C415 0.958 . S
H430 C415 0.961 . S
H431 C415 0.960 . S
C432 C433 1.391 . S
C432 C434 1.394 . S
C432 H448 0.931 . S
C433 C432 1.391 . S
C433 C437 1.376 . S
C434 C432 1.394 . S
C434 C435 1.369 . S
C434 C438 1.531 . S
C435 C434 1.369 . S
C435 C436 1.410 . S
C435 C443 1.503 . S
C436 C435 1.410 . S
C436 C437 1.392 . S
C436 C439 1.511 . S
C437 C433 1.376 . S
C437 C436 1.392 . S
C437 H449 0.929 . S
C438 C434 1.531 . S
C438 H450 0.960 . S
C438 H451 0.962 . S
C438 H452 0.960 . S
C439 C436 1.511 . S
C439 H453 0.961 . S
C439 H454 0.961 . S
C439 H455 0.961 . S
C440 C441 1.370 . S
C440 C442 1.363 . S
C440 H456 0.931 . S
C441 C440 1.370 . S
C441 C445 1.408 . S
C442 C440 1.363 . S
C442 C443 1.370 . S
C442 C446 1.524 . S
C443 C435 1.503 . S
C443 C442 1.370 . S
C443 C444 1.403 . S
C444 C443 1.403 . S
C444 C445 1.404 . S
C444 C447 1.539 . S
C445 C441 1.408 . S
C445 C444 1.404 . S
C445 H457 0.930 . S
C446 C442 1.524 . S
C446 H458 0.956 . S
C446 H459 0.961 . S
C446 H460 0.961 . S
C447 C444 1.539 . S
C447 H461 0.958 . S
C447 H462 0.961 . S
C447 H463 0.960 . S
H448 C432 0.931 . S
H449 C437 0.929 . S
H450 C438 0.960 . S
H451 C438 0.962 . S
H452 C438 0.960 . S
H453 C439 0.961 . S
H454 C439 0.961 . S
H455 C439 0.961 . S
H456 C440 0.931 . S
H457 C445 0.930 . S
H458 C446 0.956 . S
H459 C446 0.961 . S
H460 C446 0.961 . S
H461 C447 0.958 . S
H462 C447 0.961 . S
H463 C447 0.960 . S
C464 C465 1.391 . S
C464 C466 1.394 . S
C464 H480 0.931 . S
C465 C464 1.391 . S
C465 C469 1.376 . S
C466 C464 1.394 . S
C466 C467 1.369 . S
C466 C470 1.531 . S
C467 C466 1.369 . S
C467 C468 1.410 . S
C467 C475 1.503 . S
C468 C467 1.410 . S
C468 C469 1.392 . S
C468 C471 1.511 . S
C469 C465 1.376 . S
C469 C468 1.392 . S
C469 H481 0.929 . S
C470 C466 1.531 . S
C470 H482 0.960 . S
C470 H483 0.962 . S
C470 H484 0.960 . S
C471 C468 1.511 . S
C471 H485 0.961 . S
C471 H486 0.961 . S
C471 H487 0.961 . S
C472 C473 1.370 . S
C472 C474 1.363 . S
C472 H488 0.931 . S
C473 C472 1.370 . S
C473 C477 1.408 . S
C474 C472 1.363 . S
C474 C475 1.370 . S
C474 C478 1.524 . S
C475 C467 1.503 . S
C475 C474 1.370 . S
C475 C476 1.403 . S
C476 C475 1.403 . S
C476 C477 1.404 . S
C476 C479 1.539 . S
C477 C473 1.408 . S
C477 C476 1.404 . S
C477 H489 0.930 . S
C478 C474 1.524 . S
C478 H490 0.956 . S
C478 H491 0.961 . S
C478 H492 0.961 . S
C479 C476 1.539 . S
C479 H493 0.958 . S
C479 H494 0.961 . S
C479 H495 0.960 . S
H480 C464 0.931 . S
H481 C469 0.929 . S
H482 C470 0.960 . S
H483 C470 0.962 . S
H484 C470 0.960 . S
H485 C471 0.961 . S
H486 C471 0.961 . S
H487 C471 0.961 . S
H488 C472 0.931 . S
H489 C477 0.930 . S
H490 C478 0.956 . S
H491 C478 0.961 . S
H492 C478 0.961 . S
H493 C479 0.958 . S
H494 C479 0.961 . S
H495 C479 0.960 . S
C496 C497 1.391 . S
C496 C498 1.394 . S
C496 H512 0.931 . S
C497 C496 1.391 . S
C497 C501 1.376 . S
C498 C496 1.394 . S
C498 C499 1.369 . S
C498 C502 1.531 . S
C499 C498 1.369 . S
C499 C500 1.410 . S
C499 C507 1.503 . S
C500 C499 1.410 . S
C500 C501 1.392 . S
C500 C503 1.511 . S
C501 C497 1.376 . S
C501 C500 1.392 . S
C501 H513 0.937 . S
C502 C498 1.531 . S
C502 H514 0.960 . S
C502 H515 0.962 . S
C502 H516 0.960 . S
C503 C500 1.511 . S
C503 H517 0.961 1_565 S
C503 H518 0.961 . S
C503 H519 0.961 . S
C504 C505 1.370 . S
C504 C506 1.363 . S
C504 H520 0.931 . S
C505 C504 1.370 . S
C505 C509 1.408 . S
C506 C504 1.363 . S
C506 C507 1.370 . S
C506 C510 1.524 . S
C507 C499 1.503 . S
C507 C506 1.370 . S
C507 C508 1.403 . S
C508 C507 1.403 . S
C508 C509 1.404 . S
C508 C511 1.539 . S
C509 C505 1.408 . S
C509 C508 1.404 . S
C509 H521 0.930 . S
C510 C506 1.524 . S
C510 H522 0.956 . S
C510 H523 0.961 . S
C510 H524 0.961 . S
C511 C508 1.539 . S
C511 H525 0.958 . S
C511 H526 0.961 . S
C511 H527 0.960 . S
H512 C496 0.931 . S
H513 C501 0.937 . S
H514 C502 0.960 . S
H515 C502 0.962 . S
H516 C502 0.960 . S
H517 C503 0.961 1_545 S
H518 C503 0.961 . S
H519 C503 0.961 . S
H520 C504 0.931 . S
H521 C509 0.930 . S
H522 C510 0.956 . S
H523 C510 0.961 . S
H524 C510 0.961 . S
H525 C511 0.958 . S
H526 C511 0.961 . S
H527 C511 0.960 . S
C528 C529 1.391 . S
C528 C530 1.394 . S
C528 H544 0.931 . S
C529 C528 1.391 . S
C529 C533 1.376 . S
C530 C528 1.394 . S
C530 C531 1.369 . S
C530 C534 1.531 . S
C531 C530 1.369 . S
C531 C532 1.410 . S
C531 C539 1.503 . S
C532 C531 1.410 . S
C532 C533 1.392 . S
C532 C535 1.511 . S
C533 C529 1.376 . S
C533 C532 1.392 . S
C533 H545 0.929 . S
C534 C530 1.531 . S
C534 H546 0.960 . S
C534 H547 0.962 . S
C534 H548 0.960 . S
C535 C532 1.511 . S
C535 H549 0.961 . S
C535 H550 0.961 . S
C535 H551 0.961 . S
C536 C537 1.370 . S
C536 C538 1.363 . S
C536 H552 0.931 . S
C537 C536 1.370 . S
C537 C541 1.408 . S
C538 C536 1.363 . S
C538 C539 1.370 . S
C538 C542 1.524 . S
C539 C531 1.503 . S
C539 C538 1.370 . S
C539 C540 1.403 . S
C540 C539 1.403 . S
C540 C541 1.404 . S
C540 C543 1.539 . S
C541 C537 1.408 . S
C541 C540 1.404 . S
C541 H553 0.930 . S
C542 C538 1.524 . S
C542 H554 0.956 . S
C542 H555 0.961 . S
C542 H556 0.961 . S
C543 C540 1.539 . S
C543 H557 0.958 . S
C543 H558 0.961 . S
C543 H559 0.960 . S
H544 C528 0.931 . S
H545 C533 0.929 . S
H546 C534 0.960 . S
H547 C534 0.962 . S
H548 C534 0.960 . S
H549 C535 0.961 . S
H550 C535 0.961 . S
H551 C535 0.961 . S
H552 C536 0.931 . S
H553 C541 0.930 . S
H554 C542 0.956 . S
H555 C542 0.961 . S
H556 C542 0.961 . S
H557 C543 0.958 . S
H558 C543 0.961 . S
H559 C543 0.960 . S
C560 C561 1.391 . S
C560 C562 1.394 . S
C560 H576 0.931 . S
C561 C560 1.391 . S
C561 C565 1.376 . S
C562 C560 1.394 . S
C562 C563 1.369 . S
C562 C566 1.531 . S
C563 C562 1.369 . S
C563 C564 1.410 . S
C563 C571 1.503 . S
C564 C563 1.410 . S
C564 C565 1.392 . S
C564 C567 1.511 . S
C565 C561 1.376 . S
C565 C564 1.392 . S
C565 H577 0.929 . S
C566 C562 1.531 . S
C566 H578 0.960 . S
C566 H579 0.962 . S
C566 H580 0.960 . S
C567 C564 1.511 . S
C567 H581 0.961 . S
C567 H582 0.961 . S
C567 H583 0.961 . S
C568 C569 1.370 . S
C568 C570 1.363 . S
C568 H584 0.931 . S
C569 C568 1.370 . S
C569 C573 1.408 . S
C570 C568 1.363 . S
C570 C571 1.370 . S
C570 C574 1.524 . S
C571 C563 1.503 . S
C571 C570 1.370 . S
C571 C572 1.403 . S
C572 C571 1.403 . S
C572 C573 1.404 . S
C572 C575 1.539 . S
C573 C569 1.408 . S
C573 C572 1.404 . S
C573 H585 0.930 . S
C574 C570 1.524 . S
C574 H586 0.956 . S
C574 H587 0.961 . S
C574 H588 0.961 . S
C575 C572 1.539 . S
C575 H589 0.958 . S
C575 H590 0.961 . S
C575 H591 0.960 . S
H576 C560 0.931 . S
H577 C565 0.929 . S
H578 C566 0.960 . S
H579 C566 0.962 . S
H580 C566 0.960 . S
H581 C567 0.961 . S
H582 C567 0.961 . S
H583 C567 0.961 . S
H584 C568 0.931 . S
H585 C573 0.930 . S
H586 C574 0.956 . S
H587 C574 0.961 . S
H588 C574 0.961 . S
H589 C575 0.958 . S
H590 C575 0.961 . S
H591 C575 0.960 . S
C592 C593 1.391 . S
C592 C594 1.394 . S
C592 H608 0.931 . S
C593 C592 1.391 . S
C593 C597 1.376 . S
C594 C592 1.394 . S
C594 C595 1.369 . S
C594 C598 1.531 . S
C595 C594 1.369 . S
C595 C596 1.410 . S
C595 C603 1.503 . S
C596 C595 1.410 . S
C596 C597 1.392 . S
C596 C599 1.511 . S
C597 C593 1.376 . S
C597 C596 1.392 . S
C597 H609 0.929 . S
C598 C594 1.531 . S
C598 H610 0.960 . S
C598 H611 0.962 . S
C598 H612 0.960 . S
C599 C596 1.511 . S
C599 H613 0.961 . S
C599 H614 0.961 . S
C599 H615 0.961 . S
C600 C601 1.370 . S
C600 C602 1.363 . S
C600 H616 0.931 . S
C601 C600 1.370 . S
C601 C605 1.408 . S
C602 C600 1.363 . S
C602 C603 1.370 . S
C602 C606 1.524 . S
C603 C595 1.503 . S
C603 C602 1.370 . S
C603 C604 1.403 . S
C604 C603 1.403 . S
C604 C605 1.404 . S
C604 C607 1.539 . S
C605 C601 1.408 . S
C605 C604 1.404 . S
C605 H617 0.930 . S
C606 C602 1.524 . S
C606 H618 0.956 . S
C606 H619 0.961 . S
C606 H620 0.961 . S
C607 C604 1.539 . S
C607 H621 0.958 . S
C607 H622 0.961 . S
C607 H623 0.960 . S
H608 C592 0.931 . S
H609 C597 0.929 . S
H610 C598 0.960 . S
H611 C598 0.962 . S
H612 C598 0.960 . S
H613 C599 0.961 . S
H614 C599 0.961 . S
H615 C599 0.961 . S
H616 C600 0.931 . S
H617 C605 0.930 . S
H618 C606 0.956 . S
H619 C606 0.961 . S
H620 C606 0.961 . S
H621 C607 0.958 . S
H622 C607 0.961 . S
H623 C607 0.960 . S
C624 C625 1.391 1_545 S
C624 C626 1.394 . S
C624 H640 0.931 . S
C625 C624 1.391 1_565 S
C625 C629 1.376 . S
C626 C624 1.394 . S
C626 C627 1.369 1_545 S
C626 C630 1.531 . S
C627 C626 1.369 1_565 S
C627 C628 1.410 . S
C627 C635 1.503 . S
C628 C627 1.410 . S
C628 C629 1.392 . S
C628 C631 1.511 . S
C629 C625 1.376 . S
C629 C628 1.392 . S
C629 H641 0.929 . S
C630 C626 1.531 . S
C630 H642 0.960 . S
C630 H643 0.962 . S
C630 H644 0.960 . S
C631 C628 1.511 . S
C631 H645 0.961 . S
C631 H646 0.961 . S
C631 H647 0.961 . S
C632 C633 1.370 . S
C632 C634 1.363 . S
C632 H648 0.931 . S
C633 C632 1.370 . S
C633 C637 1.408 1_565 S
C634 C632 1.363 . S
C634 C635 1.370 . S
C634 C638 1.524 . S
C635 C627 1.503 . S
C635 C634 1.370 . S
C635 C636 1.403 1_565 S
C636 C635 1.403 1_545 S
C636 C637 1.404 . S
C636 C639 1.539 . S
C637 C633 1.408 1_545 S
C637 C636 1.404 . S
C637 H649 0.930 . S
C638 C634 1.524 . S
C638 H650 0.956 . S
C638 H651 0.961 . S
C638 H652 0.961 . S
C639 C636 1.539 . S
C639 H653 0.958 . S
C639 H654 0.961 . S
C639 H655 0.960 . S
H640 C624 0.931 . S
H641 C629 0.929 . S
H642 C630 0.960 . S
H643 C630 0.962 . S
H644 C630 0.960 . S
H645 C631 0.961 . S
H646 C631 0.961 . S
H647 C631 0.961 . S
H648 C632 0.931 . S
H649 C637 0.930 . S
H650 C638 0.956 . S
H651 C638 0.961 . S
H652 C638 0.961 . S
H653 C639 0.958 . S
H654 C639 0.961 . S
H655 C639 0.960 . S
C656 C657 1.391 . S
C656 C658 1.394 . S
C656 H672 0.931 . S
C657 C656 1.391 . S
C657 C661 1.376 . S
C658 C656 1.394 . S
C658 C659 1.369 . S
C658 C662 1.531 . S
C659 C658 1.369 . S
C659 C660 1.410 . S
C659 C667 1.503 . S
C660 C659 1.410 . S
C660 C661 1.392 . S
C660 C663 1.511 . S
C661 C657 1.376 . S
C661 C660 1.392 . S
C661 H673 0.929 . S
C662 C658 1.531 . S
C662 H674 0.960 . S
C662 H675 0.962 . S
C662 H676 0.960 . S
C663 C660 1.511 . S
C663 H677 0.961 . S
C663 H678 0.961 . S
C663 H679 0.961 . S
C664 C665 1.370 . S
C664 C666 1.363 . S
C664 H680 0.931 . S
C665 C664 1.370 . S
C665 C669 1.408 . S
C666 C664 1.363 . S
C666 C667 1.370 . S
C666 C670 1.524 . S
C667 C659 1.503 . S
C667 C666 1.370 . S
C667 C668 1.403 . S
C668 C667 1.403 . S
C668 C669 1.404 . S
C668 C671 1.539 . S
C669 C665 1.408 . S
C669 C668 1.404 . S
C669 H681 0.930 . S
C670 C666 1.524 . S
C670 H682 0.956 . S
C670 H683 0.961 . S
C670 H684 0.961 . S
C671 C668 1.539 . S
C671 H685 0.958 . S
C671 H686 0.961 . S
C671 H687 0.960 . S
H672 C656 0.931 . S
H673 C661 0.929 . S
H674 C662 0.960 . S
H675 C662 0.962 . S
H676 C662 0.960 . S
H677 C663 0.961 . S
H678 C663 0.961 . S
H679 C663 0.961 . S
H680 C664 0.931 . S
H681 C669 0.930 . S
H682 C670 0.956 . S
H683 C670 0.961 . S
H684 C670 0.961 . S
H685 C671 0.958 . S
H686 C671 0.961 . S
H687 C671 0.960 . S
C688 C689 1.391 . S
C688 C690 1.394 . S
C688 H704 0.931 . S
C689 C688 1.391 . S
C689 C693 1.376 . S
C690 C688 1.394 . S
C690 C691 1.369 . S
C690 C694 1.531 . S
C691 C690 1.369 . S
C691 C692 1.410 . S
C691 C699 1.503 . S
C692 C691 1.410 . S
C692 C693 1.392 . S
C692 C695 1.511 . S
C693 C689 1.376 . S
C693 C692 1.392 . S
C693 H705 0.929 . S
C694 C690 1.531 . S
C694 H706 0.960 . S
C694 H707 0.962 . S
C694 H708 0.960 . S
C695 C692 1.511 . S
C695 H709 0.961 . S
C695 H710 0.961 . S
C695 H711 0.961 . S
C696 C697 1.370 . S
C696 C698 1.363 . S
C696 H712 0.931 . S
C697 C696 1.370 . S
C697 C701 1.408 . S
C698 C696 1.363 . S
C698 C699 1.370 . S
C698 C702 1.524 . S
C699 C691 1.503 . S
C699 C698 1.370 . S
C699 C700 1.403 . S
C700 C699 1.403 . S
C700 C701 1.404 . S
C700 C703 1.539 . S
C701 C697 1.408 . S
C701 C700 1.404 . S
C701 H713 0.930 . S
C702 C698 1.524 . S
C702 H714 0.956 . S
C702 H715 0.961 . S
C702 H716 0.961 . S
C703 C700 1.539 . S
C703 H717 0.958 . S
C703 H718 0.961 . S
C703 H719 0.960 . S
H704 C688 0.931 . S
H705 C693 0.929 . S
H706 C694 0.960 . S
H707 C694 0.962 . S
H708 C694 0.960 . S
H709 C695 0.961 . S
H710 C695 0.961 . S
H711 C695 0.961 . S
H712 C696 0.931 . S
H713 C701 0.930 . S
H714 C702 0.956 . S
H715 C702 0.961 . S
H716 C702 0.961 . S
H717 C703 0.958 . S
H718 C703 0.961 . S
H719 C703 0.960 . S
C720 C721 1.391 . S
C720 C722 1.394 . S
C720 H736 0.931 . S
C721 C720 1.391 . S
C721 C725 1.376 1_655 S
C722 C720 1.394 . S
C722 C723 1.369 . S
C722 C726 1.531 . S
C723 C722 1.369 . S
C723 C724 1.410 1_655 S
C723 C731 1.503 . S
C724 C723 1.410 1_455 S
C724 C725 1.392 . S
C724 C727 1.511 . S
C725 C721 1.376 1_455 S
C725 C724 1.392 . S
C725 H737 0.929 . S
C726 C722 1.531 . S
C726 H738 0.960 . S
C726 H739 0.962 . S
C726 H740 0.960 . S
C727 C724 1.511 . S
C727 H741 0.961 . S
C727 H742 0.961 . S
C727 H743 0.961 . S
C728 C729 1.370 . S
C728 C730 1.363 . S
C728 H744 0.931 . S
C729 C728 1.370 . S
C729 C733 1.408 . S
C730 C728 1.363 . S
C730 C731 1.370 . S
C730 C734 1.524 . S
C731 C723 1.503 . S
C731 C730 1.370 . S
C731 C732 1.403 . S
C732 C731 1.403 . S
C732 C733 1.404 . S
C732 C735 1.539 1_655 S
C733 C729 1.408 . S
C733 C732 1.404 . S
C733 H745 0.922 1_655 S
C734 C730 1.524 . S
C734 H746 0.956 . S
C734 H747 0.961 . S
C734 H748 0.961 . S
C735 C732 1.539 1_455 S
C735 H749 0.956 1_455 S
C735 H750 0.963 . S
C735 H751 0.960 . S
H736 C720 0.931 . S
H737 C725 0.929 . S
H738 C726 0.960 . S
H739 C726 0.962 . S
H740 C726 0.960 . S
H741 C727 0.961 . S
H742 C727 0.961 . S
H743 C727 0.961 . S
H744 C728 0.931 . S
H745 C733 0.922 1_455 S
H746 C734 0.956 . S
H747 C734 0.961 . S
H748 C734 0.961 . S
H749 C735 0.956 1_655 S
H750 C735 0.963 . S
H751 C735 0.960 . S
C752 C753 1.393 . S
C752 C754 1.393 1_545 S
C752 H768 0.929 1_545 S
C753 C752 1.393 . S
C753 C757 1.376 . S
C754 C752 1.393 1_565 S
C754 C755 1.369 1_565 S
C754 C758 1.531 . S
C755 C754 1.369 1_545 S
C755 C756 1.410 . S
C755 C763 1.503 . S
C756 C755 1.410 . S
C756 C757 1.392 . S
C756 C759 1.511 . S
C757 C753 1.376 . S
C757 C756 1.392 . S
C757 H769 0.929 . S
C758 C754 1.531 . S
C758 H770 0.960 . S
C758 H771 0.962 . S
C758 H772 0.960 . S
C759 C756 1.511 . S
C759 H773 0.961 . S
C759 H774 0.961 . S
C759 H775 0.961 . S
C760 C761 1.370 . S
C760 C762 1.363 . S
C760 H776 0.931 . S
C761 C760 1.370 . S
C761 C765 1.408 1_545 S
C762 C760 1.363 . S
C762 C763 1.370 . S
C762 C766 1.524 . S
C763 C755 1.503 . S
C763 C762 1.370 . S
C763 C764 1.403 1_545 S
C764 C763 1.403 1_565 S
C764 C765 1.404 . S
C764 C767 1.539 . S
C765 C761 1.408 1_565 S
C765 C764 1.404 . S
C765 H777 0.930 . S
C766 C762 1.524 . S
C766 H778 0.956 . S
C766 H779 0.961 . S
C766 H780 0.961 . S
C767 C764 1.539 . S
C767 H781 0.958 . S
C767 H782 0.961 . S
C767 H783 0.960 . S
H768 C752 0.929 1_565 S
H769 C757 0.929 . S
H770 C758 0.960 . S
H771 C758 0.962 . S
H772 C758 0.960 . S
H773 C759 0.961 . S
H774 C759 0.961 . S
H775 C759 0.961 . S
H776 C760 0.931 . S
H777 C765 0.930 . S
H778 C766 0.956 . S
H779 C766 0.961 . S
H780 C766 0.961 . S
H781 C767 0.958 . S
H782 C767 0.961 . S
H783 C767 0.960 . S
C784 C785 1.391 . S
C784 C786 1.394 . S
C784 H800 0.931 . S
C785 C784 1.391 . S
C785 C789 1.376 . S
C786 C784 1.394 . S
C786 C787 1.369 . S
C786 C790 1.531 . S
C787 C786 1.369 . S
C787 C788 1.410 . S
C787 C795 1.503 . S
C788 C787 1.410 . S
C788 C789 1.392 . S
C788 C791 1.511 . S
C789 C785 1.376 . S
C789 C788 1.392 . S
C789 H801 0.929 . S
C790 C786 1.531 . S
C790 H802 0.960 . S
C790 H803 0.962 . S
C790 H804 0.960 . S
C791 C788 1.511 . S
C791 H805 0.961 . S
C791 H806 0.961 . S
C791 H807 0.961 . S
C792 C793 1.370 . S
C792 C794 1.363 . S
C792 H808 0.931 . S
C793 C792 1.370 . S
C793 C797 1.408 . S
C794 C792 1.363 . S
C794 C795 1.370 . S
C794 C798 1.524 . S
C795 C787 1.503 . S
C795 C794 1.370 . S
C795 C796 1.403 . S
C796 C795 1.403 . S
C796 C797 1.404 . S
C796 C799 1.539 . S
C797 C793 1.408 . S
C797 C796 1.404 . S
C797 H809 0.930 . S
C798 C794 1.524 . S
C798 H810 0.956 . S
C798 H811 0.961 . S
C798 H812 0.961 . S
C799 C796 1.539 . S
C799 H813 0.958 . S
C799 H814 0.961 . S
C799 H815 0.960 . S
H800 C784 0.931 . S
H801 C789 0.929 . S
H802 C790 0.960 . S
H803 C790 0.962 . S
H804 C790 0.960 . S
H805 C791 0.961 . S
H806 C791 0.961 . S
H807 C791 0.961 . S
H808 C792 0.931 . S
H809 C797 0.930 . S
H810 C798 0.956 . S
H811 C798 0.961 . S
H812 C798 0.961 . S
H813 C799 0.958 . S
H814 C799 0.961 . S
H815 C799 0.960 . S
C816 C817 1.391 . S
C816 C818 1.394 . S
C816 H832 0.931 . S
C817 C816 1.391 . S
C817 C821 1.376 . S
C818 C816 1.394 . S
C818 C819 1.369 . S
C818 C822 1.531 . S
C819 C818 1.369 . S
C819 C820 1.410 . S
C819 C827 1.503 . S
C820 C819 1.410 . S
C820 C821 1.392 . S
C820 C823 1.511 . S
C821 C817 1.376 . S
C821 C820 1.392 . S
C821 H833 0.929 . S
C822 C818 1.531 . S
C822 H834 0.960 . S
C822 H835 0.962 . S
C822 H836 0.960 . S
C823 C820 1.511 . S
C823 H837 0.961 . S
C823 H838 0.961 . S
C823 H839 0.961 . S
C824 C825 1.370 . S
C824 C826 1.363 . S
C824 H840 0.931 . S
C825 C824 1.370 . S
C825 C829 1.408 . S
C826 C824 1.363 . S
C826 C827 1.370 . S
C826 C830 1.524 . S
C827 C819 1.503 . S
C827 C826 1.370 . S
C827 C828 1.403 . S
C828 C827 1.403 . S
C828 C829 1.404 . S
C828 C831 1.539 . S
C829 C825 1.408 . S
C829 C828 1.404 . S
C829 H841 0.930 . S
C830 C826 1.524 . S
C830 H842 0.956 . S
C830 H843 0.961 . S
C830 H844 0.961 . S
C831 C828 1.539 . S
C831 H845 0.958 . S
C831 H846 0.961 . S
C831 H847 0.960 . S
H832 C816 0.931 . S
H833 C821 0.929 . S
H834 C822 0.960 . S
H835 C822 0.962 . S
H836 C822 0.960 . S
H837 C823 0.961 . S
H838 C823 0.961 . S
H839 C823 0.961 . S
H840 C824 0.931 . S
H841 C829 0.930 . S
H842 C830 0.956 . S
H843 C830 0.961 . S
H844 C830 0.961 . S
H845 C831 0.958 . S
H846 C831 0.961 . S
H847 C831 0.960 . S
C848 C849 1.391 . S
C848 C850 1.394 . S
C848 H864 0.931 . S
C849 C848 1.391 . S
C849 C853 1.376 1_455 S
C850 C848 1.394 . S
C850 C851 1.369 . S
C850 C854 1.531 . S
C851 C850 1.369 . S
C851 C852 1.410 1_455 S
C851 C859 1.503 . S
C852 C851 1.410 1_655 S
C852 C853 1.392 . S
C852 C855 1.511 . S
C853 C849 1.376 1_655 S
C853 C852 1.392 . S
C853 H865 0.929 . S
C854 C850 1.531 . S
C854 H866 0.960 . S
C854 H867 0.962 . S
C854 H868 0.960 . S
C855 C852 1.511 . S
C855 H869 0.961 . S
C855 H870 0.961 . S
C855 H871 0.961 . S
C856 C857 1.370 . S
C856 C858 1.363 . S
C856 H872 0.931 . S
C857 C856 1.370 . S
C857 C861 1.408 1_455 S
C858 C856 1.363 . S
C858 C859 1.370 . S
C858 C862 1.524 . S
C859 C851 1.503 . S
C859 C858 1.370 . S
C859 C860 1.392 1_455 S
C860 C859 1.392 1_655 S
C860 C861 1.406 . S
C860 C863 1.551 . S
C861 C857 1.408 1_655 S
C861 C860 1.406 . S
C861 H873 0.930 . S
C862 C858 1.524 . S
C862 H874 0.956 . S
C862 H875 0.961 . S
C862 H876 0.961 . S
C863 C860 1.551 . S
C863 H877 0.940 1_655 S
C863 H878 0.961 . S
C863 H879 0.960 . S
H864 C848 0.931 . S
H865 C853 0.929 . S
H866 C854 0.960 . S
H867 C854 0.962 . S
H868 C854 0.960 . S
H869 C855 0.961 . S
H870 C855 0.961 . S
H871 C855 0.961 . S
H872 C856 0.931 . S
H873 C861 0.930 . S
H874 C862 0.956 . S
H875 C862 0.961 . S
H876 C862 0.961 . S
H877 C863 0.940 1_455 S
H878 C863 0.961 . S
H879 C863 0.960 . S
C880 C881 1.391 1_565 S
C880 C882 1.394 . S
C880 H896 0.931 . S
C881 C880 1.391 1_545 S
C881 C885 1.376 . S
C882 C880 1.394 . S
C882 C883 1.369 1_565 S
C882 C886 1.531 . S
C883 C882 1.369 1_545 S
C883 C884 1.410 . S
C883 C891 1.503 . S
C884 C883 1.410 . S
C884 C885 1.392 . S
C884 C887 1.511 . S
C885 C881 1.376 . S
C885 C884 1.392 . S
C885 H897 0.929 . S
C886 C882 1.531 . S
C886 H898 0.960 . S
C886 H899 0.962 . S
C886 H900 0.960 . S
C887 C884 1.511 . S
C887 H901 0.961 . S
C887 H902 0.961 . S
C887 H903 0.961 . S
C888 C889 1.370 . S
C888 C890 1.363 . S
C888 H904 0.931 . S
C889 C888 1.370 . S
C889 C893 1.408 . S
C890 C888 1.363 . S
C890 C891 1.370 . S
C890 C894 1.524 . S
C891 C883 1.503 . S
C891 C890 1.370 . S
C891 C892 1.403 . S
C892 C891 1.403 . S
C892 C893 1.404 . S
C892 C895 1.539 . S
C893 C889 1.408 . S
C893 C892 1.404 . S
C893 H905 0.930 . S
C894 C890 1.524 . S
C894 H906 0.956 1_545 S
C894 H907 0.961 . S
C894 H908 0.961 . S
C895 C892 1.539 . S
C895 H909 0.958 . S
C895 H910 0.961 . S
C895 H911 0.960 . S
H896 C880 0.931 . S
H897 C885 0.929 . S
H898 C886 0.960 . S
H899 C886 0.962 . S
H900 C886 0.960 . S
H901 C887 0.961 . S
H902 C887 0.961 . S
H903 C887 0.961 . S
H904 C888 0.931 . S
H905 C893 0.930 . S
H906 C894 0.956 1_565 S
H907 C894 0.961 . S
H908 C894 0.961 . S
H909 C895 0.958 . S
H910 C895 0.961 . S
H911 C895 0.960 . S
C912 C913 1.391 . S
C912 C914 1.394 . S
C912 H928 0.931 . S
C913 C912 1.391 . S
C913 C917 1.376 . S
C914 C912 1.394 . S
C914 C915 1.369 . S
C914 C918 1.531 . S
C915 C914 1.369 . S
C915 C916 1.410 . S
C915 C923 1.503 . S
C916 C915 1.410 . S
C916 C917 1.392 . S
C916 C919 1.511 . S
C917 C913 1.376 . S
C917 C916 1.392 . S
C917 H929 0.929 . S
C918 C914 1.531 . S
C918 H930 0.960 . S
C918 H931 0.962 . S
C918 H932 0.960 . S
C919 C916 1.511 . S
C919 H933 0.961 . S
C919 H934 0.961 . S
C919 H935 0.961 . S
C920 C921 1.370 . S
C920 C922 1.363 . S
C920 H936 0.931 . S
C921 C920 1.370 . S
C921 C925 1.408 . S
C922 C920 1.363 . S
C922 C923 1.370 . S
C922 C926 1.524 . S
C923 C915 1.503 . S
C923 C922 1.370 . S
C923 C924 1.403 . S
C924 C923 1.403 . S
C924 C925 1.404 . S
C924 C927 1.539 . S
C925 C921 1.408 . S
C925 C924 1.404 . S
C925 H937 0.930 . S
C926 C922 1.524 . S
C926 H938 0.956 . S
C926 H939 0.961 . S
C926 H940 0.961 . S
C927 C924 1.539 . S
C927 H941 0.958 . S
C927 H942 0.961 . S
C927 H943 0.960 . S
H928 C912 0.931 . S
H929 C917 0.929 . S
H930 C918 0.960 . S
H931 C918 0.962 . S
H932 C918 0.960 . S
H933 C919 0.961 . S
H934 C919 0.961 . S
H935 C919 0.961 . S
H936 C920 0.931 . S
H937 C925 0.930 . S
H938 C926 0.956 . S
H939 C926 0.961 . S
H940 C926 0.961 . S
H941 C927 0.958 . S
H942 C927 0.961 . S
H943 C927 0.960 . S
C944 C945 1.391 . S
C944 C946 1.394 . S
C944 H960 0.931 . S
C945 C944 1.391 . S
C945 C949 1.376 . S
C946 C944 1.394 . S
C946 C947 1.369 . S
C946 C950 1.531 . S
C947 C946 1.369 . S
C947 C948 1.410 . S
C947 C955 1.503 . S
C948 C947 1.410 . S
C948 C949 1.392 . S
C948 C951 1.511 . S
C949 C945 1.376 . S
C949 C948 1.392 . S
C949 H961 0.929 . S
C950 C946 1.531 . S
C950 H962 0.960 . S
C950 H963 0.962 . S
C950 H964 0.960 . S
C951 C948 1.511 . S
C951 H965 0.961 . S
C951 H966 0.961 . S
C951 H967 0.961 . S
C952 C953 1.370 . S
C952 C954 1.363 . S
C952 H968 0.931 . S
C953 C952 1.370 . S
C953 C957 1.408 . S
C954 C952 1.363 . S
C954 C955 1.370 . S
C954 C958 1.524 . S
C955 C947 1.503 . S
C955 C954 1.370 . S
C955 C956 1.403 . S
C956 C955 1.403 . S
C956 C957 1.404 . S
C956 C959 1.539 . S
C957 C953 1.408 . S
C957 C956 1.404 . S
C957 H969 0.930 . S
C958 C954 1.524 . S
C958 H970 0.956 . S
C958 H971 0.961 . S
C958 H972 0.961 . S
C959 C956 1.539 . S
C959 H973 0.958 . S
C959 H974 0.961 . S
C959 H975 0.960 . S
H960 C944 0.931 . S
H961 C949 0.929 . S
H962 C950 0.960 . S
H963 C950 0.962 . S
H964 C950 0.960 . S
H965 C951 0.961 . S
H966 C951 0.961 . S
H967 C951 0.961 . S
H968 C952 0.931 . S
H969 C957 0.930 . S
H970 C958 0.956 . S
H971 C958 0.961 . S
H972 C958 0.961 . S
H973 C959 0.958 . S
H974 C959 0.961 . S
H975 C959 0.960 . S
C976 C977 1.391 . S
C976 C978 1.394 . S
C976 H992 0.911 1_455 S
C977 C976 1.391 . S
C977 C981 1.376 . S
C978 C976 1.394 . S
C978 C979 1.369 . S
C978 C982 1.531 1_455 S
C979 C978 1.369 . S
C979 C980 1.410 . S
C979 C987 1.503 . S
C980 C979 1.410 . S
C980 C981 1.392 . S
C980 C983 1.511 . S
C981 C977 1.376 . S
C981 C980 1.392 . S
C981 H993 0.929 . S
C982 C978 1.531 1_655 S
C982 H994 0.982 . S
C982 H995 0.962 . S
C982 H996 0.960 . S
C983 C980 1.511 . S
C983 H997 0.961 . S
C983 H998 0.961 . S
C983 H999 0.961 . S
C984 C985 1.370 1_655 S
C984 C986 1.363 . S
C984 H1000 0.931 . S
C985 C984 1.370 1_455 S
C985 C989 1.408 . S
C986 C984 1.363 . S
C986 C987 1.370 1_655 S
C986 C990 1.524 . S
C987 C979 1.503 . S
C987 C986 1.370 1_455 S
C987 C988 1.403 . S
C988 C987 1.403 . S
C988 C989 1.404 . S
C988 C991 1.539 . S
C989 C985 1.408 . S
C989 C988 1.404 . S
C989 H1001 0.930 . S
C990 C986 1.524 . S
C990 H1002 0.956 . S
C990 H1003 0.961 . S
C990 H1004 0.961 . S
C991 C988 1.539 . S
C991 H1005 0.958 . S
C991 H1006 0.961 . S
C991 H1007 0.960 . S
H992 C976 0.911 1_655 S
H993 C981 0.929 . S
H994 C982 0.982 . S
H995 C982 0.962 . S
H996 C982 0.960 . S
H997 C983 0.961 . S
H998 C983 0.961 . S
H999 C983 0.961 . S
H1000 C984 0.931 . S
H1001 C989 0.930 . S
H1002 C990 0.956 . S
H1003 C990 0.961 . S
H1004 C990 0.961 . S
H1005 C991 0.958 . S
H1006 C991 0.961 . S
H1007 C991 0.960 . S
C1008 C1009 1.391 . S
C1008 C1010 1.394 . S
C1008 H1024 0.931 . S
C1009 C1008 1.391 . S
C1009 C1013 1.369 1_565 S
C1010 C1008 1.394 . S
C1010 C1011 1.369 . S
C1010 C1014 1.531 . S
C1011 C1010 1.369 . S
C1011 C1012 1.410 . S
C1011 C1019 1.503 . S
C1012 C1011 1.410 . S
C1012 C1013 1.390 1_565 S
C1012 C1015 1.511 1_565 S
C1013 C1009 1.369 1_545 S
C1013 C1012 1.390 1_545 S
C1013 H1025 0.938 . S
C1014 C1010 1.531 . S
C1014 H1026 0.960 . S
C1014 H1027 0.962 . S
C1014 H1028 0.960 . S
C1015 C1012 1.511 1_545 S
C1015 H1029 0.961 . S
C1015 H1030 0.961 . S
C1015 H1031 0.961 1_545 S
C1016 C1017 1.374 1_545 S
C1016 C1018 1.363 . S
C1016 H1032 0.927 . S
C1017 C1016 1.374 1_565 S
C1017 C1021 1.408 . S
C1018 C1016 1.363 . S
C1018 C1019 1.370 1_545 S
C1018 C1022 1.524 . S
C1019 C1011 1.503 . S
C1019 C1018 1.370 1_565 S
C1019 C1020 1.403 . S
C1020 C1019 1.403 . S
C1020 C1021 1.404 . S
C1020 C1023 1.539 . S
C1021 C1017 1.408 . S
C1021 C1020 1.404 . S
C1021 H1033 0.930 . S
C1022 C1018 1.524 . S
C1022 H1034 0.956 . S
C1022 H1035 0.961 . S
C1022 H1036 0.961 . S
C1023 C1020 1.539 . S
C1023 H1037 0.958 . S
C1023 H1038 0.961 . S
C1023 H1039 0.960 . S
H1024 C1008 0.931 . S
H1025 C1013 0.938 . S
H1026 C1014 0.960 . S
H1027 C1014 0.962 . S
H1028 C1014 0.960 . S
H1029 C1015 0.961 . S
H1030 C1015 0.961 . S
H1031 C1015 0.961 1_565 S
H1032 C1016 0.927 . S
H1033 C1021 0.930 . S
H1034 C1022 0.956 . S
H1035 C1022 0.961 . S
H1036 C1022 0.961 . S
H1037 C1023 0.958 . S
H1038 C1023 0.961 . S
H1039 C1023 0.960 . S
C1040 C1041 1.391 . S
C1040 C1042 1.394 . S
C1040 H1056 0.931 . S
C1041 C1040 1.391 . S
C1041 C1045 1.376 . S
C1042 C1040 1.394 . S
C1042 C1043 1.369 . S
C1042 C1046 1.531 . S
C1043 C1042 1.369 . S
C1043 C1044 1.410 . S
C1043 C1051 1.503 . S
C1044 C1043 1.410 . S
C1044 C1045 1.392 . S
C1044 C1047 1.511 . S
C1045 C1041 1.376 . S
C1045 C1044 1.392 . S
C1045 H1057 0.929 . S
C1046 C1042 1.531 . S
C1046 H1058 0.960 . S
C1046 H1059 0.962 . S
C1046 H1060 0.960 . S
C1047 C1044 1.511 . S
C1047 H1061 0.961 . S
C1047 H1062 0.961 . S
C1047 H1063 0.961 . S
C1048 C1049 1.370 . S
C1048 C1050 1.363 . S
C1048 H1064 0.931 . S
C1049 C1048 1.370 . S
C1049 C1053 1.408 . S
C1050 C1048 1.363 . S
C1050 C1051 1.370 . S
C1050 C1054 1.524 . S
C1051 C1043 1.503 . S
C1051 C1050 1.370 . S
C1051 C1052 1.403 . S
C1052 C1051 1.403 . S
C1052 C1053 1.404 . S
C1052 C1055 1.539 . S
C1053 C1049 1.408 . S
C1053 C1052 1.404 . S
C1053 H1065 0.930 . S
C1054 C1050 1.524 . S
C1054 H1066 0.956 . S
C1054 H1067 0.961 . S
C1054 H1068 0.961 . S
C1055 C1052 1.539 . S
C1055 H1069 0.958 . S
C1055 H1070 0.961 . S
C1055 H1071 0.960 . S
H1056 C1040 0.931 . S
H1057 C1045 0.929 . S
H1058 C1046 0.960 . S
H1059 C1046 0.962 . S
H1060 C1046 0.960 . S
H1061 C1047 0.961 . S
H1062 C1047 0.961 . S
H1063 C1047 0.961 . S
H1064 C1048 0.931 . S
H1065 C1053 0.930 . S
H1066 C1054 0.956 . S
H1067 C1054 0.961 . S
H1068 C1054 0.961 . S
H1069 C1055 0.958 . S
H1070 C1055 0.961 . S
H1071 C1055 0.960 . S
C1072 C1073 1.391 . S
C1072 C1074 1.394 . S
C1072 H1088 0.931 . S
C1073 C1072 1.391 . S
C1073 C1077 1.376 . S
C1074 C1072 1.394 . S
C1074 C1075 1.369 . S
C1074 C1078 1.531 . S
C1075 C1074 1.369 . S
C1075 C1076 1.410 . S
C1075 C1083 1.503 . S
C1076 C1075 1.410 . S
C1076 C1077 1.392 . S
C1076 C1079 1.511 . S
C1077 C1073 1.376 . S
C1077 C1076 1.392 . S
C1077 H1089 0.929 . S
C1078 C1074 1.531 . S
C1078 H1090 0.960 . S
C1078 H1091 0.962 . S
C1078 H1092 0.960 . S
C1079 C1076 1.511 . S
C1079 H1093 0.961 . S
C1079 H1094 0.961 . S
C1079 H1095 0.961 . S
C1080 C1081 1.370 . S
C1080 C1082 1.363 . S
C1080 H1096 0.931 . S
C1081 C1080 1.370 . S
C1081 C1085 1.408 . S
C1082 C1080 1.363 . S
C1082 C1083 1.370 . S
C1082 C1086 1.524 . S
C1083 C1075 1.503 . S
C1083 C1082 1.370 . S
C1083 C1084 1.403 . S
C1084 C1083 1.403 . S
C1084 C1085 1.404 . S
C1084 C1087 1.539 . S
C1085 C1081 1.408 . S
C1085 C1084 1.404 . S
C1085 H1097 0.930 . S
C1086 C1082 1.524 . S
C1086 H1098 0.956 . S
C1086 H1099 0.961 . S
C1086 H1100 0.961 . S
C1087 C1084 1.539 . S
C1087 H1101 0.958 . S
C1087 H1102 0.961 . S
C1087 H1103 0.960 . S
H1088 C1072 0.931 . S
H1089 C1077 0.929 . S
H1090 C1078 0.960 . S
H1091 C1078 0.962 . S
H1092 C1078 0.960 . S
H1093 C1079 0.961 . S
H1094 C1079 0.961 . S
H1095 C1079 0.961 . S
H1096 C1080 0.931 . S
H1097 C1085 0.930 . S
H1098 C1086 0.956 . S
H1099 C1086 0.961 . S
H1100 C1086 0.961 . S
H1101 C1087 0.958 . S
H1102 C1087 0.961 . S
H1103 C1087 0.960 . S
C1104 C1105 1.391 1_455 S
C1104 C1106 1.394 . S
C1104 H1120 0.931 . S
C1105 C1104 1.391 1_655 S
C1105 C1109 1.376 . S
C1106 C1104 1.394 . S
C1106 C1107 1.369 1_455 S
C1106 C1110 1.531 . S
C1107 C1106 1.369 1_655 S
C1107 C1108 1.410 . S
C1107 C1115 1.503 . S
C1108 C1107 1.410 . S
C1108 C1109 1.392 . S
C1108 C1111 1.511 . S
C1109 C1105 1.376 . S
C1109 C1108 1.392 . S
C1109 H1121 0.929 . S
C1110 C1106 1.531 . S
C1110 H1122 0.960 . S
C1110 H1123 0.962 . S
C1110 H1124 0.960 . S
C1111 C1108 1.511 . S
C1111 H1125 0.961 . S
C1111 H1126 0.961 . S
C1111 H1127 0.961 . S
C1112 C1113 1.370 . S
C1112 C1114 1.363 . S
C1112 H1128 0.933 . S
C1113 C1112 1.370 . S
C1113 C1117 1.408 . S
C1114 C1112 1.363 . S
C1114 C1115 1.370 . S
C1114 C1118 1.524 1_655 S
C1115 C1107 1.503 . S
C1115 C1114 1.370 . S
C1115 C1116 1.403 . S
C1116 C1115 1.403 . S
C1116 C1117 1.404 . S
C1116 C1119 1.539 . S
C1117 C1113 1.408 . S
C1117 C1116 1.404 . S
C1117 H1129 0.930 . S
C1118 C1114 1.524 1_455 S
C1118 H1130 0.956 . S
C1118 H1131 0.961 1_455 S
C1118 H1132 0.961 . S
C1119 C1116 1.539 . S
C1119 H1133 0.958 . S
C1119 H1134 0.961 . S
C1119 H1135 0.960 . S
H1120 C1104 0.931 . S
H1121 C1109 0.929 . S
H1122 C1110 0.960 . S
H1123 C1110 0.962 . S
H1124 C1110 0.960 . S
H1125 C1111 0.961 . S
H1126 C1111 0.961 . S
H1127 C1111 0.961 . S
H1128 C1112 0.933 . S
H1129 C1117 0.930 . S
H1130 C1118 0.956 . S
H1131 C1118 0.961 1_655 S
H1132 C1118 0.961 . S
H1133 C1119 0.958 . S
H1134 C1119 0.961 . S
H1135 C1119 0.960 . S
C1136 C1137 1.391 1_566 S
C1136 C1138 1.394 . S
C1136 H1152 0.931 . S
C1137 C1136 1.391 1_544 S
C1137 C1141 1.376 . S
C1138 C1136 1.394 . S
C1138 C1139 1.369 1_565 S
C1138 C1142 1.531 . S
C1139 C1138 1.369 1_545 S
C1139 C1140 1.410 1_556 S
C1139 C1147 1.503 . S
C1140 C1139 1.410 1_554 S
C1140 C1141 1.392 . S
C1140 C1143 1.511 . S
C1141 C1137 1.376 . S
C1141 C1140 1.392 . S
C1141 H1153 0.929 . S
C1142 C1138 1.531 . S
C1142 H1154 0.960 . S
C1142 H1155 0.962 . S
C1142 H1156 0.960 . S
C1143 C1140 1.511 . S
C1143 H1157 0.961 . S
C1143 H1158 0.961 . S
C1143 H1159 0.961 . S
C1144 C1145 1.370 1_554 S
C1144 C1146 1.363 . S
C1144 H1160 0.931 . S
C1145 C1144 1.370 1_556 S
C1145 C1149 1.408 1_565 S
C1146 C1144 1.363 . S
C1146 C1147 1.370 1_564 S
C1146 C1150 1.524 . S
C1147 C1139 1.503 . S
C1147 C1146 1.370 1_546 S
C1147 C1148 1.403 . S
C1148 C1147 1.403 . S
C1148 C1149 1.404 . S
C1148 C1151 1.539 . S
C1149 C1145 1.408 1_545 S
C1149 C1148 1.404 . S
C1149 H1161 0.930 . S
C1150 C1146 1.524 . S
C1150 H1162 0.956 . S
C1150 H1163 0.961 . S
C1150 H1164 0.961 . S
C1151 C1148 1.539 . S
C1151 H1165 0.958 . S
C1151 H1166 0.961 . S
C1151 H1167 0.960 . S
H1152 C1136 0.931 . S
H1153 C1141 0.929 . S
H1154 C1142 0.960 . S
H1155 C1142 0.962 . S
H1156 C1142 0.960 . S
H1157 C1143 0.961 . S
H1158 C1143 0.961 . S
H1159 C1143 0.961 . S
H1160 C1144 0.931 . S
H1161 C1149 0.930 . S
H1162 C1150 0.956 . S
H1163 C1150 0.961 . S
H1164 C1150 0.961 . S
H1165 C1151 0.958 . S
H1166 C1151 0.961 . S
H1167 C1151 0.960 . S
C1168 C1169 1.391 . S
C1168 C1170 1.394 . S
C1168 H1184 0.931 . S
C1169 C1168 1.391 . S
C1169 C1173 1.376 . S
C1170 C1168 1.394 . S
C1170 C1171 1.369 . S
C1170 C1174 1.531 . S
C1171 C1170 1.369 . S
C1171 C1172 1.410 . S
C1171 C1179 1.503 . S
C1172 C1171 1.410 . S
C1172 C1173 1.392 . S
C1172 C1175 1.511 . S
C1173 C1169 1.376 . S
C1173 C1172 1.392 . S
C1173 H1185 0.929 . S
C1174 C1170 1.531 . S
C1174 H1186 0.960 . S
C1174 H1187 0.962 1_554 S
C1174 H1188 0.960 . S
C1175 C1172 1.511 . S
C1175 H1189 0.961 1_554 S
C1175 H1190 0.961 1_554 S
C1175 H1191 0.961 . S
C1176 C1177 1.353 1_556 S
C1176 C1178 1.363 . S
C1176 H1192 0.931 . S
C1177 C1176 1.353 1_554 S
C1177 C1181 1.427 . S
C1178 C1176 1.363 . S
C1178 C1179 1.370 1_556 S
C1178 C1182 1.524 . S
C1179 C1171 1.503 . S
C1179 C1178 1.370 1_554 S
C1179 C1180 1.403 . S
C1180 C1179 1.403 . S
C1180 C1181 1.404 . S
C1180 C1183 1.539 . S
C1181 C1177 1.427 . S
C1181 C1180 1.404 . S
C1181 H1193 0.930 . S
C1182 C1178 1.524 . S
C1182 H1194 0.956 . S
C1182 H1195 0.961 . S
C1182 H1196 0.961 . S
C1183 C1180 1.539 . S
C1183 H1197 0.958 . S
C1183 H1198 0.961 . S
C1183 H1199 0.960 . S
H1184 C1168 0.931 . S
H1185 C1173 0.929 . S
H1186 C1174 0.960 . S
H1187 C1174 0.962 1_556 S
H1188 C1174 0.960 . S
H1189 C1175 0.961 1_556 S
H1190 C1175 0.961 1_556 S
H1191 C1175 0.961 . S
H1192 C1176 0.931 . S
H1193 C1181 0.930 . S
H1194 C1182 0.956 . S
H1195 C1182 0.961 . S
H1196 C1182 0.961 . S
H1197 C1183 0.958 . S
H1198 C1183 0.961 . S
H1199 C1183 0.960 . S
C1200 C1201 1.391 . S
C1200 C1202 1.394 . S
C1200 H1216 0.931 . S
C1201 C1200 1.391 . S
C1201 C1205 1.376 1_556 S
C1202 C1200 1.394 . S
C1202 C1203 1.369 . S
C1202 C1206 1.531 . S
C1203 C1202 1.369 . S
C1203 C1204 1.410 1_556 S
C1203 C1211 1.503 1_655 S
C1204 C1203 1.410 1_554 S
C1204 C1205 1.392 . S
C1204 C1207 1.511 1_655 S
C1205 C1201 1.376 1_554 S
C1205 C1204 1.392 . S
C1205 H1217 0.929 . S
C1206 C1202 1.531 . S
C1206 H1218 0.960 . S
C1206 H1219 0.962 . S
C1206 H1220 0.960 . S
C1207 C1204 1.511 1_455 S
C1207 H1221 0.961 . S
C1207 H1222 0.961 . S
C1207 H1223 0.961 . S
C1208 C1209 1.372 . S
C1208 C1210 1.363 . S
C1208 H1224 0.931 . S
C1209 C1208 1.372 . S
C1209 C1213 1.406 1_554 S
C1210 C1208 1.363 . S
C1210 C1211 1.370 1_554 S
C1210 C1214 1.524 1_455 S
C1211 C1203 1.503 1_455 S
C1211 C1210 1.370 1_556 S
C1211 C1212 1.403 . S
C1212 C1211 1.403 . S
C1212 C1213 1.404 . S
C1212 C1215 1.539 . S
C1213 C1209 1.406 1_556 S
C1213 C1212 1.404 . S
C1213 H1225 0.930 . S
C1214 C1210 1.524 1_655 S
C1214 H1226 0.956 . S
C1214 H1227 0.961 . S
C1214 H1228 0.961 . S
C1215 C1212 1.539 . S
C1215 H1229 0.958 . S
C1215 H1230 0.961 . S
C1215 H1231 0.960 . S
H1216 C1200 0.931 . S
H1217 C1205 0.929 . S
H1218 C1206 0.960 . S
H1219 C1206 0.962 . S
H1220 C1206 0.960 . S
H1221 C1207 0.961 . S
H1222 C1207 0.961 . S
H1223 C1207 0.961 . S
H1224 C1208 0.931 . S
H1225 C1213 0.930 . S
H1226 C1214 0.956 . S
H1227 C1214 0.961 . S
H1228 C1214 0.961 . S
H1229 C1215 0.958 . S
H1230 C1215 0.961 . S
H1231 C1215 0.960 . S
C1232 C1233 1.391 1_656 S
C1232 C1234 1.394 . S
C1232 H1248 0.931 . S
C1233 C1232 1.391 1_454 S
C1233 C1237 1.376 . S
C1234 C1232 1.394 . S
C1234 C1235 1.369 1_655 S
C1234 C1238 1.531 . S
C1235 C1234 1.369 1_455 S
C1235 C1236 1.410 . S
C1235 C1243 1.503 1_445 S
C1236 C1235 1.410 . S
C1236 C1237 1.392 1_556 S
C1236 C1239 1.511 . S
C1237 C1233 1.376 . S
C1237 C1236 1.392 1_554 S
C1237 H1249 0.929 . S
C1238 C1234 1.531 . S
C1238 H1250 0.960 . S
C1238 H1251 0.962 1_556 S
C1238 H1252 0.960 . S
C1239 C1236 1.511 . S
C1239 H1253 0.961 1_556 S
C1239 H1254 0.961 1_546 S
C1239 H1255 0.961 . S
C1240 C1241 1.370 1_554 S
C1240 C1242 1.363 . S
C1240 H1256 0.931 . S
C1241 C1240 1.370 1_556 S
C1241 C1245 1.408 . S
C1242 C1240 1.363 . S
C1242 C1243 1.370 1_554 S
C1242 C1246 1.524 . S
C1243 C1235 1.503 1_665 S
C1243 C1242 1.370 1_556 S
C1243 C1244 1.402 . S
C1244 C1243 1.402 . S
C1244 C1245 1.408 . S
C1244 C1247 1.535 1_655 S
C1245 C1241 1.408 . S
C1245 C1244 1.408 . S
C1245 H1257 0.930 . S
C1246 C1242 1.524 . S
C1246 H1258 0.956 . S
C1246 H1259 0.961 1_655 S
C1246 H1260 0.961 . S
C1247 C1244 1.535 1_455 S
C1247 H1261 0.958 1_455 S
C1247 H1262 0.961 . S
C1247 H1263 0.960 1_565 S
H1248 C1232 0.931 . S
H1249 C1237 0.929 . S
H1250 C1238 0.960 . S
H1251 C1238 0.962 1_554 S
H1252 C1238 0.960 . S
H1253 C1239 0.961 1_554 S
H1254 C1239 0.961 1_564 S
H1255 C1239 0.961 . S
H1256 C1240 0.931 . S
H1257 C1245 0.930 . S
H1258 C1246 0.956 . S
H1259 C1246 0.961 1_455 S
H1260 C1246 0.961 . S
H1261 C1247 0.958 1_655 S
H1262 C1247 0.961 . S
H1263 C1247 0.960 1_545 S
C1264 C1265 1.391 1_565 S
C1264 C1266 1.394 . S
C1264 H1280 0.931 . S
C1265 C1264 1.391 1_545 S
C1265 C1269 1.376 . S
C1266 C1264 1.394 . S
C1266 C1267 1.369 . S
C1266 C1270 1.531 . S
C1267 C1266 1.369 . S
C1267 C1268 1.410 1_565 S
C1267 C1275 1.503 1_455 S
C1268 C1267 1.410 1_545 S
C1268 C1269 1.392 . S
C1268 C1271 1.511 . S
C1269 C1265 1.376 . S
C1269 C1268 1.392 . S
C1269 H1281 0.929 . S
C1270 C1266 1.531 . S
C1270 H1282 0.960 . S
C1270 H1283 0.962 . S
C1270 H1284 0.960 . S
C1271 C1268 1.511 . S
C1271 H1285 0.961 . S
C1271 H1286 0.961 1_455 S
C1271 H1287 0.961 . S
C1272 C1273 1.370 1_545 S
C1272 C1274 1.363 . S
C1272 H1288 0.931 . S
C1273 C1272 1.370 1_565 S
C1273 C1277 1.408 . S
C1274 C1272 1.363 . S
C1274 C1275 1.370 1_545 S
C1274 C1278 1.524 . S
C1275 C1267 1.503 1_655 S
C1275 C1274 1.370 1_565 S
C1275 C1276 1.403 . S
C1276 C1275 1.403 . S
C1276 C1277 1.404 . S
C1276 C1279 1.539 . S
C1277 C1273 1.408 . S
C1277 C1276 1.404 . S
C1277 H1289 0.930 . S
C1278 C1274 1.524 . S
C1278 H1290 0.956 1_655 S
C1278 H1291 0.961 1_655 S
C1278 H1292 0.961 . S
C1279 C1276 1.539 . S
C1279 H1293 0.958 . S
C1279 H1294 0.961 . S
C1279 H1295 0.960 . S
H1280 C1264 0.931 . S
H1281 C1269 0.929 . S
H1282 C1270 0.960 . S
H1283 C1270 0.962 . S
H1284 C1270 0.960 . S
H1285 C1271 0.961 . S
H1286 C1271 0.961 1_655 S
H1287 C1271 0.961 . S
H1288 C1272 0.931 . S
H1289 C1277 0.930 . S
H1290 C1278 0.956 1_455 S
H1291 C1278 0.961 1_455 S
H1292 C1278 0.961 . S
H1293 C1279 0.958 . S
H1294 C1279 0.961 . S
H1295 C1279 0.960 . S
C1296 C1297 1.391 . S
C1296 C1298 1.394 . S
C1296 H1312 0.931 . S
C1297 C1296 1.391 . S
C1297 C1301 1.376 . S
C1298 C1296 1.394 . S
C1298 C1299 1.369 . S
C1298 C1302 1.531 1_565 S
C1299 C1298 1.369 . S
C1299 C1300 1.410 . S
C1299 C1307 1.503 1_565 S
C1300 C1299 1.410 . S
C1300 C1301 1.392 . S
C1300 C1303 1.511 . S
C1301 C1297 1.376 . S
C1301 C1300 1.392 . S
C1301 H1313 0.929 . S
C1302 C1298 1.531 1_545 S
C1302 H1314 0.960 . S
C1302 H1315 0.962 . S
C1302 H1316 0.960 . S
C1303 C1300 1.511 . S
C1303 H1317 0.961 . S
C1303 H1318 0.961 . S
C1303 H1319 0.961 . S
C1304 C1305 1.370 . S
C1304 C1306 1.363 . S
C1304 H1320 0.931 . S
C1305 C1304 1.370 . S
C1305 C1309 1.408 . S
C1306 C1304 1.363 . S
C1306 C1307 1.370 . S
C1306 C1310 1.524 . S
C1307 C1299 1.503 1_545 S
C1307 C1306 1.370 . S
C1307 C1308 1.403 . S
C1308 C1307 1.403 . S
C1308 C1309 1.404 . S
C1308 C1311 1.539 . S
C1309 C1305 1.408 . S
C1309 C1308 1.404 . S
C1309 H1321 0.930 . S
C1310 C1306 1.524 . S
C1310 H1322 0.956 . S
C1310 H1323 0.961 1_545 S
C1310 H1324 0.961 . S
C1311 C1308 1.539 . S
C1311 H1325 0.958 . S
C1311 H1326 0.961 . S
C1311 H1327 0.960 1_545 S
H1312 C1296 0.931 . S
H1313 C1301 0.929 . S
H1314 C1302 0.960 . S
H1315 C1302 0.962 . S
H1316 C1302 0.960 . S
H1317 C1303 0.961 . S
H1318 C1303 0.961 . S
H1319 C1303 0.961 . S
H1320 C1304 0.931 . S
H1321 C1309 0.930 . S
H1322 C1310 0.956 . S
H1323 C1310 0.961 1_565 S
H1324 C1310 0.961 . S
H1325 C1311 0.958 . S
H1326 C1311 0.961 . S
H1327 C1311 0.960 1_565 S
C1328 C1329 1.391 . S
C1328 C1330 1.394 . S
C1328 H1344 0.931 . S
C1329 C1328 1.391 . S
C1329 C1333 1.376 . S
C1330 C1328 1.394 . S
C1330 C1331 1.369 . S
C1330 C1334 1.531 . S
C1331 C1330 1.369 . S
C1331 C1332 1.410 . S
C1331 C1339 1.503 . S
C1332 C1331 1.410 . S
C1332 C1333 1.392 . S
C1332 C1335 1.511 . S
C1333 C1329 1.376 . S
C1333 C1332 1.392 . S
C1333 H1345 0.929 . S
C1334 C1330 1.531 . S
C1334 H1346 0.960 . S
C1334 H1347 0.962 . S
C1334 H1348 0.960 . S
C1335 C1332 1.511 . S
C1335 H1349 0.961 . S
C1335 H1350 0.961 . S
C1335 H1351 0.961 . S
C1336 C1337 1.370 . S
C1336 C1338 1.363 . S
C1336 H1352 0.931 . S
C1337 C1336 1.370 . S
C1337 C1341 1.408 . S
C1338 C1336 1.363 . S
C1338 C1339 1.370 . S
C1338 C1342 1.524 . S
C1339 C1331 1.503 . S
C1339 C1338 1.370 . S
C1339 C1340 1.403 . S
C1340 C1339 1.403 . S
C1340 C1341 1.404 . S
C1340 C1343 1.539 . S
C1341 C1337 1.408 . S
C1341 C1340 1.404 . S
C1341 H1353 0.930 . S
C1342 C1338 1.524 . S
C1342 H1354 0.956 . S
C1342 H1355 0.961 . S
C1342 H1356 0.961 . S
C1343 C1340 1.539 . S
C1343 H1357 0.958 . S
C1343 H1358 0.961 . S
C1343 H1359 0.960 . S
H1344 C1328 0.931 . S
H1345 C1333 0.929 . S
H1346 C1334 0.960 . S
H1347 C1334 0.962 . S
H1348 C1334 0.960 . S
H1349 C1335 0.961 . S
H1350 C1335 0.961 . S
H1351 C1335 0.961 . S
H1352 C1336 0.931 . S
H1353 C1341 0.930 . S
H1354 C1342 0.956 . S
H1355 C1342 0.961 . S
H1356 C1342 0.961 . S
H1357 C1343 0.958 . S
H1358 C1343 0.961 . S
H1359 C1343 0.960 . S
C1360 C1361 1.391 . S
C1360 C1362 1.394 . S
C1360 H1376 0.931 . S
C1361 C1360 1.391 . S
C1361 C1365 1.376 . S
C1362 C1360 1.394 . S
C1362 C1363 1.369 . S
C1362 C1366 1.530 . S
C1363 C1362 1.369 . S
C1363 C1364 1.410 . S
C1363 C1371 1.503 . S
C1364 C1363 1.410 . S
C1364 C1365 1.392 . S
C1364 C1367 1.511 . S
C1365 C1361 1.376 . S
C1365 C1364 1.392 . S
C1365 H1377 0.929 . S
C1366 C1362 1.530 . S
C1366 H1378 0.958 . S
C1366 H1379 0.967 1_655 S
C1366 H1380 0.959 . S
C1367 C1364 1.511 . S
C1367 H1381 0.961 . S
C1367 H1382 0.961 . S
C1367 H1383 0.961 . S
C1368 C1369 1.370 . S
C1368 C1370 1.363 . S
C1368 H1384 0.931 . S
C1369 C1368 1.370 . S
C1369 C1373 1.408 1_455 S
C1370 C1368 1.363 . S
C1370 C1371 1.370 1_455 S
C1370 C1374 1.524 . S
C1371 C1363 1.503 . S
C1371 C1370 1.370 1_655 S
C1371 C1372 1.403 . S
C1372 C1371 1.403 . S
C1372 C1373 1.404 . S
C1372 C1375 1.539 . S
C1373 C1369 1.408 1_655 S
C1373 C1372 1.404 . S
C1373 H1385 0.930 . S
C1374 C1370 1.524 . S
C1374 H1386 0.956 . S
C1374 H1387 0.961 . S
C1374 H1388 0.961 . S
C1375 C1372 1.539 . S
C1375 H1389 0.958 . S
C1375 H1390 0.961 . S
C1375 H1391 0.960 . S
H1376 C1360 0.931 . S
H1377 C1365 0.929 . S
H1378 C1366 0.958 . S
H1379 C1366 0.967 1_455 S
H1380 C1366 0.959 . S
H1381 C1367 0.961 . S
H1382 C1367 0.961 . S
H1383 C1367 0.961 . S
H1384 C1368 0.931 . S
H1385 C1373 0.930 . S
H1386 C1374 0.956 . S
H1387 C1374 0.961 . S
H1388 C1374 0.961 . S
H1389 C1375 0.958 . S
H1390 C1375 0.961 . S
H1391 C1375 0.960 . S
C369 N117 0.695 . S
C377 N2 0.585 . S
C401 N140 0.873 . S
C409 N25 0.899 . S
C433 N48 0.714 . S
C441 N163 0.559 . S
C465 N71 0.388 . S
C473 N94 0.458 . S
C497 N186 0.533 . S
C505 N301 0.584 . S
C529 N324 0.830 . S
C537 N209 0.873 . S
C561 N347 0.502 . S
C569 N232 0.607 . S
C593 N255 0.382 . S
C601 N278 0.447 . S
C625 N12 1.733 . S
C633 C283 1.728 . S
C657 C306 2.112 . S
C665 N35 2.073 . S
C689 N58 2.325 . S
C697 C329 2.372 . S
C721 N81 1.890 . S
C729 C352 1.933 . S
C753 N104 1.913 . S
C761 C191 1.923 . S
C785 N127 2.309 . S
C793 C214 2.369 . S
C817 N150 2.075 . S
C825 C237 2.108 . S
C849 N173 1.695 . S
C857 C260 1.743 . S
C881 C99 1.709 . S
C889 N196 1.734 . S
C913 C122 2.109 . S
C921 N219 2.066 . S
C945 C145 2.355 . S
C953 N242 2.332 . S
C977 N265 1.907 . S
C985 C168 1.928 . S
C1009 C7 1.926 . S
C1017 N288 1.912 . S
C1041 N311 2.340 . S
C1049 C30 2.366 . S
C1073 N334 2.058 . S
C1081 C53 2.101 . S
C1105 C76 1.710 . S
C1113 N357 1.733 . S
C1137 C200 1.495 1_554 S
C1145 C16 1.521 1_556 S
C1169 C223 2.124 1_554 S
C1177 C39 2.106 . S
C1201 C62 2.538 1_556 S
C1209 C246 2.522 1_554 S
C1233 C269 1.862 1_554 S
C1241 C85 1.898 1_556 S
C1265 C108 1.909 . S
C1273 C292 1.879 . S
C1297 C315 2.539 . S
C1305 C131 2.522 . S
C1329 C338 2.091 . S
C1337 C154 2.117 . S
C1361 C361 1.504 . S
C1369 C177 1.517 . S
