# Generated by pormake.
# Topology wiz, (3)-cn, num edge types: 1
# Building blocks:
#     Node 0, Type 0, BuildingBlock: OLANEW_clean_sbu_2, # of connection points: 3
#     Node 1, Type 0, BuildingBlock: OLANEW_clean_sbu_2, # of connection points: 3
#     Node 2, Type 0, BuildingBlock: OLANEW_clean_sbu_2, # of connection points: 3
#     Node 3, Type 0, BuildingBlock: OLANEW_clean_sbu_2, # of connection points: 3
#     Node 4, Type 0, BuildingBlock: OLANEW_clean_sbu_2, # of connection points: 3
#     Node 5, Type 0, BuildingBlock: OLANEW_clean_sbu_2, # of connection points: 3
#     Node 6, Type 0, BuildingBlock: OLANEW_clean_sbu_2, # of connection points: 3
#     Node 7, Type 0, BuildingBlock: OLANEW_clean_sbu_2, # of connection points: 3
#     Node 8, Type 0, BuildingBlock: OLANEW_clean_sbu_2, # of connection points: 3
#     Node 9, Type 0, BuildingBlock: OLANEW_clean_sbu_2, # of connection points: 3
#     Node 10, Type 0, BuildingBlock: OLANEW_clean_sbu_2, # of connection points: 3
#     Node 11, Type 0, BuildingBlock: OLANEW_clean_sbu_2, # of connection points: 3
#     Edge 12, Type (0, 0), BuildingBlock: FUNLAD_clean_linker_0, # of connection points: 2
#     Edge 13, Type (0, 0), BuildingBlock: FUNLAD_clean_linker_0, # of connection points: 2
#     Edge 14, Type (0, 0), BuildingBlock: FUNLAD_clean_linker_0, # of connection points: 2
#     Edge 15, Type (0, 0), BuildingBlock: FUNLAD_clean_linker_0, # of connection points: 2
#     Edge 16, Type (0, 0), BuildingBlock: FUNLAD_clean_linker_0, # of connection points: 2
#     Edge 17, Type (0, 0), BuildingBlock: FUNLAD_clean_linker_0, # of connection points: 2
#     Edge 18, Type (0, 0), BuildingBlock: FUNLAD_clean_linker_0, # of connection points: 2
#     Edge 19, Type (0, 0), BuildingBlock: FUNLAD_clean_linker_0, # of connection points: 2
#     Edge 20, Type (0, 0), BuildingBlock: FUNLAD_clean_linker_0, # of connection points: 2
#     Edge 21, Type (0, 0), BuildingBlock: FUNLAD_clean_linker_0, # of connection points: 2
#     Edge 22, Type (0, 0), BuildingBlock: FUNLAD_clean_linker_0, # of connection points: 2
#     Edge 23, Type (0, 0), BuildingBlock: FUNLAD_clean_linker_0, # of connection points: 2
#     Edge 24, Type (0, 0), BuildingBlock: FUNLAD_clean_linker_0, # of connection points: 2
#     Edge 25, Type (0, 0), BuildingBlock: FUNLAD_clean_linker_0, # of connection points: 2
#     Edge 26, Type (0, 0), BuildingBlock: FUNLAD_clean_linker_0, # of connection points: 2
#     Edge 27, Type (0, 0), BuildingBlock: FUNLAD_clean_linker_0, # of connection points: 2
#     Edge 28, Type (0, 0), BuildingBlock: FUNLAD_clean_linker_0, # of connection points: 2
#     Edge 29, Type (0, 0), BuildingBlock: FUNLAD_clean_linker_0, # of connection points: 2
# Relax obj value: 0.000
# Max RMSD: 0.051
# Mean RMSD: 0.051
data_MOF--net-wiz--node1-OLANEW_clean_sbu_2--edge1-FUNLAD_clean_linker_0
_symmetry_space_group_name_H-M    P1
_symmetry_Int_Tables_number       1
_symmetry_cell_setting            triclinic
loop_
_symmetry_equiv_pos_as_xyz
'x, y, z'
_cell_length_a     40.376167
_cell_length_b     40.491881
_cell_length_c     88.741753
_cell_angle_alpha  89.858166
_cell_angle_beta   90.084171
_cell_angle_gamma 120.05405
loop_
_atom_site_label
_atom_site_type_symbol
_atom_site_fract_x
_atom_site_fract_y
_atom_site_fract_z
_atom_type_partial_charge
O0 O 0.16177 0.33525 0.06365 0.0
Cd1 Cd 0.18246 0.35015 0.08996 0.0
O2 O 0.20983 0.3269 0.05741 0.0
Cd3 Cd 0.24087 0.34625 0.07873 0.0
O4 O 0.29463 0.37741 0.09121 0.0
C5 C 0.31512 0.36198 0.09296 0.0
O6 O 0.30195 0.3269 0.08817 0.0
C7 C 0.17907 0.32646 0.05388 0.0
C8 C 0.12158 0.33008 0.10988 0.0
O9 O 0.13921 0.36325 0.10378 0.0
O10 O 0.13258 0.30632 0.1065 0.0
O11 O 0.85986 0.12814 0.3907 0.0
Cd12 Cd 0.87436 0.11971 0.41674 0.0
O13 O 0.89587 0.18934 0.3949 0.0
Cd14 Cd 0.92126 0.24985 0.38938 0.0
O15 O 0.93869 0.31033 0.38931 0.0
C16 C 0.91412 0.31965 0.3931 0.0
O17 O 0.87931 0.29261 0.39657 0.0
C18 C 0.87561 0.16226 0.38588 0.0
C19 C 0.8116 0.0735 0.43495 0.0
O20 O 0.82437 0.10949 0.43395 0.0
O21 O 0.82793 0.05927 0.42704 0.0
O22 O 0.60485 0.80779 0.7357 0.0
Cd23 Cd 0.60131 0.81626 0.76285 0.0
O24 O 0.64438 0.86896 0.73182 0.0
Cd25 Cd 0.63806 0.88615 0.75446 0.0
O26 O 0.61687 0.91705 0.76776 0.0
C27 C 0.58351 0.89977 0.77346 0.0
O28 O 0.56309 0.86244 0.77235 0.0
C29 C 0.62576 0.83504 0.7268 0.0
C30 C 0.64153 0.78968 0.77985 0.0
O31 O 0.60621 0.76767 0.7765 0.0
O32 O 0.65789 0.82421 0.77507 0.0
O33 O 0.80401 0.64728 0.06121 0.0
Cd34 Cd 0.78509 0.63803 0.08775 0.0
O35 O 0.7589 0.65941 0.05413 0.0
Cd36 Cd 0.72808 0.64385 0.07556 0.0
O37 O 0.67419 0.61424 0.08803 0.0
C38 C 0.65857 0.57843 0.09005 0.0
O39 O 0.67678 0.5609 0.08556 0.0
C40 C 0.78815 0.65667 0.05099 0.0
C41 C 0.84909 0.67651 0.10643 0.0
O42 O 0.83687 0.64186 0.10248 0.0
O43 O 0.8309 0.69285 0.10163 0.0
O44 O 0.16898 0.81357 0.37943 0.0
Cd45 Cd 0.15487 0.77809 0.4032 0.0
O46 O 0.10843 0.79311 0.37433 0.0
Cd47 Cd 0.08821 0.7516 0.39265 0.0
O48 O 0.06579 0.69292 0.40026 0.0
C49 C 0.0357 0.66769 0.39371 0.0
O50 O 0.01914 0.67867 0.3837 0.0
C51 C 0.14362 0.81375 0.37096 0.0
C52 C 0.17741 0.82577 0.42837 0.0
O53 O 0.20019 0.81639 0.42219 0.0
O54 O 0.14401 0.81267 0.42261 0.0
O55 O 0.33441 0.13172 0.73126 0.0
Cd56 Cd 0.33467 0.12302 0.7586 0.0
O57 O 0.39075 0.1362 0.72875 0.0
Cd58 Cd 0.39743 0.12288 0.75204 0.0
O59 O 0.41655 0.09258 0.7669 0.0
C60 C 0.39848 0.05638 0.76609 0.0
O61 O 0.36804 0.03956 0.75743 0.0
C62 C 0.36222 0.13677 0.72294 0.0
C63 C 0.30712 0.16298 0.77512 0.0
O64 O 0.34267 0.17835 0.77172 0.0
O65 O 0.28453 0.12887 0.77056 0.0
O66 O 0.56408 0.86034 0.5861 0.0
Cd67 Cd 0.53438 0.85588 0.56154 0.0
O68 O 0.54777 0.80028 0.58383 0.0
Cd69 Cd 0.54428 0.74632 0.59006 0.0
O70 O 0.53441 0.68859 0.59319 0.0
C71 C 0.50051 0.6608 0.59169 0.0
O72 O 0.47288 0.66798 0.58863 0.0
C73 C 0.56291 0.83076 0.59159 0.0
C74 C 0.58576 0.90064 0.5391 0.0
O75 O 0.56985 0.91415 0.54765 0.0
O76 O 0.5777 0.86609 0.54129 0.0
O77 O 0.8243 0.63869 0.90514 0.0
Cd78 Cd 0.83277 0.62592 0.8789 0.0
O79 O 0.88288 0.65447 0.91186 0.0
Cd80 Cd 0.89703 0.63673 0.89074 0.0
O81 O 0.91838 0.60456 0.87836 0.0
C82 C 0.89934 0.56839 0.87935 0.0
O83 O 0.86686 0.5524 0.88681 0.0
C84 C 0.85046 0.65064 0.91509 0.0
C85 C 0.79536 0.65049 0.8592 0.0
O86 O 0.77824 0.61653 0.86459 0.0
O87 O 0.83024 0.67279 0.86307 0.0
O88 O 0.19295 0.87111 0.22749 0.0
Cd89 Cd 0.21187 0.87517 0.20108 0.0
O90 O 0.24596 0.9224 0.23466 0.0
Cd91 Cd 0.27742 0.93207 0.21357 0.0
O92 O 0.33327 0.95037 0.20337 0.0
C93 C 0.34433 0.92628 0.20149 0.0
O94 O 0.32049 0.89018 0.20456 0.0
C95 C 0.21269 0.89492 0.23769 0.0
C96 C 0.14747 0.83527 0.18269 0.0
O97 O 0.16476 0.81881 0.1883 0.0
O98 O 0.1608 0.87066 0.18568 0.0
O99 O 0.33033 0.1187 0.5766 0.0
Cd100 Cd 0.3402 0.13013 0.54941 0.0
O101 O 0.34178 0.17745 0.57695 0.0
Cd102 Cd 0.35472 0.23195 0.58695 0.0
O103 O 0.37006 0.29027 0.59272 0.0
C104 C 0.40118 0.31754 0.58758 0.0
O105 O 0.42325 0.30955 0.57933 0.0
C106 C 0.33413 0.14713 0.58407 0.0
C107 C 0.31057 0.0661 0.5308 0.0
O108 O 0.34446 0.08074 0.53625 0.0
O109 O 0.29032 0.08107 0.53453 0.0
O110 O 0.14961 0.32889 0.90708 0.0
Cd111 Cd 0.14233 0.3406 0.8805 0.0
O112 O 0.09131 0.31539 0.91315 0.0
Cd113 Cd 0.07845 0.33236 0.89151 0.0
O114 O 0.05775 0.36475 0.87878 0.0
C115 C 0.07684 0.4009 0.87981 0.0
O116 O 0.10901 0.4167 0.88748 0.0
C117 C 0.12314 0.31836 0.91684 0.0
C118 C 0.1686 0.30431 0.8611 0.0
O119 O 0.19106 0.33833 0.86578 0.0
O120 O 0.13375 0.28746 0.8656 0.0
O121 O 0.80041 0.19807 0.24428 0.0
Cd122 Cd 0.78352 0.19348 0.21748 0.0
O123 O 0.80071 0.14386 0.24446 0.0
Cd124 Cd 0.77068 0.12694 0.22289 0.0
O125 O 0.71738 0.10246 0.21 0.0
C126 C 0.69119 0.06937 0.21395 0.0
O127 O 0.69858 0.05154 0.22467 0.0
C128 C 0.80663 0.17408 0.25116 0.0
C129 C 0.84582 0.21503 0.19812 0.0
O130 O 0.83699 0.23953 0.20283 0.0
O131 O 0.82544 0.18047 0.20265 0.0
C132 C 0.09994 0.29782 0.94328 0.0
C133 C 0.1299 0.31177 0.93271 0.0
C134 C 0.1068 0.29445 0.9585 0.0
C135 C 0.14398 0.30542 0.96356 0.0
C136 C 0.17356 0.31792 0.95288 0.0
C137 C 0.16666 0.32111 0.93764 0.0
C138 C 0.15337 0.30468 0.97977 0.0
C139 C 0.13134 0.30431 -0.00871 0.0
C140 C 0.14255 0.30726 0.00746 0.0
C141 C 0.12452 0.31896 0.01799 0.0
C142 C 0.13553 0.32418 0.03315 0.0
C143 C 0.16487 0.31775 0.03815 0.0
H144 H 0.18437 0.28862 0.00511 0.0
C145 C 0.18189 0.30459 0.02775 0.0
C146 C 0.17072 0.29915 0.01262 0.0
H147 H 0.20419 0.2988 0.03126 0.0
H148 H 0.07114 0.28985 0.93984 0.0
H149 H 0.08279 0.28326 0.96617 0.0
H150 H 0.2024 0.32615 0.95637 0.0
H151 H 0.19037 0.3318 0.92981 0.0
H152 H 0.18097 0.30739 0.98216 0.0
H153 H 0.1052 0.30469 -0.01112 0.0
H154 H 0.10241 0.32499 0.01442 0.0
H155 H 0.1217 0.33418 0.04086 0.0
C156 C 0.83584 0.16139 0.27377 0.0
C157 C 0.81727 0.17945 0.26729 0.0
C158 C 0.84255 0.1635 0.28931 0.0
C159 C 0.83009 0.18309 0.29868 0.0
C160 C 0.81191 0.20145 0.29219 0.0
C161 C 0.80609 0.20018 0.27661 0.0
C162 C 0.83302 0.18208 0.31531 0.0
C163 C 0.86358 0.18412 0.32227 0.0
C164 C 0.86529 0.18045 0.33884 0.0
C165 C 0.90009 0.2026 0.3464 0.0
C166 C 0.90297 0.1978 0.36187 0.0
C167 C 0.87134 0.16998 0.36995 0.0
H168 H 0.80633 0.13516 0.34139 0.0
C169 C 0.8365 0.14771 0.36239 0.0
C170 C 0.83334 0.15321 0.347 0.0
H171 H 0.81182 0.12584 0.36837 0.0
H172 H 0.84463 0.14509 0.26687 0.0
H173 H 0.85602 0.14845 0.29404 0.0
H174 H 0.80182 0.21647 0.2992 0.0
H175 H 0.79136 0.21407 0.27196 0.0
H176 H 0.80972 0.18048 0.322 0.0
H177 H 0.88853 0.18959 0.3157 0.0
H178 H 0.92518 0.22344 0.3403 0.0
H179 H 0.93038 0.21475 0.36736 0.0
C180 C 0.64907 0.85823 0.70061 0.0
C181 C 0.62561 0.82813 0.71039 0.0
C182 C 0.64536 0.8533 0.68499 0.0
C183 C 0.61775 0.81819 0.67879 0.0
C184 C 0.59605 0.78746 0.68856 0.0
C185 C 0.59983 0.79235 0.70419 0.0
C186 C 0.60969 0.81285 0.66232 0.0
C187 C 0.61643 0.84181 0.65291 0.0
C188 C 0.60424 0.83685 0.63684 0.0
C189 C 0.62105 0.86888 0.6273 0.0
C190 C 0.60824 0.86658 0.61249 0.0
C191 C 0.5783 0.83211 0.60685 0.0
H192 H 0.55949 0.7772 0.63821 0.0
C193 C 0.56154 0.79996 0.61632 0.0
C194 C 0.57434 0.80222 0.63114 0.0
H195 H 0.53723 0.7735 0.61257 0.0
H196 H 0.66971 0.88601 0.705 0.0
H197 H 0.66391 0.87727 0.6779 0.0
H198 H 0.57496 0.75993 0.68411 0.0
H199 H 0.58148 0.76847 0.71139 0.0
H200 H 0.59554 0.78381 0.65812 0.0
H201 H 0.63041 0.87078 0.65719 0.0
H202 H 0.64382 0.89603 0.63139 0.0
H203 H 0.62151 0.89194 0.60549 0.0
C204 C 0.78674 0.67567 0.02418 0.0
C205 C 0.80248 0.66272 0.03527 0.0
C206 C 0.79841 0.67909 0.00915 0.0
C207 C 0.82584 0.66916 0.00483 0.0
C208 C 0.8425 0.65752 0.01602 0.0
C209 C 0.83096 0.65428 0.03106 0.0
C210 C 0.83777 0.67031 -0.01114 0.0
C211 C 0.81662 0.66942 0.9769 0.0
C212 C 0.82685 0.66709 0.96096 0.0
C213 C 0.79786 0.6535 0.95 0.0
C214 C 0.80564 0.64902 0.93503 0.0
C215 C 0.84273 0.65817 0.93066 0.0
H216 H 0.88789 0.68973 0.96435 0.0
C217 C 0.87208 0.67312 0.9415 0.0
C218 C 0.86433 0.67775 0.95646 0.0
H219 H 0.9011 0.68097 0.93849 0.0
H220 H 0.76511 0.68294 0.02706 0.0
H221 H 0.78583 0.68961 0.00106 0.0
H222 H 0.864 0.6501 0.01308 0.0
H223 H 0.84382 0.64438 0.03931 0.0
H224 H 0.86366 0.66904 -0.01298 0.0
H225 H 0.78915 0.66747 0.97876 0.0
H226 H 0.76881 0.64547 0.95307 0.0
H227 H 0.78237 0.6376 0.92697 0.0
C228 C 0.21939 0.91651 0.26455 0.0
C229 C 0.19807 0.88963 0.25334 0.0
C230 C 0.20736 0.91008 0.27957 0.0
C231 C 0.17386 0.87636 0.28376 0.0
C232 C 0.15167 0.8504 0.27245 0.0
C233 C 0.16364 0.85687 0.25742 0.0
C234 C 0.16148 0.86672 0.29973 0.0
C235 C 0.18569 0.88093 0.31155 0.0
C236 C 0.17444 0.86699 0.32727 0.0
C237 C 0.20279 0.87025 0.33734 0.0
C238 C 0.19305 0.85434 0.35178 0.0
C239 C 0.15467 0.83502 0.3565 0.0
H240 H 0.11381 0.84791 0.32514 0.0
C241 C 0.12655 0.83374 0.34675 0.0
C242 C 0.13631 0.84966 0.33232 0.0
H243 H 0.09677 0.81955 0.3501 0.0
H244 H 0.24576 0.94235 0.26177 0.0
H245 H 0.22456 0.93157 0.2878 0.0
H246 H 0.1255 0.8244 0.2753 0.0
H247 H 0.14637 0.83569 0.24907 0.0
H248 H 0.13211 0.8444 0.30164 0.0
H249 H 0.21582 0.90072 0.30955 0.0
H250 H 0.23247 0.88391 0.33385 0.0
H251 H 0.21549 0.85612 0.35903 0.0
C252 C 0.34312 0.12314 0.60884 0.0
C253 C 0.33167 0.14552 0.60071 0.0
C254 C 0.34258 0.12289 0.6246 0.0
C255 C 0.33043 0.145 0.63255 0.0
C256 C 0.3174 0.16601 0.62438 0.0
C257 C 0.31813 0.16638 0.60863 0.0
C258 C 0.33038 0.1462 0.64931 0.0
C259 C 0.35542 0.14145 0.65778 0.0
C260 C 0.35677 0.14284 0.67455 0.0
C261 C 0.39001 0.14795 0.68173 0.0
C262 C 0.39209 0.14714 0.69741 0.0
C263 C 0.36081 0.14097 0.70638 0.0
H264 H 0.29912 0.13246 0.67848 0.0
C265 C 0.3277 0.13657 0.69926 0.0
C266 C 0.3256 0.13736 0.68351 0.0
H267 H 0.30298 0.13148 0.70582 0.0
H268 H 0.35315 0.10631 0.60302 0.0
H269 H 0.35142 0.10513 0.63046 0.0
H270 H 0.30711 0.18261 0.63021 0.0
H271 H 0.3076 0.18262 0.60266 0.0
H272 H 0.31069 0.15344 0.65465 0.0
H273 H 0.37723 0.13773 0.65217 0.0
H274 H 0.41444 0.15214 0.67516 0.0
H275 H 0.41808 0.15066 0.70247 0.0
C276 C 0.60026 0.51613 0.09645 0.0
C277 C 0.61848 0.55609 0.0954 0.0
C278 C 0.56113 0.49449 0.09958 0.0
C279 C 0.53928 0.5124 0.10183 0.0
C280 C 0.5579 0.55243 0.10137 0.0
C281 C 0.59705 0.57406 0.09826 0.0
C282 C 0.49676 0.49053 0.10304 0.0
C283 C 0.47628 0.45322 0.10673 0.0
C284 C 0.43394 0.42999 0.10506 0.0
C285 C 0.41735 0.39056 0.10272 0.0
C286 C 0.37842 0.36818 0.09938 0.0
C287 C 0.35506 0.3847 0.09844 0.0
H288 H 0.42134 0.47609 0.10737 0.0
C289 C 0.3711 0.42371 0.10172 0.0
C290 C 0.4101 0.44614 0.10504 0.0
H291 H 0.35379 0.43724 0.10131 0.0
H292 H 0.6159 0.50134 0.09428 0.0
H293 H 0.54806 0.46377 0.09944 0.0
H294 H 0.54186 0.56704 0.10299 0.0
H295 H 0.61016 0.6048 0.09755 0.0
H296 H 0.48197 0.50567 0.09987 0.0
H297 H 0.49103 0.43807 0.10995 0.0
H298 H 0.43486 0.37722 0.10285 0.0
H299 H 0.36695 0.33814 0.09706 0.0
C300 C 0.96251 0.38942 0.39135 0.0
C301 C 0.92461 0.36027 0.39387 0.0
C302 C 0.97236 0.42775 0.39218 0.0
C303 C 0.94446 0.43775 0.39559 0.0
C304 C 0.90656 0.4086 0.39794 0.0
C305 C 0.89674 0.37029 0.39719 0.0
C306 C 0.95341 0.47809 0.39598 0.0
C307 C -0.01151 0.50763 0.39908 0.0
C308 C -0.0019 0.5482 0.39854 0.0
C309 C 0.03043 0.57568 0.40638 0.0
C310 C 0.042 0.61444 0.40525 0.0
C311 C 0.02164 0.62657 0.39611 0.0
H312 H 0.9529 0.54033 0.38303 0.0
C313 C -0.01109 0.59904 0.38847 0.0
C314 C 0.97732 0.56034 0.38961 0.0
H315 H 0.97269 0.60742 0.38126 0.0
H316 H -0.01538 0.38266 0.38868 0.0
H317 H 0.00164 0.44932 0.38981 0.0
H318 H 0.88443 0.41548 0.40042 0.0
H319 H 0.86724 0.34856 0.39914 0.0
H320 H 0.92982 0.48325 0.39407 0.0
H321 H 0.01112 0.50207 0.40244 0.0
H322 H 0.04713 0.5672 0.41325 0.0
H323 H 0.06743 0.63492 0.41125 0.0
C324 C 0.44942 0.05195 0.78075 0.0
C325 C 0.41444 0.03389 0.77292 0.0
C326 C 0.46694 0.03125 0.78533 0.0
C327 C 0.4499 -0.00797 0.78206 0.0
C328 C 0.41375 0.97366 0.77515 0.0
C329 C 0.39625 -0.0057 0.7706 0.0
C330 C 0.4694 0.96956 0.78476 0.0
C331 C 0.50768 0.98535 0.78613 0.0
C332 C 0.52782 0.96302 0.78519 0.0
C333 C 0.56638 0.98207 0.78072 0.0
C334 C 0.58514 0.96174 0.77766 0.0
C335 C 0.56576 0.92179 0.77903 0.0
H336 H 0.48017 0.90763 0.79173 0.0
C337 C 0.52805 0.90295 0.78453 0.0
C338 C 0.50931 0.92333 0.78767 0.0
H339 H 0.51252 0.87226 0.78598 0.0
H340 H 0.46391 0.08233 0.78292 0.0
H341 H 0.49403 0.04633 0.79117 0.0
H342 H 0.39963 0.94343 0.77266 0.0
H343 H 0.36909 0.97936 0.76475 0.0
H344 H 0.45176 0.93883 0.78372 0.0
H345 H 0.52559 0.01617 0.78608 0.0
H346 H 0.58161 0.01266 0.77892 0.0
H347 H 0.61434 0.97726 0.77359 0.0
C348 C 0.44485 0.38768 0.58376 0.0
C349 C 0.4115 0.35768 0.59019 0.0
C350 C 0.45371 0.42552 0.58554 0.0
C351 C 0.42953 0.43426 0.59394 0.0
C352 C 0.39639 0.40425 0.60046 0.0
C353 C 0.38751 0.3664 0.59867 0.0
C354 C 0.4365 0.47386 0.59533 0.0
C355 C 0.47099 0.50531 0.59327 0.0
C356 C 0.4773 0.54479 0.59362 0.0
C357 C 0.51446 0.57536 0.59609 0.0
C358 C 0.52197 0.61302 0.59573 0.0
C359 C 0.49244 0.62095 0.59275 0.0
H360 H 0.41892 0.53025 0.58821 0.0
C361 C 0.45521 0.59039 0.59032 0.0
C362 C 0.44771 0.55276 0.59068 0.0
H363 H 0.43186 0.5955 0.58787 0.0
H364 H 0.46382 0.38194 0.57707 0.0
H365 H 0.4789 0.44753 0.57992 0.0
H366 H 0.37707 0.41007 0.60688 0.0
H367 H 0.36155 0.34396 0.60375 0.0
H368 H 0.41221 0.47693 0.59846 0.0
H369 H 0.49601 0.5024 0.59155 0.0
H370 H 0.53786 0.57013 0.59824 0.0
H371 H 0.551 0.63591 0.5976 0.0
C372 C 0.02451 0.40758 0.86741 0.0
C373 C 0.06075 0.42452 0.87427 0.0
C374 C 0.00739 0.42937 0.86395 0.0
C375 C 0.0261 0.46857 0.86741 0.0
C376 C 0.06328 0.48581 0.87339 0.0
C377 C 0.08038 0.46407 0.87682 0.0
C378 C 0.0075 0.4922 0.86574 0.0
C379 C 0.96922 0.47749 0.86571 0.0
C380 C 0.95057 0.50107 0.86731 0.0
C381 C 0.91327 0.4837 0.87315 0.0
C382 C 0.89604 0.50533 0.87648 0.0
C383 C 0.91567 0.54493 0.87397 0.0
H384 H -0.00253 0.55466 0.85883 0.0
C385 C 0.95208 0.56203 0.86725 0.0
C386 C 0.96933 0.54034 0.86389 0.0
H387 H 0.96776 0.59239 0.86496 0.0
H388 H 0.00885 0.37726 0.86508 0.0
H389 H 0.97937 0.41518 0.85878 0.0
H390 H 0.07863 0.516 0.876 0.0
H391 H 0.1085 0.47815 0.88196 0.0
H392 H 0.02615 0.52288 0.86635 0.0
H393 H 0.95058 0.44679 0.8663 0.0
H394 H 0.89788 0.45346 0.87572 0.0
H395 H 0.86779 0.49113 0.8815 0.0
C396 C 0.41211 0.97854 0.19749 0.0
C397 C 0.385 0.93939 0.19807 0.0
C398 C 0.45118 -0.00901 0.19638 0.0
C399 C 0.46405 0.96446 0.19567 0.0
C400 C 0.43671 0.92536 0.19554 0.0
C401 C 0.39768 0.91294 0.19671 0.0
C402 C 0.50532 0.97592 0.19663 0.0
C403 C 0.53454 0.01201 0.19501 0.0
C404 C 0.57507 0.02399 0.19864 0.0
C405 C 0.60439 0.05905 0.19309 0.0
C406 C 0.6424 0.07326 0.19758 0.0
C407 C 0.65187 0.05279 0.20784 0.0
H408 H 0.56323 0.97652 0.21357 0.0
C409 C 0.62274 0.01723 0.21308 0.0
C410 C 0.58481 0.00306 0.20861 0.0
H411 H 0.62898 0.00078 0.22106 0.0
H412 H 0.40333 -0.00029 0.19854 0.0
H413 H 0.47093 0.02135 0.1968 0.0
H414 H 0.44563 0.90421 0.19504 0.0
H415 H 0.37758 0.88256 0.19708 0.0
H416 H 0.51162 0.95342 0.1992 0.0
H417 H 0.52892 0.03415 0.19113 0.0
H418 H 0.59777 0.07595 0.1855 0.0
H419 H 0.66414 0.10079 0.19334 0.0
C420 C 0.89931 0.26368 0.18208 0.0
C421 C 0.87822 0.22613 0.18759 0.0
C422 C 0.92935 0.27393 0.17189 0.0
C423 C 0.9392 0.24683 0.16703 0.0
C424 C 0.91794 0.20931 0.17253 0.0
C425 C 0.88791 0.19908 0.1827 0.0
C426 C 0.9704 0.25586 0.15595 0.0
C427 C -0.00154 0.29152 0.1525 0.0
C428 C 0.02944 0.30014 0.14139 0.0
C429 C 0.04878 0.3366 0.1348 0.0
C430 C 0.07844 0.34623 0.1245 0.0
C431 C 0.08973 0.31968 0.12063 0.0
H432 H 0.02779 0.24564 0.14274 0.0
C433 C 0.07066 0.28327 0.1273 0.0
C434 C 0.04094 0.27361 0.1376 0.0
H435 H 0.07888 0.26225 0.12467 0.0
H436 H 0.89237 0.28515 0.18552 0.0
H437 H 0.94402 0.30288 0.16768 0.0
H438 H 0.9246 0.18772 0.16895 0.0
H439 H 0.87219 0.16986 0.18667 0.0
H440 H 0.97003 0.23172 0.1505 0.0
H441 H -0.00111 0.31583 0.1578 0.0
H442 H 0.04082 0.35774 0.13759 0.0
H443 H 0.09262 0.37459 0.11963 0.0
C444 C 0.62813 0.90842 0.51715 0.0
C445 C 0.61225 0.92407 0.52692 0.0
C446 C 0.6528 0.93038 0.50555 0.0
C447 C 0.66201 0.96853 0.50341 0.0
C448 C 0.64653 0.98425 0.51331 0.0
C449 C 0.62177 0.96226 0.52488 0.0
C450 C 0.68887 -0.00672 0.49146 0.0
C451 C 0.69558 0.97971 0.47865 0.0
C452 C 0.7239 0.0043 0.46706 0.0
C453 C 0.73924 0.98791 0.45742 0.0
C454 C 0.76714 0.01018 0.44679 0.0
C455 C 0.78011 0.04938 0.44546 0.0
H456 H 0.72384 0.05684 0.47213 0.0
C457 C 0.76377 0.06557 0.4547 0.0
C458 C 0.73589 0.0433 0.46536 0.0
H459 H 0.77282 0.09561 0.45385 0.0
H460 H 0.62161 0.87917 0.51849 0.0
H461 H 0.66509 0.91748 0.49853 0.0
H462 H 0.65343 0.01365 0.51204 0.0
H463 H 0.61015 0.97525 0.53224 0.0
H464 H 0.70352 0.02381 0.49344 0.0
H465 H 0.68078 0.94916 0.4767 0.0
H466 H 0.73025 0.95788 0.45834 0.0
H467 H 0.77896 -0.00326 0.43978 0.0
C468 C 0.64427 0.73807 0.79452 0.0
C469 C 0.66266 0.77578 0.78911 0.0
C470 C 0.66397 0.72514 0.80352 0.0
C471 C 0.70271 0.74965 0.80723 0.0
C472 C 0.72094 0.78737 0.80186 0.0
C473 C 0.70125 0.80027 0.79286 0.0
C474 C 0.72471 0.73765 0.81711 0.0
C475 C 0.71512 0.70098 0.81946 0.0
C476 C 0.73672 0.68903 0.82959 0.0
C477 C 0.71804 0.65156 0.83523 0.0
C478 C 0.73703 0.63902 0.84482 0.0
C479 C 0.77536 0.66364 0.8489 0.0
H480 H 0.79133 0.74219 0.82903 0.0
C481 C 0.79434 0.70096 0.84307 0.0
C482 C 0.77533 0.71352 0.83349 0.0
H483 H 0.82399 0.72054 0.84588 0.0
H484 H 0.61445 0.71856 0.79195 0.0
H485 H 0.64831 0.69625 0.80777 0.0
H486 H 0.75063 0.80699 0.80461 0.0
H487 H 0.71627 0.82955 0.78893 0.0
H488 H 0.74989 0.7603 0.82257 0.0
H489 H 0.68994 0.67832 0.814 0.0
H490 H 0.68845 0.63194 0.83233 0.0
H491 H 0.72159 0.61003 0.84905 0.0
C492 C 0.90323 0.67906 0.12131 0.0
C493 C 0.88339 0.69716 0.11613 0.0
C494 C 0.93588 0.69871 0.13031 0.0
C495 C 0.94959 0.73711 0.13426 0.0
C496 C 0.92934 0.7549 0.12924 0.0
C497 C 0.89674 0.73527 0.12025 0.0
C498 C 0.98414 0.75938 0.14384 0.0
C499 C 0.01186 0.75039 0.14578 0.0
C500 C 0.04645 0.77301 0.15529 0.0
C501 C 0.06607 0.75513 0.16092 0.0
C502 C 0.09882 0.77528 0.16981 0.0
C503 C 0.11296 0.81397 0.17316 0.0
H504 H 0.04759 0.82726 0.15395 0.0
C505 C 0.09373 0.8321 0.16734 0.0
C506 C 0.06093 0.81193 0.15847 0.0
H507 H 0.10407 0.86198 0.16959 0.0
H508 H 0.8935 0.64961 0.11845 0.0
H509 H 0.9497 0.68337 0.13429 0.0
H510 H 0.93896 0.7843 0.13219 0.0
H511 H 0.88206 0.75005 0.1165 0.0
H512 H -0.01321 0.78452 0.14932 0.0
H513 H 0.00928 0.7252 0.14039 0.0
H514 H 0.05584 0.72531 0.15855 0.0
H515 H 0.11301 0.76046 0.17406 0.0
C516 C 0.22541 0.864 0.44834 0.0
C517 C 0.18932 0.85102 0.44173 0.0
C518 C 0.23679 0.88809 0.46088 0.0
C519 C 0.21236 0.90003 0.46705 0.0
C520 C 0.17605 0.88645 0.46057 0.0
C521 C 0.16467 0.86233 0.44805 0.0
C522 C 0.2232 0.92622 0.48022 0.0
C523 C 0.25957 0.9493 0.48481 0.0
C524 C 0.27051 0.97718 0.49739 0.0
C525 C 0.30662 -0.00875 0.50411 0.0
C526 C 0.3192 0.0193 0.51527 0.0
C527 C 0.29602 0.03418 0.5199 0.0
H528 H 0.21951 0.98263 0.49707 0.0
C529 C 0.25965 0.01976 0.51335 0.0
C530 C 0.24705 -0.0083 0.50219 0.0
H531 H 0.2412 0.03083 0.51657 0.0
H532 H 0.24493 0.85547 0.44385 0.0
H533 H 0.2645 0.89669 0.46574 0.0
H534 H 0.15648 0.89486 0.46511 0.0
H535 H 0.13659 0.85271 0.44328 0.0
H536 H 0.20003 0.92702 0.48606 0.0
H537 H 0.28284 0.94846 0.47908 0.0
H538 H 0.32542 0.98082 0.50059 0.0
H539 H 0.34744 0.02985 0.52004 0.0
C540 C 0.25388 0.16618 0.78832 0.0
C541 C 0.29273 0.18369 0.7843 0.0
C542 C 0.24048 0.1853 0.79734 0.0
C543 C 0.26574 0.22239 0.80264 0.0
C544 C 0.30436 0.24014 0.79833 0.0
C545 C 0.31777 0.221 0.78933 0.0
C546 C 0.25296 0.24382 0.8124 0.0
C547 C 0.22151 0.22691 0.82121 0.0
C548 C 0.20887 0.24803 0.83122 0.0
C549 C 0.17072 0.22938 0.8362 0.0
C550 C 0.15761 0.24765 0.84583 0.0
C551 C 0.18246 0.28504 0.85081 0.0
H552 H 0.26376 0.30055 0.83318 0.0
C553 C 0.22074 0.30369 0.84595 0.0
C554 C 0.23387 0.28542 0.8363 0.0
H555 H 0.24072 0.3324 0.84967 0.0
H556 H 0.23374 0.1376 0.78452 0.0
H557 H 0.21025 0.17099 0.79992 0.0
H558 H 0.32441 0.2688 0.8021 0.0
H559 H 0.34784 0.23542 0.78639 0.0
H560 H 0.27086 0.27464 0.81246 0.0
H561 H 0.20377 0.19606 0.82115 0.0
H562 H 0.15087 0.2005 0.83259 0.0
H563 H 0.12797 0.23238 0.84939 0.0
loop_
_geom_bond_atom_site_label_1
_geom_bond_atom_site_label_2
_geom_bond_distance
_geom_bond_site_symmetry_2
_ccdc_geom_bond_type
O0 Cd1 2.300 . S
O0 C7 1.275 . S
Cd1 O0 2.300 . S
Cd1 O9 2.381 . S
Cd1 O10 2.378 . S
O2 Cd3 2.385 . S
O2 C7 1.255 . S
Cd3 O2 2.385 . S
Cd3 O4 2.317 . S
O4 Cd3 2.317 . S
O4 C5 1.232 . S
C5 O4 1.232 . S
C5 O6 1.218 . S
O6 C5 1.218 . S
C7 O0 1.275 . S
C7 O2 1.255 . S
C8 O9 1.258 . S
C8 O10 1.256 . S
O9 Cd1 2.381 . S
O9 C8 1.258 . S
O10 Cd1 2.378 . S
O10 C8 1.256 . S
O11 Cd12 2.300 . S
O11 C18 1.275 . S
Cd12 O11 2.300 . S
Cd12 O20 2.381 . S
Cd12 O21 2.378 . S
O13 Cd14 2.385 . S
O13 C18 1.255 . S
Cd14 O13 2.385 . S
Cd14 O15 2.317 . S
O15 Cd14 2.317 . S
O15 C16 1.232 . S
C16 O15 1.232 . S
C16 O17 1.218 . S
O17 C16 1.218 . S
C18 O11 1.275 . S
C18 O13 1.255 . S
C19 O20 1.258 . S
C19 O21 1.256 . S
O20 Cd12 2.381 . S
O20 C19 1.258 . S
O21 Cd12 2.378 . S
O21 C19 1.256 . S
O22 Cd23 2.300 . S
O22 C29 1.275 . S
Cd23 O22 2.300 . S
Cd23 O31 2.381 . S
Cd23 O32 2.378 . S
O24 Cd25 2.385 . S
O24 C29 1.255 . S
Cd25 O24 2.385 . S
Cd25 O26 2.317 . S
O26 Cd25 2.317 . S
O26 C27 1.232 . S
C27 O26 1.232 . S
C27 O28 1.218 . S
O28 C27 1.218 . S
C29 O22 1.275 . S
C29 O24 1.255 . S
C30 O31 1.258 . S
C30 O32 1.256 . S
O31 Cd23 2.381 . S
O31 C30 1.258 . S
O32 Cd23 2.378 . S
O32 C30 1.256 . S
O33 Cd34 2.300 . S
O33 C40 1.275 . S
Cd34 O33 2.300 . S
Cd34 O42 2.381 . S
Cd34 O43 2.378 . S
O35 Cd36 2.385 . S
O35 C40 1.255 . S
Cd36 O35 2.385 . S
Cd36 O37 2.317 . S
O37 Cd36 2.317 . S
O37 C38 1.232 . S
C38 O37 1.232 . S
C38 O39 1.218 . S
O39 C38 1.218 . S
C40 O33 1.275 . S
C40 O35 1.255 . S
C41 O42 1.258 . S
C41 O43 1.256 . S
O42 Cd34 2.381 . S
O42 C41 1.258 . S
O43 Cd34 2.378 . S
O43 C41 1.256 . S
O44 Cd45 2.300 . S
O44 C51 1.275 . S
Cd45 O44 2.300 . S
Cd45 O53 2.381 . S
Cd45 O54 2.378 . S
O46 Cd47 2.385 . S
O46 C51 1.255 . S
Cd47 O46 2.385 . S
Cd47 O48 2.317 . S
O48 Cd47 2.317 . S
O48 C49 1.232 . S
C49 O48 1.232 . S
C49 O50 1.218 . S
O50 C49 1.218 . S
C51 O44 1.275 . S
C51 O46 1.255 . S
C52 O53 1.258 . S
C52 O54 1.256 . S
O53 Cd45 2.381 . S
O53 C52 1.258 . S
O54 Cd45 2.378 . S
O54 C52 1.256 . S
O55 Cd56 2.300 . S
O55 C62 1.275 . S
Cd56 O55 2.300 . S
Cd56 O64 2.381 . S
Cd56 O65 2.378 . S
O57 Cd58 2.385 . S
O57 C62 1.255 . S
Cd58 O57 2.385 . S
Cd58 O59 2.317 . S
O59 Cd58 2.317 . S
O59 C60 1.232 . S
C60 O59 1.232 . S
C60 O61 1.218 . S
O61 C60 1.218 . S
C62 O55 1.275 . S
C62 O57 1.255 . S
C63 O64 1.258 . S
C63 O65 1.256 . S
O64 Cd56 2.381 . S
O64 C63 1.258 . S
O65 Cd56 2.378 . S
O65 C63 1.256 . S
O66 Cd67 2.300 . S
O66 C73 1.275 . S
Cd67 O66 2.300 . S
Cd67 O75 2.381 . S
Cd67 O76 2.378 . S
O68 Cd69 2.385 . S
O68 C73 1.255 . S
Cd69 O68 2.385 . S
Cd69 O70 2.317 . S
O70 Cd69 2.317 . S
O70 C71 1.232 . S
C71 O70 1.232 . S
C71 O72 1.218 . S
O72 C71 1.218 . S
C73 O66 1.275 . S
C73 O68 1.255 . S
C74 O75 1.258 . S
C74 O76 1.256 . S
O75 Cd67 2.381 . S
O75 C74 1.258 . S
O76 Cd67 2.378 . S
O76 C74 1.256 . S
O77 Cd78 2.300 . S
O77 C84 1.275 . S
Cd78 O77 2.300 . S
Cd78 O86 2.381 . S
Cd78 O87 2.378 . S
O79 Cd80 2.385 . S
O79 C84 1.255 . S
Cd80 O79 2.385 . S
Cd80 O81 2.317 . S
O81 Cd80 2.317 . S
O81 C82 1.232 . S
C82 O81 1.232 . S
C82 O83 1.218 . S
O83 C82 1.218 . S
C84 O77 1.275 . S
C84 O79 1.255 . S
C85 O86 1.258 . S
C85 O87 1.256 . S
O86 Cd78 2.381 . S
O86 C85 1.258 . S
O87 Cd78 2.378 . S
O87 C85 1.256 . S
O88 Cd89 2.300 . S
O88 C95 1.275 . S
Cd89 O88 2.300 . S
Cd89 O97 2.381 . S
Cd89 O98 2.378 . S
O90 Cd91 2.385 . S
O90 C95 1.255 . S
Cd91 O90 2.385 . S
Cd91 O92 2.317 . S
O92 Cd91 2.317 . S
O92 C93 1.232 . S
C93 O92 1.232 . S
C93 O94 1.218 . S
O94 C93 1.218 . S
C95 O88 1.275 . S
C95 O90 1.255 . S
C96 O97 1.258 . S
C96 O98 1.256 . S
O97 Cd89 2.381 . S
O97 C96 1.258 . S
O98 Cd89 2.378 . S
O98 C96 1.256 . S
O99 Cd100 2.300 . S
O99 C106 1.275 . S
Cd100 O99 2.300 . S
Cd100 O108 2.381 . S
Cd100 O109 2.378 . S
O101 Cd102 2.385 . S
O101 C106 1.255 . S
Cd102 O101 2.385 . S
Cd102 O103 2.317 . S
O103 Cd102 2.317 . S
O103 C104 1.232 . S
C104 O103 1.232 . S
C104 O105 1.218 . S
O105 C104 1.218 . S
C106 O99 1.275 . S
C106 O101 1.255 . S
C107 O108 1.258 . S
C107 O109 1.256 . S
O108 Cd100 2.381 . S
O108 C107 1.258 . S
O109 Cd100 2.378 . S
O109 C107 1.256 . S
O110 Cd111 2.300 . S
O110 C117 1.275 . S
Cd111 O110 2.300 . S
Cd111 O119 2.381 . S
Cd111 O120 2.378 . S
O112 Cd113 2.385 . S
O112 C117 1.255 . S
Cd113 O112 2.385 . S
Cd113 O114 2.317 . S
O114 Cd113 2.317 . S
O114 C115 1.232 . S
C115 O114 1.232 . S
C115 O116 1.218 . S
O116 C115 1.218 . S
C117 O110 1.275 . S
C117 O112 1.255 . S
C118 O119 1.258 . S
C118 O120 1.256 . S
O119 Cd111 2.381 . S
O119 C118 1.258 . S
O120 Cd111 2.378 . S
O120 C118 1.256 . S
O121 Cd122 2.300 . S
O121 C128 1.275 . S
Cd122 O121 2.300 . S
Cd122 O130 2.381 . S
Cd122 O131 2.378 . S
O123 Cd124 2.385 . S
O123 C128 1.255 . S
Cd124 O123 2.385 . S
Cd124 O125 2.317 . S
O125 Cd124 2.317 . S
O125 C126 1.232 . S
C126 O125 1.232 . S
C126 O127 1.218 . S
O127 C126 1.218 . S
C128 O121 1.275 . S
C128 O123 1.255 . S
C129 O130 1.258 . S
C129 O131 1.256 . S
O130 Cd122 2.381 . S
O130 C129 1.258 . S
O131 Cd122 2.378 . S
O131 C129 1.256 . S
C132 C133 1.386 . S
C132 C134 1.383 . S
C132 H148 0.951 . S
C133 C132 1.386 . S
C133 C137 1.383 . S
C134 C132 1.383 . S
C134 C135 1.402 . S
C134 H149 0.951 . S
C135 C134 1.402 . S
C135 C136 1.375 . S
C135 C138 1.481 . S
C136 C135 1.375 . S
C136 C137 1.367 . S
C136 H150 0.951 . S
C137 C133 1.383 . S
C137 C136 1.367 . S
C137 H151 0.950 . S
C138 C135 1.481 . S
C138 C139 1.297 1_556 S
C138 H152 0.950 . S
C139 C138 1.297 1_554 S
C139 C140 1.479 . S
C139 H153 0.950 . S
C140 C139 1.479 . S
C140 C141 1.375 . S
C140 C146 1.404 . S
C141 C140 1.375 . S
C141 C142 1.369 . S
C141 H154 0.950 . S
C142 C141 1.369 . S
C142 C143 1.392 . S
C142 H155 0.951 . S
C143 C142 1.392 . S
C143 C145 1.384 . S
H144 C146 0.949 . S
C145 C143 1.384 . S
C145 C146 1.385 . S
C145 H147 0.950 . S
C146 C140 1.404 . S
C146 H144 0.949 . S
C146 C145 1.385 . S
H147 C145 0.950 . S
H148 C132 0.951 . S
H149 C134 0.951 . S
H150 C136 0.951 . S
H151 C137 0.950 . S
H152 C138 0.950 . S
H153 C139 0.950 . S
H154 C141 0.950 . S
H155 C142 0.951 . S
C156 C157 1.386 . S
C156 C158 1.383 . S
C156 H172 0.951 . S
C157 C156 1.386 . S
C157 C161 1.383 . S
C158 C156 1.383 . S
C158 C159 1.402 . S
C158 H173 0.951 . S
C159 C158 1.402 . S
C159 C160 1.375 . S
C159 C162 1.481 . S
C160 C159 1.375 . S
C160 C161 1.367 . S
C160 H174 0.951 . S
C161 C157 1.383 . S
C161 C160 1.367 . S
C161 H175 0.950 . S
C162 C159 1.481 . S
C162 C163 1.297 . S
C162 H176 0.950 . S
C163 C162 1.297 . S
C163 C164 1.479 . S
C163 H177 0.950 . S
C164 C163 1.479 . S
C164 C165 1.375 . S
C164 C170 1.404 . S
C165 C164 1.375 . S
C165 C166 1.369 . S
C165 H178 0.950 . S
C166 C165 1.369 . S
C166 C167 1.392 . S
C166 H179 0.951 . S
C167 C166 1.392 . S
C167 C169 1.384 . S
H168 C170 0.949 . S
C169 C167 1.384 . S
C169 C170 1.385 . S
C169 H171 0.950 . S
C170 C164 1.404 . S
C170 H168 0.949 . S
C170 C169 1.385 . S
H171 C169 0.950 . S
H172 C156 0.951 . S
H173 C158 0.951 . S
H174 C160 0.951 . S
H175 C161 0.950 . S
H176 C162 0.950 . S
H177 C163 0.950 . S
H178 C165 0.950 . S
H179 C166 0.951 . S
C180 C181 1.386 . S
C180 C182 1.383 . S
C180 H196 0.951 . S
C181 C180 1.386 . S
C181 C185 1.383 . S
C182 C180 1.383 . S
C182 C183 1.402 . S
C182 H197 0.951 . S
C183 C182 1.402 . S
C183 C184 1.375 . S
C183 C186 1.481 . S
C184 C183 1.375 . S
C184 C185 1.367 . S
C184 H198 0.951 . S
C185 C181 1.383 . S
C185 C184 1.367 . S
C185 H199 0.950 . S
C186 C183 1.481 . S
C186 C187 1.297 . S
C186 H200 0.950 . S
C187 C186 1.297 . S
C187 C188 1.479 . S
C187 H201 0.950 . S
C188 C187 1.479 . S
C188 C189 1.375 . S
C188 C194 1.404 . S
C189 C188 1.375 . S
C189 C190 1.369 . S
C189 H202 0.950 . S
C190 C189 1.369 . S
C190 C191 1.392 . S
C190 H203 0.951 . S
C191 C190 1.392 . S
C191 C193 1.384 . S
H192 C194 0.949 . S
C193 C191 1.384 . S
C193 C194 1.385 . S
C193 H195 0.950 . S
C194 C188 1.404 . S
C194 H192 0.949 . S
C194 C193 1.385 . S
H195 C193 0.950 . S
H196 C180 0.951 . S
H197 C182 0.951 . S
H198 C184 0.951 . S
H199 C185 0.950 . S
H200 C186 0.950 . S
H201 C187 0.950 . S
H202 C189 0.950 . S
H203 C190 0.951 . S
C204 C205 1.386 . S
C204 C206 1.383 . S
C204 H220 0.951 . S
C205 C204 1.386 . S
C205 C209 1.383 . S
C206 C204 1.383 . S
C206 C207 1.402 . S
C206 H221 0.951 . S
C207 C206 1.402 . S
C207 C208 1.375 . S
C207 C210 1.481 . S
C208 C207 1.375 . S
C208 C209 1.367 . S
C208 H222 0.951 . S
C209 C205 1.383 . S
C209 C208 1.367 . S
C209 H223 0.950 . S
C210 C207 1.481 . S
C210 C211 1.297 1_554 S
C210 H224 0.950 . S
C211 C210 1.297 1_556 S
C211 C212 1.479 . S
C211 H225 0.950 . S
C212 C211 1.479 . S
C212 C213 1.375 . S
C212 C218 1.404 . S
C213 C212 1.375 . S
C213 C214 1.369 . S
C213 H226 0.950 . S
C214 C213 1.369 . S
C214 C215 1.392 . S
C214 H227 0.951 . S
C215 C214 1.392 . S
C215 C217 1.384 . S
H216 C218 0.949 . S
C217 C215 1.384 . S
C217 C218 1.385 . S
C217 H219 0.950 . S
C218 C212 1.404 . S
C218 H216 0.949 . S
C218 C217 1.385 . S
H219 C217 0.950 . S
H220 C204 0.951 . S
H221 C206 0.951 . S
H222 C208 0.951 . S
H223 C209 0.950 . S
H224 C210 0.950 . S
H225 C211 0.950 . S
H226 C213 0.950 . S
H227 C214 0.951 . S
C228 C229 1.386 . S
C228 C230 1.383 . S
C228 H244 0.951 . S
C229 C228 1.386 . S
C229 C233 1.383 . S
C230 C228 1.383 . S
C230 C231 1.402 . S
C230 H245 0.951 . S
C231 C230 1.402 . S
C231 C232 1.375 . S
C231 C234 1.481 . S
C232 C231 1.375 . S
C232 C233 1.367 . S
C232 H246 0.951 . S
C233 C229 1.383 . S
C233 C232 1.367 . S
C233 H247 0.950 . S
C234 C231 1.481 . S
C234 C235 1.297 . S
C234 H248 0.950 . S
C235 C234 1.297 . S
C235 C236 1.479 . S
C235 H249 0.950 . S
C236 C235 1.479 . S
C236 C237 1.375 . S
C236 C242 1.404 . S
C237 C236 1.375 . S
C237 C238 1.369 . S
C237 H250 0.950 . S
C238 C237 1.369 . S
C238 C239 1.392 . S
C238 H251 0.951 . S
C239 C238 1.392 . S
C239 C241 1.384 . S
H240 C242 0.949 . S
C241 C239 1.384 . S
C241 C242 1.385 . S
C241 H243 0.950 . S
C242 C236 1.404 . S
C242 H240 0.949 . S
C242 C241 1.385 . S
H243 C241 0.950 . S
H244 C228 0.951 . S
H245 C230 0.951 . S
H246 C232 0.951 . S
H247 C233 0.950 . S
H248 C234 0.950 . S
H249 C235 0.950 . S
H250 C237 0.950 . S
H251 C238 0.951 . S
C252 C253 1.386 . S
C252 C254 1.383 . S
C252 H268 0.951 . S
C253 C252 1.386 . S
C253 C257 1.383 . S
C254 C252 1.383 . S
C254 C255 1.402 . S
C254 H269 0.951 . S
C255 C254 1.402 . S
C255 C256 1.375 . S
C255 C258 1.481 . S
C256 C255 1.375 . S
C256 C257 1.367 . S
C256 H270 0.951 . S
C257 C253 1.383 . S
C257 C256 1.367 . S
C257 H271 0.950 . S
C258 C255 1.481 . S
C258 C259 1.297 . S
C258 H272 0.950 . S
C259 C258 1.297 . S
C259 C260 1.479 . S
C259 H273 0.950 . S
C260 C259 1.479 . S
C260 C261 1.375 . S
C260 C266 1.404 . S
C261 C260 1.375 . S
C261 C262 1.369 . S
C261 H274 0.950 . S
C262 C261 1.369 . S
C262 C263 1.392 . S
C262 H275 0.951 . S
C263 C262 1.392 . S
C263 C265 1.384 . S
H264 C266 0.949 . S
C265 C263 1.384 . S
C265 C266 1.385 . S
C265 H267 0.950 . S
C266 C260 1.404 . S
C266 H264 0.949 . S
C266 C265 1.385 . S
H267 C265 0.950 . S
H268 C252 0.951 . S
H269 C254 0.951 . S
H270 C256 0.951 . S
H271 C257 0.950 . S
H272 C258 0.950 . S
H273 C259 0.950 . S
H274 C261 0.950 . S
H275 C262 0.951 . S
C276 C277 1.386 . S
C276 C278 1.383 . S
C276 H292 0.951 . S
C277 C276 1.386 . S
C277 C281 1.383 . S
C278 C276 1.383 . S
C278 C279 1.402 . S
C278 H293 0.951 . S
C279 C278 1.402 . S
C279 C280 1.375 . S
C279 C282 1.481 . S
C280 C279 1.375 . S
C280 C281 1.367 . S
C280 H294 0.951 . S
C281 C277 1.383 . S
C281 C280 1.367 . S
C281 H295 0.950 . S
C282 C279 1.481 . S
C282 C283 1.297 . S
C282 H296 0.950 . S
C283 C282 1.297 . S
C283 C284 1.479 . S
C283 H297 0.950 . S
C284 C283 1.479 . S
C284 C285 1.375 . S
C284 C290 1.404 . S
C285 C284 1.375 . S
C285 C286 1.369 . S
C285 H298 0.950 . S
C286 C285 1.369 . S
C286 C287 1.392 . S
C286 H299 0.951 . S
C287 C286 1.392 . S
C287 C289 1.384 . S
H288 C290 0.949 . S
C289 C287 1.384 . S
C289 C290 1.385 . S
C289 H291 0.950 . S
C290 C284 1.404 . S
C290 H288 0.949 . S
C290 C289 1.385 . S
H291 C289 0.950 . S
H292 C276 0.951 . S
H293 C278 0.951 . S
H294 C280 0.951 . S
H295 C281 0.950 . S
H296 C282 0.950 . S
H297 C283 0.950 . S
H298 C285 0.950 . S
H299 C286 0.951 . S
C300 C301 1.386 . S
C300 C302 1.383 . S
C300 H316 0.951 . S
C301 C300 1.386 . S
C301 C305 1.383 . S
C302 C300 1.383 . S
C302 C303 1.402 . S
C302 H317 0.951 . S
C303 C302 1.402 . S
C303 C304 1.375 . S
C303 C306 1.481 . S
C304 C303 1.375 . S
C304 C305 1.367 . S
C304 H318 0.951 . S
C305 C301 1.383 . S
C305 C304 1.367 . S
C305 H319 0.950 . S
C306 C303 1.481 . S
C306 C307 1.297 1_655 S
C306 H320 0.950 . S
C307 C306 1.297 1_455 S
C307 C308 1.479 . S
C307 H321 0.950 . S
C308 C307 1.479 . S
C308 C309 1.375 . S
C308 C314 1.404 . S
C309 C308 1.375 . S
C309 C310 1.369 . S
C309 H322 0.950 . S
C310 C309 1.369 . S
C310 C311 1.392 . S
C310 H323 0.951 . S
C311 C310 1.392 . S
C311 C313 1.384 . S
H312 C314 0.949 . S
C313 C311 1.384 . S
C313 C314 1.385 . S
C313 H315 0.950 . S
C314 C308 1.404 . S
C314 H312 0.949 . S
C314 C313 1.385 . S
H315 C313 0.950 . S
H316 C300 0.951 . S
H317 C302 0.951 . S
H318 C304 0.951 . S
H319 C305 0.950 . S
H320 C306 0.950 . S
H321 C307 0.950 . S
H322 C309 0.950 . S
H323 C310 0.951 . S
C324 C325 1.386 . S
C324 C326 1.383 . S
C324 H340 0.951 . S
C325 C324 1.386 . S
C325 C329 1.383 . S
C326 C324 1.383 . S
C326 C327 1.402 . S
C326 H341 0.951 . S
C327 C326 1.402 . S
C327 C328 1.375 . S
C327 C330 1.488 . S
C328 C327 1.375 . S
C328 C329 1.367 . S
C328 H342 0.951 . S
C329 C325 1.383 . S
C329 C328 1.367 . S
C329 H343 0.950 . S
C330 C327 1.488 . S
C330 C331 1.291 1_545 S
C330 H344 0.948 1_545 S
C331 C330 1.291 1_565 S
C331 C332 1.479 . S
C331 H345 0.950 . S
C332 C331 1.479 . S
C332 C333 1.375 . S
C332 C338 1.404 . S
C333 C332 1.375 . S
C333 C334 1.369 . S
C333 H346 0.950 . S
C334 C333 1.369 . S
C334 C335 1.392 . S
C334 H347 0.951 . S
C335 C334 1.392 . S
C335 C337 1.384 . S
H336 C338 0.949 . S
C337 C335 1.384 . S
C337 C338 1.385 . S
C337 H339 0.950 . S
C338 C332 1.404 . S
C338 H336 0.949 . S
C338 C337 1.385 . S
H339 C337 0.950 . S
H340 C324 0.951 . S
H341 C326 0.951 . S
H342 C328 0.951 . S
H343 C329 0.950 . S
H344 C330 0.948 1_565 S
H345 C331 0.950 . S
H346 C333 0.950 . S
H347 C334 0.951 . S
C348 C349 1.386 . S
C348 C350 1.383 . S
C348 H364 0.951 . S
C349 C348 1.386 . S
C349 C353 1.383 . S
C350 C348 1.383 . S
C350 C351 1.402 . S
C350 H365 0.951 . S
C351 C350 1.402 . S
C351 C352 1.375 . S
C351 C354 1.481 . S
C352 C351 1.375 . S
C352 C353 1.367 . S
C352 H366 0.951 . S
C353 C349 1.383 . S
C353 C352 1.367 . S
C353 H367 0.950 . S
C354 C351 1.481 . S
C354 C355 1.297 . S
C354 H368 0.950 . S
C355 C354 1.297 . S
C355 C356 1.479 . S
C355 H369 0.950 . S
C356 C355 1.479 . S
C356 C357 1.375 . S
C356 C362 1.404 . S
C357 C356 1.375 . S
C357 C358 1.369 . S
C357 H370 0.950 . S
C358 C357 1.369 . S
C358 C359 1.392 . S
C358 H371 0.951 . S
C359 C358 1.392 . S
C359 C361 1.384 . S
H360 C362 0.949 . S
C361 C359 1.384 . S
C361 C362 1.385 . S
C361 H363 0.950 . S
C362 C356 1.404 . S
C362 H360 0.949 . S
C362 C361 1.385 . S
H363 C361 0.950 . S
H364 C348 0.951 . S
H365 C350 0.951 . S
H366 C352 0.951 . S
H367 C353 0.950 . S
H368 C354 0.950 . S
H369 C355 0.950 . S
H370 C357 0.950 . S
H371 C358 0.951 . S
C372 C373 1.386 . S
C372 C374 1.383 . S
C372 H388 0.951 . S
C373 C372 1.386 . S
C373 C377 1.383 . S
C374 C372 1.383 . S
C374 C375 1.402 . S
C374 H389 0.945 1_455 S
C375 C374 1.402 . S
C375 C376 1.375 . S
C375 C378 1.481 . S
C376 C375 1.375 . S
C376 C377 1.367 . S
C376 H390 0.951 . S
C377 C373 1.383 . S
C377 C376 1.367 . S
C377 H391 0.950 . S
C378 C375 1.481 . S
C378 C379 1.297 1_455 S
C378 H392 0.950 . S
C379 C378 1.297 1_655 S
C379 C380 1.479 . S
C379 H393 0.950 . S
C380 C379 1.479 . S
C380 C381 1.375 . S
C380 C386 1.404 . S
C381 C380 1.375 . S
C381 C382 1.369 . S
C381 H394 0.950 . S
C382 C381 1.369 . S
C382 C383 1.392 . S
C382 H395 0.951 . S
C383 C382 1.392 . S
C383 C385 1.384 . S
H384 C386 0.957 . S
C385 C383 1.384 . S
C385 C386 1.385 . S
C385 H387 0.950 . S
C386 C380 1.404 . S
C386 H384 0.957 . S
C386 C385 1.385 . S
H387 C385 0.950 . S
H388 C372 0.951 . S
H389 C374 0.945 1_655 S
H390 C376 0.951 . S
H391 C377 0.950 . S
H392 C378 0.950 . S
H393 C379 0.950 . S
H394 C381 0.950 . S
H395 C382 0.951 . S
C396 C397 1.386 . S
C396 C398 1.383 . S
C396 H412 0.951 . S
C397 C396 1.386 . S
C397 C401 1.383 . S
C398 C396 1.383 . S
C398 C399 1.402 . S
C398 H413 0.951 . S
C399 C398 1.402 . S
C399 C400 1.375 . S
C399 C402 1.482 1_565 S
C400 C399 1.375 . S
C400 C401 1.367 . S
C400 H414 0.951 . S
C401 C397 1.383 . S
C401 C400 1.367 . S
C401 H415 0.950 . S
C402 C399 1.482 1_545 S
C402 C403 1.296 . S
C402 H416 0.950 . S
C403 C402 1.296 . S
C403 C404 1.479 . S
C403 H417 0.950 . S
C404 C403 1.479 . S
C404 C405 1.375 . S
C404 C410 1.404 . S
C405 C404 1.375 . S
C405 C406 1.369 . S
C405 H418 0.950 . S
C406 C405 1.369 . S
C406 C407 1.392 . S
C406 H419 0.951 . S
C407 C406 1.392 . S
C407 C409 1.384 . S
H408 C410 0.949 . S
C409 C407 1.384 . S
C409 C410 1.385 . S
C409 H411 0.950 . S
C410 C404 1.404 . S
C410 H408 0.949 . S
C410 C409 1.385 . S
H411 C409 0.950 . S
H412 C396 0.951 . S
H413 C398 0.951 . S
H414 C400 0.951 . S
H415 C401 0.950 . S
H416 C402 0.950 . S
H417 C403 0.950 . S
H418 C405 0.950 . S
H419 C406 0.951 . S
C420 C421 1.386 . S
C420 C422 1.383 . S
C420 H436 0.951 . S
C421 C420 1.386 . S
C421 C425 1.383 . S
C422 C420 1.383 . S
C422 C423 1.402 . S
C422 H437 0.951 . S
C423 C422 1.402 . S
C423 C424 1.375 . S
C423 C426 1.481 1_655 S
C424 C423 1.375 . S
C424 C425 1.367 . S
C424 H438 0.951 . S
C425 C421 1.383 . S
C425 C424 1.367 . S
C425 H439 0.950 . S
C426 C423 1.481 1_455 S
C426 C427 1.297 . S
C426 H440 0.950 . S
C427 C426 1.297 . S
C427 C428 1.479 . S
C427 H441 0.950 . S
C428 C427 1.479 . S
C428 C429 1.375 . S
C428 C434 1.404 . S
C429 C428 1.375 . S
C429 C430 1.369 . S
C429 H442 0.950 . S
C430 C429 1.369 . S
C430 C431 1.392 . S
C430 H443 0.951 . S
C431 C430 1.392 . S
C431 C433 1.384 . S
H432 C434 0.949 . S
C433 C431 1.384 . S
C433 C434 1.385 . S
C433 H435 0.950 . S
C434 C428 1.404 . S
C434 H432 0.949 . S
C434 C433 1.385 . S
H435 C433 0.950 . S
H436 C420 0.951 . S
H437 C422 0.951 . S
H438 C424 0.951 . S
H439 C425 0.950 . S
H440 C426 0.950 . S
H441 C427 0.950 . S
H442 C429 0.950 . S
H443 C430 0.951 . S
C444 C445 1.386 . S
C444 C446 1.383 . S
C444 H460 0.951 . S
C445 C444 1.386 . S
C445 C449 1.383 . S
C446 C444 1.383 . S
C446 C447 1.402 . S
C446 H461 0.951 . S
C447 C446 1.402 . S
C447 C448 1.375 . S
C447 C450 1.481 . S
C448 C447 1.375 . S
C448 C449 1.367 . S
C448 H462 0.951 . S
C449 C445 1.383 . S
C449 C448 1.367 . S
C449 H463 0.950 . S
C450 C447 1.481 . S
C450 C451 1.296 . S
C450 H464 0.950 1_565 S
C451 C450 1.296 . S
C451 C452 1.457 1_565 S
C451 H465 0.977 . S
C452 C451 1.457 1_545 S
C452 C453 1.375 . S
C452 C458 1.404 . S
C453 C452 1.375 . S
C453 C454 1.369 . S
C453 H466 0.950 . S
C454 C453 1.369 . S
C454 C455 1.392 . S
C454 H467 0.951 . S
C455 C454 1.392 . S
C455 C457 1.384 . S
H456 C458 0.949 . S
C457 C455 1.384 . S
C457 C458 1.385 . S
C457 H459 0.950 . S
C458 C452 1.404 . S
C458 H456 0.949 . S
C458 C457 1.385 . S
H459 C457 0.950 . S
H460 C444 0.951 . S
H461 C446 0.951 . S
H462 C448 0.951 . S
H463 C449 0.950 . S
H464 C450 0.950 1_545 S
H465 C451 0.977 . S
H466 C453 0.950 . S
H467 C454 0.951 . S
C468 C469 1.386 . S
C468 C470 1.383 . S
C468 H484 0.951 . S
C469 C468 1.386 . S
C469 C473 1.383 . S
C470 C468 1.383 . S
C470 C471 1.402 . S
C470 H485 0.951 . S
C471 C470 1.402 . S
C471 C472 1.375 . S
C471 C474 1.481 . S
C472 C471 1.375 . S
C472 C473 1.367 . S
C472 H486 0.951 . S
C473 C469 1.383 . S
C473 C472 1.367 . S
C473 H487 0.950 . S
C474 C471 1.481 . S
C474 C475 1.297 . S
C474 H488 0.950 . S
C475 C474 1.297 . S
C475 C476 1.479 . S
C475 H489 0.950 . S
C476 C475 1.479 . S
C476 C477 1.375 . S
C476 C482 1.404 . S
C477 C476 1.375 . S
C477 C478 1.369 . S
C477 H490 0.950 . S
C478 C477 1.369 . S
C478 C479 1.392 . S
C478 H491 0.951 . S
C479 C478 1.392 . S
C479 C481 1.384 . S
H480 C482 0.949 . S
C481 C479 1.384 . S
C481 C482 1.385 . S
C481 H483 0.950 . S
C482 C476 1.404 . S
C482 H480 0.949 . S
C482 C481 1.385 . S
H483 C481 0.950 . S
H484 C468 0.951 . S
H485 C470 0.951 . S
H486 C472 0.951 . S
H487 C473 0.950 . S
H488 C474 0.950 . S
H489 C475 0.950 . S
H490 C477 0.950 . S
H491 C478 0.951 . S
C492 C493 1.386 . S
C492 C494 1.383 . S
C492 H508 0.951 . S
C493 C492 1.386 . S
C493 C497 1.383 . S
C494 C492 1.383 . S
C494 C495 1.402 . S
C494 H509 0.951 . S
C495 C494 1.402 . S
C495 C496 1.375 . S
C495 C498 1.481 . S
C496 C495 1.375 . S
C496 C497 1.367 . S
C496 H510 0.951 . S
C497 C493 1.383 . S
C497 C496 1.367 . S
C497 H511 0.950 . S
C498 C495 1.481 . S
C498 C499 1.297 1_655 S
C498 H512 0.950 1_655 S
C499 C498 1.297 1_455 S
C499 C500 1.479 . S
C499 H513 0.950 . S
C500 C499 1.479 . S
C500 C501 1.375 . S
C500 C506 1.404 . S
C501 C500 1.375 . S
C501 C502 1.369 . S
C501 H514 0.950 . S
C502 C501 1.369 . S
C502 C503 1.392 . S
C502 H515 0.951 . S
C503 C502 1.392 . S
C503 C505 1.384 . S
H504 C506 0.949 . S
C505 C503 1.384 . S
C505 C506 1.385 . S
C505 H507 0.950 . S
C506 C500 1.404 . S
C506 H504 0.949 . S
C506 C505 1.385 . S
H507 C505 0.950 . S
H508 C492 0.951 . S
H509 C494 0.951 . S
H510 C496 0.951 . S
H511 C497 0.950 . S
H512 C498 0.950 1_455 S
H513 C499 0.950 . S
H514 C501 0.950 . S
H515 C502 0.951 . S
C516 C517 1.386 . S
C516 C518 1.383 . S
C516 H532 0.951 . S
C517 C516 1.386 . S
C517 C521 1.383 . S
C518 C516 1.383 . S
C518 C519 1.402 . S
C518 H533 0.951 . S
C519 C518 1.402 . S
C519 C520 1.375 . S
C519 C522 1.481 . S
C520 C519 1.375 . S
C520 C521 1.367 . S
C520 H534 0.951 . S
C521 C517 1.383 . S
C521 C520 1.367 . S
C521 H535 0.950 . S
C522 C519 1.481 . S
C522 C523 1.297 1_565 S
C522 H536 0.950 1_565 S
C523 C522 1.297 1_545 S
C523 C524 1.479 . S
C523 H537 0.950 . S
C524 C523 1.479 . S
C524 C525 1.375 . S
C524 C530 1.404 . S
C525 C524 1.375 . S
C525 C526 1.369 . S
C525 H538 0.950 . S
C526 C525 1.369 . S
C526 C527 1.392 . S
C526 H539 0.951 . S
C527 C526 1.392 . S
C527 C529 1.384 . S
H528 C530 0.949 . S
C529 C527 1.384 . S
C529 C530 1.385 . S
C529 H531 0.950 . S
C530 C524 1.404 . S
C530 H528 0.949 . S
C530 C529 1.385 . S
H531 C529 0.950 . S
H532 C516 0.951 . S
H533 C518 0.951 . S
H534 C520 0.951 . S
H535 C521 0.950 . S
H536 C522 0.950 1_545 S
H537 C523 0.950 . S
H538 C525 0.950 . S
H539 C526 0.951 . S
C540 C541 1.386 . S
C540 C542 1.383 . S
C540 H556 0.951 . S
C541 C540 1.386 . S
C541 C545 1.383 . S
C542 C540 1.383 . S
C542 C543 1.402 . S
C542 H557 0.951 . S
C543 C542 1.402 . S
C543 C544 1.375 . S
C543 C546 1.481 . S
C544 C543 1.375 . S
C544 C545 1.367 . S
C544 H558 0.951 . S
C545 C541 1.383 . S
C545 C544 1.367 . S
C545 H559 0.950 . S
C546 C543 1.481 . S
C546 C547 1.297 . S
C546 H560 0.950 . S
C547 C546 1.297 . S
C547 C548 1.479 . S
C547 H561 0.950 . S
C548 C547 1.479 . S
C548 C549 1.375 . S
C548 C554 1.404 . S
C549 C548 1.375 . S
C549 C550 1.369 . S
C549 H562 0.950 . S
C550 C549 1.369 . S
C550 C551 1.392 . S
C550 H563 0.951 . S
C551 C550 1.392 . S
C551 C553 1.384 . S
H552 C554 0.949 . S
C553 C551 1.384 . S
C553 C554 1.385 . S
C553 H555 0.950 . S
C554 C548 1.404 . S
C554 H552 0.949 . S
C554 C553 1.385 . S
H555 C553 0.950 . S
H556 C540 0.951 . S
H557 C542 0.951 . S
H558 C544 0.951 . S
H559 C545 0.950 . S
H560 C546 0.950 . S
H561 C547 0.950 . S
H562 C549 0.950 . S
H563 C550 0.951 . S
C133 C117 1.431 . S
C143 C7 1.402 . S
C157 C128 1.461 . S
C167 C18 1.439 . S
C181 C29 1.459 . S
C191 C73 1.434 . S
C205 C40 1.438 . S
C215 C84 1.407 . S
C229 C95 1.430 . S
C239 C51 1.415 . S
C253 C106 1.455 . S
C263 C62 1.466 . S
C277 C38 1.304 . S
C287 C5 1.228 . S
C301 C16 1.275 . S
C311 C49 1.296 . S
C325 C60 1.231 . S
C335 C27 1.363 . S
C349 C104 1.236 . S
C359 C71 1.345 . S
C373 C115 1.300 . S
C383 C82 1.253 . S
C397 C93 1.230 . S
C407 C126 1.363 . S
C421 C129 1.481 . S
C431 C8 1.506 . S
C445 C74 1.502 . S
C455 C19 1.490 . S
C469 C30 1.476 . S
C479 C85 1.497 . S
C493 C41 1.477 . S
C503 C96 1.497 . S
C517 C52 1.477 . S
C527 C107 1.499 . S
C541 C63 1.503 . S
C551 C118 1.464 . S
