# Generated by pormake.
# Topology ukt, (4)-cn, num edge types: 1
# Building blocks:
#     Node 0, Type 0, BuildingBlock: QUQFOY_clean_sbu_1, # of connection points: 4
#     Node 1, Type 0, BuildingBlock: QUQFOY_clean_sbu_1, # of connection points: 4
#     Node 2, Type 0, BuildingBlock: QUQFOY_clean_sbu_1, # of connection points: 4
#     Node 3, Type 0, BuildingBlock: QUQFOY_clean_sbu_1, # of connection points: 4
#     Node 4, Type 0, BuildingBlock: QUQFOY_clean_sbu_1, # of connection points: 4
#     Node 5, Type 0, BuildingBlock: QUQFOY_clean_sbu_1, # of connection points: 4
#     Node 6, Type 0, BuildingBlock: QUQFOY_clean_sbu_1, # of connection points: 4
#     Node 7, Type 0, BuildingBlock: QUQFOY_clean_sbu_1, # of connection points: 4
#     Node 8, Type 0, BuildingBlock: QUQFOY_clean_sbu_1, # of connection points: 4
#     Node 9, Type 0, BuildingBlock: QUQFOY_clean_sbu_1, # of connection points: 4
#     Node 10, Type 0, BuildingBlock: QUQFOY_clean_sbu_1, # of connection points: 4
#     Node 11, Type 0, BuildingBlock: QUQFOY_clean_sbu_1, # of connection points: 4
#     Node 12, Type 0, BuildingBlock: QUQFOY_clean_sbu_1, # of connection points: 4
#     Node 13, Type 0, BuildingBlock: QUQFOY_clean_sbu_1, # of connection points: 4
#     Node 14, Type 0, BuildingBlock: QUQFOY_clean_sbu_1, # of connection points: 4
#     Node 15, Type 0, BuildingBlock: QUQFOY_clean_sbu_1, # of connection points: 4
#     Edge 16, Type (0, 0), BuildingBlock: KIFKEQ_clean_linker_1, # of connection points: 2
#     Edge 17, Type (0, 0), BuildingBlock: KIFKEQ_clean_linker_1, # of connection points: 2
#     Edge 18, Type (0, 0), BuildingBlock: KIFKEQ_clean_linker_1, # of connection points: 2
#     Edge 19, Type (0, 0), BuildingBlock: KIFKEQ_clean_linker_1, # of connection points: 2
#     Edge 20, Type (0, 0), BuildingBlock: KIFKEQ_clean_linker_1, # of connection points: 2
#     Edge 21, Type (0, 0), BuildingBlock: KIFKEQ_clean_linker_1, # of connection points: 2
#     Edge 22, Type (0, 0), BuildingBlock: KIFKEQ_clean_linker_1, # of connection points: 2
#     Edge 23, Type (0, 0), BuildingBlock: KIFKEQ_clean_linker_1, # of connection points: 2
#     Edge 24, Type (0, 0), BuildingBlock: KIFKEQ_clean_linker_1, # of connection points: 2
#     Edge 25, Type (0, 0), BuildingBlock: KIFKEQ_clean_linker_1, # of connection points: 2
#     Edge 26, Type (0, 0), BuildingBlock: KIFKEQ_clean_linker_1, # of connection points: 2
#     Edge 27, Type (0, 0), BuildingBlock: KIFKEQ_clean_linker_1, # of connection points: 2
#     Edge 28, Type (0, 0), BuildingBlock: KIFKEQ_clean_linker_1, # of connection points: 2
#     Edge 29, Type (0, 0), BuildingBlock: KIFKEQ_clean_linker_1, # of connection points: 2
#     Edge 30, Type (0, 0), BuildingBlock: KIFKEQ_clean_linker_1, # of connection points: 2
#     Edge 31, Type (0, 0), BuildingBlock: KIFKEQ_clean_linker_1, # of connection points: 2
#     Edge 32, Type (0, 0), BuildingBlock: KIFKEQ_clean_linker_1, # of connection points: 2
#     Edge 33, Type (0, 0), BuildingBlock: KIFKEQ_clean_linker_1, # of connection points: 2
#     Edge 34, Type (0, 0), BuildingBlock: KIFKEQ_clean_linker_1, # of connection points: 2
#     Edge 35, Type (0, 0), BuildingBlock: KIFKEQ_clean_linker_1, # of connection points: 2
#     Edge 36, Type (0, 0), BuildingBlock: KIFKEQ_clean_linker_1, # of connection points: 2
#     Edge 37, Type (0, 0), BuildingBlock: KIFKEQ_clean_linker_1, # of connection points: 2
#     Edge 38, Type (0, 0), BuildingBlock: KIFKEQ_clean_linker_1, # of connection points: 2
#     Edge 39, Type (0, 0), BuildingBlock: KIFKEQ_clean_linker_1, # of connection points: 2
#     Edge 40, Type (0, 0), BuildingBlock: KIFKEQ_clean_linker_1, # of connection points: 2
#     Edge 41, Type (0, 0), BuildingBlock: KIFKEQ_clean_linker_1, # of connection points: 2
#     Edge 42, Type (0, 0), BuildingBlock: KIFKEQ_clean_linker_1, # of connection points: 2
#     Edge 43, Type (0, 0), BuildingBlock: KIFKEQ_clean_linker_1, # of connection points: 2
#     Edge 44, Type (0, 0), BuildingBlock: KIFKEQ_clean_linker_1, # of connection points: 2
#     Edge 45, Type (0, 0), BuildingBlock: KIFKEQ_clean_linker_1, # of connection points: 2
#     Edge 46, Type (0, 0), BuildingBlock: KIFKEQ_clean_linker_1, # of connection points: 2
#     Edge 47, Type (0, 0), BuildingBlock: KIFKEQ_clean_linker_1, # of connection points: 2
# Relax obj value: 0.123
# Max RMSD: 0.086
# Mean RMSD: 0.086
data_MOF--net-ukt--node1-QUQFOY_clean_sbu_1--edge1-KIFKEQ_clean_linker_1
_symmetry_space_group_name_H-M    P1
_symmetry_Int_Tables_number       1
_symmetry_cell_setting            triclinic
loop_
_symmetry_equiv_pos_as_xyz
'x, y, z'
_cell_length_a     45.447308
_cell_length_b     45.354046
_cell_length_c     41.22776
_cell_angle_alpha  90.030024
_cell_angle_beta   90.067828
_cell_angle_gamma 89.946178
loop_
_atom_site_label
_atom_site_type_symbol
_atom_site_fract_x
_atom_site_fract_y
_atom_site_fract_z
_atom_type_partial_charge
O0 O 0.59425 0.12062 0.04551 0.0
Cd1 Cd 0.55586 0.14272 0.05497 0.0
Cd2 Cd 0.59078 0.16189 0.10207 0.0
O3 O 0.61001 0.12081 0.09581 0.0
O4 O 0.52901 0.12224 0.02457 0.0
O5 O 0.52564 0.11814 0.07791 0.0
C6 C 0.51764 0.10938 0.0494 0.0
C7 C 0.58594 0.18271 0.15371 0.0
C8 C 0.61104 0.11027 0.06729 0.0
C9 C 0.57758 0.20103 0.04501 0.0
O10 O 0.59677 0.19277 0.0656 0.0
O11 O 0.55434 0.18597 0.04099 0.0
O12 O 0.61128 0.17943 0.14018 0.0
O13 O 0.56309 0.17297 0.13843 0.0
O14 O 0.37395 0.60114 0.04636 0.0
Cd15 Cd 0.35324 0.56307 0.06044 0.0
Cd16 Cd 0.33794 0.59751 0.10658 0.0
O17 O 0.37783 0.61735 0.09623 0.0
O18 O 0.37313 0.53347 0.03308 0.0
O19 O 0.3787 0.53591 0.08644 0.0
C20 C 0.38682 0.52503 0.05886 0.0
C21 C 0.32285 0.58966 0.15978 0.0
C22 C 0.38587 0.61831 0.06678 0.0
C23 C 0.29413 0.58323 0.05503 0.0
O24 O 0.30377 0.60333 0.07377 0.0
O25 O 0.30924 0.56005 0.05056 0.0
O26 O 0.32425 0.6158 0.14762 0.0
O27 O 0.33117 0.56769 0.14203 0.0
O28 O 0.89835 0.36345 0.02808 0.0
Cd29 Cd 0.93794 0.3432 0.0222 0.0
Cd30 Cd 0.91701 0.32072 0.08586 0.0
O31 O 0.89082 0.358 0.08053 0.0
O32 O 0.95131 0.36464 0.98298 0.0
O33 O 0.97312 0.36889 0.03069 0.0
C34 C 0.97019 0.37789 1.00112 0.0
C35 C 0.92108 0.30222 0.1389 0.0
C36 C 0.88436 0.37005 0.05364 0.0
C37 C 0.92361 0.28059 0.02481 0.0
O38 O 0.91385 0.28623 0.05306 0.0
O39 O 0.937 0.30001 0.00835 0.0
O40 O 0.89652 0.30249 0.12347 0.0
O41 O 0.94374 0.31346 0.12473 0.0
O42 O 0.12681 0.89742 0.01504 0.0
Cd43 Cd 0.14302 0.93885 0.02126 0.0
Cd44 Cd 0.16461 0.91193 0.07787 0.0
O45 O 0.12921 0.88464 0.06649 0.0
O46 O 0.11726 0.96295 0.99307 0.0
O47 O 0.11683 0.96556 0.04681 0.0
C48 C 0.1051 0.9726 0.01927 0.0
C49 C 0.18125 0.91116 0.13187 0.0
C50 C 0.11951 0.8803 0.03794 0.0
C51 C 0.2056 0.93022 0.02112 0.0
O52 O 0.20015 0.91545 0.04664 0.0
O53 O 0.18558 0.94502 0.0072 0.0
O54 O 0.1838 0.88873 0.11302 0.0
O55 O 0.16789 0.9341 0.12058 0.0
O56 O 0.59427 0.36563 0.46666 0.0
Cd57 Cd 0.55673 0.34278 0.45593 0.0
Cd58 Cd 0.59296 0.32625 0.40868 0.0
O59 O 0.61242 0.36681 0.41738 0.0
O60 O 0.52976 0.36126 0.48775 0.0
O61 O 0.52495 0.36711 0.43481 0.0
C62 C 0.51721 0.3745 0.46384 0.0
C63 C 0.58723 0.30762 0.35617 0.0
C64 C 0.61218 0.3764 0.44632 0.0
C65 C 0.58071 0.28474 0.46406 0.0
O66 O 0.59942 0.29392 0.44349 0.0
O67 O 0.55716 0.29919 0.46885 0.0
O68 O 0.61282 0.31037 0.36933 0.0
O69 O 0.56465 0.31678 0.37232 0.0
O70 O 0.11357 0.6112 0.4489 0.0
Cd71 Cd 0.13277 0.57249 0.46379 0.0
Cd72 Cd 0.17245 0.5975 0.40973 0.0
O73 O 0.13781 0.62639 0.40566 0.0
O74 O 0.10753 0.56703 0.50264 0.0
O75 O 0.10661 0.53641 0.46121 0.0
C76 C 0.09585 0.54461 0.48873 0.0
C77 C 0.20025 0.59082 0.36223 0.0
C78 C 0.11673 0.62913 0.42557 0.0
C79 C 0.19525 0.58891 0.47927 0.0
O80 O 0.19746 0.60052 0.45132 0.0
O81 O 0.17274 0.57402 0.48723 0.0
O82 O 0.19961 0.6155 0.37751 0.0
O83 O 0.18487 0.56936 0.37375 0.0
O84 O 0.88529 0.13226 0.45756 0.0
Cd85 Cd 0.92624 0.14951 0.45101 0.0
Cd86 Cd 0.89915 0.16906 0.39756 0.0
O87 O 0.87418 0.13143 0.40577 0.0
O88 O 0.94893 0.12681 0.48347 0.0
O89 O 0.95464 0.12137 0.43043 0.0
C90 C 0.96007 0.1123 0.45957 0.0
C91 C 0.90859 0.18427 0.34449 0.0
C92 C 0.86956 0.12254 0.43452 0.0
C93 C 0.91264 0.21128 0.45264 0.0
O94 O 0.89568 0.20445 0.42923 0.0
O95 O 0.93142 0.19286 0.46305 0.0
O96 O 0.88252 0.18513 0.35663 0.0
O97 O 0.92951 0.17341 0.36205 0.0
O98 O 0.35757 0.88595 0.45172 0.0
Cd99 Cd 0.34429 0.92883 0.44813 0.0
Cd100 Cd 0.30825 0.89892 0.39902 0.0
O101 O 0.33881 0.86568 0.4077 0.0
O102 O 0.37083 0.94625 0.48113 0.0
O103 O 0.37418 0.95674 0.42898 0.0
C104 C 0.38462 0.9592 0.45799 0.0
C105 C 0.28734 0.90183 0.34707 0.0
C106 C 0.35548 0.86428 0.43243 0.0
C107 C 0.28004 0.92796 0.45901 0.0
O108 O 0.2785 0.91061 0.43482 0.0
O109 O 0.30422 0.93983 0.46705 0.0
O110 O 0.28137 0.88058 0.36664 0.0
O111 O 0.30628 0.92125 0.35649 0.0
O112 O 0.41605 0.85422 0.97046 0.0
Cd113 Cd 0.46081 0.85454 0.9718 0.0
Cd114 Cd 0.44617 0.82063 0.9113 0.0
O115 O 0.40757 0.84456 0.91876 0.0
O116 O 0.46603 0.88153 0.00938 0.0
O117 O 0.4813 0.89247 0.96003 0.0
C118 C 0.4772 0.90047 0.98976 0.0
C119 C 0.45162 0.80025 0.85913 0.0
C120 C 0.39872 0.85314 0.94642 0.0
C121 C 0.47447 0.792 0.97326 0.0
O122 O 0.46093 0.79104 0.94624 0.0
O123 O 0.47991 0.81639 0.98703 0.0
O124 O 0.43234 0.79072 0.87929 0.0
O125 O 0.46755 0.82238 0.86796 0.0
O126 O 0.62355 0.40917 0.96692 0.0
Cd127 Cd 0.6347 0.45124 0.97903 0.0
Cd128 Cd 0.67657 0.43455 0.92052 0.0
O129 O 0.65146 0.39666 0.92522 0.0
O130 O 0.60867 0.45505 0.01752 0.0
O131 O 0.60279 0.48177 0.9733 0.0
C132 C 0.59334 0.47389 1.00152 0.0
C133 C 0.69853 0.4401 0.86929 0.0
C134 C 0.63137 0.39069 0.94558 0.0
C135 C 0.70047 0.45536 0.98735 0.0
O136 O 0.70387 0.44679 0.95822 0.0
O137 O 0.67515 0.45842 0.99987 0.0
O138 O 0.70576 0.41912 0.88863 0.0
O139 O 0.67854 0.45837 0.87874 0.0
O140 O 0.08352 0.62447 0.96102 0.0
Cd141 Cd 0.04004 0.63363 0.95467 0.0
Cd142 Cd 0.06469 0.66791 0.90309 0.0
O143 O 0.10184 0.64421 0.91649 0.0
O144 O 0.02216 0.60399 0.98385 0.0
O145 O 0.01732 0.60262 0.93045 0.0
C146 C 0.01342 0.59018 0.95831 0.0
C147 C 0.0618 0.68411 0.8492 0.0
C148 C 0.10505 0.62911 0.94222 0.0
C149 C 0.03405 0.69806 0.96069 0.0
O150 O 0.04954 0.69929 0.9351 0.0
O151 O 0.02596 0.67353 0.97247 0.0
O152 O 0.08206 0.69314 0.86853 0.0
O153 O 0.04325 0.66495 0.85992 0.0
O154 O 0.84226 0.07028 0.97628 0.0
Cd155 Cd 0.84258 0.02543 0.97553 0.0
Cd156 Cd 0.80806 0.04018 0.91777 0.0
O157 O 0.83098 0.07937 0.92517 0.0
O158 O 0.87284 0.01808 0.00939 0.0
O159 O 0.87873 0.00524 0.95809 0.0
C160 C 0.88961 0.00782 0.98692 0.0
C161 C 0.78913 0.0339 0.86508 0.0
C162 C 0.84019 0.088 0.95267 0.0
C163 C 0.78058 0.01173 0.97991 0.0
O164 O 0.77884 0.02531 0.95295 0.0
O165 O 0.80533 0.00621 0.99277 0.0
O166 O 0.77841 0.05291 0.88492 0.0
O167 O 0.81135 0.01848 0.87474 0.0
O168 O 0.3949 0.6148 0.56887 0.0
Cd169 Cd 0.43438 0.62204 0.54666 0.0
Cd170 Cd 0.42992 0.67261 0.59676 0.0
O171 O 0.38811 0.6546 0.59897 0.0
O172 O 0.43108 0.59096 0.5126 0.0
O173 O 0.46557 0.59024 0.55015 0.0
C174 C 0.45304 0.57768 0.52567 0.0
C175 C 0.44445 0.6973 0.64441 0.0
C176 C 0.37886 0.63037 0.58731 0.0
C177 C 0.44151 0.68563 0.52512 0.0
O178 O 0.44158 0.69385 0.55458 0.0
O179 O 0.43767 0.65879 0.51739 0.0
O180 O 0.42491 0.70794 0.62516 0.0
O181 O 0.45611 0.6723 0.63678 0.0
O182 O 0.85713 0.42449 0.5402 0.0
Cd183 Cd 0.84633 0.46691 0.55107 0.0
Cd184 Cd 0.81675 0.43742 0.60029 0.0
O185 O 0.84409 0.40305 0.58583 0.0
O186 O 0.87311 0.48765 0.52099 0.0
O187 O 0.87777 0.48998 0.57431 0.0
C188 C 0.88814 0.49582 0.54587 0.0
C189 C 0.80421 0.44162 0.65505 0.0
C190 C 0.85675 0.40199 0.55837 0.0
C191 C 0.7822 0.46773 0.54603 0.0
O192 O 0.78291 0.44945 0.56941 0.0
O193 O 0.80551 0.48007 0.536 0.0
O194 O 0.79567 0.41959 0.63779 0.0
O195 O 0.82082 0.46119 0.64164 0.0
O196 O 0.07966 0.88682 0.55272 0.0
Cd197 Cd 0.03876 0.86831 0.54715 0.0
Cd198 Cd 0.07009 0.83418 0.59873 0.0
O199 O 0.09857 0.86936 0.59805 0.0
O200 O 0.02895 0.89097 0.50735 0.0
O201 O 0.00504 0.89707 0.55325 0.0
C202 C 0.00996 0.90552 0.52387 0.0
C203 C 0.06412 0.80869 0.64773 0.0
C204 C 0.09961 0.88702 0.57424 0.0
C205 C 0.05438 0.8062 0.53374 0.0
O206 O 0.07116 0.8074 0.5584 0.0
O207 O 0.03579 0.82645 0.52798 0.0
O208 O 0.08879 0.80894 0.63251 0.0
O209 O 0.04249 0.82347 0.63555 0.0
O210 O 0.62555 0.07688 0.55025 0.0
Cd211 Cd 0.6347 0.03422 0.53808 0.0
Cd212 Cd 0.67991 0.04984 0.59094 0.0
O213 O 0.65966 0.09052 0.58545 0.0
O214 O 0.60649 0.0315 0.50134 0.0
O215 O 0.6025 0.00412 0.54523 0.0
C216 C 0.59187 0.01241 0.51766 0.0
C217 C 0.6998 0.03991 0.64242 0.0
C218 C 0.63725 0.09636 0.56813 0.0
C219 C 0.69944 0.02689 0.52407 0.0
O220 O 0.70513 0.03445 0.55309 0.0
O221 O 0.67321 0.02597 0.51354 0.0
O222 O 0.71163 0.05862 0.62301 0.0
O223 O 0.6761 0.02682 0.63291 0.0
H224 H 0.53907 0.23045 0.00524 0.0
H225 H 0.62958 0.22989 0.03765 0.0
H226 H 0.54942 0.2736 0.97143 0.0
H227 H 0.63976 0.27264 0.00399 0.0
H228 H 0.65741 0.33869 0.92814 0.0
H229 H 0.64206 0.28942 0.94542 0.0
H230 H 0.56255 0.3262 0.9861 0.0
H231 H 0.57779 0.37519 0.96892 0.0
C232 C 0.56115 0.23941 0.00502 0.0
C233 C 0.58344 0.22697 0.02437 0.0
C234 C 0.56707 0.26399 0.98561 0.0
C235 C 0.59545 0.27622 0.98485 0.0
C236 C 0.61782 0.26334 0.00361 0.0
C237 C 0.61186 0.23908 0.02326 0.0
C238 C 0.63621 0.33605 0.93977 0.0
C239 C 0.61899 0.36073 0.94767 0.0
C240 C 0.62754 0.30795 0.94986 0.0
C241 C 0.60135 0.30414 0.96752 0.0
C242 C 0.5828 0.32846 0.97248 0.0
C243 C 0.59161 0.35652 0.96279 0.0
H244 H 0.15871 0.65257 0.92721 0.0
H245 H 0.11718 0.5819 0.98039 0.0
H246 H 0.20612 0.63954 0.95172 0.0
H247 H 0.16446 0.56879 0.00447 0.0
H248 H 0.2614 0.54222 0.02233 0.0
H249 H 0.21708 0.55092 0.98985 0.0
H250 H 0.22155 0.64375 0.01243 0.0
H251 H 0.26548 0.6352 0.04509 0.0
C252 C 0.15986 0.63386 0.94348 0.0
C253 C 0.13431 0.6184 0.95215 0.0
C254 C 0.18687 0.62655 0.95763 0.0
C255 C 0.18876 0.60334 0.98012 0.0
C256 C 0.16357 0.5867 0.98712 0.0
C257 C 0.13654 0.5943 0.97344 0.0
C258 C 0.25286 0.56446 0.02039 0.0
C259 C 0.26679 0.58801 0.03641 0.0
C260 C 0.22761 0.5694 1.00178 0.0
C261 C 0.21621 0.59803 0.99842 0.0
C262 C 0.23022 0.62155 0.01425 0.0
C263 C 0.25514 0.61657 0.03324 0.0
H264 H 0.87298 0.12311 0.91249 0.0
H265 H 0.82954 0.12104 0.00546 0.0
H266 H 0.89662 0.16989 0.92736 0.0
H267 H 0.85169 0.16793 0.01974 0.0
H268 H 0.9192 0.2285 0.05625 0.0
H269 H 0.89971 0.18248 0.03513 0.0
H270 H 0.89086 0.22198 0.94017 0.0
H271 H 0.9119 0.26786 0.96126 0.0
C272 C 0.86791 0.13312 0.93568 0.0
C273 C 0.84975 0.11854 0.95801 0.0
C274 C 0.88146 0.15978 0.94425 0.0
C275 C 0.8767 0.17221 0.97512 0.0
C276 C 0.85676 0.15845 0.99629 0.0
C277 C 0.84374 0.13178 0.98799 0.0
C278 C 0.91359 0.22715 0.03074 0.0
C279 C 0.91674 0.25171 0.01044 0.0
C280 C 0.90212 0.20091 0.01866 0.0
C281 C 0.89283 0.19884 0.98617 0.0
C282 C 0.8977 0.22288 0.96531 0.0
C283 C 0.90976 0.2491 0.97735 0.0
H284 H 0.36441 0.888 0.90718 0.0
H285 H 0.36509 0.84103 0.99816 0.0
H286 H 0.31783 0.91182 0.92256 0.0
H287 H 0.31857 0.86348 0.01293 0.0
H288 H 0.25786 0.92833 0.05217 0.0
H289 H 0.30458 0.91161 0.03008 0.0
H290 H 0.26529 0.90526 0.93477 0.0
H291 H 0.2187 0.9236 0.95692 0.0
C292 C 0.35415 0.88223 0.93001 0.0
C293 C 0.36828 0.86296 0.95167 0.0
C294 C 0.32765 0.89591 0.93889 0.0
C295 C 0.31498 0.89023 0.96941 0.0
C296 C 0.32828 0.86928 0.98982 0.0
C297 C 0.35473 0.85607 0.98121 0.0
C298 C 0.25949 0.92413 0.02635 0.0
C299 C 0.23479 0.92698 0.00626 0.0
C300 C 0.28609 0.91421 0.01371 0.0
C301 C 0.28835 0.90611 0.98086 0.0
C302 C 0.26422 0.91117 0.96019 0.0
C303 C 0.23761 0.92173 0.97282 0.0
H304 H 0.54543 0.25721 0.50869 0.0
H305 H 0.63199 0.25358 0.46542 0.0
H306 H 0.55793 0.21487 0.54274 0.0
H307 H 0.64425 0.21142 0.49918 0.0
H308 H 0.66791 0.14776 0.57622 0.0
H309 H 0.65293 0.19649 0.55669 0.0
H310 H 0.56735 0.16187 0.53166 0.0
H311 H 0.58214 0.11354 0.55129 0.0
C312 C 0.56708 0.24741 0.50642 0.0
C313 C 0.58763 0.25862 0.48415 0.0
C314 C 0.57424 0.22326 0.52599 0.0
C315 C 0.60217 0.21006 0.52387 0.0
C316 C 0.62277 0.2215 0.50186 0.0
C317 C 0.61556 0.24543 0.48218 0.0
C318 C 0.6456 0.15086 0.56756 0.0
C319 C 0.62631 0.12684 0.56485 0.0
C320 C 0.63713 0.17864 0.5561 0.0
C321 C 0.60915 0.18281 0.54215 0.0
C322 C 0.58901 0.15939 0.54231 0.0
C323 C 0.59755 0.13166 0.55344 0.0
H324 H 0.3322 0.66751 0.59543 0.0
H325 H 0.35467 0.57573 0.58211 0.0
H326 H 0.28184 0.65707 0.57824 0.0
H327 H 0.3044 0.56538 0.56505 0.0
H328 H 0.20812 0.55723 0.53424 0.0
H329 H 0.24772 0.56696 0.57339 0.0
H330 H 0.27339 0.64363 0.51823 0.0
H331 H 0.23454 0.63385 0.47922 0.0
C332 C 0.32608 0.6449 0.59031 0.0
C333 C 0.34745 0.62254 0.58935 0.0
C334 C 0.29731 0.63897 0.58028 0.0
C335 C 0.28953 0.61057 0.56966 0.0
C336 C 0.30984 0.58747 0.57304 0.0
C337 C 0.33866 0.59344 0.5827 0.0
C338 C 0.22216 0.57624 0.5307 0.0
C339 C 0.21852 0.59457 0.50348 0.0
C340 C 0.24463 0.58185 0.55313 0.0
C341 C 0.26325 0.60627 0.54905 0.0
C342 C 0.25896 0.625 0.52236 0.0
C343 C 0.23699 0.61911 0.49973 0.0
H344 H 0.85586 0.34674 0.58613 0.0
H345 H 0.88788 0.39474 0.5027 0.0
H346 H 0.87347 0.30064 0.56176 0.0
H347 H 0.90521 0.34905 0.47877 0.0
H348 H 0.8853 0.25998 0.42879 0.0
H349 H 0.87551 0.3062 0.4568 0.0
H350 H 0.92096 0.27382 0.54165 0.0
H351 H 0.931 0.22727 0.51347 0.0
C352 C 0.86696 0.34754 0.56291 0.0
C353 C 0.87004 0.37435 0.54615 0.0
C354 C 0.87712 0.32121 0.54906 0.0
C355 C 0.89035 0.32136 0.51825 0.0
C356 C 0.89468 0.3483 0.50233 0.0
C357 C 0.88473 0.37447 0.51613 0.0
C358 C 0.89345 0.26275 0.45331 0.0
C359 C 0.90894 0.24003 0.46892 0.0
C360 C 0.88794 0.28925 0.46929 0.0
C361 C 0.89751 0.29351 0.50136 0.0
C362 C 0.91325 0.27096 0.51698 0.0
C363 C 0.91916 0.24449 0.50077 0.0
H364 H 0.10366 0.93546 0.53583 0.0
H365 H 0.15544 0.87861 0.59771 0.0
H366 H 0.14853 0.95516 0.51206 0.0
H367 H 0.20042 0.89835 0.57368 0.0
H368 H 0.27784 0.94237 0.52341 0.0
H369 H 0.23425 0.94215 0.55842 0.0
H370 H 0.17971 0.92307 0.47517 0.0
H371 H 0.22295 0.92293 0.44049 0.0
C372 C 0.12466 0.92783 0.54508 0.0
C373 C 0.12608 0.90497 0.56805 0.0
C374 C 0.1503 0.93912 0.53144 0.0
C375 C 0.17782 0.92778 0.54054 0.0
C376 C 0.17943 0.90747 0.56624 0.0
C377 C 0.15368 0.89614 0.57998 0.0
C378 C 0.25641 0.93877 0.51257 0.0
C379 C 0.25372 0.93244 0.47929 0.0
C380 C 0.23158 0.93857 0.53261 0.0
C381 C 0.20368 0.9327 0.51948 0.0
C382 C 0.2009 0.92808 0.4859 0.0
C383 C 0.22567 0.92775 0.46606 0.0
H384 H 0.48797 0.7376 0.94961 0.0
H385 H 0.46649 0.78403 0.03782 0.0
H386 H 0.47693 0.69085 0.97599 0.0
H387 H 0.45326 0.73786 0.06353 0.0
H388 H 0.42305 0.65236 0.10366 0.0
H389 H 0.45696 0.69031 0.08447 0.0
H390 H 0.43083 0.6715 0.98561 0.0
H391 H 0.39859 0.63307 0.00462 0.0
C392 C 0.48165 0.73766 0.97494 0.0
C393 C 0.47764 0.76434 0.99156 0.0
C394 C 0.47491 0.71095 0.98999 0.0
C395 C 0.46298 0.71057 0.0215 0.0
C396 C 0.46227 0.73709 0.03926 0.0
C397 C 0.46986 0.76372 0.02449 0.0
C398 C 0.42498 0.65617 0.07782 0.0
C399 C 0.40791 0.63997 0.05568 0.0
C400 C 0.44438 0.67794 0.06679 0.0
C401 C 0.44675 0.68419 0.03343 0.0
C402 C 0.43034 0.66708 0.0114 0.0
C403 C 0.4114 0.64516 0.02236 0.0
H404 H 0.75152 0.48422 0.97512 0.0
H405 H 0.70862 0.42825 0.04504 0.0
H406 H 0.79898 0.47379 1.00026 0.0
H407 H 0.75608 0.41565 0.06861 0.0
H408 H 0.8455 0.38831 0.10106 0.0
H409 H 0.80254 0.42031 0.09373 0.0
H410 H 0.82517 0.43073 0.99246 0.0
H411 H 0.86792 0.40047 1.00007 0.0
C412 C 0.75228 0.4703 0.99646 0.0
C413 C 0.72671 0.45674 0.00801 0.0
C414 C 0.77943 0.46399 0.01067 0.0
C415 C 0.78156 0.44289 0.03564 0.0
C416 C 0.75545 0.43193 0.04943 0.0
C417 C 0.72817 0.43907 0.03588 0.0
C418 C 0.84144 0.39798 0.07743 0.0
C419 C 0.85989 0.39146 0.05104 0.0
C420 C 0.81681 0.41625 0.07321 0.0
C421 C 0.81022 0.42821 0.0425 0.0
C422 C 0.82962 0.42265 0.01668 0.0
C423 C 0.85411 0.40473 0.02092 0.0
H424 H 0.01389 0.75087 0.93941 0.0
H425 H 0.0491 0.70658 0.02343 0.0
H426 H 0.02548 0.79846 0.96373 0.0
H427 H 0.06289 0.75386 0.04686 0.0
H428 H 0.09076 0.84387 0.08088 0.0
H429 H 0.05852 0.80232 0.0677 0.0
H430 H 0.07237 0.81893 0.96552 0.0
H431 H 0.10309 0.8605 0.97859 0.0
C432 C 0.02323 0.75147 0.9636 0.0
C433 C 0.03082 0.72528 0.97954 0.0
C434 C 0.03031 0.77864 0.97737 0.0
C435 C 0.04625 0.78 0.00665 0.0
C436 C 0.05073 0.75379 0.02426 0.0
C437 C 0.04279 0.7266 0.01088 0.0
C438 C 0.08659 0.83867 0.05564 0.0
C439 C 0.0996 0.85537 0.03079 0.0
C440 C 0.06811 0.81491 0.04808 0.0
C441 C 0.0625 0.80733 0.01552 0.0
C442 C 0.07529 0.82446 0.99086 0.0
C443 C 0.09338 0.8482 0.99838 0.0
H444 H 0.64531 0.07622 0.10777 0.0
H445 H 0.62459 0.09125 0.00681 0.0
H446 H 0.68216 0.03964 0.09184 0.0
H447 H 0.66183 0.05643 0.99092 0.0
H448 H 0.72588 0.99587 0.95941 0.0
H449 H 0.67995 0.00928 0.98608 0.0
H450 H 0.7292 0.03971 0.0695 0.0
H451 H 0.77453 0.02397 0.0438 0.0
C452 C 0.64857 0.07167 0.08223 0.0
C453 C 0.63227 0.08686 0.05856 0.0
C454 C 0.66969 0.05072 0.07306 0.0
C455 C 0.67514 0.04487 0.04003 0.0
C456 C 0.65798 0.05952 0.0166 0.0
C457 C 0.63676 0.07999 0.02574 0.0
C458 C 0.72659 0.00409 0.98408 0.0
C459 C 0.75363 0.0093 0.99941 0.0
C460 C 0.70037 0.01223 0.99924 0.0
C461 C 0.70086 0.02689 0.02939 0.0
C462 C 0.72775 0.02868 0.04628 0.0
C463 C 0.75389 0.01962 0.03151 0.0
H464 H 0.47075 0.73791 0.52348 0.0
H465 H 0.40689 0.68579 0.47139 0.0
H466 H 0.45615 0.78134 0.49263 0.0
H467 H 0.39077 0.72947 0.44206 0.0
H468 H 0.36467 0.81532 0.39386 0.0
H469 H 0.39368 0.77139 0.40739 0.0
H470 H 0.41361 0.80914 0.50123 0.0
H471 H 0.38602 0.85266 0.48745 0.0
C472 C 0.45412 0.73564 0.50478 0.0
C473 C 0.43967 0.70869 0.50007 0.0
C474 C 0.44545 0.76055 0.48736 0.0
C475 C 0.42146 0.75919 0.46575 0.0
C476 C 0.40923 0.73146 0.45853 0.0
C477 C 0.41848 0.70634 0.47537 0.0
C478 C 0.37551 0.81417 0.41723 0.0
C479 C 0.37295 0.83747 0.43957 0.0
C480 C 0.39214 0.78905 0.42499 0.0
C481 C 0.40638 0.78676 0.45527 0.0
C482 C 0.40385 0.81029 0.47729 0.0
C483 C 0.38757 0.83526 0.46951 0.0
H484 H 0.77678 0.45852 0.4817 0.0
H485 H 0.72699 0.47959 0.56756 0.0
H486 H 0.73187 0.44438 0.45382 0.0
H487 H 0.68142 0.46827 0.53891 0.0
H488 H 0.62444 0.39074 0.50855 0.0
H489 H 0.66215 0.4229 0.5287 0.0
H490 H 0.68564 0.44648 0.43033 0.0
H491 H 0.64833 0.41226 0.40996 0.0
C492 C 0.75593 0.46159 0.49398 0.0
C493 C 0.75515 0.46967 0.52679 0.0
C494 C 0.73005 0.45354 0.47797 0.0
C495 C 0.7029 0.45414 0.4944 0.0
C496 C 0.702 0.46623 0.52591 0.0
C497 C 0.72799 0.47318 0.54226 0.0
C498 C 0.63738 0.40295 0.49107 0.0
C499 C 0.63362 0.39862 0.45762 0.0
C500 C 0.65893 0.42192 0.50271 0.0
C501 C 0.67712 0.43767 0.48127 0.0
C502 C 0.6724 0.43444 0.44764 0.0
C503 C 0.651 0.4149 0.43591 0.0
H504 H 0.06258 0.63685 0.45259 0.0
H505 H 0.13084 0.6828 0.40012 0.0
H506 H 0.04176 0.68396 0.46962 0.0
H507 H 0.11006 0.72986 0.41755 0.0
H508 H 0.1055 0.77853 0.52051 0.0
H509 H 0.11422 0.73897 0.48194 0.0
H510 H 0.02249 0.73994 0.45468 0.0
H511 H 0.01374 0.7807 0.49306 0.0
C512 C 0.07242 0.65701 0.44362 0.0
C513 C 0.09873 0.65621 0.42571 0.0
C514 C 0.06037 0.68395 0.45321 0.0
C515 C 0.07467 0.71034 0.44527 0.0
C516 C 0.09881 0.70965 0.42404 0.0
C517 C 0.11064 0.68272 0.41406 0.0
C518 C 0.08717 0.7705 0.50618 0.0
C519 C 0.05888 0.7824 0.50997 0.0
C520 C 0.09227 0.74817 0.48378 0.0
C521 C 0.06909 0.73683 0.46507 0.0
C522 C 0.04072 0.7487 0.46862 0.0
C523 C 0.03573 0.77176 0.49059 0.0
H524 H 0.70085 0.04816 0.4626 0.0
H525 H 0.75395 0.004 0.53456 0.0
H526 H 0.7451 0.06364 0.43426 0.0
H527 H 0.79833 0.01775 0.5051 0.0
H528 H 0.85644 0.09947 0.49335 0.0
H529 H 0.81749 0.06593 0.50726 0.0
H530 H 0.79143 0.06088 0.40648 0.0
H531 H 0.8306 0.09576 0.39248 0.0
C532 C 0.72197 0.0404 0.47136 0.0
C533 C 0.72415 0.02552 0.50112 0.0
C534 C 0.74742 0.04927 0.45507 0.0
C535 C 0.77532 0.04286 0.46809 0.0
C536 C 0.77716 0.024 0.49513 0.0
C537 C 0.75179 0.01583 0.51185 0.0
C538 C 0.84264 0.09115 0.47396 0.0
C539 C 0.84642 0.10064 0.44183 0.0
C540 C 0.82045 0.0714 0.48191 0.0
C541 C 0.80141 0.06032 0.45795 0.0
C542 C 0.80566 0.06907 0.42553 0.0
C543 C 0.82803 0.08906 0.41752 0.0
H544 H 0.46257 0.92476 0.048 0.0
H545 H 0.50213 0.94575 0.9556 0.0
H546 H 0.46556 0.97628 0.06397 0.0
H547 H 0.50616 -0.00278 0.97206 0.0
H548 H 0.48932 0.09078 0.99489 0.0
H549 H 0.47666 0.04001 0.98165 0.0
H550 H 0.49966 0.01349 0.07915 0.0
H551 H 0.51125 0.06441 0.09261 0.0
C552 C 0.47234 0.94032 0.03125 0.0
C553 C 0.48219 0.93116 1.00051 0.0
C554 C 0.47402 0.9699 0.04045 0.0
C555 C 0.48578 0.99102 0.01921 0.0
C556 C 0.49627 0.98169 0.98874 0.0
C557 C 0.49437 0.95211 0.97943 0.0
C558 C 0.49072 0.07423 0.01378 0.0
C559 C 0.50149 0.08151 0.04471 0.0
C560 C 0.48391 0.04505 0.00606 0.0
C561 C 0.48801 0.0225 0.02902 0.0
C562 C 0.49627 0.03024 0.06082 0.0
C563 C 0.50277 0.05952 0.06864 0.0
H564 H 0.40631 0.4949 0.006 0.0
H565 H 0.43105 0.51981 0.10347 0.0
H566 H 0.45717 0.48183 0.99437 0.0
H567 H 0.4821 0.50709 0.09161 0.0
H568 H 0.56894 0.46118 0.06025 0.0
H569 H 0.51799 0.46855 0.07675 0.0
H570 H 0.5005 0.51383 0.9866 0.0
H571 H 0.55135 0.50605 0.9698 0.0
C572 C 0.42247 0.49686 0.02522 0.0
C573 C 0.41475 0.50872 0.05552 0.0
C574 C 0.45167 0.48975 0.0184 0.0
C575 C 0.47372 0.49433 0.04175 0.0
C576 C 0.46559 0.50352 0.07306 0.0
C577 C 0.4363 0.51061 0.07992 0.0
C578 C 0.55433 0.47307 0.04411 0.0
C579 C 0.56413 0.48293 0.01362 0.0
C580 C 0.52513 0.47723 0.05359 0.0
C581 C 0.50513 0.49122 0.03271 0.0
C582 C 0.51527 0.50228 0.00287 0.0
C583 C 0.54449 0.4982 0.99342 0.0
H584 H 0.99373 0.56231 0.0124 0.0
H585 H 0.01245 0.54803 0.91091 0.0
H586 H 0.98693 0.50961 0.01993 0.0
H587 H 0.00655 0.49498 0.91862 0.0
H588 H 0.96257 0.40499 0.94272 0.0
H589 H 0.97227 0.45639 0.93027 0.0
H590 H 0.0171 0.46621 0.02214 0.0
H591 H 0.00639 0.41492 0.03516 0.0
C592 C -0.00395 0.5479 0.9916 0.0
C593 C 0.00362 0.55929 0.96107 0.0
C594 C 0.99262 0.51762 0.99601 0.0
C595 C -0.00304 0.49796 0.97007 0.0
C596 C 0.00309 0.50949 0.93913 0.0
C597 C 0.00629 0.5399 0.93465 0.0
C598 C 0.97509 0.41789 0.95999 0.0
C599 C 0.98334 0.40596 0.99016 0.0
C600 C 0.98064 0.44745 0.95281 0.0
C601 C 0.99478 0.46564 0.97555 0.0
C602 C 0.00532 0.453 0.00452 0.0
C603 C -0.00042 0.42347 0.0118 0.0
H604 H 0.06417 0.97607 0.06738 0.0
H605 H 0.07889 -0.00192 0.9668 0.0
H606 H 0.0118 0.98515 0.06045 0.0
H607 H 0.02663 0.00838 0.9601 0.0
H608 H 0.93069 0.9832 0.94658 0.0
H609 H 0.9835 0.979 0.95603 0.0
H610 H 0.9727 0.01824 0.05088 0.0
H611 H 0.91995 0.02124 0.04195 0.0
C612 C 0.05636 0.98391 0.04409 0.0
C613 C 0.07559 0.98614 0.01757 0.0
C614 C 0.02625 0.98902 0.04004 0.0
C615 C 0.01483 -0.00316 0.00948 0.0
C616 C 0.03452 0.00147 0.9837 0.0
C617 C 0.06455 0.99601 0.98765 0.0
C618 C 0.93959 0.99056 0.96958 0.0
C619 C 0.92112 0.00241 0.99353 0.0
C620 C 0.96992 0.98856 0.97487 0.0
C621 C 0.98249 -0.00133 0.00409 0.0
C622 C 0.96385 0.01001 0.02823 0.0
C623 C 0.93353 0.01172 0.02307 0.0
H624 H 0.4326 0.54837 0.47246 0.0
H625 H 0.49283 0.53985 0.55312 0.0
H626 H 0.44319 0.49776 0.45624 0.0
H627 H 0.50366 0.48929 0.53661 0.0
H628 H 0.4944 0.39231 0.52162 0.0
H629 H 0.47722 0.44161 0.53525 0.0
H630 H 0.48379 0.467 0.43457 0.0
H631 H 0.50078 0.41744 0.42079 0.0
C632 C 0.44833 0.53579 0.48656 0.0
C633 C 0.46185 0.54808 0.51416 0.0
C634 C 0.45438 0.5068 0.47721 0.0
C635 C 0.47393 0.48943 0.49537 0.0
C636 C 0.48801 0.50197 0.5225 0.0
C637 C 0.48207 0.53102 0.53177 0.0
C638 C 0.49148 0.40815 0.50223 0.0
C639 C 0.49924 0.40106 0.47016 0.0
C640 C 0.48197 0.4365 0.51012 0.0
C641 C 0.47992 0.45837 0.48612 0.0
C642 C 0.48527 0.45063 0.45362 0.0
C643 C 0.49485 0.42218 0.44569 0.0
H644 H 0.0585 0.50545 0.45952 0.0
H645 H 0.07066 0.55626 0.54722 0.0
H646 H 0.00832 0.49392 0.47628 0.0
H647 H 0.02042 0.54531 0.56354 0.0
H648 H 0.93239 0.49944 0.59084 0.0
H649 H 0.9846 0.50767 0.57979 0.0
H650 H 0.96412 0.5249 0.4792 0.0
H651 H 0.91229 0.5163 0.49006 0.0
C652 C 0.0507 0.51363 0.48266 0.0
C653 C 0.0684 0.53203 0.50185 0.0
C654 C 0.02186 0.50736 0.49208 0.0
C655 C 0.01023 0.51933 0.52085 0.0
C656 C 0.0287 0.53584 0.54121 0.0
C657 C 0.0575 0.54212 0.5318 0.0
C658 C 0.93901 0.50563 0.56655 0.0
C659 C 0.91828 0.50709 0.54128 0.0
C660 C 0.96891 0.51012 0.56017 0.0
C661 C 0.97851 0.51617 0.52845 0.0
C662 C 0.95751 0.51935 0.50369 0.0
C663 C 0.92775 0.51484 0.51002 0.0
H664 H 0.97506 0.94603 0.55479 0.0
H665 H 0.0197 0.92906 0.46417 0.0
H666 H 0.96482 -0.00367 0.53707 0.0
H667 H 0.01054 0.97941 0.44707 0.0
H668 H 0.96593 0.06662 0.41701 0.0
H669 H 0.97533 0.01524 0.43078 0.0
H670 H 0.99298 0.04055 0.53002 0.0
H671 H 0.98258 0.09173 0.51641 0.0
C672 C 0.98227 0.95287 0.53092 0.0
C673 C -0.00167 0.93361 0.511 0.0
C674 C 0.97682 0.98183 0.52093 0.0
C675 C 0.98748 0.99214 0.49094 0.0
C676 C 0.00199 0.97228 0.47028 0.0
C677 C 0.00724 0.94334 0.48014 0.0
C678 C 0.97258 0.06129 0.44155 0.0
C679 C 0.97342 0.08317 0.46566 0.0
C680 C 0.97778 0.03178 0.44953 0.0
C681 C 0.98421 0.02365 0.4817 0.0
C682 C 0.98713 0.04591 0.50524 0.0
C683 C 0.98166 0.07531 0.49734 0.0
H684 H 0.56363 0.02966 0.46259 0.0
H685 H 0.5536 0.97436 0.5472 0.0
H686 H 0.51299 0.01978 0.44713 0.0
H687 H 0.50303 0.96366 0.5311 0.0
H688 H 0.40617 0.97694 0.51625 0.0
H689 H 0.45682 0.98969 0.52915 0.0
H690 H 0.4797 0.9826 0.4277 0.0
H691 H 0.42866 0.97064 0.41471 0.0
C692 C 0.55076 0.01496 0.47763 0.0
C693 C 0.56257 0.00289 0.50625 0.0
C694 C 0.52171 0.00926 0.46867 0.0
C695 C 0.50383 0.99126 0.48807 0.0
C696 C 0.51603 0.97821 0.51602 0.0
C697 C 0.54509 0.98403 0.52507 0.0
C698 C 0.4219 0.97867 0.49662 0.0
C699 C 0.41352 0.97269 0.46449 0.0
C700 C 0.45101 0.98559 0.50406 0.0
C701 C 0.47245 0.98646 0.47957 0.0
C702 C 0.46371 0.98212 0.44715 0.0
C703 C 0.43446 0.9754 0.43966 0.0
H704 H 0.53897 0.27885 0.3319 0.0
H705 H 0.62892 0.3014 0.30954 0.0
H706 H 0.53691 0.24752 0.28365 0.0
H707 H 0.62658 0.27151 0.26072 0.0
H708 H 0.6288 0.19105 0.19869 0.0
H709 H 0.62704 0.22167 0.24695 0.0
H710 H 0.53629 0.24345 0.22624 0.0
H711 H 0.53781 0.21141 0.17853 0.0
C712 C 0.55807 0.27763 0.31625 0.0
C713 C 0.58419 0.29236 0.32461 0.0
C714 C 0.55692 0.25968 0.28856 0.0
C715 C 0.58177 0.25641 0.26848 0.0
C716 C 0.60729 0.27259 0.27608 0.0
C717 C 0.60858 0.29006 0.30393 0.0
C718 C 0.60837 0.20212 0.20463 0.0
C719 C 0.58349 0.19891 0.18476 0.0
C720 C 0.60741 0.22001 0.23216 0.0
C721 C 0.58171 0.2357 0.24027 0.0
C722 C 0.55645 0.23169 0.22092 0.0
C723 C 0.55729 0.21333 0.19354 0.0
H724 H 0.22297 0.54034 0.33488 0.0
H725 H 0.2184 0.63478 0.32286 0.0
H726 H 0.2561 0.5371 0.28811 0.0
H727 H 0.24985 0.6316 0.2757 0.0
H728 H 0.32612 0.6268 0.21107 0.0
H729 H 0.29863 0.62419 0.2615 0.0
H730 H 0.26051 0.54135 0.23088 0.0
H731 H 0.28972 0.5433 0.18112 0.0
C732 C 0.22877 0.56031 0.32199 0.0
C733 C 0.21836 0.58783 0.33266 0.0
C734 C 0.2477 0.55849 0.29517 0.0
C735 C 0.25622 0.58415 0.27834 0.0
C736 C 0.24478 0.61144 0.28858 0.0
C737 C 0.22641 0.61328 0.31551 0.0
C738 C 0.3123 0.60777 0.21546 0.0
C739 C 0.30986 0.58537 0.19219 0.0
C740 C 0.29623 0.60638 0.24421 0.0
C741 C 0.27658 0.58297 0.24999 0.0
C742 C 0.2754 0.55969 0.22739 0.0
C743 C 0.29211 0.56078 0.19885 0.0
H744 H 0.96838 0.27422 0.16668 0.0
H745 H 0.87737 0.29699 0.18287 0.0
H746 H 0.96785 0.24336 0.21549 0.0
H747 H 0.87707 0.26767 0.23205 0.0
H748 H 0.87015 0.18909 0.29457 0.0
H749 H 0.87592 0.21748 0.24508 0.0
H750 H 0.96467 0.24023 0.2735 0.0
H751 H 0.95918 0.2103 0.32255 0.0
C752 C 0.94852 0.27316 0.18112 0.0
C753 C 0.92283 0.28773 0.1709 0.0
C754 C 0.94816 0.25547 0.20904 0.0
C755 C 0.92219 0.25237 0.22736 0.0
C756 C 0.89716 0.26856 0.21799 0.0
C757 C 0.89739 0.28571 0.18997 0.0
C758 C 0.89106 0.19976 0.28998 0.0
C759 C 0.91414 0.19766 0.31245 0.0
C760 C 0.8943 0.21637 0.26177 0.0
C761 C 0.92049 0.23194 0.25564 0.0
C762 C 0.94419 0.22859 0.27738 0.0
C763 C 0.94108 0.21143 0.30547 0.0
H764 H 0.24797 0.86303 0.32173 0.0
H765 H 0.29117 0.9458 0.3013 0.0
H766 H 0.22096 0.86665 0.27107 0.0
H767 H 0.26422 0.94917 0.24988 0.0
H768 H 0.18769 0.9569 0.17521 0.0
H769 H 0.2133 0.95569 0.2276 0.0
H770 H 0.232 0.86316 0.21365 0.0
H771 H 0.20628 0.86421 0.16208 0.0
C772 C 0.25187 0.88196 0.30632 0.0
C773 C 0.2719 0.90404 0.31549 0.0
C774 C 0.23639 0.88398 0.27718 0.0
C775 C 0.24051 0.90813 0.25636 0.0
C776 C 0.26038 0.93041 0.26555 0.0
C777 C 0.276 0.92835 0.29483 0.0
C778 C 0.19703 0.93628 0.18357 0.0
C779 C 0.19482 0.91063 0.16455 0.0
C780 C 0.21193 0.93565 0.21339 0.0
C781 C 0.22466 0.90932 0.22479 0.0
C782 C 0.22212 0.88371 0.20583 0.0
C783 C 0.20742 0.88436 0.17614 0.0
H784 H 0.43371 0.74519 0.84282 0.0
H785 H 0.47816 0.82156 0.80401 0.0
H786 H 0.43778 0.72059 0.79053 0.0
H787 H 0.48188 0.79682 0.75113 0.0
H788 H 0.43546 0.7553 0.65788 0.0
H789 H 0.44242 0.78054 0.70957 0.0
H790 H 0.47685 0.70037 0.75139 0.0
H791 H 0.47017 0.67503 0.69936 0.0
C792 C 0.44446 0.75671 0.8231 0.0
C793 C 0.45543 0.78542 0.82744 0.0
C794 C 0.44703 0.74246 0.79325 0.0
C795 C 0.46025 0.75673 0.76684 0.0
C796 C 0.47157 0.78534 0.77115 0.0
C797 C 0.46946 0.79946 0.80134 0.0
C798 C 0.44492 0.74314 0.67796 0.0
C799 C 0.45204 0.7131 0.67467 0.0
C800 C 0.4491 0.75769 0.70747 0.0
C801 C 0.46007 0.7424 0.73449 0.0
C802 C 0.46821 0.71262 0.73094 0.0
C803 C 0.46448 0.69816 0.70119 0.0
H804 H 0.80724 0.40097 0.70281 0.0
H805 H 0.77601 0.4886 0.68174 0.0
H806 H 0.78355 0.4027 0.75559 0.0
H807 H 0.74975 0.48971 0.73335 0.0
H808 H 0.71795 0.4899 0.83856 0.0
H809 H 0.74698 0.49238 0.78873 0.0
H810 H 0.73861 0.39775 0.77792 0.0
H811 H 0.71209 0.39548 0.82879 0.0
C812 C 0.79529 0.42068 0.70972 0.0
C813 C 0.7935 0.44469 0.68851 0.0
C814 C 0.7812 0.42158 0.73977 0.0
C815 C 0.76382 0.44604 0.74877 0.0
C816 C 0.76299 0.47055 0.72772 0.0
C817 C 0.778 0.46999 0.69805 0.0
C818 C 0.72238 0.46978 0.82527 0.0
C819 C 0.713 0.4425 0.83744 0.0
C820 C 0.73897 0.47111 0.79662 0.0
C821 C 0.7458 0.4452 0.77917 0.0
C822 C 0.73504 0.41813 0.79099 0.0
C823 C 0.71936 0.41677 0.82 0.0
H824 H 0.10573 0.79977 0.69348 0.0
H825 H 0.01607 0.77795 0.66911 0.0
H826 H 0.10321 0.76822 0.74081 0.0
H827 H 0.01391 0.74428 0.71539 0.0
H828 H 0.01295 0.70659 0.8198 0.0
H829 H 0.0117 0.7372 0.77102 0.0
H830 H 0.10445 0.72008 0.75613 0.0
H831 H 0.10578 0.69178 0.80614 0.0
C832 C 0.08547 0.78797 0.69827 0.0
C833 C 0.06112 0.79123 0.67771 0.0
C834 C 0.08408 0.76946 0.72521 0.0
C835 C 0.05857 0.75287 0.73178 0.0
C836 C 0.03389 0.7567 0.71142 0.0
C837 C 0.03507 0.77597 0.68484 0.0
C838 C 0.03285 0.70913 0.80563 0.0
C839 C 0.05948 0.69703 0.81658 0.0
C840 C 0.03222 0.72667 0.77764 0.0
C841 C 0.05813 0.73187 0.75975 0.0
C842 C 0.08425 0.71775 0.76977 0.0
C843 C 0.08502 0.70106 0.79816 0.0
H844 H 0.67417 0.01488 0.69592 0.0
H845 H 0.75578 0.05211 0.6614 0.0
H846 H 0.69592 0.00909 0.75002 0.0
H847 H 0.77745 0.04601 0.71512 0.0
H848 H 0.81363 0.00862 0.81092 0.0
H849 H 0.79197 0.00572 0.75643 0.0
H850 H 0.71298 0.04766 0.79183 0.0
H851 H 0.73456 0.0509 0.84584 0.0
C852 C 0.6968 0.02147 0.69978 0.0
C853 C 0.71319 0.03416 0.67452 0.0
C854 C 0.70921 0.01822 0.73069 0.0
C855 C 0.73837 0.02709 0.7367 0.0
C856 C 0.75505 0.03873 0.71111 0.0
C857 C 0.74252 0.04243 0.68043 0.0
C858 C 0.79157 0.01697 0.80704 0.0
C859 C 0.77588 0.03018 0.83255 0.0
C860 C 0.77922 0.01537 0.77592 0.0
C861 C 0.75077 0.02641 0.76999 0.0
C862 C 0.7348 0.0387 0.79577 0.0
C863 C 0.74729 0.04076 0.82663 0.0
loop_
_geom_bond_atom_site_label_1
_geom_bond_atom_site_label_2
_geom_bond_distance
_geom_bond_site_symmetry_2
_ccdc_geom_bond_type
O0 Cd1 2.223 . S
O0 C8 1.315 . S
Cd1 O0 2.223 . S
Cd1 O4 2.297 . S
Cd1 O5 2.439 . S
Cd1 O11 2.240 . S
Cd2 O3 2.240 . S
Cd2 O10 2.223 . S
Cd2 O12 2.297 . S
Cd2 O13 2.439 . S
O3 Cd2 2.240 . S
O3 C8 1.279 . S
O4 Cd1 2.297 . S
O4 C6 1.247 . S
O5 Cd1 2.439 . S
O5 C6 1.208 . S
C6 O4 1.247 . S
C6 O5 1.208 . S
C7 O12 1.247 . S
C7 O13 1.208 . S
C8 O0 1.315 . S
C8 O3 1.279 . S
C9 O10 1.315 . S
C9 O11 1.279 . S
O10 Cd2 2.223 . S
O10 C9 1.315 . S
O11 Cd1 2.240 . S
O11 C9 1.279 . S
O12 Cd2 2.297 . S
O12 C7 1.247 . S
O13 Cd2 2.439 . S
O13 C7 1.208 . S
O14 Cd15 2.223 . S
O14 C22 1.315 . S
Cd15 O14 2.223 . S
Cd15 O18 2.297 . S
Cd15 O19 2.439 . S
Cd15 O25 2.240 . S
Cd16 O17 2.240 . S
Cd16 O24 2.223 . S
Cd16 O26 2.297 . S
Cd16 O27 2.439 . S
O17 Cd16 2.240 . S
O17 C22 1.279 . S
O18 Cd15 2.297 . S
O18 C20 1.247 . S
O19 Cd15 2.439 . S
O19 C20 1.208 . S
C20 O18 1.247 . S
C20 O19 1.208 . S
C21 O26 1.247 . S
C21 O27 1.208 . S
C22 O14 1.315 . S
C22 O17 1.279 . S
C23 O24 1.315 . S
C23 O25 1.279 . S
O24 Cd16 2.223 . S
O24 C23 1.315 . S
O25 Cd15 2.240 . S
O25 C23 1.279 . S
O26 Cd16 2.297 . S
O26 C21 1.247 . S
O27 Cd16 2.439 . S
O27 C21 1.208 . S
O28 Cd29 2.223 . S
O28 C36 1.315 . S
Cd29 O28 2.223 . S
Cd29 O32 2.297 . S
Cd29 O33 2.439 . S
Cd29 O39 2.240 . S
Cd30 O31 2.240 . S
Cd30 O38 2.223 . S
Cd30 O40 2.297 . S
Cd30 O41 2.439 . S
O31 Cd30 2.240 . S
O31 C36 1.279 . S
O32 Cd29 2.297 . S
O32 C34 1.247 . S
O33 Cd29 2.439 . S
O33 C34 1.208 . S
C34 O32 1.247 . S
C34 O33 1.208 . S
C35 O40 1.247 . S
C35 O41 1.208 . S
C36 O28 1.315 . S
C36 O31 1.279 . S
C37 O38 1.315 . S
C37 O39 1.279 . S
O38 Cd30 2.223 . S
O38 C37 1.315 . S
O39 Cd29 2.240 . S
O39 C37 1.279 . S
O40 Cd30 2.297 . S
O40 C35 1.247 . S
O41 Cd30 2.439 . S
O41 C35 1.208 . S
O42 Cd43 2.223 . S
O42 C50 1.315 . S
Cd43 O42 2.223 . S
Cd43 O46 2.297 . S
Cd43 O47 2.439 . S
Cd43 O53 2.240 . S
Cd44 O45 2.240 . S
Cd44 O52 2.223 . S
Cd44 O54 2.297 . S
Cd44 O55 2.439 . S
O45 Cd44 2.240 . S
O45 C50 1.279 . S
O46 Cd43 2.297 . S
O46 C48 1.247 . S
O47 Cd43 2.439 . S
O47 C48 1.208 . S
C48 O46 1.247 . S
C48 O47 1.208 . S
C49 O54 1.247 . S
C49 O55 1.208 . S
C50 O42 1.315 . S
C50 O45 1.279 . S
C51 O52 1.315 . S
C51 O53 1.279 . S
O52 Cd44 2.223 . S
O52 C51 1.315 . S
O53 Cd43 2.240 . S
O53 C51 1.279 . S
O54 Cd44 2.297 . S
O54 C49 1.247 . S
O55 Cd44 2.439 . S
O55 C49 1.208 . S
O56 Cd57 2.223 . S
O56 C64 1.315 . S
Cd57 O56 2.223 . S
Cd57 O60 2.297 . S
Cd57 O61 2.439 . S
Cd57 O67 2.240 . S
Cd58 O59 2.240 . S
Cd58 O66 2.223 . S
Cd58 O68 2.297 . S
Cd58 O69 2.439 . S
O59 Cd58 2.240 . S
O59 C64 1.279 . S
O60 Cd57 2.297 . S
O60 C62 1.247 . S
O61 Cd57 2.439 . S
O61 C62 1.208 . S
C62 O60 1.247 . S
C62 O61 1.208 . S
C63 O68 1.247 . S
C63 O69 1.208 . S
C64 O56 1.315 . S
C64 O59 1.279 . S
C65 O66 1.315 . S
C65 O67 1.279 . S
O66 Cd58 2.223 . S
O66 C65 1.315 . S
O67 Cd57 2.240 . S
O67 C65 1.279 . S
O68 Cd58 2.297 . S
O68 C63 1.247 . S
O69 Cd58 2.439 . S
O69 C63 1.208 . S
O70 Cd71 2.223 . S
O70 C78 1.315 . S
Cd71 O70 2.223 . S
Cd71 O74 2.297 . S
Cd71 O75 2.439 . S
Cd71 O81 2.240 . S
Cd72 O73 2.240 . S
Cd72 O80 2.223 . S
Cd72 O82 2.297 . S
Cd72 O83 2.439 . S
O73 Cd72 2.240 . S
O73 C78 1.279 . S
O74 Cd71 2.297 . S
O74 C76 1.247 . S
O75 Cd71 2.439 . S
O75 C76 1.208 . S
C76 O74 1.247 . S
C76 O75 1.208 . S
C77 O82 1.247 . S
C77 O83 1.208 . S
C78 O70 1.315 . S
C78 O73 1.279 . S
C79 O80 1.315 . S
C79 O81 1.279 . S
O80 Cd72 2.223 . S
O80 C79 1.315 . S
O81 Cd71 2.240 . S
O81 C79 1.279 . S
O82 Cd72 2.297 . S
O82 C77 1.247 . S
O83 Cd72 2.439 . S
O83 C77 1.208 . S
O84 Cd85 2.223 . S
O84 C92 1.315 . S
Cd85 O84 2.223 . S
Cd85 O88 2.297 . S
Cd85 O89 2.439 . S
Cd85 O95 2.240 . S
Cd86 O87 2.240 . S
Cd86 O94 2.223 . S
Cd86 O96 2.297 . S
Cd86 O97 2.439 . S
O87 Cd86 2.240 . S
O87 C92 1.279 . S
O88 Cd85 2.297 . S
O88 C90 1.247 . S
O89 Cd85 2.439 . S
O89 C90 1.208 . S
C90 O88 1.247 . S
C90 O89 1.208 . S
C91 O96 1.247 . S
C91 O97 1.208 . S
C92 O84 1.315 . S
C92 O87 1.279 . S
C93 O94 1.315 . S
C93 O95 1.279 . S
O94 Cd86 2.223 . S
O94 C93 1.315 . S
O95 Cd85 2.240 . S
O95 C93 1.279 . S
O96 Cd86 2.297 . S
O96 C91 1.247 . S
O97 Cd86 2.439 . S
O97 C91 1.208 . S
O98 Cd99 2.223 . S
O98 C106 1.315 . S
Cd99 O98 2.223 . S
Cd99 O102 2.297 . S
Cd99 O103 2.439 . S
Cd99 O109 2.240 . S
Cd100 O101 2.240 . S
Cd100 O108 2.223 . S
Cd100 O110 2.297 . S
Cd100 O111 2.439 . S
O101 Cd100 2.240 . S
O101 C106 1.279 . S
O102 Cd99 2.297 . S
O102 C104 1.247 . S
O103 Cd99 2.439 . S
O103 C104 1.208 . S
C104 O102 1.247 . S
C104 O103 1.208 . S
C105 O110 1.247 . S
C105 O111 1.208 . S
C106 O98 1.315 . S
C106 O101 1.279 . S
C107 O108 1.315 . S
C107 O109 1.279 . S
O108 Cd100 2.223 . S
O108 C107 1.315 . S
O109 Cd99 2.240 . S
O109 C107 1.279 . S
O110 Cd100 2.297 . S
O110 C105 1.247 . S
O111 Cd100 2.439 . S
O111 C105 1.208 . S
O112 Cd113 2.223 . S
O112 C120 1.315 . S
Cd113 O112 2.223 . S
Cd113 O116 2.297 . S
Cd113 O117 2.439 . S
Cd113 O123 2.240 . S
Cd114 O115 2.240 . S
Cd114 O122 2.223 . S
Cd114 O124 2.297 . S
Cd114 O125 2.439 . S
O115 Cd114 2.240 . S
O115 C120 1.279 . S
O116 Cd113 2.297 . S
O116 C118 1.247 . S
O117 Cd113 2.439 . S
O117 C118 1.208 . S
C118 O116 1.247 . S
C118 O117 1.208 . S
C119 O124 1.247 . S
C119 O125 1.208 . S
C120 O112 1.315 . S
C120 O115 1.279 . S
C121 O122 1.315 . S
C121 O123 1.279 . S
O122 Cd114 2.223 . S
O122 C121 1.315 . S
O123 Cd113 2.240 . S
O123 C121 1.279 . S
O124 Cd114 2.297 . S
O124 C119 1.247 . S
O125 Cd114 2.439 . S
O125 C119 1.208 . S
O126 Cd127 2.223 . S
O126 C134 1.315 . S
Cd127 O126 2.223 . S
Cd127 O130 2.297 . S
Cd127 O131 2.439 . S
Cd127 O137 2.240 . S
Cd128 O129 2.240 . S
Cd128 O136 2.223 . S
Cd128 O138 2.297 . S
Cd128 O139 2.439 . S
O129 Cd128 2.240 . S
O129 C134 1.279 . S
O130 Cd127 2.297 . S
O130 C132 1.247 . S
O131 Cd127 2.439 . S
O131 C132 1.208 . S
C132 O130 1.247 . S
C132 O131 1.208 . S
C133 O138 1.247 . S
C133 O139 1.208 . S
C134 O126 1.315 . S
C134 O129 1.279 . S
C135 O136 1.315 . S
C135 O137 1.279 . S
O136 Cd128 2.223 . S
O136 C135 1.315 . S
O137 Cd127 2.240 . S
O137 C135 1.279 . S
O138 Cd128 2.297 . S
O138 C133 1.247 . S
O139 Cd128 2.439 . S
O139 C133 1.208 . S
O140 Cd141 2.223 . S
O140 C148 1.315 . S
Cd141 O140 2.223 . S
Cd141 O144 2.297 . S
Cd141 O145 2.439 . S
Cd141 O151 2.240 . S
Cd142 O143 2.240 . S
Cd142 O150 2.223 . S
Cd142 O152 2.297 . S
Cd142 O153 2.439 . S
O143 Cd142 2.240 . S
O143 C148 1.279 . S
O144 Cd141 2.297 . S
O144 C146 1.247 . S
O145 Cd141 2.439 . S
O145 C146 1.208 . S
C146 O144 1.247 . S
C146 O145 1.208 . S
C147 O152 1.247 . S
C147 O153 1.208 . S
C148 O140 1.315 . S
C148 O143 1.279 . S
C149 O150 1.315 . S
C149 O151 1.279 . S
O150 Cd142 2.223 . S
O150 C149 1.315 . S
O151 Cd141 2.240 . S
O151 C149 1.279 . S
O152 Cd142 2.297 . S
O152 C147 1.247 . S
O153 Cd142 2.439 . S
O153 C147 1.208 . S
O154 Cd155 2.223 . S
O154 C162 1.315 . S
Cd155 O154 2.223 . S
Cd155 O158 2.297 . S
Cd155 O159 2.439 . S
Cd155 O165 2.240 . S
Cd156 O157 2.240 . S
Cd156 O164 2.223 . S
Cd156 O166 2.297 . S
Cd156 O167 2.439 . S
O157 Cd156 2.240 . S
O157 C162 1.279 . S
O158 Cd155 2.297 . S
O158 C160 1.247 . S
O159 Cd155 2.439 . S
O159 C160 1.208 . S
C160 O158 1.247 . S
C160 O159 1.208 . S
C161 O166 1.247 . S
C161 O167 1.208 . S
C162 O154 1.315 . S
C162 O157 1.279 . S
C163 O164 1.315 . S
C163 O165 1.279 . S
O164 Cd156 2.223 . S
O164 C163 1.315 . S
O165 Cd155 2.240 . S
O165 C163 1.279 . S
O166 Cd156 2.297 . S
O166 C161 1.247 . S
O167 Cd156 2.439 . S
O167 C161 1.208 . S
O168 Cd169 2.223 . S
O168 C176 1.315 . S
Cd169 O168 2.223 . S
Cd169 O172 2.297 . S
Cd169 O173 2.439 . S
Cd169 O179 2.240 . S
Cd170 O171 2.240 . S
Cd170 O178 2.223 . S
Cd170 O180 2.297 . S
Cd170 O181 2.439 . S
O171 Cd170 2.240 . S
O171 C176 1.279 . S
O172 Cd169 2.297 . S
O172 C174 1.247 . S
O173 Cd169 2.439 . S
O173 C174 1.208 . S
C174 O172 1.247 . S
C174 O173 1.208 . S
C175 O180 1.247 . S
C175 O181 1.208 . S
C176 O168 1.315 . S
C176 O171 1.279 . S
C177 O178 1.315 . S
C177 O179 1.279 . S
O178 Cd170 2.223 . S
O178 C177 1.315 . S
O179 Cd169 2.240 . S
O179 C177 1.279 . S
O180 Cd170 2.297 . S
O180 C175 1.247 . S
O181 Cd170 2.439 . S
O181 C175 1.208 . S
O182 Cd183 2.223 . S
O182 C190 1.315 . S
Cd183 O182 2.223 . S
Cd183 O186 2.297 . S
Cd183 O187 2.439 . S
Cd183 O193 2.240 . S
Cd184 O185 2.240 . S
Cd184 O192 2.223 . S
Cd184 O194 2.297 . S
Cd184 O195 2.439 . S
O185 Cd184 2.240 . S
O185 C190 1.279 . S
O186 Cd183 2.297 . S
O186 C188 1.247 . S
O187 Cd183 2.439 . S
O187 C188 1.208 . S
C188 O186 1.247 . S
C188 O187 1.208 . S
C189 O194 1.247 . S
C189 O195 1.208 . S
C190 O182 1.315 . S
C190 O185 1.279 . S
C191 O192 1.315 . S
C191 O193 1.279 . S
O192 Cd184 2.223 . S
O192 C191 1.315 . S
O193 Cd183 2.240 . S
O193 C191 1.279 . S
O194 Cd184 2.297 . S
O194 C189 1.247 . S
O195 Cd184 2.439 . S
O195 C189 1.208 . S
O196 Cd197 2.223 . S
O196 C204 1.315 . S
Cd197 O196 2.223 . S
Cd197 O200 2.297 . S
Cd197 O201 2.439 . S
Cd197 O207 2.240 . S
Cd198 O199 2.240 . S
Cd198 O206 2.223 . S
Cd198 O208 2.297 . S
Cd198 O209 2.439 . S
O199 Cd198 2.240 . S
O199 C204 1.279 . S
O200 Cd197 2.297 . S
O200 C202 1.247 . S
O201 Cd197 2.439 . S
O201 C202 1.208 . S
C202 O200 1.247 . S
C202 O201 1.208 . S
C203 O208 1.247 . S
C203 O209 1.208 . S
C204 O196 1.315 . S
C204 O199 1.279 . S
C205 O206 1.315 . S
C205 O207 1.279 . S
O206 Cd198 2.223 . S
O206 C205 1.315 . S
O207 Cd197 2.240 . S
O207 C205 1.279 . S
O208 Cd198 2.297 . S
O208 C203 1.247 . S
O209 Cd198 2.439 . S
O209 C203 1.208 . S
O210 Cd211 2.223 . S
O210 C218 1.315 . S
Cd211 O210 2.223 . S
Cd211 O214 2.297 . S
Cd211 O215 2.439 . S
Cd211 O221 2.240 . S
Cd212 O213 2.240 . S
Cd212 O220 2.223 . S
Cd212 O222 2.297 . S
Cd212 O223 2.439 . S
O213 Cd212 2.240 . S
O213 C218 1.279 . S
O214 Cd211 2.297 . S
O214 C216 1.247 . S
O215 Cd211 2.439 . S
O215 C216 1.208 . S
C216 O214 1.247 . S
C216 O215 1.208 . S
C217 O222 1.247 . S
C217 O223 1.208 . S
C218 O210 1.315 . S
C218 O213 1.279 . S
C219 O220 1.315 . S
C219 O221 1.279 . S
O220 Cd212 2.223 . S
O220 C219 1.315 . S
O221 Cd211 2.240 . S
O221 C219 1.279 . S
O222 Cd212 2.297 . S
O222 C217 1.247 . S
O223 Cd212 2.439 . S
O223 C217 1.208 . S
H224 C232 0.950 . S
H225 C237 0.958 . S
H226 C234 0.950 . S
H227 C236 0.950 . S
H228 C238 0.950 . S
H229 C240 0.950 . S
H230 C242 0.950 . S
H231 C243 0.950 1_554 S
C232 H224 0.950 . S
C232 C233 1.386 . S
C232 C234 1.391 . S
C233 C232 1.386 . S
C233 C237 1.393 . S
C234 H226 0.950 . S
C234 C232 1.391 . S
C234 C235 1.400 . S
C235 C234 1.400 . S
C235 C236 1.398 1_554 S
C235 C241 1.491 1_554 S
C236 H227 0.950 . S
C236 C235 1.398 1_556 S
C236 C237 1.391 1_556 S
C237 H225 0.958 . S
C237 C233 1.393 . S
C237 C236 1.391 1_554 S
C238 H228 0.950 . S
C238 C239 1.386 . S
C238 C240 1.391 . S
C239 C238 1.386 . S
C239 C243 1.393 . S
C240 H229 0.950 . S
C240 C238 1.391 . S
C240 C241 1.400 . S
C241 C235 1.491 1_556 S
C241 C240 1.400 . S
C241 C242 1.398 1_556 S
C242 H230 0.950 . S
C242 C241 1.398 1_554 S
C242 C243 1.391 1_554 S
C243 H231 0.950 1_556 S
C243 C239 1.393 . S
C243 C242 1.391 1_556 S
H244 C252 0.950 . S
H245 C257 0.950 . S
H246 C254 0.950 1_554 S
H247 C256 0.950 . S
H248 C258 0.950 . S
H249 C260 0.950 . S
H250 C262 0.950 . S
H251 C263 0.950 . S
C252 H244 0.950 . S
C252 C253 1.386 . S
C252 C254 1.391 . S
C253 C252 1.386 . S
C253 C257 1.393 . S
C254 H246 0.950 1_556 S
C254 C252 1.391 . S
C254 C255 1.400 . S
C255 C254 1.400 . S
C255 C256 1.398 . S
C255 C261 1.491 1_556 S
C256 H247 0.950 . S
C256 C255 1.398 . S
C256 C257 1.391 . S
C257 H245 0.950 . S
C257 C253 1.393 . S
C257 C256 1.391 . S
C258 H248 0.950 . S
C258 C259 1.386 . S
C258 C260 1.391 . S
C259 C258 1.386 . S
C259 C263 1.393 . S
C260 H249 0.950 . S
C260 C258 1.391 . S
C260 C261 1.400 . S
C261 C255 1.491 1_554 S
C261 C260 1.400 . S
C261 C262 1.398 . S
C262 H250 0.950 . S
C262 C261 1.398 . S
C262 C263 1.391 . S
C263 H251 0.950 . S
C263 C259 1.393 . S
C263 C262 1.391 . S
H264 C272 0.950 . S
H265 C277 0.950 . S
H266 C274 0.950 . S
H267 C276 0.950 . S
H268 C278 0.950 . S
H269 C280 0.950 . S
H270 C282 0.950 . S
H271 C283 0.950 . S
C272 H264 0.950 . S
C272 C273 1.386 . S
C272 C274 1.391 . S
C273 C272 1.386 . S
C273 C277 1.393 1_556 S
C274 H266 0.950 . S
C274 C272 1.391 . S
C274 C275 1.400 . S
C275 C274 1.400 . S
C275 C276 1.398 1_556 S
C275 C281 1.491 1_556 S
C276 H267 0.950 . S
C276 C275 1.398 1_554 S
C276 C277 1.391 . S
C277 H265 0.950 . S
C277 C273 1.393 1_554 S
C277 C276 1.391 . S
C278 H268 0.950 . S
C278 C279 1.386 . S
C278 C280 1.391 . S
C279 C278 1.386 . S
C279 C283 1.393 1_554 S
C280 H269 0.950 . S
C280 C278 1.391 . S
C280 C281 1.400 . S
C281 C275 1.491 1_554 S
C281 C280 1.400 . S
C281 C282 1.398 1_554 S
C282 H270 0.950 . S
C282 C281 1.398 1_556 S
C282 C283 1.391 . S
C283 H271 0.950 . S
C283 C279 1.393 1_556 S
C283 C282 1.391 . S
H284 C292 0.950 . S
H285 C297 0.950 . S
H286 C294 0.950 . S
H287 C296 0.950 . S
H288 C298 0.950 . S
H289 C300 0.950 . S
H290 C302 0.950 . S
H291 C303 0.950 . S
C292 H284 0.950 . S
C292 C293 1.386 . S
C292 C294 1.391 . S
C293 C292 1.386 . S
C293 C297 1.393 1_556 S
C294 H286 0.950 . S
C294 C292 1.391 . S
C294 C295 1.400 . S
C295 C294 1.400 . S
C295 C296 1.398 1_556 S
C295 C301 1.491 1_556 S
C296 H287 0.950 . S
C296 C295 1.398 1_554 S
C296 C297 1.391 . S
C297 H285 0.950 . S
C297 C293 1.393 1_554 S
C297 C296 1.391 . S
C298 H288 0.950 . S
C298 C299 1.386 . S
C298 C300 1.391 . S
C299 C298 1.386 . S
C299 C303 1.393 1_554 S
C300 H289 0.950 . S
C300 C298 1.391 . S
C300 C301 1.400 . S
C301 C295 1.491 1_554 S
C301 C300 1.400 . S
C301 C302 1.398 1_554 S
C302 H290 0.950 . S
C302 C301 1.398 1_556 S
C302 C303 1.391 . S
C303 H291 0.950 . S
C303 C299 1.393 1_556 S
C303 C302 1.391 . S
H304 C312 0.950 . S
H305 C317 0.950 . S
H306 C314 0.950 . S
H307 C316 0.950 . S
H308 C318 0.950 . S
H309 C320 0.950 . S
H310 C322 0.950 . S
H311 C323 0.950 . S
C312 H304 0.950 . S
C312 C313 1.386 . S
C312 C314 1.391 . S
C313 C312 1.386 . S
C313 C317 1.393 . S
C314 H306 0.950 . S
C314 C312 1.391 . S
C314 C315 1.400 . S
C315 C314 1.400 . S
C315 C316 1.398 . S
C315 C321 1.491 . S
C316 H307 0.950 . S
C316 C315 1.398 . S
C316 C317 1.391 . S
C317 H305 0.950 . S
C317 C313 1.393 . S
C317 C316 1.391 . S
C318 H308 0.950 . S
C318 C319 1.386 . S
C318 C320 1.391 . S
C319 C318 1.386 . S
C319 C323 1.393 . S
C320 H309 0.950 . S
C320 C318 1.391 . S
C320 C321 1.400 . S
C321 C315 1.491 . S
C321 C320 1.400 . S
C321 C322 1.398 . S
C322 H310 0.950 . S
C322 C321 1.398 . S
C322 C323 1.391 . S
C323 H311 0.950 . S
C323 C319 1.393 . S
C323 C322 1.391 . S
H324 C332 0.950 . S
H325 C337 0.950 . S
H326 C334 0.950 . S
H327 C336 0.950 . S
H328 C338 0.950 . S
H329 C340 0.950 . S
H330 C342 0.950 . S
H331 C343 0.950 . S
C332 H324 0.950 . S
C332 C333 1.386 . S
C332 C334 1.391 . S
C333 C332 1.386 . S
C333 C337 1.393 . S
C334 H326 0.950 . S
C334 C332 1.391 . S
C334 C335 1.400 . S
C335 C334 1.400 . S
C335 C336 1.398 . S
C335 C341 1.491 . S
C336 H327 0.950 . S
C336 C335 1.398 . S
C336 C337 1.391 . S
C337 H325 0.950 . S
C337 C333 1.393 . S
C337 C336 1.391 . S
C338 H328 0.950 . S
C338 C339 1.386 . S
C338 C340 1.391 . S
C339 C338 1.386 . S
C339 C343 1.393 . S
C340 H329 0.950 . S
C340 C338 1.391 . S
C340 C341 1.400 . S
C341 C335 1.491 . S
C341 C340 1.400 . S
C341 C342 1.398 . S
C342 H330 0.950 . S
C342 C341 1.398 . S
C342 C343 1.391 . S
C343 H331 0.950 . S
C343 C339 1.393 . S
C343 C342 1.391 . S
H344 C352 0.950 . S
H345 C357 0.950 . S
H346 C354 0.950 . S
H347 C356 0.950 . S
H348 C358 0.950 . S
H349 C360 0.950 . S
H350 C362 0.950 . S
H351 C363 0.950 . S
C352 H344 0.950 . S
C352 C353 1.386 . S
C352 C354 1.391 . S
C353 C352 1.386 . S
C353 C357 1.393 . S
C354 H346 0.950 . S
C354 C352 1.391 . S
C354 C355 1.400 . S
C355 C354 1.400 . S
C355 C356 1.398 . S
C355 C361 1.491 . S
C356 H347 0.950 . S
C356 C355 1.398 . S
C356 C357 1.391 . S
C357 H345 0.950 . S
C357 C353 1.393 . S
C357 C356 1.391 . S
C358 H348 0.950 . S
C358 C359 1.386 . S
C358 C360 1.391 . S
C359 C358 1.386 . S
C359 C363 1.393 . S
C360 H349 0.950 . S
C360 C358 1.391 . S
C360 C361 1.400 . S
C361 C355 1.491 . S
C361 C360 1.400 . S
C361 C362 1.398 . S
C362 H350 0.950 . S
C362 C361 1.398 . S
C362 C363 1.391 . S
C363 H351 0.950 . S
C363 C359 1.393 . S
C363 C362 1.391 . S
H364 C372 0.950 . S
H365 C377 0.950 . S
H366 C374 0.950 . S
H367 C376 0.950 . S
H368 C378 0.950 . S
H369 C380 0.950 . S
H370 C382 0.950 . S
H371 C383 0.950 . S
C372 H364 0.950 . S
C372 C373 1.386 . S
C372 C374 1.391 . S
C373 C372 1.386 . S
C373 C377 1.393 . S
C374 H366 0.950 . S
C374 C372 1.391 . S
C374 C375 1.400 . S
C375 C374 1.400 . S
C375 C376 1.398 . S
C375 C381 1.491 . S
C376 H367 0.950 . S
C376 C375 1.398 . S
C376 C377 1.391 . S
C377 H365 0.950 . S
C377 C373 1.393 . S
C377 C376 1.391 . S
C378 H368 0.950 . S
C378 C379 1.386 . S
C378 C380 1.391 . S
C379 C378 1.386 . S
C379 C383 1.393 . S
C380 H369 0.950 . S
C380 C378 1.391 . S
C380 C381 1.400 . S
C381 C375 1.491 . S
C381 C380 1.400 . S
C381 C382 1.398 . S
C382 H370 0.950 . S
C382 C381 1.398 . S
C382 C383 1.391 . S
C383 H371 0.950 . S
C383 C379 1.393 . S
C383 C382 1.391 . S
H384 C392 0.950 . S
H385 C397 0.950 1_554 S
H386 C394 0.950 . S
H387 C396 0.950 . S
H388 C398 0.950 . S
H389 C400 0.950 . S
H390 C402 0.950 . S
H391 C403 0.950 . S
C392 H384 0.950 . S
C392 C393 1.386 . S
C392 C394 1.391 . S
C393 C392 1.386 . S
C393 C397 1.393 . S
C394 H386 0.950 . S
C394 C392 1.391 . S
C394 C395 1.400 . S
C395 C394 1.400 . S
C395 C396 1.398 1_556 S
C395 C401 1.491 1_556 S
C396 H387 0.950 . S
C396 C395 1.398 1_554 S
C396 C397 1.391 1_554 S
C397 H385 0.950 1_556 S
C397 C393 1.393 . S
C397 C396 1.391 1_556 S
C398 H388 0.950 . S
C398 C399 1.386 . S
C398 C400 1.391 . S
C399 C398 1.386 . S
C399 C403 1.393 1_554 S
C400 H389 0.950 . S
C400 C398 1.391 . S
C400 C401 1.400 . S
C401 C395 1.491 1_554 S
C401 C400 1.400 . S
C401 C402 1.398 1_554 S
C402 H390 0.950 . S
C402 C401 1.398 1_556 S
C402 C403 1.391 . S
C403 H391 0.950 . S
C403 C399 1.393 1_556 S
C403 C402 1.391 . S
H404 C412 0.950 . S
H405 C417 0.950 1_554 S
H406 C414 0.950 . S
H407 C416 0.950 . S
H408 C418 0.950 . S
H409 C420 0.950 . S
H410 C422 0.950 . S
H411 C423 0.950 . S
C412 H404 0.950 . S
C412 C413 1.386 . S
C412 C414 1.391 . S
C413 C412 1.386 . S
C413 C417 1.393 . S
C414 H406 0.950 . S
C414 C412 1.391 . S
C414 C415 1.400 . S
C415 C414 1.400 . S
C415 C416 1.398 1_556 S
C415 C421 1.491 1_556 S
C416 H407 0.950 . S
C416 C415 1.398 1_554 S
C416 C417 1.391 1_554 S
C417 H405 0.950 1_556 S
C417 C413 1.393 . S
C417 C416 1.391 1_556 S
C418 H408 0.950 . S
C418 C419 1.386 . S
C418 C420 1.391 . S
C419 C418 1.386 . S
C419 C423 1.393 1_554 S
C420 H409 0.950 . S
C420 C418 1.391 . S
C420 C421 1.400 . S
C421 C415 1.491 1_554 S
C421 C420 1.400 . S
C421 C422 1.398 1_554 S
C422 H410 0.950 . S
C422 C421 1.398 1_556 S
C422 C423 1.391 . S
C423 H411 0.950 . S
C423 C419 1.393 1_556 S
C423 C422 1.391 . S
H424 C432 0.950 . S
H425 C437 0.950 . S
H426 C434 0.950 . S
H427 C436 0.950 . S
H428 C438 0.950 . S
H429 C440 0.950 . S
H430 C442 0.950 . S
H431 C443 0.950 . S
C432 H424 0.950 . S
C432 C433 1.386 . S
C432 C434 1.391 . S
C433 C432 1.386 . S
C433 C437 1.393 1_556 S
C434 H426 0.950 . S
C434 C432 1.391 . S
C434 C435 1.400 . S
C435 C434 1.400 . S
C435 C436 1.398 1_556 S
C435 C441 1.491 1_556 S
C436 H427 0.950 . S
C436 C435 1.398 1_554 S
C436 C437 1.391 . S
C437 H425 0.950 . S
C437 C433 1.393 1_554 S
C437 C436 1.391 . S
C438 H428 0.950 . S
C438 C439 1.386 . S
C438 C440 1.391 . S
C439 C438 1.386 . S
C439 C443 1.393 1_554 S
C440 H429 0.950 . S
C440 C438 1.391 . S
C440 C441 1.400 . S
C441 C435 1.491 1_554 S
C441 C440 1.400 . S
C441 C442 1.398 1_554 S
C442 H430 0.950 . S
C442 C441 1.398 1_556 S
C442 C443 1.391 . S
C443 H431 0.950 . S
C443 C439 1.393 1_556 S
C443 C442 1.391 . S
H444 C452 0.950 . S
H445 C457 0.950 . S
H446 C454 0.950 . S
H447 C456 0.950 . S
H448 C458 0.950 . S
H449 C460 0.950 . S
H450 C462 0.950 . S
H451 C463 0.950 . S
C452 H444 0.950 . S
C452 C453 1.386 . S
C452 C454 1.391 . S
C453 C452 1.386 . S
C453 C457 1.393 1_554 S
C454 H446 0.950 . S
C454 C452 1.391 . S
C454 C455 1.400 . S
C455 C454 1.400 . S
C455 C456 1.398 1_554 S
C455 C461 1.491 1_554 S
C456 H447 0.950 . S
C456 C455 1.398 1_556 S
C456 C457 1.391 . S
C457 H445 0.950 . S
C457 C453 1.393 1_556 S
C457 C456 1.391 . S
C458 H448 0.950 . S
C458 C459 1.386 . S
C458 C460 1.391 . S
C459 C458 1.386 . S
C459 C463 1.393 1_556 S
C460 H449 0.950 . S
C460 C458 1.391 . S
C460 C461 1.400 . S
C461 C455 1.491 1_556 S
C461 C460 1.400 . S
C461 C462 1.398 1_556 S
C462 H450 0.950 . S
C462 C461 1.398 1_554 S
C462 C463 1.391 . S
C463 H451 0.950 . S
C463 C459 1.393 1_554 S
C463 C462 1.391 . S
H464 C472 0.950 . S
H465 C477 0.950 . S
H466 C474 0.950 . S
H467 C476 0.950 . S
H468 C478 0.950 . S
H469 C480 0.950 . S
H470 C482 0.950 . S
H471 C483 0.950 . S
C472 H464 0.950 . S
C472 C473 1.386 . S
C472 C474 1.391 . S
C473 C472 1.386 . S
C473 C477 1.393 . S
C474 H466 0.950 . S
C474 C472 1.391 . S
C474 C475 1.400 . S
C475 C474 1.400 . S
C475 C476 1.398 . S
C475 C481 1.491 . S
C476 H467 0.950 . S
C476 C475 1.398 . S
C476 C477 1.391 . S
C477 H465 0.950 . S
C477 C473 1.393 . S
C477 C476 1.391 . S
C478 H468 0.950 . S
C478 C479 1.386 . S
C478 C480 1.391 . S
C479 C478 1.386 . S
C479 C483 1.393 . S
C480 H469 0.950 . S
C480 C478 1.391 . S
C480 C481 1.400 . S
C481 C475 1.491 . S
C481 C480 1.400 . S
C481 C482 1.398 . S
C482 H470 0.950 . S
C482 C481 1.398 . S
C482 C483 1.391 . S
C483 H471 0.950 . S
C483 C479 1.393 . S
C483 C482 1.391 . S
H484 C492 0.950 . S
H485 C497 0.950 . S
H486 C494 0.950 . S
H487 C496 0.950 . S
H488 C498 0.950 . S
H489 C500 0.950 . S
H490 C502 0.950 . S
H491 C503 0.950 . S
C492 H484 0.950 . S
C492 C493 1.386 . S
C492 C494 1.391 . S
C493 C492 1.386 . S
C493 C497 1.393 . S
C494 H486 0.950 . S
C494 C492 1.391 . S
C494 C495 1.400 . S
C495 C494 1.400 . S
C495 C496 1.398 . S
C495 C501 1.491 . S
C496 H487 0.950 . S
C496 C495 1.398 . S
C496 C497 1.391 . S
C497 H485 0.950 . S
C497 C493 1.393 . S
C497 C496 1.391 . S
C498 H488 0.950 . S
C498 C499 1.386 . S
C498 C500 1.391 . S
C499 C498 1.386 . S
C499 C503 1.393 . S
C500 H489 0.950 . S
C500 C498 1.391 . S
C500 C501 1.400 . S
C501 C495 1.491 . S
C501 C500 1.400 . S
C501 C502 1.398 . S
C502 H490 0.950 . S
C502 C501 1.398 . S
C502 C503 1.391 . S
C503 H491 0.950 . S
C503 C499 1.393 . S
C503 C502 1.391 . S
H504 C512 0.950 . S
H505 C517 0.950 . S
H506 C514 0.950 . S
H507 C516 0.950 . S
H508 C518 0.950 . S
H509 C520 0.950 . S
H510 C522 0.950 . S
H511 C523 0.950 . S
C512 H504 0.950 . S
C512 C513 1.386 . S
C512 C514 1.391 . S
C513 C512 1.386 . S
C513 C517 1.393 . S
C514 H506 0.950 . S
C514 C512 1.391 . S
C514 C515 1.400 . S
C515 C514 1.400 . S
C515 C516 1.398 . S
C515 C521 1.491 . S
C516 H507 0.950 . S
C516 C515 1.398 . S
C516 C517 1.391 . S
C517 H505 0.950 . S
C517 C513 1.393 . S
C517 C516 1.391 . S
C518 H508 0.950 . S
C518 C519 1.386 . S
C518 C520 1.391 . S
C519 C518 1.386 . S
C519 C523 1.393 . S
C520 H509 0.950 . S
C520 C518 1.391 . S
C520 C521 1.400 . S
C521 C515 1.491 . S
C521 C520 1.400 . S
C521 C522 1.398 . S
C522 H510 0.950 . S
C522 C521 1.398 . S
C522 C523 1.391 . S
C523 H511 0.950 . S
C523 C519 1.393 . S
C523 C522 1.391 . S
H524 C532 0.950 . S
H525 C537 0.950 . S
H526 C534 0.950 . S
H527 C536 0.950 . S
H528 C538 0.950 . S
H529 C540 0.950 . S
H530 C542 0.950 . S
H531 C543 0.950 . S
C532 H524 0.950 . S
C532 C533 1.386 . S
C532 C534 1.391 . S
C533 C532 1.386 . S
C533 C537 1.393 . S
C534 H526 0.950 . S
C534 C532 1.391 . S
C534 C535 1.400 . S
C535 C534 1.400 . S
C535 C536 1.398 . S
C535 C541 1.491 . S
C536 H527 0.950 . S
C536 C535 1.398 . S
C536 C537 1.391 . S
C537 H525 0.950 . S
C537 C533 1.393 . S
C537 C536 1.391 . S
C538 H528 0.950 . S
C538 C539 1.386 . S
C538 C540 1.391 . S
C539 C538 1.386 . S
C539 C543 1.393 . S
C540 H529 0.950 . S
C540 C538 1.391 . S
C540 C541 1.400 . S
C541 C535 1.491 . S
C541 C540 1.400 . S
C541 C542 1.398 . S
C542 H530 0.950 . S
C542 C541 1.398 . S
C542 C543 1.391 . S
C543 H531 0.950 . S
C543 C539 1.393 . S
C543 C542 1.391 . S
H544 C552 0.950 . S
H545 C557 0.950 . S
H546 C554 0.950 1_554 S
H547 C556 0.950 . S
H548 C558 0.950 . S
H549 C560 0.950 1_556 S
H550 C562 0.950 . S
H551 C563 0.950 . S
C552 H544 0.950 . S
C552 C553 1.386 . S
C552 C554 1.391 . S
C553 C552 1.386 . S
C553 C557 1.393 . S
C554 H546 0.950 1_556 S
C554 C552 1.391 . S
C554 C555 1.400 . S
C555 C554 1.400 . S
C555 C556 1.398 . S
C555 C561 1.491 1_566 S
C556 H547 0.950 . S
C556 C555 1.398 . S
C556 C557 1.391 . S
C557 H545 0.950 . S
C557 C553 1.393 . S
C557 C556 1.391 . S
C558 H548 0.950 . S
C558 C559 1.386 . S
C558 C560 1.391 . S
C559 C558 1.386 . S
C559 C563 1.393 . S
C560 H549 0.950 1_554 S
C560 C558 1.391 . S
C560 C561 1.400 . S
C561 C555 1.491 1_544 S
C561 C560 1.400 . S
C561 C562 1.398 . S
C562 H550 0.950 . S
C562 C561 1.398 . S
C562 C563 1.391 . S
C563 H551 0.950 . S
C563 C559 1.393 . S
C563 C562 1.391 . S
H564 C572 0.950 1_556 S
H565 C577 0.950 . S
H566 C574 0.950 . S
H567 C576 0.950 . S
H568 C578 0.950 1_554 S
H569 C580 0.950 . S
H570 C582 0.950 . S
H571 C583 0.950 . S
C572 H564 0.950 1_554 S
C572 C573 1.386 . S
C572 C574 1.391 1_554 S
C573 C572 1.386 . S
C573 C577 1.393 . S
C574 H566 0.950 . S
C574 C572 1.391 1_556 S
C574 C575 1.400 1_556 S
C575 C574 1.400 1_554 S
C575 C576 1.398 . S
C575 C581 1.491 1_554 S
C576 H567 0.950 . S
C576 C575 1.398 . S
C576 C577 1.391 . S
C577 H565 0.950 . S
C577 C573 1.393 . S
C577 C576 1.391 . S
C578 H568 0.950 1_556 S
C578 C579 1.386 . S
C578 C580 1.391 1_556 S
C579 C578 1.386 . S
C579 C583 1.393 . S
C580 H569 0.950 . S
C580 C578 1.391 1_554 S
C580 C581 1.400 1_554 S
C581 C575 1.491 1_556 S
C581 C580 1.400 1_556 S
C581 C582 1.398 . S
C582 H570 0.950 . S
C582 C581 1.398 . S
C582 C583 1.391 . S
C583 H571 0.950 . S
C583 C579 1.393 . S
C583 C582 1.391 . S
H584 C592 0.950 1_554 S
H585 C597 0.950 . S
H586 C594 0.950 . S
H587 C596 0.950 . S
H588 C598 0.950 1_556 S
H589 C600 0.950 . S
H590 C602 0.950 . S
H591 C603 0.950 . S
C592 H584 0.950 1_556 S
C592 C593 1.385 1_655 S
C592 C594 1.391 1_556 S
C593 C592 1.385 1_455 S
C593 C597 1.393 . S
C594 H586 0.950 . S
C594 C592 1.391 1_554 S
C594 C595 1.400 1_654 S
C595 C594 1.400 1_456 S
C595 C596 1.398 . S
C595 C601 1.491 1_456 S
C596 H587 0.950 . S
C596 C595 1.398 . S
C596 C597 1.391 . S
C597 H585 0.950 . S
C597 C593 1.393 . S
C597 C596 1.391 . S
C598 H588 0.950 1_554 S
C598 C599 1.385 1_455 S
C598 C600 1.391 1_554 S
C599 C598 1.385 1_655 S
C599 C603 1.393 . S
C600 H589 0.950 . S
C600 C598 1.391 1_556 S
C600 C601 1.400 1_456 S
C601 C595 1.491 1_654 S
C601 C600 1.400 1_654 S
C601 C602 1.398 . S
C602 H590 0.950 . S
C602 C601 1.398 . S
C602 C603 1.391 . S
C603 H591 0.950 . S
C603 C599 1.393 . S
C603 C602 1.391 . S
H604 C612 0.950 . S
H605 C617 0.951 1_556 S
H606 C614 0.950 . S
H607 C616 0.950 . S
H608 C618 0.950 . S
H609 C620 0.950 . S
H610 C622 0.950 . S
H611 C623 0.951 1_554 S
C612 H604 0.950 . S
C612 C613 1.386 1_545 S
C612 C614 1.391 . S
C613 C612 1.386 1_565 S
C613 C617 1.391 . S
C614 H606 0.950 . S
C614 C612 1.391 . S
C614 C615 1.400 1_545 S
C615 C614 1.400 1_565 S
C615 C616 1.398 1_554 S
C615 C621 1.491 1_464 S
C616 H607 0.950 . S
C616 C615 1.398 1_556 S
C616 C617 1.392 1_556 S
C617 H605 0.951 1_554 S
C617 C613 1.391 . S
C617 C616 1.392 1_554 S
C618 H608 0.950 . S
C618 C619 1.386 1_565 S
C618 C620 1.391 . S
C619 C618 1.386 1_545 S
C619 C623 1.391 . S
C620 H609 0.950 . S
C620 C618 1.391 . S
C620 C621 1.400 1_565 S
C621 C615 1.491 1_646 S
C621 C620 1.400 1_545 S
C621 C622 1.398 1_556 S
C622 H610 0.950 . S
C622 C621 1.398 1_554 S
C622 C623 1.392 1_554 S
C623 H611 0.951 1_556 S
C623 C619 1.391 . S
C623 C622 1.392 1_556 S
H624 C632 0.950 . S
H625 C637 0.950 . S
H626 C634 0.950 . S
H627 C636 0.950 . S
H628 C638 0.950 . S
H629 C640 0.950 . S
H630 C642 0.950 . S
H631 C643 0.950 . S
C632 H624 0.950 . S
C632 C633 1.386 . S
C632 C634 1.391 . S
C633 C632 1.386 . S
C633 C637 1.393 . S
C634 H626 0.950 . S
C634 C632 1.391 . S
C634 C635 1.400 . S
C635 C634 1.400 . S
C635 C636 1.398 . S
C635 C641 1.491 . S
C636 H627 0.950 . S
C636 C635 1.398 . S
C636 C637 1.391 . S
C637 H625 0.950 . S
C637 C633 1.393 . S
C637 C636 1.391 . S
C638 H628 0.950 . S
C638 C639 1.386 . S
C638 C640 1.391 . S
C639 C638 1.386 . S
C639 C643 1.393 . S
C640 H629 0.950 . S
C640 C638 1.391 . S
C640 C641 1.400 . S
C641 C635 1.491 . S
C641 C640 1.400 . S
C641 C642 1.398 . S
C642 H630 0.950 . S
C642 C641 1.398 . S
C642 C643 1.391 . S
C643 H631 0.950 . S
C643 C639 1.393 . S
C643 C642 1.391 . S
H644 C652 0.950 . S
H645 C657 0.950 . S
H646 C654 0.950 . S
H647 C656 0.950 . S
H648 C658 0.950 . S
H649 C660 0.950 . S
H650 C662 0.950 . S
H651 C663 0.950 . S
C652 H644 0.950 . S
C652 C653 1.386 . S
C652 C654 1.391 . S
C653 C652 1.386 . S
C653 C657 1.393 . S
C654 H646 0.950 . S
C654 C652 1.391 . S
C654 C655 1.400 . S
C655 C654 1.400 . S
C655 C656 1.398 . S
C655 C661 1.491 1_455 S
C656 H647 0.950 . S
C656 C655 1.398 . S
C656 C657 1.391 . S
C657 H645 0.950 . S
C657 C653 1.393 . S
C657 C656 1.391 . S
C658 H648 0.950 . S
C658 C659 1.386 . S
C658 C660 1.391 . S
C659 C658 1.386 . S
C659 C663 1.393 . S
C660 H649 0.950 . S
C660 C658 1.391 . S
C660 C661 1.400 . S
C661 C655 1.491 1_655 S
C661 C660 1.400 . S
C661 C662 1.398 . S
C662 H650 0.950 . S
C662 C661 1.398 . S
C662 C663 1.391 . S
C663 H651 0.950 . S
C663 C659 1.393 . S
C663 C662 1.391 . S
H664 C672 0.950 . S
H665 C677 0.950 . S
H666 C674 0.950 . S
H667 C676 0.950 . S
H668 C678 0.950 . S
H669 C680 0.950 . S
H670 C682 0.950 . S
H671 C683 0.950 . S
C672 H664 0.950 . S
C672 C673 1.386 1_655 S
C672 C674 1.391 . S
C673 C672 1.386 1_455 S
C673 C677 1.393 . S
C674 H666 0.950 . S
C674 C672 1.391 . S
C674 C675 1.400 1_655 S
C675 C674 1.400 1_455 S
C675 C676 1.398 . S
C675 C681 1.491 1_465 S
C676 H667 0.950 . S
C676 C675 1.398 . S
C676 C677 1.391 . S
C677 H665 0.950 . S
C677 C673 1.393 . S
C677 C676 1.391 . S
C678 H668 0.950 . S
C678 C679 1.386 1_455 S
C678 C680 1.391 . S
C679 C678 1.386 1_655 S
C679 C683 1.393 . S
C680 H669 0.950 . S
C680 C678 1.391 . S
C680 C681 1.400 1_455 S
C681 C675 1.491 1_645 S
C681 C680 1.400 1_655 S
C681 C682 1.398 . S
C682 H670 0.950 . S
C682 C681 1.398 . S
C682 C683 1.391 . S
C683 H671 0.950 . S
C683 C679 1.393 . S
C683 C682 1.391 . S
H684 C692 0.951 . S
H685 C697 0.950 . S
H686 C694 0.950 . S
H687 C696 0.950 . S
H688 C698 0.951 . S
H689 C700 0.950 . S
H690 C702 0.950 . S
H691 C703 0.950 . S
C692 H684 0.951 . S
C692 C693 1.384 1_565 S
C692 C694 1.392 . S
C693 C692 1.384 1_545 S
C693 C697 1.393 . S
C694 H686 0.950 . S
C694 C692 1.392 . S
C694 C695 1.400 1_565 S
C695 C694 1.400 1_545 S
C695 C696 1.398 . S
C695 C701 1.491 1_545 S
C696 H687 0.950 . S
C696 C695 1.398 . S
C696 C697 1.391 . S
C697 H685 0.950 . S
C697 C693 1.393 . S
C697 C696 1.391 . S
C698 H688 0.951 . S
C698 C699 1.384 1_545 S
C698 C700 1.392 . S
C699 C698 1.384 1_565 S
C699 C703 1.393 . S
C700 H689 0.950 . S
C700 C698 1.392 . S
C700 C701 1.400 1_545 S
C701 C695 1.491 1_565 S
C701 C700 1.400 1_565 S
C701 C702 1.398 . S
C702 H690 0.950 . S
C702 C701 1.398 . S
C702 C703 1.391 . S
C703 H691 0.950 . S
C703 C699 1.393 . S
C703 C702 1.391 . S
H704 C712 0.950 . S
H705 C717 0.950 . S
H706 C714 0.950 . S
H707 C716 0.950 . S
H708 C718 0.950 . S
H709 C720 0.950 . S
H710 C722 0.950 . S
H711 C723 0.950 . S
C712 H704 0.950 . S
C712 C713 1.386 . S
C712 C714 1.391 . S
C713 C712 1.386 . S
C713 C717 1.393 . S
C714 H706 0.950 . S
C714 C712 1.391 . S
C714 C715 1.400 . S
C715 C714 1.400 . S
C715 C716 1.398 . S
C715 C721 1.491 . S
C716 H707 0.950 . S
C716 C715 1.398 . S
C716 C717 1.391 . S
C717 H705 0.950 . S
C717 C713 1.393 . S
C717 C716 1.391 . S
C718 H708 0.950 . S
C718 C719 1.386 . S
C718 C720 1.391 . S
C719 C718 1.386 . S
C719 C723 1.393 . S
C720 H709 0.950 . S
C720 C718 1.391 . S
C720 C721 1.400 . S
C721 C715 1.491 . S
C721 C720 1.400 . S
C721 C722 1.398 . S
C722 H710 0.950 . S
C722 C721 1.398 . S
C722 C723 1.391 . S
C723 H711 0.950 . S
C723 C719 1.393 . S
C723 C722 1.391 . S
H724 C732 0.950 . S
H725 C737 0.950 . S
H726 C734 0.950 . S
H727 C736 0.950 . S
H728 C738 0.950 . S
H729 C740 0.950 . S
H730 C742 0.950 . S
H731 C743 0.950 . S
C732 H724 0.950 . S
C732 C733 1.386 . S
C732 C734 1.391 . S
C733 C732 1.386 . S
C733 C737 1.393 . S
C734 H726 0.950 . S
C734 C732 1.391 . S
C734 C735 1.400 . S
C735 C734 1.400 . S
C735 C736 1.398 . S
C735 C741 1.491 . S
C736 H727 0.950 . S
C736 C735 1.398 . S
C736 C737 1.391 . S
C737 H725 0.950 . S
C737 C733 1.393 . S
C737 C736 1.391 . S
C738 H728 0.950 . S
C738 C739 1.386 . S
C738 C740 1.391 . S
C739 C738 1.386 . S
C739 C743 1.393 . S
C740 H729 0.950 . S
C740 C738 1.391 . S
C740 C741 1.400 . S
C741 C735 1.491 . S
C741 C740 1.400 . S
C741 C742 1.398 . S
C742 H730 0.950 . S
C742 C741 1.398 . S
C742 C743 1.391 . S
C743 H731 0.950 . S
C743 C739 1.393 . S
C743 C742 1.391 . S
H744 C752 0.950 . S
H745 C757 0.950 . S
H746 C754 0.950 . S
H747 C756 0.950 . S
H748 C758 0.950 . S
H749 C760 0.950 . S
H750 C762 0.950 . S
H751 C763 0.950 . S
C752 H744 0.950 . S
C752 C753 1.386 . S
C752 C754 1.391 . S
C753 C752 1.386 . S
C753 C757 1.393 . S
C754 H746 0.950 . S
C754 C752 1.391 . S
C754 C755 1.400 . S
C755 C754 1.400 . S
C755 C756 1.398 . S
C755 C761 1.491 . S
C756 H747 0.950 . S
C756 C755 1.398 . S
C756 C757 1.391 . S
C757 H745 0.950 . S
C757 C753 1.393 . S
C757 C756 1.391 . S
C758 H748 0.950 . S
C758 C759 1.386 . S
C758 C760 1.391 . S
C759 C758 1.386 . S
C759 C763 1.393 . S
C760 H749 0.950 . S
C760 C758 1.391 . S
C760 C761 1.400 . S
C761 C755 1.491 . S
C761 C760 1.400 . S
C761 C762 1.398 . S
C762 H750 0.950 . S
C762 C761 1.398 . S
C762 C763 1.391 . S
C763 H751 0.950 . S
C763 C759 1.393 . S
C763 C762 1.391 . S
H764 C772 0.950 . S
H765 C777 0.950 . S
H766 C774 0.950 . S
H767 C776 0.950 . S
H768 C778 0.950 . S
H769 C780 0.950 . S
H770 C782 0.950 . S
H771 C783 0.950 . S
C772 H764 0.950 . S
C772 C773 1.386 . S
C772 C774 1.391 . S
C773 C772 1.386 . S
C773 C777 1.393 . S
C774 H766 0.950 . S
C774 C772 1.391 . S
C774 C775 1.400 . S
C775 C774 1.400 . S
C775 C776 1.398 . S
C775 C781 1.491 . S
C776 H767 0.950 . S
C776 C775 1.398 . S
C776 C777 1.391 . S
C777 H765 0.950 . S
C777 C773 1.393 . S
C777 C776 1.391 . S
C778 H768 0.950 . S
C778 C779 1.386 . S
C778 C780 1.391 . S
C779 C778 1.386 . S
C779 C783 1.393 . S
C780 H769 0.950 . S
C780 C778 1.391 . S
C780 C781 1.400 . S
C781 C775 1.491 . S
C781 C780 1.400 . S
C781 C782 1.398 . S
C782 H770 0.950 . S
C782 C781 1.398 . S
C782 C783 1.391 . S
C783 H771 0.950 . S
C783 C779 1.393 . S
C783 C782 1.391 . S
H784 C792 0.950 . S
H785 C797 0.950 . S
H786 C794 0.950 . S
H787 C796 0.950 . S
H788 C798 0.950 . S
H789 C800 0.950 . S
H790 C802 0.950 . S
H791 C803 0.950 . S
C792 H784 0.950 . S
C792 C793 1.386 . S
C792 C794 1.391 . S
C793 C792 1.386 . S
C793 C797 1.393 . S
C794 H786 0.950 . S
C794 C792 1.391 . S
C794 C795 1.400 . S
C795 C794 1.400 . S
C795 C796 1.398 . S
C795 C801 1.491 . S
C796 H787 0.950 . S
C796 C795 1.398 . S
C796 C797 1.391 . S
C797 H785 0.950 . S
C797 C793 1.393 . S
C797 C796 1.391 . S
C798 H788 0.950 . S
C798 C799 1.386 . S
C798 C800 1.391 . S
C799 C798 1.386 . S
C799 C803 1.393 . S
C800 H789 0.950 . S
C800 C798 1.391 . S
C800 C801 1.400 . S
C801 C795 1.491 . S
C801 C800 1.400 . S
C801 C802 1.398 . S
C802 H790 0.950 . S
C802 C801 1.398 . S
C802 C803 1.391 . S
C803 H791 0.950 . S
C803 C799 1.393 . S
C803 C802 1.391 . S
H804 C812 0.950 . S
H805 C817 0.950 . S
H806 C814 0.950 . S
H807 C816 0.950 . S
H808 C818 0.950 . S
H809 C820 0.950 . S
H810 C822 0.950 . S
H811 C823 0.950 . S
C812 H804 0.950 . S
C812 C813 1.386 . S
C812 C814 1.391 . S
C813 C812 1.386 . S
C813 C817 1.393 . S
C814 H806 0.950 . S
C814 C812 1.391 . S
C814 C815 1.400 . S
C815 C814 1.400 . S
C815 C816 1.398 . S
C815 C821 1.491 . S
C816 H807 0.950 . S
C816 C815 1.398 . S
C816 C817 1.391 . S
C817 H805 0.950 . S
C817 C813 1.393 . S
C817 C816 1.391 . S
C818 H808 0.950 . S
C818 C819 1.386 . S
C818 C820 1.391 . S
C819 C818 1.386 . S
C819 C823 1.393 . S
C820 H809 0.950 . S
C820 C818 1.391 . S
C820 C821 1.400 . S
C821 C815 1.491 . S
C821 C820 1.400 . S
C821 C822 1.398 . S
C822 H810 0.950 . S
C822 C821 1.398 . S
C822 C823 1.391 . S
C823 H811 0.950 . S
C823 C819 1.393 . S
C823 C822 1.391 . S
H824 C832 0.950 . S
H825 C837 0.950 1_655 S
H826 C834 0.950 . S
H827 C836 0.950 1_655 S
H828 C838 0.950 1_655 S
H829 C840 0.950 1_655 S
H830 C842 0.950 . S
H831 C843 0.950 . S
C832 H824 0.950 . S
C832 C833 1.386 . S
C832 C834 1.391 . S
C833 C832 1.386 . S
C833 C837 1.393 . S
C834 H826 0.950 . S
C834 C832 1.391 . S
C834 C835 1.400 . S
C835 C834 1.400 . S
C835 C836 1.398 . S
C835 C841 1.491 . S
C836 H827 0.950 1_455 S
C836 C835 1.398 . S
C836 C837 1.391 . S
C837 H825 0.950 1_455 S
C837 C833 1.393 . S
C837 C836 1.391 . S
C838 H828 0.950 1_455 S
C838 C839 1.386 . S
C838 C840 1.391 . S
C839 C838 1.386 . S
C839 C843 1.393 . S
C840 H829 0.950 1_455 S
C840 C838 1.391 . S
C840 C841 1.400 . S
C841 C835 1.491 . S
C841 C840 1.400 . S
C841 C842 1.398 . S
C842 H830 0.950 . S
C842 C841 1.398 . S
C842 C843 1.391 . S
C843 H831 0.950 . S
C843 C839 1.393 . S
C843 C842 1.391 . S
H844 C852 0.950 . S
H845 C857 0.950 . S
H846 C854 0.950 . S
H847 C856 0.950 . S
H848 C858 0.950 . S
H849 C860 0.950 . S
H850 C862 0.950 . S
H851 C863 0.950 . S
C852 H844 0.950 . S
C852 C853 1.386 . S
C852 C854 1.391 . S
C853 C852 1.386 . S
C853 C857 1.393 . S
C854 H846 0.950 . S
C854 C852 1.391 . S
C854 C855 1.400 . S
C855 C854 1.400 . S
C855 C856 1.398 . S
C855 C861 1.491 . S
C856 H847 0.950 . S
C856 C855 1.398 . S
C856 C857 1.391 . S
C857 H845 0.950 . S
C857 C853 1.393 . S
C857 C856 1.391 . S
C858 H848 0.950 . S
C858 C859 1.386 . S
C858 C860 1.391 . S
C859 C858 1.386 . S
C859 C863 1.393 . S
C860 H849 0.950 . S
C860 C858 1.391 . S
C860 C861 1.400 . S
C861 C855 1.491 . S
C861 C860 1.400 . S
C861 C862 1.398 . S
C862 H850 0.950 . S
C862 C861 1.398 . S
C862 C863 1.391 . S
C863 H851 0.950 . S
C863 C859 1.393 . S
C863 C862 1.391 . S
C233 C9 1.075 . S
C239 C134 1.125 . S
C253 C148 1.120 . S
C259 C23 1.105 . S
C273 C162 1.132 . S
C279 C37 1.110 . S
C293 C120 1.135 . S
C299 C51 1.105 . S
C313 C65 1.075 . S
C319 C218 1.125 . S
C333 C176 1.122 . S
C339 C79 1.109 . S
C353 C190 1.136 . S
C359 C93 1.092 . S
C373 C204 1.118 . S
C379 C107 1.096 . S
C393 C121 1.097 . S
C399 C22 1.136 . S
C413 C135 1.112 . S
C419 C36 1.128 . S
C433 C149 1.105 . S
C439 C50 1.135 . S
C453 C8 1.119 . S
C459 C163 1.083 . S
C473 C177 1.099 . S
C479 C106 1.136 . S
C493 C191 1.087 . S
C499 C64 1.118 . S
C513 C78 1.126 . S
C519 C205 1.112 . S
C533 C219 1.087 . S
C539 C92 1.118 . S
C553 C118 1.602 . S
C559 C6 1.602 . S
C573 C20 1.611 . S
C579 C132 1.611 . S
C593 C146 1.622 . S
C599 C34 1.622 . S
C613 C48 1.614 . S
C619 C160 1.614 . S
C633 C174 1.623 . S
C639 C62 1.623 . S
C653 C76 1.622 . S
C659 C188 1.622 . S
C673 C202 1.603 . S
C679 C90 1.603 . S
C693 C216 1.622 . S
C699 C104 1.622 . S
C713 C63 1.576 . S
C719 C7 1.584 . S
C733 C77 1.567 . S
C739 C21 1.590 . S
C753 C35 1.588 . S
C759 C91 1.571 . S
C773 C105 1.565 . S
C779 C49 1.587 . S
C793 C119 1.564 . S
C799 C175 1.590 . S
C813 C189 1.572 . S
C819 C133 1.588 . S
C833 C203 1.579 . S
C839 C147 1.582 . S
C853 C217 1.590 . S
C859 C161 1.564 . S
