# Generated by pormake.
# Topology whk, (6)-cn, num edge types: 1
# Building blocks:
#     Node 0, Type 0, BuildingBlock: VOLQOD_clean_sbu_1, # of connection points: 6
#     Node 1, Type 0, BuildingBlock: VOLQOD_clean_sbu_1, # of connection points: 6
#     Node 2, Type 0, BuildingBlock: VOLQOD_clean_sbu_1, # of connection points: 6
#     Node 3, Type 0, BuildingBlock: VOLQOD_clean_sbu_1, # of connection points: 6
#     Node 4, Type 0, BuildingBlock: VOLQOD_clean_sbu_1, # of connection points: 6
#     Node 5, Type 0, BuildingBlock: VOLQOD_clean_sbu_1, # of connection points: 6
#     Node 6, Type 0, BuildingBlock: VOLQOD_clean_sbu_1, # of connection points: 6
#     Node 7, Type 0, BuildingBlock: VOLQOD_clean_sbu_1, # of connection points: 6
#     Node 8, Type 0, BuildingBlock: VOLQOD_clean_sbu_1, # of connection points: 6
#     Node 9, Type 0, BuildingBlock: VOLQOD_clean_sbu_1, # of connection points: 6
#     Node 10, Type 0, BuildingBlock: VOLQOD_clean_sbu_1, # of connection points: 6
#     Node 11, Type 0, BuildingBlock: VOLQOD_clean_sbu_1, # of connection points: 6
#     Node 12, Type 0, BuildingBlock: VOLQOD_clean_sbu_1, # of connection points: 6
#     Node 13, Type 0, BuildingBlock: VOLQOD_clean_sbu_1, # of connection points: 6
#     Node 14, Type 0, BuildingBlock: VOLQOD_clean_sbu_1, # of connection points: 6
#     Node 15, Type 0, BuildingBlock: VOLQOD_clean_sbu_1, # of connection points: 6
#     Edge 16, Type (0, 0), None
#     Edge 17, Type (0, 0), None
#     Edge 18, Type (0, 0), None
#     Edge 19, Type (0, 0), None
#     Edge 20, Type (0, 0), None
#     Edge 21, Type (0, 0), None
#     Edge 22, Type (0, 0), None
#     Edge 23, Type (0, 0), None
#     Edge 24, Type (0, 0), None
#     Edge 25, Type (0, 0), None
#     Edge 26, Type (0, 0), None
#     Edge 27, Type (0, 0), None
#     Edge 28, Type (0, 0), None
#     Edge 29, Type (0, 0), None
#     Edge 30, Type (0, 0), None
#     Edge 31, Type (0, 0), None
#     Edge 32, Type (0, 0), None
#     Edge 33, Type (0, 0), None
#     Edge 34, Type (0, 0), None
#     Edge 35, Type (0, 0), None
#     Edge 36, Type (0, 0), None
#     Edge 37, Type (0, 0), None
#     Edge 38, Type (0, 0), None
#     Edge 39, Type (0, 0), None
#     Edge 40, Type (0, 0), None
#     Edge 41, Type (0, 0), None
#     Edge 42, Type (0, 0), None
#     Edge 43, Type (0, 0), None
#     Edge 44, Type (0, 0), None
#     Edge 45, Type (0, 0), None
#     Edge 46, Type (0, 0), None
#     Edge 47, Type (0, 0), None
#     Edge 48, Type (0, 0), None
#     Edge 49, Type (0, 0), None
#     Edge 50, Type (0, 0), None
#     Edge 51, Type (0, 0), None
#     Edge 52, Type (0, 0), None
#     Edge 53, Type (0, 0), None
#     Edge 54, Type (0, 0), None
#     Edge 55, Type (0, 0), None
#     Edge 56, Type (0, 0), None
#     Edge 57, Type (0, 0), None
#     Edge 58, Type (0, 0), None
#     Edge 59, Type (0, 0), None
#     Edge 60, Type (0, 0), None
#     Edge 61, Type (0, 0), None
#     Edge 62, Type (0, 0), None
#     Edge 63, Type (0, 0), None
# Relax obj value: 0.402
# Max RMSD: 0.247
# Mean RMSD: 0.243
data_MOF--net-whk--node1-VOLQOD_clean_sbu_1--edge1-none
_symmetry_space_group_name_H-M    P1
_symmetry_Int_Tables_number       1
_symmetry_cell_setting            triclinic
loop_
_symmetry_equiv_pos_as_xyz
'x, y, z'
_cell_length_a     19.028481
_cell_length_b     18.744701
_cell_length_c     27.99649
_cell_angle_alpha  90.292937
_cell_angle_beta   90.309476
_cell_angle_gamma 89.88109
loop_
_atom_site_label
_atom_site_type_symbol
_atom_site_fract_x
_atom_site_fract_y
_atom_site_fract_z
_atom_type_partial_charge
O0 O 0.60109 0.2755 0.46755 0.0
Zn1 Zn 0.5749 0.26469 0.40038 0.0
O2 O 0.54235 0.17301 0.38724 0.0
Zn3 Zn 0.61502 0.1119 0.36528 0.0
Zn4 Zn 0.50673 0.14522 0.44614 0.0
Zn5 Zn 0.47963 0.18491 0.33538 0.0
O6 O 0.58919 0.05965 0.30567 0.0
O7 O 0.53045 0.1517 0.27421 0.0
O8 O 0.65178 0.28743 0.35704 0.0
O9 O 0.68775 0.1762 0.34398 0.0
O10 O 0.66431 0.05829 0.41884 0.0
O11 O 0.59102 0.09107 0.47665 0.0
O12 O 0.41574 0.09125 0.42244 0.0
O13 O 0.49898 0.33371 0.39846 0.0
O14 O 0.40635 0.11302 0.34377 0.0
O15 O 0.43012 0.28445 0.34349 0.0
C16 C 0.54878 0.28012 0.49551 0.0
C17 C 0.56576 0.09343 0.26948 0.0
C18 C 0.6491 0.06263 0.46299 0.0
C19 C 0.6968 0.24305 0.34146 0.0
C20 C 0.38594 0.08159 0.38114 0.0
C21 C 0.44297 0.33378 0.37441 0.0
O22 O 0.4964 0.23742 0.49015 0.0
O23 O 0.21013 0.60914 0.47385 0.0
Zn24 Zn 0.2187 0.60136 0.40389 0.0
O25 O 0.30548 0.5572 0.39054 0.0
Zn26 Zn 0.37331 0.62444 0.36983 0.0
Zn27 Zn 0.33601 0.51633 0.4477 0.0
Zn28 Zn 0.29122 0.49242 0.34007 0.0
O29 O 0.42726 0.58832 0.31452 0.0
O30 O 0.33143 0.54038 0.28044 0.0
O31 O 0.21488 0.69697 0.36939 0.0
O32 O 0.32292 0.70235 0.33999 0.0
O33 O 0.42296 0.67456 0.42537 0.0
O34 O 0.38533 0.60111 0.48181 0.0
O35 O 0.39461 0.42798 0.42289 0.0
O36 O 0.14042 0.53172 0.39519 0.0
O37 O 0.35406 0.41074 0.34851 0.0
O38 O 0.19192 0.45136 0.34829 0.0
C39 C 0.20363 0.55052 0.49641 0.0
C40 C 0.39263 0.56928 0.27745 0.0
C41 C 0.41473 0.65968 0.46933 0.0
C42 C 0.26187 0.72791 0.34429 0.0
C43 C 0.39392 0.39327 0.38281 0.0
C44 C 0.14113 0.4708 0.37534 0.0
O45 O 0.24573 0.49827 0.48824 0.0
O46 O 0.8732 0.22727 0.47385 0.0
Zn47 Zn 0.89059 0.23368 0.4055 0.0
O48 O 0.93041 0.32212 0.39308 0.0
Zn49 Zn 0.86014 0.38691 0.37016 0.0
Zn50 Zn 0.96693 0.35491 0.45108 0.0
Zn51 Zn -0.00366 0.30404 0.34505 0.0
O52 O 0.89431 0.43474 0.31237 0.0
O53 O 0.94728 0.33709 0.28275 0.0
O54 O 0.80832 0.22099 0.36631 0.0
O55 O 0.78086 0.3315 0.34533 0.0
O56 O 0.81299 0.44467 0.4226 0.0
O57 O 0.88083 0.40439 0.48138 0.0
O58 O 0.05094 0.4199 0.42577 0.0
O59 O 0.95264 0.1522 0.39754 0.0
O60 O 0.07055 0.37485 0.35274 0.0
O61 O 0.04042 0.20328 0.35905 0.0
C62 C 0.92862 0.2191 0.49887 0.0
C63 C 0.9152 0.39723 0.27704 0.0
C64 C 0.82473 0.43584 0.46696 0.0
C65 C 0.76837 0.26524 0.3454 0.0
C66 C 0.08376 0.42009 0.38531 0.0
C67 C 0.01446 0.15032 0.38187 0.0
O68 O 0.98133 0.26135 0.4931 0.0
O69 O 0.1335 0.96838 0.28264 0.0
Zn70 Zn 0.2073 0.94522 0.33307 0.0
O71 O 0.16826 0.94436 0.39559 0.0
Zn72 Zn 0.18917 0.02362 0.43592 0.0
Zn73 Zn 0.072 0.92424 0.38596 0.0
Zn74 Zn 0.22097 0.87376 0.4235 0.0
O75 O 0.22857 0.00241 0.50525 0.0
O76 O 0.28244 0.90959 0.47338 0.0
O77 O 0.29992 0.00578 0.34198 0.0
O78 O 0.27792 0.05651 0.41282 0.0
O79 O 0.11592 0.0966 0.41586 0.0
O80 O 0.02976 0.02516 0.38818 0.0
O81 O 0.04436 0.84313 0.43502 0.0
O82 O 0.21889 0.83973 0.31784 0.0
O83 O 0.15354 0.80373 0.44913 0.0
O84 O 0.28853 0.8337 0.37928 0.0
C85 C 0.0818 0.92482 0.27891 0.0
C86 C 0.27966 0.95739 0.5052 0.0
C87 C 0.05664 0.08736 0.39475 0.0
C88 C 0.31843 0.04449 0.37822 0.0
C89 C 0.08714 0.79785 0.45398 0.0
C90 C 0.26121 0.80464 0.3433 0.0
O91 O 0.05787 0.89323 0.31591 0.0
O92 O 0.01588 0.84812 0.22683 0.0
Zn93 Zn 0.03665 0.77318 0.17552 0.0
O94 O 0.04005 0.81627 0.11402 0.0
Zn95 Zn 0.96609 0.79609 0.07013 0.0
Zn96 Zn 0.05521 0.91557 0.12422 0.0
Zn97 Zn 0.10963 0.76387 0.08502 0.0
O98 O -0.01114 0.75956 1.00101 0.0
O99 O 0.07444 0.7001 0.03572 0.0
O100 O 0.97323 0.68172 0.16404 0.0
O101 O 0.93027 0.7056 0.09134 0.0
O102 O 0.89382 0.86892 0.08704 0.0
O103 O 0.95172 0.95591 0.12589 0.0
O104 O 0.13547 0.94451 0.07377 0.0
O105 O 0.13978 0.756 0.19209 0.0
O106 O 0.17605 0.83429 0.05897 0.0
O107 O 0.15216 0.69409 0.12685 0.0
C108 C 0.05801 0.90133 0.23074 0.0
C109 C 0.02973 0.70514 1.00255 0.0
C110 C 0.89404 0.92586 0.11262 0.0
C111 C 0.93744 0.66417 0.12639 0.0
C112 C 0.1807 0.90183 0.05426 0.0
C113 C 0.17685 0.71643 0.16568 0.0
O114 O 0.08777 0.9275 0.1938 0.0
O115 O 0.64051 0.02625 0.21802 0.0
Zn116 Zn 0.71151 0.05252 0.16758 0.0
O117 O 0.66768 0.04569 0.10722 0.0
Zn118 Zn 0.68899 0.95925 0.07503 0.0
Zn119 Zn 0.57156 0.06831 0.11638 0.0
Zn120 Zn 0.71922 0.1164 0.07906 0.0
O121 O 0.73727 0.97454 0.00685 0.0
O122 O 0.77979 0.07852 0.03094 0.0
O123 O 0.81229 0.0074 0.15367 0.0
O124 O 0.7725 0.92079 0.10623 0.0
O125 O 0.60782 0.89342 0.09532 0.0
O126 O 0.52317 0.97018 0.11795 0.0
O127 O 0.54269 0.14954 0.06723 0.0
O128 O 0.71402 0.15745 0.18197 0.0
O129 O 0.65212 0.18505 0.05174 0.0
O130 O 0.78584 0.16205 0.12232 0.0
C131 C 0.58856 0.06997 0.22177 0.0
C132 C 0.78276 0.02516 0.00348 0.0
C133 C 0.54762 0.90646 0.11419 0.0
C134 C 0.82338 0.95418 0.12538 0.0
C135 C 0.58589 0.19298 0.04735 0.0
C136 C 0.75796 0.19142 0.1579 0.0
O137 O 0.56319 0.10173 0.18516 0.0
O138 O 0.37502 0.78128 0.04086 0.0
Zn139 Zn 0.37826 0.76514 0.11033 0.0
O140 O 0.423 0.67547 0.11858 0.0
Zn141 Zn 0.3566 0.60753 0.14076 0.0
Zn142 Zn 0.46106 0.64245 0.06077 0.0
Zn143 Zn 0.49319 0.68977 0.16462 0.0
O144 O 0.39934 0.55474 0.19439 0.0
O145 O 0.44699 0.65367 0.22633 0.0
O146 O 0.28234 0.76381 0.14114 0.0
O147 O 0.27965 0.6565 0.17386 0.0
O148 O 0.30496 0.5568 0.0853 0.0
O149 O 0.37579 0.59416 0.02778 0.0
O150 O 0.54725 0.57702 0.08348 0.0
O151 O 0.43825 0.84926 0.12703 0.0
O152 O 0.5701 0.62099 0.15614 0.0
O153 O 0.53418 0.78925 0.14753 0.0
C154 C 0.43093 0.78321 0.01589 0.0
C155 C 0.41817 0.59174 0.23069 0.0
C156 C 0.31833 0.56465 0.04102 0.0
C157 C 0.25248 0.71721 0.16727 0.0
C158 C 0.58319 0.57705 0.12289 0.0
C159 C 0.50457 0.84588 0.13157 0.0
O160 O 0.4789 0.73515 0.02054 0.0
O161 O 0.70634 0.38522 0.03189 0.0
Zn162 Zn 0.71779 0.39534 0.10145 0.0
O163 O 0.8064 0.4365 0.11421 0.0
Zn164 Zn 0.87497 0.36893 0.13499 0.0
Zn165 Zn 0.83534 0.47614 0.05657 0.0
Zn166 Zn 0.79475 0.50032 0.16542 0.0
O167 O 0.92669 0.39982 0.19317 0.0
O168 O 0.83058 0.4493 0.22526 0.0
O169 O 0.71243 0.30104 0.13579 0.0
O170 O 0.82313 0.29048 0.1607 0.0
O171 O 0.9264 0.31927 0.08059 0.0
O172 O 0.88485 0.39008 0.02356 0.0
O173 O 0.89159 0.56623 0.08084 0.0
O174 O 0.64072 0.46619 0.11102 0.0
O175 O 0.86402 0.57702 0.15826 0.0
O176 O 0.69524 0.54583 0.15704 0.0
C177 C 0.70167 0.44242 0.00762 0.0
C178 C 0.89087 0.41861 0.22952 0.0
C179 C 0.91584 0.33233 0.03657 0.0
C180 C 0.76097 0.26759 0.15821 0.0
C181 C 0.89851 0.59685 0.12217 0.0
C182 C 0.64251 0.52695 0.13104 0.0
O183 O 0.74505 0.49376 0.0149 0.0
O184 O 0.36785 0.72276 0.53458 0.0
Zn185 Zn 0.39647 0.7336 0.60146 0.0
O186 O 0.43161 0.82446 0.61517 0.0
Zn187 Zn 0.35846 0.88668 0.63769 0.0
Zn188 Zn 0.46823 0.85183 0.55624 0.0
Zn189 Zn 0.49703 0.80755 0.66543 0.0
O190 O 0.38201 0.92863 0.70157 0.0
O191 O 0.45267 0.84185 0.72861 0.0
O192 O 0.31956 0.71341 0.64555 0.0
O193 O 0.27898 0.82443 0.65064 0.0
O194 O 0.31709 0.95169 0.58656 0.0
O195 O 0.38981 0.91548 0.52934 0.0
O196 O 0.56084 0.90277 0.57739 0.0
O197 O 0.47123 0.66231 0.60174 0.0
O198 O 0.57597 0.87157 0.65412 0.0
O199 O 0.54077 0.70734 0.65776 0.0
C200 C 0.41911 0.71769 0.50578 0.0
C201 C 0.41305 0.89649 0.73583 0.0
C202 C 0.33433 0.94908 0.54273 0.0
C203 C 0.27099 0.75773 0.65533 0.0
C204 C 0.59507 0.90537 0.61732 0.0
C205 C 0.52699 0.65987 0.62601 0.0
O206 O 0.472 0.76007 0.5104 0.0
O207 O 0.7558 0.38115 0.52533 0.0
Zn208 Zn 0.75022 0.40473 0.59317 0.0
O209 O 0.66253 0.44063 0.60896 0.0
Zn210 Zn 0.60162 0.36683 0.63034 0.0
Zn211 Zn 0.63414 0.47985 0.55091 0.0
Zn212 Zn 0.68016 0.50355 0.66026 0.0
O213 O 0.55586 0.39153 0.6925 0.0
O214 O 0.64687 0.45415 0.72162 0.0
O215 O 0.77184 0.32485 0.63479 0.0
O216 O 0.66287 0.28883 0.64923 0.0
O217 O 0.54557 0.32165 0.57594 0.0
O218 O 0.58181 0.39587 0.51933 0.0
O219 O 0.57672 0.56838 0.57612 0.0
O220 O 0.82122 0.47852 0.5955 0.0
O221 O 0.61426 0.58198 0.65186 0.0
O222 O 0.77888 0.54827 0.65256 0.0
C223 C 0.76446 0.43698 0.50042 0.0
C224 C 0.59054 0.41746 0.72773 0.0
C225 C 0.55194 0.33772 0.53199 0.0
C226 C 0.72876 0.27976 0.65143 0.0
C227 C 0.57548 0.60052 0.61715 0.0
C228 C 0.82492 0.53421 0.62058 0.0
O229 O 0.72544 0.49207 0.50807 0.0
O230 O 0.1146 0.7353 0.52268 0.0
Zn231 Zn 0.08038 0.74754 0.58743 0.0
O232 O 0.0446 0.66144 0.60542 0.0
Zn233 Zn 0.11756 0.60165 0.62845 0.0
Zn234 Zn 0.00682 0.63273 0.54665 0.0
Zn235 Zn 0.98437 0.68358 0.65553 0.0
O236 O 0.09212 0.55532 0.68963 0.0
O237 O 0.03327 0.65048 0.71727 0.0
O238 O 0.15616 0.77391 0.63157 0.0
O239 O 0.19323 0.66453 0.64872 0.0
O240 O 0.16294 0.5452 0.5755 0.0
O241 O 0.08723 0.57383 0.51774 0.0
O242 O 0.91629 0.58108 0.57138 0.0
O243 O 0.00581 0.82085 0.58256 0.0
O244 O 0.90446 0.6199 0.64715 0.0
O245 O 0.94572 0.78539 0.64584 0.0
C246 C 0.06684 0.74709 0.49192 0.0
C247 C 0.06838 0.59265 0.72425 0.0
C248 C 0.14604 0.5473 0.53148 0.0
C249 C 0.20058 0.73161 0.65032 0.0
C250 C 0.8845 0.58161 0.61218 0.0
C251 C 0.95512 0.82871 0.61109 0.0
O252 O 0.005 0.72164 0.49894 0.0
O253 O 0.71145 0.11042 0.52807 0.0
Zn254 Zn 0.72669 0.08311 0.59453 0.0
O255 O 0.81723 0.04869 0.60519 0.0
Zn256 Zn 0.87975 0.12128 0.62859 0.0
Zn257 Zn 0.84381 0.0147 0.5449 0.0
Zn258 Zn 0.80481 0.98267 0.65511 0.0
O259 O 0.92695 0.09569 0.6903 0.0
O260 O 0.83864 0.02911 0.71759 0.0
O261 O 0.70858 0.16089 0.63937 0.0
O262 O 0.81853 0.19885 0.64789 0.0
O263 O 0.93667 0.16913 0.57653 0.0
O264 O 0.8959 0.1015 0.51708 0.0
O265 O 0.90292 0.92373 0.56485 0.0
O266 O 0.65686 0.00804 0.59813 0.0
O267 O 0.87169 0.90693 0.64131 0.0
O268 O 0.70642 0.9368 0.65131 0.0
C269 C 0.70679 0.05832 0.49896 0.0
C270 C 0.8936 0.06745 0.7248 0.0
C271 C 0.928 0.15758 0.53203 0.0
C272 C 0.75295 0.20753 0.65276 0.0
C273 C 0.90751 0.88979 0.60493 0.0
C274 C 0.65626 0.95179 0.62242 0.0
O275 O 0.75087 0.00611 0.50181 0.0
O276 O 0.8696 0.26826 0.97126 0.0
Zn277 Zn 0.89847 0.25274 0.90518 0.0
O278 O 0.93306 0.16041 0.8945 0.0
Zn279 Zn 0.85945 0.09787 0.87219 0.0
Zn280 Zn 0.96928 0.13422 0.95435 0.0
Zn281 Zn -0.00108 0.17533 0.84453 0.0
O282 O 0.8815 0.05614 0.80808 0.0
O283 O 0.95406 0.14084 0.78145 0.0
O284 O 0.82146 0.27093 0.86005 0.0
O285 O 0.77903 0.16053 0.85948 0.0
O286 O 0.82084 0.03059 0.92287 0.0
O287 O 0.89238 0.0681 0.98076 0.0
O288 O 0.06315 0.08371 0.9354 0.0
O289 O 0.97313 0.32407 0.90351 0.0
O290 O 0.07696 0.11055 0.85793 0.0
O291 O 0.04362 0.27567 0.84989 0.0
C292 C 0.92017 0.27303 1.00096 0.0
C293 C 0.91304 0.08747 0.77401 0.0
C294 C 0.83825 0.03246 0.96682 0.0
C295 C 0.77191 0.22694 0.85226 0.0
C296 C 0.09682 0.07886 0.8956 0.0
C297 C 0.02912 0.32533 0.87983 0.0
O298 O 0.97153 0.22811 0.99878 0.0
O299 O 0.24195 0.87423 0.98498 0.0
Zn300 Zn 0.23778 0.90783 0.91941 0.0
O301 O 0.32407 0.94345 0.9038 0.0
Zn302 Zn 0.38356 0.86836 0.88179 0.0
Zn303 Zn 0.34901 0.98207 0.96357 0.0
Zn304 Zn 0.3056 0.00522 0.85313 0.0
O305 O 0.42988 0.89158 0.8197 0.0
O306 O 0.33933 0.95574 0.79175 0.0
O307 O 0.21319 0.83141 0.8748 0.0
O308 O 0.3213 0.79121 0.8622 0.0
O309 O 0.43814 0.82313 0.93609 0.0
O310 O 0.40578 0.90008 0.99287 0.0
O311 O 0.40295 0.07388 0.94087 0.0
O312 O 0.16621 0.98294 0.92076 0.0
O313 O 0.36945 0.08517 0.86404 0.0
O314 O 0.20452 0.04446 0.85867 0.0
C315 C 0.23046 0.92271 0.01583 0.0
C316 C 0.39474 0.91774 0.78491 0.0
C317 C 0.43363 0.84072 0.97999 0.0
C318 C 0.25526 0.78474 0.85848 0.0
C319 C 0.40546 0.10552 0.89989 0.0
C320 C 0.15942 0.03381 0.89174 0.0
O321 O 0.25882 0.9844 0.0101 0.0
O322 O 0.61392 0.25807 0.98002 0.0
Zn323 Zn 0.57979 0.24491 0.91507 0.0
O324 O 0.54476 0.33085 0.89558 0.0
Zn325 Zn 0.61991 0.38777 0.87371 0.0
Zn326 Zn 0.50662 0.35907 0.95446 0.0
Zn327 Zn 0.48338 0.30905 0.84538 0.0
O328 O 0.59661 0.4328 0.81129 0.0
O329 O 0.53173 0.34191 0.78315 0.0
O330 O 0.65543 0.21432 0.87265 0.0
O331 O 0.69577 0.32246 0.8564 0.0
O332 O 0.6636 0.44515 0.92744 0.0
O333 O 0.5862 0.41842 0.98405 0.0
O334 O 0.4154 0.41011 0.93044 0.0
O335 O 0.50419 0.17413 0.92029 0.0
O336 O 0.40342 0.37328 0.85419 0.0
O337 O 0.44354 0.20762 0.85623 0.0
C338 C 0.56587 0.24506 0.00995 0.0
C339 C 0.56969 0.39779 0.77648 0.0
C340 C 0.64534 0.44444 0.97115 0.0
C341 C 0.70186 0.25515 0.85534 0.0
C342 C 0.38315 0.41026 0.88963 0.0
C343 C 0.45287 0.16597 0.89202 0.0
O344 O 0.50401 0.27032 1.00222 0.0
O345 O 0.25504 0.61378 0.97684 0.0
Zn346 Zn 0.24753 0.58622 0.90943 0.0
O347 O 0.15913 0.55081 0.89328 0.0
Zn348 Zn 0.10001 0.62667 0.87068 0.0
Zn349 Zn 0.13019 0.51209 0.95138 0.0
Zn350 Zn 0.17676 0.48606 0.84233 0.0
O351 O 0.05733 0.60399 0.8075 0.0
O352 O 0.14332 0.5334 0.77995 0.0
O353 O 0.27085 0.66433 0.86663 0.0
O354 O 0.16251 0.7065 0.85746 0.0
O355 O 0.0367 0.66879 0.92133 0.0
O356 O 0.06882 0.59264 0.97823 0.0
O357 O 0.07776 0.41984 0.92759 0.0
O358 O 0.31761 0.51122 0.9083 0.0
O359 O 0.11274 0.40554 0.85165 0.0
O360 O 0.27667 0.44348 0.84945 0.0
C361 C 0.2602 0.56097 0.00498 0.0
C362 C 0.08932 0.57352 0.77307 0.0
C363 C 0.03779 0.6502 0.96492 0.0
C364 C 0.22855 0.71354 0.85449 0.0
C365 C 0.07635 0.38627 0.88712 0.0
C366 C 0.32244 0.45684 0.88202 0.0
O367 O 0.21982 0.50647 0.99865 0.0
loop_
_geom_bond_atom_site_label_1
_geom_bond_atom_site_label_2
_geom_bond_distance
_geom_bond_site_symmetry_2
_ccdc_geom_bond_type
O0 Zn1 1.953 . S
O0 C16 1.225 . S
Zn1 O0 1.953 . S
Zn1 O2 1.949 . S
Zn1 O8 1.919 . S
Zn1 O13 1.924 . S
O2 Zn1 1.949 . S
O2 Zn3 1.923 . S
O2 Zn4 1.950 . S
O2 Zn5 1.945 . S
Zn3 O2 1.923 . S
Zn3 O6 1.933 . S
Zn3 O9 1.941 . S
Zn3 O10 1.965 . S
Zn4 O2 1.950 . S
Zn4 O11 1.938 . S
Zn4 O12 1.906 . S
Zn4 O22 1.953 . S
Zn5 O2 1.945 . S
Zn5 O7 1.932 . S
Zn5 O14 1.977 . S
Zn5 O15 1.910 . S
O6 Zn3 1.933 . S
O6 C17 1.226 . S
O7 Zn5 1.932 . S
O7 C17 1.307 . S
O8 Zn1 1.919 . S
O8 C19 1.253 . S
O9 Zn3 1.941 . S
O9 C19 1.283 . S
O10 Zn3 1.965 . S
O10 C18 1.303 . S
O11 Zn4 1.938 . S
O11 C18 1.247 . S
O12 Zn4 1.906 . S
O12 C20 1.304 . S
O13 Zn1 1.924 . S
O13 C21 1.311 . S
O14 Zn5 1.977 . S
O14 C20 1.272 . S
O15 Zn5 1.910 . S
O15 C21 1.231 . S
C16 O0 1.225 . S
C16 O22 1.298 . S
C17 O6 1.226 . S
C17 O7 1.307 . S
C18 O10 1.303 . S
C18 O11 1.247 . S
C19 O8 1.253 . S
C19 O9 1.283 . S
C20 O12 1.304 . S
C20 O14 1.272 . S
C21 O13 1.311 . S
C21 O15 1.231 . S
O22 Zn4 1.953 . S
O22 C16 1.298 . S
O23 Zn24 1.953 . S
O23 C39 1.225 . S
Zn24 O23 1.953 . S
Zn24 O25 1.949 . S
Zn24 O31 1.919 . S
Zn24 O36 1.924 . S
O25 Zn24 1.949 . S
O25 Zn26 1.923 . S
O25 Zn27 1.950 . S
O25 Zn28 1.945 . S
Zn26 O25 1.923 . S
Zn26 O29 1.933 . S
Zn26 O32 1.941 . S
Zn26 O33 1.965 . S
Zn27 O25 1.950 . S
Zn27 O34 1.938 . S
Zn27 O35 1.906 . S
Zn27 O45 1.953 . S
Zn28 O25 1.945 . S
Zn28 O30 1.932 . S
Zn28 O37 1.977 . S
Zn28 O38 1.910 . S
O29 Zn26 1.933 . S
O29 C40 1.226 . S
O30 Zn28 1.932 . S
O30 C40 1.307 . S
O31 Zn24 1.919 . S
O31 C42 1.253 . S
O32 Zn26 1.941 . S
O32 C42 1.283 . S
O33 Zn26 1.965 . S
O33 C41 1.303 . S
O34 Zn27 1.938 . S
O34 C41 1.247 . S
O35 Zn27 1.906 . S
O35 C43 1.304 . S
O36 Zn24 1.924 . S
O36 C44 1.311 . S
O37 Zn28 1.977 . S
O37 C43 1.272 . S
O38 Zn28 1.910 . S
O38 C44 1.231 . S
C39 O23 1.225 . S
C39 O45 1.298 . S
C40 O29 1.226 . S
C40 O30 1.307 . S
C41 O33 1.303 . S
C41 O34 1.247 . S
C42 O31 1.253 . S
C42 O32 1.283 . S
C43 O35 1.304 . S
C43 O37 1.272 . S
C44 O36 1.311 . S
C44 O38 1.231 . S
O45 Zn27 1.953 . S
O45 C39 1.298 . S
O46 Zn47 1.953 . S
O46 C62 1.225 . S
Zn47 O46 1.953 . S
Zn47 O48 1.949 . S
Zn47 O54 1.919 . S
Zn47 O59 1.924 . S
O48 Zn47 1.949 . S
O48 Zn49 1.923 . S
O48 Zn50 1.950 . S
O48 Zn51 1.945 1_655 S
Zn49 O48 1.923 . S
Zn49 O52 1.933 . S
Zn49 O55 1.941 . S
Zn49 O56 1.965 . S
Zn50 O48 1.950 . S
Zn50 O57 1.938 . S
Zn50 O58 1.906 1_655 S
Zn50 O68 1.953 . S
Zn51 O48 1.945 1_455 S
Zn51 O53 1.932 1_455 S
Zn51 O60 1.977 . S
Zn51 O61 1.910 . S
O52 Zn49 1.933 . S
O52 C63 1.226 . S
O53 Zn51 1.932 1_655 S
O53 C63 1.307 . S
O54 Zn47 1.919 . S
O54 C65 1.253 . S
O55 Zn49 1.941 . S
O55 C65 1.283 . S
O56 Zn49 1.965 . S
O56 C64 1.303 . S
O57 Zn50 1.938 . S
O57 C64 1.247 . S
O58 Zn50 1.906 1_455 S
O58 C66 1.304 . S
O59 Zn47 1.924 . S
O59 C67 1.311 1_655 S
O60 Zn51 1.977 . S
O60 C66 1.272 . S
O61 Zn51 1.910 . S
O61 C67 1.231 . S
C62 O46 1.225 . S
C62 O68 1.298 . S
C63 O52 1.226 . S
C63 O53 1.307 . S
C64 O56 1.303 . S
C64 O57 1.247 . S
C65 O54 1.253 . S
C65 O55 1.283 . S
C66 O58 1.304 . S
C66 O60 1.272 . S
C67 O59 1.311 1_455 S
C67 O61 1.231 . S
O68 Zn50 1.953 . S
O68 C62 1.298 . S
O69 Zn70 1.953 . S
O69 C85 1.225 . S
Zn70 O69 1.953 . S
Zn70 O71 1.949 . S
Zn70 O77 1.919 . S
Zn70 O82 1.924 . S
O71 Zn70 1.949 . S
O71 Zn72 1.923 1_565 S
O71 Zn73 1.950 . S
O71 Zn74 1.945 . S
Zn72 O71 1.923 1_545 S
Zn72 O75 1.933 . S
Zn72 O78 1.941 . S
Zn72 O79 1.965 . S
Zn73 O71 1.950 . S
Zn73 O80 1.938 1_565 S
Zn73 O81 1.906 . S
Zn73 O91 1.953 . S
Zn74 O71 1.945 . S
Zn74 O76 1.932 . S
Zn74 O83 1.977 . S
Zn74 O84 1.910 . S
O75 Zn72 1.933 . S
O75 C86 1.226 1_545 S
O76 Zn74 1.932 . S
O76 C86 1.307 . S
O77 Zn70 1.919 . S
O77 C88 1.253 1_565 S
O78 Zn72 1.941 . S
O78 C88 1.283 . S
O79 Zn72 1.965 . S
O79 C87 1.303 . S
O80 Zn73 1.938 1_545 S
O80 C87 1.247 . S
O81 Zn73 1.906 . S
O81 C89 1.304 . S
O82 Zn70 1.924 . S
O82 C90 1.311 . S
O83 Zn74 1.977 . S
O83 C89 1.272 . S
O84 Zn74 1.910 . S
O84 C90 1.231 . S
C85 O69 1.225 . S
C85 O91 1.298 . S
C86 O75 1.226 1_565 S
C86 O76 1.307 . S
C87 O79 1.303 . S
C87 O80 1.247 . S
C88 O77 1.253 1_545 S
C88 O78 1.283 . S
C89 O81 1.304 . S
C89 O83 1.272 . S
C90 O82 1.311 . S
C90 O84 1.231 . S
O91 Zn73 1.953 . S
O91 C85 1.298 . S
O92 Zn93 1.953 . S
O92 C108 1.225 . S
Zn93 O92 1.953 . S
Zn93 O94 1.949 . S
Zn93 O100 1.919 . S
Zn93 O105 1.924 . S
O94 Zn93 1.949 . S
O94 Zn95 1.923 1_455 S
O94 Zn96 1.950 . S
O94 Zn97 1.945 . S
Zn95 O94 1.923 1_655 S
Zn95 O98 1.933 . S
Zn95 O101 1.941 . S
Zn95 O102 1.965 . S
Zn96 O94 1.950 . S
Zn96 O103 1.938 1_455 S
Zn96 O104 1.906 . S
Zn96 O114 1.953 . S
Zn97 O94 1.945 . S
Zn97 O99 1.932 . S
Zn97 O106 1.977 . S
Zn97 O107 1.910 . S
O98 Zn95 1.933 . S
O98 C109 1.226 1_654 S
O99 Zn97 1.932 . S
O99 C109 1.307 1_554 S
O100 Zn93 1.919 . S
O100 C111 1.253 1_455 S
O101 Zn95 1.941 . S
O101 C111 1.283 . S
O102 Zn95 1.965 . S
O102 C110 1.303 . S
O103 Zn96 1.938 1_655 S
O103 C110 1.247 . S
O104 Zn96 1.906 . S
O104 C112 1.304 . S
O105 Zn93 1.924 . S
O105 C113 1.311 . S
O106 Zn97 1.977 . S
O106 C112 1.272 . S
O107 Zn97 1.910 . S
O107 C113 1.231 . S
C108 O92 1.225 . S
C108 O114 1.298 . S
C109 O98 1.226 1_456 S
C109 O99 1.307 1_556 S
C110 O102 1.303 . S
C110 O103 1.247 . S
C111 O100 1.253 1_655 S
C111 O101 1.283 . S
C112 O104 1.304 . S
C112 O106 1.272 . S
C113 O105 1.311 . S
C113 O107 1.231 . S
O114 Zn96 1.953 . S
O114 C108 1.298 . S
O115 Zn116 1.953 . S
O115 C131 1.225 . S
Zn116 O115 1.953 . S
Zn116 O117 1.949 . S
Zn116 O123 1.919 . S
Zn116 O128 1.924 . S
O117 Zn116 1.949 . S
O117 Zn118 1.923 1_545 S
O117 Zn119 1.950 . S
O117 Zn120 1.945 . S
Zn118 O117 1.923 1_565 S
Zn118 O121 1.933 . S
Zn118 O124 1.941 . S
Zn118 O125 1.965 . S
Zn119 O117 1.950 . S
Zn119 O126 1.938 1_545 S
Zn119 O127 1.906 . S
Zn119 O137 1.953 . S
Zn120 O117 1.945 . S
Zn120 O122 1.932 . S
Zn120 O129 1.977 . S
Zn120 O130 1.910 . S
O121 Zn118 1.933 . S
O121 C132 1.226 1_564 S
O122 Zn120 1.932 . S
O122 C132 1.307 1_554 S
O123 Zn116 1.919 . S
O123 C134 1.253 1_545 S
O124 Zn118 1.941 . S
O124 C134 1.283 . S
O125 Zn118 1.965 . S
O125 C133 1.303 . S
O126 Zn119 1.938 1_565 S
O126 C133 1.247 . S
O127 Zn119 1.906 . S
O127 C135 1.304 . S
O128 Zn116 1.924 . S
O128 C136 1.311 . S
O129 Zn120 1.977 . S
O129 C135 1.272 . S
O130 Zn120 1.910 . S
O130 C136 1.231 . S
C131 O115 1.225 . S
C131 O137 1.298 . S
C132 O121 1.226 1_546 S
C132 O122 1.307 1_556 S
C133 O125 1.303 . S
C133 O126 1.247 . S
C134 O123 1.253 1_565 S
C134 O124 1.283 . S
C135 O127 1.304 . S
C135 O129 1.272 . S
C136 O128 1.311 . S
C136 O130 1.231 . S
O137 Zn119 1.953 . S
O137 C131 1.298 . S
O138 Zn139 1.953 . S
O138 C154 1.225 1_554 S
Zn139 O138 1.953 . S
Zn139 O140 1.949 . S
Zn139 O146 1.919 . S
Zn139 O151 1.924 . S
O140 Zn139 1.949 . S
O140 Zn141 1.923 . S
O140 Zn142 1.950 . S
O140 Zn143 1.945 . S
Zn141 O140 1.923 . S
Zn141 O144 1.933 . S
Zn141 O147 1.941 . S
Zn141 O148 1.965 . S
Zn142 O140 1.950 . S
Zn142 O149 1.938 . S
Zn142 O150 1.906 . S
Zn142 O160 1.953 1_554 S
Zn143 O140 1.945 . S
Zn143 O145 1.932 . S
Zn143 O152 1.977 . S
Zn143 O153 1.910 . S
O144 Zn141 1.933 . S
O144 C155 1.226 . S
O145 Zn143 1.932 . S
O145 C155 1.307 . S
O146 Zn139 1.919 . S
O146 C157 1.253 . S
O147 Zn141 1.941 . S
O147 C157 1.283 . S
O148 Zn141 1.965 . S
O148 C156 1.303 . S
O149 Zn142 1.938 . S
O149 C156 1.247 . S
O150 Zn142 1.906 . S
O150 C158 1.304 . S
O151 Zn139 1.924 . S
O151 C159 1.311 . S
O152 Zn143 1.977 . S
O152 C158 1.272 . S
O153 Zn143 1.910 . S
O153 C159 1.231 . S
C154 O138 1.225 1_556 S
C154 O160 1.298 . S
C155 O144 1.226 . S
C155 O145 1.307 . S
C156 O148 1.303 . S
C156 O149 1.247 . S
C157 O146 1.253 . S
C157 O147 1.283 . S
C158 O150 1.304 . S
C158 O152 1.272 . S
C159 O151 1.311 . S
C159 O153 1.231 . S
O160 Zn142 1.953 1_556 S
O160 C154 1.298 . S
O161 Zn162 1.953 . S
O161 C177 1.225 1_554 S
Zn162 O161 1.953 . S
Zn162 O163 1.949 . S
Zn162 O169 1.919 . S
Zn162 O174 1.924 . S
O163 Zn162 1.949 . S
O163 Zn164 1.923 . S
O163 Zn165 1.950 . S
O163 Zn166 1.945 . S
Zn164 O163 1.923 . S
Zn164 O167 1.933 . S
Zn164 O170 1.941 . S
Zn164 O171 1.965 . S
Zn165 O163 1.950 . S
Zn165 O172 1.938 . S
Zn165 O173 1.906 . S
Zn165 O183 1.953 1_554 S
Zn166 O163 1.945 . S
Zn166 O168 1.932 . S
Zn166 O175 1.977 . S
Zn166 O176 1.910 . S
O167 Zn164 1.933 . S
O167 C178 1.226 . S
O168 Zn166 1.932 . S
O168 C178 1.307 . S
O169 Zn162 1.919 . S
O169 C180 1.253 . S
O170 Zn164 1.941 . S
O170 C180 1.283 . S
O171 Zn164 1.965 . S
O171 C179 1.303 . S
O172 Zn165 1.938 . S
O172 C179 1.247 . S
O173 Zn165 1.906 . S
O173 C181 1.304 . S
O174 Zn162 1.924 . S
O174 C182 1.311 . S
O175 Zn166 1.977 . S
O175 C181 1.272 . S
O176 Zn166 1.910 . S
O176 C182 1.231 . S
C177 O161 1.225 1_556 S
C177 O183 1.298 . S
C178 O167 1.226 . S
C178 O168 1.307 . S
C179 O171 1.303 . S
C179 O172 1.247 . S
C180 O169 1.253 . S
C180 O170 1.283 . S
C181 O173 1.304 . S
C181 O175 1.272 . S
C182 O174 1.311 . S
C182 O176 1.231 . S
O183 Zn165 1.953 1_556 S
O183 C177 1.298 . S
O184 Zn185 1.953 . S
O184 C200 1.225 . S
Zn185 O184 1.953 . S
Zn185 O186 1.949 . S
Zn185 O192 1.919 . S
Zn185 O197 1.924 . S
O186 Zn185 1.949 . S
O186 Zn187 1.923 . S
O186 Zn188 1.950 . S
O186 Zn189 1.945 . S
Zn187 O186 1.923 . S
Zn187 O190 1.933 . S
Zn187 O193 1.941 . S
Zn187 O194 1.965 . S
Zn188 O186 1.950 . S
Zn188 O195 1.938 . S
Zn188 O196 1.906 . S
Zn188 O206 1.953 . S
Zn189 O186 1.945 . S
Zn189 O191 1.932 . S
Zn189 O198 1.977 . S
Zn189 O199 1.910 . S
O190 Zn187 1.933 . S
O190 C201 1.226 . S
O191 Zn189 1.932 . S
O191 C201 1.307 . S
O192 Zn185 1.919 . S
O192 C203 1.253 . S
O193 Zn187 1.941 . S
O193 C203 1.283 . S
O194 Zn187 1.965 . S
O194 C202 1.303 . S
O195 Zn188 1.938 . S
O195 C202 1.247 . S
O196 Zn188 1.906 . S
O196 C204 1.304 . S
O197 Zn185 1.924 . S
O197 C205 1.311 . S
O198 Zn189 1.977 . S
O198 C204 1.272 . S
O199 Zn189 1.910 . S
O199 C205 1.231 . S
C200 O184 1.225 . S
C200 O206 1.298 . S
C201 O190 1.226 . S
C201 O191 1.307 . S
C202 O194 1.303 . S
C202 O195 1.247 . S
C203 O192 1.253 . S
C203 O193 1.283 . S
C204 O196 1.304 . S
C204 O198 1.272 . S
C205 O197 1.311 . S
C205 O199 1.231 . S
O206 Zn188 1.953 . S
O206 C200 1.298 . S
O207 Zn208 1.953 . S
O207 C223 1.225 . S
Zn208 O207 1.953 . S
Zn208 O209 1.949 . S
Zn208 O215 1.919 . S
Zn208 O220 1.924 . S
O209 Zn208 1.949 . S
O209 Zn210 1.923 . S
O209 Zn211 1.950 . S
O209 Zn212 1.945 . S
Zn210 O209 1.923 . S
Zn210 O213 1.933 . S
Zn210 O216 1.941 . S
Zn210 O217 1.965 . S
Zn211 O209 1.950 . S
Zn211 O218 1.938 . S
Zn211 O219 1.906 . S
Zn211 O229 1.953 . S
Zn212 O209 1.945 . S
Zn212 O214 1.932 . S
Zn212 O221 1.977 . S
Zn212 O222 1.910 . S
O213 Zn210 1.933 . S
O213 C224 1.226 . S
O214 Zn212 1.932 . S
O214 C224 1.307 . S
O215 Zn208 1.919 . S
O215 C226 1.253 . S
O216 Zn210 1.941 . S
O216 C226 1.283 . S
O217 Zn210 1.965 . S
O217 C225 1.303 . S
O218 Zn211 1.938 . S
O218 C225 1.247 . S
O219 Zn211 1.906 . S
O219 C227 1.304 . S
O220 Zn208 1.924 . S
O220 C228 1.311 . S
O221 Zn212 1.977 . S
O221 C227 1.272 . S
O222 Zn212 1.910 . S
O222 C228 1.231 . S
C223 O207 1.225 . S
C223 O229 1.298 . S
C224 O213 1.226 . S
C224 O214 1.307 . S
C225 O217 1.303 . S
C225 O218 1.247 . S
C226 O215 1.253 . S
C226 O216 1.283 . S
C227 O219 1.304 . S
C227 O221 1.272 . S
C228 O220 1.311 . S
C228 O222 1.231 . S
O229 Zn211 1.953 . S
O229 C223 1.298 . S
O230 Zn231 1.953 . S
O230 C246 1.225 . S
Zn231 O230 1.953 . S
Zn231 O232 1.949 . S
Zn231 O238 1.919 . S
Zn231 O243 1.924 . S
O232 Zn231 1.949 . S
O232 Zn233 1.923 . S
O232 Zn234 1.950 . S
O232 Zn235 1.945 1_455 S
Zn233 O232 1.923 . S
Zn233 O236 1.933 . S
Zn233 O239 1.941 . S
Zn233 O240 1.965 . S
Zn234 O232 1.950 . S
Zn234 O241 1.938 . S
Zn234 O242 1.906 1_455 S
Zn234 O252 1.953 . S
Zn235 O232 1.945 1_655 S
Zn235 O237 1.932 1_655 S
Zn235 O244 1.977 . S
Zn235 O245 1.910 . S
O236 Zn233 1.933 . S
O236 C247 1.226 . S
O237 Zn235 1.932 1_455 S
O237 C247 1.307 . S
O238 Zn231 1.919 . S
O238 C249 1.253 . S
O239 Zn233 1.941 . S
O239 C249 1.283 . S
O240 Zn233 1.965 . S
O240 C248 1.303 . S
O241 Zn234 1.938 . S
O241 C248 1.247 . S
O242 Zn234 1.906 1_655 S
O242 C250 1.304 . S
O243 Zn231 1.924 . S
O243 C251 1.311 1_455 S
O244 Zn235 1.977 . S
O244 C250 1.272 . S
O245 Zn235 1.910 . S
O245 C251 1.231 . S
C246 O230 1.225 . S
C246 O252 1.298 . S
C247 O236 1.226 . S
C247 O237 1.307 . S
C248 O240 1.303 . S
C248 O241 1.247 . S
C249 O238 1.253 . S
C249 O239 1.283 . S
C250 O242 1.304 . S
C250 O244 1.272 . S
C251 O243 1.311 1_655 S
C251 O245 1.231 . S
O252 Zn234 1.953 . S
O252 C246 1.298 . S
O253 Zn254 1.953 . S
O253 C269 1.225 . S
Zn254 O253 1.953 . S
Zn254 O255 1.949 . S
Zn254 O261 1.919 . S
Zn254 O266 1.924 . S
O255 Zn254 1.949 . S
O255 Zn256 1.923 . S
O255 Zn257 1.950 . S
O255 Zn258 1.945 1_545 S
Zn256 O255 1.923 . S
Zn256 O259 1.933 . S
Zn256 O262 1.941 . S
Zn256 O263 1.965 . S
Zn257 O255 1.950 . S
Zn257 O264 1.938 . S
Zn257 O265 1.906 1_545 S
Zn257 O275 1.953 . S
Zn258 O255 1.945 1_565 S
Zn258 O260 1.932 1_565 S
Zn258 O267 1.977 . S
Zn258 O268 1.910 . S
O259 Zn256 1.933 . S
O259 C270 1.226 . S
O260 Zn258 1.932 1_545 S
O260 C270 1.307 . S
O261 Zn254 1.919 . S
O261 C272 1.253 . S
O262 Zn256 1.941 . S
O262 C272 1.283 . S
O263 Zn256 1.965 . S
O263 C271 1.303 . S
O264 Zn257 1.938 . S
O264 C271 1.247 . S
O265 Zn257 1.906 1_565 S
O265 C273 1.304 . S
O266 Zn254 1.924 . S
O266 C274 1.311 1_545 S
O267 Zn258 1.977 . S
O267 C273 1.272 . S
O268 Zn258 1.910 . S
O268 C274 1.231 . S
C269 O253 1.225 . S
C269 O275 1.298 . S
C270 O259 1.226 . S
C270 O260 1.307 . S
C271 O263 1.303 . S
C271 O264 1.247 . S
C272 O261 1.253 . S
C272 O262 1.283 . S
C273 O265 1.304 . S
C273 O267 1.272 . S
C274 O266 1.311 1_565 S
C274 O268 1.231 . S
O275 Zn257 1.953 . S
O275 C269 1.298 . S
O276 Zn277 1.953 . S
O276 C292 1.225 1_556 S
Zn277 O276 1.953 . S
Zn277 O278 1.949 . S
Zn277 O284 1.919 . S
Zn277 O289 1.924 . S
O278 Zn277 1.949 . S
O278 Zn279 1.923 . S
O278 Zn280 1.950 . S
O278 Zn281 1.945 1_655 S
Zn279 O278 1.923 . S
Zn279 O282 1.933 . S
Zn279 O285 1.941 . S
Zn279 O286 1.965 . S
Zn280 O278 1.950 . S
Zn280 O287 1.938 . S
Zn280 O288 1.906 1_655 S
Zn280 O298 1.953 1_556 S
Zn281 O278 1.945 1_455 S
Zn281 O283 1.932 1_455 S
Zn281 O290 1.977 . S
Zn281 O291 1.910 . S
O282 Zn279 1.933 . S
O282 C293 1.226 . S
O283 Zn281 1.932 1_655 S
O283 C293 1.307 . S
O284 Zn277 1.919 . S
O284 C295 1.253 . S
O285 Zn279 1.941 . S
O285 C295 1.283 . S
O286 Zn279 1.965 . S
O286 C294 1.303 . S
O287 Zn280 1.938 . S
O287 C294 1.247 . S
O288 Zn280 1.906 1_455 S
O288 C296 1.304 . S
O289 Zn277 1.924 . S
O289 C297 1.311 1_655 S
O290 Zn281 1.977 . S
O290 C296 1.272 . S
O291 Zn281 1.910 . S
O291 C297 1.231 . S
C292 O276 1.225 1_554 S
C292 O298 1.298 . S
C293 O282 1.226 . S
C293 O283 1.307 . S
C294 O286 1.303 . S
C294 O287 1.247 . S
C295 O284 1.253 . S
C295 O285 1.283 . S
C296 O288 1.304 . S
C296 O290 1.272 . S
C297 O289 1.311 1_455 S
C297 O291 1.231 . S
O298 Zn280 1.953 1_554 S
O298 C292 1.298 . S
O299 Zn300 1.953 . S
O299 C315 1.225 1_556 S
Zn300 O299 1.953 . S
Zn300 O301 1.949 . S
Zn300 O307 1.919 . S
Zn300 O312 1.924 . S
O301 Zn300 1.949 . S
O301 Zn302 1.923 . S
O301 Zn303 1.950 . S
O301 Zn304 1.945 1_565 S
Zn302 O301 1.923 . S
Zn302 O305 1.933 . S
Zn302 O308 1.941 . S
Zn302 O309 1.965 . S
Zn303 O301 1.950 . S
Zn303 O310 1.938 . S
Zn303 O311 1.906 1_565 S
Zn303 O321 1.953 1_556 S
Zn304 O301 1.945 1_545 S
Zn304 O306 1.932 1_545 S
Zn304 O313 1.977 . S
Zn304 O314 1.910 . S
O305 Zn302 1.933 . S
O305 C316 1.226 . S
O306 Zn304 1.932 1_565 S
O306 C316 1.307 . S
O307 Zn300 1.919 . S
O307 C318 1.253 . S
O308 Zn302 1.941 . S
O308 C318 1.283 . S
O309 Zn302 1.965 . S
O309 C317 1.303 . S
O310 Zn303 1.938 . S
O310 C317 1.247 . S
O311 Zn303 1.906 1_545 S
O311 C319 1.304 . S
O312 Zn300 1.924 . S
O312 C320 1.311 1_565 S
O313 Zn304 1.977 . S
O313 C319 1.272 . S
O314 Zn304 1.910 . S
O314 C320 1.231 . S
C315 O299 1.225 1_554 S
C315 O321 1.298 . S
C316 O305 1.226 . S
C316 O306 1.307 . S
C317 O309 1.303 . S
C317 O310 1.247 . S
C318 O307 1.253 . S
C318 O308 1.283 . S
C319 O311 1.304 . S
C319 O313 1.272 . S
C320 O312 1.311 1_545 S
C320 O314 1.231 . S
O321 Zn303 1.953 1_554 S
O321 C315 1.298 . S
O322 Zn323 1.953 . S
O322 C338 1.225 1_556 S
Zn323 O322 1.953 . S
Zn323 O324 1.949 . S
Zn323 O330 1.919 . S
Zn323 O335 1.924 . S
O324 Zn323 1.949 . S
O324 Zn325 1.923 . S
O324 Zn326 1.950 . S
O324 Zn327 1.945 . S
Zn325 O324 1.923 . S
Zn325 O328 1.933 . S
Zn325 O331 1.941 . S
Zn325 O332 1.965 . S
Zn326 O324 1.950 . S
Zn326 O333 1.938 . S
Zn326 O334 1.906 . S
Zn326 O344 1.953 1_556 S
Zn327 O324 1.945 . S
Zn327 O329 1.932 . S
Zn327 O336 1.977 . S
Zn327 O337 1.910 . S
O328 Zn325 1.933 . S
O328 C339 1.226 . S
O329 Zn327 1.932 . S
O329 C339 1.307 . S
O330 Zn323 1.919 . S
O330 C341 1.253 . S
O331 Zn325 1.941 . S
O331 C341 1.283 . S
O332 Zn325 1.965 . S
O332 C340 1.303 . S
O333 Zn326 1.938 . S
O333 C340 1.247 . S
O334 Zn326 1.906 . S
O334 C342 1.304 . S
O335 Zn323 1.924 . S
O335 C343 1.311 . S
O336 Zn327 1.977 . S
O336 C342 1.272 . S
O337 Zn327 1.910 . S
O337 C343 1.231 . S
C338 O322 1.225 1_554 S
C338 O344 1.298 . S
C339 O328 1.226 . S
C339 O329 1.307 . S
C340 O332 1.303 . S
C340 O333 1.247 . S
C341 O330 1.253 . S
C341 O331 1.283 . S
C342 O334 1.304 . S
C342 O336 1.272 . S
C343 O335 1.311 . S
C343 O337 1.231 . S
O344 Zn326 1.953 1_554 S
O344 C338 1.298 . S
O345 Zn346 1.953 . S
O345 C361 1.225 1_556 S
Zn346 O345 1.953 . S
Zn346 O347 1.949 . S
Zn346 O353 1.919 . S
Zn346 O358 1.924 . S
O347 Zn346 1.949 . S
O347 Zn348 1.923 . S
O347 Zn349 1.950 . S
O347 Zn350 1.945 . S
Zn348 O347 1.923 . S
Zn348 O351 1.933 . S
Zn348 O354 1.941 . S
Zn348 O355 1.965 . S
Zn349 O347 1.950 . S
Zn349 O356 1.938 . S
Zn349 O357 1.906 . S
Zn349 O367 1.953 1_556 S
Zn350 O347 1.945 . S
Zn350 O352 1.932 . S
Zn350 O359 1.977 . S
Zn350 O360 1.910 . S
O351 Zn348 1.933 . S
O351 C362 1.226 . S
O352 Zn350 1.932 . S
O352 C362 1.307 . S
O353 Zn346 1.919 . S
O353 C364 1.253 . S
O354 Zn348 1.941 . S
O354 C364 1.283 . S
O355 Zn348 1.965 . S
O355 C363 1.303 . S
O356 Zn349 1.938 . S
O356 C363 1.247 . S
O357 Zn349 1.906 . S
O357 C365 1.304 . S
O358 Zn346 1.924 . S
O358 C366 1.311 . S
O359 Zn350 1.977 . S
O359 C365 1.272 . S
O360 Zn350 1.910 . S
O360 C366 1.231 . S
C361 O345 1.225 1_554 S
C361 O367 1.298 . S
C362 O351 1.226 . S
C362 O352 1.307 . S
C363 O355 1.303 . S
C363 O356 1.247 . S
C364 O353 1.253 . S
C364 O354 1.283 . S
C365 O357 1.304 . S
C365 O359 1.272 . S
C366 O358 1.311 . S
C366 O360 1.231 . S
O367 Zn349 1.953 1_554 S
O367 C361 1.298 . S
C17 C131 1.804 . S
C155 C40 1.771 . S
C63 C178 1.774 . S
C85 C108 1.830 . S
C316 C201 1.806 . S
C339 C224 1.809 . S
C247 C362 1.806 . S
C270 C293 1.801 . S
C20 C88 2.018 . S
C43 C21 2.050 . S
C66 C44 2.063 . S
C87 C67 2.100 . S
C110 C134 2.106 . S
C159 C133 2.119 . S
C158 C182 2.045 . S
C111 C181 2.019 . S
C274 C204 2.039 . S
C227 C205 2.048 . S
C250 C228 2.044 . S
C273 C251 2.048 . S
C296 C320 2.039 . S
C319 C343 2.047 . S
C342 C366 2.039 . S
C365 C297 2.042 . S
C19 C65 0.841 . S
C42 C90 1.067 . S
C157 C113 1.100 . S
C180 C136 1.099 . S
C249 C203 0.830 . S
C272 C226 0.808 . S
C295 C341 0.827 . S
C318 C364 0.824 . S
C18 C269 1.546 . S
C200 C41 1.515 . S
C64 C223 1.536 . S
C246 C89 1.386 . S
C315 C112 1.403 . S
C135 C338 1.392 . S
C361 C156 1.532 . S
C179 C292 1.533 . S
C202 C86 1.524 . S
C225 C16 1.522 . S
C39 C248 1.542 . S
C271 C62 1.524 . S
C294 C132 1.520 . S
C317 C154 1.540 . S
C177 C340 1.533 . S
C109 C363 1.515 . S
