# Generated by pormake.
# Topology bsn, (6)-cn, num edge types: 1
# Building blocks:
#     Node 0, Type 0, BuildingBlock: PAMTOO_clean_sbu_0, # of connection points: 6
#     Node 1, Type 0, BuildingBlock: PAMTOO_clean_sbu_0, # of connection points: 6
#     Node 2, Type 0, BuildingBlock: PAMTOO_clean_sbu_0, # of connection points: 6
#     Node 3, Type 0, BuildingBlock: PAMTOO_clean_sbu_0, # of connection points: 6
#     Edge 4, Type (0, 0), BuildingBlock: MIFKUJ_clean_linker_0, # of connection points: 2
#     Edge 5, Type (0, 0), BuildingBlock: MIFKUJ_clean_linker_0, # of connection points: 2
#     Edge 6, Type (0, 0), BuildingBlock: MIFKUJ_clean_linker_0, # of connection points: 2
#     Edge 7, Type (0, 0), BuildingBlock: MIFKUJ_clean_linker_0, # of connection points: 2
#     Edge 8, Type (0, 0), BuildingBlock: MIFKUJ_clean_linker_0, # of connection points: 2
#     Edge 9, Type (0, 0), BuildingBlock: MIFKUJ_clean_linker_0, # of connection points: 2
#     Edge 10, Type (0, 0), BuildingBlock: MIFKUJ_clean_linker_0, # of connection points: 2
#     Edge 11, Type (0, 0), BuildingBlock: MIFKUJ_clean_linker_0, # of connection points: 2
#     Edge 12, Type (0, 0), BuildingBlock: MIFKUJ_clean_linker_0, # of connection points: 2
#     Edge 13, Type (0, 0), BuildingBlock: MIFKUJ_clean_linker_0, # of connection points: 2
#     Edge 14, Type (0, 0), BuildingBlock: MIFKUJ_clean_linker_0, # of connection points: 2
#     Edge 15, Type (0, 0), BuildingBlock: MIFKUJ_clean_linker_0, # of connection points: 2
# Relax obj value: 0.045
# Max RMSD: 0.152
# Mean RMSD: 0.152
data_MOF--net-bsn--node1-PAMTOO_clean_sbu_0--edge1-MIFKUJ_clean_linker_0
_symmetry_space_group_name_H-M    P1
_symmetry_Int_Tables_number       1
_symmetry_cell_setting            triclinic
loop_
_symmetry_equiv_pos_as_xyz
'x, y, z'
_cell_length_a     59.98655
_cell_length_b     37.980941
_cell_length_c     18.375459
_cell_angle_alpha  83.947524
_cell_angle_beta   97.697648
_cell_angle_gamma 117.8246
loop_
_atom_site_label
_atom_site_type_symbol
_atom_site_fract_x
_atom_site_fract_y
_atom_site_fract_z
_atom_type_partial_charge
Dy0 Dy 0.10893 0.29472 0.36433 0.0
Dy1 Dy 0.0481 0.25333 0.3978 0.0
C2 C 0.06511 0.26583 0.23888 0.0
O3 O 0.10124 0.34192 0.40266 0.0
O4 O 0.05973 0.31594 0.35607 0.0
O5 O 0.13496 0.30861 0.28309 0.0
O6 O 0.14932 0.32963 0.39315 0.0
O7 O 0.07276 0.27271 0.50284 0.0
O8 O 0.10796 0.26836 0.47836 0.0
O9 O 0.05926 0.20479 0.42403 0.0
O10 O 0.09381 0.22891 0.3564 0.0
O11 O 1.02021 0.25357 0.46065 0.0
O12 O 1.00872 0.21027 0.37796 0.0
C13 C 0.08048 0.34572 0.38352 0.0
O14 O 0.08471 0.29791 0.26381 0.0
O15 O 0.04919 0.24043 0.28376 0.0
C16 C 0.17536 0.31491 0.32774 0.0
C17 C 0.21465 0.29544 0.31358 0.0
C18 C 0.18942 0.26543 0.31478 0.0
C19 C 0.16994 0.27506 0.32179 0.0
C20 C 0.20051 0.34475 0.32813 0.0
C21 C 0.21997 0.33516 0.3212 0.0
C22 C 0.15501 0.32625 0.32895 0.0
C23 C 0.09328 0.26878 0.52457 0.0
C24 C 0.07588 0.1997 0.39213 0.0
C25 C 0.97876 0.23202 0.39866 0.0
C26 C 0.93408 0.24011 0.35769 0.0
C27 C 0.95225 0.26328 0.41262 0.0
C28 C 0.97428 0.2592 0.43303 0.0
C29 C 0.96069 0.20906 0.34338 0.0
C30 C 0.93867 0.21316 0.32296 0.0
C31 C 1.00121 0.22561 0.42376 0.0
H32 H 0.18472 0.2345 0.31014 0.0
H33 H 0.15063 0.2515 0.32139 0.0
H34 H 0.20505 0.37568 0.33219 0.0
H35 H 0.2391 0.35907 0.31968 0.0
H36 H 0.94945 0.28462 0.43998 0.0
H37 H 0.98766 0.27705 0.47641 0.0
H38 H 0.96332 0.18736 0.31664 0.0
H39 H 0.92491 0.1944 0.28127 0.0
Dy40 Dy 0.07937 0.75314 0.61199 0.0
Dy41 Dy 1.01596 0.71591 0.58604 0.0
C42 C 0.05007 0.72548 0.45633 0.0
O43 O 0.07227 0.80091 0.54782 0.0
O44 O 0.0309 0.7819 0.5696 0.0
O45 O 0.11709 0.77878 0.57734 0.0
O46 O 0.11145 0.7674 0.69355 0.0
O47 O 0.02883 0.73196 0.70284 0.0
O48 O 0.06807 0.78296 0.68587 0.0
O49 O 1.02535 0.66608 0.57934 0.0
O50 O 0.06145 0.6903 0.65755 0.0
O51 O 0.97969 0.67438 0.62433 0.0
O52 O 0.98146 0.71193 0.52577 0.0
C53 C 0.05268 0.8081 0.54553 0.0
O54 O 0.06853 0.72573 0.50392 0.0
O55 O 0.02989 0.7259 0.47586 0.0
C56 C 0.1477 0.7664 0.65809 0.0
C57 C 0.18896 0.74846 0.68362 0.0
C58 C 0.1717 0.73561 0.6204 0.0
C59 C 0.15123 0.74444 0.60775 0.0
C60 C 0.16458 0.77852 0.72174 0.0
C61 C 0.18495 0.76967 0.73444 0.0
C62 C 0.12765 0.77915 0.64444 0.0
C63 C 0.04825 0.76558 0.72293 0.0
C64 C 0.04347 0.66106 0.61992 0.0
C65 C 0.94717 0.69394 0.59589 0.0
C66 C 0.90848 0.70938 0.63405 0.0
C67 C 0.9341 0.73387 0.65786 0.0
C68 C 0.95327 0.72621 0.63894 0.0
C69 C 0.92175 0.6694 0.57241 0.0
C70 C 0.90261 0.67699 0.59121 0.0
C71 C 0.96695 0.68598 0.57288 0.0
H72 H 0.17405 0.71879 0.58059 0.0
H73 H 0.13841 0.73457 0.55829 0.0
H74 H 0.16231 0.79565 0.76115 0.0
H75 H 0.198 0.78055 0.78313 0.0
H76 H 0.93932 0.7588 0.69154 0.0
H77 H 0.97284 0.74554 0.65754 0.0
H78 H 0.91669 0.64451 0.53872 0.0
H79 H 0.88322 0.65787 0.57082 0.0
Dy80 Dy 0.59918 0.78253 0.84806 0.0
Dy81 Dy 0.53602 0.73452 0.86105 0.0
C82 C 0.55903 0.77225 0.71071 0.0
O83 O 0.58874 0.8322 0.84805 0.0
O84 O 0.54672 0.79819 0.87459 0.0
O85 O 0.63165 0.81871 0.78736 0.0
O86 O 0.63676 0.79574 0.89808 0.0
O87 O 0.55773 0.73153 0.96754 0.0
O88 O 0.59152 0.79253 0.95677 0.0
O89 O 0.54659 0.68974 0.82928 0.0
O90 O 0.58842 0.71822 0.87535 0.0
O91 O 0.50484 0.718 0.92609 0.0
O92 O 0.49807 0.69398 0.81863 0.0
C93 C 0.56759 0.83136 0.8636 0.0
O94 O 0.57893 0.76709 0.73604 0.0
O95 O 0.54196 0.76777 0.75328 0.0
C96 C 0.66708 0.80591 0.81786 0.0
C97 C 0.70535 0.78885 0.78152 0.0
C98 C 0.67959 0.76397 0.75975 0.0
C99 C 0.66063 0.7724 0.77786 0.0
C100 C 0.69262 0.83067 0.83965 0.0
C101 C 0.71153 0.82227 0.82184 0.0
C102 C 0.64767 0.81518 0.83953 0.0
C103 C 0.57489 0.76456 -0.0032 0.0
C104 C 0.56731 0.68702 0.85403 0.0
C105 C 0.46538 0.70483 0.85636 0.0
C106 C 0.42098 0.71459 0.8251 0.0
C107 C 0.43817 0.73181 0.88655 0.0
C108 C 0.46011 0.72699 0.90202 0.0
C109 C 0.4482 0.68766 0.79499 0.0
C110 C 0.42634 0.69263 0.77934 0.0
C111 C 0.48786 0.69769 0.87403 0.0
H112 H 0.67409 0.7382 0.72811 0.0
H113 H 0.64097 0.75277 0.76085 0.0
H114 H 0.69796 0.85646 0.87117 0.0
H115 H 0.73101 0.84169 0.84089 0.0
H116 H 0.43472 0.74918 0.92258 0.0
H117 H 0.47283 0.74044 0.95005 0.0
H118 H 0.45149 0.66991 0.75938 0.0
H119 H 0.41333 0.67844 0.73226 0.0
Dy120 Dy 0.58607 0.25354 0.10917 0.0
Dy121 Dy 0.52447 0.21477 0.13151 0.0
C122 C 0.54324 0.23901 0.97242 0.0
O123 O 0.57627 0.30245 0.07056 0.0
O124 O 0.53951 0.28139 0.12694 0.0
O125 O 0.61597 0.25569 0.05218 0.0
O126 O 0.6252 0.29267 0.14446 0.0
O127 O 0.5479 0.21205 0.2338 0.0
O128 O 0.58167 0.27116 0.21577 0.0
O129 O 0.53147 0.16585 0.0988 0.0
O130 O 0.57262 0.19009 0.14908 0.0
O131 O 0.49853 0.20424 0.21111 0.0
O132 O 0.48398 0.18015 0.10313 0.0
C133 C 0.55849 0.30898 0.09193 0.0
O134 O 0.56436 0.2375 -0.00136 0.0
O135 O 0.52656 0.23661 0.01472 0.0
C136 C 0.65529 0.27119 0.12462 0.0
C137 C 0.69864 0.25978 0.16859 0.0
C138 C 0.6798 0.23585 0.11577 0.0
C139 C 0.65837 0.24149 0.09398 0.0
C140 C 0.67395 0.29468 0.17818 0.0
C141 C 0.6953 0.28893 0.20017 0.0
C142 C 0.63397 0.28011 0.0973 0.0
C143 C 0.56553 0.24553 0.25961 0.0
C144 C 0.55166 0.16085 0.12097 0.0
C145 C 0.458 0.19683 0.16514 0.0
C146 C 0.41859 0.21614 0.17845 0.0
C147 C 0.44378 0.24624 0.17695 0.0
C148 C 0.46331 0.23669 0.17026 0.0
C149 C 0.43287 0.1669 0.16492 0.0
C150 C 0.41335 0.17641 0.17136 0.0
C151 C 0.47843 0.18546 0.16611 0.0
H152 H 0.68168 0.21287 0.09094 0.0
H153 H 0.64447 0.22299 0.05223 0.0
H154 H 0.67232 0.31819 0.20201 0.0
H155 H 0.7096 0.30823 0.24025 0.0
H156 H 0.44843 0.27716 0.1815 0.0
H157 H 0.4826 0.26031 0.1707 0.0
H158 H 0.42842 0.13594 0.16166 0.0
H159 H 0.39425 0.15245 0.17317 0.0
H160 H 0.04019 0.36179 0.35547 0.0
H161 H 0.03607 0.41676 0.39832 0.0
H162 H 0.1133 0.4664 0.49672 0.0
H163 H 0.1175 0.4108 0.45497 0.0
H164 H 0.08213 0.46451 0.59107 0.0
H165 H 0.09688 0.5107 0.34157 0.0
H166 H 0.09052 0.50628 0.20682 0.0
H167 H 1.01371 0.48521 0.2071 0.0
H168 H 1.0195 0.48897 0.34202 0.0
H169 H 0.08495 0.6488 0.66306 0.0
H170 H 0.09253 0.59554 0.62692 0.0
H171 H 1.0167 0.53932 0.51866 0.0
H172 H 1.00912 0.59286 0.55335 0.0
H173 H 0.05006 0.54735 0.42915 0.0
H174 H 0.03501 0.49876 0.67958 0.0
H175 H 0.04153 0.50318 0.81436 0.0
H176 H 0.11924 0.52933 0.81213 0.0
H177 H 0.11327 0.52557 0.67716 0.0
C178 C 0.05648 0.38462 0.3853 0.0
C179 C 0.07923 0.38186 0.40159 0.0
C180 C 0.05408 0.41616 0.40969 0.0
C181 C 0.07442 0.44592 0.45032 0.0
C182 C 0.09735 0.44377 0.46544 0.0
C183 C 0.09977 0.4121 0.4411 0.0
C184 C 0.07123 0.47819 0.47939 0.0
C185 C 0.07553 0.48312 0.55554 0.0
C186 C 0.0621 0.50189 0.43327 0.0
C187 C 0.05858 0.49981 0.35202 0.0
C188 C 0.07858 0.50484 0.31297 0.0
C189 C 0.07508 0.50251 0.23654 0.0
C190 C 0.05171 0.49539 0.19844 0.0
C191 C 0.0318 0.4907 0.23669 0.0
C192 C 0.03519 0.49298 0.31314 0.0
C193 C 0.06965 0.62463 0.63307 0.0
C194 C 0.04641 0.62516 0.61096 0.0
C195 C 0.07405 0.59416 0.61235 0.0
C196 C 0.05519 0.56338 0.56997 0.0
C197 C 0.03158 0.56287 0.55096 0.0
C198 C 1.02723 0.5934 0.57124 0.0
C199 C 0.06055 0.53326 0.54102 0.0
C200 C 0.05673 0.52885 0.46473 0.0
C201 C 0.07016 0.51014 0.58704 0.0
C202 C 0.07375 0.51228 0.66819 0.0
C203 C 0.05354 0.50576 0.70777 0.0
C204 C 0.05713 0.50809 0.78421 0.0
C205 C 0.0808 0.51664 0.82176 0.0
C206 C 0.10092 0.52276 0.78296 0.0
C207 C 0.09744 0.5205 0.70651 0.0
H208 H 0.08354 0.51843 0.88094 0.0
H209 H 0.04904 0.49358 0.13927 0.0
H210 H 0.75258 0.8419 0.7414 0.0
H211 H 0.78664 0.82796 0.71753 0.0
H212 H 0.7385 0.70202 0.75327 0.0
H213 H 0.70462 0.71587 0.78064 0.0
H214 H 0.78427 0.72159 0.82047 0.0
H215 H 0.75212 0.74652 0.5779 0.0
H216 H 0.739 0.78422 0.4792 0.0
H217 H 0.81424 0.8817 0.49398 0.0
H218 H 0.82774 0.84479 0.59347 0.0
H219 H 0.86109 0.65563 0.67192 0.0
H220 H 0.8268 0.66902 0.69624 0.0
H221 H 0.87491 0.79526 0.66464 0.0
H222 H 0.90906 0.78201 0.63748 0.0
H223 H 0.82901 0.77515 0.59503 0.0
H224 H 0.86108 0.75019 0.83782 0.0
H225 H 0.87419 0.7124 0.93634 0.0
H226 H 0.79901 0.61476 0.92075 0.0
H227 H 0.78553 0.65178 0.82141 0.0
C228 C 0.74921 0.8112 0.7448 0.0
C229 C 0.72574 0.78004 0.76319 0.0
C230 C 0.76868 0.80323 0.73022 0.0
C231 C 0.76513 0.76387 0.73263 0.0
C232 C 0.74173 0.73265 0.75077 0.0
C233 C 0.72225 0.74061 0.76571 0.0
C234 C 0.78599 0.7554 0.71776 0.0
C235 C 0.79378 0.73282 0.77062 0.0
C236 C 0.79893 0.77083 0.65362 0.0
C237 C 0.79088 0.79303 0.5936 0.0
C238 C 0.76582 0.77612 0.56047 0.0
C239 C 0.75832 0.79732 0.50432 0.0
C240 C 0.77576 0.83537 0.48046 0.0
C241 C 0.80075 0.85224 0.51257 0.0
C242 C 0.80834 0.83118 0.56879 0.0
C243 C 0.86439 0.68627 0.66969 0.0
C244 C 0.88793 0.71772 0.65259 0.0
C245 C 0.8448 0.69392 0.6844 0.0
C246 C 0.84828 0.73321 0.6831 0.0
C247 C 0.87175 0.76469 0.66623 0.0
C248 C 0.89137 0.75707 0.65138 0.0
C249 C 0.82729 0.74139 0.69775 0.0
C250 C 0.81948 0.76391 0.64484 0.0
C251 C 0.81432 0.72588 0.7618 0.0
C252 C 0.82236 0.70362 0.8217 0.0
C253 C 0.84739 0.72054 0.85502 0.0
C254 C 0.85488 0.69928 0.91107 0.0
C255 C 0.83747 0.66116 0.93466 0.0
C256 C 0.81249 0.64427 0.90236 0.0
C257 C 0.80491 0.66539 0.84623 0.0
H258 H 0.8433 0.64475 0.97806 0.0
H259 H 0.76991 0.85174 0.43698 0.0
H260 H 0.59804 0.37657 0.0429 0.0
H261 H 0.59863 0.44001 0.00053 0.0
H262 H 0.52129 0.39382 0.04945 0.0
H263 H 0.52047 0.32988 0.09237 0.0
H264 H 0.53156 0.43276 0.90697 0.0
H265 H 0.56509 0.45659 0.16023 0.0
H266 H 0.59396 0.45779 0.27 0.0
H267 H 0.6579 0.53975 0.15578 0.0
H268 H 0.62942 0.53857 0.0449 0.0
H269 H 0.52518 0.61565 0.86761 0.0
H270 H 0.52339 0.55091 0.90406 0.0
H271 H 0.60457 0.60282 0.90376 0.0
H272 H 0.60656 0.66824 0.87045 0.0
H273 H 0.59189 0.55968 0.02192 0.0
H274 H 0.56042 0.53681 0.76921 0.0
H275 H 0.53311 0.53479 0.65514 0.0
H276 H 0.4675 0.45105 0.76081 0.0
H277 H 0.49438 0.45296 0.87586 0.0
C278 C 0.58117 0.37986 0.04523 0.0
C279 C 0.55921 0.34817 0.07126 0.0
C280 C 0.58158 0.41619 0.02104 0.0
C281 C 0.56005 0.42157 0.02217 0.0
C282 C 0.5381 0.39014 0.04825 0.0
C283 C 0.53773 0.35378 0.07318 0.0
C284 C 0.56053 0.45997 -0.005 0.0
C285 C 0.54444 0.46053 0.93257 0.0
C286 C 0.57799 0.49616 0.02715 0.0
C287 C 0.59513 0.49722 0.09405 0.0
C288 C 0.58532 0.47463 0.15833 0.0
C289 C 0.60161 0.47535 0.22078 0.0
C290 C 0.62775 0.49876 0.21981 0.0
C291 C 0.63765 0.5216 0.15643 0.0
C292 C 0.62144 0.52095 0.09379 0.0
C293 C 0.54262 0.61319 0.87406 0.0
C294 C 0.56602 0.64705 0.86611 0.0
C295 C 0.54156 0.57604 0.89472 0.0
C296 C 0.56381 0.57174 0.90598 0.0
C297 C 0.58714 0.60534 0.89562 0.0
C298 C 0.58826 0.64269 0.87628 0.0
C299 C 0.56293 0.53285 0.93317 0.0
C300 C 0.57896 0.53209 -0.00414 0.0
C301 C 0.54564 0.49654 0.90052 0.0
C302 C 0.52941 0.49533 0.83139 0.0
C303 C 0.54015 0.5182 0.76831 0.0
C304 C 0.52475 0.51703 0.70344 0.0
C305 C 0.49858 0.49289 0.70079 0.0
C306 C 0.48777 0.46978 0.76297 0.0
C307 C 0.50308 0.47086 0.828 0.0
H308 H 0.48669 0.49202 0.65051 0.0
H309 H 0.64034 0.49927 0.26822 0.0
H310 H 0.90943 0.23982 0.22057 0.0
H311 H 0.86936 0.24265 0.18919 0.0
H312 H 0.86464 0.25106 0.41838 0.0
H313 H 0.90426 0.24689 0.45045 0.0
H314 H 0.81999 0.1989 0.35536 0.0
H315 H 0.88156 0.33274 0.29882 0.0
H316 H 0.91839 0.38552 0.24084 0.0
H317 H 0.8799 0.34897 0.02691 0.0
H318 H 0.84296 0.29558 0.08365 0.0
H319 H 0.72341 0.26088 0.30571 0.0
H320 H 0.76317 0.25699 0.33752 0.0
H321 H 0.76677 0.24488 0.1092 0.0
H322 H 0.72732 0.24964 0.07678 0.0
H323 H 0.81192 0.29893 0.17191 0.0
H324 H 0.7502 0.16504 0.22957 0.0
H325 H 0.71341 0.11276 0.28848 0.0
H326 H 0.75231 0.15021 0.50164 0.0
H327 H 0.78922 0.2031 0.44396 0.0
C328 C 0.8998 0.24205 0.26438 0.0
C329 C 0.91012 0.24321 0.33805 0.0
C330 C 0.877 0.24404 0.24627 0.0
C331 C 0.8641 0.24749 0.30134 0.0
C332 C 0.87429 0.24853 0.37492 0.0
C333 C 0.89708 0.24653 0.39308 0.0
C334 C 0.83976 0.24936 0.28238 0.0
C335 C 0.81831 0.22113 0.316 0.0
C336 C 0.83741 0.27779 0.2298 0.0
C337 C 0.85959 0.3099 0.19551 0.0
C338 C 0.88103 0.33574 0.23942 0.0
C339 C 0.90191 0.36581 0.20678 0.0
C340 C 0.90151 0.37053 0.13024 0.0
C341 C 0.8802 0.34524 0.08619 0.0
C342 C 0.85927 0.31509 0.11856 0.0
C343 C 0.73269 0.25746 0.26225 0.0
C344 C 0.72216 0.25548 0.18871 0.0
C345 C 0.75532 0.25494 0.28059 0.0
C346 C 0.76786 0.25033 0.22581 0.0
C347 C 0.75739 0.24833 0.15239 0.0
C348 C 0.73472 0.25069 0.13404 0.0
C349 C 0.79217 0.24845 0.24483 0.0
C350 C 0.81361 0.2767 0.21125 0.0
C351 C 0.79453 0.22011 0.29759 0.0
C352 C 0.77237 0.18829 0.33241 0.0
C353 C 0.75083 0.16235 0.289 0.0
C354 C 0.72997 0.13256 0.32217 0.0
C355 C 0.7305 0.12824 0.39875 0.0
C356 C 0.75192 0.15363 0.44232 0.0
C357 C 0.77282 0.1835 0.40942 0.0
H358 H 0.71433 0.10515 0.42433 0.0
H359 H 0.91769 0.39383 0.10508 0.0
H360 H 0.41985 0.2677 0.27453 0.0
H361 H 0.38537 0.28141 0.29664 0.0
H362 H 0.33589 0.19919 0.13244 0.0
H363 H 0.37048 0.18615 0.10864 0.0
H364 H 0.33 0.26584 0.12033 0.0
H365 H 0.33224 0.17228 0.31445 0.0
H366 H 0.3522 0.1468 0.41812 0.0
H367 H 0.37055 0.249 0.53955 0.0
H368 H 0.35103 0.27541 0.43608 0.0
H369 H 0.21333 0.24371 0.21764 0.0
H370 H 0.24777 0.22992 0.19552 0.0
H371 H 0.29731 0.31213 0.35966 0.0
H372 H 0.26277 0.32529 0.38343 0.0
H373 H 0.30315 0.24543 0.37181 0.0
H374 H 0.30109 0.33912 0.17778 0.0
H375 H 0.28151 0.36501 0.07378 0.0
H376 H 0.263 0.26282 0.95211 0.0
H377 H 0.28216 0.23601 0.05588 0.0
C378 C 0.40173 0.25294 0.24239 0.0
C379 C 0.39792 0.22575 0.18987 0.0
C380 C 0.38195 0.26051 0.25562 0.0
C381 C 0.3579 0.24095 0.21689 0.0
C382 C 0.35422 0.21452 0.16323 0.0
C383 C 0.37397 0.20688 0.15007 0.0
C384 C 0.3365 0.24766 0.23283 0.0
C385 C 0.32392 0.26087 0.17514 0.0
C386 C 0.32886 0.242 0.30463 0.0
C387 C 0.3404 0.22601 0.36721 0.0
C388 C 0.3407 0.18947 0.36304 0.0
C389 C 0.35191 0.17484 0.42179 0.0
C390 C 0.3627 0.19633 0.4853 0.0
C391 C 0.36223 0.23243 0.49027 0.0
C392 C 0.35108 0.24723 0.43161 0.0
C393 C 0.23145 0.25847 0.24976 0.0
C394 C 0.23529 0.28571 0.3022 0.0
C395 C 0.25122 0.25085 0.23652 0.0
C396 C 0.27527 0.27038 0.27522 0.0
C397 C 0.27898 0.29683 0.32886 0.0
C398 C 0.25925 0.30454 0.34201 0.0
C399 C 0.29665 0.26361 0.25929 0.0
C400 C 0.30922 0.25038 0.31699 0.0
C401 C 0.30429 0.26926 0.18749 0.0
C402 C 0.29283 0.28536 0.12492 0.0
C403 C 0.29266 0.322 0.12909 0.0
C404 C 0.28167 0.33687 0.07014 0.0
C405 C 0.27095 0.31551 0.00646 0.0
C406 C 0.27127 0.27929 0.00153 0.0
C407 C 0.28221 0.26426 0.06037 0.0
H408 H 0.26246 0.32708 0.96087 0.0
H409 H 0.37137 0.18496 0.53073 0.0
H410 H 0.38867 0.70899 0.92307 0.0
H411 H 0.34913 0.71393 0.89681 0.0
H412 H 0.3597 0.73348 0.66573 0.0
H413 H 0.39958 0.7295 0.69178 0.0
H414 H 0.34423 0.78384 0.71079 0.0
H415 H 0.31832 0.64326 0.73255 0.0
H416 H 0.31651 0.58097 0.79294 0.0
H417 H 0.2839 0.59545 0.97478 0.0
H418 H 0.28584 0.65817 0.91592 0.0
H419 H 0.22009 0.75368 0.58189 0.0
H420 H 0.25876 0.74606 0.60355 0.0
H421 H 0.24844 0.72102 0.83452 0.0
H422 H 0.20927 0.72714 0.81287 0.0
H423 H 0.26375 0.67283 0.78724 0.0
H424 H 0.29036 0.81353 0.76854 0.0
H425 H 0.29266 0.8766 0.71071 0.0
H426 H 0.32441 0.86284 0.52612 0.0
H427 H 0.32196 0.79936 0.58242 0.0
C428 C 0.38274 0.71477 0.86674 0.0
C429 C 0.39727 0.71872 0.80949 0.0
C430 C 0.36 0.71722 0.85173 0.0
C431 C 0.35127 0.72357 0.77917 0.0
C432 C 0.36599 0.72837 0.72208 0.0
C433 C 0.38869 0.7258 0.73701 0.0
C434 C 0.32674 0.72502 0.76278 0.0
C435 C 0.32657 0.75934 0.72655 0.0
C436 C 0.30377 0.69343 0.78483 0.0
C437 C 0.30245 0.65561 0.82014 0.0
C438 C 0.31094 0.63332 0.78568 0.0
C439 C 0.30986 0.59791 0.81958 0.0
C440 C 0.30015 0.58431 0.88773 0.0
C441 C 0.29144 0.60605 0.92203 0.0
C442 C 0.29251 0.64151 0.88839 0.0
C443 C 0.2258 0.7459 0.63711 0.0
C444 C 0.21161 0.74127 0.69571 0.0
C445 C 0.24809 0.74199 0.64956 0.0
C446 C 0.25678 0.73364 0.72092 0.0
C447 C 0.24223 0.72772 0.77907 0.0
C448 C 0.21993 0.73155 0.76667 0.0
C449 C 0.28122 0.73171 0.73533 0.0
C450 C 0.28139 0.6973 0.77125 0.0
C451 C 0.30421 0.76331 0.71328 0.0
C452 C 0.30572 0.80148 0.67934 0.0
C453 C 0.29763 0.82379 0.71534 0.0
C454 C 0.299 0.85964 0.68289 0.0
C455 C 0.3086 0.87366 0.61469 0.0
C456 C 0.31693 0.85191 0.57889 0.0
C457 C 0.31557 0.816 0.61106 0.0
H458 H 0.30965 0.90143 0.58967 0.0
H459 H 0.29933 0.55689 0.9139 0.0
H460 H 0.52735 0.84708 0.85019 0.0
H461 H 0.52611 0.9048 0.89333 0.0
H462 H 0.60642 0.95722 0.95791 0.0
H463 H 0.60791 0.89968 0.91365 0.0
H464 H 0.57505 0.951 0.07057 0.0
H465 H 0.58916 0.99976 0.82076 0.0
H466 H 0.58092 0.99587 0.68602 0.0
H467 H 0.50596 0.98117 0.69644 0.0
H468 H 0.5136 0.98435 0.83147 0.0
H469 H 0.59048 0.14122 0.15487 0.0
H470 H 0.59313 0.08423 0.11446 0.0
H471 H 0.51649 0.03889 0.01226 0.0
H472 H 0.51373 0.09608 0.05178 0.0
H473 H 0.54725 0.04186 0.9184 0.0
H474 H 0.5321 0.99314 0.16567 0.0
H475 H 0.5378 0.99132 0.30109 0.0
H476 H 0.61187 1.00091 0.29823 0.0
H477 H 0.60689 1.00372 0.16262 0.0
C478 C 0.54485 0.87126 0.87223 0.0
C479 C 0.56775 0.86896 0.87832 0.0
C480 C 0.54409 0.90416 0.89691 0.0
C481 C 0.56616 0.93514 0.92891 0.0
C482 C 0.5892 0.93353 0.93331 0.0
C483 C 0.59007 0.90088 0.90738 0.0
C484 C 0.56471 0.96807 0.961 0.0
C485 C 0.56947 0.97149 0.03743 0.0
C486 C 0.55649 0.99358 0.91762 0.0
C487 C 0.55188 0.99192 0.83635 0.0
C488 C 0.57084 0.99535 0.79441 0.0
C489 C 0.56629 0.99334 0.71796 0.0
C490 C 0.54291 0.98818 0.68271 0.0
C491 C 0.52405 0.98513 0.72384 0.0
C492 C 0.52849 0.98707 0.80033 0.0
C493 C 0.57399 0.11881 0.12492 0.0
C494 C 0.55191 0.12338 0.10628 0.0
C495 C 0.57553 0.08612 0.10203 0.0
C496 C 0.55501 0.05723 0.06035 0.0
C497 C 0.5326 0.06089 0.04419 0.0
C498 C 0.53102 0.09354 0.06712 0.0
C499 C 0.5576 0.02507 0.0286 0.0
C500 C 0.55301 0.02169 0.95198 0.0
C501 C 0.56578 0.99938 0.07209 0.0
C502 C 0.56925 0.99925 0.15372 0.0
C503 C 0.54978 0.99552 0.19377 0.0
C504 C 0.55285 0.99418 0.27064 0.0
C505 C 0.57522 0.99617 0.30822 0.0
C506 C 0.59459 0.99953 0.26902 0.0
C507 C 0.59166 1.00105 0.19213 0.0
H508 H 0.57752 0.99501 0.36772 0.0
H509 H 0.53943 0.98663 0.62351 0.0
H510 H 0.09666 0.87448 0.51706 0.0
H511 H 0.10219 0.94145 0.47978 0.0
H512 H 1.02172 0.89958 0.47644 0.0
H513 H 1.01592 0.8323 0.51329 0.0
H514 H 0.04144 0.95115 0.35896 0.0
H515 H 0.05995 0.94563 0.62138 0.0
H516 H 0.08145 0.93289 0.73753 0.0
H517 H 0.15337 0.02116 0.67011 0.0
H518 H 0.13232 0.03392 0.55288 0.0
H519 H 0.03528 0.1284 0.42002 0.0
H520 H 0.03364 0.0625 0.43362 0.0
H521 H 0.11232 0.11508 0.39443 0.0
H522 H 0.11405 0.18123 0.37914 0.0
H523 H 0.09646 0.06004 0.52613 0.0
H524 H 0.07636 0.06892 0.26627 0.0
H525 H 0.05361 0.08189 0.15323 0.0
H526 H 0.98332 0.98744 0.21911 0.0
H527 H 1.0056 0.97442 0.33339 0.0
C528 C 0.08008 0.87937 0.50795 0.0
C529 C 0.05586 0.84811 0.5189 0.0
C530 C 0.08331 0.91771 0.48682 0.0
C531 C 0.0624 0.9255 0.47624 0.0
C532 C 0.0381 0.89414 0.48452 0.0
C533 C 0.03485 0.85578 0.50599 0.0
C534 C 0.066 0.96669 0.45985 0.0
C535 C 0.05332 0.9749 0.39572 0.0
C536 C 0.0819 0.99776 0.50725 0.0
C537 C 0.09459 0.9904 0.57798 0.0
C538 C 0.08037 0.96209 0.63104 0.0
C539 C 0.09247 0.95489 0.6971 0.0
C540 C 0.11877 0.97613 0.7111 0.0
C541 C 0.133 1.00468 0.65912 0.0
C542 C 0.121 0.01191 0.59286 0.0
C543 C 0.05222 0.12595 0.41403 0.0
C544 C 0.0748 0.15992 0.39859 0.0
C545 C 0.05121 0.08833 0.42156 0.0
C546 C 0.07284 0.08412 0.41479 0.0
C547 C 0.09546 0.11791 0.39966 0.0
C548 C 0.09636 0.15554 0.39073 0.0
C549 C 0.07178 0.04435 0.42565 0.0
C550 C 0.08485 0.03637 0.48894 0.0
C551 C 0.05609 0.01348 0.37783 0.0
C552 C 0.04263 0.02096 0.30883 0.0
C553 C 0.05602 0.05116 0.25706 0.0
C554 C 0.04321 0.05849 0.19267 0.0
C555 C 1.01702 0.03556 0.17907 0.0
C556 C 1.00361 1.00521 0.22977 0.0
C557 C 1.01632 0.99783 0.29436 0.0
H558 H 1.00714 0.04126 0.12918 0.0
H559 H 0.1281 0.97053 0.76229 0.0
H560 H 0.03074 0.19695 0.17349 0.0
H561 H 0.03401 0.1732 0.05831 0.0
H562 H 0.10145 0.28337 0.02344 0.0
H563 H 0.0984 0.30734 0.13736 0.0
H564 H 0.03458 0.20535 0.91632 0.0
H565 H 0.14523 0.26422 0.97046 0.0
H566 H 0.17564 0.26498 0.07554 0.0
H567 H 0.11603 0.16665 0.18203 0.0
H568 H 0.08532 0.16468 0.07711 0.0
H569 H 0.09341 0.31068 0.63336 0.0
H570 H 0.08902 0.28798 0.76224 0.0
H571 H 0.09705 0.18497 0.72039 0.0
H572 H 0.10225 0.2085 0.59059 0.0
H573 H 0.11846 0.2207 0.86984 0.0
H574 H 0.04204 0.1625 0.71583 0.0
H575 H 1.01217 0.16215 0.60941 0.0
H576 H 1.00113 0.25049 0.70525 0.0
H577 H 0.03133 0.25202 0.81154 0.0
C578 C 0.04607 0.2163 0.14072 0.0
C579 C 0.06439 0.25398 0.16459 0.0
C580 C 0.048 0.2025 0.07547 0.0
C581 C 0.06838 0.22608 0.03402 0.0
C582 C 0.08599 0.26431 0.05609 0.0
C583 C 0.08402 0.27817 0.12072 0.0
C584 C 0.07107 0.21259 0.96504 0.0
C585 C 0.05258 0.20743 0.90626 0.0
C586 C 0.09421 0.21368 0.95298 0.0
C587 C 0.1129 0.21431 0.01557 0.0
C588 C 0.13861 0.24245 0.01582 0.0
C589 C 0.15591 0.24317 0.07554 0.0
C590 C 0.14778 0.21588 0.13535 0.0
C591 C 0.12232 0.1878 0.13566 0.0
C592 C 0.10495 0.18689 0.07608 0.0
C593 C 0.09524 0.28406 0.65239 0.0
C594 C 0.09806 0.26115 0.603 0.0
C595 C 0.09266 0.27106 0.72563 0.0
C596 C 0.0922 0.23447 0.7498 0.0
C597 C 0.09733 0.21323 0.70219 0.0
C598 C 0.10037 0.22671 0.62858 0.0
C599 C 0.08279 0.21698 0.82144 0.0
C600 C 0.09997 0.21634 0.88046 0.0
C601 C 0.05812 0.20931 0.83402 0.0
C602 C 0.03895 0.20727 0.77188 0.0
C603 C 0.03327 0.18189 0.71422 0.0
C604 C 1.0163 0.18154 0.65382 0.0
C605 C 1.00474 0.20626 0.6506 0.0
C606 C 1.01005 0.23128 0.70792 0.0
C607 C 1.02706 0.23183 0.76837 0.0
H608 H 0.99168 0.20604 0.60369 0.0
H609 H 0.16121 0.21644 0.18136 0.0
H610 H 0.08531 0.83535 0.77736 0.0
H611 H 0.09193 0.8554 0.90325 0.0
H612 H 1.01991 0.75671 0.94819 0.0
H613 H 1.01307 0.73598 0.82252 0.0
H614 H 0.04508 0.83951 0.03801 0.0
H615 H 0.0557 0.71354 -0.01566 0.0
H616 H 0.07224 0.68909 0.89569 0.0
H617 H 0.14034 0.80047 0.89743 0.0
H618 H 0.12409 0.82543 -0.01394 0.0
H619 H 1.01467 0.71392 0.34039 0.0
H620 H 1.02264 0.74293 0.21613 0.0
H621 H 0.10299 0.78617 0.27209 0.0
H622 H 0.09519 0.75674 0.39683 0.0
H623 H 0.08831 0.75782 0.13718 0.0
H624 H 0.08109 0.85239 0.26222 0.0
H625 H 0.06463 0.87967 0.34512 0.0
H626 H 0.99466 0.84048 0.20662 0.0
H627 H 1.01055 0.81252 0.12299 0.0
C628 C 0.07048 0.81854 0.81329 0.0
C629 C 0.04911 0.78308 0.79136 0.0
C630 C 0.07417 0.83055 0.88471 0.0
C631 C 0.05649 0.80728 0.93435 0.0
C632 C 0.03363 0.77505 0.90987 0.0
C633 C 0.02995 0.76288 0.83853 0.0
C634 C 0.06467 0.80785 0.01297 0.0
C635 C 0.05496 0.82247 0.06049 0.0
C636 C 0.07836 0.78682 0.04125 0.0
C637 C 0.08883 0.77111 -0.00805 0.0
C638 C 0.07431 0.73255 0.9663 0.0
C639 C 0.08357 0.71871 0.91588 0.0
C640 C 0.10736 0.74319 0.89107 0.0
C641 C 0.12196 0.78151 0.91686 0.0
C642 C 0.11277 0.79549 0.96724 0.0
C643 C 0.03399 0.7289 0.32589 0.0
C644 C 0.05431 0.73345 0.37831 0.0
C645 C 0.03854 0.7459 0.25532 0.0
C646 C 0.06345 0.76795 0.23637 0.0
C647 C 0.08368 0.76988 0.28658 0.0
C648 C 0.07914 0.75266 0.35738 0.0
C649 C 0.06788 0.78821 0.16322 0.0
C650 C 0.07971 0.77693 0.11629 0.0
C651 C 0.05693 0.8136 0.1363 0.0
C652 C 0.04703 0.83021 0.18631 0.0
C653 C 0.06211 0.84931 0.2496 0.0
C654 C 0.05289 0.86494 0.29677 0.0
C655 C 0.02859 0.86174 0.28133 0.0
C656 C 1.01349 0.84296 0.21852 0.0
C657 C 1.02263 0.8273 0.17105 0.0
H658 H 1.0215 0.87388 0.31795 0.0
H659 H 0.11445 0.73251 0.85181 0.0
H660 H 0.55907 0.71667 0.11907 0.0
H661 H 0.54797 0.73323 0.22927 0.0
H662 H 0.56606 0.8514 0.13379 0.0
H663 H 0.57939 0.83591 0.02704 0.0
H664 H 0.58121 0.86075 0.26171 0.0
H665 H 0.50205 0.77695 0.15638 0.0
H666 H 0.46782 0.72023 0.09062 0.0
H667 H 0.47007 0.64005 0.27112 0.0
H668 H 0.50459 0.69609 0.3376 0.0
H669 H 0.51757 0.77579 0.6353 0.0
H670 H 0.51219 0.7942 0.50497 0.0
H671 H 0.58791 0.81437 0.48078 0.0
H672 H 0.5935 0.79636 0.6104 0.0
H673 H 0.5112 0.75594 0.39515 0.0
H674 H 0.61564 0.88546 0.35765 0.0
H675 H 0.64461 0.94933 0.41335 0.0
H676 H 0.58265 0.95013 0.50479 0.0
H677 H 0.55315 0.88669 0.44847 0.0
C678 C 0.56095 0.74626 0.12246 0.0
C679 C 0.57023 0.77512 0.06543 0.0
C680 C 0.55413 0.75554 0.18456 0.0
C681 C 0.55533 0.7932 0.18891 0.0
C682 C 0.5648 0.82211 0.13175 0.0
C683 C 0.57252 0.81329 0.07093 0.0
C684 C 0.54851 0.80288 0.25591 0.0
C685 C 0.5657 0.8381 0.29046 0.0
C686 C 0.52705 0.77502 0.29117 0.0
C687 C 0.50596 0.74091 0.25215 0.0
C688 C 0.49532 0.74722 0.18205 0.0
C689 C 0.47587 0.71516 0.14457 0.0
C690 C 0.46677 0.67657 0.17668 0.0
C691 C 0.4771 0.66998 0.2464 0.0
C692 C 0.49657 0.70193 0.28412 0.0
C693 C 0.53317 0.78455 0.60228 0.0
C694 C 0.55588 0.78416 0.63275 0.0
C695 C 0.53008 0.79529 0.52806 0.0
C696 C 0.54976 0.80626 0.48362 0.0
C697 C 0.57267 0.80693 0.51453 0.0
C698 C 0.57571 0.79598 0.5884 0.0
C699 C 0.54566 0.81131 0.40311 0.0
C700 C 0.52618 0.77919 0.36538 0.0
C701 C 0.56412 0.84312 0.36366 0.0
C702 C 0.5821 0.88106 0.39877 0.0
C703 C 0.60809 0.8993 0.38916 0.0
C704 C 0.62465 0.93547 0.42098 0.0
C705 C 0.61548 0.95375 0.46263 0.0
C706 C 0.58975 0.93587 0.4727 0.0
C707 C 0.5731 0.89976 0.44091 0.0
H708 H 0.62832 0.98179 0.48707 0.0
H709 H 0.45173 0.65178 0.14753 0.0
H710 H 0.53799 0.19841 0.36889 0.0
H711 H 0.52891 0.21942 0.47694 0.0
H712 H 0.57531 0.34273 0.41184 0.0
H713 H 0.58509 0.32166 0.30398 0.0
H714 H 0.58548 0.33302 0.54827 0.0
H715 H 0.51075 0.30815 0.41137 0.0
H716 H 0.47309 0.27759 0.3229 0.0
H717 H 0.44238 0.17271 0.4661 0.0
H718 H 0.48002 0.20232 0.55521 0.0
H719 H 0.51243 0.26951 0.90088 0.0
H720 H 0.51169 0.29287 0.77113 0.0
H721 H 0.56555 0.2522 0.73704 0.0
H722 H 0.56659 0.22932 0.86537 0.0
H723 H 0.50048 0.25652 0.63906 0.0
H724 H 0.6116 0.32071 0.65141 0.0
H725 H 0.64843 0.35832 0.73839 0.0
H726 H 0.60483 0.4001 0.83749 0.0
H727 H 0.56785 0.36344 0.75017 0.0
C728 C 0.54636 0.22998 0.37773 0.0
C729 C 0.56234 0.25836 0.32843 0.0
C730 C 0.5408 0.24205 0.43878 0.0
C731 C 0.55076 0.28274 0.45115 0.0
C732 C 0.56714 0.31122 0.40269 0.0
C733 C 0.57292 0.29911 0.34169 0.0
C734 C 0.54591 0.29437 0.5193 0.0
C735 C 0.56683 0.31714 0.56771 0.0
C736 C 0.52131 0.27603 0.54319 0.0
C737 C 0.49832 0.25763 0.4903 0.0
C738 C 0.49604 0.27847 0.424 0.0
C739 C 0.47467 0.26129 0.37363 0.0
C740 C 0.45535 0.22321 0.38879 0.0
C741 C 0.45735 0.20226 0.45449 0.0
C742 C 0.47869 0.21931 0.50514 0.0
C743 C 0.52381 0.26508 0.86525 0.0
C744 C 0.53976 0.24792 0.89317 0.0
C745 C 0.52345 0.27863 0.79151 0.0
C746 C 0.53908 0.27521 0.74547 0.0
C747 C 0.55389 0.25611 0.77248 0.0
C748 C 0.55435 0.24281 0.84568 0.0
C749 C 0.54047 0.29103 0.6686 0.0
C750 C 0.5189 0.27389 0.61863 0.0
C751 C 0.56429 0.31625 0.64254 0.0
C752 C 0.58688 0.3393 0.69386 0.0
C753 C 0.6099 0.3383 0.69103 0.0
C754 C 0.63082 0.35938 0.74063 0.0
C755 C 0.62898 0.3816 0.79339 0.0
C756 C 0.60624 0.38287 0.7966 0.0
C757 C 0.58529 0.36193 0.74706 0.0
H758 H 0.64518 0.39782 0.83182 0.0
H759 H 0.43883 0.20995 0.34966 0.0
loop_
_geom_bond_atom_site_label_1
_geom_bond_atom_site_label_2
_geom_bond_distance
_geom_bond_site_symmetry_2
_ccdc_geom_bond_type
Dy0 O3 2.307 . S
Dy0 O5 2.395 . S
Dy0 O6 2.379 . S
Dy0 O8 2.339 . S
Dy0 O10 2.298 . S
Dy0 O14 2.275 . S
Dy0 C22 2.738 . S
Dy1 O4 2.296 . S
Dy1 O7 2.288 . S
Dy1 O9 2.328 . S
Dy1 O11 2.373 1_455 S
Dy1 O12 2.355 1_455 S
Dy1 O15 2.347 . S
Dy1 C31 2.712 1_455 S
C2 O14 1.254 . S
C2 O15 1.257 . S
O3 Dy0 2.307 . S
O3 C13 1.266 . S
O4 Dy1 2.296 . S
O4 C13 1.236 . S
O5 Dy0 2.395 . S
O5 C22 1.255 . S
O6 Dy0 2.379 . S
O6 C22 1.249 . S
O7 Dy1 2.288 . S
O7 C23 1.254 . S
O8 Dy0 2.339 . S
O8 C23 1.257 . S
O9 Dy1 2.328 . S
O9 C24 1.266 . S
O10 Dy0 2.298 . S
O10 C24 1.236 . S
O11 Dy1 2.373 1_655 S
O11 C31 1.255 . S
O12 Dy1 2.355 1_655 S
O12 C31 1.249 . S
C13 O3 1.266 . S
C13 O4 1.236 . S
O14 Dy0 2.275 . S
O14 C2 1.254 . S
O15 Dy1 2.347 . S
O15 C2 1.257 . S
C16 C19 1.344 . S
C16 C20 1.328 . S
C16 C22 1.516 . S
C17 C18 1.304 . S
C17 C21 1.323 . S
C18 C17 1.304 . S
C18 C19 1.371 . S
C18 H32 0.930 . S
C19 C16 1.344 . S
C19 C18 1.371 . S
C19 H33 0.931 . S
C20 C16 1.328 . S
C20 C21 1.433 . S
C20 H34 0.931 . S
C21 C17 1.323 . S
C21 C20 1.433 . S
C21 H35 0.933 . S
C22 Dy0 2.738 . S
C22 O5 1.255 . S
C22 O6 1.249 . S
C22 C16 1.516 . S
C23 O7 1.254 . S
C23 O8 1.257 . S
C24 O9 1.266 . S
C24 O10 1.236 . S
C25 C28 1.344 . S
C25 C29 1.328 . S
C25 C31 1.516 . S
C26 C27 1.304 . S
C26 C30 1.323 . S
C27 C26 1.304 . S
C27 C28 1.371 . S
C27 H36 0.930 . S
C28 C25 1.344 . S
C28 C27 1.371 . S
C28 H37 0.931 . S
C29 C25 1.328 . S
C29 C30 1.433 . S
C29 H38 0.931 . S
C30 C26 1.323 . S
C30 C29 1.433 . S
C30 H39 0.933 . S
C31 Dy1 2.712 1_655 S
C31 O11 1.255 . S
C31 O12 1.249 . S
C31 C25 1.516 . S
H32 C18 0.930 . S
H33 C19 0.931 . S
H34 C20 0.931 . S
H35 C21 0.933 . S
H36 C27 0.930 . S
H37 C28 0.931 . S
H38 C29 0.931 . S
H39 C30 0.933 . S
Dy40 O43 2.307 . S
Dy40 O45 2.395 . S
Dy40 O46 2.379 . S
Dy40 O48 2.339 . S
Dy40 O50 2.298 . S
Dy40 O54 2.275 . S
Dy40 C62 2.738 . S
Dy41 O44 2.298 1_655 S
Dy41 O47 2.275 1_655 S
Dy41 O49 2.307 1_655 S
Dy41 O51 2.395 . S
Dy41 O52 2.379 . S
Dy41 O55 2.339 1_655 S
Dy41 C71 2.738 . S
C42 O54 1.254 . S
C42 O55 1.257 . S
O43 Dy40 2.307 . S
O43 C53 1.266 . S
O44 Dy41 2.298 1_455 S
O44 C53 1.236 . S
O45 Dy40 2.395 . S
O45 C62 1.255 . S
O46 Dy40 2.379 . S
O46 C62 1.249 . S
O47 Dy41 2.275 1_455 S
O47 C63 1.254 . S
O48 Dy40 2.339 . S
O48 C63 1.257 . S
O49 Dy41 2.307 1_455 S
O49 C64 1.266 . S
O50 Dy40 2.298 . S
O50 C64 1.236 . S
O51 Dy41 2.395 . S
O51 C71 1.255 . S
O52 Dy41 2.379 . S
O52 C71 1.249 . S
C53 O43 1.266 . S
C53 O44 1.236 . S
O54 Dy40 2.275 . S
O54 C42 1.254 . S
O55 Dy41 2.339 1_455 S
O55 C42 1.257 . S
C56 C59 1.344 . S
C56 C60 1.328 . S
C56 C62 1.516 . S
C57 C58 1.304 . S
C57 C61 1.323 . S
C58 C57 1.304 . S
C58 C59 1.371 . S
C58 H72 0.930 . S
C59 C56 1.344 . S
C59 C58 1.371 . S
C59 H73 0.931 . S
C60 C56 1.328 . S
C60 C61 1.433 . S
C60 H74 0.931 . S
C61 C57 1.323 . S
C61 C60 1.433 . S
C61 H75 0.933 . S
C62 Dy40 2.738 . S
C62 O45 1.255 . S
C62 O46 1.249 . S
C62 C56 1.516 . S
C63 O47 1.254 . S
C63 O48 1.257 . S
C64 O49 1.266 . S
C64 O50 1.236 . S
C65 C68 1.344 . S
C65 C69 1.328 . S
C65 C71 1.516 . S
C66 C67 1.304 . S
C66 C70 1.323 . S
C67 C66 1.304 . S
C67 C68 1.371 . S
C67 H76 0.930 . S
C68 C65 1.344 . S
C68 C67 1.371 . S
C68 H77 0.931 . S
C69 C65 1.328 . S
C69 C70 1.433 . S
C69 H78 0.931 . S
C70 C66 1.323 . S
C70 C69 1.433 . S
C70 H79 0.933 . S
C71 Dy41 2.738 . S
C71 O51 1.255 . S
C71 O52 1.249 . S
C71 C65 1.516 . S
H72 C58 0.930 . S
H73 C59 0.931 . S
H74 C60 0.931 . S
H75 C61 0.933 . S
H76 C67 0.930 . S
H77 C68 0.931 . S
H78 C69 0.931 . S
H79 C70 0.933 . S
Dy80 O83 2.307 . S
Dy80 O85 2.395 . S
Dy80 O86 2.379 . S
Dy80 O88 2.339 1_556 S
Dy80 O90 2.298 . S
Dy80 O94 2.275 . S
Dy80 C102 2.738 . S
Dy81 O84 2.298 . S
Dy81 O87 2.275 . S
Dy81 O89 2.307 . S
Dy81 O91 2.395 . S
Dy81 O92 2.379 . S
Dy81 O95 2.339 . S
Dy81 C111 2.738 . S
C82 O94 1.254 . S
C82 O95 1.257 . S
O83 Dy80 2.307 . S
O83 C93 1.266 . S
O84 Dy81 2.298 . S
O84 C93 1.236 . S
O85 Dy80 2.395 . S
O85 C102 1.255 . S
O86 Dy80 2.379 . S
O86 C102 1.249 . S
O87 Dy81 2.275 . S
O87 C103 1.254 1_556 S
O88 Dy80 2.339 1_554 S
O88 C103 1.257 . S
O89 Dy81 2.307 . S
O89 C104 1.266 . S
O90 Dy80 2.298 . S
O90 C104 1.236 . S
O91 Dy81 2.395 . S
O91 C111 1.255 . S
O92 Dy81 2.379 . S
O92 C111 1.249 . S
C93 O83 1.266 . S
C93 O84 1.236 . S
O94 Dy80 2.275 . S
O94 C82 1.254 . S
O95 Dy81 2.339 . S
O95 C82 1.257 . S
C96 C99 1.344 . S
C96 C100 1.328 . S
C96 C102 1.516 . S
C97 C98 1.304 . S
C97 C101 1.323 . S
C98 C97 1.304 . S
C98 C99 1.371 . S
C98 H112 0.930 . S
C99 C96 1.344 . S
C99 C98 1.371 . S
C99 H113 0.931 . S
C100 C96 1.328 . S
C100 C101 1.433 . S
C100 H114 0.931 . S
C101 C97 1.323 . S
C101 C100 1.433 . S
C101 H115 0.933 . S
C102 Dy80 2.738 . S
C102 O85 1.255 . S
C102 O86 1.249 . S
C102 C96 1.516 . S
C103 O87 1.254 1_554 S
C103 O88 1.257 . S
C104 O89 1.266 . S
C104 O90 1.236 . S
C105 C108 1.344 . S
C105 C109 1.328 . S
C105 C111 1.516 . S
C106 C107 1.304 . S
C106 C110 1.323 . S
C107 C106 1.304 . S
C107 C108 1.371 . S
C107 H116 0.930 . S
C108 C105 1.344 . S
C108 C107 1.371 . S
C108 H117 0.931 . S
C109 C105 1.328 . S
C109 C110 1.433 . S
C109 H118 0.931 . S
C110 C106 1.323 . S
C110 C109 1.433 . S
C110 H119 0.933 . S
C111 Dy81 2.738 . S
C111 O91 1.255 . S
C111 O92 1.249 . S
C111 C105 1.516 . S
H112 C98 0.930 . S
H113 C99 0.931 . S
H114 C100 0.931 . S
H115 C101 0.933 . S
H116 C107 0.930 . S
H117 C108 0.931 . S
H118 C109 0.931 . S
H119 C110 0.933 . S
Dy120 O123 2.307 . S
Dy120 O125 2.395 . S
Dy120 O126 2.379 . S
Dy120 O128 2.339 . S
Dy120 O130 2.298 . S
Dy120 O134 2.275 . S
Dy120 C142 2.738 . S
Dy121 O124 2.298 . S
Dy121 O127 2.275 . S
Dy121 O129 2.307 . S
Dy121 O131 2.395 . S
Dy121 O132 2.379 . S
Dy121 O135 2.339 1_554 S
Dy121 C151 2.738 . S
C122 O134 1.254 1_556 S
C122 O135 1.257 . S
O123 Dy120 2.307 . S
O123 C133 1.266 . S
O124 Dy121 2.298 . S
O124 C133 1.236 . S
O125 Dy120 2.395 . S
O125 C142 1.255 . S
O126 Dy120 2.379 . S
O126 C142 1.249 . S
O127 Dy121 2.275 . S
O127 C143 1.254 . S
O128 Dy120 2.339 . S
O128 C143 1.257 . S
O129 Dy121 2.307 . S
O129 C144 1.266 . S
O130 Dy120 2.298 . S
O130 C144 1.236 . S
O131 Dy121 2.395 . S
O131 C151 1.255 . S
O132 Dy121 2.379 . S
O132 C151 1.249 . S
C133 O123 1.266 . S
C133 O124 1.236 . S
O134 Dy120 2.275 . S
O134 C122 1.254 1_554 S
O135 Dy121 2.339 1_556 S
O135 C122 1.257 . S
C136 C139 1.344 . S
C136 C140 1.328 . S
C136 C142 1.516 . S
C137 C138 1.304 . S
C137 C141 1.323 . S
C138 C137 1.304 . S
C138 C139 1.371 . S
C138 H152 0.930 . S
C139 C136 1.344 . S
C139 C138 1.371 . S
C139 H153 0.931 . S
C140 C136 1.328 . S
C140 C141 1.433 . S
C140 H154 0.931 . S
C141 C137 1.323 . S
C141 C140 1.433 . S
C141 H155 0.933 . S
C142 Dy120 2.738 . S
C142 O125 1.255 . S
C142 O126 1.249 . S
C142 C136 1.516 . S
C143 O127 1.254 . S
C143 O128 1.257 . S
C144 O129 1.266 . S
C144 O130 1.236 . S
C145 C148 1.344 . S
C145 C149 1.328 . S
C145 C151 1.516 . S
C146 C147 1.304 . S
C146 C150 1.323 . S
C147 C146 1.304 . S
C147 C148 1.371 . S
C147 H156 0.930 . S
C148 C145 1.344 . S
C148 C147 1.371 . S
C148 H157 0.931 . S
C149 C145 1.328 . S
C149 C150 1.433 . S
C149 H158 0.931 . S
C150 C146 1.323 . S
C150 C149 1.433 . S
C150 H159 0.933 . S
C151 Dy121 2.738 . S
C151 O131 1.255 . S
C151 O132 1.249 . S
C151 C145 1.516 . S
H152 C138 0.930 . S
H153 C139 0.931 . S
H154 C140 0.931 . S
H155 C141 0.933 . S
H156 C147 0.930 . S
H157 C148 0.931 . S
H158 C149 0.931 . S
H159 C150 0.933 . S
H160 C178 0.951 1_655 S
H161 C180 0.951 1_655 S
H162 C182 0.950 . S
H163 C183 0.950 . S
H164 C185 0.950 . S
H165 C188 0.950 . S
H166 C189 0.950 . S
H167 C191 0.950 . S
H168 C192 0.950 . S
H169 C193 0.951 . S
H170 C195 0.951 . S
H171 C197 0.950 1_655 S
H172 C198 0.950 1_655 S
H173 C200 0.950 . S
H174 C203 0.950 . S
H175 C204 0.950 . S
H176 C206 0.950 . S
H177 C207 0.950 . S
C178 H160 0.951 1_455 S
C178 C179 1.366 . S
C178 C180 1.388 . S
C179 C178 1.366 . S
C179 C183 1.385 . S
C180 H161 0.951 1_455 S
C180 C178 1.388 . S
C180 C181 1.366 . S
C181 C180 1.366 . S
C181 C182 1.414 . S
C181 C184 1.499 . S
C182 H162 0.950 . S
C182 C181 1.414 . S
C182 C183 1.374 . S
C183 H163 0.950 . S
C183 C179 1.385 . S
C183 C182 1.374 . S
C184 C181 1.499 . S
C184 C185 1.373 . S
C184 C186 1.389 . S
C185 H164 0.950 . S
C185 C184 1.373 . S
C185 C201 1.377 . S
C186 C184 1.389 . S
C186 C187 1.524 . S
C186 C200 1.377 . S
C187 C186 1.524 . S
C187 C188 1.397 . S
C187 C192 1.363 1_455 S
C188 H165 0.950 . S
C188 C187 1.397 . S
C188 C189 1.334 . S
C189 H166 0.950 . S
C189 C188 1.334 . S
C189 C190 1.287 1_455 S
C190 C189 1.287 1_655 S
C190 C191 1.524 . S
C190 H209 0.913 . S
C191 H167 0.950 . S
C191 C190 1.524 . S
C191 C192 1.415 . S
C192 H168 0.950 . S
C192 C187 1.363 1_655 S
C192 C191 1.415 . S
C193 H169 0.951 . S
C193 C194 1.366 . S
C193 C195 1.388 . S
C194 C193 1.366 . S
C194 C198 1.385 . S
C195 H170 0.951 . S
C195 C193 1.388 . S
C195 C196 1.366 . S
C196 C195 1.366 . S
C196 C197 1.414 . S
C196 C199 1.499 . S
C197 H171 0.950 1_455 S
C197 C196 1.414 . S
C197 C198 1.374 . S
C198 H172 0.950 1_455 S
C198 C194 1.385 . S
C198 C197 1.374 . S
C199 C196 1.499 . S
C199 C200 1.373 . S
C199 C201 1.389 . S
C200 H173 0.950 . S
C200 C186 1.377 . S
C200 C199 1.373 . S
C201 C185 1.377 . S
C201 C199 1.389 . S
C201 C202 1.524 . S
C202 C201 1.524 . S
C202 C203 1.397 . S
C202 C207 1.363 . S
C203 H174 0.950 . S
C203 C202 1.397 . S
C203 C204 1.334 . S
C204 H175 0.950 . S
C204 C203 1.334 . S
C204 C205 1.287 . S
C205 C204 1.287 . S
C205 C206 1.524 . S
C205 H208 0.999 . S
C206 H176 0.950 . S
C206 C205 1.524 . S
C206 C207 1.415 . S
C207 H177 0.950 . S
C207 C202 1.363 . S
C207 C206 1.415 . S
H208 C205 0.999 . S
H209 C190 0.913 . S
H210 C228 0.951 . S
H211 C230 0.951 . S
H212 C232 0.950 . S
H213 C233 0.950 . S
H214 C235 0.950 . S
H215 C238 0.950 . S
H216 C239 0.950 . S
H217 C241 0.950 . S
H218 C242 0.950 . S
H219 C243 0.951 . S
H220 C245 0.951 . S
H221 C247 0.950 . S
H222 C248 0.950 . S
H223 C250 0.950 . S
H224 C253 0.950 . S
H225 C254 0.950 . S
H226 C256 0.950 . S
H227 C257 0.950 . S
C228 H210 0.951 . S
C228 C229 1.366 . S
C228 C230 1.388 . S
C229 C228 1.366 . S
C229 C233 1.385 . S
C230 H211 0.951 . S
C230 C228 1.388 . S
C230 C231 1.366 . S
C231 C230 1.366 . S
C231 C232 1.414 . S
C231 C234 1.499 . S
C232 H212 0.950 . S
C232 C231 1.414 . S
C232 C233 1.374 . S
C233 H213 0.950 . S
C233 C229 1.385 . S
C233 C232 1.374 . S
C234 C231 1.499 . S
C234 C235 1.373 . S
C234 C236 1.389 . S
C235 H214 0.950 . S
C235 C234 1.373 . S
C235 C251 1.377 . S
C236 C234 1.389 . S
C236 C237 1.524 . S
C236 C250 1.377 . S
C237 C236 1.524 . S
C237 C238 1.397 . S
C237 C242 1.363 . S
C238 H215 0.950 . S
C238 C237 1.397 . S
C238 C239 1.334 . S
C239 H216 0.950 . S
C239 C238 1.334 . S
C239 C240 1.287 . S
C240 C239 1.287 . S
C240 C241 1.524 . S
C240 H259 0.913 . S
C241 H217 0.950 . S
C241 C240 1.524 . S
C241 C242 1.415 . S
C242 H218 0.950 . S
C242 C237 1.363 . S
C242 C241 1.415 . S
C243 H219 0.951 . S
C243 C244 1.366 . S
C243 C245 1.388 . S
C244 C243 1.366 . S
C244 C248 1.385 . S
C245 H220 0.951 . S
C245 C243 1.388 . S
C245 C246 1.366 . S
C246 C245 1.366 . S
C246 C247 1.414 . S
C246 C249 1.499 . S
C247 H221 0.950 . S
C247 C246 1.414 . S
C247 C248 1.374 . S
C248 H222 0.950 . S
C248 C244 1.385 . S
C248 C247 1.374 . S
C249 C246 1.499 . S
C249 C250 1.373 . S
C249 C251 1.389 . S
C250 H223 0.950 . S
C250 C236 1.377 . S
C250 C249 1.373 . S
C251 C235 1.377 . S
C251 C249 1.389 . S
C251 C252 1.524 . S
C252 C251 1.524 . S
C252 C253 1.397 . S
C252 C257 1.363 . S
C253 H224 0.950 . S
C253 C252 1.397 . S
C253 C254 1.334 . S
C254 H225 0.950 . S
C254 C253 1.334 . S
C254 C255 1.287 . S
C255 C254 1.287 . S
C255 C256 1.524 . S
C255 H258 0.999 . S
C256 H226 0.950 . S
C256 C255 1.524 . S
C256 C257 1.415 . S
C257 H227 0.950 . S
C257 C252 1.363 . S
C257 C256 1.415 . S
H258 C255 0.999 . S
H259 C240 0.913 . S
H260 C278 0.951 . S
H261 C280 0.951 . S
H262 C282 0.950 . S
H263 C283 0.950 . S
H264 C285 0.950 . S
H265 C288 0.950 . S
H266 C289 0.950 . S
H267 C291 0.950 . S
H268 C292 0.950 1_556 S
H269 C293 0.951 . S
H270 C295 0.951 . S
H271 C297 0.950 . S
H272 C298 0.950 . S
H273 C300 0.950 . S
H274 C303 0.950 . S
H275 C304 0.950 . S
H276 C306 0.950 . S
H277 C307 0.950 1_554 S
C278 H260 0.951 . S
C278 C279 1.366 . S
C278 C280 1.388 . S
C279 C278 1.366 . S
C279 C283 1.385 . S
C280 H261 0.951 . S
C280 C278 1.388 . S
C280 C281 1.366 . S
C281 C280 1.366 . S
C281 C282 1.414 . S
C281 C284 1.499 . S
C282 H262 0.950 . S
C282 C281 1.414 . S
C282 C283 1.374 . S
C283 H263 0.950 . S
C283 C279 1.385 . S
C283 C282 1.374 . S
C284 C281 1.499 . S
C284 C285 1.373 1_554 S
C284 C286 1.389 . S
C285 H264 0.950 . S
C285 C284 1.373 1_556 S
C285 C301 1.377 . S
C286 C284 1.389 . S
C286 C287 1.524 . S
C286 C300 1.377 . S
C287 C286 1.524 . S
C287 C288 1.397 . S
C287 C292 1.363 . S
C288 H265 0.950 . S
C288 C287 1.397 . S
C288 C289 1.334 . S
C289 H266 0.950 . S
C289 C288 1.334 . S
C289 C290 1.287 . S
C290 C289 1.287 . S
C290 C291 1.524 . S
C290 H309 0.913 . S
C291 H267 0.950 . S
C291 C290 1.524 . S
C291 C292 1.415 . S
C292 H268 0.950 1_554 S
C292 C287 1.363 . S
C292 C291 1.415 . S
C293 H269 0.951 . S
C293 C294 1.366 . S
C293 C295 1.388 . S
C294 C293 1.366 . S
C294 C298 1.385 . S
C295 H270 0.951 . S
C295 C293 1.388 . S
C295 C296 1.366 . S
C296 C295 1.366 . S
C296 C297 1.414 . S
C296 C299 1.499 . S
C297 H271 0.950 . S
C297 C296 1.414 . S
C297 C298 1.374 . S
C298 H272 0.950 . S
C298 C294 1.385 . S
C298 C297 1.374 . S
C299 C296 1.499 . S
C299 C300 1.373 1_556 S
C299 C301 1.389 . S
C300 H273 0.950 . S
C300 C286 1.377 . S
C300 C299 1.373 1_554 S
C301 C285 1.377 . S
C301 C299 1.389 . S
C301 C302 1.524 . S
C302 C301 1.524 . S
C302 C303 1.397 . S
C302 C307 1.363 . S
C303 H274 0.950 . S
C303 C302 1.397 . S
C303 C304 1.334 . S
C304 H275 0.950 . S
C304 C303 1.334 . S
C304 C305 1.287 . S
C305 C304 1.287 . S
C305 C306 1.524 . S
C305 H308 0.999 . S
C306 H276 0.950 . S
C306 C305 1.524 . S
C306 C307 1.415 . S
C307 H277 0.950 1_556 S
C307 C302 1.363 . S
C307 C306 1.415 . S
H308 C305 0.999 . S
H309 C290 0.913 . S
H310 C328 0.951 . S
H311 C330 0.951 . S
H312 C332 0.950 . S
H313 C333 0.950 . S
H314 C335 0.950 . S
H315 C338 0.950 . S
H316 C339 0.950 . S
H317 C341 0.950 1_556 S
H318 C342 0.950 . S
H319 C343 0.951 . S
H320 C345 0.951 . S
H321 C347 0.950 . S
H322 C348 0.950 . S
H323 C350 0.950 . S
H324 C353 0.950 . S
H325 C354 0.950 . S
H326 C356 0.950 . S
H327 C357 0.950 . S
C328 H310 0.951 . S
C328 C329 1.366 . S
C328 C330 1.388 . S
C329 C328 1.366 . S
C329 C333 1.385 . S
C330 H311 0.951 . S
C330 C328 1.388 . S
C330 C331 1.366 . S
C331 C330 1.366 . S
C331 C332 1.414 . S
C331 C334 1.499 . S
C332 H312 0.950 . S
C332 C331 1.414 . S
C332 C333 1.374 . S
C333 H313 0.950 . S
C333 C329 1.385 . S
C333 C332 1.374 . S
C334 C331 1.499 . S
C334 C335 1.373 . S
C334 C336 1.389 . S
C335 H314 0.950 . S
C335 C334 1.373 . S
C335 C351 1.377 . S
C336 C334 1.389 . S
C336 C337 1.524 . S
C336 C350 1.377 . S
C337 C336 1.524 . S
C337 C338 1.397 . S
C337 C342 1.363 . S
C338 H315 0.950 . S
C338 C337 1.397 . S
C338 C339 1.334 . S
C339 H316 0.950 . S
C339 C338 1.334 . S
C339 C340 1.287 . S
C340 C339 1.287 . S
C340 C341 1.524 . S
C340 H359 0.913 . S
C341 H317 0.950 1_554 S
C341 C340 1.524 . S
C341 C342 1.415 . S
C342 H318 0.950 . S
C342 C337 1.363 . S
C342 C341 1.415 . S
C343 H319 0.951 . S
C343 C344 1.366 . S
C343 C345 1.388 . S
C344 C343 1.366 . S
C344 C348 1.385 . S
C345 H320 0.951 . S
C345 C343 1.388 . S
C345 C346 1.366 . S
C346 C345 1.366 . S
C346 C347 1.414 . S
C346 C349 1.499 . S
C347 H321 0.950 . S
C347 C346 1.414 . S
C347 C348 1.374 . S
C348 H322 0.950 . S
C348 C344 1.385 . S
C348 C347 1.374 . S
C349 C346 1.499 . S
C349 C350 1.373 . S
C349 C351 1.389 . S
C350 H323 0.950 . S
C350 C336 1.377 . S
C350 C349 1.373 . S
C351 C335 1.377 . S
C351 C349 1.389 . S
C351 C352 1.524 . S
C352 C351 1.524 . S
C352 C353 1.397 . S
C352 C357 1.363 . S
C353 H324 0.950 . S
C353 C352 1.397 . S
C353 C354 1.334 . S
C354 H325 0.950 . S
C354 C353 1.334 . S
C354 C355 1.287 . S
C355 C354 1.287 . S
C355 C356 1.524 . S
C355 H358 0.999 . S
C356 H326 0.950 . S
C356 C355 1.524 . S
C356 C357 1.415 . S
C357 H327 0.950 . S
C357 C352 1.363 . S
C357 C356 1.415 . S
H358 C355 0.999 . S
H359 C340 0.913 . S
H360 C378 0.951 . S
H361 C380 0.951 . S
H362 C382 0.950 . S
H363 C383 0.950 . S
H364 C385 0.950 . S
H365 C388 0.950 . S
H366 C389 0.950 . S
H367 C391 0.950 . S
H368 C392 0.950 . S
H369 C393 0.951 . S
H370 C395 0.951 . S
H371 C397 0.950 . S
H372 C398 0.950 . S
H373 C400 0.950 . S
H374 C403 0.950 . S
H375 C404 0.950 . S
H376 C406 0.950 1_556 S
H377 C407 0.950 . S
C378 H360 0.951 . S
C378 C379 1.366 . S
C378 C380 1.388 . S
C379 C378 1.366 . S
C379 C383 1.385 . S
C380 H361 0.951 . S
C380 C378 1.388 . S
C380 C381 1.366 . S
C381 C380 1.366 . S
C381 C382 1.414 . S
C381 C384 1.499 . S
C382 H362 0.950 . S
C382 C381 1.414 . S
C382 C383 1.374 . S
C383 H363 0.950 . S
C383 C379 1.385 . S
C383 C382 1.374 . S
C384 C381 1.499 . S
C384 C385 1.373 . S
C384 C386 1.389 . S
C385 H364 0.950 . S
C385 C384 1.373 . S
C385 C401 1.377 . S
C386 C384 1.389 . S
C386 C387 1.524 . S
C386 C400 1.377 . S
C387 C386 1.524 . S
C387 C388 1.397 . S
C387 C392 1.363 . S
C388 H365 0.950 . S
C388 C387 1.397 . S
C388 C389 1.334 . S
C389 H366 0.950 . S
C389 C388 1.334 . S
C389 C390 1.287 . S
C390 C389 1.287 . S
C390 C391 1.524 . S
C390 H409 0.913 . S
C391 H367 0.950 . S
C391 C390 1.524 . S
C391 C392 1.415 . S
C392 H368 0.950 . S
C392 C387 1.363 . S
C392 C391 1.415 . S
C393 H369 0.951 . S
C393 C394 1.366 . S
C393 C395 1.388 . S
C394 C393 1.366 . S
C394 C398 1.385 . S
C395 H370 0.951 . S
C395 C393 1.388 . S
C395 C396 1.366 . S
C396 C395 1.366 . S
C396 C397 1.414 . S
C396 C399 1.499 . S
C397 H371 0.950 . S
C397 C396 1.414 . S
C397 C398 1.374 . S
C398 H372 0.950 . S
C398 C394 1.385 . S
C398 C397 1.374 . S
C399 C396 1.499 . S
C399 C400 1.373 . S
C399 C401 1.389 . S
C400 H373 0.950 . S
C400 C386 1.377 . S
C400 C399 1.373 . S
C401 C385 1.377 . S
C401 C399 1.389 . S
C401 C402 1.524 . S
C402 C401 1.524 . S
C402 C403 1.397 . S
C402 C407 1.363 . S
C403 H374 0.950 . S
C403 C402 1.397 . S
C403 C404 1.334 . S
C404 H375 0.950 . S
C404 C403 1.334 . S
C404 C405 1.287 . S
C405 C404 1.287 . S
C405 C406 1.524 . S
C405 H408 0.999 . S
C406 H376 0.950 1_554 S
C406 C405 1.524 . S
C406 C407 1.415 . S
C407 H377 0.950 . S
C407 C402 1.363 . S
C407 C406 1.415 . S
H408 C405 0.999 . S
H409 C390 0.913 . S
H410 C428 0.951 . S
H411 C430 0.951 . S
H412 C432 0.950 . S
H413 C433 0.950 . S
H414 C435 0.950 . S
H415 C438 0.950 . S
H416 C439 0.950 . S
H417 C441 0.950 1_554 S
H418 C442 0.950 . S
H419 C443 0.951 . S
H420 C445 0.951 . S
H421 C447 0.950 . S
H422 C448 0.950 . S
H423 C450 0.950 . S
H424 C453 0.950 . S
H425 C454 0.950 . S
H426 C456 0.950 . S
H427 C457 0.950 . S
C428 H410 0.951 . S
C428 C429 1.366 . S
C428 C430 1.388 . S
C429 C428 1.366 . S
C429 C433 1.385 . S
C430 H411 0.951 . S
C430 C428 1.388 . S
C430 C431 1.366 . S
C431 C430 1.366 . S
C431 C432 1.414 . S
C431 C434 1.499 . S
C432 H412 0.950 . S
C432 C431 1.414 . S
C432 C433 1.374 . S
C433 H413 0.950 . S
C433 C429 1.385 . S
C433 C432 1.374 . S
C434 C431 1.499 . S
C434 C435 1.373 . S
C434 C436 1.389 . S
C435 H414 0.950 . S
C435 C434 1.373 . S
C435 C451 1.377 . S
C436 C434 1.389 . S
C436 C437 1.524 . S
C436 C450 1.377 . S
C437 C436 1.524 . S
C437 C438 1.397 . S
C437 C442 1.363 . S
C438 H415 0.950 . S
C438 C437 1.397 . S
C438 C439 1.334 . S
C439 H416 0.950 . S
C439 C438 1.334 . S
C439 C440 1.287 . S
C440 C439 1.287 . S
C440 C441 1.524 . S
C440 H459 0.913 . S
C441 H417 0.950 1_556 S
C441 C440 1.524 . S
C441 C442 1.415 . S
C442 H418 0.950 . S
C442 C437 1.363 . S
C442 C441 1.415 . S
C443 H419 0.951 . S
C443 C444 1.366 . S
C443 C445 1.388 . S
C444 C443 1.366 . S
C444 C448 1.385 . S
C445 H420 0.951 . S
C445 C443 1.388 . S
C445 C446 1.366 . S
C446 C445 1.366 . S
C446 C447 1.414 . S
C446 C449 1.499 . S
C447 H421 0.950 . S
C447 C446 1.414 . S
C447 C448 1.374 . S
C448 H422 0.950 . S
C448 C444 1.385 . S
C448 C447 1.374 . S
C449 C446 1.499 . S
C449 C450 1.373 . S
C449 C451 1.389 . S
C450 H423 0.950 . S
C450 C436 1.377 . S
C450 C449 1.373 . S
C451 C435 1.377 . S
C451 C449 1.389 . S
C451 C452 1.524 . S
C452 C451 1.524 . S
C452 C453 1.397 . S
C452 C457 1.363 . S
C453 H424 0.950 . S
C453 C452 1.397 . S
C453 C454 1.334 . S
C454 H425 0.950 . S
C454 C453 1.334 . S
C454 C455 1.287 . S
C455 C454 1.287 . S
C455 C456 1.524 . S
C455 H458 0.999 . S
C456 H426 0.950 . S
C456 C455 1.524 . S
C456 C457 1.415 . S
C457 H427 0.950 . S
C457 C452 1.363 . S
C457 C456 1.415 . S
H458 C455 0.999 . S
H459 C440 0.913 . S
H460 C478 0.951 . S
H461 C480 0.951 . S
H462 C482 0.950 1_554 S
H463 C483 0.950 1_554 S
H464 C485 0.950 . S
H465 C488 0.962 . S
H466 C489 0.950 . S
H467 C491 0.950 . S
H468 C492 0.950 . S
H469 C493 0.951 . S
H470 C495 0.951 . S
H471 C497 0.950 1_556 S
H472 C498 0.944 1_556 S
H473 C500 0.950 . S
H474 C503 0.962 . S
H475 C504 0.950 . S
H476 C506 0.950 . S
H477 C507 0.950 . S
C478 H460 0.951 . S
C478 C479 1.366 . S
C478 C480 1.388 . S
C479 C478 1.366 . S
C479 C483 1.385 . S
C480 H461 0.951 . S
C480 C478 1.388 . S
C480 C481 1.366 . S
C481 C480 1.366 . S
C481 C482 1.414 . S
C481 C484 1.499 . S
C482 H462 0.950 1_556 S
C482 C481 1.414 . S
C482 C483 1.374 . S
C483 H463 0.950 1_556 S
C483 C479 1.385 . S
C483 C482 1.374 . S
C484 C481 1.499 . S
C484 C485 1.373 1_556 S
C484 C486 1.389 1_565 S
C485 H464 0.950 . S
C485 C484 1.373 1_554 S
C485 C501 1.377 . S
C486 C484 1.389 1_545 S
C486 C487 1.524 . S
C486 C500 1.377 . S
C487 C486 1.524 . S
C487 C488 1.397 . S
C487 C492 1.363 . S
C488 H465 0.962 . S
C488 C487 1.397 . S
C488 C489 1.334 . S
C489 H466 0.950 . S
C489 C488 1.334 . S
C489 C490 1.287 . S
C490 C489 1.287 . S
C490 C491 1.524 . S
C490 H509 0.913 . S
C491 H467 0.950 . S
C491 C490 1.524 . S
C491 C492 1.415 . S
C492 H468 0.950 . S
C492 C487 1.363 . S
C492 C491 1.415 . S
C493 H469 0.951 . S
C493 C494 1.366 . S
C493 C495 1.388 . S
C494 C493 1.366 . S
C494 C498 1.385 . S
C495 H470 0.951 . S
C495 C493 1.388 . S
C495 C496 1.366 . S
C496 C495 1.366 . S
C496 C497 1.414 . S
C496 C499 1.499 . S
C497 H471 0.950 1_554 S
C497 C496 1.414 . S
C497 C498 1.374 . S
C498 H472 0.944 1_554 S
C498 C494 1.385 . S
C498 C497 1.374 . S
C499 C496 1.499 . S
C499 C500 1.373 1_554 S
C499 C501 1.389 1_545 S
C500 H473 0.950 . S
C500 C486 1.377 . S
C500 C499 1.373 1_556 S
C501 C485 1.377 . S
C501 C499 1.389 1_565 S
C501 C502 1.524 . S
C502 C501 1.524 . S
C502 C503 1.397 . S
C502 C507 1.363 . S
C503 H474 0.962 . S
C503 C502 1.397 . S
C503 C504 1.334 . S
C504 H475 0.950 . S
C504 C503 1.334 . S
C504 C505 1.287 . S
C505 C504 1.287 . S
C505 C506 1.524 . S
C505 H508 0.999 . S
C506 H476 0.950 . S
C506 C505 1.524 . S
C506 C507 1.415 . S
C507 H477 0.950 . S
C507 C502 1.363 . S
C507 C506 1.415 . S
H508 C505 0.999 . S
H509 C490 0.913 . S
H510 C528 0.951 . S
H511 C530 0.951 . S
H512 C532 0.991 . S
H513 C533 0.955 . S
H514 C535 0.950 . S
H515 C538 0.950 . S
H516 C539 0.938 1_655 S
H517 C541 0.950 . S
H518 C542 0.950 . S
H519 C543 0.951 . S
H520 C545 0.951 . S
H521 C547 0.950 . S
H522 C548 0.950 . S
H523 C550 0.950 . S
H524 C553 0.950 . S
H525 C554 0.950 . S
H526 C556 0.950 . S
H527 C557 0.950 . S
C528 H510 0.951 . S
C528 C529 1.366 . S
C528 C530 1.388 . S
C529 C528 1.366 . S
C529 C533 1.385 . S
C530 H511 0.951 . S
C530 C528 1.388 . S
C530 C531 1.366 . S
C531 C530 1.366 . S
C531 C532 1.414 . S
C531 C534 1.499 . S
C532 H512 0.991 . S
C532 C531 1.414 . S
C532 C533 1.374 . S
C533 H513 0.955 . S
C533 C529 1.385 . S
C533 C532 1.374 . S
C534 C531 1.499 . S
C534 C535 1.373 . S
C534 C536 1.389 . S
C535 H514 0.950 . S
C535 C534 1.373 . S
C535 C551 1.377 1_565 S
C536 C534 1.389 . S
C536 C537 1.524 . S
C536 C550 1.377 1_565 S
C537 C536 1.524 . S
C537 C538 1.397 . S
C537 C542 1.363 1_565 S
C538 H515 0.950 . S
C538 C537 1.397 . S
C538 C539 1.334 . S
C539 H516 0.938 1_455 S
C539 C538 1.334 . S
C539 C540 1.287 . S
C540 C539 1.287 . S
C540 C541 1.524 1_565 S
C540 H559 0.913 . S
C541 H517 0.950 . S
C541 C540 1.524 1_545 S
C541 C542 1.415 . S
C542 H518 0.950 . S
C542 C537 1.363 1_545 S
C542 C541 1.415 . S
C543 H519 0.951 . S
C543 C544 1.366 . S
C543 C545 1.388 . S
C544 C543 1.366 . S
C544 C548 1.385 . S
C545 H520 0.951 . S
C545 C543 1.388 . S
C545 C546 1.366 . S
C546 C545 1.366 . S
C546 C547 1.414 . S
C546 C549 1.499 . S
C547 H521 0.950 . S
C547 C546 1.414 . S
C547 C548 1.374 . S
C548 H522 0.950 . S
C548 C544 1.385 . S
C548 C547 1.374 . S
C549 C546 1.499 . S
C549 C550 1.373 . S
C549 C551 1.389 . S
C550 H523 0.950 . S
C550 C536 1.377 1_545 S
C550 C549 1.373 . S
C551 C535 1.377 1_545 S
C551 C549 1.389 . S
C551 C552 1.524 . S
C552 C551 1.524 . S
C552 C553 1.397 . S
C552 C557 1.363 1_545 S
C553 H524 0.950 . S
C553 C552 1.397 . S
C553 C554 1.334 . S
C554 H525 0.950 . S
C554 C553 1.334 . S
C554 C555 1.287 . S
C555 C554 1.287 . S
C555 C556 1.524 1_545 S
C555 H558 0.999 . S
C556 H526 0.950 . S
C556 C555 1.524 1_565 S
C556 C557 1.415 . S
C557 H527 0.950 . S
C557 C552 1.363 1_565 S
C557 C556 1.415 . S
H558 C555 0.999 . S
H559 C540 0.913 . S
H560 C578 0.951 . S
H561 C580 0.951 . S
H562 C582 0.950 . S
H563 C583 0.950 . S
H564 C585 0.950 . S
H565 C588 0.950 . S
H566 C589 0.950 . S
H567 C591 0.949 1_556 S
H568 C592 0.950 . S
H569 C593 0.951 . S
H570 C595 0.951 . S
H571 C597 0.950 . S
H572 C598 0.950 . S
H573 C600 0.950 . S
H574 C603 0.950 . S
H575 C604 0.950 . S
H576 C606 0.950 . S
H577 C607 0.950 . S
C578 H560 0.951 . S
C578 C579 1.366 . S
C578 C580 1.388 . S
C579 C578 1.366 . S
C579 C583 1.385 . S
C580 H561 0.951 . S
C580 C578 1.388 . S
C580 C581 1.366 . S
C581 C580 1.366 . S
C581 C582 1.414 . S
C581 C584 1.499 1_554 S
C582 H562 0.950 . S
C582 C581 1.414 . S
C582 C583 1.374 . S
C583 H563 0.950 . S
C583 C579 1.385 . S
C583 C582 1.374 . S
C584 C581 1.499 1_556 S
C584 C585 1.373 . S
C584 C586 1.389 . S
C585 H564 0.950 . S
C585 C584 1.373 . S
C585 C601 1.377 . S
C586 C584 1.389 . S
C586 C587 1.524 . S
C586 C600 1.377 . S
C587 C586 1.524 . S
C587 C588 1.397 1_556 S
C587 C592 1.363 . S
C588 H565 0.950 . S
C588 C587 1.397 1_554 S
C588 C589 1.334 . S
C589 H566 0.950 . S
C589 C588 1.334 . S
C589 C590 1.287 . S
C590 C589 1.287 . S
C590 C591 1.524 . S
C590 H609 0.913 . S
C591 H567 0.949 1_554 S
C591 C590 1.524 . S
C591 C592 1.415 1_554 S
C592 H568 0.950 . S
C592 C587 1.363 . S
C592 C591 1.415 1_556 S
C593 H569 0.951 . S
C593 C594 1.366 . S
C593 C595 1.388 . S
C594 C593 1.366 . S
C594 C598 1.385 . S
C595 H570 0.951 . S
C595 C593 1.388 . S
C595 C596 1.366 . S
C596 C595 1.366 . S
C596 C597 1.414 . S
C596 C599 1.499 . S
C597 H571 0.950 . S
C597 C596 1.414 . S
C597 C598 1.374 . S
C598 H572 0.950 . S
C598 C594 1.385 . S
C598 C597 1.374 . S
C599 C596 1.499 . S
C599 C600 1.373 . S
C599 C601 1.389 . S
C600 H573 0.950 . S
C600 C586 1.377 . S
C600 C599 1.373 . S
C601 C585 1.377 . S
C601 C599 1.389 . S
C601 C602 1.524 . S
C602 C601 1.524 . S
C602 C603 1.397 1_455 S
C602 C607 1.363 . S
C603 H574 0.950 . S
C603 C602 1.397 1_655 S
C603 C604 1.334 . S
C604 H575 0.950 . S
C604 C603 1.334 . S
C604 C605 1.287 . S
C605 C604 1.287 . S
C605 C606 1.524 . S
C605 H608 0.999 . S
C606 H576 0.950 . S
C606 C605 1.524 . S
C606 C607 1.415 1_655 S
C607 H577 0.950 . S
C607 C602 1.363 . S
C607 C606 1.415 1_455 S
H608 C605 0.999 . S
H609 C590 0.913 . S
H610 C628 0.951 . S
H611 C630 0.951 . S
H612 C632 0.950 1_655 S
H613 C633 0.950 1_655 S
H614 C635 0.950 . S
H615 C638 0.950 . S
H616 C639 0.940 1_556 S
H617 C641 0.950 . S
H618 C642 0.950 . S
H619 C643 0.951 1_655 S
H620 C645 0.918 1_655 S
H621 C647 0.950 . S
H622 C648 0.950 . S
H623 C650 0.950 . S
H624 C653 0.950 . S
H625 C654 0.950 . S
H626 C656 0.950 1_655 S
H627 C657 0.950 1_655 S
C628 H610 0.951 . S
C628 C629 1.366 . S
C628 C630 1.388 . S
C629 C628 1.366 . S
C629 C633 1.385 . S
C630 H611 0.951 . S
C630 C628 1.388 . S
C630 C631 1.366 . S
C631 C630 1.366 . S
C631 C632 1.414 . S
C631 C634 1.499 1_556 S
C632 H612 0.950 1_455 S
C632 C631 1.414 . S
C632 C633 1.374 . S
C633 H613 0.950 1_455 S
C633 C629 1.385 . S
C633 C632 1.374 . S
C634 C631 1.499 1_554 S
C634 C635 1.373 . S
C634 C636 1.389 . S
C635 H614 0.950 . S
C635 C634 1.373 . S
C635 C651 1.377 . S
C636 C634 1.389 . S
C636 C637 1.524 . S
C636 C650 1.377 . S
C637 C636 1.524 . S
C637 C638 1.397 . S
C637 C642 1.363 . S
C638 H615 0.950 . S
C638 C637 1.397 . S
C638 C639 1.341 . S
C639 H616 0.940 1_554 S
C639 C638 1.341 . S
C639 C640 1.291 . S
C640 C639 1.291 . S
C640 C641 1.524 . S
C640 H659 0.913 . S
C641 H617 0.950 . S
C641 C640 1.524 . S
C641 C642 1.415 . S
C642 H618 0.950 . S
C642 C637 1.363 . S
C642 C641 1.415 . S
C643 H619 0.951 1_455 S
C643 C644 1.366 . S
C643 C645 1.388 . S
C644 C643 1.366 . S
C644 C648 1.385 . S
C645 H620 0.918 1_455 S
C645 C643 1.388 . S
C645 C646 1.366 . S
C646 C645 1.366 . S
C646 C647 1.414 . S
C646 C649 1.499 . S
C647 H621 0.950 . S
C647 C646 1.414 . S
C647 C648 1.374 . S
C648 H622 0.950 . S
C648 C644 1.385 . S
C648 C647 1.374 . S
C649 C646 1.499 . S
C649 C650 1.373 . S
C649 C651 1.389 . S
C650 H623 0.950 . S
C650 C636 1.377 . S
C650 C649 1.373 . S
C651 C635 1.377 . S
C651 C649 1.389 . S
C651 C652 1.524 . S
C652 C651 1.524 . S
C652 C653 1.397 . S
C652 C657 1.363 . S
C653 H624 0.950 . S
C653 C652 1.397 . S
C653 C654 1.334 . S
C654 H625 0.950 . S
C654 C653 1.334 . S
C654 C655 1.287 . S
C655 C654 1.287 . S
C655 C656 1.524 . S
C655 H658 0.999 . S
C656 H626 0.950 1_455 S
C656 C655 1.524 . S
C656 C657 1.415 . S
C657 H627 0.950 1_455 S
C657 C652 1.363 . S
C657 C656 1.415 . S
H658 C655 0.999 . S
H659 C640 0.913 . S
H660 C678 0.951 . S
H661 C680 0.951 . S
H662 C682 0.950 . S
H663 C683 0.950 . S
H664 C685 0.950 . S
H665 C688 0.950 . S
H666 C689 0.950 . S
H667 C691 0.950 . S
H668 C692 0.950 . S
H669 C693 0.951 . S
H670 C695 0.951 . S
H671 C697 0.950 . S
H672 C698 0.950 . S
H673 C700 0.950 . S
H674 C703 0.950 . S
H675 C704 0.950 . S
H676 C706 0.950 . S
H677 C707 0.950 . S
C678 H660 0.951 . S
C678 C679 1.366 . S
C678 C680 1.388 . S
C679 C678 1.366 . S
C679 C683 1.385 . S
C680 H661 0.951 . S
C680 C678 1.388 . S
C680 C681 1.366 . S
C681 C680 1.366 . S
C681 C682 1.414 . S
C681 C684 1.499 . S
C682 H662 0.950 . S
C682 C681 1.414 . S
C682 C683 1.374 . S
C683 H663 0.950 . S
C683 C679 1.385 . S
C683 C682 1.374 . S
C684 C681 1.499 . S
C684 C685 1.373 . S
C684 C686 1.389 . S
C685 H664 0.950 . S
C685 C684 1.373 . S
C685 C701 1.377 . S
C686 C684 1.389 . S
C686 C687 1.524 . S
C686 C700 1.377 . S
C687 C686 1.524 . S
C687 C688 1.397 . S
C687 C692 1.363 . S
C688 H665 0.950 . S
C688 C687 1.397 . S
C688 C689 1.334 . S
C689 H666 0.950 . S
C689 C688 1.334 . S
C689 C690 1.287 . S
C690 C689 1.287 . S
C690 C691 1.524 . S
C690 H709 0.913 . S
C691 H667 0.950 . S
C691 C690 1.524 . S
C691 C692 1.415 . S
C692 H668 0.950 . S
C692 C687 1.363 . S
C692 C691 1.415 . S
C693 H669 0.951 . S
C693 C694 1.366 . S
C693 C695 1.388 . S
C694 C693 1.366 . S
C694 C698 1.385 . S
C695 H670 0.951 . S
C695 C693 1.388 . S
C695 C696 1.366 . S
C696 C695 1.366 . S
C696 C697 1.414 . S
C696 C699 1.499 . S
C697 H671 0.950 . S
C697 C696 1.414 . S
C697 C698 1.374 . S
C698 H672 0.950 . S
C698 C694 1.385 . S
C698 C697 1.374 . S
C699 C696 1.499 . S
C699 C700 1.373 . S
C699 C701 1.389 . S
C700 H673 0.950 . S
C700 C686 1.377 . S
C700 C699 1.373 . S
C701 C685 1.377 . S
C701 C699 1.389 . S
C701 C702 1.524 . S
C702 C701 1.524 . S
C702 C703 1.397 . S
C702 C707 1.363 . S
C703 H674 0.950 . S
C703 C702 1.397 . S
C703 C704 1.334 . S
C704 H675 0.950 . S
C704 C703 1.334 . S
C704 C705 1.287 . S
C705 C704 1.287 . S
C705 C706 1.524 . S
C705 H708 0.999 . S
C706 H676 0.950 . S
C706 C705 1.524 . S
C706 C707 1.415 . S
C707 H677 0.950 . S
C707 C702 1.363 . S
C707 C706 1.415 . S
H708 C705 0.999 . S
H709 C690 0.913 . S
H710 C728 0.951 . S
H711 C730 0.951 . S
H712 C732 0.950 . S
H713 C733 0.950 . S
H714 C735 0.950 . S
H715 C738 0.950 . S
H716 C739 0.950 . S
H717 C741 0.950 . S
H718 C742 0.950 . S
H719 C743 0.951 . S
H720 C745 0.951 . S
H721 C747 0.950 . S
H722 C748 0.950 . S
H723 C750 0.950 . S
H724 C753 0.950 . S
H725 C754 0.950 . S
H726 C756 0.950 . S
H727 C757 0.950 . S
C728 H710 0.951 . S
C728 C729 1.366 . S
C728 C730 1.388 . S
C729 C728 1.366 . S
C729 C733 1.385 . S
C730 H711 0.951 . S
C730 C728 1.388 . S
C730 C731 1.366 . S
C731 C730 1.366 . S
C731 C732 1.414 . S
C731 C734 1.499 . S
C732 H712 0.950 . S
C732 C731 1.414 . S
C732 C733 1.374 . S
C733 H713 0.950 . S
C733 C729 1.385 . S
C733 C732 1.374 . S
C734 C731 1.499 . S
C734 C735 1.373 . S
C734 C736 1.389 . S
C735 H714 0.950 . S
C735 C734 1.373 . S
C735 C751 1.377 . S
C736 C734 1.389 . S
C736 C737 1.524 . S
C736 C750 1.377 . S
C737 C736 1.524 . S
C737 C738 1.397 . S
C737 C742 1.363 . S
C738 H715 0.950 . S
C738 C737 1.397 . S
C738 C739 1.334 . S
C739 H716 0.950 . S
C739 C738 1.334 . S
C739 C740 1.287 . S
C740 C739 1.287 . S
C740 C741 1.524 . S
C740 H759 0.913 . S
C741 H717 0.950 . S
C741 C740 1.524 . S
C741 C742 1.415 . S
C742 H718 0.950 . S
C742 C737 1.363 . S
C742 C741 1.415 . S
C743 H719 0.951 . S
C743 C744 1.366 . S
C743 C745 1.388 . S
C744 C743 1.366 . S
C744 C748 1.385 . S
C745 H720 0.951 . S
C745 C743 1.388 . S
C745 C746 1.366 . S
C746 C745 1.366 . S
C746 C747 1.414 . S
C746 C749 1.499 . S
C747 H721 0.950 . S
C747 C746 1.414 . S
C747 C748 1.374 . S
C748 H722 0.950 . S
C748 C744 1.385 . S
C748 C747 1.374 . S
C749 C746 1.499 . S
C749 C750 1.373 . S
C749 C751 1.389 . S
C750 H723 0.950 . S
C750 C736 1.377 . S
C750 C749 1.373 . S
C751 C735 1.377 . S
C751 C749 1.389 . S
C751 C752 1.524 . S
C752 C751 1.524 . S
C752 C753 1.397 . S
C752 C757 1.363 . S
C753 H724 0.950 . S
C753 C752 1.397 . S
C753 C754 1.334 . S
C754 H725 0.950 . S
C754 C753 1.334 . S
C754 C755 1.287 . S
C755 C754 1.287 . S
C755 C756 1.524 . S
C755 H758 0.999 . S
C756 H726 0.950 . S
C756 C755 1.524 . S
C756 C757 1.415 . S
C757 H727 0.950 . S
C757 C752 1.363 . S
C757 C756 1.415 . S
H758 C755 0.999 . S
H759 C740 0.913 . S
C179 C13 1.961 . S
C194 C64 1.961 . S
C229 C97 1.989 . S
C244 C66 1.989 . S
C279 C133 1.576 . S
C294 C104 1.576 . S
C329 C26 1.607 . S
C344 C137 1.607 . S
C379 C146 1.989 . S
C394 C17 1.989 . S
C429 C106 1.606 . S
C444 C57 1.606 . S
C479 C93 1.961 . S
C494 C144 1.961 . S
C529 C53 1.576 . S
C544 C24 1.576 . S
C579 C2 0.737 . S
C594 C23 0.737 . S
C629 C63 0.738 . S
C644 C42 0.738 . S
C679 C103 0.738 . S
C694 C82 0.738 . S
C729 C143 0.737 . S
C744 C122 0.737 . S
