# Generated by pormake.
# Topology cag, (4)-cn, num edge types: 1
# Building blocks:
#     Node 0, Type 0, BuildingBlock: GALJAG_clean_sbu_0, # of connection points: 4
#     Node 1, Type 0, BuildingBlock: GALJAG_clean_sbu_0, # of connection points: 4
#     Node 2, Type 0, BuildingBlock: GALJAG_clean_sbu_0, # of connection points: 4
#     Node 3, Type 0, BuildingBlock: GALJAG_clean_sbu_0, # of connection points: 4
#     Node 4, Type 0, BuildingBlock: GALJAG_clean_sbu_0, # of connection points: 4
#     Node 5, Type 0, BuildingBlock: GALJAG_clean_sbu_0, # of connection points: 4
#     Node 6, Type 0, BuildingBlock: GALJAG_clean_sbu_0, # of connection points: 4
#     Node 7, Type 0, BuildingBlock: GALJAG_clean_sbu_0, # of connection points: 4
#     Node 8, Type 0, BuildingBlock: GALJAG_clean_sbu_0, # of connection points: 4
#     Node 9, Type 0, BuildingBlock: GALJAG_clean_sbu_0, # of connection points: 4
#     Node 10, Type 0, BuildingBlock: GALJAG_clean_sbu_0, # of connection points: 4
#     Node 11, Type 0, BuildingBlock: GALJAG_clean_sbu_0, # of connection points: 4
#     Node 12, Type 0, BuildingBlock: GALJAG_clean_sbu_0, # of connection points: 4
#     Node 13, Type 0, BuildingBlock: GALJAG_clean_sbu_0, # of connection points: 4
#     Node 14, Type 0, BuildingBlock: GALJAG_clean_sbu_0, # of connection points: 4
#     Node 15, Type 0, BuildingBlock: GALJAG_clean_sbu_0, # of connection points: 4
#     Edge 16, Type (0, 0), BuildingBlock: XUDNAN_clean_linker_2, # of connection points: 2
#     Edge 17, Type (0, 0), BuildingBlock: XUDNAN_clean_linker_2, # of connection points: 2
#     Edge 18, Type (0, 0), BuildingBlock: XUDNAN_clean_linker_2, # of connection points: 2
#     Edge 19, Type (0, 0), BuildingBlock: XUDNAN_clean_linker_2, # of connection points: 2
#     Edge 20, Type (0, 0), BuildingBlock: XUDNAN_clean_linker_2, # of connection points: 2
#     Edge 21, Type (0, 0), BuildingBlock: XUDNAN_clean_linker_2, # of connection points: 2
#     Edge 22, Type (0, 0), BuildingBlock: XUDNAN_clean_linker_2, # of connection points: 2
#     Edge 23, Type (0, 0), BuildingBlock: XUDNAN_clean_linker_2, # of connection points: 2
#     Edge 24, Type (0, 0), BuildingBlock: XUDNAN_clean_linker_2, # of connection points: 2
#     Edge 25, Type (0, 0), BuildingBlock: XUDNAN_clean_linker_2, # of connection points: 2
#     Edge 26, Type (0, 0), BuildingBlock: XUDNAN_clean_linker_2, # of connection points: 2
#     Edge 27, Type (0, 0), BuildingBlock: XUDNAN_clean_linker_2, # of connection points: 2
#     Edge 28, Type (0, 0), BuildingBlock: XUDNAN_clean_linker_2, # of connection points: 2
#     Edge 29, Type (0, 0), BuildingBlock: XUDNAN_clean_linker_2, # of connection points: 2
#     Edge 30, Type (0, 0), BuildingBlock: XUDNAN_clean_linker_2, # of connection points: 2
#     Edge 31, Type (0, 0), BuildingBlock: XUDNAN_clean_linker_2, # of connection points: 2
#     Edge 32, Type (0, 0), BuildingBlock: XUDNAN_clean_linker_2, # of connection points: 2
#     Edge 33, Type (0, 0), BuildingBlock: XUDNAN_clean_linker_2, # of connection points: 2
#     Edge 34, Type (0, 0), BuildingBlock: XUDNAN_clean_linker_2, # of connection points: 2
#     Edge 35, Type (0, 0), BuildingBlock: XUDNAN_clean_linker_2, # of connection points: 2
#     Edge 36, Type (0, 0), BuildingBlock: XUDNAN_clean_linker_2, # of connection points: 2
#     Edge 37, Type (0, 0), BuildingBlock: XUDNAN_clean_linker_2, # of connection points: 2
#     Edge 38, Type (0, 0), BuildingBlock: XUDNAN_clean_linker_2, # of connection points: 2
#     Edge 39, Type (0, 0), BuildingBlock: XUDNAN_clean_linker_2, # of connection points: 2
#     Edge 40, Type (0, 0), BuildingBlock: XUDNAN_clean_linker_2, # of connection points: 2
#     Edge 41, Type (0, 0), BuildingBlock: XUDNAN_clean_linker_2, # of connection points: 2
#     Edge 42, Type (0, 0), BuildingBlock: XUDNAN_clean_linker_2, # of connection points: 2
#     Edge 43, Type (0, 0), BuildingBlock: XUDNAN_clean_linker_2, # of connection points: 2
#     Edge 44, Type (0, 0), BuildingBlock: XUDNAN_clean_linker_2, # of connection points: 2
#     Edge 45, Type (0, 0), BuildingBlock: XUDNAN_clean_linker_2, # of connection points: 2
#     Edge 46, Type (0, 0), BuildingBlock: XUDNAN_clean_linker_2, # of connection points: 2
#     Edge 47, Type (0, 0), BuildingBlock: XUDNAN_clean_linker_2, # of connection points: 2
# Relax obj value: 0.084
# Max RMSD: 0.168
# Mean RMSD: 0.142
data_MOF--net-cag--node1-GALJAG_clean_sbu_0--edge1-XUDNAN_clean_linker_2
_symmetry_space_group_name_H-M    P1
_symmetry_Int_Tables_number       1
_symmetry_cell_setting            triclinic
loop_
_symmetry_equiv_pos_as_xyz
'x, y, z'
_cell_length_a     46.282085
_cell_length_b     49.64581
_cell_length_c     38.558615
_cell_angle_alpha  89.986914
_cell_angle_beta   90.005271
_cell_angle_gamma 89.983604
loop_
_atom_site_label
_atom_site_type_symbol
_atom_site_fract_x
_atom_site_fract_y
_atom_site_fract_z
_atom_type_partial_charge
In0 In 0.34298 0.1319 0.08192 0.0
O1 O 0.30572 0.11408 0.11206 0.0
O2 O 0.32928 0.14514 0.13709 0.0
C3 C 0.34979 0.0804 0.06064 0.0
C4 C 0.3091 0.1666 0.04626 0.0
C5 C 0.39916 0.14768 0.08104 0.0
O6 O 0.35424 0.08804 0.09137 0.0
O7 O 0.34251 0.09897 0.03997 0.0
O8 O 0.38236 0.15048 0.05554 0.0
O9 O 0.38755 0.13739 0.10755 0.0
C10 C 0.30851 0.12863 0.13855 0.0
O11 O 0.32628 0.17433 0.06967 0.0
O12 O 0.3097 0.14163 0.04019 0.0
In13 In 0.16699 0.87015 0.58927 0.0
O14 O 0.16603 0.82664 0.57218 0.0
O15 O 0.20074 0.85036 0.55311 0.0
C16 C 0.10934 0.86679 0.57945 0.0
C17 C 0.19453 0.86188 0.65028 0.0
C18 C 0.17208 0.92258 0.57169 0.0
O19 O 0.12745 0.86657 0.55499 0.0
O20 O 0.12024 0.86899 0.6094 0.0
O21 O 0.16117 0.91473 0.59994 0.0
O22 O 0.18103 0.90386 0.55215 0.0
C23 C 0.18862 0.82753 0.55405 0.0
O24 O 0.20373 0.87806 0.62767 0.0
O25 O 0.17109 0.85038 0.64264 0.0
In26 In 0.3422 0.85314 0.91985 0.0
O27 O 0.32867 0.81254 0.9426 0.0
O28 O 0.29743 0.84392 0.94182 0.0
C29 C 0.39971 0.8422 0.92057 0.0
C30 C 0.31938 0.84912 0.8555 0.0
C31 C 0.342 0.89925 0.95746 0.0
O32 O 0.38213 0.83279 0.94234 0.0
O33 O 0.38826 0.85669 0.89745 0.0
O34 O 0.34094 0.8993 0.92475 0.0
O35 O 0.34256 0.87612 0.97092 0.0
C36 C 0.30307 0.81969 0.94917 0.0
O37 O 0.32098 0.8713 0.87138 0.0
O38 O 0.33063 0.82948 0.87125 0.0
In39 In 0.17184 0.14349 0.41691 0.0
O40 O 0.17745 0.11996 0.36645 0.0
O41 O 0.19451 0.1595 0.36799 0.0
C42 C 0.1741 0.10082 0.46092 0.0
C43 C 0.2107 0.17825 0.44412 0.0
C44 C 0.11484 0.15673 0.41262 0.0
O45 O 0.18475 0.10029 0.43088 0.0
O46 O 0.16269 0.12299 0.46909 0.0
O47 O 0.13306 0.17084 0.42872 0.0
O48 O 0.12537 0.13626 0.39807 0.0
C49 C 0.19122 0.13815 0.35081 0.0
O50 O 0.18558 0.18544 0.43523 0.0
O51 O 0.21603 0.15353 0.43969 0.0
In52 In 0.66874 0.86382 0.91614 0.0
O53 O 0.70765 0.85788 0.95226 0.0
O54 O 0.68482 0.82313 0.93575 0.0
C55 C 0.66724 0.91622 0.935 0.0
C56 C 0.69485 0.85657 0.85406 0.0
C57 C 0.61173 0.85152 0.92149 0.0
O58 O 0.66999 0.89746 0.95693 0.0
O59 O 0.6651 0.90845 0.90395 0.0
O60 O 0.62257 0.86131 0.89427 0.0
O61 O 0.62957 0.84782 0.9457 0.0
C62 C 0.70569 0.83252 0.9529 0.0
O63 O 0.67807 0.83929 0.86707 0.0
O64 O 0.69791 0.87763 0.87189 0.0
In65 In 0.8447 0.14733 0.40964 0.0
O66 O 0.84732 0.13946 0.35122 0.0
O67 O 0.80566 0.14076 0.37413 0.0
C68 C 0.90237 0.1581 0.40908 0.0
C69 C 0.81471 0.19151 0.42934 0.0
C70 C 0.84016 0.10436 0.45282 0.0
O71 O 0.89186 0.1369 0.39628 0.0
O72 O 0.88387 0.17392 0.42171 0.0
O73 O 0.84734 0.12748 0.46316 0.0
O74 O 0.83486 0.10294 0.42082 0.0
C75 C 0.82035 0.1378 0.34687 0.0
O76 O 0.81327 0.16947 0.44565 0.0
O77 O 0.83133 0.19121 0.40337 0.0
In78 In 0.66866 0.14176 0.07968 0.0
O79 O 0.69611 0.1655 0.04083 0.0
O80 O 0.68503 0.1846 0.08832 0.0
C81 C 0.66812 0.09669 0.04017 0.0
C82 C 0.70322 0.13087 0.13453 0.0
C83 C 0.61129 0.1539 0.08135 0.0
O84 O 0.67275 0.11984 0.02789 0.0
O85 O 0.66373 0.09619 0.07246 0.0
O86 O 0.62291 0.13862 0.10348 0.0
O87 O 0.62863 0.16338 0.05934 0.0
C88 C 0.69837 0.18611 0.05983 0.0
O89 O 0.67845 0.14125 0.13821 0.0
O90 O 0.70988 0.1254 0.10361 0.0
In91 In 0.83944 0.87385 0.582 0.0
O92 O 0.80022 0.86695 0.54714 0.0
O93 O 0.82745 0.83347 0.55762 0.0
C94 C 0.83826 0.92648 0.56428 0.0
C95 C 0.81353 0.86324 0.64344 0.0
C96 C 0.89698 0.86499 0.57503 0.0
O97 O 0.83261 0.90788 0.54299 0.0
O98 O 0.84434 0.91852 0.59452 0.0
O99 O 0.88556 0.87044 0.60388 0.0
O100 O 0.8794 0.86357 0.55017 0.0
C101 C 0.80506 0.84217 0.54269 0.0
O102 O 0.82953 0.84644 0.6282 0.0
O103 O 0.81123 0.88562 0.62825 0.0
In104 In 0.83786 0.64124 0.08785 0.0
O105 O 0.79215 0.64379 0.10882 0.0
O106 O 0.82628 0.64141 0.14568 0.0
C107 C 0.83031 0.59135 0.06074 0.0
C108 C 0.82192 0.68743 0.05549 0.0
C109 C 0.89548 0.64241 0.10027 0.0
O110 O 0.82455 0.59717 0.09173 0.0
O111 O 0.84021 0.61063 0.04307 0.0
O112 O 0.88504 0.6412 0.07009 0.0
O113 O 0.87689 0.64328 0.12419 0.0
C114 C 0.79937 0.64305 0.14036 0.0
O115 O 0.83898 0.68705 0.08098 0.0
O116 O 0.81378 0.66448 0.04546 0.0
In117 In 0.67526 0.37278 0.57992 0.0
O118 O 0.71774 0.38623 0.60432 0.0
O119 O 0.69032 0.36122 0.63452 0.0
C120 C 0.67082 0.42547 0.5629 0.0
C121 C 0.70118 0.33641 0.53741 0.0
C122 C 0.61852 0.36106 0.5898 0.0
O123 O 0.66974 0.41717 0.59379 0.0
O124 O 0.67369 0.40716 0.54047 0.0
O125 O 0.62887 0.36611 0.56027 0.0
O126 O 0.63683 0.36119 0.61396 0.0
C127 C 0.71362 0.37436 0.63282 0.0
O128 O 0.68899 0.32959 0.5653 0.0
O129 O 0.69971 0.36121 0.53081 0.0
In130 In 0.84359 0.3666 0.91695 0.0
O131 O 0.83236 0.34777 0.96919 0.0
O132 O 0.82142 0.32558 0.92406 0.0
C133 C 0.90008 0.35248 0.91068 0.0
C134 C 0.81954 0.37473 0.85375 0.0
C135 C 0.83105 0.4146 0.94676 0.0
O136 O 0.89048 0.36524 0.93646 0.0
O137 O 0.8811 0.346 0.88882 0.0
O138 O 0.85443 0.41034 0.93091 0.0
O139 O 0.81387 0.39491 0.94702 0.0
C140 C 0.82064 0.32699 0.95673 0.0
O141 O 0.84208 0.38666 0.86375 0.0
O142 O 0.80876 0.3589 0.87582 0.0
In143 In 0.66276 0.6511 0.41961 0.0
O144 O 0.66785 0.69673 0.41989 0.0
O145 O 0.6987 0.67379 0.44808 0.0
C146 C 0.60496 0.65791 0.42548 0.0
C147 C 0.68494 0.64681 0.355 0.0
C148 C 0.66906 0.60617 0.45891 0.0
O149 O 0.62294 0.66969 0.44478 0.0
O150 O 0.61607 0.64264 0.40299 0.0
O151 O 0.66744 0.60541 0.4263 0.0
O152 O 0.66811 0.62954 0.47158 0.0
C153 C 0.69008 0.69683 0.43884 0.0
O154 O 0.65878 0.65235 0.36075 0.0
O155 O 0.69998 0.64309 0.38187 0.0
In156 In 0.17036 0.35648 0.91482 0.0
O157 O 0.20589 0.33472 0.9453 0.0
O158 O 0.16598 0.31435 0.93763 0.0
C159 C 0.17942 0.40277 0.95056 0.0
C160 C 0.20148 0.35134 0.85548 0.0
C161 C 0.11229 0.35322 0.90524 0.0
O162 O 0.18362 0.37967 0.96322 0.0
O163 O 0.17098 0.40272 0.91942 0.0
O164 O 0.13014 0.35257 0.88059 0.0
O165 O 0.1236 0.35582 0.93476 0.0
C166 C 0.19134 0.31346 0.94968 0.0
O167 O 0.1905 0.33185 0.87158 0.0
O168 O 0.19655 0.37407 0.86891 0.0
In169 In 0.33533 0.64355 0.41991 0.0
O170 O 0.3303 0.66538 0.36824 0.0
O171 O 0.31088 0.62686 0.37285 0.0
C172 C 0.39269 0.65383 0.42409 0.0
C173 C 0.29745 0.67864 0.44833 0.0
C174 C 0.33331 0.59731 0.45722 0.0
O175 O 0.38224 0.63825 0.40148 0.0
O176 O 0.37427 0.66425 0.44403 0.0
O177 O 0.33141 0.6204 0.47061 0.0
O178 O 0.33605 0.59733 0.42464 0.0
C179 C 0.3151 0.64737 0.35421 0.0
O180 O 0.29105 0.65444 0.44185 0.0
O181 O 0.32304 0.68511 0.44073 0.0
In182 In 0.16554 0.63201 0.08497 0.0
O183 O 0.20115 0.65121 0.05162 0.0
O184 O 0.16064 0.67116 0.05481 0.0
C185 C 0.17541 0.58153 0.06053 0.0
C186 C 0.19774 0.64253 0.1421 0.0
C187 C 0.10786 0.63446 0.09855 0.0
O188 O 0.17024 0.60105 0.04047 0.0
O189 O 0.17576 0.58762 0.09221 0.0
O190 O 0.12687 0.63692 0.1217 0.0
O191 O 0.11784 0.63062 0.06858 0.0
C192 C 0.18616 0.6715 0.04334 0.0
O193 O 0.1869 0.66081 0.12351 0.0
O194 O 0.19194 0.61891 0.13234 0.0
In195 In 0.3483 0.36505 0.58339 0.0
O196 O 0.3356 0.33865 0.6294 0.0
O197 O 0.31551 0.37694 0.62527 0.0
C198 C 0.4062 0.36141 0.59349 0.0
C199 C 0.32666 0.32578 0.54187 0.0
C200 C 0.34232 0.41684 0.5625 0.0
O201 O 0.38806 0.3591 0.61768 0.0
O202 O 0.39523 0.36577 0.56409 0.0
O203 O 0.34041 0.39741 0.54145 0.0
O204 O 0.34716 0.41002 0.59343 0.0
C205 C 0.31795 0.35529 0.64212 0.0
O206 O 0.31153 0.34543 0.55197 0.0
O207 O 0.35265 0.32667 0.55149 0.0
H208 H 0.31089 0.22194 0.04288 0.0
H209 H 0.26043 0.15257 0.01101 0.0
H210 H 0.22397 0.18279 0.98507 0.0
H211 H 0.25161 0.26571 0.06387 0.0
H212 H 0.26838 0.29557 0.04648 0.0
H213 H 0.29044 0.26863 0.06321 0.0
H214 H 0.31761 0.26563 0.00458 0.0
H215 H 0.29581 0.29272 0.9878 0.0
H216 H 0.29733 0.26101 0.96511 0.0
H217 H 0.19209 0.22032 0.96475 0.0
H218 H 0.16943 0.26268 0.94517 0.0
H219 H 0.24177 0.30792 0.98681 0.0
C220 C 0.29218 0.21316 0.03036 0.0
C221 C 0.28838 0.18492 0.02904 0.0
C222 C 0.26378 0.17414 0.01221 0.0
C223 C 0.24289 0.19114 0.99758 0.0
C224 C 0.24709 0.21888 0.99959 0.0
C225 C 0.27132 0.22985 0.01505 0.0
C226 C 0.27107 0.26035 0.01246 0.0
C227 C 0.27032 0.27332 0.04866 0.0
C228 C 0.29699 0.27052 0.99122 0.0
C229 C 0.24285 0.26476 0.99329 0.0
C230 C 0.22921 0.24056 0.98655 0.0
C231 C 0.20263 0.23939 0.96968 0.0
C232 C 0.18986 0.26357 0.95882 0.0
C233 C 0.20386 0.28855 0.96443 0.0
C234 C 0.23061 0.2891 0.98213 0.0
H235 H 0.30599 0.73218 0.4633 0.0
H236 H 0.24178 0.66853 0.4675 0.0
H237 H 0.20671 0.70034 0.49295 0.0
H238 H 0.28713 0.76346 0.54384 0.0
H239 H 0.29307 0.79733 0.52857 0.0
H240 H 0.31299 0.76978 0.50983 0.0
H241 H 0.2948 0.78333 0.44873 0.0
H242 H 0.27475 0.81091 0.46729 0.0
H243 H 0.25652 0.78622 0.44091 0.0
H244 H 0.1792 0.73822 0.51922 0.0
H245 H 0.16058 0.78003 0.54527 0.0
H246 H 0.24209 0.81992 0.52369 0.0
C247 C 0.28451 0.72498 0.46949 0.0
C248 C 0.27657 0.69787 0.46343 0.0
C249 C 0.24831 0.68919 0.47191 0.0
C250 C 0.22824 0.70712 0.48633 0.0
C251 C 0.23674 0.73368 0.49198 0.0
C252 C 0.26416 0.74265 0.48385 0.0
C253 C 0.2678 0.77217 0.49312 0.0
C254 C 0.29166 0.77589 0.52047 0.0
C255 C 0.27382 0.78916 0.46057 0.0
C256 C 0.2382 0.7783 0.50802 0.0
C257 C 0.22067 0.75576 0.50699 0.0
C258 C 0.19265 0.75604 0.52002 0.0
C259 C 0.18229 0.77991 0.53479 0.0
C260 C 0.19985 0.80325 0.53639 0.0
C261 C 0.2281 0.80246 0.52251 0.0
H262 H 0.31089 0.76738 0.97036 0.0
H263 H 0.24539 0.82921 0.95795 0.0
H264 H 0.20807 0.7972 0.97789 0.0
H265 H 0.26749 0.71129 0.94199 0.0
H266 H 0.28223 0.68814 0.97336 0.0
H267 H 0.30386 0.71575 0.95771 0.0
H268 H 0.31213 0.73205 0.02077 0.0
H269 H 0.29075 0.70437 0.03663 0.0
H270 H 0.2814 0.73843 0.0483 0.0
H271 H 0.17791 0.75859 0.99908 0.0
H272 H 0.15731 0.7169 0.02364 0.0
H273 H 0.24239 0.68009 0.02294 0.0
C274 C 0.2887 0.77418 0.97189 0.0
C275 C 0.28101 0.80079 0.96258 0.0
C276 C 0.25177 0.80895 0.96502 0.0
C277 C 0.2304 0.79088 0.97618 0.0
C278 C 0.23865 0.76474 0.98488 0.0
C279 C 0.26711 0.75643 0.98313 0.0
C280 C 0.27028 0.72742 0.99484 0.0
C281 C 0.28163 0.7096 0.9652 0.0
C282 C 0.28979 0.72547 0.02705 0.0
C283 C 0.23916 0.72072 0.00354 0.0
C284 C 0.22126 0.7425 0.99738 0.0
C285 C 0.1917 0.74139 0.00395 0.0
C286 C 0.18019 0.71759 0.01781 0.0
C287 C 0.1982 0.6952 0.02507 0.0
C288 C 0.22802 0.69676 0.01737 0.0
H289 H 0.27059 0.31764 0.52011 0.0
H290 H 0.35541 0.28034 0.52248 0.0
H291 H 0.33504 0.23901 0.49685 0.0
H292 H 0.23055 0.25961 0.54314 0.0
H293 H 0.20054 0.26642 0.51465 0.0
H294 H 0.22187 0.29382 0.53137 0.0
H295 H 0.23212 0.31033 0.46883 0.0
H296 H 0.2106 0.2831 0.45191 0.0
H297 H 0.24742 0.28731 0.43768 0.0
H298 H 0.30518 0.20069 0.47494 0.0
H299 H 0.26815 0.16878 0.45409 0.0
H300 H 0.20268 0.23092 0.46414 0.0
C301 C 0.28492 0.30091 0.51474 0.0
C302 C 0.31462 0.30224 0.52323 0.0
C303 C 0.33263 0.27985 0.51607 0.0
C304 C 0.32126 0.25623 0.50159 0.0
C305 C 0.29184 0.25536 0.49413 0.0
C306 C 0.27393 0.27717 0.50005 0.0
C307 C 0.24298 0.27069 0.49012 0.0
C308 C 0.22281 0.27276 0.52171 0.0
C309 C 0.23268 0.28894 0.46036 0.0
C310 C 0.24627 0.24173 0.47821 0.0
C311 C 0.27464 0.2333 0.48082 0.0
C312 C 0.28294 0.20712 0.47244 0.0
C313 C 0.26173 0.18912 0.46076 0.0
C314 C 0.23258 0.19738 0.45739 0.0
C315 C 0.22483 0.22407 0.46625 0.0
H316 H 0.77711 0.69303 0.00973 0.0
H317 H 0.83969 0.73893 0.06907 0.0
H318 H 0.81738 0.7813 0.04846 0.0
H319 H 0.77235 0.73865 0.93581 0.0
H320 H 0.73405 0.73352 0.93056 0.0
H321 H 0.75622 0.70704 0.94824 0.0
H322 H 0.72329 0.70504 0.00254 0.0
H323 H 0.70117 0.73166 0.98519 0.0
H324 H 0.71724 0.73521 0.02752 0.0
H325 H 0.78694 0.81871 0.02289 0.0
H326 H 0.75114 0.84809 0.99383 0.0
H327 H 0.70793 0.77745 0.95262 0.0
C328 C 0.78642 0.71199 0.01794 0.0
C329 C 0.81028 0.71272 0.04078 0.0
C330 C 0.82152 0.73793 0.05142 0.0
C331 C 0.80897 0.76209 0.03989 0.0
C332 C 0.78514 0.76066 0.01785 0.0
C333 C 0.77403 0.73625 0.00692 0.0
C334 C 0.74761 0.74018 0.9843 0.0
C335 C 0.75289 0.7292 0.94755 0.0
C336 C 0.72075 0.72726 0.00089 0.0
C337 C 0.74549 0.77061 0.98431 0.0
C338 C 0.76738 0.78209 0.00369 0.0
C339 C 0.76975 0.80993 0.00758 0.0
C340 C 0.7493 0.82645 0.99106 0.0
C341 C 0.72673 0.81506 0.97107 0.0
C342 C 0.72487 0.78677 0.96782 0.0
H343 H 0.7799 0.19831 0.48655 0.0
H344 H 0.81238 0.23959 0.39528 0.0
H345 H 0.78527 0.28038 0.41197 0.0
H346 H 0.70822 0.22805 0.48588 0.0
H347 H 0.70612 0.23076 0.53243 0.0
H348 H 0.7274 0.20442 0.51291 0.0
H349 H 0.77234 0.22038 0.54729 0.0
H350 H 0.7512 0.2467 0.56697 0.0
H351 H 0.78385 0.25496 0.54383 0.0
H352 H 0.75573 0.3169 0.43891 0.0
H353 H 0.72635 0.34733 0.47513 0.0
H354 H 0.71281 0.28276 0.5493 0.0
C355 C 0.78119 0.21591 0.47002 0.0
C356 C 0.79821 0.21578 0.43956 0.0
C357 C 0.79948 0.23923 0.41871 0.0
C358 C 0.78411 0.26248 0.42793 0.0
C359 C 0.76757 0.26198 0.4581 0.0
C360 C 0.76601 0.23936 0.4789 0.0
C361 C 0.74717 0.24446 0.51043 0.0
C362 C 0.72065 0.22581 0.51039 0.0
C363 C 0.76469 0.24145 0.54412 0.0
C364 C 0.73856 0.27354 0.50419 0.0
C365 C 0.75049 0.28317 0.47376 0.0
C366 C 0.74617 0.30957 0.46272 0.0
C367 C 0.72944 0.3267 0.48348 0.0
C368 C 0.71722 0.31741 0.51496 0.0
C369 C 0.72169 0.29038 0.52524 0.0
H370 H 0.7951 0.27944 0.93652 0.0
H371 H 0.81022 0.33037 0.02619 0.0
H372 H 0.78058 0.2999 0.0621 0.0
H373 H 0.72195 0.26321 0.95528 0.0
H374 H 0.7244 0.22875 0.94087 0.0
H375 H 0.74766 0.25397 0.92222 0.0
H376 H 0.79268 0.22581 0.93902 0.0
H377 H 0.76955 0.20038 0.95745 0.0
H378 H 0.79756 0.21548 0.98346 0.0
H379 H 0.74703 0.26556 0.0875 0.0
H380 H 0.71499 0.22741 0.10196 0.0
H381 H 0.72281 0.19766 0.99654 0.0
C382 C 0.79243 0.28399 0.9638 0.0
C383 C 0.805 0.30728 0.97858 0.0
C384 C 0.80091 0.3126 0.01434 0.0
C385 C 0.78402 0.29546 0.03493 0.0
C386 C 0.77155 0.27293 0.01947 0.0
C387 C 0.77581 0.26695 0.98484 0.0
C388 C 0.75989 0.24143 0.97472 0.0
C389 C 0.73713 0.2472 0.94661 0.0
C390 C 0.78119 0.21947 0.96297 0.0
C391 C 0.7458 0.23418 0.00898 0.0
C392 C 0.75269 0.25273 0.03438 0.0
C393 C 0.74167 0.25078 0.06791 0.0
C394 C 0.72338 0.22911 0.07583 0.0
C395 C 0.71647 0.20956 0.05042 0.0
C396 C 0.72782 0.21224 0.01654 0.0
H397 H 0.8065 0.78712 0.53815 0.0
H398 H 0.75927 0.85737 0.50243 0.0
H399 H 0.72555 0.8278 0.47046 0.0
H400 H 0.79899 0.74728 0.45973 0.0
H401 H 0.7944 0.71604 0.48292 0.0
H402 H 0.81554 0.7428 0.50167 0.0
H403 H 0.78334 0.74176 0.55664 0.0
H404 H 0.76208 0.71505 0.53804 0.0
H405 H 0.74477 0.74564 0.55228 0.0
H406 H 0.69644 0.7906 0.44348 0.0
H407 H 0.67338 0.74833 0.42415 0.0
H408 H 0.73906 0.70225 0.4784 0.0
C409 C 0.78923 0.79629 0.52332 0.0
C410 C 0.78555 0.82454 0.52257 0.0
C411 C 0.76249 0.83577 0.50325 0.0
C412 C 0.74327 0.81915 0.485 0.0
C413 C 0.74737 0.79136 0.48647 0.0
C414 C 0.76974 0.77999 0.50517 0.0
C415 C 0.76877 0.74951 0.50346 0.0
C416 C 0.79605 0.73825 0.48589 0.0
C417 C 0.76448 0.73728 0.53976 0.0
C418 C 0.74229 0.7455 0.48097 0.0
C419 C 0.73036 0.7699 0.47131 0.0
C420 C 0.70563 0.77137 0.4508 0.0
C421 C 0.69269 0.74727 0.43997 0.0
C422 C 0.70443 0.72204 0.44977 0.0
C423 C 0.72962 0.72124 0.47046 0.0
H424 H 0.34266 0.05806 0.99566 0.0
H425 H 0.35968 0.03772 0.10327 0.0
H426 H 0.35928 0.98949 0.08832 0.0
H427 H 0.29449 0.00348 0.97779 0.0
H428 H 0.30765 0.99764 0.93444 0.0
H429 H 0.30985 0.03082 0.95314 0.0
H430 H 0.365 0.03176 0.9418 0.0
H431 H 0.36296 0.99865 0.92287 0.0
H432 H 0.38734 0.00494 0.95841 0.0
H433 H 0.3552 0.94367 0.06274 0.0
H434 H 0.35058 0.90267 0.02714 0.0
H435 H 0.3374 0.95195 0.93544 0.0
C436 C 0.34651 0.04343 0.01598 0.0
C437 C 0.35121 0.05165 0.05064 0.0
C438 C 0.35611 0.03192 0.07653 0.0
C439 C 0.35586 0.00445 0.06833 0.0
C440 C 0.35086 0.99698 0.03406 0.0
C441 C 0.34652 0.01582 0.00818 0.0
C442 C 0.34172 1.00221 0.97341 0.0
C443 C 0.31164 0.00894 0.95885 0.0
C444 C 0.36569 0.00984 0.9476 0.0
C445 C 0.34381 0.97282 0.98393 0.0
C446 C 0.34898 0.97034 0.01908 0.0
C447 C 0.35132 0.94532 0.03514 0.0
C448 C 0.34857 0.92214 0.0147 0.0
C449 C 0.34368 0.9241 0.97853 0.0
C450 C 0.34121 0.94983 0.96302 0.0
H451 H 0.18982 0.94497 0.50988 0.0
H452 H 0.15598 0.96535 0.61153 0.0
H453 H 0.15479 0.01334 0.59506 0.0
H454 H 0.23504 0.00486 0.49943 0.0
H455 H 0.22739 0.00794 0.45376 0.0
H456 H 0.22703 0.97526 0.4741 0.0
H457 H 0.17483 0.96743 0.45204 0.0
H458 H 0.175 1.00008 0.43171 0.0
H459 H 0.14709 0.99162 0.46243 0.0
H460 H 0.1548 0.05876 0.56677 0.0
H461 H 0.15672 0.09872 0.5286 0.0
H462 H 0.19096 0.04921 0.44545 0.0
C463 C 0.18249 0.95958 0.52878 0.0
C464 C 0.17308 0.95142 0.56204 0.0
C465 C 0.16336 0.97112 0.58593 0.0
C466 C 0.16262 0.99845 0.57684 0.0
C467 C 0.17173 0.00582 0.54376 0.0
C468 C 0.18159 0.98701 0.52011 0.0
C469 C 0.18928 1.00025 0.48589 0.0
C470 C 0.22161 0.99687 0.47783 0.0
C471 C 0.17042 0.98918 0.45628 0.0
C472 C 0.18191 0.02934 0.49392 0.0
C473 C 0.17189 0.03211 0.52748 0.0
C474 C 0.16284 0.0569 0.54053 0.0
C475 C 0.16397 0.07947 0.51866 0.0
C476 C 0.17412 0.0771 0.48417 0.0
C477 C 0.18336 0.0517 0.47181 0.0
H478 H 0.66604 0.93848 1.00036 0.0
H479 H 0.66806 0.95916 0.891 0.0
H480 H 0.66848 0.00744 0.9061 0.0
H481 H 0.61872 0.99275 0.02655 0.0
H482 H 0.63689 0.99832 0.06727 0.0
H483 H 0.63693 0.96528 0.04795 0.0
H484 H 0.69289 0.96454 0.04993 0.0
H485 H 0.69302 0.99758 0.06922 0.0
H486 H 0.71294 0.99148 0.02983 0.0
H487 H 0.66975 0.05335 0.9328 0.0
H488 H 0.67008 0.09409 0.96954 0.0
H489 H 0.66588 0.04396 0.06164 0.0
C490 C 0.66655 0.95319 0.97963 0.0
C491 C 0.66706 0.94508 0.9445 0.0
C492 C 0.66763 0.96491 0.91809 0.0
C493 C 0.66791 0.99239 0.92639 0.0
C494 C 0.66745 0.99974 0.96124 0.0
C495 C 0.66663 0.98076 0.98746 0.0
C496 C 0.66598 0.99414 0.0228 0.0
C497 C 0.63796 0.98721 0.04228 0.0
C498 C 0.69281 0.98648 0.0442 0.0
C499 C 0.66668 0.02356 0.0123 0.0
C500 C 0.66763 0.02631 0.97666 0.0
C501 C 0.66888 0.05148 0.96075 0.0
C502 C 0.6691 0.07449 0.98182 0.0
C503 C 0.6679 0.07218 0.01839 0.0
C504 C 0.66664 0.04634 0.03374 0.0
H505 H 0.82917 0.05189 0.43509 0.0
H506 H 0.84921 0.1033 0.52287 0.0
H507 H 0.8495 0.06348 0.56136 0.0
H508 H 0.78211 0.00543 0.48113 0.0
H509 H 0.79486 0.97641 0.45759 0.0
H510 H 0.79507 0.0091 0.43729 0.0
H511 H 0.84981 0.0041 0.42467 0.0
H512 H 0.84978 0.97144 0.44499 0.0
H513 H 0.8743 0.99715 0.45993 0.0
H514 H 0.84925 0.01786 0.58988 0.0
H515 H 0.84823 0.96977 0.60641 0.0
H516 H 0.82843 0.94818 0.49996 0.0
C517 C 0.83336 0.0548 0.46247 0.0
C518 C 0.83908 0.08069 0.47605 0.0
C519 C 0.84471 0.08364 0.51195 0.0
C520 C 0.84491 0.06116 0.53401 0.0
C521 C 0.83943 0.03588 0.51974 0.0
C522 C 0.8337 0.03258 0.48482 0.0
C523 C 0.82924 0.00316 0.47587 0.0
C524 C 0.79849 0.99824 0.46217 0.0
C525 C 0.85215 0.9934 0.44983 0.0
C526 C 0.83354 0.9904 0.51117 0.0
C527 C 0.83933 0.00962 0.53614 0.0
C528 C 0.8446 1.00265 0.57058 0.0
C529 C 0.84401 0.97529 0.57971 0.0
C530 C 0.83819 0.95527 0.55449 0.0
C531 C 0.83281 0.96304 0.51984 0.0
H532 H 0.85847 0.46335 0.93952 0.0
H533 H 0.79015 0.42292 0.99636 0.0
H534 H 0.78185 0.46419 0.03068 0.0
H535 H 0.88732 0.50081 0.00969 0.0
H536 H 0.89436 0.53081 0.98475 0.0
H537 H 0.89447 0.49839 0.96383 0.0
H538 H 0.85592 0.51507 0.92007 0.0
H539 H 0.85579 0.54761 0.94077 0.0
H540 H 0.82253 0.5291 0.93599 0.0
H541 H 0.78366 0.50825 0.06189 0.0
H542 H 0.79236 0.55402 0.08468 0.0
H543 H 0.85713 0.56732 0.00519 0.0
C544 C 0.84161 0.4633 0.95901 0.0
C545 C 0.82497 0.43996 0.9654 0.0
C546 C 0.80305 0.44063 0.99099 0.0
C547 C 0.79824 0.46394 0.01066 0.0
C548 C 0.81522 0.48652 0.00402 0.0
C549 C 0.83617 0.48658 0.97849 0.0
C550 C 0.8513 0.51364 0.97658 0.0
C551 C 0.88378 0.51072 0.98417 0.0
C552 C 0.84606 0.52715 0.94125 0.0
C553 C 0.83593 0.52859 0.00547 0.0
C554 C 0.81534 0.51247 0.02107 0.0
C555 C 0.79942 0.52121 0.04958 0.0
C556 C 0.80458 0.54716 0.06241 0.0
C557 C 0.82519 0.5642 0.04647 0.0
C558 C 0.84093 0.55482 0.0175 0.0
H559 H 0.67122 0.44811 0.49798 0.0
H560 H 0.66863 0.46813 0.60751 0.0
H561 H 0.6688 0.51656 0.59279 0.0
H562 H 0.71854 0.50166 0.47184 0.0
H563 H 0.70025 0.50769 0.43131 0.0
H564 H 0.69978 0.47457 0.45037 0.0
H565 H 0.6438 0.47454 0.44899 0.0
H566 H 0.64409 0.5076 0.42976 0.0
H567 H 0.62429 0.50174 0.4693 0.0
H568 H 0.66987 0.56272 0.56626 0.0
H569 H 0.66981 0.60354 0.52963 0.0
H570 H 0.67122 0.55353 0.43732 0.0
C571 C 0.6706 0.46269 0.51886 0.0
C572 C 0.66991 0.4544 0.5539 0.0
C573 C 0.66911 0.47406 0.58049 0.0
C574 C 0.66927 0.5016 0.57239 0.0
C575 C 0.67016 0.50912 0.53759 0.0
C576 C 0.67066 0.49027 0.51123 0.0
C577 C 0.67132 0.50372 0.47596 0.0
C578 C 0.69913 0.49648 0.45622 0.0
C579 C 0.64426 0.49647 0.45476 0.0
C580 C 0.67113 0.53308 0.48661 0.0
C581 C 0.67057 0.53574 0.52228 0.0
C582 C 0.67029 0.56089 0.5383 0.0
C583 C 0.67031 0.58395 0.51728 0.0
C584 C 0.67053 0.5817 0.48067 0.0
C585 C 0.6711 0.55588 0.46525 0.0
H586 H 0.16654 0.5602 0.99517 0.0
H587 H 0.19461 0.53946 0.09924 0.0
H588 H 0.20079 0.49219 0.08135 0.0
H589 H 0.12535 0.5006 0.98081 0.0
H590 H 0.13485 0.49737 0.93567 0.0
H591 H 0.13434 0.5301 0.95576 0.0
H592 H 0.1874 0.53794 0.93695 0.0
H593 H 0.18807 0.50522 0.91675 0.0
H594 H 0.2147 0.51378 0.94903 0.0
H595 H 0.20225 0.44713 0.05351 0.0
H596 H 0.19816 0.40641 0.01731 0.0
H597 H 0.16857 0.4553 0.93093 0.0
C598 C 0.17431 0.54573 0.01401 0.0
C599 C 0.18022 0.55354 0.04858 0.0
C600 C 0.18999 0.53397 0.07263 0.0
C601 C 0.19363 0.50706 0.06271 0.0
C602 C 0.18737 0.49993 0.02862 0.0
C603 C 0.17791 0.51861 0.00457 0.0
C604 C 0.17162 0.5052 0.96999 0.0
C605 C 0.13964 0.50852 0.95998 0.0
C606 C 0.19165 0.51619 0.9415 0.0
C607 C 0.17873 0.47609 0.97857 0.0
C608 C 0.18796 0.47363 0.01249 0.0
C609 C 0.1952 0.44879 0.02684 0.0
C610 C 0.19279 0.42576 0.00605 0.0
C611 C 0.18312 0.42765 0.97128 0.0
C612 C 0.17619 0.45324 0.95735 0.0
H613 H 0.33671 0.54454 0.435 0.0
H614 H 0.32912 0.59396 0.52746 0.0
H615 H 0.32956 0.55311 0.56375 0.0
H616 H 0.29102 0.48974 0.46532 0.0
H617 H 0.31282 0.4638 0.44568 0.0
H618 H 0.31141 0.4969 0.42655 0.0
H619 H 0.36718 0.50026 0.43001 0.0
H620 H 0.36877 0.4672 0.44915 0.0
H621 H 0.38495 0.49545 0.47116 0.0
H622 H 0.33243 0.50765 0.59027 0.0
H623 H 0.33657 0.45967 0.60573 0.0
H624 H 0.34135 0.4387 0.49657 0.0
C625 C 0.33501 0.54671 0.46287 0.0
C626 C 0.33287 0.57245 0.47842 0.0
C627 C 0.33075 0.57448 0.51497 0.0
C628 C 0.33097 0.55139 0.53582 0.0
C629 C 0.33322 0.52636 0.51978 0.0
C630 C 0.3351 0.52378 0.48417 0.0
C631 C 0.33762 0.49437 0.47375 0.0
C632 C 0.31166 0.4857 0.45151 0.0
C633 C 0.36634 0.48901 0.45491 0.0
C634 C 0.33703 0.48092 0.5091 0.0
C635 C 0.33452 0.49984 0.53521 0.0
C636 C 0.33424 0.49261 0.57008 0.0
C637 C 0.33666 0.46529 0.57858 0.0
C638 C 0.33918 0.44545 0.55237 0.0
C639 C 0.33922 0.45341 0.51714 0.0
H640 H 0.56795 0.13266 0.12236 0.0
H641 H 0.58329 0.18652 0.0356 0.0
H642 H 0.5308 0.19292 0.02873 0.0
H643 H 0.50683 0.10013 0.08702 0.0
H644 H 0.48743 0.09736 0.1274 0.0
H645 H 0.52631 0.09847 0.12747 0.0
H646 H 0.52511 0.13936 0.16916 0.0
H647 H 0.48618 0.13833 0.1693 0.0
H648 H 0.50468 0.1689 0.15737 0.0
H649 H 0.47699 0.1906 0.02776 0.0
H650 H 0.42496 0.1809 0.0342 0.0
H651 H 0.44353 0.1297 0.12264 0.0
C652 C 0.56024 0.14613 0.1023 0.0
C653 C 0.57977 0.15916 0.07958 0.0
C654 C 0.5688 0.17638 0.05339 0.0
C655 C 0.53899 0.18017 0.04927 0.0
C656 C 0.52031 0.16675 0.07169 0.0
C657 C 0.53043 0.15023 0.09787 0.0
C658 C 0.50553 0.13741 0.11752 0.0
C659 C 0.5066 0.10651 0.11466 0.0
C660 C 0.50537 0.14655 0.1556 0.0
C661 C 0.47993 0.14892 0.09784 0.0
C662 C 0.48902 0.16583 0.07154 0.0
C663 C 0.46957 0.1777 0.04856 0.0
C664 C 0.44007 0.17203 0.05237 0.0
C665 C 0.43019 0.15479 0.0791 0.0
C666 C 0.45042 0.14334 0.10235 0.0
H667 H 0.94019 0.87089 0.62359 0.0
H668 H 0.92494 0.85237 0.51508 0.0
H669 H 0.97748 0.84962 0.5052 0.0
H670 H 1.00148 0.91282 0.61032 0.0
H671 H 0.02075 0.90137 0.64819 0.0
H672 H 0.98185 0.90053 0.64749 0.0
H673 H 0.98272 0.84953 0.66171 0.0
H674 H 0.02164 0.85024 0.66262 0.0
H675 H 1.00311 0.82697 0.63446 0.0
H676 H 0.03116 0.85114 0.50607 0.0
H677 H 0.08325 0.8554 0.518 0.0
H678 H 0.06457 0.87242 0.62615 0.0
C679 C 0.94794 0.86596 0.59786 0.0
C680 C 0.92848 0.86179 0.57009 0.0
C681 C 0.93944 0.8556 0.53674 0.0
C682 C 0.96925 0.85399 0.53086 0.0
C683 C 0.98785 0.85854 0.55862 0.0
C684 C 0.97772 0.86425 0.59152 0.0
C685 C 1.00253 0.8689 0.61655 0.0
C686 C 1.00159 0.89761 0.63151 0.0
C687 C 1.00249 0.84764 0.64555 0.0
C688 C 0.02813 0.86521 0.59246 0.0
C689 C 0.01908 0.85922 0.55918 0.0
C690 C 0.03855 0.85563 0.53207 0.0
C691 C 0.0681 0.85817 0.5391 0.0
C692 C 0.07797 0.86418 0.573 0.0
C693 C 0.05766 0.86766 0.60003 0.0
H694 H 0.44292 0.86144 0.87802 0.0
H695 H 0.42785 0.81398 0.97083 0.0
H696 H 0.4804 0.80967 0.97955 0.0
H697 H 0.50733 0.82421 0.849 0.0
H698 H 0.52519 0.85408 0.8333 0.0
H699 H 0.48631 0.85219 0.8331 0.0
H700 H 0.48369 0.89616 0.86913 0.0
H701 H 0.52253 0.89812 0.86958 0.0
H702 H 0.50274 0.89817 0.90984 0.0
H703 H 0.53416 0.81319 0.98085 0.0
H704 H 0.58611 0.82264 0.9731 0.0
H705 H 0.56708 0.86675 0.87862 0.0
C706 C 0.45072 0.84983 0.89988 0.0
C707 C 0.43127 0.83799 0.92371 0.0
C708 C 0.44231 0.82314 0.95216 0.0
C709 C 0.47214 0.82059 0.95736 0.0
C710 C 0.49073 0.83281 0.93374 0.0
C711 C 0.48053 0.84694 0.90538 0.0
C712 C 0.50528 0.85869 0.88446 0.0
C713 C 0.50607 0.84656 0.84779 0.0
C714 C 0.50344 0.88962 0.8832 0.0
C715 C 0.53089 0.84937 0.90589 0.0
C716 C 0.52196 0.83444 0.93417 0.0
C717 C 0.54147 0.82458 0.95859 0.0
C718 C 0.57092 0.83011 0.95402 0.0
C719 C 0.58063 0.84526 0.92517 0.0
C720 C 0.5603 0.85484 0.90071 0.0
H721 H 0.07069 0.12562 0.38694 0.0
H722 H 0.0882 0.20163 0.43836 0.0
H723 H 0.03581 0.21107 0.44081 0.0
H724 H 0.00923 0.14864 0.33544 0.0
H725 H 0.98969 0.11748 0.3405 0.0
H726 H 0.02862 0.11744 0.341 0.0
H727 H 0.02812 0.0937 0.40085 0.0
H728 H 0.98922 0.09374 0.40058 0.0
H729 H 0.0085 0.10877 0.43629 0.0
H730 H 0.98149 0.21143 0.43977 0.0
H731 H 0.92908 0.20259 0.43567 0.0
H732 H 0.94672 0.1261 0.38546 0.0
C733 C 0.06351 0.1444 0.39833 0.0
C734 C 0.08353 0.16298 0.41231 0.0
C735 C 0.07326 0.18716 0.42739 0.0
C736 C 0.04355 0.1927 0.42888 0.0
C737 C 0.02436 0.17385 0.4152 0.0
C738 C 0.03391 0.15019 0.40018 0.0
C739 C 0.00872 0.13285 0.38857 0.0
C740 C 0.00909 0.12888 0.34903 0.0
C741 C 0.00864 0.10566 0.40772 0.0
C742 C 0.98351 0.15034 0.39971 0.0
C743 C 0.99303 0.17396 0.41485 0.0
C744 C 0.97379 0.19306 0.42781 0.0
C745 C 0.94406 0.18786 0.42537 0.0
C746 C 0.9338 0.1637 0.41018 0.0
C747 C 0.95389 0.14481 0.39705 0.0
H748 H 0.06312 0.633 0.05189 0.0
H749 H 0.08184 0.64006 0.1618 0.0
H750 H 0.02956 0.64324 0.17422 0.0
H751 H 1.00366 0.67993 0.05066 0.0
H752 H 0.98305 0.66092 0.01946 0.0
H753 H 0.02192 0.6591 0.01925 0.0
H754 H 0.01931 0.60715 0.02501 0.0
H755 H 0.98044 0.60881 0.02519 0.0
H756 H 0.99923 0.59246 0.06033 0.0
H757 H 0.97515 0.64529 0.17468 0.0
H758 H 0.92263 0.6462 0.16309 0.0
H759 H 0.93945 0.63829 0.05284 0.0
C760 C 0.05622 0.63518 0.07858 0.0
C761 C 0.07653 0.63623 0.10591 0.0
C762 C 0.06665 0.63919 0.14046 0.0
C763 C 0.037 0.64103 0.14777 0.0
C764 C 0.01753 0.63995 0.12023 0.0
C765 C 0.02672 0.63714 0.08631 0.0
C766 C 1.00136 0.63659 0.06146 0.0
C767 C 1.00258 0.66057 0.03622 0.0
C768 C 1.00001 0.60965 0.04185 0.0
C769 C 0.97645 0.63939 0.0867 0.0
C770 C 0.98624 0.64132 0.12047 0.0
C771 C 0.96724 0.64385 0.14833 0.0
C772 C 0.93746 0.64435 0.1415 0.0
C773 C 0.92696 0.64236 0.10709 0.0
C774 C 0.94681 0.63992 0.07941 0.0
H775 H 0.57386 0.36597 0.5432 0.0
H776 H 0.59257 0.34798 0.65105 0.0
H777 H 0.54032 0.34478 0.66321 0.0
H778 H 0.51315 0.40766 0.55892 0.0
H779 H 0.49278 0.39616 0.52193 0.0
H780 H 0.53167 0.39531 0.52098 0.0
H781 H 0.53044 0.34427 0.50701 0.0
H782 H 0.49152 0.345 0.50769 0.0
H783 H 0.51082 0.32177 0.53516 0.0
H784 H 0.48622 0.34582 0.66444 0.0
H785 H 0.43373 0.34995 0.65433 0.0
H786 H 0.44985 0.36732 0.54571 0.0
C787 C 0.56695 0.36098 0.56925 0.0
C788 C 0.58728 0.35711 0.59617 0.0
C789 C 0.57739 0.35094 0.63001 0.0
C790 C 0.54775 0.34908 0.63718 0.0
C791 C 0.52826 0.35342 0.61022 0.0
C792 C 0.53741 0.35911 0.57689 0.0
C793 C 0.51192 0.36374 0.55289 0.0
C794 C 0.51242 0.39242 0.5378 0.0
C795 C 0.51113 0.34242 0.52398 0.0
C796 C 0.48705 0.36008 0.57804 0.0
C797 C 0.49698 0.35406 0.61094 0.0
C798 C 0.47817 0.35036 0.63874 0.0
C799 C 0.4484 0.35281 0.63276 0.0
C800 C 0.4377 0.35892 0.59925 0.0
C801 C 0.45737 0.36255 0.57159 0.0
H802 H 0.06893 0.36334 0.95204 0.0
H803 H 0.08455 0.33688 0.84644 0.0
H804 H 0.03201 0.33137 0.83756 0.0
H805 H 0.00839 0.31933 0.9703 0.0
H806 H 0.98891 0.34435 0.99481 0.0
H807 H 0.02781 0.34516 0.99346 0.0
H808 H 0.02632 0.39435 0.97103 0.0
H809 H 0.98744 0.39374 0.97252 0.0
H810 H 0.00568 0.40218 0.93267 0.0
H811 H 0.97789 0.32869 0.84013 0.0
H812 H 0.92567 0.33253 0.85232 0.0
H813 H 0.94497 0.36238 0.95555 0.0
C814 C 0.06127 0.35626 0.92712 0.0
C815 C 0.08078 0.35039 0.89996 0.0
C816 C 0.06995 0.34149 0.86759 0.0
C817 C 0.04017 0.33818 0.86235 0.0
C818 C 0.0215 0.34406 0.88967 0.0
C819 C 0.03157 0.35316 0.92131 0.0
C820 C 0.0068 0.3592 0.94585 0.0
C821 C 0.00806 0.34092 0.97801 0.0
C822 C 0.00655 0.38915 0.95611 0.0
C823 C 0.98124 0.3522 0.923 0.0
C824 C 0.99022 0.34321 0.89084 0.0
C825 C 0.97059 0.3357 0.86522 0.0
C826 C 0.94098 0.33787 0.87243 0.0
C827 C 0.93127 0.34773 0.90487 0.0
C828 C 0.95175 0.3547 0.93055 0.0
H829 H 0.56158 0.63363 0.38815 0.0
H830 H 0.57718 0.69056 0.47152 0.0
H831 H 0.52461 0.69655 0.4789 0.0
H832 H 0.49926 0.66782 0.35156 0.0
H833 H 0.48048 0.63701 0.34138 0.0
H834 H 0.5194 0.63764 0.34195 0.0
H835 H 0.51983 0.59846 0.38635 0.0
H836 H 0.48093 0.5977 0.38591 0.0
H837 H 0.49997 0.60185 0.42634 0.0
H838 H 0.47072 0.69569 0.47828 0.0
H839 H 0.41856 0.68781 0.47001 0.0
H840 H 0.43747 0.63144 0.38698 0.0
C841 C 0.55391 0.64744 0.40784 0.0
C842 C 0.57344 0.66167 0.42926 0.0
C843 C 0.5626 0.67948 0.45482 0.0
C844 C 0.53279 0.68304 0.45918 0.0
C845 C 0.51411 0.66868 0.43775 0.0
C846 C 0.52417 0.65124 0.41257 0.0
C847 C 0.49938 0.6379 0.39343 0.0
C848 C 0.49965 0.64556 0.35479 0.0
C849 C 0.50008 0.60716 0.39832 0.0
C850 C 0.47383 0.65041 0.41202 0.0
C851 C 0.48287 0.66817 0.43739 0.0
C852 C 0.46335 0.68191 0.45841 0.0
C853 C 0.43378 0.67729 0.45351 0.0
C854 C 0.42397 0.65907 0.42782 0.0
C855 C 0.44433 0.64558 0.40672 0.0
H856 H 0.30367 0.16188 0.19584 0.0
H857 H 0.26773 0.0901 0.14814 0.0
H858 H 0.233 0.08583 0.19614 0.0
H859 H 0.29751 0.13928 0.28444 0.0
H860 H 0.28751 0.17186 0.30121 0.0
H861 H 0.30973 0.16947 0.26299 0.0
H862 H 0.27293 0.19874 0.22915 0.0
H863 H 0.25052 0.20109 0.26723 0.0
H864 H 0.2356 0.18847 0.22723 0.0
H865 H 0.20292 0.08837 0.24935 0.0
H866 H 0.17916 0.09772 0.30537 0.0
H867 H 0.23299 0.16856 0.31861 0.0
C868 C 0.28853 0.14526 0.19562 0.0
C869 C 0.28845 0.12629 0.16827 0.0
C870 C 0.26821 0.10488 0.16879 0.0
C871 C 0.24834 0.10228 0.19592 0.0
C872 C 0.24881 0.12133 0.22235 0.0
C873 C 0.26831 0.14243 0.22253 0.0
C874 C 0.26404 0.16004 0.25428 0.0
C875 C 0.29132 0.16016 0.27708 0.0
C876 C 0.25525 0.18879 0.24384 0.0
C877 C 0.23931 0.14537 0.27193 0.0
C878 C 0.23091 0.1231 0.25299 0.0
C879 C 0.20915 0.10585 0.26435 0.0
C880 C 0.19577 0.11132 0.29617 0.0
C881 C 0.20408 0.13394 0.31616 0.0
C882 C 0.22594 0.15132 0.30364 0.0
H883 H 0.30413 0.88757 0.80739 0.0
H884 H 0.29536 0.80268 0.83203 0.0
H885 H 0.26197 0.79699 0.7827 0.0
H886 H 0.23187 0.89956 0.78119 0.0
H887 H 0.24092 0.92152 0.74558 0.0
H888 H 0.26467 0.91911 0.78245 0.0
H889 H 0.30725 0.90618 0.74214 0.0
H890 H 0.28371 0.90888 0.70509 0.0
H891 H 0.30338 0.87811 0.71284 0.0
H892 H 0.22606 0.80137 0.73448 0.0
H893 H 0.19566 0.81394 0.68426 0.0
H894 H 0.2309 0.89485 0.68701 0.0
C895 C 0.29543 0.86775 0.80206 0.0
C896 C 0.30227 0.84556 0.82349 0.0
C897 C 0.29055 0.8199 0.81577 0.0
C898 C 0.27142 0.8165 0.78795 0.0
C899 C 0.26466 0.83885 0.76769 0.0
C900 C 0.27679 0.86385 0.77382 0.0
C901 C 0.26637 0.88435 0.74746 0.0
C902 C 0.24998 0.9075 0.76525 0.0
C903 C 0.29169 0.895 0.72558 0.0
C904 C 0.24618 0.86705 0.72596 0.0
C905 C 0.2452 0.84097 0.73845 0.0
C906 C 0.22696 0.82161 0.72411 0.0
C907 C 0.20965 0.82896 0.69581 0.0
C908 C 0.21114 0.85525 0.68178 0.0
C909 C 0.22961 0.87452 0.6971 0.0
H910 H 0.71928 0.8945 0.81194 0.0
H911 H 0.70713 0.80833 0.82341 0.0
H912 H 0.73733 0.80049 0.7714 0.0
H913 H 0.7153 0.8948 0.71789 0.0
H914 H 0.74188 0.9211 0.71339 0.0
H915 H 0.71953 0.91967 0.75158 0.0
H916 H 0.76541 0.91886 0.7901 0.0
H917 H 0.78791 0.92003 0.75203 0.0
H918 H 0.79236 0.8932 0.78308 0.0
H919 H 0.77115 0.80216 0.72007 0.0
H920 H 0.80137 0.81328 0.66912 0.0
H921 H 0.78872 0.89845 0.68919 0.0
C922 C 0.72289 0.87399 0.80337 0.0
C923 C 0.71103 0.85198 0.82165 0.0
C924 C 0.71598 0.82545 0.8096 0.0
C925 C 0.7332 0.82081 0.78025 0.0
C926 C 0.7449 0.84297 0.76302 0.0
C927 C 0.73956 0.86905 0.77379 0.0
C928 C 0.75394 0.88936 0.75012 0.0
C929 C 0.73131 0.90728 0.73218 0.0
C930 C 0.77623 0.90636 0.77003 0.0
C931 C 0.76849 0.87063 0.72454 0.0
C932 C 0.76329 0.84395 0.73265 0.0
C933 C 0.77515 0.82298 0.71329 0.0
C934 C 0.7924 0.82948 0.68455 0.0
C935 C 0.79724 0.85669 0.67523 0.0
C936 C 0.78521 0.87746 0.69564 0.0
H937 H 0.76376 0.14547 0.32809 0.0
H938 H 0.84702 0.12004 0.28804 0.0
H939 H 0.82518 0.11294 0.23027 0.0
H940 H 0.71916 0.09974 0.2772 0.0
H941 H 0.69109 0.1243 0.27009 0.0
H942 H 0.71278 0.12579 0.30885 0.0
H943 H 0.72689 0.17506 0.29456 0.0
H944 H 0.70521 0.17375 0.25582 0.0
H945 H 0.74288 0.1827 0.25308 0.0
H946 H 0.79474 0.10945 0.17685 0.0
H947 H 0.75848 0.11234 0.13018 0.0
H948 H 0.69504 0.14164 0.20403 0.0
C949 C 0.7773 0.13814 0.30722 0.0
C950 C 0.80705 0.13309 0.31253 0.0
C951 C 0.82418 0.12396 0.28451 0.0
C952 C 0.81195 0.11979 0.25166 0.0
C953 C 0.78259 0.12505 0.24722 0.0
C954 C 0.7655 0.13419 0.27413 0.0
C955 C 0.73489 0.13968 0.26192 0.0
C956 C 0.7132 0.12127 0.28063 0.0
C957 C 0.72702 0.16957 0.26662 0.0
C958 C 0.7375 0.13234 0.22388 0.0
C959 C 0.76514 0.12369 0.2161 0.0
C960 C 0.77301 0.11614 0.18264 0.0
C961 C 0.75222 0.11782 0.15631 0.0
C962 C 0.72391 0.12717 0.16345 0.0
C963 C 0.71645 0.13429 0.19781 0.0
H964 H 0.7419 0.64181 0.33607 0.0
H965 H 0.65528 0.64933 0.29398 0.0
H966 H 0.67525 0.64865 0.23462 0.0
H967 H 0.77633 0.68476 0.27388 0.0
H968 H 0.80894 0.66499 0.27146 0.0
H969 H 0.78786 0.66515 0.31072 0.0
H970 H 0.78407 0.61311 0.30842 0.0
H971 H 0.80521 0.61278 0.2692 0.0
H972 H 0.77007 0.59713 0.26995 0.0
H973 H 0.70438 0.64785 0.18013 0.0
H974 H 0.74094 0.64698 0.13361 0.0
H975 H 0.80894 0.64053 0.21074 0.0
C976 C 0.72714 0.64312 0.31434 0.0
C977 C 0.69702 0.64553 0.31957 0.0
C978 C 0.67841 0.64744 0.29053 0.0
C979 C 0.68954 0.64707 0.25674 0.0
C980 C 0.71933 0.64486 0.25245 0.0
C981 C 0.73791 0.64292 0.28039 0.0
C982 C 0.7691 0.64129 0.26854 0.0
C983 C 0.78658 0.66549 0.28195 0.0
C984 C 0.78292 0.61448 0.27969 0.0
C985 C 0.76512 0.6426 0.22957 0.0
C986 C 0.73623 0.64462 0.2209 0.0
C987 C 0.72708 0.64624 0.18657 0.0
C988 C 0.74801 0.64575 0.16034 0.0
C989 C 0.77776 0.64369 0.16857 0.0
C990 C 0.78636 0.64211 0.20368 0.0
H991 H 0.70972 0.35026 0.69678 0.0
H992 H 0.76294 0.40437 0.63564 0.0
H993 H 0.79566 0.41042 0.68561 0.0
H994 H 0.71573 0.38584 0.77704 0.0
H995 H 0.7174 0.35591 0.80344 0.0
H996 H 0.69842 0.35528 0.76267 0.0
H997 H 0.72988 0.31511 0.74227 0.0
H998 H 0.74886 0.31552 0.78306 0.0
H999 H 0.7687 0.31812 0.74298 0.0
H1000 H 0.82185 0.41155 0.74243 0.0
H1001 H 0.84091 0.40635 0.80186 0.0
H1002 H 0.77101 0.35119 0.82613 0.0
C1003 C 0.72835 0.36325 0.69387 0.0
C1004 C 0.73383 0.37684 0.66233 0.0
C1005 C 0.75839 0.39371 0.65954 0.0
C1006 C 0.77706 0.39732 0.68778 0.0
C1007 C 0.77092 0.38384 0.7186 0.0
C1008 C 0.74728 0.36702 0.72179 0.0
C1009 C 0.74561 0.35495 0.75785 0.0
C1010 C 0.71763 0.36352 0.77633 0.0
C1011 C 0.74844 0.3241 0.75644 0.0
C1012 C 0.7719 0.36774 0.77446 0.0
C1013 C 0.78616 0.38436 0.75136 0.0
C1014 C 0.81093 0.39853 0.76073 0.0
C1015 C 0.82156 0.39548 0.79455 0.0
C1016 C 0.80745 0.37838 0.81858 0.0
C1017 C 0.78225 0.36442 0.80833 0.0
H1018 H 0.28767 0.39119 0.68247 0.0
H1019 H 0.31113 0.30679 0.67404 0.0
H1020 H 0.2835 0.29691 0.72728 0.0
H1021 H 0.29355 0.39474 0.77576 0.0
H1022 H 0.26341 0.41741 0.78075 0.0
H1023 H 0.28443 0.4179 0.74144 0.0
H1024 H 0.23801 0.40996 0.70534 0.0
H1025 H 0.21684 0.40944 0.74454 0.0
H1026 H 0.21538 0.38137 0.71495 0.0
H1027 H 0.25283 0.29585 0.78019 0.0
H1028 H 0.22273 0.30384 0.83184 0.0
H1029 H 0.22046 0.38934 0.80828 0.0
C1030 C 0.28688 0.37063 0.69182 0.0
C1031 C 0.30142 0.34969 0.67409 0.0
C1032 C 0.30016 0.3231 0.68725 0.0
C1033 C 0.28448 0.3173 0.71741 0.0
C1034 C 0.27042 0.33835 0.7343 0.0
C1035 C 0.2716 0.36452 0.72221 0.0
C1036 C 0.25507 0.38346 0.74591 0.0
C1037 C 0.27533 0.40463 0.76191 0.0
C1038 C 0.22982 0.39684 0.72652 0.0
C1039 C 0.24429 0.36378 0.77308 0.0
C1040 C 0.2533 0.33786 0.76564 0.0
C1041 C 0.24574 0.31605 0.7864 0.0
C1042 C 0.22858 0.32082 0.81564 0.0
C1043 C 0.21933 0.34721 0.82412 0.0
C1044 C 0.22736 0.36898 0.80253 0.0
H1045 H 0.28606 0.60978 0.31524 0.0
H1046 H 0.31238 0.69367 0.31633 0.0
H1047 H 0.28565 0.70141 0.26183 0.0
H1048 H 0.29114 0.60125 0.22093 0.0
H1049 H 0.26022 0.57924 0.21902 0.0
H1050 H 0.28235 0.58012 0.25745 0.0
H1051 H 0.2371 0.59098 0.29447 0.0
H1052 H 0.21488 0.59038 0.25615 0.0
H1053 H 0.21518 0.61979 0.28354 0.0
H1054 H 0.25337 0.70082 0.20959 0.0
H1055 H 0.22089 0.69106 0.16032 0.0
H1056 H 0.21701 0.60717 0.1917 0.0
C1057 C 0.28645 0.62969 0.30377 0.0
C1058 C 0.30128 0.65114 0.31998 0.0
C1059 C 0.30128 0.67692 0.30425 0.0
C1060 C 0.28608 0.68154 0.27336 0.0
C1061 C 0.27129 0.66009 0.25832 0.0
C1062 C 0.27166 0.63458 0.27269 0.0
C1063 C 0.25389 0.61506 0.25129 0.0
C1064 C 0.27305 0.59259 0.23628 0.0
C1065 C 0.22877 0.60338 0.27265 0.0
C1066 C 0.24303 0.6337 0.22303 0.0
C1067 C 0.25326 0.6596 0.22764 0.0
C1068 C 0.24545 0.68056 0.2055 0.0
C1069 C 0.22691 0.67485 0.17769 0.0
C1070 C 0.21654 0.64837 0.17215 0.0
C1071 C 0.22475 0.62758 0.19518 0.0
loop_
_geom_bond_atom_site_label_1
_geom_bond_atom_site_label_2
_geom_bond_distance
_geom_bond_site_symmetry_2
_ccdc_geom_bond_type
In0 O1 2.294 . S
In0 O2 2.326 . S
In0 O6 2.266 . S
In0 O7 2.326 . S
In0 O8 2.266 . S
In0 O9 2.326 . S
In0 O11 2.294 . S
In0 O12 2.326 . S
O1 In0 2.294 . S
O1 C10 1.240 . S
O2 In0 2.326 . S
O2 C10 1.252 . S
C3 O6 1.252 . S
C3 O7 1.260 . S
C4 O11 1.240 . S
C4 O12 1.252 . S
C5 O8 1.252 . S
C5 O9 1.260 . S
O6 In0 2.266 . S
O6 C3 1.252 . S
O7 In0 2.326 . S
O7 C3 1.260 . S
O8 In0 2.266 . S
O8 C5 1.252 . S
O9 In0 2.326 . S
O9 C5 1.260 . S
C10 O1 1.240 . S
C10 O2 1.252 . S
O11 In0 2.294 . S
O11 C4 1.240 . S
O12 In0 2.326 . S
O12 C4 1.252 . S
In13 O14 2.294 . S
In13 O15 2.326 . S
In13 O19 2.266 . S
In13 O20 2.326 . S
In13 O21 2.266 . S
In13 O22 2.326 . S
In13 O24 2.294 . S
In13 O25 2.326 . S
O14 In13 2.294 . S
O14 C23 1.240 . S
O15 In13 2.326 . S
O15 C23 1.252 . S
C16 O19 1.252 . S
C16 O20 1.260 . S
C17 O24 1.240 . S
C17 O25 1.252 . S
C18 O21 1.252 . S
C18 O22 1.260 . S
O19 In13 2.266 . S
O19 C16 1.252 . S
O20 In13 2.326 . S
O20 C16 1.260 . S
O21 In13 2.266 . S
O21 C18 1.252 . S
O22 In13 2.326 . S
O22 C18 1.260 . S
C23 O14 1.240 . S
C23 O15 1.252 . S
O24 In13 2.294 . S
O24 C17 1.240 . S
O25 In13 2.326 . S
O25 C17 1.252 . S
In26 O27 2.294 . S
In26 O28 2.326 . S
In26 O32 2.266 . S
In26 O33 2.326 . S
In26 O34 2.266 . S
In26 O35 2.326 . S
In26 O37 2.294 . S
In26 O38 2.326 . S
O27 In26 2.294 . S
O27 C36 1.240 . S
O28 In26 2.326 . S
O28 C36 1.252 . S
C29 O32 1.252 . S
C29 O33 1.260 . S
C30 O37 1.240 . S
C30 O38 1.252 . S
C31 O34 1.252 . S
C31 O35 1.260 . S
O32 In26 2.266 . S
O32 C29 1.252 . S
O33 In26 2.326 . S
O33 C29 1.260 . S
O34 In26 2.266 . S
O34 C31 1.252 . S
O35 In26 2.326 . S
O35 C31 1.260 . S
C36 O27 1.240 . S
C36 O28 1.252 . S
O37 In26 2.294 . S
O37 C30 1.240 . S
O38 In26 2.326 . S
O38 C30 1.252 . S
In39 O40 2.294 . S
In39 O41 2.326 . S
In39 O45 2.266 . S
In39 O46 2.326 . S
In39 O47 2.266 . S
In39 O48 2.326 . S
In39 O50 2.294 . S
In39 O51 2.326 . S
O40 In39 2.294 . S
O40 C49 1.240 . S
O41 In39 2.326 . S
O41 C49 1.252 . S
C42 O45 1.252 . S
C42 O46 1.260 . S
C43 O50 1.240 . S
C43 O51 1.252 . S
C44 O47 1.252 . S
C44 O48 1.260 . S
O45 In39 2.266 . S
O45 C42 1.252 . S
O46 In39 2.326 . S
O46 C42 1.260 . S
O47 In39 2.266 . S
O47 C44 1.252 . S
O48 In39 2.326 . S
O48 C44 1.260 . S
C49 O40 1.240 . S
C49 O41 1.252 . S
O50 In39 2.294 . S
O50 C43 1.240 . S
O51 In39 2.326 . S
O51 C43 1.252 . S
In52 O53 2.294 . S
In52 O54 2.326 . S
In52 O58 2.266 . S
In52 O59 2.326 . S
In52 O60 2.266 . S
In52 O61 2.326 . S
In52 O63 2.294 . S
In52 O64 2.326 . S
O53 In52 2.294 . S
O53 C62 1.240 . S
O54 In52 2.326 . S
O54 C62 1.252 . S
C55 O58 1.252 . S
C55 O59 1.260 . S
C56 O63 1.240 . S
C56 O64 1.252 . S
C57 O60 1.252 . S
C57 O61 1.260 . S
O58 In52 2.266 . S
O58 C55 1.252 . S
O59 In52 2.326 . S
O59 C55 1.260 . S
O60 In52 2.266 . S
O60 C57 1.252 . S
O61 In52 2.326 . S
O61 C57 1.260 . S
C62 O53 1.240 . S
C62 O54 1.252 . S
O63 In52 2.294 . S
O63 C56 1.240 . S
O64 In52 2.326 . S
O64 C56 1.252 . S
In65 O66 2.294 . S
In65 O67 2.326 . S
In65 O71 2.266 . S
In65 O72 2.326 . S
In65 O73 2.266 . S
In65 O74 2.326 . S
In65 O76 2.294 . S
In65 O77 2.326 . S
O66 In65 2.294 . S
O66 C75 1.240 . S
O67 In65 2.326 . S
O67 C75 1.252 . S
C68 O71 1.252 . S
C68 O72 1.260 . S
C69 O76 1.240 . S
C69 O77 1.252 . S
C70 O73 1.252 . S
C70 O74 1.260 . S
O71 In65 2.266 . S
O71 C68 1.252 . S
O72 In65 2.326 . S
O72 C68 1.260 . S
O73 In65 2.266 . S
O73 C70 1.252 . S
O74 In65 2.326 . S
O74 C70 1.260 . S
C75 O66 1.240 . S
C75 O67 1.252 . S
O76 In65 2.294 . S
O76 C69 1.240 . S
O77 In65 2.326 . S
O77 C69 1.252 . S
In78 O79 2.294 . S
In78 O80 2.326 . S
In78 O84 2.266 . S
In78 O85 2.326 . S
In78 O86 2.266 . S
In78 O87 2.326 . S
In78 O89 2.294 . S
In78 O90 2.326 . S
O79 In78 2.294 . S
O79 C88 1.240 . S
O80 In78 2.326 . S
O80 C88 1.252 . S
C81 O84 1.252 . S
C81 O85 1.260 . S
C82 O89 1.240 . S
C82 O90 1.252 . S
C83 O86 1.252 . S
C83 O87 1.260 . S
O84 In78 2.266 . S
O84 C81 1.252 . S
O85 In78 2.326 . S
O85 C81 1.260 . S
O86 In78 2.266 . S
O86 C83 1.252 . S
O87 In78 2.326 . S
O87 C83 1.260 . S
C88 O79 1.240 . S
C88 O80 1.252 . S
O89 In78 2.294 . S
O89 C82 1.240 . S
O90 In78 2.326 . S
O90 C82 1.252 . S
In91 O92 2.294 . S
In91 O93 2.326 . S
In91 O97 2.266 . S
In91 O98 2.326 . S
In91 O99 2.266 . S
In91 O100 2.326 . S
In91 O102 2.294 . S
In91 O103 2.326 . S
O92 In91 2.294 . S
O92 C101 1.240 . S
O93 In91 2.326 . S
O93 C101 1.252 . S
C94 O97 1.252 . S
C94 O98 1.260 . S
C95 O102 1.240 . S
C95 O103 1.252 . S
C96 O99 1.252 . S
C96 O100 1.260 . S
O97 In91 2.266 . S
O97 C94 1.252 . S
O98 In91 2.326 . S
O98 C94 1.260 . S
O99 In91 2.266 . S
O99 C96 1.252 . S
O100 In91 2.326 . S
O100 C96 1.260 . S
C101 O92 1.240 . S
C101 O93 1.252 . S
O102 In91 2.294 . S
O102 C95 1.240 . S
O103 In91 2.326 . S
O103 C95 1.252 . S
In104 O105 2.294 . S
In104 O106 2.326 . S
In104 O110 2.266 . S
In104 O111 2.326 . S
In104 O112 2.266 . S
In104 O113 2.326 . S
In104 O115 2.294 . S
In104 O116 2.326 . S
O105 In104 2.294 . S
O105 C114 1.240 . S
O106 In104 2.326 . S
O106 C114 1.252 . S
C107 O110 1.252 . S
C107 O111 1.260 . S
C108 O115 1.240 . S
C108 O116 1.252 . S
C109 O112 1.252 . S
C109 O113 1.260 . S
O110 In104 2.266 . S
O110 C107 1.252 . S
O111 In104 2.326 . S
O111 C107 1.260 . S
O112 In104 2.266 . S
O112 C109 1.252 . S
O113 In104 2.326 . S
O113 C109 1.260 . S
C114 O105 1.240 . S
C114 O106 1.252 . S
O115 In104 2.294 . S
O115 C108 1.240 . S
O116 In104 2.326 . S
O116 C108 1.252 . S
In117 O118 2.294 . S
In117 O119 2.326 . S
In117 O123 2.266 . S
In117 O124 2.326 . S
In117 O125 2.266 . S
In117 O126 2.326 . S
In117 O128 2.294 . S
In117 O129 2.326 . S
O118 In117 2.294 . S
O118 C127 1.240 . S
O119 In117 2.326 . S
O119 C127 1.252 . S
C120 O123 1.252 . S
C120 O124 1.260 . S
C121 O128 1.240 . S
C121 O129 1.252 . S
C122 O125 1.252 . S
C122 O126 1.260 . S
O123 In117 2.266 . S
O123 C120 1.252 . S
O124 In117 2.326 . S
O124 C120 1.260 . S
O125 In117 2.266 . S
O125 C122 1.252 . S
O126 In117 2.326 . S
O126 C122 1.260 . S
C127 O118 1.240 . S
C127 O119 1.252 . S
O128 In117 2.294 . S
O128 C121 1.240 . S
O129 In117 2.326 . S
O129 C121 1.252 . S
In130 O131 2.294 . S
In130 O132 2.326 . S
In130 O136 2.266 . S
In130 O137 2.326 . S
In130 O138 2.266 . S
In130 O139 2.326 . S
In130 O141 2.294 . S
In130 O142 2.326 . S
O131 In130 2.294 . S
O131 C140 1.240 . S
O132 In130 2.326 . S
O132 C140 1.252 . S
C133 O136 1.252 . S
C133 O137 1.260 . S
C134 O141 1.240 . S
C134 O142 1.252 . S
C135 O138 1.252 . S
C135 O139 1.260 . S
O136 In130 2.266 . S
O136 C133 1.252 . S
O137 In130 2.326 . S
O137 C133 1.260 . S
O138 In130 2.266 . S
O138 C135 1.252 . S
O139 In130 2.326 . S
O139 C135 1.260 . S
C140 O131 1.240 . S
C140 O132 1.252 . S
O141 In130 2.294 . S
O141 C134 1.240 . S
O142 In130 2.326 . S
O142 C134 1.252 . S
In143 O144 2.294 . S
In143 O145 2.326 . S
In143 O149 2.266 . S
In143 O150 2.326 . S
In143 O151 2.266 . S
In143 O152 2.326 . S
In143 O154 2.294 . S
In143 O155 2.326 . S
O144 In143 2.294 . S
O144 C153 1.240 . S
O145 In143 2.326 . S
O145 C153 1.252 . S
C146 O149 1.252 . S
C146 O150 1.260 . S
C147 O154 1.240 . S
C147 O155 1.252 . S
C148 O151 1.252 . S
C148 O152 1.260 . S
O149 In143 2.266 . S
O149 C146 1.252 . S
O150 In143 2.326 . S
O150 C146 1.260 . S
O151 In143 2.266 . S
O151 C148 1.252 . S
O152 In143 2.326 . S
O152 C148 1.260 . S
C153 O144 1.240 . S
C153 O145 1.252 . S
O154 In143 2.294 . S
O154 C147 1.240 . S
O155 In143 2.326 . S
O155 C147 1.252 . S
In156 O157 2.294 . S
In156 O158 2.326 . S
In156 O162 2.266 . S
In156 O163 2.326 . S
In156 O164 2.266 . S
In156 O165 2.326 . S
In156 O167 2.294 . S
In156 O168 2.326 . S
O157 In156 2.294 . S
O157 C166 1.240 . S
O158 In156 2.326 . S
O158 C166 1.252 . S
C159 O162 1.252 . S
C159 O163 1.260 . S
C160 O167 1.240 . S
C160 O168 1.252 . S
C161 O164 1.252 . S
C161 O165 1.260 . S
O162 In156 2.266 . S
O162 C159 1.252 . S
O163 In156 2.326 . S
O163 C159 1.260 . S
O164 In156 2.266 . S
O164 C161 1.252 . S
O165 In156 2.326 . S
O165 C161 1.260 . S
C166 O157 1.240 . S
C166 O158 1.252 . S
O167 In156 2.294 . S
O167 C160 1.240 . S
O168 In156 2.326 . S
O168 C160 1.252 . S
In169 O170 2.294 . S
In169 O171 2.326 . S
In169 O175 2.266 . S
In169 O176 2.326 . S
In169 O177 2.266 . S
In169 O178 2.326 . S
In169 O180 2.294 . S
In169 O181 2.326 . S
O170 In169 2.294 . S
O170 C179 1.240 . S
O171 In169 2.326 . S
O171 C179 1.252 . S
C172 O175 1.252 . S
C172 O176 1.260 . S
C173 O180 1.240 . S
C173 O181 1.252 . S
C174 O177 1.252 . S
C174 O178 1.260 . S
O175 In169 2.266 . S
O175 C172 1.252 . S
O176 In169 2.326 . S
O176 C172 1.260 . S
O177 In169 2.266 . S
O177 C174 1.252 . S
O178 In169 2.326 . S
O178 C174 1.260 . S
C179 O170 1.240 . S
C179 O171 1.252 . S
O180 In169 2.294 . S
O180 C173 1.240 . S
O181 In169 2.326 . S
O181 C173 1.252 . S
In182 O183 2.294 . S
In182 O184 2.326 . S
In182 O188 2.266 . S
In182 O189 2.326 . S
In182 O190 2.266 . S
In182 O191 2.326 . S
In182 O193 2.294 . S
In182 O194 2.326 . S
O183 In182 2.294 . S
O183 C192 1.240 . S
O184 In182 2.326 . S
O184 C192 1.252 . S
C185 O188 1.252 . S
C185 O189 1.260 . S
C186 O193 1.240 . S
C186 O194 1.252 . S
C187 O190 1.252 . S
C187 O191 1.260 . S
O188 In182 2.266 . S
O188 C185 1.252 . S
O189 In182 2.326 . S
O189 C185 1.260 . S
O190 In182 2.266 . S
O190 C187 1.252 . S
O191 In182 2.326 . S
O191 C187 1.260 . S
C192 O183 1.240 . S
C192 O184 1.252 . S
O193 In182 2.294 . S
O193 C186 1.240 . S
O194 In182 2.326 . S
O194 C186 1.252 . S
In195 O196 2.294 . S
In195 O197 2.326 . S
In195 O201 2.266 . S
In195 O202 2.326 . S
In195 O203 2.266 . S
In195 O204 2.326 . S
In195 O206 2.294 . S
In195 O207 2.326 . S
O196 In195 2.294 . S
O196 C205 1.240 . S
O197 In195 2.326 . S
O197 C205 1.252 . S
C198 O201 1.252 . S
C198 O202 1.260 . S
C199 O206 1.240 . S
C199 O207 1.252 . S
C200 O203 1.252 . S
C200 O204 1.260 . S
O201 In195 2.266 . S
O201 C198 1.252 . S
O202 In195 2.326 . S
O202 C198 1.260 . S
O203 In195 2.266 . S
O203 C200 1.252 . S
O204 In195 2.326 . S
O204 C200 1.260 . S
C205 O196 1.240 . S
C205 O197 1.252 . S
O206 In195 2.294 . S
O206 C199 1.240 . S
O207 In195 2.326 . S
O207 C199 1.252 . S
H208 C220 0.930 . S
H209 C222 0.930 . S
H210 C223 0.930 . S
H211 C227 0.959 . S
H212 C227 0.959 . S
H213 C227 0.961 . S
H214 C228 0.960 . S
H215 C228 0.961 . S
H216 C228 0.959 . S
H217 C231 0.929 . S
H218 C232 0.931 . S
H219 C234 0.930 . S
C220 H208 0.930 . S
C220 C221 1.399 . S
C220 C225 1.399 . S
C221 C220 1.399 . S
C221 C222 1.376 1_554 S
C222 H209 0.930 . S
C222 C221 1.376 1_556 S
C222 C223 1.388 . S
C223 H210 0.930 . S
C223 C222 1.388 . S
C223 C224 1.390 . S
C224 C223 1.390 . S
C224 C225 1.394 1_556 S
C224 C230 1.465 . S
C225 C220 1.399 . S
C225 C224 1.394 1_554 S
C225 C226 1.516 . S
C226 C225 1.516 . S
C226 C227 1.502 . S
C226 C228 1.561 . S
C226 C229 1.526 1_554 S
C227 H211 0.959 . S
C227 H212 0.959 . S
C227 H213 0.961 . S
C227 C226 1.502 . S
C228 H214 0.960 . S
C228 H215 0.961 . S
C228 H216 0.959 . S
C228 C226 1.561 . S
C229 C226 1.526 1_556 S
C229 C230 1.396 . S
C229 C234 1.390 . S
C230 C224 1.465 . S
C230 C229 1.396 . S
C230 C231 1.399 . S
C231 H217 0.929 . S
C231 C230 1.399 . S
C231 C232 1.385 . S
C232 H218 0.931 . S
C232 C231 1.385 . S
C232 C233 1.389 . S
C233 C232 1.389 . S
C233 C234 1.387 . S
C234 H219 0.930 . S
C234 C229 1.390 . S
C234 C233 1.387 . S
H235 C247 0.930 . S
H236 C249 0.930 . S
H237 C250 0.930 . S
H238 C254 0.959 . S
H239 C254 0.959 . S
H240 C254 0.961 . S
H241 C255 0.960 . S
H242 C255 0.961 . S
H243 C255 0.959 . S
H244 C258 0.929 . S
H245 C259 0.931 . S
H246 C261 0.930 . S
C247 H235 0.930 . S
C247 C248 1.399 . S
C247 C252 1.399 . S
C248 C247 1.399 . S
C248 C249 1.376 . S
C249 H236 0.930 . S
C249 C248 1.376 . S
C249 C250 1.388 . S
C250 H237 0.930 . S
C250 C249 1.388 . S
C250 C251 1.390 . S
C251 C250 1.390 . S
C251 C252 1.394 . S
C251 C257 1.465 . S
C252 C247 1.399 . S
C252 C251 1.394 . S
C252 C253 1.516 . S
C253 C252 1.516 . S
C253 C254 1.502 . S
C253 C255 1.561 . S
C253 C256 1.526 . S
C254 H238 0.959 . S
C254 H239 0.959 . S
C254 H240 0.961 . S
C254 C253 1.502 . S
C255 H241 0.960 . S
C255 H242 0.961 . S
C255 H243 0.959 . S
C255 C253 1.561 . S
C256 C253 1.526 . S
C256 C257 1.396 . S
C256 C261 1.390 . S
C257 C251 1.465 . S
C257 C256 1.396 . S
C257 C258 1.399 . S
C258 H244 0.929 . S
C258 C257 1.399 . S
C258 C259 1.385 . S
C259 H245 0.931 . S
C259 C258 1.385 . S
C259 C260 1.389 . S
C260 C259 1.389 . S
C260 C261 1.387 . S
C261 H246 0.930 . S
C261 C256 1.390 . S
C261 C260 1.387 . S
H262 C274 0.930 . S
H263 C276 0.930 . S
H264 C277 0.930 . S
H265 C281 0.959 . S
H266 C281 0.946 1_554 S
H267 C281 0.961 . S
H268 C282 0.960 . S
H269 C282 0.961 . S
H270 C282 0.959 . S
H271 C285 0.929 . S
H272 C286 0.931 . S
H273 C288 0.930 . S
C274 H262 0.930 . S
C274 C275 1.399 . S
C274 C279 1.399 . S
C275 C274 1.399 . S
C275 C276 1.376 . S
C276 H263 0.930 . S
C276 C275 1.376 . S
C276 C277 1.388 . S
C277 H264 0.930 . S
C277 C276 1.388 . S
C277 C278 1.390 1_556 S
C278 C277 1.390 1_554 S
C278 C279 1.394 1_554 S
C278 C284 1.465 . S
C279 C274 1.399 . S
C279 C278 1.394 1_556 S
C279 C280 1.516 1_556 S
C280 C279 1.516 1_554 S
C280 C281 1.502 1_554 S
C280 C282 1.561 . S
C280 C283 1.526 . S
C281 H265 0.959 . S
C281 H266 0.946 1_556 S
C281 H267 0.961 . S
C281 C280 1.502 1_556 S
C282 H268 0.960 . S
C282 H269 0.961 . S
C282 H270 0.959 . S
C282 C280 1.561 . S
C283 C280 1.526 . S
C283 C284 1.396 . S
C283 C288 1.390 . S
C284 C278 1.465 . S
C284 C283 1.396 . S
C284 C285 1.399 . S
C285 H271 0.929 . S
C285 C284 1.399 . S
C285 C286 1.385 . S
C286 H272 0.931 . S
C286 C285 1.385 . S
C286 C287 1.389 . S
C287 C286 1.389 . S
C287 C288 1.387 . S
C288 H273 0.930 . S
C288 C283 1.390 . S
C288 C287 1.387 . S
H289 C301 0.930 . S
H290 C303 0.930 . S
H291 C304 0.930 . S
H292 C308 0.959 . S
H293 C308 0.959 . S
H294 C308 0.961 . S
H295 C309 0.960 . S
H296 C309 0.961 . S
H297 C309 0.959 . S
H298 C312 0.929 . S
H299 C313 0.931 . S
H300 C315 0.930 . S
C301 H289 0.930 . S
C301 C302 1.399 . S
C301 C306 1.399 . S
C302 C301 1.399 . S
C302 C303 1.376 . S
C303 H290 0.930 . S
C303 C302 1.376 . S
C303 C304 1.388 . S
C304 H291 0.930 . S
C304 C303 1.388 . S
C304 C305 1.390 . S
C305 C304 1.390 . S
C305 C306 1.394 . S
C305 C311 1.465 . S
C306 C301 1.399 . S
C306 C305 1.394 . S
C306 C307 1.516 . S
C307 C306 1.516 . S
C307 C308 1.502 . S
C307 C309 1.561 . S
C307 C310 1.526 . S
C308 H292 0.959 . S
C308 H293 0.959 . S
C308 H294 0.961 . S
C308 C307 1.502 . S
C309 H295 0.960 . S
C309 H296 0.961 . S
C309 H297 0.959 . S
C309 C307 1.561 . S
C310 C307 1.526 . S
C310 C311 1.396 . S
C310 C315 1.390 . S
C311 C305 1.465 . S
C311 C310 1.396 . S
C311 C312 1.399 . S
C312 H298 0.929 . S
C312 C311 1.399 . S
C312 C313 1.385 . S
C313 H299 0.931 . S
C313 C312 1.385 . S
C313 C314 1.389 . S
C314 C313 1.389 . S
C314 C315 1.387 . S
C315 H300 0.930 . S
C315 C310 1.390 . S
C315 C314 1.387 . S
H316 C328 0.930 . S
H317 C330 0.930 . S
H318 C331 0.930 . S
H319 C335 0.959 . S
H320 C335 0.959 . S
H321 C335 0.961 . S
H322 C336 0.960 . S
H323 C336 0.961 . S
H324 C336 0.959 . S
H325 C339 0.929 . S
H326 C340 0.931 . S
H327 C342 0.930 . S
C328 H316 0.930 . S
C328 C329 1.399 1_556 S
C328 C333 1.399 . S
C329 C328 1.399 1_554 S
C329 C330 1.376 . S
C330 H317 0.930 . S
C330 C329 1.376 . S
C330 C331 1.388 . S
C331 H318 0.930 . S
C331 C330 1.388 . S
C331 C332 1.390 . S
C332 C331 1.390 . S
C332 C333 1.394 1_554 S
C332 C338 1.465 1_554 S
C333 C328 1.399 . S
C333 C332 1.394 1_556 S
C333 C334 1.516 . S
C334 C333 1.516 . S
C334 C335 1.502 . S
C334 C336 1.561 . S
C334 C337 1.526 . S
C335 H319 0.959 . S
C335 H320 0.959 . S
C335 H321 0.961 . S
C335 C334 1.502 . S
C336 H322 0.960 . S
C336 H323 0.961 . S
C336 H324 0.959 . S
C336 C334 1.561 . S
C337 C334 1.526 . S
C337 C338 1.396 . S
C337 C342 1.390 . S
C338 C332 1.465 1_556 S
C338 C337 1.396 . S
C338 C339 1.399 1_556 S
C339 H325 0.929 . S
C339 C338 1.399 1_554 S
C339 C340 1.385 1_554 S
C340 H326 0.931 . S
C340 C339 1.385 1_556 S
C340 C341 1.389 . S
C341 C340 1.389 . S
C341 C342 1.387 . S
C342 H327 0.930 . S
C342 C337 1.390 . S
C342 C341 1.387 . S
H343 C355 0.930 . S
H344 C357 0.930 . S
H345 C358 0.930 . S
H346 C362 0.959 . S
H347 C362 0.959 . S
H348 C362 0.961 . S
H349 C363 0.960 . S
H350 C363 0.961 . S
H351 C363 0.959 . S
H352 C366 0.929 . S
H353 C367 0.931 . S
H354 C369 0.930 . S
C355 H343 0.930 . S
C355 C356 1.399 . S
C355 C360 1.399 . S
C356 C355 1.399 . S
C356 C357 1.376 . S
C357 H344 0.930 . S
C357 C356 1.376 . S
C357 C358 1.388 . S
C358 H345 0.930 . S
C358 C357 1.388 . S
C358 C359 1.390 . S
C359 C358 1.390 . S
C359 C360 1.394 . S
C359 C365 1.465 . S
C360 C355 1.399 . S
C360 C359 1.394 . S
C360 C361 1.516 . S
C361 C360 1.516 . S
C361 C362 1.502 . S
C361 C363 1.561 . S
C361 C364 1.526 . S
C362 H346 0.959 . S
C362 H347 0.959 . S
C362 H348 0.961 . S
C362 C361 1.502 . S
C363 H349 0.960 . S
C363 H350 0.961 . S
C363 H351 0.959 . S
C363 C361 1.561 . S
C364 C361 1.526 . S
C364 C365 1.396 . S
C364 C369 1.390 . S
C365 C359 1.465 . S
C365 C364 1.396 . S
C365 C366 1.399 . S
C366 H352 0.929 . S
C366 C365 1.399 . S
C366 C367 1.385 . S
C367 H353 0.931 . S
C367 C366 1.385 . S
C367 C368 1.389 . S
C368 C367 1.389 . S
C368 C369 1.387 . S
C369 H354 0.930 . S
C369 C364 1.390 . S
C369 C368 1.387 . S
H370 C382 0.930 . S
H371 C384 0.930 . S
H372 C385 0.930 . S
H373 C389 0.959 . S
H374 C389 0.959 . S
H375 C389 0.961 . S
H376 C390 0.960 . S
H377 C390 0.961 . S
H378 C390 0.959 . S
H379 C393 0.929 . S
H380 C394 0.931 . S
H381 C396 0.930 . S
C382 H370 0.930 . S
C382 C383 1.399 . S
C382 C387 1.399 . S
C383 C382 1.399 . S
C383 C384 1.376 1_556 S
C384 H371 0.930 . S
C384 C383 1.376 1_554 S
C384 C385 1.388 . S
C385 H372 0.930 . S
C385 C384 1.388 . S
C385 C386 1.390 . S
C386 C385 1.390 . S
C386 C387 1.394 1_554 S
C386 C392 1.465 . S
C387 C382 1.399 . S
C387 C386 1.394 1_556 S
C387 C388 1.516 . S
C388 C387 1.516 . S
C388 C389 1.502 . S
C388 C390 1.561 . S
C388 C391 1.526 1_556 S
C389 H373 0.959 . S
C389 H374 0.959 . S
C389 H375 0.961 . S
C389 C388 1.502 . S
C390 H376 0.960 . S
C390 H377 0.961 . S
C390 H378 0.959 . S
C390 C388 1.561 . S
C391 C388 1.526 1_554 S
C391 C392 1.396 . S
C391 C396 1.390 . S
C392 C386 1.465 . S
C392 C391 1.396 . S
C392 C393 1.399 . S
C393 H379 0.929 . S
C393 C392 1.399 . S
C393 C394 1.385 . S
C394 H380 0.931 . S
C394 C393 1.385 . S
C394 C395 1.389 . S
C395 C394 1.389 . S
C395 C396 1.387 . S
C396 H381 0.930 . S
C396 C391 1.390 . S
C396 C395 1.387 . S
H397 C409 0.930 . S
H398 C411 0.930 . S
H399 C412 0.930 . S
H400 C416 0.959 . S
H401 C416 0.959 . S
H402 C416 0.961 . S
H403 C417 0.960 . S
H404 C417 0.961 . S
H405 C417 0.959 . S
H406 C420 0.929 . S
H407 C421 0.931 . S
H408 C423 0.930 . S
C409 H397 0.930 . S
C409 C410 1.399 . S
C409 C414 1.399 . S
C410 C409 1.399 . S
C410 C411 1.376 . S
C411 H398 0.930 . S
C411 C410 1.376 . S
C411 C412 1.388 . S
C412 H399 0.930 . S
C412 C411 1.388 . S
C412 C413 1.390 . S
C413 C412 1.390 . S
C413 C414 1.394 . S
C413 C419 1.465 . S
C414 C409 1.399 . S
C414 C413 1.394 . S
C414 C415 1.516 . S
C415 C414 1.516 . S
C415 C416 1.502 . S
C415 C417 1.561 . S
C415 C418 1.526 . S
C416 H400 0.959 . S
C416 H401 0.959 . S
C416 H402 0.961 . S
C416 C415 1.502 . S
C417 H403 0.960 . S
C417 H404 0.961 . S
C417 H405 0.959 . S
C417 C415 1.561 . S
C418 C415 1.526 . S
C418 C419 1.396 . S
C418 C423 1.390 . S
C419 C413 1.465 . S
C419 C418 1.396 . S
C419 C420 1.399 . S
C420 H406 0.929 . S
C420 C419 1.399 . S
C420 C421 1.385 . S
C421 H407 0.931 . S
C421 C420 1.385 . S
C421 C422 1.389 . S
C422 C421 1.389 . S
C422 C423 1.387 . S
C423 H408 0.930 . S
C423 C418 1.390 . S
C423 C422 1.387 . S
H424 C436 0.930 . S
H425 C438 0.930 . S
H426 C439 0.930 . S
H427 C443 0.959 . S
H428 C443 0.977 . S
H429 C443 0.961 . S
H430 C444 0.960 . S
H431 C444 0.961 1_565 S
H432 C444 0.959 . S
H433 C447 0.929 . S
H434 C448 0.931 . S
H435 C450 0.930 . S
C436 H424 0.930 . S
C436 C437 1.399 1_556 S
C436 C441 1.399 . S
C437 C436 1.399 1_554 S
C437 C438 1.376 . S
C438 H425 0.930 . S
C438 C437 1.376 . S
C438 C439 1.388 . S
C439 H426 0.930 . S
C439 C438 1.388 . S
C439 C440 1.390 . S
C440 C439 1.390 . S
C440 C441 1.394 1_554 S
C440 C446 1.465 1_545 S
C441 C436 1.399 . S
C441 C440 1.394 1_556 S
C441 C442 1.516 . S
C442 C441 1.516 . S
C442 C443 1.502 . S
C442 C444 1.561 . S
C442 C445 1.526 1_545 S
C443 H427 0.959 . S
C443 H428 0.977 . S
C443 H429 0.961 . S
C443 C442 1.502 . S
C444 H430 0.960 . S
C444 H431 0.961 1_545 S
C444 H432 0.959 . S
C444 C442 1.561 . S
C445 C442 1.526 1_565 S
C445 C446 1.396 1_556 S
C445 C450 1.390 . S
C446 C440 1.465 1_565 S
C446 C445 1.396 1_554 S
C446 C447 1.399 . S
C447 H433 0.929 . S
C447 C446 1.399 . S
C447 C448 1.385 . S
C448 H434 0.931 . S
C448 C447 1.385 . S
C448 C449 1.389 1_554 S
C449 C448 1.389 1_556 S
C449 C450 1.387 . S
C450 H435 0.930 . S
C450 C445 1.390 . S
C450 C449 1.387 . S
H451 C463 0.930 . S
H452 C465 0.930 . S
H453 C466 0.930 . S
H454 C470 0.959 . S
H455 C470 0.959 1_545 S
H456 C470 0.961 . S
H457 C471 0.960 . S
H458 C471 0.961 . S
H459 C471 0.959 . S
H460 C474 0.929 . S
H461 C475 0.931 . S
H462 C477 0.930 . S
C463 H451 0.930 . S
C463 C464 1.399 . S
C463 C468 1.399 . S
C464 C463 1.399 . S
C464 C465 1.376 . S
C465 H452 0.930 . S
C465 C464 1.376 . S
C465 C466 1.388 . S
C466 H453 0.930 . S
C466 C465 1.388 . S
C466 C467 1.390 . S
C467 C466 1.390 . S
C467 C468 1.394 . S
C467 C473 1.465 1_565 S
C468 C463 1.399 . S
C468 C467 1.394 . S
C468 C469 1.516 . S
C469 C468 1.516 . S
C469 C470 1.502 . S
C469 C471 1.561 . S
C469 C472 1.526 1_565 S
C470 H454 0.959 . S
C470 H455 0.959 1_565 S
C470 H456 0.961 . S
C470 C469 1.502 . S
C471 H457 0.960 . S
C471 H458 0.961 . S
C471 H459 0.959 . S
C471 C469 1.561 . S
C472 C469 1.526 1_545 S
C472 C473 1.396 . S
C472 C477 1.390 . S
C473 C467 1.465 1_545 S
C473 C472 1.396 . S
C473 C474 1.399 . S
C474 H460 0.929 . S
C474 C473 1.399 . S
C474 C475 1.385 . S
C475 H461 0.931 . S
C475 C474 1.385 . S
C475 C476 1.389 . S
C476 C475 1.389 . S
C476 C477 1.387 . S
C477 H462 0.930 . S
C477 C472 1.390 . S
C477 C476 1.387 . S
H478 C490 0.933 . S
H479 C492 0.930 . S
H480 C493 0.930 1_545 S
H481 C497 0.959 . S
H482 C497 0.959 . S
H483 C497 0.961 . S
H484 C498 0.960 . S
H485 C498 0.961 . S
H486 C498 0.959 . S
H487 C501 0.929 . S
H488 C502 0.931 . S
H489 C504 0.930 . S
C490 H478 0.933 . S
C490 C491 1.399 . S
C490 C495 1.399 . S
C491 C490 1.399 . S
C491 C492 1.376 . S
C492 H479 0.930 . S
C492 C491 1.376 . S
C492 C493 1.388 . S
C493 H480 0.930 1_565 S
C493 C492 1.388 . S
C493 C494 1.390 . S
C494 C493 1.390 . S
C494 C495 1.394 . S
C494 C500 1.465 1_565 S
C495 C490 1.399 . S
C495 C494 1.394 . S
C495 C496 1.516 1_556 S
C496 C495 1.516 1_554 S
C496 C497 1.502 . S
C496 C498 1.561 . S
C496 C499 1.526 1_565 S
C497 H481 0.959 . S
C497 H482 0.959 . S
C497 H483 0.961 . S
C497 C496 1.502 . S
C498 H484 0.960 . S
C498 H485 0.961 . S
C498 H486 0.959 . S
C498 C496 1.561 . S
C499 C496 1.526 1_545 S
C499 C500 1.396 1_554 S
C499 C504 1.390 . S
C500 C494 1.465 1_545 S
C500 C499 1.396 1_556 S
C500 C501 1.399 . S
C501 H487 0.929 . S
C501 C500 1.399 . S
C501 C502 1.385 1_556 S
C502 H488 0.931 . S
C502 C501 1.385 1_554 S
C502 C503 1.389 . S
C503 C502 1.389 . S
C503 C504 1.387 . S
C504 H489 0.930 . S
C504 C499 1.390 . S
C504 C503 1.387 . S
H505 C517 0.930 . S
H506 C519 0.930 . S
H507 C520 0.930 . S
H508 C524 0.951 1_545 S
H509 C524 0.959 . S
H510 C524 0.961 1_545 S
H511 C525 0.960 . S
H512 C525 0.961 . S
H513 C525 0.959 . S
H514 C528 0.929 . S
H515 C529 0.931 . S
H516 C531 0.930 . S
C517 H505 0.930 . S
C517 C518 1.399 . S
C517 C522 1.399 . S
C518 C517 1.399 . S
C518 C519 1.376 . S
C519 H506 0.930 . S
C519 C518 1.376 . S
C519 C520 1.388 . S
C520 H507 0.930 . S
C520 C519 1.388 . S
C520 C521 1.390 . S
C521 C520 1.390 . S
C521 C522 1.394 . S
C521 C527 1.465 1_545 S
C522 C517 1.399 . S
C522 C521 1.394 . S
C522 C523 1.516 1_545 S
C523 C522 1.516 1_565 S
C523 C524 1.502 . S
C523 C525 1.561 . S
C523 C526 1.526 . S
C524 H508 0.951 1_565 S
C524 H509 0.959 . S
C524 H510 0.961 1_565 S
C524 C523 1.502 . S
C525 H511 0.960 . S
C525 H512 0.961 . S
C525 H513 0.959 . S
C525 C523 1.561 . S
C526 C523 1.526 . S
C526 C527 1.396 . S
C526 C531 1.390 . S
C527 C521 1.465 1_565 S
C527 C526 1.396 . S
C527 C528 1.399 . S
C528 H514 0.929 . S
C528 C527 1.399 . S
C528 C529 1.385 . S
C529 H515 0.931 . S
C529 C528 1.385 . S
C529 C530 1.389 . S
C530 C529 1.389 . S
C530 C531 1.387 . S
C531 H516 0.930 . S
C531 C526 1.390 . S
C531 C530 1.387 . S
H532 C544 0.930 . S
H533 C546 0.930 . S
H534 C547 0.930 . S
H535 C551 0.959 . S
H536 C551 0.959 . S
H537 C551 0.961 . S
H538 C552 0.960 . S
H539 C552 0.961 . S
H540 C552 0.959 . S
H541 C555 0.929 . S
H542 C556 0.931 . S
H543 C558 0.930 . S
C544 H532 0.930 . S
C544 C545 1.399 . S
C544 C549 1.399 . S
C545 C544 1.399 . S
C545 C546 1.376 1_556 S
C546 H533 0.930 . S
C546 C545 1.376 1_554 S
C546 C547 1.388 . S
C547 H534 0.930 . S
C547 C546 1.388 . S
C547 C548 1.390 . S
C548 C547 1.390 . S
C548 C549 1.394 1_554 S
C548 C554 1.465 . S
C549 C544 1.399 . S
C549 C548 1.394 1_556 S
C549 C550 1.516 . S
C550 C549 1.516 . S
C550 C551 1.502 . S
C550 C552 1.561 . S
C550 C553 1.526 . S
C551 H535 0.959 . S
C551 H536 0.959 . S
C551 H537 0.961 . S
C551 C550 1.502 . S
C552 H538 0.960 . S
C552 H539 0.961 . S
C552 H540 0.959 . S
C552 C550 1.561 . S
C553 C550 1.526 . S
C553 C554 1.396 1_556 S
C553 C558 1.390 . S
C554 C548 1.465 . S
C554 C553 1.396 1_554 S
C554 C555 1.399 . S
C555 H541 0.929 . S
C555 C554 1.399 . S
C555 C556 1.385 . S
C556 H542 0.931 . S
C556 C555 1.385 . S
C556 C557 1.389 . S
C557 C556 1.389 . S
C557 C558 1.387 1_554 S
C558 H543 0.930 . S
C558 C553 1.390 . S
C558 C557 1.387 1_556 S
H559 C571 0.930 . S
H560 C573 0.930 . S
H561 C574 0.930 . S
H562 C578 0.959 . S
H563 C578 0.959 . S
H564 C578 0.961 . S
H565 C579 0.960 . S
H566 C579 0.961 . S
H567 C579 0.959 . S
H568 C582 0.929 . S
H569 C583 0.931 . S
H570 C585 0.930 . S
C571 H559 0.930 . S
C571 C572 1.399 . S
C571 C576 1.399 . S
C572 C571 1.399 . S
C572 C573 1.376 . S
C573 H560 0.930 . S
C573 C572 1.376 . S
C573 C574 1.388 . S
C574 H561 0.930 . S
C574 C573 1.388 . S
C574 C575 1.390 . S
C575 C574 1.390 . S
C575 C576 1.394 . S
C575 C581 1.465 . S
C576 C571 1.399 . S
C576 C575 1.394 . S
C576 C577 1.516 . S
C577 C576 1.516 . S
C577 C578 1.502 . S
C577 C579 1.561 . S
C577 C580 1.526 . S
C578 H562 0.959 . S
C578 H563 0.959 . S
C578 H564 0.961 . S
C578 C577 1.502 . S
C579 H565 0.960 . S
C579 H566 0.961 . S
C579 H567 0.959 . S
C579 C577 1.561 . S
C580 C577 1.526 . S
C580 C581 1.396 . S
C580 C585 1.390 . S
C581 C575 1.465 . S
C581 C580 1.396 . S
C581 C582 1.399 . S
C582 H568 0.929 . S
C582 C581 1.399 . S
C582 C583 1.385 . S
C583 H569 0.931 . S
C583 C582 1.385 . S
C583 C584 1.389 . S
C584 C583 1.389 . S
C584 C585 1.387 . S
C585 H570 0.930 . S
C585 C580 1.390 . S
C585 C584 1.387 . S
H586 C598 0.930 . S
H587 C600 0.930 . S
H588 C601 0.930 . S
H589 C605 0.959 . S
H590 C605 0.959 . S
H591 C605 0.961 . S
H592 C606 0.960 . S
H593 C606 0.961 . S
H594 C606 0.959 . S
H595 C609 0.929 . S
H596 C610 0.931 . S
H597 C612 0.930 . S
C598 H586 0.930 . S
C598 C599 1.399 . S
C598 C603 1.399 . S
C599 C598 1.399 . S
C599 C600 1.376 . S
C600 H587 0.930 . S
C600 C599 1.376 . S
C600 C601 1.388 . S
C601 H588 0.930 . S
C601 C600 1.388 . S
C601 C602 1.390 . S
C602 C601 1.390 . S
C602 C603 1.394 . S
C602 C608 1.465 . S
C603 C598 1.399 . S
C603 C602 1.394 . S
C603 C604 1.516 1_554 S
C604 C603 1.516 1_556 S
C604 C605 1.502 . S
C604 C606 1.561 . S
C604 C607 1.526 . S
C605 H589 0.959 . S
C605 H590 0.959 . S
C605 H591 0.961 . S
C605 C604 1.502 . S
C606 H592 0.960 . S
C606 H593 0.961 . S
C606 H594 0.959 . S
C606 C604 1.561 . S
C607 C604 1.526 . S
C607 C608 1.396 1_556 S
C607 C612 1.390 . S
C608 C602 1.465 . S
C608 C607 1.396 1_554 S
C608 C609 1.399 . S
C609 H595 0.929 . S
C609 C608 1.399 . S
C609 C610 1.385 1_554 S
C610 H596 0.931 . S
C610 C609 1.385 1_556 S
C610 C611 1.389 . S
C611 C610 1.389 . S
C611 C612 1.387 . S
C612 H597 0.930 . S
C612 C607 1.390 . S
C612 C611 1.387 . S
H613 C625 0.930 . S
H614 C627 0.930 . S
H615 C628 0.930 . S
H616 C632 0.959 . S
H617 C632 0.959 . S
H618 C632 0.961 . S
H619 C633 0.960 . S
H620 C633 0.961 . S
H621 C633 0.959 . S
H622 C636 0.929 . S
H623 C637 0.931 . S
H624 C639 0.930 . S
C625 H613 0.930 . S
C625 C626 1.399 . S
C625 C630 1.399 . S
C626 C625 1.399 . S
C626 C627 1.376 . S
C627 H614 0.930 . S
C627 C626 1.376 . S
C627 C628 1.388 . S
C628 H615 0.930 . S
C628 C627 1.388 . S
C628 C629 1.390 . S
C629 C628 1.390 . S
C629 C630 1.394 . S
C629 C635 1.465 . S
C630 C625 1.399 . S
C630 C629 1.394 . S
C630 C631 1.516 . S
C631 C630 1.516 . S
C631 C632 1.502 . S
C631 C633 1.561 . S
C631 C634 1.526 . S
C632 H616 0.959 . S
C632 H617 0.959 . S
C632 H618 0.961 . S
C632 C631 1.502 . S
C633 H619 0.960 . S
C633 H620 0.961 . S
C633 H621 0.959 . S
C633 C631 1.561 . S
C634 C631 1.526 . S
C634 C635 1.396 . S
C634 C639 1.390 . S
C635 C629 1.465 . S
C635 C634 1.396 . S
C635 C636 1.399 . S
C636 H622 0.929 . S
C636 C635 1.399 . S
C636 C637 1.385 . S
C637 H623 0.931 . S
C637 C636 1.385 . S
C637 C638 1.389 . S
C638 C637 1.389 . S
C638 C639 1.387 . S
C639 H624 0.930 . S
C639 C634 1.390 . S
C639 C638 1.387 . S
H640 C652 0.930 . S
H641 C654 0.930 . S
H642 C655 0.930 . S
H643 C659 0.959 . S
H644 C659 0.959 . S
H645 C659 0.961 . S
H646 C660 0.960 . S
H647 C660 0.961 . S
H648 C660 0.959 . S
H649 C663 0.929 . S
H650 C664 0.931 . S
H651 C666 0.930 . S
C652 H640 0.930 . S
C652 C653 1.399 . S
C652 C657 1.399 . S
C653 C652 1.399 . S
C653 C654 1.376 . S
C654 H641 0.930 . S
C654 C653 1.376 . S
C654 C655 1.388 . S
C655 H642 0.930 . S
C655 C654 1.388 . S
C655 C656 1.390 . S
C656 C655 1.390 . S
C656 C657 1.394 . S
C656 C662 1.465 . S
C657 C652 1.399 . S
C657 C656 1.394 . S
C657 C658 1.516 . S
C658 C657 1.516 . S
C658 C659 1.502 . S
C658 C660 1.561 . S
C658 C661 1.526 . S
C659 H643 0.959 . S
C659 H644 0.959 . S
C659 H645 0.961 . S
C659 C658 1.502 . S
C660 H646 0.960 . S
C660 H647 0.961 . S
C660 H648 0.959 . S
C660 C658 1.561 . S
C661 C658 1.526 . S
C661 C662 1.396 . S
C661 C666 1.390 . S
C662 C656 1.465 . S
C662 C661 1.396 . S
C662 C663 1.399 . S
C663 H649 0.929 . S
C663 C662 1.399 . S
C663 C664 1.385 . S
C664 H650 0.931 . S
C664 C663 1.385 . S
C664 C665 1.389 . S
C665 C664 1.389 . S
C665 C666 1.387 . S
C666 H651 0.930 . S
C666 C661 1.390 . S
C666 C665 1.387 . S
H667 C679 0.930 . S
H668 C681 0.930 . S
H669 C682 0.930 . S
H670 C686 0.959 . S
H671 C686 0.959 . S
H672 C686 0.961 1_655 S
H673 C687 0.960 1_655 S
H674 C687 0.961 . S
H675 C687 0.959 . S
H676 C690 0.929 . S
H677 C691 0.931 . S
H678 C693 0.930 . S
C679 H667 0.930 . S
C679 C680 1.399 . S
C679 C684 1.399 . S
C680 C679 1.399 . S
C680 C681 1.376 . S
C681 H668 0.930 . S
C681 C680 1.376 . S
C681 C682 1.388 . S
C682 H669 0.930 . S
C682 C681 1.388 . S
C682 C683 1.411 . S
C683 C682 1.411 . S
C683 C684 1.405 . S
C683 C689 1.433 1_655 S
C684 C679 1.399 . S
C684 C683 1.405 . S
C684 C685 1.516 1_655 S
C685 C684 1.516 1_455 S
C685 C686 1.502 . S
C685 C687 1.561 . S
C685 C688 1.526 . S
C686 H670 0.959 . S
C686 H671 0.959 . S
C686 H672 0.961 1_455 S
C686 C685 1.502 . S
C687 H673 0.960 1_455 S
C687 H674 0.961 . S
C687 H675 0.959 . S
C687 C685 1.561 . S
C688 C685 1.526 . S
C688 C689 1.396 . S
C688 C693 1.390 . S
C689 C683 1.433 1_455 S
C689 C688 1.396 . S
C689 C690 1.399 . S
C690 H676 0.929 . S
C690 C689 1.399 . S
C690 C691 1.385 . S
C691 H677 0.931 . S
C691 C690 1.385 . S
C691 C692 1.389 . S
C692 C691 1.389 . S
C692 C693 1.387 . S
C693 H678 0.930 . S
C693 C688 1.390 . S
C693 C692 1.387 . S
H694 C706 0.930 . S
H695 C708 0.930 . S
H696 C709 0.930 . S
H697 C713 0.959 . S
H698 C713 0.959 . S
H699 C713 0.961 . S
H700 C714 0.960 . S
H701 C714 0.961 . S
H702 C714 0.959 . S
H703 C717 0.929 . S
H704 C718 0.931 . S
H705 C720 0.930 . S
C706 H694 0.930 . S
C706 C707 1.399 . S
C706 C711 1.399 . S
C707 C706 1.399 . S
C707 C708 1.376 . S
C708 H695 0.930 . S
C708 C707 1.376 . S
C708 C709 1.388 . S
C709 H696 0.930 . S
C709 C708 1.388 . S
C709 C710 1.390 . S
C710 C709 1.390 . S
C710 C711 1.394 . S
C710 C716 1.465 . S
C711 C706 1.399 . S
C711 C710 1.394 . S
C711 C712 1.516 . S
C712 C711 1.516 . S
C712 C713 1.502 . S
C712 C714 1.561 . S
C712 C715 1.526 . S
C713 H697 0.959 . S
C713 H698 0.959 . S
C713 H699 0.961 . S
C713 C712 1.502 . S
C714 H700 0.960 . S
C714 H701 0.961 . S
C714 H702 0.959 . S
C714 C712 1.561 . S
C715 C712 1.526 . S
C715 C716 1.396 . S
C715 C720 1.390 . S
C716 C710 1.465 . S
C716 C715 1.396 . S
C716 C717 1.399 . S
C717 H703 0.929 . S
C717 C716 1.399 . S
C717 C718 1.385 . S
C718 H704 0.931 . S
C718 C717 1.385 . S
C718 C719 1.389 . S
C719 C718 1.389 . S
C719 C720 1.387 . S
C720 H705 0.930 . S
C720 C715 1.390 . S
C720 C719 1.387 . S
H721 C733 0.930 . S
H722 C735 0.930 . S
H723 C736 0.930 . S
H724 C740 0.959 . S
H725 C740 0.959 1_655 S
H726 C740 0.961 . S
H727 C741 0.960 . S
H728 C741 0.961 1_655 S
H729 C741 0.959 . S
H730 C744 0.929 . S
H731 C745 0.931 . S
H732 C747 0.930 . S
C733 H721 0.930 . S
C733 C734 1.399 . S
C733 C738 1.399 . S
C734 C733 1.399 . S
C734 C735 1.376 . S
C735 H722 0.930 . S
C735 C734 1.376 . S
C735 C736 1.388 . S
C736 H723 0.930 . S
C736 C735 1.388 . S
C736 C737 1.390 . S
C737 C736 1.390 . S
C737 C738 1.394 . S
C737 C743 1.458 1_455 S
C738 C733 1.399 . S
C738 C737 1.394 . S
C738 C739 1.516 . S
C739 C738 1.516 . S
C739 C740 1.502 . S
C739 C741 1.561 . S
C739 C742 1.526 1_455 S
C740 H724 0.959 . S
C740 H725 0.959 1_455 S
C740 H726 0.961 . S
C740 C739 1.502 . S
C741 H727 0.960 . S
C741 H728 0.961 1_455 S
C741 H729 0.959 . S
C741 C739 1.561 . S
C742 C739 1.526 1_655 S
C742 C743 1.399 . S
C742 C747 1.390 . S
C743 C737 1.458 1_655 S
C743 C742 1.399 . S
C743 C744 1.403 . S
C744 H730 0.929 . S
C744 C743 1.403 . S
C744 C745 1.385 . S
C745 H731 0.931 . S
C745 C744 1.385 . S
C745 C746 1.389 . S
C746 C745 1.389 . S
C746 C747 1.387 . S
C747 H732 0.930 . S
C747 C742 1.390 . S
C747 C746 1.387 . S
H748 C760 0.930 . S
H749 C762 0.930 . S
H750 C763 0.930 . S
H751 C767 0.959 . S
H752 C767 0.959 . S
H753 C767 0.961 . S
H754 C768 0.938 1_456 S
H755 C768 0.944 1_556 S
H756 C768 0.959 . S
H757 C771 0.929 . S
H758 C772 0.931 . S
H759 C774 0.930 . S
C760 H748 0.930 . S
C760 C761 1.399 . S
C760 C765 1.399 . S
C761 C760 1.399 . S
C761 C762 1.376 . S
C762 H749 0.930 . S
C762 C761 1.376 . S
C762 C763 1.388 . S
C763 H750 0.930 . S
C763 C762 1.388 . S
C763 C764 1.390 . S
C764 C763 1.390 . S
C764 C765 1.394 . S
C764 C770 1.465 1_455 S
C765 C760 1.399 . S
C765 C764 1.394 . S
C765 C766 1.516 1_455 S
C766 C765 1.516 1_655 S
C766 C767 1.502 . S
C766 C768 1.561 . S
C766 C769 1.526 . S
C767 H751 0.959 . S
C767 H752 0.959 . S
C767 H753 0.961 . S
C767 C766 1.502 . S
C768 H754 0.938 1_654 S
C768 H755 0.944 1_554 S
C768 H756 0.959 . S
C768 C766 1.561 . S
C769 C766 1.526 . S
C769 C770 1.396 . S
C769 C774 1.390 . S
C770 C764 1.465 1_655 S
C770 C769 1.396 . S
C770 C771 1.399 . S
C771 H757 0.929 . S
C771 C770 1.399 . S
C771 C772 1.385 . S
C772 H758 0.931 . S
C772 C771 1.385 . S
C772 C773 1.389 . S
C773 C772 1.389 . S
C773 C774 1.387 . S
C774 H759 0.930 . S
C774 C769 1.390 . S
C774 C773 1.387 . S
H775 C787 0.930 . S
H776 C789 0.930 . S
H777 C790 0.930 . S
H778 C794 0.959 . S
H779 C794 0.959 . S
H780 C794 0.961 . S
H781 C795 0.960 . S
H782 C795 0.961 . S
H783 C795 0.959 . S
H784 C798 0.929 . S
H785 C799 0.931 . S
H786 C801 0.930 . S
C787 H775 0.930 . S
C787 C788 1.399 . S
C787 C792 1.399 . S
C788 C787 1.399 . S
C788 C789 1.376 . S
C789 H776 0.930 . S
C789 C788 1.376 . S
C789 C790 1.388 . S
C790 H777 0.930 . S
C790 C789 1.388 . S
C790 C791 1.390 . S
C791 C790 1.390 . S
C791 C792 1.394 . S
C791 C797 1.465 . S
C792 C787 1.399 . S
C792 C791 1.394 . S
C792 C793 1.516 . S
C793 C792 1.516 . S
C793 C794 1.502 . S
C793 C795 1.561 . S
C793 C796 1.526 . S
C794 H778 0.959 . S
C794 H779 0.959 . S
C794 H780 0.961 . S
C794 C793 1.502 . S
C795 H781 0.960 . S
C795 H782 0.961 . S
C795 H783 0.959 . S
C795 C793 1.561 . S
C796 C793 1.526 . S
C796 C797 1.396 . S
C796 C801 1.390 . S
C797 C791 1.465 . S
C797 C796 1.396 . S
C797 C798 1.399 . S
C798 H784 0.929 . S
C798 C797 1.399 . S
C798 C799 1.385 . S
C799 H785 0.931 . S
C799 C798 1.385 . S
C799 C800 1.389 . S
C800 C799 1.389 . S
C800 C801 1.387 . S
C801 H786 0.930 . S
C801 C796 1.390 . S
C801 C800 1.387 . S
H802 C814 0.930 . S
H803 C816 0.930 . S
H804 C817 0.930 . S
H805 C821 0.959 . S
H806 C821 0.968 . S
H807 C821 0.941 1_455 S
H808 C822 0.960 1_455 S
H809 C822 0.961 . S
H810 C822 0.959 . S
H811 C825 0.929 . S
H812 C826 0.931 . S
H813 C828 0.930 . S
C814 H802 0.930 . S
C814 C815 1.399 . S
C814 C819 1.399 . S
C815 C814 1.399 . S
C815 C816 1.376 . S
C816 H803 0.930 . S
C816 C815 1.376 . S
C816 C817 1.388 . S
C817 H804 0.930 . S
C817 C816 1.388 . S
C817 C818 1.390 . S
C818 C817 1.390 . S
C818 C819 1.394 . S
C818 C824 1.465 1_455 S
C819 C814 1.399 . S
C819 C818 1.394 . S
C819 C820 1.516 1_455 S
C820 C819 1.516 1_655 S
C820 C821 1.502 . S
C820 C822 1.561 . S
C820 C823 1.526 . S
C821 H805 0.959 . S
C821 H806 0.968 . S
C821 H807 0.941 1_655 S
C821 C820 1.502 . S
C822 H808 0.960 1_655 S
C822 H809 0.961 . S
C822 H810 0.959 . S
C822 C820 1.561 . S
C823 C820 1.526 . S
C823 C824 1.396 . S
C823 C828 1.390 . S
C824 C818 1.465 1_655 S
C824 C823 1.396 . S
C824 C825 1.399 . S
C825 H811 0.929 . S
C825 C824 1.399 . S
C825 C826 1.385 . S
C826 H812 0.931 . S
C826 C825 1.385 . S
C826 C827 1.389 . S
C827 C826 1.389 . S
C827 C828 1.387 . S
C828 H813 0.930 . S
C828 C823 1.390 . S
C828 C827 1.387 . S
H829 C841 0.930 . S
H830 C843 0.930 . S
H831 C844 0.930 . S
H832 C848 0.959 . S
H833 C848 0.959 . S
H834 C848 0.961 . S
H835 C849 0.960 . S
H836 C849 0.961 . S
H837 C849 0.959 . S
H838 C852 0.929 . S
H839 C853 0.931 . S
H840 C855 0.930 . S
C841 H829 0.930 . S
C841 C842 1.399 . S
C841 C846 1.399 . S
C842 C841 1.399 . S
C842 C843 1.376 . S
C843 H830 0.930 . S
C843 C842 1.376 . S
C843 C844 1.388 . S
C844 H831 0.930 . S
C844 C843 1.388 . S
C844 C845 1.390 . S
C845 C844 1.390 . S
C845 C846 1.394 . S
C845 C851 1.465 . S
C846 C841 1.399 . S
C846 C845 1.394 . S
C846 C847 1.516 . S
C847 C846 1.516 . S
C847 C848 1.502 . S
C847 C849 1.561 . S
C847 C850 1.526 . S
C848 H832 0.959 . S
C848 H833 0.959 . S
C848 H834 0.961 . S
C848 C847 1.502 . S
C849 H835 0.960 . S
C849 H836 0.961 . S
C849 H837 0.959 . S
C849 C847 1.561 . S
C850 C847 1.526 . S
C850 C851 1.396 . S
C850 C855 1.390 . S
C851 C845 1.465 . S
C851 C850 1.396 . S
C851 C852 1.399 . S
C852 H838 0.929 . S
C852 C851 1.399 . S
C852 C853 1.385 . S
C853 H839 0.931 . S
C853 C852 1.385 . S
C853 C854 1.389 . S
C854 C853 1.389 . S
C854 C855 1.387 . S
C855 H840 0.930 . S
C855 C850 1.390 . S
C855 C854 1.387 . S
H856 C868 0.930 . S
H857 C870 0.930 . S
H858 C871 0.930 . S
H859 C875 0.959 . S
H860 C875 0.959 . S
H861 C875 0.961 . S
H862 C876 0.960 . S
H863 C876 0.961 . S
H864 C876 0.959 . S
H865 C879 0.929 . S
H866 C880 0.931 . S
H867 C882 0.930 . S
C868 H856 0.930 . S
C868 C869 1.399 . S
C868 C873 1.399 . S
C869 C868 1.399 . S
C869 C870 1.376 . S
C870 H857 0.930 . S
C870 C869 1.376 . S
C870 C871 1.388 . S
C871 H858 0.930 . S
C871 C870 1.388 . S
C871 C872 1.390 . S
C872 C871 1.390 . S
C872 C873 1.394 . S
C872 C878 1.465 . S
C873 C868 1.399 . S
C873 C872 1.394 . S
C873 C874 1.516 . S
C874 C873 1.516 . S
C874 C875 1.502 . S
C874 C876 1.561 . S
C874 C877 1.526 . S
C875 H859 0.959 . S
C875 H860 0.959 . S
C875 H861 0.961 . S
C875 C874 1.502 . S
C876 H862 0.960 . S
C876 H863 0.961 . S
C876 H864 0.959 . S
C876 C874 1.561 . S
C877 C874 1.526 . S
C877 C878 1.396 . S
C877 C882 1.390 . S
C878 C872 1.465 . S
C878 C877 1.396 . S
C878 C879 1.399 . S
C879 H865 0.929 . S
C879 C878 1.399 . S
C879 C880 1.385 . S
C880 H866 0.931 . S
C880 C879 1.385 . S
C880 C881 1.389 . S
C881 C880 1.389 . S
C881 C882 1.387 . S
C882 H867 0.930 . S
C882 C877 1.390 . S
C882 C881 1.387 . S
H883 C895 0.930 . S
H884 C897 0.930 . S
H885 C898 0.930 . S
H886 C902 0.959 . S
H887 C902 0.959 . S
H888 C902 0.961 . S
H889 C903 0.960 . S
H890 C903 0.961 . S
H891 C903 0.959 . S
H892 C906 0.929 . S
H893 C907 0.931 . S
H894 C909 0.930 . S
C895 H883 0.930 . S
C895 C896 1.399 . S
C895 C900 1.399 . S
C896 C895 1.399 . S
C896 C897 1.376 . S
C897 H884 0.930 . S
C897 C896 1.376 . S
C897 C898 1.388 . S
C898 H885 0.930 . S
C898 C897 1.388 . S
C898 C899 1.390 . S
C899 C898 1.390 . S
C899 C900 1.394 . S
C899 C905 1.465 . S
C900 C895 1.399 . S
C900 C899 1.394 . S
C900 C901 1.516 . S
C901 C900 1.516 . S
C901 C902 1.502 . S
C901 C903 1.561 . S
C901 C904 1.526 . S
C902 H886 0.959 . S
C902 H887 0.959 . S
C902 H888 0.961 . S
C902 C901 1.502 . S
C903 H889 0.960 . S
C903 H890 0.961 . S
C903 H891 0.959 . S
C903 C901 1.561 . S
C904 C901 1.526 . S
C904 C905 1.396 . S
C904 C909 1.390 . S
C905 C899 1.465 . S
C905 C904 1.396 . S
C905 C906 1.399 . S
C906 H892 0.929 . S
C906 C905 1.399 . S
C906 C907 1.385 . S
C907 H893 0.931 . S
C907 C906 1.385 . S
C907 C908 1.389 . S
C908 C907 1.389 . S
C908 C909 1.387 . S
C909 H894 0.930 . S
C909 C904 1.390 . S
C909 C908 1.387 . S
H910 C922 0.930 . S
H911 C924 0.930 . S
H912 C925 0.930 . S
H913 C929 0.959 . S
H914 C929 0.959 . S
H915 C929 0.961 . S
H916 C930 0.960 . S
H917 C930 0.961 . S
H918 C930 0.959 . S
H919 C933 0.929 . S
H920 C934 0.931 . S
H921 C936 0.930 . S
C922 H910 0.930 . S
C922 C923 1.399 . S
C922 C927 1.399 . S
C923 C922 1.399 . S
C923 C924 1.376 . S
C924 H911 0.930 . S
C924 C923 1.376 . S
C924 C925 1.388 . S
C925 H912 0.930 . S
C925 C924 1.388 . S
C925 C926 1.390 . S
C926 C925 1.390 . S
C926 C927 1.394 . S
C926 C932 1.465 . S
C927 C922 1.399 . S
C927 C926 1.394 . S
C927 C928 1.516 . S
C928 C927 1.516 . S
C928 C929 1.502 . S
C928 C930 1.561 . S
C928 C931 1.526 . S
C929 H913 0.959 . S
C929 H914 0.959 . S
C929 H915 0.961 . S
C929 C928 1.502 . S
C930 H916 0.960 . S
C930 H917 0.961 . S
C930 H918 0.959 . S
C930 C928 1.561 . S
C931 C928 1.526 . S
C931 C932 1.396 . S
C931 C936 1.390 . S
C932 C926 1.465 . S
C932 C931 1.396 . S
C932 C933 1.399 . S
C933 H919 0.929 . S
C933 C932 1.399 . S
C933 C934 1.385 . S
C934 H920 0.931 . S
C934 C933 1.385 . S
C934 C935 1.389 . S
C935 C934 1.389 . S
C935 C936 1.387 . S
C936 H921 0.930 . S
C936 C931 1.390 . S
C936 C935 1.387 . S
H937 C949 0.930 . S
H938 C951 0.930 . S
H939 C952 0.930 . S
H940 C956 0.959 . S
H941 C956 0.959 . S
H942 C956 0.961 . S
H943 C957 0.960 . S
H944 C957 0.961 . S
H945 C957 0.959 . S
H946 C960 0.929 . S
H947 C961 0.931 . S
H948 C963 0.930 . S
C949 H937 0.930 . S
C949 C950 1.399 . S
C949 C954 1.399 . S
C950 C949 1.399 . S
C950 C951 1.376 . S
C951 H938 0.930 . S
C951 C950 1.376 . S
C951 C952 1.388 . S
C952 H939 0.930 . S
C952 C951 1.388 . S
C952 C953 1.390 . S
C953 C952 1.390 . S
C953 C954 1.394 . S
C953 C959 1.465 . S
C954 C949 1.399 . S
C954 C953 1.394 . S
C954 C955 1.516 . S
C955 C954 1.516 . S
C955 C956 1.502 . S
C955 C957 1.561 . S
C955 C958 1.526 . S
C956 H940 0.959 . S
C956 H941 0.959 . S
C956 H942 0.961 . S
C956 C955 1.502 . S
C957 H943 0.960 . S
C957 H944 0.961 . S
C957 H945 0.959 . S
C957 C955 1.561 . S
C958 C955 1.526 . S
C958 C959 1.396 . S
C958 C963 1.390 . S
C959 C953 1.465 . S
C959 C958 1.396 . S
C959 C960 1.399 . S
C960 H946 0.929 . S
C960 C959 1.399 . S
C960 C961 1.385 . S
C961 H947 0.931 . S
C961 C960 1.385 . S
C961 C962 1.389 . S
C962 C961 1.389 . S
C962 C963 1.387 . S
C963 H948 0.930 . S
C963 C958 1.390 . S
C963 C962 1.387 . S
H964 C976 0.930 . S
H965 C978 0.930 . S
H966 C979 0.930 . S
H967 C983 0.959 . S
H968 C983 0.959 . S
H969 C983 0.961 . S
H970 C984 0.960 . S
H971 C984 0.961 . S
H972 C984 0.959 . S
H973 C987 0.929 . S
H974 C988 0.931 . S
H975 C990 0.930 . S
C976 H964 0.930 . S
C976 C977 1.399 . S
C976 C981 1.399 . S
C977 C976 1.399 . S
C977 C978 1.376 . S
C978 H965 0.930 . S
C978 C977 1.376 . S
C978 C979 1.388 . S
C979 H966 0.930 . S
C979 C978 1.388 . S
C979 C980 1.390 . S
C980 C979 1.390 . S
C980 C981 1.394 . S
C980 C986 1.465 . S
C981 C976 1.399 . S
C981 C980 1.394 . S
C981 C982 1.516 . S
C982 C981 1.516 . S
C982 C983 1.502 . S
C982 C984 1.561 . S
C982 C985 1.526 . S
C983 H967 0.959 . S
C983 H968 0.959 . S
C983 H969 0.961 . S
C983 C982 1.502 . S
C984 H970 0.960 . S
C984 H971 0.961 . S
C984 H972 0.959 . S
C984 C982 1.561 . S
C985 C982 1.526 . S
C985 C986 1.396 . S
C985 C990 1.390 . S
C986 C980 1.465 . S
C986 C985 1.396 . S
C986 C987 1.399 . S
C987 H973 0.929 . S
C987 C986 1.399 . S
C987 C988 1.385 . S
C988 H974 0.931 . S
C988 C987 1.385 . S
C988 C989 1.389 . S
C989 C988 1.389 . S
C989 C990 1.387 . S
C990 H975 0.930 . S
C990 C985 1.390 . S
C990 C989 1.387 . S
H991 C1003 0.930 . S
H992 C1005 0.930 . S
H993 C1006 0.930 . S
H994 C1010 0.959 . S
H995 C1010 0.959 . S
H996 C1010 0.961 . S
H997 C1011 0.960 . S
H998 C1011 0.961 . S
H999 C1011 0.959 . S
H1000 C1014 0.929 . S
H1001 C1015 0.931 . S
H1002 C1017 0.930 . S
C1003 H991 0.930 . S
C1003 C1004 1.399 . S
C1003 C1008 1.399 . S
C1004 C1003 1.399 . S
C1004 C1005 1.376 . S
C1005 H992 0.930 . S
C1005 C1004 1.376 . S
C1005 C1006 1.388 . S
C1006 H993 0.930 . S
C1006 C1005 1.388 . S
C1006 C1007 1.390 . S
C1007 C1006 1.390 . S
C1007 C1008 1.394 . S
C1007 C1013 1.465 . S
C1008 C1003 1.399 . S
C1008 C1007 1.394 . S
C1008 C1009 1.516 . S
C1009 C1008 1.516 . S
C1009 C1010 1.502 . S
C1009 C1011 1.561 . S
C1009 C1012 1.526 . S
C1010 H994 0.959 . S
C1010 H995 0.959 . S
C1010 H996 0.961 . S
C1010 C1009 1.502 . S
C1011 H997 0.960 . S
C1011 H998 0.961 . S
C1011 H999 0.959 . S
C1011 C1009 1.561 . S
C1012 C1009 1.526 . S
C1012 C1013 1.396 . S
C1012 C1017 1.390 . S
C1013 C1007 1.465 . S
C1013 C1012 1.396 . S
C1013 C1014 1.399 . S
C1014 H1000 0.929 . S
C1014 C1013 1.399 . S
C1014 C1015 1.385 . S
C1015 H1001 0.931 . S
C1015 C1014 1.385 . S
C1015 C1016 1.389 . S
C1016 C1015 1.389 . S
C1016 C1017 1.387 . S
C1017 H1002 0.930 . S
C1017 C1012 1.390 . S
C1017 C1016 1.387 . S
H1018 C1030 0.930 . S
H1019 C1032 0.930 . S
H1020 C1033 0.930 . S
H1021 C1037 0.959 . S
H1022 C1037 0.959 . S
H1023 C1037 0.961 . S
H1024 C1038 0.960 . S
H1025 C1038 0.961 . S
H1026 C1038 0.959 . S
H1027 C1041 0.929 . S
H1028 C1042 0.931 . S
H1029 C1044 0.930 . S
C1030 H1018 0.930 . S
C1030 C1031 1.399 . S
C1030 C1035 1.399 . S
C1031 C1030 1.399 . S
C1031 C1032 1.376 . S
C1032 H1019 0.930 . S
C1032 C1031 1.376 . S
C1032 C1033 1.388 . S
C1033 H1020 0.930 . S
C1033 C1032 1.388 . S
C1033 C1034 1.390 . S
C1034 C1033 1.390 . S
C1034 C1035 1.394 . S
C1034 C1040 1.465 . S
C1035 C1030 1.399 . S
C1035 C1034 1.394 . S
C1035 C1036 1.516 . S
C1036 C1035 1.516 . S
C1036 C1037 1.502 . S
C1036 C1038 1.561 . S
C1036 C1039 1.526 . S
C1037 H1021 0.959 . S
C1037 H1022 0.959 . S
C1037 H1023 0.961 . S
C1037 C1036 1.502 . S
C1038 H1024 0.960 . S
C1038 H1025 0.961 . S
C1038 H1026 0.959 . S
C1038 C1036 1.561 . S
C1039 C1036 1.526 . S
C1039 C1040 1.396 . S
C1039 C1044 1.390 . S
C1040 C1034 1.465 . S
C1040 C1039 1.396 . S
C1040 C1041 1.399 . S
C1041 H1027 0.929 . S
C1041 C1040 1.399 . S
C1041 C1042 1.385 . S
C1042 H1028 0.931 . S
C1042 C1041 1.385 . S
C1042 C1043 1.389 . S
C1043 C1042 1.389 . S
C1043 C1044 1.387 . S
C1044 H1029 0.930 . S
C1044 C1039 1.390 . S
C1044 C1043 1.387 . S
H1045 C1057 0.930 . S
H1046 C1059 0.930 . S
H1047 C1060 0.930 . S
H1048 C1064 0.959 . S
H1049 C1064 0.959 . S
H1050 C1064 0.961 . S
H1051 C1065 0.960 . S
H1052 C1065 0.961 . S
H1053 C1065 0.959 . S
H1054 C1068 0.929 . S
H1055 C1069 0.931 . S
H1056 C1071 0.930 . S
C1057 H1045 0.930 . S
C1057 C1058 1.399 . S
C1057 C1062 1.399 . S
C1058 C1057 1.399 . S
C1058 C1059 1.376 . S
C1059 H1046 0.930 . S
C1059 C1058 1.376 . S
C1059 C1060 1.388 . S
C1060 H1047 0.930 . S
C1060 C1059 1.388 . S
C1060 C1061 1.390 . S
C1061 C1060 1.390 . S
C1061 C1062 1.394 . S
C1061 C1067 1.465 . S
C1062 C1057 1.399 . S
C1062 C1061 1.394 . S
C1062 C1063 1.516 . S
C1063 C1062 1.516 . S
C1063 C1064 1.502 . S
C1063 C1065 1.561 . S
C1063 C1066 1.526 . S
C1064 H1048 0.959 . S
C1064 H1049 0.959 . S
C1064 H1050 0.961 . S
C1064 C1063 1.502 . S
C1065 H1051 0.960 . S
C1065 H1052 0.961 . S
C1065 H1053 0.959 . S
C1065 C1063 1.561 . S
C1066 C1063 1.526 . S
C1066 C1067 1.396 . S
C1066 C1071 1.390 . S
C1067 C1061 1.465 . S
C1067 C1066 1.396 . S
C1067 C1068 1.399 . S
C1068 H1054 0.929 . S
C1068 C1067 1.399 . S
C1068 C1069 1.385 . S
C1069 H1055 0.931 . S
C1069 C1068 1.385 . S
C1069 C1070 1.389 . S
C1070 C1069 1.389 . S
C1070 C1071 1.387 . S
C1071 H1056 0.930 . S
C1071 C1066 1.390 . S
C1071 C1070 1.387 . S
C221 C4 1.616 . S
C233 C166 1.615 . S
C248 C173 1.593 . S
C260 C23 1.613 . S
C275 C36 1.625 . S
C287 C192 1.624 . S
C302 C199 1.624 . S
C314 C43 1.622 . S
C329 C108 1.621 . S
C341 C62 1.605 . S
C356 C69 1.625 . S
C368 C121 1.623 . S
C383 C140 1.614 . S
C395 C88 1.611 . S
C410 C101 1.593 . S
C422 C153 1.613 . S
C437 C3 1.596 . S
C449 C31 1.643 . S
C464 C18 1.603 . S
C476 C42 1.641 . S
C491 C55 1.649 . S
C503 C81 1.626 . S
C518 C70 1.640 . S
C530 C94 1.647 . S
C545 C135 1.639 . S
C557 C107 1.596 . S
C572 C120 1.606 . S
C584 C148 1.639 . S
C599 C185 1.643 . S
C611 C159 1.627 . S
C626 C174 1.635 . S
C638 C200 1.650 . S
C653 C83 1.486 . S
C665 C5 1.480 . S
C680 C96 1.492 . S
C692 C16 1.476 . S
C707 C29 1.489 . S
C719 C57 1.476 . S
C734 C44 1.473 . S
C746 C68 1.496 . S
C761 C187 1.470 . S
C773 C109 1.495 . S
C788 C122 1.496 . S
C800 C198 1.471 . S
C815 C161 1.476 . S
C827 C133 1.493 . S
C842 C146 1.487 . S
C854 C172 1.478 . S
C869 C10 1.443 . S
C881 C49 1.455 . S
C896 C30 1.478 . S
C908 C17 1.466 . S
C923 C56 1.726 . S
C935 C95 1.723 . S
C950 C75 1.725 . S
C962 C82 1.731 . S
C977 C147 1.446 . S
C989 C114 1.444 . S
C1004 C127 1.444 . S
C1016 C134 1.458 . S
C1031 C205 1.726 . S
C1043 C160 1.723 . S
C1058 C179 1.727 . S
C1070 C186 1.723 . S
