# Generated by pormake.
# Topology umx, (4)-cn, num edge types: 1
# Building blocks:
#     Node 0, Type 0, BuildingBlock: QUQFOY_clean_sbu_1, # of connection points: 4
#     Node 1, Type 0, BuildingBlock: QUQFOY_clean_sbu_1, # of connection points: 4
#     Node 2, Type 0, BuildingBlock: QUQFOY_clean_sbu_1, # of connection points: 4
#     Node 3, Type 0, BuildingBlock: QUQFOY_clean_sbu_1, # of connection points: 4
#     Node 4, Type 0, BuildingBlock: QUQFOY_clean_sbu_1, # of connection points: 4
#     Node 5, Type 0, BuildingBlock: QUQFOY_clean_sbu_1, # of connection points: 4
#     Node 6, Type 0, BuildingBlock: QUQFOY_clean_sbu_1, # of connection points: 4
#     Node 7, Type 0, BuildingBlock: QUQFOY_clean_sbu_1, # of connection points: 4
#     Edge 8, Type (0, 0), BuildingBlock: KIFKEQ_clean_linker_1, # of connection points: 2
#     Edge 9, Type (0, 0), BuildingBlock: KIFKEQ_clean_linker_1, # of connection points: 2
#     Edge 10, Type (0, 0), BuildingBlock: KIFKEQ_clean_linker_1, # of connection points: 2
#     Edge 11, Type (0, 0), BuildingBlock: KIFKEQ_clean_linker_1, # of connection points: 2
#     Edge 12, Type (0, 0), BuildingBlock: KIFKEQ_clean_linker_1, # of connection points: 2
#     Edge 13, Type (0, 0), BuildingBlock: KIFKEQ_clean_linker_1, # of connection points: 2
#     Edge 14, Type (0, 0), BuildingBlock: KIFKEQ_clean_linker_1, # of connection points: 2
#     Edge 15, Type (0, 0), BuildingBlock: KIFKEQ_clean_linker_1, # of connection points: 2
#     Edge 16, Type (0, 0), BuildingBlock: KIFKEQ_clean_linker_1, # of connection points: 2
#     Edge 17, Type (0, 0), BuildingBlock: KIFKEQ_clean_linker_1, # of connection points: 2
#     Edge 18, Type (0, 0), BuildingBlock: KIFKEQ_clean_linker_1, # of connection points: 2
#     Edge 19, Type (0, 0), BuildingBlock: KIFKEQ_clean_linker_1, # of connection points: 2
#     Edge 20, Type (0, 0), BuildingBlock: KIFKEQ_clean_linker_1, # of connection points: 2
#     Edge 21, Type (0, 0), BuildingBlock: KIFKEQ_clean_linker_1, # of connection points: 2
#     Edge 22, Type (0, 0), BuildingBlock: KIFKEQ_clean_linker_1, # of connection points: 2
#     Edge 23, Type (0, 0), BuildingBlock: KIFKEQ_clean_linker_1, # of connection points: 2
# Relax obj value: 0.070
# Max RMSD: 0.141
# Mean RMSD: 0.140
data_MOF--net-umx--node1-QUQFOY_clean_sbu_1--edge1-KIFKEQ_clean_linker_1
_symmetry_space_group_name_H-M    P1
_symmetry_Int_Tables_number       1
_symmetry_cell_setting            triclinic
loop_
_symmetry_equiv_pos_as_xyz
'x, y, z'
_cell_length_a     41.056001
_cell_length_b     41.096556
_cell_length_c     29.253195
_cell_angle_alpha  89.874317
_cell_angle_beta   90.095982
_cell_angle_gamma 89.95605
loop_
_atom_site_label
_atom_site_type_symbol
_atom_site_fract_x
_atom_site_fract_y
_atom_site_fract_z
_atom_type_partial_charge
O0 O 0.20038 0.45125 0.10793 0.0
Cd1 Cd 0.18327 0.42949 0.04944 0.0
Cd2 Cd 0.2002 0.48766 1.01516 0.0
O3 O 0.22243 0.49534 0.07815 0.0
O4 O 0.1866 0.38197 0.06356 0.0
O5 O 0.2158 0.40623 1.00989 0.0
C6 C 0.2095 0.38036 0.03347 0.0
C7 C 0.225 0.49545 0.94405 0.0
C8 C 0.21685 0.47719 0.11261 0.0
C9 C 0.12835 0.471 0.01828 0.0
O10 O 0.15021 0.49261 1.0133 0.0
O11 O 0.13625 0.44207 0.02954 0.0
O12 O 0.21627 0.51979 0.96902 0.0
O13 O 0.2217 0.46656 0.96096 0.0
O14 O 0.57221 0.1978 0.61257 0.0
Cd15 Cd 0.59247 0.18224 0.5522 0.0
Cd16 Cd 0.53396 0.20088 0.52045 0.0
O17 O 0.52905 0.22274 0.58411 0.0
O18 O 0.64089 0.18637 0.55961 0.0
O19 O 0.61155 0.21743 0.5133 0.0
C20 C 0.63933 0.2109 0.532 0.0
C21 C 0.52538 0.2263 0.44988 0.0
C22 C 0.54718 0.21559 0.61809 0.0
C23 C 0.54934 0.12898 0.52035 0.0
O24 O 0.5278 0.15115 0.51815 0.0
O25 O 0.57878 0.13626 0.52964 0.0
O26 O 0.50124 0.21821 0.47573 0.0
O27 O 0.55447 0.22208 0.46567 0.0
O28 O 0.82532 0.57083 0.11273 0.0
Cd29 Cd 0.84106 0.59088 0.05232 0.0
Cd30 Cd 0.82171 0.53269 0.02059 0.0
O31 O 0.79892 0.52885 0.08387 0.0
O32 O 0.83757 0.63941 0.0596 0.0
O33 O 0.80583 0.61052 1.01395 0.0
C34 C 0.81274 0.63816 0.03246 0.0
C35 C 0.79681 0.52745 0.94904 0.0
C36 C 0.80663 0.54647 0.11801 0.0
C37 C 0.89369 0.5462 0.02121 0.0
O38 O 0.87128 0.52488 0.01964 0.0
O39 O 0.88667 0.57587 0.02937 0.0
O40 O 0.802 0.50226 0.97454 0.0
O41 O 0.80378 0.55568 0.9656 0.0
O42 O 0.45322 0.82497 0.60903 0.0
Cd43 Cd 0.43215 0.84078 0.54918 0.0
Cd44 Cd 0.49043 0.82302 0.5162 0.0
O45 O 0.49665 0.80118 0.5798 0.0
O46 O 0.38387 0.83627 0.55757 0.0
O47 O 0.41278 0.8058 0.51029 0.0
C48 C 0.38521 0.81199 0.52966 0.0
C49 C 0.49846 0.79772 0.44558 0.0
C50 C 0.47872 0.80775 0.61409 0.0
C51 C 0.47432 0.89478 0.51704 0.0
O52 O 0.496 0.87282 0.5138 0.0
O53 O 0.44512 0.88715 0.52714 0.0
O54 O 0.52279 0.80611 0.47093 0.0
O55 O 0.46951 0.80164 0.46186 0.0
O56 O 0.19636 0.57326 0.4431 0.0
Cd57 Cd 0.18157 0.59344 0.50384 0.0
Cd58 Cd 0.20005 0.53486 0.53527 0.0
O59 O 0.22157 0.53015 0.47117 0.0
O60 O 0.1863 0.64176 0.49679 0.0
O61 O 0.21739 0.6118 0.54227 0.0
C62 C 0.21108 0.63973 0.52392 0.0
C63 C 0.22573 0.52559 0.60561 0.0
C64 C 0.21413 0.54826 0.43728 0.0
C65 C 0.12814 0.55082 0.53629 0.0
O66 O 0.1502 0.52913 0.53814 0.0
O67 O 0.13558 0.58019 0.52698 0.0
O68 O 0.21734 0.50173 0.57949 0.0
O69 O 0.22168 0.55479 0.59019 0.0
O70 O 0.45368 0.20011 0.9492 0.0
Cd71 Cd 0.43315 0.18343 1.00913 0.0
Cd72 Cd 0.49165 0.20116 0.03925 0.0
O73 O 0.49696 0.2248 0.97714 0.0
O74 O 0.38529 0.18558 0.99624 0.0
O75 O 0.40972 0.21619 0.0481 0.0
C76 C 0.38364 0.20897 0.02551 0.0
C77 C 0.4984 0.22501 0.11102 0.0
C78 C 0.47862 0.21795 0.94339 0.0
C79 C 0.47671 0.12943 0.037 0.0
O80 O 0.4984 0.15147 0.03806 0.0
O81 O 0.44692 0.13703 0.03071 0.0
O82 O 0.52316 0.21783 0.0858 0.0
O83 O 0.46965 0.22048 0.09416 0.0
O84 O 0.825 0.45141 0.44757 0.0
Cd85 Cd 0.8409 0.43109 0.50779 0.0
Cd86 Cd 0.82192 0.48927 0.54006 0.0
O87 O 0.79916 0.49363 0.4767 0.0
O88 O 0.83727 0.38263 0.50014 0.0
O89 O 0.8058 0.41146 0.54617 0.0
C90 C 0.81257 0.38387 0.5274 0.0
C91 C 0.797 0.49457 0.61147 0.0
C92 C 0.80656 0.47601 0.44245 0.0
C93 C 0.89387 0.47523 0.53923 0.0
O94 O 0.87156 0.49667 0.54132 0.0
O95 O 0.88669 0.44569 0.53052 0.0
O96 O 0.80244 0.51976 0.58613 0.0
O97 O 0.80375 0.4663 0.59482 0.0
O98 O 0.57294 0.82572 0.94598 0.0
Cd99 Cd 0.59255 0.84039 1.00753 0.0
Cd100 Cd 0.53372 0.82192 0.03572 0.0
O101 O 0.53046 0.799 0.97283 0.0
O102 O 0.64111 0.83648 1.00101 0.0
O103 O 0.61152 0.80453 0.0455 0.0
C104 C 0.63943 0.81143 0.02766 0.0
C105 C 0.52571 0.79748 0.10704 0.0
C106 C 0.54861 0.80714 0.93944 0.0
C107 C 0.54845 0.89355 0.03609 0.0
O108 O 0.52674 0.87155 0.03489 0.0
O109 O 0.57839 0.88603 0.03147 0.0
O110 O 0.50136 0.80452 0.08081 0.0
O111 O 0.55468 0.80244 0.09142 0.0
H112 H 0.24191 0.53592 0.141 0.0
H113 H 0.21403 0.44078 0.19039 0.0
H114 H 0.25018 0.55387 0.21983 0.0
H115 H 0.22136 0.45883 0.2685 0.0
H116 H 0.24638 0.49336 0.40814 0.0
H117 H 0.25632 0.47668 0.32923 0.0
H118 H 0.21324 0.5664 0.28099 0.0
H119 H 0.20419 0.58334 0.35925 0.0
C120 C 0.23803 0.5187 0.16853 0.0
C121 C 0.22688 0.48706 0.15934 0.0
C122 C 0.24256 0.52903 0.21374 0.0
C123 C 0.2361 0.50792 0.25065 0.0
C124 C 0.2269 0.47571 0.24114 0.0
C125 C 0.22238 0.46543 0.19614 0.0
C126 C 0.23957 0.50974 0.38068 0.0
C127 C 0.22409 0.53949 0.3901 0.0
C128 C 0.24513 0.50013 0.33542 0.0
C129 C 0.23533 0.52005 0.29863 0.0
C130 C 0.22147 0.55054 0.30828 0.0
C131 C 0.21597 0.56013 0.35336 0.0
H132 H 0.49102 0.24563 0.64711 0.0
H133 H 0.5833 0.20844 0.69574 0.0
H134 H 0.47426 0.25553 0.72603 0.0
H135 H 0.56636 0.21755 0.77402 0.0
H136 H 0.53531 0.24649 0.91349 0.0
H137 H 0.55214 0.25503 0.83424 0.0
H138 H 0.45876 0.21962 0.7877 0.0
H139 H 0.44177 0.21188 0.86631 0.0
C140 C 0.50789 0.23999 0.6745 0.0
C141 C 0.53832 0.22584 0.66507 0.0
C142 C 0.49824 0.24551 0.71975 0.0
C143 C 0.51885 0.23709 0.75646 0.0
C144 C 0.54997 0.22468 0.74674 0.0
C145 C 0.55957 0.21914 0.70168 0.0
C146 C 0.51816 0.2412 0.88634 0.0
C147 C 0.48737 0.22807 0.89628 0.0
C148 C 0.52786 0.24591 0.84091 0.0
C149 C 0.50694 0.23768 0.80452 0.0
C150 C 0.47544 0.22651 0.81471 0.0
C151 C 0.46578 0.22178 0.85996 0.0
H152 H 0.77732 0.53273 0.4137 0.0
H153 H 0.81245 0.43998 0.36482 0.0
H154 H 0.76789 0.55014 0.33479 0.0
H155 H 0.80377 0.45753 0.28655 0.0
H156 H 0.77629 0.49045 0.14691 0.0
H157 H 0.76681 0.47328 0.22586 0.0
H158 H 0.80495 0.565 0.27395 0.0
H159 H 0.8137 0.58234 0.19564 0.0
C160 C 0.78254 0.51588 0.38625 0.0
C161 C 0.79607 0.48514 0.3956 0.0
C162 C 0.7773 0.52591 0.34102 0.0
C163 C 0.78536 0.50536 0.30425 0.0
C164 C 0.79697 0.47391 0.31388 0.0
C165 C 0.80225 0.46394 0.35892 0.0
C166 C 0.78201 0.50717 0.17433 0.0
C167 C 0.79619 0.53758 0.16493 0.0
C168 C 0.77674 0.49728 0.21959 0.0
C169 C 0.78541 0.51763 0.25632 0.0
C170 C 0.79768 0.54879 0.24664 0.0
C171 C 0.80299 0.55862 0.20158 0.0
H172 H 0.58443 0.81721 0.86223 0.0
H173 H 0.49389 0.77528 0.90904 0.0
H174 H 0.56769 0.80907 0.7835 0.0
H175 H 0.47738 0.76642 0.82974 0.0
H176 H 0.53683 0.78122 0.6427 0.0
H177 H 0.55459 0.77216 0.72156 0.0
H178 H 0.4603 0.8035 0.76998 0.0
H179 H 0.44245 0.81183 0.69177 0.0
C180 C 0.56116 0.80567 0.85577 0.0
C181 C 0.54028 0.79737 0.89204 0.0
C182 C 0.55169 0.80071 0.81046 0.0
C183 C 0.52107 0.78732 0.80019 0.0
C184 C 0.50094 0.77725 0.83649 0.0
C185 C 0.51046 0.78218 0.88195 0.0
C186 C 0.51972 0.78554 0.67017 0.0
C187 C 0.48837 0.79765 0.66091 0.0
C188 C 0.52995 0.78052 0.71538 0.0
C189 C 0.50897 0.78737 0.75217 0.0
C190 C 0.47703 0.79764 0.74261 0.0
C191 C 0.46688 0.80272 0.69761 0.0
H192 H 0.80069 0.44914 0.67926 0.0
H193 H 0.77146 0.5484 0.65337 0.0
H194 H 0.7938 0.45752 0.76069 0.0
H195 H 0.76264 0.55647 0.73497 0.0
H196 H 0.80074 0.57281 0.88123 0.0
H197 H 0.79395 0.56442 0.79977 0.0
H198 H 0.76246 0.46562 0.82533 0.0
H199 H 0.77118 0.47369 0.907 0.0
C200 C 0.79186 0.47253 0.6909 0.0
C201 C 0.78694 0.49819 0.65984 0.0
C202 C 0.78769 0.47735 0.73784 0.0
C203 C 0.77795 0.50785 0.75499 0.0
C204 C 0.77098 0.53289 0.72342 0.0
C205 C 0.77573 0.52821 0.67649 0.0
C206 C 0.79186 0.54945 0.86955 0.0
C207 C 0.78681 0.52382 0.9006 0.0
C208 C 0.78774 0.54462 0.82259 0.0
C209 C 0.77794 0.51416 0.80539 0.0
C210 C 0.77086 0.48916 0.83692 0.0
C211 C 0.77554 0.49385 0.88389 0.0
H212 H 0.57034 0.77172 0.16664 0.0
H213 H 0.46973 0.80154 0.15678 0.0
H214 H 0.56386 0.76305 0.2486 0.0
H215 H 0.46357 0.79464 0.23873 0.0
H216 H 0.45384 0.77149 0.38639 0.0
H217 H 0.46022 0.76281 0.30443 0.0
H218 H 0.56026 0.79509 0.31369 0.0
H219 H 0.55423 0.80202 0.39551 0.0
C220 C 0.54674 0.77613 0.18194 0.0
C221 C 0.52061 0.78749 0.15524 0.0
C222 C 0.54306 0.77146 0.22908 0.0
C223 C 0.5133 0.77859 0.25085 0.0
C224 C 0.48676 0.78844 0.22352 0.0
C225 C 0.49032 0.79259 0.17632 0.0
C226 C 0.47738 0.77603 0.37096 0.0
C227 C 0.50347 0.7876 0.39746 0.0
C228 C 0.48099 0.77136 0.32381 0.0
C229 C 0.51065 0.77865 0.30188 0.0
C230 C 0.53715 0.78873 0.32902 0.0
C231 C 0.53366 0.79291 0.37618 0.0
H232 H 0.25024 0.45067 0.88426 0.0
H233 H 0.22144 0.55146 0.89422 0.0
H234 H 0.2591 0.45749 0.80233 0.0
H235 H 0.22858 0.55797 0.81251 0.0
H236 H 0.22091 0.46921 0.65449 0.0
H237 H 0.22761 0.46209 0.73633 0.0
H238 H 0.261 0.56154 0.74769 0.0
H239 H 0.25255 0.56902 0.66582 0.0
C240 C 0.2461 0.47437 0.86904 0.0
C241 C 0.23498 0.50046 0.89579 0.0
C242 C 0.25089 0.47825 0.8219 0.0
C243 C 0.24421 0.50821 0.80023 0.0
C244 C 0.2345 0.53463 0.82762 0.0
C245 C 0.23018 0.53086 0.87473 0.0
C246 C 0.23022 0.48941 0.67431 0.0
C247 C 0.23587 0.51978 0.65365 0.0
C248 C 0.23426 0.48529 0.72147 0.0
C249 C 0.24451 0.51133 0.74921 0.0
C250 C 0.25225 0.54112 0.72786 0.0
C251 C 0.24772 0.54536 0.68075 0.0
H252 H 0.46945 0.22104 0.40008 0.0
H253 H 0.56927 0.25322 0.39038 0.0
H254 H 0.46307 0.22745 0.31812 0.0
H255 H 0.56251 0.26144 0.30833 0.0
H256 H 0.4528 0.24957 0.17003 0.0
H257 H 0.45883 0.2586 0.25201 0.0
H258 H 0.55979 0.22907 0.24357 0.0
H259 H 0.55405 0.22184 0.16174 0.0
C260 C 0.4898 0.23043 0.38058 0.0
C261 C 0.51997 0.2363 0.40173 0.0
C262 C 0.48611 0.2343 0.33334 0.0
C263 C 0.51238 0.24464 0.30602 0.0
C264 C 0.54194 0.25261 0.32784 0.0
C265 C 0.54577 0.24822 0.37504 0.0
C266 C 0.47642 0.24567 0.18567 0.0
C267 C 0.50289 0.23484 0.15938 0.0
C268 C 0.47985 0.25055 0.23282 0.0
C269 C 0.50972 0.24421 0.25497 0.0
C270 C 0.5365 0.23474 0.22806 0.0
C271 C 0.53318 0.23036 0.1809 0.0
H272 H 0.91609 0.48635 0.99549 0.0
H273 H 0.94932 0.58201 0.03493 0.0
H274 H 0.97222 0.4677 0.99085 0.0
H275 H 1.00558 0.56308 0.03145 0.0
H276 H 0.10424 0.52794 0.98388 0.0
H277 H 0.04787 0.54592 0.98075 0.0
H278 H 0.01723 0.45448 0.03978 0.0
H279 H 0.07377 0.43609 0.04179 0.0
C280 C 0.93537 0.50347 1.00314 0.0
C281 C 0.92811 0.53572 0.01567 0.0
C282 C 0.96763 0.49266 1.00079 0.0
C283 C 0.99354 0.51375 1.01104 0.0
C284 C 0.98631 0.54621 0.02275 0.0
C285 C 0.954 0.55708 0.02493 0.0
C286 C 0.0855 0.51151 0.9959 0.0
C287 C 0.09362 0.48056 1.01325 0.0
C288 C 0.05311 0.52196 0.99441 0.0
C289 C 0.0279 0.50184 1.0104 0.0
C290 C 0.03593 0.47054 0.02672 0.0
C291 C 0.06839 0.46 0.02801 0.0
H292 H 0.4389 0.94966 0.53712 0.0
H293 H 0.53222 0.91825 0.48523 0.0
H294 H 0.45746 1.00604 0.53492 0.0
H295 H 0.55041 0.97449 0.48189 0.0
H296 H 0.58502 0.07354 0.5367 0.0
H297 H 0.56628 0.01728 0.53275 0.0
H298 H 0.47206 0.05031 0.48567 0.0
H299 H 0.49046 0.1064 0.49075 0.0
C300 C 0.46317 0.95479 0.52459 0.0
C301 C 0.48408 0.92937 0.5116 0.0
C302 C 0.47383 0.98716 0.52318 0.0
C303 C 0.50558 0.99489 0.5085 0.0
C304 C 0.52607 0.96947 0.49424 0.0
C305 C 0.5155 0.93718 0.49585 0.0
C306 C 0.56041 0.06877 0.52515 0.0
C307 C 0.53925 0.09455 0.51427 0.0
C308 C 0.54965 0.03647 0.52272 0.0
C309 C 0.51753 0.02917 0.50912 0.0
C310 C 0.49671 0.05497 0.49711 0.0
C311 C 0.50739 0.0872 0.49973 0.0
H312 H 0.07279 0.58627 0.5183 0.0
H313 H 0.10532 0.49268 0.56814 0.0
H314 H 0.01643 0.56766 0.52217 0.0
H315 H 0.04913 0.47443 0.57326 0.0
H316 H 0.94921 0.43988 0.52168 0.0
H317 H 1.00548 0.45876 0.52414 0.0
H318 H 0.97286 0.55268 0.57199 0.0
H319 H 0.91667 0.53412 0.56828 0.0
C320 C 0.06791 0.56192 0.53074 0.0
C321 C 0.09363 0.54095 0.54264 0.0
C322 C 0.03555 0.55123 0.53313 0.0
C323 C 0.02813 0.51939 0.54775 0.0
C324 C 0.05387 0.49884 0.56095 0.0
C325 C 0.08616 0.50943 0.55831 0.0
C326 C 0.95407 0.46445 0.5331 0.0
C327 C 0.92836 0.48548 0.54457 0.0
C328 C 0.98639 0.4753 0.53468 0.0
C329 C 0.99382 0.50737 0.54806 0.0
C330 C 0.9681 0.52806 0.5607 0.0
C331 C 0.93583 0.5173 0.55887 0.0
H332 H 0.48847 0.91879 0.01844 0.0
H333 H 0.5849 0.94631 0.06286 0.0
H334 H 0.47129 0.97515 0.02102 0.0
H335 H 0.56724 1.0029 0.0682 0.0
H336 H 0.5372 0.10449 0.02256 0.0
H337 H 0.55433 0.04808 0.02477 0.0
H338 H 0.45702 0.01957 0.06475 0.0
H339 H 0.43951 0.07624 0.05976 0.0
C340 C 0.50592 0.93689 0.02954 0.0
C341 C 0.53812 0.92803 0.04033 0.0
C342 C 0.49595 0.96937 0.0314 0.0
C343 C 0.51772 0.99397 0.04492 0.0
C344 C 0.54983 0.98491 0.05672 0.0
C345 C 0.55999 0.95239 0.054 0.0
C346 C 0.51944 0.0862 0.03198 0.0
C347 C 0.48692 0.09489 0.04085 0.0
C348 C 0.52937 0.05369 0.03363 0.0
C349 C 0.50721 0.02888 0.04503 0.0
C350 C 0.47475 0.03774 0.05491 0.0
C351 C 0.46467 0.0703 0.05238 0.0
H352 H 0.21611 0.3314 0.09585 0.0
H353 H 0.25053 0.36332 0.9637 0.0
H354 H 0.25559 0.28682 0.09511 0.0
H355 H 0.28949 0.31811 0.96263 0.0
H356 H 0.33393 0.21407 0.96397 0.0
H357 H 0.28871 0.25287 0.96469 0.0
H358 H 0.32081 0.2887 0.09573 0.0
H359 H 0.36662 0.25046 0.09464 0.0
C360 C 0.23161 0.32852 0.06621 0.0
C361 C 0.23019 0.3509 0.02978 0.0
C362 C 0.25433 0.30312 0.066 0.0
C363 C 0.27559 0.29912 0.02891 0.0
C364 C 0.27323 0.32058 0.99155 0.0
C365 C 0.25098 0.34644 0.99218 0.0
C366 C 0.33108 0.22986 0.9933 0.0
C367 C 0.35385 0.22919 0.02931 0.0
C368 C 0.30533 0.25219 0.99349 0.0
C369 C 0.30137 0.27379 0.03017 0.0
C370 C 0.32324 0.27217 0.06714 0.0
C371 C 0.34944 0.25032 0.06649 0.0
H372 H 0.75206 0.38357 0.56545 0.0
H373 H 0.82224 0.32068 0.50002 0.0
H374 H 0.71206 0.33978 0.56404 0.0
H375 H 0.78203 0.27653 0.49941 0.0
H376 H 0.70286 0.20105 0.55809 0.0
H377 H 0.74708 0.24114 0.55817 0.0
H378 H 0.68313 0.31148 0.495 0.0
H379 H 0.63921 0.27155 0.49413 0.0
C380 C 0.75919 0.36023 0.5515 0.0
C381 C 0.79035 0.35567 0.53271 0.0
C382 C 0.73615 0.33525 0.55037 0.0
C383 C 0.74384 0.30494 0.53109 0.0
C384 C 0.77549 0.29971 0.5144 0.0
C385 C 0.79846 0.32495 0.51482 0.0
C386 C 0.69843 0.22489 0.54349 0.0
C387 C 0.66748 0.23312 0.5262 0.0
C388 C 0.72373 0.24779 0.54358 0.0
C389 C 0.71834 0.27949 0.52717 0.0
C390 C 0.6878 0.28732 0.50842 0.0
C391 C 0.66273 0.26434 0.50761 0.0
H392 H 0.82238 0.70133 0.06001 0.0
H393 H 0.7523 0.63864 0.99387 0.0
H394 H 0.78218 0.74553 0.06042 0.0
H395 H 0.71231 0.68249 0.99504 0.0
H396 H 0.63928 0.7505 0.0646 0.0
H397 H 0.68321 0.71055 0.06367 0.0
H398 H 0.74729 0.78123 1.00203 0.0
H399 H 0.70304 0.82137 1.00221 0.0
C400 C 0.79863 0.69711 0.04501 0.0
C401 C 0.79054 0.66642 0.027 0.0
C402 C 0.77566 0.72239 0.0453 0.0
C403 C 0.74404 0.71724 0.02836 0.0
C404 C 0.73638 0.68697 1.00892 0.0
C405 C 0.75941 0.66194 1.00793 0.0
C406 C 0.66282 0.75778 0.05142 0.0
C407 C 0.66759 0.78912 0.03332 0.0
C408 C 0.6879 0.73478 0.05057 0.0
C409 C 0.7185 0.7427 0.03225 0.0
C410 C 0.7239 0.77451 0.01629 0.0
C411 C 0.69858 0.79744 0.01644 0.0
H412 H 0.32197 0.82143 0.5569 0.0
H413 H 0.3851 0.75163 0.49121 0.0
H414 H 0.2778 0.78132 0.55702 0.0
H415 H 0.34121 0.71165 0.49206 0.0
H416 H 0.27218 0.63863 0.56052 0.0
H417 H 0.31258 0.68211 0.55972 0.0
H418 H 0.2423 0.74722 0.49874 0.0
H419 H 0.20174 0.70346 0.4988 0.0
C420 C 0.3263 0.79773 0.54195 0.0
C421 C 0.35708 0.78971 0.52411 0.0
C422 C 0.30102 0.77481 0.54207 0.0
C423 C 0.30626 0.74328 0.52512 0.0
C424 C 0.33666 0.73565 0.50593 0.0
C425 C 0.3617 0.75867 0.50511 0.0
C426 C 0.2651 0.6623 0.54752 0.0
C427 C 0.23374 0.66753 0.5296 0.0
C428 C 0.28836 0.68711 0.54671 0.0
C429 C 0.28067 0.71788 0.52864 0.0
C430 C 0.24886 0.7237 0.5128 0.0
C431 C 0.22568 0.69866 0.5129 0.0
loop_
_geom_bond_atom_site_label_1
_geom_bond_atom_site_label_2
_geom_bond_distance
_geom_bond_site_symmetry_2
_ccdc_geom_bond_type
O0 Cd1 2.223 . S
O0 C8 1.315 . S
Cd1 O0 2.223 . S
Cd1 O4 2.297 . S
Cd1 O5 2.439 . S
Cd1 O11 2.240 . S
Cd2 O3 2.240 . S
Cd2 O10 2.223 . S
Cd2 O12 2.297 1_554 S
Cd2 O13 2.439 1_554 S
O3 Cd2 2.240 . S
O3 C8 1.279 . S
O4 Cd1 2.297 . S
O4 C6 1.247 . S
O5 Cd1 2.439 . S
O5 C6 1.208 . S
C6 O4 1.247 . S
C6 O5 1.208 . S
C7 O12 1.247 . S
C7 O13 1.208 . S
C8 O0 1.315 . S
C8 O3 1.279 . S
C9 O10 1.315 . S
C9 O11 1.279 . S
O10 Cd2 2.223 . S
O10 C9 1.315 . S
O11 Cd1 2.240 . S
O11 C9 1.279 . S
O12 Cd2 2.297 1_556 S
O12 C7 1.247 . S
O13 Cd2 2.439 1_556 S
O13 C7 1.208 . S
O14 Cd15 2.223 . S
O14 C22 1.315 . S
Cd15 O14 2.223 . S
Cd15 O18 2.297 . S
Cd15 O19 2.439 . S
Cd15 O25 2.240 . S
Cd16 O17 2.240 . S
Cd16 O24 2.223 . S
Cd16 O26 2.297 . S
Cd16 O27 2.439 . S
O17 Cd16 2.240 . S
O17 C22 1.279 . S
O18 Cd15 2.297 . S
O18 C20 1.247 . S
O19 Cd15 2.439 . S
O19 C20 1.208 . S
C20 O18 1.247 . S
C20 O19 1.208 . S
C21 O26 1.247 . S
C21 O27 1.208 . S
C22 O14 1.315 . S
C22 O17 1.279 . S
C23 O24 1.315 . S
C23 O25 1.279 . S
O24 Cd16 2.223 . S
O24 C23 1.315 . S
O25 Cd15 2.240 . S
O25 C23 1.279 . S
O26 Cd16 2.297 . S
O26 C21 1.247 . S
O27 Cd16 2.439 . S
O27 C21 1.208 . S
O28 Cd29 2.223 . S
O28 C36 1.315 . S
Cd29 O28 2.223 . S
Cd29 O32 2.297 . S
Cd29 O33 2.439 . S
Cd29 O39 2.240 . S
Cd30 O31 2.240 . S
Cd30 O38 2.223 . S
Cd30 O40 2.297 1_554 S
Cd30 O41 2.439 1_554 S
O31 Cd30 2.240 . S
O31 C36 1.279 . S
O32 Cd29 2.297 . S
O32 C34 1.247 . S
O33 Cd29 2.439 . S
O33 C34 1.208 . S
C34 O32 1.247 . S
C34 O33 1.208 . S
C35 O40 1.247 . S
C35 O41 1.208 . S
C36 O28 1.315 . S
C36 O31 1.279 . S
C37 O38 1.315 . S
C37 O39 1.279 . S
O38 Cd30 2.223 . S
O38 C37 1.315 . S
O39 Cd29 2.240 . S
O39 C37 1.279 . S
O40 Cd30 2.297 1_556 S
O40 C35 1.247 . S
O41 Cd30 2.439 1_556 S
O41 C35 1.208 . S
O42 Cd43 2.223 . S
O42 C50 1.315 . S
Cd43 O42 2.223 . S
Cd43 O46 2.297 . S
Cd43 O47 2.439 . S
Cd43 O53 2.240 . S
Cd44 O45 2.240 . S
Cd44 O52 2.223 . S
Cd44 O54 2.297 . S
Cd44 O55 2.439 . S
O45 Cd44 2.240 . S
O45 C50 1.279 . S
O46 Cd43 2.297 . S
O46 C48 1.247 . S
O47 Cd43 2.439 . S
O47 C48 1.208 . S
C48 O46 1.247 . S
C48 O47 1.208 . S
C49 O54 1.247 . S
C49 O55 1.208 . S
C50 O42 1.315 . S
C50 O45 1.279 . S
C51 O52 1.315 . S
C51 O53 1.279 . S
O52 Cd44 2.223 . S
O52 C51 1.315 . S
O53 Cd43 2.240 . S
O53 C51 1.279 . S
O54 Cd44 2.297 . S
O54 C49 1.247 . S
O55 Cd44 2.439 . S
O55 C49 1.208 . S
O56 Cd57 2.223 . S
O56 C64 1.315 . S
Cd57 O56 2.223 . S
Cd57 O60 2.297 . S
Cd57 O61 2.439 . S
Cd57 O67 2.240 . S
Cd58 O59 2.240 . S
Cd58 O66 2.223 . S
Cd58 O68 2.297 . S
Cd58 O69 2.439 . S
O59 Cd58 2.240 . S
O59 C64 1.279 . S
O60 Cd57 2.297 . S
O60 C62 1.247 . S
O61 Cd57 2.439 . S
O61 C62 1.208 . S
C62 O60 1.247 . S
C62 O61 1.208 . S
C63 O68 1.247 . S
C63 O69 1.208 . S
C64 O56 1.315 . S
C64 O59 1.279 . S
C65 O66 1.315 . S
C65 O67 1.279 . S
O66 Cd58 2.223 . S
O66 C65 1.315 . S
O67 Cd57 2.240 . S
O67 C65 1.279 . S
O68 Cd58 2.297 . S
O68 C63 1.247 . S
O69 Cd58 2.439 . S
O69 C63 1.208 . S
O70 Cd71 2.223 . S
O70 C78 1.315 . S
Cd71 O70 2.223 . S
Cd71 O74 2.297 . S
Cd71 O75 2.439 1_556 S
Cd71 O81 2.240 1_556 S
Cd72 O73 2.240 1_554 S
Cd72 O80 2.223 . S
Cd72 O82 2.297 . S
Cd72 O83 2.439 . S
O73 Cd72 2.240 1_556 S
O73 C78 1.279 . S
O74 Cd71 2.297 . S
O74 C76 1.247 . S
O75 Cd71 2.439 1_554 S
O75 C76 1.208 1_554 S
C76 O74 1.247 . S
C76 O75 1.208 1_556 S
C77 O82 1.247 . S
C77 O83 1.208 . S
C78 O70 1.315 . S
C78 O73 1.279 . S
C79 O80 1.315 . S
C79 O81 1.279 . S
O80 Cd72 2.223 . S
O80 C79 1.315 . S
O81 Cd71 2.240 1_554 S
O81 C79 1.279 . S
O82 Cd72 2.297 . S
O82 C77 1.247 . S
O83 Cd72 2.439 . S
O83 C77 1.208 . S
O84 Cd85 2.223 . S
O84 C92 1.315 . S
Cd85 O84 2.223 . S
Cd85 O88 2.297 . S
Cd85 O89 2.439 . S
Cd85 O95 2.240 . S
Cd86 O87 2.240 . S
Cd86 O94 2.223 . S
Cd86 O96 2.297 . S
Cd86 O97 2.439 . S
O87 Cd86 2.240 . S
O87 C92 1.279 . S
O88 Cd85 2.297 . S
O88 C90 1.247 . S
O89 Cd85 2.439 . S
O89 C90 1.208 . S
C90 O88 1.247 . S
C90 O89 1.208 . S
C91 O96 1.247 . S
C91 O97 1.208 . S
C92 O84 1.315 . S
C92 O87 1.279 . S
C93 O94 1.315 . S
C93 O95 1.279 . S
O94 Cd86 2.223 . S
O94 C93 1.315 . S
O95 Cd85 2.240 . S
O95 C93 1.279 . S
O96 Cd86 2.297 . S
O96 C91 1.247 . S
O97 Cd86 2.439 . S
O97 C91 1.208 . S
O98 Cd99 2.223 . S
O98 C106 1.315 . S
Cd99 O98 2.223 . S
Cd99 O102 2.297 . S
Cd99 O103 2.439 1_556 S
Cd99 O109 2.240 1_556 S
Cd100 O101 2.240 1_554 S
Cd100 O108 2.223 . S
Cd100 O110 2.297 . S
Cd100 O111 2.439 . S
O101 Cd100 2.240 1_556 S
O101 C106 1.279 . S
O102 Cd99 2.297 . S
O102 C104 1.247 . S
O103 Cd99 2.439 1_554 S
O103 C104 1.208 1_554 S
C104 O102 1.247 . S
C104 O103 1.208 1_556 S
C105 O110 1.247 . S
C105 O111 1.208 . S
C106 O98 1.315 . S
C106 O101 1.279 . S
C107 O108 1.315 . S
C107 O109 1.279 . S
O108 Cd100 2.223 . S
O108 C107 1.315 . S
O109 Cd99 2.240 1_554 S
O109 C107 1.279 . S
O110 Cd100 2.297 . S
O110 C105 1.247 . S
O111 Cd100 2.439 . S
O111 C105 1.208 . S
H112 C120 0.950 . S
H113 C125 0.950 . S
H114 C122 0.950 . S
H115 C124 0.950 . S
H116 C126 0.950 . S
H117 C128 0.950 . S
H118 C130 0.950 . S
H119 C131 0.950 . S
C120 H112 0.950 . S
C120 C121 1.386 . S
C120 C122 1.391 . S
C121 C120 1.386 . S
C121 C125 1.393 . S
C122 H114 0.950 . S
C122 C120 1.391 . S
C122 C123 1.400 . S
C123 C122 1.400 . S
C123 C124 1.398 . S
C123 C129 1.491 . S
C124 H115 0.950 . S
C124 C123 1.398 . S
C124 C125 1.391 . S
C125 H113 0.950 . S
C125 C121 1.393 . S
C125 C124 1.391 . S
C126 H116 0.950 . S
C126 C127 1.386 . S
C126 C128 1.391 . S
C127 C126 1.386 . S
C127 C131 1.393 . S
C128 H117 0.950 . S
C128 C126 1.391 . S
C128 C129 1.400 . S
C129 C123 1.491 . S
C129 C128 1.400 . S
C129 C130 1.398 . S
C130 H118 0.950 . S
C130 C129 1.398 . S
C130 C131 1.391 . S
C131 H119 0.950 . S
C131 C127 1.393 . S
C131 C130 1.391 . S
H132 C140 0.950 . S
H133 C145 0.950 . S
H134 C142 0.950 . S
H135 C144 0.950 . S
H136 C146 0.950 . S
H137 C148 0.950 . S
H138 C150 0.950 . S
H139 C151 0.950 . S
C140 H132 0.950 . S
C140 C141 1.386 . S
C140 C142 1.391 . S
C141 C140 1.386 . S
C141 C145 1.393 . S
C142 H134 0.950 . S
C142 C140 1.391 . S
C142 C143 1.400 . S
C143 C142 1.400 . S
C143 C144 1.398 . S
C143 C149 1.491 . S
C144 H135 0.950 . S
C144 C143 1.398 . S
C144 C145 1.391 . S
C145 H133 0.950 . S
C145 C141 1.393 . S
C145 C144 1.391 . S
C146 H136 0.950 . S
C146 C147 1.386 . S
C146 C148 1.391 . S
C147 C146 1.386 . S
C147 C151 1.393 . S
C148 H137 0.950 . S
C148 C146 1.391 . S
C148 C149 1.400 . S
C149 C143 1.491 . S
C149 C148 1.400 . S
C149 C150 1.398 . S
C150 H138 0.950 . S
C150 C149 1.398 . S
C150 C151 1.391 . S
C151 H139 0.950 . S
C151 C147 1.393 . S
C151 C150 1.391 . S
H152 C160 0.950 . S
H153 C165 0.950 . S
H154 C162 0.950 . S
H155 C164 0.950 . S
H156 C166 0.950 . S
H157 C168 0.950 . S
H158 C170 0.950 . S
H159 C171 0.950 . S
C160 H152 0.950 . S
C160 C161 1.386 . S
C160 C162 1.391 . S
C161 C160 1.386 . S
C161 C165 1.393 . S
C162 H154 0.950 . S
C162 C160 1.391 . S
C162 C163 1.400 . S
C163 C162 1.400 . S
C163 C164 1.398 . S
C163 C169 1.491 . S
C164 H155 0.950 . S
C164 C163 1.398 . S
C164 C165 1.391 . S
C165 H153 0.950 . S
C165 C161 1.393 . S
C165 C164 1.391 . S
C166 H156 0.950 . S
C166 C167 1.386 . S
C166 C168 1.391 . S
C167 C166 1.386 . S
C167 C171 1.393 . S
C168 H157 0.950 . S
C168 C166 1.391 . S
C168 C169 1.400 . S
C169 C163 1.491 . S
C169 C168 1.400 . S
C169 C170 1.398 . S
C170 H158 0.950 . S
C170 C169 1.398 . S
C170 C171 1.391 . S
C171 H159 0.950 . S
C171 C167 1.393 . S
C171 C170 1.391 . S
H172 C180 0.950 . S
H173 C185 0.950 . S
H174 C182 0.950 . S
H175 C184 0.950 . S
H176 C186 0.950 . S
H177 C188 0.950 . S
H178 C190 0.950 . S
H179 C191 0.950 . S
C180 H172 0.950 . S
C180 C181 1.386 . S
C180 C182 1.391 . S
C181 C180 1.386 . S
C181 C185 1.393 . S
C182 H174 0.950 . S
C182 C180 1.391 . S
C182 C183 1.400 . S
C183 C182 1.400 . S
C183 C184 1.398 . S
C183 C189 1.491 . S
C184 H175 0.950 . S
C184 C183 1.398 . S
C184 C185 1.391 . S
C185 H173 0.950 . S
C185 C181 1.393 . S
C185 C184 1.391 . S
C186 H176 0.950 . S
C186 C187 1.386 . S
C186 C188 1.391 . S
C187 C186 1.386 . S
C187 C191 1.393 . S
C188 H177 0.950 . S
C188 C186 1.391 . S
C188 C189 1.400 . S
C189 C183 1.491 . S
C189 C188 1.400 . S
C189 C190 1.398 . S
C190 H178 0.950 . S
C190 C189 1.398 . S
C190 C191 1.391 . S
C191 H179 0.950 . S
C191 C187 1.393 . S
C191 C190 1.391 . S
H192 C200 0.950 . S
H193 C205 0.950 . S
H194 C202 0.950 . S
H195 C204 0.950 . S
H196 C206 0.950 . S
H197 C208 0.950 . S
H198 C210 0.950 . S
H199 C211 0.950 . S
C200 H192 0.950 . S
C200 C201 1.386 . S
C200 C202 1.391 . S
C201 C200 1.386 . S
C201 C205 1.393 . S
C202 H194 0.950 . S
C202 C200 1.391 . S
C202 C203 1.400 . S
C203 C202 1.400 . S
C203 C204 1.398 . S
C203 C209 1.491 . S
C204 H195 0.950 . S
C204 C203 1.398 . S
C204 C205 1.391 . S
C205 H193 0.950 . S
C205 C201 1.393 . S
C205 C204 1.391 . S
C206 H196 0.950 . S
C206 C207 1.386 . S
C206 C208 1.391 . S
C207 C206 1.386 . S
C207 C211 1.393 . S
C208 H197 0.950 . S
C208 C206 1.391 . S
C208 C209 1.400 . S
C209 C203 1.491 . S
C209 C208 1.400 . S
C209 C210 1.398 . S
C210 H198 0.950 . S
C210 C209 1.398 . S
C210 C211 1.391 . S
C211 H199 0.950 . S
C211 C207 1.393 . S
C211 C210 1.391 . S
H212 C220 0.950 . S
H213 C225 0.950 . S
H214 C222 0.950 . S
H215 C224 0.950 . S
H216 C226 0.950 . S
H217 C228 0.950 . S
H218 C230 0.950 . S
H219 C231 0.950 . S
C220 H212 0.950 . S
C220 C221 1.386 . S
C220 C222 1.391 . S
C221 C220 1.386 . S
C221 C225 1.393 . S
C222 H214 0.950 . S
C222 C220 1.391 . S
C222 C223 1.400 . S
C223 C222 1.400 . S
C223 C224 1.398 . S
C223 C229 1.491 . S
C224 H215 0.950 . S
C224 C223 1.398 . S
C224 C225 1.391 . S
C225 H213 0.950 . S
C225 C221 1.393 . S
C225 C224 1.391 . S
C226 H216 0.950 . S
C226 C227 1.386 . S
C226 C228 1.391 . S
C227 C226 1.386 . S
C227 C231 1.393 . S
C228 H217 0.950 . S
C228 C226 1.391 . S
C228 C229 1.400 . S
C229 C223 1.491 . S
C229 C228 1.400 . S
C229 C230 1.398 . S
C230 H218 0.950 . S
C230 C229 1.398 . S
C230 C231 1.391 . S
C231 H219 0.950 . S
C231 C227 1.393 . S
C231 C230 1.391 . S
H232 C240 0.950 . S
H233 C245 0.950 . S
H234 C242 0.950 . S
H235 C244 0.950 . S
H236 C246 0.950 . S
H237 C248 0.950 . S
H238 C250 0.950 . S
H239 C251 0.950 . S
C240 H232 0.950 . S
C240 C241 1.386 . S
C240 C242 1.391 . S
C241 C240 1.386 . S
C241 C245 1.393 . S
C242 H234 0.950 . S
C242 C240 1.391 . S
C242 C243 1.400 . S
C243 C242 1.400 . S
C243 C244 1.398 . S
C243 C249 1.491 . S
C244 H235 0.950 . S
C244 C243 1.398 . S
C244 C245 1.391 . S
C245 H233 0.950 . S
C245 C241 1.393 . S
C245 C244 1.391 . S
C246 H236 0.950 . S
C246 C247 1.386 . S
C246 C248 1.391 . S
C247 C246 1.386 . S
C247 C251 1.393 . S
C248 H237 0.950 . S
C248 C246 1.391 . S
C248 C249 1.400 . S
C249 C243 1.491 . S
C249 C248 1.400 . S
C249 C250 1.398 . S
C250 H238 0.950 . S
C250 C249 1.398 . S
C250 C251 1.391 . S
C251 H239 0.950 . S
C251 C247 1.393 . S
C251 C250 1.391 . S
H252 C260 0.950 . S
H253 C265 0.950 . S
H254 C262 0.950 . S
H255 C264 0.950 . S
H256 C266 0.950 . S
H257 C268 0.950 . S
H258 C270 0.950 . S
H259 C271 0.950 . S
C260 H252 0.950 . S
C260 C261 1.386 . S
C260 C262 1.391 . S
C261 C260 1.386 . S
C261 C265 1.393 . S
C262 H254 0.950 . S
C262 C260 1.391 . S
C262 C263 1.400 . S
C263 C262 1.400 . S
C263 C264 1.398 . S
C263 C269 1.491 . S
C264 H255 0.950 . S
C264 C263 1.398 . S
C264 C265 1.391 . S
C265 H253 0.950 . S
C265 C261 1.393 . S
C265 C264 1.391 . S
C266 H256 0.950 . S
C266 C267 1.386 . S
C266 C268 1.391 . S
C267 C266 1.386 . S
C267 C271 1.393 . S
C268 H257 0.950 . S
C268 C266 1.391 . S
C268 C269 1.400 . S
C269 C263 1.491 . S
C269 C268 1.400 . S
C269 C270 1.398 . S
C270 H258 0.950 . S
C270 C269 1.398 . S
C270 C271 1.391 . S
C271 H259 0.950 . S
C271 C267 1.393 . S
C271 C270 1.391 . S
H272 C280 0.950 . S
H273 C285 0.950 . S
H274 C282 0.950 . S
H275 C284 0.950 . S
H276 C286 0.950 . S
H277 C288 0.950 . S
H278 C290 0.950 . S
H279 C291 0.950 . S
C280 H272 0.950 . S
C280 C281 1.386 . S
C280 C282 1.391 . S
C281 C280 1.386 . S
C281 C285 1.393 1_554 S
C282 H274 0.950 . S
C282 C280 1.391 . S
C282 C283 1.400 . S
C283 C282 1.400 . S
C283 C284 1.398 1_554 S
C283 C289 1.491 1_655 S
C284 H275 0.950 . S
C284 C283 1.398 1_556 S
C284 C285 1.391 . S
C285 H273 0.950 . S
C285 C281 1.393 1_556 S
C285 C284 1.391 . S
C286 H276 0.950 . S
C286 C287 1.386 1_556 S
C286 C288 1.391 . S
C287 C286 1.386 1_554 S
C287 C291 1.393 . S
C288 H277 0.950 . S
C288 C286 1.391 . S
C288 C289 1.400 1_556 S
C289 C283 1.491 1_455 S
C289 C288 1.400 1_554 S
C289 C290 1.398 . S
C290 H278 0.950 . S
C290 C289 1.398 . S
C290 C291 1.391 . S
C291 H279 0.950 . S
C291 C287 1.393 . S
C291 C290 1.391 . S
H292 C300 0.950 . S
H293 C305 0.950 . S
H294 C302 0.950 . S
H295 C304 0.950 . S
H296 C306 0.950 . S
H297 C308 0.950 . S
H298 C310 0.950 . S
H299 C311 0.950 . S
C300 H292 0.950 . S
C300 C301 1.386 . S
C300 C302 1.391 . S
C301 C300 1.386 . S
C301 C305 1.393 . S
C302 H294 0.950 . S
C302 C300 1.391 . S
C302 C303 1.400 . S
C303 C302 1.400 . S
C303 C304 1.398 . S
C303 C309 1.491 1_565 S
C304 H295 0.950 . S
C304 C303 1.398 . S
C304 C305 1.391 . S
C305 H293 0.950 . S
C305 C301 1.393 . S
C305 C304 1.391 . S
C306 H296 0.950 . S
C306 C307 1.386 . S
C306 C308 1.391 . S
C307 C306 1.386 . S
C307 C311 1.393 . S
C308 H297 0.950 . S
C308 C306 1.391 . S
C308 C309 1.400 . S
C309 C303 1.491 1_545 S
C309 C308 1.400 . S
C309 C310 1.398 . S
C310 H298 0.950 . S
C310 C309 1.398 . S
C310 C311 1.391 . S
C311 H299 0.950 . S
C311 C307 1.393 . S
C311 C310 1.391 . S
H312 C320 0.950 . S
H313 C325 0.950 . S
H314 C322 0.950 . S
H315 C324 0.950 . S
H316 C326 0.950 . S
H317 C328 0.950 . S
H318 C330 0.950 . S
H319 C331 0.950 . S
C320 H312 0.950 . S
C320 C321 1.386 . S
C320 C322 1.391 . S
C321 C320 1.386 . S
C321 C325 1.393 . S
C322 H314 0.950 . S
C322 C320 1.391 . S
C322 C323 1.400 . S
C323 C322 1.400 . S
C323 C324 1.398 . S
C323 C329 1.491 1_455 S
C324 H315 0.950 . S
C324 C323 1.398 . S
C324 C325 1.391 . S
C325 H313 0.950 . S
C325 C321 1.393 . S
C325 C324 1.391 . S
C326 H316 0.950 . S
C326 C327 1.386 . S
C326 C328 1.391 . S
C327 C326 1.386 . S
C327 C331 1.393 . S
C328 H317 0.950 . S
C328 C326 1.391 . S
C328 C329 1.400 . S
C329 C323 1.491 1_655 S
C329 C328 1.400 . S
C329 C330 1.398 . S
C330 H318 0.950 . S
C330 C329 1.398 . S
C330 C331 1.391 . S
C331 H319 0.950 . S
C331 C327 1.393 . S
C331 C330 1.391 . S
H332 C340 0.950 . S
H333 C345 0.950 . S
H334 C342 0.950 . S
H335 C344 0.950 . S
H336 C346 0.950 . S
H337 C348 0.950 . S
H338 C350 0.950 . S
H339 C351 0.950 . S
C340 H332 0.950 . S
C340 C341 1.383 1_556 S
C340 C342 1.391 . S
C341 C340 1.383 1_554 S
C341 C345 1.396 . S
C342 H334 0.950 . S
C342 C340 1.391 . S
C342 C343 1.401 . S
C343 C342 1.401 . S
C343 C344 1.398 1_556 S
C343 C349 1.491 1_565 S
C344 H335 0.950 . S
C344 C343 1.398 1_554 S
C344 C345 1.391 . S
C345 H333 0.950 . S
C345 C341 1.396 . S
C345 C344 1.391 . S
C346 H336 0.950 . S
C346 C347 1.386 1_554 S
C346 C348 1.391 . S
C347 C346 1.386 1_556 S
C347 C351 1.393 . S
C348 H337 0.950 . S
C348 C346 1.391 . S
C348 C349 1.400 1_554 S
C349 C343 1.491 1_545 S
C349 C348 1.400 1_556 S
C349 C350 1.398 . S
C350 H338 0.950 . S
C350 C349 1.398 . S
C350 C351 1.391 . S
C351 H339 0.950 . S
C351 C347 1.393 . S
C351 C350 1.391 . S
H352 C360 0.950 . S
H353 C365 0.950 . S
H354 C362 0.950 . S
H355 C364 0.950 . S
H356 C366 0.950 . S
H357 C368 0.950 . S
H358 C370 0.950 . S
H359 C371 0.950 . S
C360 H352 0.950 . S
C360 C361 1.386 . S
C360 C362 1.391 . S
C361 C360 1.386 . S
C361 C365 1.393 1_554 S
C362 H354 0.950 . S
C362 C360 1.391 . S
C362 C363 1.400 . S
C363 C362 1.400 . S
C363 C364 1.398 1_554 S
C363 C369 1.491 . S
C364 H355 0.950 . S
C364 C363 1.398 1_556 S
C364 C365 1.391 . S
C365 H353 0.950 . S
C365 C361 1.393 1_556 S
C365 C364 1.391 . S
C366 H356 0.950 . S
C366 C367 1.386 . S
C366 C368 1.391 . S
C367 C366 1.386 . S
C367 C371 1.393 1_556 S
C368 H357 0.950 . S
C368 C366 1.391 . S
C368 C369 1.400 1_556 S
C369 C363 1.491 . S
C369 C368 1.400 1_554 S
C369 C370 1.398 . S
C370 H358 0.950 . S
C370 C369 1.398 . S
C370 C371 1.391 . S
C371 H359 0.950 . S
C371 C367 1.393 1_554 S
C371 C370 1.391 . S
H372 C380 0.950 . S
H373 C385 0.950 . S
H374 C382 0.950 . S
H375 C384 0.950 . S
H376 C386 0.950 . S
H377 C388 0.950 . S
H378 C390 0.950 . S
H379 C391 0.950 . S
C380 H372 0.950 . S
C380 C381 1.386 . S
C380 C382 1.391 . S
C381 C380 1.386 . S
C381 C385 1.393 . S
C382 H374 0.950 . S
C382 C380 1.391 . S
C382 C383 1.400 . S
C383 C382 1.400 . S
C383 C384 1.398 . S
C383 C389 1.491 . S
C384 H375 0.950 . S
C384 C383 1.398 . S
C384 C385 1.391 . S
C385 H373 0.950 . S
C385 C381 1.393 . S
C385 C384 1.391 . S
C386 H376 0.950 . S
C386 C387 1.386 . S
C386 C388 1.391 . S
C387 C386 1.386 . S
C387 C391 1.393 . S
C388 H377 0.950 . S
C388 C386 1.391 . S
C388 C389 1.400 . S
C389 C383 1.491 . S
C389 C388 1.400 . S
C389 C390 1.398 . S
C390 H378 0.950 . S
C390 C389 1.398 . S
C390 C391 1.391 . S
C391 H379 0.950 . S
C391 C387 1.393 . S
C391 C390 1.391 . S
H392 C400 0.950 . S
H393 C405 0.950 . S
H394 C402 0.950 . S
H395 C404 0.950 . S
H396 C406 0.950 . S
H397 C408 0.950 . S
H398 C410 0.950 . S
H399 C411 0.950 . S
C400 H392 0.950 . S
C400 C401 1.386 . S
C400 C402 1.391 . S
C401 C400 1.386 . S
C401 C405 1.393 . S
C402 H394 0.950 . S
C402 C400 1.391 . S
C402 C403 1.400 . S
C403 C402 1.400 . S
C403 C404 1.398 . S
C403 C409 1.491 . S
C404 H395 0.950 . S
C404 C403 1.398 . S
C404 C405 1.391 . S
C405 H393 0.950 . S
C405 C401 1.393 . S
C405 C404 1.391 . S
C406 H396 0.950 . S
C406 C407 1.386 . S
C406 C408 1.391 . S
C407 C406 1.386 . S
C407 C411 1.393 1_556 S
C408 H397 0.950 . S
C408 C406 1.391 . S
C408 C409 1.400 1_556 S
C409 C403 1.491 . S
C409 C408 1.400 1_554 S
C409 C410 1.398 . S
C410 H398 0.950 . S
C410 C409 1.398 . S
C410 C411 1.391 . S
C411 H399 0.950 . S
C411 C407 1.393 1_554 S
C411 C410 1.391 . S
H412 C420 0.950 . S
H413 C425 0.950 . S
H414 C422 0.950 . S
H415 C424 0.950 . S
H416 C426 0.950 . S
H417 C428 0.950 . S
H418 C430 0.950 . S
H419 C431 0.950 . S
C420 H412 0.950 . S
C420 C421 1.386 . S
C420 C422 1.391 . S
C421 C420 1.386 . S
C421 C425 1.393 . S
C422 H414 0.950 . S
C422 C420 1.391 . S
C422 C423 1.400 . S
C423 C422 1.400 . S
C423 C424 1.398 . S
C423 C429 1.491 . S
C424 H415 0.950 . S
C424 C423 1.398 . S
C424 C425 1.391 . S
C425 H413 0.950 . S
C425 C421 1.393 . S
C425 C424 1.391 . S
C426 H416 0.950 . S
C426 C427 1.386 . S
C426 C428 1.391 . S
C427 C426 1.386 . S
C427 C431 1.393 . S
C428 H417 0.950 . S
C428 C426 1.391 . S
C428 C429 1.400 . S
C429 C423 1.491 . S
C429 C428 1.400 . S
C429 C430 1.398 . S
C430 H418 0.950 . S
C430 C429 1.398 . S
C430 C431 1.391 . S
C431 H419 0.950 . S
C431 C427 1.393 . S
C431 C430 1.391 . S
C121 C8 1.694 . S
C127 C64 1.698 . S
C141 C22 1.694 . S
C147 C78 1.698 . S
C161 C92 1.705 . S
C167 C36 1.709 . S
C181 C106 1.693 . S
C187 C50 1.692 . S
C201 C91 1.047 . S
C207 C35 1.050 . S
C221 C105 1.038 . S
C227 C49 1.043 . S
C241 C7 1.049 . S
C247 C63 1.049 . S
C261 C21 1.040 . S
C267 C77 1.039 . S
C281 C37 1.268 . S
C287 C9 1.269 . S
C301 C51 1.268 . S
C307 C23 1.269 . S
C321 C65 1.299 . S
C327 C93 1.289 . S
C341 C107 1.277 . S
C347 C79 1.288 1_556 S
C361 C6 1.456 . S
C367 C76 1.466 . S
C381 C90 1.458 . S
C387 C20 1.465 . S
C401 C34 1.458 . S
C407 C104 1.459 . S
C421 C48 1.463 . S
C427 C62 1.455 . S
