# Generated by pormake.
# Topology wmi, (6)-cn, num edge types: 1
# Building blocks:
#     Node 0, Type 0, BuildingBlock: CUWYAW_clean_sbu_0, # of connection points: 6
#     Node 1, Type 0, BuildingBlock: CUWYAW_clean_sbu_0, # of connection points: 6
#     Node 2, Type 0, BuildingBlock: CUWYAW_clean_sbu_0, # of connection points: 6
#     Node 3, Type 0, BuildingBlock: CUWYAW_clean_sbu_0, # of connection points: 6
#     Node 4, Type 0, BuildingBlock: CUWYAW_clean_sbu_0, # of connection points: 6
#     Node 5, Type 0, BuildingBlock: CUWYAW_clean_sbu_0, # of connection points: 6
#     Node 6, Type 0, BuildingBlock: CUWYAW_clean_sbu_0, # of connection points: 6
#     Node 7, Type 0, BuildingBlock: CUWYAW_clean_sbu_0, # of connection points: 6
#     Node 8, Type 0, BuildingBlock: CUWYAW_clean_sbu_0, # of connection points: 6
#     Node 9, Type 0, BuildingBlock: CUWYAW_clean_sbu_0, # of connection points: 6
#     Node 10, Type 0, BuildingBlock: CUWYAW_clean_sbu_0, # of connection points: 6
#     Node 11, Type 0, BuildingBlock: CUWYAW_clean_sbu_0, # of connection points: 6
#     Node 12, Type 0, BuildingBlock: CUWYAW_clean_sbu_0, # of connection points: 6
#     Node 13, Type 0, BuildingBlock: CUWYAW_clean_sbu_0, # of connection points: 6
#     Node 14, Type 0, BuildingBlock: CUWYAW_clean_sbu_0, # of connection points: 6
#     Node 15, Type 0, BuildingBlock: CUWYAW_clean_sbu_0, # of connection points: 6
#     Node 16, Type 0, BuildingBlock: CUWYAW_clean_sbu_0, # of connection points: 6
#     Node 17, Type 0, BuildingBlock: CUWYAW_clean_sbu_0, # of connection points: 6
#     Edge 18, Type (0, 0), None
#     Edge 19, Type (0, 0), None
#     Edge 20, Type (0, 0), None
#     Edge 21, Type (0, 0), None
#     Edge 22, Type (0, 0), None
#     Edge 23, Type (0, 0), None
#     Edge 24, Type (0, 0), None
#     Edge 25, Type (0, 0), None
#     Edge 26, Type (0, 0), None
#     Edge 27, Type (0, 0), None
#     Edge 28, Type (0, 0), None
#     Edge 29, Type (0, 0), None
#     Edge 30, Type (0, 0), None
#     Edge 31, Type (0, 0), None
#     Edge 32, Type (0, 0), None
#     Edge 33, Type (0, 0), None
#     Edge 34, Type (0, 0), None
#     Edge 35, Type (0, 0), None
#     Edge 36, Type (0, 0), None
#     Edge 37, Type (0, 0), None
#     Edge 38, Type (0, 0), None
#     Edge 39, Type (0, 0), None
#     Edge 40, Type (0, 0), None
#     Edge 41, Type (0, 0), None
#     Edge 42, Type (0, 0), None
#     Edge 43, Type (0, 0), None
#     Edge 44, Type (0, 0), None
#     Edge 45, Type (0, 0), None
#     Edge 46, Type (0, 0), None
#     Edge 47, Type (0, 0), None
#     Edge 48, Type (0, 0), None
#     Edge 49, Type (0, 0), None
#     Edge 50, Type (0, 0), None
#     Edge 51, Type (0, 0), None
#     Edge 52, Type (0, 0), None
#     Edge 53, Type (0, 0), None
#     Edge 54, Type (0, 0), None
#     Edge 55, Type (0, 0), None
#     Edge 56, Type (0, 0), None
#     Edge 57, Type (0, 0), None
#     Edge 58, Type (0, 0), None
#     Edge 59, Type (0, 0), None
#     Edge 60, Type (0, 0), None
#     Edge 61, Type (0, 0), None
#     Edge 62, Type (0, 0), None
#     Edge 63, Type (0, 0), None
#     Edge 64, Type (0, 0), None
#     Edge 65, Type (0, 0), None
#     Edge 66, Type (0, 0), None
#     Edge 67, Type (0, 0), None
#     Edge 68, Type (0, 0), None
#     Edge 69, Type (0, 0), None
#     Edge 70, Type (0, 0), None
#     Edge 71, Type (0, 0), None
# Relax obj value: 0.117
# Max RMSD: 0.282
# Mean RMSD: 0.282
data_MOF--net-wmi--node1-CUWYAW_clean_sbu_0--edge1-none
_symmetry_space_group_name_H-M    P1
_symmetry_Int_Tables_number       1
_symmetry_cell_setting            triclinic
loop_
_symmetry_equiv_pos_as_xyz
'x, y, z'
_cell_length_a     22.769087
_cell_length_b     22.780784
_cell_length_c     34.072452
_cell_angle_alpha  90.769606
_cell_angle_beta   90.006822
_cell_angle_gamma 119.97354
loop_
_atom_site_label
_atom_site_type_symbol
_atom_site_fract_x
_atom_site_fract_y
_atom_site_fract_z
_atom_type_partial_charge
C0 C 0.37531 0.95328 0.03834 0.0
Eu1 Eu 0.50134 1.03963 0.05615 0.0
C2 C 0.33816 0.87971 0.04403 0.0
C3 C 0.28329 0.83859 0.01953 0.0
C4 C 0.24685 0.76889 0.02519 0.0
C5 C 0.26476 0.73896 0.05541 0.0
C6 C 0.32171 0.77973 0.07891 0.0
C7 C 0.35829 0.84992 0.07323 0.0
C8 C 0.58806 0.08337 -0.00432 0.0
C9 C 0.60537 0.98702 0.05923 0.0
C10 C 0.73407 0.18203 0.1237 0.0
Eu11 Eu 0.61649 0.11724 0.08706 0.0
C12 C 0.80443 0.23275 0.11186 0.0
C13 C 0.85929 0.25303 0.13802 0.0
C14 C 0.92524 0.30347 0.12763 0.0
C15 C 0.93808 0.33386 0.0906 0.0
C16 C 0.88335 0.31196 0.06408 0.0
C17 C 0.81751 0.26167 0.07442 0.0
C18 C 0.48448 0.06086 0.13973 0.0
C19 C 0.55175 0.20213 0.06921 0.0
O20 O 0.39357 0.99035 0.0701 0.0
O21 O 0.42384 0.97519 0.0129 0.0
O22 O 0.54574 1.02096 0.00306 0.0
O23 O 0.58969 0.12204 0.02359 0.0
O24 O 0.54152 0.96661 0.06789 0.0
O25 O 0.64701 1.05168 0.05648 0.0
O26 O 0.68907 0.20194 0.12432 0.0
O27 O 0.70941 0.12159 0.10797 0.0
O28 O 0.52261 1.04297 0.12026 0.0
O29 O 0.52306 1.0453 0.1202 0.0
O30 O 0.61105 0.2083 0.07413 0.0
O31 O 0.49808 0.14057 0.06385 0.0
H32 H 0.26793 0.86047 -0.00357 0.0
H33 H 0.20337 0.73845 0.00636 0.0
H34 H 0.33612 0.75796 0.10252 0.0
H35 H 0.40147 0.88108 0.0921 0.0
H36 H 0.85077 0.23158 0.16706 0.0
H37 H 0.96533 0.32188 0.14949 0.0
H38 H 0.89101 0.33608 0.03588 0.0
H39 H 0.77634 0.24686 0.05357 0.0
C40 C 0.25219 0.47568 0.05456 0.0
Eu41 Eu 0.16173 0.51147 0.07074 0.0
C42 C 0.32229 0.50418 0.06898 0.0
C43 C 0.35261 0.46409 0.06825 0.0
C44 C 0.4225 0.49394 0.07349 0.0
C45 C 0.46369 0.56478 0.07902 0.0
C46 C 0.43268 0.60433 0.08266 0.0
C47 C 0.36231 0.57411 0.07789 0.0
C48 C 0.11507 0.53508 0.00273 0.0
C49 C 0.21785 0.66729 0.0642 0.0
C50 C 1.02078 0.61516 0.11287 0.0
Eu51 Eu 0.08612 0.55355 0.08975 0.0
C52 C 0.97342 0.63309 0.09386 0.0
C53 C 0.96631 0.687 0.10876 0.0
C54 C 0.91732 0.7006 0.09305 0.0
C55 C 0.87409 0.65984 0.06248 0.0
C56 C 0.88484 0.60911 0.0458 0.0
C57 C 0.93428 0.59615 0.06113 0.0
C58 C 0.18297 0.50728 0.13105 0.0
C59 C 1.00109 0.39972 0.08404 0.0
O60 O 0.20215 0.43983 0.07791 0.0
O61 O 0.24205 0.51744 0.03441 0.0
O62 O 0.17742 0.55828 0.01154 0.0
O63 O 1.07796 0.50418 0.03143 0.0
O64 O 0.23448 0.62635 0.08171 0.0
O65 O 0.15466 0.6421 0.0547 0.0
O66 O 0.99874 0.55068 0.11829 0.0
O67 O 0.08286 0.64681 0.10001 0.0
O68 O 0.15119 0.54216 0.13609 0.0
O69 O 0.15155 0.54 0.1338 0.0
O70 O 0.99436 0.45304 0.08251 0.0
O71 O 1.0631 0.40782 0.08233 0.0
H72 H 0.32287 0.41031 0.0616 0.0
H73 H 0.44449 0.46143 0.07135 0.0
H74 H 0.46282 0.65863 0.08739 0.0
H75 H 0.33978 0.60615 0.07891 0.0
H76 H 0.99648 0.71649 0.13376 0.0
H77 H 0.90932 0.73894 0.10708 0.0
H78 H 0.85171 0.57626 0.02258 0.0
H79 H 0.93967 0.55512 0.04862 0.0
C80 C 0.73166 0.82794 0.04709 0.0
Eu81 Eu 0.69218 0.70205 0.06189 0.0
C82 C 0.69337 0.8627 0.04182 0.0
C83 C 0.72737 0.92965 0.02968 0.0
C84 C 0.69636 0.96857 0.03341 0.0
C85 C 0.63113 0.94111 0.04977 0.0
C86 C 0.59486 0.87231 0.05898 0.0
C87 C 0.62597 0.83308 0.05492 0.0
C88 C 0.63649 0.61609 0.00064 0.0
C89 C 0.53821 0.59496 0.07803 0.0
C90 C 0.62418 0.46975 0.12067 0.0
Eu91 Eu 0.66534 0.58729 0.0882 0.0
C92 C 0.59546 0.39957 0.10423 0.0
C93 C 0.55036 0.34317 0.12633 0.0
C94 C 0.52731 0.2767 0.1122 0.0
C95 C 0.549 0.26527 0.07567 0.0
C96 C 0.59073 0.32182 0.05262 0.0
C97 C 0.61314 0.38808 0.06652 0.0
C98 C 0.76593 0.71695 0.13727 0.0
C99 C 0.80708 0.65465 0.0571 0.0
O100 O 0.72705 0.80453 0.08211 0.0
O101 O 0.72561 0.7846 0.01988 0.0
O102 O 0.61874 0.65942 0.01159 0.0
O103 O 0.67797 0.61405 0.02476 0.0
O104 O 0.58245 0.65998 0.08377 0.0
O105 O 0.56165 0.55522 0.06882 0.0
O106 O 0.68805 0.51286 0.11329 0.0
O107 O 0.58598 0.49719 0.11702 0.0
O108 O 0.70272 0.68307 0.12525 0.0
O109 O 0.70437 0.68231 0.12476 0.0
O110 O 0.75496 0.59404 0.0598 0.0
O111 O 0.79746 0.70747 0.05989 0.0
H112 H 0.77922 0.95293 0.01948 0.0
H113 H 0.72509 1.02129 0.02513 0.0
H114 H 0.54439 0.84995 0.07118 0.0
H115 H 0.5991 0.78094 0.06432 0.0
H116 H 0.53554 0.35055 0.15535 0.0
H117 H 0.49744 0.23456 0.13135 0.0
H118 H 0.61012 0.3149 0.02495 0.0
H119 H 0.64696 0.43043 0.04851 0.0
C120 C 0.96217 0.31836 0.89813 0.0
Eu121 Eu 1.05935 0.44389 0.89565 0.0
C122 C 0.88865 0.29235 0.89181 0.0
C123 C 0.84752 0.29521 0.92177 0.0
C124 C 0.77819 0.27006 0.91506 0.0
C125 C 0.74892 0.24205 0.87832 0.0
C126 C 0.79065 0.24284 0.84784 0.0
C127 C 0.85966 0.26763 0.85446 0.0
C128 C 0.09437 0.52003 0.962 0.0
C129 C 1.01422 0.55492 0.89288 0.0
C130 C 0.22631 0.68711 0.84875 0.0
Eu131 Eu 0.14921 0.56546 0.87579 0.0
C132 C 0.27131 0.75506 0.867 0.0
C133 C 0.26745 0.81185 0.85482 0.0
C134 C 0.31335 0.87712 0.86948 0.0
C135 C 0.36441 0.88693 0.89643 0.0
C136 C 0.36525 0.82948 0.91046 0.0
C137 C 0.3191 0.76436 0.89613 0.0
C138 C 0.12309 0.44892 0.8176 0.0
C139 C 0.22376 0.49231 0.89781 0.0
O140 O 0.99968 0.34481 0.86759 0.0
O141 O 0.99056 0.35439 0.92975 0.0
O142 O 1.03278 0.47685 0.95211 0.0
O143 O 0.13608 0.52441 0.93609 0.0
O144 O 0.99385 0.49223 0.88079 0.0
O145 O 1.07779 0.59297 0.90205 0.0
O146 O 0.24556 0.64175 0.85111 0.0
O147 O 0.16128 0.66112 0.85463 0.0
O148 O 0.09118 0.47724 0.83381 0.0
O149 O 0.09333 0.47805 0.83422 0.0
O150 O 0.232 0.55308 0.89975 0.0
O151 O 0.16079 0.43934 0.89407 0.0
H152 H 0.86826 0.31461 0.95075 0.0
H153 H 0.74646 0.26724 0.9395 0.0
H154 H 0.76875 0.21901 0.81975 0.0
H155 H 0.88987 0.26528 0.83057 0.0
H156 H 0.23059 0.80609 0.83275 0.0
H157 H 0.31201 0.92024 0.85748 0.0
H158 H 0.4042 0.8353 0.93102 0.0
H159 H 0.32263 0.72164 0.9068 0.0
C160 C 0.85175 0.68342 0.90963 0.0
Eu161 Eu 0.72399 0.64511 0.89595 0.0
C162 C 0.89074 0.64794 0.9071 0.0
C163 C 0.96096 0.68553 0.91164 0.0
C164 C 0.99995 0.65455 0.9067 0.0
C165 C 0.96971 0.58491 0.89703 0.0
C166 C 0.89894 0.5469 0.89245 0.0
C167 C 0.85964 0.57833 0.89745 0.0
C168 C 0.6436 0.60608 0.95916 0.0
C169 C 0.61204 0.48827 0.89434 0.0
C170 C 0.48669 0.55852 0.83855 0.0
Eu171 Eu 0.60866 0.61184 0.8693 0.0
C172 C 0.41795 0.53421 0.85557 0.0
C173 C 0.36024 0.50347 0.83128 0.0
C174 C 0.29522 0.48114 0.84669 0.0
C175 C 0.28595 0.49017 0.88662 0.0
C176 C 0.34389 0.52052 0.91113 0.0
C177 C 0.40895 0.54114 0.89595 0.0
C178 C 0.73729 0.68475 0.81306 0.0
C179 C 0.677 0.76235 0.88529 0.0
O180 O 0.82896 0.69128 0.87654 0.0
O181 O 0.80649 0.66502 0.93697 0.0
O182 O 0.68485 0.58498 0.94998 0.0
O183 O 0.64065 0.6433 0.93246 0.0
O184 O 0.67639 0.5289 0.88494 0.0
O185 O 0.57473 0.51587 0.8995 0.0
O186 O 0.52962 0.62389 0.83989 0.0
O187 O 0.51578 0.52349 0.84757 0.0
O188 O 0.6986 0.6286 0.83189 0.0
O189 O 0.69826 0.63066 0.83209 0.0
O190 O 0.61684 0.7102 0.88144 0.0
O191 O 0.72956 0.75186 0.88959 0.0
H192 H 0.98592 0.7393 0.91853 0.0
H193 H 1.05436 0.68589 0.9103 0.0
H194 H 0.87419 0.49336 0.8851 0.0
H195 H 0.80522 0.54861 0.89342 0.0
H196 H 0.36571 0.49882 0.80001 0.0
H197 H 0.25255 0.46225 0.82677 0.0
H198 H 0.33925 0.53146 0.94165 0.0
H199 H 0.45254 0.56491 0.91546 0.0
C200 C 0.47292 0.19888 0.91378 0.0
Eu201 Eu 0.52061 0.11884 0.89695 0.0
C202 C 0.50973 0.27345 0.9143 0.0
C203 C 0.47351 0.30682 0.90754 0.0
C204 C 0.50774 0.37622 0.90081 0.0
C205 C 0.5793 0.4142 0.90038 0.0
C206 C 0.61595 0.38096 0.90759 0.0
C207 C 0.58127 0.31091 0.91462 0.0
C208 C 0.59178 0.10081 0.95466 0.0
C209 C 0.67772 0.18862 0.87691 0.0
C210 C 0.61011 0.96462 0.83685 0.0
Eu211 Eu 0.56572 1.04197 0.86773 0.0
C212 C 0.63884 0.92269 0.8532 0.0
C213 C 0.68496 0.91105 0.83144 0.0
C214 C 0.70552 0.86513 0.84448 0.0
C215 C 0.68078 0.82959 0.87978 0.0
C216 C 0.63789 0.84455 0.90252 0.0
C217 C 0.6177 0.89053 0.88967 0.0
C218 C 0.52591 0.13385 0.81225 0.0
C219 C 0.42563 0.95498 0.90187 0.0
O220 O 0.46853 0.17255 0.8792 0.0
O221 O 0.48834 0.16848 0.94062 0.0
O222 O 0.59864 0.15855 0.94553 0.0
O223 O 0.55174 0.05507 0.93089 0.0
O224 O 0.6259 0.19926 0.87486 0.0
O225 O 0.66651 0.12763 0.88183 0.0
O226 O 0.54613 0.94397 0.8437 0.0
O227 O 0.64722 1.03064 0.84017 0.0
O228 O 0.50502 0.07985 0.83403 0.0
O229 O 0.50882 0.08253 0.83399 0.0
O230 O 0.48419 0.95747 0.90082 0.0
O231 O 0.42429 1.01221 0.89808 0.0
H232 H 0.41859 0.27881 0.9062 0.0
H233 H 0.47753 0.39992 0.89526 0.0
H234 H 0.67087 0.40883 0.90787 0.0
H235 H 0.61027 0.28577 0.91936 0.0
H236 H 0.7025 0.93488 0.80327 0.0
H237 H 0.73626 0.85329 0.8253 0.0
H238 H 0.61591 0.81683 0.92918 0.0
H239 H 0.58266 0.89828 0.90746 0.0
C240 C 0.9986 0.24062 0.38566 0.0
Eu241 Eu 0.12268 0.33858 0.39892 0.0
C242 C 0.96306 0.17113 0.40169 0.0
C243 C 0.899 0.1454 0.41843 0.0
C244 C 0.86066 0.07655 0.42704 0.0
C245 C 0.88501 1.03171 0.41831 0.0
C246 C 0.95173 0.05853 0.40533 0.0
C247 C 0.9906 0.12778 0.39728 0.0
C248 C 0.19276 0.38856 0.33113 0.0
C249 C 0.22543 0.28603 0.39037 0.0
C250 C 0.37522 0.49378 0.43314 0.0
Eu251 Eu 0.24654 0.42133 0.41562 0.0
C252 C 0.43565 0.54202 0.41068 0.0
C253 C 0.49762 0.54393 0.41633 0.0
C254 C 0.55638 0.59237 0.3974 0.0
C255 C 0.55433 0.64038 0.37271 0.0
C256 C 0.49108 0.63495 0.3648 0.0
C257 C 0.43226 0.58604 0.38342 0.0
C258 C 0.10736 0.32433 0.45684 0.0
C259 C 0.16781 0.4986 0.41351 0.0
O260 O 1.01015 0.29205 0.40807 0.0
O261 O 1.04986 0.25384 0.36362 0.0
O262 O 0.15232 0.32578 0.3374 0.0
O263 O 0.19724 0.42376 0.36069 0.0
O264 O 0.16854 0.26972 0.40867 0.0
O265 O 0.26266 0.34869 0.38004 0.0
O266 O 0.33092 0.51247 0.442 0.0
O267 O 0.34644 0.43068 0.42129 0.0
O268 O 0.17383 0.35739 0.46262 0.0
O269 O 0.17115 0.35679 0.46043 0.0
O270 O 0.22898 0.50804 0.40999 0.0
O271 O 0.11493 0.43571 0.41224 0.0
H272 H 0.8771 0.17764 0.42288 0.0
H273 H 0.80955 0.05745 0.43773 0.0
H274 H 0.97188 1.02549 0.39839 0.0
H275 H 1.04077 0.14631 0.38529 0.0
H276 H 0.50104 0.50963 0.43665 0.0
H277 H 0.60423 0.59559 0.40469 0.0
H278 H 0.48781 0.6713 0.34607 0.0
H279 H 0.38469 0.58447 0.37768 0.0
C280 C 0.86299 0.76936 0.35732 0.0
Eu281 Eu 0.77874 0.80999 0.37851 0.0
C282 C 0.93714 0.8042 0.35848 0.0
C283 C 0.96853 0.76512 0.35662 0.0
C284 C 1.03654 0.79354 0.36698 0.0
C285 C 1.07473 0.86181 0.37957 0.0
C286 C 1.04398 0.90201 0.37983 0.0
C287 C 0.97533 0.8732 0.36942 0.0
C288 C 0.76252 0.88901 0.32571 0.0
C289 C 0.83522 0.95853 0.41419 0.0
C290 C 0.60966 0.866 0.44429 0.0
Eu291 Eu 0.69343 0.83638 0.40846 0.0
C292 C 0.57136 0.89995 0.43172 0.0
C293 C 0.5504 0.93136 0.45968 0.0
C294 C 0.50676 0.95554 0.44899 0.0
C295 C 0.48376 0.94984 0.41005 0.0
C296 C 0.50825 0.92224 0.38161 0.0
C297 C 0.55204 0.89808 0.39224 0.0
C298 C 0.7816 0.79107 0.46218 0.0
C299 C 0.61762 0.70497 0.36493 0.0
O300 O 0.83622 0.76014 0.39182 0.0
O301 O 0.8341 0.78997 0.33235 0.0
O302 O 0.82014 0.90052 0.33945 0.0
O303 O 0.71462 0.84127 0.34435 0.0
O304 O 0.85093 0.91002 0.4117 0.0
O305 O 0.77361 0.94285 0.40569 0.0
O306 O 0.59122 0.80667 0.42833 0.0
O307 O 0.67559 0.90399 0.44674 0.0
O308 O 0.73037 0.77183 0.43787 0.0
O309 O 0.73295 0.7758 0.4382 0.0
O310 O 0.61446 0.7603 0.36889 0.0
O311 O 0.67762 0.70966 0.36898 0.0
H312 H 0.9396 0.71164 0.34902 0.0
H313 H 1.05858 0.761 0.36605 0.0
H314 H 1.07224 0.95477 0.389 0.0
H315 H 0.95133 0.90385 0.37156 0.0
H316 H 0.56447 0.93358 0.49027 0.0
H317 H 0.48564 0.97267 0.4719 0.0
H318 H 0.48924 0.91436 0.35171 0.0
H319 H 0.56772 0.87449 0.36995 0.0
C320 C 0.34433 0.11717 0.37092 0.0
Eu321 Eu 0.30209 0.99153 0.39057 0.0
C322 C 0.31184 0.15839 0.37512 0.0
C323 C 0.33608 0.21778 0.35375 0.0
C324 C 0.30596 0.25774 0.35791 0.0
C325 C 0.25109 0.23891 0.38359 0.0
C326 C 0.22555 0.17825 0.40424 0.0
C327 C 0.25589 0.13817 0.40003 0.0
C328 C 0.2704 0.90846 0.32805 0.0
C329 C 0.14606 0.88843 0.39163 0.0
C330 C 0.21518 0.76515 0.45569 0.0
Eu331 Eu 0.26797 0.8821 0.41992 0.0
C332 C 0.19495 0.69435 0.44354 0.0
C333 C 0.16826 0.64195 0.47105 0.0
C334 C 0.15314 0.5759 0.4603 0.0
C335 C 0.16289 0.56033 0.42162 0.0
C336 C 0.18789 0.61252 0.39391 0.0
C337 C 0.20321 0.67857 0.40463 0.0
C338 C 0.34862 1.01998 0.46884 0.0
C339 C 0.41723 0.94523 0.40367 0.0
O340 O 0.36124 0.10032 0.40334 0.0
O341 O 0.31491 0.06619 0.34669 0.0
O342 O 0.24173 0.94334 0.33651 0.0
O343 O 0.30454 0.90728 0.35725 0.0
O344 O 0.18855 0.95239 0.40104 0.0
O345 O 0.17125 0.84848 0.38863 0.0
O346 O 0.28011 0.80965 0.45592 0.0
O347 O 0.17947 0.78982 0.44061 0.0
O348 O 0.28769 0.9753 0.45594 0.0
O349 O 0.29053 0.9753 0.45534 0.0
O350 O 0.36483 0.88628 0.40969 0.0
O351 O 0.40789 0.99748 0.39708 0.0
H352 H 0.37863 0.23355 0.3341 0.0
H353 H 0.32644 0.30405 0.34133 0.0
H354 H 0.18364 0.16283 0.42432 0.0
H355 H 0.23634 0.09193 0.41659 0.0
H356 H 0.16144 0.65264 0.50125 0.0
H357 H 0.13769 0.53796 0.48282 0.0
H358 H 0.19879 0.60295 0.36431 0.0
H359 H 0.22375 0.71793 0.38282 0.0
C360 C 0.64634 0.67762 0.23836 0.0
Eu361 Eu 0.73396 0.80344 0.2234 0.0
C362 C 0.57268 0.64457 0.24462 0.0
C363 C 0.53941 0.58429 0.26547 0.0
C364 C 0.46861 0.54694 0.26564 0.0
C365 C 0.43003 0.56903 0.24458 0.0
C366 C 0.46342 0.63195 0.22616 0.0
C367 C 0.53424 0.66954 0.22629 0.0
C368 C 0.75574 0.89078 0.28324 0.0
C369 C 0.67958 0.90524 0.20504 0.0
C370 C 0.89603 1.03342 0.1609 0.0
Eu371 Eu 0.81889 0.91888 0.1967 0.0
C372 C 0.9384 0.10578 0.17342 0.0
C373 C 0.96467 0.15726 0.14536 0.0
C374 C 1.00954 0.22505 0.15655 0.0
C375 C 1.02811 0.24318 0.19614 0.0
C376 C 0.99939 0.19187 0.22434 0.0
C377 C 0.95464 0.12408 0.21318 0.0
C378 C 0.80014 0.79033 0.15055 0.0
C379 C 0.89875 0.86058 0.23125 0.0
O380 O 0.66521 0.70077 0.20318 0.0
O381 O 0.68596 0.7202 0.26536 0.0
O382 O 0.69695 0.84775 0.26912 0.0
O383 O 0.80236 0.89425 0.26108 0.0
O384 O 0.66163 0.84044 0.20216 0.0
O385 O 0.74323 0.94897 0.21089 0.0
O386 O 0.91681 0.99172 0.17162 0.0
O387 O 0.83055 1.00685 0.16492 0.0
O388 O 0.76676 0.82118 0.16066 0.0
O389 O 0.7691 0.82205 0.16123 0.0
O390 O 0.90216 0.9191 0.22932 0.0
O391 O 0.83807 0.805 0.22742 0.0
H392 H 0.56803 0.56456 0.28011 0.0
H393 H 0.44426 0.49899 0.28069 0.0
H394 H 0.43514 0.65045 0.20997 0.0
H395 H 0.55891 0.71639 0.21024 0.0
H396 H 0.95291 0.14464 0.11452 0.0
H397 H 1.03336 0.26256 0.13391 0.0
H398 H 1.01493 0.20359 0.25484 0.0
H399 H 0.935 0.0855 0.23546 0.0
C400 C 0.52149 1.02793 0.25058 0.0
Eu401 Eu 0.39606 0.99427 0.23557 0.0
C402 C 0.55904 0.99343 0.2381 0.0
C403 C 0.61829 1.02978 0.21625 0.0
C404 C 0.65378 0.99852 0.2026 0.0
C405 C 0.63124 0.93008 0.21061 0.0
C406 C 0.57015 0.8924 0.23091 0.0
C407 C 0.53411 0.92385 0.24447 0.0
C408 C 0.29802 0.91978 0.28866 0.0
C409 C 0.298 0.84503 0.2024 0.0
C410 C 0.16534 0.93959 0.17491 0.0
Eu411 Eu 0.28175 0.96906 0.20607 0.0
C412 C 0.09653 0.91027 0.19303 0.0
C413 C 1.03879 0.85844 0.17377 0.0
C414 C 0.97344 0.83436 0.18939 0.0
C415 C 0.96421 0.86224 0.22441 0.0
C416 C 1.02242 0.91088 0.24489 0.0
C417 C 0.08761 0.93408 0.22967 0.0
C418 C 0.41407 1.00849 0.15149 0.0
C419 C 0.343 0.10253 0.24963 0.0
O420 O 0.50403 0.05364 0.2223 0.0
O421 O 0.47306 0.99809 0.27598 0.0
O422 O 0.3471 0.90956 0.27948 0.0
O423 O 0.30173 0.96835 0.26931 0.0
O424 O 0.36276 0.89242 0.20301 0.0
O425 O 0.25371 0.86265 0.21134 0.0
O426 O 0.21093 1.00102 0.18616 0.0
O427 O 0.19084 0.89942 0.17196 0.0
O428 O 0.38283 1.02929 0.17548 0.0
O429 O 0.38127 1.02482 0.17525 0.0
O430 O 0.28375 1.04822 0.24515 0.0
O431 O 0.39781 0.09639 0.24603 0.0
H432 H 0.63759 0.08282 0.20999 0.0
H433 H 0.70076 1.02892 0.18703 0.0
H434 H 0.55215 0.83993 0.238 0.0
H435 H 0.48742 0.89401 0.26036 0.0
H436 H 1.04398 0.83875 0.14569 0.0
H437 H 0.92988 0.79835 0.17227 0.0
H438 H 1.01721 0.93454 0.27146 0.0
H439 H 0.13086 0.97302 0.24582 0.0
C440 C 0.17305 0.56372 0.23407 0.0
Eu441 Eu 0.20179 0.46721 0.22306 0.0
C442 C 0.20778 0.63244 0.21701 0.0
C443 C 0.17022 0.65945 0.20081 0.0
C444 C 0.20227 0.72804 0.19134 0.0
C445 C 0.27226 0.77135 0.19877 0.0
C446 C 0.3111 0.74301 0.21112 0.0
C447 C 0.27916 0.67398 0.21993 0.0
C448 C 0.21257 0.41551 0.29234 0.0
C449 C 0.35668 0.52245 0.23845 0.0
C450 C 0.31004 0.32039 0.19224 0.0
Eu451 Eu 0.24803 0.38851 0.20875 0.0
C452 C 0.3239 0.27114 0.21269 0.0
C453 C 0.38335 0.26903 0.20451 0.0
C454 C 0.39402 0.21841 0.22046 0.0
C455 C 0.34502 0.16845 0.24474 0.0
C456 C 0.28786 0.17376 0.25509 0.0
C457 C 0.27759 0.22467 0.23946 0.0
C458 C 0.20616 0.48466 0.16579 0.0
C459 C 0.09244 0.30641 0.20574 0.0
O460 O 0.13396 0.51123 0.21208 0.0
O461 O 0.21059 0.55171 0.25729 0.0
O462 O 0.23602 0.47841 0.286 0.0
O463 O 0.18804 0.38104 0.26155 0.0
O464 O 0.31745 0.53758 0.21768 0.0
O465 O 0.33076 0.45972 0.24863 0.0
O466 O 0.24712 0.30004 0.18227 0.0
O467 O 0.34093 0.38233 0.20622 0.0
O468 O 0.24071 0.45248 0.1608 0.0
O469 O 0.23851 0.45295 0.16285 0.0
O470 O 0.14514 0.29922 0.21139 0.0
O471 O 0.09991 0.36838 0.20669 0.0
H472 H 0.1157 0.62855 0.19746 0.0
H473 H 0.17103 0.74832 0.18108 0.0
H474 H 0.36485 0.77487 0.21706 0.0
H475 H 0.31013 0.65436 0.23149 0.0
H476 H 0.42016 0.30474 0.1843 0.0
H477 H 0.43786 0.21524 0.21116 0.0
H478 H 0.24885 0.13588 0.27347 0.0
H479 H 0.2319 0.22578 0.24693 0.0
C480 C 0.68801 0.63058 0.69615 0.0
Eu481 Eu 0.81567 0.71148 0.71295 0.0
C482 C 0.65089 0.55609 0.69369 0.0
C483 C 0.58044 0.52186 0.69617 0.0
C484 C 0.54481 0.4523 0.70242 0.0
C485 C 0.57882 0.41512 0.70677 0.0
C486 C 0.64954 0.44906 0.70304 0.0
C487 C 0.68534 0.51918 0.69637 0.0
C488 C 0.90256 0.72533 0.65439 0.0
C489 C 0.90316 0.64271 0.73437 0.0
C490 C 1.05713 0.86732 0.77115 0.0
Eu491 Eu 0.9356 0.78878 0.74029 0.0
C492 C 0.1284 0.90863 0.75572 0.0
C493 C 0.18475 0.91814 0.77812 0.0
C494 C 0.25194 0.96406 0.76636 0.0
C495 C 0.26487 1.00159 0.73169 0.0
C496 C 0.20844 0.98874 0.70823 0.0
C497 C 0.1415 0.94281 0.71983 0.0
C498 C 0.80561 0.69957 0.79746 0.0
C499 C 0.8821 0.87485 0.70741 0.0
O500 O 0.71042 0.6541 0.73115 0.0
O501 O 0.73322 0.66357 0.6694 0.0
O502 O 0.8534 0.66841 0.66608 0.0
O503 O 0.9088 0.77317 0.67666 0.0
O504 O 0.84092 0.63235 0.73698 0.0
O505 O 0.95226 0.70335 0.72778 0.0
O506 O 1.01423 0.88786 0.7628 0.0
O507 O 1.02823 0.80124 0.76879 0.0
O508 O 0.83851 0.75334 0.77545 0.0
O509 O 0.83957 0.7504 0.77535 0.0
O510 O 0.93806 0.87229 0.70654 0.0
O511 O 0.8243 0.81742 0.71235 0.0
H512 H 0.55304 0.54936 0.69495 0.0
H513 H 0.49021 0.42809 0.70498 0.0
H514 H 0.67702 0.42185 0.70574 0.0
H515 H 0.74002 0.54492 0.69469 0.0
H516 H 0.1768 0.89276 0.80591 0.0
H517 H 0.29342 0.97435 0.7861 0.0
H518 H 0.21588 1.01821 0.6821 0.0
H519 H 0.09979 0.93679 0.70161 0.0
C520 C 0.58167 0.14789 0.7015 0.0
Eu521 Eu 0.49206 0.18529 0.71526 0.0
C522 C 0.65439 0.18159 0.71156 0.0
C523 C 0.69549 0.25284 0.71192 0.0
C524 C 0.76505 0.28369 0.72063 0.0
C525 C 0.79406 0.24355 0.72907 0.0
C526 C 0.75184 0.17259 0.73051 0.0
C527 C 0.68287 0.14203 0.72183 0.0
C528 C 0.44517 0.21971 0.65283 0.0
C529 C 0.53763 0.34153 0.7145 0.0
C530 C 0.34634 0.27601 0.77394 0.0
Eu531 Eu 0.41277 0.2202 0.74353 0.0
C532 C 0.29908 0.29626 0.75604 0.0
C533 C 0.29436 0.35133 0.77148 0.0
C534 C 0.24783 0.36892 0.75579 0.0
C535 C 0.20394 0.33101 0.72479 0.0
C536 C 0.21174 0.27833 0.70794 0.0
C537 C 0.25888 0.26157 0.72309 0.0
C538 C 0.4723 0.14959 0.79821 0.0
C539 C 0.32868 0.06885 0.72808 0.0
O540 O 0.54011 0.12579 0.73075 0.0
O541 O 0.5637 0.17763 0.67586 0.0
O542 O 0.50801 0.24001 0.65972 0.0
O543 O 0.40741 0.18468 0.68083 0.0
O544 O 0.56151 0.30155 0.72496 0.0
O545 O 0.47251 0.31369 0.71058 0.0
O546 O 0.32532 0.21098 0.77577 0.0
O547 O 0.4095 0.31064 0.76294 0.0
O548 O 0.48891 0.20562 0.77945 0.0
O549 O 0.48639 0.20338 0.77921 0.0
O550 O 0.32167 0.12101 0.73507 0.0
O551 O 0.39075 0.07886 0.72049 0.0
H552 H 0.67414 0.28452 0.70472 0.0
H553 H 0.79633 0.3383 0.71919 0.0
H554 H 0.77249 0.14016 0.73742 0.0
H555 H 0.65194 0.0873 0.72252 0.0
H556 H 0.32508 0.379 0.79666 0.0
H557 H 0.2425 0.40883 0.76963 0.0
H558 H 0.17829 0.24721 0.68433 0.0
H559 H 0.26205 0.21969 0.70991 0.0
C560 C 1.05471 0.50747 0.72107 0.0
Eu561 Eu 1.02486 0.38151 0.72406 0.0
C562 C 1.00797 0.53502 0.72481 0.0
C563 C 0.97308 0.53982 0.69208 0.0
C564 C 0.92991 0.56674 0.69625 0.0
C565 C 0.92048 0.58891 0.73317 0.0
C566 C 0.95252 0.58105 0.76612 0.0
C567 C 0.99571 0.55433 0.76205 0.0
C568 C 0.97503 0.30137 0.6593 0.0
C569 C 0.8682 0.27189 0.73181 0.0
C570 C 0.95121 0.13781 0.77061 0.0
Eu571 Eu 0.99281 0.25934 0.74455 0.0
C572 C 0.92859 0.07127 0.75049 0.0
C573 C 0.8684 1.01323 0.7619 0.0
C574 C 0.8487 0.94947 0.7447 0.0
C575 C 0.88914 0.94237 0.71591 0.0
C576 C 0.94702 1.00121 0.70284 0.0
C577 C 0.96629 0.06486 0.71971 0.0
C578 C 0.0878 0.37815 0.8006 0.0
C579 C 0.13858 0.33057 0.71844 0.0
O580 O 1.06127 0.47969 0.75247 0.0
O581 O 1.05013 0.47202 0.68962 0.0
O582 O 0.95938 0.34654 0.66951 0.0
O583 O 1.01499 0.29829 0.68383 0.0
O584 O 0.91229 0.33566 0.74097 0.0
O585 O 0.89127 0.23167 0.72281 0.0
O586 O 1.01552 0.18403 0.76803 0.0
O587 O 0.91126 0.16325 0.76655 0.0
O588 O 1.0264 0.34896 0.78592 0.0
O589 O 1.02789 0.34816 0.78539 0.0
O590 O 0.08495 0.27051 0.71702 0.0
O591 O 0.13033 0.38452 0.72308 0.0
H592 H 0.98089 0.52504 0.66306 0.0
H593 H 0.90808 0.57515 0.67014 0.0
H594 H 0.9483 0.60041 0.7946 0.0
H595 H 1.02131 0.55099 0.78802 0.0
H596 H 0.83778 1.01679 0.78513 0.0
H597 H 0.80457 0.90519 0.75602 0.0
H598 H 0.97955 0.9975 0.68092 0.0
H599 H 1.01207 0.10869 0.70952 0.0
C600 C 0.28919 1.0017 0.57161 0.0
Eu601 Eu 0.38132 0.12255 0.54949 0.0
C602 C 0.22322 0.95369 0.55451 0.0
C603 C 0.19492 0.88494 0.56215 0.0
C604 C 0.1267 0.84097 0.55392 0.0
C605 C 0.08564 0.86557 0.53864 0.0
C606 C 0.11522 0.93366 0.52831 0.0
C607 C 0.184 0.97743 0.53578 0.0
C608 C 0.42377 0.20875 0.61232 0.0
C609 C 0.33496 0.22807 0.53376 0.0
C610 C 0.54244 0.35128 0.4937 0.0
Eu611 Eu 0.46589 0.23186 0.52398 0.0
C612 C 0.58437 0.4199 0.51168 0.0
C613 C 0.59813 0.4781 0.49075 0.0
C614 C 0.64241 0.54316 0.5063 0.0
C615 C 0.67433 0.55115 0.54292 0.0
C616 C 0.65682 0.49284 0.56489 0.0
C617 C 0.61181 0.42799 0.54965 0.0
C618 C 0.36017 0.08147 0.49164 0.0
C619 C 0.53975 0.16104 0.55168 0.0
O620 O 0.34363 1.01126 0.55382 0.0
O621 O 0.29363 0.05776 0.58378 0.0
O622 O 0.36159 0.1696 0.6029 0.0
O623 O 0.46195 0.20612 0.5866 0.0
O624 O 0.31557 0.1648 0.5239 0.0
O625 O 0.39641 0.26436 0.54653 0.0
O626 O 0.56281 0.30746 0.49935 0.0
O627 O 0.47701 0.3241 0.49785 0.0
O628 O 0.41185 0.14156 0.48222 0.0
O629 O 0.40964 0.14002 0.48478 0.0
O630 O 0.55027 0.2223 0.54809 0.0
O631 O 0.47654 0.10976 0.55012 0.0
H632 H 0.22447 0.8659 0.57643 0.0
H633 H 0.10548 0.78827 0.56167 0.0
H634 H 0.08495 0.95345 0.51585 0.0
H635 H 0.2055 1.03062 0.52914 0.0
H636 H 0.57739 0.47317 0.46152 0.0
H637 H 0.65665 0.58678 0.48804 0.0
H638 H 0.68198 0.49723 0.59269 0.0
H639 H 0.6012 0.38404 0.56674 0.0
C640 C 0.17007 0.34649 0.56197 0.0
Eu641 Eu 1.04137 0.30351 0.54913 0.0
C642 C 0.21267 0.32114 0.54498 0.0
C643 C 0.28279 0.35961 0.54927 0.0
C644 C 0.32233 0.32954 0.54289 0.0
C645 C 0.29228 0.25999 0.53275 0.0
C646 C 0.22257 0.22293 0.52508 0.0
C647 C 0.18301 0.25354 0.53096 0.0
C648 C 0.97571 0.28245 0.61863 0.0
C649 C 0.94817 0.14759 0.55984 0.0
C650 C 0.79328 0.1882 0.50978 0.0
Eu651 Eu 0.92021 0.25445 0.53276 0.0
C652 C 0.72707 0.17232 0.52616 0.0
C653 C 0.66691 0.11936 0.50979 0.0
C654 C 0.60374 0.10962 0.5218 0.0
C655 C 0.60011 0.15299 0.5501 0.0
C656 C 0.66024 0.20246 0.56858 0.0
C657 C 0.72318 0.21185 0.55686 0.0
C658 C 1.06126 0.30079 0.49115 0.0
C659 C 0.9844 0.40775 0.5341 0.0
O660 O 0.1513 0.38082 0.54028 0.0
O661 O 0.12088 0.30217 0.5828 0.0
O662 O 1.01583 0.26071 0.60932 0.0
O663 O 0.96528 0.30981 0.58951 0.0
O664 O 1.00366 0.18928 0.54095 0.0
O665 O 0.90758 0.16983 0.5693 0.0
O666 O 0.8351 0.25178 0.5017 0.0
O667 O 0.82377 0.15968 0.52681 0.0
O668 O 0.99488 0.2657 0.48566 0.0
O669 O 0.99734 0.26779 0.4877 0.0
O670 O 0.92587 0.35368 0.5394 0.0
O671 O 1.03984 0.40234 0.53387 0.0
H672 H 0.30661 0.4116 0.55989 0.0
H673 H 0.37641 0.36032 0.54812 0.0
H674 H 0.1983 0.16985 0.51663 0.0
H675 H 0.12869 0.22301 0.52706 0.0
H676 H 0.66889 0.0879 0.48629 0.0
H677 H 0.55843 0.07253 0.50649 0.0
H678 H 0.65887 0.23709 0.5902 0.0
H679 H 0.76895 0.25234 0.5703 0.0
C680 C 0.8245 0.86203 0.57561 0.0
Eu681 Eu 0.85895 0.77325 0.55385 0.0
C682 C 0.86388 0.93604 0.57547 0.0
C683 C 0.84604 0.97326 0.60064 0.0
C684 C 0.8776 1.0433 0.59715 0.0
C685 C 0.92727 0.07692 0.56833 0.0
C686 C 0.94876 1.04021 0.54506 0.0
C687 C 0.91712 0.9699 0.54864 0.0
C688 C 0.91255 0.73649 0.61236 0.0
C689 C 1.0121 0.81977 0.53609 0.0
C690 C 0.92347 0.61274 0.48499 0.0
Eu691 Eu 0.88469 0.68811 0.52285 0.0
C692 C 0.94465 0.56428 0.49839 0.0
C693 C 0.97422 0.53863 0.47215 0.0
C694 C 0.99282 0.49155 0.4847 0.0
C695 C 0.98351 0.47031 0.52388 0.0
C696 C 0.95542 0.49736 0.5503 0.0
C697 C 0.93682 0.54435 0.53781 0.0
C698 C 0.79925 0.73847 0.47383 0.0
C699 C 0.74113 0.61232 0.55028 0.0
O700 O 0.81127 0.83321 0.5412 0.0
O701 O 0.84396 0.83206 0.60024 0.0
O702 O 0.93518 0.79801 0.60145 0.0
O703 O 0.86901 0.69482 0.58778 0.0
O704 O 0.96803 0.84099 0.53192 0.0
O705 O 0.98869 0.75609 0.5432 0.0
O706 O 0.85963 0.59523 0.48978 0.0
O707 O 0.96437 0.67589 0.49514 0.0
O708 O 0.85892 0.7575 0.48903 0.0
O709 O 0.857 0.75518 0.48934 0.0
O710 O 0.79266 0.60319 0.5469 0.0
O711 O 0.75204 0.67527 0.55029 0.0
H712 H 0.80593 0.94798 0.62187 0.0
H713 H 0.86088 0.07083 0.6159 0.0
H714 H 0.98682 0.06506 0.52269 0.0
H715 H 0.93207 0.94167 0.52924 0.0
H716 H 0.98119 0.55351 0.44168 0.0
H717 H 1.01101 0.46893 0.46327 0.0
H718 H 0.94531 0.48001 0.5803 0.0
H719 H 0.91466 0.56384 0.55871 0.0
loop_
_geom_bond_atom_site_label_1
_geom_bond_atom_site_label_2
_geom_bond_distance
_geom_bond_site_symmetry_2
_ccdc_geom_bond_type
C0 Eu1 2.835 . S
C0 C2 1.500 . S
C0 O20 1.257 . S
C0 O21 1.260 . S
Eu1 C0 2.835 . S
Eu1 O20 2.473 . S
Eu1 O21 2.480 . S
Eu1 O22 2.430 . S
Eu1 O23 2.670 1_565 S
Eu1 O24 2.394 . S
Eu1 O29 2.355 . S
Eu1 O31 2.374 1_565 S
C2 C0 1.500 . S
C2 C3 1.377 . S
C2 C7 1.377 . S
C3 C2 1.377 . S
C3 C4 1.395 . S
C3 H32 0.931 . S
C4 C3 1.395 . S
C4 C5 1.383 . S
C4 H33 0.931 . S
C5 C4 1.383 . S
C5 C6 1.394 . S
C6 C5 1.394 . S
C6 C7 1.378 . S
C6 H34 0.931 . S
C7 C2 1.377 . S
C7 C6 1.378 . S
C7 H35 0.931 . S
C8 O22 1.259 1_545 S
C8 O23 1.270 . S
C9 O24 1.251 . S
C9 O25 1.251 . S
C10 Eu11 2.835 . S
C10 C12 1.500 . S
C10 O26 1.257 . S
C10 O27 1.260 . S
Eu11 C10 2.835 . S
Eu11 O23 2.355 . S
Eu11 O25 2.374 1_545 S
Eu11 O26 2.473 . S
Eu11 O27 2.480 . S
Eu11 O28 2.430 . S
Eu11 O29 2.670 1_545 S
Eu11 O30 2.394 . S
C12 C10 1.500 . S
C12 C13 1.377 . S
C12 C17 1.377 . S
C13 C12 1.377 . S
C13 C14 1.395 . S
C13 H36 0.931 . S
C14 C13 1.395 . S
C14 C15 1.383 . S
C14 H37 0.931 . S
C15 C14 1.383 . S
C15 C16 1.394 . S
C16 C15 1.394 . S
C16 C17 1.378 . S
C16 H38 0.931 . S
C17 C12 1.377 . S
C17 C16 1.378 . S
C17 H39 0.931 . S
C18 O28 1.259 . S
C18 O29 1.270 1_545 S
C19 O30 1.251 . S
C19 O31 1.251 . S
O20 C0 1.257 . S
O20 Eu1 2.473 . S
O21 C0 1.260 . S
O21 Eu1 2.480 . S
O22 Eu1 2.430 . S
O22 C8 1.259 1_565 S
O23 Eu1 2.670 1_545 S
O23 C8 1.270 . S
O23 Eu11 2.355 . S
O24 Eu1 2.394 . S
O24 C9 1.251 . S
O25 C9 1.251 . S
O25 Eu11 2.374 1_565 S
O26 C10 1.257 . S
O26 Eu11 2.473 . S
O27 C10 1.260 . S
O27 Eu11 2.480 . S
O28 Eu11 2.430 . S
O28 C18 1.259 . S
O29 Eu1 2.355 . S
O29 Eu11 2.670 1_565 S
O29 C18 1.270 1_565 S
O30 Eu11 2.394 . S
O30 C19 1.251 . S
O31 Eu1 2.374 1_545 S
O31 C19 1.251 . S
H32 C3 0.931 . S
H33 C4 0.931 . S
H34 C6 0.931 . S
H35 C7 0.931 . S
H36 C13 0.931 . S
H37 C14 0.931 . S
H38 C16 0.931 . S
H39 C17 0.931 . S
C40 Eu41 2.835 . S
C40 C42 1.500 . S
C40 O60 1.257 . S
C40 O61 1.260 . S
Eu41 C40 2.835 . S
Eu41 O60 2.473 . S
Eu41 O61 2.480 . S
Eu41 O62 2.430 . S
Eu41 O63 2.690 . S
Eu41 O64 2.394 . S
Eu41 O69 2.355 . S
Eu41 O71 2.374 1_455 S
C42 C40 1.500 . S
C42 C43 1.377 . S
C42 C47 1.377 . S
C43 C42 1.377 . S
C43 C44 1.395 . S
C43 H72 0.931 . S
C44 C43 1.395 . S
C44 C45 1.383 . S
C44 H73 0.931 . S
C45 C44 1.383 . S
C45 C46 1.394 . S
C46 C45 1.394 . S
C46 C47 1.378 . S
C46 H74 0.931 . S
C47 C42 1.377 . S
C47 C46 1.378 . S
C47 H75 0.931 . S
C48 O62 1.259 . S
C48 O63 1.276 . S
C49 O64 1.251 . S
C49 O65 1.251 . S
C50 Eu51 2.835 . S
C50 C52 1.500 . S
C50 O66 1.257 . S
C50 O67 1.260 . S
Eu51 C50 2.835 . S
Eu51 O63 2.348 1_655 S
Eu51 O65 2.374 1_655 S
Eu51 O66 2.473 . S
Eu51 O67 2.480 . S
Eu51 O68 2.430 1_655 S
Eu51 O69 2.670 1_655 S
Eu51 O70 2.394 . S
C52 C50 1.500 . S
C52 C53 1.377 . S
C52 C57 1.377 . S
C53 C52 1.377 . S
C53 C54 1.395 . S
C53 H76 0.931 . S
C54 C53 1.395 . S
C54 C55 1.383 . S
C54 H77 0.931 . S
C55 C54 1.383 . S
C55 C56 1.394 . S
C56 C55 1.394 . S
C56 C57 1.378 . S
C56 H78 0.931 . S
C57 C52 1.377 . S
C57 C56 1.378 . S
C57 H79 0.931 . S
C58 O68 1.259 . S
C58 O69 1.270 . S
C59 O70 1.251 . S
C59 O71 1.251 . S
O60 C40 1.257 . S
O60 Eu41 2.473 . S
O61 C40 1.260 . S
O61 Eu41 2.480 . S
O62 Eu41 2.430 . S
O62 C48 1.259 . S
O63 Eu41 2.690 . S
O63 C48 1.276 . S
O63 Eu51 2.348 1_455 S
O64 Eu41 2.394 . S
O64 C49 1.251 . S
O65 C49 1.251 . S
O65 Eu51 2.374 1_455 S
O66 C50 1.257 . S
O66 Eu51 2.473 . S
O67 C50 1.260 . S
O67 Eu51 2.480 . S
O68 Eu51 2.430 1_455 S
O68 C58 1.259 . S
O69 Eu41 2.355 . S
O69 Eu51 2.670 1_455 S
O69 C58 1.270 . S
O70 Eu51 2.394 . S
O70 C59 1.251 . S
O71 Eu41 2.374 1_655 S
O71 C59 1.251 . S
H72 C43 0.931 . S
H73 C44 0.931 . S
H74 C46 0.931 . S
H75 C47 0.931 . S
H76 C53 0.931 . S
H77 C54 0.931 . S
H78 C56 0.931 . S
H79 C57 0.931 . S
C80 Eu81 2.835 . S
C80 C82 1.500 . S
C80 O100 1.257 . S
C80 O101 1.260 . S
Eu81 C80 2.835 . S
Eu81 O100 2.473 . S
Eu81 O101 2.480 . S
Eu81 O102 2.430 . S
Eu81 O103 2.670 . S
Eu81 O104 2.394 . S
Eu81 O109 2.355 . S
Eu81 O111 2.374 . S
C82 C80 1.500 . S
C82 C83 1.377 . S
C82 C87 1.377 . S
C83 C82 1.377 . S
C83 C84 1.395 . S
C83 H112 0.931 . S
C84 C83 1.395 . S
C84 C85 1.383 . S
C84 H113 0.931 . S
C85 C84 1.383 . S
C85 C86 1.394 . S
C86 C85 1.394 . S
C86 C87 1.378 . S
C86 H114 0.931 . S
C87 C82 1.377 . S
C87 C86 1.378 . S
C87 H115 0.931 . S
C88 O102 1.259 . S
C88 O103 1.270 . S
C89 O104 1.251 . S
C89 O105 1.251 . S
C90 Eu91 2.835 . S
C90 C92 1.500 . S
C90 O106 1.257 . S
C90 O107 1.260 . S
Eu91 C90 2.835 . S
Eu91 O103 2.355 . S
Eu91 O105 2.374 . S
Eu91 O106 2.473 . S
Eu91 O107 2.480 . S
Eu91 O108 2.430 . S
Eu91 O109 2.670 . S
Eu91 O110 2.394 . S
C92 C90 1.500 . S
C92 C93 1.377 . S
C92 C97 1.377 . S
C93 C92 1.377 . S
C93 C94 1.395 . S
C93 H116 0.931 . S
C94 C93 1.395 . S
C94 C95 1.383 . S
C94 H117 0.931 . S
C95 C94 1.383 . S
C95 C96 1.394 . S
C96 C95 1.394 . S
C96 C97 1.378 . S
C96 H118 0.931 . S
C97 C92 1.377 . S
C97 C96 1.378 . S
C97 H119 0.931 . S
C98 O108 1.259 . S
C98 O109 1.270 . S
C99 O110 1.251 . S
C99 O111 1.251 . S
O100 C80 1.257 . S
O100 Eu81 2.473 . S
O101 C80 1.260 . S
O101 Eu81 2.480 . S
O102 Eu81 2.430 . S
O102 C88 1.259 . S
O103 Eu81 2.670 . S
O103 C88 1.270 . S
O103 Eu91 2.355 . S
O104 Eu81 2.394 . S
O104 C89 1.251 . S
O105 C89 1.251 . S
O105 Eu91 2.374 . S
O106 C90 1.257 . S
O106 Eu91 2.473 . S
O107 C90 1.260 . S
O107 Eu91 2.480 . S
O108 Eu91 2.430 . S
O108 C98 1.259 . S
O109 Eu81 2.355 . S
O109 Eu91 2.670 . S
O109 C98 1.270 . S
O110 Eu91 2.394 . S
O110 C99 1.251 . S
O111 Eu81 2.374 . S
O111 C99 1.251 . S
H112 C83 0.931 . S
H113 C84 0.931 . S
H114 C86 0.931 . S
H115 C87 0.931 . S
H116 C93 0.931 . S
H117 C94 0.931 . S
H118 C96 0.931 . S
H119 C97 0.931 . S
C120 Eu121 2.835 . S
C120 C122 1.500 . S
C120 O140 1.257 . S
C120 O141 1.260 . S
Eu121 C120 2.835 . S
Eu121 O140 2.473 . S
Eu121 O141 2.480 . S
Eu121 O142 2.430 . S
Eu121 O143 2.670 1_655 S
Eu121 O144 2.394 . S
Eu121 O149 2.355 . S
Eu121 O151 2.374 1_655 S
C122 C120 1.500 . S
C122 C123 1.377 . S
C122 C127 1.377 . S
C123 C122 1.377 . S
C123 C124 1.395 . S
C123 H152 0.931 . S
C124 C123 1.395 . S
C124 C125 1.383 . S
C124 H153 0.931 . S
C125 C124 1.383 . S
C125 C126 1.394 . S
C126 C125 1.394 . S
C126 C127 1.378 . S
C126 H154 0.931 . S
C127 C122 1.377 . S
C127 C126 1.378 . S
C127 H155 0.931 . S
C128 O142 1.259 1_455 S
C128 O143 1.270 . S
C129 O144 1.251 . S
C129 O145 1.251 . S
C130 Eu131 2.835 . S
C130 C132 1.500 . S
C130 O146 1.257 . S
C130 O147 1.260 . S
Eu131 C130 2.835 . S
Eu131 O143 2.355 . S
Eu131 O145 2.374 1_455 S
Eu131 O146 2.473 . S
Eu131 O147 2.480 . S
Eu131 O148 2.430 . S
Eu131 O149 2.670 1_455 S
Eu131 O150 2.394 . S
C132 C130 1.500 . S
C132 C133 1.377 . S
C132 C137 1.377 . S
C133 C132 1.377 . S
C133 C134 1.395 . S
C133 H156 0.931 . S
C134 C133 1.395 . S
C134 C135 1.383 . S
C134 H157 0.931 . S
C135 C134 1.383 . S
C135 C136 1.394 . S
C136 C135 1.394 . S
C136 C137 1.378 . S
C136 H158 0.931 . S
C137 C132 1.377 . S
C137 C136 1.378 . S
C137 H159 0.931 . S
C138 O148 1.259 . S
C138 O149 1.270 1_455 S
C139 O150 1.251 . S
C139 O151 1.251 . S
O140 C120 1.257 . S
O140 Eu121 2.473 . S
O141 C120 1.260 . S
O141 Eu121 2.480 . S
O142 Eu121 2.430 . S
O142 C128 1.259 1_655 S
O143 Eu121 2.670 1_455 S
O143 C128 1.270 . S
O143 Eu131 2.355 . S
O144 Eu121 2.394 . S
O144 C129 1.251 . S
O145 C129 1.251 . S
O145 Eu131 2.374 1_655 S
O146 C130 1.257 . S
O146 Eu131 2.473 . S
O147 C130 1.260 . S
O147 Eu131 2.480 . S
O148 Eu131 2.430 . S
O148 C138 1.259 . S
O149 Eu121 2.355 . S
O149 Eu131 2.670 1_655 S
O149 C138 1.270 1_655 S
O150 Eu131 2.394 . S
O150 C139 1.251 . S
O151 Eu121 2.374 1_455 S
O151 C139 1.251 . S
H152 C123 0.931 . S
H153 C124 0.931 . S
H154 C126 0.931 . S
H155 C127 0.931 . S
H156 C133 0.931 . S
H157 C134 0.931 . S
H158 C136 0.931 . S
H159 C137 0.931 . S
C160 Eu161 2.835 . S
C160 C162 1.500 . S
C160 O180 1.257 . S
C160 O181 1.260 . S
Eu161 C160 2.835 . S
Eu161 O180 2.473 . S
Eu161 O181 2.480 . S
Eu161 O182 2.430 . S
Eu161 O183 2.670 . S
Eu161 O184 2.394 . S
Eu161 O189 2.355 . S
Eu161 O191 2.374 . S
C162 C160 1.500 . S
C162 C163 1.377 . S
C162 C167 1.377 . S
C163 C162 1.377 . S
C163 C164 1.395 . S
C163 H192 0.931 . S
C164 C163 1.395 . S
C164 C165 1.383 . S
C164 H193 0.931 . S
C165 C164 1.383 . S
C165 C166 1.394 . S
C166 C165 1.394 . S
C166 C167 1.378 . S
C166 H194 0.931 . S
C167 C162 1.377 . S
C167 C166 1.378 . S
C167 H195 0.931 . S
C168 O182 1.259 . S
C168 O183 1.270 . S
C169 O184 1.251 . S
C169 O185 1.251 . S
C170 Eu171 2.835 . S
C170 C172 1.500 . S
C170 O186 1.257 . S
C170 O187 1.260 . S
Eu171 C170 2.835 . S
Eu171 O183 2.355 . S
Eu171 O185 2.374 . S
Eu171 O186 2.473 . S
Eu171 O187 2.480 . S
Eu171 O188 2.430 . S
Eu171 O189 2.670 . S
Eu171 O190 2.394 . S
C172 C170 1.500 . S
C172 C173 1.377 . S
C172 C177 1.377 . S
C173 C172 1.377 . S
C173 C174 1.395 . S
C173 H196 0.931 . S
C174 C173 1.395 . S
C174 C175 1.383 . S
C174 H197 0.931 . S
C175 C174 1.383 . S
C175 C176 1.394 . S
C176 C175 1.394 . S
C176 C177 1.378 . S
C176 H198 0.931 . S
C177 C172 1.377 . S
C177 C176 1.378 . S
C177 H199 0.931 . S
C178 O188 1.259 . S
C178 O189 1.270 . S
C179 O190 1.251 . S
C179 O191 1.251 . S
O180 C160 1.257 . S
O180 Eu161 2.473 . S
O181 C160 1.260 . S
O181 Eu161 2.480 . S
O182 Eu161 2.430 . S
O182 C168 1.259 . S
O183 Eu161 2.670 . S
O183 C168 1.270 . S
O183 Eu171 2.355 . S
O184 Eu161 2.394 . S
O184 C169 1.251 . S
O185 C169 1.251 . S
O185 Eu171 2.374 . S
O186 C170 1.257 . S
O186 Eu171 2.473 . S
O187 C170 1.260 . S
O187 Eu171 2.480 . S
O188 Eu171 2.430 . S
O188 C178 1.259 . S
O189 Eu161 2.355 . S
O189 Eu171 2.670 . S
O189 C178 1.270 . S
O190 Eu171 2.394 . S
O190 C179 1.251 . S
O191 Eu161 2.374 . S
O191 C179 1.251 . S
H192 C163 0.931 . S
H193 C164 0.931 . S
H194 C166 0.931 . S
H195 C167 0.931 . S
H196 C173 0.931 . S
H197 C174 0.931 . S
H198 C176 0.931 . S
H199 C177 0.931 . S
C200 Eu201 2.835 . S
C200 C202 1.500 . S
C200 O220 1.257 . S
C200 O221 1.260 . S
Eu201 C200 2.835 . S
Eu201 O220 2.473 . S
Eu201 O221 2.480 . S
Eu201 O222 2.430 . S
Eu201 O223 2.690 . S
Eu201 O224 2.394 . S
Eu201 O229 2.355 . S
Eu201 O231 2.374 1_545 S
C202 C200 1.500 . S
C202 C203 1.377 . S
C202 C207 1.377 . S
C203 C202 1.377 . S
C203 C204 1.395 . S
C203 H232 0.931 . S
C204 C203 1.395 . S
C204 C205 1.383 . S
C204 H233 0.931 . S
C205 C204 1.383 . S
C205 C206 1.394 . S
C206 C205 1.394 . S
C206 C207 1.378 . S
C206 H234 0.931 . S
C207 C202 1.377 . S
C207 C206 1.378 . S
C207 H235 0.931 . S
C208 O222 1.259 . S
C208 O223 1.276 . S
C209 O224 1.251 . S
C209 O225 1.251 . S
C210 Eu211 2.835 . S
C210 C212 1.500 . S
C210 O226 1.257 . S
C210 O227 1.260 . S
Eu211 C210 2.835 . S
Eu211 O223 2.348 1_565 S
Eu211 O225 2.374 1_565 S
Eu211 O226 2.473 . S
Eu211 O227 2.480 . S
Eu211 O228 2.430 1_565 S
Eu211 O229 2.670 1_565 S
Eu211 O230 2.394 . S
C212 C210 1.500 . S
C212 C213 1.377 . S
C212 C217 1.377 . S
C213 C212 1.377 . S
C213 C214 1.395 . S
C213 H236 0.931 . S
C214 C213 1.395 . S
C214 C215 1.383 . S
C214 H237 0.931 . S
C215 C214 1.383 . S
C215 C216 1.394 . S
C216 C215 1.394 . S
C216 C217 1.378 . S
C216 H238 0.931 . S
C217 C212 1.377 . S
C217 C216 1.378 . S
C217 H239 0.931 . S
C218 O228 1.259 . S
C218 O229 1.270 . S
C219 O230 1.251 . S
C219 O231 1.251 . S
O220 C200 1.257 . S
O220 Eu201 2.473 . S
O221 C200 1.260 . S
O221 Eu201 2.480 . S
O222 Eu201 2.430 . S
O222 C208 1.259 . S
O223 Eu201 2.690 . S
O223 C208 1.276 . S
O223 Eu211 2.348 1_545 S
O224 Eu201 2.394 . S
O224 C209 1.251 . S
O225 C209 1.251 . S
O225 Eu211 2.374 1_545 S
O226 C210 1.257 . S
O226 Eu211 2.473 . S
O227 C210 1.260 . S
O227 Eu211 2.480 . S
O228 Eu211 2.430 1_545 S
O228 C218 1.259 . S
O229 Eu201 2.355 . S
O229 Eu211 2.670 1_545 S
O229 C218 1.270 . S
O230 Eu211 2.394 . S
O230 C219 1.251 . S
O231 Eu201 2.374 1_565 S
O231 C219 1.251 . S
H232 C203 0.931 . S
H233 C204 0.931 . S
H234 C206 0.931 . S
H235 C207 0.931 . S
H236 C213 0.931 . S
H237 C214 0.931 . S
H238 C216 0.931 . S
H239 C217 0.931 . S
C240 Eu241 2.835 1_655 S
C240 C242 1.500 . S
C240 O260 1.257 . S
C240 O261 1.260 . S
Eu241 C240 2.835 1_455 S
Eu241 O260 2.473 1_455 S
Eu241 O261 2.479 1_455 S
Eu241 O262 2.430 . S
Eu241 O263 2.670 . S
Eu241 O264 2.394 . S
Eu241 O269 2.355 . S
Eu241 O271 2.374 . S
C242 C240 1.500 . S
C242 C243 1.377 . S
C242 C247 1.377 . S
C243 C242 1.377 . S
C243 C244 1.395 . S
C243 H272 0.931 . S
C244 C243 1.395 . S
C244 C245 1.383 1_545 S
C244 H273 0.931 . S
C245 C244 1.383 1_565 S
C245 C246 1.394 1_565 S
C246 C245 1.394 1_545 S
C246 C247 1.378 . S
C246 H274 0.933 . S
C247 C242 1.377 . S
C247 C246 1.378 . S
C247 H275 0.931 . S
C248 O262 1.259 . S
C248 O263 1.270 . S
C249 O264 1.251 . S
C249 O265 1.251 . S
C250 Eu251 2.835 . S
C250 C252 1.500 . S
C250 O266 1.257 . S
C250 O267 1.260 . S
Eu251 C250 2.835 . S
Eu251 O263 2.355 . S
Eu251 O265 2.374 . S
Eu251 O266 2.473 . S
Eu251 O267 2.480 . S
Eu251 O268 2.430 . S
Eu251 O269 2.670 . S
Eu251 O270 2.394 . S
C252 C250 1.500 . S
C252 C253 1.377 . S
C252 C257 1.377 . S
C253 C252 1.377 . S
C253 C254 1.395 . S
C253 H276 0.931 . S
C254 C253 1.395 . S
C254 C255 1.383 . S
C254 H277 0.931 . S
C255 C254 1.383 . S
C255 C256 1.394 . S
C256 C255 1.394 . S
C256 C257 1.378 . S
C256 H278 0.931 . S
C257 C252 1.377 . S
C257 C256 1.378 . S
C257 H279 0.931 . S
C258 O268 1.259 . S
C258 O269 1.270 . S
C259 O270 1.251 . S
C259 O271 1.251 . S
O260 C240 1.257 . S
O260 Eu241 2.473 1_655 S
O261 C240 1.260 . S
O261 Eu241 2.479 1_655 S
O262 Eu241 2.430 . S
O262 C248 1.259 . S
O263 Eu241 2.670 . S
O263 C248 1.270 . S
O263 Eu251 2.355 . S
O264 Eu241 2.394 . S
O264 C249 1.251 . S
O265 C249 1.251 . S
O265 Eu251 2.374 . S
O266 C250 1.257 . S
O266 Eu251 2.473 . S
O267 C250 1.260 . S
O267 Eu251 2.480 . S
O268 Eu251 2.430 . S
O268 C258 1.259 . S
O269 Eu241 2.355 . S
O269 Eu251 2.670 . S
O269 C258 1.270 . S
O270 Eu251 2.394 . S
O270 C259 1.251 . S
O271 Eu241 2.374 . S
O271 C259 1.251 . S
H272 C243 0.931 . S
H273 C244 0.931 . S
H274 C246 0.933 . S
H275 C247 0.931 . S
H276 C253 0.931 . S
H277 C254 0.931 . S
H278 C256 0.931 . S
H279 C257 0.931 . S
C280 Eu281 2.835 . S
C280 C282 1.500 . S
C280 O300 1.257 . S
C280 O301 1.260 . S
Eu281 C280 2.835 . S
Eu281 O300 2.473 . S
Eu281 O301 2.480 . S
Eu281 O302 2.430 . S
Eu281 O303 2.670 . S
Eu281 O304 2.394 . S
Eu281 O309 2.355 . S
Eu281 O311 2.374 . S
C282 C280 1.500 . S
C282 C283 1.377 . S
C282 C287 1.377 . S
C283 C282 1.377 . S
C283 C284 1.395 1_655 S
C283 H312 0.931 . S
C284 C283 1.395 1_455 S
C284 C285 1.383 . S
C284 H313 0.931 . S
C285 C284 1.383 . S
C285 C286 1.394 . S
C286 C285 1.394 . S
C286 C287 1.378 1_455 S
C286 H314 0.931 . S
C287 C282 1.377 . S
C287 C286 1.378 1_655 S
C287 H315 0.931 . S
C288 O302 1.259 . S
C288 O303 1.270 . S
C289 O304 1.251 . S
C289 O305 1.251 . S
C290 Eu291 2.835 . S
C290 C292 1.500 . S
C290 O306 1.257 . S
C290 O307 1.260 . S
Eu291 C290 2.835 . S
Eu291 O303 2.355 . S
Eu291 O305 2.374 . S
Eu291 O306 2.473 . S
Eu291 O307 2.480 . S
Eu291 O308 2.430 . S
Eu291 O309 2.670 . S
Eu291 O310 2.394 . S
C292 C290 1.500 . S
C292 C293 1.377 . S
C292 C297 1.377 . S
C293 C292 1.377 . S
C293 C294 1.395 . S
C293 H316 0.931 . S
C294 C293 1.395 . S
C294 C295 1.383 . S
C294 H317 0.931 . S
C295 C294 1.383 . S
C295 C296 1.394 . S
C296 C295 1.394 . S
C296 C297 1.378 . S
C296 H318 0.931 . S
C297 C292 1.377 . S
C297 C296 1.378 . S
C297 H319 0.931 . S
C298 O308 1.259 . S
C298 O309 1.270 . S
C299 O310 1.251 . S
C299 O311 1.251 . S
O300 C280 1.257 . S
O300 Eu281 2.473 . S
O301 C280 1.260 . S
O301 Eu281 2.480 . S
O302 Eu281 2.430 . S
O302 C288 1.259 . S
O303 Eu281 2.670 . S
O303 C288 1.270 . S
O303 Eu291 2.355 . S
O304 Eu281 2.394 . S
O304 C289 1.251 . S
O305 C289 1.251 . S
O305 Eu291 2.374 . S
O306 C290 1.257 . S
O306 Eu291 2.473 . S
O307 C290 1.260 . S
O307 Eu291 2.480 . S
O308 Eu291 2.430 . S
O308 C298 1.259 . S
O309 Eu281 2.355 . S
O309 Eu291 2.670 . S
O309 C298 1.270 . S
O310 Eu291 2.394 . S
O310 C299 1.251 . S
O311 Eu281 2.374 . S
O311 C299 1.251 . S
H312 C283 0.931 . S
H313 C284 0.931 . S
H314 C286 0.931 . S
H315 C287 0.931 . S
H316 C293 0.931 . S
H317 C294 0.931 . S
H318 C296 0.931 . S
H319 C297 0.931 . S
C320 Eu321 2.835 1_545 S
C320 C322 1.500 . S
C320 O340 1.257 . S
C320 O341 1.260 . S
Eu321 C320 2.835 1_565 S
Eu321 O340 2.473 1_565 S
Eu321 O341 2.480 1_565 S
Eu321 O342 2.430 . S
Eu321 O343 2.670 . S
Eu321 O344 2.394 . S
Eu321 O349 2.355 . S
Eu321 O351 2.374 . S
C322 C320 1.500 . S
C322 C323 1.377 . S
C322 C327 1.377 . S
C323 C322 1.377 . S
C323 C324 1.395 . S
C323 H352 0.931 . S
C324 C323 1.395 . S
C324 C325 1.383 . S
C324 H353 0.931 . S
C325 C324 1.383 . S
C325 C326 1.394 . S
C326 C325 1.394 . S
C326 C327 1.378 . S
C326 H354 0.931 . S
C327 C322 1.377 . S
C327 C326 1.378 . S
C327 H355 0.931 . S
C328 O342 1.259 . S
C328 O343 1.270 . S
C329 O344 1.251 . S
C329 O345 1.251 . S
C330 Eu331 2.835 . S
C330 C332 1.500 . S
C330 O346 1.257 . S
C330 O347 1.260 . S
Eu331 C330 2.835 . S
Eu331 O343 2.355 . S
Eu331 O345 2.374 . S
Eu331 O346 2.473 . S
Eu331 O347 2.480 . S
Eu331 O348 2.430 . S
Eu331 O349 2.670 . S
Eu331 O350 2.394 . S
C332 C330 1.500 . S
C332 C333 1.377 . S
C332 C337 1.377 . S
C333 C332 1.377 . S
C333 C334 1.395 . S
C333 H356 0.931 . S
C334 C333 1.395 . S
C334 C335 1.383 . S
C334 H357 0.931 . S
C335 C334 1.383 . S
C335 C336 1.394 . S
C336 C335 1.394 . S
C336 C337 1.378 . S
C336 H358 0.931 . S
C337 C332 1.377 . S
C337 C336 1.378 . S
C337 H359 0.931 . S
C338 O348 1.259 . S
C338 O349 1.270 . S
C339 O350 1.251 . S
C339 O351 1.251 . S
O340 C320 1.257 . S
O340 Eu321 2.473 1_545 S
O341 C320 1.260 . S
O341 Eu321 2.480 1_545 S
O342 Eu321 2.430 . S
O342 C328 1.259 . S
O343 Eu321 2.670 . S
O343 C328 1.270 . S
O343 Eu331 2.355 . S
O344 Eu321 2.394 . S
O344 C329 1.251 . S
O345 C329 1.251 . S
O345 Eu331 2.374 . S
O346 C330 1.257 . S
O346 Eu331 2.473 . S
O347 C330 1.260 . S
O347 Eu331 2.480 . S
O348 Eu331 2.430 . S
O348 C338 1.259 . S
O349 Eu321 2.355 . S
O349 Eu331 2.670 . S
O349 C338 1.270 . S
O350 Eu331 2.394 . S
O350 C339 1.251 . S
O351 Eu321 2.374 . S
O351 C339 1.251 . S
H352 C323 0.931 . S
H353 C324 0.931 . S
H354 C326 0.931 . S
H355 C327 0.931 . S
H356 C333 0.931 . S
H357 C334 0.931 . S
H358 C336 0.931 . S
H359 C337 0.931 . S
C360 Eu361 2.835 . S
C360 C362 1.500 . S
C360 O380 1.257 . S
C360 O381 1.260 . S
Eu361 C360 2.835 . S
Eu361 O380 2.473 . S
Eu361 O381 2.480 . S
Eu361 O382 2.430 . S
Eu361 O383 2.670 . S
Eu361 O384 2.394 . S
Eu361 O389 2.355 . S
Eu361 O391 2.374 . S
C362 C360 1.500 . S
C362 C363 1.377 . S
C362 C367 1.377 . S
C363 C362 1.377 . S
C363 C364 1.395 . S
C363 H392 0.931 . S
C364 C363 1.395 . S
C364 C365 1.383 . S
C364 H393 0.931 . S
C365 C364 1.383 . S
C365 C366 1.394 . S
C366 C365 1.394 . S
C366 C367 1.378 . S
C366 H394 0.931 . S
C367 C362 1.377 . S
C367 C366 1.378 . S
C367 H395 0.931 . S
C368 O382 1.259 . S
C368 O383 1.270 . S
C369 O384 1.251 . S
C369 O385 1.251 . S
C370 Eu371 2.837 . S
C370 C372 1.498 1_565 S
C370 O386 1.259 . S
C370 O387 1.261 . S
Eu371 C370 2.837 . S
Eu371 O383 2.355 . S
Eu371 O385 2.374 . S
Eu371 O386 2.473 . S
Eu371 O387 2.480 . S
Eu371 O388 2.430 . S
Eu371 O389 2.670 . S
Eu371 O390 2.394 . S
C372 C370 1.498 1_545 S
C372 C373 1.377 . S
C372 C377 1.377 . S
C373 C372 1.377 . S
C373 C374 1.395 . S
C373 H396 0.931 . S
C374 C373 1.395 . S
C374 C375 1.383 1_655 S
C374 H397 0.931 1_655 S
C375 C374 1.383 1_455 S
C375 C376 1.394 . S
C376 C375 1.394 . S
C376 C377 1.378 1_455 S
C376 H398 0.931 . S
C377 C372 1.377 . S
C377 C376 1.378 1_655 S
C377 H399 0.931 . S
C378 O388 1.259 . S
C378 O389 1.270 . S
C379 O390 1.251 . S
C379 O391 1.251 . S
O380 C360 1.257 . S
O380 Eu361 2.473 . S
O381 C360 1.260 . S
O381 Eu361 2.480 . S
O382 Eu361 2.430 . S
O382 C368 1.259 . S
O383 Eu361 2.670 . S
O383 C368 1.270 . S
O383 Eu371 2.355 . S
O384 Eu361 2.394 . S
O384 C369 1.251 . S
O385 C369 1.251 . S
O385 Eu371 2.374 . S
O386 C370 1.259 . S
O386 Eu371 2.473 . S
O387 C370 1.261 . S
O387 Eu371 2.480 . S
O388 Eu371 2.430 . S
O388 C378 1.259 . S
O389 Eu361 2.355 . S
O389 Eu371 2.670 . S
O389 C378 1.270 . S
O390 Eu371 2.394 . S
O390 C379 1.251 . S
O391 Eu361 2.374 . S
O391 C379 1.251 . S
H392 C363 0.931 . S
H393 C364 0.931 . S
H394 C366 0.931 . S
H395 C367 0.931 . S
H396 C373 0.931 . S
H397 C374 0.931 1_455 S
H398 C376 0.931 . S
H399 C377 0.931 . S
C400 Eu401 2.835 . S
C400 C402 1.500 . S
C400 O420 1.257 . S
C400 O421 1.260 . S
Eu401 C400 2.835 . S
Eu401 O420 2.473 . S
Eu401 O421 2.480 . S
Eu401 O422 2.430 . S
Eu401 O423 2.670 . S
Eu401 O424 2.394 . S
Eu401 O429 2.355 . S
Eu401 O431 2.374 . S
C402 C400 1.500 . S
C402 C403 1.377 . S
C402 C407 1.377 . S
C403 C402 1.377 . S
C403 C404 1.395 . S
C403 H432 0.931 . S
C404 C403 1.395 . S
C404 C405 1.383 . S
C404 H433 0.931 . S
C405 C404 1.383 . S
C405 C406 1.394 . S
C406 C405 1.394 . S
C406 C407 1.378 . S
C406 H434 0.931 . S
C407 C402 1.377 . S
C407 C406 1.378 . S
C407 H435 0.931 . S
C408 O422 1.259 . S
C408 O423 1.270 . S
C409 O424 1.251 . S
C409 O425 1.251 . S
C410 Eu411 2.835 . S
C410 C412 1.500 1_455 S
C410 O426 1.257 . S
C410 O427 1.260 . S
Eu411 C410 2.835 . S
Eu411 O423 2.355 . S
Eu411 O425 2.374 . S
Eu411 O426 2.473 . S
Eu411 O427 2.480 . S
Eu411 O428 2.430 . S
Eu411 O429 2.670 . S
Eu411 O430 2.394 . S
C412 C410 1.500 1_655 S
C412 C413 1.377 . S
C412 C417 1.377 . S
C413 C412 1.377 . S
C413 C414 1.395 . S
C413 H436 0.931 . S
C414 C413 1.395 . S
C414 C415 1.383 . S
C414 H437 0.931 . S
C415 C414 1.383 . S
C415 C416 1.394 . S
C416 C415 1.394 . S
C416 C417 1.378 . S
C416 H438 0.931 . S
C417 C412 1.377 . S
C417 C416 1.378 . S
C417 H439 0.931 . S
C418 O428 1.259 . S
C418 O429 1.270 . S
C419 O430 1.251 . S
C419 O431 1.251 . S
O420 C400 1.257 . S
O420 Eu401 2.473 . S
O421 C400 1.260 . S
O421 Eu401 2.480 . S
O422 Eu401 2.430 . S
O422 C408 1.259 . S
O423 Eu401 2.670 . S
O423 C408 1.270 . S
O423 Eu411 2.355 . S
O424 Eu401 2.394 . S
O424 C409 1.251 . S
O425 C409 1.251 . S
O425 Eu411 2.374 . S
O426 C410 1.257 . S
O426 Eu411 2.473 . S
O427 C410 1.260 . S
O427 Eu411 2.480 . S
O428 Eu411 2.430 . S
O428 C418 1.259 . S
O429 Eu401 2.355 . S
O429 Eu411 2.670 . S
O429 C418 1.270 . S
O430 Eu411 2.394 . S
O430 C419 1.251 . S
O431 Eu401 2.374 . S
O431 C419 1.251 . S
H432 C403 0.931 . S
H433 C404 0.931 . S
H434 C406 0.931 . S
H435 C407 0.931 . S
H436 C413 0.931 . S
H437 C414 0.931 . S
H438 C416 0.931 . S
H439 C417 0.931 . S
C440 Eu441 2.835 . S
C440 C442 1.500 . S
C440 O460 1.257 . S
C440 O461 1.260 . S
Eu441 C440 2.835 . S
Eu441 O460 2.473 . S
Eu441 O461 2.480 . S
Eu441 O462 2.430 . S
Eu441 O463 2.670 . S
Eu441 O464 2.394 . S
Eu441 O469 2.355 . S
Eu441 O471 2.374 . S
C442 C440 1.500 . S
C442 C443 1.377 . S
C442 C447 1.377 . S
C443 C442 1.377 . S
C443 C444 1.395 . S
C443 H472 0.931 . S
C444 C443 1.395 . S
C444 C445 1.383 . S
C444 H473 0.931 . S
C445 C444 1.383 . S
C445 C446 1.394 . S
C446 C445 1.394 . S
C446 C447 1.378 . S
C446 H474 0.931 . S
C447 C442 1.377 . S
C447 C446 1.378 . S
C447 H475 0.931 . S
C448 O462 1.259 . S
C448 O463 1.270 . S
C449 O464 1.251 . S
C449 O465 1.251 . S
C450 Eu451 2.835 . S
C450 C452 1.500 . S
C450 O466 1.257 . S
C450 O467 1.260 . S
Eu451 C450 2.835 . S
Eu451 O463 2.355 . S
Eu451 O465 2.374 . S
Eu451 O466 2.473 . S
Eu451 O467 2.480 . S
Eu451 O468 2.430 . S
Eu451 O469 2.670 . S
Eu451 O470 2.394 . S
C452 C450 1.500 . S
C452 C453 1.377 . S
C452 C457 1.377 . S
C453 C452 1.377 . S
C453 C454 1.395 . S
C453 H476 0.931 . S
C454 C453 1.395 . S
C454 C455 1.383 . S
C454 H477 0.931 . S
C455 C454 1.383 . S
C455 C456 1.394 . S
C456 C455 1.394 . S
C456 C457 1.378 . S
C456 H478 0.931 . S
C457 C452 1.377 . S
C457 C456 1.378 . S
C457 H479 0.931 . S
C458 O468 1.259 . S
C458 O469 1.270 . S
C459 O470 1.251 . S
C459 O471 1.251 . S
O460 C440 1.257 . S
O460 Eu441 2.473 . S
O461 C440 1.260 . S
O461 Eu441 2.480 . S
O462 Eu441 2.430 . S
O462 C448 1.259 . S
O463 Eu441 2.670 . S
O463 C448 1.270 . S
O463 Eu451 2.355 . S
O464 Eu441 2.394 . S
O464 C449 1.251 . S
O465 C449 1.251 . S
O465 Eu451 2.374 . S
O466 C450 1.257 . S
O466 Eu451 2.473 . S
O467 C450 1.260 . S
O467 Eu451 2.480 . S
O468 Eu451 2.430 . S
O468 C458 1.259 . S
O469 Eu441 2.355 . S
O469 Eu451 2.670 . S
O469 C458 1.270 . S
O470 Eu451 2.394 . S
O470 C459 1.251 . S
O471 Eu441 2.374 . S
O471 C459 1.251 . S
H472 C443 0.931 . S
H473 C444 0.931 . S
H474 C446 0.931 . S
H475 C447 0.931 . S
H476 C453 0.931 . S
H477 C454 0.931 . S
H478 C456 0.931 . S
H479 C457 0.931 . S
C480 Eu481 2.835 . S
C480 C482 1.500 . S
C480 O500 1.257 . S
C480 O501 1.260 . S
Eu481 C480 2.835 . S
Eu481 O500 2.473 . S
Eu481 O501 2.480 . S
Eu481 O502 2.430 . S
Eu481 O503 2.670 . S
Eu481 O504 2.394 . S
Eu481 O509 2.355 . S
Eu481 O511 2.374 . S
C482 C480 1.500 . S
C482 C483 1.377 . S
C482 C487 1.377 . S
C483 C482 1.377 . S
C483 C484 1.395 . S
C483 H512 0.931 . S
C484 C483 1.395 . S
C484 C485 1.383 . S
C484 H513 0.931 . S
C485 C484 1.383 . S
C485 C486 1.394 . S
C486 C485 1.394 . S
C486 C487 1.378 . S
C486 H514 0.931 . S
C487 C482 1.377 . S
C487 C486 1.378 . S
C487 H515 0.931 . S
C488 O502 1.259 . S
C488 O503 1.270 . S
C489 O504 1.251 . S
C489 O505 1.251 . S
C490 Eu491 2.837 . S
C490 C492 1.498 1_655 S
C490 O506 1.259 . S
C490 O507 1.261 . S
Eu491 C490 2.837 . S
Eu491 O503 2.355 . S
Eu491 O505 2.374 . S
Eu491 O506 2.473 . S
Eu491 O507 2.480 . S
Eu491 O508 2.430 . S
Eu491 O509 2.670 . S
Eu491 O510 2.394 . S
C492 C490 1.498 1_455 S
C492 C493 1.377 . S
C492 C497 1.377 . S
C493 C492 1.377 . S
C493 C494 1.395 . S
C493 H516 0.931 . S
C494 C493 1.395 . S
C494 C495 1.383 1_565 S
C494 H517 0.931 1_565 S
C495 C494 1.383 1_545 S
C495 C496 1.394 . S
C496 C495 1.394 . S
C496 C497 1.378 1_545 S
C496 H518 0.931 . S
C497 C492 1.377 . S
C497 C496 1.378 1_565 S
C497 H519 0.931 . S
C498 O508 1.259 . S
C498 O509 1.270 . S
C499 O510 1.251 . S
C499 O511 1.251 . S
O500 C480 1.257 . S
O500 Eu481 2.473 . S
O501 C480 1.260 . S
O501 Eu481 2.480 . S
O502 Eu481 2.430 . S
O502 C488 1.259 . S
O503 Eu481 2.670 . S
O503 C488 1.270 . S
O503 Eu491 2.355 . S
O504 Eu481 2.394 . S
O504 C489 1.251 . S
O505 C489 1.251 . S
O505 Eu491 2.374 . S
O506 C490 1.259 . S
O506 Eu491 2.473 . S
O507 C490 1.261 . S
O507 Eu491 2.480 . S
O508 Eu491 2.430 . S
O508 C498 1.259 . S
O509 Eu481 2.355 . S
O509 Eu491 2.670 . S
O509 C498 1.270 . S
O510 Eu491 2.394 . S
O510 C499 1.251 . S
O511 Eu481 2.374 . S
O511 C499 1.251 . S
H512 C483 0.931 . S
H513 C484 0.931 . S
H514 C486 0.931 . S
H515 C487 0.931 . S
H516 C493 0.931 . S
H517 C494 0.931 1_545 S
H518 C496 0.931 . S
H519 C497 0.931 . S
C520 Eu521 2.835 . S
C520 C522 1.500 . S
C520 O540 1.257 . S
C520 O541 1.260 . S
Eu521 C520 2.835 . S
Eu521 O540 2.473 . S
Eu521 O541 2.480 . S
Eu521 O542 2.430 . S
Eu521 O543 2.670 . S
Eu521 O544 2.394 . S
Eu521 O549 2.355 . S
Eu521 O551 2.374 . S
C522 C520 1.500 . S
C522 C523 1.377 . S
C522 C527 1.377 . S
C523 C522 1.377 . S
C523 C524 1.395 . S
C523 H552 0.931 . S
C524 C523 1.395 . S
C524 C525 1.383 . S
C524 H553 0.931 . S
C525 C524 1.383 . S
C525 C526 1.394 . S
C526 C525 1.394 . S
C526 C527 1.378 . S
C526 H554 0.931 . S
C527 C522 1.377 . S
C527 C526 1.378 . S
C527 H555 0.931 . S
C528 O542 1.259 . S
C528 O543 1.270 . S
C529 O544 1.251 . S
C529 O545 1.251 . S
C530 Eu531 2.835 . S
C530 C532 1.500 . S
C530 O546 1.257 . S
C530 O547 1.260 . S
Eu531 C530 2.835 . S
Eu531 O543 2.355 . S
Eu531 O545 2.374 . S
Eu531 O546 2.473 . S
Eu531 O547 2.480 . S
Eu531 O548 2.430 . S
Eu531 O549 2.670 . S
Eu531 O550 2.394 . S
C532 C530 1.500 . S
C532 C533 1.377 . S
C532 C537 1.377 . S
C533 C532 1.377 . S
C533 C534 1.395 . S
C533 H556 0.931 . S
C534 C533 1.395 . S
C534 C535 1.383 . S
C534 H557 0.931 . S
C535 C534 1.383 . S
C535 C536 1.394 . S
C536 C535 1.394 . S
C536 C537 1.378 . S
C536 H558 0.931 . S
C537 C532 1.377 . S
C537 C536 1.378 . S
C537 H559 0.931 . S
C538 O548 1.259 . S
C538 O549 1.270 . S
C539 O550 1.251 . S
C539 O551 1.251 . S
O540 C520 1.257 . S
O540 Eu521 2.473 . S
O541 C520 1.260 . S
O541 Eu521 2.480 . S
O542 Eu521 2.430 . S
O542 C528 1.259 . S
O543 Eu521 2.670 . S
O543 C528 1.270 . S
O543 Eu531 2.355 . S
O544 Eu521 2.394 . S
O544 C529 1.251 . S
O545 C529 1.251 . S
O545 Eu531 2.374 . S
O546 C530 1.257 . S
O546 Eu531 2.473 . S
O547 C530 1.260 . S
O547 Eu531 2.480 . S
O548 Eu531 2.430 . S
O548 C538 1.259 . S
O549 Eu521 2.355 . S
O549 Eu531 2.670 . S
O549 C538 1.270 . S
O550 Eu531 2.394 . S
O550 C539 1.251 . S
O551 Eu521 2.374 . S
O551 C539 1.251 . S
H552 C523 0.931 . S
H553 C524 0.931 . S
H554 C526 0.931 . S
H555 C527 0.931 . S
H556 C533 0.931 . S
H557 C534 0.931 . S
H558 C536 0.931 . S
H559 C537 0.931 . S
C560 Eu561 2.835 . S
C560 C562 1.500 . S
C560 O580 1.257 . S
C560 O581 1.260 . S
Eu561 C560 2.835 . S
Eu561 O580 2.473 . S
Eu561 O581 2.480 . S
Eu561 O582 2.430 . S
Eu561 O583 2.670 . S
Eu561 O584 2.394 . S
Eu561 O589 2.355 . S
Eu561 O591 2.374 . S
C562 C560 1.500 . S
C562 C563 1.377 . S
C562 C567 1.377 . S
C563 C562 1.377 . S
C563 C564 1.395 . S
C563 H592 0.931 . S
C564 C563 1.395 . S
C564 C565 1.383 . S
C564 H593 0.931 . S
C565 C564 1.383 . S
C565 C566 1.394 . S
C566 C565 1.394 . S
C566 C567 1.378 . S
C566 H594 0.931 . S
C567 C562 1.377 . S
C567 C566 1.378 . S
C567 H595 0.931 . S
C568 O582 1.259 . S
C568 O583 1.270 . S
C569 O584 1.251 . S
C569 O585 1.251 . S
C570 Eu571 2.835 . S
C570 C572 1.500 1_545 S
C570 O586 1.257 . S
C570 O587 1.260 . S
Eu571 C570 2.835 . S
Eu571 O583 2.355 . S
Eu571 O585 2.374 . S
Eu571 O586 2.473 . S
Eu571 O587 2.480 . S
Eu571 O588 2.430 . S
Eu571 O589 2.670 . S
Eu571 O590 2.394 . S
C572 C570 1.500 1_565 S
C572 C573 1.377 . S
C572 C577 1.377 . S
C573 C572 1.377 . S
C573 C574 1.395 . S
C573 H596 0.931 . S
C574 C573 1.395 . S
C574 C575 1.383 . S
C574 H597 0.931 . S
C575 C574 1.383 . S
C575 C576 1.394 . S
C576 C575 1.394 . S
C576 C577 1.378 . S
C576 H598 0.931 . S
C577 C572 1.377 . S
C577 C576 1.378 . S
C577 H599 0.931 . S
C578 O588 1.259 . S
C578 O589 1.270 . S
C579 O590 1.251 . S
C579 O591 1.251 . S
O580 C560 1.257 . S
O580 Eu561 2.473 . S
O581 C560 1.260 . S
O581 Eu561 2.480 . S
O582 Eu561 2.430 . S
O582 C568 1.259 . S
O583 Eu561 2.670 . S
O583 C568 1.270 . S
O583 Eu571 2.355 . S
O584 Eu561 2.394 . S
O584 C569 1.251 . S
O585 C569 1.251 . S
O585 Eu571 2.374 . S
O586 C570 1.257 . S
O586 Eu571 2.473 . S
O587 C570 1.260 . S
O587 Eu571 2.480 . S
O588 Eu571 2.430 . S
O588 C578 1.259 . S
O589 Eu561 2.355 . S
O589 Eu571 2.670 . S
O589 C578 1.270 . S
O590 Eu571 2.394 . S
O590 C579 1.251 . S
O591 Eu561 2.374 . S
O591 C579 1.251 . S
H592 C563 0.931 . S
H593 C564 0.931 . S
H594 C566 0.931 . S
H595 C567 0.931 . S
H596 C573 0.931 . S
H597 C574 0.931 . S
H598 C576 0.931 . S
H599 C577 0.931 . S
C600 Eu601 2.835 1_565 S
C600 C602 1.500 . S
C600 O620 1.257 . S
C600 O621 1.260 . S
Eu601 C600 2.835 1_545 S
Eu601 O620 2.473 1_545 S
Eu601 O621 2.479 1_545 S
Eu601 O622 2.430 . S
Eu601 O623 2.670 . S
Eu601 O624 2.394 . S
Eu601 O629 2.355 . S
Eu601 O631 2.374 . S
C602 C600 1.500 . S
C602 C603 1.377 . S
C602 C607 1.377 . S
C603 C602 1.377 . S
C603 C604 1.395 . S
C603 H632 0.931 . S
C604 C603 1.395 . S
C604 C605 1.383 1_455 S
C604 H633 0.931 . S
C605 C604 1.383 1_655 S
C605 C606 1.394 1_655 S
C606 C605 1.394 1_455 S
C606 C607 1.378 . S
C606 H634 0.933 . S
C607 C602 1.377 . S
C607 C606 1.378 . S
C607 H635 0.931 . S
C608 O622 1.259 . S
C608 O623 1.270 . S
C609 O624 1.251 . S
C609 O625 1.251 . S
C610 Eu611 2.835 . S
C610 C612 1.500 . S
C610 O626 1.257 . S
C610 O627 1.260 . S
Eu611 C610 2.835 . S
Eu611 O623 2.355 . S
Eu611 O625 2.374 . S
Eu611 O626 2.473 . S
Eu611 O627 2.480 . S
Eu611 O628 2.430 . S
Eu611 O629 2.670 . S
Eu611 O630 2.394 . S
C612 C610 1.500 . S
C612 C613 1.377 . S
C612 C617 1.377 . S
C613 C612 1.377 . S
C613 C614 1.395 . S
C613 H636 0.931 . S
C614 C613 1.395 . S
C614 C615 1.383 . S
C614 H637 0.931 . S
C615 C614 1.383 . S
C615 C616 1.394 . S
C616 C615 1.394 . S
C616 C617 1.378 . S
C616 H638 0.931 . S
C617 C612 1.377 . S
C617 C616 1.378 . S
C617 H639 0.931 . S
C618 O628 1.259 . S
C618 O629 1.270 . S
C619 O630 1.251 . S
C619 O631 1.251 . S
O620 C600 1.257 . S
O620 Eu601 2.473 1_565 S
O621 C600 1.260 . S
O621 Eu601 2.479 1_565 S
O622 Eu601 2.430 . S
O622 C608 1.259 . S
O623 Eu601 2.670 . S
O623 C608 1.270 . S
O623 Eu611 2.355 . S
O624 Eu601 2.394 . S
O624 C609 1.251 . S
O625 C609 1.251 . S
O625 Eu611 2.374 . S
O626 C610 1.257 . S
O626 Eu611 2.473 . S
O627 C610 1.260 . S
O627 Eu611 2.480 . S
O628 Eu611 2.430 . S
O628 C618 1.259 . S
O629 Eu601 2.355 . S
O629 Eu611 2.670 . S
O629 C618 1.270 . S
O630 Eu611 2.394 . S
O630 C619 1.251 . S
O631 Eu601 2.374 . S
O631 C619 1.251 . S
H632 C603 0.931 . S
H633 C604 0.931 . S
H634 C606 0.933 . S
H635 C607 0.931 . S
H636 C613 0.931 . S
H637 C614 0.931 . S
H638 C616 0.931 . S
H639 C617 0.931 . S
C640 Eu641 2.835 1_455 S
C640 C642 1.500 . S
C640 O660 1.257 . S
C640 O661 1.260 . S
Eu641 C640 2.835 1_655 S
Eu641 O660 2.473 1_655 S
Eu641 O661 2.480 1_655 S
Eu641 O662 2.430 . S
Eu641 O663 2.670 . S
Eu641 O664 2.394 . S
Eu641 O669 2.355 . S
Eu641 O671 2.374 . S
C642 C640 1.500 . S
C642 C643 1.377 . S
C642 C647 1.377 . S
C643 C642 1.377 . S
C643 C644 1.395 . S
C643 H672 0.931 . S
C644 C643 1.395 . S
C644 C645 1.383 . S
C644 H673 0.931 . S
C645 C644 1.383 . S
C645 C646 1.394 . S
C646 C645 1.394 . S
C646 C647 1.378 . S
C646 H674 0.931 . S
C647 C642 1.377 . S
C647 C646 1.378 . S
C647 H675 0.931 . S
C648 O662 1.259 . S
C648 O663 1.270 . S
C649 O664 1.251 . S
C649 O665 1.251 . S
C650 Eu651 2.835 . S
C650 C652 1.500 . S
C650 O666 1.257 . S
C650 O667 1.260 . S
Eu651 C650 2.835 . S
Eu651 O663 2.355 . S
Eu651 O665 2.374 . S
Eu651 O666 2.473 . S
Eu651 O667 2.480 . S
Eu651 O668 2.430 . S
Eu651 O669 2.670 . S
Eu651 O670 2.394 . S
C652 C650 1.500 . S
C652 C653 1.377 . S
C652 C657 1.377 . S
C653 C652 1.377 . S
C653 C654 1.395 . S
C653 H676 0.931 . S
C654 C653 1.395 . S
C654 C655 1.383 . S
C654 H677 0.931 . S
C655 C654 1.383 . S
C655 C656 1.394 . S
C656 C655 1.394 . S
C656 C657 1.378 . S
C656 H678 0.931 . S
C657 C652 1.377 . S
C657 C656 1.378 . S
C657 H679 0.931 . S
C658 O668 1.259 . S
C658 O669 1.270 . S
C659 O670 1.251 . S
C659 O671 1.251 . S
O660 C640 1.257 . S
O660 Eu641 2.473 1_455 S
O661 C640 1.260 . S
O661 Eu641 2.480 1_455 S
O662 Eu641 2.430 . S
O662 C648 1.259 . S
O663 Eu641 2.670 . S
O663 C648 1.270 . S
O663 Eu651 2.355 . S
O664 Eu641 2.394 . S
O664 C649 1.251 . S
O665 C649 1.251 . S
O665 Eu651 2.374 . S
O666 C650 1.257 . S
O666 Eu651 2.473 . S
O667 C650 1.260 . S
O667 Eu651 2.480 . S
O668 Eu651 2.430 . S
O668 C658 1.259 . S
O669 Eu641 2.355 . S
O669 Eu651 2.670 . S
O669 C658 1.270 . S
O670 Eu651 2.394 . S
O670 C659 1.251 . S
O671 Eu641 2.374 . S
O671 C659 1.251 . S
H672 C643 0.931 . S
H673 C644 0.931 . S
H674 C646 0.931 . S
H675 C647 0.931 . S
H676 C653 0.931 . S
H677 C654 0.931 . S
H678 C656 0.931 . S
H679 C657 0.931 . S
C680 Eu681 2.835 . S
C680 C682 1.500 . S
C680 O700 1.257 . S
C680 O701 1.260 . S
Eu681 C680 2.835 . S
Eu681 O700 2.473 . S
Eu681 O701 2.480 . S
Eu681 O702 2.430 . S
Eu681 O703 2.670 . S
Eu681 O704 2.394 . S
Eu681 O709 2.355 . S
Eu681 O711 2.374 . S
C682 C680 1.500 . S
C682 C683 1.377 . S
C682 C687 1.377 . S
C683 C682 1.377 . S
C683 C684 1.395 1_565 S
C683 H712 0.931 . S
C684 C683 1.395 1_545 S
C684 C685 1.383 . S
C684 H713 0.931 . S
C685 C684 1.383 . S
C685 C686 1.394 . S
C686 C685 1.394 . S
C686 C687 1.378 1_545 S
C686 H714 0.931 . S
C687 C682 1.377 . S
C687 C686 1.378 1_565 S
C687 H715 0.931 . S
C688 O702 1.259 . S
C688 O703 1.270 . S
C689 O704 1.251 . S
C689 O705 1.251 . S
C690 Eu691 2.835 . S
C690 C692 1.500 . S
C690 O706 1.257 . S
C690 O707 1.260 . S
Eu691 C690 2.835 . S
Eu691 O703 2.355 . S
Eu691 O705 2.374 . S
Eu691 O706 2.473 . S
Eu691 O707 2.480 . S
Eu691 O708 2.430 . S
Eu691 O709 2.670 . S
Eu691 O710 2.394 . S
C692 C690 1.500 . S
C692 C693 1.377 . S
C692 C697 1.377 . S
C693 C692 1.377 . S
C693 C694 1.395 . S
C693 H716 0.931 . S
C694 C693 1.395 . S
C694 C695 1.383 . S
C694 H717 0.931 . S
C695 C694 1.383 . S
C695 C696 1.394 . S
C696 C695 1.394 . S
C696 C697 1.378 . S
C696 H718 0.931 . S
C697 C692 1.377 . S
C697 C696 1.378 . S
C697 H719 0.931 . S
C698 O708 1.259 . S
C698 O709 1.270 . S
C699 O710 1.251 . S
C699 O711 1.251 . S
O700 C680 1.257 . S
O700 Eu681 2.473 . S
O701 C680 1.260 . S
O701 Eu681 2.480 . S
O702 Eu681 2.430 . S
O702 C688 1.259 . S
O703 Eu681 2.670 . S
O703 C688 1.270 . S
O703 Eu691 2.355 . S
O704 Eu681 2.394 . S
O704 C689 1.251 . S
O705 C689 1.251 . S
O705 Eu691 2.374 . S
O706 C690 1.257 . S
O706 Eu691 2.473 . S
O707 C690 1.260 . S
O707 Eu691 2.480 . S
O708 Eu691 2.430 . S
O708 C698 1.259 . S
O709 Eu681 2.355 . S
O709 Eu691 2.670 . S
O709 C698 1.270 . S
O710 Eu691 2.394 . S
O710 C699 1.251 . S
O711 Eu681 2.374 . S
O711 C699 1.251 . S
H712 C683 0.931 . S
H713 C684 0.931 . S
H714 C686 0.931 . S
H715 C687 0.931 . S
H716 C693 0.931 . S
H717 C694 0.931 . S
H718 C696 0.931 . S
H719 C697 0.931 . S
C9 C85 1.692 . S
C5 C49 1.693 . S
C45 C89 1.692 . S
C129 C165 1.692 . S
C205 C169 1.692 . S
C209 C125 1.693 . S
C325 C249 1.693 . S
C245 C289 1.692 . S
C329 C285 1.692 . S
C405 C369 1.692 . S
C409 C445 1.692 . S
C365 C449 1.692 . S
C489 C565 1.692 . S
C485 C529 1.692 . S
C525 C569 1.692 . S
C645 C609 1.693 . S
C685 C649 1.692 . S
C605 C689 1.692 . S
C8 C208 1.674 1_554 S
C128 C48 1.674 1_556 S
C168 C88 1.674 1_556 S
C248 C448 1.674 . S
C288 C368 1.674 . S
C408 C328 1.674 . S
C488 C688 1.674 . S
C608 C528 1.674 . S
C648 C568 1.674 . S
C418 C18 4.890 1_565 S
C58 C458 4.890 . S
C378 C98 4.890 . S
C138 C578 4.890 1_455 S
C178 C498 4.890 . S
C538 C218 4.890 . S
C658 C258 4.890 1_655 S
C298 C698 4.890 . S
C338 C618 4.890 1_565 S
C95 C19 2.645 . S
C15 C59 2.644 . S
C99 C55 2.644 . S
C175 C139 2.645 . S
C215 C179 2.644 . S
C219 C135 2.644 . S
C335 C259 2.644 . S
C299 C255 2.645 . S
C295 C339 2.644 . S
C379 C415 2.644 . S
C419 C455 2.644 1_565 S
C375 C459 2.644 . S
C499 C575 2.644 . S
C539 C495 2.644 . S
C535 C579 2.644 1_455 S
C619 C655 2.644 . S
C659 C695 2.644 . S
C615 C699 2.645 . S
