# Generated by pormake.
# Topology umb, (4)-cn, num edge types: 1
# Building blocks:
#     Node 0, Type 0, BuildingBlock: NAWXER_clean_sbu_0, # of connection points: 4
#     Node 1, Type 0, BuildingBlock: NAWXER_clean_sbu_0, # of connection points: 4
#     Node 2, Type 0, BuildingBlock: NAWXER_clean_sbu_0, # of connection points: 4
#     Node 3, Type 0, BuildingBlock: NAWXER_clean_sbu_0, # of connection points: 4
#     Node 4, Type 0, BuildingBlock: NAWXER_clean_sbu_0, # of connection points: 4
#     Node 5, Type 0, BuildingBlock: NAWXER_clean_sbu_0, # of connection points: 4
#     Node 6, Type 0, BuildingBlock: NAWXER_clean_sbu_0, # of connection points: 4
#     Node 7, Type 0, BuildingBlock: NAWXER_clean_sbu_0, # of connection points: 4
#     Node 8, Type 0, BuildingBlock: NAWXER_clean_sbu_0, # of connection points: 4
#     Node 9, Type 0, BuildingBlock: NAWXER_clean_sbu_0, # of connection points: 4
#     Node 10, Type 0, BuildingBlock: NAWXER_clean_sbu_0, # of connection points: 4
#     Node 11, Type 0, BuildingBlock: NAWXER_clean_sbu_0, # of connection points: 4
#     Edge 12, Type (0, 0), BuildingBlock: MIFKUJ_clean_linker_0, # of connection points: 2
#     Edge 13, Type (0, 0), BuildingBlock: MIFKUJ_clean_linker_0, # of connection points: 2
#     Edge 14, Type (0, 0), BuildingBlock: MIFKUJ_clean_linker_0, # of connection points: 2
#     Edge 15, Type (0, 0), BuildingBlock: MIFKUJ_clean_linker_0, # of connection points: 2
#     Edge 16, Type (0, 0), BuildingBlock: MIFKUJ_clean_linker_0, # of connection points: 2
#     Edge 17, Type (0, 0), BuildingBlock: MIFKUJ_clean_linker_0, # of connection points: 2
#     Edge 18, Type (0, 0), BuildingBlock: MIFKUJ_clean_linker_0, # of connection points: 2
#     Edge 19, Type (0, 0), BuildingBlock: MIFKUJ_clean_linker_0, # of connection points: 2
#     Edge 20, Type (0, 0), BuildingBlock: MIFKUJ_clean_linker_0, # of connection points: 2
#     Edge 21, Type (0, 0), BuildingBlock: MIFKUJ_clean_linker_0, # of connection points: 2
#     Edge 22, Type (0, 0), BuildingBlock: MIFKUJ_clean_linker_0, # of connection points: 2
#     Edge 23, Type (0, 0), BuildingBlock: MIFKUJ_clean_linker_0, # of connection points: 2
#     Edge 24, Type (0, 0), BuildingBlock: MIFKUJ_clean_linker_0, # of connection points: 2
#     Edge 25, Type (0, 0), BuildingBlock: MIFKUJ_clean_linker_0, # of connection points: 2
#     Edge 26, Type (0, 0), BuildingBlock: MIFKUJ_clean_linker_0, # of connection points: 2
#     Edge 27, Type (0, 0), BuildingBlock: MIFKUJ_clean_linker_0, # of connection points: 2
#     Edge 28, Type (0, 0), BuildingBlock: MIFKUJ_clean_linker_0, # of connection points: 2
#     Edge 29, Type (0, 0), BuildingBlock: MIFKUJ_clean_linker_0, # of connection points: 2
#     Edge 30, Type (0, 0), BuildingBlock: MIFKUJ_clean_linker_0, # of connection points: 2
#     Edge 31, Type (0, 0), BuildingBlock: MIFKUJ_clean_linker_0, # of connection points: 2
#     Edge 32, Type (0, 0), BuildingBlock: MIFKUJ_clean_linker_0, # of connection points: 2
#     Edge 33, Type (0, 0), BuildingBlock: MIFKUJ_clean_linker_0, # of connection points: 2
#     Edge 34, Type (0, 0), BuildingBlock: MIFKUJ_clean_linker_0, # of connection points: 2
#     Edge 35, Type (0, 0), BuildingBlock: MIFKUJ_clean_linker_0, # of connection points: 2
# Relax obj value: 0.192
# Max RMSD: 0.212
# Mean RMSD: 0.211
data_MOF--net-umb--node1-NAWXER_clean_sbu_0--edge1-MIFKUJ_clean_linker_0
_symmetry_space_group_name_H-M    P1
_symmetry_Int_Tables_number       1
_symmetry_cell_setting            triclinic
loop_
_symmetry_equiv_pos_as_xyz
'x, y, z'
_cell_length_a     59.946713
_cell_length_b     59.973791
_cell_length_c     50.343197
_cell_angle_alpha  89.902342
_cell_angle_beta   90.437733
_cell_angle_gamma 120.13014
loop_
_atom_site_label
_atom_site_type_symbol
_atom_site_fract_x
_atom_site_fract_y
_atom_site_fract_z
_atom_type_partial_charge
C0 C 0.56774 0.24117 0.36334 0.0
C1 C 0.54944 0.15766 0.32988 0.0
O2 O 0.5837 0.2352 0.3539 0.0
Zn3 Zn 0.55928 0.20003 0.3456 0.0
O4 O 0.54381 0.2241 0.36479 0.0
Zn5 Zn 0.51925 0.18434 0.35522 0.0
O6 O 0.50816 0.16995 0.39167 0.0
O7 O 0.54931 0.18418 0.38442 0.0
O8 O 0.52929 0.15761 0.33845 0.0
O9 O 0.57096 0.17859 0.32964 0.0
O10 O 0.53733 0.20522 0.31532 0.0
O11 O 0.49684 0.18748 0.32762 0.0
C12 C 0.52991 0.17352 0.39993 0.0
C13 C 0.51429 0.20029 0.31053 0.0
C14 C 0.29461 0.50485 0.71618 0.0
C15 C 0.36401 0.4924 0.68286 0.0
O16 O 0.31451 0.5252 0.70781 0.0
Zn17 Zn 0.35095 0.53749 0.69057 0.0
O18 O 0.29321 0.48298 0.71462 0.0
Zn19 Zn 0.32761 0.49685 0.69885 0.0
O20 O 0.35093 0.52051 0.73134 0.0
O21 O 0.3733 0.56095 0.7179 0.0
O22 O 0.3422 0.47494 0.6913 0.0
O23 O 0.3689 0.51576 0.68171 0.0
O24 O 0.34697 0.55054 0.65674 0.0
O25 O 0.32153 0.50841 0.66038 0.0
C26 C 0.367 0.54432 0.73631 0.0
C27 C 0.32967 0.52922 0.64693 0.0
C28 C 0.83329 0.36599 0.05199 0.0
C29 C 0.82349 0.32016 0.96662 0.0
O30 O 0.83352 0.34502 0.04892 0.0
Zn31 Zn 0.83168 0.3434 1.0097 0.0
O32 O 0.83231 0.378 0.03132 0.0
Zn33 Zn 0.83035 0.37362 0.9889 0.0
O34 O 0.79831 0.37228 0.9811 0.0
O35 O 0.79409 0.33826 1.00272 0.0
O36 O 0.82528 0.34227 0.96415 0.0
O37 O 0.82696 0.31317 0.98948 0.0
O38 O 0.86881 0.37475 0.9979 0.0
O39 O 0.86161 0.40291 0.977 0.0
C40 C 0.78395 0.35017 0.99129 0.0
C41 C 0.87739 0.39637 0.98577 0.0
C42 C 0.47446 0.84556 0.39381 0.0
C43 C 0.50638 0.83969 0.30688 0.0
O44 O 0.49535 0.84604 0.38841 0.0
Zn45 Zn 0.49316 0.84736 0.35008 0.0
O46 O 0.46088 0.84709 0.37481 0.0
Zn47 Zn 0.46312 0.84984 0.33194 0.0
O48 O 0.4308 0.82124 0.3222 0.0
O49 O 0.45767 0.81099 0.34159 0.0
O50 O 0.48704 0.84324 0.30509 0.0
O51 O 0.51711 0.84194 0.32936 0.0
O52 O 0.50231 0.88665 0.34199 0.0
O53 O 0.46705 0.88234 0.32333 0.0
C54 C 0.4358 0.80418 0.33044 0.0
C55 C 0.48982 0.89683 0.33173 0.0
C56 C 0.65725 0.48206 0.63054 0.0
C57 C 0.61488 0.46754 0.71873 0.0
O58 O 0.66349 0.49819 0.64949 0.0
Zn59 Zn 0.63555 0.47683 0.67462 0.0
O60 O 0.63682 0.45997 0.63283 0.0
Zn61 Zn 0.60736 0.43975 0.66164 0.0
O62 O 0.57624 0.43374 0.64516 0.0
O63 O 0.60044 0.47402 0.65848 0.0
O64 O 0.60314 0.44909 0.70198 0.0
O65 O 0.63511 0.48807 0.71142 0.0
O66 O 0.64317 0.44608 0.68394 0.0
O67 O 0.60995 0.41008 0.66847 0.0
C68 C 0.57931 0.45609 0.64819 0.0
C69 C 0.63133 0.42154 0.68092 0.0
C70 C 0.18595 0.61827 0.06281 0.0
C71 C 0.19453 0.65741 0.97541 0.0
O72 O 0.18462 0.63817 0.05689 0.0
Zn73 Zn 0.1895 0.63773 1.01888 0.0
O74 O 0.18984 0.60594 0.04434 0.0
Zn75 Zn 0.195 0.60866 1.00203 0.0
O76 O 0.22914 0.61344 0.9982 0.0
O77 O 0.22911 0.6472 1.01544 0.0
O78 O 0.19609 0.63686 0.97435 0.0
O79 O 0.1905 0.66496 0.9975 0.0
O80 O 0.1546 0.6036 1.00589 0.0
O81 O 0.16619 0.57669 0.98993 0.0
C82 C 0.24153 0.6364 1.00701 0.0
C83 C 0.14854 0.58171 0.9955 0.0
C84 C 0.75712 0.42409 0.36303 0.0
C85 C 0.8465 0.45304 0.38432 0.0
O86 O 0.76646 0.41068 0.37215 0.0
Zn87 Zn 0.80172 0.43769 0.37266 0.0
O88 O 0.7722 0.44761 0.35651 0.0
Zn89 Zn 0.81241 0.47513 0.35771 0.0
O90 O 0.8208 0.48133 0.31924 0.0
O91 O 0.81104 0.44231 0.33161 0.0
O92 O 0.84358 0.47101 0.37392 0.0
O93 O 0.82704 0.43071 0.38746 0.0
O94 O 0.79917 0.46282 0.40112 0.0
O95 O 0.81036 0.50005 0.38212 0.0
C96 C 0.81791 0.45935 0.31337 0.0
C97 C 0.8021 0.48546 0.40247 0.0
C98 C 0.35188 0.74195 0.71599 0.0
C99 C 0.40354 0.8353 0.72654 0.0
O100 O 0.37453 0.75507 0.72559 0.0
Zn101 Zn 0.37807 0.78872 0.72091 0.0
O102 O 0.34065 0.75361 0.70639 0.0
Zn103 Zn 0.34876 0.7926 0.70164 0.0
O104 O 0.3491 0.79662 0.66348 0.0
O105 O 0.38272 0.79472 0.67857 0.0
O106 O 0.38218 0.82835 0.71423 0.0
O107 O 0.4086 0.81827 0.73475 0.0
O108 O 0.34823 0.78623 0.7465 0.0
O109 O 0.3205 0.79105 0.72156 0.0
C110 C 0.37034 0.79742 0.6591 0.0
C111 C 0.32733 0.78705 0.74421 0.0
C112 C 0.54199 0.38741 0.99068 0.0
C113 C 0.52232 0.34886 0.08153 0.0
O114 O 0.52022 0.36908 0.99838 0.0
Zn115 Zn 0.52972 0.36899 0.03621 0.0
O116 O 0.56044 0.39829 1.00766 0.0
Zn117 Zn 0.56792 0.39535 0.04894 0.0
O118 O 0.59512 0.38793 0.0462 0.0
O119 O 0.55757 0.35655 0.03137 0.0
O120 O 0.5452 0.36797 0.07863 0.0
O121 O 0.50616 0.34319 0.06255 0.0
O122 O 0.53593 0.40599 0.04977 0.0
O123 O 0.57661 0.42839 0.06269 0.0
C124 C 0.58166 0.36559 0.03608 0.0
C125 C 0.55497 0.42695 0.05901 0.0
C126 C 0.15205 0.52991 0.33322 0.0
C127 C 0.17321 0.51658 0.42382 0.0
O128 O 0.15442 0.51115 0.34155 0.0
Zn129 Zn 0.15911 0.52073 0.37889 0.0
O130 O 0.15272 0.54636 0.34993 0.0
Zn131 Zn 0.15857 0.55378 0.39196 0.0
O132 O 0.18806 0.58739 0.39165 0.0
O133 O 0.19526 0.55698 0.37654 0.0
O134 O 0.17001 0.53608 0.42172 0.0
O135 O 0.16793 0.50154 0.40405 0.0
O136 O 0.12147 0.51384 0.39035 0.0
O137 O 0.12753 0.55133 0.40419 0.0
C138 C 0.2034 0.58076 0.38198 0.0
C139 C 0.11239 0.52758 0.39967 0.0
C140 C 0.66085 0.16642 0.75057 0.0
C141 C 0.61414 0.15219 0.66461 0.0
O142 O 0.66798 0.16226 0.72824 0.0
Zn143 Zn 0.63694 0.15547 0.70741 0.0
O144 O 0.63812 0.16318 0.75256 0.0
Zn145 Zn 0.60536 0.15388 0.7276 0.0
O146 O 0.57839 0.1217 0.7406 0.0
O147 O 0.60741 0.11702 0.71858 0.0
O148 O 0.60111 0.15164 0.68496 0.0
O149 O 0.63605 0.15402 0.66826 0.0
O150 O 0.63836 0.19183 0.71406 0.0
O151 O 0.60253 0.18358 0.73467 0.0
C152 C 0.58611 0.10711 0.73142 0.0
C153 C 0.6243 0.19973 0.725 0.0
C154 C 0.4485 0.63093 1.00404 0.0
C155 C 0.47821 0.67353 0.09074 0.0
O156 O 0.47236 0.64836 1.00518 0.0
Zn157 Zn 0.50067 0.67414 0.03276 0.0
O158 O 0.43505 0.62435 1.02512 0.0
Zn159 Zn 0.46245 0.64903 0.04883 0.0
O160 O 0.4691 0.68419 0.03163 0.0
O161 O 0.50878 0.70682 1.01572 0.0
O162 O 0.45624 0.65392 0.08578 0.0
O163 O 0.49567 0.68202 0.07286 0.0
O164 O 0.52528 0.66176 0.03459 0.0
O165 O 0.48742 0.63385 0.05109 0.0
C166 C 0.48663 0.7042 1.01986 0.0
C167 C 0.5105 0.63994 0.04512 0.0
H168 H 0.50056 0.16457 0.44535 0.0
H169 H 0.5114 0.15751 0.49072 0.0
H170 H 0.57994 0.15984 0.46137 0.0
H171 H 0.56916 0.16649 0.4165 0.0
H172 H 0.55903 0.12368 0.49758 0.0
H173 H 0.58152 0.21267 0.49159 0.0
H174 H 0.57342 0.24858 0.48359 0.0
H175 H 0.5171 0.22082 0.54567 0.0
H176 H 0.52463 0.18452 0.5538 0.0
H177 H 0.63587 0.15348 0.61597 0.0
H178 H 0.61883 0.15406 0.57165 0.0
H179 H 0.55181 0.15035 0.6071 0.0
H180 H 0.56874 0.15003 0.65124 0.0
H181 H 0.5692 0.18528 0.56869 0.0
H182 H 0.54929 0.09743 0.57626 0.0
H183 H 0.55858 0.06228 0.58405 0.0
H184 H 0.61132 0.08867 0.51871 0.0
H185 H 0.6026 0.12421 0.51075 0.0
C186 C 0.51772 0.16322 0.44857 0.0
C187 C 0.53407 0.16637 0.42723 0.0
C188 C 0.52405 0.15937 0.47457 0.0
C189 C 0.54679 0.15852 0.47972 0.0
C190 C 0.56238 0.1605 0.45817 0.0
C191 C 0.55619 0.16445 0.4324 0.0
C192 C 0.55513 0.15649 0.50739 0.0
C193 C 0.56141 0.1373 0.51304 0.0
C194 C 0.55795 0.17392 0.52791 0.0
C195 C 0.55341 0.19572 0.52308 0.0
C196 C 0.56726 0.21411 0.50339 0.0
C197 C 0.5628 0.23455 0.49885 0.0
C198 C 0.5447 0.23694 0.51405 0.0
C199 C 0.53107 0.21892 0.53387 0.0
C200 C 0.53543 0.19841 0.53846 0.0
C201 C 0.61744 0.15265 0.61434 0.0
C202 C 0.60372 0.15162 0.63733 0.0
C203 C 0.60764 0.1529 0.58892 0.0
C204 C 0.58383 0.15203 0.58583 0.0
C205 C 0.57018 0.15105 0.60877 0.0
C206 C 0.57991 0.15076 0.63411 0.0
C207 C 0.57326 0.15256 0.55883 0.0
C208 C 0.56662 0.17152 0.55331 0.0
C209 C 0.57025 0.13501 0.53839 0.0
C210 C 0.57547 0.11362 0.54308 0.0
C211 C 0.56302 0.09585 0.56368 0.0
C212 C 0.56815 0.07584 0.5681 0.0
C213 C 0.58558 0.07328 0.55192 0.0
C214 C 0.59785 0.0907 0.53124 0.0
C215 C 0.5928 0.11077 0.52676 0.0
H216 H 0.58953 0.05777 0.55538 0.0
H217 H 0.54127 0.25278 0.51052 0.0
H218 H 0.34763 0.51546 0.78094 0.0
H219 H 0.36 0.52871 0.82699 0.0
H220 H 0.41879 0.60394 0.80094 0.0
H221 H 0.40628 0.59094 0.75447 0.0
H222 H 0.43435 0.57936 0.84165 0.0
H223 H 0.36736 0.59988 0.82282 0.0
H224 H 0.32411 0.58874 0.80634 0.0
H225 H 0.28923 0.52978 0.86566 0.0
H226 H 0.33229 0.5403 0.88225 0.0
H227 H 0.46791 0.65253 0.95642 0.0
H228 H 0.45171 0.63544 0.91243 0.0
H229 H 0.38738 0.56816 0.94683 0.0
H230 H 0.40342 0.58569 0.99167 0.0
H231 H 0.37272 0.58493 0.90285 0.0
H232 H 0.4375 0.56396 0.92326 0.0
H233 H 0.47971 0.57144 0.93911 0.0
H234 H 0.51755 0.62686 0.87711 0.0
H235 H 0.47556 0.61999 0.8611 0.0
C236 C 0.36336 0.53479 0.78488 0.0
C237 C 0.37603 0.55217 0.76399 0.0
C238 C 0.37029 0.54233 0.81126 0.0
C239 C 0.39014 0.56732 0.81731 0.0
C240 C 0.40336 0.58456 0.79658 0.0
C241 C 0.3962 0.57713 0.7701 0.0
C242 C 0.39683 0.57542 0.84538 0.0
C243 C 0.42106 0.58093 0.85498 0.0
C244 C 0.37896 0.57637 0.86291 0.0
C245 C 0.35306 0.57071 0.85361 0.0
C246 C 0.35047 0.58444 0.83227 0.0
C247 C 0.32599 0.57825 0.82291 0.0
C248 C 0.30394 0.55848 0.83487 0.0
C249 C 0.30633 0.54504 0.85638 0.0
C250 C 0.33077 0.55114 0.86579 0.0
C251 C 0.45032 0.63404 0.95481 0.0
C252 C 0.43719 0.62021 0.97761 0.0
C253 C 0.44107 0.62429 0.92955 0.0
C254 C 0.41869 0.60024 0.92629 0.0
C255 C 0.40485 0.58669 0.94892 0.0
C256 C 0.41403 0.59665 0.97448 0.0
C257 C 0.41056 0.58942 0.8991 0.0
C258 C 0.38603 0.5833 0.88962 0.0
C259 C 0.42802 0.5875 0.88169 0.0
C260 C 0.45336 0.59159 0.8911 0.0
C261 C 0.45483 0.57788 0.91311 0.0
C262 C 0.47873 0.58199 0.92211 0.0
C263 C 0.50132 0.59966 0.90916 0.0
C264 C 0.50004 0.61319 0.88713 0.0
C265 C 0.47618 0.60917 0.87806 0.0
H266 H 0.51981 0.60282 0.91616 0.0
H267 H 0.28502 0.55356 0.82748 0.0
H268 H 0.82332 0.48518 0.26591 0.0
H269 H 0.82798 0.47168 0.22111 0.0
H270 H 0.82644 0.40459 0.25421 0.0
H271 H 0.8219 0.41783 0.29857 0.0
H272 H 0.86308 0.42591 0.21679 0.0
H273 H 0.7732 0.40046 0.22425 0.0
H274 H 0.73663 0.40754 0.23188 0.0
H275 H 0.76095 0.46089 0.16684 0.0
H276 H 0.79789 0.45437 0.15905 0.0
H277 H 0.83455 0.3463 0.10138 0.0
H278 H 0.8338 0.36396 0.14511 0.0
H279 H 0.8318 0.42751 0.10731 0.0
H280 H 0.83223 0.40993 0.06382 0.0
H281 H 0.7984 0.41017 0.14645 0.0
H282 H 0.8871 0.43468 0.13738 0.0
H283 H 0.92383 0.42797 0.12927 0.0
H284 H 0.90266 0.37762 0.1967 0.0
H285 H 0.86554 0.38372 0.20498 0.0
C286 C 0.82414 0.46766 0.26363 0.0
C287 C 0.82208 0.45259 0.28596 0.0
C288 C 0.82669 0.45987 0.23797 0.0
C289 C 0.82737 0.43692 0.23411 0.0
C290 C 0.82599 0.42232 0.25649 0.0
C291 C 0.82326 0.42994 0.28195 0.0
C292 C 0.82892 0.42757 0.20694 0.0
C293 C 0.84879 0.42228 0.2015 0.0
C294 C 0.81067 0.42326 0.18664 0.0
C295 C 0.78847 0.42716 0.19127 0.0
C296 C 0.77087 0.41386 0.21172 0.0
C297 C 0.75005 0.41774 0.21605 0.0
C298 C 0.74651 0.43471 0.19991 0.0
C299 C 0.76375 0.44779 0.17936 0.0
C300 C 0.78462 0.444 0.17497 0.0
C301 C 0.83405 0.36408 0.10237 0.0
C302 C 0.83352 0.37664 0.07893 0.0
C303 C 0.8337 0.37425 0.12745 0.0
C304 C 0.83294 0.39729 0.1297 0.0
C305 C 0.83234 0.40974 0.10629 0.0
C306 C 0.8327 0.39964 0.08132 0.0
C307 C 0.83249 0.40835 0.15629 0.0
C308 C 0.8128 0.41394 0.16165 0.0
C309 C 0.851 0.41305 0.17646 0.0
C310 C 0.87338 0.40945 0.17164 0.0
C311 C 0.89016 0.42202 0.15036 0.0
C312 C 0.91107 0.41835 0.14575 0.0
C313 C 0.91554 0.40233 0.16242 0.0
C314 C 0.89915 0.39 0.18378 0.0
C315 C 0.87818 0.39356 0.18846 0.0
H316 H 0.93173 0.39952 0.15881 0.0
H317 H 0.73038 0.43769 0.20329 0.0
H318 H 0.50104 0.84958 0.43988 0.0
H319 H 0.48478 0.84242 0.48538 0.0
H320 H 0.4099 0.82485 0.45589 0.0
H321 H 0.42623 0.83274 0.41054 0.0
H322 H 0.42214 0.85491 0.49778 0.0
H323 H 0.42235 0.77514 0.47957 0.0
H324 H 0.44296 0.75039 0.46517 0.0
H325 H 0.50037 0.78631 0.52651 0.0
H326 H 0.48032 0.81156 0.54077 0.0
H327 H 0.34678 0.79663 0.61188 0.0
H328 H 0.36561 0.80562 0.56748 0.0
H329 H 0.43802 0.81943 0.60077 0.0
H330 H 0.41907 0.80961 0.64499 0.0
H331 H 0.42918 0.79306 0.55787 0.0
H332 H 0.42751 0.86951 0.57983 0.0
H333 H 0.40856 0.89559 0.59442 0.0
H334 H 0.35633 0.86846 0.52782 0.0
H335 H 0.37474 0.84192 0.51301 0.0
C336 C 0.48113 0.84426 0.4431 0.0
C337 C 0.46498 0.84185 0.42155 0.0
C338 C 0.47178 0.83997 0.46914 0.0
C339 C 0.44596 0.83272 0.47415 0.0
C340 C 0.42989 0.83045 0.45263 0.0
C341 C 0.43928 0.835 0.42666 0.0
C342 C 0.43568 0.8279 0.50174 0.0
C343 C 0.42339 0.84113 0.51079 0.0
C344 C 0.4381 0.81067 0.5192 0.0
C345 C 0.4501 0.79546 0.51085 0.0
C346 C 0.43955 0.77793 0.48965 0.0
C347 C 0.45107 0.76378 0.48161 0.0
C348 C 0.47302 0.76685 0.49485 0.0
C349 C 0.48342 0.784 0.51622 0.0
C350 C 0.47198 0.79822 0.52428 0.0
C351 C 0.3667 0.80154 0.60973 0.0
C352 C 0.3814 0.80241 0.63201 0.0
C353 C 0.37752 0.80686 0.58433 0.0
C354 C 0.40343 0.81366 0.58072 0.0
C355 C 0.41803 0.81427 0.60295 0.0
C356 C 0.40714 0.80866 0.62827 0.0
C357 C 0.41523 0.81977 0.5538 0.0
C358 C 0.42792 0.80688 0.54492 0.0
C359 C 0.41346 0.83758 0.53664 0.0
C360 C 0.40235 0.85353 0.54546 0.0
C361 C 0.41185 0.86895 0.5684 0.0
C362 C 0.40123 0.88384 0.5767 0.0
C363 C 0.38121 0.88363 0.5621 0.0
C364 C 0.37181 0.86857 0.53913 0.0
C365 C 0.38235 0.85362 0.53076 0.0
H366 H 0.37301 0.89518 0.56855 0.0
H367 H 0.48191 0.75587 0.48861 0.0
H368 H 0.58423 0.43003 0.97125 0.0
H369 H 0.59434 0.44437 0.92543 0.0
H370 H 0.52199 0.37977 0.89955 0.0
H371 H 0.51166 0.36503 0.94586 0.0
H372 H 0.56249 0.38697 0.86758 0.0
H373 H 0.52995 0.43981 0.90117 0.0
H374 H 0.52691 0.46963 0.93262 0.0
H375 H 0.60604 0.52625 0.91815 0.0
H376 H 0.60967 0.49661 0.88688 0.0
H377 H 0.56794 0.43059 0.73678 0.0
H378 H 0.55414 0.41897 0.78261 0.0
H379 H 0.62642 0.48242 0.81039 0.0
H380 H 0.64042 0.4944 0.76417 0.0
H381 H 0.58526 0.47567 0.84119 0.0
H382 H 0.61774 0.4236 0.80667 0.0
H383 H 0.6204 0.39488 0.7735 0.0
H384 H 0.54242 0.3366 0.79018 0.0
H385 H 0.5388 0.36545 0.82253 0.0
C386 C 0.57029 0.4188 0.95594 0.0
C387 C 0.54701 0.39632 0.96244 0.0
C388 C 0.57613 0.42715 0.92961 0.0
C389 C 0.55889 0.41337 0.90887 0.0
C390 C 0.53563 0.39082 0.91516 0.0
C391 C 0.52966 0.38247 0.94168 0.0
C392 C 0.56555 0.42254 0.88076 0.0
C393 C 0.56702 0.4062 0.86173 0.0
C394 C 0.57229 0.44795 0.87314 0.0
C395 C 0.57014 0.46589 0.89184 0.0
C396 C 0.54676 0.45854 0.90484 0.0
C397 C 0.54493 0.47543 0.92262 0.0
C398 C 0.56629 0.4998 0.92743 0.0
C399 C 0.58952 0.50736 0.91442 0.0
C400 C 0.59146 0.49053 0.89665 0.0
C401 C 0.58089 0.44234 0.75256 0.0
C402 C 0.60548 0.46331 0.74668 0.0
C403 C 0.57293 0.43559 0.77885 0.0
C404 C 0.58939 0.44944 0.80009 0.0
C405 C 0.61339 0.47131 0.79438 0.0
C406 C 0.62139 0.47818 0.76793 0.0
C407 C 0.58203 0.44006 0.82801 0.0
C408 C 0.58059 0.45639 0.84702 0.0
C409 C 0.57545 0.41467 0.83561 0.0
C410 C 0.57788 0.39688 0.81685 0.0
C411 C 0.60103 0.40478 0.80308 0.0
C412 C 0.60269 0.38851 0.78434 0.0
C413 C 0.58159 0.36395 0.77972 0.0
C414 C 0.55874 0.35566 0.79376 0.0
C415 C 0.55683 0.37202 0.81221 0.0
H416 H 0.583 0.35132 0.76534 0.0
H417 H 0.56483 0.51284 0.9412 0.0
H418 H 0.14183 0.56496 0.31015 0.0
H419 H 0.14576 0.57712 0.26352 0.0
H420 H 0.16478 0.51863 0.24413 0.0
H421 H 0.16115 0.50644 0.29114 0.0
H422 H 0.19844 0.56519 0.22208 0.0
H423 H 0.10686 0.51092 0.22662 0.0
H424 H 0.06377 0.49533 0.2457 0.0
H425 H 0.07026 0.5689 0.23101 0.0
H426 H 0.1136 0.5851 0.21227 0.0
H427 H 0.19159 0.57877 0.0822 0.0
H428 H 0.18447 0.56203 0.12747 0.0
H429 H 0.16499 0.61906 0.15172 0.0
H430 H 0.17198 0.63593 0.10631 0.0
H431 H 0.1307 0.5712 0.17066 0.0
H432 H 0.22257 0.626 0.1681 0.0
H433 H 0.26651 0.64265 0.15086 0.0
H434 H 0.25984 0.56864 0.16277 0.0
H435 H 0.21567 0.55141 0.17969 0.0
C436 C 0.14651 0.55438 0.29599 0.0
C437 C 0.15114 0.53468 0.30442 0.0
C438 C 0.14869 0.56135 0.26926 0.0
C439 C 0.15542 0.5487 0.25027 0.0
C440 C 0.15954 0.52863 0.25846 0.0
C441 C 0.15727 0.52156 0.28529 0.0
C442 C 0.15923 0.55735 0.22214 0.0
C443 C 0.18346 0.56602 0.21063 0.0
C444 C 0.13993 0.55916 0.20751 0.0
C445 C 0.1136 0.54929 0.21822 0.0
C446 C 0.09918 0.52383 0.2276 0.0
C447 C 0.07469 0.51488 0.23835 0.0
C448 C 0.06431 0.53113 0.23962 0.0
C449 C 0.07834 0.55634 0.23003 0.0
C450 C 0.10286 0.56541 0.21932 0.0
C451 C 0.18589 0.58787 0.09714 0.0
C452 C 0.18242 0.60876 0.09059 0.0
C453 C 0.18189 0.57829 0.12307 0.0
C454 C 0.17436 0.58939 0.14306 0.0
C455 C 0.1708 0.6102 0.13661 0.0
C456 C 0.17491 0.61989 0.11067 0.0
C457 C 0.16993 0.57905 0.17059 0.0
C458 C 0.1456 0.57014 0.18201 0.0
C459 C 0.18915 0.57704 0.18516 0.0
C460 C 0.21568 0.58733 0.17487 0.0
C461 C 0.23036 0.6132 0.16679 0.0
C462 C 0.25533 0.62276 0.15713 0.0
C463 C 0.26593 0.6067 0.15565 0.0
C464 C 0.25159 0.58105 0.16388 0.0
C465 C 0.22658 0.57138 0.17351 0.0
H466 H 0.28528 0.61415 0.14822 0.0
H467 H 0.04537 0.52417 0.24799 0.0
H468 H 0.73136 0.44864 0.34658 0.0
H469 H 0.68609 0.43523 0.35485 0.0
H470 H 0.67507 0.36496 0.39052 0.0
H471 H 0.7199 0.37805 0.38246 0.0
H472 H 0.64095 0.39193 0.33824 0.0
H473 H 0.64568 0.35462 0.44686 0.0
H474 H 0.67455 0.37277 0.48557 0.0
H475 H 0.70307 0.44925 0.45542 0.0
H476 H 0.67354 0.43179 0.41704 0.0
H477 H 0.6169 0.28145 0.36587 0.0
H478 H 0.63068 0.32644 0.3745 0.0
H479 H 0.5518 0.30694 0.38684 0.0
H480 H 0.53761 0.26143 0.37811 0.0
H481 H 0.6088 0.3495 0.4253 0.0
H482 H 0.5573 0.3439 0.35525 0.0
H483 H 0.52942 0.3261 0.31565 0.0
H484 H 0.59445 0.33796 0.26961 0.0
H485 H 0.62267 0.35531 0.30902 0.0
C486 C 0.71917 0.43019 0.35596 0.0
C487 C 0.72919 0.41438 0.36399 0.0
C488 C 0.69345 0.42276 0.36085 0.0
C489 C 0.67761 0.39962 0.37409 0.0
C490 C 0.6873 0.38336 0.38103 0.0
C491 C 0.71283 0.39065 0.37605 0.0
C492 C 0.65027 0.39072 0.37937 0.0
C493 C 0.63354 0.38324 0.35743 0.0
C494 C 0.64028 0.38129 0.40489 0.0
C495 C 0.65703 0.3918 0.42899 0.0
C496 C 0.65758 0.37535 0.44866 0.0
C497 C 0.67418 0.38555 0.47059 0.0
C498 C 0.69052 0.41216 0.47305 0.0
C499 C 0.69026 0.42865 0.45361 0.0
C500 C 0.67352 0.41861 0.4318 0.0
C501 C 0.60245 0.28657 0.37069 0.0
C502 C 0.57621 0.26794 0.37112 0.0
C503 C 0.61033 0.31224 0.37571 0.0
C504 C 0.59217 0.31985 0.38122 0.0
C505 C 0.56599 0.30133 0.38262 0.0
C506 C 0.55803 0.27543 0.37763 0.0
C507 C 0.6017 0.34765 0.38329 0.0
C508 C 0.61551 0.35954 0.40657 0.0
C509 C 0.60876 0.36162 0.35927 0.0
C510 C 0.59217 0.35113 0.33518 0.0
C511 C 0.56567 0.34261 0.33673 0.0
C512 C 0.54979 0.33258 0.3143 0.0
C513 C 0.56019 0.33098 0.29014 0.0
C514 C 0.58647 0.33932 0.28835 0.0
C515 C 0.60244 0.34933 0.31075 0.0
H516 H 0.54785 0.32327 0.27283 0.0
H517 H 0.70346 0.42 0.48994 0.0
H518 H 0.37142 0.70988 0.72481 0.0
H519 H 0.3472 0.66265 0.72785 0.0
H520 H 0.27614 0.66255 0.71387 0.0
H521 H 0.30006 0.70958 0.71052 0.0
H522 H 0.28083 0.63096 0.76174 0.0
H523 H 0.2889 0.64547 0.6666 0.0
H524 H 0.31256 0.66404 0.62505 0.0
H525 H 0.3586 0.62877 0.63941 0.0
H526 H 0.33562 0.61048 0.68136 0.0
H527 H 0.2521 0.50018 0.69188 0.0
H528 H 0.24317 0.53534 0.69711 0.0
H529 H 0.28699 0.55749 0.77033 0.0
H530 H 0.29484 0.52181 0.76555 0.0
H531 H 0.2866 0.57732 0.69035 0.0
H532 H 0.28753 0.60776 0.80043 0.0
H533 H 0.26455 0.58868 0.84214 0.0
H534 H 0.19903 0.53188 0.79799 0.0
H535 H 0.22139 0.5509 0.75595 0.0
C536 C 0.35065 0.6998 0.72234 0.0
C537 C 0.33769 0.71345 0.71727 0.0
C538 C 0.33687 0.67288 0.72413 0.0
C539 C 0.30993 0.65928 0.72126 0.0
C540 C 0.29692 0.6728 0.71635 0.0
C541 C 0.31067 0.69964 0.71422 0.0
C542 C 0.29545 0.63084 0.7229 0.0
C543 C 0.28174 0.61904 0.74611 0.0
C544 C 0.29658 0.61551 0.70233 0.0
C545 C 0.31076 0.62692 0.67733 0.0
C546 C 0.30434 0.64201 0.66112 0.0
C547 C 0.31758 0.65241 0.63744 0.0
C548 C 0.33714 0.64767 0.62964 0.0
C549 C 0.3435 0.6325 0.64551 0.0
C550 C 0.33039 0.62213 0.66925 0.0
C551 C 0.25781 0.51112 0.71025 0.0
C552 C 0.2746 0.50871 0.72802 0.0
C553 C 0.25309 0.53159 0.71303 0.0
C554 C 0.26516 0.54968 0.73362 0.0
C555 C 0.27745 0.54397 0.7542 0.0
C556 C 0.28175 0.52325 0.75159 0.0
C557 C 0.27183 0.5769 0.72948 0.0
C558 C 0.28469 0.58881 0.70584 0.0
C559 C 0.26995 0.5922 0.74977 0.0
C560 C 0.25622 0.58073 0.77498 0.0
C561 C 0.26813 0.59134 0.79957 0.0
C562 C 0.25521 0.58052 0.82329 0.0
C563 C 0.23036 0.55907 0.82272 0.0
C564 C 0.21832 0.54845 0.79841 0.0
C565 C 0.23112 0.55923 0.77462 0.0
H566 H 0.22042 0.55068 0.84111 0.0
H567 H 0.34731 0.65568 0.61126 0.0
H568 H 0.56099 0.32096 1.00703 0.0
H569 H 0.58179 0.29593 0.99577 0.0
H570 H 0.64965 0.35003 0.0398 0.0
H571 H 0.6292 0.37492 0.05111 0.0
H572 H 0.62583 0.31216 0.96741 0.0
H573 H 0.67497 0.32196 0.07206 0.0
H574 H 0.6617 0.31604 0.11891 0.0
H575 H 0.58271 0.26681 0.09539 0.0
H576 H 0.5955 0.27203 0.04838 0.0
H577 H 0.75513 0.3702 0.97166 0.0
H578 H 0.70836 0.35024 0.97214 0.0
H579 H 0.70191 0.28133 1.00671 0.0
H580 H 0.74879 0.30134 1.00666 0.0
H581 H 0.67702 0.29675 0.03522 0.0
H582 H 0.67261 0.2764 0.94694 0.0
H583 H 0.68451 0.27962 0.89981 0.0
H584 H 0.67032 0.34252 0.88946 0.0
H585 H 0.65892 0.34015 0.93667 0.0
C586 C 0.58026 0.32732 1.01451 0.0
C587 C 0.59357 0.34994 0.02989 0.0
C588 C 0.59202 0.31298 1.00809 0.0
C589 C 0.61699 0.32088 1.01737 0.0
C590 C 0.63009 0.34326 0.03297 0.0
C591 C 0.6185 0.35764 0.03919 0.0
C592 C 0.63099 0.30773 1.00907 0.0
C593 C 0.63673 0.30819 0.98205 0.0
C594 C 0.64389 0.30089 1.02815 0.0
C595 C 0.63625 0.29731 0.05658 0.0
C596 C 0.6548 0.3096 0.07683 0.0
C597 C 0.64734 0.30644 0.10345 0.0
C598 C 0.62139 0.29104 0.11013 0.0
C599 C 0.60282 0.27874 0.09019 0.0
C600 C 0.61016 0.28182 0.06355 0.0
C601 C 0.74376 0.35069 0.97903 0.0
C602 C 0.75564 0.33756 0.98958 0.0
C603 C 0.71698 0.3391 0.97895 0.0
C604 C 0.70161 0.31412 0.98917 0.0
C605 C 0.7134 0.30054 0.99864 0.0
C606 C 0.7402 0.31214 0.99878 0.0
C607 C 0.67398 0.30451 0.99393 0.0
C608 C 0.66547 0.29946 1.02029 0.0
C609 C 0.65816 0.30639 0.97413 0.0
C610 C 0.66478 0.308 0.94548 0.0
C611 C 0.67213 0.29102 0.93468 0.0
C612 C 0.67881 0.2927 0.90792 0.0
C613 C 0.67812 0.31123 0.89163 0.0
C614 C 0.67076 0.32812 0.90209 0.0
C615 C 0.66413 0.32657 0.92887 0.0
H616 H 0.6833 0.3125 0.87091 0.0
H617 H 0.61566 0.28866 0.13075 0.0
H618 H 0.389 0.78319 0.30548 0.0
H619 H 0.35411 0.7385 0.30768 0.0
H620 H 0.4037 0.71815 0.35093 0.0
H621 H 0.4387 0.76294 0.34922 0.0
H622 H 0.34228 0.68713 0.29803 0.0
H623 H 0.37318 0.69098 0.40562 0.0
H624 H 0.40234 0.72414 0.43775 0.0
H625 H 0.38459 0.77889 0.40294 0.0
H626 H 0.35501 0.74592 0.37098 0.0
H627 H 0.24011 0.57347 0.35823 0.0
H628 H 0.28384 0.60653 0.34603 0.0
H629 H 0.2708 0.66516 0.37953 0.0
H630 H 0.22728 0.63236 0.39203 0.0
H631 H 0.31748 0.6727 0.39313 0.0
H632 H 0.2647 0.65346 0.31401 0.0
H633 H 0.23552 0.62544 0.27854 0.0
H634 H 0.29271 0.60696 0.25368 0.0
H635 H 0.3221 0.63456 0.28932 0.0
C636 C 0.39266 0.76914 0.31505 0.0
C637 C 0.41628 0.77668 0.32794 0.0
C638 C 0.37282 0.74354 0.3159 0.0
C639 C 0.37633 0.72522 0.32972 0.0
C640 C 0.40069 0.73216 0.34029 0.0
C641 C 0.42053 0.75778 0.33955 0.0
C642 C 0.35341 0.70109 0.33807 0.0
C643 C 0.33699 0.68357 0.31882 0.0
C644 C 0.34634 0.69704 0.36514 0.0
C645 C 0.36212 0.7161 0.38586 0.0
C646 C 0.37528 0.71 0.40509 0.0
C647 C 0.39193 0.72878 0.4232 0.0
C648 C 0.39543 0.75365 0.42224 0.0
C649 C 0.38191 0.75965 0.40359 0.0
C650 C 0.36517 0.74092 0.38554 0.0
C651 C 0.24663 0.59339 0.36319 0.0
C652 C 0.23023 0.60037 0.37599 0.0
C653 C 0.27156 0.61221 0.35614 0.0
C654 C 0.28037 0.63821 0.36173 0.0
C655 C 0.2643 0.64513 0.37511 0.0
C656 C 0.23942 0.62638 0.38215 0.0
C657 C 0.30606 0.65857 0.35308 0.0
C658 C 0.32302 0.67556 0.37238 0.0
C659 C 0.31314 0.66243 0.32596 0.0
C660 C 0.29546 0.64579 0.30457 0.0
C661 C 0.27096 0.64321 0.30115 0.0
C662 C 0.2544 0.62745 0.28099 0.0
C663 C 0.26222 0.61436 0.26392 0.0
C664 C 0.28665 0.61706 0.26696 0.0
C665 C 0.30327 0.63275 0.28714 0.0
H666 H 0.24939 0.6022 0.24829 0.0
H667 H 0.40868 0.76834 0.43583 0.0
H668 H 0.60318 0.37575 0.70521 0.0
H669 H 0.61869 0.34923 0.72585 0.0
H670 H 0.69708 0.40655 0.70705 0.0
H671 H 0.68152 0.43379 0.68697 0.0
H672 H 0.67965 0.35695 0.68572 0.0
H673 H 0.68758 0.39394 0.76904 0.0
H674 H 0.67814 0.41234 0.80816 0.0
H675 H 0.61018 0.33956 0.82337 0.0
H676 H 0.61885 0.32078 0.78406 0.0
H677 H 0.67371 0.23857 0.71759 0.0
H678 H 0.69033 0.28489 0.72143 0.0
H679 H 0.61437 0.27009 0.74223 0.0
H680 H 0.59774 0.22376 0.73909 0.0
H681 H 0.65155 0.30976 0.77109 0.0
H682 H 0.63611 0.28186 0.67741 0.0
H683 H 0.64398 0.26304 0.63749 0.0
H684 H 0.72467 0.31948 0.64159 0.0
H685 H 0.71726 0.33843 0.68173 0.0
C686 C 0.62374 0.3828 0.70573 0.0
C687 C 0.64119 0.40642 0.69409 0.0
C688 C 0.63262 0.3679 0.71791 0.0
C689 C 0.65904 0.37615 0.71822 0.0
C690 C 0.67666 0.40013 0.70729 0.0
C691 C 0.66778 0.41545 0.69566 0.0
C692 C 0.66689 0.3573 0.72553 0.0
C693 C 0.67452 0.34715 0.70475 0.0
C694 C 0.65999 0.34457 0.75029 0.0
C695 C 0.65398 0.3559 0.77354 0.0
C696 C 0.6705 0.38187 0.78056 0.0
C697 C 0.66532 0.39236 0.80286 0.0
C698 C 0.6437 0.37707 0.81837 0.0
C699 C 0.62706 0.35131 0.81148 0.0
C700 C 0.63211 0.34073 0.78918 0.0
C701 C 0.66056 0.2452 0.72305 0.0
C702 C 0.6343 0.2276 0.72761 0.0
C703 C 0.67015 0.27163 0.72541 0.0
C704 C 0.65354 0.28086 0.73194 0.0
C705 C 0.62753 0.2633 0.73734 0.0
C706 C 0.61798 0.23687 0.73527 0.0
C707 C 0.66223 0.30861 0.73062 0.0
C708 C 0.65784 0.32026 0.75254 0.0
C709 C 0.6718 0.32267 0.7068 0.0
C710 C 0.67621 0.3113 0.68271 0.0
C711 C 0.65555 0.29012 0.66988 0.0
C712 C 0.65992 0.27945 0.64722 0.0
C713 C 0.68483 0.29 0.63707 0.0
C714 C 0.7054 0.31128 0.64952 0.0
C715 C 0.70114 0.32199 0.67222 0.0
H716 H 0.68818 0.28173 0.61952 0.0
H717 H 0.6397 0.38523 0.83559 0.0
H718 H 0.27469 0.61785 1.00144 0.0
H719 H 0.32193 0.64273 1.00083 0.0
H720 H 0.32004 0.71321 1.01008 0.0
H721 H 0.27285 0.68852 1.01107 0.0
H722 H 0.3561 0.71481 0.97018 0.0
H723 H 0.33305 0.69341 0.06202 0.0
H724 H 0.31015 0.66391 0.09909 0.0
H725 H 0.34708 0.62019 0.08143 0.0
H726 H 0.36988 0.64917 0.04399 0.0
H727 H 0.48304 0.74062 0.04759 0.0
H728 H 0.44544 0.74576 0.04174 0.0
H729 H 0.43104 0.70906 0.96496 0.0
H730 H 0.46889 0.70443 0.9707 0.0
H731 H 0.40372 0.69919 0.04193 0.0
H732 H 0.38377 0.7142 0.93181 0.0
H733 H 0.40661 0.74348 0.89461 0.0
H734 H 0.45718 0.8021 0.94965 0.0
H735 H 0.43443 0.77335 0.98721 0.0
C736 C 0.28432 0.63863 1.00332 0.0
C737 C 0.27006 0.65119 1.00655 0.0
C738 C 0.31127 0.65281 1.00291 0.0
C739 C 0.32439 0.67978 1.00542 0.0
C740 C 0.31023 0.69243 1.00804 0.0
C741 C 0.2833 0.67825 1.00883 0.0
C742 C 0.35293 0.69454 1.00656 0.0
C743 C 0.36666 0.71161 0.98588 0.0
C744 C 0.36653 0.69068 1.02738 0.0
C745 C 0.35302 0.67336 0.05007 0.0
C746 C 0.33614 0.67739 0.06592 0.0
C747 C 0.32319 0.66078 0.08702 0.0
C748 C 0.32712 0.64016 0.09257 0.0
C749 C 0.34404 0.63615 0.07709 0.0
C750 C 0.357 0.65268 0.05594 0.0
C751 C 0.47309 0.73562 0.02857 0.0
C752 C 0.47873 0.72206 1.00963 0.0
C753 C 0.45131 0.73818 1.02539 0.0
C754 C 0.43504 0.72724 1.0032 0.0
C755 C 0.44327 0.71775 0.98223 0.0
C756 C 0.46518 0.71536 0.98538 0.0
C757 C 0.40729 0.71924 1.00515 0.0
C758 C 0.39347 0.70305 1.0264 0.0
C759 C 0.39377 0.72398 0.98483 0.0
C760 C 0.40746 0.74151 0.96235 0.0
C761 C 0.39967 0.73338 0.936 0.0
C762 C 0.41263 0.74988 0.91484 0.0
C763 C 0.43337 0.77461 0.91976 0.0
C764 C 0.44117 0.78291 0.94586 0.0
C765 C 0.42828 0.76649 0.9671 0.0
H766 H 0.44338 0.78735 0.90335 0.0
H767 H 0.31709 0.62732 0.1089 0.0
H768 H 0.50606 0.11104 0.3225 0.0
H769 H 0.50294 0.06896 0.3211 0.0
H770 H 0.58589 0.1054 0.32281 0.0
H771 H 0.58926 0.1479 0.32395 0.0
H772 H 0.56189 0.0606 0.29044 0.0
H773 H 0.5575 0.08574 0.3787 0.0
H774 H 0.54294 0.10339 0.41446 0.0
H775 H 0.46527 0.04094 0.40421 0.0
H776 H 0.47926 0.02317 0.36803 0.0
H777 H 0.54073 0.93509 0.33687 0.0
H778 H 0.55791 0.98201 0.33547 0.0
H779 H 0.4809 0.96885 0.3236 0.0
H780 H 0.46378 0.92251 0.32446 0.0
H781 H 0.51081 0.005 0.36549 0.0
H782 H 0.5163 0.98424 0.27275 0.0
H783 H 0.53199 0.96764 0.23701 0.0
H784 H 0.6103 0.02276 0.25801 0.0
H785 H 0.59505 0.03944 0.29414 0.0
C786 C 0.52369 0.11021 0.32205 0.0
C787 C 0.5479 0.13281 0.32372 0.0
C788 C 0.52186 0.08612 0.3213 0.0
C789 C 0.54418 0.0841 0.32245 0.0
C790 C 0.56845 0.1066 0.32207 0.0
C791 C 0.57032 0.13083 0.32272 0.0
C792 C 0.5417 0.05848 0.32643 0.0
C793 C 0.55118 0.04859 0.30711 0.0
C794 C 0.52791 0.04293 0.34833 0.0
C795 C 0.51942 0.0532 0.37051 0.0
C796 C 0.53728 0.07584 0.38396 0.0
C797 C 0.52914 0.08588 0.40431 0.0
C798 C 0.5032 0.07332 0.41158 0.0
C799 C 0.48536 0.05065 0.39855 0.0
C800 C 0.4934 0.04057 0.37813 0.0
C801 C 0.52755 0.94228 0.33389 0.0
C802 C 0.50093 0.92511 0.33071 0.0
C803 C 0.53736 0.96901 0.33307 0.0
C804 C 0.52061 0.97878 0.32947 0.0
C805 C 0.49411 0.96165 0.32645 0.0
C806 C 0.4844 0.93515 0.32684 0.0
C807 C 0.53013 0.0068 0.329 0.0
C808 C 0.52201 0.01718 0.34913 0.0
C809 C 0.54545 0.02282 0.30809 0.0
C810 C 0.55456 0.01284 0.28635 0.0
C811 C 0.53687 0.99264 0.26992 0.0
C812 C 0.54568 0.98326 0.24955 0.0
C813 C 0.57213 0.99408 0.24531 0.0
C814 C 0.58982 0.01436 0.26136 0.0
C815 C 0.58111 0.02379 0.28178 0.0
H816 H 0.57891 0.9868 0.22952 0.0
H817 H 0.49692 0.08113 0.42732 0.0
H818 H 0.41379 0.52694 0.67085 0.0
H819 H 0.44821 0.51855 0.65973 0.0
H820 H 0.39548 0.4367 0.66593 0.0
H821 H 0.36068 0.44504 0.67795 0.0
H822 H 0.4396 0.44938 0.69015 0.0
H823 H 0.41704 0.46663 0.60469 0.0
H824 H 0.40707 0.49037 0.57108 0.0
H825 H 0.48308 0.55596 0.58042 0.0
H826 H 0.4934 0.53275 0.61437 0.0
H827 H 0.52982 0.41982 0.63555 0.0
H828 H 0.49192 0.42488 0.63594 0.0
H829 H 0.54035 0.50632 0.65069 0.0
H830 H 0.5786 0.50144 0.65081 0.0
H831 H 0.49651 0.4907 0.61272 0.0
H832 H 0.51692 0.47408 0.70109 0.0
H833 H 0.52702 0.44972 0.73382 0.0
H834 H 0.45411 0.3818 0.71768 0.0
H835 H 0.44381 0.40566 0.68443 0.0
C836 C 0.40932 0.50708 0.6697 0.0
C837 C 0.38438 0.48663 0.67518 0.0
C838 C 0.42908 0.50233 0.66315 0.0
C839 C 0.42436 0.47699 0.66145 0.0
C840 C 0.39951 0.45643 0.66695 0.0
C841 C 0.37965 0.4612 0.67377 0.0
C842 C 0.44584 0.47234 0.65501 0.0
C843 C 0.45168 0.45798 0.67291 0.0
C844 C 0.46199 0.48399 0.63279 0.0
C845 C 0.45593 0.49798 0.61222 0.0
C846 C 0.43157 0.48617 0.59971 0.0
C847 C 0.42587 0.49953 0.58058 0.0
C848 C 0.44441 0.52468 0.57366 0.0
C849 C 0.46873 0.53649 0.58581 0.0
C850 C 0.47453 0.52322 0.60497 0.0
C851 C 0.53257 0.43895 0.63835 0.0
C852 C 0.55725 0.46022 0.64341 0.0
C853 C 0.51084 0.44175 0.6386 0.0
C854 C 0.51339 0.46589 0.64361 0.0
C855 C 0.53808 0.48752 0.64681 0.0
C856 C 0.55988 0.48469 0.64691 0.0
C857 C 0.49018 0.46802 0.64794 0.0
C858 C 0.48413 0.48189 0.62972 0.0
C859 C 0.47375 0.45584 0.66975 0.0
C860 C 0.47973 0.44157 0.69004 0.0
C861 C 0.50315 0.45389 0.70433 0.0
C862 C 0.5089 0.44019 0.72301 0.0
C863 C 0.49125 0.41421 0.72777 0.0
C864 C 0.46778 0.40191 0.71393 0.0
C865 C 0.46198 0.41552 0.69516 0.0
H866 H 0.49573 0.40363 0.74224 0.0
H867 H 0.43995 0.53499 0.55884 0.0
H868 H 0.91642 0.38602 0.99457 0.0
H869 H 0.96285 0.41636 0.99343 0.0
H870 H 0.94836 0.47767 0.97188 0.0
H871 H 0.90202 0.44726 0.97201 0.0
H872 H 0.98725 0.48328 0.94521 0.0
H873 H 0.9644 0.46924 0.0368 0.0
H874 H 0.94552 0.44412 0.07759 0.0
H875 H 0.99694 0.41393 0.07341 0.0
H876 H 0.0159 0.43863 0.03236 0.0
H877 H 0.10734 0.58932 0.99217 0.0
H878 H 0.06167 0.55651 0.98753 0.0
H879 H 0.08185 0.49693 0.9857 0.0
H880 H 0.12764 0.52965 0.98977 0.0
H881 H 0.04109 0.48991 1.02347 0.0
H882 H 0.06489 0.50825 0.93107 0.0
H883 H 0.08357 0.53689 0.89243 0.0
H884 H 0.0295 0.56339 0.90151 0.0
H885 H 0.01073 0.53517 0.94047 0.0
C886 C 0.92314 0.40593 0.98939 0.0
C887 C 0.90552 0.41425 0.98349 0.0
C888 C 0.9497 0.42331 0.9889 0.0
C889 C 0.95917 0.44946 0.98306 0.0
C890 C 0.94159 0.45763 0.97648 0.0
C891 C 0.91506 0.4402 0.9766 0.0
C892 C 0.98731 0.46844 0.98424 0.0
C893 C -0.00109 0.48484 0.96246 0.0
C894 C 0.00271 0.47044 1.00664 0.0
C895 C 0.99138 0.45557 0.03133 0.0
C896 C 0.97154 0.45709 0.04446 0.0
C897 C 0.96085 0.44295 0.06765 0.0
C898 C 0.96997 0.42738 0.07804 0.0
C899 C 0.98986 0.42597 0.0653 0.0
C900 C 0.0006 0.44004 0.04208 0.0
C901 C 0.10208 0.56925 0.99058 0.0
C902 C 0.12108 0.56206 0.99129 0.0
C903 C 0.07601 0.55057 0.98791 0.0
C904 C 0.06847 0.52436 0.98628 0.0
C905 C 0.08735 0.51709 0.98693 0.0
C906 C 0.11347 0.5358 0.98912 0.0
C907 C 0.04079 0.50453 0.9845 0.0
C908 C 0.02933 0.4881 1.00621 0.0
C909 C 0.02541 0.50293 0.96236 0.0
C910 C 0.03658 0.51978 0.93884 0.0
C911 C 0.05713 0.52035 0.92498 0.0
C912 C 0.06771 0.53648 0.90298 0.0
C913 C 0.05778 0.552 0.89456 0.0
C914 C 0.0372 0.55138 0.90807 0.0
C915 C 0.02657 0.5353 0.93009 0.0
H916 H 0.06599 0.56447 0.87753 0.0
H917 H 0.96167 0.41646 0.09601 0.0
H918 H 0.07377 0.47761 0.39157 0.0
H919 H 0.02722 0.46079 0.39372 0.0
H920 H 0.04116 0.53593 0.41717 0.0
H921 H 0.08746 0.55265 0.41576 0.0
H922 H 0.00228 0.50068 0.44394 0.0
H923 H 0.0269 0.51492 0.35244 0.0
H924 H 0.04614 0.51058 0.31102 0.0
H925 H 0.99387 0.42882 0.3111 0.0
H926 H 0.9745 0.43265 0.35271 0.0
H927 H 0.88984 0.49954 0.39321 0.0
H928 H 0.93376 0.50789 0.40097 0.0
H929 H 0.90631 0.42632 0.3973 0.0
H930 H 0.8622 0.41772 0.39007 0.0
H931 H 0.95012 0.46023 0.36267 0.0
H932 H 0.92266 0.45003 0.45384 0.0
H933 H 0.90366 0.45883 0.49286 0.0
H934 H 0.96234 0.53874 0.49046 0.0
H935 H 0.98149 0.53049 0.45116 0.0
C936 C 0.0669 0.49045 0.39751 0.0
C937 C 0.08432 0.5165 0.40331 0.0
C938 C 0.0403 0.48085 0.3986 0.0
C939 C 0.03071 0.49722 0.40521 0.0
C940 C 0.04809 0.52295 0.41201 0.0
C941 C 0.0746 0.53249 0.4111 0.0
C942 C 0.00269 0.48805 0.40397 0.0
C943 C 0.99093 0.49192 0.42613 0.0
C944 C 0.98778 0.47643 0.38079 0.0
C945 C -0.00052 0.47402 0.35587 0.0
C946 C 0.01967 0.49599 0.34375 0.0
C947 C 0.03056 0.49363 0.32022 0.0
C948 C 0.0213 0.46943 0.30849 0.0
C949 C 0.00107 0.44755 0.32024 0.0
C950 C 0.99011 0.4498 0.34379 0.0
C951 C 0.89311 0.48337 0.39435 0.0
C952 C 0.87261 0.45799 0.39105 0.0
C953 C 0.91816 0.48816 0.39883 0.0
C954 C 0.92315 0.46769 0.39971 0.0
C955 C 0.90274 0.44232 0.39671 0.0
C956 C 0.87759 0.43747 0.39271 0.0
C957 C 0.94993 0.47303 0.40254 0.0
C958 C 0.96145 0.46856 0.38061 0.0
C959 C 0.96475 0.48469 0.42565 0.0
C960 C 0.95338 0.48966 0.44941 0.0
C961 C 0.93139 0.46952 0.46149 0.0
C962 C 0.92062 0.4744 0.48369 0.0
C963 C 0.93175 0.49934 0.4941 0.0
C964 C 0.95373 0.51944 0.48237 0.0
C965 C 0.96456 0.51466 0.46015 0.0
H966 H 0.92337 0.50309 0.51129 0.0
H967 H 0.02975 0.46766 0.29026 0.0
H968 H 0.54875 0.08111 0.76818 0.0
H969 H 0.51983 0.03463 0.77161 0.0
H970 H 0.55675 0.02281 0.70412 0.0
H971 H 0.58651 0.0693 0.70142 0.0
H972 H 0.48484 0.00352 0.74076 0.0
H973 H 0.55015 0.96373 0.70446 0.0
H974 H 0.59584 0.97528 0.7069 0.0
H975 H 0.60604 0.01872 0.77818 0.0
H976 H 0.56035 0.00716 0.77636 0.0
H977 H 0.4064 0.87554 0.69854 0.0
H978 H 0.43874 0.92111 0.7025 0.0
H979 H 0.47589 0.90362 0.7664 0.0
H980 H 0.44414 0.85769 0.76162 0.0
H981 H 0.51105 0.93723 0.73662 0.0
H982 H 0.4369 0.93178 0.77699 0.0
H983 H 0.39131 0.92014 0.78076 0.0
H984 H 0.39925 0.96721 0.71311 0.0
H985 H 0.4448 0.97887 0.70872 0.0
C986 C 0.55093 0.06857 0.75429 0.0
C987 C 0.56993 0.07885 0.73455 0.0
C988 C 0.53432 0.04198 0.75621 0.0
C989 C 0.5361 0.02506 0.73824 0.0
C990 C 0.55526 0.03531 0.71862 0.0
C991 C 0.57222 0.06192 0.717 0.0
C992 C 0.51701 0.99693 0.7392 0.0
C993 C 0.49065 0.98907 0.73997 0.0
C994 C 0.52442 0.97792 0.73871 0.0
C995 C 0.55188 0.98476 0.74011 0.0
C996 C 0.56212 0.97566 0.72071 0.0
C997 C 0.58802 0.98222 0.72197 0.0
C998 C 0.60385 0.99779 0.74263 0.0
C999 C 0.59379 0.00675 0.76213 0.0
C1000 C 0.5679 0.00022 0.76097 0.0
C1001 C 0.42136 0.8814 0.71356 0.0
C1002 C 0.4226 0.86304 0.72991 0.0
C1003 C 0.43982 0.90752 0.71588 0.0
C1004 C 0.45956 0.91598 0.7351 0.0
C1005 C 0.46087 0.89763 0.75143 0.0
C1006 C 0.44265 0.8714 0.74877 0.0
C1007 C 0.47894 0.94391 0.73784 0.0
C1008 C 0.50531 0.95172 0.73763 0.0
C1009 C 0.47158 0.9629 0.73979 0.0
C1010 C 0.44421 0.95603 0.74241 0.0
C1011 C 0.42887 0.93952 0.76282 0.0
C1012 C 0.40305 0.93293 0.76508 0.0
C1013 C 0.39238 0.94289 0.74715 0.0
C1014 C 0.40753 0.9595 0.72697 0.0
C1015 C 0.43337 0.96613 0.72461 0.0
H1016 H 0.37238 0.93776 0.74893 0.0
H1017 H 0.6239 0.00287 0.74357 0.0
H1018 H 0.55823 0.64481 0.03664 0.0
H1019 H 0.56999 0.6113 0.04237 0.0
H1020 H 0.49259 0.55785 0.06808 0.0
H1021 H 0.48105 0.59102 0.06324 0.0
H1022 H 0.52412 0.55198 0.09787 0.0
H1023 H 0.51416 0.55785 1.00394 0.0
H1024 H 0.52254 0.5789 0.96016 0.0
H1025 H 0.60171 0.59793 0.96509 0.0
H1026 H 0.59388 0.5773 1.00915 0.0
H1027 H 0.51077 0.42952 0.06312 0.0
H1028 H 0.50724 0.46853 0.0646 0.0
H1029 H 0.59009 0.51572 0.063 0.0
H1030 H 0.59387 0.47696 0.06214 0.0
H1031 H 0.56059 0.52719 1.023 0.0
H1032 H 0.56617 0.51546 0.11722 0.0
H1033 H 0.55341 0.49057 0.15889 0.0
H1034 H 0.4767 0.47826 0.15031 0.0
H1035 H 0.48891 0.50276 0.10837 0.0
C1036 C 0.54384 0.62597 0.04371 0.0
C1037 C 0.51871 0.62064 0.04943 0.0
C1038 C 0.55052 0.60679 0.04685 0.0
C1039 C 0.53209 0.58192 0.05543 0.0
C1040 C 0.50721 0.57684 0.06155 0.0
C1041 C 0.50062 0.59592 0.05866 0.0
C1042 C 0.53816 0.56078 0.05769 0.0
C1043 C 0.532 0.54655 0.08141 0.0
C1044 C 0.54869 0.55375 0.03637 0.0
C1045 C 0.55352 0.56636 1.01001 0.0
C1046 C 0.53342 0.56675 0.99582 0.0
C1047 C 0.53805 0.57856 0.97093 0.0
C1048 C 0.56266 0.58983 0.95989 0.0
C1049 C 0.58267 0.58926 0.9737 0.0
C1050 C 0.57815 0.57751 0.99864 0.0
C1051 C 0.52823 0.4482 0.06346 0.0
C1052 C 0.55258 0.45015 0.06259 0.0
C1053 C 0.52619 0.47042 0.06428 0.0
C1054 C 0.54843 0.49493 0.06384 0.0
C1055 C 0.57274 0.49695 0.06333 0.0
C1056 C 0.57482 0.47478 0.06301 0.0
C1057 C 0.54623 0.51841 0.06295 0.0
C1058 C 0.55307 0.53297 0.0395 0.0
C1059 C 0.53573 0.52536 0.08423 0.0
C1060 C 0.5284 0.51075 0.10953 0.0
C1061 C 0.54652 0.50725 0.12409 0.0
C1062 C 0.5394 0.49326 0.14779 0.0
C1063 C 0.51425 0.48279 0.15721 0.0
C1064 C 0.49618 0.48636 0.14298 0.0
C1065 C 0.50319 0.50032 0.11926 0.0
H1066 H 0.50877 0.47196 0.17556 0.0
H1067 H 0.56619 0.59894 0.9406 0.0
H1068 H 0.46801 0.19351 0.28969 0.0
H1069 H 0.4625 0.21596 0.2512 0.0
H1070 H 0.54464 0.25654 0.23887 0.0
H1071 H 0.55025 0.23428 0.27635 0.0
H1072 H 0.52347 0.28896 0.24081 0.0
H1073 H 0.50708 0.2094 0.19825 0.0
H1074 H 0.48321 0.16226 0.19182 0.0
H1075 H 0.41355 0.16405 0.17656 0.0
H1076 H 0.43697 0.2112 0.18326 0.0
H1077 H 0.55645 0.35057 0.11854 0.0
H1078 H 0.54862 0.32345 0.15709 0.0
H1079 H 0.46705 0.28282 0.13967 0.0
H1080 H 0.47504 0.30958 0.09975 0.0
H1081 H 0.47953 0.2492 0.15563 0.0
H1082 H 0.49562 0.32857 0.19315 0.0
H1083 H 0.51781 0.37545 0.20121 0.0
H1084 H 0.5852 0.37425 0.22863 0.0
H1085 H 0.56362 0.32747 0.22025 0.0
C1086 C 0.48482 0.207 0.27857 0.0
C1087 C 0.50956 0.21194 0.28628 0.0
C1088 C 0.48166 0.21982 0.25655 0.0
C1089 C 0.50319 0.23805 0.24207 0.0
C1090 C 0.52772 0.24268 0.24964 0.0
C1091 C 0.53084 0.22974 0.27119 0.0
C1092 C 0.50098 0.25335 0.21968 0.0
C1093 C 0.51394 0.28029 0.22215 0.0
C1094 C 0.4877 0.24205 0.19562 0.0
C1095 C 0.47369 0.21376 0.1916 0.0
C1096 C 0.48662 0.19971 0.19379 0.0
C1097 C 0.47319 0.17299 0.19004 0.0
C1098 C 0.44686 0.16015 0.18388 0.0
C1099 C 0.43393 0.17401 0.18139 0.0
C1100 C 0.44727 0.20073 0.18515 0.0
C1101 C 0.53672 0.33608 0.12287 0.0
C1102 C 0.51634 0.33262 0.10601 0.0
C1103 C 0.53223 0.32053 0.14521 0.0
C1104 C 0.50712 0.30133 0.15203 0.0
C1105 C 0.48662 0.29758 0.13515 0.0
C1106 C 0.49118 0.313 0.11235 0.0
C1107 C 0.50288 0.28511 0.17641 0.0
C1108 C 0.48872 0.25801 0.17438 0.0
C1109 C 0.51481 0.29625 0.20116 0.0
C1110 C 0.52802 0.3245 0.20592 0.0
C1111 C 0.51525 0.33833 0.20068 0.0
C1112 C 0.52772 0.3649 0.20533 0.0
C1113 C 0.55291 0.37783 0.21538 0.0
C1114 C 0.5657 0.36423 0.2208 0.0
C1115 C 0.55336 0.33768 0.2161 0.0
H1116 H 0.56251 0.39839 0.219 0.0
H1117 H 0.4365 0.13947 0.18097 0.0
H1118 H 0.18525 0.47892 0.43573 0.0
H1119 H 0.21188 0.47887 0.47305 0.0
H1120 H 0.21784 0.54896 0.50303 0.0
H1121 H 0.19119 0.54906 0.46636 0.0
H1122 H 0.2658 0.55131 0.49698 0.0
H1123 H 0.18162 0.49573 0.53479 0.0
H1124 H 0.13796 0.45755 0.53567 0.0
H1125 H 0.17025 0.40789 0.53233 0.0
H1126 H 0.21412 0.44581 0.53105 0.0
H1127 H 0.32361 0.56716 0.62394 0.0
H1128 H 0.29737 0.56322 0.5849 0.0
H1129 H 0.28116 0.48519 0.57284 0.0
H1130 H 0.30626 0.48868 0.61269 0.0
H1131 H 0.23916 0.48498 0.56734 0.0
H1132 H 0.3229 0.53862 0.53103 0.0
H1133 H 0.36714 0.57578 0.52879 0.0
H1134 H 0.3373 0.62758 0.52679 0.0
H1135 H 0.29288 0.59074 0.52933 0.0
C1136 C 0.19185 0.49406 0.45054 0.0
C1137 C 0.18611 0.51402 0.44797 0.0
C1138 C 0.20711 0.49403 0.47179 0.0
C1139 C 0.21697 0.51403 0.49067 0.0
C1140 C 0.21057 0.53345 0.48858 0.0
C1141 C 0.19518 0.53336 0.46762 0.0
C1142 C 0.23488 0.51558 0.51204 0.0
C1143 C 0.25997 0.53694 0.51253 0.0
C1144 C 0.22749 0.49639 0.53174 0.0
C1145 C 0.20113 0.47361 0.53251 0.0
C1146 C 0.1794 0.47667 0.53398 0.0
C1147 C 0.15462 0.45508 0.53461 0.0
C1148 C 0.15133 0.43031 0.53397 0.0
C1149 C 0.17282 0.42709 0.53277 0.0
C1150 C 0.19765 0.44862 0.53211 0.0
C1151 C 0.31482 0.54934 0.61266 0.0
C1152 C 0.31707 0.52827 0.62127 0.0
C1153 C 0.29983 0.54709 0.59027 0.0
C1154 C 0.28742 0.52397 0.57558 0.0
C1155 C 0.29039 0.5032 0.58378 0.0
C1156 C 0.30488 0.50526 0.60648 0.0
C1157 C 0.27028 0.52095 0.55257 0.0
C1158 C 0.24526 0.4993 0.55172 0.0
C1159 C 0.27789 0.53971 0.53226 0.0
C1160 C 0.30457 0.56192 0.53058 0.0
C1161 C 0.32578 0.55795 0.53028 0.0
C1162 C 0.35089 0.57895 0.52892 0.0
C1163 C 0.35503 0.60403 0.5277 0.0
C1164 C 0.33406 0.60815 0.52775 0.0
C1165 C 0.30892 0.58721 0.52911 0.0
H1166 H 0.37448 0.62026 0.52667 0.0
H1167 H 0.13212 0.41361 0.53447 0.0
H1168 H 0.8239 0.33211 0.91424 0.0
H1169 H 0.79957 0.30298 0.87779 0.0
H1170 H 0.77457 0.23786 0.93012 0.0
H1171 H 0.79891 0.26707 0.96688 0.0
H1172 H 0.79716 0.26406 0.85063 0.0
H1173 H 0.71125 0.19631 0.91834 0.0
H1174 H 0.69072 0.1991 0.9596 0.0
H1175 H 0.72068 0.27996 0.94643 0.0
H1176 H 0.74119 0.27759 0.90514 0.0
H1177 H 0.70679 0.16723 0.7614 0.0
H1178 H 0.73694 0.18932 0.79843 0.0
H1179 H 0.68723 0.21684 0.82672 0.0
H1180 H 0.65674 0.1937 0.79125 0.0
H1181 H 0.7036 0.2076 0.86685 0.0
H1182 H 0.74708 0.25465 0.78902 0.0
H1183 H 0.76598 0.26159 0.74432 0.0
H1184 H 0.81824 0.23707 0.77182 0.0
H1185 H 0.79941 0.2297 0.81664 0.0
C1186 C 0.81371 0.31154 0.91793 0.0
C1187 C 0.81337 0.30199 0.94361 0.0
C1188 C 0.79978 0.29486 0.89697 0.0
C1189 C 0.78487 0.26816 0.90113 0.0
C1190 C 0.78567 0.25839 0.92638 0.0
C1191 C 0.79981 0.27512 0.94738 0.0
C1192 C 0.76704 0.251 0.8797 0.0
C1193 C 0.77673 0.25149 0.85423 0.0
C1194 C 0.74019 0.23532 0.8839 0.0
C1195 C 0.72804 0.23681 0.90888 0.0
C1196 C 0.71346 0.21466 0.92431 0.0
C1197 C 0.70183 0.21619 0.9477 0.0
C1198 C 0.7045 0.23972 0.95572 0.0
C1199 C 0.71876 0.26178 0.94034 0.0
C1200 C 0.73044 0.26036 0.91698 0.0
C1201 C 0.70223 0.17775 0.77576 0.0
C1202 C 0.67919 0.17846 0.77336 0.0
C1203 C 0.71962 0.19064 0.79686 0.0
C1204 C 0.71477 0.20524 0.81552 0.0
C1205 C 0.69162 0.20567 0.81304 0.0
C1206 C 0.67407 0.19235 0.79253 0.0
C1207 C 0.73357 0.22047 0.83743 0.0
C1208 C 0.72407 0.2197 0.86314 0.0
C1209 C 0.76036 0.23704 0.83297 0.0
C1210 C 0.77162 0.2413 0.80606 0.0
C1211 C 0.76246 0.25054 0.78547 0.0
C1212 C 0.77318 0.25459 0.76013 0.0
C1213 C 0.79324 0.24969 0.75521 0.0
C1214 C 0.80266 0.2408 0.77564 0.0
C1215 C 0.79198 0.23668 0.80102 0.0
H1216 H 0.80153 0.25285 0.73558 0.0
H1217 H 0.69545 0.24085 0.9738 0.0
H1218 H 0.51721 0.72224 0.10036 0.0
H1219 H 0.5245 0.74872 0.1394 0.0
H1220 H 0.45879 0.68554 0.17737 0.0
H1221 H 0.45059 0.65906 0.13736 0.0
H1222 H 0.45694 0.72604 0.18618 0.0
H1223 H 0.52401 0.70708 0.19686 0.0
H1224 H 0.56099 0.70214 0.1844 0.0
H1225 H 0.60624 0.78336 0.16908 0.0
H1226 H 0.56941 0.78876 0.18109 0.0
H1227 H 0.53085 0.8115 0.30785 0.0
H1228 H 0.52884 0.78192 0.27327 0.0
H1229 H 0.49181 0.81018 0.22021 0.0
H1230 H 0.49312 0.83924 0.25486 0.0
H1231 H 0.54419 0.78196 0.22478 0.0
H1232 H 0.44375 0.76246 0.18737 0.0
H1233 H 0.40527 0.76188 0.20541 0.0
H1234 H 0.42438 0.74759 0.28354 0.0
H1235 H 0.4629 0.74813 0.26604 0.0
C1236 C 0.50442 0.71375 0.11709 0.0
C1237 C 0.48338 0.6884 0.11577 0.0
C1238 C 0.50874 0.72896 0.13958 0.0
C1239 C 0.49258 0.71909 0.1617 0.0
C1240 C 0.47165 0.69363 0.16062 0.0
C1241 C 0.46701 0.67845 0.1378 0.0
C1242 C 0.49684 0.736 0.18513 0.0
C1243 C 0.47603 0.73812 0.19464 0.0
C1244 C 0.52158 0.75138 0.19688 0.0
C1245 C 0.54386 0.74829 0.18972 0.0
C1246 C 0.54179 0.72387 0.19067 0.0
C1247 C 0.56274 0.72099 0.18371 0.0
C1248 C 0.58594 0.74242 0.17591 0.0
C1249 C 0.58825 0.76678 0.17512 0.0
C1250 C 0.56736 0.76977 0.18204 0.0
C1251 C 0.52294 0.81195 0.28857 0.0
C1252 C 0.51191 0.82756 0.28419 0.0
C1253 C 0.52167 0.79489 0.26885 0.0
C1254 C 0.50947 0.79326 0.2444 0.0
C1255 C 0.50063 0.81054 0.23918 0.0
C1256 C 0.50165 0.82737 0.25893 0.0
C1257 C 0.50451 0.77256 0.22496 0.0
C1258 C 0.52515 0.76973 0.21631 0.0
C1259 C 0.47944 0.75577 0.21475 0.0
C1260 C 0.45632 0.75557 0.22541 0.0
C1261 C 0.43971 0.7592 0.2084 0.0
C1262 C 0.41793 0.75894 0.21856 0.0
C1263 C 0.41246 0.75487 0.24566 0.0
C1264 C 0.42874 0.751 0.26264 0.0
C1265 C 0.45058 0.75134 0.25262 0.0
H1266 H 0.39556 0.75461 0.25348 0.0
H1267 H 0.60213 0.74014 0.17052 0.0
H1268 H 0.70509 0.52446 0.6202 0.0
H1269 H 0.73243 0.53185 0.58127 0.0
H1270 H 0.6743 0.45948 0.54773 0.0
H1271 H 0.64696 0.45216 0.58612 0.0
H1272 H 0.75437 0.50599 0.56237 0.0
H1273 H 0.67428 0.46118 0.48159 0.0
H1274 H 0.63206 0.45707 0.47154 0.0
H1275 H 0.65311 0.52547 0.51696 0.0
H1276 H 0.69563 0.53019 0.52692 0.0
H1277 H 0.79241 0.46223 0.45089 0.0
H1278 H 0.77114 0.46842 0.48881 0.0
H1279 H 0.76805 0.5299 0.44763 0.0
H1280 H 0.78928 0.52353 0.40907 0.0
H1281 H 0.722 0.49738 0.46978 0.0
H1282 H 0.80884 0.54301 0.50086 0.0
H1283 H 0.85231 0.55015 0.51066 0.0
H1284 H 0.82012 0.48612 0.56456 0.0
H1285 H 0.7764 0.47836 0.5548 0.0
C1286 C 0.69801 0.51025 0.6044 0.0
C1287 C 0.67368 0.48775 0.60639 0.0
C1288 C 0.71374 0.51445 0.58216 0.0
C1289 C 0.70544 0.49638 0.56124 0.0
C1290 C 0.6811 0.47401 0.56321 0.0
C1291 C 0.66546 0.46978 0.58537 0.0
C1292 C 0.72236 0.50025 0.5378 0.0
C1293 C 0.74728 0.50421 0.54215 0.0
C1294 C 0.71351 0.49847 0.51123 0.0
C1295 C 0.68811 0.49596 0.50508 0.0
C1296 C 0.66999 0.47544 0.48925 0.0
C1297 C 0.64597 0.47298 0.48362 0.0
C1298 C 0.63989 0.49097 0.49364 0.0
C1299 C 0.65783 0.5115 0.50926 0.0
C1300 C 0.68187 0.51407 0.51493 0.0
C1301 C 0.78764 0.47741 0.44992 0.0
C1302 C 0.7928 0.4925 0.42682 0.0
C1303 C 0.77545 0.48095 0.47178 0.0
C1304 C 0.76806 0.49977 0.47138 0.0
C1305 C 0.77357 0.51527 0.44856 0.0
C1306 C 0.78597 0.5118 0.42658 0.0
C1307 C 0.75367 0.50224 0.49441 0.0
C1308 C 0.72918 0.49938 0.48999 0.0
C1309 C 0.76304 0.50535 0.5209 0.0
C1310 C 0.78931 0.51001 0.52695 0.0
C1311 C 0.81101 0.53034 0.51467 0.0
C1312 C 0.8357 0.53451 0.52024 0.0
C1313 C 0.83897 0.51857 0.53819 0.0
C1314 C 0.81756 0.49845 0.55065 0.0
C1315 C 0.79282 0.49418 0.54514 0.0
H1316 H 0.85811 0.52183 0.54247 0.0
H1317 H 0.62128 0.48902 0.48928 0.0
H1318 H 0.2303 0.70799 0.97185 0.0
H1319 H 0.24765 0.73307 0.93139 0.0
H1320 H 0.19037 0.66903 0.88491 0.0
H1321 H 0.17475 0.64319 0.92543 0.0
H1322 H 0.23033 0.68403 0.86146 0.0
H1323 H 0.19383 0.7324 0.89469 0.0
H1324 H 0.18365 0.7568 0.927 0.0
H1325 H 0.26399 0.81377 0.93354 0.0
H1326 H 0.27471 0.78955 0.90153 0.0
H1327 H 0.27469 0.76205 0.74413 0.0
H1328 H 0.24637 0.74308 0.7826 0.0
H1329 H 0.31263 0.77703 0.83484 0.0
H1330 H 0.34107 0.79533 0.79648 0.0
H1331 H 0.26338 0.77778 0.85184 0.0
H1332 H 0.29648 0.72249 0.81905 0.0
H1333 H 0.30215 0.69677 0.78434 0.0
H1334 H 0.22004 0.65132 0.77386 0.0
H1335 H 0.21391 0.67714 0.80807 0.0
C1336 C 0.22109 0.69956 0.953 0.0
C1337 C 0.20108 0.67382 0.95166 0.0
C1338 C 0.2309 0.71397 0.92978 0.0
C1339 C 0.22016 0.70329 0.90479 0.0
C1340 C 0.19919 0.67785 0.90376 0.0
C1341 C 0.19007 0.66312 0.92691 0.0
C1342 C 0.23241 0.7176 0.87977 0.0
C1343 C 0.23689 0.70439 0.85932 0.0
C1344 C 0.24141 0.74433 0.87659 0.0
C1345 C 0.23508 0.75904 0.89582 0.0
C1346 C 0.20935 0.75005 0.90314 0.0
C1347 C 0.20348 0.76387 0.92138 0.0
C1348 C 0.22317 0.7868 0.93235 0.0
C1349 C 0.24876 0.796 0.92503 0.0
C1350 C 0.25474 0.78226 0.9068 0.0
C1351 C 0.28314 0.76602 0.76387 0.0
C1352 C 0.31007 0.78014 0.76735 0.0
C1353 C 0.26697 0.7551 0.78578 0.0
C1354 C 0.27747 0.75864 0.81148 0.0
C1355 C 0.3042 0.77418 0.81515 0.0
C1356 C 0.3204 0.78457 0.79324 0.0
C1357 C 0.2611 0.74407 0.83425 0.0
C1358 C 0.25612 0.75728 0.85414 0.0
C1359 C 0.25087 0.7172 0.83659 0.0
C1360 C 0.25475 0.70197 0.81585 0.0
C1361 C 0.27966 0.70725 0.80908 0.0
C1362 C 0.28296 0.69261 0.78956 0.0
C1363 C 0.26146 0.67247 0.7769 0.0
C1364 C 0.23666 0.66696 0.78366 0.0
C1365 C 0.23327 0.6816 0.80308 0.0
H1366 H 0.26397 0.66103 0.76195 0.0
H1367 H 0.21858 0.79746 0.94648 0.0
loop_
_geom_bond_atom_site_label_1
_geom_bond_atom_site_label_2
_geom_bond_distance
_geom_bond_site_symmetry_2
_ccdc_geom_bond_type
C0 O2 1.247 . S
C0 O4 1.258 . S
C1 O8 1.247 . S
C1 O9 1.258 . S
O2 C0 1.247 . S
O2 Zn3 2.028 . S
Zn3 O2 2.028 . S
Zn3 O7 2.035 . S
Zn3 O9 2.035 . S
Zn3 O10 2.028 . S
O4 C0 1.258 . S
O4 Zn5 2.035 . S
Zn5 O4 2.035 . S
Zn5 O6 2.028 . S
Zn5 O8 2.028 . S
Zn5 O11 2.035 . S
O6 Zn5 2.028 . S
O6 C12 1.247 . S
O7 Zn3 2.035 . S
O7 C12 1.258 . S
O8 C1 1.247 . S
O8 Zn5 2.028 . S
O9 C1 1.258 . S
O9 Zn3 2.035 . S
O10 Zn3 2.028 . S
O10 C13 1.247 . S
O11 Zn5 2.035 . S
O11 C13 1.258 . S
C12 O6 1.247 . S
C12 O7 1.258 . S
C13 O10 1.247 . S
C13 O11 1.258 . S
C14 O16 1.247 . S
C14 O18 1.258 . S
C15 O22 1.247 . S
C15 O23 1.258 . S
O16 C14 1.247 . S
O16 Zn17 2.028 . S
Zn17 O16 2.028 . S
Zn17 O21 2.035 . S
Zn17 O23 2.035 . S
Zn17 O24 2.028 . S
O18 C14 1.258 . S
O18 Zn19 2.035 . S
Zn19 O18 2.035 . S
Zn19 O20 2.028 . S
Zn19 O22 2.028 . S
Zn19 O25 2.035 . S
O20 Zn19 2.028 . S
O20 C26 1.247 . S
O21 Zn17 2.035 . S
O21 C26 1.258 . S
O22 C15 1.247 . S
O22 Zn19 2.028 . S
O23 C15 1.258 . S
O23 Zn17 2.035 . S
O24 Zn17 2.028 . S
O24 C27 1.247 . S
O25 Zn19 2.035 . S
O25 C27 1.258 . S
C26 O20 1.247 . S
C26 O21 1.258 . S
C27 O24 1.247 . S
C27 O25 1.258 . S
C28 O30 1.247 . S
C28 O32 1.258 . S
C29 O36 1.247 . S
C29 O37 1.258 . S
O30 C28 1.247 . S
O30 Zn31 2.028 . S
Zn31 O30 2.028 . S
Zn31 O35 2.035 . S
Zn31 O37 2.035 1_554 S
Zn31 O38 2.028 . S
O32 C28 1.258 . S
O32 Zn33 2.035 1_554 S
Zn33 O32 2.035 1_556 S
Zn33 O34 2.028 . S
Zn33 O36 2.028 . S
Zn33 O39 2.035 . S
O34 Zn33 2.028 . S
O34 C40 1.247 1_556 S
O35 Zn31 2.035 . S
O35 C40 1.258 . S
O36 C29 1.247 . S
O36 Zn33 2.028 . S
O37 C29 1.258 . S
O37 Zn31 2.035 1_556 S
O38 Zn31 2.028 . S
O38 C41 1.247 1_554 S
O39 Zn33 2.035 . S
O39 C41 1.258 . S
C40 O34 1.247 1_554 S
C40 O35 1.258 . S
C41 O38 1.247 1_556 S
C41 O39 1.258 . S
C42 O44 1.247 . S
C42 O46 1.258 . S
C43 O50 1.247 . S
C43 O51 1.258 . S
O44 C42 1.247 . S
O44 Zn45 2.028 . S
Zn45 O44 2.028 . S
Zn45 O49 2.035 . S
Zn45 O51 2.035 . S
Zn45 O52 2.028 . S
O46 C42 1.258 . S
O46 Zn47 2.035 . S
Zn47 O46 2.035 . S
Zn47 O48 2.028 . S
Zn47 O50 2.028 . S
Zn47 O53 2.035 . S
O48 Zn47 2.028 . S
O48 C54 1.247 . S
O49 Zn45 2.035 . S
O49 C54 1.258 . S
O50 C43 1.247 . S
O50 Zn47 2.028 . S
O51 C43 1.258 . S
O51 Zn45 2.035 . S
O52 Zn45 2.028 . S
O52 C55 1.247 . S
O53 Zn47 2.035 . S
O53 C55 1.258 . S
C54 O48 1.247 . S
C54 O49 1.258 . S
C55 O52 1.247 . S
C55 O53 1.258 . S
C56 O58 1.247 . S
C56 O60 1.258 . S
C57 O64 1.247 . S
C57 O65 1.258 . S
O58 C56 1.247 . S
O58 Zn59 2.028 . S
Zn59 O58 2.028 . S
Zn59 O63 2.035 . S
Zn59 O65 2.035 . S
Zn59 O66 2.028 . S
O60 C56 1.258 . S
O60 Zn61 2.035 . S
Zn61 O60 2.035 . S
Zn61 O62 2.028 . S
Zn61 O64 2.028 . S
Zn61 O67 2.035 . S
O62 Zn61 2.028 . S
O62 C68 1.247 . S
O63 Zn59 2.035 . S
O63 C68 1.258 . S
O64 C57 1.247 . S
O64 Zn61 2.028 . S
O65 C57 1.258 . S
O65 Zn59 2.035 . S
O66 Zn59 2.028 . S
O66 C69 1.247 . S
O67 Zn61 2.035 . S
O67 C69 1.258 . S
C68 O62 1.247 . S
C68 O63 1.258 . S
C69 O66 1.247 . S
C69 O67 1.258 . S
C70 O72 1.247 . S
C70 O74 1.258 . S
C71 O78 1.247 . S
C71 O79 1.258 . S
O72 C70 1.247 . S
O72 Zn73 2.028 . S
Zn73 O72 2.028 . S
Zn73 O77 2.035 . S
Zn73 O79 2.035 1_554 S
Zn73 O80 2.028 . S
O74 C70 1.258 . S
O74 Zn75 2.035 1_554 S
Zn75 O74 2.035 1_556 S
Zn75 O76 2.028 . S
Zn75 O78 2.028 . S
Zn75 O81 2.035 . S
O76 Zn75 2.028 . S
O76 C82 1.247 1_556 S
O77 Zn73 2.035 . S
O77 C82 1.258 . S
O78 C71 1.247 . S
O78 Zn75 2.028 . S
O79 C71 1.258 . S
O79 Zn73 2.035 1_556 S
O80 Zn73 2.028 . S
O80 C83 1.247 1_554 S
O81 Zn75 2.035 . S
O81 C83 1.258 . S
C82 O76 1.247 1_554 S
C82 O77 1.258 . S
C83 O80 1.247 1_556 S
C83 O81 1.258 . S
C84 O86 1.247 . S
C84 O88 1.258 . S
C85 O92 1.247 . S
C85 O93 1.258 . S
O86 C84 1.247 . S
O86 Zn87 2.028 . S
Zn87 O86 2.028 . S
Zn87 O91 2.035 . S
Zn87 O93 2.035 . S
Zn87 O94 2.028 . S
O88 C84 1.258 . S
O88 Zn89 2.035 . S
Zn89 O88 2.035 . S
Zn89 O90 2.028 . S
Zn89 O92 2.028 . S
Zn89 O95 2.035 . S
O90 Zn89 2.028 . S
O90 C96 1.247 . S
O91 Zn87 2.035 . S
O91 C96 1.258 . S
O92 C85 1.247 . S
O92 Zn89 2.028 . S
O93 C85 1.258 . S
O93 Zn87 2.035 . S
O94 Zn87 2.028 . S
O94 C97 1.247 . S
O95 Zn89 2.035 . S
O95 C97 1.258 . S
C96 O90 1.247 . S
C96 O91 1.258 . S
C97 O94 1.247 . S
C97 O95 1.258 . S
C98 O100 1.247 . S
C98 O102 1.258 . S
C99 O106 1.247 . S
C99 O107 1.258 . S
O100 C98 1.247 . S
O100 Zn101 2.028 . S
Zn101 O100 2.028 . S
Zn101 O105 2.035 . S
Zn101 O107 2.035 . S
Zn101 O108 2.028 . S
O102 C98 1.258 . S
O102 Zn103 2.035 . S
Zn103 O102 2.035 . S
Zn103 O104 2.028 . S
Zn103 O106 2.028 . S
Zn103 O109 2.035 . S
O104 Zn103 2.028 . S
O104 C110 1.247 . S
O105 Zn101 2.035 . S
O105 C110 1.258 . S
O106 C99 1.247 . S
O106 Zn103 2.028 . S
O107 C99 1.258 . S
O107 Zn101 2.035 . S
O108 Zn101 2.028 . S
O108 C111 1.247 . S
O109 Zn103 2.035 . S
O109 C111 1.258 . S
C110 O104 1.247 . S
C110 O105 1.258 . S
C111 O108 1.247 . S
C111 O109 1.258 . S
C112 O114 1.247 . S
C112 O116 1.258 . S
C113 O120 1.247 . S
C113 O121 1.258 . S
O114 C112 1.247 . S
O114 Zn115 2.028 . S
Zn115 O114 2.028 . S
Zn115 O119 2.035 . S
Zn115 O121 2.035 1_556 S
Zn115 O122 2.028 . S
O116 C112 1.258 . S
O116 Zn117 2.035 1_556 S
Zn117 O116 2.035 1_554 S
Zn117 O118 2.028 . S
Zn117 O120 2.028 . S
Zn117 O123 2.035 . S
O118 Zn117 2.028 . S
O118 C124 1.247 1_554 S
O119 Zn115 2.035 . S
O119 C124 1.258 . S
O120 C113 1.247 . S
O120 Zn117 2.028 . S
O121 C113 1.258 . S
O121 Zn115 2.035 1_554 S
O122 Zn115 2.028 . S
O122 C125 1.247 1_556 S
O123 Zn117 2.035 . S
O123 C125 1.258 . S
C124 O118 1.247 1_556 S
C124 O119 1.258 . S
C125 O122 1.247 1_554 S
C125 O123 1.258 . S
C126 O128 1.247 . S
C126 O130 1.258 . S
C127 O134 1.247 . S
C127 O135 1.258 . S
O128 C126 1.247 . S
O128 Zn129 2.028 . S
Zn129 O128 2.028 . S
Zn129 O133 2.035 . S
Zn129 O135 2.035 . S
Zn129 O136 2.028 . S
O130 C126 1.258 . S
O130 Zn131 2.035 . S
Zn131 O130 2.035 . S
Zn131 O132 2.028 . S
Zn131 O134 2.028 . S
Zn131 O137 2.035 . S
O132 Zn131 2.028 . S
O132 C138 1.247 . S
O133 Zn129 2.035 . S
O133 C138 1.258 . S
O134 C127 1.247 . S
O134 Zn131 2.028 . S
O135 C127 1.258 . S
O135 Zn129 2.035 . S
O136 Zn129 2.028 . S
O136 C139 1.247 . S
O137 Zn131 2.035 . S
O137 C139 1.258 . S
C138 O132 1.247 . S
C138 O133 1.258 . S
C139 O136 1.247 . S
C139 O137 1.258 . S
C140 O142 1.247 . S
C140 O144 1.258 . S
C141 O148 1.247 . S
C141 O149 1.258 . S
O142 C140 1.247 . S
O142 Zn143 2.028 . S
Zn143 O142 2.028 . S
Zn143 O147 2.035 . S
Zn143 O149 2.035 . S
Zn143 O150 2.028 . S
O144 C140 1.258 . S
O144 Zn145 2.035 . S
Zn145 O144 2.035 . S
Zn145 O146 2.028 . S
Zn145 O148 2.028 . S
Zn145 O151 2.035 . S
O146 Zn145 2.028 . S
O146 C152 1.247 . S
O147 Zn143 2.035 . S
O147 C152 1.258 . S
O148 C141 1.247 . S
O148 Zn145 2.028 . S
O149 C141 1.258 . S
O149 Zn143 2.035 . S
O150 Zn143 2.028 . S
O150 C153 1.247 . S
O151 Zn145 2.035 . S
O151 C153 1.258 . S
C152 O146 1.247 . S
C152 O147 1.258 . S
C153 O150 1.247 . S
C153 O151 1.258 . S
C154 O156 1.247 . S
C154 O158 1.258 . S
C155 O162 1.247 . S
C155 O163 1.258 . S
O156 C154 1.247 . S
O156 Zn157 2.028 . S
Zn157 O156 2.028 . S
Zn157 O161 2.035 . S
Zn157 O163 2.035 1_556 S
Zn157 O164 2.028 . S
O158 C154 1.258 . S
O158 Zn159 2.035 1_556 S
Zn159 O158 2.035 1_554 S
Zn159 O160 2.028 . S
Zn159 O162 2.028 . S
Zn159 O165 2.035 . S
O160 Zn159 2.028 . S
O160 C166 1.247 1_554 S
O161 Zn157 2.035 . S
O161 C166 1.258 . S
O162 C155 1.247 . S
O162 Zn159 2.028 . S
O163 C155 1.258 . S
O163 Zn157 2.035 1_554 S
O164 Zn157 2.028 . S
O164 C167 1.247 1_556 S
O165 Zn159 2.035 . S
O165 C167 1.258 . S
C166 O160 1.247 1_556 S
C166 O161 1.258 . S
C167 O164 1.247 1_554 S
C167 O165 1.258 . S
H168 C186 0.951 . S
H169 C188 0.951 . S
H170 C190 0.950 . S
H171 C191 0.950 . S
H172 C193 0.950 . S
H173 C196 0.950 . S
H174 C197 0.950 . S
H175 C199 0.950 . S
H176 C200 0.950 . S
H177 C201 0.951 . S
H178 C203 0.951 . S
H179 C205 0.950 . S
H180 C206 0.950 . S
H181 C208 0.950 . S
H182 C211 0.950 . S
H183 C212 0.950 . S
H184 C214 0.950 . S
H185 C215 0.950 . S
C186 H168 0.951 . S
C186 C187 1.366 . S
C186 C188 1.388 . S
C187 C186 1.366 . S
C187 C191 1.385 . S
C188 H169 0.951 . S
C188 C186 1.388 . S
C188 C189 1.366 . S
C189 C188 1.366 . S
C189 C190 1.414 . S
C189 C192 1.499 . S
C190 H170 0.950 . S
C190 C189 1.414 . S
C190 C191 1.374 . S
C191 H171 0.950 . S
C191 C187 1.385 . S
C191 C190 1.374 . S
C192 C189 1.499 . S
C192 C193 1.373 . S
C192 C194 1.389 . S
C193 H172 0.950 . S
C193 C192 1.373 . S
C193 C209 1.377 . S
C194 C192 1.389 . S
C194 C195 1.524 . S
C194 C208 1.377 . S
C195 C194 1.524 . S
C195 C196 1.397 . S
C195 C200 1.363 . S
C196 H173 0.950 . S
C196 C195 1.397 . S
C196 C197 1.334 . S
C197 H174 0.950 . S
C197 C196 1.334 . S
C197 C198 1.287 . S
C198 C197 1.287 . S
C198 C199 1.524 . S
C198 H217 0.913 . S
C199 H175 0.950 . S
C199 C198 1.524 . S
C199 C200 1.415 . S
C200 H176 0.950 . S
C200 C195 1.363 . S
C200 C199 1.415 . S
C201 H177 0.951 . S
C201 C202 1.366 . S
C201 C203 1.388 . S
C202 C201 1.366 . S
C202 C206 1.385 . S
C203 H178 0.951 . S
C203 C201 1.388 . S
C203 C204 1.366 . S
C204 C203 1.366 . S
C204 C205 1.414 . S
C204 C207 1.499 . S
C205 H179 0.950 . S
C205 C204 1.414 . S
C205 C206 1.374 . S
C206 H180 0.950 . S
C206 C202 1.385 . S
C206 C205 1.374 . S
C207 C204 1.499 . S
C207 C208 1.373 . S
C207 C209 1.389 . S
C208 H181 0.950 . S
C208 C194 1.377 . S
C208 C207 1.373 . S
C209 C193 1.377 . S
C209 C207 1.389 . S
C209 C210 1.524 . S
C210 C209 1.524 . S
C210 C211 1.397 . S
C210 C215 1.363 . S
C211 H182 0.950 . S
C211 C210 1.397 . S
C211 C212 1.334 . S
C212 H183 0.950 . S
C212 C211 1.334 . S
C212 C213 1.287 . S
C213 C212 1.287 . S
C213 C214 1.524 . S
C213 H216 0.999 . S
C214 H184 0.950 . S
C214 C213 1.524 . S
C214 C215 1.415 . S
C215 H185 0.950 . S
C215 C210 1.363 . S
C215 C214 1.415 . S
H216 C213 0.999 . S
H217 C198 0.913 . S
H218 C236 0.951 . S
H219 C238 0.951 . S
H220 C240 0.950 . S
H221 C241 0.950 . S
H222 C243 0.950 . S
H223 C246 0.950 . S
H224 C247 0.950 . S
H225 C249 0.950 . S
H226 C250 0.950 . S
H227 C251 0.951 . S
H228 C253 0.951 . S
H229 C255 0.950 . S
H230 C256 0.950 . S
H231 C258 0.950 . S
H232 C261 0.950 . S
H233 C262 0.950 . S
H234 C264 0.950 . S
H235 C265 0.950 . S
C236 H218 0.951 . S
C236 C237 1.366 . S
C236 C238 1.388 . S
C237 C236 1.366 . S
C237 C241 1.385 . S
C238 H219 0.951 . S
C238 C236 1.388 . S
C238 C239 1.366 . S
C239 C238 1.366 . S
C239 C240 1.414 . S
C239 C242 1.499 . S
C240 H220 0.950 . S
C240 C239 1.414 . S
C240 C241 1.374 . S
C241 H221 0.950 . S
C241 C237 1.385 . S
C241 C240 1.374 . S
C242 C239 1.499 . S
C242 C243 1.373 . S
C242 C244 1.389 . S
C243 H222 0.950 . S
C243 C242 1.373 . S
C243 C259 1.377 . S
C244 C242 1.389 . S
C244 C245 1.524 . S
C244 C258 1.377 . S
C245 C244 1.524 . S
C245 C246 1.397 . S
C245 C250 1.363 . S
C246 H223 0.950 . S
C246 C245 1.397 . S
C246 C247 1.334 . S
C247 H224 0.950 . S
C247 C246 1.334 . S
C247 C248 1.287 . S
C248 C247 1.287 . S
C248 C249 1.524 . S
C248 H267 0.913 . S
C249 H225 0.950 . S
C249 C248 1.524 . S
C249 C250 1.415 . S
C250 H226 0.950 . S
C250 C245 1.363 . S
C250 C249 1.415 . S
C251 H227 0.951 . S
C251 C252 1.366 . S
C251 C253 1.388 . S
C252 C251 1.366 . S
C252 C256 1.385 . S
C253 H228 0.951 . S
C253 C251 1.388 . S
C253 C254 1.366 . S
C254 C253 1.366 . S
C254 C255 1.414 . S
C254 C257 1.499 . S
C255 H229 0.950 . S
C255 C254 1.414 . S
C255 C256 1.374 . S
C256 H230 0.950 . S
C256 C252 1.385 . S
C256 C255 1.374 . S
C257 C254 1.499 . S
C257 C258 1.373 . S
C257 C259 1.389 . S
C258 H231 0.950 . S
C258 C244 1.377 . S
C258 C257 1.373 . S
C259 C243 1.377 . S
C259 C257 1.389 . S
C259 C260 1.524 . S
C260 C259 1.524 . S
C260 C261 1.397 . S
C260 C265 1.363 . S
C261 H232 0.950 . S
C261 C260 1.397 . S
C261 C262 1.334 . S
C262 H233 0.950 . S
C262 C261 1.334 . S
C262 C263 1.287 . S
C263 C262 1.287 . S
C263 C264 1.524 . S
C263 H266 0.999 . S
C264 H234 0.950 . S
C264 C263 1.524 . S
C264 C265 1.415 . S
C265 H235 0.950 . S
C265 C260 1.363 . S
C265 C264 1.415 . S
H266 C263 0.999 . S
H267 C248 0.913 . S
H268 C286 0.951 . S
H269 C288 0.951 . S
H270 C290 0.950 . S
H271 C291 0.950 . S
H272 C293 0.950 . S
H273 C296 0.950 . S
H274 C297 0.950 . S
H275 C299 0.950 . S
H276 C300 0.950 . S
H277 C301 0.951 . S
H278 C303 0.951 . S
H279 C305 0.950 . S
H280 C306 0.950 . S
H281 C308 0.950 . S
H282 C311 0.950 . S
H283 C312 0.950 . S
H284 C314 0.950 . S
H285 C315 0.950 . S
C286 H268 0.951 . S
C286 C287 1.366 . S
C286 C288 1.388 . S
C287 C286 1.366 . S
C287 C291 1.385 . S
C288 H269 0.951 . S
C288 C286 1.388 . S
C288 C289 1.366 . S
C289 C288 1.366 . S
C289 C290 1.414 . S
C289 C292 1.499 . S
C290 H270 0.950 . S
C290 C289 1.414 . S
C290 C291 1.374 . S
C291 H271 0.950 . S
C291 C287 1.385 . S
C291 C290 1.374 . S
C292 C289 1.499 . S
C292 C293 1.373 . S
C292 C294 1.389 . S
C293 H272 0.950 . S
C293 C292 1.373 . S
C293 C309 1.377 . S
C294 C292 1.389 . S
C294 C295 1.524 . S
C294 C308 1.377 . S
C295 C294 1.524 . S
C295 C296 1.397 . S
C295 C300 1.363 . S
C296 H273 0.950 . S
C296 C295 1.397 . S
C296 C297 1.334 . S
C297 H274 0.950 . S
C297 C296 1.334 . S
C297 C298 1.287 . S
C298 C297 1.287 . S
C298 C299 1.524 . S
C298 H317 0.913 . S
C299 H275 0.950 . S
C299 C298 1.524 . S
C299 C300 1.415 . S
C300 H276 0.950 . S
C300 C295 1.363 . S
C300 C299 1.415 . S
C301 H277 0.951 . S
C301 C302 1.366 . S
C301 C303 1.388 . S
C302 C301 1.366 . S
C302 C306 1.385 . S
C303 H278 0.951 . S
C303 C301 1.388 . S
C303 C304 1.366 . S
C304 C303 1.366 . S
C304 C305 1.414 . S
C304 C307 1.499 . S
C305 H279 0.950 . S
C305 C304 1.414 . S
C305 C306 1.374 . S
C306 H280 0.950 . S
C306 C302 1.385 . S
C306 C305 1.374 . S
C307 C304 1.499 . S
C307 C308 1.373 . S
C307 C309 1.389 . S
C308 H281 0.950 . S
C308 C294 1.377 . S
C308 C307 1.373 . S
C309 C293 1.377 . S
C309 C307 1.389 . S
C309 C310 1.524 . S
C310 C309 1.524 . S
C310 C311 1.397 . S
C310 C315 1.363 . S
C311 H282 0.950 . S
C311 C310 1.397 . S
C311 C312 1.334 . S
C312 H283 0.950 . S
C312 C311 1.334 . S
C312 C313 1.287 . S
C313 C312 1.287 . S
C313 C314 1.524 . S
C313 H316 0.999 . S
C314 H284 0.950 . S
C314 C313 1.524 . S
C314 C315 1.415 . S
C315 H285 0.950 . S
C315 C310 1.363 . S
C315 C314 1.415 . S
H316 C313 0.999 . S
H317 C298 0.913 . S
H318 C336 0.951 . S
H319 C338 0.951 . S
H320 C340 0.950 . S
H321 C341 0.950 . S
H322 C343 0.950 . S
H323 C346 0.950 . S
H324 C347 0.950 . S
H325 C349 0.950 . S
H326 C350 0.950 . S
H327 C351 0.951 . S
H328 C353 0.951 . S
H329 C355 0.950 . S
H330 C356 0.950 . S
H331 C358 0.950 . S
H332 C361 0.950 . S
H333 C362 0.950 . S
H334 C364 0.950 . S
H335 C365 0.950 . S
C336 H318 0.951 . S
C336 C337 1.366 . S
C336 C338 1.388 . S
C337 C336 1.366 . S
C337 C341 1.385 . S
C338 H319 0.951 . S
C338 C336 1.388 . S
C338 C339 1.366 . S
C339 C338 1.366 . S
C339 C340 1.414 . S
C339 C342 1.499 . S
C340 H320 0.950 . S
C340 C339 1.414 . S
C340 C341 1.374 . S
C341 H321 0.950 . S
C341 C337 1.385 . S
C341 C340 1.374 . S
C342 C339 1.499 . S
C342 C343 1.373 . S
C342 C344 1.389 . S
C343 H322 0.950 . S
C343 C342 1.373 . S
C343 C359 1.377 . S
C344 C342 1.389 . S
C344 C345 1.524 . S
C344 C358 1.377 . S
C345 C344 1.524 . S
C345 C346 1.397 . S
C345 C350 1.363 . S
C346 H323 0.950 . S
C346 C345 1.397 . S
C346 C347 1.334 . S
C347 H324 0.950 . S
C347 C346 1.334 . S
C347 C348 1.287 . S
C348 C347 1.287 . S
C348 C349 1.524 . S
C348 H367 0.913 . S
C349 H325 0.950 . S
C349 C348 1.524 . S
C349 C350 1.415 . S
C350 H326 0.950 . S
C350 C345 1.363 . S
C350 C349 1.415 . S
C351 H327 0.951 . S
C351 C352 1.366 . S
C351 C353 1.388 . S
C352 C351 1.366 . S
C352 C356 1.385 . S
C353 H328 0.951 . S
C353 C351 1.388 . S
C353 C354 1.366 . S
C354 C353 1.366 . S
C354 C355 1.414 . S
C354 C357 1.499 . S
C355 H329 0.950 . S
C355 C354 1.414 . S
C355 C356 1.374 . S
C356 H330 0.950 . S
C356 C352 1.385 . S
C356 C355 1.374 . S
C357 C354 1.499 . S
C357 C358 1.373 . S
C357 C359 1.389 . S
C358 H331 0.950 . S
C358 C344 1.377 . S
C358 C357 1.373 . S
C359 C343 1.377 . S
C359 C357 1.389 . S
C359 C360 1.524 . S
C360 C359 1.524 . S
C360 C361 1.397 . S
C360 C365 1.363 . S
C361 H332 0.950 . S
C361 C360 1.397 . S
C361 C362 1.334 . S
C362 H333 0.950 . S
C362 C361 1.334 . S
C362 C363 1.287 . S
C363 C362 1.287 . S
C363 C364 1.524 . S
C363 H366 0.999 . S
C364 H334 0.950 . S
C364 C363 1.524 . S
C364 C365 1.415 . S
C365 H335 0.950 . S
C365 C360 1.363 . S
C365 C364 1.415 . S
H366 C363 0.999 . S
H367 C348 0.913 . S
H368 C386 0.951 . S
H369 C388 0.951 . S
H370 C390 0.950 . S
H371 C391 0.950 . S
H372 C393 0.950 . S
H373 C396 0.950 . S
H374 C397 0.950 . S
H375 C399 0.950 . S
H376 C400 0.950 . S
H377 C401 0.951 . S
H378 C403 0.951 . S
H379 C405 0.950 . S
H380 C406 0.950 . S
H381 C408 0.950 . S
H382 C411 0.950 . S
H383 C412 0.950 . S
H384 C414 0.950 . S
H385 C415 0.950 . S
C386 H368 0.951 . S
C386 C387 1.366 . S
C386 C388 1.388 . S
C387 C386 1.366 . S
C387 C391 1.385 . S
C388 H369 0.951 . S
C388 C386 1.388 . S
C388 C389 1.366 . S
C389 C388 1.366 . S
C389 C390 1.414 . S
C389 C392 1.499 . S
C390 H370 0.950 . S
C390 C389 1.414 . S
C390 C391 1.374 . S
C391 H371 0.950 . S
C391 C387 1.385 . S
C391 C390 1.374 . S
C392 C389 1.499 . S
C392 C393 1.373 . S
C392 C394 1.389 . S
C393 H372 0.950 . S
C393 C392 1.373 . S
C393 C409 1.377 . S
C394 C392 1.389 . S
C394 C395 1.524 . S
C394 C408 1.377 . S
C395 C394 1.524 . S
C395 C396 1.397 . S
C395 C400 1.363 . S
C396 H373 0.950 . S
C396 C395 1.397 . S
C396 C397 1.334 . S
C397 H374 0.950 . S
C397 C396 1.334 . S
C397 C398 1.287 . S
C398 C397 1.287 . S
C398 C399 1.524 . S
C398 H417 0.913 . S
C399 H375 0.950 . S
C399 C398 1.524 . S
C399 C400 1.415 . S
C400 H376 0.950 . S
C400 C395 1.363 . S
C400 C399 1.415 . S
C401 H377 0.951 . S
C401 C402 1.366 . S
C401 C403 1.388 . S
C402 C401 1.366 . S
C402 C406 1.385 . S
C403 H378 0.951 . S
C403 C401 1.388 . S
C403 C404 1.366 . S
C404 C403 1.366 . S
C404 C405 1.414 . S
C404 C407 1.499 . S
C405 H379 0.950 . S
C405 C404 1.414 . S
C405 C406 1.374 . S
C406 H380 0.950 . S
C406 C402 1.385 . S
C406 C405 1.374 . S
C407 C404 1.499 . S
C407 C408 1.373 . S
C407 C409 1.389 . S
C408 H381 0.950 . S
C408 C394 1.377 . S
C408 C407 1.373 . S
C409 C393 1.377 . S
C409 C407 1.389 . S
C409 C410 1.524 . S
C410 C409 1.524 . S
C410 C411 1.397 . S
C410 C415 1.363 . S
C411 H382 0.950 . S
C411 C410 1.397 . S
C411 C412 1.334 . S
C412 H383 0.950 . S
C412 C411 1.334 . S
C412 C413 1.287 . S
C413 C412 1.287 . S
C413 C414 1.524 . S
C413 H416 0.999 . S
C414 H384 0.950 . S
C414 C413 1.524 . S
C414 C415 1.415 . S
C415 H385 0.950 . S
C415 C410 1.363 . S
C415 C414 1.415 . S
H416 C413 0.999 . S
H417 C398 0.913 . S
H418 C436 0.951 . S
H419 C438 0.951 . S
H420 C440 0.950 . S
H421 C441 0.950 . S
H422 C443 0.950 . S
H423 C446 0.950 . S
H424 C447 0.950 . S
H425 C449 0.950 . S
H426 C450 0.950 . S
H427 C451 0.951 . S
H428 C453 0.951 . S
H429 C455 0.950 . S
H430 C456 0.950 . S
H431 C458 0.950 . S
H432 C461 0.950 . S
H433 C462 0.950 . S
H434 C464 0.950 . S
H435 C465 0.950 . S
C436 H418 0.951 . S
C436 C437 1.366 . S
C436 C438 1.388 . S
C437 C436 1.366 . S
C437 C441 1.385 . S
C438 H419 0.951 . S
C438 C436 1.388 . S
C438 C439 1.366 . S
C439 C438 1.366 . S
C439 C440 1.414 . S
C439 C442 1.499 . S
C440 H420 0.950 . S
C440 C439 1.414 . S
C440 C441 1.374 . S
C441 H421 0.950 . S
C441 C437 1.385 . S
C441 C440 1.374 . S
C442 C439 1.499 . S
C442 C443 1.373 . S
C442 C444 1.389 . S
C443 H422 0.950 . S
C443 C442 1.373 . S
C443 C459 1.377 . S
C444 C442 1.389 . S
C444 C445 1.524 . S
C444 C458 1.377 . S
C445 C444 1.524 . S
C445 C446 1.397 . S
C445 C450 1.363 . S
C446 H423 0.950 . S
C446 C445 1.397 . S
C446 C447 1.334 . S
C447 H424 0.950 . S
C447 C446 1.334 . S
C447 C448 1.287 . S
C448 C447 1.287 . S
C448 C449 1.524 . S
C448 H467 0.913 . S
C449 H425 0.950 . S
C449 C448 1.524 . S
C449 C450 1.415 . S
C450 H426 0.950 . S
C450 C445 1.363 . S
C450 C449 1.415 . S
C451 H427 0.951 . S
C451 C452 1.366 . S
C451 C453 1.388 . S
C452 C451 1.366 . S
C452 C456 1.385 . S
C453 H428 0.951 . S
C453 C451 1.388 . S
C453 C454 1.366 . S
C454 C453 1.366 . S
C454 C455 1.414 . S
C454 C457 1.499 . S
C455 H429 0.950 . S
C455 C454 1.414 . S
C455 C456 1.374 . S
C456 H430 0.950 . S
C456 C452 1.385 . S
C456 C455 1.374 . S
C457 C454 1.499 . S
C457 C458 1.373 . S
C457 C459 1.389 . S
C458 H431 0.950 . S
C458 C444 1.377 . S
C458 C457 1.373 . S
C459 C443 1.377 . S
C459 C457 1.389 . S
C459 C460 1.524 . S
C460 C459 1.524 . S
C460 C461 1.397 . S
C460 C465 1.363 . S
C461 H432 0.950 . S
C461 C460 1.397 . S
C461 C462 1.334 . S
C462 H433 0.950 . S
C462 C461 1.334 . S
C462 C463 1.287 . S
C463 C462 1.287 . S
C463 C464 1.524 . S
C463 H466 0.999 . S
C464 H434 0.950 . S
C464 C463 1.524 . S
C464 C465 1.415 . S
C465 H435 0.950 . S
C465 C460 1.363 . S
C465 C464 1.415 . S
H466 C463 0.999 . S
H467 C448 0.913 . S
H468 C486 0.951 . S
H469 C488 0.951 . S
H470 C490 0.950 . S
H471 C491 0.950 . S
H472 C493 0.950 . S
H473 C496 0.950 . S
H474 C497 0.950 . S
H475 C499 0.950 . S
H476 C500 0.950 . S
H477 C501 0.951 . S
H478 C503 0.951 . S
H479 C505 0.950 . S
H480 C506 0.950 . S
H481 C508 0.950 . S
H482 C511 0.950 . S
H483 C512 0.950 . S
H484 C514 0.950 . S
H485 C515 0.950 . S
C486 H468 0.951 . S
C486 C487 1.366 . S
C486 C488 1.388 . S
C487 C486 1.366 . S
C487 C491 1.385 . S
C488 H469 0.951 . S
C488 C486 1.388 . S
C488 C489 1.366 . S
C489 C488 1.366 . S
C489 C490 1.414 . S
C489 C492 1.499 . S
C490 H470 0.950 . S
C490 C489 1.414 . S
C490 C491 1.374 . S
C491 H471 0.950 . S
C491 C487 1.385 . S
C491 C490 1.374 . S
C492 C489 1.499 . S
C492 C493 1.373 . S
C492 C494 1.389 . S
C493 H472 0.950 . S
C493 C492 1.373 . S
C493 C509 1.377 . S
C494 C492 1.389 . S
C494 C495 1.524 . S
C494 C508 1.377 . S
C495 C494 1.524 . S
C495 C496 1.397 . S
C495 C500 1.363 . S
C496 H473 0.950 . S
C496 C495 1.397 . S
C496 C497 1.334 . S
C497 H474 0.950 . S
C497 C496 1.334 . S
C497 C498 1.287 . S
C498 C497 1.287 . S
C498 C499 1.524 . S
C498 H517 0.913 . S
C499 H475 0.950 . S
C499 C498 1.524 . S
C499 C500 1.415 . S
C500 H476 0.950 . S
C500 C495 1.363 . S
C500 C499 1.415 . S
C501 H477 0.951 . S
C501 C502 1.366 . S
C501 C503 1.388 . S
C502 C501 1.366 . S
C502 C506 1.385 . S
C503 H478 0.951 . S
C503 C501 1.388 . S
C503 C504 1.366 . S
C504 C503 1.366 . S
C504 C505 1.414 . S
C504 C507 1.499 . S
C505 H479 0.950 . S
C505 C504 1.414 . S
C505 C506 1.374 . S
C506 H480 0.950 . S
C506 C502 1.385 . S
C506 C505 1.374 . S
C507 C504 1.499 . S
C507 C508 1.373 . S
C507 C509 1.389 . S
C508 H481 0.950 . S
C508 C494 1.377 . S
C508 C507 1.373 . S
C509 C493 1.377 . S
C509 C507 1.389 . S
C509 C510 1.524 . S
C510 C509 1.524 . S
C510 C511 1.397 . S
C510 C515 1.363 . S
C511 H482 0.950 . S
C511 C510 1.397 . S
C511 C512 1.334 . S
C512 H483 0.950 . S
C512 C511 1.334 . S
C512 C513 1.287 . S
C513 C512 1.287 . S
C513 C514 1.524 . S
C513 H516 0.999 . S
C514 H484 0.950 . S
C514 C513 1.524 . S
C514 C515 1.415 . S
C515 H485 0.950 . S
C515 C510 1.363 . S
C515 C514 1.415 . S
H516 C513 0.999 . S
H517 C498 0.913 . S
H518 C536 0.951 . S
H519 C538 0.951 . S
H520 C540 0.950 . S
H521 C541 0.950 . S
H522 C543 0.950 . S
H523 C546 0.950 . S
H524 C547 0.950 . S
H525 C549 0.950 . S
H526 C550 0.950 . S
H527 C551 0.951 . S
H528 C553 0.951 . S
H529 C555 0.950 . S
H530 C556 0.950 . S
H531 C558 0.950 . S
H532 C561 0.950 . S
H533 C562 0.950 . S
H534 C564 0.950 . S
H535 C565 0.950 . S
C536 H518 0.951 . S
C536 C537 1.366 . S
C536 C538 1.388 . S
C537 C536 1.366 . S
C537 C541 1.385 . S
C538 H519 0.951 . S
C538 C536 1.388 . S
C538 C539 1.366 . S
C539 C538 1.366 . S
C539 C540 1.414 . S
C539 C542 1.499 . S
C540 H520 0.950 . S
C540 C539 1.414 . S
C540 C541 1.374 . S
C541 H521 0.950 . S
C541 C537 1.385 . S
C541 C540 1.374 . S
C542 C539 1.499 . S
C542 C543 1.373 . S
C542 C544 1.389 . S
C543 H522 0.950 . S
C543 C542 1.373 . S
C543 C559 1.377 . S
C544 C542 1.389 . S
C544 C545 1.524 . S
C544 C558 1.377 . S
C545 C544 1.524 . S
C545 C546 1.397 . S
C545 C550 1.363 . S
C546 H523 0.950 . S
C546 C545 1.397 . S
C546 C547 1.334 . S
C547 H524 0.950 . S
C547 C546 1.334 . S
C547 C548 1.287 . S
C548 C547 1.287 . S
C548 C549 1.524 . S
C548 H567 0.913 . S
C549 H525 0.950 . S
C549 C548 1.524 . S
C549 C550 1.415 . S
C550 H526 0.950 . S
C550 C545 1.363 . S
C550 C549 1.415 . S
C551 H527 0.951 . S
C551 C552 1.366 . S
C551 C553 1.388 . S
C552 C551 1.366 . S
C552 C556 1.385 . S
C553 H528 0.951 . S
C553 C551 1.388 . S
C553 C554 1.366 . S
C554 C553 1.366 . S
C554 C555 1.414 . S
C554 C557 1.499 . S
C555 H529 0.950 . S
C555 C554 1.414 . S
C555 C556 1.374 . S
C556 H530 0.950 . S
C556 C552 1.385 . S
C556 C555 1.374 . S
C557 C554 1.499 . S
C557 C558 1.373 . S
C557 C559 1.389 . S
C558 H531 0.950 . S
C558 C544 1.377 . S
C558 C557 1.373 . S
C559 C543 1.377 . S
C559 C557 1.389 . S
C559 C560 1.524 . S
C560 C559 1.524 . S
C560 C561 1.397 . S
C560 C565 1.363 . S
C561 H532 0.950 . S
C561 C560 1.397 . S
C561 C562 1.334 . S
C562 H533 0.950 . S
C562 C561 1.334 . S
C562 C563 1.287 . S
C563 C562 1.287 . S
C563 C564 1.524 . S
C563 H566 0.999 . S
C564 H534 0.950 . S
C564 C563 1.524 . S
C564 C565 1.415 . S
C565 H535 0.950 . S
C565 C560 1.363 . S
C565 C564 1.415 . S
H566 C563 0.999 . S
H567 C548 0.913 . S
H568 C586 0.951 . S
H569 C588 0.951 . S
H570 C590 0.950 . S
H571 C591 0.950 . S
H572 C593 0.950 . S
H573 C596 0.950 . S
H574 C597 0.950 . S
H575 C599 0.950 . S
H576 C600 0.950 . S
H577 C601 0.951 . S
H578 C603 0.951 . S
H579 C605 0.950 . S
H580 C606 0.950 . S
H581 C608 0.950 . S
H582 C611 0.950 . S
H583 C612 0.950 . S
H584 C614 0.950 . S
H585 C615 0.950 . S
C586 H568 0.951 . S
C586 C587 1.366 1_554 S
C586 C588 1.388 . S
C587 C586 1.366 1_556 S
C587 C591 1.385 . S
C588 H569 0.951 . S
C588 C586 1.388 . S
C588 C589 1.371 . S
C589 C588 1.371 . S
C589 C590 1.408 1_554 S
C589 C592 1.499 . S
C590 H570 0.950 . S
C590 C589 1.408 1_556 S
C590 C591 1.374 . S
C591 H571 0.950 . S
C591 C587 1.385 . S
C591 C590 1.374 . S
C592 C589 1.499 . S
C592 C593 1.365 1_554 S
C592 C594 1.398 . S
C593 H572 0.950 . S
C593 C592 1.365 1_556 S
C593 C609 1.377 . S
C594 C592 1.398 . S
C594 C595 1.524 . S
C594 C608 1.377 . S
C595 C594 1.524 . S
C595 C596 1.397 . S
C595 C600 1.363 . S
C596 H573 0.950 . S
C596 C595 1.397 . S
C596 C597 1.334 . S
C597 H574 0.950 . S
C597 C596 1.334 . S
C597 C598 1.287 . S
C598 C597 1.287 . S
C598 C599 1.524 . S
C598 H617 0.913 . S
C599 H575 0.950 . S
C599 C598 1.524 . S
C599 C600 1.415 . S
C600 H576 0.950 . S
C600 C595 1.363 . S
C600 C599 1.415 . S
C601 H577 0.951 . S
C601 C602 1.366 1_556 S
C601 C603 1.388 . S
C602 C601 1.366 1_554 S
C602 C606 1.385 . S
C603 H578 0.951 . S
C603 C601 1.388 . S
C603 C604 1.366 . S
C604 C603 1.366 . S
C604 C605 1.414 1_556 S
C604 C607 1.499 . S
C605 H579 0.950 . S
C605 C604 1.414 1_554 S
C605 C606 1.374 . S
C606 H580 0.950 . S
C606 C602 1.385 . S
C606 C605 1.374 . S
C607 C604 1.499 . S
C607 C608 1.374 1_556 S
C607 C609 1.389 . S
C608 H581 0.950 . S
C608 C594 1.377 . S
C608 C607 1.374 1_554 S
C609 C593 1.377 . S
C609 C607 1.389 . S
C609 C610 1.524 . S
C610 C609 1.524 . S
C610 C611 1.397 . S
C610 C615 1.363 . S
C611 H582 0.950 . S
C611 C610 1.397 . S
C611 C612 1.334 . S
C612 H583 0.950 . S
C612 C611 1.334 . S
C612 C613 1.287 . S
C613 C612 1.287 . S
C613 C614 1.524 . S
C613 H616 0.999 . S
C614 H584 0.950 . S
C614 C613 1.524 . S
C614 C615 1.415 . S
C615 H585 0.950 . S
C615 C610 1.363 . S
C615 C614 1.415 . S
H616 C613 0.999 . S
H617 C598 0.913 . S
H618 C636 0.951 . S
H619 C638 0.951 . S
H620 C640 0.950 . S
H621 C641 0.950 . S
H622 C643 0.950 . S
H623 C646 0.950 . S
H624 C647 0.950 . S
H625 C649 0.950 . S
H626 C650 0.950 . S
H627 C651 0.951 . S
H628 C653 0.951 . S
H629 C655 0.950 . S
H630 C656 0.950 . S
H631 C658 0.950 . S
H632 C661 0.950 . S
H633 C662 0.950 . S
H634 C664 0.950 . S
H635 C665 0.950 . S
C636 H618 0.951 . S
C636 C637 1.366 . S
C636 C638 1.388 . S
C637 C636 1.366 . S
C637 C641 1.385 . S
C638 H619 0.951 . S
C638 C636 1.388 . S
C638 C639 1.366 . S
C639 C638 1.366 . S
C639 C640 1.414 . S
C639 C642 1.499 . S
C640 H620 0.950 . S
C640 C639 1.414 . S
C640 C641 1.374 . S
C641 H621 0.950 . S
C641 C637 1.385 . S
C641 C640 1.374 . S
C642 C639 1.499 . S
C642 C643 1.373 . S
C642 C644 1.389 . S
C643 H622 0.950 . S
C643 C642 1.373 . S
C643 C659 1.377 . S
C644 C642 1.389 . S
C644 C645 1.524 . S
C644 C658 1.377 . S
C645 C644 1.524 . S
C645 C646 1.397 . S
C645 C650 1.363 . S
C646 H623 0.950 . S
C646 C645 1.397 . S
C646 C647 1.334 . S
C647 H624 0.950 . S
C647 C646 1.334 . S
C647 C648 1.287 . S
C648 C647 1.287 . S
C648 C649 1.524 . S
C648 H667 0.913 . S
C649 H625 0.950 . S
C649 C648 1.524 . S
C649 C650 1.415 . S
C650 H626 0.950 . S
C650 C645 1.363 . S
C650 C649 1.415 . S
C651 H627 0.951 . S
C651 C652 1.366 . S
C651 C653 1.388 . S
C652 C651 1.366 . S
C652 C656 1.385 . S
C653 H628 0.951 . S
C653 C651 1.388 . S
C653 C654 1.366 . S
C654 C653 1.366 . S
C654 C655 1.414 . S
C654 C657 1.499 . S
C655 H629 0.950 . S
C655 C654 1.414 . S
C655 C656 1.374 . S
C656 H630 0.950 . S
C656 C652 1.385 . S
C656 C655 1.374 . S
C657 C654 1.499 . S
C657 C658 1.373 . S
C657 C659 1.389 . S
C658 H631 0.950 . S
C658 C644 1.377 . S
C658 C657 1.373 . S
C659 C643 1.377 . S
C659 C657 1.389 . S
C659 C660 1.524 . S
C660 C659 1.524 . S
C660 C661 1.397 . S
C660 C665 1.363 . S
C661 H632 0.950 . S
C661 C660 1.397 . S
C661 C662 1.334 . S
C662 H633 0.950 . S
C662 C661 1.334 . S
C662 C663 1.287 . S
C663 C662 1.287 . S
C663 C664 1.524 . S
C663 H666 0.999 . S
C664 H634 0.950 . S
C664 C663 1.524 . S
C664 C665 1.415 . S
C665 H635 0.950 . S
C665 C660 1.363 . S
C665 C664 1.415 . S
H666 C663 0.999 . S
H667 C648 0.913 . S
H668 C686 0.951 . S
H669 C688 0.951 . S
H670 C690 0.950 . S
H671 C691 0.950 . S
H672 C693 0.950 . S
H673 C696 0.950 . S
H674 C697 0.950 . S
H675 C699 0.950 . S
H676 C700 0.950 . S
H677 C701 0.951 . S
H678 C703 0.951 . S
H679 C705 0.950 . S
H680 C706 0.950 . S
H681 C708 0.950 . S
H682 C711 0.950 . S
H683 C712 0.950 . S
H684 C714 0.950 . S
H685 C715 0.950 . S
C686 H668 0.951 . S
C686 C687 1.366 . S
C686 C688 1.388 . S
C687 C686 1.366 . S
C687 C691 1.385 . S
C688 H669 0.951 . S
C688 C686 1.388 . S
C688 C689 1.366 . S
C689 C688 1.366 . S
C689 C690 1.414 . S
C689 C692 1.499 . S
C690 H670 0.950 . S
C690 C689 1.414 . S
C690 C691 1.374 . S
C691 H671 0.950 . S
C691 C687 1.385 . S
C691 C690 1.374 . S
C692 C689 1.499 . S
C692 C693 1.373 . S
C692 C694 1.389 . S
C693 H672 0.950 . S
C693 C692 1.373 . S
C693 C709 1.377 . S
C694 C692 1.389 . S
C694 C695 1.524 . S
C694 C708 1.377 . S
C695 C694 1.524 . S
C695 C696 1.397 . S
C695 C700 1.363 . S
C696 H673 0.950 . S
C696 C695 1.397 . S
C696 C697 1.334 . S
C697 H674 0.950 . S
C697 C696 1.334 . S
C697 C698 1.287 . S
C698 C697 1.287 . S
C698 C699 1.524 . S
C698 H717 0.913 . S
C699 H675 0.950 . S
C699 C698 1.524 . S
C699 C700 1.415 . S
C700 H676 0.950 . S
C700 C695 1.363 . S
C700 C699 1.415 . S
C701 H677 0.951 . S
C701 C702 1.366 . S
C701 C703 1.388 . S
C702 C701 1.366 . S
C702 C706 1.385 . S
C703 H678 0.951 . S
C703 C701 1.388 . S
C703 C704 1.366 . S
C704 C703 1.366 . S
C704 C705 1.414 . S
C704 C707 1.499 . S
C705 H679 0.950 . S
C705 C704 1.414 . S
C705 C706 1.374 . S
C706 H680 0.950 . S
C706 C702 1.385 . S
C706 C705 1.374 . S
C707 C704 1.499 . S
C707 C708 1.373 . S
C707 C709 1.389 . S
C708 H681 0.950 . S
C708 C694 1.377 . S
C708 C707 1.373 . S
C709 C693 1.377 . S
C709 C707 1.389 . S
C709 C710 1.524 . S
C710 C709 1.524 . S
C710 C711 1.397 . S
C710 C715 1.363 . S
C711 H682 0.950 . S
C711 C710 1.397 . S
C711 C712 1.334 . S
C712 H683 0.950 . S
C712 C711 1.334 . S
C712 C713 1.287 . S
C713 C712 1.287 . S
C713 C714 1.524 . S
C713 H716 0.999 . S
C714 H684 0.950 . S
C714 C713 1.524 . S
C714 C715 1.415 . S
C715 H685 0.950 . S
C715 C710 1.363 . S
C715 C714 1.415 . S
H716 C713 0.999 . S
H717 C698 0.913 . S
H718 C736 0.951 . S
H719 C738 0.951 . S
H720 C740 0.950 . S
H721 C741 0.950 . S
H722 C743 0.950 . S
H723 C746 0.950 . S
H724 C747 0.950 . S
H725 C749 0.950 . S
H726 C750 0.950 . S
H727 C751 0.951 . S
H728 C753 0.951 . S
H729 C755 0.958 . S
H730 C756 0.955 . S
H731 C758 0.950 . S
H732 C761 0.950 . S
H733 C762 0.950 . S
H734 C764 0.950 . S
H735 C765 0.950 . S
C736 H718 0.951 . S
C736 C737 1.366 . S
C736 C738 1.388 . S
C737 C736 1.366 . S
C737 C741 1.385 1_554 S
C738 H719 0.951 . S
C738 C736 1.388 . S
C738 C739 1.366 . S
C739 C738 1.366 . S
C739 C740 1.414 1_554 S
C739 C742 1.499 . S
C740 H720 0.950 . S
C740 C739 1.414 1_556 S
C740 C741 1.374 . S
C741 H721 0.950 . S
C741 C737 1.385 1_556 S
C741 C740 1.374 . S
C742 C739 1.499 . S
C742 C743 1.373 1_554 S
C742 C744 1.389 . S
C743 H722 0.950 . S
C743 C742 1.373 1_556 S
C743 C759 1.377 . S
C744 C742 1.389 . S
C744 C745 1.524 . S
C744 C758 1.377 . S
C745 C744 1.524 . S
C745 C746 1.397 . S
C745 C750 1.363 . S
C746 H723 0.950 . S
C746 C745 1.397 . S
C746 C747 1.334 . S
C747 H724 0.950 . S
C747 C746 1.334 . S
C747 C748 1.287 . S
C748 C747 1.287 . S
C748 C749 1.524 . S
C748 H767 0.913 . S
C749 H725 0.950 . S
C749 C748 1.524 . S
C749 C750 1.415 . S
C750 H726 0.950 . S
C750 C745 1.363 . S
C750 C749 1.415 . S
C751 H727 0.951 . S
C751 C752 1.366 . S
C751 C753 1.388 . S
C752 C751 1.366 . S
C752 C756 1.381 1_556 S
C753 H728 0.951 . S
C753 C751 1.388 . S
C753 C754 1.366 . S
C754 C753 1.366 . S
C754 C755 1.409 1_556 S
C754 C757 1.499 . S
C755 H729 0.958 . S
C755 C754 1.409 1_554 S
C755 C756 1.374 . S
C756 H730 0.955 . S
C756 C752 1.381 1_554 S
C756 C755 1.374 . S
C757 C754 1.499 . S
C757 C758 1.373 1_556 S
C757 C759 1.389 . S
C758 H731 0.950 . S
C758 C744 1.377 . S
C758 C757 1.373 1_554 S
C759 C743 1.377 . S
C759 C757 1.389 . S
C759 C760 1.524 . S
C760 C759 1.524 . S
C760 C761 1.397 . S
C760 C765 1.363 . S
C761 H732 0.950 . S
C761 C760 1.397 . S
C761 C762 1.334 . S
C762 H733 0.950 . S
C762 C761 1.334 . S
C762 C763 1.287 . S
C763 C762 1.287 . S
C763 C764 1.524 . S
C763 H766 0.999 . S
C764 H734 0.950 . S
C764 C763 1.524 . S
C764 C765 1.415 . S
C765 H735 0.950 . S
C765 C760 1.363 . S
C765 C764 1.415 . S
H766 C763 0.999 . S
H767 C748 0.913 . S
H768 C786 0.951 . S
H769 C788 0.951 . S
H770 C790 0.950 . S
H771 C791 0.950 . S
H772 C793 0.950 . S
H773 C796 0.950 . S
H774 C797 0.950 . S
H775 C799 0.951 . S
H776 C800 0.950 1_565 S
H777 C801 0.951 . S
H778 C803 0.951 . S
H779 C805 0.950 . S
H780 C806 0.950 . S
H781 C808 0.950 . S
H782 C811 0.950 . S
H783 C812 0.950 . S
H784 C814 0.951 . S
H785 C815 0.950 1_545 S
C786 H768 0.951 . S
C786 C787 1.366 . S
C786 C788 1.388 . S
C787 C786 1.366 . S
C787 C791 1.385 . S
C788 H769 0.951 . S
C788 C786 1.388 . S
C788 C789 1.366 . S
C789 C788 1.366 . S
C789 C790 1.414 . S
C789 C792 1.499 . S
C790 H770 0.950 . S
C790 C789 1.414 . S
C790 C791 1.374 . S
C791 H771 0.950 . S
C791 C787 1.385 . S
C791 C790 1.374 . S
C792 C789 1.499 . S
C792 C793 1.373 . S
C792 C794 1.389 . S
C793 H772 0.950 . S
C793 C792 1.373 . S
C793 C809 1.377 1_545 S
C794 C792 1.389 . S
C794 C795 1.524 . S
C794 C808 1.377 1_545 S
C795 C794 1.524 . S
C795 C796 1.397 . S
C795 C800 1.363 . S
C796 H773 0.950 . S
C796 C795 1.397 . S
C796 C797 1.334 . S
C797 H774 0.950 . S
C797 C796 1.334 . S
C797 C798 1.287 . S
C798 C797 1.287 . S
C798 C799 1.524 . S
C798 H817 0.913 . S
C799 H775 0.951 . S
C799 C798 1.524 . S
C799 C800 1.415 . S
C800 H776 0.950 1_545 S
C800 C795 1.363 . S
C800 C799 1.415 . S
C801 H777 0.951 . S
C801 C802 1.366 . S
C801 C803 1.388 . S
C802 C801 1.366 . S
C802 C806 1.385 . S
C803 H778 0.951 . S
C803 C801 1.388 . S
C803 C804 1.366 . S
C804 C803 1.366 . S
C804 C805 1.414 . S
C804 C807 1.499 . S
C805 H779 0.950 . S
C805 C804 1.414 . S
C805 C806 1.374 . S
C806 H780 0.950 . S
C806 C802 1.385 . S
C806 C805 1.374 . S
C807 C804 1.499 . S
C807 C808 1.373 . S
C807 C809 1.389 . S
C808 H781 0.950 . S
C808 C794 1.377 1_565 S
C808 C807 1.373 . S
C809 C793 1.377 1_565 S
C809 C807 1.389 . S
C809 C810 1.524 . S
C810 C809 1.524 . S
C810 C811 1.397 . S
C810 C815 1.363 . S
C811 H782 0.950 . S
C811 C810 1.397 . S
C811 C812 1.334 . S
C812 H783 0.950 . S
C812 C811 1.334 . S
C812 C813 1.287 . S
C813 C812 1.287 . S
C813 C814 1.524 . S
C813 H816 0.999 . S
C814 H784 0.951 . S
C814 C813 1.524 . S
C814 C815 1.415 . S
C815 H785 0.950 1_565 S
C815 C810 1.363 . S
C815 C814 1.415 . S
H816 C813 0.999 . S
H817 C798 0.913 . S
H818 C836 0.951 . S
H819 C838 0.951 . S
H820 C840 0.950 . S
H821 C841 0.950 . S
H822 C843 0.950 . S
H823 C846 0.950 . S
H824 C847 0.950 . S
H825 C849 0.950 . S
H826 C850 0.950 . S
H827 C851 0.951 . S
H828 C853 0.951 . S
H829 C855 0.950 . S
H830 C856 0.950 . S
H831 C858 0.950 . S
H832 C861 0.950 . S
H833 C862 0.950 . S
H834 C864 0.950 . S
H835 C865 0.950 . S
C836 H818 0.951 . S
C836 C837 1.366 . S
C836 C838 1.388 . S
C837 C836 1.366 . S
C837 C841 1.385 . S
C838 H819 0.951 . S
C838 C836 1.388 . S
C838 C839 1.366 . S
C839 C838 1.366 . S
C839 C840 1.414 . S
C839 C842 1.499 . S
C840 H820 0.950 . S
C840 C839 1.414 . S
C840 C841 1.374 . S
C841 H821 0.950 . S
C841 C837 1.385 . S
C841 C840 1.374 . S
C842 C839 1.499 . S
C842 C843 1.373 . S
C842 C844 1.389 . S
C843 H822 0.950 . S
C843 C842 1.373 . S
C843 C859 1.377 . S
C844 C842 1.389 . S
C844 C845 1.524 . S
C844 C858 1.377 . S
C845 C844 1.524 . S
C845 C846 1.397 . S
C845 C850 1.363 . S
C846 H823 0.950 . S
C846 C845 1.397 . S
C846 C847 1.334 . S
C847 H824 0.950 . S
C847 C846 1.334 . S
C847 C848 1.287 . S
C848 C847 1.287 . S
C848 C849 1.524 . S
C848 H867 0.913 . S
C849 H825 0.950 . S
C849 C848 1.524 . S
C849 C850 1.415 . S
C850 H826 0.950 . S
C850 C845 1.363 . S
C850 C849 1.415 . S
C851 H827 0.951 . S
C851 C852 1.366 . S
C851 C853 1.388 . S
C852 C851 1.366 . S
C852 C856 1.385 . S
C853 H828 0.951 . S
C853 C851 1.388 . S
C853 C854 1.366 . S
C854 C853 1.366 . S
C854 C855 1.414 . S
C854 C857 1.499 . S
C855 H829 0.950 . S
C855 C854 1.414 . S
C855 C856 1.374 . S
C856 H830 0.950 . S
C856 C852 1.385 . S
C856 C855 1.374 . S
C857 C854 1.499 . S
C857 C858 1.373 . S
C857 C859 1.389 . S
C858 H831 0.950 . S
C858 C844 1.377 . S
C858 C857 1.373 . S
C859 C843 1.377 . S
C859 C857 1.389 . S
C859 C860 1.524 . S
C860 C859 1.524 . S
C860 C861 1.397 . S
C860 C865 1.363 . S
C861 H832 0.950 . S
C861 C860 1.397 . S
C861 C862 1.334 . S
C862 H833 0.950 . S
C862 C861 1.334 . S
C862 C863 1.287 . S
C863 C862 1.287 . S
C863 C864 1.524 . S
C863 H866 0.999 . S
C864 H834 0.950 . S
C864 C863 1.524 . S
C864 C865 1.415 . S
C865 H835 0.950 . S
C865 C860 1.363 . S
C865 C864 1.415 . S
H866 C863 0.999 . S
H867 C848 0.913 . S
H868 C886 0.951 . S
H869 C888 0.951 . S
H870 C890 0.950 . S
H871 C891 0.950 . S
H872 C893 0.950 . S
H873 C896 0.950 . S
H874 C897 0.950 . S
H875 C899 0.950 . S
H876 C900 0.950 . S
H877 C901 0.951 . S
H878 C903 0.951 . S
H879 C905 0.950 . S
H880 C906 0.950 . S
H881 C908 0.950 . S
H882 C911 0.950 . S
H883 C912 0.950 . S
H884 C914 0.950 . S
H885 C915 0.950 . S
C886 H868 0.951 . S
C886 C887 1.366 . S
C886 C888 1.388 . S
C887 C886 1.366 . S
C887 C891 1.385 1_556 S
C888 H869 0.951 . S
C888 C886 1.388 . S
C888 C889 1.371 . S
C889 C888 1.371 . S
C889 C890 1.409 1_556 S
C889 C892 1.499 1_556 S
C890 H870 0.950 . S
C890 C889 1.409 1_554 S
C890 C891 1.374 . S
C891 H871 0.950 . S
C891 C887 1.385 1_554 S
C891 C890 1.374 . S
C892 C889 1.499 1_554 S
C892 C893 1.375 1_554 S
C892 C894 1.388 1_655 S
C893 H872 0.950 . S
C893 C892 1.375 1_556 S
C893 C909 1.377 . S
C894 C892 1.388 1_455 S
C894 C895 1.524 . S
C894 C908 1.377 . S
C895 C894 1.524 . S
C895 C896 1.397 1_455 S
C895 C900 1.363 . S
C896 H873 0.950 . S
C896 C895 1.397 1_655 S
C896 C897 1.334 . S
C897 H874 0.950 . S
C897 C896 1.334 . S
C897 C898 1.287 1_655 S
C898 C897 1.287 1_455 S
C898 C899 1.524 . S
C898 H917 0.913 . S
C899 H875 0.950 . S
C899 C898 1.524 . S
C899 C900 1.415 . S
C900 H876 0.950 . S
C900 C895 1.363 . S
C900 C899 1.415 . S
C901 H877 0.951 . S
C901 C902 1.366 1_554 S
C901 C903 1.388 . S
C902 C901 1.366 1_556 S
C902 C906 1.385 . S
C903 H878 0.951 . S
C903 C901 1.388 . S
C903 C904 1.366 1_554 S
C904 C903 1.366 1_556 S
C904 C905 1.414 . S
C904 C907 1.499 . S
C905 H879 0.950 . S
C905 C904 1.414 . S
C905 C906 1.374 . S
C906 H880 0.950 . S
C906 C902 1.385 . S
C906 C905 1.374 . S
C907 C904 1.499 . S
C907 C908 1.373 1_556 S
C907 C909 1.389 1_455 S
C908 H881 0.950 . S
C908 C894 1.377 . S
C908 C907 1.373 1_554 S
C909 C893 1.377 . S
C909 C907 1.389 1_655 S
C909 C910 1.524 . S
C910 C909 1.524 . S
C910 C911 1.397 1_655 S
C910 C915 1.363 . S
C911 H882 0.950 . S
C911 C910 1.397 1_455 S
C911 C912 1.334 . S
C912 H883 0.950 . S
C912 C911 1.334 . S
C912 C913 1.287 1_455 S
C913 C912 1.287 1_655 S
C913 C914 1.524 . S
C913 H916 0.999 . S
C914 H884 0.950 . S
C914 C913 1.524 . S
C914 C915 1.415 . S
C915 H885 0.950 . S
C915 C910 1.363 . S
C915 C914 1.415 . S
H916 C913 0.999 . S
H917 C898 0.913 . S
H918 C936 0.951 . S
H919 C938 0.951 . S
H920 C940 0.950 . S
H921 C941 0.950 . S
H922 C943 0.950 . S
H923 C946 0.950 . S
H924 C947 0.950 . S
H925 C949 0.950 . S
H926 C950 0.950 1_655 S
H927 C951 0.951 . S
H928 C953 0.951 . S
H929 C955 0.950 . S
H930 C956 0.950 . S
H931 C958 0.950 . S
H932 C961 0.950 . S
H933 C962 0.950 . S
H934 C964 0.950 . S
H935 C965 0.950 1_455 S
C936 H918 0.951 . S
C936 C937 1.366 . S
C936 C938 1.388 . S
C937 C936 1.366 . S
C937 C941 1.385 . S
C938 H919 0.951 . S
C938 C936 1.388 . S
C938 C939 1.366 . S
C939 C938 1.366 . S
C939 C940 1.414 . S
C939 C942 1.499 . S
C940 H920 0.950 . S
C940 C939 1.414 . S
C940 C941 1.374 . S
C941 H921 0.950 . S
C941 C937 1.385 . S
C941 C940 1.374 . S
C942 C939 1.499 . S
C942 C943 1.373 . S
C942 C944 1.389 . S
C943 H922 0.950 . S
C943 C942 1.373 . S
C943 C959 1.377 1_455 S
C944 C942 1.389 . S
C944 C945 1.524 . S
C944 C958 1.377 1_455 S
C945 C944 1.524 . S
C945 C946 1.397 . S
C945 C950 1.363 . S
C946 H923 0.950 . S
C946 C945 1.397 . S
C946 C947 1.334 . S
C947 H924 0.950 . S
C947 C946 1.334 . S
C947 C948 1.287 . S
C948 C947 1.287 . S
C948 C949 1.524 . S
C948 H967 0.913 . S
C949 H925 0.950 . S
C949 C948 1.524 . S
C949 C950 1.415 . S
C950 H926 0.950 1_455 S
C950 C945 1.363 . S
C950 C949 1.415 . S
C951 H927 0.951 . S
C951 C952 1.366 . S
C951 C953 1.388 . S
C952 C951 1.366 . S
C952 C956 1.385 . S
C953 H928 0.951 . S
C953 C951 1.388 . S
C953 C954 1.366 . S
C954 C953 1.366 . S
C954 C955 1.414 . S
C954 C957 1.499 . S
C955 H929 0.950 . S
C955 C954 1.414 . S
C955 C956 1.374 . S
C956 H930 0.950 . S
C956 C952 1.385 . S
C956 C955 1.374 . S
C957 C954 1.499 . S
C957 C958 1.373 . S
C957 C959 1.389 . S
C958 H931 0.950 . S
C958 C944 1.377 1_655 S
C958 C957 1.373 . S
C959 C943 1.377 1_655 S
C959 C957 1.389 . S
C959 C960 1.524 . S
C960 C959 1.524 . S
C960 C961 1.397 . S
C960 C965 1.363 . S
C961 H932 0.950 . S
C961 C960 1.397 . S
C961 C962 1.334 . S
C962 H933 0.950 . S
C962 C961 1.334 . S
C962 C963 1.287 . S
C963 C962 1.287 . S
C963 C964 1.524 . S
C963 H966 0.999 . S
C964 H934 0.950 . S
C964 C963 1.524 . S
C964 C965 1.415 . S
C965 H935 0.950 1_655 S
C965 C960 1.363 . S
C965 C964 1.415 . S
H966 C963 0.999 . S
H967 C948 0.913 . S
H968 C986 0.951 . S
H969 C988 0.951 . S
H970 C990 0.950 . S
H971 C991 0.950 . S
H972 C993 0.950 . S
H973 C996 0.950 . S
H974 C997 0.950 . S
H975 C999 0.953 1_565 S
H976 C1000 0.957 1_565 S
H977 C1001 0.951 . S
H978 C1003 0.951 . S
H979 C1005 0.950 . S
H980 C1006 0.950 . S
H981 C1008 0.950 . S
H982 C1011 0.950 . S
H983 C1012 0.950 . S
H984 C1014 0.953 1_545 S
H985 C1015 0.957 1_545 S
C986 H968 0.951 . S
C986 C987 1.366 . S
C986 C988 1.388 . S
C987 C986 1.366 . S
C987 C991 1.385 . S
C988 H969 0.951 . S
C988 C986 1.388 . S
C988 C989 1.366 . S
C989 C988 1.366 . S
C989 C990 1.414 . S
C989 C992 1.499 . S
C990 H970 0.950 . S
C990 C989 1.414 . S
C990 C991 1.374 . S
C991 H971 0.950 . S
C991 C987 1.385 . S
C991 C990 1.374 . S
C992 C989 1.499 . S
C992 C993 1.373 . S
C992 C994 1.389 . S
C993 H972 0.950 . S
C993 C992 1.373 . S
C993 C1009 1.377 1_545 S
C994 C992 1.389 . S
C994 C995 1.524 . S
C994 C1008 1.377 1_545 S
C995 C994 1.524 . S
C995 C996 1.397 . S
C995 C1000 1.363 . S
C996 H973 0.950 . S
C996 C995 1.397 . S
C996 C997 1.334 . S
C997 H974 0.950 . S
C997 C996 1.334 . S
C997 C998 1.287 . S
C998 C997 1.287 . S
C998 C999 1.506 . S
C998 H1017 0.913 . S
C999 H975 0.953 1_545 S
C999 C998 1.506 . S
C999 C1000 1.431 . S
C1000 H976 0.957 1_545 S
C1000 C995 1.363 . S
C1000 C999 1.431 . S
C1001 H977 0.951 . S
C1001 C1002 1.366 . S
C1001 C1003 1.388 . S
C1002 C1001 1.366 . S
C1002 C1006 1.385 . S
C1003 H978 0.951 . S
C1003 C1001 1.388 . S
C1003 C1004 1.366 . S
C1004 C1003 1.366 . S
C1004 C1005 1.414 . S
C1004 C1007 1.499 . S
C1005 H979 0.950 . S
C1005 C1004 1.414 . S
C1005 C1006 1.374 . S
C1006 H980 0.950 . S
C1006 C1002 1.385 . S
C1006 C1005 1.374 . S
C1007 C1004 1.499 . S
C1007 C1008 1.373 . S
C1007 C1009 1.389 . S
C1008 H981 0.950 . S
C1008 C994 1.377 1_565 S
C1008 C1007 1.373 . S
C1009 C993 1.377 1_565 S
C1009 C1007 1.389 . S
C1009 C1010 1.524 . S
C1010 C1009 1.524 . S
C1010 C1011 1.397 . S
C1010 C1015 1.363 . S
C1011 H982 0.950 . S
C1011 C1010 1.397 . S
C1011 C1012 1.334 . S
C1012 H983 0.950 . S
C1012 C1011 1.334 . S
C1012 C1013 1.287 . S
C1013 C1012 1.287 . S
C1013 C1014 1.506 . S
C1013 H1016 0.999 . S
C1014 H984 0.953 1_565 S
C1014 C1013 1.506 . S
C1014 C1015 1.431 . S
C1015 H985 0.957 1_565 S
C1015 C1010 1.363 . S
C1015 C1014 1.431 . S
H1016 C1013 0.999 . S
H1017 C998 0.913 . S
H1018 C1036 0.951 . S
H1019 C1038 0.951 . S
H1020 C1040 0.950 . S
H1021 C1041 0.950 . S
H1022 C1043 0.950 . S
H1023 C1046 0.950 . S
H1024 C1047 0.950 . S
H1025 C1049 0.950 . S
H1026 C1050 0.950 . S
H1027 C1051 0.951 . S
H1028 C1053 0.951 . S
H1029 C1055 0.950 . S
H1030 C1056 0.950 . S
H1031 C1058 0.950 . S
H1032 C1061 0.950 . S
H1033 C1062 0.950 . S
H1034 C1064 0.950 . S
H1035 C1065 0.950 . S
C1036 H1018 0.951 . S
C1036 C1037 1.366 1_556 S
C1036 C1038 1.388 . S
C1037 C1036 1.366 1_554 S
C1037 C1041 1.385 . S
C1038 H1019 0.951 . S
C1038 C1036 1.388 . S
C1038 C1039 1.359 1_556 S
C1039 C1038 1.359 1_554 S
C1039 C1040 1.422 . S
C1039 C1042 1.499 . S
C1040 H1020 0.950 . S
C1040 C1039 1.422 . S
C1040 C1041 1.374 . S
C1041 H1021 0.950 . S
C1041 C1037 1.385 . S
C1041 C1040 1.374 . S
C1042 C1039 1.499 . S
C1042 C1043 1.400 . S
C1042 C1044 1.364 1_554 S
C1043 H1022 0.950 . S
C1043 C1042 1.400 . S
C1043 C1059 1.377 . S
C1044 C1042 1.364 1_556 S
C1044 C1045 1.524 . S
C1044 C1058 1.377 . S
C1045 C1044 1.524 . S
C1045 C1046 1.397 . S
C1045 C1050 1.363 . S
C1046 H1023 0.950 . S
C1046 C1045 1.397 . S
C1046 C1047 1.334 . S
C1047 H1024 0.950 . S
C1047 C1046 1.334 . S
C1047 C1048 1.287 . S
C1048 C1047 1.287 . S
C1048 C1049 1.524 . S
C1048 H1067 0.913 . S
C1049 H1025 0.950 . S
C1049 C1048 1.524 . S
C1049 C1050 1.415 . S
C1050 H1026 0.950 . S
C1050 C1045 1.363 . S
C1050 C1049 1.415 . S
C1051 H1027 0.951 . S
C1051 C1052 1.366 . S
C1051 C1053 1.388 . S
C1052 C1051 1.366 . S
C1052 C1056 1.385 1_554 S
C1053 H1028 0.951 . S
C1053 C1051 1.388 . S
C1053 C1054 1.366 . S
C1054 C1053 1.366 . S
C1054 C1055 1.414 1_554 S
C1054 C1057 1.499 . S
C1055 H1029 0.950 . S
C1055 C1054 1.414 1_556 S
C1055 C1056 1.374 . S
C1056 H1030 0.950 . S
C1056 C1052 1.385 1_556 S
C1056 C1055 1.374 . S
C1057 C1054 1.499 . S
C1057 C1058 1.373 1_554 S
C1057 C1059 1.389 . S
C1058 H1031 0.950 . S
C1058 C1044 1.377 . S
C1058 C1057 1.373 1_556 S
C1059 C1043 1.377 . S
C1059 C1057 1.389 . S
C1059 C1060 1.524 . S
C1060 C1059 1.524 . S
C1060 C1061 1.397 . S
C1060 C1065 1.363 . S
C1061 H1032 0.950 . S
C1061 C1060 1.397 . S
C1061 C1062 1.334 . S
C1062 H1033 0.950 . S
C1062 C1061 1.334 . S
C1062 C1063 1.287 . S
C1063 C1062 1.287 . S
C1063 C1064 1.524 . S
C1063 H1066 0.999 . S
C1064 H1034 0.950 . S
C1064 C1063 1.524 . S
C1064 C1065 1.415 . S
C1065 H1035 0.950 . S
C1065 C1060 1.363 . S
C1065 C1064 1.415 . S
H1066 C1063 0.999 . S
H1067 C1048 0.913 . S
H1068 C1086 0.951 . S
H1069 C1088 0.951 . S
H1070 C1090 0.950 . S
H1071 C1091 0.950 . S
H1072 C1093 0.950 . S
H1073 C1096 0.950 . S
H1074 C1097 0.950 . S
H1075 C1099 0.950 . S
H1076 C1100 0.950 . S
H1077 C1101 0.951 . S
H1078 C1103 0.951 . S
H1079 C1105 0.950 . S
H1080 C1106 0.950 . S
H1081 C1108 0.950 . S
H1082 C1111 0.950 . S
H1083 C1112 0.950 . S
H1084 C1114 0.950 . S
H1085 C1115 0.950 . S
C1086 H1068 0.951 . S
C1086 C1087 1.366 . S
C1086 C1088 1.388 . S
C1087 C1086 1.366 . S
C1087 C1091 1.385 . S
C1088 H1069 0.951 . S
C1088 C1086 1.388 . S
C1088 C1089 1.366 . S
C1089 C1088 1.366 . S
C1089 C1090 1.414 . S
C1089 C1092 1.499 . S
C1090 H1070 0.950 . S
C1090 C1089 1.414 . S
C1090 C1091 1.374 . S
C1091 H1071 0.950 . S
C1091 C1087 1.385 . S
C1091 C1090 1.374 . S
C1092 C1089 1.499 . S
C1092 C1093 1.373 . S
C1092 C1094 1.389 . S
C1093 H1072 0.950 . S
C1093 C1092 1.373 . S
C1093 C1109 1.377 . S
C1094 C1092 1.389 . S
C1094 C1095 1.524 . S
C1094 C1108 1.377 . S
C1095 C1094 1.524 . S
C1095 C1096 1.397 . S
C1095 C1100 1.363 . S
C1096 H1073 0.950 . S
C1096 C1095 1.397 . S
C1096 C1097 1.334 . S
C1097 H1074 0.950 . S
C1097 C1096 1.334 . S
C1097 C1098 1.287 . S
C1098 C1097 1.287 . S
C1098 C1099 1.524 . S
C1098 H1117 0.913 . S
C1099 H1075 0.950 . S
C1099 C1098 1.524 . S
C1099 C1100 1.415 . S
C1100 H1076 0.950 . S
C1100 C1095 1.363 . S
C1100 C1099 1.415 . S
C1101 H1077 0.951 . S
C1101 C1102 1.366 . S
C1101 C1103 1.388 . S
C1102 C1101 1.366 . S
C1102 C1106 1.385 . S
C1103 H1078 0.951 . S
C1103 C1101 1.388 . S
C1103 C1104 1.366 . S
C1104 C1103 1.366 . S
C1104 C1105 1.414 . S
C1104 C1107 1.499 . S
C1105 H1079 0.950 . S
C1105 C1104 1.414 . S
C1105 C1106 1.374 . S
C1106 H1080 0.950 . S
C1106 C1102 1.385 . S
C1106 C1105 1.374 . S
C1107 C1104 1.499 . S
C1107 C1108 1.373 . S
C1107 C1109 1.389 . S
C1108 H1081 0.950 . S
C1108 C1094 1.377 . S
C1108 C1107 1.373 . S
C1109 C1093 1.377 . S
C1109 C1107 1.389 . S
C1109 C1110 1.524 . S
C1110 C1109 1.524 . S
C1110 C1111 1.397 . S
C1110 C1115 1.363 . S
C1111 H1082 0.950 . S
C1111 C1110 1.397 . S
C1111 C1112 1.334 . S
C1112 H1083 0.950 . S
C1112 C1111 1.334 . S
C1112 C1113 1.287 . S
C1113 C1112 1.287 . S
C1113 C1114 1.524 . S
C1113 H1116 0.999 . S
C1114 H1084 0.950 . S
C1114 C1113 1.524 . S
C1114 C1115 1.415 . S
C1115 H1085 0.950 . S
C1115 C1110 1.363 . S
C1115 C1114 1.415 . S
H1116 C1113 0.999 . S
H1117 C1098 0.913 . S
H1118 C1136 0.951 . S
H1119 C1138 0.951 . S
H1120 C1140 0.950 . S
H1121 C1141 0.950 . S
H1122 C1143 0.950 . S
H1123 C1146 0.950 . S
H1124 C1147 0.950 . S
H1125 C1149 0.950 . S
H1126 C1150 0.950 . S
H1127 C1151 0.951 . S
H1128 C1153 0.951 . S
H1129 C1155 0.950 . S
H1130 C1156 0.950 . S
H1131 C1158 0.950 . S
H1132 C1161 0.950 . S
H1133 C1162 0.950 . S
H1134 C1164 0.950 . S
H1135 C1165 0.950 . S
C1136 H1118 0.951 . S
C1136 C1137 1.366 . S
C1136 C1138 1.388 . S
C1137 C1136 1.366 . S
C1137 C1141 1.385 . S
C1138 H1119 0.951 . S
C1138 C1136 1.388 . S
C1138 C1139 1.366 . S
C1139 C1138 1.366 . S
C1139 C1140 1.414 . S
C1139 C1142 1.499 . S
C1140 H1120 0.950 . S
C1140 C1139 1.414 . S
C1140 C1141 1.374 . S
C1141 H1121 0.950 . S
C1141 C1137 1.385 . S
C1141 C1140 1.374 . S
C1142 C1139 1.499 . S
C1142 C1143 1.373 . S
C1142 C1144 1.389 . S
C1143 H1122 0.950 . S
C1143 C1142 1.373 . S
C1143 C1159 1.377 . S
C1144 C1142 1.389 . S
C1144 C1145 1.524 . S
C1144 C1158 1.377 . S
C1145 C1144 1.524 . S
C1145 C1146 1.397 . S
C1145 C1150 1.363 . S
C1146 H1123 0.950 . S
C1146 C1145 1.397 . S
C1146 C1147 1.334 . S
C1147 H1124 0.950 . S
C1147 C1146 1.334 . S
C1147 C1148 1.287 . S
C1148 C1147 1.287 . S
C1148 C1149 1.524 . S
C1148 H1167 0.913 . S
C1149 H1125 0.950 . S
C1149 C1148 1.524 . S
C1149 C1150 1.415 . S
C1150 H1126 0.950 . S
C1150 C1145 1.363 . S
C1150 C1149 1.415 . S
C1151 H1127 0.951 . S
C1151 C1152 1.366 . S
C1151 C1153 1.388 . S
C1152 C1151 1.366 . S
C1152 C1156 1.385 . S
C1153 H1128 0.951 . S
C1153 C1151 1.388 . S
C1153 C1154 1.366 . S
C1154 C1153 1.366 . S
C1154 C1155 1.414 . S
C1154 C1157 1.499 . S
C1155 H1129 0.950 . S
C1155 C1154 1.414 . S
C1155 C1156 1.374 . S
C1156 H1130 0.950 . S
C1156 C1152 1.385 . S
C1156 C1155 1.374 . S
C1157 C1154 1.499 . S
C1157 C1158 1.373 . S
C1157 C1159 1.389 . S
C1158 H1131 0.950 . S
C1158 C1144 1.377 . S
C1158 C1157 1.373 . S
C1159 C1143 1.377 . S
C1159 C1157 1.389 . S
C1159 C1160 1.524 . S
C1160 C1159 1.524 . S
C1160 C1161 1.397 . S
C1160 C1165 1.363 . S
C1161 H1132 0.950 . S
C1161 C1160 1.397 . S
C1161 C1162 1.334 . S
C1162 H1133 0.950 . S
C1162 C1161 1.334 . S
C1162 C1163 1.287 . S
C1163 C1162 1.287 . S
C1163 C1164 1.524 . S
C1163 H1166 0.999 . S
C1164 H1134 0.950 . S
C1164 C1163 1.524 . S
C1164 C1165 1.415 . S
C1165 H1135 0.950 . S
C1165 C1160 1.363 . S
C1165 C1164 1.415 . S
H1166 C1163 0.999 . S
H1167 C1148 0.913 . S
H1168 C1186 0.951 . S
H1169 C1188 0.951 . S
H1170 C1190 0.950 . S
H1171 C1191 0.950 . S
H1172 C1193 0.950 . S
H1173 C1196 0.950 . S
H1174 C1197 0.950 . S
H1175 C1199 0.950 . S
H1176 C1200 0.950 . S
H1177 C1201 0.951 . S
H1178 C1203 0.951 . S
H1179 C1205 0.950 . S
H1180 C1206 0.950 . S
H1181 C1208 0.950 . S
H1182 C1211 0.950 . S
H1183 C1212 0.950 . S
H1184 C1214 0.950 . S
H1185 C1215 0.950 . S
C1186 H1168 0.951 . S
C1186 C1187 1.366 . S
C1186 C1188 1.388 . S
C1187 C1186 1.366 . S
C1187 C1191 1.385 . S
C1188 H1169 0.951 . S
C1188 C1186 1.388 . S
C1188 C1189 1.366 . S
C1189 C1188 1.366 . S
C1189 C1190 1.414 . S
C1189 C1192 1.499 . S
C1190 H1170 0.950 . S
C1190 C1189 1.414 . S
C1190 C1191 1.374 . S
C1191 H1171 0.950 . S
C1191 C1187 1.385 . S
C1191 C1190 1.374 . S
C1192 C1189 1.499 . S
C1192 C1193 1.373 . S
C1192 C1194 1.389 . S
C1193 H1172 0.950 . S
C1193 C1192 1.373 . S
C1193 C1209 1.377 . S
C1194 C1192 1.389 . S
C1194 C1195 1.524 . S
C1194 C1208 1.377 . S
C1195 C1194 1.524 . S
C1195 C1196 1.397 . S
C1195 C1200 1.363 . S
C1196 H1173 0.950 . S
C1196 C1195 1.397 . S
C1196 C1197 1.334 . S
C1197 H1174 0.950 . S
C1197 C1196 1.334 . S
C1197 C1198 1.287 . S
C1198 C1197 1.287 . S
C1198 C1199 1.524 . S
C1198 H1217 0.913 . S
C1199 H1175 0.950 . S
C1199 C1198 1.524 . S
C1199 C1200 1.415 . S
C1200 H1176 0.950 . S
C1200 C1195 1.363 . S
C1200 C1199 1.415 . S
C1201 H1177 0.951 . S
C1201 C1202 1.366 . S
C1201 C1203 1.388 . S
C1202 C1201 1.366 . S
C1202 C1206 1.385 . S
C1203 H1178 0.951 . S
C1203 C1201 1.388 . S
C1203 C1204 1.366 . S
C1204 C1203 1.366 . S
C1204 C1205 1.414 . S
C1204 C1207 1.499 . S
C1205 H1179 0.950 . S
C1205 C1204 1.414 . S
C1205 C1206 1.374 . S
C1206 H1180 0.950 . S
C1206 C1202 1.385 . S
C1206 C1205 1.374 . S
C1207 C1204 1.499 . S
C1207 C1208 1.373 . S
C1207 C1209 1.389 . S
C1208 H1181 0.950 . S
C1208 C1194 1.377 . S
C1208 C1207 1.373 . S
C1209 C1193 1.377 . S
C1209 C1207 1.389 . S
C1209 C1210 1.524 . S
C1210 C1209 1.524 . S
C1210 C1211 1.397 . S
C1210 C1215 1.363 . S
C1211 H1182 0.950 . S
C1211 C1210 1.397 . S
C1211 C1212 1.334 . S
C1212 H1183 0.950 . S
C1212 C1211 1.334 . S
C1212 C1213 1.287 . S
C1213 C1212 1.287 . S
C1213 C1214 1.524 . S
C1213 H1216 0.999 . S
C1214 H1184 0.950 . S
C1214 C1213 1.524 . S
C1214 C1215 1.415 . S
C1215 H1185 0.950 . S
C1215 C1210 1.363 . S
C1215 C1214 1.415 . S
H1216 C1213 0.999 . S
H1217 C1198 0.913 . S
H1218 C1236 0.951 . S
H1219 C1238 0.951 . S
H1220 C1240 0.950 . S
H1221 C1241 0.950 . S
H1222 C1243 0.950 . S
H1223 C1246 0.950 . S
H1224 C1247 0.950 . S
H1225 C1249 0.950 . S
H1226 C1250 0.950 . S
H1227 C1251 0.951 . S
H1228 C1253 0.951 . S
H1229 C1255 0.950 . S
H1230 C1256 0.950 . S
H1231 C1258 0.950 . S
H1232 C1261 0.950 . S
H1233 C1262 0.950 . S
H1234 C1264 0.950 . S
H1235 C1265 0.950 . S
C1236 H1218 0.951 . S
C1236 C1237 1.366 . S
C1236 C1238 1.388 . S
C1237 C1236 1.366 . S
C1237 C1241 1.385 . S
C1238 H1219 0.951 . S
C1238 C1236 1.388 . S
C1238 C1239 1.366 . S
C1239 C1238 1.366 . S
C1239 C1240 1.414 . S
C1239 C1242 1.499 . S
C1240 H1220 0.950 . S
C1240 C1239 1.414 . S
C1240 C1241 1.374 . S
C1241 H1221 0.950 . S
C1241 C1237 1.385 . S
C1241 C1240 1.374 . S
C1242 C1239 1.499 . S
C1242 C1243 1.373 . S
C1242 C1244 1.389 . S
C1243 H1222 0.950 . S
C1243 C1242 1.373 . S
C1243 C1259 1.377 . S
C1244 C1242 1.389 . S
C1244 C1245 1.524 . S
C1244 C1258 1.377 . S
C1245 C1244 1.524 . S
C1245 C1246 1.397 . S
C1245 C1250 1.363 . S
C1246 H1223 0.950 . S
C1246 C1245 1.397 . S
C1246 C1247 1.334 . S
C1247 H1224 0.950 . S
C1247 C1246 1.334 . S
C1247 C1248 1.287 . S
C1248 C1247 1.287 . S
C1248 C1249 1.524 . S
C1248 H1267 0.913 . S
C1249 H1225 0.950 . S
C1249 C1248 1.524 . S
C1249 C1250 1.415 . S
C1250 H1226 0.950 . S
C1250 C1245 1.363 . S
C1250 C1249 1.415 . S
C1251 H1227 0.951 . S
C1251 C1252 1.366 . S
C1251 C1253 1.388 . S
C1252 C1251 1.366 . S
C1252 C1256 1.385 . S
C1253 H1228 0.951 . S
C1253 C1251 1.388 . S
C1253 C1254 1.366 . S
C1254 C1253 1.366 . S
C1254 C1255 1.414 . S
C1254 C1257 1.499 . S
C1255 H1229 0.950 . S
C1255 C1254 1.414 . S
C1255 C1256 1.374 . S
C1256 H1230 0.950 . S
C1256 C1252 1.385 . S
C1256 C1255 1.374 . S
C1257 C1254 1.499 . S
C1257 C1258 1.373 . S
C1257 C1259 1.389 . S
C1258 H1231 0.950 . S
C1258 C1244 1.377 . S
C1258 C1257 1.373 . S
C1259 C1243 1.377 . S
C1259 C1257 1.389 . S
C1259 C1260 1.524 . S
C1260 C1259 1.524 . S
C1260 C1261 1.397 . S
C1260 C1265 1.363 . S
C1261 H1232 0.950 . S
C1261 C1260 1.397 . S
C1261 C1262 1.334 . S
C1262 H1233 0.950 . S
C1262 C1261 1.334 . S
C1262 C1263 1.287 . S
C1263 C1262 1.287 . S
C1263 C1264 1.524 . S
C1263 H1266 0.999 . S
C1264 H1234 0.950 . S
C1264 C1263 1.524 . S
C1264 C1265 1.415 . S
C1265 H1235 0.950 . S
C1265 C1260 1.363 . S
C1265 C1264 1.415 . S
H1266 C1263 0.999 . S
H1267 C1248 0.913 . S
H1268 C1286 0.951 . S
H1269 C1288 0.951 . S
H1270 C1290 0.950 . S
H1271 C1291 0.950 . S
H1272 C1293 0.950 . S
H1273 C1296 0.950 . S
H1274 C1297 0.950 . S
H1275 C1299 0.950 . S
H1276 C1300 0.950 . S
H1277 C1301 0.951 . S
H1278 C1303 0.951 . S
H1279 C1305 0.950 . S
H1280 C1306 0.950 . S
H1281 C1308 0.950 . S
H1282 C1311 0.950 . S
H1283 C1312 0.950 . S
H1284 C1314 0.950 . S
H1285 C1315 0.950 . S
C1286 H1268 0.951 . S
C1286 C1287 1.366 . S
C1286 C1288 1.388 . S
C1287 C1286 1.366 . S
C1287 C1291 1.385 . S
C1288 H1269 0.951 . S
C1288 C1286 1.388 . S
C1288 C1289 1.366 . S
C1289 C1288 1.366 . S
C1289 C1290 1.414 . S
C1289 C1292 1.499 . S
C1290 H1270 0.950 . S
C1290 C1289 1.414 . S
C1290 C1291 1.374 . S
C1291 H1271 0.950 . S
C1291 C1287 1.385 . S
C1291 C1290 1.374 . S
C1292 C1289 1.499 . S
C1292 C1293 1.373 . S
C1292 C1294 1.389 . S
C1293 H1272 0.950 . S
C1293 C1292 1.373 . S
C1293 C1309 1.377 . S
C1294 C1292 1.389 . S
C1294 C1295 1.524 . S
C1294 C1308 1.377 . S
C1295 C1294 1.524 . S
C1295 C1296 1.397 . S
C1295 C1300 1.363 . S
C1296 H1273 0.950 . S
C1296 C1295 1.397 . S
C1296 C1297 1.334 . S
C1297 H1274 0.950 . S
C1297 C1296 1.334 . S
C1297 C1298 1.287 . S
C1298 C1297 1.287 . S
C1298 C1299 1.524 . S
C1298 H1317 0.913 . S
C1299 H1275 0.950 . S
C1299 C1298 1.524 . S
C1299 C1300 1.415 . S
C1300 H1276 0.950 . S
C1300 C1295 1.363 . S
C1300 C1299 1.415 . S
C1301 H1277 0.951 . S
C1301 C1302 1.366 . S
C1301 C1303 1.388 . S
C1302 C1301 1.366 . S
C1302 C1306 1.385 . S
C1303 H1278 0.951 . S
C1303 C1301 1.388 . S
C1303 C1304 1.366 . S
C1304 C1303 1.366 . S
C1304 C1305 1.414 . S
C1304 C1307 1.499 . S
C1305 H1279 0.950 . S
C1305 C1304 1.414 . S
C1305 C1306 1.374 . S
C1306 H1280 0.950 . S
C1306 C1302 1.385 . S
C1306 C1305 1.374 . S
C1307 C1304 1.499 . S
C1307 C1308 1.373 . S
C1307 C1309 1.389 . S
C1308 H1281 0.950 . S
C1308 C1294 1.377 . S
C1308 C1307 1.373 . S
C1309 C1293 1.377 . S
C1309 C1307 1.389 . S
C1309 C1310 1.524 . S
C1310 C1309 1.524 . S
C1310 C1311 1.397 . S
C1310 C1315 1.363 . S
C1311 H1282 0.950 . S
C1311 C1310 1.397 . S
C1311 C1312 1.334 . S
C1312 H1283 0.950 . S
C1312 C1311 1.334 . S
C1312 C1313 1.287 . S
C1313 C1312 1.287 . S
C1313 C1314 1.524 . S
C1313 H1316 0.999 . S
C1314 H1284 0.950 . S
C1314 C1313 1.524 . S
C1314 C1315 1.415 . S
C1315 H1285 0.950 . S
C1315 C1310 1.363 . S
C1315 C1314 1.415 . S
H1316 C1313 0.999 . S
H1317 C1298 0.913 . S
H1318 C1336 0.951 . S
H1319 C1338 0.951 . S
H1320 C1340 0.950 . S
H1321 C1341 0.950 . S
H1322 C1343 0.950 . S
H1323 C1346 0.950 . S
H1324 C1347 0.950 . S
H1325 C1349 0.950 . S
H1326 C1350 0.950 . S
H1327 C1351 0.951 . S
H1328 C1353 0.951 . S
H1329 C1355 0.950 . S
H1330 C1356 0.950 . S
H1331 C1358 0.950 . S
H1332 C1361 0.950 . S
H1333 C1362 0.950 . S
H1334 C1364 0.950 . S
H1335 C1365 0.950 . S
C1336 H1318 0.951 . S
C1336 C1337 1.366 . S
C1336 C1338 1.388 . S
C1337 C1336 1.366 . S
C1337 C1341 1.385 . S
C1338 H1319 0.951 . S
C1338 C1336 1.388 . S
C1338 C1339 1.366 . S
C1339 C1338 1.366 . S
C1339 C1340 1.414 . S
C1339 C1342 1.499 . S
C1340 H1320 0.950 . S
C1340 C1339 1.414 . S
C1340 C1341 1.374 . S
C1341 H1321 0.950 . S
C1341 C1337 1.385 . S
C1341 C1340 1.374 . S
C1342 C1339 1.499 . S
C1342 C1343 1.373 . S
C1342 C1344 1.389 . S
C1343 H1322 0.950 . S
C1343 C1342 1.373 . S
C1343 C1359 1.377 . S
C1344 C1342 1.389 . S
C1344 C1345 1.524 . S
C1344 C1358 1.377 . S
C1345 C1344 1.524 . S
C1345 C1346 1.397 . S
C1345 C1350 1.363 . S
C1346 H1323 0.950 . S
C1346 C1345 1.397 . S
C1346 C1347 1.334 . S
C1347 H1324 0.950 . S
C1347 C1346 1.334 . S
C1347 C1348 1.287 . S
C1348 C1347 1.287 . S
C1348 C1349 1.524 . S
C1348 H1367 0.913 . S
C1349 H1325 0.950 . S
C1349 C1348 1.524 . S
C1349 C1350 1.415 . S
C1350 H1326 0.950 . S
C1350 C1345 1.363 . S
C1350 C1349 1.415 . S
C1351 H1327 0.951 . S
C1351 C1352 1.366 . S
C1351 C1353 1.388 . S
C1352 C1351 1.366 . S
C1352 C1356 1.385 . S
C1353 H1328 0.951 . S
C1353 C1351 1.388 . S
C1353 C1354 1.366 . S
C1354 C1353 1.366 . S
C1354 C1355 1.414 . S
C1354 C1357 1.499 . S
C1355 H1329 0.950 . S
C1355 C1354 1.414 . S
C1355 C1356 1.374 . S
C1356 H1330 0.950 . S
C1356 C1352 1.385 . S
C1356 C1355 1.374 . S
C1357 C1354 1.499 . S
C1357 C1358 1.373 . S
C1357 C1359 1.389 . S
C1358 H1331 0.950 . S
C1358 C1344 1.377 . S
C1358 C1357 1.373 . S
C1359 C1343 1.377 . S
C1359 C1357 1.389 . S
C1359 C1360 1.524 . S
C1360 C1359 1.524 . S
C1360 C1361 1.397 . S
C1360 C1365 1.363 . S
C1361 H1332 0.950 . S
C1361 C1360 1.397 . S
C1361 C1362 1.334 . S
C1362 H1333 0.950 . S
C1362 C1361 1.334 . S
C1362 C1363 1.287 . S
C1363 C1362 1.287 . S
C1363 C1364 1.524 . S
C1363 H1366 0.999 . S
C1364 H1334 0.950 . S
C1364 C1363 1.524 . S
C1364 C1365 1.415 . S
C1365 H1335 0.950 . S
C1365 C1360 1.363 . S
C1365 C1364 1.415 . S
H1366 C1363 0.999 . S
H1367 C1348 0.913 . S
C187 C12 1.460 . S
C202 C141 1.459 . S
C237 C26 1.499 . S
C252 C154 1.503 . S
C287 C96 1.499 . S
C302 C28 1.503 . S
C337 C42 1.460 . S
C352 C110 1.460 . S
C387 C112 1.498 . S
C402 C57 1.503 . S
C437 C126 1.498 . S
C452 C70 1.503 . S
C487 C84 0.909 . S
C502 C0 0.907 . S
C537 C98 0.908 . S
C552 C14 0.908 . S
C587 C124 0.905 . S
C602 C40 0.904 . S
C637 C54 0.909 . S
C652 C138 0.907 . S
C687 C69 0.908 . S
C702 C153 0.910 . S
C737 C82 0.905 . S
C752 C166 0.904 . S
C787 C1 2.349 . S
C802 C55 2.349 . S
C837 C15 2.351 . S
C852 C68 2.347 . S
C887 C41 2.345 . S
C902 C83 2.345 . S
C937 C139 2.351 . S
C952 C85 2.351 . S
C987 C152 2.344 . S
C1002 C99 2.348 . S
C1037 C167 2.346 . S
C1052 C125 2.346 . S
C1087 C13 2.009 . S
C1102 C113 2.005 . S
C1137 C127 2.045 . S
C1152 C27 2.045 . S
C1187 C29 2.010 . S
C1202 C140 2.005 . S
C1237 C155 2.010 . S
C1252 C43 2.005 . S
C1287 C56 2.045 . S
C1302 C97 2.045 . S
C1337 C71 2.010 . S
C1352 C111 2.005 . S
