# Generated by pormake.
# Topology sxg, (6)-cn, num edge types: 1
# Building blocks:
#     Node 0, Type 0, BuildingBlock: VOLQOD_clean_sbu_1, # of connection points: 6
#     Node 1, Type 0, BuildingBlock: VOLQOD_clean_sbu_1, # of connection points: 6
#     Node 2, Type 0, BuildingBlock: VOLQOD_clean_sbu_1, # of connection points: 6
#     Node 3, Type 0, BuildingBlock: VOLQOD_clean_sbu_1, # of connection points: 6
#     Node 4, Type 0, BuildingBlock: VOLQOD_clean_sbu_1, # of connection points: 6
#     Node 5, Type 0, BuildingBlock: VOLQOD_clean_sbu_1, # of connection points: 6
#     Node 6, Type 0, BuildingBlock: VOLQOD_clean_sbu_1, # of connection points: 6
#     Node 7, Type 0, BuildingBlock: VOLQOD_clean_sbu_1, # of connection points: 6
#     Node 8, Type 0, BuildingBlock: VOLQOD_clean_sbu_1, # of connection points: 6
#     Node 9, Type 0, BuildingBlock: VOLQOD_clean_sbu_1, # of connection points: 6
#     Node 10, Type 0, BuildingBlock: VOLQOD_clean_sbu_1, # of connection points: 6
#     Node 11, Type 0, BuildingBlock: VOLQOD_clean_sbu_1, # of connection points: 6
#     Node 12, Type 0, BuildingBlock: VOLQOD_clean_sbu_1, # of connection points: 6
#     Node 13, Type 0, BuildingBlock: VOLQOD_clean_sbu_1, # of connection points: 6
#     Node 14, Type 0, BuildingBlock: VOLQOD_clean_sbu_1, # of connection points: 6
#     Node 15, Type 0, BuildingBlock: VOLQOD_clean_sbu_1, # of connection points: 6
#     Node 16, Type 0, BuildingBlock: VOLQOD_clean_sbu_1, # of connection points: 6
#     Node 17, Type 0, BuildingBlock: VOLQOD_clean_sbu_1, # of connection points: 6
#     Node 18, Type 0, BuildingBlock: VOLQOD_clean_sbu_1, # of connection points: 6
#     Node 19, Type 0, BuildingBlock: VOLQOD_clean_sbu_1, # of connection points: 6
#     Node 20, Type 0, BuildingBlock: VOLQOD_clean_sbu_1, # of connection points: 6
#     Node 21, Type 0, BuildingBlock: VOLQOD_clean_sbu_1, # of connection points: 6
#     Node 22, Type 0, BuildingBlock: VOLQOD_clean_sbu_1, # of connection points: 6
#     Node 23, Type 0, BuildingBlock: VOLQOD_clean_sbu_1, # of connection points: 6
#     Edge 24, Type (0, 0), BuildingBlock: UVAHIK_clean_linker_0, # of connection points: 2
#     Edge 25, Type (0, 0), BuildingBlock: UVAHIK_clean_linker_0, # of connection points: 2
#     Edge 26, Type (0, 0), BuildingBlock: UVAHIK_clean_linker_0, # of connection points: 2
#     Edge 27, Type (0, 0), BuildingBlock: UVAHIK_clean_linker_0, # of connection points: 2
#     Edge 28, Type (0, 0), BuildingBlock: UVAHIK_clean_linker_0, # of connection points: 2
#     Edge 29, Type (0, 0), BuildingBlock: UVAHIK_clean_linker_0, # of connection points: 2
#     Edge 30, Type (0, 0), BuildingBlock: UVAHIK_clean_linker_0, # of connection points: 2
#     Edge 31, Type (0, 0), BuildingBlock: UVAHIK_clean_linker_0, # of connection points: 2
#     Edge 32, Type (0, 0), BuildingBlock: UVAHIK_clean_linker_0, # of connection points: 2
#     Edge 33, Type (0, 0), BuildingBlock: UVAHIK_clean_linker_0, # of connection points: 2
#     Edge 34, Type (0, 0), BuildingBlock: UVAHIK_clean_linker_0, # of connection points: 2
#     Edge 35, Type (0, 0), BuildingBlock: UVAHIK_clean_linker_0, # of connection points: 2
#     Edge 36, Type (0, 0), BuildingBlock: UVAHIK_clean_linker_0, # of connection points: 2
#     Edge 37, Type (0, 0), BuildingBlock: UVAHIK_clean_linker_0, # of connection points: 2
#     Edge 38, Type (0, 0), BuildingBlock: UVAHIK_clean_linker_0, # of connection points: 2
#     Edge 39, Type (0, 0), BuildingBlock: UVAHIK_clean_linker_0, # of connection points: 2
#     Edge 40, Type (0, 0), BuildingBlock: UVAHIK_clean_linker_0, # of connection points: 2
#     Edge 41, Type (0, 0), BuildingBlock: UVAHIK_clean_linker_0, # of connection points: 2
#     Edge 42, Type (0, 0), BuildingBlock: UVAHIK_clean_linker_0, # of connection points: 2
#     Edge 43, Type (0, 0), BuildingBlock: UVAHIK_clean_linker_0, # of connection points: 2
#     Edge 44, Type (0, 0), BuildingBlock: UVAHIK_clean_linker_0, # of connection points: 2
#     Edge 45, Type (0, 0), BuildingBlock: UVAHIK_clean_linker_0, # of connection points: 2
#     Edge 46, Type (0, 0), BuildingBlock: UVAHIK_clean_linker_0, # of connection points: 2
#     Edge 47, Type (0, 0), BuildingBlock: UVAHIK_clean_linker_0, # of connection points: 2
#     Edge 48, Type (0, 0), BuildingBlock: UVAHIK_clean_linker_0, # of connection points: 2
#     Edge 49, Type (0, 0), BuildingBlock: UVAHIK_clean_linker_0, # of connection points: 2
#     Edge 50, Type (0, 0), BuildingBlock: UVAHIK_clean_linker_0, # of connection points: 2
#     Edge 51, Type (0, 0), BuildingBlock: UVAHIK_clean_linker_0, # of connection points: 2
#     Edge 52, Type (0, 0), BuildingBlock: UVAHIK_clean_linker_0, # of connection points: 2
#     Edge 53, Type (0, 0), BuildingBlock: UVAHIK_clean_linker_0, # of connection points: 2
#     Edge 54, Type (0, 0), BuildingBlock: UVAHIK_clean_linker_0, # of connection points: 2
#     Edge 55, Type (0, 0), BuildingBlock: UVAHIK_clean_linker_0, # of connection points: 2
#     Edge 56, Type (0, 0), BuildingBlock: UVAHIK_clean_linker_0, # of connection points: 2
#     Edge 57, Type (0, 0), BuildingBlock: UVAHIK_clean_linker_0, # of connection points: 2
#     Edge 58, Type (0, 0), BuildingBlock: UVAHIK_clean_linker_0, # of connection points: 2
#     Edge 59, Type (0, 0), BuildingBlock: UVAHIK_clean_linker_0, # of connection points: 2
#     Edge 60, Type (0, 0), BuildingBlock: UVAHIK_clean_linker_0, # of connection points: 2
#     Edge 61, Type (0, 0), BuildingBlock: UVAHIK_clean_linker_0, # of connection points: 2
#     Edge 62, Type (0, 0), BuildingBlock: UVAHIK_clean_linker_0, # of connection points: 2
#     Edge 63, Type (0, 0), BuildingBlock: UVAHIK_clean_linker_0, # of connection points: 2
#     Edge 64, Type (0, 0), BuildingBlock: UVAHIK_clean_linker_0, # of connection points: 2
#     Edge 65, Type (0, 0), BuildingBlock: UVAHIK_clean_linker_0, # of connection points: 2
#     Edge 66, Type (0, 0), BuildingBlock: UVAHIK_clean_linker_0, # of connection points: 2
#     Edge 67, Type (0, 0), BuildingBlock: UVAHIK_clean_linker_0, # of connection points: 2
#     Edge 68, Type (0, 0), BuildingBlock: UVAHIK_clean_linker_0, # of connection points: 2
#     Edge 69, Type (0, 0), BuildingBlock: UVAHIK_clean_linker_0, # of connection points: 2
#     Edge 70, Type (0, 0), BuildingBlock: UVAHIK_clean_linker_0, # of connection points: 2
#     Edge 71, Type (0, 0), BuildingBlock: UVAHIK_clean_linker_0, # of connection points: 2
#     Edge 72, Type (0, 0), BuildingBlock: UVAHIK_clean_linker_0, # of connection points: 2
#     Edge 73, Type (0, 0), BuildingBlock: UVAHIK_clean_linker_0, # of connection points: 2
#     Edge 74, Type (0, 0), BuildingBlock: UVAHIK_clean_linker_0, # of connection points: 2
#     Edge 75, Type (0, 0), BuildingBlock: UVAHIK_clean_linker_0, # of connection points: 2
#     Edge 76, Type (0, 0), BuildingBlock: UVAHIK_clean_linker_0, # of connection points: 2
#     Edge 77, Type (0, 0), BuildingBlock: UVAHIK_clean_linker_0, # of connection points: 2
#     Edge 78, Type (0, 0), BuildingBlock: UVAHIK_clean_linker_0, # of connection points: 2
#     Edge 79, Type (0, 0), BuildingBlock: UVAHIK_clean_linker_0, # of connection points: 2
#     Edge 80, Type (0, 0), BuildingBlock: UVAHIK_clean_linker_0, # of connection points: 2
#     Edge 81, Type (0, 0), BuildingBlock: UVAHIK_clean_linker_0, # of connection points: 2
#     Edge 82, Type (0, 0), BuildingBlock: UVAHIK_clean_linker_0, # of connection points: 2
#     Edge 83, Type (0, 0), BuildingBlock: UVAHIK_clean_linker_0, # of connection points: 2
#     Edge 84, Type (0, 0), BuildingBlock: UVAHIK_clean_linker_0, # of connection points: 2
#     Edge 85, Type (0, 0), BuildingBlock: UVAHIK_clean_linker_0, # of connection points: 2
#     Edge 86, Type (0, 0), BuildingBlock: UVAHIK_clean_linker_0, # of connection points: 2
#     Edge 87, Type (0, 0), BuildingBlock: UVAHIK_clean_linker_0, # of connection points: 2
#     Edge 88, Type (0, 0), BuildingBlock: UVAHIK_clean_linker_0, # of connection points: 2
#     Edge 89, Type (0, 0), BuildingBlock: UVAHIK_clean_linker_0, # of connection points: 2
#     Edge 90, Type (0, 0), BuildingBlock: UVAHIK_clean_linker_0, # of connection points: 2
#     Edge 91, Type (0, 0), BuildingBlock: UVAHIK_clean_linker_0, # of connection points: 2
#     Edge 92, Type (0, 0), BuildingBlock: UVAHIK_clean_linker_0, # of connection points: 2
#     Edge 93, Type (0, 0), BuildingBlock: UVAHIK_clean_linker_0, # of connection points: 2
#     Edge 94, Type (0, 0), BuildingBlock: UVAHIK_clean_linker_0, # of connection points: 2
#     Edge 95, Type (0, 0), BuildingBlock: UVAHIK_clean_linker_0, # of connection points: 2
# Relax obj value: 0.329
# Max RMSD: 0.256
# Mean RMSD: 0.256
data_MOF--net-sxg--node1-VOLQOD_clean_sbu_1--edge1-UVAHIK_clean_linker_0
_symmetry_space_group_name_H-M    P1
_symmetry_Int_Tables_number       1
_symmetry_cell_setting            triclinic
loop_
_symmetry_equiv_pos_as_xyz
'x, y, z'
_cell_length_a     59.345124
_cell_length_b     59.370027
_cell_length_c     59.314011
_cell_angle_alpha  89.966073
_cell_angle_beta   89.996853
_cell_angle_gamma 90.0426
loop_
_atom_site_label
_atom_site_type_symbol
_atom_site_fract_x
_atom_site_fract_y
_atom_site_fract_z
_atom_type_partial_charge
O0 O 0.09268 0.26521 0.19577 0.0
Zn1 Zn 0.07996 0.29552 0.20317 0.0
O2 O 0.06836 0.30994 0.17617 0.0
Zn3 Zn 0.0855 0.33764 0.16994 0.0
Zn4 Zn 0.07037 0.28898 0.15116 0.0
Zn5 Zn 0.03683 0.3165 0.18039 0.0
O6 O 0.06482 0.36518 0.1689 0.0
O7 O 0.03259 0.34938 0.17985 0.0
O8 O 0.1034 0.31452 0.21854 0.0
O9 O 0.10732 0.34354 0.19522 0.0
O10 O 0.10432 0.33389 0.14149 0.0
O11 O 0.09448 0.29942 0.13043 0.0
O12 O 0.04215 0.28813 0.13254 0.0
O13 O 0.05523 0.29008 0.22571 0.0
O14 O 0.01785 0.30549 0.15486 0.0
O15 O 0.0248 0.30467 0.20963 0.0
C16 C 0.08907 0.25165 0.17954 0.0
C17 C 0.04407 0.3666 0.17436 0.0
C18 C 0.1061 0.31727 0.12797 0.0
C19 C 0.11254 0.3332 0.2133 0.0
C20 C 0.02238 0.29532 0.13657 0.0
C21 C 0.03428 0.2946 0.22602 0.0
O22 O 0.07854 0.25772 0.16183 0.0
O23 O 0.43572 0.70578 0.72392 0.0
Zn24 Zn 0.43936 0.67247 0.72211 0.0
O25 O 0.44652 0.66387 0.6917 0.0
Zn26 Zn 0.42313 0.64461 0.67908 0.0
Zn27 Zn 0.45064 0.69043 0.67328 0.0
Zn28 Zn 0.47434 0.64737 0.69249 0.0
O29 O 0.43582 0.61411 0.6701 0.0
O30 O 0.46744 0.61474 0.69038 0.0
O31 O 0.41169 0.65655 0.73341 0.0
O32 O 0.40004 0.63804 0.70302 0.0
O33 O 0.40735 0.66001 0.653 0.0
O34 O 0.42475 0.69316 0.65197 0.0
O35 O 0.4777 0.68677 0.65303 0.0
O36 O 0.46512 0.66615 0.74294 0.0
O37 O 0.49269 0.65468 0.66502 0.0
O38 O 0.49221 0.65299 0.72085 0.0
C39 C 0.44276 0.72209 0.71185 0.0
C40 C 0.45266 0.60419 0.67901 0.0
C41 C 0.40956 0.67979 0.64486 0.0
C42 C 0.39773 0.64347 0.72368 0.0
C43 C 0.49208 0.67096 0.65104 0.0
C44 C 0.48536 0.6597 0.74005 0.0
O45 O 0.45103 0.71886 0.69225 0.0
O46 O 0.533 0.19428 0.72331 0.0
Zn47 Zn 0.53034 0.16155 0.73053 0.0
O48 O 0.52477 0.15849 0.76193 0.0
Zn49 Zn 0.54887 0.14358 0.7775 0.0
Zn50 Zn 0.5189 0.1871 0.77562 0.0
Zn51 Zn 0.49984 0.13869 0.76569 0.0
O52 O 0.53561 0.11999 0.79828 0.0
O53 O 0.51151 0.10791 0.77261 0.0
O54 O 0.55792 0.14393 0.72174 0.0
O55 O 0.56846 0.12861 0.75443 0.0
O56 O 0.56749 0.16606 0.79479 0.0
O57 O 0.54643 0.19688 0.7926 0.0
O58 O 0.49439 0.18344 0.7992 0.0
O59 O 0.50366 0.15081 0.71264 0.0
O60 O 0.48308 0.1482 0.79334 0.0
O61 O 0.47971 0.13823 0.73847 0.0
C62 C 0.52388 0.21166 0.73205 0.0
C63 C 0.52202 0.10502 0.79108 0.0
C64 C 0.56423 0.18683 0.79909 0.0
C65 C 0.57067 0.13093 0.73316 0.0
C66 C 0.4827 0.16627 0.80489 0.0
C67 C 0.48442 0.14295 0.71806 0.0
O68 O 0.5145 0.21096 0.75147 0.0
O69 O 0.91228 0.80459 0.2802 0.0
Zn70 Zn 0.92476 0.83575 0.27919 0.0
O71 O 0.93903 0.84317 0.30655 0.0
Zn72 Zn 0.92486 0.86741 0.32265 0.0
Zn73 Zn 0.9407 0.81649 0.32399 0.0
Zn74 Zn 0.96825 0.85407 0.30021 0.0
O75 O 0.94919 0.89019 0.332 0.0
O76 O 0.96684 0.88744 0.29936 0.0
O77 O 0.90136 0.85843 0.27243 0.0
O78 O 0.90237 0.8821 0.30157 0.0
O79 O 0.90766 0.8542 0.34903 0.0
O80 O 0.91575 0.8176 0.34677 0.0
O81 O 0.96944 0.81718 0.34157 0.0
O82 O 0.94728 0.83443 0.25416 0.0
O83 O 0.98807 0.84594 0.32635 0.0
O84 O 0.97983 0.84259 0.27073 0.0
C85 C 0.9229 0.78745 0.28755 0.0
C86 C 0.96339 0.89785 0.31773 0.0
C87 C 0.90499 0.83391 0.35572 0.0
C88 C 0.89454 0.87612 0.28242 0.0
C89 C 0.98609 0.83077 0.34143 0.0
C90 C 0.96864 0.83627 0.25354 0.0
O91 O 0.93725 0.78933 0.30349 0.0
O92 O 0.249 0.05422 0.28824 0.0
Zn93 Zn 0.24035 0.05277 0.32074 0.0
O94 O 0.21156 0.03907 0.32302 0.0
Zn95 Zn 0.1884 0.05879 0.33444 0.0
Zn96 Zn 0.20279 0.02646 0.29462 0.0
Zn97 Zn 0.21325 0.0165 0.34561 0.0
O98 O 0.17104 0.04245 0.35922 0.0
O99 O 0.20207 0.02916 0.37461 0.0
O100 O 0.2392 0.08356 0.33475 0.0
O101 O 0.20368 0.08646 0.34682 0.0
O102 O 0.16787 0.06842 0.30903 0.0
O103 O 0.17981 0.04688 0.28084 0.0
O104 O 0.18667 -0.00312 0.30024 0.0
O105 O 0.26416 0.03328 0.33534 0.0
O106 O 0.19169 0.99207 0.33711 0.0
O107 O 0.2445 0.00484 0.34962 0.0
C108 C 0.24479 0.04137 0.27153 0.0
C109 C 0.1811 0.03324 0.37583 0.0
C110 C 0.16706 0.06236 0.28842 0.0
C111 C 0.22361 0.09434 0.3449 0.0
C112 C 0.1825 0.98633 0.31857 0.0
C113 C 0.26328 0.01425 0.34528 0.0
O114 O 0.229 0.02669 0.27237 0.0
O115 O 0.26537 0.92187 0.79493 0.0
Zn116 Zn 0.26868 0.9286 0.82765 0.0
O117 O 0.29744 0.94139 0.83323 0.0
Zn118 Zn 0.31614 0.92268 0.85211 0.0
Zn119 Zn 0.31234 0.94782 0.80527 0.0
Zn120 Zn 0.2932 0.96814 0.85058 0.0
O121 O 0.3307 0.94235 0.87601 0.0
O122 O 0.29973 0.96177 0.88295 0.0
O123 O 0.26434 0.90148 0.84714 0.0
O124 O 0.2962 0.89949 0.86701 0.0
O125 O 0.33997 0.90715 0.83338 0.0
O126 O 0.33678 0.92512 0.80066 0.0
O127 O 0.32808 0.97779 0.80774 0.0
O128 O 0.24417 0.95098 0.83404 0.0
O129 O 0.31655 0.99043 0.84109 0.0
O130 O 0.26214 0.98089 0.84736 0.0
C131 C 0.27392 0.93102 0.77746 0.0
C132 C 0.31951 0.95574 0.88851 0.0
C133 C 0.3461 0.91024 0.81299 0.0
C134 C 0.27632 0.89256 0.86258 0.0
C135 C 0.32909 0.99211 0.82376 0.0
C136 C 0.24407 0.97126 0.841 0.0
O137 O 0.29104 0.94402 0.77873 0.0
O138 O 0.72115 0.42431 0.67931 0.0
Zn139 Zn 0.71543 0.43571 0.64816 0.0
O140 O 0.68394 0.44131 0.64327 0.0
Zn141 Zn 0.67231 0.42298 0.6183 0.0
Zn142 Zn 0.66781 0.43575 0.67095 0.0
Zn143 Zn 0.68067 0.47274 0.63662 0.0
O144 O 0.6616 0.44324 0.5925 0.0
O145 O 0.67576 0.47612 0.60396 0.0
O146 O 0.72723 0.41381 0.62596 0.0
O147 O 0.6975 0.40355 0.60562 0.0
O148 O 0.64706 0.40253 0.62961 0.0
O149 O 0.64805 0.40916 0.66659 0.0
O150 O 0.6455 0.46015 0.67769 0.0
O151 O 0.73358 0.46402 0.64629 0.0
O152 O 0.65269 0.48496 0.65076 0.0
O153 O 0.70782 0.49103 0.64541 0.0
C154 C 0.70957 0.42496 0.69734 0.0
C155 C 0.66656 0.46387 0.58901 0.0
C156 C 0.64015 0.39866 0.64964 0.0
C157 C 0.71847 0.40221 0.61023 0.0
C158 C 0.64064 0.47813 0.66711 0.0
C159 C 0.72827 0.48475 0.64701 0.0
O160 O 0.68885 0.4306 0.69714 0.0
O161 O 0.79659 0.57905 0.21651 0.0
Zn162 Zn 0.79604 0.5649 0.18636 0.0
O163 O 0.82595 0.55583 0.17727 0.0
Zn164 Zn 0.83303 0.56989 0.14808 0.0
Zn165 Zn 0.84714 0.56463 0.2006 0.0
Zn166 Zn 0.82702 0.52332 0.17515 0.0
O167 O 0.83614 0.54616 0.12341 0.0
O168 O 0.82859 0.51504 0.14292 0.0
O169 O 0.78119 0.5858 0.16446 0.0
O170 O 0.80692 0.5888 0.13749 0.0
O171 O 0.85994 0.59115 0.1513 0.0
O172 O 0.8661 0.58917 0.18839 0.0
O173 O 0.86909 0.53998 0.20776 0.0
O174 O 0.77622 0.5382 0.19064 0.0
O175 O 0.85464 0.51054 0.18991 0.0
O176 O 0.79897 0.50871 0.18751 0.0
C177 C 0.811 0.58078 0.23226 0.0
C178 C 0.83263 0.52496 0.12434 0.0
C179 C 0.87049 0.5973 0.16904 0.0
C180 C 0.78762 0.59355 0.14554 0.0
C181 C 0.86994 0.51935 0.2021 0.0
C182 C 0.77971 0.51712 0.1918 0.0
O183 O 0.83146 0.57497 0.22929 0.0
O184 O 0.32127 0.22564 0.06876 0.0
Zn185 Zn 0.35379 0.22233 0.06082 0.0
O186 O 0.35954 0.19364 0.04818 0.0
Zn187 Zn 0.38073 0.17577 0.06523 0.0
Zn188 Zn 0.33166 0.17826 0.04457 0.0
Zn189 Zn 0.37396 0.1977 0.01983 0.0
O190 O 0.40375 0.1625 0.04318 0.0
O191 O 0.40698 0.19431 0.0243 0.0
O192 O 0.37385 0.22696 0.08727 0.0
O193 O 0.39587 0.19645 0.08801 0.0
O194 O 0.36373 0.15122 0.08206 0.0
O195 O 0.32856 0.15602 0.06986 0.0
O196 O 0.33302 0.16027 0.01595 0.0
O197 O 0.35868 0.2467 0.03778 0.0
O198 O 0.36429 0.17256 -0.00072 0.0
O199 O 0.36779 0.22809 0.00664 0.0
C200 C 0.30407 0.21762 0.05872 0.0
C201 C 0.41422 0.17473 0.02891 0.0
C202 C 0.3428 0.14621 0.08262 0.0
C203 C 0.39027 0.21585 0.0955 0.0
C204 C 0.34756 0.15911 0.00014 0.0
C205 C 0.36284 0.24635 0.01672 0.0
O206 O 0.30559 0.20027 0.04609 0.0
O207 O 0.76352 0.28231 0.91514 0.0
Zn208 Zn 0.79184 0.28271 0.93289 0.0
O209 O 0.79867 0.31298 0.94286 0.0
Zn210 Zn 0.82733 0.32271 0.92944 0.0
Zn211 Zn 0.77414 0.33287 0.93401 0.0
Zn212 Zn 0.80073 0.31326 0.97544 0.0
O213 O 0.85025 0.33047 0.95346 0.0
O214 O 0.8324 0.31931 0.9845 0.0
O215 O 0.81656 0.26933 0.91414 0.0
O216 O 0.84145 0.2972 0.91247 0.0
O217 O 0.82258 0.3483 0.90718 0.0
O218 O 0.78561 0.35366 0.91053 0.0
O219 O 0.76461 0.35327 0.95934 0.0
O220 O 0.78656 0.26229 0.95913 0.0
O221 O 0.78301 0.33879 0.98847 0.0
O222 O 0.79131 0.28378 0.98938 0.0
C223 C 0.74714 0.29583 0.91241 0.0
C224 C 0.84989 0.32683 0.97463 0.0
C225 C 0.80452 0.35855 0.90171 0.0
C226 C 0.83544 0.27719 0.90772 0.0
C227 C 0.76994 0.35359 0.98012 0.0
C228 C 0.78659 0.26487 0.98042 0.0
O229 O 0.74777 0.31583 0.92024 0.0
O230 O 0.69357 0.74719 0.43295 0.0
Zn231 Zn 0.66113 0.73803 0.43113 0.0
O232 O 0.65763 0.70848 0.44283 0.0
Zn233 Zn 0.64484 0.68747 0.42157 0.0
Zn234 Zn 0.68561 0.69747 0.45433 0.0
Zn235 Zn 0.63575 0.7097 0.46617 0.0
O236 O 0.61904 0.67059 0.43701 0.0
O237 O 0.60599 0.70133 0.45317 0.0
O238 O 0.6491 0.73919 0.39965 0.0
O239 O 0.63372 0.70522 0.39469 0.0
O240 O 0.66909 0.66618 0.41067 0.0
O241 O 0.69823 0.67544 0.4323 0.0
O242 O 0.67982 0.67991 0.48268 0.0
O243 O 0.64531 0.76068 0.45067 0.0
O244 O 0.64338 0.68592 0.48899 0.0
O245 O 0.63386 0.74037 0.47991 0.0
C246 C 0.70982 0.74057 0.44536 0.0
C247 C 0.60334 0.68088 0.44747 0.0
C248 C 0.68973 0.664 0.41627 0.0
C249 C 0.63784 0.72521 0.38783 0.0
C250 C 0.66173 0.67574 0.49355 0.0
C251 C 0.63702 0.75937 0.47044 0.0
O252 O 0.70863 0.72241 0.45685 0.0
O253 O 0.20192 0.75704 0.54628 0.0
Zn254 Zn 0.16851 0.76005 0.54398 0.0
O255 O 0.16076 0.79082 0.5379 0.0
Zn256 Zn 0.14173 0.80286 0.56148 0.0
Zn257 Zn 0.18762 0.80909 0.53495 0.0
Zn258 Zn 0.14347 0.7916 0.51055 0.0
O259 O 0.11458 0.81849 0.54826 0.0
O260 O 0.11109 0.79679 0.51797 0.0
O261 O 0.15298 0.74869 0.57172 0.0
O262 O 0.13069 0.77737 0.58093 0.0
O263 O 0.15911 0.82437 0.58101 0.0
O264 O 0.19158 0.82804 0.56276 0.0
O265 O 0.1839 0.83077 0.50891 0.0
O266 O 0.15919 0.73997 0.51845 0.0
O267 O 0.15268 0.81845 0.49227 0.0
O268 O 0.1459 0.76312 0.49227 0.0
C269 C 0.2184 0.76924 0.53988 0.0
C270 C 0.10302 0.81102 0.53182 0.0
C271 C 0.17885 0.83268 0.5794 0.0
C272 C 0.13738 0.75717 0.58376 0.0
C273 C 0.16874 0.83261 0.49376 0.0
C274 C 0.1514 0.74344 0.49876 0.0
O275 O 0.21547 0.7894 0.53294 0.0
O276 O 0.93221 0.67962 0.73958 0.0
Zn277 Zn 0.94209 0.64804 0.74532 0.0
O278 O 0.9486 0.64401 0.77681 0.0
Zn279 Zn 0.92909 0.62151 0.79084 0.0
Zn280 Zn 0.94665 0.67269 0.79221 0.0
Zn281 Zn 0.97886 0.63339 0.77891 0.0
O282 O 0.94747 0.5948 0.80284 0.0
O283 O 0.97894 0.60036 0.78321 0.0
O284 O 0.91767 0.62704 0.73546 0.0
O285 O 0.90782 0.60949 0.76713 0.0
O286 O 0.90975 0.63597 0.8152 0.0
O287 O 0.91989 0.67194 0.81247 0.0
O288 O 0.97286 0.67684 0.81358 0.0
O289 O 0.96976 0.64451 0.72614 0.0
O290 O 0.99327 0.64636 0.80641 0.0
O291 O -0.003 0.64031 0.7514 0.0
C292 C 0.93448 0.69813 0.75015 0.0
C293 C 0.9664 0.58791 0.79531 0.0
C294 C 0.90753 0.65658 0.82093 0.0
C295 C 0.90533 0.61301 0.74605 0.0
C296 C 0.98928 0.6638 0.81822 0.0
C297 C 0.99058 0.64308 0.73113 0.0
O298 O 0.94186 0.69865 0.77036 0.0
O299 O 0.58439 0.30944 0.26587 0.0
Zn300 Zn 0.57021 0.33879 0.27298 0.0
O301 O 0.56091 0.33985 0.30419 0.0
Zn302 Zn 0.57569 0.36524 0.31917 0.0
Zn303 Zn 0.56832 0.31138 0.31844 0.0
Zn304 Zn 0.52865 0.34297 0.30526 0.0
O305 O 0.55258 0.38841 0.32968 0.0
O306 O 0.521 0.37378 0.31544 0.0
O307 O 0.59207 0.36305 0.26501 0.0
O308 O 0.59568 0.38167 0.29725 0.0
O309 O 0.59667 0.35367 0.34385 0.0
O310 O 0.59429 0.31649 0.33895 0.0
O311 O 0.54337 0.30044 0.33873 0.0
O312 O 0.54378 0.33934 0.2521 0.0
O313 O 0.51507 0.32238 0.32815 0.0
O314 O 0.51446 0.33697 0.27518 0.0
C315 C 0.58375 0.29015 0.27513 0.0
C316 C 0.53151 0.38948 0.32554 0.0
C317 C 0.60297 0.33362 0.34852 0.0
C318 C 0.60063 0.37891 0.27656 0.0
C319 C 0.52294 0.30669 0.34043 0.0
C320 C 0.52274 0.33688 0.25538 0.0
O321 O 0.57626 0.28756 0.29513 0.0
O322 O 0.41991 0.80162 0.2386 0.0
Zn323 Zn 0.43619 0.83076 0.23581 0.0
O324 O 0.43684 0.84058 0.20477 0.0
Zn325 Zn 0.41701 0.86669 0.20119 0.0
Zn326 Zn 0.4281 0.81544 0.18571 0.0
Zn327 Zn 0.46726 0.84873 0.19682 0.0
O328 O 0.43502 0.8947 0.19317 0.0
O329 O 0.47028 0.88201 0.19527 0.0
O330 O 0.42108 0.85323 0.25613 0.0
O331 O 0.40395 0.8753 0.23116 0.0
O332 O 0.39167 0.85991 0.17878 0.0
O333 O 0.40048 0.82462 0.16949 0.0
O334 O 0.45043 0.80934 0.16057 0.0
O335 O 0.4674 0.82427 0.24656 0.0
O336 O 0.47498 0.83688 0.16645 0.0
O337 O 0.48965 0.83617 0.21889 0.0
C338 C 0.41606 0.78551 0.22501 0.0
C339 C 0.45625 0.89802 0.19291 0.0
C340 C 0.38796 0.84188 0.16763 0.0
C341 C 0.40805 0.86959 0.25145 0.0
C342 C 0.46752 0.8208 0.15441 0.0
C343 C 0.4869 0.82686 0.23803 0.0
O344 O 0.42017 0.78744 0.20397 0.0
O345 O 0.05575 0.18991 0.76691 0.0
Zn346 Zn 0.0434 0.15913 0.76123 0.0
O347 O 0.03614 0.15609 0.72991 0.0
Zn348 Zn 0.05505 0.13431 0.71466 0.0
Zn349 Zn 0.03747 0.18501 0.71552 0.0
Zn350 Zn 0.00624 0.14496 0.72764 0.0
O351 O 0.03609 0.10979 0.69995 0.0
O352 O 0.00724 0.11176 0.72376 0.0
O353 O 0.06557 0.13533 0.77081 0.0
O354 O 0.07345 0.11848 0.73819 0.0
O355 O 0.07611 0.1499 0.69247 0.0
O356 O 0.06457 0.18532 0.69606 0.0
O357 O 0.01173 0.1888 0.69335 0.0
O358 O 0.01528 0.15785 0.78005 0.0
O359 O 0.99229 0.15742 0.6995 0.0
O360 O 0.98799 0.15259 0.75499 0.0
C361 C 0.05212 0.20885 0.75746 0.0
C362 C 0.01866 0.10112 0.70909 0.0
C363 C 0.07787 0.1708 0.68766 0.0
C364 C 0.0759 0.12032 0.75946 0.0
C365 C -0.00392 0.17507 0.68789 0.0
C366 C 0.99444 0.15644 0.7751 0.0
O367 O 0.04237 0.21017 0.73828 0.0
O368 O 0.74741 0.91766 0.69129 0.0
Zn369 Zn 0.75114 0.92979 0.66012 0.0
O370 O 0.78228 0.93631 0.65364 0.0
Zn371 Zn 0.79394 0.91737 0.6294 0.0
Zn372 Zn 0.79949 0.93252 0.68099 0.0
Zn373 Zn 0.78461 0.96704 0.644 0.0
O374 O 0.80724 0.93617 0.60382 0.0
O375 O 0.78943 0.96835 0.61107 0.0
O376 O 0.73832 0.90853 0.63737 0.0
O377 O 0.76777 0.90102 0.61535 0.0
O378 O 0.81652 0.89462 0.64176 0.0
O379 O 0.81836 0.90502 0.67774 0.0
O380 O 0.82167 0.95791 0.68511 0.0
O381 O 0.73276 0.95807 0.65953 0.0
O382 O 0.8121 0.98103 0.6573 0.0
O383 O 0.75711 0.98516 0.65109 0.0
C384 C 0.7593 0.91985 0.70902 0.0
C385 C 0.80075 0.9558 0.59798 0.0
C386 C 0.82414 0.89197 0.66173 0.0
C387 C 0.74695 0.89898 0.62022 0.0
C388 C 0.82512 0.9756 0.67344 0.0
C389 C 0.73733 0.97877 0.65635 0.0
O390 O 0.77935 0.9276 0.70814 0.0
O391 O 0.72376 0.0745 0.19402 0.0
Zn392 Zn 0.71436 0.05846 0.166 0.0
O393 O 0.68222 0.05347 0.16601 0.0
Zn394 Zn 0.66955 0.06281 0.13714 0.0
Zn395 Zn 0.66891 0.06941 0.19091 0.0
Zn396 Zn 0.67654 0.02209 0.17116 0.0
O397 O 0.66156 0.03544 0.11776 0.0
O398 O 0.6687 0.00779 0.14206 0.0
O399 O 0.72444 0.07707 0.13958 0.0
O400 O 0.6929 0.07984 0.11961 0.0
O401 O 0.64416 0.08536 0.14252 0.0
O402 O 0.6516 0.09489 0.17827 0.0
O403 O 0.64479 0.05103 0.20596 0.0
O404 O 0.73085 0.02912 0.1676 0.0
O405 O 0.65035 0.01692 0.19193 0.0
O406 O 0.70441 0.00684 0.18211 0.0
C407 C 0.71377 0.08117 0.21177 0.0
C408 C 0.66296 0.01451 0.12253 0.0
C409 C 0.64109 0.09787 0.15979 0.0
C410 C 0.7137 0.08423 0.12245 0.0
C411 C 0.63927 0.0304 0.20436 0.0
C412 C 0.72492 0.01081 0.17714 0.0
O413 O 0.69239 0.07978 0.21369 0.0
O414 O 0.24111 0.54441 0.29506 0.0
Zn415 Zn 0.24713 0.53756 0.32749 0.0
O416 O 0.2795 0.5375 0.33237 0.0
Zn417 Zn 0.28806 0.56167 0.35287 0.0
Zn418 Zn 0.29551 0.5403 0.304 0.0
Zn419 Zn 0.28761 0.50905 0.34525 0.0
O420 O 0.29752 0.54936 0.3835 0.0
O421 O 0.29194 0.51263 0.37816 0.0
O422 O 0.23127 0.56109 0.34652 0.0
O423 O 0.26074 0.57974 0.36008 0.0
O424 O 0.31056 0.58324 0.33836 0.0
O425 O 0.31049 0.57025 0.30322 0.0
O426 O 0.3216 0.51826 0.30161 0.0
O427 O 0.23381 0.50663 0.33227 0.0
O428 O 0.31683 0.49847 0.33295 0.0
O429 O 0.26392 0.48569 0.33952 0.0
C430 C 0.2527 0.54321 0.27703 0.0
C431 C 0.29671 0.52919 0.39088 0.0
C432 C 0.31641 0.5849 0.3177 0.0
C433 C 0.23955 0.57745 0.35772 0.0
C434 C 0.32827 0.50329 0.31549 0.0
C435 C 0.24293 0.48746 0.33547 0.0
O436 O 0.27391 0.53959 0.27753 0.0
O437 O 0.25263 0.42753 0.81099 0.0
Zn438 Zn 0.2481 0.43974 0.84197 0.0
O439 O 0.21649 0.44309 0.84807 0.0
Zn440 Zn 0.20639 0.42325 0.87222 0.0
Zn441 Zn 0.19961 0.4386 0.8207 0.0
Zn442 Zn 0.21163 0.47327 0.85764 0.0
O443 O 0.19374 0.44145 0.89855 0.0
O444 O 0.21068 0.47406 0.89097 0.0
O445 O 0.2625 0.41905 0.86433 0.0
O446 O 0.23344 0.40677 0.88469 0.0
O447 O 0.18373 0.40041 0.86007 0.0
O448 O 0.18233 0.41001 0.82382 0.0
O449 O 0.17536 0.46225 0.81691 0.0
O450 O 0.26378 0.46982 0.84152 0.0
O451 O 0.18144 0.48374 0.8469 0.0
O452 O 0.2359 0.4941 0.84681 0.0
C453 C 0.24082 0.4289 0.79313 0.0
C454 C 0.20046 0.46098 0.90451 0.0
C455 C 0.17654 0.39717 0.84002 0.0
C456 C 0.25446 0.40701 0.88018 0.0
C457 C 0.16937 0.47812 0.83008 0.0
C458 C 0.25643 0.48996 0.84218 0.0
O459 O 0.22031 0.43539 0.79368 0.0
O460 O 0.69953 0.73928 0.9345 0.0
Zn461 Zn 0.66829 0.74445 0.94578 0.0
O462 O 0.66403 0.77622 0.95251 0.0
Zn463 Zn 0.64026 0.78872 0.93335 0.0
Zn464 Zn 0.69228 0.79238 0.94801 0.0
Zn465 Zn 0.65562 0.77922 0.98384 0.0
O466 O 0.61374 0.79981 0.95189 0.0
O467 O 0.62351 0.78833 0.9863 0.0
O468 O 0.64627 0.73306 0.9224 0.0
O469 O 0.62765 0.76437 0.91383 0.0
O470 O 0.65264 0.81296 0.91244 0.0
O471 O 0.68901 0.81251 0.92148 0.0
O472 O 0.69897 0.8138 0.97369 0.0
O473 O 0.66648 0.72571 0.97395 0.0
O474 O 0.67263 0.80428 -0.00156 0.0
O475 O 0.66067 0.75065 0.00119 0.0
C476 C 0.71779 0.75053 0.93485 0.0
C477 C 0.60941 0.79708 0.97275 0.0
C478 C 0.67281 0.81985 0.90952 0.0
C479 C 0.63115 0.74339 0.91119 0.0
C480 C 0.68908 0.81669 0.99252 0.0
C481 C 0.66433 0.73053 0.99476 0.0
O482 O 0.71817 0.77106 0.94123 0.0
O483 O 0.17971 0.738 0.07924 0.0
Zn484 Zn 0.15115 0.73387 0.06219 0.0
O485 O 0.14808 0.7034 0.05273 0.0
Zn486 Zn 0.12413 0.68741 0.0682 0.0
Zn487 Zn 0.17685 0.68907 0.05545 0.0
Zn488 Zn 0.13996 0.70353 0.02195 0.0
O489 O 0.10109 0.67528 0.04547 0.0
O490 O 0.10683 0.70125 0.01909 0.0
O491 O 0.12519 0.74245 0.08159 0.0
O492 O 0.10738 0.70989 0.08749 0.0
O493 O 0.13766 0.66266 0.08793 0.0
O494 O 0.17419 0.6665 0.08 0.0
O495 O 0.18365 0.66999 0.02816 0.0
O496 O 0.15459 0.75448 0.03547 0.0
O497 O 0.15293 0.67604 0.00769 0.0
O498 O 0.15076 0.73121 0.00643 0.0
C499 C 0.19905 0.72939 0.07582 0.0
C500 C 0.09466 0.68601 0.02794 0.0
C501 C 0.15823 0.65696 0.09074 0.0
C502 C 0.10942 0.73105 0.09066 0.0
C503 C 0.17084 0.66494 0.01165 0.0
C504 C 0.15519 0.75062 0.01436 0.0
O505 O 0.20139 0.71149 0.06409 0.0
O506 O 0.27582 0.26204 0.55962 0.0
Zn507 Zn 0.30387 0.26749 0.54226 0.0
O508 O 0.31066 0.29934 0.54192 0.0
Zn509 Zn 0.3395 0.30424 0.55725 0.0
Zn510 Zn 0.28661 0.31594 0.55651 0.0
Zn511 Zn 0.31227 0.30935 0.51097 0.0
O512 O 0.36422 0.31038 0.53425 0.0
O513 O 0.34443 0.3129 0.50252 0.0
O514 O 0.32787 0.24914 0.55756 0.0
O515 O 0.34881 0.27588 0.57326 0.0
O516 O 0.33688 0.32891 0.58101 0.0
O517 O 0.29951 0.33237 0.58246 0.0
O518 O 0.27517 0.34145 0.53735 0.0
O519 O 0.29722 0.256 0.51132 0.0
O520 O 0.29656 0.33896 0.50674 0.0
O521 O 0.29919 0.2865 0.48967 0.0
C522 C 0.26033 0.27414 0.56807 0.0
C523 C 0.36319 0.31294 0.51291 0.0
C524 C 0.31908 0.33738 0.58958 0.0
C525 C 0.3437 0.25519 0.57072 0.0
C526 C 0.28185 0.34921 0.5185 0.0
C527 C 0.29493 0.26565 0.4923 0.0
O528 O 0.26139 0.29559 0.5675 0.0
O529 O 0.81957 0.23601 0.42238 0.0
Zn530 Zn 0.84962 0.22778 0.43553 0.0
O531 O 0.84968 0.19677 0.44489 0.0
Zn532 Zn 0.87284 0.17901 0.43016 0.0
Zn533 Zn 0.8203 0.18422 0.44057 0.0
Zn534 Zn 0.85527 0.19593 0.47628 0.0
O535 O 0.89493 0.16601 0.45376 0.0
O536 O 0.8876 0.19047 0.4813 0.0
O537 O 0.87463 0.23361 0.41335 0.0
O538 O 0.89106 0.19998 0.41071 0.0
O539 O 0.858 0.15618 0.40865 0.0
O540 O 0.82173 0.16464 0.41371 0.0
O541 O 0.81202 0.16296 0.46565 0.0
O542 O 0.85165 0.24849 0.46234 0.0
O543 O 0.83946 0.16954 0.49008 0.0
O544 O 0.8465 0.22484 0.49089 0.0
C545 C 0.79997 0.22793 0.4259 0.0
C546 C 0.90013 0.17561 0.47236 0.0
C547 C 0.83717 0.15383 0.40351 0.0
C548 C 0.8899 0.22077 0.4054 0.0
C549 C 0.82239 0.15818 0.48382 0.0
C550 C 0.84758 0.2448 0.48312 0.0
O551 O 0.79727 0.20862 0.43499 0.0
C552 C 0.12908 0.33757 0.25193 0.0
C553 C 0.12865 0.34381 0.22905 0.0
C554 C 0.14287 0.34907 0.26718 0.0
C555 C 0.19269 0.38552 0.27114 0.0
H556 H 0.16324 0.41186 0.32324 0.0
C557 C 0.24024 0.4458 0.32947 0.0
C558 C 0.22949 0.46681 0.33155 0.0
C559 C 0.22838 0.42708 0.32157 0.0
C560 C 0.17172 0.40442 0.30889 0.0
H561 H 0.14301 0.36634 0.20407 0.0
H562 H 0.16731 0.38613 0.23062 0.0
H563 H 0.14253 0.38545 0.29922 0.0
H564 H 0.1974 0.48412 0.32883 0.0
H565 H 0.17673 0.4514 0.31516 0.0
H566 H 0.22157 0.40503 0.28024 0.0
C567 C 0.15691 0.37242 0.23676 0.0
C568 C 0.15995 0.38924 0.29525 0.0
C569 C 0.1429 0.36118 0.22159 0.0
C570 C 0.20623 0.46824 0.32727 0.0
C571 C 0.19434 0.44946 0.31955 0.0
C572 C 0.20452 0.40047 0.2849 0.0
C573 C 0.15676 0.36672 0.25974 0.0
C574 C 0.17016 0.38015 0.27592 0.0
C575 C 0.2055 0.42893 0.31585 0.0
C576 C 0.19397 0.41051 0.30357 0.0
H577 H 0.11823 0.32428 0.2582 0.0
H578 H 0.14254 0.34432 0.28482 0.0
H579 H 0.20096 0.37862 0.2564 0.0
H580 H 0.2581 0.44405 0.33275 0.0
H581 H 0.2373 0.41136 0.31912 0.0
C582 C 0.2941 0.5042 0.82977 0.0
C583 C 0.27151 0.50859 0.83532 0.0
C584 C 0.30752 0.52097 0.82022 0.0
C585 C 0.32368 0.55216 0.78361 0.0
H586 H 0.32456 0.61511 0.80108 0.0
C587 C 0.36423 0.61806 0.72659 0.0
C588 C 0.37971 0.6326 0.73707 0.0
C589 C 0.34936 0.6052 0.73947 0.0
C590 C 0.32448 0.59757 0.79607 0.0
H591 H 0.24573 0.5345 0.83651 0.0
H592 H 0.26919 0.56374 0.81963 0.0
H593 H 0.30337 0.58785 0.8238 0.0
H594 H 0.39066 0.64612 0.76928 0.0
H595 H 0.36474 0.62345 0.79176 0.0
H596 H 0.34488 0.56161 0.75612 0.0
C597 C 0.2765 0.54732 0.82276 0.0
C598 C 0.3123 0.58202 0.80898 0.0
C599 C 0.26304 0.53052 0.83235 0.0
C600 C 0.37902 0.63501 0.76066 0.0
C601 C 0.36412 0.6221 0.77356 0.0
C602 C 0.33571 0.56764 0.77071 0.0
C603 C 0.29865 0.54249 0.81599 0.0
C604 C 0.31187 0.55915 0.80289 0.0
C605 C 0.34964 0.60656 0.76311 0.0
C606 C 0.33623 0.59051 0.77675 0.0
H607 H 0.30126 0.48757 0.83207 0.0
H608 H 0.3247 0.51691 0.81558 0.0
H609 H 0.32339 0.53472 0.77828 0.0
H610 H 0.3641 0.61599 0.70844 0.0
H611 H 0.33804 0.5937 0.73093 0.0
C612 C 0.59492 0.09687 0.73083 0.0
C613 C 0.58775 0.11735 0.7214 0.0
C614 C 0.61035 0.08339 0.71943 0.0
C615 C 0.65802 0.08254 0.68505 0.0
H616 H 0.63951 0.02252 0.66698 0.0
C617 C 0.72196 0.0177 0.65105 0.0
C618 C 0.71937 -0.00435 0.6593 0.0
C619 C 0.70504 0.0337 0.65439 0.0
C620 C 0.645 0.03917 0.67203 0.0
H621 H 0.59137 0.14006 0.69295 0.0
H622 H 0.61921 0.11655 0.67331 0.0
H623 H 0.61154 0.04895 0.68141 0.0
H624 H 0.69706 0.97306 0.67746 0.0
H625 H 0.66807 0.001 0.68401 0.0
H626 H 0.69168 0.07244 0.6773 0.0
C627 C 0.61246 0.11097 0.68934 0.0
C628 C 0.62896 0.05429 0.68006 0.0
C629 C 0.59659 0.1243 0.70052 0.0
C630 C 0.6995 0.98986 0.67075 0.0
C631 C 0.68276 0.00588 0.67433 0.0
C632 C 0.67418 0.06728 0.67738 0.0
C633 C 0.61917 0.09035 0.69866 0.0
C634 C 0.63547 0.07585 0.68705 0.0
C635 C 0.68532 0.02801 0.66626 0.0
C636 C 0.66792 0.0452 0.67136 0.0
H637 H 0.58828 0.09104 0.74682 0.0
H638 H 0.6155 0.06754 0.72689 0.0
H639 H 0.66328 0.09912 0.69056 0.0
H640 H 0.73704 0.02259 0.64199 0.0
H641 H 0.70743 0.05051 0.64772 0.0
C642 C 0.86836 0.90924 0.28156 0.0
C643 C 0.87716 0.88987 0.27122 0.0
C644 C 0.85184 0.92197 0.27068 0.0
C645 C 0.8086 0.91786 0.22653 0.0
H646 H 0.81261 0.98304 0.22581 0.0
C647 C 0.73656 0.97544 0.19668 0.0
C648 C 0.74244 0.99481 0.18438 0.0
C649 C 0.75324 0.96176 0.20592 0.0
C650 C 0.81142 0.96483 0.22569 0.0
H651 H 0.87568 0.86879 0.24127 0.0
H652 H 0.8472 0.89109 0.22237 0.0
H653 H 0.84135 0.96119 0.24545 0.0
H654 H 0.77042 0.01435 0.17108 0.0
H655 H 0.79951 0.99024 0.18703 0.0
H656 H 0.77887 0.92147 0.20649 0.0
C657 C 0.85277 0.89624 0.23899 0.0
C658 C 0.82767 0.95238 0.23718 0.0
C659 C 0.8692 0.88355 0.24981 0.0
C660 C 0.76533 -0.00036 0.18062 0.0
C661 C 0.78199 0.98594 0.18986 0.0
C662 C 0.79236 0.9303 0.21505 0.0
C663 C 0.84388 0.91551 0.24932 0.0
C664 C 0.82641 0.92878 0.23766 0.0
C665 C 0.77608 0.96718 0.20299 0.0
C666 C 0.79364 0.9539 0.21452 0.0
H667 H 0.87413 0.91452 0.29806 0.0
H668 H 0.8451 0.9367 0.27908 0.0
H669 H 0.80713 0.89967 0.22683 0.0
H670 H 0.71909 0.97123 0.19985 0.0
H671 H 0.74822 0.94745 0.21609 0.0
C672 C 0.27168 0.23427 0.47725 0.0
C673 C 0.2863 0.25242 0.4732 0.0
C674 C 0.26345 0.22149 0.45938 0.0
C675 C 0.2785 0.19867 0.40699 0.0
H676 H 0.21455 0.18874 0.39779 0.0
C677 C 0.24736 0.12902 0.34739 0.0
C678 C 0.22897 0.11631 0.35515 0.0
C679 C 0.25307 0.1493 0.35784 0.0
C680 C 0.23247 0.19119 0.40022 0.0
H681 H 0.30382 0.27156 0.44744 0.0
H682 H 0.29004 0.24831 0.41602 0.0
H683 H 0.22713 0.2178 0.42406 0.0
H684 H 0.2019 0.11492 0.37965 0.0
H685 H 0.21243 0.14959 0.39858 0.0
H686 H 0.28409 0.17103 0.38474 0.0
C687 C 0.2847 0.24445 0.43305 0.0
C688 C 0.2396 0.20796 0.41505 0.0
C689 C 0.29252 0.25765 0.45094 0.0
C690 C 0.2161 0.12444 0.37323 0.0
C691 C 0.22206 0.14448 0.38396 0.0
C692 C 0.2714 0.18157 0.3925 0.0
C693 C 0.27007 0.22634 0.43722 0.0
C694 C 0.26263 0.21145 0.41888 0.0
C695 C 0.24077 0.15706 0.37656 0.0
C696 C 0.24827 0.17722 0.38939 0.0
H697 H 0.2665 0.23001 0.49424 0.0
H698 H 0.25235 0.20742 0.46291 0.0
H699 H 0.29637 0.201 0.40995 0.0
H700 H 0.25739 0.12328 0.33326 0.0
H701 H 0.2673 0.15874 0.35138 0.0
C702 C 0.24742 0.86281 0.86908 0.0
C703 C 0.26589 0.87528 0.877 0.0
C704 C 0.23551 0.84869 0.88361 0.0
C705 C 0.20382 0.83385 0.92021 0.0
H706 H 0.23198 0.80114 0.96928 0.0
C707 C 0.17791 0.78524 0.0073 0.0
C708 C 0.16384 0.76809 -0.001 0.0
C709 C 0.18931 0.79943 0.99242 0.0
C710 C 0.22394 0.81039 0.95574 0.0
H711 H 0.28691 0.88227 0.90606 0.0
H712 H 0.26572 0.85823 0.93165 0.0
H713 H 0.25547 0.82151 0.9424 0.0
H714 H 0.14944 0.7533 0.96882 0.0
H715 H 0.16899 0.7786 0.94283 0.0
H716 H 0.17232 0.82195 0.93331 0.0
C717 C 0.26068 0.85887 0.91412 0.0
C718 C 0.23735 0.82207 0.94037 0.0
C719 C 0.27283 0.8727 0.89947 0.0
C720 C 0.16025 0.76633 0.97565 0.0
C721 C 0.17137 0.78079 0.9608 0.0
C722 C 0.19046 0.82186 0.9354 0.0
C723 C 0.24158 0.84707 0.90646 0.0
C724 C 0.22745 0.83401 0.92244 0.0
C725 C 0.18648 0.79697 0.96907 0.0
C726 C 0.20042 0.81016 0.95332 0.0
H727 H 0.24188 0.86431 0.85174 0.0
H728 H 0.2213 0.83936 0.87699 0.0
H729 H 0.19557 0.84326 0.90693 0.0
H730 H 0.18107 0.78694 0.0252 0.0
H731 H 0.20077 0.81197 -0.00089 0.0
C732 C 0.83467 0.2599 0.52024 0.0
C733 C 0.84092 0.26382 0.49772 0.0
C734 C 0.8244 0.27685 0.53285 0.0
C735 C 0.80936 0.31815 0.55872 0.0
H736 H 0.76183 0.34983 0.52692 0.0
C737 C 0.75668 0.38732 0.60105 0.0
C738 C 0.73333 0.38726 0.59699 0.0
C739 C 0.77099 0.37344 0.58872 0.0
C740 C 0.77495 0.34102 0.53604 0.0
H741 H 0.84288 0.28914 0.47135 0.0
H742 H 0.82522 0.31879 0.49354 0.0
H743 H 0.78632 0.32409 0.50636 0.0
H744 H 0.70672 0.37257 0.57666 0.0
H745 H 0.73181 0.34796 0.55525 0.0
H746 H 0.7975 0.33445 0.58856 0.0
C747 C 0.82783 0.30245 0.50123 0.0
C748 C 0.7892 0.32655 0.52422 0.0
C749 C 0.83812 0.2855 0.4886 0.0
C750 C 0.72462 0.37303 0.58019 0.0
C751 C 0.739 0.35905 0.56785 0.0
C752 C 0.79511 0.3326 0.57055 0.0
C753 C 0.82024 0.29806 0.52323 0.0
C754 C 0.80643 0.31482 0.53548 0.0
C755 C 0.76233 0.35909 0.57206 0.0
C756 C 0.77766 0.34406 0.55936 0.0
H757 H 0.83666 0.24342 0.52783 0.0
H758 H 0.81864 0.2729 0.54973 0.0
H759 H 0.82257 0.30944 0.56782 0.0
H760 H 0.76404 0.39818 0.61374 0.0
H761 H 0.78892 0.37412 0.5921 0.0
C762 C 0.77428 0.60844 0.10851 0.0
C763 C 0.77183 0.60722 0.13204 0.0
C764 C 0.75859 0.62014 0.0955 0.0
C765 C 0.71981 0.66653 0.09616 0.0
H766 H 0.69243 0.63717 0.04457 0.0
C767 C 0.66468 0.71695 0.03478 0.0
C768 C 0.66903 0.713 0.01183 0.0
C769 C 0.67252 0.70196 0.05118 0.0
C770 C 0.70002 0.64569 0.05881 0.0
H771 H 0.75134 0.61769 0.16046 0.0
H772 H 0.72425 0.63888 0.13759 0.0
H773 H 0.71662 0.6156 0.06988 0.0
H774 H 0.68395 0.68961 0.98803 0.0
H775 H 0.69819 0.66404 0.01643 0.0
H776 H 0.70455 0.69693 0.08453 0.0
C777 C 0.73816 0.63043 0.12933 0.0
C778 C 0.71377 0.63329 0.07332 0.0
C779 C 0.75362 0.61833 0.14235 0.0
C780 C 0.68024 0.69314 0.00555 0.0
C781 C 0.68833 0.67836 0.02193 0.0
C782 C 0.70639 0.67906 0.08143 0.0
C783 C 0.7404 0.63118 0.1058 0.0
C784 C 0.72409 0.64372 0.09184 0.0
C785 C 0.68512 0.68288 0.04499 0.0
C786 C 0.69671 0.6689 0.06229 0.0
H787 H 0.78805 0.59993 0.10008 0.0
H788 H 0.76076 0.62072 0.07737 0.0
H789 H 0.72773 0.67493 0.11031 0.0
H790 H 0.65587 0.73199 0.04014 0.0
H791 H 0.66926 0.70571 0.06874 0.0
C792 C 0.42688 0.22329 0.11491 0.0
C793 C 0.40352 0.22654 0.1135 0.0
C794 C 0.43969 0.23595 0.13008 0.0
C795 C 0.43647 0.28891 0.16342 0.0
H796 H 0.49032 0.2652 0.19177 0.0
C797 C 0.48482 0.32903 0.23861 0.0
C798 C 0.50837 0.33007 0.23625 0.0
C799 C 0.47169 0.31846 0.22217 0.0
C800 C 0.47539 0.27203 0.18378 0.0
H801 H 0.37496 0.24432 0.12766 0.0
H802 H 0.39703 0.26549 0.1549 0.0
H803 H 0.46781 0.24085 0.16752 0.0
H804 H 0.53646 0.32205 0.21415 0.0
H805 H 0.51348 0.30332 0.18575 0.0
H806 H 0.44379 0.31986 0.18058 0.0
C807 C 0.40572 0.25401 0.14369 0.0
C808 C 0.46253 0.25815 0.16984 0.0
C809 C 0.39302 0.24172 0.12825 0.0
C810 C 0.51836 0.32156 0.21651 0.0
C811 C 0.50529 0.31069 0.20031 0.0
C812 C 0.44913 0.30265 0.1777 0.0
C813 C 0.42929 0.25177 0.14438 0.0
C814 C 0.44291 0.26641 0.15945 0.0
C815 C 0.48197 0.30852 0.20334 0.0
C816 C 0.46872 0.29433 0.18787 0.0
H817 H 0.43536 0.21179 0.10355 0.0
H818 H 0.45782 0.23391 0.12995 0.0
H819 H 0.42177 0.29605 0.15532 0.0
H820 H 0.47664 0.33549 0.2536 0.0
H821 H 0.45368 0.31695 0.22479 0.0
C822 C 0.84329 0.244 0.88293 0.0
C823 C 0.85117 0.26256 0.89529 0.0
C824 C 0.85839 0.23026 0.8712 0.0
C825 C 0.91702 0.23032 0.84922 0.0
H826 H 0.90691 0.16607 0.84274 0.0
C827 C 0.98437 0.17281 0.8125 0.0
C828 C 0.97753 0.16219 0.79245 0.0
C829 C 0.96845 0.18211 0.82702 0.0
C830 C 0.90985 0.18399 0.8445 0.0
H831 H 0.88099 0.28088 0.9058 0.0
H832 H 0.90732 0.25651 0.88626 0.0
H833 H 0.88007 0.18884 0.86425 0.0
H834 H 0.94858 0.15127 0.77292 0.0
H835 H 0.92069 0.16732 0.7987 0.0
H836 H 0.94706 0.22531 0.82998 0.0
C837 C 0.88949 0.25295 0.88477 0.0
C838 C 0.89446 0.19708 0.85663 0.0
C839 C 0.8744 0.2669 0.89609 0.0
C840 C 0.95437 0.15951 0.78815 0.0
C841 C 0.93841 0.16857 0.8029 0.0
C842 C 0.93253 0.2172 0.83753 0.0
C843 C 0.88169 0.2346 0.87194 0.0
C844 C 0.89788 0.22044 0.85913 0.0
C845 C 0.94541 0.18066 0.82197 0.0
C846 C 0.92908 0.19397 0.83508 0.0
H847 H 0.82543 0.24031 0.88201 0.0
H848 H 0.85173 0.21649 0.86125 0.0
H849 H 0.91995 0.24829 0.8502 0.0
H850 H 0.00206 0.1751 0.81639 0.0
H851 H 0.97416 0.19124 0.84177 0.0
C852 C 0.50306 0.79913 0.26495 0.0
C853 C 0.50642 0.81696 0.24974 0.0
C854 C 0.52137 0.78855 0.27506 0.0
C855 C 0.56476 0.76139 0.28116 0.0
H856 H 0.60132 0.79681 0.32207 0.0
C857 C 0.6374 0.75185 0.35527 0.0
C858 C 0.62827 0.73297 0.36627 0.0
C859 C 0.62683 0.76085 0.33629 0.0
C860 C 0.59178 0.78666 0.31029 0.0
H861 H 0.53152 0.83797 0.23343 0.0
H862 H 0.56375 0.81983 0.25205 0.0
H863 H 0.57474 0.81565 0.29712 0.0
H864 H 0.60156 0.70807 0.3655 0.0
H865 H 0.58258 0.72422 0.33304 0.0
H866 H 0.58146 0.73237 0.29433 0.0
C867 C 0.54685 0.81393 0.25565 0.0
C868 C 0.5765 0.79751 0.29609 0.0
C869 C 0.52849 0.82426 0.2451 0.0
C870 C 0.609 0.72261 0.35733 0.0
C871 C 0.59821 0.73182 0.33858 0.0
C872 C 0.58029 0.75055 0.29507 0.0
C873 C 0.54337 0.79582 0.27047 0.0
C874 C 0.56235 0.78487 0.28205 0.0
C875 C 0.6067 0.75138 0.32815 0.0
C876 C 0.59336 0.76299 0.31044 0.0
H877 H 0.48627 0.793 0.26872 0.0
H878 H 0.51833 0.7748 0.2867 0.0
H879 H 0.55407 0.75139 0.27024 0.0
H880 H 0.65247 0.75998 0.36161 0.0
H881 H 0.63412 0.77559 0.32838 0.0
C882 C 0.10296 0.74728 0.60566 0.0
C883 C 0.12542 0.74256 0.5999 0.0
C884 C 0.09072 0.73226 0.61893 0.0
C885 C 0.09229 0.69321 0.66325 0.0
H886 H 0.03968 0.66545 0.6361 0.0
C887 C 0.03043 0.64219 0.71731 0.0
C888 C 0.00759 0.64701 0.71341 0.0
C889 C 0.04682 0.64879 0.70174 0.0
C890 C 0.05423 0.67313 0.64399 0.0
H891 H 0.15299 0.71894 0.60419 0.0
H892 H 0.13157 0.69299 0.6283 0.0
H893 H 0.06484 0.68842 0.61301 0.0
H894 H 0.98388 0.66154 0.68967 0.0
H895 H 0.0123 0.67374 0.66307 0.0
H896 H 0.08103 0.67951 0.69455 0.0
C897 C 0.12352 0.70814 0.62207 0.0
C898 C 0.06865 0.6861 0.63073 0.0
C899 C 0.13567 0.72294 0.60836 0.0
C900 C 0.00134 0.65751 0.69315 0.0
C901 C 0.01771 0.66439 0.67777 0.0
C902 C 0.07763 0.68059 0.67666 0.0
C903 C 0.10086 0.71254 0.62703 0.0
C904 C 0.08747 0.69658 0.6404 0.0
C905 C 0.0407 0.66061 0.68212 0.0
C906 C 0.05808 0.67088 0.66729 0.0
H907 H 0.09458 0.76217 0.59926 0.0
H908 H 0.07325 0.73594 0.62278 0.0
H909 H 0.10673 0.7013 0.67095 0.0
H910 H 0.03572 0.63387 0.73268 0.0
H911 H 0.06432 0.64517 0.7054 0.0
C912 C 0.87223 0.58683 0.74514 0.0
C913 C 0.88721 0.60119 0.7337 0.0
C914 C 0.85461 0.57638 0.73359 0.0
C915 C 0.83666 0.55879 0.6771 0.0
H916 H 0.77771 0.55511 0.70512 0.0
C917 C 0.74071 0.52346 0.65842 0.0
C918 C 0.74614 0.50144 0.65164 0.0
C919 C 0.75762 0.53818 0.66563 0.0
C920 C 0.79398 0.55629 0.69691 0.0
H921 H 0.89551 0.61566 0.70109 0.0
H922 H 0.86472 0.59741 0.68102 0.0
H923 H 0.80788 0.57572 0.72391 0.0
H924 H 0.77366 0.47806 0.64582 0.0
H925 H 0.803 0.50366 0.65843 0.0
H926 H 0.82278 0.53919 0.65019 0.0
C927 C 0.86672 0.59417 0.69888 0.0
C928 C 0.81132 0.56782 0.70782 0.0
C929 C 0.88431 0.60467 0.71042 0.0
C930 C 0.76888 0.49487 0.65107 0.0
C931 C 0.78574 0.50959 0.65814 0.0
C932 C 0.81933 0.54719 0.66623 0.0
C933 C 0.85162 0.58002 0.71037 0.0
C934 C 0.83292 0.5689 0.69818 0.0
C935 C 0.78024 0.5312 0.666 0.0
C936 C 0.79791 0.54555 0.67619 0.0
H937 H 0.874 0.58375 0.76305 0.0
H938 H 0.84343 0.56527 0.74282 0.0
H939 H 0.85317 0.55925 0.66933 0.0
H940 H 0.72335 0.52905 0.659 0.0
H941 H 0.75296 0.55485 0.67138 0.0
C942 C 0.62988 0.38634 0.24727 0.0
C943 C 0.61754 0.39375 0.26605 0.0
C944 C 0.64708 0.39965 0.23832 0.0
C945 C 0.68443 0.44726 0.25382 0.0
H946 H 0.69782 0.4477 0.18979 0.0
C947 C 0.74328 0.51157 0.21179 0.0
C948 C 0.7611 0.50244 0.19917 0.0
C949 C 0.72581 0.49786 0.21937 0.0
C950 C 0.69428 0.44754 0.20771 0.0
H951 H 0.61273 0.42123 0.28959 0.0
H952 H 0.64204 0.44493 0.27339 0.0
H953 H 0.6661 0.42547 0.20381 0.0
H954 H 0.77444 0.47193 0.18416 0.0
H955 H 0.74331 0.44791 0.19706 0.0
H956 H 0.71218 0.47003 0.25747 0.0
C957 C 0.63909 0.4285 0.26606 0.0
C958 C 0.67621 0.4348 0.21579 0.0
C959 C 0.62217 0.41501 0.27526 0.0
C960 C 0.76094 0.47936 0.19394 0.0
C961 C 0.74316 0.46569 0.20119 0.0
C962 C 0.7022 0.46028 0.24569 0.0
C963 C 0.65204 0.42081 0.24774 0.0
C964 C 0.67106 0.43452 0.23896 0.0
C965 C 0.72563 0.47485 0.21414 0.0
C966 C 0.70724 0.46051 0.22261 0.0
H967 H 0.62677 0.36993 0.23993 0.0
H968 H 0.65688 0.39301 0.22444 0.0
H969 H 0.68137 0.44704 0.27182 0.0
H970 H 0.743 0.52929 0.21617 0.0
H971 H 0.71235 0.50526 0.22924 0.0
C972 C 0.39417 0.90621 0.26615 0.0
C973 C 0.3985 0.88327 0.26982 0.0
C974 C 0.38503 0.91944 0.28323 0.0
C975 C 0.34584 0.9168 0.32794 0.0
H976 H 0.36714 0.97718 0.34101 0.0
C977 C 0.28408 0.98144 0.36172 0.0
C978 C 0.28431 0.00148 0.3491 0.0
C979 C 0.30259 0.96692 0.36133 0.0
C980 C 0.36096 0.96035 0.33764 0.0
H981 H 0.39703 0.85615 0.29427 0.0
H982 H 0.37989 0.8793 0.32405 0.0
H983 H 0.39178 0.95066 0.32148 0.0
H984 H 0.3049 0.02303 0.3279 0.0
H985 H 0.33664 -0.00244 0.3265 0.0
H986 H 0.31436 0.92686 0.34193 0.0
C987 C 0.3841 0.88699 0.30803 0.0
C988 C 0.37514 0.94516 0.32663 0.0
C989 C 0.39379 0.87381 0.29104 0.0
C990 C 0.30412 0.00766 0.33773 0.0
C991 C 0.32248 0.99304 0.33709 0.0
C992 C 0.33152 0.93209 0.3386 0.0
C993 C 0.37965 0.9099 0.3042 0.0
C994 C 0.36731 0.92362 0.32083 0.0
C995 C 0.32157 0.97202 0.34806 0.0
C996 C 0.33854 0.95441 0.34258 0.0
H997 H 0.39788 0.91399 0.25003 0.0
H998 H 0.38142 0.93699 0.27976 0.0
H999 H 0.33941 0.9003 0.3235 0.0
H1000 H 0.26918 0.9764 0.371 0.0
H1001 H 0.30154 0.95115 0.37046 0.0
C1002 C 0.22198 0.00667 0.8475 0.0
C1003 C 0.22304 0.98446 0.83929 0.0
C1004 C 0.20338 0.02025 0.84263 0.0
C1005 C 0.15579 0.04122 0.83465 0.0
H1006 H 0.14791 0.04441 0.76982 0.0
C1007 C 0.0937 0.08254 0.76208 0.0
C1008 C 0.09062 0.10414 0.77113 0.0
C1009 C 0.10793 0.06717 0.77263 0.0
C1010 C 0.14945 0.04345 0.78799 0.0
H1011 H 0.2047 0.95863 0.82092 0.0
H1012 H 0.17255 0.98252 0.81217 0.0
H1013 H 0.17493 0.01817 0.78562 0.0
H1014 H 0.09965 0.12658 0.79847 0.0
H1015 H 0.12552 0.10006 0.81641 0.0
H1016 H 0.12996 0.06627 0.83707 0.0
C1017 C 0.18612 0.98934 0.82232 0.0
C1018 C 0.16504 0.02846 0.797 0.0
C1019 C 0.20452 0.97569 0.82739 0.0
C1020 C 0.10176 0.11 0.79117 0.0
C1021 C 0.11644 0.09473 0.80151 0.0
C1022 C 0.13981 0.05602 0.82564 0.0
C1023 C 0.18573 0.01189 0.8293 0.0
C1024 C 0.16838 0.02724 0.82036 0.0
C1025 C 0.11988 0.0732 0.7922 0.0
C1026 C 0.13648 0.05733 0.80215 0.0
H1027 H 0.23591 0.01385 0.85686 0.0
H1028 H 0.20342 0.03766 0.84812 0.0
H1029 H 0.15817 0.04052 0.85275 0.0
H1030 H 0.08496 0.07744 0.74688 0.0
H1031 H 0.10959 0.05054 0.76532 0.0
C1032 C 0.73647 0.88804 0.58124 0.0
C1033 C 0.73202 0.88713 0.60442 0.0
C1034 C 0.72157 0.87834 0.56591 0.0
C1035 C 0.66374 0.85364 0.56088 0.0
H1036 H 0.69031 0.82586 0.50809 0.0
C1037 C 0.63094 0.779 0.50724 0.0
C1038 C 0.63529 0.78019 0.48396 0.0
C1039 C 0.63638 0.79713 0.52122 0.0
C1040 C 0.68258 0.83392 0.52254 0.0
H1041 H 0.70874 0.87533 0.62995 0.0
H1042 H 0.68341 0.8569 0.6033 0.0
H1043 H 0.71423 0.84581 0.53433 0.0
H1044 H 0.64531 0.80249 0.45667 0.0
H1045 H 0.65511 0.83385 0.48117 0.0
H1046 H 0.63222 0.83983 0.5495 0.0
C1047 C 0.69789 0.86589 0.59679 0.0
C1048 C 0.69629 0.84545 0.53762 0.0
C1049 C 0.71252 0.87617 0.6121 0.0
C1050 C 0.6422 0.80084 0.47459 0.0
C1051 C 0.64776 0.81885 0.48857 0.0
C1052 C 0.65004 0.84158 0.54594 0.0
C1053 C 0.7022 0.8669 0.57346 0.0
C1054 C 0.68713 0.85541 0.55707 0.0
C1055 C 0.64623 0.81657 0.51205 0.0
C1056 C 0.65944 0.83163 0.52669 0.0
H1057 H 0.75114 0.89686 0.57486 0.0
H1058 H 0.72521 0.88005 0.54811 0.0
H1059 H 0.65601 0.86139 0.57547 0.0
H1060 H 0.6253 0.76344 0.51495 0.0
H1061 H 0.63504 0.79505 0.53932 0.0
C1062 C 0.7868 0.24508 0.01777 0.0
C1063 C 0.78086 0.24543 0.99483 0.0
C1064 C 0.78139 0.22648 0.03118 0.0
C1065 C 0.74049 0.18152 0.03613 0.0
H1066 H 0.78502 0.15061 0.07263 0.0
C1067 C 0.71656 0.1017 0.08434 0.0
C1068 C 0.72497 0.0994 0.10633 0.0
C1069 C 0.72537 0.11799 0.06988 0.0
C1070 C 0.77233 0.15921 0.06275 0.0
H1071 H 0.76455 0.22666 0.96798 0.0
H1072 H 0.75472 0.19448 0.99156 0.0
H1073 H 0.79627 0.18303 0.04977 0.0
H1074 H 0.74969 0.11174 0.13023 0.0
H1075 H 0.76454 0.1408 0.1053 0.0
H1076 H 0.71633 0.15855 0.04949 0.0
C1077 C 0.7637 0.2085 -0.00094 0.0
C1078 C 0.7788 0.1777 0.04965 0.0
C1079 C 0.76939 0.22688 0.98559 0.0
C1080 C 0.74297 0.11309 0.1133 0.0
C1081 C 0.75152 0.1297 0.09896 0.0
C1082 C 0.73394 0.16332 0.04943 0.0
C1083 C 0.76963 0.20815 0.02194 0.0
C1084 C 0.76294 0.18889 0.03617 0.0
C1085 C 0.74246 0.13268 0.07724 0.0
C1086 C 0.74978 0.15181 0.06282 0.0
H1087 H 0.79574 0.25909 0.02531 0.0
H1088 H 0.78601 0.22658 0.04885 0.0
H1089 H 0.7279 0.19011 0.02607 0.0
H1090 H 0.70287 0.09116 0.07844 0.0
H1091 H 0.71843 0.11935 0.05304 0.0
C1092 C 0.14954 0.70218 0.49132 0.0
C1093 C 0.15016 0.7243 0.48295 0.0
C1094 C 0.15185 0.6839 0.47677 0.0
C1095 C 0.15632 0.66657 0.41644 0.0
H1096 H 0.20257 0.62705 0.44027 0.0
C1097 C 0.20099 0.5919 0.36836 0.0
C1098 C 0.22463 0.59359 0.3695 0.0
C1099 C 0.18737 0.60638 0.38113 0.0
C1100 C 0.18947 0.6378 0.43346 0.0
H1101 H 0.15193 0.74463 0.45263 0.0
H1102 H 0.15682 0.71268 0.42722 0.0
H1103 H 0.18522 0.65469 0.46479 0.0
H1104 H 0.25239 0.61245 0.38425 0.0
H1105 H 0.22878 0.63722 0.40641 0.0
H1106 H 0.16176 0.65004 0.38464 0.0
C1107 C 0.15414 0.70942 0.44498 0.0
C1108 C 0.17934 0.65351 0.44755 0.0
C1109 C 0.1515 0.72775 0.45956 0.0
C1110 C 0.23429 0.61046 0.38304 0.0
C1111 C 0.22078 0.62465 0.39584 0.0
C1112 C 0.16648 0.65065 0.40227 0.0
C1113 C 0.15522 0.68735 0.45357 0.0
C1114 C 0.16306 0.66851 0.43912 0.0
C1115 C 0.19727 0.6225 0.39536 0.0
C1116 C 0.18364 0.63666 0.41058 0.0
H1117 H 0.14806 0.699 0.50925 0.0
H1118 H 0.15204 0.66708 0.48385 0.0
H1119 H 0.1437 0.67777 0.40951 0.0
H1120 H 0.19304 0.57915 0.358 0.0
H1121 H 0.16923 0.60451 0.38049 0.0
C1122 C 0.36787 0.26879 0.98132 0.0
C1123 C 0.3595 0.26708 0.0034 0.0
C1124 C 0.36205 0.28714 0.96776 0.0
C1125 C 0.3326 0.34299 0.9687 0.0
H1126 H 0.31629 0.32632 0.90762 0.0
C1127 C 0.26408 0.38684 0.91586 0.0
C1128 C 0.26998 0.39323 0.89383 0.0
C1129 C 0.27887 0.374 0.92886 0.0
C1130 C 0.32107 0.33128 0.92454 0.0
H1131 H 0.33933 0.28371 0.02895 0.0
H1132 H 0.32847 0.31503 0.0052 0.0
H1133 H 0.33626 0.29945 0.93128 0.0
H1134 H 0.29588 0.39119 0.86809 0.0
H1135 H 0.32143 0.368 0.8907 0.0
H1136 H 0.31586 0.37431 0.96217 0.0
C1137 C 0.34002 0.30268 -0.00162 0.0
C1138 C 0.33266 0.31597 0.9381 0.0
C1139 C 0.34613 0.28457 0.01202 0.0
C1140 C 0.29092 0.38652 0.88504 0.0
C1141 C 0.30551 0.37329 0.8979 0.0
C1142 C 0.32063 0.35812 0.95525 0.0
C1143 C 0.34743 0.30393 0.97589 0.0
C1144 C 0.33813 0.32142 0.96054 0.0
C1145 C 0.2996 0.367 0.91991 0.0
C1146 C 0.31442 0.35218 0.93324 0.0
H1147 H 0.37844 0.25567 0.97432 0.0
H1148 H 0.36852 0.28781 0.9507 0.0
H1149 H 0.33699 0.34799 0.98569 0.0
H1150 H 0.24811 0.3919 0.9231 0.0
H1151 H 0.27389 0.36911 0.94575 0.0
C1152 C 0.52399 0.65496 0.75692 0.0
C1153 C 0.50149 0.66222 0.75891 0.0
C1154 C 0.53971 0.66008 0.77379 0.0
C1155 C 0.55318 0.70477 0.81006 0.0
H1156 H 0.58369 0.6649 0.85191 0.0
C1157 C 0.59659 0.74024 0.88769 0.0
C1158 C 0.61727 0.73111 0.89458 0.0
C1159 C 0.58379 0.72966 0.87113 0.0
C1160 C 0.5756 0.67621 0.8401 0.0
H1161 H 0.47767 0.67948 0.78073 0.0
H1162 H 0.5052 0.68872 0.80966 0.0
H1163 H 0.55914 0.64906 0.82255 0.0
H1164 H 0.64056 0.70337 0.88995 0.0
H1165 H 0.61834 0.68505 0.86037 0.0
H1166 H 0.56951 0.7319 0.82697 0.0
C1167 C 0.51054 0.679 0.79515 0.0
C1168 C 0.56156 0.66713 0.82341 0.0
C1169 C 0.49484 0.67369 0.77855 0.0
C1170 C 0.62465 0.71078 0.88494 0.0
C1171 C 0.6119 0.70028 0.86807 0.0
C1172 C 0.56735 0.71379 0.82641 0.0
C1173 C 0.53313 0.67267 0.79266 0.0
C1174 C 0.54991 0.68145 0.80867 0.0
C1175 C 0.59149 0.70983 0.86074 0.0
C1176 C 0.57824 0.6997 0.84205 0.0
H1177 H 0.52962 0.64601 0.74205 0.0
H1178 H 0.55715 0.65516 0.7716 0.0
H1179 H 0.54448 0.71605 0.79863 0.0
H1180 H 0.59024 0.75568 0.89506 0.0
H1181 H 0.56782 0.73713 0.86643 0.0
C1182 C 0.00326 0.83516 0.22957 0.0
C1183 C 0.98066 0.82907 0.23307 0.0
C1184 C 0.01517 0.82644 0.21128 0.0
C1185 C 0.01824 0.77626 0.17786 0.0
H1186 H 0.05537 0.81133 0.13708 0.0
C1187 C 0.07164 0.73373 0.10905 0.0
C1188 C 0.09313 0.74283 0.10516 0.0
C1189 C 0.05618 0.74521 0.12254 0.0
C1190 C 0.04527 0.80127 0.14849 0.0
H1191 H 0.95258 0.80964 0.21985 0.0
H1192 H 0.97364 0.79408 0.18817 0.0
H1193 H 0.03149 0.83055 0.16452 0.0
H1194 H 0.11545 0.77084 0.11246 0.0
H1195 H 0.08893 0.79034 0.13672 0.0
H1196 H 0.03269 0.74698 0.16288 0.0
C1197 C 0.98199 0.80571 0.19951 0.0
C1198 C 0.03154 0.8123 0.16405 0.0
C1199 C 0.96997 0.81469 0.21756 0.0
C1200 C 0.09892 0.76352 0.11504 0.0
C1201 C 0.08362 0.77479 0.1288 0.0
C1202 C 0.03222 0.76521 0.16259 0.0
C1203 C 0.00475 0.81125 0.19645 0.0
C1204 C 0.01808 0.79985 0.17893 0.0
C1205 C 0.06205 0.76581 0.13268 0.0
C1206 C 0.04609 0.77758 0.14787 0.0
H1207 H 0.01187 0.84628 0.24122 0.0
H1208 H 0.03279 0.8308 0.20927 0.0
H1209 H 0.00815 0.76633 0.18942 0.0
H1210 H 0.06667 0.71792 0.10143 0.0
H1211 H 0.03958 0.73798 0.12488 0.0
C1212 C 0.47173 0.14705 0.6781 0.0
C1213 C 0.46651 0.14226 0.70073 0.0
C1214 C 0.45462 0.15147 0.6626 0.0
C1215 C 0.41469 0.15825 0.63131 0.0
H1216 H 0.37617 0.20406 0.65746 0.0
C1217 C 0.35302 0.21489 0.57967 0.0
C1218 C 0.35563 0.23801 0.58425 0.0
C1219 C 0.36364 0.19876 0.59321 0.0
C1220 C 0.38666 0.19116 0.64996 0.0
H1221 H 0.43919 0.13594 0.72423 0.0
H1222 H 0.4093 0.14366 0.69707 0.0
H1223 H 0.39951 0.18094 0.68195 0.0
H1224 H 0.37155 0.26228 0.60652 0.0
H1225 H 0.38985 0.23421 0.63009 0.0
H1226 H 0.40254 0.1695 0.59916 0.0
C1227 C 0.42666 0.14434 0.69146 0.0
C1228 C 0.39983 0.1777 0.66398 0.0
C1229 C 0.44379 0.13984 0.70699 0.0
C1230 C 0.36918 0.24464 0.60249 0.0
C1231 C 0.37951 0.22857 0.61613 0.0
C1232 C 0.40134 0.17166 0.61725 0.0
C1233 C 0.43195 0.15121 0.6694 0.0
C1234 C 0.41459 0.16165 0.65478 0.0
C1235 C 0.37673 0.2055 0.61173 0.0
C1236 C 0.38787 0.18878 0.62646 0.0
H1237 H 0.48906 0.14878 0.67264 0.0
H1238 H 0.45929 0.1568 0.64577 0.0
H1239 H 0.42579 0.14589 0.62378 0.0
H1240 H 0.34272 0.20924 0.5657 0.0
H1241 H 0.3613 0.18106 0.58947 0.0
C1242 C 0.92652 0.2183 0.38479 0.0
C1243 C 0.90637 0.22991 0.38914 0.0
C1244 C 0.94165 0.22627 0.36865 0.0
C1245 C 0.96306 0.23762 0.32408 0.0
H1246 H 0.97206 0.30145 0.31341 0.0
C1247 C -0.00077 0.29747 0.24928 0.0
C1248 C 0.02066 0.28802 0.2458 0.0
C1249 C 0.9863 0.29115 0.26789 0.0
C1250 C 0.96961 0.28358 0.31621 0.0
H1251 H 0.88638 0.25913 0.38018 0.0
H1252 H 0.9124 0.27266 0.35144 0.0
H1253 H 0.94806 0.2892 0.34453 0.0
H1254 H 0.04535 0.26455 0.25911 0.0
H1255 H 0.0225 0.25325 0.29145 0.0
H1256 H 0.98492 0.2321 0.2959 0.0
C1257 C 0.91683 0.25769 0.36089 0.0
C1258 C 0.95582 0.27654 0.33394 0.0
C1259 C 0.90184 0.24988 0.37728 0.0
C1260 C 0.02891 0.27215 0.26134 0.0
C1261 C 0.01583 0.26561 0.27978 0.0
C1262 C 0.97707 0.24467 0.30655 0.0
C1263 C 0.93683 0.24586 0.35622 0.0
C1264 C 0.95222 0.25346 0.33798 0.0
C1265 C 0.99442 0.27505 0.2832 0.0
C1266 C 0.98031 0.26769 0.30236 0.0
H1267 H 0.93063 0.203 0.39386 0.0
H1268 H 0.95711 0.217 0.36588 0.0
H1269 H 0.96035 0.21973 0.32637 0.0
H1270 H 0.99245 0.3098 0.23765 0.0
H1271 H 0.96975 0.29852 0.27008 0.0
C1272 C 0.15523 0.07164 0.24902 0.0
C1273 C 0.15274 0.07498 0.27238 0.0
C1274 C 0.14458 0.08594 0.23369 0.0
C1275 C 0.10144 0.13017 0.22699 0.0
H1276 H 0.14602 0.15926 0.18893 0.0
C1277 C 0.11588 0.22327 0.19451 0.0
C1278 C 0.0963 0.22812 0.18219 0.0
C1279 C 0.12147 0.20107 0.19962 0.0
C1280 C 0.13331 0.151 0.19912 0.0
H1281 H 0.13564 0.09481 0.29789 0.0
H1282 H 0.11699 0.11974 0.27105 0.0
H1283 H 0.15611 0.12528 0.20981 0.0
H1284 H 0.06748 0.21372 0.16497 0.0
H1285 H 0.07693 0.1746 0.17472 0.0
H1286 H 0.07898 0.15663 0.21701 0.0
C1287 C 0.12723 0.10606 0.26466 0.0
C1288 C 0.13901 0.13154 0.21099 0.0
C1289 C 0.13805 0.09189 0.28002 0.0
C1290 C 0.08276 0.21034 0.17437 0.0
C1291 C 0.08807 0.18807 0.17999 0.0
C1292 C 0.09563 0.14947 0.21482 0.0
C1293 C 0.13104 0.10369 0.24139 0.0
C1294 C 0.12339 0.12143 0.22565 0.0
C1295 C 0.10732 0.18335 0.19291 0.0
C1296 C 0.11179 0.16047 0.20146 0.0
H1297 H 0.16629 0.05868 0.24251 0.0
H1298 H 0.14764 0.08368 0.21583 0.0
H1299 H 0.0891 0.1226 0.23812 0.0
H1300 H 0.1266 0.23671 0.20067 0.0
H1301 H 0.13628 0.19784 0.20979 0.0
C1302 C 0.37155 0.90004 0.78096 0.0
C1303 C 0.36361 0.89568 0.80289 0.0
C1304 C 0.38638 0.88517 0.77044 0.0
C1305 C 0.42383 0.83604 0.78028 0.0
H1306 H 0.4046 0.81859 0.72027 0.0
C1307 C 0.43708 0.74808 0.74429 0.0
C1308 C 0.44099 0.74512 0.72111 0.0
C1309 C 0.43352 0.76948 0.75316 0.0
C1310 C 0.4106 0.82359 0.73678 0.0
H1311 H 0.36595 0.87284 0.83136 0.0
H1312 H 0.39154 0.84668 0.81283 0.0
H1313 H 0.38738 0.851 0.73839 0.0
H1314 H 0.44525 0.76242 0.68919 0.0
H1315 H 0.43876 0.80009 0.70477 0.0
H1316 H 0.44634 0.80791 0.77897 0.0
C1317 C 0.3865 0.86175 0.80387 0.0
C1318 C 0.4007 0.84217 0.7472 0.0
C1319 C 0.37169 0.87667 0.81445 0.0
C1320 C 0.44218 0.76418 0.7071 0.0
C1321 C 0.43842 0.78569 0.716 0.0
C1322 C 0.43372 0.81744 0.76984 0.0
C1323 C 0.39359 0.86558 0.78156 0.0
C1324 C 0.40669 0.84817 0.76934 0.0
C1325 C 0.43369 0.78848 0.73907 0.0
C1326 C 0.42666 0.81058 0.74828 0.0
H1327 H 0.3659 0.91469 0.77166 0.0
H1328 H 0.39183 0.88876 0.75338 0.0
H1329 H 0.4291 0.84052 0.79718 0.0
H1330 H 0.43627 0.73377 0.75561 0.0
H1331 H 0.42961 0.77099 0.77093 0.0
C1332 C 0.61861 0.36334 0.6404 0.0
C1333 C 0.62168 0.38257 0.6538 0.0
C1334 C 0.6024 0.34723 0.64637 0.0
C1335 C 0.57334 0.32738 0.69737 0.0
H1336 H 0.53923 0.29024 0.65587 0.0
C1337 C 0.5214 0.25385 0.73088 0.0
C1338 C 0.52614 0.23337 0.72001 0.0
C1339 C 0.52729 0.27428 0.72073 0.0
C1340 C 0.54861 0.30055 0.66765 0.0
H1341 H 0.60897 0.40112 0.68264 0.0
H1342 H 0.5805 0.37354 0.69259 0.0
H1343 H 0.56123 0.32203 0.64142 0.0
H1344 H 0.53885 0.21838 0.68913 0.0
H1345 H 0.54941 0.25382 0.67176 0.0
H1346 H 0.56151 0.3057 0.72347 0.0
C1347 C 0.59104 0.37034 0.67804 0.0
C1348 C 0.56126 0.31867 0.65937 0.0
C1349 C 0.60736 0.38616 0.67231 0.0
C1350 C 0.53523 0.23384 0.69811 0.0
C1351 C 0.5411 0.25421 0.68801 0.0
C1352 C 0.56074 0.30939 0.7056 0.0
C1353 C 0.58887 0.35032 0.66565 0.0
C1354 C 0.574 0.33208 0.67414 0.0
C1355 C 0.53798 0.2746 0.69955 0.0
C1356 C 0.54852 0.29553 0.69084 0.0
H1357 H 0.62939 0.36028 0.62599 0.0
H1358 H 0.60119 0.33192 0.63653 0.0
H1359 H 0.58333 0.33705 0.7092 0.0
H1360 H 0.51422 0.25409 0.74766 0.0
H1361 H 0.52432 0.28979 0.72987 0.0
C1362 C 0.90697 0.61367 0.18026 0.0
C1363 C 0.88664 0.61597 0.16844 0.0
C1364 C 0.91835 0.63267 0.18808 0.0
C1365 C 0.9163 0.69555 0.19097 0.0
H1366 H 0.92518 0.68434 0.25484 0.0
C1367 C 0.90509 0.76452 0.25717 0.0
C1368 C 0.92091 0.76617 0.27475 0.0
C1369 C 0.90536 0.74621 0.24251 0.0
C1370 C 0.92321 0.68774 0.237 0.0
H1371 H 0.86339 0.63958 0.15334 0.0
H1372 H 0.88287 0.67289 0.16738 0.0
H1373 H 0.92031 0.65282 0.22927 0.0
H1374 H 0.94888 0.74935 0.29121 0.0
H1375 H 0.94907 0.71701 0.26567 0.0
H1376 H 0.91812 0.73064 0.19912 0.0
C1377 C 0.89039 0.65655 0.17037 0.0
C1378 C 0.92054 0.66966 0.22224 0.0
C1379 C 0.87922 0.63748 0.16221 0.0
C1380 C 0.93639 0.74853 0.27793 0.0
C1381 C 0.93659 0.73009 0.26324 0.0
C1382 C 0.9189 0.71366 0.20578 0.0
C1383 C 0.90923 0.65424 0.18465 0.0
C1384 C 0.91643 0.67334 0.19914 0.0
C1385 C 0.92138 0.72903 0.24509 0.0
C1386 C 0.92169 0.70992 0.22904 0.0
H1387 H 0.91295 0.59714 0.18523 0.0
H1388 H 0.93317 0.63035 0.19847 0.0
H1389 H 0.91347 0.69896 0.17326 0.0
H1390 H 0.89283 0.77771 0.25428 0.0
H1391 H 0.89302 0.74555 0.22906 0.0
C1392 C 0.27537 0.06082 0.25021 0.0
C1393 C 0.25806 0.04465 0.25059 0.0
C1394 C 0.28676 0.06578 0.2303 0.0
C1395 C 0.2793 0.06396 0.16883 0.0
H1396 H 0.34049 0.08682 0.17058 0.0
C1397 C 0.31151 0.12802 0.10419 0.0
C1398 C 0.33455 0.12914 0.09887 0.0
C1399 C 0.30365 0.11285 0.12036 0.0
C1400 C 0.32356 0.08011 0.1695 0.0
H1401 H 0.23985 0.02025 0.23038 0.0
H1402 H 0.26015 0.02868 0.19544 0.0
H1403 H 0.32521 0.0675 0.20319 0.0
H1404 H 0.3673 0.11448 0.10565 0.0
H1405 H 0.3535 0.08745 0.13342 0.0
H1406 H 0.27778 0.07624 0.13498 0.0
C1407 C 0.26458 0.0378 0.21061 0.0
C1408 C 0.31465 0.06928 0.18841 0.0
C1409 C 0.25303 0.03287 0.23065 0.0
C1410 C 0.34948 0.1142 0.10957 0.0
C1411 C 0.34155 0.09876 0.12555 0.0
C1412 C 0.28833 0.0745 0.14977 0.0
C1413 C 0.28137 0.05459 0.21015 0.0
C1414 C 0.29211 0.06192 0.18866 0.0
C1415 C 0.31856 0.09813 0.13144 0.0
C1416 C 0.31028 0.08352 0.15016 0.0
H1417 H 0.27979 0.07025 0.2652 0.0
H1418 H 0.29921 0.07912 0.23062 0.0
H1419 H 0.26189 0.05853 0.16836 0.0
H1420 H 0.29954 0.13936 0.09636 0.0
H1421 H 0.28594 0.11331 0.12471 0.0
C1422 C 0.27592 0.92729 0.7353 0.0
C1423 C 0.26351 0.926 0.75544 0.0
C1424 C 0.26635 0.92002 0.71497 0.0
C1425 C 0.22177 0.88162 0.69518 0.0
H1426 H 0.2313 0.90973 0.63692 0.0
C1427 C 0.17441 0.85113 0.61707 0.0
C1428 C 0.18756 0.84712 0.59778 0.0
C1429 C 0.18328 0.86312 0.63523 0.0
C1430 C 0.22862 0.90168 0.6531 0.0
H1431 H 0.23092 0.91776 0.76986 0.0
H1432 H 0.21418 0.90574 0.73456 0.0
H1433 H 0.24775 0.92675 0.67078 0.0
H1434 H 0.22 0.85348 0.58206 0.0
H1435 H 0.23547 0.87435 0.61394 0.0
H1436 H 0.20274 0.8566 0.6777 0.0
C1437 C 0.23149 0.91155 0.73446 0.0
C1438 C 0.23805 0.91137 0.67243 0.0
C1439 C 0.24107 0.91854 0.75469 0.0
C1440 C 0.20945 0.85618 0.59671 0.0
C1441 C 0.21829 0.86825 0.6149 0.0
C1442 C 0.2123 0.87206 0.67597 0.0
C1443 C 0.2442 0.91155 0.71449 0.0
C1444 C 0.23458 0.9015 0.69371 0.0
C1445 C 0.20544 0.87142 0.63452 0.0
C1446 C 0.2155 0.88202 0.65475 0.0
H1447 H 0.29326 0.93299 0.73542 0.0
H1448 H 0.27659 0.92017 0.69986 0.0
H1449 H 0.21927 0.87323 0.7112 0.0
H1450 H 0.15743 0.84457 0.61841 0.0
H1451 H 0.17287 0.86562 0.65003 0.0
C1452 C 0.74217 0.40995 0.71933 0.0
C1453 C 0.72104 0.42062 0.71898 0.0
C1454 C 0.75381 0.40716 0.73957 0.0
C1455 C 0.74495 0.40636 0.80113 0.0
H1456 H 0.81021 0.41054 0.8031 0.0
C1457 C 0.78897 0.39278 0.88386 0.0
C1458 C 0.8043 0.37481 0.88305 0.0
C1459 C 0.78276 0.40391 0.86416 0.0
C1460 C 0.79199 0.40944 0.80275 0.0
H1461 H 0.69558 0.43685 0.73954 0.0
H1462 H 0.71607 0.43242 0.77481 0.0
H1463 H 0.79028 0.41827 0.76779 0.0
H1464 H 0.82706 0.35594 0.86171 0.0
H1465 H 0.81592 0.37526 0.82698 0.0
H1466 H 0.74657 0.39737 0.83589 0.0
C1467 C 0.72347 0.42577 0.75952 0.0
C1468 C 0.78057 0.41369 0.78256 0.0
C1469 C 0.71171 0.42832 0.73931 0.0
C1470 C 0.81527 0.36983 0.8627 0.0
C1471 C 0.80886 0.38086 0.84286 0.0
C1472 C 0.7563 0.40236 0.82126 0.0
C1473 C 0.74468 0.41517 0.7599 0.0
C1474 C 0.75692 0.41193 0.78148 0.0
C1475 C 0.79155 0.39704 0.84331 0.0
C1476 C 0.77993 0.40367 0.82227 0.0
H1477 H 0.74977 0.40375 0.70393 0.0
H1478 H 0.76986 0.39849 0.7393 0.0
H1479 H 0.72682 0.40436 0.80085 0.0
H1480 H 0.78047 0.39704 0.89946 0.0
H1481 H 0.76976 0.41669 0.86502 0.0
C1482 C 0.77945 0.5903 0.25813 0.0
C1483 C 0.80276 0.58755 0.2548 0.0
C1484 C 0.77086 0.5946 0.27947 0.0
C1485 C 0.78235 0.61987 0.33295 0.0
H1486 H 0.72948 0.58588 0.3512 0.0
C1487 C 0.72777 0.64766 0.40813 0.0
C1488 C 0.70467 0.64917 0.40295 0.0
C1489 C 0.74244 0.63586 0.39404 0.0
C1490 C 0.74427 0.59547 0.3464 0.0
H1491 H 0.83538 0.58789 0.27132 0.0
H1492 H 0.8201 0.59617 0.30898 0.0
H1493 H 0.75133 0.57369 0.31857 0.0
H1494 H 0.67872 0.63842 0.37954 0.0
H1495 H 0.70429 0.61807 0.35488 0.0
H1496 H 0.77455 0.64244 0.35994 0.0
C1497 C 0.80867 0.59456 0.29484 0.0
C1498 C 0.7568 0.58845 0.32783 0.0
C1499 C 0.81736 0.58991 0.27335 0.0
C1500 C 0.6964 0.63765 0.38401 0.0
C1501 C 0.71106 0.62584 0.36994 0.0
C1502 C 0.76973 0.62698 0.35153 0.0
C1503 C 0.78529 0.59649 0.29806 0.0
C1504 C 0.7754 0.60109 0.32042 0.0
C1505 C 0.73432 0.62525 0.37453 0.0
C1506 C 0.75005 0.61533 0.35787 0.0
H1507 H 0.76763 0.58867 0.24432 0.0
H1508 H 0.7528 0.59653 0.28142 0.0
H1509 H 0.79657 0.62993 0.32747 0.0
H1510 H 0.7347 0.65619 0.42271 0.0
H1511 H 0.76022 0.63547 0.39814 0.0
C1512 C 0.28104 0.24903 0.07458 0.0
C1513 C 0.28247 0.2299 0.06067 0.0
C1514 C 0.26126 0.2616 0.07561 0.0
C1515 C 0.20052 0.257 0.06724 0.0
H1516 H 0.20273 0.32203 0.07362 0.0
C1517 C 0.12111 0.30349 0.09144 0.0
C1518 C 0.12396 0.31688 0.11074 0.0
C1519 C 0.13967 0.29729 0.07845 0.0
C1520 C 0.20183 0.3039 0.07177 0.0
H1521 H 0.26413 0.20903 0.0369 0.0
H1522 H 0.22939 0.23105 0.03883 0.0
H1523 H 0.23707 0.30125 0.06447 0.0
H1524 H 0.1479 0.33626 0.1303 0.0
H1525 H 0.18049 0.32504 0.10794 0.0
H1526 H 0.16564 0.25936 0.07544 0.0
C1527 C 0.24367 0.2362 0.04897 0.0
C1528 C 0.22147 0.292 0.06659 0.0
C1529 C 0.26354 0.22357 0.04791 0.0
C1530 C 0.14527 0.32595 0.11546 0.0
C1531 C 0.16394 0.3195 0.10261 0.0
C1532 C 0.18092 0.26886 0.0724 0.0
C1533 C 0.24238 0.25541 0.06278 0.0
C1534 C 0.22113 0.26836 0.06493 0.0
C1535 C 0.16146 0.30409 0.08474 0.0
C1536 C 0.18145 0.29239 0.07533 0.0
H1537 H 0.29525 0.25442 0.08468 0.0
H1538 H 0.26066 0.276 0.08681 0.0
H1539 H 0.19972 0.2388 0.06632 0.0
H1540 H 0.10475 0.29653 0.08728 0.0
H1541 H 0.13713 0.28592 0.0644 0.0
C1542 C 0.70783 0.30102 0.89709 0.0
C1543 C 0.72722 0.28768 0.89981 0.0
C1544 C 0.68921 0.29272 0.88515 0.0
C1545 C 0.67393 0.24923 0.8433 0.0
H1546 H 0.61381 0.25331 0.86859 0.0
C1547 C 0.60293 0.19022 0.81551 0.0
C1548 C 0.58176 0.19984 0.81112 0.0
C1549 C 0.61989 0.20291 0.82572 0.0
C1550 C 0.63047 0.2523 0.8612 0.0
H1551 H 0.74217 0.25515 0.89209 0.0
H1552 H 0.70997 0.24086 0.87168 0.0
H1553 H 0.64509 0.27294 0.88701 0.0
H1554 H 0.56161 0.23018 0.81458 0.0
H1555 H 0.59131 0.25225 0.83255 0.0
H1556 H 0.65954 0.22819 0.81785 0.0
C1557 C 0.70916 0.25779 0.87842 0.0
C1558 C 0.64833 0.26358 0.87168 0.0
C1559 C 0.7276 0.26598 0.89032 0.0
C1560 C 0.57777 0.22227 0.81766 0.0
C1561 C 0.59471 0.23491 0.82803 0.0
C1562 C 0.65616 0.23794 0.83292 0.0
C1563 C 0.6898 0.27104 0.87562 0.0
C1564 C 0.67032 0.26169 0.86311 0.0
C1565 C 0.61602 0.22543 0.83188 0.0
C1566 C 0.63436 0.23894 0.84203 0.0
H1567 H 0.70701 0.3178 0.90421 0.0
H1568 H 0.67448 0.3033 0.88319 0.0
H1569 H 0.69062 0.24787 0.83603 0.0
H1570 H 0.60657 0.173 0.81074 0.0
H1571 H 0.63607 0.19507 0.82882 0.0
C1572 C 0.75177 0.74348 0.44811 0.0
C1573 C 0.73075 0.75394 0.44544 0.0
C1574 C 0.77163 0.75572 0.44475 0.0
C1575 C 0.79057 0.80592 0.41347 0.0
H1576 H 0.84834 0.7912 0.44018 0.0
C1577 C 0.87187 0.84506 0.37945 0.0
C1578 C 0.88797 0.82886 0.37323 0.0
C1579 C 0.85402 0.83926 0.39368 0.0
C1580 C 0.83227 0.79556 0.4327 0.0
H1581 H 0.71386 0.7857 0.43926 0.0
H1582 H 0.74841 0.80727 0.43435 0.0
H1583 H 0.81388 0.77501 0.45599 0.0
H1584 H 0.8989 0.79435 0.37842 0.0
H1585 H 0.86775 0.78428 0.40315 0.0
H1586 H 0.80891 0.82604 0.38993 0.0
C1587 C 0.74969 0.78946 0.43808 0.0
C1588 C 0.81256 0.78623 0.44165 0.0
C1589 C 0.72989 0.77714 0.441 0.0
C1590 C 0.88666 0.80718 0.3827 0.0
C1591 C 0.86892 0.80145 0.39705 0.0
C1592 C 0.81019 0.81538 0.4047 0.0
C1593 C 0.77079 0.77874 0.43903 0.0
C1594 C 0.79151 0.79086 0.43178 0.0
C1595 C 0.85206 0.81723 0.40212 0.0
C1596 C 0.83128 0.80988 0.41385 0.0
H1597 H 0.75287 0.72558 0.4515 0.0
H1598 H 0.78753 0.74682 0.44543 0.0
H1599 H 0.77479 0.80956 0.40507 0.0
H1600 H 0.87246 0.86195 0.37256 0.0
H1601 H 0.84134 0.85181 0.3975 0.0
C1602 C 0.39726 0.70907 0.61717 0.0
C1603 C 0.39384 0.6879 0.62728 0.0
C1604 C 0.3816 0.71772 0.60192 0.0
C1605 C 0.33236 0.70301 0.56645 0.0
H1606 H 0.31379 0.76424 0.5796 0.0
C1607 C 0.24438 0.73699 0.54695 0.0
C1608 C 0.24142 0.75992 0.54184 0.0
C1609 C 0.26572 0.72846 0.55168 0.0
C1610 C 0.31908 0.74733 0.57527 0.0
H1611 H 0.37174 0.6588 0.62853 0.0
H1612 H 0.34419 0.67408 0.60212 0.0
H1613 H 0.34627 0.74842 0.59883 0.0
H1614 H 0.25879 0.7916 0.53629 0.0
H1615 H 0.29626 0.77661 0.54452 0.0
H1616 H 0.30461 0.70174 0.54343 0.0
C1617 C 0.35915 0.68387 0.60583 0.0
C1618 C 0.33769 0.73822 0.58635 0.0
C1619 C 0.37485 0.67517 0.62109 0.0
C1620 C 0.26049 0.77389 0.54031 0.0
C1621 C 0.28192 0.76533 0.54512 0.0
C1622 C 0.31374 0.71215 0.55531 0.0
C1623 C 0.36214 0.70543 0.59645 0.0
C1624 C 0.34419 0.71579 0.5825 0.0
C1625 C 0.28466 0.74265 0.55142 0.0
C1626 C 0.30654 0.73421 0.56008 0.0
H1627 H 0.41184 0.71923 0.62133 0.0
H1628 H 0.38455 0.73423 0.59471 0.0
H1629 H 0.33721 0.6858 0.56287 0.0
H1630 H 0.23008 0.72569 0.54808 0.0
H1631 H 0.26716 0.71098 0.55671 0.0
C1632 C 0.84361 0.85563 0.65171 0.0
C1633 C 0.83978 0.87328 0.66702 0.0
C1634 C 0.85724 0.83735 0.6578 0.0
C1635 C 0.89984 0.81882 0.6999 0.0
H1636 H 0.87516 0.75939 0.68881 0.0
C1637 C 0.9264 0.73973 0.75025 0.0
C1638 C 0.92776 0.7192 0.73856 0.0
C1639 C 0.91849 0.7591 0.73937 0.0
C1640 C 0.88251 0.77584 0.69174 0.0
H1641 H 0.84804 0.88597 0.70038 0.0
H1642 H 0.87141 0.85427 0.71092 0.0
H1643 H 0.85669 0.79227 0.67271 0.0
H1644 H 0.92283 0.70319 0.70598 0.0
H1645 H 0.9093 0.73688 0.68715 0.0
H1646 H 0.92534 0.80235 0.71943 0.0
C1647 C 0.86411 0.85451 0.69418 0.0
C1648 C 0.87194 0.79468 0.68246 0.0
C1649 C 0.85048 0.87263 0.68817 0.0
C1650 C 0.92176 0.71865 0.71561 0.0
C1651 C 0.91391 0.73795 0.70479 0.0
C1652 C 0.9104 0.79996 0.70921 0.0
C1653 C 0.86742 0.83651 0.67923 0.0
C1654 C 0.88024 0.81641 0.68676 0.0
C1655 C 0.91182 0.75831 0.71661 0.0
C1656 C 0.90165 0.77828 0.70552 0.0
H1657 H 0.83567 0.85565 0.63527 0.0
H1658 H 0.85965 0.82379 0.64585 0.0
H1659 H 0.90684 0.83533 0.70325 0.0
H1660 H 0.93089 0.74073 0.76792 0.0
H1661 H 0.91688 0.77451 0.749 0.0
C1662 C 0.63014 0.1361 0.14716 0.0
C1663 C 0.62504 0.11652 0.15932 0.0
C1664 C 0.62057 0.15667 0.15356 0.0
C1665 C 0.58078 0.18349 0.19457 0.0
H1666 H 0.63132 0.2236 0.20498 0.0
C1667 C 0.58147 0.24886 0.26643 0.0
C1668 C 0.58943 0.27047 0.261 0.0
C1669 C 0.58394 0.23112 0.2511 0.0
C1670 C 0.61693 0.21278 0.20197 0.0
H1671 H 0.60444 0.10219 0.18576 0.0
H1672 H 0.58761 0.13774 0.19683 0.0
H1673 H 0.63573 0.19175 0.17972 0.0
H1674 H 0.60712 0.2902 0.23571 0.0
H1675 H 0.6115 0.25935 0.20922 0.0
H1676 H 0.56232 0.20419 0.21767 0.0
C1677 C 0.59877 0.13759 0.18237 0.0
C1678 C 0.61938 0.19461 0.18729 0.0
C1679 C 0.60838 0.11716 0.17606 0.0
C1680 C 0.60075 0.27375 0.24041 0.0
C1681 C 0.60329 0.25607 0.22521 0.0
C1682 C 0.57836 0.20166 0.20933 0.0
C1683 C 0.60587 0.15775 0.17219 0.0
C1684 C 0.60151 0.17943 0.18383 0.0
C1685 C 0.59456 0.23467 0.23019 0.0
C1686 C 0.59659 0.21618 0.21356 0.0
H1687 H 0.64317 0.13594 0.13437 0.0
H1688 H 0.62606 0.17191 0.14515 0.0
H1689 H 0.56665 0.17221 0.1921 0.0
H1690 H 0.57259 0.24583 0.2821 0.0
H1691 H 0.5774 0.21467 0.25554 0.0
C1692 C 0.40373 0.74516 0.22063 0.0
C1693 C 0.40682 0.76424 0.23429 0.0
C1694 C 0.39518 0.72518 0.22984 0.0
C1695 C 0.3867 0.69578 0.28444 0.0
H1696 H 0.34223 0.66158 0.25099 0.0
C1697 C 0.3332 0.62349 0.32339 0.0
C1698 C 0.3296 0.60453 0.30967 0.0
C1699 C 0.34398 0.64261 0.31467 0.0
C1700 C 0.35482 0.67082 0.26045 0.0
H1701 H 0.40315 0.77729 0.26833 0.0
H1702 H 0.38801 0.7428 0.28411 0.0
H1703 H 0.35844 0.69542 0.23435 0.0
H1704 H 0.33551 0.59043 0.27637 0.0
H1705 H 0.3543 0.6235 0.26144 0.0
H1706 H 0.38281 0.67123 0.31067 0.0
C1707 C 0.39257 0.74304 0.26643 0.0
C1708 C 0.36415 0.69018 0.25088 0.0
C1709 C 0.40112 0.76291 0.25728 0.0
C1710 C 0.33772 0.60481 0.28738 0.0
C1711 C 0.34841 0.62383 0.27873 0.0
C1712 C 0.3773 0.67643 0.29405 0.0
C1713 C 0.38953 0.72392 0.25287 0.0
C1714 C 0.38016 0.70292 0.26277 0.0
C1715 C 0.3513 0.64309 0.2921 0.0
C1716 C 0.36128 0.66373 0.28214 0.0
H1717 H 0.40801 0.74559 0.20289 0.0
H1718 H 0.39323 0.71065 0.21898 0.0
H1719 H 0.39924 0.70504 0.29392 0.0
H1720 H 0.32714 0.62381 0.34061 0.0
H1721 H 0.34592 0.65727 0.32536 0.0
C1722 C 0.0678 0.22831 0.79135 0.0
C1723 C 0.0603 0.22946 0.76888 0.0
C1724 C 0.07736 0.24708 0.80178 0.0
C1725 C 0.08436 0.30894 0.797 0.0
H1726 H 0.13937 0.29795 0.8306 0.0
C1727 C 0.14988 0.37773 0.81398 0.0
C1728 C 0.16076 0.37849 0.83504 0.0
C1729 C 0.13532 0.36013 0.80862 0.0
C1730 C 0.12382 0.30127 0.82164 0.0
H1731 H 0.05626 0.25149 0.74 0.0
H1732 H 0.07329 0.28425 0.75812 0.0
H1733 H 0.11789 0.26624 0.81584 0.0
H1734 H 0.16457 0.3614 0.86713 0.0
H1735 H 0.13906 0.33031 0.85761 0.0
H1736 H 0.09072 0.34403 0.80228 0.0
C1737 C 0.07152 0.26886 0.76776 0.0
C1738 C 0.11149 0.28311 0.81315 0.0
C1739 C 0.06184 0.25006 0.75733 0.0
C1740 C 0.15648 0.36128 0.85077 0.0
C1741 C 0.14196 0.34348 0.84529 0.0
C1742 C 0.09672 0.3271 0.80545 0.0
C1743 C 0.07974 0.26745 0.78999 0.0
C1744 C 0.09181 0.28674 0.80042 0.0
C1745 C 0.13128 0.34273 0.82412 0.0
C1746 C 0.1168 0.32347 0.8175 0.0
H1747 H 0.06662 0.21278 0.80087 0.0
H1748 H 0.0831 0.24554 0.81905 0.0
H1749 H 0.06906 0.31229 0.78763 0.0
H1750 H 0.15266 0.39072 0.80145 0.0
H1751 H 0.12766 0.35988 0.79205 0.0
C1752 C 0.66475 0.83766 0.87195 0.0
C1753 C 0.67825 0.83594 0.89133 0.0
C1754 C 0.67211 0.85034 0.85344 0.0
C1755 C 0.72539 0.86918 0.82827 0.0
H1756 H 0.68728 0.90422 0.78846 0.0
C1757 C 0.7617 0.91539 0.75106 0.0
C1758 C 0.74939 0.91323 0.73095 0.0
C1759 C 0.7523 0.90862 0.77159 0.0
C1760 C 0.6981 0.89439 0.79939 0.0
H1761 H 0.70899 0.84765 0.90732 0.0
H1762 H 0.7215 0.87001 0.87539 0.0
H1763 H 0.67137 0.88802 0.82289 0.0
H1764 H 0.71736 0.90258 0.71672 0.0
H1765 H 0.70123 0.8905 0.75236 0.0
H1766 H 0.75197 0.87506 0.80472 0.0
C1767 C 0.70564 0.86106 0.87412 0.0
C1768 C 0.68898 0.88513 0.81907 0.0
C1769 C 0.69841 0.84831 0.89245 0.0
C1770 C 0.72736 0.90449 0.73188 0.0
C1771 C 0.718 0.89772 0.75236 0.0
C1772 C 0.73446 0.87839 0.80866 0.0
C1773 C 0.69299 0.8616 0.85414 0.0
C1774 C 0.70253 0.87235 0.83367 0.0
C1775 C 0.73041 0.89954 0.77242 0.0
C1776 C 0.72091 0.89097 0.79391 0.0
H1777 H 0.64914 0.82828 0.87064 0.0
H1778 H 0.66202 0.85039 0.83823 0.0
H1779 H 0.73618 0.85901 0.83891 0.0
H1780 H 0.77865 0.92219 0.75097 0.0
H1781 H 0.76219 0.91048 0.78682 0.0
C1782 C 0.71901 0.08993 0.25289 0.0
C1783 C 0.72778 0.08897 0.23091 0.0
C1784 C 0.73312 0.09481 0.27116 0.0
C1785 C 0.78741 0.12071 0.28648 0.0
H1786 H 0.78187 0.08385 0.34018 0.0
C1787 C 0.84261 0.13759 0.36476 0.0
C1788 C 0.83001 0.13919 0.38473 0.0
C1789 C 0.83304 0.12785 0.34545 0.0
C1790 C 0.78362 0.09432 0.32533 0.0
H1791 H 0.75808 0.09329 0.21081 0.0
H1792 H 0.78249 0.102 0.2426 0.0
H1793 H 0.75811 0.07599 0.30756 0.0
H1794 H 0.79841 0.13029 0.40078 0.0
H1795 H 0.78187 0.11345 0.3675 0.0
H1796 H 0.8124 0.13951 0.30446 0.0
C1797 C 0.76478 0.09889 0.24574 0.0
C1798 C 0.76993 0.08988 0.30669 0.0
C1799 C 0.75076 0.09383 0.22753 0.0
C1800 C 0.80848 0.12939 0.38556 0.0
C1801 C 0.79903 0.11959 0.36646 0.0
C1802 C 0.80102 0.12526 0.30519 0.0
C1803 C 0.75621 0.09906 0.26778 0.0
C1804 C 0.7714 0.10327 0.28722 0.0
C1805 C 0.81085 0.11937 0.34595 0.0
C1806 C 0.79898 0.11239 0.325 0.0
H1807 H 0.70142 0.08623 0.25607 0.0
H1808 H 0.72598 0.09515 0.28796 0.0
H1809 H 0.78888 0.13137 0.27173 0.0
H1810 H 0.85921 0.14511 0.36366 0.0
H1811 H 0.84268 0.12767 0.32995 0.0
C1812 C 0.15124 0.63398 0.1257 0.0
C1813 C 0.1644 0.63886 0.10664 0.0
C1814 C 0.15917 0.61886 0.14204 0.0
C1815 C 0.21329 0.59842 0.16344 0.0
H1816 H 0.17737 0.55634 0.19818 0.0
C1817 C 0.25345 0.54766 0.23493 0.0
C1818 C 0.24132 0.54764 0.25527 0.0
C1819 C 0.24308 0.55441 0.21488 0.0
C1820 C 0.18759 0.56807 0.18863 0.0
H1821 H 0.19507 0.6303 0.08864 0.0
H1822 H 0.20856 0.60383 0.11674 0.0
H1823 H 0.16021 0.57662 0.16659 0.0
H1824 H 0.20839 0.55345 0.27021 0.0
H1825 H 0.1906 0.56564 0.23549 0.0
H1826 H 0.24042 0.59064 0.18568 0.0
C1827 C 0.19254 0.61211 0.11953 0.0
C1828 C 0.17776 0.57967 0.1706 0.0
C1829 C 0.18478 0.62726 0.10343 0.0
C1830 C 0.21832 0.55338 0.25489 0.0
C1831 C 0.20801 0.56021 0.2349 0.0
C1832 C 0.22306 0.58694 0.18142 0.0
C1833 C 0.18025 0.60833 0.13938 0.0
C1834 C 0.19051 0.59506 0.15791 0.0
C1835 C 0.22041 0.56136 0.21477 0.0
C1836 C 0.21032 0.57177 0.19437 0.0
H1837 H 0.13544 0.64265 0.12854 0.0
H1838 H 0.14935 0.61629 0.15721 0.0
H1839 H 0.22346 0.61053 0.1543 0.0
H1840 H 0.27112 0.54312 0.23458 0.0
H1841 H 0.25298 0.55472 0.19954 0.0
C1842 C 0.24179 0.42963 0.75088 0.0
C1843 C 0.25148 0.42299 0.77142 0.0
C1844 C 0.25221 0.42417 0.73048 0.0
C1845 C 0.30627 0.40348 0.70584 0.0
H1846 H 0.26709 0.38458 0.65713 0.0
C1847 C 0.33149 0.34881 0.62818 0.0
C1848 C 0.32026 0.35382 0.60799 0.0
C1849 C 0.32691 0.36142 0.64763 0.0
C1850 C 0.27828 0.39016 0.67044 0.0
H1851 H 0.27969 0.4054 0.78668 0.0
H1852 H 0.29734 0.3952 0.7512 0.0
H1853 H 0.25068 0.39794 0.69205 0.0
H1854 H 0.2976 0.37707 0.59134 0.0
H1855 H 0.29008 0.39933 0.62497 0.0
H1856 H 0.33389 0.39459 0.68418 0.0
C1857 C 0.28208 0.40517 0.75076 0.0
C1858 C 0.26886 0.39788 0.69048 0.0
C1859 C 0.27182 0.41086 0.77113 0.0
C1860 C 0.3063 0.37284 0.60685 0.0
C1861 C 0.3019 0.38547 0.62608 0.0
C1862 C 0.31573 0.39548 0.68576 0.0
C1863 C 0.27238 0.41169 0.73017 0.0
C1864 C 0.28269 0.40457 0.70848 0.0
C1865 C 0.31117 0.37914 0.64689 0.0
C1866 C 0.30178 0.38876 0.66789 0.0
H1867 H 0.22627 0.43922 0.75056 0.0
H1868 H 0.24445 0.4298 0.71494 0.0
H1869 H 0.31743 0.40876 0.71927 0.0
H1870 H 0.3422 0.33409 0.6294 0.0
H1871 H 0.33427 0.3562 0.66351 0.0
C1872 C 0.88952 0.6855 0.84559 0.0
C1873 C 0.88988 0.66333 0.83722 0.0
C1874 C 0.87206 0.69276 0.85951 0.0
C1875 C 0.81287 0.68112 0.87165 0.0
H1876 H 0.82228 0.72321 0.92079 0.0
C1877 C 0.73868 0.71598 0.92298 0.0
C1878 C 0.73874 0.73928 0.92732 0.0
C1879 C 0.75786 0.7053 0.91468 0.0
C1880 C 0.81939 0.71158 0.90702 0.0
H1881 H 0.87256 0.63116 0.83765 0.0
H1882 H 0.84193 0.64391 0.86212 0.0
H1883 H 0.85471 0.7062 0.90204 0.0
H1884 H 0.7593 0.76949 0.92689 0.0
H1885 H 0.79284 0.75082 0.91202 0.0
H1886 H 0.77762 0.68683 0.87623 0.0
C1887 C 0.85515 0.65568 0.85765 0.0
C1888 C 0.83794 0.70179 0.89633 0.0
C1889 C 0.87274 0.64835 0.84375 0.0
C1890 C 0.75869 0.75154 0.92372 0.0
C1891 C 0.77793 0.74081 0.91532 0.0
C1892 C 0.79434 0.6909 0.88232 0.0
C1893 C 0.85448 0.67807 0.86541 0.0
C1894 C 0.83488 0.68668 0.87832 0.0
C1895 C 0.7776 0.71762 0.91041 0.0
C1896 C 0.79738 0.70644 0.89995 0.0
H1897 H 0.90251 0.69749 0.84103 0.0
H1898 H 0.87193 0.71017 0.86494 0.0
H1899 H 0.80994 0.66986 0.85759 0.0
H1900 H 0.7237 0.70593 0.9258 0.0
H1901 H 0.75718 0.68735 0.91148 0.0
C1902 C 0.21612 0.75854 0.10084 0.0
C1903 C 0.21894 0.74159 0.08453 0.0
C1904 C 0.23434 0.77162 0.10781 0.0
C1905 C 0.29647 0.77299 0.10901 0.0
H1906 H 0.28738 0.83668 0.12068 0.0
C1907 C 0.37092 0.8278 0.13243 0.0
C1908 C 0.36833 0.8397 0.1527 0.0
C1909 C 0.35219 0.81948 0.12105 0.0
C1910 C 0.29011 0.81893 0.1175 0.0
H1911 H 0.24321 0.72487 0.06297 0.0
H1912 H 0.2751 0.74796 0.07494 0.0
H1913 H 0.25594 0.81366 0.10724 0.0
H1914 H 0.34426 0.85397 0.17606 0.0
H1915 H 0.31116 0.83918 0.15613 0.0
H1916 H 0.33054 0.77817 0.11932 0.0
C1917 C 0.25879 0.75092 0.08256 0.0
C1918 C 0.27213 0.8057 0.10991 0.0
C1919 C 0.24053 0.73768 0.07569 0.0
C1920 C 0.3466 0.84499 0.16034 0.0
C1921 C 0.32772 0.83645 0.14898 0.0
C1922 C 0.31441 0.78621 0.11642 0.0
C1923 C 0.25584 0.76821 0.09855 0.0
C1924 C 0.27508 0.78252 0.10575 0.0
C1925 C 0.33048 0.82266 0.12987 0.0
C1926 C 0.31143 0.80929 0.12083 0.0
H1927 H 0.19973 0.76188 0.10814 0.0
H1928 H 0.23155 0.78439 0.12054 0.0
H1929 H 0.29926 0.75515 0.1064 0.0
H1930 H 0.38757 0.82366 0.12616 0.0
H1931 H 0.35477 0.80938 0.10606 0.0
C1932 C 0.2222 0.27479 0.58653 0.0
C1933 C 0.24097 0.26265 0.57877 0.0
C1934 C 0.20406 0.26352 0.59654 0.0
C1935 C 0.1897 0.21112 0.62614 0.0
H1936 H 0.12826 0.22685 0.61056 0.0
C1937 C 0.11298 0.1647 0.66458 0.0
C1938 C 0.09572 0.17895 0.67229 0.0
C1939 C 0.13032 0.17328 0.65103 0.0
C1940 C 0.14534 0.22234 0.61516 0.0
H1941 H 0.25538 0.22914 0.57547 0.0
H1942 H 0.22387 0.20972 0.59287 0.0
H1943 H 0.15949 0.2459 0.59177 0.0
H1944 H 0.08285 0.21323 0.67128 0.0
H1945 H 0.11295 0.228 0.64818 0.0
H1946 H 0.1756 0.18794 0.64991 0.0
C1947 C 0.22321 0.22789 0.59134 0.0
C1948 C 0.16318 0.23329 0.60444 0.0
C1949 C 0.24122 0.23907 0.58126 0.0
C1950 C 0.09588 0.20172 0.66573 0.0
C1951 C 0.11307 0.21021 0.65226 0.0
C1952 C 0.17185 0.20024 0.63695 0.0
C1953 C 0.20447 0.23997 0.5991 0.0
C1954 C 0.18553 0.22796 0.61001 0.0
C1955 C 0.13058 0.19619 0.64489 0.0
C1956 C 0.14948 0.20596 0.63179 0.0
H1957 H 0.22149 0.29294 0.58486 0.0
H1958 H 0.18987 0.27326 0.60258 0.0
H1959 H 0.20679 0.2068 0.63088 0.0
H1960 H 0.1133 0.14708 0.6693 0.0
H1961 H 0.14353 0.16203 0.64543 0.0
C1962 C 0.62264 0.30915 0.37614 0.0
C1963 C 0.62173 0.32961 0.36429 0.0
C1964 C 0.6421 0.3029 0.38765 0.0
C1965 C 0.70235 0.30954 0.38222 0.0
H1966 H 0.70351 0.27364 0.43686 0.0
C1967 C 0.78289 0.26419 0.41268 0.0
C1968 C 0.78007 0.24198 0.4205 0.0
C1969 C 0.76424 0.27791 0.4086 0.0
C1970 C 0.70343 0.28355 0.42152 0.0
H1971 H 0.63987 0.36028 0.35632 0.0
H1972 H 0.67428 0.34918 0.3764 0.0
H1973 H 0.66929 0.29403 0.42662 0.0
H1974 H 0.75534 0.21676 0.42998 0.0
H1975 H 0.72278 0.24054 0.42239 0.0
H1976 H 0.73612 0.29837 0.37657 0.0
C1977 C 0.65984 0.33802 0.37671 0.0
C1978 C 0.6839 0.29533 0.41576 0.0
C1979 C 0.64014 0.34444 0.36539 0.0
C1980 C 0.75814 0.23377 0.42399 0.0
C1981 C 0.73947 0.24749 0.41985 0.0
C1982 C 0.72186 0.29771 0.38795 0.0
C1983 C 0.6612 0.31688 0.38737 0.0
C1984 C 0.68297 0.30797 0.39574 0.0
C1985 C 0.74231 0.26974 0.41219 0.0
C1986 C 0.72242 0.28411 0.40736 0.0
H1987 H 0.60861 0.29747 0.37566 0.0
H1988 H 0.64265 0.28644 0.39551 0.0
H1989 H 0.70204 0.31885 0.36651 0.0
H1990 H 0.79955 0.27115 0.40995 0.0
H1991 H 0.76701 0.29502 0.4029 0.0
C1992 C 0.01141 0.29058 0.09605 0.0
C1993 C 0.00523 0.29503 0.11851 0.0
C1994 C -0.0037 0.29477 0.07847 0.0
C1995 C 0.94746 0.33072 0.06631 0.0
H1996 H 0.93806 0.29162 0.01483 0.0
C1997 C 0.86868 0.33337 0.01143 0.0
C1998 C 0.87051 0.32958 0.98815 0.0
C1999 C 0.88764 0.33224 0.02518 0.0
C2000 C 0.94088 0.30293 0.02888 0.0
H2001 H 0.97778 0.30559 0.14025 0.0
H2002 H 0.95138 0.31242 0.10968 0.0
H2003 H 0.96563 0.28116 0.04363 0.0
H2004 H 0.89369 0.32271 0.96076 0.0
H2005 H 0.92708 0.3205 0.98505 0.0
H2006 H 0.92232 0.35216 0.05196 0.0
C2007 C 0.9681 0.30636 0.1056 0.0
C2008 C 0.95655 0.29687 0.0454 0.0
C2009 C 0.98317 0.30223 0.12313 0.0
C2010 C 0.89187 0.3258 0.97866 0.0
C2011 C 0.91089 0.32435 0.99254 0.0
C2012 C 0.93183 0.33673 0.04987 0.0
C2013 C 0.97476 0.30343 0.08307 0.0
C2014 C 0.95953 0.31043 0.06457 0.0
C2015 C 0.90881 0.32707 0.01599 0.0
C2016 C 0.92797 0.32263 0.03129 0.0
H2017 H 0.0283 0.28505 0.09192 0.0
H2018 H 0.00186 0.2923 0.06125 0.0
H2019 H 0.94987 0.34182 0.0806 0.0
H2020 H 0.85242 0.3364 0.01916 0.0
H2021 H 0.88548 0.33422 0.04321 0.0
C2022 C 0.5656 0.6792 0.46497 0.0
C2023 C 0.5859 0.66829 0.45981 0.0
C2024 C 0.5528 0.67234 0.48345 0.0
C2025 C 0.56472 0.64929 0.53891 0.0
H2026 H 0.5011 0.66094 0.54801 0.0
C2027 C 0.52076 0.65144 0.62684 0.0
C2028 C 0.50566 0.66943 0.63012 0.0
C2029 C 0.53035 0.64757 0.60565 0.0
C2030 C 0.51891 0.65766 0.54571 0.0
H2031 H 0.60754 0.64014 0.46826 0.0
H2032 H 0.58495 0.62787 0.50045 0.0
H2033 H 0.51575 0.65695 0.50978 0.0
H2034 H 0.48981 0.69814 0.6139 0.0
H2035 H 0.50665 0.69142 0.57711 0.0
H2036 H 0.56789 0.65053 0.57489 0.0
C2037 C 0.57906 0.64192 0.4904 0.0
C2038 C 0.52727 0.65526 0.52384 0.0
C2039 C 0.59182 0.64872 0.47175 0.0
C2040 C 0.50132 0.68411 0.61203 0.0
C2041 C 0.51074 0.68011 0.59085 0.0
C2042 C 0.5563 0.65152 0.56081 0.0
C2043 C 0.56015 0.6545 0.4972 0.0
C2044 C 0.55041 0.65184 0.52014 0.0
C2045 C 0.52488 0.66148 0.5873 0.0
C2046 C 0.53346 0.6565 0.56436 0.0
H2047 H 0.56076 0.69439 0.45606 0.0
H2048 H 0.5384 0.6825 0.48816 0.0
H2049 H 0.58269 0.64697 0.53671 0.0
H2050 H 0.52449 0.63979 0.6404 0.0
H2051 H 0.54128 0.63314 0.6034 0.0
C2052 C 0.44609 0.17848 0.00237 0.0
C2053 C 0.42966 0.1647 0.01232 0.0
C2054 C 0.45496 0.17311 0.98129 0.0
C2055 C 0.43514 0.14547 0.93003 0.0
H2056 H 0.49264 0.16628 0.90698 0.0
C2057 C 0.46126 0.14581 0.83508 0.0
C2058 C 0.47224 0.16552 0.82759 0.0
C2059 C 0.45607 0.14288 0.85789 0.0
C2060 C 0.47649 0.16046 0.91319 0.0
H2061 H 0.41119 0.13337 0.00918 0.0
H2062 H 0.42704 0.12366 0.9724 0.0
H2063 H 0.48709 0.16282 0.94757 0.0
H2064 H 0.48495 0.19815 0.83812 0.0
H2065 H 0.47572 0.19302 0.87782 0.0
H2066 H 0.42458 0.14333 0.8955 0.0
C2067 C 0.43285 0.13881 0.98075 0.0
C2068 C 0.47333 0.15839 0.93642 0.0
C2069 C 0.42406 0.14415 0.002 0.0
C2070 C 0.47653 0.18278 0.84323 0.0
C2071 C 0.4715 0.17974 0.86603 0.0
C2072 C 0.43841 0.14732 0.90674 0.0
C2073 C 0.44749 0.15385 0.96967 0.0
C2074 C 0.45239 0.15157 0.94517 0.0
C2075 C 0.46187 0.1595 0.87367 0.0
C2076 C 0.45888 0.15551 0.89816 0.0
H2077 H 0.45053 0.19449 0.00994 0.0
H2078 H 0.46608 0.18518 0.97332 0.0
H2079 H 0.41868 0.14045 0.93614 0.0
H2080 H 0.45775 0.13211 0.82354 0.0
H2081 H 0.44859 0.12713 0.86333 0.0
C2082 C 0.08193 0.84504 0.52051 0.0
C2083 C 0.08189 0.82191 0.52535 0.0
C2084 C 0.0661 0.85388 0.50547 0.0
C2085 C 0.0171 0.83898 0.46921 0.0
H2086 H 0.05635 0.85831 0.42054 0.0
C2087 C -0.00181 0.81545 0.37858 0.0
C2088 C 0.00025 0.83206 0.36184 0.0
C2089 C 0.00643 0.81931 0.40021 0.0
C2090 C 0.04501 0.85338 0.43398 0.0
H2091 H 0.06391 0.7905 0.52122 0.0
H2092 H 0.03594 0.80588 0.49561 0.0
H2093 H 0.07 0.85922 0.45921 0.0
H2094 H 0.01427 0.865 0.35418 0.0
H2095 H 0.02885 0.87161 0.39206 0.0
H2096 H 0.99256 0.83198 0.44378 0.0
C2097 C 0.04809 0.8173 0.50306 0.0
C2098 C 0.05274 0.85409 0.45619 0.0
C2099 C 0.0641 0.80843 0.51772 0.0
C2100 C 0.01239 0.85185 0.3667 0.0
C2101 C 0.02061 0.85573 0.38843 0.0
C2102 C 0.00938 0.83831 0.44703 0.0
C2103 C 0.05 0.83966 0.49549 0.0
C2104 C 0.03924 0.84585 0.47388 0.0
C2105 C 0.0169 0.83984 0.40558 0.0
C2106 C 0.02367 0.84445 0.42913 0.0
H2107 H 0.09569 0.85566 0.52611 0.0
H2108 H 0.06779 0.87122 0.50003 0.0
H2109 H 0.00631 0.83274 0.48256 0.0
H2110 H 0.98913 0.79994 0.37534 0.0
H2111 H 0.00405 0.80642 0.41293 0.0
C2112 C 0.14926 0.96787 0.30041 0.0
C2113 C 0.16307 0.97065 0.31943 0.0
C2114 C 0.12784 0.95838 0.30252 0.0
C2115 C 0.08318 0.95135 0.34527 0.0
H2116 H 0.05379 0.91905 0.29671 0.0
C2117 C 0.99231 0.91175 0.34475 0.0
C2118 C 0.98072 0.91432 0.32424 0.0
C2119 C 0.01414 0.92045 0.34716 0.0
C2120 C 0.06177 0.92821 0.31035 0.0
H2121 H 0.16595 0.96361 0.35529 0.0
H2122 H 0.12883 0.94648 0.35876 0.0
H2123 H 0.09408 0.92628 0.29466 0.0
H2124 H 0.98142 0.9302 0.2914 0.0
H2125 H 0.01915 0.94584 0.2958 0.0
H2126 H 0.05057 0.95284 0.36101 0.0
C2127 C 0.13431 0.9523 0.34234 0.0
C2128 C 0.08485 0.93234 0.30919 0.0
C2129 C 0.15573 0.96187 0.34025 0.0
C2130 C 0.99004 0.92801 0.30735 0.0
C2131 C 0.01171 0.93671 0.30977 0.0
C2132 C 0.06002 0.94694 0.34655 0.0
C2133 C 0.11978 0.95124 0.32367 0.0
C2134 C 0.09579 0.94441 0.32635 0.0
C2135 C 0.02444 0.93184 0.3291 0.0
C2136 C 0.04905 0.93582 0.32881 0.0
H2137 H 0.15429 0.97444 0.28413 0.0
H2138 H 0.1171 0.95798 0.28776 0.0
H2139 H 0.09099 0.96091 0.3587 0.0
H2140 H 0.9856 0.90099 0.3579 0.0
H2141 H 0.02364 0.91653 0.36226 0.0
C2142 C 0.50605 0.06724 0.7977 0.0
C2143 C 0.51283 0.08805 0.80649 0.0
C2144 C 0.48988 0.05444 0.80888 0.0
C2145 C 0.43977 0.06748 0.84039 0.0
H2146 H 0.42916 0.00369 0.83131 0.0
C2147 C 0.35237 0.02094 0.84404 0.0
C2148 C 0.34845 0.0078 0.82463 0.0
C2149 C 0.37333 0.03113 0.84753 0.0
C2150 C 0.43196 0.0215 0.83416 0.0
H2151 H 0.51 0.11087 0.83485 0.0
H2152 H 0.48154 0.08844 0.85449 0.0
H2153 H 0.4677 0.01806 0.83132 0.0
H2154 H 0.36289 -0.00332 0.79289 0.0
H2155 H 0.39931 0.01447 0.79907 0.0
H2156 H 0.40382 0.07087 0.84237 0.0
C2157 C 0.48871 0.08201 0.83898 0.0
C2158 C 0.45396 0.02971 0.83424 0.0
C2159 C 0.50518 0.0947 0.82789 0.0
C2160 C 0.36531 0.00654 0.80806 0.0
C2161 C 0.38626 0.01649 0.81168 0.0
C2162 C 0.41772 0.05919 0.84057 0.0
C2163 C 0.47998 0.06244 0.82889 0.0
C2164 C 0.45803 0.05294 0.83611 0.0
C2165 C 0.39067 0.02815 0.83178 0.0
C2166 C 0.41368 0.03634 0.83629 0.0
H2167 H 0.51167 0.06192 0.78115 0.0
H2168 H 0.48348 0.03955 0.80051 0.0
H2169 H 0.44228 0.0855 0.84169 0.0
H2170 H 0.33976 0.02227 0.85718 0.0
H2171 H 0.37636 0.04027 0.86305 0.0
C2172 C 0.6097 0.50388 0.65509 0.0
C2173 C 0.61852 0.48881 0.67111 0.0
C2174 C 0.58723 0.5106 0.65621 0.0
C2175 C 0.53988 0.51834 0.69371 0.0
H2176 H 0.50486 0.51669 0.63848 0.0
C2177 C 0.45803 0.56522 0.69205 0.0
C2178 C 0.45747 0.58059 0.67414 0.0
C2179 C 0.47158 0.54607 0.6907 0.0
C2180 C 0.51434 0.51718 0.65406 0.0
H2181 H 0.61097 0.46999 0.70159 0.0
H2182 H 0.57176 0.48241 0.70387 0.0
H2183 H 0.54281 0.5008 0.6391 0.0
H2184 H 0.46847 0.58729 0.64007 0.0
H2185 H 0.49262 0.55439 0.63776 0.0
H2186 H 0.51241 0.53606 0.7084 0.0
C2187 C 0.58225 0.48861 0.69027 0.0
C2188 C 0.53605 0.50812 0.65439 0.0
C2189 C 0.6047 0.48163 0.68901 0.0
C2190 C 0.46844 0.57537 0.65393 0.0
C2191 C 0.48235 0.55647 0.6527 0.0
C2192 C 0.51832 0.52765 0.69333 0.0
C2193 C 0.5732 0.50264 0.67351 0.0
C2194 C 0.54924 0.5093 0.67403 0.0
C2195 C 0.48529 0.54251 0.67169 0.0
C2196 C 0.50556 0.52789 0.67329 0.0
H2197 H 0.61982 0.50971 0.64105 0.0
H2198 H 0.58074 0.52186 0.64338 0.0
H2199 H 0.54975 0.51948 0.70904 0.0
H2200 H 0.44976 0.56913 0.70786 0.0
H2201 H 0.47292 0.53527 0.70536 0.0
C2202 C 0.04177 0.40719 0.18591 0.0
C2203 C 0.03231 0.38837 0.17509 0.0
C2204 C 0.02801 0.42545 0.19195 0.0
C2205 C 0.97203 0.43334 0.21137 0.0
H2206 H 0.96947 0.49427 0.18806 0.0
C2207 C 0.8904 0.48269 0.2041 0.0
C2208 C 0.89033 0.5061 0.20736 0.0
C2209 C 0.91046 0.47057 0.20551 0.0
C2210 C 0.9703 0.47749 0.19519 0.0
H2211 H 0.00196 0.37463 0.16013 0.0
H2212 H 0.97821 0.40637 0.17043 0.0
H2213 H 0.00145 0.46995 0.17826 0.0
H2214 H 0.91111 0.53502 0.21578 0.0
H2215 H 0.94628 0.51371 0.21808 0.0
H2216 H 0.94054 0.44025 0.22743 0.0
C2217 C -0.00401 0.40695 0.17457 0.0
C2218 C 0.98855 0.46365 0.18954 0.0
C2219 C 0.00958 0.38889 0.16862 0.0
C2220 C 0.91059 0.51697 0.21321 0.0
C2221 C 0.93075 0.50484 0.21438 0.0
C2222 C 0.95392 0.4471 0.21705 0.0
C2223 C 0.00484 0.42487 0.18712 0.0
C2224 C 0.98899 0.44123 0.1969 0.0
C2225 C 0.93093 0.4816 0.21007 0.0
C2226 C 0.95237 0.46899 0.20824 0.0
H2227 H 0.05924 0.40702 0.19122 0.0
H2228 H 0.03509 0.43923 0.20159 0.0
H2229 H 0.9722 0.41608 0.21732 0.0
H2230 H 0.87508 0.47382 0.19961 0.0
H2231 H 0.91008 0.45269 0.20185 0.0
C2232 C 0.32939 0.12366 0.9868 0.0
C2233 C 0.34716 0.13922 0.98513 0.0
C2234 C 0.33119 0.10247 0.97692 0.0
C2235 C 0.35962 0.06842 0.93465 0.0
H2236 H 0.34302 0.01948 0.9748 0.0
C2237 C 0.35249 0.97809 0.90157 0.0
C2238 C 0.33092 0.96928 0.90581 0.0
C2239 C 0.36038 -0.00347 0.91395 0.0
C2240 C 0.34785 0.03293 0.96343 0.0
H2241 H 0.38004 0.14533 0.97017 0.0
H2242 H 0.38292 0.10821 0.95256 0.0
H2243 H 0.34387 0.05802 0.98896 0.0
H2244 H 0.30162 0.97119 0.92744 0.0
H2245 H 0.31545 0.00289 0.94933 0.0
H2246 H 0.36249 0.04345 0.90879 0.0
C2247 C 0.36777 0.11247 0.9618 0.0
C2248 C 0.34824 0.05497 0.97149 0.0
C2249 C 0.36603 0.13373 0.97182 0.0
C2250 C 0.31836 0.97764 0.92398 0.0
C2251 C 0.32634 -0.00419 0.9365 0.0
C2252 C 0.35909 0.04632 0.9265 0.0
C2253 C 0.35071 0.09639 0.96503 0.0
C2254 C 0.35334 0.07297 0.95699 0.0
C2255 C 0.34693 0.00613 0.93092 0.0
C2256 C 0.35242 0.02846 0.94065 0.0
H2257 H 0.31452 0.12737 -0.00328 0.0
H2258 H 0.31753 0.09054 0.97914 0.0
H2259 H 0.36369 0.08202 0.92317 0.0
H2260 H 0.36237 0.97211 0.88743 0.0
H2261 H 0.37639 0.00404 0.90942 0.0
C2262 C 0.76086 0.39461 0.9832 0.0
C2263 C 0.7649 0.37378 0.99378 0.0
C2264 C 0.76281 0.41469 0.99537 0.0
C2265 C 0.77026 0.43788 0.05323 0.0
H2266 H 0.81293 0.47844 0.02459 0.0
C2267 C 0.83177 0.48812 0.10484 0.0
C2268 C 0.82944 0.51163 0.10361 0.0
C2269 C 0.82225 0.47439 0.08841 0.0
C2270 C 0.80074 0.46746 0.03261 0.0
H2271 H 0.77165 0.35752 0.0258 0.0
H2272 H 0.77491 0.3923 0.04696 0.0
H2273 H 0.79487 0.44869 0.00236 0.0
H2274 H 0.81733 0.53932 0.08307 0.0
H2275 H 0.801 0.51497 0.05377 0.0
H2276 H 0.77726 0.45575 0.08375 0.0
C2277 C 0.77036 0.39331 0.0293 0.0
C2278 C 0.79027 0.45054 0.01993 0.0
C2279 C 0.76857 0.3733 0.01715 0.0
C2280 C 0.81948 0.52124 0.08436 0.0
C2281 C 0.80998 0.50738 0.06773 0.0
C2282 C 0.78084 0.45459 0.06587 0.0
C2283 C 0.76855 0.41425 0.01835 0.0
C2284 C 0.77556 0.43504 0.03034 0.0
C2285 C 0.81037 0.48387 0.07033 0.0
C2286 C 0.79674 0.46897 0.05584 0.0
H2287 H 0.75799 0.39555 0.96519 0.0
H2288 H 0.76097 0.43057 0.98656 0.0
H2289 H 0.7587 0.42651 0.06163 0.0
H2290 H 0.83955 0.48025 0.11938 0.0
H2291 H 0.82311 0.45627 0.09047 0.0
C2292 C 0.68056 0.64251 0.51101 0.0
C2293 C 0.661 0.65548 0.50806 0.0
C2294 C 0.67915 0.62057 0.51924 0.0
C2295 C 0.63871 0.57346 0.52251 0.0
H2296 H 0.68684 0.5459 0.55696 0.0
C2297 C 0.63931 0.48623 0.56742 0.0
C2298 C 0.66029 0.47537 0.56817 0.0
C2299 C 0.63688 0.50632 0.55532 0.0
C2300 C 0.67344 0.5533 0.54701 0.0
H2301 H 0.62481 0.65629 0.51352 0.0
H2302 H 0.62248 0.61812 0.52853 0.0
H2303 H 0.68747 0.58623 0.55025 0.0
H2304 H 0.6942 0.47499 0.55488 0.0
H2305 H 0.68983 0.50967 0.53322 0.0
H2306 H 0.62439 0.54027 0.5201 0.0
C2307 C 0.63882 0.62471 0.52375 0.0
C2308 C 0.67375 0.57645 0.54325 0.0
C2309 C 0.64022 0.64671 0.51543 0.0
C2310 C 0.67778 0.48295 0.55422 0.0
C2311 C 0.67537 0.50295 0.54213 0.0
C2312 C 0.63826 0.55023 0.52656 0.0
C2313 C 0.65818 0.61112 0.52495 0.0
C2314 C 0.65658 0.58681 0.53069 0.0
C2315 C 0.65547 0.51563 0.544 0.0
C2316 C 0.65585 0.53993 0.53854 0.0
H2317 H 0.69685 0.64871 0.50558 0.0
H2318 H 0.69442 0.61061 0.5198 0.0
H2319 H 0.62535 0.58085 0.51252 0.0
H2320 H 0.62578 0.48089 0.57847 0.0
H2321 H 0.62137 0.51577 0.55702 0.0
C2322 C 0.1507 0.85596 0.46352 0.0
C2323 C 0.16767 0.85334 0.4799 0.0
C2324 C 0.14718 0.8768 0.45313 0.0
C2325 C 0.156 0.93723 0.46292 0.0
H2326 H 0.14911 0.94328 0.39823 0.0
C2327 C 0.17848 0.01644 0.4139 0.0
C2328 C 0.16837 0.02059 0.39294 0.0
C2329 C 0.17152 -0.00174 0.42705 0.0
C2330 C 0.15035 0.9419 0.41639 0.0
H2331 H 0.19488 0.87041 0.49742 0.0
H2332 H 0.18884 0.90665 0.47912 0.0
H2333 H 0.15228 0.9059 0.41489 0.0
H2334 H 0.14154 0.01054 0.37028 0.0
H2335 H 0.12911 0.97883 0.39345 0.0
H2336 H 0.15461 0.97321 0.46441 0.0
C2337 C 0.17804 0.89263 0.47463 0.0
C2338 C 0.15236 0.92046 0.4259 0.0
C2339 C 0.18167 0.87178 0.4849 0.0
C2340 C 0.14949 0.00783 0.3865 0.0
C2341 C 0.14261 0.98947 0.3996 0.0
C2342 C 0.15383 0.95865 0.45345 0.0
C2343 C 0.16045 0.89547 0.45902 0.0
C2344 C 0.15593 0.91797 0.44917 0.0
C2345 C 0.15439 0.98379 0.41939 0.0
C2346 C 0.15171 0.96128 0.42999 0.0
H2347 H 0.13957 0.84213 0.45928 0.0
H2348 H 0.13353 0.8785 0.44113 0.0
H2349 H 0.15819 0.93575 0.48099 0.0
H2350 H 0.19312 0.02601 0.41917 0.0
H2351 H 0.18106 0.99438 0.44212 0.0
C2352 C 0.01538 0.64924 0.84787 0.0
C2353 C 0.00143 0.66662 0.83984 0.0
C2354 C 0.02337 0.64951 0.86998 0.0
C2355 C 0.01068 0.67475 0.92573 0.0
H2356 H 0.06976 0.65159 0.94112 0.0
C2357 C 0.06068 0.6954 0.00593 0.0
C2358 C 0.07492 0.67884 0.01493 0.0
C2359 C 0.04714 0.6906 0.98734 0.0
C2360 C 0.05301 0.65765 0.93715 0.0
H2361 H 0.98616 0.69869 0.84838 0.0
H2362 H 0.0009 0.69964 0.88673 0.0
H2363 H 0.05777 0.6519 0.90194 0.0
H2364 H 0.08502 0.64388 0.01298 0.0
H2365 H 0.06136 0.63542 0.98017 0.0
H2366 H 0.00654 0.68149 0.96101 0.0
C2367 C 0.00499 0.68536 0.87614 0.0
C2368 C 0.04616 0.65794 0.91465 0.0
C2369 C -0.00321 0.68498 0.85404 0.0
C2370 C 0.07388 0.6568 0.00649 0.0
C2371 C 0.06059 0.65207 0.98759 0.0
C2372 C 0.01767 0.67469 0.94824 0.0
C2373 C 0.01785 0.66732 0.88457 0.0
C2374 C 0.025 0.66672 0.9086 0.0
C2375 C 0.04798 0.66925 0.97721 0.0
C2376 C 0.03899 0.66633 0.95412 0.0
H2377 H 0.01923 0.63474 0.83747 0.0
H2378 H 0.03307 0.63524 0.87588 0.0
H2379 H 0.99406 0.68115 0.92177 0.0
H2380 H 0.06145 0.71257 0.01209 0.0
H2381 H 0.0377 0.7042 0.97965 0.0
C2382 C 0.48523 0.30026 0.35759 0.0
C2383 C 0.50871 0.29782 0.3588 0.0
C2384 C 0.47186 0.29612 0.37644 0.0
C2385 C 0.47476 0.30029 0.43732 0.0
H2386 H 0.41358 0.27779 0.43286 0.0
C2387 C 0.40434 0.30428 0.50752 0.0
C2388 C 0.38394 0.31297 0.49911 0.0
C2389 C 0.42232 0.29984 0.49283 0.0
C2390 C 0.4307 0.28398 0.4344 0.0
H2391 H 0.53654 0.28785 0.38031 0.0
H2392 H 0.51301 0.28071 0.41349 0.0
H2393 H 0.43993 0.27112 0.40205 0.0
H2394 H 0.36714 0.32569 0.46917 0.0
H2395 H 0.3983 0.31795 0.44384 0.0
H2396 H 0.46505 0.31381 0.46949 0.0
C2397 C 0.50504 0.28589 0.3979 0.0
C2398 C 0.44575 0.28016 0.4168 0.0
C2399 C 0.51845 0.28979 0.37887 0.0
C2400 C 0.38248 0.31867 0.47617 0.0
C2401 C 0.40025 0.31413 0.4616 0.0
C2402 C 0.45965 0.30401 0.45506 0.0
C2403 C 0.48168 0.2896 0.39699 0.0
C2404 C 0.46764 0.28909 0.41765 0.0
C2405 C 0.41998 0.30393 0.46963 0.0
C2406 C 0.43726 0.29668 0.45325 0.0
H2407 H 0.47725 0.30637 0.34234 0.0
H2408 H 0.45394 0.29937 0.37524 0.0
H2409 H 0.4915 0.30749 0.43839 0.0
H2410 H 0.40597 0.29969 0.52512 0.0
H2411 H 0.43752 0.29214 0.49937 0.0
C2412 C 0.56787 0.79294 0.97687 0.0
C2413 C 0.58784 0.80444 0.98214 0.0
C2414 C 0.54853 0.79626 0.98999 0.0
C2415 C 0.5235 0.83278 0.03399 0.0
H2416 H 0.50516 0.7769 0.06261 0.0
C2417 C 0.49657 0.82999 0.12548 0.0
C2418 C 0.47785 0.81702 0.13201 0.0
C2419 C 0.50506 0.82861 0.10367 0.0
C2420 C 0.50966 0.79261 0.05448 0.0
H2421 H 0.60331 0.82915 0.00398 0.0
H2422 H 0.56955 0.83552 0.02643 0.0
H2423 H 0.52788 0.77579 0.02826 0.0
H2424 H 0.45382 0.79182 0.12081 0.0
H2425 H 0.46909 0.78916 0.08247 0.0
H2426 H 0.50633 0.84961 0.06081 0.0
C2427 C 0.56859 0.824 0.0123 0.0
C2428 C 0.5226 0.79199 0.03477 0.0
C2429 C 0.58792 0.82036 -0.00047 0.0
C2430 C 0.46829 0.80201 0.11633 0.0
C2431 C 0.47694 0.80054 0.09439 0.0
C2432 C 0.51058 0.83339 0.05361 0.0
C2433 C 0.54895 0.8114 0.00821 0.0
C2434 C 0.53048 0.81208 0.02497 0.0
C2435 C 0.49514 0.81419 0.08777 0.0
C2436 C 0.50446 0.81333 0.06462 0.0
H2437 H 0.56768 0.78032 0.96368 0.0
H2438 H 0.5336 0.78634 0.98654 0.0
H2439 H 0.52911 0.8485 0.02659 0.0
H2440 H 0.5045 0.84162 0.13711 0.0
H2441 H 0.5195 0.83889 0.09925 0.0
C2442 C 0.93668 0.18389 0.49008 0.0
C2443 C 0.91938 0.16833 0.48601 0.0
C2444 C 0.94934 0.18268 0.50991 0.0
C2445 C 0.95896 0.14942 0.56259 0.0
H2446 H 0.96016 0.20871 0.59007 0.0
C2447 C 0.96953 0.16082 0.65831 0.0
C2448 C 0.98502 0.17727 0.66554 0.0
C2449 C 0.96268 0.15985 0.6358 0.0
C2450 C 0.96021 0.19207 0.58259 0.0
H2451 H 0.90267 0.13843 0.49842 0.0
H2452 H 0.92469 0.13618 0.53306 0.0
H2453 H 0.94952 0.20482 0.55068 0.0
H2454 H 0.00437 0.20642 0.65487 0.0
H2455 H 0.99223 0.20481 0.61565 0.0
H2456 H 0.96916 0.13669 0.5948 0.0
C2457 C 0.92889 0.14913 0.52091 0.0
C2458 C 0.95425 0.18981 0.55991 0.0
C2459 C 0.91638 0.15025 0.50093 0.0
C2460 C 0.99237 0.19358 0.64997 0.0
C2461 C 0.98546 0.19262 0.62743 0.0
C2462 C 0.96487 0.15168 0.58532 0.0
C2463 C 0.94459 0.16612 0.52622 0.0
C2464 C 0.95335 0.16844 0.54964 0.0
C2465 C 0.97106 0.17533 0.61995 0.0
C2466 C 0.96531 0.17302 0.59565 0.0
H2467 H 0.93897 0.19822 0.47899 0.0
H2468 H 0.96168 0.19572 0.51321 0.0
H2469 H 0.95864 0.13274 0.5552 0.0
H2470 H 0.96342 0.14802 0.66981 0.0
H2471 H 0.95114 0.14666 0.6307 0.0
C2472 C 0.86053 0.98412 0.69486 0.0
C2473 C 0.8465 0.98806 0.67621 0.0
C2474 C 0.88212 0.99352 0.6957 0.0
C2475 C 0.91777 0.03778 0.66952 0.0
H2476 H 0.96614 0.00393 0.69756 0.0
C2477 C 0.00431 0.07727 0.67787 0.0
C2478 C 0.00918 0.07988 0.70085 0.0
C2479 C 0.98857 0.06114 0.67099 0.0
C2480 C 0.95283 0.0134 0.68941 0.0
H2481 H 0.84403 0.00518 0.64392 0.0
H2482 H 0.88163 0.02098 0.64513 0.0
H2483 H 0.92878 0.98695 0.69403 0.0
H2484 H 0.00376 0.06644 0.73434 0.0
H2485 H 0.97684 0.03787 0.72232 0.0
H2486 H 0.94175 0.06428 0.66514 0.0
C2487 C 0.87591 0.01111 0.65939 0.0
C2488 C 0.93137 0.00385 0.68766 0.0
C2489 C 0.85427 0.00203 0.65871 0.0
C2490 C 0.00023 0.06459 0.71651 0.0
C2491 C 0.98488 0.04823 0.70961 0.0
C2492 C 0.93925 0.04716 0.67098 0.0
C2493 C 0.89022 0.00678 0.67776 0.0
C2494 C 0.91344 0.01616 0.6782 0.0
C2495 C 0.97792 0.04727 0.68701 0.0
C2496 C 0.95684 0.03528 0.68141 0.0
H2497 H 0.85501 0.97344 0.70861 0.0
H2498 H 0.89247 0.99028 0.71038 0.0
H2499 H 0.90438 0.04793 0.66242 0.0
H2500 H 0.01089 0.08908 0.66558 0.0
H2501 H 0.98351 0.0606 0.65345 0.0
C2502 C 0.61307 -6e-05 0.21693 0.0
C2503 C 0.61734 0.02294 0.21345 0.0
C2504 C 0.59104 0.99231 0.22023 0.0
C2505 C 0.53709 0.00376 0.19818 0.0
H2506 H 0.51589 0.95844 0.24026 0.0
C2507 C 0.46004 0.93551 0.21089 0.0
C2508 C 0.46529 0.921 0.19296 0.0
C2509 C 0.47362 0.95429 0.21523 0.0
C2510 C 0.52135 0.97146 0.22867 0.0
H2511 H 0.60214 0.05617 0.21209 0.0
H2512 H 0.56355 0.04262 0.21714 0.0
H2513 H 0.55093 0.97884 0.24812 0.0
H2514 H 0.4874 0.91536 0.16454 0.0
H2515 H 0.51043 0.94884 0.17139 0.0
H2516 H 0.50865 0.99484 0.1777 0.0
C2517 C 0.5773 0.03064 0.21767 0.0
C2518 C 0.54139 0.983 0.23311 0.0
C2519 C 0.59939 0.03834 0.2149 0.0
C2520 C 0.48292 0.92655 0.17825 0.0
C2521 C 0.49606 0.94564 0.1822 0.0
C2522 C 0.51732 0.99186 0.19349 0.0
C2523 C 0.57293 0.00751 0.21964 0.0
C2524 C 0.54971 -0.00122 0.2176 0.0
C2525 C 0.49216 0.95903 0.2013 0.0
C2526 C 0.50965 0.9752 0.20841 0.0
H2527 H 0.62658 0.98772 0.21588 0.0
H2528 H 0.58803 0.97436 0.22156 0.0
H2529 H 0.54334 0.01569 0.18585 0.0
H2530 H 0.44675 0.93124 0.22267 0.0
H2531 H 0.47045 0.96435 0.23013 0.0
C2532 C 0.52108 0.4295 0.31948 0.0
C2533 C 0.51835 0.40941 0.33164 0.0
C2534 C 0.504 0.44577 0.31962 0.0
C2535 C 0.44981 0.46168 0.3468 0.0
H2536 H 0.42947 0.47288 0.28563 0.0
C2537 C 0.35719 0.47537 0.32747 0.0
C2538 C 0.35108 0.49345 0.31345 0.0
C2539 C 0.37961 0.46876 0.32932 0.0
C2540 C 0.43511 0.47026 0.3028 0.0
H2541 H 0.49684 0.39099 0.35456 0.0
H2542 H 0.46739 0.41946 0.35541 0.0
H2543 H 0.46701 0.45725 0.29212 0.0
H2544 H 0.36362 0.51786 0.28926 0.0
H2545 H 0.40305 0.50596 0.29231 0.0
H2546 H 0.41758 0.47371 0.35745 0.0
C2547 C 0.48254 0.4229 0.34581 0.0
C2548 C 0.45664 0.46144 0.30655 0.0
C2549 C 0.49939 0.40658 0.3454 0.0
C2550 C 0.36777 0.50382 0.30015 0.0
C2551 C 0.39034 0.49711 0.30198 0.0
C2552 C 0.42834 0.47043 0.34306 0.0
C2553 C 0.48417 0.44217 0.33211 0.0
C2554 C 0.46387 0.45629 0.32856 0.0
C2555 C 0.39652 0.48002 0.31718 0.0
C2556 C 0.42045 0.47399 0.32099 0.0
H2557 H 0.53544 0.43175 0.30842 0.0
H2558 H 0.50573 0.46052 0.309 0.0
H2559 H 0.45506 0.45819 0.36395 0.0
H2560 H 0.34474 0.46684 0.33776 0.0
H2561 H 0.38379 0.45508 0.34066 0.0
C2562 C 0.13353 0.48403 0.80836 0.0
C2563 C 0.14667 0.48818 0.82762 0.0
C2564 C 0.11118 0.49144 0.80731 0.0
C2565 C 0.07103 0.53109 0.83443 0.0
H2566 H 0.02652 0.49509 0.80287 0.0
C2567 C 0.98154 0.5637 0.82577 0.0
C2568 C 0.97633 0.56659 0.8029 0.0
C2569 C -0.00133 0.54881 0.83215 0.0
C2570 C 0.03875 0.50517 0.81193 0.0
H2571 H 0.1466 0.50346 0.86087 0.0
H2572 H 0.10771 0.51584 0.85926 0.0
H2573 H 0.06506 0.48111 0.80671 0.0
H2574 H 0.98288 0.55479 0.76904 0.0
H2575 H 0.01219 0.5283 0.78014 0.0
H2576 H 0.04482 0.55523 0.83941 0.0
C2577 C 0.1147 0.50735 0.8447 0.0
C2578 C 0.06088 0.49733 0.81391 0.0
C2579 C 0.13708 0.50022 0.84563 0.0
C2580 C 0.98649 0.55258 0.78681 0.0
C2581 C 0.00331 0.53747 0.79319 0.0
C2582 C 0.04889 0.53877 0.83268 0.0
C2583 C 0.10137 0.50291 0.82561 0.0
C2584 C 0.07744 0.51043 0.82476 0.0
C2585 C 0.01052 0.53648 0.81572 0.0
C2586 C 0.03262 0.52613 0.82102 0.0
H2587 H 0.1404 0.47481 0.79419 0.0
H2588 H 0.10161 0.48816 0.79212 0.0
H2589 H 0.0833 0.54184 0.8426 0.0
H2590 H 0.97416 0.57462 0.8384 0.0
H2591 H 0.00381 0.5482 0.84967 0.0
C2592 C 0.70284 0.85645 -0.00391 0.0
C2593 C 0.69393 0.83693 0.0062 0.0
C2594 C 0.7024 0.87706 0.00755 0.0
C2595 C 0.69376 0.90272 0.06387 0.0
H2596 H 0.66664 0.95215 0.03072 0.0
C2597 C 0.6541 0.97538 0.11108 0.0
C2598 C 0.66097 -0.00285 0.10487 0.0
C2599 C 0.65817 0.95714 0.09692 0.0
C2600 C 0.67444 0.93858 0.0401 0.0
H2601 H 0.6792 0.82337 0.03678 0.0
H2602 H 0.67868 0.85906 0.05677 0.0
H2603 H 0.6772 0.91756 0.01085 0.0
H2604 H 0.67578 0.01725 0.0782 0.0
H2605 H 0.68288 0.9851 0.05318 0.0
H2606 H 0.69058 0.92338 0.09315 0.0
C2607 C 0.68592 0.85858 0.04001 0.0
C2608 C 0.68061 0.91884 0.02874 0.0
C2609 C 0.68616 0.8381 0.02853 0.0
C2610 C 0.67016 0.00064 0.08331 0.0
C2611 C 0.67436 0.98225 0.06908 0.0
C2612 C 0.68756 0.92233 0.07517 0.0
C2613 C 0.69334 0.87843 0.0294 0.0
C2614 C 0.68985 0.9005 0.04064 0.0
C2615 C 0.66935 0.96022 0.07628 0.0
C2616 C 0.6773 0.94024 0.06354 0.0
H2617 H 0.70882 0.85612 0.97884 0.0
H2618 H 0.70849 0.89203 -0.00094 0.0
H2619 H 0.70123 0.88908 0.07342 0.0
H2620 H 0.64681 0.97225 0.12754 0.0
H2621 H 0.65353 0.94043 0.10263 0.0
C2622 C 0.17133 0.47636 0.92986 0.0
C2623 C 0.19396 0.47069 0.9262 0.0
C2624 C 0.1659 0.49388 0.94462 0.0
C2625 C 0.18826 0.53529 0.98567 0.0
H2626 H 0.15956 0.57898 0.94644 0.0
C2627 C 0.19374 0.63036 0.00377 0.0
C2628 C 0.17435 0.64334 -0.00023 0.0
C2629 C 0.19493 0.6081 -0.00378 0.0
C2630 C 0.16721 0.56699 0.95787 0.0
H2631 H 0.22836 0.47661 0.93668 0.0
H2632 H 0.21888 0.50667 0.96299 0.0
H2633 H 0.16105 0.53972 0.93523 0.0
H2634 H 0.14139 0.64334 0.98384 0.0
H2635 H 0.14325 0.60465 0.97121 0.0
H2636 H 0.19453 0.56262 0.0083 0.0
C2637 C 0.20532 0.49784 0.95452 0.0
C2638 C 0.16796 0.54443 0.95147 0.0
C2639 C 0.21077 0.48061 0.93953 0.0
C2640 C 0.15668 0.63393 0.98709 0.0
C2641 C 0.15774 0.61164 0.97983 0.0
C2642 C 0.18723 0.55787 0.99227 0.0
C2643 C 0.18305 0.50565 0.95598 0.0
C2644 C 0.17881 0.52842 0.96511 0.0
C2645 C 0.17666 0.59826 0.98472 0.0
C2646 C 0.17706 0.57408 0.97822 0.0
H2647 H 0.15818 0.46913 0.91945 0.0
H2648 H 0.14857 0.49953 0.94562 0.0
H2649 H 0.1968 0.52326 -0.00358 0.0
H2650 H 0.20768 0.63712 0.01343 0.0
H2651 H 0.21002 0.59849 -0.00025 0.0
C2652 C 0.27452 0.3781 0.48887 0.0
C2653 C 0.27517 0.37214 0.51175 0.0
C2654 C 0.27232 0.40065 0.48256 0.0
C2655 C 0.29243 0.45384 0.49817 0.0
H2656 H 0.25113 0.47703 0.45316 0.0
C2657 C 0.27951 0.52992 0.4287 0.0
C2658 C 0.29805 0.52451 0.41507 0.0
C2659 C 0.27548 0.51778 0.44852 0.0
C2660 C 0.26248 0.4711 0.46618 0.0
H2661 H 0.27334 0.38485 0.54599 0.0
H2662 H 0.27036 0.4245 0.5348 0.0
H2663 H 0.24313 0.44105 0.47155 0.0
H2664 H 0.3281 0.50417 0.41224 0.0
H2665 H 0.3217 0.48366 0.44732 0.0
H2666 H 0.31294 0.48279 0.49112 0.0
C2667 C 0.27102 0.41163 0.52188 0.0
C2668 C 0.25795 0.45048 0.47655 0.0
C2669 C 0.2726 0.38899 0.52821 0.0
C2670 C 0.31393 0.50884 0.42276 0.0
C2671 C 0.3102 0.49709 0.4428 0.0
C2672 C 0.29723 0.47426 0.48742 0.0
C2673 C 0.27129 0.41761 0.49902 0.0
C2674 C 0.27325 0.44137 0.49205 0.0
C2675 C 0.2902 0.50044 0.45503 0.0
C2676 C 0.28265 0.48266 0.47079 0.0
H2677 H 0.27657 0.36543 0.47589 0.0
H2678 H 0.27278 0.40496 0.46481 0.0
H2679 H 0.30456 0.44696 0.50996 0.0
H2680 H 0.26684 0.54165 0.42279 0.0
H2681 H 0.25994 0.5206 0.45767 0.0
C2682 C 0.8322 0.12833 0.51185 0.0
C2683 C 0.81728 0.13669 0.49543 0.0
C2684 C 0.83045 0.10612 0.51935 0.0
C2685 C 0.79276 0.05769 0.52412 0.0
H2686 H 0.84847 0.02353 0.52588 0.0
C2687 C 0.79156 0.9691 0.55976 0.0
C2688 C 0.80777 0.96586 0.57662 0.0
C2689 C 0.79422 0.98635 0.54395 0.0
C2690 C 0.83277 0.03281 0.52548 0.0
H2691 H 0.78786 0.12867 0.47521 0.0
H2692 H 0.78456 0.08997 0.48878 0.0
H2693 H 0.84877 0.06236 0.51229 0.0
H2694 H 0.84008 0.97665 0.58948 0.0
H2695 H 0.84479 0.00686 0.56216 0.0
H2696 H 0.77684 0.02872 0.53825 0.0
C2697 C 0.79777 0.10059 0.49555 0.0
C2698 C 0.83296 0.05505 0.51778 0.0
C2699 C 0.79963 0.12278 0.48785 0.0
C2700 C 0.82765 0.97856 0.57622 0.0
C2701 C 0.83023 -0.00403 0.5606 0.0
C2702 C 0.79258 0.03553 0.53202 0.0
C2703 C 0.81361 0.09187 0.51082 0.0
C2704 C 0.81304 0.06783 0.51748 0.0
C2705 C 0.81291 0.0009 0.54514 0.0
C2706 C 0.81267 0.02295 0.53323 0.0
H2707 H 0.84599 0.13853 0.5181 0.0
H2708 H 0.84258 0.09995 0.53152 0.0
H2709 H 0.77718 0.06719 0.52413 0.0
H2710 H 0.77591 0.95968 0.56007 0.0
H2711 H 0.78081 0.98935 0.53193 0.0
loop_
_geom_bond_atom_site_label_1
_geom_bond_atom_site_label_2
_geom_bond_distance
_geom_bond_site_symmetry_2
_ccdc_geom_bond_type
O0 Zn1 1.953 . S
O0 C16 1.225 . S
Zn1 O0 1.953 . S
Zn1 O2 1.949 . S
Zn1 O8 1.919 . S
Zn1 O13 1.924 . S
O2 Zn1 1.949 . S
O2 Zn3 1.923 . S
O2 Zn4 1.950 . S
O2 Zn5 1.945 . S
Zn3 O2 1.923 . S
Zn3 O6 1.933 . S
Zn3 O9 1.941 . S
Zn3 O10 1.965 . S
Zn4 O2 1.950 . S
Zn4 O11 1.938 . S
Zn4 O12 1.906 . S
Zn4 O22 1.953 . S
Zn5 O2 1.945 . S
Zn5 O7 1.932 . S
Zn5 O14 1.977 1_455 S
Zn5 O15 1.910 1_455 S
O6 Zn3 1.933 . S
O6 C17 1.226 . S
O7 Zn5 1.932 . S
O7 C17 1.307 . S
O8 Zn1 1.919 . S
O8 C19 1.253 . S
O9 Zn3 1.941 . S
O9 C19 1.283 . S
O10 Zn3 1.965 . S
O10 C18 1.303 . S
O11 Zn4 1.938 . S
O11 C18 1.247 . S
O12 Zn4 1.906 . S
O12 C20 1.304 . S
O13 Zn1 1.924 . S
O13 C21 1.311 . S
O14 Zn5 1.977 1_655 S
O14 C20 1.272 1_655 S
O15 Zn5 1.910 1_655 S
O15 C21 1.231 1_655 S
C16 O0 1.225 . S
C16 O22 1.298 . S
C17 O6 1.226 . S
C17 O7 1.307 . S
C18 O10 1.303 . S
C18 O11 1.247 . S
C19 O8 1.253 . S
C19 O9 1.283 . S
C20 O12 1.304 . S
C20 O14 1.272 1_455 S
C21 O13 1.311 . S
C21 O15 1.231 1_455 S
O22 Zn4 1.953 . S
O22 C16 1.298 . S
O23 Zn24 1.953 . S
O23 C39 1.225 . S
Zn24 O23 1.953 . S
Zn24 O25 1.949 . S
Zn24 O31 1.919 . S
Zn24 O36 1.924 . S
O25 Zn24 1.949 . S
O25 Zn26 1.923 . S
O25 Zn27 1.950 . S
O25 Zn28 1.945 . S
Zn26 O25 1.923 . S
Zn26 O29 1.933 . S
Zn26 O32 1.941 . S
Zn26 O33 1.965 . S
Zn27 O25 1.950 . S
Zn27 O34 1.938 . S
Zn27 O35 1.906 . S
Zn27 O45 1.953 . S
Zn28 O25 1.945 . S
Zn28 O30 1.932 . S
Zn28 O37 1.977 . S
Zn28 O38 1.910 . S
O29 Zn26 1.933 . S
O29 C40 1.226 . S
O30 Zn28 1.932 . S
O30 C40 1.307 . S
O31 Zn24 1.919 . S
O31 C42 1.253 . S
O32 Zn26 1.941 . S
O32 C42 1.283 . S
O33 Zn26 1.965 . S
O33 C41 1.303 . S
O34 Zn27 1.938 . S
O34 C41 1.247 . S
O35 Zn27 1.906 . S
O35 C43 1.304 . S
O36 Zn24 1.924 . S
O36 C44 1.311 . S
O37 Zn28 1.977 . S
O37 C43 1.272 . S
O38 Zn28 1.910 . S
O38 C44 1.231 . S
C39 O23 1.225 . S
C39 O45 1.298 . S
C40 O29 1.226 . S
C40 O30 1.307 . S
C41 O33 1.303 . S
C41 O34 1.247 . S
C42 O31 1.253 . S
C42 O32 1.283 . S
C43 O35 1.304 . S
C43 O37 1.272 . S
C44 O36 1.311 . S
C44 O38 1.231 . S
O45 Zn27 1.953 . S
O45 C39 1.298 . S
O46 Zn47 1.953 . S
O46 C62 1.225 . S
Zn47 O46 1.953 . S
Zn47 O48 1.949 . S
Zn47 O54 1.919 . S
Zn47 O59 1.924 . S
O48 Zn47 1.949 . S
O48 Zn49 1.923 . S
O48 Zn50 1.950 . S
O48 Zn51 1.945 . S
Zn49 O48 1.923 . S
Zn49 O52 1.933 . S
Zn49 O55 1.941 . S
Zn49 O56 1.965 . S
Zn50 O48 1.950 . S
Zn50 O57 1.938 . S
Zn50 O58 1.906 . S
Zn50 O68 1.953 . S
Zn51 O48 1.945 . S
Zn51 O53 1.932 . S
Zn51 O60 1.977 . S
Zn51 O61 1.910 . S
O52 Zn49 1.933 . S
O52 C63 1.226 . S
O53 Zn51 1.932 . S
O53 C63 1.307 . S
O54 Zn47 1.919 . S
O54 C65 1.253 . S
O55 Zn49 1.941 . S
O55 C65 1.283 . S
O56 Zn49 1.965 . S
O56 C64 1.303 . S
O57 Zn50 1.938 . S
O57 C64 1.247 . S
O58 Zn50 1.906 . S
O58 C66 1.304 . S
O59 Zn47 1.924 . S
O59 C67 1.311 . S
O60 Zn51 1.977 . S
O60 C66 1.272 . S
O61 Zn51 1.910 . S
O61 C67 1.231 . S
C62 O46 1.225 . S
C62 O68 1.298 . S
C63 O52 1.226 . S
C63 O53 1.307 . S
C64 O56 1.303 . S
C64 O57 1.247 . S
C65 O54 1.253 . S
C65 O55 1.283 . S
C66 O58 1.304 . S
C66 O60 1.272 . S
C67 O59 1.311 . S
C67 O61 1.231 . S
O68 Zn50 1.953 . S
O68 C62 1.298 . S
O69 Zn70 1.953 . S
O69 C85 1.225 . S
Zn70 O69 1.953 . S
Zn70 O71 1.949 . S
Zn70 O77 1.919 . S
Zn70 O82 1.924 . S
O71 Zn70 1.949 . S
O71 Zn72 1.923 . S
O71 Zn73 1.950 . S
O71 Zn74 1.945 . S
Zn72 O71 1.923 . S
Zn72 O75 1.933 . S
Zn72 O78 1.941 . S
Zn72 O79 1.965 . S
Zn73 O71 1.950 . S
Zn73 O80 1.938 . S
Zn73 O81 1.906 . S
Zn73 O91 1.953 . S
Zn74 O71 1.945 . S
Zn74 O76 1.932 . S
Zn74 O83 1.977 1_655 S
Zn74 O84 1.910 1_655 S
O75 Zn72 1.933 . S
O75 C86 1.226 . S
O76 Zn74 1.932 . S
O76 C86 1.307 . S
O77 Zn70 1.919 . S
O77 C88 1.253 . S
O78 Zn72 1.941 . S
O78 C88 1.283 . S
O79 Zn72 1.965 . S
O79 C87 1.303 . S
O80 Zn73 1.938 . S
O80 C87 1.247 . S
O81 Zn73 1.906 . S
O81 C89 1.304 . S
O82 Zn70 1.924 . S
O82 C90 1.311 . S
O83 Zn74 1.977 1_455 S
O83 C89 1.272 1_455 S
O84 Zn74 1.910 1_455 S
O84 C90 1.231 1_455 S
C85 O69 1.225 . S
C85 O91 1.298 . S
C86 O75 1.226 . S
C86 O76 1.307 . S
C87 O79 1.303 . S
C87 O80 1.247 . S
C88 O77 1.253 . S
C88 O78 1.283 . S
C89 O81 1.304 . S
C89 O83 1.272 1_655 S
C90 O82 1.311 . S
C90 O84 1.231 1_655 S
O91 Zn73 1.953 . S
O91 C85 1.298 . S
O92 Zn93 1.953 . S
O92 C108 1.225 . S
Zn93 O92 1.953 . S
Zn93 O94 1.949 . S
Zn93 O100 1.919 . S
Zn93 O105 1.924 . S
O94 Zn93 1.949 . S
O94 Zn95 1.923 . S
O94 Zn96 1.950 . S
O94 Zn97 1.945 . S
Zn95 O94 1.923 . S
Zn95 O98 1.933 . S
Zn95 O101 1.941 . S
Zn95 O102 1.965 . S
Zn96 O94 1.950 . S
Zn96 O103 1.938 . S
Zn96 O104 1.906 . S
Zn96 O114 1.953 . S
Zn97 O94 1.945 . S
Zn97 O99 1.932 . S
Zn97 O106 1.977 1_545 S
Zn97 O107 1.910 1_545 S
O98 Zn95 1.933 . S
O98 C109 1.226 . S
O99 Zn97 1.932 . S
O99 C109 1.307 . S
O100 Zn93 1.919 . S
O100 C111 1.253 . S
O101 Zn95 1.941 . S
O101 C111 1.283 . S
O102 Zn95 1.965 . S
O102 C110 1.303 . S
O103 Zn96 1.938 . S
O103 C110 1.247 . S
O104 Zn96 1.906 . S
O104 C112 1.304 . S
O105 Zn93 1.924 . S
O105 C113 1.311 . S
O106 Zn97 1.977 1_565 S
O106 C112 1.272 1_565 S
O107 Zn97 1.910 1_565 S
O107 C113 1.231 1_565 S
C108 O92 1.225 . S
C108 O114 1.298 . S
C109 O98 1.226 . S
C109 O99 1.307 . S
C110 O102 1.303 . S
C110 O103 1.247 . S
C111 O100 1.253 . S
C111 O101 1.283 . S
C112 O104 1.304 . S
C112 O106 1.272 1_545 S
C113 O105 1.311 . S
C113 O107 1.231 1_545 S
O114 Zn96 1.953 . S
O114 C108 1.298 . S
O115 Zn116 1.953 . S
O115 C131 1.225 . S
Zn116 O115 1.953 . S
Zn116 O117 1.949 . S
Zn116 O123 1.919 . S
Zn116 O128 1.924 . S
O117 Zn116 1.949 . S
O117 Zn118 1.923 . S
O117 Zn119 1.950 . S
O117 Zn120 1.945 . S
Zn118 O117 1.923 . S
Zn118 O121 1.933 . S
Zn118 O124 1.941 . S
Zn118 O125 1.965 . S
Zn119 O117 1.950 . S
Zn119 O126 1.938 . S
Zn119 O127 1.906 . S
Zn119 O137 1.953 . S
Zn120 O117 1.945 . S
Zn120 O122 1.932 . S
Zn120 O129 1.977 1_565 S
Zn120 O130 1.910 1_565 S
O121 Zn118 1.933 . S
O121 C132 1.226 . S
O122 Zn120 1.932 . S
O122 C132 1.307 . S
O123 Zn116 1.919 . S
O123 C134 1.253 . S
O124 Zn118 1.941 . S
O124 C134 1.283 . S
O125 Zn118 1.965 . S
O125 C133 1.303 . S
O126 Zn119 1.938 . S
O126 C133 1.247 . S
O127 Zn119 1.906 . S
O127 C135 1.304 . S
O128 Zn116 1.924 . S
O128 C136 1.311 . S
O129 Zn120 1.977 1_545 S
O129 C135 1.272 1_545 S
O130 Zn120 1.910 1_545 S
O130 C136 1.231 1_545 S
C131 O115 1.225 . S
C131 O137 1.298 . S
C132 O121 1.226 . S
C132 O122 1.307 . S
C133 O125 1.303 . S
C133 O126 1.247 . S
C134 O123 1.253 . S
C134 O124 1.283 . S
C135 O127 1.304 . S
C135 O129 1.272 1_565 S
C136 O128 1.311 . S
C136 O130 1.231 1_565 S
O137 Zn119 1.953 . S
O137 C131 1.298 . S
O138 Zn139 1.953 . S
O138 C154 1.225 . S
Zn139 O138 1.953 . S
Zn139 O140 1.949 . S
Zn139 O146 1.919 . S
Zn139 O151 1.924 . S
O140 Zn139 1.949 . S
O140 Zn141 1.923 . S
O140 Zn142 1.950 . S
O140 Zn143 1.945 . S
Zn141 O140 1.923 . S
Zn141 O144 1.933 . S
Zn141 O147 1.941 . S
Zn141 O148 1.965 . S
Zn142 O140 1.950 . S
Zn142 O149 1.938 . S
Zn142 O150 1.906 . S
Zn142 O160 1.953 . S
Zn143 O140 1.945 . S
Zn143 O145 1.932 . S
Zn143 O152 1.977 . S
Zn143 O153 1.910 . S
O144 Zn141 1.933 . S
O144 C155 1.226 . S
O145 Zn143 1.932 . S
O145 C155 1.307 . S
O146 Zn139 1.919 . S
O146 C157 1.253 . S
O147 Zn141 1.941 . S
O147 C157 1.283 . S
O148 Zn141 1.965 . S
O148 C156 1.303 . S
O149 Zn142 1.938 . S
O149 C156 1.247 . S
O150 Zn142 1.906 . S
O150 C158 1.304 . S
O151 Zn139 1.924 . S
O151 C159 1.311 . S
O152 Zn143 1.977 . S
O152 C158 1.272 . S
O153 Zn143 1.910 . S
O153 C159 1.231 . S
C154 O138 1.225 . S
C154 O160 1.298 . S
C155 O144 1.226 . S
C155 O145 1.307 . S
C156 O148 1.303 . S
C156 O149 1.247 . S
C157 O146 1.253 . S
C157 O147 1.283 . S
C158 O150 1.304 . S
C158 O152 1.272 . S
C159 O151 1.311 . S
C159 O153 1.231 . S
O160 Zn142 1.953 . S
O160 C154 1.298 . S
O161 Zn162 1.953 . S
O161 C177 1.225 . S
Zn162 O161 1.953 . S
Zn162 O163 1.949 . S
Zn162 O169 1.919 . S
Zn162 O174 1.924 . S
O163 Zn162 1.949 . S
O163 Zn164 1.923 . S
O163 Zn165 1.950 . S
O163 Zn166 1.945 . S
Zn164 O163 1.923 . S
Zn164 O167 1.933 . S
Zn164 O170 1.941 . S
Zn164 O171 1.965 . S
Zn165 O163 1.950 . S
Zn165 O172 1.938 . S
Zn165 O173 1.906 . S
Zn165 O183 1.953 . S
Zn166 O163 1.945 . S
Zn166 O168 1.932 . S
Zn166 O175 1.977 . S
Zn166 O176 1.910 . S
O167 Zn164 1.933 . S
O167 C178 1.226 . S
O168 Zn166 1.932 . S
O168 C178 1.307 . S
O169 Zn162 1.919 . S
O169 C180 1.253 . S
O170 Zn164 1.941 . S
O170 C180 1.283 . S
O171 Zn164 1.965 . S
O171 C179 1.303 . S
O172 Zn165 1.938 . S
O172 C179 1.247 . S
O173 Zn165 1.906 . S
O173 C181 1.304 . S
O174 Zn162 1.924 . S
O174 C182 1.311 . S
O175 Zn166 1.977 . S
O175 C181 1.272 . S
O176 Zn166 1.910 . S
O176 C182 1.231 . S
C177 O161 1.225 . S
C177 O183 1.298 . S
C178 O167 1.226 . S
C178 O168 1.307 . S
C179 O171 1.303 . S
C179 O172 1.247 . S
C180 O169 1.253 . S
C180 O170 1.283 . S
C181 O173 1.304 . S
C181 O175 1.272 . S
C182 O174 1.311 . S
C182 O176 1.231 . S
O183 Zn165 1.953 . S
O183 C177 1.298 . S
O184 Zn185 1.953 . S
O184 C200 1.225 . S
Zn185 O184 1.953 . S
Zn185 O186 1.949 . S
Zn185 O192 1.919 . S
Zn185 O197 1.924 . S
O186 Zn185 1.949 . S
O186 Zn187 1.923 . S
O186 Zn188 1.950 . S
O186 Zn189 1.945 . S
Zn187 O186 1.923 . S
Zn187 O190 1.933 . S
Zn187 O193 1.941 . S
Zn187 O194 1.965 . S
Zn188 O186 1.950 . S
Zn188 O195 1.938 . S
Zn188 O196 1.906 . S
Zn188 O206 1.953 . S
Zn189 O186 1.945 . S
Zn189 O191 1.932 . S
Zn189 O198 1.977 1_554 S
Zn189 O199 1.910 1_554 S
O190 Zn187 1.933 . S
O190 C201 1.226 . S
O191 Zn189 1.932 . S
O191 C201 1.307 . S
O192 Zn185 1.919 . S
O192 C203 1.253 . S
O193 Zn187 1.941 . S
O193 C203 1.283 . S
O194 Zn187 1.965 . S
O194 C202 1.303 . S
O195 Zn188 1.938 . S
O195 C202 1.247 . S
O196 Zn188 1.906 . S
O196 C204 1.304 . S
O197 Zn185 1.924 . S
O197 C205 1.311 . S
O198 Zn189 1.977 1_556 S
O198 C204 1.272 1_556 S
O199 Zn189 1.910 1_556 S
O199 C205 1.231 1_556 S
C200 O184 1.225 . S
C200 O206 1.298 . S
C201 O190 1.226 . S
C201 O191 1.307 . S
C202 O194 1.303 . S
C202 O195 1.247 . S
C203 O192 1.253 . S
C203 O193 1.283 . S
C204 O196 1.304 . S
C204 O198 1.272 1_554 S
C205 O197 1.311 . S
C205 O199 1.231 1_554 S
O206 Zn188 1.953 . S
O206 C200 1.298 . S
O207 Zn208 1.953 . S
O207 C223 1.225 . S
Zn208 O207 1.953 . S
Zn208 O209 1.949 . S
Zn208 O215 1.919 . S
Zn208 O220 1.924 . S
O209 Zn208 1.949 . S
O209 Zn210 1.923 . S
O209 Zn211 1.950 . S
O209 Zn212 1.945 . S
Zn210 O209 1.923 . S
Zn210 O213 1.933 . S
Zn210 O216 1.941 . S
Zn210 O217 1.965 . S
Zn211 O209 1.950 . S
Zn211 O218 1.938 . S
Zn211 O219 1.906 . S
Zn211 O229 1.953 . S
Zn212 O209 1.945 . S
Zn212 O214 1.932 . S
Zn212 O221 1.977 1_556 S
Zn212 O222 1.910 1_556 S
O213 Zn210 1.933 . S
O213 C224 1.226 . S
O214 Zn212 1.932 . S
O214 C224 1.307 . S
O215 Zn208 1.919 . S
O215 C226 1.253 . S
O216 Zn210 1.941 . S
O216 C226 1.283 . S
O217 Zn210 1.965 . S
O217 C225 1.303 . S
O218 Zn211 1.938 . S
O218 C225 1.247 . S
O219 Zn211 1.906 . S
O219 C227 1.304 . S
O220 Zn208 1.924 . S
O220 C228 1.311 . S
O221 Zn212 1.977 1_554 S
O221 C227 1.272 1_554 S
O222 Zn212 1.910 1_554 S
O222 C228 1.231 1_554 S
C223 O207 1.225 . S
C223 O229 1.298 . S
C224 O213 1.226 . S
C224 O214 1.307 . S
C225 O217 1.303 . S
C225 O218 1.247 . S
C226 O215 1.253 . S
C226 O216 1.283 . S
C227 O219 1.304 . S
C227 O221 1.272 1_556 S
C228 O220 1.311 . S
C228 O222 1.231 1_556 S
O229 Zn211 1.953 . S
O229 C223 1.298 . S
O230 Zn231 1.953 . S
O230 C246 1.225 . S
Zn231 O230 1.953 . S
Zn231 O232 1.949 . S
Zn231 O238 1.919 . S
Zn231 O243 1.924 . S
O232 Zn231 1.949 . S
O232 Zn233 1.923 . S
O232 Zn234 1.950 . S
O232 Zn235 1.945 . S
Zn233 O232 1.923 . S
Zn233 O236 1.933 . S
Zn233 O239 1.941 . S
Zn233 O240 1.965 . S
Zn234 O232 1.950 . S
Zn234 O241 1.938 . S
Zn234 O242 1.906 . S
Zn234 O252 1.953 . S
Zn235 O232 1.945 . S
Zn235 O237 1.932 . S
Zn235 O244 1.977 . S
Zn235 O245 1.910 . S
O236 Zn233 1.933 . S
O236 C247 1.226 . S
O237 Zn235 1.932 . S
O237 C247 1.307 . S
O238 Zn231 1.919 . S
O238 C249 1.253 . S
O239 Zn233 1.941 . S
O239 C249 1.283 . S
O240 Zn233 1.965 . S
O240 C248 1.303 . S
O241 Zn234 1.938 . S
O241 C248 1.247 . S
O242 Zn234 1.906 . S
O242 C250 1.304 . S
O243 Zn231 1.924 . S
O243 C251 1.311 . S
O244 Zn235 1.977 . S
O244 C250 1.272 . S
O245 Zn235 1.910 . S
O245 C251 1.231 . S
C246 O230 1.225 . S
C246 O252 1.298 . S
C247 O236 1.226 . S
C247 O237 1.307 . S
C248 O240 1.303 . S
C248 O241 1.247 . S
C249 O238 1.253 . S
C249 O239 1.283 . S
C250 O242 1.304 . S
C250 O244 1.272 . S
C251 O243 1.311 . S
C251 O245 1.231 . S
O252 Zn234 1.953 . S
O252 C246 1.298 . S
O253 Zn254 1.953 . S
O253 C269 1.225 . S
Zn254 O253 1.953 . S
Zn254 O255 1.949 . S
Zn254 O261 1.919 . S
Zn254 O266 1.924 . S
O255 Zn254 1.949 . S
O255 Zn256 1.923 . S
O255 Zn257 1.950 . S
O255 Zn258 1.945 . S
Zn256 O255 1.923 . S
Zn256 O259 1.933 . S
Zn256 O262 1.941 . S
Zn256 O263 1.965 . S
Zn257 O255 1.950 . S
Zn257 O264 1.938 . S
Zn257 O265 1.906 . S
Zn257 O275 1.953 . S
Zn258 O255 1.945 . S
Zn258 O260 1.932 . S
Zn258 O267 1.977 . S
Zn258 O268 1.910 . S
O259 Zn256 1.933 . S
O259 C270 1.226 . S
O260 Zn258 1.932 . S
O260 C270 1.307 . S
O261 Zn254 1.919 . S
O261 C272 1.253 . S
O262 Zn256 1.941 . S
O262 C272 1.283 . S
O263 Zn256 1.965 . S
O263 C271 1.303 . S
O264 Zn257 1.938 . S
O264 C271 1.247 . S
O265 Zn257 1.906 . S
O265 C273 1.304 . S
O266 Zn254 1.924 . S
O266 C274 1.311 . S
O267 Zn258 1.977 . S
O267 C273 1.272 . S
O268 Zn258 1.910 . S
O268 C274 1.231 . S
C269 O253 1.225 . S
C269 O275 1.298 . S
C270 O259 1.226 . S
C270 O260 1.307 . S
C271 O263 1.303 . S
C271 O264 1.247 . S
C272 O261 1.253 . S
C272 O262 1.283 . S
C273 O265 1.304 . S
C273 O267 1.272 . S
C274 O266 1.311 . S
C274 O268 1.231 . S
O275 Zn257 1.953 . S
O275 C269 1.298 . S
O276 Zn277 1.953 . S
O276 C292 1.225 . S
Zn277 O276 1.953 . S
Zn277 O278 1.949 . S
Zn277 O284 1.919 . S
Zn277 O289 1.924 . S
O278 Zn277 1.949 . S
O278 Zn279 1.923 . S
O278 Zn280 1.950 . S
O278 Zn281 1.945 . S
Zn279 O278 1.923 . S
Zn279 O282 1.933 . S
Zn279 O285 1.941 . S
Zn279 O286 1.965 . S
Zn280 O278 1.950 . S
Zn280 O287 1.938 . S
Zn280 O288 1.906 . S
Zn280 O298 1.953 . S
Zn281 O278 1.945 . S
Zn281 O283 1.932 . S
Zn281 O290 1.977 1_655 S
Zn281 O291 1.910 1_655 S
O282 Zn279 1.933 . S
O282 C293 1.226 . S
O283 Zn281 1.932 . S
O283 C293 1.307 . S
O284 Zn277 1.919 . S
O284 C295 1.253 . S
O285 Zn279 1.941 . S
O285 C295 1.283 . S
O286 Zn279 1.965 . S
O286 C294 1.303 . S
O287 Zn280 1.938 . S
O287 C294 1.247 . S
O288 Zn280 1.906 . S
O288 C296 1.304 . S
O289 Zn277 1.924 . S
O289 C297 1.311 . S
O290 Zn281 1.977 1_455 S
O290 C296 1.272 1_455 S
O291 Zn281 1.910 1_455 S
O291 C297 1.231 1_455 S
C292 O276 1.225 . S
C292 O298 1.298 . S
C293 O282 1.226 . S
C293 O283 1.307 . S
C294 O286 1.303 . S
C294 O287 1.247 . S
C295 O284 1.253 . S
C295 O285 1.283 . S
C296 O288 1.304 . S
C296 O290 1.272 1_655 S
C297 O289 1.311 . S
C297 O291 1.231 1_655 S
O298 Zn280 1.953 . S
O298 C292 1.298 . S
O299 Zn300 1.953 . S
O299 C315 1.225 . S
Zn300 O299 1.953 . S
Zn300 O301 1.949 . S
Zn300 O307 1.919 . S
Zn300 O312 1.924 . S
O301 Zn300 1.949 . S
O301 Zn302 1.923 . S
O301 Zn303 1.950 . S
O301 Zn304 1.945 . S
Zn302 O301 1.923 . S
Zn302 O305 1.933 . S
Zn302 O308 1.941 . S
Zn302 O309 1.965 . S
Zn303 O301 1.950 . S
Zn303 O310 1.938 . S
Zn303 O311 1.906 . S
Zn303 O321 1.953 . S
Zn304 O301 1.945 . S
Zn304 O306 1.932 . S
Zn304 O313 1.977 . S
Zn304 O314 1.910 . S
O305 Zn302 1.933 . S
O305 C316 1.226 . S
O306 Zn304 1.932 . S
O306 C316 1.307 . S
O307 Zn300 1.919 . S
O307 C318 1.253 . S
O308 Zn302 1.941 . S
O308 C318 1.283 . S
O309 Zn302 1.965 . S
O309 C317 1.303 . S
O310 Zn303 1.938 . S
O310 C317 1.247 . S
O311 Zn303 1.906 . S
O311 C319 1.304 . S
O312 Zn300 1.924 . S
O312 C320 1.311 . S
O313 Zn304 1.977 . S
O313 C319 1.272 . S
O314 Zn304 1.910 . S
O314 C320 1.231 . S
C315 O299 1.225 . S
C315 O321 1.298 . S
C316 O305 1.226 . S
C316 O306 1.307 . S
C317 O309 1.303 . S
C317 O310 1.247 . S
C318 O307 1.253 . S
C318 O308 1.283 . S
C319 O311 1.304 . S
C319 O313 1.272 . S
C320 O312 1.311 . S
C320 O314 1.231 . S
O321 Zn303 1.953 . S
O321 C315 1.298 . S
O322 Zn323 1.953 . S
O322 C338 1.225 . S
Zn323 O322 1.953 . S
Zn323 O324 1.949 . S
Zn323 O330 1.919 . S
Zn323 O335 1.924 . S
O324 Zn323 1.949 . S
O324 Zn325 1.923 . S
O324 Zn326 1.950 . S
O324 Zn327 1.945 . S
Zn325 O324 1.923 . S
Zn325 O328 1.933 . S
Zn325 O331 1.941 . S
Zn325 O332 1.965 . S
Zn326 O324 1.950 . S
Zn326 O333 1.938 . S
Zn326 O334 1.906 . S
Zn326 O344 1.953 . S
Zn327 O324 1.945 . S
Zn327 O329 1.932 . S
Zn327 O336 1.977 . S
Zn327 O337 1.910 . S
O328 Zn325 1.933 . S
O328 C339 1.226 . S
O329 Zn327 1.932 . S
O329 C339 1.307 . S
O330 Zn323 1.919 . S
O330 C341 1.253 . S
O331 Zn325 1.941 . S
O331 C341 1.283 . S
O332 Zn325 1.965 . S
O332 C340 1.303 . S
O333 Zn326 1.938 . S
O333 C340 1.247 . S
O334 Zn326 1.906 . S
O334 C342 1.304 . S
O335 Zn323 1.924 . S
O335 C343 1.311 . S
O336 Zn327 1.977 . S
O336 C342 1.272 . S
O337 Zn327 1.910 . S
O337 C343 1.231 . S
C338 O322 1.225 . S
C338 O344 1.298 . S
C339 O328 1.226 . S
C339 O329 1.307 . S
C340 O332 1.303 . S
C340 O333 1.247 . S
C341 O330 1.253 . S
C341 O331 1.283 . S
C342 O334 1.304 . S
C342 O336 1.272 . S
C343 O335 1.311 . S
C343 O337 1.231 . S
O344 Zn326 1.953 . S
O344 C338 1.298 . S
O345 Zn346 1.953 . S
O345 C361 1.225 . S
Zn346 O345 1.953 . S
Zn346 O347 1.949 . S
Zn346 O353 1.919 . S
Zn346 O358 1.924 . S
O347 Zn346 1.949 . S
O347 Zn348 1.923 . S
O347 Zn349 1.950 . S
O347 Zn350 1.945 . S
Zn348 O347 1.923 . S
Zn348 O351 1.933 . S
Zn348 O354 1.941 . S
Zn348 O355 1.965 . S
Zn349 O347 1.950 . S
Zn349 O356 1.938 . S
Zn349 O357 1.906 . S
Zn349 O367 1.953 . S
Zn350 O347 1.945 . S
Zn350 O352 1.932 . S
Zn350 O359 1.977 1_455 S
Zn350 O360 1.910 1_455 S
O351 Zn348 1.933 . S
O351 C362 1.226 . S
O352 Zn350 1.932 . S
O352 C362 1.307 . S
O353 Zn346 1.919 . S
O353 C364 1.253 . S
O354 Zn348 1.941 . S
O354 C364 1.283 . S
O355 Zn348 1.965 . S
O355 C363 1.303 . S
O356 Zn349 1.938 . S
O356 C363 1.247 . S
O357 Zn349 1.906 . S
O357 C365 1.304 . S
O358 Zn346 1.924 . S
O358 C366 1.311 . S
O359 Zn350 1.977 1_655 S
O359 C365 1.272 1_655 S
O360 Zn350 1.910 1_655 S
O360 C366 1.231 1_655 S
C361 O345 1.225 . S
C361 O367 1.298 . S
C362 O351 1.226 . S
C362 O352 1.307 . S
C363 O355 1.303 . S
C363 O356 1.247 . S
C364 O353 1.253 . S
C364 O354 1.283 . S
C365 O357 1.304 . S
C365 O359 1.272 1_455 S
C366 O358 1.311 . S
C366 O360 1.231 1_455 S
O367 Zn349 1.953 . S
O367 C361 1.298 . S
O368 Zn369 1.953 . S
O368 C384 1.225 . S
Zn369 O368 1.953 . S
Zn369 O370 1.949 . S
Zn369 O376 1.919 . S
Zn369 O381 1.924 . S
O370 Zn369 1.949 . S
O370 Zn371 1.923 . S
O370 Zn372 1.950 . S
O370 Zn373 1.945 . S
Zn371 O370 1.923 . S
Zn371 O374 1.933 . S
Zn371 O377 1.941 . S
Zn371 O378 1.965 . S
Zn372 O370 1.950 . S
Zn372 O379 1.938 . S
Zn372 O380 1.906 . S
Zn372 O390 1.953 . S
Zn373 O370 1.945 . S
Zn373 O375 1.932 . S
Zn373 O382 1.977 1_565 S
Zn373 O383 1.910 1_565 S
O374 Zn371 1.933 . S
O374 C385 1.226 . S
O375 Zn373 1.932 . S
O375 C385 1.307 . S
O376 Zn369 1.919 . S
O376 C387 1.253 . S
O377 Zn371 1.941 . S
O377 C387 1.283 . S
O378 Zn371 1.965 . S
O378 C386 1.303 . S
O379 Zn372 1.938 . S
O379 C386 1.247 . S
O380 Zn372 1.906 . S
O380 C388 1.304 . S
O381 Zn369 1.924 . S
O381 C389 1.311 . S
O382 Zn373 1.977 1_545 S
O382 C388 1.272 1_545 S
O383 Zn373 1.910 1_545 S
O383 C389 1.231 1_545 S
C384 O368 1.225 . S
C384 O390 1.298 . S
C385 O374 1.226 . S
C385 O375 1.307 . S
C386 O378 1.303 . S
C386 O379 1.247 . S
C387 O376 1.253 . S
C387 O377 1.283 . S
C388 O380 1.304 . S
C388 O382 1.272 1_565 S
C389 O381 1.311 . S
C389 O383 1.231 1_565 S
O390 Zn372 1.953 . S
O390 C384 1.298 . S
O391 Zn392 1.953 . S
O391 C407 1.225 . S
Zn392 O391 1.953 . S
Zn392 O393 1.949 . S
Zn392 O399 1.919 . S
Zn392 O404 1.924 . S
O393 Zn392 1.949 . S
O393 Zn394 1.923 . S
O393 Zn395 1.950 . S
O393 Zn396 1.945 . S
Zn394 O393 1.923 . S
Zn394 O397 1.933 . S
Zn394 O400 1.941 . S
Zn394 O401 1.965 . S
Zn395 O393 1.950 . S
Zn395 O402 1.938 . S
Zn395 O403 1.906 . S
Zn395 O413 1.953 . S
Zn396 O393 1.945 . S
Zn396 O398 1.932 . S
Zn396 O405 1.977 1_545 S
Zn396 O406 1.910 1_545 S
O397 Zn394 1.933 . S
O397 C408 1.226 . S
O398 Zn396 1.932 . S
O398 C408 1.307 . S
O399 Zn392 1.919 . S
O399 C410 1.253 . S
O400 Zn394 1.941 . S
O400 C410 1.283 . S
O401 Zn394 1.965 . S
O401 C409 1.303 . S
O402 Zn395 1.938 . S
O402 C409 1.247 . S
O403 Zn395 1.906 . S
O403 C411 1.304 . S
O404 Zn392 1.924 . S
O404 C412 1.311 . S
O405 Zn396 1.977 1_565 S
O405 C411 1.272 1_565 S
O406 Zn396 1.910 1_565 S
O406 C412 1.231 1_565 S
C407 O391 1.225 . S
C407 O413 1.298 . S
C408 O397 1.226 . S
C408 O398 1.307 . S
C409 O401 1.303 . S
C409 O402 1.247 . S
C410 O399 1.253 . S
C410 O400 1.283 . S
C411 O403 1.304 . S
C411 O405 1.272 1_545 S
C412 O404 1.311 . S
C412 O406 1.231 1_545 S
O413 Zn395 1.953 . S
O413 C407 1.298 . S
O414 Zn415 1.953 . S
O414 C430 1.225 . S
Zn415 O414 1.953 . S
Zn415 O416 1.949 . S
Zn415 O422 1.919 . S
Zn415 O427 1.924 . S
O416 Zn415 1.949 . S
O416 Zn417 1.923 . S
O416 Zn418 1.950 . S
O416 Zn419 1.945 . S
Zn417 O416 1.923 . S
Zn417 O420 1.933 . S
Zn417 O423 1.941 . S
Zn417 O424 1.965 . S
Zn418 O416 1.950 . S
Zn418 O425 1.938 . S
Zn418 O426 1.906 . S
Zn418 O436 1.953 . S
Zn419 O416 1.945 . S
Zn419 O421 1.932 . S
Zn419 O428 1.977 . S
Zn419 O429 1.910 . S
O420 Zn417 1.933 . S
O420 C431 1.226 . S
O421 Zn419 1.932 . S
O421 C431 1.307 . S
O422 Zn415 1.919 . S
O422 C433 1.253 . S
O423 Zn417 1.941 . S
O423 C433 1.283 . S
O424 Zn417 1.965 . S
O424 C432 1.303 . S
O425 Zn418 1.938 . S
O425 C432 1.247 . S
O426 Zn418 1.906 . S
O426 C434 1.304 . S
O427 Zn415 1.924 . S
O427 C435 1.311 . S
O428 Zn419 1.977 . S
O428 C434 1.272 . S
O429 Zn419 1.910 . S
O429 C435 1.231 . S
C430 O414 1.225 . S
C430 O436 1.298 . S
C431 O420 1.226 . S
C431 O421 1.307 . S
C432 O424 1.303 . S
C432 O425 1.247 . S
C433 O422 1.253 . S
C433 O423 1.283 . S
C434 O426 1.304 . S
C434 O428 1.272 . S
C435 O427 1.311 . S
C435 O429 1.231 . S
O436 Zn418 1.953 . S
O436 C430 1.298 . S
O437 Zn438 1.953 . S
O437 C453 1.225 . S
Zn438 O437 1.953 . S
Zn438 O439 1.949 . S
Zn438 O445 1.919 . S
Zn438 O450 1.924 . S
O439 Zn438 1.949 . S
O439 Zn440 1.923 . S
O439 Zn441 1.950 . S
O439 Zn442 1.945 . S
Zn440 O439 1.923 . S
Zn440 O443 1.933 . S
Zn440 O446 1.941 . S
Zn440 O447 1.965 . S
Zn441 O439 1.950 . S
Zn441 O448 1.938 . S
Zn441 O449 1.906 . S
Zn441 O459 1.953 . S
Zn442 O439 1.945 . S
Zn442 O444 1.932 . S
Zn442 O451 1.977 . S
Zn442 O452 1.910 . S
O443 Zn440 1.933 . S
O443 C454 1.226 . S
O444 Zn442 1.932 . S
O444 C454 1.307 . S
O445 Zn438 1.919 . S
O445 C456 1.253 . S
O446 Zn440 1.941 . S
O446 C456 1.283 . S
O447 Zn440 1.965 . S
O447 C455 1.303 . S
O448 Zn441 1.938 . S
O448 C455 1.247 . S
O449 Zn441 1.906 . S
O449 C457 1.304 . S
O450 Zn438 1.924 . S
O450 C458 1.311 . S
O451 Zn442 1.977 . S
O451 C457 1.272 . S
O452 Zn442 1.910 . S
O452 C458 1.231 . S
C453 O437 1.225 . S
C453 O459 1.298 . S
C454 O443 1.226 . S
C454 O444 1.307 . S
C455 O447 1.303 . S
C455 O448 1.247 . S
C456 O445 1.253 . S
C456 O446 1.283 . S
C457 O449 1.304 . S
C457 O451 1.272 . S
C458 O450 1.311 . S
C458 O452 1.231 . S
O459 Zn441 1.953 . S
O459 C453 1.298 . S
O460 Zn461 1.953 . S
O460 C476 1.225 . S
Zn461 O460 1.953 . S
Zn461 O462 1.949 . S
Zn461 O468 1.919 . S
Zn461 O473 1.924 . S
O462 Zn461 1.949 . S
O462 Zn463 1.923 . S
O462 Zn464 1.950 . S
O462 Zn465 1.945 . S
Zn463 O462 1.923 . S
Zn463 O466 1.933 . S
Zn463 O469 1.941 . S
Zn463 O470 1.965 . S
Zn464 O462 1.950 . S
Zn464 O471 1.938 . S
Zn464 O472 1.906 . S
Zn464 O482 1.953 . S
Zn465 O462 1.945 . S
Zn465 O467 1.932 . S
Zn465 O474 1.977 1_556 S
Zn465 O475 1.910 1_556 S
O466 Zn463 1.933 . S
O466 C477 1.226 . S
O467 Zn465 1.932 . S
O467 C477 1.307 . S
O468 Zn461 1.919 . S
O468 C479 1.253 . S
O469 Zn463 1.941 . S
O469 C479 1.283 . S
O470 Zn463 1.965 . S
O470 C478 1.303 . S
O471 Zn464 1.938 . S
O471 C478 1.247 . S
O472 Zn464 1.906 . S
O472 C480 1.304 . S
O473 Zn461 1.924 . S
O473 C481 1.311 . S
O474 Zn465 1.977 1_554 S
O474 C480 1.272 1_554 S
O475 Zn465 1.910 1_554 S
O475 C481 1.231 1_554 S
C476 O460 1.225 . S
C476 O482 1.298 . S
C477 O466 1.226 . S
C477 O467 1.307 . S
C478 O470 1.303 . S
C478 O471 1.247 . S
C479 O468 1.253 . S
C479 O469 1.283 . S
C480 O472 1.304 . S
C480 O474 1.272 1_556 S
C481 O473 1.311 . S
C481 O475 1.231 1_556 S
O482 Zn464 1.953 . S
O482 C476 1.298 . S
O483 Zn484 1.953 . S
O483 C499 1.225 . S
Zn484 O483 1.953 . S
Zn484 O485 1.949 . S
Zn484 O491 1.919 . S
Zn484 O496 1.924 . S
O485 Zn484 1.949 . S
O485 Zn486 1.923 . S
O485 Zn487 1.950 . S
O485 Zn488 1.945 . S
Zn486 O485 1.923 . S
Zn486 O489 1.933 . S
Zn486 O492 1.941 . S
Zn486 O493 1.965 . S
Zn487 O485 1.950 . S
Zn487 O494 1.938 . S
Zn487 O495 1.906 . S
Zn487 O505 1.953 . S
Zn488 O485 1.945 . S
Zn488 O490 1.932 . S
Zn488 O497 1.977 1_554 S
Zn488 O498 1.910 1_554 S
O489 Zn486 1.933 . S
O489 C500 1.226 . S
O490 Zn488 1.932 . S
O490 C500 1.307 . S
O491 Zn484 1.919 . S
O491 C502 1.253 . S
O492 Zn486 1.941 . S
O492 C502 1.283 . S
O493 Zn486 1.965 . S
O493 C501 1.303 . S
O494 Zn487 1.938 . S
O494 C501 1.247 . S
O495 Zn487 1.906 . S
O495 C503 1.304 . S
O496 Zn484 1.924 . S
O496 C504 1.311 . S
O497 Zn488 1.977 1_556 S
O497 C503 1.272 1_556 S
O498 Zn488 1.910 1_556 S
O498 C504 1.231 1_556 S
C499 O483 1.225 . S
C499 O505 1.298 . S
C500 O489 1.226 . S
C500 O490 1.307 . S
C501 O493 1.303 . S
C501 O494 1.247 . S
C502 O491 1.253 . S
C502 O492 1.283 . S
C503 O495 1.304 . S
C503 O497 1.272 1_554 S
C504 O496 1.311 . S
C504 O498 1.231 1_554 S
O505 Zn487 1.953 . S
O505 C499 1.298 . S
O506 Zn507 1.953 . S
O506 C522 1.225 . S
Zn507 O506 1.953 . S
Zn507 O508 1.949 . S
Zn507 O514 1.919 . S
Zn507 O519 1.924 . S
O508 Zn507 1.949 . S
O508 Zn509 1.923 . S
O508 Zn510 1.950 . S
O508 Zn511 1.945 . S
Zn509 O508 1.923 . S
Zn509 O512 1.933 . S
Zn509 O515 1.941 . S
Zn509 O516 1.965 . S
Zn510 O508 1.950 . S
Zn510 O517 1.938 . S
Zn510 O518 1.906 . S
Zn510 O528 1.953 . S
Zn511 O508 1.945 . S
Zn511 O513 1.932 . S
Zn511 O520 1.977 . S
Zn511 O521 1.910 . S
O512 Zn509 1.933 . S
O512 C523 1.226 . S
O513 Zn511 1.932 . S
O513 C523 1.307 . S
O514 Zn507 1.919 . S
O514 C525 1.253 . S
O515 Zn509 1.941 . S
O515 C525 1.283 . S
O516 Zn509 1.965 . S
O516 C524 1.303 . S
O517 Zn510 1.938 . S
O517 C524 1.247 . S
O518 Zn510 1.906 . S
O518 C526 1.304 . S
O519 Zn507 1.924 . S
O519 C527 1.311 . S
O520 Zn511 1.977 . S
O520 C526 1.272 . S
O521 Zn511 1.910 . S
O521 C527 1.231 . S
C522 O506 1.225 . S
C522 O528 1.298 . S
C523 O512 1.226 . S
C523 O513 1.307 . S
C524 O516 1.303 . S
C524 O517 1.247 . S
C525 O514 1.253 . S
C525 O515 1.283 . S
C526 O518 1.304 . S
C526 O520 1.272 . S
C527 O519 1.311 . S
C527 O521 1.231 . S
O528 Zn510 1.953 . S
O528 C522 1.298 . S
O529 Zn530 1.953 . S
O529 C545 1.225 . S
Zn530 O529 1.953 . S
Zn530 O531 1.949 . S
Zn530 O537 1.919 . S
Zn530 O542 1.924 . S
O531 Zn530 1.949 . S
O531 Zn532 1.923 . S
O531 Zn533 1.950 . S
O531 Zn534 1.945 . S
Zn532 O531 1.923 . S
Zn532 O535 1.933 . S
Zn532 O538 1.941 . S
Zn532 O539 1.965 . S
Zn533 O531 1.950 . S
Zn533 O540 1.938 . S
Zn533 O541 1.906 . S
Zn533 O551 1.953 . S
Zn534 O531 1.945 . S
Zn534 O536 1.932 . S
Zn534 O543 1.977 . S
Zn534 O544 1.910 . S
O535 Zn532 1.933 . S
O535 C546 1.226 . S
O536 Zn534 1.932 . S
O536 C546 1.307 . S
O537 Zn530 1.919 . S
O537 C548 1.253 . S
O538 Zn532 1.941 . S
O538 C548 1.283 . S
O539 Zn532 1.965 . S
O539 C547 1.303 . S
O540 Zn533 1.938 . S
O540 C547 1.247 . S
O541 Zn533 1.906 . S
O541 C549 1.304 . S
O542 Zn530 1.924 . S
O542 C550 1.311 . S
O543 Zn534 1.977 . S
O543 C549 1.272 . S
O544 Zn534 1.910 . S
O544 C550 1.231 . S
C545 O529 1.225 . S
C545 O551 1.298 . S
C546 O535 1.226 . S
C546 O536 1.307 . S
C547 O539 1.303 . S
C547 O540 1.247 . S
C548 O537 1.253 . S
C548 O538 1.283 . S
C549 O541 1.304 . S
C549 O543 1.272 . S
C550 O542 1.311 . S
C550 O544 1.231 . S
O551 Zn533 1.953 . S
O551 C545 1.298 . S
C552 C553 1.349 . S
C552 C554 1.327 . S
C552 H577 0.950 . S
C553 C552 1.349 . S
C553 C569 1.349 . S
C554 C552 1.327 . S
C554 C573 1.429 . S
C554 H578 0.950 . S
C555 C572 1.574 . S
C555 C574 1.368 . S
C555 H579 0.949 . S
H556 C560 0.949 . S
C557 C558 1.349 . S
C557 C559 1.327 . S
C557 H580 0.950 . S
C558 C557 1.349 . S
C558 C570 1.349 . S
C559 C557 1.327 . S
C559 C575 1.429 . S
C559 H581 0.950 . S
C560 H556 0.949 . S
C560 C568 1.574 . S
C560 C576 1.368 . S
H561 C569 0.950 . S
H562 C567 0.950 . S
H563 C568 0.949 . S
H564 C570 0.950 . S
H565 C571 0.950 . S
H566 C572 0.949 . S
C567 H562 0.950 . S
C567 C569 1.327 . S
C567 C573 1.429 . S
C568 C560 1.574 . S
C568 H563 0.949 . S
C568 C574 1.368 . S
C569 C553 1.349 . S
C569 H561 0.950 . S
C569 C567 1.327 . S
C570 C558 1.349 . S
C570 H564 0.950 . S
C570 C571 1.327 . S
C571 H565 0.950 . S
C571 C570 1.327 . S
C571 C575 1.429 . S
C572 C555 1.574 . S
C572 H566 0.949 . S
C572 C576 1.368 . S
C573 C554 1.429 . S
C573 C567 1.429 . S
C573 C574 1.523 . S
C574 C555 1.368 . S
C574 C568 1.368 . S
C574 C573 1.523 . S
C575 C559 1.429 . S
C575 C571 1.429 . S
C575 C576 1.523 . S
C576 C560 1.368 . S
C576 C572 1.368 . S
C576 C575 1.523 . S
H577 C552 0.950 . S
H578 C554 0.950 . S
H579 C555 0.949 . S
H580 C557 0.950 . S
H581 C559 0.950 . S
C582 C583 1.349 . S
C582 C584 1.327 . S
C582 H607 0.950 . S
C583 C582 1.349 . S
C583 C599 1.349 . S
C584 C582 1.327 . S
C584 C603 1.429 . S
C584 H608 0.950 . S
C585 C602 1.574 . S
C585 C604 1.368 . S
C585 H609 0.949 . S
H586 C590 0.949 . S
C587 C588 1.349 . S
C587 C589 1.327 . S
C587 H610 0.950 . S
C588 C587 1.349 . S
C588 C600 1.349 . S
C589 C587 1.327 . S
C589 C605 1.429 . S
C589 H611 0.950 . S
C590 H586 0.949 . S
C590 C598 1.574 . S
C590 C606 1.368 . S
H591 C599 0.950 . S
H592 C597 0.950 . S
H593 C598 0.949 . S
H594 C600 0.950 . S
H595 C601 0.950 . S
H596 C602 0.949 . S
C597 H592 0.950 . S
C597 C599 1.327 . S
C597 C603 1.429 . S
C598 C590 1.574 . S
C598 H593 0.949 . S
C598 C604 1.368 . S
C599 C583 1.349 . S
C599 H591 0.950 . S
C599 C597 1.327 . S
C600 C588 1.349 . S
C600 H594 0.950 . S
C600 C601 1.327 . S
C601 H595 0.950 . S
C601 C600 1.327 . S
C601 C605 1.429 . S
C602 C585 1.574 . S
C602 H596 0.949 . S
C602 C606 1.368 . S
C603 C584 1.429 . S
C603 C597 1.429 . S
C603 C604 1.523 . S
C604 C585 1.368 . S
C604 C598 1.368 . S
C604 C603 1.523 . S
C605 C589 1.429 . S
C605 C601 1.429 . S
C605 C606 1.523 . S
C606 C590 1.368 . S
C606 C602 1.368 . S
C606 C605 1.523 . S
H607 C582 0.950 . S
H608 C584 0.950 . S
H609 C585 0.949 . S
H610 C587 0.950 . S
H611 C589 0.950 . S
C612 C613 1.349 . S
C612 C614 1.327 . S
C612 H637 0.950 . S
C613 C612 1.349 . S
C613 C629 1.349 . S
C614 C612 1.327 . S
C614 C633 1.429 . S
C614 H638 0.950 . S
C615 C632 1.574 . S
C615 C634 1.368 . S
C615 H639 0.949 . S
H616 C620 0.949 . S
C617 C618 1.355 . S
C617 C619 1.327 . S
C617 H640 0.946 1_545 S
C618 C617 1.355 . S
C618 C630 1.358 . S
C619 C617 1.327 . S
C619 C635 1.429 . S
C619 H641 0.950 . S
C620 H616 0.949 . S
C620 C628 1.574 . S
C620 C636 1.368 . S
H621 C629 0.950 . S
H622 C627 0.950 . S
H623 C628 0.949 . S
H624 C630 0.950 . S
H625 C631 0.950 . S
H626 C632 0.949 . S
C627 H622 0.950 . S
C627 C629 1.327 . S
C627 C633 1.429 . S
C628 C620 1.574 . S
C628 H623 0.949 . S
C628 C634 1.368 . S
C629 C613 1.349 . S
C629 H621 0.950 . S
C629 C627 1.327 . S
C630 C618 1.358 . S
C630 H624 0.950 . S
C630 C631 1.327 . S
C631 H625 0.950 . S
C631 C630 1.327 . S
C631 C635 1.429 . S
C632 C615 1.574 . S
C632 H626 0.949 . S
C632 C636 1.368 . S
C633 C614 1.429 . S
C633 C627 1.429 . S
C633 C634 1.523 . S
C634 C615 1.368 . S
C634 C628 1.368 . S
C634 C633 1.523 . S
C635 C619 1.429 . S
C635 C631 1.429 . S
C635 C636 1.523 . S
C636 C620 1.368 . S
C636 C632 1.368 . S
C636 C635 1.523 . S
H637 C612 0.950 . S
H638 C614 0.950 . S
H639 C615 0.949 . S
H640 C617 0.946 1_565 S
H641 C619 0.950 . S
C642 C643 1.349 . S
C642 C644 1.327 . S
C642 H667 0.950 . S
C643 C642 1.349 . S
C643 C659 1.349 . S
C644 C642 1.327 . S
C644 C663 1.429 . S
C644 H668 0.950 . S
C645 C662 1.574 . S
C645 C664 1.368 . S
C645 H669 0.949 . S
H646 C650 0.949 . S
C647 C648 1.371 . S
C647 C649 1.327 . S
C647 H670 0.950 . S
C648 C647 1.371 . S
C648 C660 1.342 1_565 S
C649 C647 1.327 . S
C649 C665 1.429 . S
C649 H671 0.950 . S
C650 H646 0.949 . S
C650 C658 1.574 . S
C650 C666 1.368 . S
H651 C659 0.950 . S
H652 C657 0.950 . S
H653 C658 0.949 . S
H654 C660 0.950 . S
H655 C661 0.950 . S
H656 C662 0.949 . S
C657 H652 0.950 . S
C657 C659 1.327 . S
C657 C663 1.429 . S
C658 C650 1.574 . S
C658 H653 0.949 . S
C658 C664 1.368 . S
C659 C643 1.349 . S
C659 H651 0.950 . S
C659 C657 1.327 . S
C660 C648 1.342 1_545 S
C660 H654 0.950 . S
C660 C661 1.327 1_545 S
C661 H655 0.950 . S
C661 C660 1.327 1_565 S
C661 C665 1.429 . S
C662 C645 1.574 . S
C662 H656 0.949 . S
C662 C666 1.368 . S
C663 C644 1.429 . S
C663 C657 1.429 . S
C663 C664 1.523 . S
C664 C645 1.368 . S
C664 C658 1.368 . S
C664 C663 1.523 . S
C665 C649 1.429 . S
C665 C661 1.429 . S
C665 C666 1.523 . S
C666 C650 1.368 . S
C666 C662 1.368 . S
C666 C665 1.523 . S
H667 C642 0.950 . S
H668 C644 0.950 . S
H669 C645 0.949 . S
H670 C647 0.950 . S
H671 C649 0.950 . S
C672 C673 1.349 . S
C672 C674 1.327 . S
C672 H697 0.950 . S
C673 C672 1.349 . S
C673 C689 1.349 . S
C674 C672 1.327 . S
C674 C693 1.429 . S
C674 H698 0.950 . S
C675 C692 1.574 . S
C675 C694 1.368 . S
C675 H699 0.949 . S
H676 C680 0.949 . S
C677 C678 1.349 . S
C677 C679 1.327 . S
C677 H700 0.950 . S
C678 C677 1.349 . S
C678 C690 1.349 . S
C679 C677 1.327 . S
C679 C695 1.429 . S
C679 H701 0.950 . S
C680 H676 0.949 . S
C680 C688 1.574 . S
C680 C696 1.368 . S
H681 C689 0.950 . S
H682 C687 0.950 . S
H683 C688 0.949 . S
H684 C690 0.950 . S
H685 C691 0.950 . S
H686 C692 0.949 . S
C687 H682 0.950 . S
C687 C689 1.327 . S
C687 C693 1.429 . S
C688 C680 1.574 . S
C688 H683 0.949 . S
C688 C694 1.368 . S
C689 C673 1.349 . S
C689 H681 0.950 . S
C689 C687 1.327 . S
C690 C678 1.349 . S
C690 H684 0.950 . S
C690 C691 1.327 . S
C691 H685 0.950 . S
C691 C690 1.327 . S
C691 C695 1.429 . S
C692 C675 1.574 . S
C692 H686 0.949 . S
C692 C696 1.368 . S
C693 C674 1.429 . S
C693 C687 1.429 . S
C693 C694 1.523 . S
C694 C675 1.368 . S
C694 C688 1.368 . S
C694 C693 1.523 . S
C695 C679 1.429 . S
C695 C691 1.429 . S
C695 C696 1.523 . S
C696 C680 1.368 . S
C696 C692 1.368 . S
C696 C695 1.523 . S
H697 C672 0.950 . S
H698 C674 0.950 . S
H699 C675 0.949 . S
H700 C677 0.950 . S
H701 C679 0.950 . S
C702 C703 1.349 . S
C702 C704 1.327 . S
C702 H727 0.950 . S
C703 C702 1.349 . S
C703 C719 1.349 . S
C704 C702 1.327 . S
C704 C723 1.429 . S
C704 H728 0.950 . S
C705 C722 1.574 . S
C705 C724 1.368 . S
C705 H729 0.949 . S
H706 C710 0.949 . S
C707 C708 1.349 . S
C707 C709 1.328 . S
C707 H730 0.949 1_556 S
C708 C707 1.349 . S
C708 C720 1.364 . S
C709 C707 1.328 . S
C709 C725 1.429 . S
C709 H731 0.950 . S
C710 H706 0.949 . S
C710 C718 1.574 . S
C710 C726 1.368 . S
H711 C719 0.950 . S
H712 C717 0.950 . S
H713 C718 0.949 . S
H714 C720 0.950 . S
H715 C721 0.950 . S
H716 C722 0.949 . S
C717 H712 0.950 . S
C717 C719 1.327 . S
C717 C723 1.429 . S
C718 C710 1.574 . S
C718 H713 0.949 . S
C718 C724 1.368 . S
C719 C703 1.349 . S
C719 H711 0.950 . S
C719 C717 1.327 . S
C720 C708 1.364 . S
C720 H714 0.950 . S
C720 C721 1.327 . S
C721 H715 0.950 . S
C721 C720 1.327 . S
C721 C725 1.429 . S
C722 C705 1.574 . S
C722 H716 0.949 . S
C722 C726 1.368 . S
C723 C704 1.429 . S
C723 C717 1.429 . S
C723 C724 1.523 . S
C724 C705 1.368 . S
C724 C718 1.368 . S
C724 C723 1.523 . S
C725 C709 1.429 . S
C725 C721 1.429 . S
C725 C726 1.523 . S
C726 C710 1.368 . S
C726 C722 1.368 . S
C726 C725 1.523 . S
H727 C702 0.950 . S
H728 C704 0.950 . S
H729 C705 0.949 . S
H730 C707 0.949 1_554 S
H731 C709 0.950 . S
C732 C733 1.349 . S
C732 C734 1.327 . S
C732 H757 0.950 . S
C733 C732 1.349 . S
C733 C749 1.349 . S
C734 C732 1.327 . S
C734 C753 1.429 . S
C734 H758 0.950 . S
C735 C752 1.574 . S
C735 C754 1.368 . S
C735 H759 0.949 . S
H736 C740 0.949 . S
C737 C738 1.349 . S
C737 C739 1.327 . S
C737 H760 0.950 . S
C738 C737 1.349 . S
C738 C750 1.349 . S
C739 C737 1.327 . S
C739 C755 1.429 . S
C739 H761 0.950 . S
C740 H736 0.949 . S
C740 C748 1.574 . S
C740 C756 1.368 . S
H741 C749 0.950 . S
H742 C747 0.950 . S
H743 C748 0.949 . S
H744 C750 0.950 . S
H745 C751 0.950 . S
H746 C752 0.949 . S
C747 H742 0.950 . S
C747 C749 1.327 . S
C747 C753 1.429 . S
C748 C740 1.574 . S
C748 H743 0.949 . S
C748 C754 1.368 . S
C749 C733 1.349 . S
C749 H741 0.950 . S
C749 C747 1.327 . S
C750 C738 1.349 . S
C750 H744 0.950 . S
C750 C751 1.327 . S
C751 H745 0.950 . S
C751 C750 1.327 . S
C751 C755 1.429 . S
C752 C735 1.574 . S
C752 H746 0.949 . S
C752 C756 1.368 . S
C753 C734 1.429 . S
C753 C747 1.429 . S
C753 C754 1.523 . S
C754 C735 1.368 . S
C754 C748 1.368 . S
C754 C753 1.523 . S
C755 C739 1.429 . S
C755 C751 1.429 . S
C755 C756 1.523 . S
C756 C740 1.368 . S
C756 C752 1.368 . S
C756 C755 1.523 . S
H757 C732 0.950 . S
H758 C734 0.950 . S
H759 C735 0.949 . S
H760 C737 0.950 . S
H761 C739 0.950 . S
C762 C763 1.349 . S
C762 C764 1.327 . S
C762 H787 0.950 . S
C763 C762 1.349 . S
C763 C779 1.349 . S
C764 C762 1.327 . S
C764 C783 1.429 . S
C764 H788 0.950 . S
C765 C782 1.574 . S
C765 C784 1.368 . S
C765 H789 0.949 . S
H766 C770 0.949 . S
C767 C768 1.371 . S
C767 C769 1.327 . S
C767 H790 0.950 . S
C768 C767 1.371 . S
C768 C780 1.342 1_554 S
C769 C767 1.327 . S
C769 C785 1.429 . S
C769 H791 0.950 . S
C770 H766 0.949 . S
C770 C778 1.574 . S
C770 C786 1.368 . S
H771 C779 0.950 . S
H772 C777 0.950 . S
H773 C778 0.949 . S
H774 C780 0.950 . S
H775 C781 0.950 . S
H776 C782 0.949 . S
C777 H772 0.950 . S
C777 C779 1.327 . S
C777 C783 1.429 . S
C778 C770 1.574 . S
C778 H773 0.949 . S
C778 C784 1.368 . S
C779 C763 1.349 . S
C779 H771 0.950 . S
C779 C777 1.327 . S
C780 C768 1.342 1_556 S
C780 H774 0.950 . S
C780 C781 1.327 1_556 S
C781 H775 0.950 . S
C781 C780 1.327 1_554 S
C781 C785 1.429 . S
C782 C765 1.574 . S
C782 H776 0.949 . S
C782 C786 1.368 . S
C783 C764 1.429 . S
C783 C777 1.429 . S
C783 C784 1.523 . S
C784 C765 1.368 . S
C784 C778 1.368 . S
C784 C783 1.523 . S
C785 C769 1.429 . S
C785 C781 1.429 . S
C785 C786 1.523 . S
C786 C770 1.368 . S
C786 C782 1.368 . S
C786 C785 1.523 . S
H787 C762 0.950 . S
H788 C764 0.950 . S
H789 C765 0.949 . S
H790 C767 0.950 . S
H791 C769 0.950 . S
C792 C793 1.349 . S
C792 C794 1.327 . S
C792 H817 0.950 . S
C793 C792 1.349 . S
C793 C809 1.349 . S
C794 C792 1.327 . S
C794 C813 1.429 . S
C794 H818 0.950 . S
C795 C812 1.574 . S
C795 C814 1.368 . S
C795 H819 0.949 . S
H796 C800 0.949 . S
C797 C798 1.349 . S
C797 C799 1.327 . S
C797 H820 0.950 . S
C798 C797 1.349 . S
C798 C810 1.349 . S
C799 C797 1.327 . S
C799 C815 1.429 . S
C799 H821 0.950 . S
C800 H796 0.949 . S
C800 C808 1.574 . S
C800 C816 1.368 . S
H801 C809 0.950 . S
H802 C807 0.950 . S
H803 C808 0.949 . S
H804 C810 0.950 . S
H805 C811 0.950 . S
H806 C812 0.949 . S
C807 H802 0.950 . S
C807 C809 1.327 . S
C807 C813 1.429 . S
C808 C800 1.574 . S
C808 H803 0.949 . S
C808 C814 1.368 . S
C809 C793 1.349 . S
C809 H801 0.950 . S
C809 C807 1.327 . S
C810 C798 1.349 . S
C810 H804 0.950 . S
C810 C811 1.327 . S
C811 H805 0.950 . S
C811 C810 1.327 . S
C811 C815 1.429 . S
C812 C795 1.574 . S
C812 H806 0.949 . S
C812 C816 1.368 . S
C813 C794 1.429 . S
C813 C807 1.429 . S
C813 C814 1.523 . S
C814 C795 1.368 . S
C814 C808 1.368 . S
C814 C813 1.523 . S
C815 C799 1.429 . S
C815 C811 1.429 . S
C815 C816 1.523 . S
C816 C800 1.368 . S
C816 C812 1.368 . S
C816 C815 1.523 . S
H817 C792 0.950 . S
H818 C794 0.950 . S
H819 C795 0.949 . S
H820 C797 0.950 . S
H821 C799 0.950 . S
C822 C823 1.349 . S
C822 C824 1.327 . S
C822 H847 0.950 . S
C823 C822 1.349 . S
C823 C839 1.349 . S
C824 C822 1.327 . S
C824 C843 1.429 . S
C824 H848 0.950 . S
C825 C842 1.574 . S
C825 C844 1.368 . S
C825 H849 0.949 . S
H826 C830 0.949 . S
C827 C828 1.346 1_455 S
C827 C829 1.327 1_455 S
C827 H850 0.950 . S
C828 C827 1.346 1_655 S
C828 C840 1.366 . S
C829 C827 1.327 1_655 S
C829 C845 1.429 . S
C829 H851 0.950 . S
C830 H826 0.949 . S
C830 C838 1.574 . S
C830 C846 1.368 . S
H831 C839 0.950 . S
H832 C837 0.950 . S
H833 C838 0.949 . S
H834 C840 0.950 . S
H835 C841 0.950 . S
H836 C842 0.949 . S
C837 H832 0.950 . S
C837 C839 1.327 . S
C837 C843 1.429 . S
C838 C830 1.574 . S
C838 H833 0.949 . S
C838 C844 1.368 . S
C839 C823 1.349 . S
C839 H831 0.950 . S
C839 C837 1.327 . S
C840 C828 1.366 . S
C840 H834 0.950 . S
C840 C841 1.327 . S
C841 H835 0.950 . S
C841 C840 1.327 . S
C841 C845 1.429 . S
C842 C825 1.574 . S
C842 H836 0.949 . S
C842 C846 1.368 . S
C843 C824 1.429 . S
C843 C837 1.429 . S
C843 C844 1.523 . S
C844 C825 1.368 . S
C844 C838 1.368 . S
C844 C843 1.523 . S
C845 C829 1.429 . S
C845 C841 1.429 . S
C845 C846 1.523 . S
C846 C830 1.368 . S
C846 C842 1.368 . S
C846 C845 1.523 . S
H847 C822 0.950 . S
H848 C824 0.950 . S
H849 C825 0.949 . S
H850 C827 0.950 . S
H851 C829 0.950 . S
C852 C853 1.349 . S
C852 C854 1.327 . S
C852 H877 0.950 . S
C853 C852 1.349 . S
C853 C869 1.349 . S
C854 C852 1.327 . S
C854 C873 1.429 . S
C854 H878 0.950 . S
C855 C872 1.574 . S
C855 C874 1.368 . S
C855 H879 0.949 . S
H856 C860 0.949 . S
C857 C858 1.349 . S
C857 C859 1.327 . S
C857 H880 0.950 . S
C858 C857 1.349 . S
C858 C870 1.349 . S
C859 C857 1.327 . S
C859 C875 1.429 . S
C859 H881 0.950 . S
C860 H856 0.949 . S
C860 C868 1.574 . S
C860 C876 1.368 . S
H861 C869 0.950 . S
H862 C867 0.950 . S
H863 C868 0.949 . S
H864 C870 0.950 . S
H865 C871 0.950 . S
H866 C872 0.949 . S
C867 H862 0.950 . S
C867 C869 1.327 . S
C867 C873 1.429 . S
C868 C860 1.574 . S
C868 H863 0.949 . S
C868 C874 1.368 . S
C869 C853 1.349 . S
C869 H861 0.950 . S
C869 C867 1.327 . S
C870 C858 1.349 . S
C870 H864 0.950 . S
C870 C871 1.327 . S
C871 H865 0.950 . S
C871 C870 1.327 . S
C871 C875 1.429 . S
C872 C855 1.574 . S
C872 H866 0.949 . S
C872 C876 1.368 . S
C873 C854 1.429 . S
C873 C867 1.429 . S
C873 C874 1.523 . S
C874 C855 1.368 . S
C874 C868 1.368 . S
C874 C873 1.523 . S
C875 C859 1.429 . S
C875 C871 1.429 . S
C875 C876 1.523 . S
C876 C860 1.368 . S
C876 C872 1.368 . S
C876 C875 1.523 . S
H877 C852 0.950 . S
H878 C854 0.950 . S
H879 C855 0.949 . S
H880 C857 0.950 . S
H881 C859 0.950 . S
C882 C883 1.349 . S
C882 C884 1.327 . S
C882 H907 0.950 . S
C883 C882 1.349 . S
C883 C899 1.349 . S
C884 C882 1.327 . S
C884 C903 1.429 . S
C884 H908 0.950 . S
C885 C902 1.574 . S
C885 C904 1.368 . S
C885 H909 0.949 . S
H886 C890 0.949 . S
C887 C888 1.355 . S
C887 C889 1.327 . S
C887 H910 0.968 . S
C888 C887 1.355 . S
C888 C900 1.357 . S
C889 C887 1.327 . S
C889 C905 1.429 . S
C889 H911 0.950 . S
C890 H886 0.949 . S
C890 C898 1.574 . S
C890 C906 1.368 . S
H891 C899 0.950 . S
H892 C897 0.950 . S
H893 C898 0.949 . S
H894 C900 0.950 . S
H895 C901 0.950 . S
H896 C902 0.949 . S
C897 H892 0.950 . S
C897 C899 1.327 . S
C897 C903 1.429 . S
C898 C890 1.574 . S
C898 H893 0.949 . S
C898 C904 1.368 . S
C899 C883 1.349 . S
C899 H891 0.950 . S
C899 C897 1.327 . S
C900 C888 1.357 . S
C900 H894 0.950 . S
C900 C901 1.327 . S
C901 H895 0.950 . S
C901 C900 1.327 . S
C901 C905 1.429 . S
C902 C885 1.574 . S
C902 H896 0.949 . S
C902 C906 1.368 . S
C903 C884 1.429 . S
C903 C897 1.429 . S
C903 C904 1.523 . S
C904 C885 1.368 . S
C904 C898 1.368 . S
C904 C903 1.523 . S
C905 C889 1.429 . S
C905 C901 1.429 . S
C905 C906 1.523 . S
C906 C890 1.368 . S
C906 C902 1.368 . S
C906 C905 1.523 . S
H907 C882 0.950 . S
H908 C884 0.950 . S
H909 C885 0.949 . S
H910 C887 0.968 . S
H911 C889 0.950 . S
C912 C913 1.349 . S
C912 C914 1.327 . S
C912 H937 0.950 . S
C913 C912 1.349 . S
C913 C929 1.349 . S
C914 C912 1.327 . S
C914 C933 1.429 . S
C914 H938 0.950 . S
C915 C932 1.574 . S
C915 C934 1.368 . S
C915 H939 0.949 . S
H916 C920 0.949 . S
C917 C918 1.349 . S
C917 C919 1.327 . S
C917 H940 0.950 . S
C918 C917 1.349 . S
C918 C930 1.349 . S
C919 C917 1.327 . S
C919 C935 1.429 . S
C919 H941 0.950 . S
C920 H916 0.949 . S
C920 C928 1.574 . S
C920 C936 1.368 . S
H921 C929 0.950 . S
H922 C927 0.950 . S
H923 C928 0.949 . S
H924 C930 0.950 . S
H925 C931 0.950 . S
H926 C932 0.949 . S
C927 H922 0.950 . S
C927 C929 1.327 . S
C927 C933 1.429 . S
C928 C920 1.574 . S
C928 H923 0.949 . S
C928 C934 1.368 . S
C929 C913 1.349 . S
C929 H921 0.950 . S
C929 C927 1.327 . S
C930 C918 1.349 . S
C930 H924 0.950 . S
C930 C931 1.327 . S
C931 H925 0.950 . S
C931 C930 1.327 . S
C931 C935 1.429 . S
C932 C915 1.574 . S
C932 H926 0.949 . S
C932 C936 1.368 . S
C933 C914 1.429 . S
C933 C927 1.429 . S
C933 C934 1.523 . S
C934 C915 1.368 . S
C934 C928 1.368 . S
C934 C933 1.523 . S
C935 C919 1.429 . S
C935 C931 1.429 . S
C935 C936 1.523 . S
C936 C920 1.368 . S
C936 C932 1.368 . S
C936 C935 1.523 . S
H937 C912 0.950 . S
H938 C914 0.950 . S
H939 C915 0.949 . S
H940 C917 0.950 . S
H941 C919 0.950 . S
C942 C943 1.349 . S
C942 C944 1.327 . S
C942 H967 0.950 . S
C943 C942 1.349 . S
C943 C959 1.349 . S
C944 C942 1.327 . S
C944 C963 1.429 . S
C944 H968 0.950 . S
C945 C962 1.574 . S
C945 C964 1.368 . S
C945 H969 0.949 . S
H946 C950 0.949 . S
C947 C948 1.349 . S
C947 C949 1.327 . S
C947 H970 0.950 . S
C948 C947 1.349 . S
C948 C960 1.349 . S
C949 C947 1.327 . S
C949 C965 1.429 . S
C949 H971 0.950 . S
C950 H946 0.949 . S
C950 C958 1.574 . S
C950 C966 1.368 . S
H951 C959 0.950 . S
H952 C957 0.950 . S
H953 C958 0.949 . S
H954 C960 0.950 . S
H955 C961 0.950 . S
H956 C962 0.949 . S
C957 H952 0.950 . S
C957 C959 1.327 . S
C957 C963 1.429 . S
C958 C950 1.574 . S
C958 H953 0.949 . S
C958 C964 1.368 . S
C959 C943 1.349 . S
C959 H951 0.950 . S
C959 C957 1.327 . S
C960 C948 1.349 . S
C960 H954 0.950 . S
C960 C961 1.327 . S
C961 H955 0.950 . S
C961 C960 1.327 . S
C961 C965 1.429 . S
C962 C945 1.574 . S
C962 H956 0.949 . S
C962 C966 1.368 . S
C963 C944 1.429 . S
C963 C957 1.429 . S
C963 C964 1.523 . S
C964 C945 1.368 . S
C964 C958 1.368 . S
C964 C963 1.523 . S
C965 C949 1.429 . S
C965 C961 1.429 . S
C965 C966 1.523 . S
C966 C950 1.368 . S
C966 C962 1.368 . S
C966 C965 1.523 . S
H967 C942 0.950 . S
H968 C944 0.950 . S
H969 C945 0.949 . S
H970 C947 0.950 . S
H971 C949 0.950 . S
C972 C973 1.349 . S
C972 C974 1.327 . S
C972 H997 0.950 . S
C973 C972 1.349 . S
C973 C989 1.349 . S
C974 C972 1.327 . S
C974 C993 1.429 . S
C974 H998 0.950 . S
C975 C992 1.574 . S
C975 C994 1.368 . S
C975 H999 0.949 . S
H976 C980 0.949 . S
C977 C978 1.354 . S
C977 C979 1.327 . S
C977 H1000 0.950 1_565 S
C978 C977 1.354 . S
C978 C990 1.359 . S
C979 C977 1.327 . S
C979 C995 1.429 . S
C979 H1001 0.950 . S
C980 H976 0.949 . S
C980 C988 1.574 . S
C980 C996 1.368 . S
H981 C989 0.950 . S
H982 C987 0.950 . S
H983 C988 0.949 . S
H984 C990 0.950 . S
H985 C991 0.950 . S
H986 C992 0.949 . S
C987 H982 0.950 . S
C987 C989 1.327 . S
C987 C993 1.429 . S
C988 C980 1.574 . S
C988 H983 0.949 . S
C988 C994 1.368 . S
C989 C973 1.349 . S
C989 H981 0.950 . S
C989 C987 1.327 . S
C990 C978 1.359 . S
C990 H984 0.950 . S
C990 C991 1.327 . S
C991 H985 0.950 . S
C991 C990 1.327 . S
C991 C995 1.429 . S
C992 C975 1.574 . S
C992 H986 0.949 . S
C992 C996 1.368 . S
C993 C974 1.429 . S
C993 C987 1.429 . S
C993 C994 1.523 . S
C994 C975 1.368 . S
C994 C988 1.368 . S
C994 C993 1.523 . S
C995 C979 1.429 . S
C995 C991 1.429 . S
C995 C996 1.523 . S
C996 C980 1.368 . S
C996 C992 1.368 . S
C996 C995 1.523 . S
H997 C972 0.950 . S
H998 C974 0.950 . S
H999 C975 0.949 . S
H1000 C977 0.950 1_545 S
H1001 C979 0.950 . S
C1002 C1003 1.363 . S
C1002 C1004 1.327 . S
C1002 H1027 0.950 . S
C1003 C1002 1.363 . S
C1003 C1019 1.350 . S
C1004 C1002 1.327 . S
C1004 C1023 1.429 . S
C1004 H1028 0.950 . S
C1005 C1022 1.574 . S
C1005 C1024 1.368 . S
C1005 H1029 0.949 . S
H1006 C1010 0.949 . S
C1007 C1008 1.349 . S
C1007 C1009 1.327 . S
C1007 H1030 0.950 . S
C1008 C1007 1.349 . S
C1008 C1020 1.349 . S
C1009 C1007 1.327 . S
C1009 C1025 1.429 . S
C1009 H1031 0.950 . S
C1010 H1006 0.949 . S
C1010 C1018 1.574 . S
C1010 C1026 1.368 . S
H1011 C1019 0.950 1_565 S
H1012 C1017 0.950 . S
H1013 C1018 0.949 . S
H1014 C1020 0.950 . S
H1015 C1021 0.950 . S
H1016 C1022 0.949 . S
C1017 H1012 0.950 . S
C1017 C1019 1.327 . S
C1017 C1023 1.429 . S
C1018 C1010 1.574 . S
C1018 H1013 0.949 . S
C1018 C1024 1.368 . S
C1019 C1003 1.350 . S
C1019 H1011 0.950 1_545 S
C1019 C1017 1.327 . S
C1020 C1008 1.349 . S
C1020 H1014 0.950 . S
C1020 C1021 1.327 . S
C1021 H1015 0.950 . S
C1021 C1020 1.327 . S
C1021 C1025 1.429 . S
C1022 C1005 1.574 . S
C1022 H1016 0.949 . S
C1022 C1026 1.368 . S
C1023 C1004 1.429 . S
C1023 C1017 1.429 . S
C1023 C1024 1.523 . S
C1024 C1005 1.368 . S
C1024 C1018 1.368 . S
C1024 C1023 1.523 . S
C1025 C1009 1.429 . S
C1025 C1021 1.429 . S
C1025 C1026 1.523 . S
C1026 C1010 1.368 . S
C1026 C1022 1.368 . S
C1026 C1025 1.523 . S
H1027 C1002 0.950 . S
H1028 C1004 0.950 . S
H1029 C1005 0.949 . S
H1030 C1007 0.950 . S
H1031 C1009 0.950 . S
C1032 C1033 1.349 . S
C1032 C1034 1.327 . S
C1032 H1057 0.950 . S
C1033 C1032 1.349 . S
C1033 C1049 1.349 . S
C1034 C1032 1.327 . S
C1034 C1053 1.429 . S
C1034 H1058 0.950 . S
C1035 C1052 1.574 . S
C1035 C1054 1.368 . S
C1035 H1059 0.949 . S
H1036 C1040 0.949 . S
C1037 C1038 1.349 . S
C1037 C1039 1.327 . S
C1037 H1060 0.950 . S
C1038 C1037 1.349 . S
C1038 C1050 1.349 . S
C1039 C1037 1.327 . S
C1039 C1055 1.429 . S
C1039 H1061 0.950 . S
C1040 H1036 0.949 . S
C1040 C1048 1.574 . S
C1040 C1056 1.368 . S
H1041 C1049 0.950 . S
H1042 C1047 0.950 . S
H1043 C1048 0.949 . S
H1044 C1050 0.950 . S
H1045 C1051 0.950 . S
H1046 C1052 0.949 . S
C1047 H1042 0.950 . S
C1047 C1049 1.327 . S
C1047 C1053 1.429 . S
C1048 C1040 1.574 . S
C1048 H1043 0.949 . S
C1048 C1054 1.368 . S
C1049 C1033 1.349 . S
C1049 H1041 0.950 . S
C1049 C1047 1.327 . S
C1050 C1038 1.349 . S
C1050 H1044 0.950 . S
C1050 C1051 1.327 . S
C1051 H1045 0.950 . S
C1051 C1050 1.327 . S
C1051 C1055 1.429 . S
C1052 C1035 1.574 . S
C1052 H1046 0.949 . S
C1052 C1056 1.368 . S
C1053 C1034 1.429 . S
C1053 C1047 1.429 . S
C1053 C1054 1.523 . S
C1054 C1035 1.368 . S
C1054 C1048 1.368 . S
C1054 C1053 1.523 . S
C1055 C1039 1.429 . S
C1055 C1051 1.429 . S
C1055 C1056 1.523 . S
C1056 C1040 1.368 . S
C1056 C1052 1.368 . S
C1056 C1055 1.523 . S
H1057 C1032 0.950 . S
H1058 C1034 0.950 . S
H1059 C1035 0.949 . S
H1060 C1037 0.950 . S
H1061 C1039 0.950 . S
C1062 C1063 1.367 . S
C1062 C1064 1.327 . S
C1062 H1087 0.950 . S
C1063 C1062 1.367 . S
C1063 C1079 1.345 1_554 S
C1064 C1062 1.327 . S
C1064 C1083 1.429 . S
C1064 H1088 0.950 . S
C1065 C1082 1.574 . S
C1065 C1084 1.368 . S
C1065 H1089 0.949 . S
H1066 C1070 0.949 . S
C1067 C1068 1.349 . S
C1067 C1069 1.327 . S
C1067 H1090 0.950 . S
C1068 C1067 1.349 . S
C1068 C1080 1.349 . S
C1069 C1067 1.327 . S
C1069 C1085 1.429 . S
C1069 H1091 0.950 . S
C1070 H1066 0.949 . S
C1070 C1078 1.574 . S
C1070 C1086 1.368 . S
H1071 C1079 0.950 . S
H1072 C1077 0.950 . S
H1073 C1078 0.949 . S
H1074 C1080 0.950 . S
H1075 C1081 0.950 . S
H1076 C1082 0.949 . S
C1077 H1072 0.950 . S
C1077 C1079 1.327 1_554 S
C1077 C1083 1.429 . S
C1078 C1070 1.574 . S
C1078 H1073 0.949 . S
C1078 C1084 1.368 . S
C1079 C1063 1.345 1_556 S
C1079 H1071 0.950 . S
C1079 C1077 1.327 1_556 S
C1080 C1068 1.349 . S
C1080 H1074 0.950 . S
C1080 C1081 1.327 . S
C1081 H1075 0.950 . S
C1081 C1080 1.327 . S
C1081 C1085 1.429 . S
C1082 C1065 1.574 . S
C1082 H1076 0.949 . S
C1082 C1086 1.368 . S
C1083 C1064 1.429 . S
C1083 C1077 1.429 . S
C1083 C1084 1.523 . S
C1084 C1065 1.368 . S
C1084 C1078 1.368 . S
C1084 C1083 1.523 . S
C1085 C1069 1.429 . S
C1085 C1081 1.429 . S
C1085 C1086 1.523 . S
C1086 C1070 1.368 . S
C1086 C1082 1.368 . S
C1086 C1085 1.523 . S
H1087 C1062 0.950 . S
H1088 C1064 0.950 . S
H1089 C1065 0.949 . S
H1090 C1067 0.950 . S
H1091 C1069 0.950 . S
C1092 C1093 1.349 . S
C1092 C1094 1.327 . S
C1092 H1117 0.950 . S
C1093 C1092 1.349 . S
C1093 C1109 1.349 . S
C1094 C1092 1.327 . S
C1094 C1113 1.429 . S
C1094 H1118 0.950 . S
C1095 C1112 1.574 . S
C1095 C1114 1.368 . S
C1095 H1119 0.949 . S
H1096 C1100 0.949 . S
C1097 C1098 1.349 . S
C1097 C1099 1.327 . S
C1097 H1120 0.950 . S
C1098 C1097 1.349 . S
C1098 C1110 1.349 . S
C1099 C1097 1.327 . S
C1099 C1115 1.429 . S
C1099 H1121 0.950 . S
C1100 H1096 0.949 . S
C1100 C1108 1.574 . S
C1100 C1116 1.368 . S
H1101 C1109 0.950 . S
H1102 C1107 0.950 . S
H1103 C1108 0.949 . S
H1104 C1110 0.950 . S
H1105 C1111 0.950 . S
H1106 C1112 0.949 . S
C1107 H1102 0.950 . S
C1107 C1109 1.327 . S
C1107 C1113 1.429 . S
C1108 C1100 1.574 . S
C1108 H1103 0.949 . S
C1108 C1114 1.368 . S
C1109 C1093 1.349 . S
C1109 H1101 0.950 . S
C1109 C1107 1.327 . S
C1110 C1098 1.349 . S
C1110 H1104 0.950 . S
C1110 C1111 1.327 . S
C1111 H1105 0.950 . S
C1111 C1110 1.327 . S
C1111 C1115 1.429 . S
C1112 C1095 1.574 . S
C1112 H1106 0.949 . S
C1112 C1116 1.368 . S
C1113 C1094 1.429 . S
C1113 C1107 1.429 . S
C1113 C1114 1.523 . S
C1114 C1095 1.368 . S
C1114 C1108 1.368 . S
C1114 C1113 1.523 . S
C1115 C1099 1.429 . S
C1115 C1111 1.429 . S
C1115 C1116 1.523 . S
C1116 C1100 1.368 . S
C1116 C1112 1.368 . S
C1116 C1115 1.523 . S
H1117 C1092 0.950 . S
H1118 C1094 0.950 . S
H1119 C1095 0.949 . S
H1120 C1097 0.950 . S
H1121 C1099 0.950 . S
C1122 C1123 1.355 . S
C1122 C1124 1.327 . S
C1122 H1147 0.955 . S
C1123 C1122 1.355 . S
C1123 C1139 1.358 . S
C1124 C1122 1.327 . S
C1124 C1143 1.429 . S
C1124 H1148 0.950 . S
C1125 C1142 1.574 . S
C1125 C1144 1.368 . S
C1125 H1149 0.949 . S
H1126 C1130 0.949 . S
C1127 C1128 1.349 . S
C1127 C1129 1.327 . S
C1127 H1150 0.950 . S
C1128 C1127 1.349 . S
C1128 C1140 1.349 . S
C1129 C1127 1.327 . S
C1129 C1145 1.429 . S
C1129 H1151 0.950 . S
C1130 H1126 0.949 . S
C1130 C1138 1.574 . S
C1130 C1146 1.368 . S
H1131 C1139 0.950 . S
H1132 C1137 0.950 . S
H1133 C1138 0.949 . S
H1134 C1140 0.950 . S
H1135 C1141 0.950 . S
H1136 C1142 0.949 . S
C1137 H1132 0.950 . S
C1137 C1139 1.327 . S
C1137 C1143 1.429 . S
C1138 C1130 1.574 . S
C1138 H1133 0.949 . S
C1138 C1144 1.368 . S
C1139 C1123 1.358 . S
C1139 H1131 0.950 . S
C1139 C1137 1.327 . S
C1140 C1128 1.349 . S
C1140 H1134 0.950 . S
C1140 C1141 1.327 . S
C1141 H1135 0.950 . S
C1141 C1140 1.327 . S
C1141 C1145 1.429 . S
C1142 C1125 1.574 . S
C1142 H1136 0.949 . S
C1142 C1146 1.368 . S
C1143 C1124 1.429 . S
C1143 C1137 1.429 . S
C1143 C1144 1.523 . S
C1144 C1125 1.368 . S
C1144 C1138 1.368 . S
C1144 C1143 1.523 . S
C1145 C1129 1.429 . S
C1145 C1141 1.429 . S
C1145 C1146 1.523 . S
C1146 C1130 1.368 . S
C1146 C1142 1.368 . S
C1146 C1145 1.523 . S
H1147 C1122 0.955 . S
H1148 C1124 0.950 . S
H1149 C1125 0.949 . S
H1150 C1127 0.950 . S
H1151 C1129 0.950 . S
C1152 C1153 1.349 . S
C1152 C1154 1.327 . S
C1152 H1177 0.950 . S
C1153 C1152 1.349 . S
C1153 C1169 1.349 . S
C1154 C1152 1.327 . S
C1154 C1173 1.429 . S
C1154 H1178 0.950 . S
C1155 C1172 1.574 . S
C1155 C1174 1.368 . S
C1155 H1179 0.949 . S
H1156 C1160 0.949 . S
C1157 C1158 1.349 . S
C1157 C1159 1.327 . S
C1157 H1180 0.950 . S
C1158 C1157 1.349 . S
C1158 C1170 1.349 . S
C1159 C1157 1.327 . S
C1159 C1175 1.429 . S
C1159 H1181 0.950 . S
C1160 H1156 0.949 . S
C1160 C1168 1.574 . S
C1160 C1176 1.368 . S
H1161 C1169 0.950 . S
H1162 C1167 0.950 . S
H1163 C1168 0.949 . S
H1164 C1170 0.950 . S
H1165 C1171 0.950 . S
H1166 C1172 0.949 . S
C1167 H1162 0.950 . S
C1167 C1169 1.327 . S
C1167 C1173 1.429 . S
C1168 C1160 1.574 . S
C1168 H1163 0.949 . S
C1168 C1174 1.368 . S
C1169 C1153 1.349 . S
C1169 H1161 0.950 . S
C1169 C1167 1.327 . S
C1170 C1158 1.349 . S
C1170 H1164 0.950 . S
C1170 C1171 1.327 . S
C1171 H1165 0.950 . S
C1171 C1170 1.327 . S
C1171 C1175 1.429 . S
C1172 C1155 1.574 . S
C1172 H1166 0.949 . S
C1172 C1176 1.368 . S
C1173 C1154 1.429 . S
C1173 C1167 1.429 . S
C1173 C1174 1.523 . S
C1174 C1155 1.368 . S
C1174 C1168 1.368 . S
C1174 C1173 1.523 . S
C1175 C1159 1.429 . S
C1175 C1171 1.429 . S
C1175 C1176 1.523 . S
C1176 C1160 1.368 . S
C1176 C1172 1.368 . S
C1176 C1175 1.523 . S
H1177 C1152 0.950 . S
H1178 C1154 0.950 . S
H1179 C1155 0.949 . S
H1180 C1157 0.950 . S
H1181 C1159 0.950 . S
C1182 C1183 1.371 . S
C1182 C1184 1.327 . S
C1182 H1207 0.950 . S
C1183 C1182 1.371 . S
C1183 C1199 1.342 1_455 S
C1184 C1182 1.327 . S
C1184 C1203 1.429 . S
C1184 H1208 0.950 . S
C1185 C1202 1.574 . S
C1185 C1204 1.368 . S
C1185 H1209 0.949 . S
H1186 C1190 0.949 . S
C1187 C1188 1.349 . S
C1187 C1189 1.327 . S
C1187 H1210 0.950 . S
C1188 C1187 1.349 . S
C1188 C1200 1.349 . S
C1189 C1187 1.327 . S
C1189 C1205 1.429 . S
C1189 H1211 0.950 . S
C1190 H1186 0.949 . S
C1190 C1198 1.574 . S
C1190 C1206 1.368 . S
H1191 C1199 0.950 . S
H1192 C1197 0.950 . S
H1193 C1198 0.949 . S
H1194 C1200 0.950 . S
H1195 C1201 0.950 . S
H1196 C1202 0.949 . S
C1197 H1192 0.950 . S
C1197 C1199 1.327 1_455 S
C1197 C1203 1.429 . S
C1198 C1190 1.574 . S
C1198 H1193 0.949 . S
C1198 C1204 1.368 . S
C1199 C1183 1.342 1_655 S
C1199 H1191 0.950 . S
C1199 C1197 1.327 1_655 S
C1200 C1188 1.349 . S
C1200 H1194 0.950 . S
C1200 C1201 1.327 . S
C1201 H1195 0.950 . S
C1201 C1200 1.327 . S
C1201 C1205 1.429 . S
C1202 C1185 1.574 . S
C1202 H1196 0.949 . S
C1202 C1206 1.368 . S
C1203 C1184 1.429 . S
C1203 C1197 1.429 . S
C1203 C1204 1.523 . S
C1204 C1185 1.368 . S
C1204 C1198 1.368 . S
C1204 C1203 1.523 . S
C1205 C1189 1.429 . S
C1205 C1201 1.429 . S
C1205 C1206 1.523 . S
C1206 C1190 1.368 . S
C1206 C1202 1.368 . S
C1206 C1205 1.523 . S
H1207 C1182 0.950 . S
H1208 C1184 0.950 . S
H1209 C1185 0.949 . S
H1210 C1187 0.950 . S
H1211 C1189 0.950 . S
C1212 C1213 1.349 . S
C1212 C1214 1.327 . S
C1212 H1237 0.950 . S
C1213 C1212 1.349 . S
C1213 C1229 1.349 . S
C1214 C1212 1.327 . S
C1214 C1233 1.429 . S
C1214 H1238 0.950 . S
C1215 C1232 1.574 . S
C1215 C1234 1.368 . S
C1215 H1239 0.949 . S
H1216 C1220 0.949 . S
C1217 C1218 1.349 . S
C1217 C1219 1.327 . S
C1217 H1240 0.950 . S
C1218 C1217 1.349 . S
C1218 C1230 1.349 . S
C1219 C1217 1.327 . S
C1219 C1235 1.429 . S
C1219 H1241 0.950 . S
C1220 H1216 0.949 . S
C1220 C1228 1.574 . S
C1220 C1236 1.368 . S
H1221 C1229 0.950 . S
H1222 C1227 0.950 . S
H1223 C1228 0.949 . S
H1224 C1230 0.950 . S
H1225 C1231 0.950 . S
H1226 C1232 0.949 . S
C1227 H1222 0.950 . S
C1227 C1229 1.327 . S
C1227 C1233 1.429 . S
C1228 C1220 1.574 . S
C1228 H1223 0.949 . S
C1228 C1234 1.368 . S
C1229 C1213 1.349 . S
C1229 H1221 0.950 . S
C1229 C1227 1.327 . S
C1230 C1218 1.349 . S
C1230 H1224 0.950 . S
C1230 C1231 1.327 . S
C1231 H1225 0.950 . S
C1231 C1230 1.327 . S
C1231 C1235 1.429 . S
C1232 C1215 1.574 . S
C1232 H1226 0.949 . S
C1232 C1236 1.368 . S
C1233 C1214 1.429 . S
C1233 C1227 1.429 . S
C1233 C1234 1.523 . S
C1234 C1215 1.368 . S
C1234 C1228 1.368 . S
C1234 C1233 1.523 . S
C1235 C1219 1.429 . S
C1235 C1231 1.429 . S
C1235 C1236 1.523 . S
C1236 C1220 1.368 . S
C1236 C1232 1.368 . S
C1236 C1235 1.523 . S
H1237 C1212 0.950 . S
H1238 C1214 0.950 . S
H1239 C1215 0.949 . S
H1240 C1217 0.950 . S
H1241 C1219 0.950 . S
C1242 C1243 1.349 . S
C1242 C1244 1.327 . S
C1242 H1267 0.950 . S
C1243 C1242 1.349 . S
C1243 C1259 1.349 . S
C1244 C1242 1.327 . S
C1244 C1263 1.429 . S
C1244 H1268 0.950 . S
C1245 C1262 1.574 . S
C1245 C1264 1.368 . S
C1245 H1269 0.949 . S
H1246 C1250 0.949 . S
C1247 C1248 1.361 . S
C1247 C1249 1.327 . S
C1247 H1270 0.950 . S
C1248 C1247 1.361 . S
C1248 C1260 1.352 . S
C1249 C1247 1.327 . S
C1249 C1265 1.429 . S
C1249 H1271 0.950 . S
C1250 H1246 0.949 . S
C1250 C1258 1.574 . S
C1250 C1266 1.368 . S
H1251 C1259 0.950 . S
H1252 C1257 0.950 . S
H1253 C1258 0.949 . S
H1254 C1260 0.950 1_455 S
H1255 C1261 0.950 . S
H1256 C1262 0.949 . S
C1257 H1252 0.950 . S
C1257 C1259 1.327 . S
C1257 C1263 1.429 . S
C1258 C1250 1.574 . S
C1258 H1253 0.949 . S
C1258 C1264 1.368 . S
C1259 C1243 1.349 . S
C1259 H1251 0.950 . S
C1259 C1257 1.327 . S
C1260 C1248 1.352 . S
C1260 H1254 0.950 1_655 S
C1260 C1261 1.327 . S
C1261 H1255 0.950 . S
C1261 C1260 1.327 . S
C1261 C1265 1.429 . S
C1262 C1245 1.574 . S
C1262 H1256 0.949 . S
C1262 C1266 1.368 . S
C1263 C1244 1.429 . S
C1263 C1257 1.429 . S
C1263 C1264 1.523 . S
C1264 C1245 1.368 . S
C1264 C1258 1.368 . S
C1264 C1263 1.523 . S
C1265 C1249 1.429 . S
C1265 C1261 1.429 . S
C1265 C1266 1.523 . S
C1266 C1250 1.368 . S
C1266 C1262 1.368 . S
C1266 C1265 1.523 . S
H1267 C1242 0.950 . S
H1268 C1244 0.950 . S
H1269 C1245 0.949 . S
H1270 C1247 0.950 . S
H1271 C1249 0.950 . S
C1272 C1273 1.349 . S
C1272 C1274 1.327 . S
C1272 H1297 0.950 . S
C1273 C1272 1.349 . S
C1273 C1289 1.349 . S
C1274 C1272 1.327 . S
C1274 C1293 1.429 . S
C1274 H1298 0.950 . S
C1275 C1292 1.574 . S
C1275 C1294 1.368 . S
C1275 H1299 0.949 . S
H1276 C1280 0.949 . S
C1277 C1278 1.349 . S
C1277 C1279 1.327 . S
C1277 H1300 0.950 . S
C1278 C1277 1.349 . S
C1278 C1290 1.349 . S
C1279 C1277 1.327 . S
C1279 C1295 1.429 . S
C1279 H1301 0.950 . S
C1280 H1276 0.949 . S
C1280 C1288 1.574 . S
C1280 C1296 1.368 . S
H1281 C1289 0.950 . S
H1282 C1287 0.950 . S
H1283 C1288 0.949 . S
H1284 C1290 0.950 . S
H1285 C1291 0.950 . S
H1286 C1292 0.949 . S
C1287 H1282 0.950 . S
C1287 C1289 1.327 . S
C1287 C1293 1.429 . S
C1288 C1280 1.574 . S
C1288 H1283 0.949 . S
C1288 C1294 1.368 . S
C1289 C1273 1.349 . S
C1289 H1281 0.950 . S
C1289 C1287 1.327 . S
C1290 C1278 1.349 . S
C1290 H1284 0.950 . S
C1290 C1291 1.327 . S
C1291 H1285 0.950 . S
C1291 C1290 1.327 . S
C1291 C1295 1.429 . S
C1292 C1275 1.574 . S
C1292 H1286 0.949 . S
C1292 C1296 1.368 . S
C1293 C1274 1.429 . S
C1293 C1287 1.429 . S
C1293 C1294 1.523 . S
C1294 C1275 1.368 . S
C1294 C1288 1.368 . S
C1294 C1293 1.523 . S
C1295 C1279 1.429 . S
C1295 C1291 1.429 . S
C1295 C1296 1.523 . S
C1296 C1280 1.368 . S
C1296 C1292 1.368 . S
C1296 C1295 1.523 . S
H1297 C1272 0.950 . S
H1298 C1274 0.950 . S
H1299 C1275 0.949 . S
H1300 C1277 0.950 . S
H1301 C1279 0.950 . S
C1302 C1303 1.349 . S
C1302 C1304 1.327 . S
C1302 H1327 0.950 . S
C1303 C1302 1.349 . S
C1303 C1319 1.349 . S
C1304 C1302 1.327 . S
C1304 C1323 1.429 . S
C1304 H1328 0.950 . S
C1305 C1322 1.574 . S
C1305 C1324 1.368 . S
C1305 H1329 0.949 . S
H1306 C1310 0.949 . S
C1307 C1308 1.349 . S
C1307 C1309 1.327 . S
C1307 H1330 0.950 . S
C1308 C1307 1.349 . S
C1308 C1320 1.349 . S
C1309 C1307 1.327 . S
C1309 C1325 1.429 . S
C1309 H1331 0.950 . S
C1310 H1306 0.949 . S
C1310 C1318 1.574 . S
C1310 C1326 1.368 . S
H1311 C1319 0.950 . S
H1312 C1317 0.950 . S
H1313 C1318 0.949 . S
H1314 C1320 0.950 . S
H1315 C1321 0.950 . S
H1316 C1322 0.949 . S
C1317 H1312 0.950 . S
C1317 C1319 1.327 . S
C1317 C1323 1.429 . S
C1318 C1310 1.574 . S
C1318 H1313 0.949 . S
C1318 C1324 1.368 . S
C1319 C1303 1.349 . S
C1319 H1311 0.950 . S
C1319 C1317 1.327 . S
C1320 C1308 1.349 . S
C1320 H1314 0.950 . S
C1320 C1321 1.327 . S
C1321 H1315 0.950 . S
C1321 C1320 1.327 . S
C1321 C1325 1.429 . S
C1322 C1305 1.574 . S
C1322 H1316 0.949 . S
C1322 C1326 1.368 . S
C1323 C1304 1.429 . S
C1323 C1317 1.429 . S
C1323 C1324 1.523 . S
C1324 C1305 1.368 . S
C1324 C1318 1.368 . S
C1324 C1323 1.523 . S
C1325 C1309 1.429 . S
C1325 C1321 1.429 . S
C1325 C1326 1.523 . S
C1326 C1310 1.368 . S
C1326 C1322 1.368 . S
C1326 C1325 1.523 . S
H1327 C1302 0.950 . S
H1328 C1304 0.950 . S
H1329 C1305 0.949 . S
H1330 C1307 0.950 . S
H1331 C1309 0.950 . S
C1332 C1333 1.349 . S
C1332 C1334 1.327 . S
C1332 H1357 0.950 . S
C1333 C1332 1.349 . S
C1333 C1349 1.349 . S
C1334 C1332 1.327 . S
C1334 C1353 1.429 . S
C1334 H1358 0.950 . S
C1335 C1352 1.574 . S
C1335 C1354 1.368 . S
C1335 H1359 0.949 . S
H1336 C1340 0.949 . S
C1337 C1338 1.349 . S
C1337 C1339 1.327 . S
C1337 H1360 0.950 . S
C1338 C1337 1.349 . S
C1338 C1350 1.349 . S
C1339 C1337 1.327 . S
C1339 C1355 1.429 . S
C1339 H1361 0.950 . S
C1340 H1336 0.949 . S
C1340 C1348 1.574 . S
C1340 C1356 1.368 . S
H1341 C1349 0.950 . S
H1342 C1347 0.950 . S
H1343 C1348 0.949 . S
H1344 C1350 0.950 . S
H1345 C1351 0.950 . S
H1346 C1352 0.949 . S
C1347 H1342 0.950 . S
C1347 C1349 1.327 . S
C1347 C1353 1.429 . S
C1348 C1340 1.574 . S
C1348 H1343 0.949 . S
C1348 C1354 1.368 . S
C1349 C1333 1.349 . S
C1349 H1341 0.950 . S
C1349 C1347 1.327 . S
C1350 C1338 1.349 . S
C1350 H1344 0.950 . S
C1350 C1351 1.327 . S
C1351 H1345 0.950 . S
C1351 C1350 1.327 . S
C1351 C1355 1.429 . S
C1352 C1335 1.574 . S
C1352 H1346 0.949 . S
C1352 C1356 1.368 . S
C1353 C1334 1.429 . S
C1353 C1347 1.429 . S
C1353 C1354 1.523 . S
C1354 C1335 1.368 . S
C1354 C1348 1.368 . S
C1354 C1353 1.523 . S
C1355 C1339 1.429 . S
C1355 C1351 1.429 . S
C1355 C1356 1.523 . S
C1356 C1340 1.368 . S
C1356 C1352 1.368 . S
C1356 C1355 1.523 . S
H1357 C1332 0.950 . S
H1358 C1334 0.950 . S
H1359 C1335 0.949 . S
H1360 C1337 0.950 . S
H1361 C1339 0.950 . S
C1362 C1363 1.349 . S
C1362 C1364 1.327 . S
C1362 H1387 0.950 . S
C1363 C1362 1.349 . S
C1363 C1379 1.349 . S
C1364 C1362 1.327 . S
C1364 C1383 1.429 . S
C1364 H1388 0.950 . S
C1365 C1382 1.574 . S
C1365 C1384 1.368 . S
C1365 H1389 0.949 . S
H1366 C1370 0.949 . S
C1367 C1368 1.349 . S
C1367 C1369 1.327 . S
C1367 H1390 0.950 . S
C1368 C1367 1.349 . S
C1368 C1380 1.349 . S
C1369 C1367 1.327 . S
C1369 C1385 1.429 . S
C1369 H1391 0.950 . S
C1370 H1366 0.949 . S
C1370 C1378 1.574 . S
C1370 C1386 1.368 . S
H1371 C1379 0.950 . S
H1372 C1377 0.950 . S
H1373 C1378 0.949 . S
H1374 C1380 0.950 . S
H1375 C1381 0.950 . S
H1376 C1382 0.949 . S
C1377 H1372 0.950 . S
C1377 C1379 1.327 . S
C1377 C1383 1.429 . S
C1378 C1370 1.574 . S
C1378 H1373 0.949 . S
C1378 C1384 1.368 . S
C1379 C1363 1.349 . S
C1379 H1371 0.950 . S
C1379 C1377 1.327 . S
C1380 C1368 1.349 . S
C1380 H1374 0.950 . S
C1380 C1381 1.327 . S
C1381 H1375 0.950 . S
C1381 C1380 1.327 . S
C1381 C1385 1.429 . S
C1382 C1365 1.574 . S
C1382 H1376 0.949 . S
C1382 C1386 1.368 . S
C1383 C1364 1.429 . S
C1383 C1377 1.429 . S
C1383 C1384 1.523 . S
C1384 C1365 1.368 . S
C1384 C1378 1.368 . S
C1384 C1383 1.523 . S
C1385 C1369 1.429 . S
C1385 C1381 1.429 . S
C1385 C1386 1.523 . S
C1386 C1370 1.368 . S
C1386 C1382 1.368 . S
C1386 C1385 1.523 . S
H1387 C1362 0.950 . S
H1388 C1364 0.950 . S
H1389 C1365 0.949 . S
H1390 C1367 0.950 . S
H1391 C1369 0.950 . S
C1392 C1393 1.349 . S
C1392 C1394 1.327 . S
C1392 H1417 0.950 . S
C1393 C1392 1.349 . S
C1393 C1409 1.349 . S
C1394 C1392 1.327 . S
C1394 C1413 1.429 . S
C1394 H1418 0.950 . S
C1395 C1412 1.574 . S
C1395 C1414 1.368 . S
C1395 H1419 0.949 . S
H1396 C1400 0.949 . S
C1397 C1398 1.349 . S
C1397 C1399 1.327 . S
C1397 H1420 0.950 . S
C1398 C1397 1.349 . S
C1398 C1410 1.349 . S
C1399 C1397 1.327 . S
C1399 C1415 1.429 . S
C1399 H1421 0.950 . S
C1400 H1396 0.949 . S
C1400 C1408 1.574 . S
C1400 C1416 1.368 . S
H1401 C1409 0.950 . S
H1402 C1407 0.950 . S
H1403 C1408 0.949 . S
H1404 C1410 0.950 . S
H1405 C1411 0.950 . S
H1406 C1412 0.949 . S
C1407 H1402 0.950 . S
C1407 C1409 1.327 . S
C1407 C1413 1.429 . S
C1408 C1400 1.574 . S
C1408 H1403 0.949 . S
C1408 C1414 1.368 . S
C1409 C1393 1.349 . S
C1409 H1401 0.950 . S
C1409 C1407 1.327 . S
C1410 C1398 1.349 . S
C1410 H1404 0.950 . S
C1410 C1411 1.327 . S
C1411 H1405 0.950 . S
C1411 C1410 1.327 . S
C1411 C1415 1.429 . S
C1412 C1395 1.574 . S
C1412 H1406 0.949 . S
C1412 C1416 1.368 . S
C1413 C1394 1.429 . S
C1413 C1407 1.429 . S
C1413 C1414 1.523 . S
C1414 C1395 1.368 . S
C1414 C1408 1.368 . S
C1414 C1413 1.523 . S
C1415 C1399 1.429 . S
C1415 C1411 1.429 . S
C1415 C1416 1.523 . S
C1416 C1400 1.368 . S
C1416 C1412 1.368 . S
C1416 C1415 1.523 . S
H1417 C1392 0.950 . S
H1418 C1394 0.950 . S
H1419 C1395 0.949 . S
H1420 C1397 0.950 . S
H1421 C1399 0.950 . S
C1422 C1423 1.349 . S
C1422 C1424 1.327 . S
C1422 H1447 0.950 . S
C1423 C1422 1.349 . S
C1423 C1439 1.349 . S
C1424 C1422 1.327 . S
C1424 C1443 1.429 . S
C1424 H1448 0.950 . S
C1425 C1442 1.574 . S
C1425 C1444 1.368 . S
C1425 H1449 0.949 . S
H1426 C1430 0.949 . S
C1427 C1428 1.349 . S
C1427 C1429 1.327 . S
C1427 H1450 0.950 . S
C1428 C1427 1.349 . S
C1428 C1440 1.349 . S
C1429 C1427 1.327 . S
C1429 C1445 1.429 . S
C1429 H1451 0.950 . S
C1430 H1426 0.949 . S
C1430 C1438 1.574 . S
C1430 C1446 1.368 . S
H1431 C1439 0.950 . S
H1432 C1437 0.950 . S
H1433 C1438 0.949 . S
H1434 C1440 0.950 . S
H1435 C1441 0.950 . S
H1436 C1442 0.949 . S
C1437 H1432 0.950 . S
C1437 C1439 1.327 . S
C1437 C1443 1.429 . S
C1438 C1430 1.574 . S
C1438 H1433 0.949 . S
C1438 C1444 1.368 . S
C1439 C1423 1.349 . S
C1439 H1431 0.950 . S
C1439 C1437 1.327 . S
C1440 C1428 1.349 . S
C1440 H1434 0.950 . S
C1440 C1441 1.327 . S
C1441 H1435 0.950 . S
C1441 C1440 1.327 . S
C1441 C1445 1.429 . S
C1442 C1425 1.574 . S
C1442 H1436 0.949 . S
C1442 C1446 1.368 . S
C1443 C1424 1.429 . S
C1443 C1437 1.429 . S
C1443 C1444 1.523 . S
C1444 C1425 1.368 . S
C1444 C1438 1.368 . S
C1444 C1443 1.523 . S
C1445 C1429 1.429 . S
C1445 C1441 1.429 . S
C1445 C1446 1.523 . S
C1446 C1430 1.368 . S
C1446 C1442 1.368 . S
C1446 C1445 1.523 . S
H1447 C1422 0.950 . S
H1448 C1424 0.950 . S
H1449 C1425 0.949 . S
H1450 C1427 0.950 . S
H1451 C1429 0.950 . S
C1452 C1453 1.349 . S
C1452 C1454 1.327 . S
C1452 H1477 0.950 . S
C1453 C1452 1.349 . S
C1453 C1469 1.349 . S
C1454 C1452 1.327 . S
C1454 C1473 1.429 . S
C1454 H1478 0.950 . S
C1455 C1472 1.574 . S
C1455 C1474 1.368 . S
C1455 H1479 0.949 . S
H1456 C1460 0.949 . S
C1457 C1458 1.349 . S
C1457 C1459 1.327 . S
C1457 H1480 0.950 . S
C1458 C1457 1.349 . S
C1458 C1470 1.349 . S
C1459 C1457 1.327 . S
C1459 C1475 1.429 . S
C1459 H1481 0.950 . S
C1460 H1456 0.949 . S
C1460 C1468 1.574 . S
C1460 C1476 1.368 . S
H1461 C1469 0.950 . S
H1462 C1467 0.950 . S
H1463 C1468 0.949 . S
H1464 C1470 0.950 . S
H1465 C1471 0.950 . S
H1466 C1472 0.949 . S
C1467 H1462 0.950 . S
C1467 C1469 1.327 . S
C1467 C1473 1.429 . S
C1468 C1460 1.574 . S
C1468 H1463 0.949 . S
C1468 C1474 1.368 . S
C1469 C1453 1.349 . S
C1469 H1461 0.950 . S
C1469 C1467 1.327 . S
C1470 C1458 1.349 . S
C1470 H1464 0.950 . S
C1470 C1471 1.327 . S
C1471 H1465 0.950 . S
C1471 C1470 1.327 . S
C1471 C1475 1.429 . S
C1472 C1455 1.574 . S
C1472 H1466 0.949 . S
C1472 C1476 1.368 . S
C1473 C1454 1.429 . S
C1473 C1467 1.429 . S
C1473 C1474 1.523 . S
C1474 C1455 1.368 . S
C1474 C1468 1.368 . S
C1474 C1473 1.523 . S
C1475 C1459 1.429 . S
C1475 C1471 1.429 . S
C1475 C1476 1.523 . S
C1476 C1460 1.368 . S
C1476 C1472 1.368 . S
C1476 C1475 1.523 . S
H1477 C1452 0.950 . S
H1478 C1454 0.950 . S
H1479 C1455 0.949 . S
H1480 C1457 0.950 . S
H1481 C1459 0.950 . S
C1482 C1483 1.349 . S
C1482 C1484 1.327 . S
C1482 H1507 0.950 . S
C1483 C1482 1.349 . S
C1483 C1499 1.349 . S
C1484 C1482 1.327 . S
C1484 C1503 1.429 . S
C1484 H1508 0.950 . S
C1485 C1502 1.574 . S
C1485 C1504 1.368 . S
C1485 H1509 0.949 . S
H1486 C1490 0.949 . S
C1487 C1488 1.349 . S
C1487 C1489 1.327 . S
C1487 H1510 0.950 . S
C1488 C1487 1.349 . S
C1488 C1500 1.349 . S
C1489 C1487 1.327 . S
C1489 C1505 1.429 . S
C1489 H1511 0.950 . S
C1490 H1486 0.949 . S
C1490 C1498 1.574 . S
C1490 C1506 1.368 . S
H1491 C1499 0.950 . S
H1492 C1497 0.950 . S
H1493 C1498 0.949 . S
H1494 C1500 0.950 . S
H1495 C1501 0.950 . S
H1496 C1502 0.949 . S
C1497 H1492 0.950 . S
C1497 C1499 1.327 . S
C1497 C1503 1.429 . S
C1498 C1490 1.574 . S
C1498 H1493 0.949 . S
C1498 C1504 1.368 . S
C1499 C1483 1.349 . S
C1499 H1491 0.950 . S
C1499 C1497 1.327 . S
C1500 C1488 1.349 . S
C1500 H1494 0.950 . S
C1500 C1501 1.327 . S
C1501 H1495 0.950 . S
C1501 C1500 1.327 . S
C1501 C1505 1.429 . S
C1502 C1485 1.574 . S
C1502 H1496 0.949 . S
C1502 C1506 1.368 . S
C1503 C1484 1.429 . S
C1503 C1497 1.429 . S
C1503 C1504 1.523 . S
C1504 C1485 1.368 . S
C1504 C1498 1.368 . S
C1504 C1503 1.523 . S
C1505 C1489 1.429 . S
C1505 C1501 1.429 . S
C1505 C1506 1.523 . S
C1506 C1490 1.368 . S
C1506 C1502 1.368 . S
C1506 C1505 1.523 . S
H1507 C1482 0.950 . S
H1508 C1484 0.950 . S
H1509 C1485 0.949 . S
H1510 C1487 0.950 . S
H1511 C1489 0.950 . S
C1512 C1513 1.349 . S
C1512 C1514 1.327 . S
C1512 H1537 0.950 . S
C1513 C1512 1.349 . S
C1513 C1529 1.349 . S
C1514 C1512 1.327 . S
C1514 C1533 1.429 . S
C1514 H1538 0.950 . S
C1515 C1532 1.574 . S
C1515 C1534 1.368 . S
C1515 H1539 0.949 . S
H1516 C1520 0.949 . S
C1517 C1518 1.349 . S
C1517 C1519 1.327 . S
C1517 H1540 0.950 . S
C1518 C1517 1.349 . S
C1518 C1530 1.349 . S
C1519 C1517 1.327 . S
C1519 C1535 1.429 . S
C1519 H1541 0.950 . S
C1520 H1516 0.949 . S
C1520 C1528 1.574 . S
C1520 C1536 1.368 . S
H1521 C1529 0.950 . S
H1522 C1527 0.950 . S
H1523 C1528 0.949 . S
H1524 C1530 0.950 . S
H1525 C1531 0.950 . S
H1526 C1532 0.949 . S
C1527 H1522 0.950 . S
C1527 C1529 1.327 . S
C1527 C1533 1.429 . S
C1528 C1520 1.574 . S
C1528 H1523 0.949 . S
C1528 C1534 1.368 . S
C1529 C1513 1.349 . S
C1529 H1521 0.950 . S
C1529 C1527 1.327 . S
C1530 C1518 1.349 . S
C1530 H1524 0.950 . S
C1530 C1531 1.327 . S
C1531 H1525 0.950 . S
C1531 C1530 1.327 . S
C1531 C1535 1.429 . S
C1532 C1515 1.574 . S
C1532 H1526 0.949 . S
C1532 C1536 1.368 . S
C1533 C1514 1.429 . S
C1533 C1527 1.429 . S
C1533 C1534 1.523 . S
C1534 C1515 1.368 . S
C1534 C1528 1.368 . S
C1534 C1533 1.523 . S
C1535 C1519 1.429 . S
C1535 C1531 1.429 . S
C1535 C1536 1.523 . S
C1536 C1520 1.368 . S
C1536 C1532 1.368 . S
C1536 C1535 1.523 . S
H1537 C1512 0.950 . S
H1538 C1514 0.950 . S
H1539 C1515 0.949 . S
H1540 C1517 0.950 . S
H1541 C1519 0.950 . S
C1542 C1543 1.349 . S
C1542 C1544 1.327 . S
C1542 H1567 0.950 . S
C1543 C1542 1.349 . S
C1543 C1559 1.349 . S
C1544 C1542 1.327 . S
C1544 C1563 1.429 . S
C1544 H1568 0.950 . S
C1545 C1562 1.574 . S
C1545 C1564 1.368 . S
C1545 H1569 0.949 . S
H1546 C1550 0.949 . S
C1547 C1548 1.349 . S
C1547 C1549 1.327 . S
C1547 H1570 0.950 . S
C1548 C1547 1.349 . S
C1548 C1560 1.349 . S
C1549 C1547 1.327 . S
C1549 C1565 1.429 . S
C1549 H1571 0.950 . S
C1550 H1546 0.949 . S
C1550 C1558 1.574 . S
C1550 C1566 1.368 . S
H1551 C1559 0.950 . S
H1552 C1557 0.950 . S
H1553 C1558 0.949 . S
H1554 C1560 0.950 . S
H1555 C1561 0.950 . S
H1556 C1562 0.949 . S
C1557 H1552 0.950 . S
C1557 C1559 1.327 . S
C1557 C1563 1.429 . S
C1558 C1550 1.574 . S
C1558 H1553 0.949 . S
C1558 C1564 1.368 . S
C1559 C1543 1.349 . S
C1559 H1551 0.950 . S
C1559 C1557 1.327 . S
C1560 C1548 1.349 . S
C1560 H1554 0.950 . S
C1560 C1561 1.327 . S
C1561 H1555 0.950 . S
C1561 C1560 1.327 . S
C1561 C1565 1.429 . S
C1562 C1545 1.574 . S
C1562 H1556 0.949 . S
C1562 C1566 1.368 . S
C1563 C1544 1.429 . S
C1563 C1557 1.429 . S
C1563 C1564 1.523 . S
C1564 C1545 1.368 . S
C1564 C1558 1.368 . S
C1564 C1563 1.523 . S
C1565 C1549 1.429 . S
C1565 C1561 1.429 . S
C1565 C1566 1.523 . S
C1566 C1550 1.368 . S
C1566 C1562 1.368 . S
C1566 C1565 1.523 . S
H1567 C1542 0.950 . S
H1568 C1544 0.950 . S
H1569 C1545 0.949 . S
H1570 C1547 0.950 . S
H1571 C1549 0.950 . S
C1572 C1573 1.349 . S
C1572 C1574 1.327 . S
C1572 H1597 0.950 . S
C1573 C1572 1.349 . S
C1573 C1589 1.349 . S
C1574 C1572 1.327 . S
C1574 C1593 1.429 . S
C1574 H1598 0.950 . S
C1575 C1592 1.574 . S
C1575 C1594 1.368 . S
C1575 H1599 0.949 . S
H1576 C1580 0.949 . S
C1577 C1578 1.349 . S
C1577 C1579 1.327 . S
C1577 H1600 0.950 . S
C1578 C1577 1.349 . S
C1578 C1590 1.349 . S
C1579 C1577 1.327 . S
C1579 C1595 1.429 . S
C1579 H1601 0.950 . S
C1580 H1576 0.949 . S
C1580 C1588 1.574 . S
C1580 C1596 1.368 . S
H1581 C1589 0.950 . S
H1582 C1587 0.950 . S
H1583 C1588 0.949 . S
H1584 C1590 0.950 . S
H1585 C1591 0.950 . S
H1586 C1592 0.949 . S
C1587 H1582 0.950 . S
C1587 C1589 1.327 . S
C1587 C1593 1.429 . S
C1588 C1580 1.574 . S
C1588 H1583 0.949 . S
C1588 C1594 1.368 . S
C1589 C1573 1.349 . S
C1589 H1581 0.950 . S
C1589 C1587 1.327 . S
C1590 C1578 1.349 . S
C1590 H1584 0.950 . S
C1590 C1591 1.327 . S
C1591 H1585 0.950 . S
C1591 C1590 1.327 . S
C1591 C1595 1.429 . S
C1592 C1575 1.574 . S
C1592 H1586 0.949 . S
C1592 C1596 1.368 . S
C1593 C1574 1.429 . S
C1593 C1587 1.429 . S
C1593 C1594 1.523 . S
C1594 C1575 1.368 . S
C1594 C1588 1.368 . S
C1594 C1593 1.523 . S
C1595 C1579 1.429 . S
C1595 C1591 1.429 . S
C1595 C1596 1.523 . S
C1596 C1580 1.368 . S
C1596 C1592 1.368 . S
C1596 C1595 1.523 . S
H1597 C1572 0.950 . S
H1598 C1574 0.950 . S
H1599 C1575 0.949 . S
H1600 C1577 0.950 . S
H1601 C1579 0.950 . S
C1602 C1603 1.349 . S
C1602 C1604 1.327 . S
C1602 H1627 0.950 . S
C1603 C1602 1.349 . S
C1603 C1619 1.349 . S
C1604 C1602 1.327 . S
C1604 C1623 1.429 . S
C1604 H1628 0.950 . S
C1605 C1622 1.574 . S
C1605 C1624 1.368 . S
C1605 H1629 0.949 . S
H1606 C1610 0.949 . S
C1607 C1608 1.349 . S
C1607 C1609 1.327 . S
C1607 H1630 0.950 . S
C1608 C1607 1.349 . S
C1608 C1620 1.349 . S
C1609 C1607 1.327 . S
C1609 C1625 1.429 . S
C1609 H1631 0.950 . S
C1610 H1606 0.949 . S
C1610 C1618 1.574 . S
C1610 C1626 1.368 . S
H1611 C1619 0.950 . S
H1612 C1617 0.950 . S
H1613 C1618 0.949 . S
H1614 C1620 0.950 . S
H1615 C1621 0.950 . S
H1616 C1622 0.949 . S
C1617 H1612 0.950 . S
C1617 C1619 1.327 . S
C1617 C1623 1.429 . S
C1618 C1610 1.574 . S
C1618 H1613 0.949 . S
C1618 C1624 1.368 . S
C1619 C1603 1.349 . S
C1619 H1611 0.950 . S
C1619 C1617 1.327 . S
C1620 C1608 1.349 . S
C1620 H1614 0.950 . S
C1620 C1621 1.327 . S
C1621 H1615 0.950 . S
C1621 C1620 1.327 . S
C1621 C1625 1.429 . S
C1622 C1605 1.574 . S
C1622 H1616 0.949 . S
C1622 C1626 1.368 . S
C1623 C1604 1.429 . S
C1623 C1617 1.429 . S
C1623 C1624 1.523 . S
C1624 C1605 1.368 . S
C1624 C1618 1.368 . S
C1624 C1623 1.523 . S
C1625 C1609 1.429 . S
C1625 C1621 1.429 . S
C1625 C1626 1.523 . S
C1626 C1610 1.368 . S
C1626 C1622 1.368 . S
C1626 C1625 1.523 . S
H1627 C1602 0.950 . S
H1628 C1604 0.950 . S
H1629 C1605 0.949 . S
H1630 C1607 0.950 . S
H1631 C1609 0.950 . S
C1632 C1633 1.349 . S
C1632 C1634 1.327 . S
C1632 H1657 0.950 . S
C1633 C1632 1.349 . S
C1633 C1649 1.349 . S
C1634 C1632 1.327 . S
C1634 C1653 1.429 . S
C1634 H1658 0.950 . S
C1635 C1652 1.574 . S
C1635 C1654 1.368 . S
C1635 H1659 0.949 . S
H1636 C1640 0.949 . S
C1637 C1638 1.349 . S
C1637 C1639 1.327 . S
C1637 H1660 0.950 . S
C1638 C1637 1.349 . S
C1638 C1650 1.349 . S
C1639 C1637 1.327 . S
C1639 C1655 1.429 . S
C1639 H1661 0.950 . S
C1640 H1636 0.949 . S
C1640 C1648 1.574 . S
C1640 C1656 1.368 . S
H1641 C1649 0.950 . S
H1642 C1647 0.950 . S
H1643 C1648 0.949 . S
H1644 C1650 0.950 . S
H1645 C1651 0.950 . S
H1646 C1652 0.949 . S
C1647 H1642 0.950 . S
C1647 C1649 1.327 . S
C1647 C1653 1.429 . S
C1648 C1640 1.574 . S
C1648 H1643 0.949 . S
C1648 C1654 1.368 . S
C1649 C1633 1.349 . S
C1649 H1641 0.950 . S
C1649 C1647 1.327 . S
C1650 C1638 1.349 . S
C1650 H1644 0.950 . S
C1650 C1651 1.327 . S
C1651 H1645 0.950 . S
C1651 C1650 1.327 . S
C1651 C1655 1.429 . S
C1652 C1635 1.574 . S
C1652 H1646 0.949 . S
C1652 C1656 1.368 . S
C1653 C1634 1.429 . S
C1653 C1647 1.429 . S
C1653 C1654 1.523 . S
C1654 C1635 1.368 . S
C1654 C1648 1.368 . S
C1654 C1653 1.523 . S
C1655 C1639 1.429 . S
C1655 C1651 1.429 . S
C1655 C1656 1.523 . S
C1656 C1640 1.368 . S
C1656 C1652 1.368 . S
C1656 C1655 1.523 . S
H1657 C1632 0.950 . S
H1658 C1634 0.950 . S
H1659 C1635 0.949 . S
H1660 C1637 0.950 . S
H1661 C1639 0.950 . S
C1662 C1663 1.349 . S
C1662 C1664 1.327 . S
C1662 H1687 0.950 . S
C1663 C1662 1.349 . S
C1663 C1679 1.349 . S
C1664 C1662 1.327 . S
C1664 C1683 1.429 . S
C1664 H1688 0.950 . S
C1665 C1682 1.574 . S
C1665 C1684 1.368 . S
C1665 H1689 0.949 . S
H1666 C1670 0.949 . S
C1667 C1668 1.349 . S
C1667 C1669 1.327 . S
C1667 H1690 0.950 . S
C1668 C1667 1.349 . S
C1668 C1680 1.349 . S
C1669 C1667 1.327 . S
C1669 C1685 1.429 . S
C1669 H1691 0.950 . S
C1670 H1666 0.949 . S
C1670 C1678 1.574 . S
C1670 C1686 1.368 . S
H1671 C1679 0.950 . S
H1672 C1677 0.950 . S
H1673 C1678 0.949 . S
H1674 C1680 0.950 . S
H1675 C1681 0.950 . S
H1676 C1682 0.949 . S
C1677 H1672 0.950 . S
C1677 C1679 1.327 . S
C1677 C1683 1.429 . S
C1678 C1670 1.574 . S
C1678 H1673 0.949 . S
C1678 C1684 1.368 . S
C1679 C1663 1.349 . S
C1679 H1671 0.950 . S
C1679 C1677 1.327 . S
C1680 C1668 1.349 . S
C1680 H1674 0.950 . S
C1680 C1681 1.327 . S
C1681 H1675 0.950 . S
C1681 C1680 1.327 . S
C1681 C1685 1.429 . S
C1682 C1665 1.574 . S
C1682 H1676 0.949 . S
C1682 C1686 1.368 . S
C1683 C1664 1.429 . S
C1683 C1677 1.429 . S
C1683 C1684 1.523 . S
C1684 C1665 1.368 . S
C1684 C1678 1.368 . S
C1684 C1683 1.523 . S
C1685 C1669 1.429 . S
C1685 C1681 1.429 . S
C1685 C1686 1.523 . S
C1686 C1670 1.368 . S
C1686 C1682 1.368 . S
C1686 C1685 1.523 . S
H1687 C1662 0.950 . S
H1688 C1664 0.950 . S
H1689 C1665 0.949 . S
H1690 C1667 0.950 . S
H1691 C1669 0.950 . S
C1692 C1693 1.349 . S
C1692 C1694 1.327 . S
C1692 H1717 0.950 . S
C1693 C1692 1.349 . S
C1693 C1709 1.349 . S
C1694 C1692 1.327 . S
C1694 C1713 1.429 . S
C1694 H1718 0.950 . S
C1695 C1712 1.574 . S
C1695 C1714 1.368 . S
C1695 H1719 0.949 . S
H1696 C1700 0.949 . S
C1697 C1698 1.349 . S
C1697 C1699 1.327 . S
C1697 H1720 0.950 . S
C1698 C1697 1.349 . S
C1698 C1710 1.349 . S
C1699 C1697 1.327 . S
C1699 C1715 1.429 . S
C1699 H1721 0.950 . S
C1700 H1696 0.949 . S
C1700 C1708 1.574 . S
C1700 C1716 1.368 . S
H1701 C1709 0.950 . S
H1702 C1707 0.950 . S
H1703 C1708 0.949 . S
H1704 C1710 0.950 . S
H1705 C1711 0.950 . S
H1706 C1712 0.949 . S
C1707 H1702 0.950 . S
C1707 C1709 1.327 . S
C1707 C1713 1.429 . S
C1708 C1700 1.574 . S
C1708 H1703 0.949 . S
C1708 C1714 1.368 . S
C1709 C1693 1.349 . S
C1709 H1701 0.950 . S
C1709 C1707 1.327 . S
C1710 C1698 1.349 . S
C1710 H1704 0.950 . S
C1710 C1711 1.327 . S
C1711 H1705 0.950 . S
C1711 C1710 1.327 . S
C1711 C1715 1.429 . S
C1712 C1695 1.574 . S
C1712 H1706 0.949 . S
C1712 C1716 1.368 . S
C1713 C1694 1.429 . S
C1713 C1707 1.429 . S
C1713 C1714 1.523 . S
C1714 C1695 1.368 . S
C1714 C1708 1.368 . S
C1714 C1713 1.523 . S
C1715 C1699 1.429 . S
C1715 C1711 1.429 . S
C1715 C1716 1.523 . S
C1716 C1700 1.368 . S
C1716 C1712 1.368 . S
C1716 C1715 1.523 . S
H1717 C1692 0.950 . S
H1718 C1694 0.950 . S
H1719 C1695 0.949 . S
H1720 C1697 0.950 . S
H1721 C1699 0.950 . S
C1722 C1723 1.349 . S
C1722 C1724 1.327 . S
C1722 H1747 0.950 . S
C1723 C1722 1.349 . S
C1723 C1739 1.349 . S
C1724 C1722 1.327 . S
C1724 C1743 1.429 . S
C1724 H1748 0.950 . S
C1725 C1742 1.574 . S
C1725 C1744 1.368 . S
C1725 H1749 0.949 . S
H1726 C1730 0.949 . S
C1727 C1728 1.349 . S
C1727 C1729 1.327 . S
C1727 H1750 0.950 . S
C1728 C1727 1.349 . S
C1728 C1740 1.349 . S
C1729 C1727 1.327 . S
C1729 C1745 1.429 . S
C1729 H1751 0.950 . S
C1730 H1726 0.949 . S
C1730 C1738 1.574 . S
C1730 C1746 1.368 . S
H1731 C1739 0.950 . S
H1732 C1737 0.950 . S
H1733 C1738 0.949 . S
H1734 C1740 0.950 . S
H1735 C1741 0.950 . S
H1736 C1742 0.949 . S
C1737 H1732 0.950 . S
C1737 C1739 1.327 . S
C1737 C1743 1.429 . S
C1738 C1730 1.574 . S
C1738 H1733 0.949 . S
C1738 C1744 1.368 . S
C1739 C1723 1.349 . S
C1739 H1731 0.950 . S
C1739 C1737 1.327 . S
C1740 C1728 1.349 . S
C1740 H1734 0.950 . S
C1740 C1741 1.327 . S
C1741 H1735 0.950 . S
C1741 C1740 1.327 . S
C1741 C1745 1.429 . S
C1742 C1725 1.574 . S
C1742 H1736 0.949 . S
C1742 C1746 1.368 . S
C1743 C1724 1.429 . S
C1743 C1737 1.429 . S
C1743 C1744 1.523 . S
C1744 C1725 1.368 . S
C1744 C1738 1.368 . S
C1744 C1743 1.523 . S
C1745 C1729 1.429 . S
C1745 C1741 1.429 . S
C1745 C1746 1.523 . S
C1746 C1730 1.368 . S
C1746 C1742 1.368 . S
C1746 C1745 1.523 . S
H1747 C1722 0.950 . S
H1748 C1724 0.950 . S
H1749 C1725 0.949 . S
H1750 C1727 0.950 . S
H1751 C1729 0.950 . S
C1752 C1753 1.349 . S
C1752 C1754 1.327 . S
C1752 H1777 0.950 . S
C1753 C1752 1.349 . S
C1753 C1769 1.349 . S
C1754 C1752 1.327 . S
C1754 C1773 1.429 . S
C1754 H1778 0.950 . S
C1755 C1772 1.574 . S
C1755 C1774 1.368 . S
C1755 H1779 0.949 . S
H1756 C1760 0.949 . S
C1757 C1758 1.349 . S
C1757 C1759 1.327 . S
C1757 H1780 0.950 . S
C1758 C1757 1.349 . S
C1758 C1770 1.349 . S
C1759 C1757 1.327 . S
C1759 C1775 1.429 . S
C1759 H1781 0.950 . S
C1760 H1756 0.949 . S
C1760 C1768 1.574 . S
C1760 C1776 1.368 . S
H1761 C1769 0.950 . S
H1762 C1767 0.950 . S
H1763 C1768 0.949 . S
H1764 C1770 0.950 . S
H1765 C1771 0.950 . S
H1766 C1772 0.949 . S
C1767 H1762 0.950 . S
C1767 C1769 1.327 . S
C1767 C1773 1.429 . S
C1768 C1760 1.574 . S
C1768 H1763 0.949 . S
C1768 C1774 1.368 . S
C1769 C1753 1.349 . S
C1769 H1761 0.950 . S
C1769 C1767 1.327 . S
C1770 C1758 1.349 . S
C1770 H1764 0.950 . S
C1770 C1771 1.327 . S
C1771 H1765 0.950 . S
C1771 C1770 1.327 . S
C1771 C1775 1.429 . S
C1772 C1755 1.574 . S
C1772 H1766 0.949 . S
C1772 C1776 1.368 . S
C1773 C1754 1.429 . S
C1773 C1767 1.429 . S
C1773 C1774 1.523 . S
C1774 C1755 1.368 . S
C1774 C1768 1.368 . S
C1774 C1773 1.523 . S
C1775 C1759 1.429 . S
C1775 C1771 1.429 . S
C1775 C1776 1.523 . S
C1776 C1760 1.368 . S
C1776 C1772 1.368 . S
C1776 C1775 1.523 . S
H1777 C1752 0.950 . S
H1778 C1754 0.950 . S
H1779 C1755 0.949 . S
H1780 C1757 0.950 . S
H1781 C1759 0.950 . S
C1782 C1783 1.349 . S
C1782 C1784 1.327 . S
C1782 H1807 0.950 . S
C1783 C1782 1.349 . S
C1783 C1799 1.349 . S
C1784 C1782 1.327 . S
C1784 C1803 1.429 . S
C1784 H1808 0.950 . S
C1785 C1802 1.574 . S
C1785 C1804 1.368 . S
C1785 H1809 0.949 . S
H1786 C1790 0.949 . S
C1787 C1788 1.349 . S
C1787 C1789 1.327 . S
C1787 H1810 0.950 . S
C1788 C1787 1.349 . S
C1788 C1800 1.349 . S
C1789 C1787 1.327 . S
C1789 C1805 1.429 . S
C1789 H1811 0.950 . S
C1790 H1786 0.949 . S
C1790 C1798 1.574 . S
C1790 C1806 1.368 . S
H1791 C1799 0.950 . S
H1792 C1797 0.950 . S
H1793 C1798 0.949 . S
H1794 C1800 0.950 . S
H1795 C1801 0.950 . S
H1796 C1802 0.949 . S
C1797 H1792 0.950 . S
C1797 C1799 1.327 . S
C1797 C1803 1.429 . S
C1798 C1790 1.574 . S
C1798 H1793 0.949 . S
C1798 C1804 1.368 . S
C1799 C1783 1.349 . S
C1799 H1791 0.950 . S
C1799 C1797 1.327 . S
C1800 C1788 1.349 . S
C1800 H1794 0.950 . S
C1800 C1801 1.327 . S
C1801 H1795 0.950 . S
C1801 C1800 1.327 . S
C1801 C1805 1.429 . S
C1802 C1785 1.574 . S
C1802 H1796 0.949 . S
C1802 C1806 1.368 . S
C1803 C1784 1.429 . S
C1803 C1797 1.429 . S
C1803 C1804 1.523 . S
C1804 C1785 1.368 . S
C1804 C1798 1.368 . S
C1804 C1803 1.523 . S
C1805 C1789 1.429 . S
C1805 C1801 1.429 . S
C1805 C1806 1.523 . S
C1806 C1790 1.368 . S
C1806 C1802 1.368 . S
C1806 C1805 1.523 . S
H1807 C1782 0.950 . S
H1808 C1784 0.950 . S
H1809 C1785 0.949 . S
H1810 C1787 0.950 . S
H1811 C1789 0.950 . S
C1812 C1813 1.349 . S
C1812 C1814 1.327 . S
C1812 H1837 0.950 . S
C1813 C1812 1.349 . S
C1813 C1829 1.349 . S
C1814 C1812 1.327 . S
C1814 C1833 1.429 . S
C1814 H1838 0.950 . S
C1815 C1832 1.574 . S
C1815 C1834 1.368 . S
C1815 H1839 0.949 . S
H1816 C1820 0.949 . S
C1817 C1818 1.349 . S
C1817 C1819 1.327 . S
C1817 H1840 0.950 . S
C1818 C1817 1.349 . S
C1818 C1830 1.349 . S
C1819 C1817 1.327 . S
C1819 C1835 1.429 . S
C1819 H1841 0.950 . S
C1820 H1816 0.949 . S
C1820 C1828 1.574 . S
C1820 C1836 1.368 . S
H1821 C1829 0.950 . S
H1822 C1827 0.950 . S
H1823 C1828 0.949 . S
H1824 C1830 0.950 . S
H1825 C1831 0.950 . S
H1826 C1832 0.949 . S
C1827 H1822 0.950 . S
C1827 C1829 1.327 . S
C1827 C1833 1.429 . S
C1828 C1820 1.574 . S
C1828 H1823 0.949 . S
C1828 C1834 1.368 . S
C1829 C1813 1.349 . S
C1829 H1821 0.950 . S
C1829 C1827 1.327 . S
C1830 C1818 1.349 . S
C1830 H1824 0.950 . S
C1830 C1831 1.327 . S
C1831 H1825 0.950 . S
C1831 C1830 1.327 . S
C1831 C1835 1.429 . S
C1832 C1815 1.574 . S
C1832 H1826 0.949 . S
C1832 C1836 1.368 . S
C1833 C1814 1.429 . S
C1833 C1827 1.429 . S
C1833 C1834 1.523 . S
C1834 C1815 1.368 . S
C1834 C1828 1.368 . S
C1834 C1833 1.523 . S
C1835 C1819 1.429 . S
C1835 C1831 1.429 . S
C1835 C1836 1.523 . S
C1836 C1820 1.368 . S
C1836 C1832 1.368 . S
C1836 C1835 1.523 . S
H1837 C1812 0.950 . S
H1838 C1814 0.950 . S
H1839 C1815 0.949 . S
H1840 C1817 0.950 . S
H1841 C1819 0.950 . S
C1842 C1843 1.349 . S
C1842 C1844 1.327 . S
C1842 H1867 0.950 . S
C1843 C1842 1.349 . S
C1843 C1859 1.349 . S
C1844 C1842 1.327 . S
C1844 C1863 1.429 . S
C1844 H1868 0.950 . S
C1845 C1862 1.574 . S
C1845 C1864 1.368 . S
C1845 H1869 0.949 . S
H1846 C1850 0.949 . S
C1847 C1848 1.349 . S
C1847 C1849 1.327 . S
C1847 H1870 0.950 . S
C1848 C1847 1.349 . S
C1848 C1860 1.349 . S
C1849 C1847 1.327 . S
C1849 C1865 1.429 . S
C1849 H1871 0.950 . S
C1850 H1846 0.949 . S
C1850 C1858 1.574 . S
C1850 C1866 1.368 . S
H1851 C1859 0.950 . S
H1852 C1857 0.950 . S
H1853 C1858 0.949 . S
H1854 C1860 0.950 . S
H1855 C1861 0.950 . S
H1856 C1862 0.949 . S
C1857 H1852 0.950 . S
C1857 C1859 1.327 . S
C1857 C1863 1.429 . S
C1858 C1850 1.574 . S
C1858 H1853 0.949 . S
C1858 C1864 1.368 . S
C1859 C1843 1.349 . S
C1859 H1851 0.950 . S
C1859 C1857 1.327 . S
C1860 C1848 1.349 . S
C1860 H1854 0.950 . S
C1860 C1861 1.327 . S
C1861 H1855 0.950 . S
C1861 C1860 1.327 . S
C1861 C1865 1.429 . S
C1862 C1845 1.574 . S
C1862 H1856 0.949 . S
C1862 C1866 1.368 . S
C1863 C1844 1.429 . S
C1863 C1857 1.429 . S
C1863 C1864 1.523 . S
C1864 C1845 1.368 . S
C1864 C1858 1.368 . S
C1864 C1863 1.523 . S
C1865 C1849 1.429 . S
C1865 C1861 1.429 . S
C1865 C1866 1.523 . S
C1866 C1850 1.368 . S
C1866 C1862 1.368 . S
C1866 C1865 1.523 . S
H1867 C1842 0.950 . S
H1868 C1844 0.950 . S
H1869 C1845 0.949 . S
H1870 C1847 0.950 . S
H1871 C1849 0.950 . S
C1872 C1873 1.349 . S
C1872 C1874 1.327 . S
C1872 H1897 0.950 . S
C1873 C1872 1.349 . S
C1873 C1889 1.349 . S
C1874 C1872 1.327 . S
C1874 C1893 1.429 . S
C1874 H1898 0.950 . S
C1875 C1892 1.574 . S
C1875 C1894 1.368 . S
C1875 H1899 0.949 . S
H1876 C1880 0.949 . S
C1877 C1878 1.349 . S
C1877 C1879 1.327 . S
C1877 H1900 0.950 . S
C1878 C1877 1.349 . S
C1878 C1890 1.349 . S
C1879 C1877 1.327 . S
C1879 C1895 1.429 . S
C1879 H1901 0.950 . S
C1880 H1876 0.949 . S
C1880 C1888 1.574 . S
C1880 C1896 1.368 . S
H1881 C1889 0.950 . S
H1882 C1887 0.950 . S
H1883 C1888 0.949 . S
H1884 C1890 0.950 . S
H1885 C1891 0.950 . S
H1886 C1892 0.949 . S
C1887 H1882 0.950 . S
C1887 C1889 1.327 . S
C1887 C1893 1.429 . S
C1888 C1880 1.574 . S
C1888 H1883 0.949 . S
C1888 C1894 1.368 . S
C1889 C1873 1.349 . S
C1889 H1881 0.950 . S
C1889 C1887 1.327 . S
C1890 C1878 1.349 . S
C1890 H1884 0.950 . S
C1890 C1891 1.327 . S
C1891 H1885 0.950 . S
C1891 C1890 1.327 . S
C1891 C1895 1.429 . S
C1892 C1875 1.574 . S
C1892 H1886 0.949 . S
C1892 C1896 1.368 . S
C1893 C1874 1.429 . S
C1893 C1887 1.429 . S
C1893 C1894 1.523 . S
C1894 C1875 1.368 . S
C1894 C1888 1.368 . S
C1894 C1893 1.523 . S
C1895 C1879 1.429 . S
C1895 C1891 1.429 . S
C1895 C1896 1.523 . S
C1896 C1880 1.368 . S
C1896 C1892 1.368 . S
C1896 C1895 1.523 . S
H1897 C1872 0.950 . S
H1898 C1874 0.950 . S
H1899 C1875 0.949 . S
H1900 C1877 0.950 . S
H1901 C1879 0.950 . S
C1902 C1903 1.349 . S
C1902 C1904 1.327 . S
C1902 H1927 0.950 . S
C1903 C1902 1.349 . S
C1903 C1919 1.349 . S
C1904 C1902 1.327 . S
C1904 C1923 1.429 . S
C1904 H1928 0.950 . S
C1905 C1922 1.574 . S
C1905 C1924 1.368 . S
C1905 H1929 0.949 . S
H1906 C1910 0.949 . S
C1907 C1908 1.349 . S
C1907 C1909 1.327 . S
C1907 H1930 0.950 . S
C1908 C1907 1.349 . S
C1908 C1920 1.349 . S
C1909 C1907 1.327 . S
C1909 C1925 1.429 . S
C1909 H1931 0.950 . S
C1910 H1906 0.949 . S
C1910 C1918 1.574 . S
C1910 C1926 1.368 . S
H1911 C1919 0.950 . S
H1912 C1917 0.950 . S
H1913 C1918 0.949 . S
H1914 C1920 0.950 . S
H1915 C1921 0.950 . S
H1916 C1922 0.949 . S
C1917 H1912 0.950 . S
C1917 C1919 1.327 . S
C1917 C1923 1.429 . S
C1918 C1910 1.574 . S
C1918 H1913 0.949 . S
C1918 C1924 1.368 . S
C1919 C1903 1.349 . S
C1919 H1911 0.950 . S
C1919 C1917 1.327 . S
C1920 C1908 1.349 . S
C1920 H1914 0.950 . S
C1920 C1921 1.327 . S
C1921 H1915 0.950 . S
C1921 C1920 1.327 . S
C1921 C1925 1.429 . S
C1922 C1905 1.574 . S
C1922 H1916 0.949 . S
C1922 C1926 1.368 . S
C1923 C1904 1.429 . S
C1923 C1917 1.429 . S
C1923 C1924 1.523 . S
C1924 C1905 1.368 . S
C1924 C1918 1.368 . S
C1924 C1923 1.523 . S
C1925 C1909 1.429 . S
C1925 C1921 1.429 . S
C1925 C1926 1.523 . S
C1926 C1910 1.368 . S
C1926 C1922 1.368 . S
C1926 C1925 1.523 . S
H1927 C1902 0.950 . S
H1928 C1904 0.950 . S
H1929 C1905 0.949 . S
H1930 C1907 0.950 . S
H1931 C1909 0.950 . S
C1932 C1933 1.349 . S
C1932 C1934 1.327 . S
C1932 H1957 0.950 . S
C1933 C1932 1.349 . S
C1933 C1949 1.349 . S
C1934 C1932 1.327 . S
C1934 C1953 1.429 . S
C1934 H1958 0.950 . S
C1935 C1952 1.574 . S
C1935 C1954 1.368 . S
C1935 H1959 0.949 . S
H1936 C1940 0.949 . S
C1937 C1938 1.349 . S
C1937 C1939 1.327 . S
C1937 H1960 0.950 . S
C1938 C1937 1.349 . S
C1938 C1950 1.349 . S
C1939 C1937 1.327 . S
C1939 C1955 1.429 . S
C1939 H1961 0.950 . S
C1940 H1936 0.949 . S
C1940 C1948 1.574 . S
C1940 C1956 1.368 . S
H1941 C1949 0.950 . S
H1942 C1947 0.950 . S
H1943 C1948 0.949 . S
H1944 C1950 0.950 . S
H1945 C1951 0.950 . S
H1946 C1952 0.949 . S
C1947 H1942 0.950 . S
C1947 C1949 1.327 . S
C1947 C1953 1.429 . S
C1948 C1940 1.574 . S
C1948 H1943 0.949 . S
C1948 C1954 1.368 . S
C1949 C1933 1.349 . S
C1949 H1941 0.950 . S
C1949 C1947 1.327 . S
C1950 C1938 1.349 . S
C1950 H1944 0.950 . S
C1950 C1951 1.327 . S
C1951 H1945 0.950 . S
C1951 C1950 1.327 . S
C1951 C1955 1.429 . S
C1952 C1935 1.574 . S
C1952 H1946 0.949 . S
C1952 C1956 1.368 . S
C1953 C1934 1.429 . S
C1953 C1947 1.429 . S
C1953 C1954 1.523 . S
C1954 C1935 1.368 . S
C1954 C1948 1.368 . S
C1954 C1953 1.523 . S
C1955 C1939 1.429 . S
C1955 C1951 1.429 . S
C1955 C1956 1.523 . S
C1956 C1940 1.368 . S
C1956 C1952 1.368 . S
C1956 C1955 1.523 . S
H1957 C1932 0.950 . S
H1958 C1934 0.950 . S
H1959 C1935 0.949 . S
H1960 C1937 0.950 . S
H1961 C1939 0.950 . S
C1962 C1963 1.349 . S
C1962 C1964 1.327 . S
C1962 H1987 0.950 . S
C1963 C1962 1.349 . S
C1963 C1979 1.349 . S
C1964 C1962 1.327 . S
C1964 C1983 1.429 . S
C1964 H1988 0.950 . S
C1965 C1982 1.574 . S
C1965 C1984 1.368 . S
C1965 H1989 0.949 . S
H1966 C1970 0.949 . S
C1967 C1968 1.349 . S
C1967 C1969 1.327 . S
C1967 H1990 0.950 . S
C1968 C1967 1.349 . S
C1968 C1980 1.349 . S
C1969 C1967 1.327 . S
C1969 C1985 1.429 . S
C1969 H1991 0.950 . S
C1970 H1966 0.949 . S
C1970 C1978 1.574 . S
C1970 C1986 1.368 . S
H1971 C1979 0.950 . S
H1972 C1977 0.950 . S
H1973 C1978 0.949 . S
H1974 C1980 0.950 . S
H1975 C1981 0.950 . S
H1976 C1982 0.949 . S
C1977 H1972 0.950 . S
C1977 C1979 1.327 . S
C1977 C1983 1.429 . S
C1978 C1970 1.574 . S
C1978 H1973 0.949 . S
C1978 C1984 1.368 . S
C1979 C1963 1.349 . S
C1979 H1971 0.950 . S
C1979 C1977 1.327 . S
C1980 C1968 1.349 . S
C1980 H1974 0.950 . S
C1980 C1981 1.327 . S
C1981 H1975 0.950 . S
C1981 C1980 1.327 . S
C1981 C1985 1.429 . S
C1982 C1965 1.574 . S
C1982 H1976 0.949 . S
C1982 C1986 1.368 . S
C1983 C1964 1.429 . S
C1983 C1977 1.429 . S
C1983 C1984 1.523 . S
C1984 C1965 1.368 . S
C1984 C1978 1.368 . S
C1984 C1983 1.523 . S
C1985 C1969 1.429 . S
C1985 C1981 1.429 . S
C1985 C1986 1.523 . S
C1986 C1970 1.368 . S
C1986 C1982 1.368 . S
C1986 C1985 1.523 . S
H1987 C1962 0.950 . S
H1988 C1964 0.950 . S
H1989 C1965 0.949 . S
H1990 C1967 0.950 . S
H1991 C1969 0.950 . S
C1992 C1993 1.349 . S
C1992 C1994 1.327 . S
C1992 H2017 0.950 . S
C1993 C1992 1.349 . S
C1993 C2009 1.349 . S
C1994 C1992 1.327 . S
C1994 C2013 1.429 . S
C1994 H2018 0.950 . S
C1995 C2012 1.574 . S
C1995 C2014 1.368 . S
C1995 H2019 0.949 . S
H1996 C2000 0.949 . S
C1997 C1998 1.349 1_554 S
C1997 C1999 1.327 . S
C1997 H2020 0.950 1_554 S
C1998 C1997 1.349 1_556 S
C1998 C2010 1.349 1_556 S
C1999 C1997 1.327 . S
C1999 C2015 1.429 . S
C1999 H2021 0.950 . S
C2000 H1996 0.949 . S
C2000 C2008 1.574 . S
C2000 C2016 1.368 . S
H2001 C2009 0.950 1_455 S
H2002 C2007 0.950 . S
H2003 C2008 0.949 . S
H2004 C2010 0.950 . S
H2005 C2011 0.950 . S
H2006 C2012 0.949 . S
C2007 H2002 0.950 . S
C2007 C2009 1.327 . S
C2007 C2013 1.429 . S
C2008 C2000 1.574 . S
C2008 H2003 0.949 . S
C2008 C2014 1.368 . S
C2009 C1993 1.349 . S
C2009 H2001 0.950 1_655 S
C2009 C2007 1.327 . S
C2010 C1998 1.349 1_554 S
C2010 H2004 0.950 . S
C2010 C2011 1.327 . S
C2011 H2005 0.950 . S
C2011 C2010 1.327 . S
C2011 C2015 1.429 . S
C2012 C1995 1.574 . S
C2012 H2006 0.949 . S
C2012 C2016 1.368 . S
C2013 C1994 1.429 . S
C2013 C2007 1.429 . S
C2013 C2014 1.523 . S
C2014 C1995 1.368 . S
C2014 C2008 1.368 . S
C2014 C2013 1.523 . S
C2015 C1999 1.429 . S
C2015 C2011 1.429 . S
C2015 C2016 1.523 . S
C2016 C2000 1.368 . S
C2016 C2012 1.368 . S
C2016 C2015 1.523 . S
H2017 C1992 0.950 . S
H2018 C1994 0.950 . S
H2019 C1995 0.949 . S
H2020 C1997 0.950 1_556 S
H2021 C1999 0.950 . S
C2022 C2023 1.349 . S
C2022 C2024 1.327 . S
C2022 H2047 0.950 . S
C2023 C2022 1.349 . S
C2023 C2039 1.349 . S
C2024 C2022 1.327 . S
C2024 C2043 1.429 . S
C2024 H2048 0.950 . S
C2025 C2042 1.574 . S
C2025 C2044 1.368 . S
C2025 H2049 0.949 . S
H2026 C2030 0.949 . S
C2027 C2028 1.349 . S
C2027 C2029 1.327 . S
C2027 H2050 0.950 . S
C2028 C2027 1.349 . S
C2028 C2040 1.349 . S
C2029 C2027 1.327 . S
C2029 C2045 1.429 . S
C2029 H2051 0.950 . S
C2030 H2026 0.949 . S
C2030 C2038 1.574 . S
C2030 C2046 1.368 . S
H2031 C2039 0.950 . S
H2032 C2037 0.950 . S
H2033 C2038 0.949 . S
H2034 C2040 0.950 . S
H2035 C2041 0.950 . S
H2036 C2042 0.949 . S
C2037 H2032 0.950 . S
C2037 C2039 1.327 . S
C2037 C2043 1.429 . S
C2038 C2030 1.574 . S
C2038 H2033 0.949 . S
C2038 C2044 1.368 . S
C2039 C2023 1.349 . S
C2039 H2031 0.950 . S
C2039 C2037 1.327 . S
C2040 C2028 1.349 . S
C2040 H2034 0.950 . S
C2040 C2041 1.327 . S
C2041 H2035 0.950 . S
C2041 C2040 1.327 . S
C2041 C2045 1.429 . S
C2042 C2025 1.574 . S
C2042 H2036 0.949 . S
C2042 C2046 1.368 . S
C2043 C2024 1.429 . S
C2043 C2037 1.429 . S
C2043 C2044 1.523 . S
C2044 C2025 1.368 . S
C2044 C2038 1.368 . S
C2044 C2043 1.523 . S
C2045 C2029 1.429 . S
C2045 C2041 1.429 . S
C2045 C2046 1.523 . S
C2046 C2030 1.368 . S
C2046 C2042 1.368 . S
C2046 C2045 1.523 . S
H2047 C2022 0.950 . S
H2048 C2024 0.950 . S
H2049 C2025 0.949 . S
H2050 C2027 0.950 . S
H2051 C2029 0.950 . S
C2052 C2053 1.349 1_556 S
C2052 C2054 1.327 . S
C2052 H2077 0.950 1_556 S
C2053 C2052 1.349 1_554 S
C2053 C2069 1.349 1_554 S
C2054 C2052 1.327 . S
C2054 C2073 1.429 . S
C2054 H2078 0.950 . S
C2055 C2072 1.574 . S
C2055 C2074 1.368 . S
C2055 H2079 0.949 . S
H2056 C2060 0.949 . S
C2057 C2058 1.349 . S
C2057 C2059 1.327 . S
C2057 H2080 0.950 . S
C2058 C2057 1.349 . S
C2058 C2070 1.349 . S
C2059 C2057 1.327 . S
C2059 C2075 1.429 . S
C2059 H2081 0.950 . S
C2060 H2056 0.949 . S
C2060 C2068 1.574 . S
C2060 C2076 1.368 . S
H2061 C2069 0.950 . S
H2062 C2067 0.950 . S
H2063 C2068 0.949 . S
H2064 C2070 0.950 . S
H2065 C2071 0.950 . S
H2066 C2072 0.949 . S
C2067 H2062 0.950 . S
C2067 C2069 1.327 . S
C2067 C2073 1.429 . S
C2068 C2060 1.574 . S
C2068 H2063 0.949 . S
C2068 C2074 1.368 . S
C2069 C2053 1.349 1_556 S
C2069 H2061 0.950 . S
C2069 C2067 1.327 . S
C2070 C2058 1.349 . S
C2070 H2064 0.950 . S
C2070 C2071 1.327 . S
C2071 H2065 0.950 . S
C2071 C2070 1.327 . S
C2071 C2075 1.429 . S
C2072 C2055 1.574 . S
C2072 H2066 0.949 . S
C2072 C2076 1.368 . S
C2073 C2054 1.429 . S
C2073 C2067 1.429 . S
C2073 C2074 1.523 . S
C2074 C2055 1.368 . S
C2074 C2068 1.368 . S
C2074 C2073 1.523 . S
C2075 C2059 1.429 . S
C2075 C2071 1.429 . S
C2075 C2076 1.523 . S
C2076 C2060 1.368 . S
C2076 C2072 1.368 . S
C2076 C2075 1.523 . S
H2077 C2052 0.950 1_554 S
H2078 C2054 0.950 . S
H2079 C2055 0.949 . S
H2080 C2057 0.950 . S
H2081 C2059 0.950 . S
C2082 C2083 1.349 . S
C2082 C2084 1.327 . S
C2082 H2107 0.950 . S
C2083 C2082 1.349 . S
C2083 C2099 1.349 . S
C2084 C2082 1.327 . S
C2084 C2103 1.429 . S
C2084 H2108 0.950 . S
C2085 C2102 1.574 . S
C2085 C2104 1.368 . S
C2085 H2109 0.949 . S
H2086 C2090 0.949 . S
C2087 C2088 1.349 . S
C2087 C2089 1.327 . S
C2087 H2110 0.950 1_455 S
C2088 C2087 1.349 . S
C2088 C2100 1.349 . S
C2089 C2087 1.327 . S
C2089 C2105 1.429 . S
C2089 H2111 0.950 . S
C2090 H2086 0.949 . S
C2090 C2098 1.574 . S
C2090 C2106 1.368 . S
H2091 C2099 0.950 . S
H2092 C2097 0.950 . S
H2093 C2098 0.949 . S
H2094 C2100 0.950 . S
H2095 C2101 0.950 . S
H2096 C2102 0.949 . S
C2097 H2092 0.950 . S
C2097 C2099 1.327 . S
C2097 C2103 1.429 . S
C2098 C2090 1.574 . S
C2098 H2093 0.949 . S
C2098 C2104 1.368 . S
C2099 C2083 1.349 . S
C2099 H2091 0.950 . S
C2099 C2097 1.327 . S
C2100 C2088 1.349 . S
C2100 H2094 0.950 . S
C2100 C2101 1.327 . S
C2101 H2095 0.950 . S
C2101 C2100 1.327 . S
C2101 C2105 1.429 . S
C2102 C2085 1.574 . S
C2102 H2096 0.949 . S
C2102 C2106 1.368 . S
C2103 C2084 1.429 . S
C2103 C2097 1.429 . S
C2103 C2104 1.523 . S
C2104 C2085 1.368 . S
C2104 C2098 1.368 . S
C2104 C2103 1.523 . S
C2105 C2089 1.429 . S
C2105 C2101 1.429 . S
C2105 C2106 1.523 . S
C2106 C2090 1.368 . S
C2106 C2102 1.368 . S
C2106 C2105 1.523 . S
H2107 C2082 0.950 . S
H2108 C2084 0.950 . S
H2109 C2085 0.949 . S
H2110 C2087 0.950 1_655 S
H2111 C2089 0.950 . S
C2112 C2113 1.349 . S
C2112 C2114 1.327 . S
C2112 H2137 0.950 . S
C2113 C2112 1.349 . S
C2113 C2129 1.349 . S
C2114 C2112 1.327 . S
C2114 C2133 1.429 . S
C2114 H2138 0.950 . S
C2115 C2132 1.574 . S
C2115 C2134 1.368 . S
C2115 H2139 0.949 . S
H2116 C2120 0.949 . S
C2117 C2118 1.349 1_455 S
C2117 C2119 1.327 . S
C2117 H2140 0.950 1_455 S
C2118 C2117 1.349 1_655 S
C2118 C2130 1.349 1_655 S
C2119 C2117 1.327 . S
C2119 C2135 1.429 . S
C2119 H2141 0.950 . S
C2120 H2116 0.949 . S
C2120 C2128 1.574 . S
C2120 C2136 1.368 . S
H2121 C2129 0.950 1_545 S
H2122 C2127 0.950 . S
H2123 C2128 0.949 . S
H2124 C2130 0.950 . S
H2125 C2131 0.950 . S
H2126 C2132 0.949 . S
C2127 H2122 0.950 . S
C2127 C2129 1.327 . S
C2127 C2133 1.429 . S
C2128 C2120 1.574 . S
C2128 H2123 0.949 . S
C2128 C2134 1.368 . S
C2129 C2113 1.349 . S
C2129 H2121 0.950 1_565 S
C2129 C2127 1.327 . S
C2130 C2118 1.349 1_455 S
C2130 H2124 0.950 . S
C2130 C2131 1.327 . S
C2131 H2125 0.950 . S
C2131 C2130 1.327 . S
C2131 C2135 1.429 . S
C2132 C2115 1.574 . S
C2132 H2126 0.949 . S
C2132 C2136 1.368 . S
C2133 C2114 1.429 . S
C2133 C2127 1.429 . S
C2133 C2134 1.523 . S
C2134 C2115 1.368 . S
C2134 C2128 1.368 . S
C2134 C2133 1.523 . S
C2135 C2119 1.429 . S
C2135 C2131 1.429 . S
C2135 C2136 1.523 . S
C2136 C2120 1.368 . S
C2136 C2132 1.368 . S
C2136 C2135 1.523 . S
H2137 C2112 0.950 . S
H2138 C2114 0.950 . S
H2139 C2115 0.949 . S
H2140 C2117 0.950 1_655 S
H2141 C2119 0.950 . S
C2142 C2143 1.349 . S
C2142 C2144 1.327 . S
C2142 H2167 0.950 . S
C2143 C2142 1.349 . S
C2143 C2159 1.349 . S
C2144 C2142 1.327 . S
C2144 C2163 1.429 . S
C2144 H2168 0.950 . S
C2145 C2162 1.574 . S
C2145 C2164 1.368 . S
C2145 H2169 0.949 . S
H2146 C2150 0.949 . S
C2147 C2148 1.349 . S
C2147 C2149 1.327 . S
C2147 H2170 0.950 . S
C2148 C2147 1.349 . S
C2148 C2160 1.349 . S
C2149 C2147 1.327 . S
C2149 C2165 1.429 . S
C2149 H2171 0.950 . S
C2150 H2146 0.949 . S
C2150 C2158 1.574 . S
C2150 C2166 1.368 . S
H2151 C2159 0.950 . S
H2152 C2157 0.950 . S
H2153 C2158 0.949 . S
H2154 C2160 0.950 1_565 S
H2155 C2161 0.950 . S
H2156 C2162 0.949 . S
C2157 H2152 0.950 . S
C2157 C2159 1.327 . S
C2157 C2163 1.429 . S
C2158 C2150 1.574 . S
C2158 H2153 0.949 . S
C2158 C2164 1.368 . S
C2159 C2143 1.349 . S
C2159 H2151 0.950 . S
C2159 C2157 1.327 . S
C2160 C2148 1.349 . S
C2160 H2154 0.950 1_545 S
C2160 C2161 1.327 . S
C2161 H2155 0.950 . S
C2161 C2160 1.327 . S
C2161 C2165 1.429 . S
C2162 C2145 1.574 . S
C2162 H2156 0.949 . S
C2162 C2166 1.368 . S
C2163 C2144 1.429 . S
C2163 C2157 1.429 . S
C2163 C2164 1.523 . S
C2164 C2145 1.368 . S
C2164 C2158 1.368 . S
C2164 C2163 1.523 . S
C2165 C2149 1.429 . S
C2165 C2161 1.429 . S
C2165 C2166 1.523 . S
C2166 C2150 1.368 . S
C2166 C2162 1.368 . S
C2166 C2165 1.523 . S
H2167 C2142 0.950 . S
H2168 C2144 0.950 . S
H2169 C2145 0.949 . S
H2170 C2147 0.950 . S
H2171 C2149 0.950 . S
C2172 C2173 1.349 . S
C2172 C2174 1.327 . S
C2172 H2197 0.950 . S
C2173 C2172 1.349 . S
C2173 C2189 1.349 . S
C2174 C2172 1.327 . S
C2174 C2193 1.429 . S
C2174 H2198 0.950 . S
C2175 C2192 1.574 . S
C2175 C2194 1.368 . S
C2175 H2199 0.949 . S
H2176 C2180 0.949 . S
C2177 C2178 1.349 . S
C2177 C2179 1.327 . S
C2177 H2200 0.950 . S
C2178 C2177 1.349 . S
C2178 C2190 1.349 . S
C2179 C2177 1.327 . S
C2179 C2195 1.429 . S
C2179 H2201 0.950 . S
C2180 H2176 0.949 . S
C2180 C2188 1.574 . S
C2180 C2196 1.368 . S
H2181 C2189 0.950 . S
H2182 C2187 0.950 . S
H2183 C2188 0.949 . S
H2184 C2190 0.950 . S
H2185 C2191 0.950 . S
H2186 C2192 0.949 . S
C2187 H2182 0.950 . S
C2187 C2189 1.327 . S
C2187 C2193 1.429 . S
C2188 C2180 1.574 . S
C2188 H2183 0.949 . S
C2188 C2194 1.368 . S
C2189 C2173 1.349 . S
C2189 H2181 0.950 . S
C2189 C2187 1.327 . S
C2190 C2178 1.349 . S
C2190 H2184 0.950 . S
C2190 C2191 1.327 . S
C2191 H2185 0.950 . S
C2191 C2190 1.327 . S
C2191 C2195 1.429 . S
C2192 C2175 1.574 . S
C2192 H2186 0.949 . S
C2192 C2196 1.368 . S
C2193 C2174 1.429 . S
C2193 C2187 1.429 . S
C2193 C2194 1.523 . S
C2194 C2175 1.368 . S
C2194 C2188 1.368 . S
C2194 C2193 1.523 . S
C2195 C2179 1.429 . S
C2195 C2191 1.429 . S
C2195 C2196 1.523 . S
C2196 C2180 1.368 . S
C2196 C2192 1.368 . S
C2196 C2195 1.523 . S
H2197 C2172 0.950 . S
H2198 C2174 0.950 . S
H2199 C2175 0.949 . S
H2200 C2177 0.950 . S
H2201 C2179 0.950 . S
C2202 C2203 1.349 1_655 S
C2202 C2204 1.327 . S
C2202 H2227 0.950 1_655 S
C2203 C2202 1.349 1_455 S
C2203 C2219 1.349 1_455 S
C2204 C2202 1.327 . S
C2204 C2223 1.429 . S
C2204 H2228 0.950 . S
C2205 C2222 1.574 . S
C2205 C2224 1.368 . S
C2205 H2229 0.949 . S
H2206 C2210 0.949 . S
C2207 C2208 1.349 . S
C2207 C2209 1.327 . S
C2207 H2230 0.950 . S
C2208 C2207 1.349 . S
C2208 C2220 1.349 . S
C2209 C2207 1.327 . S
C2209 C2225 1.429 . S
C2209 H2231 0.950 . S
C2210 H2206 0.949 . S
C2210 C2218 1.574 . S
C2210 C2226 1.368 . S
H2211 C2219 0.950 . S
H2212 C2217 0.950 . S
H2213 C2218 0.949 . S
H2214 C2220 0.950 . S
H2215 C2221 0.950 . S
H2216 C2222 0.949 . S
C2217 H2212 0.950 . S
C2217 C2219 1.327 . S
C2217 C2223 1.429 . S
C2218 C2210 1.574 . S
C2218 H2213 0.949 . S
C2218 C2224 1.368 . S
C2219 C2203 1.349 1_655 S
C2219 H2211 0.950 . S
C2219 C2217 1.327 . S
C2220 C2208 1.349 . S
C2220 H2214 0.950 . S
C2220 C2221 1.327 . S
C2221 H2215 0.950 . S
C2221 C2220 1.327 . S
C2221 C2225 1.429 . S
C2222 C2205 1.574 . S
C2222 H2216 0.949 . S
C2222 C2226 1.368 . S
C2223 C2204 1.429 . S
C2223 C2217 1.429 . S
C2223 C2224 1.523 . S
C2224 C2205 1.368 . S
C2224 C2218 1.368 . S
C2224 C2223 1.523 . S
C2225 C2209 1.429 . S
C2225 C2221 1.429 . S
C2225 C2226 1.523 . S
C2226 C2210 1.368 . S
C2226 C2222 1.368 . S
C2226 C2225 1.523 . S
H2227 C2202 0.950 1_455 S
H2228 C2204 0.950 . S
H2229 C2205 0.949 . S
H2230 C2207 0.950 . S
H2231 C2209 0.950 . S
C2232 C2233 1.349 . S
C2232 C2234 1.327 . S
C2232 H2257 0.950 1_556 S
C2233 C2232 1.349 . S
C2233 C2249 1.349 . S
C2234 C2232 1.327 . S
C2234 C2253 1.429 . S
C2234 H2258 0.950 . S
C2235 C2252 1.574 . S
C2235 C2254 1.368 . S
C2235 H2259 0.949 . S
H2236 C2240 0.949 . S
C2237 C2238 1.349 1_545 S
C2237 C2239 1.327 . S
C2237 H2260 0.950 . S
C2238 C2237 1.349 1_565 S
C2238 C2250 1.349 1_565 S
C2239 C2237 1.327 . S
C2239 C2255 1.429 . S
C2239 H2261 0.950 . S
C2240 H2236 0.949 . S
C2240 C2248 1.574 . S
C2240 C2256 1.368 . S
H2241 C2249 0.950 . S
H2242 C2247 0.950 . S
H2243 C2248 0.949 . S
H2244 C2250 0.950 1_565 S
H2245 C2251 0.950 . S
H2246 C2252 0.949 . S
C2247 H2242 0.950 . S
C2247 C2249 1.327 . S
C2247 C2253 1.429 . S
C2248 C2240 1.574 . S
C2248 H2243 0.949 . S
C2248 C2254 1.368 . S
C2249 C2233 1.349 . S
C2249 H2241 0.950 . S
C2249 C2247 1.327 . S
C2250 C2238 1.349 1_545 S
C2250 H2244 0.950 1_545 S
C2250 C2251 1.327 . S
C2251 H2245 0.950 . S
C2251 C2250 1.327 . S
C2251 C2255 1.429 . S
C2252 C2235 1.574 . S
C2252 H2246 0.949 . S
C2252 C2256 1.368 . S
C2253 C2234 1.429 . S
C2253 C2247 1.429 . S
C2253 C2254 1.523 . S
C2254 C2235 1.368 . S
C2254 C2248 1.368 . S
C2254 C2253 1.523 . S
C2255 C2239 1.429 . S
C2255 C2251 1.429 . S
C2255 C2256 1.523 . S
C2256 C2240 1.368 . S
C2256 C2252 1.368 . S
C2256 C2255 1.523 . S
H2257 C2232 0.950 1_554 S
H2258 C2234 0.950 . S
H2259 C2235 0.949 . S
H2260 C2237 0.950 . S
H2261 C2239 0.950 . S
C2262 C2263 1.349 . S
C2262 C2264 1.327 . S
C2262 H2287 0.950 1_554 S
C2263 C2262 1.349 . S
C2263 C2279 1.349 . S
C2264 C2262 1.327 . S
C2264 C2283 1.429 . S
C2264 H2288 0.950 . S
C2265 C2282 1.574 . S
C2265 C2284 1.368 . S
C2265 H2289 0.949 . S
H2266 C2270 0.949 . S
C2267 C2268 1.349 . S
C2267 C2269 1.327 . S
C2267 H2290 0.950 . S
C2268 C2267 1.349 . S
C2268 C2280 1.349 . S
C2269 C2267 1.327 . S
C2269 C2285 1.429 . S
C2269 H2291 0.950 . S
C2270 H2266 0.949 . S
C2270 C2278 1.574 . S
C2270 C2286 1.368 . S
H2271 C2279 0.950 . S
H2272 C2277 0.950 . S
H2273 C2278 0.949 . S
H2274 C2280 0.950 . S
H2275 C2281 0.950 . S
H2276 C2282 0.949 . S
C2277 H2272 0.950 . S
C2277 C2279 1.327 . S
C2277 C2283 1.429 . S
C2278 C2270 1.574 . S
C2278 H2273 0.949 . S
C2278 C2284 1.368 . S
C2279 C2263 1.349 . S
C2279 H2271 0.950 . S
C2279 C2277 1.327 . S
C2280 C2268 1.349 . S
C2280 H2274 0.950 . S
C2280 C2281 1.327 . S
C2281 H2275 0.950 . S
C2281 C2280 1.327 . S
C2281 C2285 1.429 . S
C2282 C2265 1.574 . S
C2282 H2276 0.949 . S
C2282 C2286 1.368 . S
C2283 C2264 1.429 . S
C2283 C2277 1.429 . S
C2283 C2284 1.523 . S
C2284 C2265 1.368 . S
C2284 C2278 1.368 . S
C2284 C2283 1.523 . S
C2285 C2269 1.429 . S
C2285 C2281 1.429 . S
C2285 C2286 1.523 . S
C2286 C2270 1.368 . S
C2286 C2282 1.368 . S
C2286 C2285 1.523 . S
H2287 C2262 0.950 1_556 S
H2288 C2264 0.950 . S
H2289 C2265 0.949 . S
H2290 C2267 0.950 . S
H2291 C2269 0.950 . S
C2292 C2293 1.349 . S
C2292 C2294 1.327 . S
C2292 H2317 0.950 . S
C2293 C2292 1.349 . S
C2293 C2309 1.349 . S
C2294 C2292 1.327 . S
C2294 C2313 1.429 . S
C2294 H2318 0.950 . S
C2295 C2312 1.574 . S
C2295 C2314 1.368 . S
C2295 H2319 0.949 . S
H2296 C2300 0.949 . S
C2297 C2298 1.349 . S
C2297 C2299 1.327 . S
C2297 H2320 0.950 . S
C2298 C2297 1.349 . S
C2298 C2310 1.349 . S
C2299 C2297 1.327 . S
C2299 C2315 1.429 . S
C2299 H2321 0.950 . S
C2300 H2296 0.949 . S
C2300 C2308 1.574 . S
C2300 C2316 1.368 . S
H2301 C2309 0.950 . S
H2302 C2307 0.950 . S
H2303 C2308 0.949 . S
H2304 C2310 0.950 . S
H2305 C2311 0.950 . S
H2306 C2312 0.949 . S
C2307 H2302 0.950 . S
C2307 C2309 1.327 . S
C2307 C2313 1.429 . S
C2308 C2300 1.574 . S
C2308 H2303 0.949 . S
C2308 C2314 1.368 . S
C2309 C2293 1.349 . S
C2309 H2301 0.950 . S
C2309 C2307 1.327 . S
C2310 C2298 1.349 . S
C2310 H2304 0.950 . S
C2310 C2311 1.327 . S
C2311 H2305 0.950 . S
C2311 C2310 1.327 . S
C2311 C2315 1.429 . S
C2312 C2295 1.574 . S
C2312 H2306 0.949 . S
C2312 C2316 1.368 . S
C2313 C2294 1.429 . S
C2313 C2307 1.429 . S
C2313 C2314 1.523 . S
C2314 C2295 1.368 . S
C2314 C2308 1.368 . S
C2314 C2313 1.523 . S
C2315 C2299 1.429 . S
C2315 C2311 1.429 . S
C2315 C2316 1.523 . S
C2316 C2300 1.368 . S
C2316 C2312 1.368 . S
C2316 C2315 1.523 . S
H2317 C2292 0.950 . S
H2318 C2294 0.950 . S
H2319 C2295 0.949 . S
H2320 C2297 0.950 . S
H2321 C2299 0.950 . S
C2322 C2323 1.349 . S
C2322 C2324 1.327 . S
C2322 H2347 0.950 . S
C2323 C2322 1.349 . S
C2323 C2339 1.349 . S
C2324 C2322 1.327 . S
C2324 C2343 1.429 . S
C2324 H2348 0.950 . S
C2325 C2342 1.574 . S
C2325 C2344 1.368 . S
C2325 H2349 0.949 . S
H2326 C2330 0.949 . S
C2327 C2328 1.348 1_565 S
C2327 C2329 1.334 . S
C2327 H2350 0.943 1_565 S
C2328 C2327 1.348 1_545 S
C2328 C2340 1.349 1_545 S
C2329 C2327 1.334 . S
C2329 C2345 1.429 . S
C2329 H2351 0.950 . S
C2330 H2326 0.949 . S
C2330 C2338 1.574 . S
C2330 C2346 1.368 . S
H2331 C2339 0.950 . S
H2332 C2337 0.950 . S
H2333 C2338 0.949 . S
H2334 C2340 0.950 . S
H2335 C2341 0.950 . S
H2336 C2342 0.949 . S
C2337 H2332 0.950 . S
C2337 C2339 1.327 . S
C2337 C2343 1.429 . S
C2338 C2330 1.574 . S
C2338 H2333 0.949 . S
C2338 C2344 1.368 . S
C2339 C2323 1.349 . S
C2339 H2331 0.950 . S
C2339 C2337 1.327 . S
C2340 C2328 1.349 1_565 S
C2340 H2334 0.950 . S
C2340 C2341 1.327 . S
C2341 H2335 0.950 . S
C2341 C2340 1.327 . S
C2341 C2345 1.429 . S
C2342 C2325 1.574 . S
C2342 H2336 0.949 . S
C2342 C2346 1.368 . S
C2343 C2324 1.429 . S
C2343 C2337 1.429 . S
C2343 C2344 1.523 . S
C2344 C2325 1.368 . S
C2344 C2338 1.368 . S
C2344 C2343 1.523 . S
C2345 C2329 1.429 . S
C2345 C2341 1.429 . S
C2345 C2346 1.523 . S
C2346 C2330 1.368 . S
C2346 C2342 1.368 . S
C2346 C2345 1.523 . S
H2347 C2322 0.950 . S
H2348 C2324 0.950 . S
H2349 C2325 0.949 . S
H2350 C2327 0.943 1_545 S
H2351 C2329 0.950 . S
C2352 C2353 1.349 . S
C2352 C2354 1.327 . S
C2352 H2377 0.950 . S
C2353 C2352 1.349 . S
C2353 C2369 1.349 . S
C2354 C2352 1.327 . S
C2354 C2373 1.429 . S
C2354 H2378 0.950 . S
C2355 C2372 1.574 . S
C2355 C2374 1.368 . S
C2355 H2379 0.949 . S
H2356 C2360 0.949 . S
C2357 C2358 1.349 1_556 S
C2357 C2359 1.327 . S
C2357 H2380 0.950 1_556 S
C2358 C2357 1.349 1_554 S
C2358 C2370 1.349 1_554 S
C2359 C2357 1.327 . S
C2359 C2375 1.429 . S
C2359 H2381 0.950 . S
C2360 H2356 0.949 . S
C2360 C2368 1.574 . S
C2360 C2376 1.368 . S
H2361 C2369 0.950 1_655 S
H2362 C2367 0.950 . S
H2363 C2368 0.949 . S
H2364 C2370 0.950 . S
H2365 C2371 0.950 . S
H2366 C2372 0.949 . S
C2367 H2362 0.950 . S
C2367 C2369 1.327 . S
C2367 C2373 1.429 . S
C2368 C2360 1.574 . S
C2368 H2363 0.949 . S
C2368 C2374 1.368 . S
C2369 C2353 1.349 . S
C2369 H2361 0.950 1_455 S
C2369 C2367 1.327 . S
C2370 C2358 1.349 1_556 S
C2370 H2364 0.950 . S
C2370 C2371 1.327 . S
C2371 H2365 0.950 . S
C2371 C2370 1.327 . S
C2371 C2375 1.429 . S
C2372 C2355 1.574 . S
C2372 H2366 0.949 . S
C2372 C2376 1.368 . S
C2373 C2354 1.429 . S
C2373 C2367 1.429 . S
C2373 C2374 1.523 . S
C2374 C2355 1.368 . S
C2374 C2368 1.368 . S
C2374 C2373 1.523 . S
C2375 C2359 1.429 . S
C2375 C2371 1.429 . S
C2375 C2376 1.523 . S
C2376 C2360 1.368 . S
C2376 C2372 1.368 . S
C2376 C2375 1.523 . S
H2377 C2352 0.950 . S
H2378 C2354 0.950 . S
H2379 C2355 0.949 . S
H2380 C2357 0.950 1_554 S
H2381 C2359 0.950 . S
C2382 C2383 1.349 . S
C2382 C2384 1.327 . S
C2382 H2407 0.950 . S
C2383 C2382 1.349 . S
C2383 C2399 1.349 . S
C2384 C2382 1.327 . S
C2384 C2403 1.429 . S
C2384 H2408 0.950 . S
C2385 C2402 1.574 . S
C2385 C2404 1.368 . S
C2385 H2409 0.949 . S
H2386 C2390 0.949 . S
C2387 C2388 1.349 . S
C2387 C2389 1.327 . S
C2387 H2410 0.950 . S
C2388 C2387 1.349 . S
C2388 C2400 1.349 . S
C2389 C2387 1.327 . S
C2389 C2405 1.429 . S
C2389 H2411 0.950 . S
C2390 H2386 0.949 . S
C2390 C2398 1.574 . S
C2390 C2406 1.368 . S
H2391 C2399 0.950 . S
H2392 C2397 0.950 . S
H2393 C2398 0.949 . S
H2394 C2400 0.950 . S
H2395 C2401 0.950 . S
H2396 C2402 0.949 . S
C2397 H2392 0.950 . S
C2397 C2399 1.327 . S
C2397 C2403 1.429 . S
C2398 C2390 1.574 . S
C2398 H2393 0.949 . S
C2398 C2404 1.368 . S
C2399 C2383 1.349 . S
C2399 H2391 0.950 . S
C2399 C2397 1.327 . S
C2400 C2388 1.349 . S
C2400 H2394 0.950 . S
C2400 C2401 1.327 . S
C2401 H2395 0.950 . S
C2401 C2400 1.327 . S
C2401 C2405 1.429 . S
C2402 C2385 1.574 . S
C2402 H2396 0.949 . S
C2402 C2406 1.368 . S
C2403 C2384 1.429 . S
C2403 C2397 1.429 . S
C2403 C2404 1.523 . S
C2404 C2385 1.368 . S
C2404 C2398 1.368 . S
C2404 C2403 1.523 . S
C2405 C2389 1.429 . S
C2405 C2401 1.429 . S
C2405 C2406 1.523 . S
C2406 C2390 1.368 . S
C2406 C2402 1.368 . S
C2406 C2405 1.523 . S
H2407 C2382 0.950 . S
H2408 C2384 0.950 . S
H2409 C2385 0.949 . S
H2410 C2387 0.950 . S
H2411 C2389 0.950 . S
C2412 C2413 1.349 1_554 S
C2412 C2414 1.327 . S
C2412 H2437 0.950 . S
C2413 C2412 1.349 1_556 S
C2413 C2429 1.349 1_556 S
C2414 C2412 1.327 . S
C2414 C2433 1.429 . S
C2414 H2438 0.950 . S
C2415 C2432 1.574 . S
C2415 C2434 1.368 . S
C2415 H2439 0.949 . S
H2416 C2420 0.949 . S
C2417 C2418 1.349 . S
C2417 C2419 1.327 . S
C2417 H2440 0.950 . S
C2418 C2417 1.349 . S
C2418 C2430 1.349 . S
C2419 C2417 1.327 . S
C2419 C2435 1.429 . S
C2419 H2441 0.950 . S
C2420 H2416 0.949 . S
C2420 C2428 1.574 . S
C2420 C2436 1.368 . S
H2421 C2429 0.950 1_556 S
H2422 C2427 0.950 . S
H2423 C2428 0.949 . S
H2424 C2430 0.950 . S
H2425 C2431 0.950 . S
H2426 C2432 0.949 . S
C2427 H2422 0.950 . S
C2427 C2429 1.327 . S
C2427 C2433 1.429 . S
C2428 C2420 1.574 . S
C2428 H2423 0.949 . S
C2428 C2434 1.368 . S
C2429 C2413 1.349 1_554 S
C2429 H2421 0.950 1_554 S
C2429 C2427 1.327 . S
C2430 C2418 1.349 . S
C2430 H2424 0.950 . S
C2430 C2431 1.327 . S
C2431 H2425 0.950 . S
C2431 C2430 1.327 . S
C2431 C2435 1.429 . S
C2432 C2415 1.574 . S
C2432 H2426 0.949 . S
C2432 C2436 1.368 . S
C2433 C2414 1.429 . S
C2433 C2427 1.429 . S
C2433 C2434 1.523 . S
C2434 C2415 1.368 . S
C2434 C2428 1.368 . S
C2434 C2433 1.523 . S
C2435 C2419 1.429 . S
C2435 C2431 1.429 . S
C2435 C2436 1.523 . S
C2436 C2420 1.368 . S
C2436 C2432 1.368 . S
C2436 C2435 1.523 . S
H2437 C2412 0.950 . S
H2438 C2414 0.950 . S
H2439 C2415 0.949 . S
H2440 C2417 0.950 . S
H2441 C2419 0.950 . S
C2442 C2443 1.349 . S
C2442 C2444 1.327 . S
C2442 H2467 0.950 . S
C2443 C2442 1.349 . S
C2443 C2459 1.349 . S
C2444 C2442 1.327 . S
C2444 C2463 1.429 . S
C2444 H2468 0.950 . S
C2445 C2462 1.574 . S
C2445 C2464 1.368 . S
C2445 H2469 0.949 . S
H2446 C2450 0.949 . S
C2447 C2448 1.349 . S
C2447 C2449 1.327 . S
C2447 H2470 0.950 1_655 S
C2448 C2447 1.349 . S
C2448 C2460 1.349 . S
C2449 C2447 1.327 . S
C2449 C2465 1.429 . S
C2449 H2471 0.950 . S
C2450 H2446 0.949 . S
C2450 C2458 1.574 . S
C2450 C2466 1.368 . S
H2451 C2459 0.950 . S
H2452 C2457 0.950 . S
H2453 C2458 0.949 . S
H2454 C2460 0.950 . S
H2455 C2461 0.950 . S
H2456 C2462 0.949 . S
C2457 H2452 0.950 . S
C2457 C2459 1.327 . S
C2457 C2463 1.429 . S
C2458 C2450 1.574 . S
C2458 H2453 0.949 . S
C2458 C2464 1.368 . S
C2459 C2443 1.349 . S
C2459 H2451 0.950 . S
C2459 C2457 1.327 . S
C2460 C2448 1.349 . S
C2460 H2454 0.950 . S
C2460 C2461 1.327 . S
C2461 H2455 0.950 . S
C2461 C2460 1.327 . S
C2461 C2465 1.429 . S
C2462 C2445 1.574 . S
C2462 H2456 0.949 . S
C2462 C2466 1.368 . S
C2463 C2444 1.429 . S
C2463 C2457 1.429 . S
C2463 C2464 1.523 . S
C2464 C2445 1.368 . S
C2464 C2458 1.368 . S
C2464 C2463 1.523 . S
C2465 C2449 1.429 . S
C2465 C2461 1.429 . S
C2465 C2466 1.523 . S
C2466 C2450 1.368 . S
C2466 C2462 1.368 . S
C2466 C2465 1.523 . S
H2467 C2442 0.950 . S
H2468 C2444 0.950 . S
H2469 C2445 0.949 . S
H2470 C2447 0.950 1_455 S
H2471 C2449 0.950 . S
C2472 C2473 1.349 . S
C2472 C2474 1.327 . S
C2472 H2497 0.950 1_545 S
C2473 C2472 1.349 . S
C2473 C2489 1.349 . S
C2474 C2472 1.327 . S
C2474 C2493 1.429 . S
C2474 H2498 0.950 . S
C2475 C2492 1.574 . S
C2475 C2494 1.368 . S
C2475 H2499 0.949 . S
H2476 C2480 0.949 . S
C2477 C2478 1.349 1_655 S
C2477 C2479 1.327 . S
C2477 H2500 0.950 . S
C2478 C2477 1.349 1_455 S
C2478 C2490 1.349 1_455 S
C2479 C2477 1.327 . S
C2479 C2495 1.429 . S
C2479 H2501 0.950 . S
C2480 H2476 0.949 . S
C2480 C2488 1.574 . S
C2480 C2496 1.368 . S
H2481 C2489 0.950 . S
H2482 C2487 0.950 . S
H2483 C2488 0.949 . S
H2484 C2490 0.950 1_455 S
H2485 C2491 0.950 . S
H2486 C2492 0.949 . S
C2487 H2482 0.950 . S
C2487 C2489 1.327 . S
C2487 C2493 1.429 . S
C2488 C2480 1.574 . S
C2488 H2483 0.949 . S
C2488 C2494 1.368 . S
C2489 C2473 1.349 . S
C2489 H2481 0.950 . S
C2489 C2487 1.327 . S
C2490 C2478 1.349 1_655 S
C2490 H2484 0.950 1_655 S
C2490 C2491 1.327 . S
C2491 H2485 0.950 . S
C2491 C2490 1.327 . S
C2491 C2495 1.429 . S
C2492 C2475 1.574 . S
C2492 H2486 0.949 . S
C2492 C2496 1.368 . S
C2493 C2474 1.429 . S
C2493 C2487 1.429 . S
C2493 C2494 1.523 . S
C2494 C2475 1.368 . S
C2494 C2488 1.368 . S
C2494 C2493 1.523 . S
C2495 C2479 1.429 . S
C2495 C2491 1.429 . S
C2495 C2496 1.523 . S
C2496 C2480 1.368 . S
C2496 C2492 1.368 . S
C2496 C2495 1.523 . S
H2497 C2472 0.950 1_565 S
H2498 C2474 0.950 . S
H2499 C2475 0.949 . S
H2500 C2477 0.950 . S
H2501 C2479 0.950 . S
C2502 C2503 1.349 . S
C2502 C2504 1.327 . S
C2502 H2527 0.950 . S
C2503 C2502 1.349 . S
C2503 C2519 1.349 . S
C2504 C2502 1.327 . S
C2504 C2523 1.429 . S
C2504 H2528 0.950 . S
C2505 C2522 1.574 . S
C2505 C2524 1.368 . S
C2505 H2529 0.949 . S
H2506 C2510 0.949 . S
C2507 C2508 1.349 . S
C2507 C2509 1.327 . S
C2507 H2530 0.950 . S
C2508 C2507 1.349 . S
C2508 C2520 1.349 . S
C2509 C2507 1.327 . S
C2509 C2525 1.429 . S
C2509 H2531 0.950 . S
C2510 H2506 0.949 . S
C2510 C2518 1.574 . S
C2510 C2526 1.368 . S
H2511 C2519 0.950 1_545 S
H2512 C2517 0.950 . S
H2513 C2518 0.949 . S
H2514 C2520 0.950 . S
H2515 C2521 0.950 . S
H2516 C2522 0.949 . S
C2517 H2512 0.950 . S
C2517 C2519 1.327 . S
C2517 C2523 1.429 . S
C2518 C2510 1.574 . S
C2518 H2513 0.949 . S
C2518 C2524 1.368 . S
C2519 C2503 1.349 . S
C2519 H2511 0.950 1_565 S
C2519 C2517 1.327 . S
C2520 C2508 1.349 . S
C2520 H2514 0.950 . S
C2520 C2521 1.327 . S
C2521 H2515 0.950 . S
C2521 C2520 1.327 . S
C2521 C2525 1.429 . S
C2522 C2505 1.574 . S
C2522 H2516 0.949 . S
C2522 C2526 1.368 . S
C2523 C2504 1.429 . S
C2523 C2517 1.429 . S
C2523 C2524 1.523 . S
C2524 C2505 1.368 . S
C2524 C2518 1.368 . S
C2524 C2523 1.523 . S
C2525 C2509 1.429 . S
C2525 C2521 1.429 . S
C2525 C2526 1.523 . S
C2526 C2510 1.368 . S
C2526 C2522 1.368 . S
C2526 C2525 1.523 . S
H2527 C2502 0.950 . S
H2528 C2504 0.950 . S
H2529 C2505 0.949 . S
H2530 C2507 0.950 . S
H2531 C2509 0.950 . S
C2532 C2533 1.349 . S
C2532 C2534 1.327 . S
C2532 H2557 0.950 . S
C2533 C2532 1.349 . S
C2533 C2549 1.349 . S
C2534 C2532 1.327 . S
C2534 C2553 1.429 . S
C2534 H2558 0.950 . S
C2535 C2552 1.574 . S
C2535 C2554 1.368 . S
C2535 H2559 0.949 . S
H2536 C2540 0.949 . S
C2537 C2538 1.349 . S
C2537 C2539 1.327 . S
C2537 H2560 0.950 . S
C2538 C2537 1.349 . S
C2538 C2550 1.349 . S
C2539 C2537 1.327 . S
C2539 C2555 1.429 . S
C2539 H2561 0.950 . S
C2540 H2536 0.949 . S
C2540 C2548 1.574 . S
C2540 C2556 1.368 . S
H2541 C2549 0.950 . S
H2542 C2547 0.950 . S
H2543 C2548 0.949 . S
H2544 C2550 0.950 . S
H2545 C2551 0.950 . S
H2546 C2552 0.949 . S
C2547 H2542 0.950 . S
C2547 C2549 1.327 . S
C2547 C2553 1.429 . S
C2548 C2540 1.574 . S
C2548 H2543 0.949 . S
C2548 C2554 1.368 . S
C2549 C2533 1.349 . S
C2549 H2541 0.950 . S
C2549 C2547 1.327 . S
C2550 C2538 1.349 . S
C2550 H2544 0.950 . S
C2550 C2551 1.327 . S
C2551 H2545 0.950 . S
C2551 C2550 1.327 . S
C2551 C2555 1.429 . S
C2552 C2535 1.574 . S
C2552 H2546 0.949 . S
C2552 C2556 1.368 . S
C2553 C2534 1.429 . S
C2553 C2547 1.429 . S
C2553 C2554 1.523 . S
C2554 C2535 1.368 . S
C2554 C2548 1.368 . S
C2554 C2553 1.523 . S
C2555 C2539 1.429 . S
C2555 C2551 1.429 . S
C2555 C2556 1.523 . S
C2556 C2540 1.368 . S
C2556 C2552 1.368 . S
C2556 C2555 1.523 . S
H2557 C2532 0.950 . S
H2558 C2534 0.950 . S
H2559 C2535 0.949 . S
H2560 C2537 0.950 . S
H2561 C2539 0.950 . S
C2562 C2563 1.349 . S
C2562 C2564 1.327 . S
C2562 H2587 0.950 . S
C2563 C2562 1.349 . S
C2563 C2579 1.349 . S
C2564 C2562 1.327 . S
C2564 C2583 1.429 . S
C2564 H2588 0.950 . S
C2565 C2582 1.574 . S
C2565 C2584 1.368 . S
C2565 H2589 0.949 . S
H2566 C2570 0.949 . S
C2567 C2568 1.349 1_455 S
C2567 C2569 1.327 . S
C2567 H2590 0.950 . S
C2568 C2567 1.349 1_655 S
C2568 C2580 1.349 1_655 S
C2569 C2567 1.327 . S
C2569 C2585 1.429 . S
C2569 H2591 0.950 . S
C2570 H2566 0.949 . S
C2570 C2578 1.574 . S
C2570 C2586 1.368 . S
H2571 C2579 0.950 . S
H2572 C2577 0.950 . S
H2573 C2578 0.949 . S
H2574 C2580 0.950 1_655 S
H2575 C2581 0.950 . S
H2576 C2582 0.949 . S
C2577 H2572 0.950 . S
C2577 C2579 1.327 . S
C2577 C2583 1.429 . S
C2578 C2570 1.574 . S
C2578 H2573 0.949 . S
C2578 C2584 1.368 . S
C2579 C2563 1.349 . S
C2579 H2571 0.950 . S
C2579 C2577 1.327 . S
C2580 C2568 1.349 1_455 S
C2580 H2574 0.950 1_455 S
C2580 C2581 1.327 . S
C2581 H2575 0.950 . S
C2581 C2580 1.327 . S
C2581 C2585 1.429 . S
C2582 C2565 1.574 . S
C2582 H2576 0.949 . S
C2582 C2586 1.368 . S
C2583 C2564 1.429 . S
C2583 C2577 1.429 . S
C2583 C2584 1.523 . S
C2584 C2565 1.368 . S
C2584 C2578 1.368 . S
C2584 C2583 1.523 . S
C2585 C2569 1.429 . S
C2585 C2581 1.429 . S
C2585 C2586 1.523 . S
C2586 C2570 1.368 . S
C2586 C2582 1.368 . S
C2586 C2585 1.523 . S
H2587 C2562 0.950 . S
H2588 C2564 0.950 . S
H2589 C2565 0.949 . S
H2590 C2567 0.950 . S
H2591 C2569 0.950 . S
C2592 C2593 1.349 . S
C2592 C2594 1.327 . S
C2592 H2617 0.950 1_554 S
C2593 C2592 1.349 . S
C2593 C2609 1.349 . S
C2594 C2592 1.327 . S
C2594 C2613 1.429 . S
C2594 H2618 0.950 . S
C2595 C2612 1.574 . S
C2595 C2614 1.368 . S
C2595 H2619 0.949 . S
H2596 C2600 0.949 . S
C2597 C2598 1.349 1_565 S
C2597 C2599 1.327 . S
C2597 H2620 0.950 . S
C2598 C2597 1.349 1_545 S
C2598 C2610 1.349 1_545 S
C2599 C2597 1.327 . S
C2599 C2615 1.429 . S
C2599 H2621 0.950 . S
C2600 H2596 0.949 . S
C2600 C2608 1.574 . S
C2600 C2616 1.368 . S
H2601 C2609 0.950 . S
H2602 C2607 0.950 . S
H2603 C2608 0.949 . S
H2604 C2610 0.950 1_545 S
H2605 C2611 0.950 . S
H2606 C2612 0.949 . S
C2607 H2602 0.950 . S
C2607 C2609 1.327 . S
C2607 C2613 1.429 . S
C2608 C2600 1.574 . S
C2608 H2603 0.949 . S
C2608 C2614 1.368 . S
C2609 C2593 1.349 . S
C2609 H2601 0.950 . S
C2609 C2607 1.327 . S
C2610 C2598 1.349 1_565 S
C2610 H2604 0.950 1_565 S
C2610 C2611 1.327 . S
C2611 H2605 0.950 . S
C2611 C2610 1.327 . S
C2611 C2615 1.429 . S
C2612 C2595 1.574 . S
C2612 H2606 0.949 . S
C2612 C2616 1.368 . S
C2613 C2594 1.429 . S
C2613 C2607 1.429 . S
C2613 C2614 1.523 . S
C2614 C2595 1.368 . S
C2614 C2608 1.368 . S
C2614 C2613 1.523 . S
C2615 C2599 1.429 . S
C2615 C2611 1.429 . S
C2615 C2616 1.523 . S
C2616 C2600 1.368 . S
C2616 C2612 1.368 . S
C2616 C2615 1.523 . S
H2617 C2592 0.950 1_556 S
H2618 C2594 0.950 . S
H2619 C2595 0.949 . S
H2620 C2597 0.950 . S
H2621 C2599 0.950 . S
C2622 C2623 1.349 . S
C2622 C2624 1.327 . S
C2622 H2647 0.950 . S
C2623 C2622 1.349 . S
C2623 C2639 1.349 . S
C2624 C2622 1.327 . S
C2624 C2643 1.429 . S
C2624 H2648 0.950 . S
C2625 C2642 1.574 . S
C2625 C2644 1.368 . S
C2625 H2649 0.949 . S
H2626 C2630 0.949 . S
C2627 C2628 1.364 . S
C2627 C2629 1.346 . S
C2627 H2650 0.916 1_556 S
C2628 C2627 1.364 . S
C2628 C2640 1.349 . S
C2629 C2627 1.346 . S
C2629 C2645 1.429 . S
C2629 H2651 0.950 . S
C2630 H2626 0.949 . S
C2630 C2638 1.574 . S
C2630 C2646 1.368 . S
H2631 C2639 0.950 . S
H2632 C2637 0.950 . S
H2633 C2638 0.949 . S
H2634 C2640 0.950 . S
H2635 C2641 0.950 . S
H2636 C2642 0.949 . S
C2637 H2632 0.950 . S
C2637 C2639 1.327 . S
C2637 C2643 1.429 . S
C2638 C2630 1.574 . S
C2638 H2633 0.949 . S
C2638 C2644 1.368 . S
C2639 C2623 1.349 . S
C2639 H2631 0.950 . S
C2639 C2637 1.327 . S
C2640 C2628 1.349 . S
C2640 H2634 0.950 . S
C2640 C2641 1.327 . S
C2641 H2635 0.950 . S
C2641 C2640 1.327 . S
C2641 C2645 1.429 . S
C2642 C2625 1.574 . S
C2642 H2636 0.949 . S
C2642 C2646 1.368 . S
C2643 C2624 1.429 . S
C2643 C2637 1.429 . S
C2643 C2644 1.523 . S
C2644 C2625 1.368 . S
C2644 C2638 1.368 . S
C2644 C2643 1.523 . S
C2645 C2629 1.429 . S
C2645 C2641 1.429 . S
C2645 C2646 1.523 . S
C2646 C2630 1.368 . S
C2646 C2642 1.368 . S
C2646 C2645 1.523 . S
H2647 C2622 0.950 . S
H2648 C2624 0.950 . S
H2649 C2625 0.949 . S
H2650 C2627 0.916 1_554 S
H2651 C2629 0.950 . S
C2652 C2653 1.349 . S
C2652 C2654 1.327 . S
C2652 H2677 0.950 . S
C2653 C2652 1.349 . S
C2653 C2669 1.349 . S
C2654 C2652 1.327 . S
C2654 C2673 1.429 . S
C2654 H2678 0.950 . S
C2655 C2672 1.574 . S
C2655 C2674 1.368 . S
C2655 H2679 0.949 . S
H2656 C2660 0.949 . S
C2657 C2658 1.349 . S
C2657 C2659 1.327 . S
C2657 H2680 0.950 . S
C2658 C2657 1.349 . S
C2658 C2670 1.349 . S
C2659 C2657 1.327 . S
C2659 C2675 1.429 . S
C2659 H2681 0.950 . S
C2660 H2656 0.949 . S
C2660 C2668 1.574 . S
C2660 C2676 1.368 . S
H2661 C2669 0.950 . S
H2662 C2667 0.950 . S
H2663 C2668 0.949 . S
H2664 C2670 0.950 . S
H2665 C2671 0.950 . S
H2666 C2672 0.949 . S
C2667 H2662 0.950 . S
C2667 C2669 1.327 . S
C2667 C2673 1.429 . S
C2668 C2660 1.574 . S
C2668 H2663 0.949 . S
C2668 C2674 1.368 . S
C2669 C2653 1.349 . S
C2669 H2661 0.950 . S
C2669 C2667 1.327 . S
C2670 C2658 1.349 . S
C2670 H2664 0.950 . S
C2670 C2671 1.327 . S
C2671 H2665 0.950 . S
C2671 C2670 1.327 . S
C2671 C2675 1.429 . S
C2672 C2655 1.574 . S
C2672 H2666 0.949 . S
C2672 C2676 1.368 . S
C2673 C2654 1.429 . S
C2673 C2667 1.429 . S
C2673 C2674 1.523 . S
C2674 C2655 1.368 . S
C2674 C2668 1.368 . S
C2674 C2673 1.523 . S
C2675 C2659 1.429 . S
C2675 C2671 1.429 . S
C2675 C2676 1.523 . S
C2676 C2660 1.368 . S
C2676 C2672 1.368 . S
C2676 C2675 1.523 . S
H2677 C2652 0.950 . S
H2678 C2654 0.950 . S
H2679 C2655 0.949 . S
H2680 C2657 0.950 . S
H2681 C2659 0.950 . S
C2682 C2683 1.349 . S
C2682 C2684 1.327 . S
C2682 H2707 0.950 . S
C2683 C2682 1.349 . S
C2683 C2699 1.349 . S
C2684 C2682 1.327 . S
C2684 C2703 1.429 . S
C2684 H2708 0.950 . S
C2685 C2702 1.574 . S
C2685 C2704 1.368 . S
C2685 H2709 0.949 . S
H2686 C2690 0.949 . S
C2687 C2688 1.349 1_545 S
C2687 C2689 1.327 . S
C2687 H2710 0.950 . S
C2688 C2687 1.349 1_565 S
C2688 C2700 1.349 1_565 S
C2689 C2687 1.327 . S
C2689 C2705 1.429 . S
C2689 H2711 0.950 . S
C2690 H2686 0.949 . S
C2690 C2698 1.574 . S
C2690 C2706 1.368 . S
H2691 C2699 0.950 . S
H2692 C2697 0.950 . S
H2693 C2698 0.949 . S
H2694 C2700 0.950 1_565 S
H2695 C2701 0.950 . S
H2696 C2702 0.949 . S
C2697 H2692 0.950 . S
C2697 C2699 1.327 . S
C2697 C2703 1.429 . S
C2698 C2690 1.574 . S
C2698 H2693 0.949 . S
C2698 C2704 1.368 . S
C2699 C2683 1.349 . S
C2699 H2691 0.950 . S
C2699 C2697 1.327 . S
C2700 C2688 1.349 1_545 S
C2700 H2694 0.950 1_545 S
C2700 C2701 1.327 . S
C2701 H2695 0.950 . S
C2701 C2700 1.327 . S
C2701 C2705 1.429 . S
C2702 C2685 1.574 . S
C2702 H2696 0.949 . S
C2702 C2706 1.368 . S
C2703 C2684 1.429 . S
C2703 C2697 1.429 . S
C2703 C2704 1.523 . S
C2704 C2685 1.368 . S
C2704 C2698 1.368 . S
C2704 C2703 1.523 . S
C2705 C2689 1.429 . S
C2705 C2701 1.429 . S
C2705 C2706 1.523 . S
C2706 C2690 1.368 . S
C2706 C2702 1.368 . S
C2706 C2705 1.523 . S
H2707 C2682 0.950 . S
H2708 C2684 0.950 . S
H2709 C2685 0.949 . S
H2710 C2687 0.950 . S
H2711 C2689 0.950 . S
C553 C19 0.914 . S
C558 C435 0.932 . S
C583 C458 0.932 . S
C588 C42 0.914 . S
C613 C65 0.914 . S
C618 C389 0.920 1_545 S
C643 C88 0.914 . S
C648 C412 0.920 1_565 S
C673 C527 0.932 . S
C678 C111 0.914 . S
C703 C134 0.914 . S
C708 C504 0.920 1_556 S
C733 C550 0.932 . S
C738 C157 0.914 . S
C763 C180 0.914 . S
C768 C481 0.920 1_554 S
C793 C203 0.914 . S
C798 C320 0.932 . S
C823 C226 0.914 . S
C828 C366 0.920 1_655 S
C853 C343 0.932 . S
C858 C249 0.914 . S
C883 C272 0.914 . S
C888 C297 0.920 1_455 S
C913 C295 0.914 . S
C918 C159 0.932 . S
C943 C318 0.914 . S
C948 C182 0.932 . S
C973 C341 0.914 . S
C978 C113 0.920 1_565 S
C1003 C136 0.920 1_545 S
C1008 C364 0.914 . S
C1033 C387 0.914 . S
C1038 C251 0.932 . S
C1063 C228 0.920 1_554 S
C1068 C410 0.914 . S
C1093 C274 0.932 . S
C1098 C433 0.914 . S
C1123 C205 0.920 1_556 S
C1128 C456 0.914 . S
C1153 C44 0.932 . S
C1158 C479 0.914 . S
C1183 C90 0.920 1_455 S
C1188 C502 0.914 . S
C1213 C67 0.932 . S
C1218 C525 0.914 . S
C1243 C548 0.914 . S
C1248 C21 0.920 1_655 S
C1273 C110 1.288 . S
C1278 C16 1.306 . S
C1303 C133 1.288 . S
C1308 C39 1.306 . S
C1333 C156 1.288 . S
C1338 C62 1.306 . S
C1363 C179 1.288 . S
C1368 C85 1.306 . S
C1393 C108 1.306 . S
C1398 C202 1.288 . S
C1423 C131 1.306 . S
C1428 C271 1.288 . S
C1453 C154 1.306 . S
C1458 C225 1.288 . S
C1483 C177 1.306 . S
C1488 C248 1.288 . S
C1513 C200 1.306 . S
C1518 C18 1.288 . S
C1543 C223 1.306 . S
C1548 C64 1.288 . S
C1573 C246 1.306 . S
C1578 C87 1.288 . S
C1603 C41 1.288 . S
C1608 C269 1.306 . S
C1633 C386 1.288 . S
C1638 C292 1.306 . S
C1663 C409 1.288 . S
C1668 C315 1.306 . S
C1693 C338 1.306 . S
C1698 C432 1.288 . S
C1723 C361 1.306 . S
C1728 C455 1.288 . S
C1753 C478 1.288 . S
C1758 C384 1.306 . S
C1783 C407 1.306 . S
C1788 C547 1.288 . S
C1813 C501 1.288 . S
C1818 C430 1.306 . S
C1843 C453 1.306 . S
C1848 C524 1.288 . S
C1873 C294 1.288 . S
C1878 C476 1.306 . S
C1903 C499 1.306 . S
C1908 C340 1.288 . S
C1933 C522 1.306 . S
C1938 C363 1.288 . S
C1963 C317 1.288 . S
C1968 C545 1.306 . S
C1993 C20 1.377 1_655 S
C1998 C224 1.323 . S
C2023 C247 1.323 . S
C2028 C43 1.377 . S
C2053 C201 1.323 . S
C2058 C66 1.377 . S
C2083 C270 1.323 . S
C2088 C89 1.377 1_455 S
C2113 C112 1.377 1_565 S
C2118 C86 1.323 . S
C2143 C63 1.323 . S
C2148 C135 1.377 1_545 S
C2173 C158 1.377 . S
C2178 C40 1.323 . S
C2203 C17 1.323 . S
C2208 C181 1.377 . S
C2233 C204 1.377 1_556 S
C2238 C132 1.323 . S
C2263 C227 1.377 1_554 S
C2268 C178 1.323 . S
C2293 C250 1.377 . S
C2298 C155 1.323 . S
C2323 C273 1.377 . S
C2328 C109 1.323 . S
C2353 C296 1.377 1_455 S
C2358 C500 1.323 . S
C2383 C319 1.377 . S
C2388 C523 1.323 . S
C2413 C477 1.323 . S
C2418 C342 1.377 . S
C2443 C546 1.323 . S
C2448 C365 1.377 1_655 S
C2473 C388 1.377 1_545 S
C2478 C362 1.323 . S
C2503 C411 1.377 1_565 S
C2508 C339 1.323 . S
C2533 C316 1.323 . S
C2538 C434 1.377 . S
C2563 C457 1.377 . S
C2568 C293 1.323 . S
C2593 C480 1.377 1_554 S
C2598 C408 1.323 . S
C2623 C454 1.323 . S
C2628 C503 1.377 1_556 S
C2653 C526 1.377 . S
C2658 C431 1.323 . S
C2683 C549 1.377 . S
C2688 C385 1.323 . S
