# Generated by pormake.
# Topology ukn, (4)-cn, num edge types: 1
# Building blocks:
#     Node 0, Type 0, BuildingBlock: NAHDIM_clean_sbu_0, # of connection points: 4
#     Node 1, Type 0, BuildingBlock: NAHDIM_clean_sbu_0, # of connection points: 4
#     Node 2, Type 0, BuildingBlock: NAHDIM_clean_sbu_0, # of connection points: 4
#     Node 3, Type 0, BuildingBlock: NAHDIM_clean_sbu_0, # of connection points: 4
#     Node 4, Type 0, BuildingBlock: NAHDIM_clean_sbu_0, # of connection points: 4
#     Node 5, Type 0, BuildingBlock: NAHDIM_clean_sbu_0, # of connection points: 4
#     Node 6, Type 0, BuildingBlock: NAHDIM_clean_sbu_0, # of connection points: 4
#     Node 7, Type 0, BuildingBlock: NAHDIM_clean_sbu_0, # of connection points: 4
#     Node 8, Type 0, BuildingBlock: NAHDIM_clean_sbu_0, # of connection points: 4
#     Node 9, Type 0, BuildingBlock: NAHDIM_clean_sbu_0, # of connection points: 4
#     Node 10, Type 0, BuildingBlock: NAHDIM_clean_sbu_0, # of connection points: 4
#     Node 11, Type 0, BuildingBlock: NAHDIM_clean_sbu_0, # of connection points: 4
#     Node 12, Type 0, BuildingBlock: NAHDIM_clean_sbu_0, # of connection points: 4
#     Node 13, Type 0, BuildingBlock: NAHDIM_clean_sbu_0, # of connection points: 4
#     Node 14, Type 0, BuildingBlock: NAHDIM_clean_sbu_0, # of connection points: 4
#     Node 15, Type 0, BuildingBlock: NAHDIM_clean_sbu_0, # of connection points: 4
#     Node 16, Type 0, BuildingBlock: NAHDIM_clean_sbu_0, # of connection points: 4
#     Node 17, Type 0, BuildingBlock: NAHDIM_clean_sbu_0, # of connection points: 4
#     Node 18, Type 0, BuildingBlock: NAHDIM_clean_sbu_0, # of connection points: 4
#     Node 19, Type 0, BuildingBlock: NAHDIM_clean_sbu_0, # of connection points: 4
#     Node 20, Type 0, BuildingBlock: NAHDIM_clean_sbu_0, # of connection points: 4
#     Node 21, Type 0, BuildingBlock: NAHDIM_clean_sbu_0, # of connection points: 4
#     Node 22, Type 0, BuildingBlock: NAHDIM_clean_sbu_0, # of connection points: 4
#     Node 23, Type 0, BuildingBlock: NAHDIM_clean_sbu_0, # of connection points: 4
#     Node 24, Type 0, BuildingBlock: NAHDIM_clean_sbu_0, # of connection points: 4
#     Node 25, Type 0, BuildingBlock: NAHDIM_clean_sbu_0, # of connection points: 4
#     Node 26, Type 0, BuildingBlock: NAHDIM_clean_sbu_0, # of connection points: 4
#     Node 27, Type 0, BuildingBlock: NAHDIM_clean_sbu_0, # of connection points: 4
#     Node 28, Type 0, BuildingBlock: NAHDIM_clean_sbu_0, # of connection points: 4
#     Node 29, Type 0, BuildingBlock: NAHDIM_clean_sbu_0, # of connection points: 4
#     Node 30, Type 0, BuildingBlock: NAHDIM_clean_sbu_0, # of connection points: 4
#     Node 31, Type 0, BuildingBlock: NAHDIM_clean_sbu_0, # of connection points: 4
#     Node 32, Type 0, BuildingBlock: NAHDIM_clean_sbu_0, # of connection points: 4
#     Node 33, Type 0, BuildingBlock: NAHDIM_clean_sbu_0, # of connection points: 4
#     Node 34, Type 0, BuildingBlock: NAHDIM_clean_sbu_0, # of connection points: 4
#     Node 35, Type 0, BuildingBlock: NAHDIM_clean_sbu_0, # of connection points: 4
#     Edge 36, Type (0, 0), BuildingBlock: TEMPAE_clean_linker_10, # of connection points: 2
#     Edge 37, Type (0, 0), BuildingBlock: TEMPAE_clean_linker_10, # of connection points: 2
#     Edge 38, Type (0, 0), BuildingBlock: TEMPAE_clean_linker_10, # of connection points: 2
#     Edge 39, Type (0, 0), BuildingBlock: TEMPAE_clean_linker_10, # of connection points: 2
#     Edge 40, Type (0, 0), BuildingBlock: TEMPAE_clean_linker_10, # of connection points: 2
#     Edge 41, Type (0, 0), BuildingBlock: TEMPAE_clean_linker_10, # of connection points: 2
#     Edge 42, Type (0, 0), BuildingBlock: TEMPAE_clean_linker_10, # of connection points: 2
#     Edge 43, Type (0, 0), BuildingBlock: TEMPAE_clean_linker_10, # of connection points: 2
#     Edge 44, Type (0, 0), BuildingBlock: TEMPAE_clean_linker_10, # of connection points: 2
#     Edge 45, Type (0, 0), BuildingBlock: TEMPAE_clean_linker_10, # of connection points: 2
#     Edge 46, Type (0, 0), BuildingBlock: TEMPAE_clean_linker_10, # of connection points: 2
#     Edge 47, Type (0, 0), BuildingBlock: TEMPAE_clean_linker_10, # of connection points: 2
#     Edge 48, Type (0, 0), BuildingBlock: TEMPAE_clean_linker_10, # of connection points: 2
#     Edge 49, Type (0, 0), BuildingBlock: TEMPAE_clean_linker_10, # of connection points: 2
#     Edge 50, Type (0, 0), BuildingBlock: TEMPAE_clean_linker_10, # of connection points: 2
#     Edge 51, Type (0, 0), BuildingBlock: TEMPAE_clean_linker_10, # of connection points: 2
#     Edge 52, Type (0, 0), BuildingBlock: TEMPAE_clean_linker_10, # of connection points: 2
#     Edge 53, Type (0, 0), BuildingBlock: TEMPAE_clean_linker_10, # of connection points: 2
#     Edge 54, Type (0, 0), BuildingBlock: TEMPAE_clean_linker_10, # of connection points: 2
#     Edge 55, Type (0, 0), BuildingBlock: TEMPAE_clean_linker_10, # of connection points: 2
#     Edge 56, Type (0, 0), BuildingBlock: TEMPAE_clean_linker_10, # of connection points: 2
#     Edge 57, Type (0, 0), BuildingBlock: TEMPAE_clean_linker_10, # of connection points: 2
#     Edge 58, Type (0, 0), BuildingBlock: TEMPAE_clean_linker_10, # of connection points: 2
#     Edge 59, Type (0, 0), BuildingBlock: TEMPAE_clean_linker_10, # of connection points: 2
#     Edge 60, Type (0, 0), BuildingBlock: TEMPAE_clean_linker_10, # of connection points: 2
#     Edge 61, Type (0, 0), BuildingBlock: TEMPAE_clean_linker_10, # of connection points: 2
#     Edge 62, Type (0, 0), BuildingBlock: TEMPAE_clean_linker_10, # of connection points: 2
#     Edge 63, Type (0, 0), BuildingBlock: TEMPAE_clean_linker_10, # of connection points: 2
#     Edge 64, Type (0, 0), BuildingBlock: TEMPAE_clean_linker_10, # of connection points: 2
#     Edge 65, Type (0, 0), BuildingBlock: TEMPAE_clean_linker_10, # of connection points: 2
#     Edge 66, Type (0, 0), BuildingBlock: TEMPAE_clean_linker_10, # of connection points: 2
#     Edge 67, Type (0, 0), BuildingBlock: TEMPAE_clean_linker_10, # of connection points: 2
#     Edge 68, Type (0, 0), BuildingBlock: TEMPAE_clean_linker_10, # of connection points: 2
#     Edge 69, Type (0, 0), BuildingBlock: TEMPAE_clean_linker_10, # of connection points: 2
#     Edge 70, Type (0, 0), BuildingBlock: TEMPAE_clean_linker_10, # of connection points: 2
#     Edge 71, Type (0, 0), BuildingBlock: TEMPAE_clean_linker_10, # of connection points: 2
#     Edge 72, Type (0, 0), BuildingBlock: TEMPAE_clean_linker_10, # of connection points: 2
#     Edge 73, Type (0, 0), BuildingBlock: TEMPAE_clean_linker_10, # of connection points: 2
#     Edge 74, Type (0, 0), BuildingBlock: TEMPAE_clean_linker_10, # of connection points: 2
#     Edge 75, Type (0, 0), BuildingBlock: TEMPAE_clean_linker_10, # of connection points: 2
#     Edge 76, Type (0, 0), BuildingBlock: TEMPAE_clean_linker_10, # of connection points: 2
#     Edge 77, Type (0, 0), BuildingBlock: TEMPAE_clean_linker_10, # of connection points: 2
#     Edge 78, Type (0, 0), BuildingBlock: TEMPAE_clean_linker_10, # of connection points: 2
#     Edge 79, Type (0, 0), BuildingBlock: TEMPAE_clean_linker_10, # of connection points: 2
#     Edge 80, Type (0, 0), BuildingBlock: TEMPAE_clean_linker_10, # of connection points: 2
#     Edge 81, Type (0, 0), BuildingBlock: TEMPAE_clean_linker_10, # of connection points: 2
#     Edge 82, Type (0, 0), BuildingBlock: TEMPAE_clean_linker_10, # of connection points: 2
#     Edge 83, Type (0, 0), BuildingBlock: TEMPAE_clean_linker_10, # of connection points: 2
#     Edge 84, Type (0, 0), BuildingBlock: TEMPAE_clean_linker_10, # of connection points: 2
#     Edge 85, Type (0, 0), BuildingBlock: TEMPAE_clean_linker_10, # of connection points: 2
#     Edge 86, Type (0, 0), BuildingBlock: TEMPAE_clean_linker_10, # of connection points: 2
#     Edge 87, Type (0, 0), BuildingBlock: TEMPAE_clean_linker_10, # of connection points: 2
#     Edge 88, Type (0, 0), BuildingBlock: TEMPAE_clean_linker_10, # of connection points: 2
#     Edge 89, Type (0, 0), BuildingBlock: TEMPAE_clean_linker_10, # of connection points: 2
#     Edge 90, Type (0, 0), BuildingBlock: TEMPAE_clean_linker_10, # of connection points: 2
#     Edge 91, Type (0, 0), BuildingBlock: TEMPAE_clean_linker_10, # of connection points: 2
#     Edge 92, Type (0, 0), BuildingBlock: TEMPAE_clean_linker_10, # of connection points: 2
#     Edge 93, Type (0, 0), BuildingBlock: TEMPAE_clean_linker_10, # of connection points: 2
#     Edge 94, Type (0, 0), BuildingBlock: TEMPAE_clean_linker_10, # of connection points: 2
#     Edge 95, Type (0, 0), BuildingBlock: TEMPAE_clean_linker_10, # of connection points: 2
#     Edge 96, Type (0, 0), BuildingBlock: TEMPAE_clean_linker_10, # of connection points: 2
#     Edge 97, Type (0, 0), BuildingBlock: TEMPAE_clean_linker_10, # of connection points: 2
#     Edge 98, Type (0, 0), BuildingBlock: TEMPAE_clean_linker_10, # of connection points: 2
#     Edge 99, Type (0, 0), BuildingBlock: TEMPAE_clean_linker_10, # of connection points: 2
#     Edge 100, Type (0, 0), BuildingBlock: TEMPAE_clean_linker_10, # of connection points: 2
#     Edge 101, Type (0, 0), BuildingBlock: TEMPAE_clean_linker_10, # of connection points: 2
#     Edge 102, Type (0, 0), BuildingBlock: TEMPAE_clean_linker_10, # of connection points: 2
#     Edge 103, Type (0, 0), BuildingBlock: TEMPAE_clean_linker_10, # of connection points: 2
#     Edge 104, Type (0, 0), BuildingBlock: TEMPAE_clean_linker_10, # of connection points: 2
#     Edge 105, Type (0, 0), BuildingBlock: TEMPAE_clean_linker_10, # of connection points: 2
#     Edge 106, Type (0, 0), BuildingBlock: TEMPAE_clean_linker_10, # of connection points: 2
#     Edge 107, Type (0, 0), BuildingBlock: TEMPAE_clean_linker_10, # of connection points: 2
# Relax obj value: 0.143
# Max RMSD: 0.134
# Mean RMSD: 0.134
data_MOF--net-ukn--node1-NAHDIM_clean_sbu_0--edge1-TEMPAE_clean_linker_10
_symmetry_space_group_name_H-M    P1
_symmetry_Int_Tables_number       1
_symmetry_cell_setting            triclinic
loop_
_symmetry_equiv_pos_as_xyz
'x, y, z'
_cell_length_a     110.54189
_cell_length_b     110.53981
_cell_length_c     24.264758
_cell_angle_alpha  90.004604
_cell_angle_beta   89.991662
_cell_angle_gamma 120.00324
loop_
_atom_site_label
_atom_site_type_symbol
_atom_site_fract_x
_atom_site_fract_y
_atom_site_fract_z
_atom_type_partial_charge
C0 C 0.05088 0.27425 0.05528 0.0
O1 O 0.05631 0.27827 0.10465 0.0
O2 O 0.0821 0.30602 0.08343 0.0
Zn3 Zn 0.0791 0.2931 0.01951 0.0
O4 O 0.08518 0.30418 0.94933 0.0
C5 C 0.08793 0.27401 0.06347 0.0
O6 O 0.07606 0.26821 0.0906 0.0
O7 O 0.05874 0.27898 0.01326 0.0
C8 C 0.09773 0.31392 0.94296 0.0
O9 O 0.10671 0.31677 0.98324 0.0
C10 C 0.09265 0.31021 0.11487 0.0
O11 O 0.10181 0.30622 0.10481 0.0
O12 O 0.09075 0.28402 0.03051 0.0
C13 C 0.73923 0.7852 0.12138 0.0
O14 O 0.74133 0.78954 0.17275 0.0
O15 O 0.70829 0.78767 0.1805 0.0
Zn16 Zn 0.7191 0.79542 0.11023 0.0
O17 O 0.70612 0.79083 0.046 0.0
C18 C 0.73292 0.82308 0.15901 0.0
O19 O 0.72873 0.8162 0.20575 0.0
O20 O 0.73079 0.78692 0.09155 0.0
C21 C 0.69394 0.78929 0.04681 0.0
O22 O 0.68871 0.79056 0.09364 0.0
C23 C 0.7006 0.77469 0.18995 0.0
O24 O 0.69969 0.76565 0.15263 0.0
O25 O 0.73056 0.8163 0.11425 0.0
C26 C 0.22434 0.95132 0.07127 0.0
O27 O 0.22969 0.94362 0.05544 0.0
O28 O 0.21514 0.92402 0.19251 0.0
Zn29 Zn 0.20597 0.92579 0.12356 0.0
O30 O 0.20916 0.91628 0.05908 0.0
C31 C 0.17951 0.9056 0.16628 0.0
O32 O 0.1876 0.90245 0.19527 0.0
O33 O 0.21381 0.94602 0.10321 0.0
C34 C 0.20847 0.90446 0.05931 0.0
O35 O 0.20573 0.8974 0.10559 0.0
C36 C 0.22683 0.92444 0.19377 0.0
O37 O 0.23392 0.92659 0.14782 0.0
O38 O 0.18514 0.91604 0.13401 0.0
C39 C 0.27462 0.05114 0.94247 0.0
O40 O 0.2874 0.05891 0.96111 0.0
O41 O 0.29301 0.07855 0.81807 0.0
Zn42 Zn 0.28233 0.07664 0.88784 0.0
O43 O 0.29536 0.08613 0.95153 0.0
C44 C 0.27824 0.0985 0.8549 0.0
O45 O 0.29098 0.10268 0.83736 0.0
O46 O 0.26981 0.05638 0.90814 0.0
C47 C 0.3084 0.09471 0.94918 0.0
O48 O 0.3146 0.09839 0.90095 0.0
C49 C 0.30011 0.07264 0.80812 0.0
O50 O 0.30066 0.06426 0.84515 0.0
O51 O 0.27146 0.0866 0.87778 0.0
C52 C 0.94732 0.22787 0.99791 0.0
O53 O 0.94133 0.23523 0.01002 0.0
O54 O 0.91995 0.22004 0.88379 0.0
Zn55 Zn 0.92046 0.21029 0.95294 0.0
O56 O 0.91151 0.21517 0.01461 0.0
C57 C 0.89674 0.18504 0.92584 0.0
O58 O 0.89202 0.19384 0.92331 0.0
O59 O 0.94028 0.2163 0.97293 0.0
C60 C 0.90865 0.20868 0.06023 0.0
O61 O 0.91144 0.19852 0.06656 0.0
C62 C 0.92142 0.2322 0.88385 0.0
O63 O 0.92374 0.23897 0.93068 0.0
O64 O 0.90943 0.18967 0.93895 0.0
C65 C 0.77323 0.72487 0.9503 0.0
O66 O 0.7658 0.71135 0.95889 0.0
O67 O 0.77887 0.70778 0.81386 0.0
Zn68 Zn 0.78868 0.71591 0.88566 0.0
O69 O 0.78329 0.70038 0.94035 0.0
C70 C 0.81356 0.71721 0.85311 0.0
O71 O 0.80423 0.70458 0.83695 0.0
O72 O 0.78367 0.72957 0.91799 0.0
C73 C 0.79097 0.70233 0.98219 0.0
O74 O 0.80254 0.71439 0.98794 0.0
C75 C 0.76652 0.69739 0.81267 0.0
O76 O 0.75975 0.69249 0.85925 0.0
O77 O 0.80935 0.72494 0.87446 0.0
C78 C 0.94754 0.73258 0.93984 0.0
O79 O 0.94233 0.728 0.89056 0.0
O80 O 0.91606 0.70053 0.9123 0.0
Zn81 Zn 0.91943 0.71313 0.97721 0.0
O82 O 0.91447 0.70215 0.04755 0.0
C83 C 0.90653 0.72704 0.92399 0.0
O84 O 0.9154 0.72879 0.8845 0.0
O85 O 0.93958 0.72796 0.98161 0.0
C86 C 0.90286 0.69095 0.05373 0.0
O87 O 0.89394 0.68627 0.01258 0.0
C88 C 0.92173 0.69308 0.90567 0.0
O89 O 0.93044 0.69337 0.9432 0.0
O90 O 0.90688 0.72119 0.96858 0.0
C91 C 0.26298 0.21672 0.96287 0.0
O92 O 0.26449 0.21602 0.90946 0.0
O93 O 0.29283 0.21677 0.90061 0.0
Zn94 Zn 0.28339 0.20754 0.97182 0.0
O95 O 0.29817 0.21389 0.03033 0.0
C96 C 0.26634 0.17983 0.9241 0.0
O97 O 0.26312 0.18633 0.8866 0.0
O98 O 0.26974 0.21334 0.99566 0.0
C99 C 0.30341 0.20658 0.04667 0.0
O100 O 0.29914 0.19424 0.02455 0.0
C101 C 0.2992 0.21164 0.87458 0.0
O102 O 0.29908 0.20053 0.89453 0.0
O103 O 0.27415 0.18675 0.96411 0.0
C104 C 0.77388 0.04147 0.9227 0.0
O105 O 0.76597 0.04705 0.91413 0.0
O106 O 0.78594 0.07199 0.83144 0.0
Zn107 Zn 0.79346 0.06925 0.9029 0.0
O108 O 0.78566 0.07581 0.96318 0.0
C109 C 0.82192 0.08689 0.86283 0.0
O110 O 0.81631 0.08316 0.81359 0.0
O111 O 0.78703 0.04913 0.91775 0.0
C112 C 0.79281 0.08205 0.00556 0.0
O113 O 0.80549 0.08399 0.01072 0.0
C114 C 0.78684 0.08384 0.82563 0.0
O115 O 0.79269 0.09316 0.86503 0.0
O116 O 0.8143 0.08147 0.90504 0.0
C117 C 0.72358 0.94346 0.06963 0.0
O118 O 0.71967 0.94103 0.12148 0.0
O119 O 0.69218 0.9127 0.11853 0.0
Zn120 Zn 0.70348 0.91385 0.05178 0.0
O121 O 0.69148 0.90661 0.98412 0.0
C122 C 0.72362 0.90574 0.08905 0.0
O123 O 0.7315 0.91888 0.10341 0.0
O124 O 0.71826 0.9335 0.03514 0.0
C125 C 0.67868 0.89721 0.9836 0.0
O126 O 0.67234 0.8916 0.03033 0.0
C127 C 0.6847 0.91839 0.12394 0.0
O128 O 0.68407 0.92593 0.08339 0.0
O129 O 0.71188 0.90179 0.06622 0.0
C130 C 0.05068 0.77688 0.00366 0.0
O131 O 0.0555 0.76817 0.00424 0.0
O132 O 0.08067 0.784 0.08414 0.0
Zn133 Zn 0.07913 0.79482 0.02 0.0
O134 O 0.08513 0.78958 0.95022 0.0
C135 C 0.0896 0.82227 0.06975 0.0
O136 O 0.07829 0.81605 0.10031 0.0
O137 O 0.05917 0.78982 0.01072 0.0
C138 C 0.09721 0.79102 0.94459 0.0
O139 O 0.10606 0.79596 0.98589 0.0
C140 C 0.09125 0.78938 0.1158 0.0
O141 O 0.10143 0.80214 0.10604 0.0
O142 O 0.09158 0.81532 0.03271 0.0
C143 C 0.22068 0.27192 0.11261 0.0
O144 O 0.22884 0.28556 0.11171 0.0
O145 O 0.2101 0.29174 0.20943 0.0
Zn146 Zn 0.20166 0.28071 0.13971 0.0
O147 O 0.20768 0.29346 0.0739 0.0
C148 C 0.17463 0.27517 0.17626 0.0
O149 O 0.18219 0.28489 0.21244 0.0
O150 O 0.20797 0.26686 0.12628 0.0
C151 C 0.20376 0.30235 0.06593 0.0
O152 O 0.19575 0.30363 0.1027 0.0
C153 C 0.22038 0.30416 0.20889 0.0
O154 O 0.22628 0.30987 0.16164 0.0
O155 O 0.18069 0.27116 0.14249 0.0
C156 C 0.71354 0.60081 0.40763 0.0
O157 O 0.71594 0.60322 0.46066 0.0
O158 O 0.74352 0.63067 0.46618 0.0
Zn159 Zn 0.74316 0.62085 0.39607 0.0
O160 O 0.75131 0.63501 0.33523 0.0
C161 C 0.76799 0.62097 0.41539 0.0
O162 O 0.77186 0.6343 0.41805 0.0
O163 O 0.72363 0.60682 0.37394 0.0
C164 C 0.75609 0.63234 0.29217 0.0
O165 O 0.7557 0.62029 0.28837 0.0
C166 C 0.73882 0.63904 0.46943 0.0
O167 O 0.73296 0.64103 0.42589 0.0
O168 O 0.75521 0.61219 0.40629 0.0
C169 C 0.38967 0.10342 0.36498 0.0
O170 O 0.37608 0.09509 0.3623 0.0
O171 O 0.36867 0.11224 0.45878 0.0
Zn172 Zn 0.38001 0.12172 0.39104 0.0
O173 O 0.3678 0.11632 0.32352 0.0
C174 C 0.39411 0.14829 0.44741 0.0
O175 O 0.39483 0.14084 0.48813 0.0
O176 O 0.39441 0.1161 0.37845 0.0
C177 C 0.36282 0.1237 0.30514 0.0
O178 O 0.36527 0.13502 0.33196 0.0
C179 C 0.35654 0.1015 0.45763 0.0
O180 O 0.35094 0.09587 0.40993 0.0
O181 O 0.38886 0.14236 0.40177 0.0
C182 C 0.87294 0.27866 0.39151 0.0
O183 O 0.86502 0.26774 0.36066 0.0
O184 O 0.88051 0.25792 0.53452 0.0
Zn185 Zn 0.87134 0.25744 0.46263 0.0
O186 O 0.87809 0.24911 0.40451 0.0
C187 C 0.84652 0.23412 0.49847 0.0
O188 O 0.85593 0.23164 0.5204 0.0
O189 O 0.8766 0.27677 0.43888 0.0
C190 C 0.86987 0.24023 0.36954 0.0
O191 O 0.8565 0.23615 0.37141 0.0
C192 C 0.8934 0.2618 0.53843 0.0
O193 O 0.90133 0.26641 0.49432 0.0
O194 O 0.8506 0.24533 0.47136 0.0
C195 C 0.93471 0.37427 0.2401 0.0
O196 O 0.94755 0.37703 0.23081 0.0
O197 O 0.95881 0.40444 0.15746 0.0
Zn198 Zn 0.94836 0.40346 0.22678 0.0
O199 O 0.9613 0.4088 0.29164 0.0
C200 C 0.93319 0.41763 0.18997 0.0
O201 O 0.92652 0.40721 0.15537 0.0
O202 O 0.93212 0.38423 0.23921 0.0
C203 C 0.95816 0.41275 0.33586 0.0
O204 O 0.9463 0.41279 0.33843 0.0
C205 C 0.96989 0.40364 0.15833 0.0
O206 O 0.97446 0.40168 0.20558 0.0
O207 O 0.94225 0.41767 0.22225 0.0
C208 C 0.61525 0.55822 0.2654 0.0
O209 O 0.60997 0.56655 0.26405 0.0
O210 O 0.58417 0.54699 0.1712 0.0
Zn211 Zn 0.58719 0.53912 0.2412 0.0
O212 O 0.58038 0.546 0.30387 0.0
C213 C 0.57387 0.51108 0.19577 0.0
O214 O 0.58104 0.51734 0.15121 0.0
O215 O 0.60735 0.54536 0.25451 0.0
C216 C 0.57511 0.53872 0.34701 0.0
O217 O 0.57437 0.52652 0.35125 0.0
C218 C 0.57199 0.54532 0.16564 0.0
O219 O 0.56273 0.53878 0.20465 0.0
O220 O 0.57542 0.51829 0.2387 0.0
C221 C 0.44665 0.06029 0.24761 0.0
O222 O 0.44809 0.05853 0.19494 0.0
O223 O 0.44359 0.02881 0.19349 0.0
Zn224 Zn 0.45448 0.03926 0.26039 0.0
O225 O 0.44985 0.02565 0.32244 0.0
C226 C 0.48384 0.06068 0.23578 0.0
O227 O 0.47999 0.07016 0.2376 0.0
O228 O 0.44921 0.0534 0.28291 0.0
C229 C 0.43749 0.01551 0.3285 0.0
O230 O 0.42776 0.01407 0.29362 0.0
C231 C 0.44786 0.02184 0.16641 0.0
O232 O 0.45922 0.02189 0.1828 0.0
O233 O 0.4749 0.04793 0.24436 0.0
C234 C 0.61702 0.06845 0.2452 0.0
O235 O 0.61334 0.06531 0.19337 0.0
O236 O 0.58334 0.03959 0.20261 0.0
Zn237 Zn 0.58727 0.05124 0.27109 0.0
O238 O 0.5805 0.03904 0.33817 0.0
C239 C 0.57593 0.06752 0.22342 0.0
O240 O 0.58213 0.06687 0.17823 0.0
O241 O 0.60769 0.06394 0.28234 0.0
C242 C 0.56943 0.0272 0.34049 0.0
O243 O 0.56165 0.02215 0.2962 0.0
C244 C 0.58792 0.03119 0.1959 0.0
O245 O 0.59563 0.03012 0.23469 0.0
O246 O 0.57716 0.06197 0.26733 0.0
C247 C 0.92693 0.5484 0.24474 0.0
O248 O 0.93256 0.55322 0.1962 0.0
O249 O 0.95532 0.54657 0.18075 0.0
Zn250 Zn 0.94393 0.53494 0.24562 0.0
O251 O 0.95609 0.53813 0.31184 0.0
C252 C 0.93988 0.51075 0.18701 0.0
O253 O 0.95044 0.52036 0.15865 0.0
O254 O 0.92985 0.54016 0.27025 0.0
C255 C 0.96615 0.53569 0.31468 0.0
O256 O 0.96954 0.53099 0.27104 0.0
C257 C 0.96799 0.55629 0.18379 0.0
O258 O 0.97401 0.56006 0.23228 0.0
O259 O 0.93481 0.51451 0.22604 0.0
C260 C 0.43846 0.3744 0.25702 0.0
O261 O 0.42959 0.37867 0.24537 0.0
O262 O 0.44629 0.40096 0.14961 0.0
Zn263 Zn 0.45661 0.40154 0.21912 0.0
O264 O 0.45171 0.41102 0.27844 0.0
C265 C 0.48055 0.4254 0.18558 0.0
O266 O 0.47061 0.42834 0.17559 0.0
O267 O 0.45134 0.38246 0.24685 0.0
C268 C 0.45958 0.41686 0.31965 0.0
O269 O 0.47134 0.4167 0.32409 0.0
C270 C 0.43638 0.40366 0.15114 0.0
O271 O 0.43202 0.40548 0.19912 0.0
O272 O 0.47717 0.41343 0.20483 0.0
C273 C 0.39778 0.28454 0.46954 0.0
O274 O 0.39238 0.28395 0.51838 0.0
O275 O 0.37046 0.25383 0.53889 0.0
Zn276 Zn 0.38102 0.25402 0.47076 0.0
O277 O 0.36746 0.24453 0.40894 0.0
C278 C 0.38216 0.23046 0.50211 0.0
O279 O 0.36907 0.22675 0.51213 0.0
O280 O 0.39469 0.27328 0.44449 0.0
C281 C 0.37202 0.24438 0.36104 0.0
O282 O 0.38557 0.25038 0.35318 0.0
C283 C 0.35799 0.25147 0.53541 0.0
O284 O 0.35241 0.25027 0.48649 0.0
O285 O 0.39033 0.24274 0.48461 0.0
C286 C 0.7152 0.10225 0.37251 0.0
O287 O 0.71942 0.09305 0.37249 0.0
O288 O 0.7452 0.11106 0.47295 0.0
Zn289 Zn 0.74332 0.11949 0.40249 0.0
O290 O 0.74983 0.11208 0.34107 0.0
C291 C 0.75534 0.14755 0.44516 0.0
O292 O 0.74549 0.14164 0.48258 0.0
O293 O 0.72372 0.11475 0.38661 0.0
C294 C 0.75434 0.11874 0.29617 0.0
O295 O 0.75456 0.13065 0.28973 0.0
C296 C 0.75738 0.11289 0.48064 0.0
O297 O 0.76705 0.11982 0.44339 0.0
O298 O 0.756 0.14013 0.40661 0.0
C299 C 0.89247 0.60361 0.45262 0.0
O300 O 0.9021 0.61671 0.46067 0.0
O301 O 0.88455 0.6245 0.55474 0.0
Zn302 Zn 0.87575 0.61512 0.48262 0.0
O303 O 0.88305 0.62892 0.42018 0.0
C304 C 0.84811 0.60362 0.44193 0.0
O305 O 0.85438 0.60314 0.39665 0.0
O306 O 0.8798 0.59991 0.46258 0.0
C307 C 0.879 0.6377 0.41232 0.0
O308 O 0.87036 0.63836 0.4478 0.0
C309 C 0.89585 0.63618 0.55678 0.0
O310 O 0.90238 0.64207 0.51067 0.0
O311 O 0.85512 0.60775 0.48627 0.0
C312 C 0.37239 0.93085 0.73186 0.0
O313 O 0.3772 0.94438 0.73446 0.0
O314 O 0.39996 0.9519 0.83124 0.0
Zn315 Zn 0.39984 0.94119 0.76377 0.0
O316 O 0.40719 0.95415 0.69891 0.0
C317 C 0.42471 0.94309 0.79541 0.0
O318 O 0.42707 0.95591 0.80163 0.0
O319 O 0.38044 0.92621 0.74495 0.0
C320 C 0.41113 0.95083 0.65511 0.0
O321 O 0.41062 0.93871 0.65254 0.0
C322 C 0.40327 0.96468 0.8286 0.0
O323 O 0.40552 0.97074 0.78017 0.0
O324 O 0.41279 0.93376 0.77825 0.0
C325 C 0.06637 0.45022 0.73992 0.0
O326 O 0.06322 0.44732 0.79227 0.0
O327 O 0.03664 0.44734 0.81221 0.0
Zn328 Zn 0.04401 0.45688 0.73974 0.0
O329 O 0.02867 0.44813 0.68371 0.0
C330 C 0.06042 0.48648 0.76968 0.0
O331 O 0.07009 0.48368 0.78596 0.0
O332 O 0.05992 0.45485 0.71154 0.0
C333 C 0.0296 0.45472 0.63958 0.0
O334 O 0.04051 0.4672 0.63221 0.0
C335 C 0.02845 0.43425 0.81614 0.0
O336 O 0.02539 0.42647 0.77168 0.0
O337 O 0.0492 0.47687 0.74858 0.0
C338 C 0.54644 0.61829 0.75806 0.0
O339 O 0.54342 0.6149 0.81018 0.0
O340 O 0.54326 0.58569 0.81292 0.0
Zn341 Zn 0.53631 0.58859 0.74027 0.0
O342 O 0.54329 0.58077 0.68157 0.0
C343 C 0.50776 0.57515 0.78161 0.0
O344 O 0.51368 0.58003 0.82968 0.0
O345 O 0.544 0.60881 0.72302 0.0
C346 C 0.53592 0.57416 0.64011 0.0
O347 O 0.52331 0.5724 0.63487 0.0
C348 C 0.54094 0.57337 0.8217 0.0
O349 O 0.5341 0.5637 0.78433 0.0
O350 O 0.51537 0.57802 0.73896 0.0
C351 C 0.60991 0.71759 0.63957 0.0
O352 O 0.62336 0.72234 0.64561 0.0
O353 O 0.63189 0.74701 0.5391 0.0
Zn354 Zn 0.62096 0.74556 0.6077 0.0
O355 O 0.63336 0.75199 0.67459 0.0
C356 C 0.6037 0.75632 0.56293 0.0
O357 O 0.59836 0.74519 0.53125 0.0
O358 O 0.6059 0.72579 0.62139 0.0
C359 C 0.63984 0.76467 0.6901 0.0
O360 O 0.63894 0.77411 0.66033 0.0
C361 C 0.64366 0.74758 0.5396 0.0
O362 O 0.64901 0.74679 0.5869 0.0
O363 O 0.6129 0.7581 0.59834 0.0
C364 C 0.27403 0.87617 0.59577 0.0
O365 O 0.27103 0.87691 0.54394 0.0
O366 O 0.24405 0.87819 0.5497 0.0
Zn367 Zn 0.2451 0.86852 0.61816 0.0
O368 O 0.2394 0.87525 0.68486 0.0
C369 C 0.23464 0.84029 0.57799 0.0
O370 O 0.24691 0.84556 0.55408 0.0
O371 O 0.26458 0.87252 0.63212 0.0
C372 C 0.22688 0.86976 0.7019 0.0
O373 O 0.21686 0.85951 0.67366 0.0
C374 C 0.25028 0.89134 0.54294 0.0
O375 O 0.25813 0.89957 0.58279 0.0
O376 O 0.23199 0.84807 0.60816 0.0
C377 C 0.11055 0.40227 0.54581 0.0
O378 O 0.10203 0.38879 0.53962 0.0
O379 O 0.12068 0.38234 0.45125 0.0
Zn380 Zn 0.12945 0.39314 0.52117 0.0
O381 O 0.12343 0.3802 0.58649 0.0
C382 C 0.15602 0.39773 0.4838 0.0
O383 O 0.14804 0.38761 0.44977 0.0
O384 O 0.12351 0.40718 0.53704 0.0
C385 C 0.12683 0.37089 0.59309 0.0
O386 O 0.13432 0.36921 0.55507 0.0
C387 C 0.1104 0.36992 0.45158 0.0
O388 O 0.1046 0.3641 0.4988 0.0
O389 O 0.15039 0.40237 0.51688 0.0
C390 C 0.28031 0.39031 0.6597 0.0
O391 O 0.27503 0.3767 0.66177 0.0
O392 O 0.24936 0.36835 0.57666 0.0
Zn393 Zn 0.25196 0.38086 0.64173 0.0
O394 O 0.24552 0.36944 0.71108 0.0
C395 C 0.24299 0.39911 0.59347 0.0
O396 O 0.25427 0.4036 0.56303 0.0
O397 O 0.2722 0.3951 0.65032 0.0
C398 C 0.23314 0.35924 0.71597 0.0
O399 O 0.22442 0.35603 0.6745 0.0
C400 C 0.23858 0.36383 0.54627 0.0
O401 O 0.22909 0.36726 0.55806 0.0
O402 O 0.24045 0.39002 0.63048 0.0
C403 C 0.59016 0.88354 0.54224 0.0
O404 O 0.59577 0.88834 0.49369 0.0
O405 O 0.61663 0.87992 0.47212 0.0
Zn406 Zn 0.60704 0.87002 0.54239 0.0
O407 O 0.62096 0.87599 0.60457 0.0
C408 C 0.60273 0.84442 0.49528 0.0
O409 O 0.61245 0.8532 0.46152 0.0
O410 O 0.59296 0.87518 0.56751 0.0
C411 C 0.62593 0.86867 0.62359 0.0
O412 O 0.62264 0.85672 0.5999 0.0
C413 C 0.62745 0.89199 0.47104 0.0
O414 O 0.63242 0.89878 0.51753 0.0
O415 O 0.5982 0.8492 0.5326 0.0
C416 C 0.10223 0.70609 0.51784 0.0
O417 O 0.09703 0.70814 0.47242 0.0
O418 O 0.11171 0.7393 0.45237 0.0
Zn419 Zn 0.1197 0.73653 0.52292 0.0
O420 O 0.11499 0.74498 0.58668 0.0
C421 C 0.14736 0.75414 0.47844 0.0
O422 O 0.14044 0.75486 0.43579 0.0
O423 O 0.11202 0.71647 0.54273 0.0
C424 C 0.12048 0.75807 0.59386 0.0
O425 O 0.12929 0.76667 0.557 0.0
C426 C 0.10205 0.74236 0.45217 0.0
O427 O 0.09634 0.74276 0.49911 0.0
O428 O 0.14063 0.74639 0.51889 0.0
C429 C 0.04943 0.61365 0.71258 0.0
O430 O 0.03618 0.60902 0.72333 0.0
O431 O 0.03058 0.58498 0.81178 0.0
Zn432 Zn 0.04127 0.58594 0.74285 0.0
O433 O 0.02807 0.57737 0.67908 0.0
C434 C 0.05645 0.57393 0.79769 0.0
O435 O 0.05472 0.57938 0.84305 0.0
O436 O 0.05443 0.60567 0.72081 0.0
C437 C 0.0226 0.56462 0.66506 0.0
O438 O 0.02501 0.55613 0.69479 0.0
C439 C 0.02324 0.57325 0.83543 0.0
O440 O 0.02284 0.56212 0.81429 0.0
O441 O 0.05184 0.57571 0.75227 0.0
C442 C 0.38282 0.44735 0.74149 0.0
O443 O 0.38714 0.44942 0.79289 0.0
O444 O 0.41097 0.44302 0.78756 0.0
Zn445 Zn 0.41095 0.45374 0.72081 0.0
O446 O 0.41841 0.44764 0.65793 0.0
C447 C 0.42072 0.48378 0.74066 0.0
O448 O 0.40763 0.48073 0.73752 0.0
O449 O 0.3914 0.44909 0.70333 0.0
C450 C 0.42596 0.45588 0.61998 0.0
O451 O 0.4289 0.46896 0.62091 0.0
C452 C 0.42238 0.44732 0.81345 0.0
O453 O 0.43359 0.45864 0.79615 0.0
O454 O 0.42375 0.47419 0.73453 0.0
C455 C 0.55768 0.94052 0.74885 0.0
O456 O 0.56746 0.95359 0.75628 0.0
O457 O 0.54909 0.96222 0.84527 0.0
Zn458 Zn 0.54072 0.95228 0.77357 0.0
O459 O 0.54796 0.9656 0.70967 0.0
C460 C 0.51222 0.93855 0.81639 0.0
O461 O 0.51767 0.93695 0.86201 0.0
O462 O 0.54503 0.93709 0.75721 0.0
C463 C 0.54285 0.97333 0.69793 0.0
O464 O 0.53319 0.97313 0.73007 0.0
C465 C 0.56036 0.97393 0.84691 0.0
O466 O 0.5671 0.97948 0.8008 0.0
O467 O 0.52005 0.94437 0.77508 0.0
C468 C 0.11218 0.27826 0.05329 0.0
C469 C 0.0989 0.27057 0.07721 0.0
C470 C 0.12332 0.27665 0.07118 0.0
C471 C 0.12112 0.26698 0.11366 0.0
C472 C 0.10756 0.25855 0.13569 0.0
C473 C 0.09659 0.2605 0.11737 0.0
C474 C 0.13764 0.28586 0.04657 0.0
C475 C 0.10478 0.24796 0.18031 0.0
C476 C 0.15171 0.26087 0.12828 0.0
C477 C 0.15977 0.27094 0.16798 0.0
C478 C 0.13849 0.25861 0.11308 0.0
C479 C 0.13334 0.26674 0.13773 0.0
C480 C 0.14097 0.27616 0.18069 0.0
C481 C 0.15407 0.27808 0.19554 0.0
C482 C 0.1305 0.24824 0.06799 0.0
C483 C 0.13584 0.28504 0.20801 0.0
H484 H 0.11405 0.286 0.02198 0.0
H485 H 0.08634 0.25444 0.1358 0.0
H486 H 0.14482 0.29295 0.07874 0.0
H487 H 0.14205 0.2794 0.03138 0.0
H488 H 0.13743 0.29231 0.01188 0.0
H489 H 0.09343 0.24084 0.18706 0.0
H490 H 0.1097 0.24162 0.16986 0.0
H491 H 0.10948 0.25346 0.21956 0.0
H492 H 0.15597 0.25516 0.1073 0.0
H493 H 0.16017 0.2858 0.22658 0.0
H494 H 0.13131 0.25394 0.02928 0.0
H495 H 0.11926 0.24194 0.07865 0.0
H496 H 0.13464 0.24108 0.06011 0.0
H497 H 0.13623 0.2928 0.17798 0.0
H498 H 0.14225 0.29075 0.24443 0.0
H499 H 0.12482 0.27851 0.22129 0.0
C500 C 0.74252 0.84549 0.10718 0.0
C501 C 0.73731 0.83808 0.15655 0.0
C502 C 0.74339 0.85846 0.09928 0.0
C503 C 0.7388 0.86403 0.1416 0.0
C504 C 0.73497 0.85731 0.19355 0.0
C505 C 0.73434 0.84441 0.20052 0.0
C506 C 0.74783 0.86545 0.04367 0.0
C507 C 0.73006 0.86293 0.23984 0.0
C508 C 0.74117 0.89935 0.12299 0.0
C509 C 0.72787 0.89531 0.10173 0.0
C510 C 0.74502 0.88933 0.13602 0.0
C511 C 0.73527 0.87499 0.12799 0.0
C512 C 0.72185 0.87089 0.10651 0.0
C513 C 0.71836 0.88108 0.09345 0.0
C514 C 0.75945 0.89405 0.15831 0.0
C515 C 0.7111 0.85569 0.09753 0.0
H516 H 0.74509 0.84077 0.07335 0.0
H517 H 0.73044 0.83881 0.23903 0.0
H518 H 0.73843 0.86338 0.01979 0.0
H519 H 0.75448 0.87693 0.04815 0.0
H520 H 0.75365 0.86144 0.01961 0.0
H521 H 0.73 0.85808 0.28004 0.0
H522 H 0.73676 0.87442 0.24344 0.0
H523 H 0.71927 0.86064 0.23098 0.0
H524 H 0.74859 0.91033 0.12939 0.0
H525 H 0.70804 0.87784 0.07723 0.0
H526 H 0.76494 0.89025 0.13124 0.0
H527 H 0.75869 0.88947 0.19971 0.0
H528 H 0.76586 0.9056 0.16152 0.0
H529 H 0.71517 0.85091 0.06803 0.0
H530 H 0.70108 0.85427 0.08122 0.0
H531 H 0.70895 0.84986 0.13693 0.0
C532 C 0.09961 0.84414 0.12669 0.0
C533 C 0.10097 0.83653 0.08322 0.0
C534 C 0.11104 0.8569 0.14386 0.0
C535 C 0.1241 0.862 0.11736 0.0
C536 C 0.12532 0.85469 0.07176 0.0
C537 C 0.11373 0.84212 0.05506 0.0
C538 C 0.10928 0.86457 0.19189 0.0
C539 C 0.13909 0.85974 0.04237 0.0
C540 C 0.15571 0.89817 0.12847 0.0
C541 C 0.16434 0.89558 0.16306 0.0
C542 C 0.14199 0.88761 0.11683 0.0
C543 C 0.13691 0.87416 0.13981 0.0
C544 C 0.14517 0.87185 0.17829 0.0
C545 C 0.15875 0.88262 0.18973 0.0
C546 C 0.13335 0.89057 0.07674 0.0
C547 C 0.14014 0.85765 0.20375 0.0
H548 H 0.08975 0.83995 0.1484 0.0
H549 H 0.11488 0.83637 0.02118 0.0
H550 H 0.11439 0.86323 0.22887 0.0
H551 H 0.11438 0.87593 0.1832 0.0
H552 H 0.0981 0.8606 0.20169 0.0
H553 H 0.13809 0.85322 0.00593 0.0
H554 H 0.14337 0.8707 0.02854 0.0
H555 H 0.14679 0.85955 0.07116 0.0
H556 H 0.15988 0.90823 0.10831 0.0
H557 H 0.16527 0.88057 0.21704 0.0
H558 H 0.12236 0.88574 0.09093 0.0
H559 H 0.1333 0.88595 0.03609 0.0
H560 H 0.13759 0.90196 0.07106 0.0
H561 H 0.12944 0.85338 0.22056 0.0
H562 H 0.14713 0.85798 0.23736 0.0
H563 H 0.1397 0.8503 0.17159 0.0
C564 C 0.2814 0.12205 0.83617 0.0
C565 C 0.27287 0.10836 0.85518 0.0
C566 C 0.27763 0.13227 0.84403 0.0
C567 C 0.26491 0.12868 0.87098 0.0
C568 C 0.25572 0.11464 0.88635 0.0
C569 C 0.25985 0.10463 0.87859 0.0
C570 C 0.28775 0.14714 0.82696 0.0
C571 C 0.24191 0.11036 0.91393 0.0
C572 C 0.26815 0.15915 0.95279 0.0
C573 C 0.26325 0.16532 0.91501 0.0
C574 C 0.26784 0.14664 0.9404 0.0
C575 C 0.26234 0.14002 0.88922 0.0
C576 C 0.25623 0.1455 0.85301 0.0
C577 C 0.25683 0.15817 0.86621 0.0
C578 C 0.27445 0.14114 0.98027 0.0
C579 C 0.24995 0.13854 0.79871 0.0
H580 H 0.29141 0.125 0.81744 0.0
H581 H 0.25311 0.09402 0.89281 0.0
H582 H 0.28235 0.15141 0.80196 0.0
H583 H 0.29196 0.15379 0.86421 0.0
H584 H 0.29667 0.14798 0.8027 0.0
H585 H 0.23491 0.09884 0.91357 0.0
H586 H 0.24377 0.11393 0.95742 0.0
H587 H 0.23652 0.11532 0.8934 0.0
H588 H 0.27296 0.16449 0.99097 0.0
H589 H 0.25287 0.16277 0.83705 0.0
H590 H 0.28419 0.14232 0.96201 0.0
H591 H 0.26735 0.12986 0.98818 0.0
H592 H 0.2771 0.14678 0.0203 0.0
H593 H 0.25844 0.14078 0.76897 0.0
H594 H 0.24323 0.14237 0.78085 0.0
H595 H 0.24365 0.12703 0.80363 0.0
C596 C 0.8409 0.10441 0.92303 0.0
C597 C 0.83588 0.09942 0.86988 0.0
C598 C 0.85243 0.11778 0.93104 0.0
C599 C 0.85918 0.1263 0.88477 0.0
C600 C 0.85498 0.12083 0.83096 0.0
C601 C 0.84333 0.10744 0.82411 0.0
C602 C 0.85659 0.1232 0.98913 0.0
C603 C 0.86208 0.12952 0.78058 0.0
C604 C 0.87305 0.16497 0.90577 0.0
C605 C 0.88735 0.17005 0.91393 0.0
C606 C 0.86386 0.15078 0.89546 0.0
C607 C 0.8691 0.14144 0.89283 0.0
C608 C 0.88355 0.14651 0.90003 0.0
C609 C 0.89252 0.16078 0.91079 0.0
C610 C 0.84848 0.14577 0.88832 0.0
C611 C 0.88949 0.13685 0.89696 0.0
H612 H 0.83532 0.09823 0.9587 0.0
H613 H 0.83962 0.10361 0.78288 0.0
H614 H 0.86809 0.12843 0.99426 0.0
H615 H 0.85342 0.13109 0.99761 0.0
H616 H 0.85159 0.11474 0.02028 0.0
H617 H 0.85922 0.12307 0.74257 0.0
H618 H 0.85892 0.13753 0.77528 0.0
H619 H 0.8736 0.1351 0.78542 0.0
H620 H 0.86897 0.17206 0.9081 0.0
H621 H 0.90358 0.16465 0.91676 0.0
H622 H 0.84238 0.138 0.92073 0.0
H623 H 0.84481 0.14049 0.84789 0.0
H624 H 0.84615 0.15443 0.89071 0.0
H625 H 0.8851 0.12904 0.93066 0.0
H626 H 0.90107 0.14256 0.90037 0.0
H627 H 0.88647 0.13099 0.8575 0.0
C628 C 0.83276 0.71193 0.83856 0.0
C629 C 0.82855 0.72149 0.85402 0.0
C630 C 0.84653 0.71494 0.84664 0.0
C631 C 0.85638 0.72789 0.87026 0.0
C632 C 0.85245 0.73796 0.88259 0.0
C633 C 0.83853 0.73461 0.87458 0.0
C634 C 0.85031 0.7039 0.83293 0.0
C635 C 0.86273 0.75197 0.90688 0.0
C636 C 0.88406 0.72538 0.95242 0.0
C637 C 0.89482 0.7296 0.91351 0.0
C638 C 0.87177 0.72551 0.93979 0.0
C639 C 0.87025 0.73012 0.88718 0.0
C640 C 0.88146 0.73537 0.8492 0.0
C641 C 0.89362 0.73498 0.86272 0.0
C642 C 0.86005 0.71983 0.9815 0.0
C643 C 0.88032 0.74062 0.79313 0.0
H644 H 0.82515 0.7018 0.82228 0.0
H645 H 0.83539 0.74211 0.88619 0.0
H646 H 0.85979 0.70837 0.80668 0.0
H647 H 0.85274 0.70013 0.87146 0.0
H648 H 0.84174 0.69481 0.81121 0.0
H649 H 0.85868 0.75936 0.90622 0.0
H650 H 0.86496 0.75057 0.95027 0.0
H651 H 0.87278 0.75671 0.88411 0.0
H652 H 0.88494 0.72131 0.99195 0.0
H653 H 0.90194 0.7384 0.83262 0.0
H654 H 0.85115 0.70994 0.96586 0.0
H655 H 0.85622 0.72728 0.98774 0.0
H656 H 0.8633 0.71772 0.02202 0.0
H657 H 0.87316 0.73165 0.76688 0.0
H658 H 0.89061 0.74636 0.77212 0.0
H659 H 0.87584 0.74761 0.79658 0.0
C660 C 0.8279 0.60154 0.38805 0.0
C661 C 0.83402 0.60205 0.43927 0.0
C662 C 0.81584 0.60266 0.38438 0.0
C663 C 0.8097 0.60418 0.43314 0.0
C664 C 0.81519 0.6036 0.48512 0.0
C665 C 0.82733 0.60259 0.48757 0.0
C666 C 0.81031 0.60326 0.32816 0.0
C667 C 0.80882 0.605 0.53807 0.0
C668 C 0.79271 0.62653 0.42324 0.0
C669 C 0.77848 0.61648 0.42092 0.0
C670 C 0.80292 0.62262 0.42729 0.0
C671 C 0.79881 0.60827 0.42953 0.0
C672 C 0.78446 0.59803 0.42777 0.0
C673 C 0.77444 0.60226 0.42323 0.0
C674 C 0.81814 0.63386 0.42871 0.0
C675 C 0.77972 0.58265 0.43052 0.0
H676 H 0.83296 0.60105 0.35052 0.0
H677 H 0.83191 0.60283 0.52735 0.0
H678 H 0.79881 0.59636 0.3265 0.0
H679 H 0.81259 0.61408 0.31992 0.0
H680 H 0.81511 0.60015 0.29487 0.0
H681 H 0.81303 0.60232 0.57475 0.0
H682 H 0.81108 0.61593 0.54254 0.0
H683 H 0.7973 0.59817 0.53735 0.0
H684 H 0.79593 0.63754 0.42132 0.0
H685 H 0.76345 0.59444 0.42159 0.0
H686 H 0.82379 0.63247 0.3937 0.0
H687 H 0.82307 0.63301 0.46721 0.0
H688 H 0.81957 0.64454 0.42641 0.0
H689 H 0.78408 0.5797 0.39522 0.0
H690 H 0.76816 0.57602 0.42983 0.0
H691 H 0.78373 0.58036 0.46869 0.0
C692 C 0.40071 0.16877 0.50959 0.0
C693 C 0.39689 0.16268 0.45711 0.0
C694 C 0.40089 0.1813 0.52147 0.0
C695 C 0.39704 0.18773 0.48002 0.0
C696 C 0.3942 0.18218 0.42597 0.0
C697 C 0.39424 0.16976 0.41512 0.0
C698 C 0.40428 0.1871 0.57926 0.0
C699 C 0.39005 0.18873 0.38053 0.0
C700 C 0.37687 0.20596 0.51553 0.0
C701 C 0.38668 0.21994 0.50425 0.0
C702 C 0.38035 0.19546 0.51043 0.0
C703 C 0.39405 0.19905 0.49425 0.0
C704 C 0.40428 0.21324 0.48632 0.0
C705 C 0.40045 0.22354 0.49109 0.0
C706 C 0.36912 0.18043 0.51918 0.0
C707 C 0.41906 0.21746 0.47013 0.0
H708 H 0.40292 0.16344 0.54213 0.0
H709 H 0.39144 0.16523 0.37425 0.0
H710 H 0.41115 0.19861 0.57852 0.0
H711 H 0.39449 0.18479 0.60072 0.0
H712 H 0.40946 0.18245 0.60356 0.0
H713 H 0.38948 0.18391 0.33973 0.0
H714 H 0.37965 0.18747 0.38995 0.0
H715 H 0.39759 0.20009 0.37777 0.0
H716 H 0.36624 0.20309 0.52614 0.0
H717 H 0.40813 0.23436 0.48281 0.0
H718 H 0.37274 0.17524 0.54863 0.0
H719 H 0.36683 0.17467 0.47956 0.0
H720 H 0.35926 0.17949 0.53513 0.0
H721 H 0.42307 0.21192 0.49578 0.0
H722 H 0.42622 0.2289 0.47429 0.0
H723 H 0.41924 0.2145 0.4266 0.0
C724 C 0.82157 0.22518 0.47167 0.0
C725 C 0.83162 0.22315 0.49888 0.0
C726 C 0.8078 0.21413 0.46554 0.0
C727 C 0.8041 0.20079 0.48663 0.0
C728 C 0.81399 0.19893 0.51695 0.0
C729 C 0.82761 0.21016 0.52292 0.0
C730 C 0.79745 0.21656 0.43385 0.0
C731 C 0.81046 0.18484 0.54007 0.0
C732 C 0.76721 0.17012 0.49747 0.0
C733 C 0.76675 0.16216 0.45166 0.0
C734 C 0.779 0.18323 0.50775 0.0
C735 C 0.79058 0.18836 0.47163 0.0
C736 C 0.78981 0.18075 0.4236 0.0
C737 C 0.77789 0.16778 0.41408 0.0
C738 C 0.77936 0.19121 0.5588 0.0
C739 C 0.80195 0.18586 0.384 0.0
H740 H 0.82456 0.23524 0.45342 0.0
H741 H 0.83527 0.20853 0.54446 0.0
H742 H 0.79572 0.21163 0.3926 0.0
H743 H 0.78721 0.21166 0.45528 0.0
H744 H 0.80119 0.22786 0.42814 0.0
H745 H 0.81896 0.18542 0.56637 0.0
H746 H 0.80074 0.18043 0.56485 0.0
H747 H 0.80859 0.17748 0.50571 0.0
H748 H 0.75859 0.16591 0.52643 0.0
H749 H 0.77757 0.16177 0.37825 0.0
H750 H 0.78359 0.20243 0.54915 0.0
H751 H 0.78638 0.19054 0.5898 0.0
H752 H 0.76884 0.18699 0.57753 0.0
H753 H 0.80548 0.19676 0.37116 0.0
H754 H 0.79927 0.17924 0.34651 0.0
H755 H 0.81089 0.18585 0.40481 0.0
C756 C 0.94287 0.49208 0.14257 0.0
C757 C 0.93541 0.49583 0.17881 0.0
C758 C 0.94036 0.47834 0.14063 0.0
C759 C 0.93003 0.46809 0.17534 0.0
C760 C 0.92171 0.47156 0.20877 0.0
C761 C 0.92455 0.48543 0.21036 0.0
C762 C 0.9495 0.47509 0.10451 0.0
C763 C 0.91043 0.46083 0.24555 0.0
C764 C 0.92214 0.43086 0.15091 0.0
C765 C 0.93115 0.42989 0.18909 0.0
C766 C 0.92116 0.44304 0.14732 0.0
C767 C 0.92946 0.45447 0.18242 0.0
C768 C 0.93816 0.45332 0.22235 0.0
C769 C 0.93884 0.44104 0.22533 0.0
C770 C 0.91163 0.44386 0.1048 0.0
C771 C 0.94721 0.46528 0.26056 0.0
H772 H 0.95119 0.50001 0.11763 0.0
H773 H 0.91862 0.48822 0.23797 0.0
H774 H 0.95659 0.47318 0.13079 0.0
H775 H 0.94305 0.46547 0.08019 0.0
H776 H 0.95596 0.48376 0.07567 0.0
H777 H 0.90341 0.46451 0.26157 0.0
H778 H 0.90407 0.45087 0.22307 0.0
H779 H 0.91531 0.45861 0.28117 0.0
H780 H 0.9161 0.42226 0.12299 0.0
H781 H 0.94575 0.44036 0.25531 0.0
H782 H 0.91798 0.45134 0.07197 0.0
H783 H 0.90513 0.4478 0.12373 0.0
H784 H 0.90465 0.43356 0.08543 0.0
H785 H 0.95495 0.47436 0.23613 0.0
H786 H 0.95294 0.46247 0.29082 0.0
H787 H 0.94073 0.46866 0.28349 0.0
C788 C 0.55911 0.48875 0.14443 0.0
C789 C 0.56244 0.49637 0.19378 0.0
C790 C 0.54685 0.4757 0.13992 0.0
C791 C 0.53774 0.47027 0.18568 0.0
C792 C 0.54158 0.47744 0.23666 0.0
C793 C 0.55392 0.49036 0.24015 0.0
C794 C 0.54322 0.46821 0.08519 0.0
C795 C 0.53215 0.47201 0.28649 0.0
C796 C 0.49867 0.44988 0.16381 0.0
C797 C 0.49536 0.43637 0.17959 0.0
C798 C 0.51251 0.46087 0.16344 0.0
C799 C 0.52336 0.45827 0.17872 0.0
C800 C 0.5202 0.44452 0.19186 0.0
C801 C 0.50619 0.43371 0.19245 0.0
C802 C 0.51544 0.4754 0.14929 0.0
C803 C 0.53153 0.44133 0.20744 0.0
H804 H 0.56571 0.49323 0.10856 0.0
H805 H 0.5565 0.49609 0.27867 0.0
H806 H 0.53916 0.45686 0.09103 0.0
H807 H 0.53488 0.46941 0.06501 0.0
H808 H 0.55237 0.47244 0.05706 0.0
H809 H 0.53731 0.47805 0.32436 0.0
H810 H 0.52259 0.47267 0.27897 0.0
H811 H 0.52881 0.46087 0.29387 0.0
H812 H 0.49039 0.45203 0.15344 0.0
H813 H 0.50372 0.42326 0.20429 0.0
H814 H 0.52342 0.47997 0.11625 0.0
H815 H 0.5197 0.48227 0.18596 0.0
H816 H 0.50592 0.47552 0.13542 0.0
H817 H 0.54033 0.44623 0.17778 0.0
H818 H 0.52762 0.42991 0.20884 0.0
H819 H 0.53573 0.44579 0.24868 0.0
C820 C 0.56056 0.07407 0.17093 0.0
C821 C 0.56554 0.07221 0.22153 0.0
C822 C 0.54855 0.07535 0.1686 0.0
C823 C 0.54145 0.07473 0.21801 0.0
C824 C 0.54732 0.07438 0.26938 0.0
C825 C 0.55931 0.07313 0.27051 0.0
C826 C 0.54277 0.07602 0.11308 0.0
C827 C 0.54017 0.07385 0.32309 0.0
C828 C 0.50923 0.07869 0.22487 0.0
C829 C 0.49858 0.06464 0.22608 0.0
C830 C 0.52331 0.08228 0.21979 0.0
C831 C 0.52673 0.07155 0.21614 0.0
C832 C 0.51596 0.05739 0.21504 0.0
C833 C 0.50205 0.05413 0.21992 0.0
C834 C 0.53452 0.09748 0.2205 0.0
C835 C 0.51912 0.0456 0.21093 0.0
H836 H 0.56544 0.07358 0.13288 0.0
H837 H 0.56329 0.072 0.30987 0.0
H838 H 0.534 0.06552 0.10225 0.0
H839 H 0.53862 0.08331 0.11399 0.0
H840 H 0.55081 0.07938 0.08019 0.0
H841 H 0.54709 0.07576 0.35915 0.0
H842 H 0.5367 0.08169 0.32338 0.0
H843 H 0.53074 0.06339 0.32785 0.0
H844 H 0.50661 0.08687 0.22929 0.0
H845 H 0.49389 0.04325 0.22008 0.0
H846 H 0.54252 0.09965 0.18848 0.0
H847 H 0.53988 0.10006 0.26102 0.0
H848 H 0.53014 0.10448 0.21375 0.0
H849 H 0.52569 0.04705 0.17421 0.0
H850 H 0.5095 0.03521 0.208 0.0
H851 H 0.52509 0.04564 0.24774 0.0
C852 C 0.44914 0.95066 0.82318 0.0
C853 C 0.43607 0.93998 0.80529 0.0
C854 C 0.46046 0.94839 0.82851 0.0
C855 C 0.45865 0.93509 0.8159 0.0
C856 C 0.44532 0.92406 0.80034 0.0
C857 C 0.43416 0.92664 0.79503 0.0
C858 C 0.47452 0.96045 0.84521 0.0
C859 C 0.443 0.9097 0.7872 0.0
C860 C 0.49216 0.93765 0.76586 0.0
C861 C 0.49753 0.93533 0.81461 0.0
C862 C 0.47907 0.93672 0.76498 0.0
C863 C 0.47109 0.93332 0.81399 0.0
C864 C 0.47598 0.92999 0.86236 0.0
C865 C 0.4892 0.93107 0.86217 0.0
C866 C 0.47423 0.94035 0.71249 0.0
C867 C 0.46765 0.92612 0.91517 0.0
H868 H 0.45068 0.96096 0.8317 0.0
H869 H 0.42405 0.91831 0.78157 0.0
H870 H 0.4788 0.95742 0.88052 0.0
H871 H 0.48199 0.96324 0.8105 0.0
H872 H 0.47395 0.96988 0.85692 0.0
H873 H 0.43173 0.90186 0.78279 0.0
H874 H 0.44836 0.91008 0.74806 0.0
H875 H 0.44755 0.90617 0.81989 0.0
H876 H 0.49845 0.94078 0.7287 0.0
H877 H 0.49321 0.92914 0.89988 0.0
H878 H 0.47434 0.95037 0.71805 0.0
H879 H 0.46334 0.93223 0.70273 0.0
H880 H 0.48099 0.94143 0.67674 0.0
H881 H 0.46809 0.93557 0.93307 0.0
H882 H 0.47175 0.92168 0.94616 0.0
H883 H 0.45651 0.91843 0.90708 0.0
C884 C 0.06636 0.56068 0.75168 0.0
C885 C 0.0616 0.56393 0.79992 0.0
C886 C 0.06876 0.5494 0.75013 0.0
C887 C 0.06611 0.54104 0.79772 0.0
C888 C 0.06237 0.54494 0.84772 0.0
C889 C 0.06025 0.55644 0.84832 0.0
C890 C 0.073 0.54574 0.69626 0.0
C891 C 0.05938 0.53626 0.89927 0.0
C892 C 0.05073 0.50252 0.7684 0.0
C893 C 0.06213 0.50052 0.77764 0.0
C894 C 0.0519 0.51561 0.77584 0.0
C895 C 0.06484 0.52707 0.79245 0.0
C896 C 0.07642 0.52517 0.80208 0.0
C897 C 0.0749 0.51186 0.79478 0.0
C898 C 0.03925 0.51716 0.76547 0.0
C899 C 0.09039 0.53721 0.81935 0.0
H900 H 0.06761 0.5666 0.71436 0.0
H901 H 0.05659 0.55894 0.88574 0.0
H902 H 0.08125 0.54297 0.70299 0.0
H903 H 0.06385 0.5365 0.67791 0.0
H904 H 0.0769 0.55447 0.66616 0.0
H905 H 0.05889 0.54187 0.93642 0.0
H906 H 0.04919 0.52648 0.89473 0.0
H907 H 0.06746 0.53325 0.90581 0.0
H908 H 0.04078 0.49381 0.75551 0.0
H909 H 0.08375 0.51038 0.80198 0.0
H910 H 0.04144 0.52463 0.73123 0.0
H911 H 0.03688 0.52147 0.80261 0.0
H912 H 0.02983 0.50708 0.75468 0.0
H913 H 0.09445 0.54534 0.78677 0.0
H914 H 0.09822 0.53391 0.82702 0.0
H915 H 0.08923 0.54212 0.85734 0.0
C916 C 0.42941 0.50941 0.75344 0.0
C917 C 0.43209 0.49828 0.75056 0.0
C918 C 0.44037 0.5232 0.76105 0.0
C919 C 0.45425 0.52585 0.76581 0.0
C920 C 0.45694 0.51461 0.76405 0.0
C921 C 0.44585 0.501 0.75647 0.0
C922 C 0.43714 0.53495 0.76289 0.0
C923 C 0.4716 0.51697 0.76908 0.0
C924 C 0.48665 0.55938 0.72624 0.0
C925 C 0.49278 0.56445 0.77794 0.0
C926 C 0.47344 0.54741 0.72173 0.0
C927 C 0.46622 0.54033 0.7701 0.0
C928 C 0.4718 0.5461 0.82241 0.0
C929 C 0.48504 0.55813 0.82573 0.0
C930 C 0.46781 0.54167 0.66513 0.0
C931 C 0.46434 0.53893 0.87494 0.0
H932 H 0.4188 0.50738 0.74905 0.0
H933 H 0.44803 0.49248 0.75467 0.0
H934 H 0.4418 0.54143 0.80023 0.0
H935 H 0.44188 0.54186 0.72666 0.0
H936 H 0.42573 0.53106 0.76281 0.0
H937 H 0.47184 0.50705 0.76859 0.0
H938 H 0.47812 0.52361 0.73453 0.0
H939 H 0.47647 0.52259 0.80795 0.0
H940 H 0.49247 0.56433 0.68905 0.0
H941 H 0.48965 0.56205 0.86587 0.0
H942 H 0.45658 0.5384 0.66221 0.0
H943 H 0.46878 0.53229 0.65755 0.0
H944 H 0.47357 0.54941 0.63211 0.0
H945 H 0.45302 0.5353 0.87196 0.0
H946 H 0.46871 0.54591 0.91131 0.0
H947 H 0.46544 0.5296 0.8818 0.0
C948 C 0.60676 0.82519 0.46463 0.0
C949 C 0.59907 0.82959 0.49638 0.0
C950 C 0.60528 0.81196 0.47236 0.0
C951 C 0.59574 0.80284 0.51228 0.0
C952 C 0.5871 0.80676 0.54111 0.0
C953 C 0.58893 0.82015 0.53309 0.0
C954 C 0.61474 0.80821 0.4409 0.0
C955 C 0.57658 0.79719 0.5831 0.0
C956 C 0.59057 0.76618 0.51365 0.0
C957 C 0.60032 0.76754 0.55376 0.0
C958 C 0.58843 0.77739 0.50126 0.0
C959 C 0.59635 0.79025 0.52921 0.0
C960 C 0.60579 0.79149 0.57119 0.0
C961 C 0.60759 0.78011 0.58315 0.0
C962 C 0.57809 0.77563 0.45697 0.0
C963 C 0.61449 0.80506 0.60189 0.0
H964 H 0.61455 0.83237 0.43584 0.0
H965 H 0.58282 0.82341 0.55729 0.0
H966 H 0.62248 0.80805 0.4696 0.0
H967 H 0.60864 0.79762 0.42274 0.0
H968 H 0.6205 0.81577 0.40734 0.0
H969 H 0.56909 0.80068 0.59463 0.0
H970 H 0.57065 0.78634 0.56715 0.0
H971 H 0.58213 0.79699 0.62089 0.0
H972 H 0.58484 0.75647 0.49103 0.0
H973 H 0.6151 0.78126 0.61442 0.0
H974 H 0.58378 0.78181 0.42016 0.0
H975 H 0.57122 0.77964 0.47137 0.0
H976 H 0.57147 0.76454 0.44439 0.0
H977 H 0.62156 0.8133 0.57266 0.0
H978 H 0.62093 0.80411 0.63489 0.0
H979 H 0.60765 0.8086 0.62077 0.0
C980 C 0.16991 0.76336 0.5295 0.0
C981 C 0.16241 0.76432 0.48468 0.0
C982 C 0.18325 0.77442 0.54258 0.0
C983 C 0.18908 0.78675 0.51049 0.0
C984 C 0.18209 0.78727 0.46247 0.0
C985 C 0.16885 0.77599 0.44991 0.0
C986 C 0.19055 0.77333 0.5933 0.0
C987 C 0.18796 0.80025 0.42717 0.0
C988 C 0.20975 0.82141 0.58347 0.0
C989 C 0.22338 0.82595 0.56503 0.0
C990 C 0.19859 0.80849 0.56704 0.0
C991 C 0.20114 0.79979 0.53184 0.0
C992 C 0.21495 0.80398 0.51512 0.0
C993 C 0.22593 0.81709 0.53164 0.0
C994 C 0.18399 0.80443 0.58571 0.0
C995 C 0.21805 0.79484 0.47848 0.0
H996 H 0.16508 0.75426 0.55606 0.0
H997 H 0.16318 0.77677 0.41492 0.0
H998 H 0.20187 0.77773 0.58541 0.0
H999 H 0.18948 0.77946 0.62722 0.0
H1000 H 0.18604 0.76234 0.60736 0.0
H1001 H 0.1822 0.79834 0.38765 0.0
H1002 H 0.18724 0.80858 0.44994 0.0
H1003 H 0.19914 0.80421 0.41798 0.0
H1004 H 0.20767 0.82815 0.60942 0.0
H1005 H 0.23646 0.8205 0.51751 0.0
H1006 H 0.17911 0.79417 0.60698 0.0
H1007 H 0.17741 0.80331 0.54939 0.0
H1008 H 0.18386 0.81224 0.61413 0.0
H1009 H 0.21286 0.78399 0.4945 0.0
H1010 H 0.22945 0.79877 0.47496 0.0
H1011 H 0.21384 0.79443 0.43661 0.0
C1012 C 0.21922 0.39594 0.60638 0.0
C1013 C 0.23214 0.40269 0.5792 0.0
C1014 C 0.20803 0.39748 0.58846 0.0
C1015 C 0.20986 0.40616 0.54264 0.0
C1016 C 0.22312 0.41373 0.51719 0.0
C1017 C 0.23411 0.41183 0.53557 0.0
C1018 C 0.19404 0.38918 0.61671 0.0
C1019 C 0.22551 0.42329 0.46897 0.0
C1020 C 0.17602 0.39385 0.46562 0.0
C1021 C 0.17087 0.4018 0.49065 0.0
C1022 C 0.18918 0.39581 0.47956 0.0
C1023 C 0.19747 0.40612 0.51886 0.0
C1024 C 0.19285 0.41499 0.54067 0.0
C1025 C 0.17954 0.41266 0.52661 0.0
C1026 C 0.1937 0.38609 0.45548 0.0
C1027 C 0.20156 0.42632 0.58165 0.0
H1028 H 0.2176 0.38892 0.64035 0.0
H1029 H 0.2441 0.41718 0.51462 0.0
H1030 H 0.19006 0.39618 0.62966 0.0
H1031 H 0.18634 0.38145 0.58746 0.0
H1032 H 0.19457 0.3835 0.65356 0.0
H1033 H 0.2368 0.43004 0.45956 0.0
H1034 H 0.22025 0.41696 0.43189 0.0
H1035 H 0.22092 0.43004 0.47721 0.0
H1036 H 0.16944 0.3855 0.43749 0.0
H1037 H 0.1757 0.41898 0.54556 0.0
H1038 H 0.1936 0.37903 0.48824 0.0
H1039 H 0.20453 0.3921 0.43951 0.0
H1040 H 0.18673 0.37958 0.42154 0.0
H1041 H 0.20116 0.42153 0.62227 0.0
H1042 H 0.19772 0.43382 0.58697 0.0
H1043 H 0.21266 0.43215 0.56853 0.0
C1044 C 0.02959 0.26385 0.99599 0.0
C1045 C 0.03561 0.26538 0.04825 0.0
C1046 C 0.01506 0.25665 0.98923 0.0
C1047 C 0.00635 0.25068 0.03576 0.0
C1048 C 0.01235 0.25159 0.08821 0.0
C1049 C 0.02694 0.25903 0.09392 0.0
C1050 C 0.00904 0.25599 0.93268 0.0
C1051 C 0.00336 0.24515 0.13856 0.0
C1052 C 0.97061 0.24733 0.02684 0.0
C1053 C 0.96223 0.23336 0.01073 0.0
C1054 C 0.98494 0.253 0.03617 0.0
C1055 C 0.99101 0.24444 0.02993 0.0
C1056 C 0.98254 0.23021 0.0154 0.0
C1057 C 0.96824 0.22485 0.00556 0.0
C1058 C 0.99367 0.26827 0.05108 0.0
C1059 C 0.98864 0.22073 0.0092 0.0
H1060 H 0.03622 0.26871 0.96046 0.0
H1061 H 0.03153 0.26007 0.13434 0.0
H1062 H 0.00146 0.24501 0.92158 0.0
H1063 H 0.00329 0.26183 0.93284 0.0
H1064 H 0.01723 0.26049 0.9003 0.0
H1065 H 0.00961 0.24557 0.17512 0.0
H1066 H -0.00234 0.25076 0.14853 0.0
H1067 H 0.99542 0.23408 0.13042 0.0
H1068 H 0.96604 0.25397 0.03086 0.0
H1069 H 0.96179 0.21401 0.99353 0.0
H1070 H 0.00161 0.27387 0.01859 0.0
H1071 H -0.00064 0.26946 0.09017 0.0
H1072 H 0.98727 0.27339 0.05585 0.0
H1073 H 0.9961 0.22432 0.97421 0.0
H1074 H 0.98048 0.2097 0.00171 0.0
H1075 H 0.99457 0.22119 0.04679 0.0
C1076 C 0.75752 0.729 0.01153 0.0
C1077 C 0.76957 0.73444 0.97875 0.0
C1078 C 0.75366 0.73784 0.03789 0.0
C1079 C 0.76209 0.75247 0.0315 0.0
C1080 C 0.77448 0.75806 -0.00019 0.0
C1081 C 0.77806 0.74896 0.9736 0.0
C1082 C 0.74031 0.73148 0.07107 0.0
C1083 C 0.78374 0.77363 0.99235 0.0
C1084 C 0.74297 0.7727 0.04369 0.0
C1085 C 0.74595 0.77763 0.09813 0.0
C1086 C 0.74845 0.7648 0.02126 0.0
C1087 C 0.75721 0.76179 0.05389 0.0
C1088 C 0.76062 0.76705 0.10833 0.0
C1089 C 0.75491 0.77491 0.12994 0.0
C1090 C 0.74451 0.75933 0.96308 0.0
C1091 C 0.77003 0.76411 0.14406 0.0
H1092 H 0.75094 0.71779 0.01597 0.0
H1093 H 0.78745 0.75324 0.94873 0.0
H1094 H 0.74238 0.73608 0.11302 0.0
H1095 H 0.73272 0.73389 0.05114 0.0
H1096 H 0.73541 0.71996 0.07485 0.0
H1097 H 0.79362 0.77633 0.97053 0.0
H1098 H 0.77812 0.77781 0.96826 0.0
H1099 H 0.78634 0.77896 0.03295 0.0
H1100 H 0.7361 0.77479 0.01861 0.0
H1101 H 0.7573 0.77873 0.17192 0.0
H1102 H 0.73859 0.74774 0.96356 0.0
H1103 H 0.75405 0.7626 0.938 0.0
H1104 H 0.73801 0.76307 0.9425 0.0
H1105 H 0.76493 0.75274 0.15257 0.0
H1106 H 0.77246 0.76977 0.18399 0.0
H1107 H 0.77996 0.76714 0.12223 0.0
C1108 C 0.22647 0.97498 0.07402 0.0
C1109 C 0.23048 0.96585 0.05129 0.0
C1110 C 0.23265 0.98891 0.05615 0.0
C1111 C 0.24296 0.99372 0.01435 0.0
C1112 C 0.24677 0.98444 0.9903 0.0
C1113 C 0.24053 0.97064 0.00923 0.0
C1114 C 0.22842 -0.00144 0.08296 0.0
C1115 C 0.25766 0.98916 0.94536 0.0
C1116 C 0.25338 0.02731 0.93625 0.0
C1117 C 0.26607 0.03658 0.9619 0.0
C1118 C 0.24554 0.01335 0.95365 0.0
C1119 C 0.25047 0.00865 0.99794 0.0
C1120 C 0.26307 0.01807 0.02484 0.0
C1121 C 0.27074 0.03189 0.00635 0.0
C1122 C 0.23218 0.00355 0.92379 0.0
C1123 C 0.26862 0.01347 0.07248 0.0
H1124 H 0.2187 0.97133 0.10648 0.0
H1125 H 0.24359 0.96361 0.99108 0.0
H1126 H 0.23748 0.00702 0.10516 0.0
H1127 H 0.2252 0.0036 0.05117 0.0
H1128 H 0.2197 0.99301 0.11269 0.0
H1129 H 0.25882 0.98043 0.92873 0.0
H1130 H 0.25489 0.99394 0.91098 0.0
H1131 H 0.26792 0.99728 0.96169 0.0
H1132 H 0.24972 0.03089 0.90191 0.0
H1133 H 0.28047 0.03903 0.02673 0.0
H1134 H 0.22342 -0.0016 0.95353 0.0
H1135 H 0.2333 0.99519 0.90329 0.0
H1136 H 0.2294 0.00901 0.89213 0.0
H1137 H 0.26055 0.0086 0.10506 0.0
H1138 H 0.27817 0.02228 0.09091 0.0
H1139 H 0.27116 0.00546 0.05824 0.0
C1140 C 0.97189 0.74566 0.9025 0.0
C1141 C 0.96278 0.74164 0.94768 0.0
C1142 C 0.98642 0.75279 0.91021 0.0
C1143 C 0.99191 0.75592 0.96435 0.0
C1144 C 0.98279 0.75255 0.00989 0.0
C1145 C 0.96833 0.74547 0.00099 0.0
C1146 C 0.99585 0.75634 0.86063 0.0
C1147 C 0.98825 0.75573 0.06825 0.0
C1148 C 0.02633 0.75726 0.99042 0.0
C1149 C 0.03567 0.77167 0.99383 0.0
C1150 C 0.01209 0.75204 0.98063 0.0
C1151 C 0.00705 0.76147 0.97382 0.0
C1152 C 0.0164 0.77603 0.97701 0.0
C1153 C 0.03062 0.78097 0.98716 0.0
C1154 C 0.00241 0.73642 0.97786 0.0
C1155 C 0.01138 0.78637 0.96971 0.0
H1156 H 0.96769 0.74283 0.86116 0.0
H1157 H 0.96137 0.74251 0.03615 0.0
H1158 H 0.00434 0.76741 0.86238 0.0
H1159 H 0.00085 0.74978 0.86068 0.0
H1160 H 0.99007 0.75457 0.82126 0.0
H1161 H 0.9799 0.75361 0.0986 0.0
H1162 H 0.99297 0.74923 0.07908 0.0
H1163 H 0.99658 0.76682 0.07205 0.0
H1164 H 0.03014 0.75 0.9956 0.0
H1165 H 0.03779 0.79213 0.98957 0.0
H1166 H 0.99705 0.7335 0.93733 0.0
H1167 H 0.99421 0.73311 0.00999 0.0
H1168 H 0.00801 0.73052 0.98383 0.0
H1169 H 0.00622 0.7848 0.92904 0.0
H1170 H 0.02003 0.79737 0.97256 0.0
H1171 H 0.00348 0.78461 0.00163 0.0
C1172 C 0.24853 0.22815 0.94979 0.0
C1173 C 0.25467 0.22273 0.98518 0.0
C1174 C 0.24188 0.23516 0.97085 0.0
C1175 C 0.24139 0.23676 0.02857 0.0
C1176 C 0.24702 0.23076 0.06452 0.0
C1177 C 0.25357 0.22381 0.04239 0.0
C1178 C 0.23591 0.24136 0.93129 0.0
C1179 C 0.24667 0.23223 0.12631 0.0
C1180 C 0.24012 0.26849 0.07959 0.0
C1181 C 0.226 0.26273 0.0936 0.0
C1182 C 0.24524 0.26011 0.05857 0.0
C1183 C 0.23601 0.24563 0.05126 0.0
C1184 C 0.22176 0.2397 0.06587 0.0
C1185 C 0.21692 0.24833 0.08701 0.0
C1186 C 0.26054 0.2668 0.04378 0.0
C1187 C 0.21163 0.22429 0.05859 0.0
H1188 H 0.24927 0.2273 0.90557 0.0
H1189 H 0.25819 0.21955 0.0701 0.0
H1190 H 0.22499 0.23814 0.94274 0.0
H1191 H 0.24205 0.25293 0.93371 0.0
H1192 H 0.23606 0.23818 0.88798 0.0
H1193 H 0.25048 0.22601 0.14861 0.0
H1194 H 0.2533 0.24336 0.13803 0.0
H1195 H 0.23588 0.22886 0.14029 0.0
H1196 H 0.24721 0.2796 0.08463 0.0
H1197 H 0.20598 0.24381 0.0976 0.0
H1198 H 0.26167 0.26517 0.99938 0.0
H1199 H 0.26546 0.2618 0.06738 0.0
H1200 H 0.26635 0.2782 0.05238 0.0
H1201 H 0.21118 0.22139 0.01456 0.0
H1202 H 0.20092 0.22128 0.07253 0.0
H1203 H 0.21527 0.2181 0.08213 0.0
C1204 C 0.77602 0.02146 0.95976 0.0
C1205 C 0.76758 0.02689 0.94229 0.0
C1206 C 0.77007 0.00791 0.98159 0.0
C1207 C 0.75536 -0.00037 0.98576 0.0
C1208 C 0.7468 0.00498 0.96744 0.0
C1209 C 0.75302 0.01855 0.94599 0.0
C1210 C 0.77949 0.00251 0.00074 0.0
C1211 C 0.73106 0.99641 0.97087 0.0
C1212 C 0.73701 0.96019 0.99418 0.0
C1213 C 0.7331 0.95783 0.04991 0.0
C1214 C 0.74479 0.97378 0.97321 0.0
C1215 C 0.74878 0.98529 0.00884 0.0
C1216 C 0.74545 0.983 0.06563 0.0
C1217 C 0.73763 0.96928 0.08554 0.0
C1218 C 0.74818 0.9758 0.91242 0.0
C1219 C 0.7496 0.99505 0.1049 0.0
H1220 H 0.78729 0.02787 0.95719 0.0
H1221 H 0.74643 0.02265 0.93251 0.0
H1222 H 0.77778 -7e-05 0.04528 0.0
H1223 H 0.77691 0.99274 0.9785 0.0
H1224 H 0.79072 0.01021 0.99409 0.0
H1225 H 0.72591 0.0021 0.95449 0.0
H1226 H 0.72723 0.98656 0.94729 0.0
H1227 H 0.72779 0.99352 0.01435 0.0
H1228 H 0.73366 0.95141 0.96638 0.0
H1229 H 0.73471 0.96754 0.12868 0.0
H1230 H 0.75947 0.9832 0.90607 0.0
H1231 H 0.74236 0.9804 0.89254 0.0
H1232 H 0.74538 0.96582 0.89127 0.0
H1233 H 0.76091 0.00271 0.10087 0.0
H1234 H 0.74734 0.99156 0.1485 0.0
H1235 H 0.74384 0.00056 0.09442 0.0
C1236 C 0.63507 0.55446 0.29134 0.0
C1237 C 0.62985 0.56359 0.28334 0.0
C1238 C 0.64866 0.55938 0.31129 0.0
C1239 C 0.65722 0.57376 0.32329 0.0
C1240 C 0.65209 0.58305 0.3145 0.0
C1241 C 0.63846 0.57784 0.29469 0.0
C1242 C 0.65381 0.54919 0.32017 0.0
C1243 C 0.66095 0.59848 0.32653 0.0
C1244 C 0.68769 0.5869 0.42275 0.0
C1245 C 0.6991 0.59247 0.38649 0.0
C1246 C 0.67394 0.58027 0.40271 0.0
C1247 C 0.67157 0.57921 0.34511 0.0
C1248 C 0.68302 0.58428 0.30836 0.0
C1249 C 0.69664 0.59083 0.32948 0.0
C1250 C 0.66197 0.5749 0.44316 0.0
C1251 C 0.6809 0.58333 0.24667 0.0
H1252 H 0.62846 0.54342 0.28277 0.0
H1253 H 0.63453 0.58497 0.28855 0.0
H1254 H 0.66348 0.55247 0.29603 0.0
H1255 H 0.65647 0.54917 0.36423 0.0
H1256 H 0.64593 0.53837 0.308 0.0
H1257 H 0.65545 0.60432 0.31682 0.0
H1258 H 0.66394 0.60008 0.3707 0.0
H1259 H 0.67074 0.60301 0.30213 0.0
H1260 H 0.6895 0.58807 0.46683 0.0
H1261 H 0.70538 0.59503 0.30111 0.0
H1262 H 0.65412 0.56389 0.43363 0.0
H1263 H 0.65667 0.58113 0.43951 0.0
H1264 H 0.6655 0.57549 0.48645 0.0
H1265 H 0.67331 0.57244 0.23442 0.0
H1266 H 0.69081 0.58678 0.22381 0.0
H1267 H 0.67649 0.58996 0.23387 0.0
C1268 C 0.43858 0.07023 0.32195 0.0
C1269 C 0.44069 0.069 0.26567 0.0
C1270 C 0.43147 0.07705 0.3396 0.0
C1271 C 0.42637 0.08278 0.30001 0.0
C1272 C 0.42909 0.08222 0.24334 0.0
C1273 C 0.43623 0.07532 0.22681 0.0
C1274 C 0.42881 0.07749 0.40043 0.0
C1275 C 0.42386 0.0883 0.19999 0.0
C1276 C 0.39374 0.08407 0.33654 0.0
C1277 C 0.39921 0.09819 0.34997 0.0
C1278 C 0.4025 0.07895 0.32039 0.0
C1279 C 0.4171 0.08819 0.3175 0.0
C1280 C 0.42272 0.10244 0.33136 0.0
C1281 C 0.4137 0.10729 0.34755 0.0
C1282 C 0.39612 0.06366 0.30616 0.0
C1283 C 0.43824 0.11257 0.3287 0.0
H1284 H 0.4421 0.06547 0.35231 0.0
H1285 H 0.4379 0.07449 0.18328 0.0
H1286 H 0.43186 0.08828 0.41325 0.0
H1287 H 0.41748 0.07082 0.40896 0.0
H1288 H 0.43459 0.07375 0.42612 0.0
H1289 H 0.428 0.08819 0.15836 0.0
H1290 H 0.41228 0.08217 0.1984 0.0
H1291 H 0.42687 0.0992 0.21062 0.0
H1292 H 0.38256 0.07698 0.33839 0.0
H1293 H 0.41799 0.11822 0.35779 0.0
H1294 H 0.40055 0.05873 0.33309 0.0
H1295 H 0.39871 0.06251 0.26299 0.0
H1296 H 0.38458 0.05786 0.31084 0.0
H1297 H 0.44387 0.10896 0.35589 0.0
H1298 H 0.44096 0.1233 0.34128 0.0
H1299 H 0.44209 0.11296 0.28613 0.0
C1300 C 0.87748 0.29497 0.31272 0.0
C1301 C 0.87915 0.29293 0.36865 0.0
C1302 C 0.88496 0.30828 0.28879 0.0
C1303 C 0.89427 0.31977 0.32168 0.0
C1304 C 0.89533 0.31792 0.37883 0.0
C1305 C 0.88775 0.30451 0.40163 0.0
C1306 C 0.88351 0.30989 0.22775 0.0
C1307 C 0.90508 0.32994 0.41535 0.0
C1308 C 0.92704 0.34927 0.25828 0.0
C1309 C 0.92382 0.36002 0.25606 0.0
C1310 C 0.91731 0.33599 0.27792 0.0
C1311 C 0.90402 0.33338 0.2957 0.0
C1312 C 0.90049 0.34401 0.29163 0.0
C1313 C 0.91046 0.35724 0.27186 0.0
C1314 C 0.92145 0.32489 0.28144 0.0
C1315 C 0.88638 0.34156 0.30994 0.0
H1316 H 0.87078 0.28609 0.287 0.0
H1317 H 0.88899 0.30304 0.44501 0.0
H1318 H 0.88207 0.31897 0.21966 0.0
H1319 H 0.89321 0.31189 0.20639 0.0
H1320 H 0.87458 0.3004 0.20951 0.0
H1321 H 0.90368 0.32704 0.45967 0.0
H1322 H 0.91606 0.33346 0.40376 0.0
H1323 H 0.9034 0.33895 0.40955 0.0
H1324 H 0.9373 0.3513 0.24584 0.0
H1325 H 0.90788 0.36549 0.27006 0.0
H1326 H 0.91366 0.31528 0.25979 0.0
H1327 H 0.92162 0.32207 0.32522 0.0
H1328 H 0.93191 0.32838 0.26325 0.0
H1329 H 0.87792 0.33195 0.29056 0.0
H1330 H 0.88482 0.35047 0.29949 0.0
H1331 H 0.88535 0.33996 0.35521 0.0
C1332 C 0.69121 0.08425 0.34317 0.0
C1333 C 0.70102 0.0983 0.35325 0.0
C1334 C 0.67781 0.08033 0.32374 0.0
C1335 C 0.67418 0.09073 0.31375 0.0
C1336 C 0.68405 0.10495 0.32341 0.0
C1337 C 0.69736 0.10857 0.34333 0.0
C1338 C 0.66748 0.06503 0.31445 0.0
C1339 C 0.68055 0.11631 0.31286 0.0
C1340 C 0.64247 0.07946 0.22231 0.0
C1341 C 0.63189 0.07571 0.26164 0.0
C1342 C 0.65644 0.08492 0.23854 0.0
C1343 C 0.65983 0.08658 0.29535 0.0
C1344 C 0.64928 0.08337 0.33504 0.0
C1345 C 0.63546 0.07803 0.3177 0.0
C1346 C 0.66748 0.0884 0.19508 0.0
C1347 C 0.65249 0.08499 0.39602 0.0
H1348 H 0.69397 0.07626 0.35074 0.0
H1349 H 0.70493 0.11946 0.35066 0.0
H1350 H 0.65819 0.06172 0.34114 0.0
H1351 H 0.6638 0.06328 0.27111 0.0
H1352 H 0.67203 0.05827 0.32344 0.0
H1353 H 0.68957 0.12691 0.32064 0.0
H1354 H 0.67709 0.11579 0.26957 0.0
H1355 H 0.67176 0.11476 0.33973 0.0
H1356 H 0.63981 0.07776 0.17893 0.0
H1357 H 0.62737 0.07525 0.34843 0.0
H1358 H 0.67152 0.08104 0.19828 0.0
H1359 H 0.67643 0.09908 0.20171 0.0
H1360 H 0.66337 0.08774 0.15273 0.0
H1361 H 0.65606 0.07765 0.4088 0.0
H1362 H 0.64326 0.08287 0.42134 0.0
H1363 H 0.66107 0.09571 0.40521 0.0
C1364 C 0.88578 0.58112 0.40415 0.0
C1365 C 0.89618 0.59386 0.42618 0.0
C1366 C 0.88931 0.57245 0.37425 0.0
C1367 C 0.90356 0.57657 0.36671 0.0
C1368 C 0.91407 0.5892 0.39031 0.0
C1369 C 0.91025 0.59771 0.41958 0.0
C1370 C 0.87784 0.55908 0.34951 0.0
C1371 C 0.92938 0.59387 0.38374 0.0
C1372 C 0.91532 0.55081 0.32907 0.0
C1373 C 0.91907 0.55413 0.2735 0.0
C1374 C 0.90968 0.55761 0.3594 0.0
C1375 C 0.90762 0.56789 0.33342 0.0
C1376 C 0.91059 0.5707 0.27656 0.0
C1377 C 0.91634 0.56381 0.24728 0.0
C1378 C 0.90666 0.55435 0.41998 0.0
C1379 C 0.90835 0.58147 0.24728 0.0
H1380 H 0.87488 0.57811 0.40889 0.0
H1381 H 0.91834 0.6075 0.43668 0.0
H1382 H 0.87873 0.55959 0.30392 0.0
H1383 H 0.87891 0.55008 0.36308 0.0
H1384 H 0.86727 0.55708 0.36107 0.0
H1385 H 0.93623 0.60373 0.40627 0.0
H1386 H 0.93149 0.58565 0.39909 0.0
H1387 H 0.93226 0.5955 0.33946 0.0
H1388 H 0.91733 0.54329 0.3497 0.0
H1389 H 0.9191 0.56636 0.20428 0.0
H1390 H 0.89601 0.55228 0.43015 0.0
H1391 H 0.91414 0.56351 0.4447 0.0
H1392 H 0.90757 0.54518 0.43269 0.0
H1393 H 0.89767 0.57959 0.2554 0.0
H1394 H 0.90984 0.58142 0.20202 0.0
H1395 H 0.91583 0.59203 0.2633 0.0
C1396 C 0.41927 0.35155 0.29132 0.0
C1397 C 0.43361 0.36099 0.28597 0.0
C1398 C 0.41439 0.33919 0.32162 0.0
C1399 C 0.42409 0.33624 0.3476 0.0
C1400 C 0.43859 0.34562 0.34181 0.0
C1401 C 0.44319 0.35787 0.31078 0.0
C1402 C 0.39883 0.32934 0.3263 0.0
C1403 C 0.44922 0.34283 0.36917 0.0
C1404 C 0.4091 0.31062 0.46643 0.0
C1405 C 0.40601 0.29805 0.44062 0.0
C1406 C 0.41557 0.32328 0.43722 0.0
C1407 C 0.41893 0.32331 0.38088 0.0
C1408 C 0.41637 0.31076 0.35526 0.0
C1409 C 0.40999 0.29829 0.38549 0.0
C1410 C 0.41829 0.33651 0.46603 0.0
C1411 C 0.41976 0.31037 0.2952 0.0
H1412 H 0.4118 0.35387 0.27209 0.0
H1413 H 0.4543 0.36516 0.30704 0.0
H1414 H 0.39613 0.31882 0.31108 0.0
H1415 H 0.3956 0.3282 0.37016 0.0
H1416 H 0.39269 0.33303 0.30258 0.0
H1417 H 0.46012 0.35104 0.35981 0.0
H1418 H 0.44772 0.34225 0.41451 0.0
H1419 H 0.44773 0.33259 0.35554 0.0
H1420 H 0.40614 0.31054 0.50907 0.0
H1421 H 0.4077 0.28863 0.36519 0.0
H1422 H 0.41149 0.34024 0.44819 0.0
H1423 H 0.42927 0.34488 0.4596 0.0
H1424 H 0.41623 0.33495 0.51103 0.0
H1425 H 0.41304 0.31286 0.26921 0.0
H1426 H 0.41813 0.29999 0.28265 0.0
H1427 H 0.43076 0.31838 0.28654 0.0
C1428 C 0.29168 0.8811 0.66929 0.0
C1429 C 0.28862 0.8813 0.61327 0.0
C1430 C 0.3055 0.88773 0.68806 0.0
C1431 C 0.31654 0.89467 0.64985 0.0
C1432 C 0.31357 0.89412 0.59284 0.0
C1433 C 0.29961 0.88744 0.57518 0.0
C1434 C 0.30825 0.88808 0.74919 0.0
C1435 C 0.32509 0.90128 0.55085 0.0
C1436 C 0.34898 0.9266 0.70283 0.0
C1437 C 0.35808 0.92141 0.71167 0.0
C1438 C 0.33548 0.91799 0.68243 0.0
C1439 C 0.33097 0.90384 0.67023 0.0
C1440 C 0.34009 0.8985 0.67888 0.0
C1441 C 0.35355 0.90736 0.69976 0.0
C1442 C 0.32601 0.92404 0.67419 0.0
C1443 C 0.33562 0.88348 0.66601 0.0
H1444 H 0.28325 0.87625 0.699 0.0
H1445 H 0.29733 0.88754 0.53179 0.0
H1446 H 0.31634 0.88518 0.75747 0.0
H1447 H 0.31229 0.89886 0.76492 0.0
H1448 H 0.29867 0.88093 0.77269 0.0
H1449 H 0.32118 0.89836 0.50797 0.0
H1450 H 0.32991 0.91277 0.55519 0.0
H1451 H 0.33342 0.89865 0.55796 0.0
H1452 H 0.3524 0.93744 0.712 0.0
H1453 H 0.36057 0.9033 0.70622 0.0
H1454 H 0.31645 0.91824 0.69965 0.0
H1455 H 0.32264 0.92289 0.63051 0.0
H1456 H 0.33116 0.93528 0.68542 0.0
H1457 H 0.32638 0.8764 0.69119 0.0
H1458 H 0.34405 0.88102 0.67411 0.0
H1459 H 0.33248 0.88121 0.62212 0.0
C1460 C 0.08093 0.4387 0.74029 0.0
C1461 C 0.07572 0.44618 0.71192 0.0
C1462 C 0.08802 0.43301 0.71222 0.0
C1463 C 0.08996 0.43488 0.6545 0.0
C1464 C 0.0855 0.44315 0.62624 0.0
C1465 C 0.07843 0.44871 0.6553 0.0
C1466 C 0.09273 0.42432 0.74382 0.0
C1467 C 0.08746 0.44545 0.56478 0.0
C1468 C 0.11465 0.42487 0.58631 0.0
C1469 C 0.10533 0.41118 0.56896 0.0
C1470 C 0.10981 0.43286 0.61339 0.0
C1471 C 0.09533 0.42702 0.62306 0.0
C1472 C 0.08584 0.41339 0.604 0.0
C1473 C 0.09096 0.40563 0.57724 0.0
C1474 C 0.12021 0.44738 0.63305 0.0
C1475 C 0.07029 0.40683 0.61312 0.0
H1476 H 0.07895 0.43677 0.78407 0.0
H1477 H 0.07456 0.45459 0.6331 0.0
H1478 H 0.08631 0.41321 0.73141 0.0
H1479 H 0.10376 0.42767 0.73396 0.0
H1480 H 0.09173 0.42505 0.78909 0.0
H1481 H 0.08489 0.45343 0.55016 0.0
H1482 H 0.09838 0.44878 0.55297 0.0
H1483 H 0.08059 0.43549 0.54303 0.0
H1484 H 0.12578 0.42922 0.58012 0.0
H1485 H 0.08369 0.39509 0.56372 0.0
H1486 H 0.12008 0.44772 0.67874 0.0
H1487 H 0.11727 0.45502 0.61772 0.0
H1488 H 0.13102 0.45072 0.61929 0.0
H1489 H 0.06802 0.40583 0.65795 0.0
H1490 H 0.0643 0.39632 0.59402 0.0
H1491 H 0.0665 0.41362 0.59568 0.0
C1492 C 0.55811 0.64389 0.77908 0.0
C1493 C 0.55383 0.63309 0.7404 0.0
C1494 C 0.5663 0.65793 0.76308 0.0
C1495 C 0.5703 0.66118 0.70717 0.0
C1496 C 0.56551 0.65035 0.66763 0.0
C1497 C 0.55732 0.63645 0.68469 0.0
C1498 C 0.57115 0.66923 0.80631 0.0
C1499 C 0.56954 0.6534 0.60761 0.0
C1500 C 0.58529 0.69835 0.65484 0.0
C1501 C 0.59967 0.70314 0.6562 0.0
C1502 C 0.57556 0.68475 0.67195 0.0
C1503 C 0.58036 0.67576 0.69057 0.0
C1504 C 0.59486 0.68053 0.69196 0.0
C1505 C 0.60434 0.69417 0.67483 0.0
C1506 C 0.56017 0.67999 0.66999 0.0
C1507 C 0.60038 0.67121 0.71128 0.0
H1508 H 0.55539 0.64139 0.82213 0.0
H1509 H 0.55398 0.62818 0.65439 0.0
H1510 H 0.58263 0.67425 0.81142 0.0
H1511 H 0.56884 0.67748 0.79313 0.0
H1512 H 0.56613 0.66509 0.84693 0.0
H1513 H 0.56411 0.6439 0.58148 0.0
H1514 H 0.56708 0.66134 0.59181 0.0
H1515 H 0.58098 0.65779 0.60317 0.0
H1516 H 0.58161 0.70525 0.64069 0.0
H1517 H 0.61543 0.69778 0.67605 0.0
H1518 H 0.55548 0.67653 0.71151 0.0
H1519 H 0.55473 0.67089 0.64201 0.0
H1520 H 0.55816 0.68836 0.65555 0.0
H1521 H 0.59678 0.66757 0.75392 0.0
H1522 H 0.61198 0.67659 0.71053 0.0
H1523 H 0.59623 0.6618 0.68467 0.0
C1524 C 0.36322 0.43868 0.67365 0.0
C1525 C 0.36783 0.44146 0.7285 0.0
C1526 C 0.34893 0.43153 0.661 0.0
C1527 C 0.33904 0.42706 0.70425 0.0
C1528 C 0.34362 0.43046 0.75949 0.0
C1529 C 0.35798 0.43764 0.77097 0.0
C1530 C 0.34444 0.42816 0.60156 0.0
C1531 C 0.33335 0.42592 0.80668 0.0
C1532 C 0.30099 0.41436 0.67033 0.0
C1533 C 0.29537 0.39982 0.66993 0.0
C1534 C 0.31521 0.4234 0.68135 0.0
C1535 C 0.32398 0.41776 0.69213 0.0
C1536 C 0.31838 0.40311 0.69139 0.0
C1537 C 0.30415 0.39432 0.68031 0.0
C1538 C 0.32085 0.43898 0.68175 0.0
C1539 C 0.32742 0.39669 0.70256 0.0
H1540 H 0.37077 0.44169 0.64052 0.0
H1541 H 0.36145 0.43982 0.81343 0.0
H1542 H 0.33949 0.41672 0.59491 0.0
H1543 H 0.33654 0.43119 0.59139 0.0
H1544 H 0.35336 0.43352 0.57257 0.0
H1545 H 0.33855 0.43051 0.84659 0.0
H1546 H 0.32534 0.42895 0.79877 0.0
H1547 H 0.32782 0.41437 0.81037 0.0
H1548 H 0.29426 0.41868 0.66236 0.0
H1549 H 0.2999 0.38311 0.68004 0.0
H1550 H 0.32941 0.44414 0.65122 0.0
H1551 H 0.32533 0.44333 0.72281 0.0
H1552 H 0.31267 0.4417 0.67209 0.0
H1553 H 0.3361 0.40064 0.67231 0.0
H1554 H 0.32145 0.3851 0.70022 0.0
H1555 H 0.33216 0.39978 0.74415 0.0
C1556 C 0.57893 0.88624 0.62715 0.0
C1557 C 0.58259 0.8895 0.57148 0.0
C1558 C 0.57365 0.89331 0.65793 0.0
C1559 C 0.57187 0.9038 0.63228 0.0
C1560 C 0.57476 0.90657 0.57537 0.0
C1561 C 0.58013 0.89941 0.54564 0.0
C1562 C 0.5707 0.89006 0.71854 0.0
C1563 C 0.57281 0.91757 0.54646 0.0
C1564 C 0.55061 0.91773 0.70242 0.0
C1565 C 0.56117 0.93045 0.7239 0.0
C1566 C 0.5539 0.90879 0.67319 0.0
C1567 C 0.56808 0.91264 0.6658 0.0
C1568 C 0.57875 0.92521 0.68917 0.0
C1569 C 0.57517 0.93399 0.71777 0.0
C1570 C 0.54226 0.89549 0.64871 0.0
C1571 C 0.59399 0.92956 0.68278 0.0
H1572 H 0.58074 0.87855 0.64748 0.0
H1573 H 0.58283 0.90193 0.50258 0.0
H1574 H 0.57836 0.89914 0.74319 0.0
H1575 H 0.56015 0.88825 0.72908 0.0
H1576 H 0.57137 0.88075 0.73101 0.0
H1577 H 0.5743 0.91757 0.50118 0.0
H1578 H 0.5622 0.9159 0.55464 0.0
H1579 H 0.58043 0.92805 0.56276 0.0
H1580 H 0.53976 0.91493 0.70686 0.0
H1581 H 0.58338 0.94376 0.73449 0.0
H1582 H 0.54322 0.8864 0.66193 0.0
H1583 H 0.54303 0.89601 0.60309 0.0
H1584 H 0.53177 0.89363 0.66077 0.0
H1585 H 0.59586 0.92116 0.69785 0.0
H1586 H 0.60097 0.93933 0.70561 0.0
H1587 H 0.59691 0.93124 0.63854 0.0
C1588 C 0.07056 0.63056 0.6595 0.0
C1589 C 0.058 0.62737 0.68581 0.0
C1590 C 0.07829 0.64312 0.63049 0.0
C1591 C 0.07345 0.65277 0.62853 0.0
C1592 C 0.06093 0.64973 0.6559 0.0
C1593 C 0.0533 0.63701 0.68392 0.0
C1594 C 0.09154 0.64597 0.60134 0.0
C1595 C 0.05557 0.6599 0.65544 0.0
C1596 C 0.09904 0.69085 0.59869 0.0
C1597 C 0.09568 0.69216 0.54405 0.0
C1598 C 0.09204 0.67803 0.62636 0.0
C1599 C 0.08155 0.66618 0.59849 0.0
C1600 C 0.07846 0.66728 0.54271 0.0
C1601 C 0.0855 0.68031 0.5162 0.0
C1602 C 0.09553 0.67728 0.68602 0.0
C1603 C 0.06748 0.65478 0.51147 0.0
H1604 H 0.0742 0.6231 0.66045 0.0
H1605 H 0.04362 0.63461 0.7043 0.0
H1606 H 0.09066 0.64752 0.55665 0.0
H1607 H 0.10053 0.65573 0.6173 0.0
H1608 H 0.09381 0.63732 0.60657 0.0
H1609 H 0.04578 0.65606 0.67959 0.0
H1610 H 0.06358 0.67009 0.67276 0.0
H1611 H 0.05355 0.66182 0.61245 0.0
H1612 H 0.10687 0.69995 0.62063 0.0
H1613 H 0.08291 0.68124 0.47392 0.0
H1614 H 0.09836 0.66905 0.69158 0.0
H1615 H 0.08624 0.67441 0.71212 0.0
H1616 H 0.10431 0.68735 0.70113 0.0
H1617 H 0.06966 0.64603 0.51398 0.0
H1618 H 0.06695 0.65718 0.46737 0.0
H1619 H 0.05708 0.65113 0.53043 0.0
C1620 C 0.11579 0.36506 0.68645 0.0
C1621 C 0.12251 0.3622 0.64356 0.0
C1622 C 0.11184 0.35711 0.73498 0.0
C1623 C 0.11457 0.34596 0.74066 0.0
C1624 C 0.12126 0.34294 0.69744 0.0
C1625 C 0.1252 0.35113 0.64943 0.0
C1626 C 0.10479 0.36069 0.78032 0.0
C1627 C 0.12426 0.33106 0.70193 0.0
C1628 C 0.11559 0.33361 0.88574 0.0
C1629 C 0.10215 0.32196 0.89085 0.0
C1630 C 0.11982 0.34145 0.83688 0.0
C1631 C 0.11042 0.33748 0.79197 0.0
C1632 C 0.09691 0.32563 0.7966 0.0
C1633 C 0.09292 0.31803 0.84604 0.0
C1634 C 0.13429 0.35409 0.83355 0.0
C1635 C 0.08663 0.32103 0.74946 0.0
H1636 H 0.1137 0.37361 0.68235 0.0
H1637 H 0.13035 0.34883 0.61645 0.0
H1638 H 0.09435 0.35158 0.7892 0.0
H1639 H 0.11102 0.36319 0.81878 0.0
H1640 H 0.10347 0.36974 0.76951 0.0
H1641 H 0.12941 0.33 0.66442 0.0
H1642 H 0.1311 0.33273 0.73794 0.0
H1643 H 0.11439 0.32109 0.70882 0.0
H1644 H 0.12278 0.33672 0.92016 0.0
H1645 H 0.08254 0.309 0.84954 0.0
H1646 H 0.13354 0.3636 0.82617 0.0
H1647 H 0.14007 0.35302 0.79829 0.0
H1648 H 0.14042 0.35563 0.87177 0.0
H1649 H 0.08423 0.3294 0.7394 0.0
H1650 H 0.07669 0.31132 0.75908 0.0
H1651 H 0.09126 0.3192 0.71204 0.0
C1652 C 0.67194 0.78311 0.99508 0.0
C1653 C 0.68586 0.78612 0.9949 0.0
C1654 C 0.66421 0.77986 0.94594 0.0
C1655 C 0.67059 0.7797 0.89554 0.0
C1656 C 0.68467 0.78289 0.89503 0.0
C1657 C 0.69212 0.78603 0.94467 0.0
C1658 C 0.64918 0.77646 0.94799 0.0
C1659 C 0.69186 0.78288 0.84208 0.0
C1660 C 0.64798 0.75828 0.77566 0.0
C1661 C 0.64779 0.76858 0.74245 0.0
C1662 C 0.65521 0.76175 0.82592 0.0
C1663 C 0.66247 0.77585 0.84332 0.0
C1664 C 0.66233 0.7863 0.81008 0.0
C1665 C 0.65497 0.78254 0.76002 0.0
C1666 C 0.65513 0.75031 0.86026 0.0
C1667 C 0.67002 0.80147 0.82721 0.0
H1668 H 0.66703 0.78316 0.03367 0.0
H1669 H 0.70289 0.7884 0.94402 0.0
H1670 H 0.64766 0.7836 0.92047 0.0
H1671 H 0.64225 0.76567 0.93279 0.0
H1672 H 0.64584 0.77732 0.99031 0.0
H1673 H 0.70298 0.78594 0.84859 0.0
H1674 H 0.68638 0.77231 0.82329 0.0
H1675 H 0.6914 0.79019 0.812 0.0
H1676 H 0.64243 0.74746 0.76251 0.0
H1677 H 0.65486 0.79055 0.73467 0.0
H1678 H 0.65102 0.75023 0.90205 0.0
H1679 H 0.66596 0.75232 0.86534 0.0
H1680 H 0.64869 0.73981 0.84151 0.0
H1681 H 0.66626 0.80267 0.86812 0.0
H1682 H 0.66866 0.80828 0.79718 0.0
H1683 H 0.68134 0.80517 0.83133 0.0
C1684 C 0.21164 0.90556 0.95716 0.0
C1685 C 0.21066 0.89879 0.00731 0.0
C1686 C 0.21382 0.90049 0.9074 0.0
C1687 C 0.21517 0.88842 0.90774 0.0
C1688 C 0.21411 0.88148 0.9581 0.0
C1689 C 0.21181 0.88672 0.00733 0.0
C1690 C 0.21479 0.90813 0.85449 0.0
C1691 C 0.21561 0.86864 0.96005 0.0
C1692 C 0.20997 0.86918 0.77218 0.0
C1693 C 0.2238 0.87452 0.75441 0.0
C1694 C 0.20699 0.87352 0.82226 0.0
C1695 C 0.21811 0.88336 0.85545 0.0
C1696 C 0.23208 0.88871 0.83791 0.0
C1697 C 0.23475 0.88427 0.78756 0.0
C1698 C 0.19196 0.86767 0.83946 0.0
C1699 C 0.24422 0.89918 0.87227 0.0
H1700 H 0.21069 0.91486 0.95666 0.0
H1701 H 0.21107 0.88145 0.0459 0.0
H1702 H 0.22525 0.91209 0.83565 0.0
H1703 H 0.20696 0.90087 0.82443 0.0
H1704 H 0.21305 0.91709 0.86108 0.0
H1705 H 0.21424 0.8643 0.00235 0.0
H1706 H 0.20779 0.86044 0.93255 0.0
H1707 H 0.22609 0.87123 0.94475 0.0
H1708 H 0.20145 0.86164 0.74685 0.0
H1709 H 0.24548 0.88841 0.77433 0.0
H1710 H 0.18959 0.87627 0.84366 0.0
H1711 H 0.19017 0.86256 0.88034 0.0
H1712 H 0.18453 0.85993 0.80942 0.0
H1713 H 0.2436 0.90884 0.87733 0.0
H1714 H 0.25447 0.90203 0.85353 0.0
H1715 H 0.24373 0.89489 0.91406 0.0
C1716 C 0.33104 0.1088 0.99971 0.0
C1717 C 0.31651 0.09989 0.00092 0.0
C1718 C 0.33882 0.11324 0.04874 0.0
C1719 C 0.3319 0.10865 0.10007 0.0
C1720 C 0.31722 0.09985 0.10156 0.0
C1721 C 0.30972 0.09559 0.05203 0.0
C1722 C 0.35446 0.12264 0.04562 0.0
C1723 C 0.30946 0.09475 0.1555 0.0
C1724 C 0.35232 0.10777 0.22422 0.0
C1725 C 0.35482 0.11982 0.25291 0.0
C1726 C 0.34498 0.10409 0.1742 0.0
C1727 C 0.34001 0.11266 0.1523 0.0
C1728 C 0.3425 0.12485 0.18097 0.0
C1729 C 0.34987 0.12828 0.23098 0.0
C1730 C 0.34249 0.09098 0.14488 0.0
C1731 C 0.33733 0.13423 0.15891 0.0
H1732 H 0.33637 0.11219 0.96044 0.0
H1733 H 0.29849 0.08872 0.05346 0.0
H1734 H 0.35771 0.13226 0.0701 0.0
H1735 H 0.35972 0.11726 0.06375 0.0
H1736 H 0.3582 0.12567 0.0026 0.0
H1737 H 0.29798 0.0883 0.14958 0.0
H1738 H 0.31312 0.08839 0.1777 0.0
H1739 H 0.31167 0.10375 0.18231 0.0
H1740 H 0.35611 0.10117 0.2408 0.0
H1741 H 0.35177 0.13763 0.2528 0.0
H1742 H 0.34691 0.09357 0.10266 0.0
H1743 H 0.3311 0.08365 0.1407 0.0
H1744 H 0.34722 0.08556 0.16699 0.0
H1745 H 0.3416 0.13795 0.11703 0.0
H1746 H 0.34033 0.14345 0.18573 0.0
H1747 H 0.32578 0.12827 0.15518 0.0
C1748 C 0.8898 0.24013 0.32087 0.0
C1749 C 0.87538 0.23493 0.32586 0.0
C1750 C 0.89518 0.23555 0.27845 0.0
C1751 C 0.88592 0.22551 0.24022 0.0
C1752 C 0.87135 0.22006 0.24553 0.0
C1753 C 0.86626 0.22485 0.28825 0.0
C1754 C 0.91079 0.24163 0.27402 0.0
C1755 C 0.86115 0.2093 0.20565 0.0
C1756 C 0.90035 0.22414 0.09989 0.0
C1757 C 0.90258 0.21278 0.10599 0.0
C1758 C 0.89488 0.22835 0.14319 0.0
C1759 C 0.89152 0.221 0.19379 0.0
C1760 C 0.89362 0.20945 0.2001 0.0
C1761 C 0.89915 0.20549 0.15613 0.0
C1762 C 0.89279 0.24072 0.13491 0.0
C1763 C 0.89011 0.20134 0.25342 0.0
H1764 H 0.89693 0.24792 0.34975 0.0
H1765 H 0.8551 0.22074 0.29189 0.0
H1766 H 0.91337 0.23314 0.27488 0.0
H1767 H 0.91457 0.24715 0.23409 0.0
H1768 H 0.91654 0.24909 0.30786 0.0
H1769 H 0.85012 0.20577 0.21653 0.0
H1770 H 0.86318 0.21371 0.16339 0.0
H1771 H 0.8626 0.20006 0.20475 0.0
H1772 H 0.90298 0.22984 0.06131 0.0
H1773 H 0.90081 0.19668 0.16116 0.0
H1774 H 0.89908 0.24898 0.16542 0.0
H1775 H 0.88168 0.23757 0.14189 0.0
H1776 H 0.89582 0.24523 0.09288 0.0
H1777 H 0.89635 0.20836 0.2876 0.0
H1778 H 0.89217 0.19249 0.25141 0.0
H1779 H 0.87894 0.19717 0.26372 0.0
C1780 C 0.76056 0.65458 0.24754 0.0
C1781 C 0.7618 0.64256 0.24656 0.0
C1782 C 0.76562 0.6642 0.20399 0.0
C1783 C 0.77218 0.6618 0.15858 0.0
C1784 C 0.77364 0.64979 0.15762 0.0
C1785 C 0.76838 0.64028 0.20157 0.0
C1786 C 0.76382 0.67687 0.20631 0.0
C1787 C 0.78068 0.64696 0.11004 0.0
C1788 C 0.77304 0.67977 0.02428 0.0
C1789 C 0.78647 0.69155 0.02561 0.0
C1790 C 0.76833 0.66988 0.06692 0.0
C1791 C 0.77731 0.67178 0.11172 0.0
C1792 C 0.79101 0.68345 0.11262 0.0
C1793 C 0.79541 0.69323 0.06962 0.0
C1794 C 0.75364 0.65759 0.06467 0.0
C1795 C 0.80091 0.68574 0.15952 0.0
H1796 H 0.75547 0.65641 0.28212 0.0
H1797 H 0.76944 0.63105 0.20063 0.0
H1798 H 0.77414 0.68654 0.20351 0.0
H1799 H 0.75753 0.67682 0.17058 0.0
H1800 H 0.75857 0.67726 0.24478 0.0
H1801 H 0.7813 0.63732 0.11625 0.0
H1802 H 0.77488 0.64586 0.07134 0.0
H1803 H 0.79142 0.6559 0.10441 0.0
H1804 H 0.76607 0.6784 0.99044 0.0
H1805 H 0.80583 0.70227 0.07078 0.0
H1806 H 0.74754 0.65799 0.10025 0.0
H1807 H 0.75381 0.64767 0.06782 0.0
H1808 H 0.74813 0.6574 0.0261 0.0
H1809 H 0.79661 0.68729 0.19851 0.0
H1810 H 0.81143 0.69497 0.15268 0.0
H1811 H 0.80203 0.67639 0.16504 0.0
C1812 C 0.90848 0.68911 0.15217 0.0
C1813 C 0.89942 0.6834 0.107 0.0
C1814 C 0.90538 0.68213 0.20297 0.0
C1815 C 0.89296 0.6691 0.20867 0.0
C1816 C 0.88375 0.66329 0.16333 0.0
C1817 C 0.88708 0.67053 0.11305 0.0
C1818 C 0.91542 0.68867 0.25047 0.0
C1819 C 0.87043 0.64937 0.16784 0.0
C1820 C 0.89122 0.64447 0.32132 0.0
C1821 C 0.88311 0.64625 0.3615 0.0
C1822 C 0.89456 0.6519 0.27154 0.0
C1823 C 0.88973 0.66139 0.26178 0.0
C1824 C 0.88173 0.66342 0.30249 0.0
C1825 C 0.87849 0.6558 0.35185 0.0
C1826 C 0.90308 0.64944 0.22905 0.0
C1827 C 0.87648 0.67353 0.29362 0.0
H1828 H 0.91802 0.69907 0.14795 0.0
H1829 H 0.88003 0.66605 0.07838 0.0
H1830 H 0.90995 0.69002 0.28624 0.0
H1831 H 0.91937 0.68168 0.26381 0.0
H1832 H 0.92448 0.69901 0.23961 0.0
H1833 H 0.86432 0.64636 0.12892 0.0
H1834 H 0.87292 0.6411 0.17866 0.0
H1835 H 0.86379 0.64972 0.20136 0.0
H1836 H 0.89482 0.6371 0.32835 0.0
H1837 H 0.87222 0.65724 0.38267 0.0
H1838 H 0.91267 0.65941 0.21902 0.0
H1839 H 0.897 0.64547 0.19036 0.0
H1840 H 0.90617 0.64181 0.24329 0.0
H1841 H 0.88538 0.68412 0.28493 0.0
H1842 H 0.87068 0.67414 0.32988 0.0
H1843 H 0.86948 0.67029 0.25722 0.0
C1844 C 0.31857 0.2032 0.11436 0.0
C1845 C 0.31399 0.21183 0.09113 0.0
C1846 C 0.32827 0.20796 0.15776 0.0
C1847 C 0.33355 0.2217 0.17808 0.0
C1848 C 0.32914 0.23053 0.15421 0.0
C1849 C 0.31939 0.22548 0.11114 0.0
C1850 C 0.3327 0.19824 0.1824 0.0
C1851 C 0.33461 0.24528 0.17457 0.0
C1852 C 0.34774 0.23084 0.32367 0.0
C1853 C 0.36221 0.23798 0.31445 0.0
C1854 C 0.3383 0.2252 0.27971 0.0
C1855 C 0.34344 0.22679 0.22521 0.0
C1856 C 0.35802 0.23376 0.21567 0.0
C1857 C 0.36724 0.23924 0.26046 0.0
C1858 C 0.32281 0.21776 0.2915 0.0
C1859 C 0.36388 0.2357 0.15806 0.0
H1860 H 0.31444 0.19263 0.09915 0.0
H1861 H 0.31596 0.23225 0.09326 0.0
H1862 H 0.34423 0.20306 0.18033 0.0
H1863 H 0.32972 0.19642 0.22657 0.0
H1864 H 0.32787 0.18798 0.16101 0.0
H1865 H 0.33044 0.25094 0.1505 0.0
H1866 H 0.33174 0.24512 0.21848 0.0
H1867 H 0.34619 0.25123 0.17212 0.0
H1868 H 0.34376 0.22976 0.3653 0.0
H1869 H 0.3784 0.24473 0.25299 0.0
H1870 H 0.31765 0.20713 0.27332 0.0
H1871 H 0.31808 0.2235 0.27204 0.0
H1872 H 0.32051 0.21684 0.33637 0.0
H1873 H 0.35955 0.22544 0.13706 0.0
H1874 H 0.37547 0.24085 0.15783 0.0
H1875 H 0.36074 0.24215 0.13355 0.0
C1876 C 0.77312 0.08434 0.04448 0.0
C1877 C 0.78702 0.08735 0.0479 0.0
C1878 C 0.76753 0.08941 0.08408 0.0
C1879 C 0.77607 0.09774 0.12792 0.0
C1880 C 0.79012 0.10086 0.13154 0.0
C1881 C 0.79542 0.09559 0.09152 0.0
C1882 C 0.75247 0.08581 0.07913 0.0
C1883 C 0.79954 0.10975 0.17768 0.0
C1884 C 0.76569 0.12108 0.20456 0.0
C1885 C 0.75962 0.11327 0.25243 0.0
C1886 C 0.77105 0.11613 0.1635 0.0
C1887 C 0.77026 0.10304 0.17051 0.0
C1888 C 0.76402 0.09504 0.21845 0.0
C1889 C 0.75879 0.10026 0.25889 0.0
C1890 C 0.77767 0.12494 0.11287 0.0
C1891 C 0.76294 0.081 0.22719 0.0
H1892 H 0.76656 0.07797 0.01091 0.0
H1893 H 0.80619 0.09801 0.09431 0.0
H1894 H 0.74659 0.08011 0.11647 0.0
H1895 H 0.75186 0.09551 0.07642 0.0
H1896 H 0.74725 0.07926 0.04239 0.0
H1897 H 0.81027 0.11136 0.17414 0.0
H1898 H 0.80022 0.12011 0.17773 0.0
H1899 H 0.79511 0.10477 0.21799 0.0
H1900 H 0.76638 0.13114 0.19931 0.0
H1901 H 0.75408 0.09414 0.29571 0.0
H1902 H 0.77223 0.11899 0.07528 0.0
H1903 H 0.78872 0.12754 0.10966 0.0
H1904 H 0.77734 0.13482 0.11348 0.0
H1905 H 0.75713 0.07389 0.19258 0.0
H1906 H 0.75758 0.07599 0.26639 0.0
H1907 H 0.77353 0.08222 0.2277 0.0
C1908 C 0.63654 0.885 0.70331 0.0
C1909 C 0.63438 0.87304 0.67474 0.0
C1910 C 0.6438 0.88884 0.7535 0.0
C1911 C 0.64912 0.88058 0.77554 0.0
C1912 C 0.64718 0.86862 0.74655 0.0
C1913 C 0.63981 0.86498 0.69652 0.0
C1914 C 0.64564 0.90166 0.78326 0.0
C1915 C 0.6528 0.85962 0.76861 0.0
C1916 C 0.67832 0.89778 0.88061 0.0
C1917 C 0.67109 0.89269 0.9305 0.0
C1918 C 0.67133 0.89376 0.82989 0.0
C1919 C 0.65673 0.8845 0.82896 0.0
C1920 C 0.64936 0.87925 0.87908 0.0
C1921 C 0.65664 0.88338 0.9293 0.0
C1922 C 0.67955 0.89952 0.77729 0.0
C1923 C 0.63377 0.8694 0.87968 0.0
H1924 H 0.63236 0.89128 0.6869 0.0
H1925 H 0.6382 0.85573 0.67472 0.0
H1926 H 0.64077 0.89871 0.82469 0.0
H1927 H 0.65692 0.90919 0.7894 0.0
H1928 H 0.64091 0.90698 0.76046 0.0
H1929 H 0.6506 0.8508 0.74063 0.0
H1930 H 0.66426 0.86602 0.7747 0.0
H1931 H 0.64809 0.85531 0.80943 0.0
H1932 H 0.6895 0.90493 0.88108 0.0
H1933 H 0.65097 0.87942 0.96762 0.0
H1934 H 0.67572 0.90568 0.75481 0.0
H1935 H 0.67801 0.89083 0.74986 0.0
H1936 H 0.69092 0.90632 0.78505 0.0
H1937 H 0.62838 0.87453 0.86051 0.0
H1938 H 0.62963 0.86608 0.92207 0.0
H1939 H 0.63112 0.85996 0.85489 0.0
C1940 C 0.12218 0.77778 0.6508 0.0
C1941 C 0.11728 0.76346 0.64435 0.0
C1942 C 0.11931 0.78295 0.69896 0.0
C1943 C 0.11145 0.77357 0.74172 0.0
C1944 C 0.10653 0.75912 0.7355 0.0
C1945 C 0.10945 0.75423 0.68683 0.0
C1946 C 0.12462 0.79842 0.70403 0.0
C1947 C 0.0982 0.7488 0.78036 0.0
C1948 C 0.11372 0.78692 0.88774 0.0
C1949 C 0.10114 0.78706 0.89215 0.0
C1950 C 0.11734 0.78278 0.83866 0.0
C1951 C 0.1082 0.77878 0.79286 0.0
C1952 C 0.09563 0.77917 0.7967 0.0
C1953 C 0.09222 0.78325 0.84635 0.0
C1954 C 0.13079 0.78239 0.83618 0.0
C1955 C 0.08566 0.77507 0.74861 0.0
H1956 H 0.12822 0.78497 0.61814 0.0
H1957 H 0.10567 0.74315 0.68234 0.0
H1958 H 0.11573 0.80026 0.71018 0.0
H1959 H 0.13149 0.80267 0.74066 0.0
H1960 H 0.13058 0.80432 0.66704 0.0
H1961 H 0.09533 0.73793 0.7694 0.0
H1962 H 0.10431 0.75169 0.81921 0.0
H1963 H 0.08848 0.7491 0.78859 0.0
H1964 H 0.12067 0.78985 0.92292 0.0
H1965 H 0.08252 0.78341 0.84929 0.0
H1966 H 0.13729 0.78881 0.80119 0.0
H1967 H 0.12846 0.77152 0.82888 0.0
H1968 H 0.13698 0.78629 0.87473 0.0
H1969 H 0.0912 0.78131 0.7117 0.0
H1970 H 0.07665 0.77659 0.75745 0.0
H1971 H 0.08161 0.76392 0.73817 0.0
C1972 C 0.20464 0.32148 0.0077 0.0
C1973 C 0.20805 0.31095 0.01526 0.0
C1974 C 0.20856 0.32959 0.9595 0.0
C1975 C 0.21598 0.32705 0.91782 0.0
C1976 C 0.21943 0.31644 0.92518 0.0
C1977 C 0.21547 0.30855 0.97387 0.0
C1978 C 0.20478 0.34089 0.95318 0.0
C1979 C 0.22728 0.31337 0.88152 0.0
C1980 C 0.21549 0.33901 0.77154 0.0
C1981 C 0.22864 0.35112 0.76785 0.0
C1982 C 0.21118 0.33112 0.82027 0.0
C1983 C 0.22021 0.33552 0.86649 0.0
C1984 C 0.23342 0.34782 0.86325 0.0
C1985 C 0.2375 0.35545 0.81391 0.0
C1986 C 0.19705 0.318 0.82211 0.0
C1987 C 0.24329 0.35288 0.9118 0.0
H1988 H 0.19893 0.32341 0.0395 0.0
H1989 H 0.21812 0.30042 0.97928 0.0
H1990 H 0.21438 0.35116 0.94718 0.0
H1991 H 0.19818 0.33886 0.91604 0.0
H1992 H 0.19905 0.34159 0.98954 0.0
H1993 H 0.22906 0.30469 0.89346 0.0
H1994 H 0.22137 0.31059 0.8422 0.0
H1995 H 0.23755 0.32283 0.87367 0.0
H1996 H 0.20859 0.33558 0.73613 0.0
H1997 H 0.24765 0.36483 0.8115 0.0
H1998 H 0.1907 0.31867 0.85612 0.0
H1999 H 0.19833 0.30884 0.83063 0.0
H2000 H 0.19119 0.31613 0.7829 0.0
H2001 H 0.23809 0.35438 0.94813 0.0
H2002 H 0.25303 0.36287 0.90306 0.0
H2003 H 0.24614 0.3449 0.92316 0.0
C2004 C 0.00799 0.43434 0.60131 0.0
C2005 C 0.01871 0.44829 0.59655 0.0
C2006 C -0.00221 0.42804 0.56015 0.0
C2007 C -0.00171 0.43591 0.51336 0.0
C2008 C 0.00899 0.45003 0.50857 0.0
C2009 C 0.01911 0.45604 0.55016 0.0
C2010 C 0.98656 0.41293 0.56649 0.0
C2011 C 0.00979 0.45879 0.45941 0.0
C2012 C 0.9804 0.41732 0.38093 0.0
C2013 C 0.96808 0.41803 0.38256 0.0
C2014 C 0.99021 0.42289 0.42375 0.0
C2015 C 0.98767 0.42937 0.46908 0.0
C2016 C 0.97517 0.42993 0.47139 0.0
C2017 C 0.9655 0.42421 0.42816 0.0
C2018 C 0.0034 0.42202 0.42009 0.0
C2019 C 0.97214 0.43681 0.519 0.0
H2020 H 0.00763 0.42827 0.63699 0.0
H2021 H 0.02733 0.46684 0.54626 0.0
H2022 H 0.9761 0.412 0.56554 0.0
H2023 H 0.98703 0.40671 0.53148 0.0
H2024 H 0.9876 0.40828 0.60555 0.0
H2025 H 0.01865 0.46968 0.46237 0.0
H2026 H 0.01101 0.45402 0.42108 0.0
H2027 H -6e-05 0.45908 0.45555 0.0
H2028 H 0.98245 0.41252 0.34593 0.0
H2029 H 0.95601 0.42481 0.4297 0.0
H2030 H 0.00448 0.41682 0.45733 0.0
H2031 H 0.01264 0.43269 0.4186 0.0
H2032 H 0.00355 0.41617 0.38308 0.0
H2033 H 0.9725 0.43193 0.55845 0.0
H2034 H 0.96176 0.43604 0.5153 0.0
H2035 H 0.98027 0.44802 0.52114 0.0
C2036 C 0.56273 0.53537 0.43691 0.0
C2037 C 0.56952 0.5438 0.39112 0.0
C2038 C 0.55712 0.53996 0.47837 0.0
C2039 C 0.55838 0.55331 0.47393 0.0
C2040 C 0.5653 0.5619 0.42801 0.0
C2041 C 0.57077 0.55704 0.38711 0.0
C2042 C 0.54979 0.53051 0.52678 0.0
C2043 C 0.56689 0.57623 0.422 0.0
C2044 C 0.53334 0.56095 0.55304 0.0
C2045 C 0.54156 0.56859 0.5981 0.0
C2046 C 0.53863 0.55577 0.5126 0.0
C2047 C 0.55248 0.55833 0.51732 0.0
C2048 C 0.56079 0.56594 0.56289 0.0
C2049 C 0.55523 0.57096 0.60278 0.0
C2050 C 0.52945 0.54766 0.46459 0.0
C2051 C 0.57562 0.56889 0.56922 0.0
H2052 H 0.5617 0.52511 0.44027 0.0
H2053 H 0.57601 0.56363 0.35189 0.0
H2054 H 0.55498 0.5358 0.56577 0.0
H2055 H 0.53883 0.52827 0.52898 0.0
H2056 H 0.54972 0.52044 0.52412 0.0
H2057 H 0.57263 0.58164 0.38393 0.0
H2058 H 0.55644 0.57536 0.42105 0.0
H2059 H 0.57256 0.5828 0.45805 0.0
H2060 H 0.52275 0.55904 0.5492 0.0
H2061 H 0.56165 0.57684 0.63751 0.0
H2062 H 0.52849 0.53719 0.46236 0.0
H2063 H 0.53428 0.55314 0.42544 0.0
H2064 H 0.51881 0.5463 0.46766 0.0
H2065 H 0.5758 0.55894 0.56966 0.0
H2066 H 0.58061 0.57474 0.60761 0.0
H2067 H 0.58199 0.57506 0.53352 0.0
C2068 C 0.42033 0.95692 0.55874 0.0
C2069 C 0.41571 0.96033 0.60702 0.0
C2070 C 0.4243 0.96569 0.51239 0.0
C2071 C 0.42357 0.9781 0.51442 0.0
C2072 C 0.41906 0.98167 0.5632 0.0
C2073 C 0.4152 0.97275 0.60892 0.0
C2074 C 0.42914 0.9616 0.4611 0.0
C2075 C 0.41814 0.99483 0.56689 0.0
C2076 C 0.44437 0.00746 0.41311 0.0
C2077 C 0.43405 0.00564 0.37495 0.0
C2078 C 0.44116 -0.00158 0.45822 0.0
C2079 C 0.42731 0.98731 0.46529 0.0
C2080 C 0.4169 0.98527 0.42647 0.0
C2081 C 0.4204 0.99447 0.38175 0.0
C2082 C 0.45254 0.00091 0.49879 0.0
C2083 C 0.40201 0.9735 0.43268 0.0
H2084 H 0.42079 0.94736 0.55699 0.0
H2085 H 0.41165 0.97547 0.64606 0.0
H2086 H 0.42205 0.96019 0.42626 0.0
H2087 H 0.43973 0.97004 0.44934 0.0
H2088 H 0.42942 0.95177 0.46667 0.0
H2089 H 0.41464 0.9962 0.60816 0.0
H2090 H 0.42848 0.00409 0.55793 0.0
H2091 H 0.41071 0.99457 0.53551 0.0
H2092 H 0.45496 0.01605 0.4081 0.0
H2093 H 0.41237 0.99295 0.35237 0.0
H2094 H 0.45335 0.99135 0.50304 0.0
H2095 H 0.4499 0.00327 0.54004 0.0
H2096 H 0.46289 0.0097 0.48623 0.0
H2097 H 0.40174 0.96335 0.43518 0.0
H2098 H 0.39527 0.97307 0.39791 0.0
H2099 H 0.39753 0.97481 0.47162 0.0
C2100 C 0.54132 0.99011 0.63301 0.0
C2101 C 0.54706 0.98169 0.6466 0.0
C2102 C 0.54478 0.99761 0.58333 0.0
C2103 C 0.55415 0.99663 0.54635 0.0
C2104 C 0.56005 0.98823 0.55998 0.0
C2105 C 0.55646 0.98089 0.61 0.0
C2106 C 0.53835 0.00655 0.57028 0.0
C2107 C 0.57009 0.98692 0.52156 0.0
C2108 C 0.55376 0.00583 0.3957 0.0
C2109 C 0.5654 0.01933 0.39303 0.0
C2110 C 0.54995 0.99832 0.44542 0.0
C2111 C 0.55792 0.0045 0.49355 0.0
C2112 C 0.56962 0.01814 0.49119 0.0
C2113 C 0.57323 0.02538 0.44097 0.0
C2114 C 0.53743 0.98375 0.4464 0.0
C2115 C 0.57834 0.0251 0.54171 0.0
H2116 H 0.53405 0.99079 0.66104 0.0
H2117 H 0.56092 0.97439 0.6201 0.0
H2118 H 0.54669 0.01754 0.56389 0.0
H2119 H 0.53229 0.00294 0.5314 0.0
H2120 H 0.53131 0.00625 0.60358 0.0
H2121 H 0.57372 0.97992 0.53822 0.0
H2122 H 0.56501 0.98278 0.48113 0.0
H2123 H 0.57934 0.99736 0.514 0.0
H2124 H 0.54767 0.00108 0.35887 0.0
H2125 H 0.58222 0.03583 0.43939 0.0
H2126 H 0.52967 0.98317 0.47683 0.0
H2127 H 0.54067 0.97618 0.45962 0.0
H2128 H 0.53228 0.98048 0.4055 0.0
H2129 H 0.57168 0.02562 0.57476 0.0
H2130 H 0.587 0.03585 0.53309 0.0
H2131 H 0.58287 0.01882 0.5578 0.0
C2132 C 0.98747 0.53997 0.36697 0.0
C2133 C 0.97417 0.53862 0.36653 0.0
C2134 C 0.99543 0.54354 0.41558 0.0
C2135 C 0.98985 0.5456 0.46492 0.0
C2136 C 0.97625 0.5438 0.46503 0.0
C2137 C 0.96862 0.54043 0.41578 0.0
C2138 C 0.00997 0.54553 0.41379 0.0
C2139 C 0.96985 0.54572 0.51696 0.0
C2140 C 0.00617 0.54533 0.60249 0.0
C2141 C 0.01417 0.55965 0.61405 0.0
C2142 C -0.00176 0.54057 0.55393 0.0
C2143 C -0.00153 0.55038 0.51582 0.0
C2144 C 0.00665 0.56485 0.52702 0.0
C2145 C 0.01431 0.5693 0.57614 0.0
C2146 C 0.98948 0.52505 0.54368 0.0
C2147 C 0.00727 0.57565 0.48714 0.0
H2148 H 0.99183 0.5386 0.32901 0.0
H2149 H 0.95828 0.53927 0.41585 0.0
H2150 H 0.01773 0.55655 0.42364 0.0
H2151 H 0.01108 0.5389 0.44537 0.0
H2152 H 0.01255 0.54294 0.37279 0.0
H2153 H 0.95883 0.54305 0.51087 0.0
H2154 H 0.97022 0.53909 0.5505 0.0
H2155 H 0.97596 0.55673 0.53094 0.0
H2156 H 0.006 0.53781 0.63165 0.0
H2157 H 0.02055 0.5804 0.58455 0.0
H2158 H 0.99252 0.52232 0.50406 0.0
H2159 H 0.97831 0.52204 0.54022 0.0
H2160 H 0.99058 0.51879 0.57708 0.0
H2161 H 0.01069 0.57413 0.44598 0.0
H2162 H 0.01454 0.5865 0.50106 0.0
H2163 H 0.99672 0.57437 0.48212 0.0
C2164 C 0.44268 0.4235 0.3575 0.0
C2165 C 0.45533 0.42351 0.36255 0.0
C2166 C 0.43826 0.42935 0.39853 0.0
C2167 C 0.44668 0.43535 0.44575 0.0
C2168 C 0.45957 0.43562 0.45068 0.0
C2169 C 0.46375 0.42969 0.40897 0.0
C2170 C 0.42444 0.42887 0.39181 0.0
C2171 C 0.46883 0.44195 0.50048 0.0
C2172 C 0.43972 0.45971 0.53327 0.0
C2173 C 0.43142 0.45075 0.57558 0.0
C2174 C 0.44489 0.45489 0.49093 0.0
C2175 C 0.44167 0.44078 0.491 0.0
C2176 C 0.43339 0.43172 0.53376 0.0
C2177 C 0.42836 0.43681 0.57551 0.0
C2178 C 0.4537 0.46484 0.44592 0.0
C2179 C 0.42974 0.4166 0.53521 0.0
H2180 H 0.43613 0.41879 0.32166 0.0
H2181 H 0.47356 0.42978 0.41309 0.0
H2182 H 0.41722 0.42252 0.42532 0.0
H2183 H 0.42594 0.43955 0.39518 0.0
H2184 H 0.4194 0.42433 0.35161 0.0
H2185 H 0.47881 0.44187 0.49694 0.0
H2186 H 0.47124 0.45289 0.50627 0.0
H2187 H 0.46328 0.43606 0.53804 0.0
H2188 H 0.44215 0.4705 0.53308 0.0
H2189 H 0.42199 0.42981 0.60809 0.0
H2190 H 0.44852 0.46098 0.40543 0.0
H2191 H 0.46397 0.46536 0.44373 0.0
H2192 H 0.45549 0.47556 0.45247 0.0
H2193 H 0.42379 0.41114 0.49762 0.0
H2194 H 0.42339 0.41099 0.5719 0.0
H2195 H 0.43942 0.41591 0.53544 0.0
C2196 C 0.08547 0.32453 0.1716 0.0
C2197 C 0.09452 0.31926 0.16285 0.0
C2198 C 0.08716 0.33305 0.21727 0.0
C2199 C 0.09809 0.33627 0.25517 0.0
C2200 C 0.10724 0.33096 0.24658 0.0
C2201 C 0.10537 0.32256 0.20046 0.0
C2202 C 0.07726 0.3386 0.22499 0.0
C2203 C 0.11898 0.3341 0.28628 0.0
C2204 C 0.11219 0.3678 0.34958 0.0
C2205 C 0.10607 0.3616 0.40014 0.0
C2206 C 0.10924 0.35975 0.3015 0.0
C2207 C 0.10003 0.34515 0.30413 0.0
C2208 C 0.09342 0.3389 0.35456 0.0
C2209 C 0.09648 0.34722 0.40194 0.0
C2210 C 0.11639 0.3668 0.24833 0.0
C2211 C 0.08356 0.32335 0.35903 0.0
H2212 H 0.07707 0.32204 0.14268 0.0
H2213 H 0.11239 0.3185 0.19415 0.0
H2214 H 0.07171 0.33493 0.26492 0.0
H2215 H 0.08321 0.35018 0.22635 0.0
H2216 H 0.06938 0.33524 0.19147 0.0
H2217 H 0.12514 0.32911 0.27377 0.0
H2218 H 0.12614 0.34555 0.28908 0.0
H2219 H 0.11469 0.33036 0.32814 0.0
H2220 H 0.11955 0.37892 0.34775 0.0
H2221 H 0.09169 0.34233 0.44079 0.0
H2222 H 0.1086 0.36389 0.21478 0.0
H2223 H 0.12374 0.36321 0.2359 0.0
H2224 H 0.12233 0.37837 0.25213 0.0
H2225 H 0.07528 0.31984 0.32717 0.0
H2226 H 0.07852 0.32027 0.4002 0.0
H2227 H 0.08938 0.31774 0.35153 0.0
C2228 C 0.64627 0.75176 0.43777 0.0
C2229 C 0.65163 0.75002 0.48768 0.0
C2230 C 0.65406 0.75499 0.38889 0.0
C2231 C 0.66755 0.75648 0.38984 0.0
C2232 C 0.67287 0.75434 0.43969 0.0
C2233 C 0.66485 0.75114 0.48804 0.0
C2234 C 0.64802 0.75719 0.33655 0.0
C2235 C 0.68718 0.75579 0.44225 0.0
C2236 C 0.68381 0.75563 0.25275 0.0
C2237 C 0.69245 0.76992 0.24179 0.0
C2238 C 0.67576 0.75107 0.30113 0.0
C2239 C 0.67636 0.76104 0.33933 0.0
C2240 C 0.68517 0.77546 0.32876 0.0
C2241 C 0.69311 0.77972 0.28021 0.0
C2242 C 0.66651 0.7356 0.3111 0.0
C2243 C 0.68608 0.78642 0.36843 0.0
H2244 H 0.63605 0.75087 0.437 0.0
H2245 H 0.66907 0.74977 0.52632 0.0
H2246 H 0.65451 0.76817 0.32259 0.0
H2247 H 0.64819 0.7504 0.30323 0.0
H2248 H 0.63711 0.75494 0.34209 0.0
H2249 H 0.68945 0.75296 0.48335 0.0
H2250 H 0.68813 0.74905 0.41066 0.0
H2251 H 0.69526 0.76673 0.43294 0.0
H2252 H 0.68325 0.74799 0.22335 0.0
H2253 H 0.69975 0.79079 0.27218 0.0
H2254 H 0.65543 0.73297 0.31331 0.0
H2255 H 0.66913 0.73268 0.35124 0.0
H2256 H 0.66754 0.72919 0.27818 0.0
H2257 H 0.67566 0.78549 0.37296 0.0
H2258 H 0.69364 0.7972 0.35464 0.0
H2259 H 0.68927 0.78476 0.40979 0.0
C2260 C 0.24411 0.92069 0.24719 0.0
C2261 C 0.23181 0.92144 0.24593 0.0
C2262 C 0.24831 0.91681 0.29553 0.0
C2263 C 0.24001 0.91361 0.34364 0.0
C2264 C 0.22785 0.91481 0.3431 0.0
C2265 C 0.2239 0.9187 0.29431 0.0
C2266 C 0.26137 0.91568 0.29459 0.0
C2267 C 0.21873 0.9115 0.39358 0.0
C2268 C 0.24018 0.88824 0.44839 0.0
C2269 C 0.24831 0.89721 0.49101 0.0
C2270 C 0.23768 0.89349 0.39978 0.0
C2271 C 0.24345 0.90808 0.39349 0.0
C2272 C 0.25192 0.91723 0.43577 0.0
C2273 C 0.25426 0.91169 0.48408 0.0
C2274 C 0.22861 0.88338 0.3556 0.0
C2275 C 0.25825 0.93285 0.43044 0.0
H2276 H 0.25031 0.92282 0.21008 0.0
H2277 H 0.21442 0.91931 0.29386 0.0
H2278 H 0.26835 0.92169 0.32921 0.0
H2279 H 0.25854 0.90461 0.30015 0.0
H2280 H 0.26723 0.91955 0.25532 0.0
H2281 H 0.21011 0.91378 0.38738 0.0
H2282 H 0.21411 0.90028 0.40417 0.0
H2283 H 0.22507 0.91762 0.4294 0.0
H2284 H 0.23559 0.87704 0.45318 0.0
H2285 H 0.26059 0.91869 0.51671 0.0
H2286 H 0.23427 0.88606 0.31572 0.0
H2287 H 0.21908 0.88418 0.3497 0.0
H2288 H 0.22538 0.87238 0.36593 0.0
H2289 H 0.26437 0.93658 0.39173 0.0
H2290 H 0.26519 0.93858 0.46568 0.0
H2291 H 0.24983 0.93552 0.42816 0.0
C2292 C 0.33504 0.08427 0.50862 0.0
C2293 C 0.34856 0.09593 0.50945 0.0
C2294 C 0.32706 0.07945 0.55705 0.0
C2295 C 0.33273 0.08649 0.60742 0.0
C2296 C 0.34651 0.09801 0.60881 0.0
C2297 C 0.35426 0.10258 0.55985 0.0
C2298 C 0.31242 0.06709 0.55403 0.0
C2299 C 0.35291 0.1058 0.66172 0.0
C2300 C 0.30802 0.08532 0.71842 0.0
C2301 C 0.3081 0.07571 0.75598 0.0
C2302 C 0.31586 0.08877 0.66967 0.0
C2303 C 0.32396 0.08243 0.658 0.0
C2304 C 0.32395 0.07256 0.69526 0.0
C2305 C 0.31603 0.06933 0.74391 0.0
C2306 C 0.31562 0.09937 0.63104 0.0
C2307 C 0.33244 0.06557 0.68404 0.0
H2308 H 0.33057 0.07903 0.46994 0.0
H2309 H 0.36471 0.11157 0.56098 0.0
H2310 H 0.31104 0.05911 0.58495 0.0
H2311 H 0.30478 0.07049 0.56399 0.0
H2312 H 0.30992 0.06217 0.51257 0.0
H2313 H 0.36402 0.11403 0.65645 0.0
H2314 H 0.34697 0.1108 0.67669 0.0
H2315 H 0.35229 0.09844 0.69418 0.0
H2316 H 0.30194 0.09032 0.72732 0.0
H2317 H 0.31613 0.06188 0.77265 0.0
H2318 H 0.3122 0.09475 0.5894 0.0
H2319 H 0.3263 0.1085 0.62683 0.0
H2320 H 0.30853 0.10311 0.64559 0.0
H2321 H 0.32955 0.06025 0.64342 0.0
H2322 H 0.33092 0.05777 0.71616 0.0
H2323 H 0.3437 0.07354 0.68217 0.0
C2324 C 0.91516 0.23012 0.78401 0.0
C2325 C 0.91946 0.23817 0.8323 0.0
C2326 C 0.91212 0.23514 0.73601 0.0
C2327 C 0.9135 0.24858 0.73616 0.0
C2328 C 0.91838 0.257 0.78402 0.0
C2329 C 0.92126 0.25167 0.83165 0.0
C2330 C 0.9069 0.22584 0.68579 0.0
C2331 C 0.92011 0.27143 0.78549 0.0
C2332 C 0.91308 0.26347 0.59554 0.0
C2333 C 0.89899 0.25974 0.59086 0.0
C2334 C 0.91812 0.26037 0.6435 0.0
C2335 C 0.90882 0.25332 0.68751 0.0
C2336 C 0.8947 0.24996 0.68372 0.0
C2337 C 0.88997 0.25325 0.63556 0.0
C2338 C 0.93328 0.26422 0.64635 0.0
C2339 C 0.88444 0.24241 0.72974 0.0
H2340 H 0.91378 0.21969 0.78405 0.0
H2341 H 0.92467 0.25799 0.86867 0.0
H2342 H 0.89599 0.22312 0.67681 0.0
H2343 H 0.9133 0.23141 0.64924 0.0
H2344 H 0.90718 0.216 0.69137 0.0
H2345 H 0.92521 0.27712 0.82406 0.0
H2346 H 0.92642 0.27768 0.74982 0.0
H2347 H 0.90972 0.27063 0.78222 0.0
H2348 H 0.92013 0.26854 0.56129 0.0
H2349 H 0.87907 0.25036 0.63242 0.0
H2350 H 0.93404 0.25459 0.64676 0.0
H2351 H 0.93809 0.26997 0.68507 0.0
H2352 H 0.93941 0.27077 0.61086 0.0
H2353 H 0.88318 0.23187 0.73534 0.0
H2354 H 0.87401 0.24119 0.72147 0.0
H2355 H 0.88845 0.24813 0.76913 0.0
C2356 C 0.76854 0.69417 0.71174 0.0
C2357 C 0.76059 0.68985 0.76028 0.0
C2358 C 0.76384 0.68617 0.66344 0.0
C2359 C 0.75085 0.67356 0.6636 0.0
C2360 C 0.74242 0.66952 0.71154 0.0
C2361 C 0.74741 0.6777 0.75938 0.0
C2362 C 0.77312 0.69085 0.61309 0.0
C2363 C 0.72845 0.6562 0.71314 0.0
C2364 C 0.73626 0.65688 0.52425 0.0
C2365 C 0.7409 0.64718 0.52055 0.0
C2366 C 0.73907 0.6653 0.57125 0.0
C2367 C 0.74674 0.66403 0.61533 0.0
C2368 C 0.75112 0.654 0.6124 0.0
C2369 C 0.74813 0.64569 0.56515 0.0
C2370 C 0.73414 0.67581 0.57316 0.0
C2371 C 0.75934 0.65232 0.65857 0.0
H2372 H 0.77871 0.70358 0.71191 0.0
H2373 H 0.74115 0.67433 0.79658 0.0
H2374 H 0.77686 0.6834 0.60475 0.0
H2375 H 0.76716 0.69088 0.57637 0.0
H2376 H 0.78235 0.70145 0.6182 0.0
H2377 H 0.72252 0.65534 0.75129 0.0
H2378 H 0.72204 0.6556 0.67696 0.0
H2379 H 0.73007 0.64708 0.71105 0.0
H2380 H 0.73063 0.65806 0.49007 0.0
H2381 H 0.75173 0.63821 0.56279 0.0
H2382 H 0.74329 0.68654 0.57361 0.0
H2383 H 0.72816 0.6745 0.61157 0.0
H2384 H 0.72746 0.67482 0.5373 0.0
H2385 H 0.76943 0.66216 0.6639 0.0
H2386 H 0.76152 0.64369 0.65073 0.0
H2387 H 0.75353 0.65021 0.69796 0.0
C2388 C 0.89347 0.63779 0.65881 0.0
C2389 C 0.90091 0.64366 0.60994 0.0
C2390 C 0.89742 0.6453 0.70849 0.0
C2391 C 0.90908 0.659 0.70933 0.0
C2392 C 0.91695 0.66478 0.66066 0.0
C2393 C 0.91278 0.65703 0.61156 0.0
C2394 C 0.88879 0.63877 0.7596 0.0
C2395 C 0.92947 0.67935 0.65994 0.0
C2396 C 0.90927 0.68417 0.81601 0.0
C2397 C 0.91855 0.68428 0.85571 0.0
C2398 C 0.90612 0.67599 0.76832 0.0
C2399 C 0.9124 0.66768 0.75998 0.0
C2400 C 0.92177 0.66771 0.79981 0.0
C2401 C 0.92474 0.67602 0.84727 0.0
C2402 C 0.89607 0.67624 0.72679 0.0
C2403 C 0.92866 0.65898 0.79225 0.0
H2404 H 0.88433 0.62743 0.65805 0.0
H2405 H 0.91863 0.66164 0.57409 0.0
H2406 H 0.8956 0.63939 0.79434 0.0
H2407 H 0.88349 0.64462 0.772 0.0
H2408 H 0.88072 0.62765 0.75315 0.0
H2409 H 0.9351 0.6819 0.61992 0.0
H2410 H 0.92604 0.68707 0.66775 0.0
H2411 H 0.93686 0.68056 0.69326 0.0
H2412 H 0.90443 0.69052 0.82209 0.0
H2413 H 0.93193 0.67605 0.87771 0.0
H2414 H 0.88704 0.66556 0.72111 0.0
H2415 H 0.90129 0.67978 0.68619 0.0
H2416 H 0.89207 0.68326 0.73949 0.0
H2417 H 0.92058 0.6478 0.78838 0.0
H2418 H 0.93568 0.66015 0.82709 0.0
H2419 H 0.93483 0.66201 0.75356 0.0
C2420 C 0.31197 0.21126 0.79045 0.0
C2421 C 0.30711 0.21831 0.82369 0.0
C2422 C 0.31994 0.21756 0.74317 0.0
C2423 C 0.32328 0.23132 0.72909 0.0
C2424 C 0.31829 0.23846 0.76211 0.0
C2425 C 0.31018 0.23183 0.80892 0.0
C2426 C 0.32491 0.20953 0.70857 0.0
C2427 C 0.32175 0.25318 0.74856 0.0
C2428 C 0.35529 0.25014 0.63797 0.0
C2429 C 0.34924 0.24808 0.58552 0.0
C2430 C 0.34695 0.24536 0.68545 0.0
C2431 C 0.33222 0.23822 0.68023 0.0
C2432 C 0.32607 0.23666 0.62765 0.0
C2433 C 0.33466 0.24169 0.58093 0.0
C2434 C 0.35389 0.24739 0.74094 0.0
C2435 C 0.31041 0.22903 0.62039 0.0
H2436 H 0.30955 0.20078 0.80139 0.0
H2437 H 0.30649 0.23735 0.83456 0.0
H2438 H 0.32139 0.2089 0.66532 0.0
H2439 H 0.3365 0.21507 0.70813 0.0
H2440 H 0.32101 0.19875 0.72415 0.0
H2441 H 0.31678 0.25715 0.77764 0.0
H2442 H 0.33323 0.26026 0.7499 0.0
H2443 H 0.31827 0.25363 0.70612 0.0
H2444 H 0.36655 0.25517 0.64187 0.0
H2445 H 0.3299 0.24005 0.54055 0.0
H2446 H 0.35169 0.23713 0.75746 0.0
H2447 H 0.34959 0.25189 0.77072 0.0
H2448 H 0.3654 0.25436 0.73858 0.0
H2449 H 0.30605 0.21782 0.63061 0.0
H2450 H 0.3073 0.2298 0.57756 0.0
H2451 H 0.30558 0.23324 0.64898 0.0
C2452 C 0.77562 0.07756 0.73233 0.0
C2453 C 0.78153 0.08724 0.77544 0.0
C2454 C 0.77086 0.08089 0.68418 0.0
C2455 C 0.77204 0.0942 0.67915 0.0
C2456 C 0.77779 0.10392 0.7229 0.0
C2457 C 0.78247 0.10033 0.77047 0.0
C2458 C 0.76479 0.07027 0.63829 0.0
C2459 C 0.77923 0.11823 0.71905 0.0
C2460 C 0.7743 0.10955 0.53738 0.0
C2461 C 0.76082 0.10758 0.53071 0.0
C2462 C 0.77798 0.10499 0.58504 0.0
C2463 C 0.76795 0.09829 0.62716 0.0
C2464 C 0.75425 0.09606 0.62042 0.0
C2465 C 0.75084 0.10073 0.57219 0.0
C2466 C 0.79269 0.10756 0.59072 0.0
C2467 C 0.7433 0.08896 0.66456 0.0
H2468 H 0.77483 0.06741 0.73594 0.0
H2469 H 0.78697 0.10786 0.80365 0.0
H2470 H 0.75424 0.06834 0.62718 0.0
H2471 H 0.77142 0.07439 0.60097 0.0
H2472 H 0.764 0.06016 0.64967 0.0
H2473 H 0.78339 0.12435 0.75763 0.0
H2474 H 0.78637 0.12417 0.68467 0.0
H2475 H 0.76895 0.11726 0.7099 0.0
H2476 H 0.78207 0.11479 0.50548 0.0
H2477 H 0.74041 0.09915 0.56728 0.0
H2478 H 0.79249 0.09758 0.59876 0.0
H2479 H 0.7979 0.11452 0.62644 0.0
H2480 H 0.7991 0.11245 0.55331 0.0
H2481 H 0.74206 0.07861 0.67455 0.0
H2482 H 0.73298 0.08748 0.65199 0.0
H2483 H 0.74666 0.09528 0.70287 0.0
C2484 C 0.66763 0.92165 0.18131 0.0
C2485 C 0.67647 0.91605 0.17507 0.0
C2486 C 0.65943 0.91898 0.22896 0.0
C2487 C 0.6601 0.91049 0.27119 0.0
C2488 C 0.6692 0.90503 0.26551 0.0
C2489 C 0.67726 0.90787 0.21763 0.0
C2490 C 0.64987 0.92501 0.23371 0.0
C2491 C 0.67023 0.89593 0.30962 0.0
C2492 C 0.64785 0.91024 0.41763 0.0
C2493 C 0.63507 0.89763 0.41853 0.0
C2494 C 0.65585 0.91492 0.36919 0.0
C2495 C 0.65095 0.90679 0.32059 0.0
C2496 C 0.63777 0.89439 0.32062 0.0
C2497 C 0.62999 0.88997 0.36955 0.0
C2498 C 0.66983 0.92822 0.37069 0.0
C2499 C 0.63215 0.88545 0.26961 0.0
H2500 H 0.66698 0.928 0.14871 0.0
H2501 H 0.6841 0.90353 0.21337 0.0
H2502 H 0.63884 0.91643 0.23537 0.0
H2503 H 0.65201 0.93104 0.27256 0.0
H2504 H 0.65107 0.93196 0.19855 0.0
H2505 H 0.67812 0.89285 0.2996 0.0
H2506 H 0.67303 0.90151 0.34968 0.0
H2507 H 0.65994 0.88631 0.31497 0.0
H2508 H 0.65183 0.91626 0.45519 0.0
H2509 H 0.62009 0.88026 0.36971 0.0
H2510 H 0.67075 0.93512 0.33583 0.0
H2511 H 0.67831 0.92569 0.36607 0.0
H2512 H 0.67149 0.93405 0.40987 0.0
H2513 H 0.63247 0.89189 0.23397 0.0
H2514 H 0.62125 0.87678 0.27515 0.0
H2515 H 0.63883 0.8809 0.25919 0.0
C2516 C 0.10451 0.74651 0.35032 0.0
C2517 C 0.09855 0.74711 0.40059 0.0
C2518 C 0.1025 0.75234 0.30225 0.0
C2519 C 0.09441 0.75901 0.30458 0.0
C2520 C 0.08792 0.75916 0.35467 0.0
C2521 C 0.09003 0.75316 0.40204 0.0
C2522 C 0.10947 0.75184 0.24945 0.0
C2523 C 0.07926 0.76621 0.35884 0.0
C2524 C 0.10293 0.78809 0.20197 0.0
C2525 C 0.09205 0.78148 0.16365 0.0
C2526 C 0.10378 0.78088 0.24798 0.0
C2527 C 0.09356 0.76667 0.25572 0.0
C2528 C 0.08259 0.75989 0.21707 0.0
C2529 C 0.08193 0.7674 0.17155 0.0
C2530 C 0.1156 0.7885 0.28849 0.0
C2531 C 0.07156 0.74473 0.22381 0.0
H2532 H 0.11105 0.74178 0.34875 0.0
H2533 H 0.08537 0.75366 0.44066 0.0
H2534 H 0.10176 0.7477 0.21535 0.0
H2535 H 0.11765 0.76257 0.23777 0.0
H2536 H 0.11441 0.74526 0.25335 0.0
H2537 H 0.07413 0.76457 0.3997 0.0
H2538 H 0.08602 0.77761 0.352 0.0
H2539 H 0.07109 0.76222 0.32642 0.0
H2540 H 0.11077 0.79898 0.19632 0.0
H2541 H 0.0735 0.7622 0.14206 0.0
H2542 H 0.12185 0.7832 0.29146 0.0
H2543 H 0.11134 0.78826 0.33013 0.0
H2544 H 0.12266 0.79957 0.27662 0.0
H2545 H 0.07654 0.73816 0.22527 0.0
H2546 H 0.0638 0.74095 0.18978 0.0
H2547 H 0.06596 0.74322 0.26342 0.0
C2548 C 0.23422 0.32696 0.258 0.0
C2549 C 0.22472 0.31256 0.26014 0.0
C2550 C 0.23738 0.33531 0.30533 0.0
C2551 C 0.23097 0.32908 0.35606 0.0
C2552 C 0.22183 0.31446 0.35898 0.0
C2553 C 0.21877 0.30638 0.31093 0.0
C2554 C 0.24713 0.35087 0.30053 0.0
C2555 C 0.2149 0.30743 0.41246 0.0
C2556 C 0.24587 0.34978 0.48823 0.0
C2557 C 0.23673 0.35491 0.49784 0.0
C2558 C 0.24411 0.3413 0.44235 0.0
C2559 C 0.23302 0.33798 0.4051 0.0
C2560 C 0.22381 0.34317 0.4145 0.0
C2561 C 0.22575 0.35153 0.46083 0.0
C2562 C 0.25407 0.33586 0.43379 0.0
C2563 C 0.21192 0.33994 0.37549 0.0
H2564 H 0.23887 0.33183 0.21896 0.0
H2565 H 0.21149 0.29525 0.31302 0.0
H2566 H 0.24127 0.35643 0.30866 0.0
H2567 H 0.25554 0.35446 0.33183 0.0
H2568 H 0.25199 0.35396 0.25905 0.0
H2569 H 0.20899 0.29586 0.40879 0.0
H2570 H 0.22282 0.3104 0.44552 0.0
H2571 H 0.20756 0.31098 0.42553 0.0
H2572 H 0.25437 0.35233 0.51672 0.0
H2573 H 0.21867 0.35548 0.46779 0.0
H2574 H 0.25943 0.33949 0.39349 0.0
H2575 H 0.2482 0.32427 0.43275 0.0
H2576 H 0.2621 0.33933 0.46675 0.0
H2577 H 0.21604 0.34365 0.33342 0.0
H2578 H 0.20576 0.3449 0.38847 0.0
H2579 H 0.20479 0.32848 0.373 0.0
C2580 C 0.01106 0.414 0.87264 0.0
C2581 C 0.02109 0.42823 0.86872 0.0
C2582 C 0.00287 0.40858 0.92029 0.0
C2583 C 0.00473 0.41764 0.96477 0.0
C2584 C 0.01526 0.43187 0.96199 0.0
C2585 C 0.02334 0.43698 0.9141 0.0
C2586 C 0.99185 0.39331 0.92213 0.0
C2587 C 0.01756 0.44187 0.00858 0.0
C2588 C 0.97445 0.41025 0.05888 0.0
C2589 C 0.97811 0.40594 0.10734 0.0
C2590 C 0.98281 0.41364 0.01157 0.0
C2591 C 0.99506 0.41259 0.01262 0.0
C2592 C -0.0015 0.40769 0.06061 0.0
C2593 C 0.99001 0.40447 0.10755 0.0
C2594 C 0.97881 0.41889 0.96118 0.0
C2595 C 0.0114 0.4063 0.063 0.0
H2596 H 0.0093 0.40715 0.83788 0.0
H2597 H 0.03112 0.44797 0.91162 0.0
H2598 H 0.99266 0.38849 0.96103 0.0
H2599 H 0.98133 0.39225 0.92129 0.0
H2600 H 0.99271 0.38739 0.88681 0.0
H2601 H 0.02673 0.45241 0.00132 0.0
H2602 H 0.00816 0.44294 0.01358 0.0
H2603 H 0.01914 0.43774 0.04794 0.0
H2604 H 0.96526 0.41137 0.0583 0.0
H2605 H 0.99285 0.40105 0.14472 0.0
H2606 H 0.97832 0.41268 0.92446 0.0
H2607 H 0.9869 0.42989 0.95298 0.0
H2608 H 0.96857 0.41836 0.96604 0.0
H2609 H 0.01172 0.40025 0.02711 0.0
H2610 H 0.01189 0.4011 0.10142 0.0
H2611 H 0.02086 0.41681 0.06083 0.0
C2612 C 0.55488 0.54919 0.11249 0.0
C2613 C 0.56811 0.5504 0.11599 0.0
C2614 C 0.55079 0.55356 0.06532 0.0
C2615 C 0.56015 0.55924 0.02041 0.0
C2616 C 0.5736 0.56069 0.02391 0.0
C2617 C 0.57744 0.55628 0.07175 0.0
C2618 C 0.53637 0.55187 0.0632 0.0
C2619 C 0.58383 0.56667 0.97671 0.0
C2620 C 0.54399 0.55643 0.87975 0.0
C2621 C 0.546 0.56991 0.87249 0.0
C2622 C 0.54871 0.5529 0.92738 0.0
C2623 C 0.55557 0.56307 0.96892 0.0
C2624 C 0.5577 0.57671 0.96184 0.0
C2625 C 0.5529 0.57998 0.91362 0.0
C2626 C 0.54626 0.53824 0.93342 0.0
C2627 C 0.56493 0.5878 0.00541 0.0
H2628 H 0.54762 0.54472 0.14656 0.0
H2629 H 0.58769 0.55726 0.07416 0.0
H2630 H 0.5371 0.56204 0.05388 0.0
H2631 H 0.53023 0.54455 0.0296 0.0
H2632 H 0.53057 0.54781 0.10252 0.0
H2633 H 0.59407 0.56761 0.98677 0.0
H2634 H 0.57947 0.55989 0.93989 0.0
H2635 H 0.58556 0.57714 0.96544 0.0
H2636 H 0.53871 0.54859 0.84814 0.0
H2637 H 0.55449 0.59042 0.9083 0.0
H2638 H 0.53965 0.53316 0.97012 0.0
H2639 H 0.55634 0.53854 0.94001 0.0
H2640 H 0.54105 0.53166 0.89672 0.0
H2641 H 0.55895 0.58438 0.04453 0.0
H2642 H 0.56602 0.59798 0.99311 0.0
H2643 H 0.57547 0.58934 0.01382 0.0
C2644 C 0.44608 0.00789 0.08289 0.0
C2645 C 0.44013 0.01367 0.11746 0.0
C2646 C 0.43891 5e-05 0.03644 0.0
C2647 C 0.4254 0.99781 0.02456 0.0
C2648 C 0.4193 0.00357 0.05933 0.0
C2649 C 0.42678 0.01151 0.1053 0.0
C2650 C 0.44582 0.99417 -0.0 0.0
C2651 C 0.40487 0.00128 0.04816 0.0
C2652 C 0.41414 0.98778 0.87631 0.0
C2653 C 0.40691 0.97315 0.8795 0.0
C2654 C 0.41966 0.996 0.92372 0.0
C2655 C 0.41778 0.98941 0.97553 0.0
C2656 C 0.4097 0.97469 0.97947 0.0
C2657 C 0.40441 0.96672 0.93133 0.0
C2658 C 0.42825 0.01168 0.91786 0.0
C2659 C 0.4073 0.9673 0.03415 0.0
H2660 H 0.4564 0.00956 0.09191 0.0
H2661 H 0.4221 0.0159 0.13202 0.0
H2662 H 0.43936 0.98261 0.99859 0.0
H2663 H 0.44663 0.99805 0.95723 0.0
H2664 H 0.45645 0.99703 0.01458 0.0
H2665 H 0.4016 0.00645 0.07929 0.0
H2666 H 0.40453 0.00537 0.00679 0.0
H2667 H 0.39716 0.98993 0.04806 0.0
H2668 H 0.41608 0.99285 0.83645 0.0
H2669 H 0.39873 0.95542 0.93418 0.0
H2670 H 0.43937 0.01519 0.92678 0.0
H2671 H 0.4248 0.01688 0.94803 0.0
H2672 H 0.42755 0.01524 0.87576 0.0
H2673 H 0.41727 0.96838 0.04918 0.0
H2674 H 0.39947 0.956 0.03109 0.0
H2675 H 0.4037 0.97213 0.06543 0.0
C2676 C 0.57756 0.99477 0.90111 0.0
C2677 C 0.56529 0.98169 0.89956 0.0
C2678 C 0.58185 0.00268 0.94982 0.0
C2679 C 0.57366 0.99739 0.99811 0.0
C2680 C 0.56148 0.98405 0.99722 0.0
C2681 C 0.55744 0.97635 0.94798 0.0
C2682 C 0.59494 0.01684 0.94921 0.0
C2683 C 0.55248 0.97806 0.04791 0.0
C2684 C 0.58966 0.01352 0.13675 0.0
C2685 C 0.58443 0.02262 0.14517 0.0
C2686 C 0.58629 0.00527 0.08899 0.0
C2687 C 0.57747 0.00612 0.0488 0.0
C2688 C 0.57219 0.0153 0.057 0.0
C2689 C 0.57574 0.02345 0.105 0.0
C2690 C 0.59215 0.99561 0.08157 0.0
C2691 C 0.56273 0.0165 0.01512 0.0
H2692 H 0.58371 -0.00103 0.86398 0.0
H2693 H 0.54796 0.96625 0.94724 0.0
H2694 H 0.59222 0.02508 0.95723 0.0
H2695 H 0.60213 0.01751 0.98248 0.0
H2696 H 0.60055 0.01911 0.9092 0.0
H2697 H 0.54373 0.96725 0.04116 0.0
H2698 H 0.55888 0.97798 0.08296 0.0
H2699 H 0.54806 0.98474 0.06004 0.0
H2700 H 0.59639 0.01282 0.16752 0.0
H2701 H 0.57164 0.03044 0.11111 0.0
H2702 H 0.59831 0.99823 0.04291 0.0
H2703 H 0.58349 0.98466 0.07776 0.0
H2704 H 0.59895 0.99625 0.11646 0.0
H2705 H 0.5681 0.01974 0.97468 0.0
H2706 H 0.55953 0.02417 0.02764 0.0
H2707 H 0.55319 0.00618 0.0092 0.0
C2708 C 0.01378 0.58328 0.90457 0.0
C2709 C 0.01542 0.57212 0.88656 0.0
C2710 C 0.00623 0.58217 0.95275 0.0
C2711 C 0.00034 0.56967 0.98387 0.0
C2712 C 0.00208 0.55843 0.96613 0.0
C2713 C 0.00953 0.55977 0.91758 0.0
C2714 C 0.00446 0.59431 0.97012 0.0
C2715 C 0.99606 0.54497 0.99846 0.0
C2716 C 0.99099 0.56852 0.13503 0.0
C2717 C 0.97636 0.56162 0.13274 0.0
C2718 C -0.001 0.57176 0.08668 0.0
C2719 C 0.99221 0.56816 0.03485 0.0
C2720 C 0.9775 0.56195 0.0322 0.0
C2721 C 0.96974 0.55868 0.08119 0.0
C2722 C 0.01466 0.57829 0.09125 0.0
C2723 C 0.96989 0.55815 0.97769 0.0
H2724 H 0.01828 0.59285 0.88071 0.0
H2725 H 0.01081 0.55112 0.90414 0.0
H2726 H 0.99319 0.59098 0.97198 0.0
H2727 H 0.00879 0.59783 0.01207 0.0
H2728 H 0.00972 0.60332 0.94145 0.0
H2729 H -0.00139 0.53734 0.97968 0.0
H2730 H 0.00014 0.54714 0.04126 0.0
H2731 H 0.98454 0.54008 0.00096 0.0
H2732 H 0.99619 0.57082 0.17469 0.0
H2733 H 0.95844 0.55345 0.07909 0.0
H2734 H 0.01999 0.5875 0.06371 0.0
H2735 H 0.01779 0.57065 0.07782 0.0
H2736 H 0.01844 0.58161 0.13405 0.0
H2737 H 0.97475 0.56716 0.94895 0.0
H2738 H 0.95865 0.55483 0.9824 0.0
H2739 H 0.9707 0.54948 0.95845 0.0
C2740 C 0.43589 0.40494 0.04827 0.0
C2741 C 0.43153 0.4071 0.0998 0.0
C2742 C 0.43307 0.41005 -0.0001 0.0
C2743 C 0.4259 0.41763 0.00337 0.0
C2744 C 0.42083 0.4192 0.05488 0.0
C2745 C 0.42363 0.41383 0.10246 0.0
C2746 C 0.43842 0.40797 0.94552 0.0
C2747 C 0.41321 0.42729 0.0603 0.0
C2748 C 0.43486 0.44589 0.89659 0.0
C2749 C 0.42314 0.43966 0.86202 0.0
C2750 C 0.43583 0.43882 0.94277 0.0
C2751 C 0.4249 0.4251 0.95425 0.0
C2752 C 0.41307 0.4187 0.91934 0.0
C2753 C 0.41229 0.4261 0.87377 0.0
C2754 C 0.44854 0.44607 0.97947 0.0
C2755 C 0.40131 0.40402 0.93 0.0
H2756 H 0.44189 0.39965 0.04585 0.0
H2757 H 0.4202 0.41552 0.14209 0.0
H2758 H 0.43007 0.40414 0.91384 0.0
H2759 H 0.44712 0.41812 0.93084 0.0
H2760 H 0.44228 0.40045 0.94884 0.0
H2761 H 0.40884 0.42645 0.10227 0.0
H2762 H 0.42052 0.43849 0.05132 0.0
H2763 H 0.40458 0.42353 0.02995 0.0
H2764 H 0.44325 0.45639 0.88788 0.0
H2765 H 0.40323 0.4212 0.84699 0.0
H2766 H 0.45401 0.43996 0.98096 0.0
H2767 H 0.4453 0.44669 0.02219 0.0
H2768 H 0.45604 0.45681 0.9651 0.0
H2769 H 0.4054 0.39668 0.93047 0.0
H2770 H 0.39294 0.40046 0.89842 0.0
H2771 H 0.39665 0.40344 0.9711 0.0
loop_
_geom_bond_atom_site_label_1
_geom_bond_atom_site_label_2
_geom_bond_distance
_geom_bond_site_symmetry_2
_ccdc_geom_bond_type
C0 O1 1.160 . S
C0 O7 1.185 . S
O1 C0 1.160 . S
O2 Zn3 1.899 . S
O2 C10 1.284 . S
Zn3 O2 1.899 . S
Zn3 O4 2.032 . S
Zn3 O7 2.086 . S
Zn3 O12 1.977 . S
O4 Zn3 2.032 . S
O4 C8 1.278 1_554 S
C5 O6 1.203 . S
C5 O12 1.267 . S
O6 C5 1.203 . S
O7 C0 1.185 . S
O7 Zn3 2.086 . S
C8 O4 1.278 1_556 S
C8 O9 1.211 . S
O9 C8 1.211 . S
C10 O2 1.284 . S
C10 O11 1.273 . S
O11 C10 1.273 . S
O12 Zn3 1.977 . S
O12 C5 1.267 . S
C13 O14 1.160 . S
C13 O20 1.185 . S
O14 C13 1.160 . S
O15 Zn16 1.899 . S
O15 C23 1.284 . S
Zn16 O15 1.899 . S
Zn16 O17 2.032 . S
Zn16 O20 2.086 . S
Zn16 O25 1.977 . S
O17 Zn16 2.032 . S
O17 C21 1.278 1_554 S
C18 O19 1.203 . S
C18 O25 1.267 . S
O19 C18 1.203 . S
O20 C13 1.185 . S
O20 Zn16 2.086 . S
C21 O17 1.278 1_556 S
C21 O22 1.211 . S
O22 C21 1.211 . S
C23 O15 1.284 . S
C23 O24 1.273 . S
O24 C23 1.273 . S
O25 Zn16 1.977 . S
O25 C18 1.267 . S
C26 O27 1.160 . S
C26 O33 1.185 . S
O27 C26 1.160 . S
O28 Zn29 1.899 . S
O28 C36 1.284 . S
Zn29 O28 1.899 . S
Zn29 O30 2.032 . S
Zn29 O33 2.086 . S
Zn29 O38 1.977 . S
O30 Zn29 2.032 . S
O30 C34 1.278 1_554 S
C31 O32 1.203 . S
C31 O38 1.267 . S
O32 C31 1.203 . S
O33 C26 1.185 . S
O33 Zn29 2.086 . S
C34 O30 1.278 1_556 S
C34 O35 1.211 . S
O35 C34 1.211 . S
C36 O28 1.284 . S
C36 O37 1.273 . S
O37 C36 1.273 . S
O38 Zn29 1.977 . S
O38 C31 1.267 . S
C39 O40 1.160 . S
C39 O46 1.185 . S
O40 C39 1.160 . S
O41 Zn42 1.899 . S
O41 C49 1.284 . S
Zn42 O41 1.899 . S
Zn42 O43 2.032 . S
Zn42 O46 2.086 . S
Zn42 O51 1.977 . S
O43 Zn42 2.032 . S
O43 C47 1.278 1_556 S
C44 O45 1.203 . S
C44 O51 1.267 . S
O45 C44 1.203 . S
O46 C39 1.185 . S
O46 Zn42 2.086 . S
C47 O43 1.278 1_554 S
C47 O48 1.211 . S
O48 C47 1.211 . S
C49 O41 1.284 . S
C49 O50 1.273 . S
O50 C49 1.273 . S
O51 Zn42 1.977 . S
O51 C44 1.267 . S
C52 O53 1.160 . S
C52 O59 1.185 . S
O53 C52 1.160 . S
O54 Zn55 1.899 . S
O54 C62 1.284 . S
Zn55 O54 1.899 . S
Zn55 O56 2.032 . S
Zn55 O59 2.086 . S
Zn55 O64 1.977 . S
O56 Zn55 2.032 . S
O56 C60 1.278 1_556 S
C57 O58 1.203 . S
C57 O64 1.267 . S
O58 C57 1.203 . S
O59 C52 1.185 . S
O59 Zn55 2.086 . S
C60 O56 1.278 1_554 S
C60 O61 1.211 . S
O61 C60 1.211 . S
C62 O54 1.284 . S
C62 O63 1.273 . S
O63 C62 1.273 . S
O64 Zn55 1.977 . S
O64 C57 1.267 . S
C65 O66 1.160 . S
C65 O72 1.185 . S
O66 C65 1.160 . S
O67 Zn68 1.899 . S
O67 C75 1.284 . S
Zn68 O67 1.899 . S
Zn68 O69 2.032 . S
Zn68 O72 2.086 . S
Zn68 O77 1.977 . S
O69 Zn68 2.032 . S
O69 C73 1.278 1_556 S
C70 O71 1.203 . S
C70 O77 1.267 . S
O71 C70 1.203 . S
O72 C65 1.185 . S
O72 Zn68 2.086 . S
C73 O69 1.278 1_554 S
C73 O74 1.211 . S
O74 C73 1.211 . S
C75 O67 1.284 . S
C75 O76 1.273 . S
O76 C75 1.273 . S
O77 Zn68 1.977 . S
O77 C70 1.267 . S
C78 O79 1.160 . S
C78 O85 1.185 . S
O79 C78 1.160 . S
O80 Zn81 1.899 . S
O80 C88 1.284 . S
Zn81 O80 1.899 . S
Zn81 O82 2.032 . S
Zn81 O85 2.086 . S
Zn81 O90 1.977 . S
O82 Zn81 2.032 . S
O82 C86 1.278 1_556 S
C83 O84 1.203 . S
C83 O90 1.267 . S
O84 C83 1.203 . S
O85 C78 1.185 . S
O85 Zn81 2.086 . S
C86 O82 1.278 1_554 S
C86 O87 1.211 . S
O87 C86 1.211 . S
C88 O80 1.284 . S
C88 O89 1.273 . S
O89 C88 1.273 . S
O90 Zn81 1.977 . S
O90 C83 1.267 . S
C91 O92 1.160 . S
C91 O98 1.185 . S
O92 C91 1.160 . S
O93 Zn94 1.899 . S
O93 C101 1.284 . S
Zn94 O93 1.899 . S
Zn94 O95 2.032 . S
Zn94 O98 2.086 . S
Zn94 O103 1.977 . S
O95 Zn94 2.032 . S
O95 C99 1.278 1_556 S
C96 O97 1.203 . S
C96 O103 1.267 . S
O97 C96 1.203 . S
O98 C91 1.185 . S
O98 Zn94 2.086 . S
C99 O95 1.278 1_554 S
C99 O100 1.211 . S
O100 C99 1.211 . S
C101 O93 1.284 . S
C101 O102 1.273 . S
O102 C101 1.273 . S
O103 Zn94 1.977 . S
O103 C96 1.267 . S
C104 O105 1.160 . S
C104 O111 1.185 . S
O105 C104 1.160 . S
O106 Zn107 1.899 . S
O106 C114 1.284 . S
Zn107 O106 1.899 . S
Zn107 O108 2.032 . S
Zn107 O111 2.086 . S
Zn107 O116 1.977 . S
O108 Zn107 2.032 . S
O108 C112 1.278 1_556 S
C109 O110 1.203 . S
C109 O116 1.267 . S
O110 C109 1.203 . S
O111 C104 1.185 . S
O111 Zn107 2.086 . S
C112 O108 1.278 1_554 S
C112 O113 1.211 . S
O113 C112 1.211 . S
C114 O106 1.284 . S
C114 O115 1.273 . S
O115 C114 1.273 . S
O116 Zn107 1.977 . S
O116 C109 1.267 . S
C117 O118 1.160 . S
C117 O124 1.185 . S
O118 C117 1.160 . S
O119 Zn120 1.899 . S
O119 C127 1.284 . S
Zn120 O119 1.899 . S
Zn120 O121 2.032 . S
Zn120 O124 2.086 . S
Zn120 O129 1.977 . S
O121 Zn120 2.032 . S
O121 C125 1.278 1_554 S
C122 O123 1.203 . S
C122 O129 1.267 . S
O123 C122 1.203 . S
O124 C117 1.185 . S
O124 Zn120 2.086 . S
C125 O121 1.278 1_556 S
C125 O126 1.211 . S
O126 C125 1.211 . S
C127 O119 1.284 . S
C127 O128 1.273 . S
O128 C127 1.273 . S
O129 Zn120 1.977 . S
O129 C122 1.267 . S
C130 O131 1.160 . S
C130 O137 1.185 . S
O131 C130 1.160 . S
O132 Zn133 1.899 . S
O132 C140 1.284 . S
Zn133 O132 1.899 . S
Zn133 O134 2.032 . S
Zn133 O137 2.086 . S
Zn133 O142 1.977 . S
O134 Zn133 2.032 . S
O134 C138 1.278 1_554 S
C135 O136 1.203 . S
C135 O142 1.267 . S
O136 C135 1.203 . S
O137 C130 1.185 . S
O137 Zn133 2.086 . S
C138 O134 1.278 1_556 S
C138 O139 1.211 . S
O139 C138 1.211 . S
C140 O132 1.284 . S
C140 O141 1.273 . S
O141 C140 1.273 . S
O142 Zn133 1.977 . S
O142 C135 1.267 . S
C143 O144 1.160 . S
C143 O150 1.185 . S
O144 C143 1.160 . S
O145 Zn146 1.899 . S
O145 C153 1.284 . S
Zn146 O145 1.899 . S
Zn146 O147 2.032 . S
Zn146 O150 2.086 . S
Zn146 O155 1.977 . S
O147 Zn146 2.032 . S
O147 C151 1.278 1_554 S
C148 O149 1.203 . S
C148 O155 1.267 . S
O149 C148 1.203 . S
O150 C143 1.185 . S
O150 Zn146 2.086 . S
C151 O147 1.278 1_556 S
C151 O152 1.211 . S
O152 C151 1.211 . S
C153 O145 1.284 . S
C153 O154 1.273 . S
O154 C153 1.273 . S
O155 Zn146 1.977 . S
O155 C148 1.267 . S
C156 O157 1.160 . S
C156 O163 1.185 . S
O157 C156 1.160 . S
O158 Zn159 1.899 . S
O158 C166 1.284 . S
Zn159 O158 1.899 . S
Zn159 O160 2.032 . S
Zn159 O163 2.086 . S
Zn159 O168 1.977 . S
O160 Zn159 2.032 . S
O160 C164 1.278 . S
C161 O162 1.203 . S
C161 O168 1.267 . S
O162 C161 1.203 . S
O163 C156 1.185 . S
O163 Zn159 2.086 . S
C164 O160 1.278 . S
C164 O165 1.211 . S
O165 C164 1.211 . S
C166 O158 1.284 . S
C166 O167 1.273 . S
O167 C166 1.273 . S
O168 Zn159 1.977 . S
O168 C161 1.267 . S
C169 O170 1.160 . S
C169 O176 1.185 . S
O170 C169 1.160 . S
O171 Zn172 1.899 . S
O171 C179 1.284 . S
Zn172 O171 1.899 . S
Zn172 O173 2.032 . S
Zn172 O176 2.086 . S
Zn172 O181 1.977 . S
O173 Zn172 2.032 . S
O173 C177 1.278 . S
C174 O175 1.203 . S
C174 O181 1.267 . S
O175 C174 1.203 . S
O176 C169 1.185 . S
O176 Zn172 2.086 . S
C177 O173 1.278 . S
C177 O178 1.211 . S
O178 C177 1.211 . S
C179 O171 1.284 . S
C179 O180 1.273 . S
O180 C179 1.273 . S
O181 Zn172 1.977 . S
O181 C174 1.267 . S
C182 O183 1.160 . S
C182 O189 1.185 . S
O183 C182 1.160 . S
O184 Zn185 1.899 . S
O184 C192 1.284 . S
Zn185 O184 1.899 . S
Zn185 O186 2.032 . S
Zn185 O189 2.086 . S
Zn185 O194 1.977 . S
O186 Zn185 2.032 . S
O186 C190 1.278 . S
C187 O188 1.203 . S
C187 O194 1.267 . S
O188 C187 1.203 . S
O189 C182 1.185 . S
O189 Zn185 2.086 . S
C190 O186 1.278 . S
C190 O191 1.211 . S
O191 C190 1.211 . S
C192 O184 1.284 . S
C192 O193 1.273 . S
O193 C192 1.273 . S
O194 Zn185 1.977 . S
O194 C187 1.267 . S
C195 O196 1.160 . S
C195 O202 1.185 . S
O196 C195 1.160 . S
O197 Zn198 1.899 . S
O197 C205 1.284 . S
Zn198 O197 1.899 . S
Zn198 O199 2.032 . S
Zn198 O202 2.086 . S
Zn198 O207 1.977 . S
O199 Zn198 2.032 . S
O199 C203 1.278 . S
C200 O201 1.203 . S
C200 O207 1.267 . S
O201 C200 1.203 . S
O202 C195 1.185 . S
O202 Zn198 2.086 . S
C203 O199 1.278 . S
C203 O204 1.211 . S
O204 C203 1.211 . S
C205 O197 1.284 . S
C205 O206 1.273 . S
O206 C205 1.273 . S
O207 Zn198 1.977 . S
O207 C200 1.267 . S
C208 O209 1.160 . S
C208 O215 1.185 . S
O209 C208 1.160 . S
O210 Zn211 1.899 . S
O210 C218 1.284 . S
Zn211 O210 1.899 . S
Zn211 O212 2.032 . S
Zn211 O215 2.086 . S
Zn211 O220 1.977 . S
O212 Zn211 2.032 . S
O212 C216 1.278 . S
C213 O214 1.203 . S
C213 O220 1.267 . S
O214 C213 1.203 . S
O215 C208 1.185 . S
O215 Zn211 2.086 . S
C216 O212 1.278 . S
C216 O217 1.211 . S
O217 C216 1.211 . S
C218 O210 1.284 . S
C218 O219 1.273 . S
O219 C218 1.273 . S
O220 Zn211 1.977 . S
O220 C213 1.267 . S
C221 O222 1.160 . S
C221 O228 1.185 . S
O222 C221 1.160 . S
O223 Zn224 1.899 . S
O223 C231 1.284 . S
Zn224 O223 1.899 . S
Zn224 O225 2.032 . S
Zn224 O228 2.086 . S
Zn224 O233 1.977 . S
O225 Zn224 2.032 . S
O225 C229 1.278 . S
C226 O227 1.203 . S
C226 O233 1.267 . S
O227 C226 1.203 . S
O228 C221 1.185 . S
O228 Zn224 2.086 . S
C229 O225 1.278 . S
C229 O230 1.211 . S
O230 C229 1.211 . S
C231 O223 1.284 . S
C231 O232 1.273 . S
O232 C231 1.273 . S
O233 Zn224 1.977 . S
O233 C226 1.267 . S
C234 O235 1.160 . S
C234 O241 1.185 . S
O235 C234 1.160 . S
O236 Zn237 1.899 . S
O236 C244 1.284 . S
Zn237 O236 1.899 . S
Zn237 O238 2.032 . S
Zn237 O241 2.086 . S
Zn237 O246 1.977 . S
O238 Zn237 2.032 . S
O238 C242 1.278 . S
C239 O240 1.203 . S
C239 O246 1.267 . S
O240 C239 1.203 . S
O241 C234 1.185 . S
O241 Zn237 2.086 . S
C242 O238 1.278 . S
C242 O243 1.211 . S
O243 C242 1.211 . S
C244 O236 1.284 . S
C244 O245 1.273 . S
O245 C244 1.273 . S
O246 Zn237 1.977 . S
O246 C239 1.267 . S
C247 O248 1.160 . S
C247 O254 1.185 . S
O248 C247 1.160 . S
O249 Zn250 1.899 . S
O249 C257 1.284 . S
Zn250 O249 1.899 . S
Zn250 O251 2.032 . S
Zn250 O254 2.086 . S
Zn250 O259 1.977 . S
O251 Zn250 2.032 . S
O251 C255 1.278 . S
C252 O253 1.203 . S
C252 O259 1.267 . S
O253 C252 1.203 . S
O254 C247 1.185 . S
O254 Zn250 2.086 . S
C255 O251 1.278 . S
C255 O256 1.211 . S
O256 C255 1.211 . S
C257 O249 1.284 . S
C257 O258 1.273 . S
O258 C257 1.273 . S
O259 Zn250 1.977 . S
O259 C252 1.267 . S
C260 O261 1.160 . S
C260 O267 1.185 . S
O261 C260 1.160 . S
O262 Zn263 1.899 . S
O262 C270 1.284 . S
Zn263 O262 1.899 . S
Zn263 O264 2.032 . S
Zn263 O267 2.086 . S
Zn263 O272 1.977 . S
O264 Zn263 2.032 . S
O264 C268 1.278 . S
C265 O266 1.203 . S
C265 O272 1.267 . S
O266 C265 1.203 . S
O267 C260 1.185 . S
O267 Zn263 2.086 . S
C268 O264 1.278 . S
C268 O269 1.211 . S
O269 C268 1.211 . S
C270 O262 1.284 . S
C270 O271 1.273 . S
O271 C270 1.273 . S
O272 Zn263 1.977 . S
O272 C265 1.267 . S
C273 O274 1.160 . S
C273 O280 1.185 . S
O274 C273 1.160 . S
O275 Zn276 1.899 . S
O275 C283 1.284 . S
Zn276 O275 1.899 . S
Zn276 O277 2.032 . S
Zn276 O280 2.086 . S
Zn276 O285 1.977 . S
O277 Zn276 2.032 . S
O277 C281 1.278 . S
C278 O279 1.203 . S
C278 O285 1.267 . S
O279 C278 1.203 . S
O280 C273 1.185 . S
O280 Zn276 2.086 . S
C281 O277 1.278 . S
C281 O282 1.211 . S
O282 C281 1.211 . S
C283 O275 1.284 . S
C283 O284 1.273 . S
O284 C283 1.273 . S
O285 Zn276 1.977 . S
O285 C278 1.267 . S
C286 O287 1.160 . S
C286 O293 1.185 . S
O287 C286 1.160 . S
O288 Zn289 1.899 . S
O288 C296 1.284 . S
Zn289 O288 1.899 . S
Zn289 O290 2.032 . S
Zn289 O293 2.086 . S
Zn289 O298 1.977 . S
O290 Zn289 2.032 . S
O290 C294 1.278 . S
C291 O292 1.203 . S
C291 O298 1.267 . S
O292 C291 1.203 . S
O293 C286 1.185 . S
O293 Zn289 2.086 . S
C294 O290 1.278 . S
C294 O295 1.211 . S
O295 C294 1.211 . S
C296 O288 1.284 . S
C296 O297 1.273 . S
O297 C296 1.273 . S
O298 Zn289 1.977 . S
O298 C291 1.267 . S
C299 O300 1.160 . S
C299 O306 1.185 . S
O300 C299 1.160 . S
O301 Zn302 1.899 . S
O301 C309 1.284 . S
Zn302 O301 1.899 . S
Zn302 O303 2.032 . S
Zn302 O306 2.086 . S
Zn302 O311 1.977 . S
O303 Zn302 2.032 . S
O303 C307 1.278 . S
C304 O305 1.203 . S
C304 O311 1.267 . S
O305 C304 1.203 . S
O306 C299 1.185 . S
O306 Zn302 2.086 . S
C307 O303 1.278 . S
C307 O308 1.211 . S
O308 C307 1.211 . S
C309 O301 1.284 . S
C309 O310 1.273 . S
O310 C309 1.273 . S
O311 Zn302 1.977 . S
O311 C304 1.267 . S
C312 O313 1.160 . S
C312 O319 1.185 . S
O313 C312 1.160 . S
O314 Zn315 1.899 . S
O314 C322 1.284 . S
Zn315 O314 1.899 . S
Zn315 O316 2.032 . S
Zn315 O319 2.086 . S
Zn315 O324 1.977 . S
O316 Zn315 2.032 . S
O316 C320 1.278 . S
C317 O318 1.203 . S
C317 O324 1.267 . S
O318 C317 1.203 . S
O319 C312 1.185 . S
O319 Zn315 2.086 . S
C320 O316 1.278 . S
C320 O321 1.211 . S
O321 C320 1.211 . S
C322 O314 1.284 . S
C322 O323 1.273 . S
O323 C322 1.273 . S
O324 Zn315 1.977 . S
O324 C317 1.267 . S
C325 O326 1.160 . S
C325 O332 1.185 . S
O326 C325 1.160 . S
O327 Zn328 1.899 . S
O327 C335 1.284 . S
Zn328 O327 1.899 . S
Zn328 O329 2.032 . S
Zn328 O332 2.086 . S
Zn328 O337 1.977 . S
O329 Zn328 2.032 . S
O329 C333 1.278 . S
C330 O331 1.203 . S
C330 O337 1.267 . S
O331 C330 1.203 . S
O332 C325 1.185 . S
O332 Zn328 2.086 . S
C333 O329 1.278 . S
C333 O334 1.211 . S
O334 C333 1.211 . S
C335 O327 1.284 . S
C335 O336 1.273 . S
O336 C335 1.273 . S
O337 Zn328 1.977 . S
O337 C330 1.267 . S
C338 O339 1.160 . S
C338 O345 1.185 . S
O339 C338 1.160 . S
O340 Zn341 1.899 . S
O340 C348 1.284 . S
Zn341 O340 1.899 . S
Zn341 O342 2.032 . S
Zn341 O345 2.086 . S
Zn341 O350 1.977 . S
O342 Zn341 2.032 . S
O342 C346 1.278 . S
C343 O344 1.203 . S
C343 O350 1.267 . S
O344 C343 1.203 . S
O345 C338 1.185 . S
O345 Zn341 2.086 . S
C346 O342 1.278 . S
C346 O347 1.211 . S
O347 C346 1.211 . S
C348 O340 1.284 . S
C348 O349 1.273 . S
O349 C348 1.273 . S
O350 Zn341 1.977 . S
O350 C343 1.267 . S
C351 O352 1.160 . S
C351 O358 1.185 . S
O352 C351 1.160 . S
O353 Zn354 1.899 . S
O353 C361 1.284 . S
Zn354 O353 1.899 . S
Zn354 O355 2.032 . S
Zn354 O358 2.086 . S
Zn354 O363 1.977 . S
O355 Zn354 2.032 . S
O355 C359 1.278 . S
C356 O357 1.203 . S
C356 O363 1.267 . S
O357 C356 1.203 . S
O358 C351 1.185 . S
O358 Zn354 2.086 . S
C359 O355 1.278 . S
C359 O360 1.211 . S
O360 C359 1.211 . S
C361 O353 1.284 . S
C361 O362 1.273 . S
O362 C361 1.273 . S
O363 Zn354 1.977 . S
O363 C356 1.267 . S
C364 O365 1.160 . S
C364 O371 1.185 . S
O365 C364 1.160 . S
O366 Zn367 1.899 . S
O366 C374 1.284 . S
Zn367 O366 1.899 . S
Zn367 O368 2.032 . S
Zn367 O371 2.086 . S
Zn367 O376 1.977 . S
O368 Zn367 2.032 . S
O368 C372 1.278 . S
C369 O370 1.203 . S
C369 O376 1.267 . S
O370 C369 1.203 . S
O371 C364 1.185 . S
O371 Zn367 2.086 . S
C372 O368 1.278 . S
C372 O373 1.211 . S
O373 C372 1.211 . S
C374 O366 1.284 . S
C374 O375 1.273 . S
O375 C374 1.273 . S
O376 Zn367 1.977 . S
O376 C369 1.267 . S
C377 O378 1.160 . S
C377 O384 1.185 . S
O378 C377 1.160 . S
O379 Zn380 1.899 . S
O379 C387 1.284 . S
Zn380 O379 1.899 . S
Zn380 O381 2.032 . S
Zn380 O384 2.086 . S
Zn380 O389 1.977 . S
O381 Zn380 2.032 . S
O381 C385 1.278 . S
C382 O383 1.203 . S
C382 O389 1.267 . S
O383 C382 1.203 . S
O384 C377 1.185 . S
O384 Zn380 2.086 . S
C385 O381 1.278 . S
C385 O386 1.211 . S
O386 C385 1.211 . S
C387 O379 1.284 . S
C387 O388 1.273 . S
O388 C387 1.273 . S
O389 Zn380 1.977 . S
O389 C382 1.267 . S
C390 O391 1.160 . S
C390 O397 1.185 . S
O391 C390 1.160 . S
O392 Zn393 1.899 . S
O392 C400 1.284 . S
Zn393 O392 1.899 . S
Zn393 O394 2.032 . S
Zn393 O397 2.086 . S
Zn393 O402 1.977 . S
O394 Zn393 2.032 . S
O394 C398 1.278 . S
C395 O396 1.203 . S
C395 O402 1.267 . S
O396 C395 1.203 . S
O397 C390 1.185 . S
O397 Zn393 2.086 . S
C398 O394 1.278 . S
C398 O399 1.211 . S
O399 C398 1.211 . S
C400 O392 1.284 . S
C400 O401 1.273 . S
O401 C400 1.273 . S
O402 Zn393 1.977 . S
O402 C395 1.267 . S
C403 O404 1.160 . S
C403 O410 1.185 . S
O404 C403 1.160 . S
O405 Zn406 1.899 . S
O405 C413 1.284 . S
Zn406 O405 1.899 . S
Zn406 O407 2.032 . S
Zn406 O410 2.086 . S
Zn406 O415 1.977 . S
O407 Zn406 2.032 . S
O407 C411 1.278 . S
C408 O409 1.203 . S
C408 O415 1.267 . S
O409 C408 1.203 . S
O410 C403 1.185 . S
O410 Zn406 2.086 . S
C411 O407 1.278 . S
C411 O412 1.211 . S
O412 C411 1.211 . S
C413 O405 1.284 . S
C413 O414 1.273 . S
O414 C413 1.273 . S
O415 Zn406 1.977 . S
O415 C408 1.267 . S
C416 O417 1.160 . S
C416 O423 1.185 . S
O417 C416 1.160 . S
O418 Zn419 1.899 . S
O418 C426 1.284 . S
Zn419 O418 1.899 . S
Zn419 O420 2.032 . S
Zn419 O423 2.086 . S
Zn419 O428 1.977 . S
O420 Zn419 2.032 . S
O420 C424 1.278 . S
C421 O422 1.203 . S
C421 O428 1.267 . S
O422 C421 1.203 . S
O423 C416 1.185 . S
O423 Zn419 2.086 . S
C424 O420 1.278 . S
C424 O425 1.211 . S
O425 C424 1.211 . S
C426 O418 1.284 . S
C426 O427 1.273 . S
O427 C426 1.273 . S
O428 Zn419 1.977 . S
O428 C421 1.267 . S
C429 O430 1.160 . S
C429 O436 1.185 . S
O430 C429 1.160 . S
O431 Zn432 1.899 . S
O431 C439 1.284 . S
Zn432 O431 1.899 . S
Zn432 O433 2.032 . S
Zn432 O436 2.086 . S
Zn432 O441 1.977 . S
O433 Zn432 2.032 . S
O433 C437 1.278 . S
C434 O435 1.203 . S
C434 O441 1.267 . S
O435 C434 1.203 . S
O436 C429 1.185 . S
O436 Zn432 2.086 . S
C437 O433 1.278 . S
C437 O438 1.211 . S
O438 C437 1.211 . S
C439 O431 1.284 . S
C439 O440 1.273 . S
O440 C439 1.273 . S
O441 Zn432 1.977 . S
O441 C434 1.267 . S
C442 O443 1.160 . S
C442 O449 1.185 . S
O443 C442 1.160 . S
O444 Zn445 1.899 . S
O444 C452 1.284 . S
Zn445 O444 1.899 . S
Zn445 O446 2.032 . S
Zn445 O449 2.086 . S
Zn445 O454 1.977 . S
O446 Zn445 2.032 . S
O446 C450 1.278 . S
C447 O448 1.203 . S
C447 O454 1.267 . S
O448 C447 1.203 . S
O449 C442 1.185 . S
O449 Zn445 2.086 . S
C450 O446 1.278 . S
C450 O451 1.211 . S
O451 C450 1.211 . S
C452 O444 1.284 . S
C452 O453 1.273 . S
O453 C452 1.273 . S
O454 Zn445 1.977 . S
O454 C447 1.267 . S
C455 O456 1.160 . S
C455 O462 1.185 . S
O456 C455 1.160 . S
O457 Zn458 1.899 . S
O457 C465 1.284 . S
Zn458 O457 1.899 . S
Zn458 O459 2.032 . S
Zn458 O462 2.086 . S
Zn458 O467 1.977 . S
O459 Zn458 2.032 . S
O459 C463 1.278 . S
C460 O461 1.203 . S
C460 O467 1.267 . S
O461 C460 1.203 . S
O462 C455 1.185 . S
O462 Zn458 2.086 . S
C463 O459 1.278 . S
C463 O464 1.211 . S
O464 C463 1.211 . S
C465 O457 1.284 . S
C465 O466 1.273 . S
O466 C465 1.273 . S
O467 Zn458 1.977 . S
O467 C460 1.267 . S
C468 C469 1.391 . S
C468 C470 1.394 . S
C468 H484 0.931 . S
C469 C468 1.391 . S
C469 C473 1.376 . S
C470 C468 1.394 . S
C470 C471 1.369 . S
C470 C474 1.531 1_554 S
C471 C470 1.369 . S
C471 C472 1.410 . S
C471 C479 1.503 . S
C472 C471 1.410 . S
C472 C473 1.392 . S
C472 C475 1.511 . S
C473 C469 1.376 . S
C473 C472 1.392 . S
C473 H485 0.929 . S
C474 C470 1.531 1_556 S
C474 H486 0.960 1_556 S
C474 H487 0.962 . S
C474 H488 0.960 . S
C475 C472 1.511 . S
C475 H489 0.961 . S
C475 H490 0.961 . S
C475 H491 0.961 . S
C476 C477 1.370 . S
C476 C478 1.363 . S
C476 H492 0.931 . S
C477 C476 1.370 . S
C477 C481 1.408 . S
C478 C476 1.363 . S
C478 C479 1.370 . S
C478 C482 1.524 . S
C479 C471 1.503 . S
C479 C478 1.370 . S
C479 C480 1.403 . S
C480 C479 1.403 . S
C480 C481 1.404 . S
C480 C483 1.539 . S
C481 C477 1.408 . S
C481 C480 1.404 . S
C481 H493 0.930 . S
C482 C478 1.524 . S
C482 H494 0.956 . S
C482 H495 0.961 . S
C482 H496 0.961 . S
C483 C480 1.539 . S
C483 H497 0.958 . S
C483 H498 0.961 . S
C483 H499 0.960 . S
H484 C468 0.931 . S
H485 C473 0.929 . S
H486 C474 0.960 1_554 S
H487 C474 0.962 . S
H488 C474 0.960 . S
H489 C475 0.961 . S
H490 C475 0.961 . S
H491 C475 0.961 . S
H492 C476 0.931 . S
H493 C481 0.930 . S
H494 C482 0.956 . S
H495 C482 0.961 . S
H496 C482 0.961 . S
H497 C483 0.958 . S
H498 C483 0.961 . S
H499 C483 0.960 . S
C500 C501 1.391 . S
C500 C502 1.394 . S
C500 H516 0.931 . S
C501 C500 1.391 . S
C501 C505 1.376 . S
C502 C500 1.394 . S
C502 C503 1.369 . S
C502 C506 1.531 1_554 S
C503 C502 1.369 . S
C503 C504 1.410 . S
C503 C511 1.503 . S
C504 C503 1.410 . S
C504 C505 1.392 . S
C504 C507 1.511 . S
C505 C501 1.376 . S
C505 C504 1.392 . S
C505 H517 0.929 . S
C506 C502 1.531 1_556 S
C506 H518 0.960 . S
C506 H519 0.962 . S
C506 H520 0.960 . S
C507 C504 1.511 . S
C507 H521 0.961 . S
C507 H522 0.961 . S
C507 H523 0.961 . S
C508 C509 1.370 . S
C508 C510 1.363 . S
C508 H524 0.931 . S
C509 C508 1.370 . S
C509 C513 1.408 . S
C510 C508 1.363 . S
C510 C511 1.370 . S
C510 C514 1.524 . S
C511 C503 1.503 . S
C511 C510 1.370 . S
C511 C512 1.403 . S
C512 C511 1.403 . S
C512 C513 1.404 . S
C512 C515 1.539 . S
C513 C509 1.408 . S
C513 C512 1.404 . S
C513 H525 0.930 . S
C514 C510 1.524 . S
C514 H526 0.956 . S
C514 H527 0.961 . S
C514 H528 0.961 . S
C515 C512 1.539 . S
C515 H529 0.958 1_554 S
C515 H530 0.961 . S
C515 H531 0.960 . S
H516 C500 0.931 . S
H517 C505 0.929 . S
H518 C506 0.960 . S
H519 C506 0.962 . S
H520 C506 0.960 . S
H521 C507 0.961 . S
H522 C507 0.961 . S
H523 C507 0.961 . S
H524 C508 0.931 . S
H525 C513 0.930 . S
H526 C514 0.956 . S
H527 C514 0.961 . S
H528 C514 0.961 . S
H529 C515 0.958 1_556 S
H530 C515 0.961 . S
H531 C515 0.960 . S
C532 C533 1.391 . S
C532 C534 1.394 . S
C532 H548 0.931 . S
C533 C532 1.391 . S
C533 C537 1.376 . S
C534 C532 1.394 . S
C534 C535 1.369 . S
C534 C538 1.531 . S
C535 C534 1.369 . S
C535 C536 1.410 . S
C535 C543 1.503 . S
C536 C535 1.410 . S
C536 C537 1.392 . S
C536 C539 1.511 . S
C537 C533 1.376 . S
C537 C536 1.392 . S
C537 H549 0.929 . S
C538 C534 1.531 . S
C538 H550 0.960 . S
C538 H551 0.962 . S
C538 H552 0.960 . S
C539 C536 1.511 . S
C539 H553 0.961 1_554 S
C539 H554 0.961 1_554 S
C539 H555 0.961 . S
C540 C541 1.370 . S
C540 C542 1.363 . S
C540 H556 0.931 . S
C541 C540 1.370 . S
C541 C545 1.408 . S
C542 C540 1.363 . S
C542 C543 1.370 . S
C542 C546 1.524 . S
C543 C535 1.503 . S
C543 C542 1.370 . S
C543 C544 1.403 . S
C544 C543 1.403 . S
C544 C545 1.404 . S
C544 C547 1.539 . S
C545 C541 1.408 . S
C545 C544 1.404 . S
C545 H557 0.930 . S
C546 C542 1.524 . S
C546 H558 0.956 . S
C546 H559 0.951 1_554 S
C546 H560 0.961 . S
C547 C544 1.539 . S
C547 H561 0.958 . S
C547 H562 0.961 . S
C547 H563 0.960 . S
H548 C532 0.931 . S
H549 C537 0.929 . S
H550 C538 0.960 . S
H551 C538 0.962 . S
H552 C538 0.960 . S
H553 C539 0.961 1_556 S
H554 C539 0.961 1_556 S
H555 C539 0.961 . S
H556 C540 0.931 . S
H557 C545 0.930 . S
H558 C546 0.956 . S
H559 C546 0.951 1_556 S
H560 C546 0.961 . S
H561 C547 0.958 . S
H562 C547 0.961 . S
H563 C547 0.960 . S
C564 C565 1.391 . S
C564 C566 1.394 . S
C564 H580 0.931 . S
C565 C564 1.391 . S
C565 C569 1.376 . S
C566 C564 1.394 . S
C566 C567 1.369 . S
C566 C570 1.531 . S
C567 C566 1.369 . S
C567 C568 1.410 . S
C567 C575 1.503 . S
C568 C567 1.410 . S
C568 C569 1.392 . S
C568 C571 1.511 . S
C569 C565 1.376 . S
C569 C568 1.392 . S
C569 H581 0.929 . S
C570 C566 1.531 . S
C570 H582 0.960 . S
C570 H583 0.962 . S
C570 H584 0.960 . S
C571 C568 1.511 . S
C571 H585 0.961 . S
C571 H586 0.961 . S
C571 H587 0.961 . S
C572 C573 1.370 . S
C572 C574 1.363 . S
C572 H588 0.948 . S
C573 C572 1.370 . S
C573 C577 1.408 . S
C574 C572 1.363 . S
C574 C575 1.370 . S
C574 C578 1.524 1_556 S
C575 C567 1.503 . S
C575 C574 1.370 . S
C575 C576 1.403 . S
C576 C575 1.403 . S
C576 C577 1.404 . S
C576 C579 1.539 . S
C577 C573 1.408 . S
C577 C576 1.404 . S
C577 H589 0.930 . S
C578 C574 1.524 1_554 S
C578 H590 0.956 . S
C578 H591 0.961 . S
C578 H592 0.961 . S
C579 C576 1.539 . S
C579 H593 0.958 . S
C579 H594 0.961 . S
C579 H595 0.960 . S
H580 C564 0.931 . S
H581 C569 0.929 . S
H582 C570 0.960 . S
H583 C570 0.962 . S
H584 C570 0.960 . S
H585 C571 0.961 . S
H586 C571 0.961 . S
H587 C571 0.961 . S
H588 C572 0.948 . S
H589 C577 0.930 . S
H590 C578 0.956 . S
H591 C578 0.961 . S
H592 C578 0.961 . S
H593 C579 0.958 . S
H594 C579 0.961 . S
H595 C579 0.960 . S
C596 C597 1.391 . S
C596 C598 1.394 . S
C596 H612 0.931 1_556 S
C597 C596 1.391 . S
C597 C601 1.376 . S
C598 C596 1.394 . S
C598 C599 1.369 . S
C598 C602 1.531 1_556 S
C599 C598 1.369 . S
C599 C600 1.410 . S
C599 C607 1.503 . S
C600 C599 1.410 . S
C600 C601 1.392 . S
C600 C603 1.511 . S
C601 C597 1.376 . S
C601 C600 1.392 . S
C601 H613 0.929 . S
C602 C598 1.531 1_554 S
C602 H614 0.960 . S
C602 H615 0.962 . S
C602 H616 0.960 . S
C603 C600 1.511 . S
C603 H617 0.961 . S
C603 H618 0.961 . S
C603 H619 0.961 . S
C604 C605 1.370 . S
C604 C606 1.363 . S
C604 H620 0.931 . S
C605 C604 1.370 . S
C605 C609 1.408 . S
C606 C604 1.363 . S
C606 C607 1.370 . S
C606 C610 1.524 . S
C607 C599 1.503 . S
C607 C606 1.370 . S
C607 C608 1.403 . S
C608 C607 1.403 . S
C608 C609 1.404 . S
C608 C611 1.539 . S
C609 C605 1.408 . S
C609 C608 1.404 . S
C609 H621 0.930 . S
C610 C606 1.524 . S
C610 H622 0.956 . S
C610 H623 0.961 . S
C610 H624 0.961 . S
C611 C608 1.539 . S
C611 H625 0.958 . S
C611 H626 0.961 . S
C611 H627 0.960 . S
H612 C596 0.931 1_554 S
H613 C601 0.929 . S
H614 C602 0.960 . S
H615 C602 0.962 . S
H616 C602 0.960 . S
H617 C603 0.961 . S
H618 C603 0.961 . S
H619 C603 0.961 . S
H620 C604 0.931 . S
H621 C609 0.930 . S
H622 C610 0.956 . S
H623 C610 0.961 . S
H624 C610 0.961 . S
H625 C611 0.958 . S
H626 C611 0.961 . S
H627 C611 0.960 . S
C628 C629 1.391 . S
C628 C630 1.394 . S
C628 H644 0.931 . S
C629 C628 1.391 . S
C629 C633 1.376 . S
C630 C628 1.394 . S
C630 C631 1.369 . S
C630 C634 1.531 . S
C631 C630 1.369 . S
C631 C632 1.410 . S
C631 C639 1.503 . S
C632 C631 1.410 . S
C632 C633 1.392 . S
C632 C635 1.511 . S
C633 C629 1.376 . S
C633 C632 1.392 . S
C633 H645 0.929 . S
C634 C630 1.531 . S
C634 H646 0.960 . S
C634 H647 0.962 . S
C634 H648 0.960 . S
C635 C632 1.511 . S
C635 H649 0.961 . S
C635 H650 0.961 . S
C635 H651 0.961 . S
C636 C637 1.370 . S
C636 C638 1.363 . S
C636 H652 0.931 . S
C637 C636 1.370 . S
C637 C641 1.408 . S
C638 C636 1.363 . S
C638 C639 1.370 . S
C638 C642 1.524 1_556 S
C639 C631 1.503 . S
C639 C638 1.370 . S
C639 C640 1.403 . S
C640 C639 1.403 . S
C640 C641 1.404 . S
C640 C643 1.539 . S
C641 C637 1.408 . S
C641 C640 1.404 . S
C641 H653 0.930 . S
C642 C638 1.524 1_554 S
C642 H654 0.956 . S
C642 H655 0.961 . S
C642 H656 0.961 . S
C643 C640 1.539 . S
C643 H657 0.958 . S
C643 H658 0.961 . S
C643 H659 0.960 . S
H644 C628 0.931 . S
H645 C633 0.929 . S
H646 C634 0.960 . S
H647 C634 0.962 . S
H648 C634 0.960 . S
H649 C635 0.961 . S
H650 C635 0.961 . S
H651 C635 0.961 . S
H652 C636 0.931 . S
H653 C641 0.930 . S
H654 C642 0.956 . S
H655 C642 0.961 . S
H656 C642 0.961 . S
H657 C643 0.958 . S
H658 C643 0.961 . S
H659 C643 0.960 . S
C660 C661 1.391 . S
C660 C662 1.394 . S
C660 H676 0.931 . S
C661 C660 1.391 . S
C661 C665 1.376 . S
C662 C660 1.394 . S
C662 C663 1.369 . S
C662 C666 1.531 . S
C663 C662 1.369 . S
C663 C664 1.410 . S
C663 C671 1.503 . S
C664 C663 1.410 . S
C664 C665 1.392 . S
C664 C667 1.511 . S
C665 C661 1.376 . S
C665 C664 1.392 . S
C665 H677 0.929 . S
C666 C662 1.531 . S
C666 H678 0.960 . S
C666 H679 0.962 . S
C666 H680 0.960 . S
C667 C664 1.511 . S
C667 H681 0.961 . S
C667 H682 0.961 . S
C667 H683 0.961 . S
C668 C669 1.370 . S
C668 C670 1.363 . S
C668 H684 0.931 . S
C669 C668 1.370 . S
C669 C673 1.408 . S
C670 C668 1.363 . S
C670 C671 1.370 . S
C670 C674 1.524 . S
C671 C663 1.503 . S
C671 C670 1.370 . S
C671 C672 1.403 . S
C672 C671 1.403 . S
C672 C673 1.404 . S
C672 C675 1.539 . S
C673 C669 1.408 . S
C673 C672 1.404 . S
C673 H685 0.930 . S
C674 C670 1.524 . S
C674 H686 0.956 . S
C674 H687 0.961 . S
C674 H688 0.961 . S
C675 C672 1.539 . S
C675 H689 0.958 . S
C675 H690 0.961 . S
C675 H691 0.960 . S
H676 C660 0.931 . S
H677 C665 0.929 . S
H678 C666 0.960 . S
H679 C666 0.962 . S
H680 C666 0.960 . S
H681 C667 0.961 . S
H682 C667 0.961 . S
H683 C667 0.961 . S
H684 C668 0.931 . S
H685 C673 0.930 . S
H686 C674 0.956 . S
H687 C674 0.961 . S
H688 C674 0.961 . S
H689 C675 0.958 . S
H690 C675 0.961 . S
H691 C675 0.960 . S
C692 C693 1.391 . S
C692 C694 1.394 . S
C692 H708 0.931 . S
C693 C692 1.391 . S
C693 C697 1.376 . S
C694 C692 1.394 . S
C694 C695 1.369 . S
C694 C698 1.531 . S
C695 C694 1.369 . S
C695 C696 1.410 . S
C695 C703 1.503 . S
C696 C695 1.410 . S
C696 C697 1.392 . S
C696 C699 1.511 . S
C697 C693 1.376 . S
C697 C696 1.392 . S
C697 H709 0.929 . S
C698 C694 1.531 . S
C698 H710 0.960 . S
C698 H711 0.962 . S
C698 H712 0.960 . S
C699 C696 1.511 . S
C699 H713 0.961 . S
C699 H714 0.961 . S
C699 H715 0.961 . S
C700 C701 1.370 . S
C700 C702 1.363 . S
C700 H716 0.931 . S
C701 C700 1.370 . S
C701 C705 1.408 . S
C702 C700 1.363 . S
C702 C703 1.370 . S
C702 C706 1.524 . S
C703 C695 1.503 . S
C703 C702 1.370 . S
C703 C704 1.403 . S
C704 C703 1.403 . S
C704 C705 1.404 . S
C704 C707 1.539 . S
C705 C701 1.408 . S
C705 C704 1.404 . S
C705 H717 0.930 . S
C706 C702 1.524 . S
C706 H718 0.956 . S
C706 H719 0.961 . S
C706 H720 0.961 . S
C707 C704 1.539 . S
C707 H721 0.958 . S
C707 H722 0.961 . S
C707 H723 0.960 . S
H708 C692 0.931 . S
H709 C697 0.929 . S
H710 C698 0.960 . S
H711 C698 0.962 . S
H712 C698 0.960 . S
H713 C699 0.961 . S
H714 C699 0.961 . S
H715 C699 0.961 . S
H716 C700 0.931 . S
H717 C705 0.930 . S
H718 C706 0.956 . S
H719 C706 0.961 . S
H720 C706 0.961 . S
H721 C707 0.958 . S
H722 C707 0.961 . S
H723 C707 0.960 . S
C724 C725 1.391 . S
C724 C726 1.394 . S
C724 H740 0.931 . S
C725 C724 1.391 . S
C725 C729 1.376 . S
C726 C724 1.394 . S
C726 C727 1.369 . S
C726 C730 1.531 . S
C727 C726 1.369 . S
C727 C728 1.410 . S
C727 C735 1.503 . S
C728 C727 1.410 . S
C728 C729 1.392 . S
C728 C731 1.511 . S
C729 C725 1.376 . S
C729 C728 1.392 . S
C729 H741 0.929 . S
C730 C726 1.531 . S
C730 H742 0.960 . S
C730 H743 0.962 . S
C730 H744 0.960 . S
C731 C728 1.511 . S
C731 H745 0.961 . S
C731 H746 0.961 . S
C731 H747 0.961 . S
C732 C733 1.370 . S
C732 C734 1.363 . S
C732 H748 0.931 . S
C733 C732 1.370 . S
C733 C737 1.408 . S
C734 C732 1.363 . S
C734 C735 1.370 . S
C734 C738 1.524 . S
C735 C727 1.503 . S
C735 C734 1.370 . S
C735 C736 1.403 . S
C736 C735 1.403 . S
C736 C737 1.404 . S
C736 C739 1.539 . S
C737 C733 1.408 . S
C737 C736 1.404 . S
C737 H749 0.930 . S
C738 C734 1.524 . S
C738 H750 0.956 . S
C738 H751 0.961 . S
C738 H752 0.961 . S
C739 C736 1.539 . S
C739 H753 0.958 . S
C739 H754 0.961 . S
C739 H755 0.960 . S
H740 C724 0.931 . S
H741 C729 0.929 . S
H742 C730 0.960 . S
H743 C730 0.962 . S
H744 C730 0.960 . S
H745 C731 0.961 . S
H746 C731 0.961 . S
H747 C731 0.961 . S
H748 C732 0.931 . S
H749 C737 0.930 . S
H750 C738 0.956 . S
H751 C738 0.961 . S
H752 C738 0.961 . S
H753 C739 0.958 . S
H754 C739 0.961 . S
H755 C739 0.960 . S
C756 C757 1.391 . S
C756 C758 1.394 . S
C756 H772 0.931 . S
C757 C756 1.391 . S
C757 C761 1.376 . S
C758 C756 1.394 . S
C758 C759 1.369 . S
C758 C762 1.531 . S
C759 C758 1.369 . S
C759 C760 1.410 . S
C759 C767 1.503 . S
C760 C759 1.410 . S
C760 C761 1.392 . S
C760 C763 1.511 . S
C761 C757 1.376 . S
C761 C760 1.392 . S
C761 H773 0.929 . S
C762 C758 1.531 . S
C762 H774 0.960 . S
C762 H775 0.962 . S
C762 H776 0.960 . S
C763 C760 1.511 . S
C763 H777 0.961 . S
C763 H778 0.961 . S
C763 H779 0.961 . S
C764 C765 1.370 . S
C764 C766 1.363 . S
C764 H780 0.931 . S
C765 C764 1.370 . S
C765 C769 1.408 . S
C766 C764 1.363 . S
C766 C767 1.370 . S
C766 C770 1.524 . S
C767 C759 1.503 . S
C767 C766 1.370 . S
C767 C768 1.403 . S
C768 C767 1.403 . S
C768 C769 1.404 . S
C768 C771 1.539 . S
C769 C765 1.408 . S
C769 C768 1.404 . S
C769 H781 0.930 . S
C770 C766 1.524 . S
C770 H782 0.956 . S
C770 H783 0.961 . S
C770 H784 0.961 . S
C771 C768 1.539 . S
C771 H785 0.958 . S
C771 H786 0.961 . S
C771 H787 0.960 . S
H772 C756 0.931 . S
H773 C761 0.929 . S
H774 C762 0.960 . S
H775 C762 0.962 . S
H776 C762 0.960 . S
H777 C763 0.961 . S
H778 C763 0.961 . S
H779 C763 0.961 . S
H780 C764 0.931 . S
H781 C769 0.930 . S
H782 C770 0.956 . S
H783 C770 0.961 . S
H784 C770 0.961 . S
H785 C771 0.958 . S
H786 C771 0.961 . S
H787 C771 0.960 . S
C788 C789 1.391 . S
C788 C790 1.394 . S
C788 H804 0.931 . S
C789 C788 1.391 . S
C789 C793 1.376 . S
C790 C788 1.394 . S
C790 C791 1.369 . S
C790 C794 1.531 . S
C791 C790 1.369 . S
C791 C792 1.410 . S
C791 C799 1.503 . S
C792 C791 1.410 . S
C792 C793 1.392 . S
C792 C795 1.511 . S
C793 C789 1.376 . S
C793 C792 1.392 . S
C793 H805 0.929 . S
C794 C790 1.531 . S
C794 H806 0.960 . S
C794 H807 0.962 . S
C794 H808 0.960 . S
C795 C792 1.511 . S
C795 H809 0.961 . S
C795 H810 0.961 . S
C795 H811 0.961 . S
C796 C797 1.370 . S
C796 C798 1.363 . S
C796 H812 0.931 . S
C797 C796 1.370 . S
C797 C801 1.408 . S
C798 C796 1.363 . S
C798 C799 1.370 . S
C798 C802 1.524 . S
C799 C791 1.503 . S
C799 C798 1.370 . S
C799 C800 1.403 . S
C800 C799 1.403 . S
C800 C801 1.404 . S
C800 C803 1.539 . S
C801 C797 1.408 . S
C801 C800 1.404 . S
C801 H813 0.930 . S
C802 C798 1.524 . S
C802 H814 0.956 . S
C802 H815 0.961 . S
C802 H816 0.961 . S
C803 C800 1.539 . S
C803 H817 0.958 . S
C803 H818 0.961 . S
C803 H819 0.960 . S
H804 C788 0.931 . S
H805 C793 0.929 . S
H806 C794 0.960 . S
H807 C794 0.962 . S
H808 C794 0.960 . S
H809 C795 0.961 . S
H810 C795 0.961 . S
H811 C795 0.961 . S
H812 C796 0.931 . S
H813 C801 0.930 . S
H814 C802 0.956 . S
H815 C802 0.961 . S
H816 C802 0.961 . S
H817 C803 0.958 . S
H818 C803 0.961 . S
H819 C803 0.960 . S
C820 C821 1.391 . S
C820 C822 1.394 . S
C820 H836 0.931 . S
C821 C820 1.391 . S
C821 C825 1.376 . S
C822 C820 1.394 . S
C822 C823 1.369 . S
C822 C826 1.531 . S
C823 C822 1.369 . S
C823 C824 1.410 . S
C823 C831 1.503 . S
C824 C823 1.410 . S
C824 C825 1.392 . S
C824 C827 1.511 . S
C825 C821 1.376 . S
C825 C824 1.392 . S
C825 H837 0.929 . S
C826 C822 1.531 . S
C826 H838 0.960 . S
C826 H839 0.962 . S
C826 H840 0.960 . S
C827 C824 1.511 . S
C827 H841 0.961 . S
C827 H842 0.961 . S
C827 H843 0.961 . S
C828 C829 1.370 . S
C828 C830 1.363 . S
C828 H844 0.931 . S
C829 C828 1.370 . S
C829 C833 1.408 . S
C830 C828 1.363 . S
C830 C831 1.370 . S
C830 C834 1.524 . S
C831 C823 1.503 . S
C831 C830 1.370 . S
C831 C832 1.403 . S
C832 C831 1.403 . S
C832 C833 1.404 . S
C832 C835 1.539 . S
C833 C829 1.408 . S
C833 C832 1.404 . S
C833 H845 0.930 . S
C834 C830 1.524 . S
C834 H846 0.956 . S
C834 H847 0.961 . S
C834 H848 0.961 . S
C835 C832 1.539 . S
C835 H849 0.958 . S
C835 H850 0.961 . S
C835 H851 0.960 . S
H836 C820 0.931 . S
H837 C825 0.929 . S
H838 C826 0.960 . S
H839 C826 0.962 . S
H840 C826 0.960 . S
H841 C827 0.961 . S
H842 C827 0.961 . S
H843 C827 0.961 . S
H844 C828 0.931 . S
H845 C833 0.930 . S
H846 C834 0.956 . S
H847 C834 0.961 . S
H848 C834 0.961 . S
H849 C835 0.958 . S
H850 C835 0.961 . S
H851 C835 0.960 . S
C852 C853 1.391 . S
C852 C854 1.394 . S
C852 H868 0.931 . S
C853 C852 1.391 . S
C853 C857 1.376 . S
C854 C852 1.394 . S
C854 C855 1.369 . S
C854 C858 1.531 . S
C855 C854 1.369 . S
C855 C856 1.410 . S
C855 C863 1.503 . S
C856 C855 1.410 . S
C856 C857 1.392 . S
C856 C859 1.511 . S
C857 C853 1.376 . S
C857 C856 1.392 . S
C857 H869 0.929 . S
C858 C854 1.531 . S
C858 H870 0.960 . S
C858 H871 0.962 . S
C858 H872 0.960 . S
C859 C856 1.511 . S
C859 H873 0.961 . S
C859 H874 0.961 . S
C859 H875 0.961 . S
C860 C861 1.370 . S
C860 C862 1.363 . S
C860 H876 0.931 . S
C861 C860 1.370 . S
C861 C865 1.408 . S
C862 C860 1.363 . S
C862 C863 1.370 . S
C862 C866 1.524 . S
C863 C855 1.503 . S
C863 C862 1.370 . S
C863 C864 1.403 . S
C864 C863 1.403 . S
C864 C865 1.404 . S
C864 C867 1.539 . S
C865 C861 1.408 . S
C865 C864 1.404 . S
C865 H877 0.930 . S
C866 C862 1.524 . S
C866 H878 0.956 . S
C866 H879 0.961 . S
C866 H880 0.961 . S
C867 C864 1.539 . S
C867 H881 0.958 . S
C867 H882 0.961 . S
C867 H883 0.960 . S
H868 C852 0.931 . S
H869 C857 0.929 . S
H870 C858 0.960 . S
H871 C858 0.962 . S
H872 C858 0.960 . S
H873 C859 0.961 . S
H874 C859 0.961 . S
H875 C859 0.961 . S
H876 C860 0.931 . S
H877 C865 0.930 . S
H878 C866 0.956 . S
H879 C866 0.961 . S
H880 C866 0.961 . S
H881 C867 0.958 . S
H882 C867 0.961 . S
H883 C867 0.960 . S
C884 C885 1.391 . S
C884 C886 1.394 . S
C884 H900 0.931 . S
C885 C884 1.391 . S
C885 C889 1.376 . S
C886 C884 1.394 . S
C886 C887 1.369 . S
C886 C890 1.531 . S
C887 C886 1.369 . S
C887 C888 1.410 . S
C887 C895 1.503 . S
C888 C887 1.410 . S
C888 C889 1.392 . S
C888 C891 1.511 . S
C889 C885 1.376 . S
C889 C888 1.392 . S
C889 H901 0.929 . S
C890 C886 1.531 . S
C890 H902 0.960 . S
C890 H903 0.962 . S
C890 H904 0.960 . S
C891 C888 1.511 . S
C891 H905 0.961 . S
C891 H906 0.961 . S
C891 H907 0.961 . S
C892 C893 1.370 . S
C892 C894 1.363 . S
C892 H908 0.931 . S
C893 C892 1.370 . S
C893 C897 1.408 . S
C894 C892 1.363 . S
C894 C895 1.370 . S
C894 C898 1.524 . S
C895 C887 1.503 . S
C895 C894 1.370 . S
C895 C896 1.403 . S
C896 C895 1.403 . S
C896 C897 1.404 . S
C896 C899 1.539 . S
C897 C893 1.408 . S
C897 C896 1.404 . S
C897 H909 0.930 . S
C898 C894 1.524 . S
C898 H910 0.956 . S
C898 H911 0.961 . S
C898 H912 0.961 . S
C899 C896 1.539 . S
C899 H913 0.958 . S
C899 H914 0.961 . S
C899 H915 0.960 . S
H900 C884 0.931 . S
H901 C889 0.929 . S
H902 C890 0.960 . S
H903 C890 0.962 . S
H904 C890 0.960 . S
H905 C891 0.961 . S
H906 C891 0.961 . S
H907 C891 0.961 . S
H908 C892 0.931 . S
H909 C897 0.930 . S
H910 C898 0.956 . S
H911 C898 0.961 . S
H912 C898 0.961 . S
H913 C899 0.958 . S
H914 C899 0.961 . S
H915 C899 0.960 . S
C916 C917 1.391 . S
C916 C918 1.394 . S
C916 H932 0.931 . S
C917 C916 1.391 . S
C917 C921 1.376 . S
C918 C916 1.394 . S
C918 C919 1.369 . S
C918 C922 1.531 . S
C919 C918 1.369 . S
C919 C920 1.410 . S
C919 C927 1.503 . S
C920 C919 1.410 . S
C920 C921 1.392 . S
C920 C923 1.511 . S
C921 C917 1.376 . S
C921 C920 1.392 . S
C921 H933 0.929 . S
C922 C918 1.531 . S
C922 H934 0.960 . S
C922 H935 0.962 . S
C922 H936 0.960 . S
C923 C920 1.511 . S
C923 H937 0.961 . S
C923 H938 0.961 . S
C923 H939 0.961 . S
C924 C925 1.370 . S
C924 C926 1.363 . S
C924 H940 0.931 . S
C925 C924 1.370 . S
C925 C929 1.408 . S
C926 C924 1.363 . S
C926 C927 1.370 . S
C926 C930 1.524 . S
C927 C919 1.503 . S
C927 C926 1.370 . S
C927 C928 1.403 . S
C928 C927 1.403 . S
C928 C929 1.404 . S
C928 C931 1.539 . S
C929 C925 1.408 . S
C929 C928 1.404 . S
C929 H941 0.930 . S
C930 C926 1.524 . S
C930 H942 0.956 . S
C930 H943 0.961 . S
C930 H944 0.961 . S
C931 C928 1.539 . S
C931 H945 0.958 . S
C931 H946 0.961 . S
C931 H947 0.960 . S
H932 C916 0.931 . S
H933 C921 0.929 . S
H934 C922 0.960 . S
H935 C922 0.962 . S
H936 C922 0.960 . S
H937 C923 0.961 . S
H938 C923 0.961 . S
H939 C923 0.961 . S
H940 C924 0.931 . S
H941 C929 0.930 . S
H942 C930 0.956 . S
H943 C930 0.961 . S
H944 C930 0.961 . S
H945 C931 0.958 . S
H946 C931 0.961 . S
H947 C931 0.960 . S
C948 C949 1.391 . S
C948 C950 1.394 . S
C948 H964 0.931 . S
C949 C948 1.391 . S
C949 C953 1.376 . S
C950 C948 1.394 . S
C950 C951 1.369 . S
C950 C954 1.531 . S
C951 C950 1.369 . S
C951 C952 1.410 . S
C951 C959 1.503 . S
C952 C951 1.410 . S
C952 C953 1.392 . S
C952 C955 1.511 . S
C953 C949 1.376 . S
C953 C952 1.392 . S
C953 H965 0.929 . S
C954 C950 1.531 . S
C954 H966 0.960 . S
C954 H967 0.962 . S
C954 H968 0.960 . S
C955 C952 1.511 . S
C955 H969 0.961 . S
C955 H970 0.961 . S
C955 H971 0.961 . S
C956 C957 1.370 . S
C956 C958 1.363 . S
C956 H972 0.931 . S
C957 C956 1.370 . S
C957 C961 1.408 . S
C958 C956 1.363 . S
C958 C959 1.370 . S
C958 C962 1.524 . S
C959 C951 1.503 . S
C959 C958 1.370 . S
C959 C960 1.403 . S
C960 C959 1.403 . S
C960 C961 1.404 . S
C960 C963 1.539 . S
C961 C957 1.408 . S
C961 C960 1.404 . S
C961 H973 0.930 . S
C962 C958 1.524 . S
C962 H974 0.956 . S
C962 H975 0.961 . S
C962 H976 0.961 . S
C963 C960 1.539 . S
C963 H977 0.958 . S
C963 H978 0.961 . S
C963 H979 0.960 . S
H964 C948 0.931 . S
H965 C953 0.929 . S
H966 C954 0.960 . S
H967 C954 0.962 . S
H968 C954 0.960 . S
H969 C955 0.961 . S
H970 C955 0.961 . S
H971 C955 0.961 . S
H972 C956 0.931 . S
H973 C961 0.930 . S
H974 C962 0.956 . S
H975 C962 0.961 . S
H976 C962 0.961 . S
H977 C963 0.958 . S
H978 C963 0.961 . S
H979 C963 0.960 . S
C980 C981 1.391 . S
C980 C982 1.394 . S
C980 H996 0.931 . S
C981 C980 1.391 . S
C981 C985 1.376 . S
C982 C980 1.394 . S
C982 C983 1.369 . S
C982 C986 1.531 . S
C983 C982 1.369 . S
C983 C984 1.410 . S
C983 C991 1.503 . S
C984 C983 1.410 . S
C984 C985 1.392 . S
C984 C987 1.511 . S
C985 C981 1.376 . S
C985 C984 1.392 . S
C985 H997 0.929 . S
C986 C982 1.531 . S
C986 H998 0.960 . S
C986 H999 0.962 . S
C986 H1000 0.960 . S
C987 C984 1.511 . S
C987 H1001 0.961 . S
C987 H1002 0.961 . S
C987 H1003 0.961 . S
C988 C989 1.370 . S
C988 C990 1.363 . S
C988 H1004 0.931 . S
C989 C988 1.370 . S
C989 C993 1.408 . S
C990 C988 1.363 . S
C990 C991 1.370 . S
C990 C994 1.524 . S
C991 C983 1.503 . S
C991 C990 1.370 . S
C991 C992 1.403 . S
C992 C991 1.403 . S
C992 C993 1.404 . S
C992 C995 1.539 . S
C993 C989 1.408 . S
C993 C992 1.404 . S
C993 H1005 0.930 . S
C994 C990 1.524 . S
C994 H1006 0.956 . S
C994 H1007 0.961 . S
C994 H1008 0.961 . S
C995 C992 1.539 . S
C995 H1009 0.958 . S
C995 H1010 0.961 . S
C995 H1011 0.960 . S
H996 C980 0.931 . S
H997 C985 0.929 . S
H998 C986 0.960 . S
H999 C986 0.962 . S
H1000 C986 0.960 . S
H1001 C987 0.961 . S
H1002 C987 0.961 . S
H1003 C987 0.961 . S
H1004 C988 0.931 . S
H1005 C993 0.930 . S
H1006 C994 0.956 . S
H1007 C994 0.961 . S
H1008 C994 0.961 . S
H1009 C995 0.958 . S
H1010 C995 0.961 . S
H1011 C995 0.960 . S
C1012 C1013 1.391 . S
C1012 C1014 1.394 . S
C1012 H1028 0.931 . S
C1013 C1012 1.391 . S
C1013 C1017 1.376 . S
C1014 C1012 1.394 . S
C1014 C1015 1.369 . S
C1014 C1018 1.531 . S
C1015 C1014 1.369 . S
C1015 C1016 1.410 . S
C1015 C1023 1.503 . S
C1016 C1015 1.410 . S
C1016 C1017 1.392 . S
C1016 C1019 1.511 . S
C1017 C1013 1.376 . S
C1017 C1016 1.392 . S
C1017 H1029 0.929 . S
C1018 C1014 1.531 . S
C1018 H1030 0.960 . S
C1018 H1031 0.962 . S
C1018 H1032 0.960 . S
C1019 C1016 1.511 . S
C1019 H1033 0.961 . S
C1019 H1034 0.961 . S
C1019 H1035 0.961 . S
C1020 C1021 1.370 . S
C1020 C1022 1.363 . S
C1020 H1036 0.931 . S
C1021 C1020 1.370 . S
C1021 C1025 1.408 . S
C1022 C1020 1.363 . S
C1022 C1023 1.370 . S
C1022 C1026 1.524 . S
C1023 C1015 1.503 . S
C1023 C1022 1.370 . S
C1023 C1024 1.403 . S
C1024 C1023 1.403 . S
C1024 C1025 1.404 . S
C1024 C1027 1.539 . S
C1025 C1021 1.408 . S
C1025 C1024 1.404 . S
C1025 H1037 0.930 . S
C1026 C1022 1.524 . S
C1026 H1038 0.956 . S
C1026 H1039 0.961 . S
C1026 H1040 0.961 . S
C1027 C1024 1.539 . S
C1027 H1041 0.958 . S
C1027 H1042 0.961 . S
C1027 H1043 0.960 . S
H1028 C1012 0.931 . S
H1029 C1017 0.929 . S
H1030 C1018 0.960 . S
H1031 C1018 0.962 . S
H1032 C1018 0.960 . S
H1033 C1019 0.961 . S
H1034 C1019 0.961 . S
H1035 C1019 0.961 . S
H1036 C1020 0.931 . S
H1037 C1025 0.930 . S
H1038 C1026 0.956 . S
H1039 C1026 0.961 . S
H1040 C1026 0.961 . S
H1041 C1027 0.958 . S
H1042 C1027 0.961 . S
H1043 C1027 0.960 . S
C1044 C1045 1.391 1_556 S
C1044 C1046 1.394 . S
C1044 H1060 0.931 . S
C1045 C1044 1.391 1_554 S
C1045 C1049 1.376 . S
C1046 C1044 1.394 . S
C1046 C1047 1.369 1_556 S
C1046 C1050 1.531 . S
C1047 C1046 1.369 1_554 S
C1047 C1048 1.410 . S
C1047 C1055 1.503 1_454 S
C1048 C1047 1.410 . S
C1048 C1049 1.392 . S
C1048 C1051 1.511 1_455 S
C1049 C1045 1.376 . S
C1049 C1048 1.392 . S
C1049 H1061 0.929 . S
C1050 C1046 1.531 . S
C1050 H1062 0.960 . S
C1050 H1063 0.962 . S
C1050 H1064 0.960 . S
C1051 C1048 1.511 1_655 S
C1051 H1065 0.961 1_655 S
C1051 H1066 0.961 . S
C1051 H1067 0.961 . S
C1052 C1053 1.370 . S
C1052 C1054 1.363 . S
C1052 H1068 0.931 . S
C1053 C1052 1.370 . S
C1053 C1057 1.408 . S
C1054 C1052 1.363 . S
C1054 C1055 1.370 . S
C1054 C1058 1.524 . S
C1055 C1047 1.503 1_656 S
C1055 C1054 1.370 . S
C1055 C1056 1.403 . S
C1056 C1055 1.403 . S
C1056 C1057 1.404 . S
C1056 C1059 1.539 1_556 S
C1057 C1053 1.408 . S
C1057 C1056 1.404 . S
C1057 H1069 0.930 . S
C1058 C1054 1.524 . S
C1058 H1070 0.956 1_655 S
C1058 H1071 0.985 1_556 S
C1058 H1072 0.961 . S
C1059 C1056 1.539 1_554 S
C1059 H1073 0.958 1_554 S
C1059 H1074 0.961 . S
C1059 H1075 0.960 . S
H1060 C1044 0.931 . S
H1061 C1049 0.929 . S
H1062 C1050 0.960 . S
H1063 C1050 0.962 . S
H1064 C1050 0.960 . S
H1065 C1051 0.961 1_455 S
H1066 C1051 0.961 . S
H1067 C1051 0.961 . S
H1068 C1052 0.931 . S
H1069 C1057 0.930 . S
H1070 C1058 0.956 1_455 S
H1071 C1058 0.985 1_554 S
H1072 C1058 0.961 . S
H1073 C1059 0.958 1_556 S
H1074 C1059 0.961 . S
H1075 C1059 0.960 . S
C1076 C1077 1.391 . S
C1076 C1078 1.394 1_556 S
C1076 H1092 0.931 . S
C1077 C1076 1.391 . S
C1077 C1081 1.376 . S
C1078 C1076 1.394 1_554 S
C1078 C1079 1.369 . S
C1078 C1082 1.531 . S
C1079 C1078 1.369 . S
C1079 C1080 1.410 1_554 S
C1079 C1087 1.503 . S
C1080 C1079 1.410 1_556 S
C1080 C1081 1.392 . S
C1080 C1083 1.511 . S
C1081 C1077 1.376 . S
C1081 C1080 1.392 . S
C1081 H1093 0.929 . S
C1082 C1078 1.531 . S
C1082 H1094 0.960 . S
C1082 H1095 0.962 . S
C1082 H1096 0.960 . S
C1083 C1080 1.511 . S
C1083 H1097 0.961 . S
C1083 H1098 0.961 . S
C1083 H1099 0.961 1_556 S
C1084 C1085 1.370 1_556 S
C1084 C1086 1.363 . S
C1084 H1100 0.931 . S
C1085 C1084 1.370 1_554 S
C1085 C1089 1.408 . S
C1086 C1084 1.363 . S
C1086 C1087 1.370 1_556 S
C1086 C1090 1.524 . S
C1087 C1079 1.503 . S
C1087 C1086 1.370 1_554 S
C1087 C1088 1.403 . S
C1088 C1087 1.403 . S
C1088 C1089 1.404 . S
C1088 C1091 1.539 . S
C1089 C1085 1.408 . S
C1089 C1088 1.404 . S
C1089 H1101 0.930 . S
C1090 C1086 1.524 . S
C1090 H1102 0.956 . S
C1090 H1103 0.961 . S
C1090 H1104 0.961 . S
C1091 C1088 1.539 . S
C1091 H1105 0.958 . S
C1091 H1106 0.961 . S
C1091 H1107 0.960 . S
H1092 C1076 0.931 . S
H1093 C1081 0.929 . S
H1094 C1082 0.960 . S
H1095 C1082 0.962 . S
H1096 C1082 0.960 . S
H1097 C1083 0.961 . S
H1098 C1083 0.961 . S
H1099 C1083 0.961 1_554 S
H1100 C1084 0.931 . S
H1101 C1089 0.930 . S
H1102 C1090 0.956 . S
H1103 C1090 0.961 . S
H1104 C1090 0.961 . S
H1105 C1091 0.958 . S
H1106 C1091 0.961 . S
H1107 C1091 0.960 . S
C1108 C1109 1.391 . S
C1108 C1110 1.394 . S
C1108 H1124 0.931 . S
C1109 C1108 1.391 . S
C1109 C1113 1.376 . S
C1110 C1108 1.394 . S
C1110 C1111 1.369 . S
C1110 C1114 1.512 1_565 S
C1111 C1110 1.369 . S
C1111 C1112 1.410 1_554 S
C1111 C1119 1.503 1_564 S
C1112 C1111 1.410 1_556 S
C1112 C1113 1.392 1_556 S
C1112 C1115 1.511 . S
C1113 C1109 1.376 . S
C1113 C1112 1.392 1_554 S
C1113 H1125 0.929 1_554 S
C1114 C1110 1.512 1_545 S
C1114 H1126 0.972 . S
C1114 H1127 0.926 . S
C1114 H1128 0.957 1_545 S
C1115 C1112 1.511 . S
C1115 H1129 0.961 . S
C1115 H1130 0.961 . S
C1115 H1131 0.961 . S
C1116 C1117 1.370 . S
C1116 C1118 1.363 . S
C1116 H1132 0.931 . S
C1117 C1116 1.370 . S
C1117 C1121 1.408 . S
C1118 C1116 1.363 . S
C1118 C1119 1.370 . S
C1118 C1122 1.525 1_545 S
C1119 C1111 1.503 1_546 S
C1119 C1118 1.370 . S
C1119 C1120 1.403 1_556 S
C1120 C1119 1.403 1_554 S
C1120 C1121 1.404 1_554 S
C1120 C1123 1.539 . S
C1121 C1117 1.408 . S
C1121 C1120 1.404 1_556 S
C1121 H1133 0.930 1_556 S
C1122 C1118 1.525 1_565 S
C1122 H1134 0.956 . S
C1122 H1135 0.957 . S
C1122 H1136 0.963 1_565 S
C1123 C1120 1.539 . S
C1123 H1137 0.958 . S
C1123 H1138 0.961 . S
C1123 H1139 0.960 . S
H1124 C1108 0.931 . S
H1125 C1113 0.929 1_556 S
H1126 C1114 0.972 . S
H1127 C1114 0.926 . S
H1128 C1114 0.957 1_565 S
H1129 C1115 0.961 . S
H1130 C1115 0.961 . S
H1131 C1115 0.961 . S
H1132 C1116 0.931 . S
H1133 C1121 0.930 1_554 S
H1134 C1122 0.956 . S
H1135 C1122 0.957 . S
H1136 C1122 0.963 1_545 S
H1137 C1123 0.958 . S
H1138 C1123 0.961 . S
H1139 C1123 0.960 . S
C1140 C1141 1.391 . S
C1140 C1142 1.394 . S
C1140 H1156 0.931 . S
C1141 C1140 1.391 . S
C1141 C1145 1.376 . S
C1142 C1140 1.394 . S
C1142 C1143 1.369 . S
C1142 C1146 1.562 . S
C1143 C1142 1.369 . S
C1143 C1144 1.410 1_556 S
C1143 C1151 1.503 1_656 S
C1144 C1143 1.410 1_554 S
C1144 C1145 1.392 1_554 S
C1144 C1147 1.511 . S
C1145 C1141 1.376 . S
C1145 C1144 1.392 1_556 S
C1145 H1157 0.931 . S
C1146 C1142 1.562 . S
C1146 H1158 0.940 1_655 S
C1146 H1159 0.946 . S
C1146 H1160 0.965 . S
C1147 C1144 1.511 . S
C1147 H1161 0.961 . S
C1147 H1162 0.961 . S
C1147 H1163 0.961 . S
C1148 C1149 1.370 . S
C1148 C1150 1.363 . S
C1148 H1164 0.931 . S
C1149 C1148 1.370 . S
C1149 C1153 1.407 1_554 S
C1150 C1148 1.363 . S
C1150 C1151 1.370 . S
C1150 C1154 1.499 1_455 S
C1151 C1143 1.503 1_454 S
C1151 C1150 1.370 . S
C1151 C1152 1.403 1_554 S
C1152 C1151 1.403 1_556 S
C1152 C1153 1.405 . S
C1152 C1155 1.539 . S
C1153 C1149 1.407 1_556 S
C1153 C1152 1.405 . S
C1153 H1165 0.931 . S
C1154 C1150 1.499 1_655 S
C1154 H1166 0.953 . S
C1154 H1167 1.030 . S
C1154 H1168 0.926 1_655 S
C1155 C1152 1.539 . S
C1155 H1169 0.958 . S
C1155 H1170 0.961 . S
C1155 H1171 0.960 . S
H1156 C1140 0.931 . S
H1157 C1145 0.931 . S
H1158 C1146 0.940 1_455 S
H1159 C1146 0.946 . S
H1160 C1146 0.965 . S
H1161 C1147 0.961 . S
H1162 C1147 0.961 . S
H1163 C1147 0.961 . S
H1164 C1148 0.931 . S
H1165 C1153 0.931 . S
H1166 C1154 0.953 . S
H1167 C1154 1.030 . S
H1168 C1154 0.926 1_455 S
H1169 C1155 0.958 . S
H1170 C1155 0.961 . S
H1171 C1155 0.960 . S
C1172 C1173 1.391 . S
C1172 C1174 1.394 . S
C1172 H1188 0.931 . S
C1173 C1172 1.391 . S
C1173 C1177 1.376 . S
C1174 C1172 1.394 . S
C1174 C1175 1.369 . S
C1174 C1178 1.531 . S
C1175 C1174 1.369 . S
C1175 C1176 1.410 . S
C1175 C1183 1.503 1_556 S
C1176 C1175 1.410 . S
C1176 C1177 1.392 . S
C1176 C1179 1.511 1_556 S
C1177 C1173 1.376 . S
C1177 C1176 1.392 . S
C1177 H1189 0.929 . S
C1178 C1174 1.531 . S
C1178 H1190 0.960 . S
C1178 H1191 0.962 . S
C1178 H1192 0.960 . S
C1179 C1176 1.511 1_554 S
C1179 H1193 0.961 . S
C1179 H1194 0.961 . S
C1179 H1195 0.961 . S
C1180 C1181 1.370 . S
C1180 C1182 1.363 . S
C1180 H1196 0.931 . S
C1181 C1180 1.370 . S
C1181 C1185 1.408 1_554 S
C1182 C1180 1.363 . S
C1182 C1183 1.370 . S
C1182 C1186 1.524 . S
C1183 C1175 1.503 1_554 S
C1183 C1182 1.370 . S
C1183 C1184 1.403 1_554 S
C1184 C1183 1.403 1_556 S
C1184 C1185 1.404 . S
C1184 C1187 1.539 . S
C1185 C1181 1.408 1_556 S
C1185 C1184 1.404 . S
C1185 H1197 0.930 . S
C1186 C1182 1.524 . S
C1186 H1198 0.956 . S
C1186 H1199 0.961 . S
C1186 H1200 0.961 . S
C1187 C1184 1.539 . S
C1187 H1201 0.958 . S
C1187 H1202 0.961 . S
C1187 H1203 0.960 . S
H1188 C1172 0.931 . S
H1189 C1177 0.929 . S
H1190 C1178 0.960 . S
H1191 C1178 0.962 . S
H1192 C1178 0.960 . S
H1193 C1179 0.961 . S
H1194 C1179 0.961 . S
H1195 C1179 0.961 . S
H1196 C1180 0.931 . S
H1197 C1185 0.930 . S
H1198 C1186 0.956 . S
H1199 C1186 0.961 . S
H1200 C1186 0.961 . S
H1201 C1187 0.958 . S
H1202 C1187 0.961 . S
H1203 C1187 0.960 . S
C1204 C1205 1.391 . S
C1204 C1206 1.394 . S
C1204 H1220 0.931 . S
C1205 C1204 1.391 . S
C1205 C1209 1.376 . S
C1206 C1204 1.394 . S
C1206 C1207 1.369 1_556 S
C1206 C1210 1.531 1_556 S
C1207 C1206 1.369 1_554 S
C1207 C1208 1.410 1_554 S
C1207 C1215 1.503 1_545 S
C1208 C1207 1.410 1_556 S
C1208 C1209 1.392 . S
C1208 C1211 1.511 . S
C1209 C1205 1.376 . S
C1209 C1208 1.392 . S
C1209 H1221 0.929 . S
C1210 C1206 1.531 1_554 S
C1210 H1222 0.960 . S
C1210 H1223 0.962 1_554 S
C1210 H1224 0.960 . S
C1211 C1208 1.511 . S
C1211 H1225 0.961 . S
C1211 H1226 0.961 1_545 S
C1211 H1227 0.961 1_556 S
C1212 C1213 1.370 1_556 S
C1212 C1214 1.363 . S
C1212 H1228 0.931 . S
C1213 C1212 1.370 1_554 S
C1213 C1217 1.408 . S
C1214 C1212 1.363 . S
C1214 C1215 1.370 1_556 S
C1214 C1218 1.524 . S
C1215 C1207 1.503 1_565 S
C1215 C1214 1.370 1_554 S
C1215 C1216 1.403 . S
C1216 C1215 1.403 . S
C1216 C1217 1.404 . S
C1216 C1219 1.478 1_565 S
C1217 C1213 1.408 . S
C1217 C1216 1.404 . S
C1217 H1229 0.930 . S
C1218 C1214 1.524 . S
C1218 H1230 0.956 . S
C1218 H1231 0.961 . S
C1218 H1232 0.961 . S
C1219 C1216 1.478 1_545 S
C1219 H1233 0.946 . S
C1219 H1234 0.963 1_545 S
C1219 H1235 1.043 . S
H1220 C1204 0.931 . S
H1221 C1209 0.929 . S
H1222 C1210 0.960 . S
H1223 C1210 0.962 1_556 S
H1224 C1210 0.960 . S
H1225 C1211 0.961 . S
H1226 C1211 0.961 1_565 S
H1227 C1211 0.961 1_554 S
H1228 C1212 0.931 . S
H1229 C1217 0.930 . S
H1230 C1218 0.956 . S
H1231 C1218 0.961 . S
H1232 C1218 0.961 . S
H1233 C1219 0.946 . S
H1234 C1219 0.963 1_565 S
H1235 C1219 1.043 . S
C1236 C1237 1.391 . S
C1236 C1238 1.394 . S
C1236 H1252 0.931 . S
C1237 C1236 1.391 . S
C1237 C1241 1.376 . S
C1238 C1236 1.394 . S
C1238 C1239 1.369 . S
C1238 C1242 1.531 . S
C1239 C1238 1.369 . S
C1239 C1240 1.410 . S
C1239 C1247 1.503 . S
C1240 C1239 1.410 . S
C1240 C1241 1.392 . S
C1240 C1243 1.511 . S
C1241 C1237 1.376 . S
C1241 C1240 1.392 . S
C1241 H1253 0.929 . S
C1242 C1238 1.531 . S
C1242 H1254 0.960 . S
C1242 H1255 0.962 . S
C1242 H1256 0.960 . S
C1243 C1240 1.511 . S
C1243 H1257 0.961 . S
C1243 H1258 0.961 . S
C1243 H1259 0.961 . S
C1244 C1245 1.370 . S
C1244 C1246 1.363 . S
C1244 H1260 0.931 . S
C1245 C1244 1.370 . S
C1245 C1249 1.408 . S
C1246 C1244 1.363 . S
C1246 C1247 1.370 . S
C1246 C1250 1.524 . S
C1247 C1239 1.503 . S
C1247 C1246 1.370 . S
C1247 C1248 1.403 . S
C1248 C1247 1.403 . S
C1248 C1249 1.404 . S
C1248 C1251 1.539 . S
C1249 C1245 1.408 . S
C1249 C1248 1.404 . S
C1249 H1261 0.930 . S
C1250 C1246 1.524 . S
C1250 H1262 0.956 . S
C1250 H1263 0.961 . S
C1250 H1264 0.961 . S
C1251 C1248 1.539 . S
C1251 H1265 0.958 . S
C1251 H1266 0.961 . S
C1251 H1267 0.960 . S
H1252 C1236 0.931 . S
H1253 C1241 0.929 . S
H1254 C1242 0.960 . S
H1255 C1242 0.962 . S
H1256 C1242 0.960 . S
H1257 C1243 0.961 . S
H1258 C1243 0.961 . S
H1259 C1243 0.961 . S
H1260 C1244 0.931 . S
H1261 C1249 0.930 . S
H1262 C1250 0.956 . S
H1263 C1250 0.961 . S
H1264 C1250 0.961 . S
H1265 C1251 0.958 . S
H1266 C1251 0.961 . S
H1267 C1251 0.960 . S
C1268 C1269 1.391 . S
C1268 C1270 1.394 . S
C1268 H1284 0.931 . S
C1269 C1268 1.391 . S
C1269 C1273 1.376 . S
C1270 C1268 1.394 . S
C1270 C1271 1.369 . S
C1270 C1274 1.531 . S
C1271 C1270 1.369 . S
C1271 C1272 1.410 . S
C1271 C1279 1.503 . S
C1272 C1271 1.410 . S
C1272 C1273 1.392 . S
C1272 C1275 1.511 . S
C1273 C1269 1.376 . S
C1273 C1272 1.392 . S
C1273 H1285 0.929 . S
C1274 C1270 1.531 . S
C1274 H1286 0.960 . S
C1274 H1287 0.962 . S
C1274 H1288 0.960 . S
C1275 C1272 1.511 . S
C1275 H1289 0.961 . S
C1275 H1290 0.961 . S
C1275 H1291 0.961 . S
C1276 C1277 1.370 . S
C1276 C1278 1.363 . S
C1276 H1292 0.931 . S
C1277 C1276 1.370 . S
C1277 C1281 1.408 . S
C1278 C1276 1.363 . S
C1278 C1279 1.370 . S
C1278 C1282 1.524 . S
C1279 C1271 1.503 . S
C1279 C1278 1.370 . S
C1279 C1280 1.403 . S
C1280 C1279 1.403 . S
C1280 C1281 1.404 . S
C1280 C1283 1.539 . S
C1281 C1277 1.408 . S
C1281 C1280 1.404 . S
C1281 H1293 0.930 . S
C1282 C1278 1.524 . S
C1282 H1294 0.956 . S
C1282 H1295 0.961 . S
C1282 H1296 0.961 . S
C1283 C1280 1.539 . S
C1283 H1297 0.958 . S
C1283 H1298 0.961 . S
C1283 H1299 0.960 . S
H1284 C1268 0.931 . S
H1285 C1273 0.929 . S
H1286 C1274 0.960 . S
H1287 C1274 0.962 . S
H1288 C1274 0.960 . S
H1289 C1275 0.961 . S
H1290 C1275 0.961 . S
H1291 C1275 0.961 . S
H1292 C1276 0.931 . S
H1293 C1281 0.930 . S
H1294 C1282 0.956 . S
H1295 C1282 0.961 . S
H1296 C1282 0.961 . S
H1297 C1283 0.958 . S
H1298 C1283 0.961 . S
H1299 C1283 0.960 . S
C1300 C1301 1.391 . S
C1300 C1302 1.394 . S
C1300 H1316 0.931 . S
C1301 C1300 1.391 . S
C1301 C1305 1.376 . S
C1302 C1300 1.394 . S
C1302 C1303 1.369 . S
C1302 C1306 1.531 . S
C1303 C1302 1.369 . S
C1303 C1304 1.410 . S
C1303 C1311 1.503 . S
C1304 C1303 1.410 . S
C1304 C1305 1.392 . S
C1304 C1307 1.511 . S
C1305 C1301 1.376 . S
C1305 C1304 1.392 . S
C1305 H1317 0.929 . S
C1306 C1302 1.531 . S
C1306 H1318 0.960 . S
C1306 H1319 0.962 . S
C1306 H1320 0.960 . S
C1307 C1304 1.511 . S
C1307 H1321 0.961 . S
C1307 H1322 0.961 . S
C1307 H1323 0.961 . S
C1308 C1309 1.370 . S
C1308 C1310 1.363 . S
C1308 H1324 0.931 . S
C1309 C1308 1.370 . S
C1309 C1313 1.408 . S
C1310 C1308 1.363 . S
C1310 C1311 1.370 . S
C1310 C1314 1.524 . S
C1311 C1303 1.503 . S
C1311 C1310 1.370 . S
C1311 C1312 1.403 . S
C1312 C1311 1.403 . S
C1312 C1313 1.404 . S
C1312 C1315 1.539 . S
C1313 C1309 1.408 . S
C1313 C1312 1.404 . S
C1313 H1325 0.930 . S
C1314 C1310 1.524 . S
C1314 H1326 0.956 . S
C1314 H1327 0.961 . S
C1314 H1328 0.961 . S
C1315 C1312 1.539 . S
C1315 H1329 0.958 . S
C1315 H1330 0.961 . S
C1315 H1331 0.960 . S
H1316 C1300 0.931 . S
H1317 C1305 0.929 . S
H1318 C1306 0.960 . S
H1319 C1306 0.962 . S
H1320 C1306 0.960 . S
H1321 C1307 0.961 . S
H1322 C1307 0.961 . S
H1323 C1307 0.961 . S
H1324 C1308 0.931 . S
H1325 C1313 0.930 . S
H1326 C1314 0.956 . S
H1327 C1314 0.961 . S
H1328 C1314 0.961 . S
H1329 C1315 0.958 . S
H1330 C1315 0.961 . S
H1331 C1315 0.960 . S
C1332 C1333 1.391 . S
C1332 C1334 1.394 . S
C1332 H1348 0.931 . S
C1333 C1332 1.391 . S
C1333 C1337 1.376 . S
C1334 C1332 1.394 . S
C1334 C1335 1.369 . S
C1334 C1338 1.531 . S
C1335 C1334 1.369 . S
C1335 C1336 1.410 . S
C1335 C1343 1.503 . S
C1336 C1335 1.410 . S
C1336 C1337 1.392 . S
C1336 C1339 1.511 . S
C1337 C1333 1.376 . S
C1337 C1336 1.392 . S
C1337 H1349 0.929 . S
C1338 C1334 1.531 . S
C1338 H1350 0.960 . S
C1338 H1351 0.962 . S
C1338 H1352 0.960 . S
C1339 C1336 1.511 . S
C1339 H1353 0.961 . S
C1339 H1354 0.961 . S
C1339 H1355 0.961 . S
C1340 C1341 1.370 . S
C1340 C1342 1.363 . S
C1340 H1356 0.931 . S
C1341 C1340 1.370 . S
C1341 C1345 1.408 . S
C1342 C1340 1.363 . S
C1342 C1343 1.370 . S
C1342 C1346 1.524 . S
C1343 C1335 1.503 . S
C1343 C1342 1.370 . S
C1343 C1344 1.403 . S
C1344 C1343 1.403 . S
C1344 C1345 1.404 . S
C1344 C1347 1.539 . S
C1345 C1341 1.408 . S
C1345 C1344 1.404 . S
C1345 H1357 0.930 . S
C1346 C1342 1.524 . S
C1346 H1358 0.956 . S
C1346 H1359 0.961 . S
C1346 H1360 0.961 . S
C1347 C1344 1.539 . S
C1347 H1361 0.958 . S
C1347 H1362 0.961 . S
C1347 H1363 0.960 . S
H1348 C1332 0.931 . S
H1349 C1337 0.929 . S
H1350 C1338 0.960 . S
H1351 C1338 0.962 . S
H1352 C1338 0.960 . S
H1353 C1339 0.961 . S
H1354 C1339 0.961 . S
H1355 C1339 0.961 . S
H1356 C1340 0.931 . S
H1357 C1345 0.930 . S
H1358 C1346 0.956 . S
H1359 C1346 0.961 . S
H1360 C1346 0.961 . S
H1361 C1347 0.958 . S
H1362 C1347 0.961 . S
H1363 C1347 0.960 . S
C1364 C1365 1.391 . S
C1364 C1366 1.394 . S
C1364 H1380 0.931 . S
C1365 C1364 1.391 . S
C1365 C1369 1.376 . S
C1366 C1364 1.394 . S
C1366 C1367 1.369 . S
C1366 C1370 1.531 . S
C1367 C1366 1.369 . S
C1367 C1368 1.410 . S
C1367 C1375 1.503 . S
C1368 C1367 1.410 . S
C1368 C1369 1.392 . S
C1368 C1371 1.511 . S
C1369 C1365 1.376 . S
C1369 C1368 1.392 . S
C1369 H1381 0.929 . S
C1370 C1366 1.531 . S
C1370 H1382 0.960 . S
C1370 H1383 0.962 . S
C1370 H1384 0.960 . S
C1371 C1368 1.511 . S
C1371 H1385 0.961 . S
C1371 H1386 0.961 . S
C1371 H1387 0.961 . S
C1372 C1373 1.370 . S
C1372 C1374 1.363 . S
C1372 H1388 0.931 . S
C1373 C1372 1.370 . S
C1373 C1377 1.408 . S
C1374 C1372 1.363 . S
C1374 C1375 1.370 . S
C1374 C1378 1.524 . S
C1375 C1367 1.503 . S
C1375 C1374 1.370 . S
C1375 C1376 1.403 . S
C1376 C1375 1.403 . S
C1376 C1377 1.404 . S
C1376 C1379 1.539 . S
C1377 C1373 1.408 . S
C1377 C1376 1.404 . S
C1377 H1389 0.930 . S
C1378 C1374 1.524 . S
C1378 H1390 0.956 . S
C1378 H1391 0.961 . S
C1378 H1392 0.961 . S
C1379 C1376 1.539 . S
C1379 H1393 0.958 . S
C1379 H1394 0.961 . S
C1379 H1395 0.960 . S
H1380 C1364 0.931 . S
H1381 C1369 0.929 . S
H1382 C1370 0.960 . S
H1383 C1370 0.962 . S
H1384 C1370 0.960 . S
H1385 C1371 0.961 . S
H1386 C1371 0.961 . S
H1387 C1371 0.961 . S
H1388 C1372 0.931 . S
H1389 C1377 0.930 . S
H1390 C1378 0.956 . S
H1391 C1378 0.961 . S
H1392 C1378 0.961 . S
H1393 C1379 0.958 . S
H1394 C1379 0.961 . S
H1395 C1379 0.960 . S
C1396 C1397 1.391 . S
C1396 C1398 1.394 . S
C1396 H1412 0.931 . S
C1397 C1396 1.391 . S
C1397 C1401 1.376 . S
C1398 C1396 1.394 . S
C1398 C1399 1.369 . S
C1398 C1402 1.531 . S
C1399 C1398 1.369 . S
C1399 C1400 1.410 . S
C1399 C1407 1.503 . S
C1400 C1399 1.410 . S
C1400 C1401 1.392 . S
C1400 C1403 1.511 . S
C1401 C1397 1.376 . S
C1401 C1400 1.392 . S
C1401 H1413 0.929 . S
C1402 C1398 1.531 . S
C1402 H1414 0.960 . S
C1402 H1415 0.962 . S
C1402 H1416 0.960 . S
C1403 C1400 1.511 . S
C1403 H1417 0.961 . S
C1403 H1418 0.961 . S
C1403 H1419 0.961 . S
C1404 C1405 1.370 . S
C1404 C1406 1.363 . S
C1404 H1420 0.931 . S
C1405 C1404 1.370 . S
C1405 C1409 1.408 . S
C1406 C1404 1.363 . S
C1406 C1407 1.370 . S
C1406 C1410 1.524 . S
C1407 C1399 1.503 . S
C1407 C1406 1.370 . S
C1407 C1408 1.403 . S
C1408 C1407 1.403 . S
C1408 C1409 1.404 . S
C1408 C1411 1.539 . S
C1409 C1405 1.408 . S
C1409 C1408 1.404 . S
C1409 H1421 0.930 . S
C1410 C1406 1.524 . S
C1410 H1422 0.956 . S
C1410 H1423 0.961 . S
C1410 H1424 0.961 . S
C1411 C1408 1.539 . S
C1411 H1425 0.958 . S
C1411 H1426 0.961 . S
C1411 H1427 0.960 . S
H1412 C1396 0.931 . S
H1413 C1401 0.929 . S
H1414 C1402 0.960 . S
H1415 C1402 0.962 . S
H1416 C1402 0.960 . S
H1417 C1403 0.961 . S
H1418 C1403 0.961 . S
H1419 C1403 0.961 . S
H1420 C1404 0.931 . S
H1421 C1409 0.930 . S
H1422 C1410 0.956 . S
H1423 C1410 0.961 . S
H1424 C1410 0.961 . S
H1425 C1411 0.958 . S
H1426 C1411 0.961 . S
H1427 C1411 0.960 . S
C1428 C1429 1.391 . S
C1428 C1430 1.394 . S
C1428 H1444 0.931 . S
C1429 C1428 1.391 . S
C1429 C1433 1.376 . S
C1430 C1428 1.394 . S
C1430 C1431 1.369 . S
C1430 C1434 1.531 . S
C1431 C1430 1.369 . S
C1431 C1432 1.410 . S
C1431 C1439 1.503 . S
C1432 C1431 1.410 . S
C1432 C1433 1.392 . S
C1432 C1435 1.511 . S
C1433 C1429 1.376 . S
C1433 C1432 1.392 . S
C1433 H1445 0.929 . S
C1434 C1430 1.531 . S
C1434 H1446 0.960 . S
C1434 H1447 0.962 . S
C1434 H1448 0.960 . S
C1435 C1432 1.511 . S
C1435 H1449 0.961 . S
C1435 H1450 0.961 . S
C1435 H1451 0.961 . S
C1436 C1437 1.370 . S
C1436 C1438 1.363 . S
C1436 H1452 0.931 . S
C1437 C1436 1.370 . S
C1437 C1441 1.408 . S
C1438 C1436 1.363 . S
C1438 C1439 1.370 . S
C1438 C1442 1.524 . S
C1439 C1431 1.503 . S
C1439 C1438 1.370 . S
C1439 C1440 1.403 . S
C1440 C1439 1.403 . S
C1440 C1441 1.404 . S
C1440 C1443 1.539 . S
C1441 C1437 1.408 . S
C1441 C1440 1.404 . S
C1441 H1453 0.930 . S
C1442 C1438 1.524 . S
C1442 H1454 0.956 . S
C1442 H1455 0.961 . S
C1442 H1456 0.961 . S
C1443 C1440 1.539 . S
C1443 H1457 0.958 . S
C1443 H1458 0.961 . S
C1443 H1459 0.960 . S
H1444 C1428 0.931 . S
H1445 C1433 0.929 . S
H1446 C1434 0.960 . S
H1447 C1434 0.962 . S
H1448 C1434 0.960 . S
H1449 C1435 0.961 . S
H1450 C1435 0.961 . S
H1451 C1435 0.961 . S
H1452 C1436 0.931 . S
H1453 C1441 0.930 . S
H1454 C1442 0.956 . S
H1455 C1442 0.961 . S
H1456 C1442 0.961 . S
H1457 C1443 0.958 . S
H1458 C1443 0.961 . S
H1459 C1443 0.960 . S
C1460 C1461 1.391 . S
C1460 C1462 1.394 . S
C1460 H1476 0.931 . S
C1461 C1460 1.391 . S
C1461 C1465 1.376 . S
C1462 C1460 1.394 . S
C1462 C1463 1.369 . S
C1462 C1466 1.531 . S
C1463 C1462 1.369 . S
C1463 C1464 1.410 . S
C1463 C1471 1.503 . S
C1464 C1463 1.410 . S
C1464 C1465 1.392 . S
C1464 C1467 1.511 . S
C1465 C1461 1.376 . S
C1465 C1464 1.392 . S
C1465 H1477 0.929 . S
C1466 C1462 1.531 . S
C1466 H1478 0.960 . S
C1466 H1479 0.962 . S
C1466 H1480 0.960 . S
C1467 C1464 1.511 . S
C1467 H1481 0.961 . S
C1467 H1482 0.961 . S
C1467 H1483 0.961 . S
C1468 C1469 1.370 . S
C1468 C1470 1.363 . S
C1468 H1484 0.931 . S
C1469 C1468 1.370 . S
C1469 C1473 1.408 . S
C1470 C1468 1.363 . S
C1470 C1471 1.370 . S
C1470 C1474 1.524 . S
C1471 C1463 1.503 . S
C1471 C1470 1.370 . S
C1471 C1472 1.403 . S
C1472 C1471 1.403 . S
C1472 C1473 1.404 . S
C1472 C1475 1.539 . S
C1473 C1469 1.408 . S
C1473 C1472 1.404 . S
C1473 H1485 0.930 . S
C1474 C1470 1.524 . S
C1474 H1486 0.956 . S
C1474 H1487 0.961 . S
C1474 H1488 0.961 . S
C1475 C1472 1.539 . S
C1475 H1489 0.958 . S
C1475 H1490 0.961 . S
C1475 H1491 0.960 . S
H1476 C1460 0.931 . S
H1477 C1465 0.929 . S
H1478 C1466 0.960 . S
H1479 C1466 0.962 . S
H1480 C1466 0.960 . S
H1481 C1467 0.961 . S
H1482 C1467 0.961 . S
H1483 C1467 0.961 . S
H1484 C1468 0.931 . S
H1485 C1473 0.930 . S
H1486 C1474 0.956 . S
H1487 C1474 0.961 . S
H1488 C1474 0.961 . S
H1489 C1475 0.958 . S
H1490 C1475 0.961 . S
H1491 C1475 0.960 . S
C1492 C1493 1.391 . S
C1492 C1494 1.394 . S
C1492 H1508 0.931 . S
C1493 C1492 1.391 . S
C1493 C1497 1.376 . S
C1494 C1492 1.394 . S
C1494 C1495 1.369 . S
C1494 C1498 1.531 . S
C1495 C1494 1.369 . S
C1495 C1496 1.410 . S
C1495 C1503 1.503 . S
C1496 C1495 1.410 . S
C1496 C1497 1.392 . S
C1496 C1499 1.511 . S
C1497 C1493 1.376 . S
C1497 C1496 1.392 . S
C1497 H1509 0.929 . S
C1498 C1494 1.531 . S
C1498 H1510 0.960 . S
C1498 H1511 0.962 . S
C1498 H1512 0.960 . S
C1499 C1496 1.511 . S
C1499 H1513 0.961 . S
C1499 H1514 0.961 . S
C1499 H1515 0.961 . S
C1500 C1501 1.370 . S
C1500 C1502 1.363 . S
C1500 H1516 0.931 . S
C1501 C1500 1.370 . S
C1501 C1505 1.408 . S
C1502 C1500 1.363 . S
C1502 C1503 1.370 . S
C1502 C1506 1.524 . S
C1503 C1495 1.503 . S
C1503 C1502 1.370 . S
C1503 C1504 1.403 . S
C1504 C1503 1.403 . S
C1504 C1505 1.404 . S
C1504 C1507 1.539 . S
C1505 C1501 1.408 . S
C1505 C1504 1.404 . S
C1505 H1517 0.930 . S
C1506 C1502 1.524 . S
C1506 H1518 0.956 . S
C1506 H1519 0.961 . S
C1506 H1520 0.961 . S
C1507 C1504 1.539 . S
C1507 H1521 0.958 . S
C1507 H1522 0.961 . S
C1507 H1523 0.960 . S
H1508 C1492 0.931 . S
H1509 C1497 0.929 . S
H1510 C1498 0.960 . S
H1511 C1498 0.962 . S
H1512 C1498 0.960 . S
H1513 C1499 0.961 . S
H1514 C1499 0.961 . S
H1515 C1499 0.961 . S
H1516 C1500 0.931 . S
H1517 C1505 0.930 . S
H1518 C1506 0.956 . S
H1519 C1506 0.961 . S
H1520 C1506 0.961 . S
H1521 C1507 0.958 . S
H1522 C1507 0.961 . S
H1523 C1507 0.960 . S
C1524 C1525 1.391 . S
C1524 C1526 1.394 . S
C1524 H1540 0.931 . S
C1525 C1524 1.391 . S
C1525 C1529 1.376 . S
C1526 C1524 1.394 . S
C1526 C1527 1.369 . S
C1526 C1530 1.531 . S
C1527 C1526 1.369 . S
C1527 C1528 1.410 . S
C1527 C1535 1.503 . S
C1528 C1527 1.410 . S
C1528 C1529 1.392 . S
C1528 C1531 1.511 . S
C1529 C1525 1.376 . S
C1529 C1528 1.392 . S
C1529 H1541 0.929 . S
C1530 C1526 1.531 . S
C1530 H1542 0.960 . S
C1530 H1543 0.962 . S
C1530 H1544 0.960 . S
C1531 C1528 1.511 . S
C1531 H1545 0.961 . S
C1531 H1546 0.961 . S
C1531 H1547 0.961 . S
C1532 C1533 1.370 . S
C1532 C1534 1.363 . S
C1532 H1548 0.931 . S
C1533 C1532 1.370 . S
C1533 C1537 1.408 . S
C1534 C1532 1.363 . S
C1534 C1535 1.370 . S
C1534 C1538 1.524 . S
C1535 C1527 1.503 . S
C1535 C1534 1.370 . S
C1535 C1536 1.403 . S
C1536 C1535 1.403 . S
C1536 C1537 1.404 . S
C1536 C1539 1.539 . S
C1537 C1533 1.408 . S
C1537 C1536 1.404 . S
C1537 H1549 0.930 . S
C1538 C1534 1.524 . S
C1538 H1550 0.956 . S
C1538 H1551 0.961 . S
C1538 H1552 0.961 . S
C1539 C1536 1.539 . S
C1539 H1553 0.958 . S
C1539 H1554 0.961 . S
C1539 H1555 0.960 . S
H1540 C1524 0.931 . S
H1541 C1529 0.929 . S
H1542 C1530 0.960 . S
H1543 C1530 0.962 . S
H1544 C1530 0.960 . S
H1545 C1531 0.961 . S
H1546 C1531 0.961 . S
H1547 C1531 0.961 . S
H1548 C1532 0.931 . S
H1549 C1537 0.930 . S
H1550 C1538 0.956 . S
H1551 C1538 0.961 . S
H1552 C1538 0.961 . S
H1553 C1539 0.958 . S
H1554 C1539 0.961 . S
H1555 C1539 0.960 . S
C1556 C1557 1.391 . S
C1556 C1558 1.394 . S
C1556 H1572 0.931 . S
C1557 C1556 1.391 . S
C1557 C1561 1.376 . S
C1558 C1556 1.394 . S
C1558 C1559 1.369 . S
C1558 C1562 1.531 . S
C1559 C1558 1.369 . S
C1559 C1560 1.410 . S
C1559 C1567 1.503 . S
C1560 C1559 1.410 . S
C1560 C1561 1.392 . S
C1560 C1563 1.511 . S
C1561 C1557 1.376 . S
C1561 C1560 1.392 . S
C1561 H1573 0.929 . S
C1562 C1558 1.531 . S
C1562 H1574 0.960 . S
C1562 H1575 0.962 . S
C1562 H1576 0.960 . S
C1563 C1560 1.511 . S
C1563 H1577 0.961 . S
C1563 H1578 0.961 . S
C1563 H1579 0.961 . S
C1564 C1565 1.370 . S
C1564 C1566 1.363 . S
C1564 H1580 0.931 . S
C1565 C1564 1.370 . S
C1565 C1569 1.408 . S
C1566 C1564 1.363 . S
C1566 C1567 1.370 . S
C1566 C1570 1.524 . S
C1567 C1559 1.503 . S
C1567 C1566 1.370 . S
C1567 C1568 1.403 . S
C1568 C1567 1.403 . S
C1568 C1569 1.404 . S
C1568 C1571 1.539 . S
C1569 C1565 1.408 . S
C1569 C1568 1.404 . S
C1569 H1581 0.930 . S
C1570 C1566 1.524 . S
C1570 H1582 0.956 . S
C1570 H1583 0.961 . S
C1570 H1584 0.961 . S
C1571 C1568 1.539 . S
C1571 H1585 0.958 . S
C1571 H1586 0.961 . S
C1571 H1587 0.960 . S
H1572 C1556 0.931 . S
H1573 C1561 0.929 . S
H1574 C1562 0.960 . S
H1575 C1562 0.962 . S
H1576 C1562 0.960 . S
H1577 C1563 0.961 . S
H1578 C1563 0.961 . S
H1579 C1563 0.961 . S
H1580 C1564 0.931 . S
H1581 C1569 0.930 . S
H1582 C1570 0.956 . S
H1583 C1570 0.961 . S
H1584 C1570 0.961 . S
H1585 C1571 0.958 . S
H1586 C1571 0.961 . S
H1587 C1571 0.960 . S
C1588 C1589 1.391 . S
C1588 C1590 1.394 . S
C1588 H1604 0.931 . S
C1589 C1588 1.391 . S
C1589 C1593 1.376 . S
C1590 C1588 1.394 . S
C1590 C1591 1.369 . S
C1590 C1594 1.531 . S
C1591 C1590 1.369 . S
C1591 C1592 1.410 . S
C1591 C1599 1.503 . S
C1592 C1591 1.410 . S
C1592 C1593 1.392 . S
C1592 C1595 1.511 . S
C1593 C1589 1.376 . S
C1593 C1592 1.392 . S
C1593 H1605 0.929 . S
C1594 C1590 1.531 . S
C1594 H1606 0.960 . S
C1594 H1607 0.962 . S
C1594 H1608 0.960 . S
C1595 C1592 1.511 . S
C1595 H1609 0.961 . S
C1595 H1610 0.961 . S
C1595 H1611 0.961 . S
C1596 C1597 1.370 . S
C1596 C1598 1.363 . S
C1596 H1612 0.931 . S
C1597 C1596 1.370 . S
C1597 C1601 1.408 . S
C1598 C1596 1.363 . S
C1598 C1599 1.370 . S
C1598 C1602 1.524 . S
C1599 C1591 1.503 . S
C1599 C1598 1.370 . S
C1599 C1600 1.403 . S
C1600 C1599 1.403 . S
C1600 C1601 1.404 . S
C1600 C1603 1.539 . S
C1601 C1597 1.408 . S
C1601 C1600 1.404 . S
C1601 H1613 0.930 . S
C1602 C1598 1.524 . S
C1602 H1614 0.956 . S
C1602 H1615 0.961 . S
C1602 H1616 0.961 . S
C1603 C1600 1.539 . S
C1603 H1617 0.958 . S
C1603 H1618 0.961 . S
C1603 H1619 0.960 . S
H1604 C1588 0.931 . S
H1605 C1593 0.929 . S
H1606 C1594 0.960 . S
H1607 C1594 0.962 . S
H1608 C1594 0.960 . S
H1609 C1595 0.961 . S
H1610 C1595 0.961 . S
H1611 C1595 0.961 . S
H1612 C1596 0.931 . S
H1613 C1601 0.930 . S
H1614 C1602 0.956 . S
H1615 C1602 0.961 . S
H1616 C1602 0.961 . S
H1617 C1603 0.958 . S
H1618 C1603 0.961 . S
H1619 C1603 0.960 . S
C1620 C1621 1.391 . S
C1620 C1622 1.394 . S
C1620 H1636 0.931 . S
C1621 C1620 1.391 . S
C1621 C1625 1.376 . S
C1622 C1620 1.394 . S
C1622 C1623 1.369 . S
C1622 C1626 1.531 . S
C1623 C1622 1.369 . S
C1623 C1624 1.410 . S
C1623 C1631 1.503 . S
C1624 C1623 1.410 . S
C1624 C1625 1.392 . S
C1624 C1627 1.511 . S
C1625 C1621 1.376 . S
C1625 C1624 1.392 . S
C1625 H1637 0.929 . S
C1626 C1622 1.531 . S
C1626 H1638 0.960 . S
C1626 H1639 0.962 . S
C1626 H1640 0.960 . S
C1627 C1624 1.511 . S
C1627 H1641 0.961 . S
C1627 H1642 0.961 . S
C1627 H1643 0.961 . S
C1628 C1629 1.370 . S
C1628 C1630 1.363 . S
C1628 H1644 0.931 . S
C1629 C1628 1.370 . S
C1629 C1633 1.408 . S
C1630 C1628 1.363 . S
C1630 C1631 1.370 . S
C1630 C1634 1.524 . S
C1631 C1623 1.503 . S
C1631 C1630 1.370 . S
C1631 C1632 1.403 . S
C1632 C1631 1.403 . S
C1632 C1633 1.404 . S
C1632 C1635 1.539 . S
C1633 C1629 1.408 . S
C1633 C1632 1.404 . S
C1633 H1645 0.930 . S
C1634 C1630 1.524 . S
C1634 H1646 0.956 . S
C1634 H1647 0.961 . S
C1634 H1648 0.961 . S
C1635 C1632 1.539 . S
C1635 H1649 0.958 . S
C1635 H1650 0.961 . S
C1635 H1651 0.960 . S
H1636 C1620 0.931 . S
H1637 C1625 0.929 . S
H1638 C1626 0.960 . S
H1639 C1626 0.962 . S
H1640 C1626 0.960 . S
H1641 C1627 0.961 . S
H1642 C1627 0.961 . S
H1643 C1627 0.961 . S
H1644 C1628 0.931 . S
H1645 C1633 0.930 . S
H1646 C1634 0.956 . S
H1647 C1634 0.961 . S
H1648 C1634 0.961 . S
H1649 C1635 0.958 . S
H1650 C1635 0.961 . S
H1651 C1635 0.960 . S
C1652 C1653 1.391 . S
C1652 C1654 1.394 . S
C1652 H1668 0.931 . S
C1653 C1652 1.391 . S
C1653 C1657 1.376 . S
C1654 C1652 1.394 . S
C1654 C1655 1.369 . S
C1654 C1658 1.531 . S
C1655 C1654 1.369 . S
C1655 C1656 1.410 . S
C1655 C1663 1.503 . S
C1656 C1655 1.410 . S
C1656 C1657 1.392 . S
C1656 C1659 1.511 . S
C1657 C1653 1.376 . S
C1657 C1656 1.392 . S
C1657 H1669 0.929 . S
C1658 C1654 1.531 . S
C1658 H1670 0.960 . S
C1658 H1671 0.962 . S
C1658 H1672 0.960 . S
C1659 C1656 1.511 . S
C1659 H1673 0.961 . S
C1659 H1674 0.961 . S
C1659 H1675 0.961 . S
C1660 C1661 1.370 . S
C1660 C1662 1.363 . S
C1660 H1676 0.931 . S
C1661 C1660 1.370 . S
C1661 C1665 1.408 . S
C1662 C1660 1.363 . S
C1662 C1663 1.370 . S
C1662 C1666 1.524 . S
C1663 C1655 1.503 . S
C1663 C1662 1.370 . S
C1663 C1664 1.403 . S
C1664 C1663 1.403 . S
C1664 C1665 1.404 . S
C1664 C1667 1.539 . S
C1665 C1661 1.408 . S
C1665 C1664 1.404 . S
C1665 H1677 0.930 . S
C1666 C1662 1.524 . S
C1666 H1678 0.956 . S
C1666 H1679 0.961 . S
C1666 H1680 0.961 . S
C1667 C1664 1.539 . S
C1667 H1681 0.958 . S
C1667 H1682 0.961 . S
C1667 H1683 0.960 . S
H1668 C1652 0.931 . S
H1669 C1657 0.929 . S
H1670 C1658 0.960 . S
H1671 C1658 0.962 . S
H1672 C1658 0.960 . S
H1673 C1659 0.961 . S
H1674 C1659 0.961 . S
H1675 C1659 0.961 . S
H1676 C1660 0.931 . S
H1677 C1665 0.930 . S
H1678 C1666 0.956 . S
H1679 C1666 0.961 . S
H1680 C1666 0.961 . S
H1681 C1667 0.958 . S
H1682 C1667 0.961 . S
H1683 C1667 0.960 . S
C1684 C1685 1.391 . S
C1684 C1686 1.394 . S
C1684 H1700 0.931 . S
C1685 C1684 1.391 . S
C1685 C1689 1.376 . S
C1686 C1684 1.394 . S
C1686 C1687 1.369 . S
C1686 C1690 1.531 . S
C1687 C1686 1.369 . S
C1687 C1688 1.410 . S
C1687 C1695 1.503 . S
C1688 C1687 1.410 . S
C1688 C1689 1.392 . S
C1688 C1691 1.511 . S
C1689 C1685 1.376 . S
C1689 C1688 1.392 . S
C1689 H1701 0.929 . S
C1690 C1686 1.531 . S
C1690 H1702 0.960 . S
C1690 H1703 0.962 . S
C1690 H1704 0.960 . S
C1691 C1688 1.511 . S
C1691 H1705 0.961 . S
C1691 H1706 0.961 . S
C1691 H1707 0.961 . S
C1692 C1693 1.370 . S
C1692 C1694 1.363 . S
C1692 H1708 0.931 . S
C1693 C1692 1.370 . S
C1693 C1697 1.408 . S
C1694 C1692 1.363 . S
C1694 C1695 1.370 . S
C1694 C1698 1.524 . S
C1695 C1687 1.503 . S
C1695 C1694 1.370 . S
C1695 C1696 1.403 . S
C1696 C1695 1.403 . S
C1696 C1697 1.404 . S
C1696 C1699 1.539 . S
C1697 C1693 1.408 . S
C1697 C1696 1.404 . S
C1697 H1709 0.930 . S
C1698 C1694 1.524 . S
C1698 H1710 0.956 . S
C1698 H1711 0.961 . S
C1698 H1712 0.961 . S
C1699 C1696 1.539 . S
C1699 H1713 0.958 . S
C1699 H1714 0.961 . S
C1699 H1715 0.960 . S
H1700 C1684 0.931 . S
H1701 C1689 0.929 . S
H1702 C1690 0.960 . S
H1703 C1690 0.962 . S
H1704 C1690 0.960 . S
H1705 C1691 0.961 . S
H1706 C1691 0.961 . S
H1707 C1691 0.961 . S
H1708 C1692 0.931 . S
H1709 C1697 0.930 . S
H1710 C1698 0.956 . S
H1711 C1698 0.961 . S
H1712 C1698 0.961 . S
H1713 C1699 0.958 . S
H1714 C1699 0.961 . S
H1715 C1699 0.960 . S
C1716 C1717 1.391 . S
C1716 C1718 1.394 . S
C1716 H1732 0.931 . S
C1717 C1716 1.391 . S
C1717 C1721 1.376 . S
C1718 C1716 1.394 . S
C1718 C1719 1.369 . S
C1718 C1722 1.531 . S
C1719 C1718 1.369 . S
C1719 C1720 1.410 . S
C1719 C1727 1.503 . S
C1720 C1719 1.410 . S
C1720 C1721 1.392 . S
C1720 C1723 1.511 . S
C1721 C1717 1.376 . S
C1721 C1720 1.392 . S
C1721 H1733 0.929 . S
C1722 C1718 1.531 . S
C1722 H1734 0.960 . S
C1722 H1735 0.962 . S
C1722 H1736 0.960 . S
C1723 C1720 1.511 . S
C1723 H1737 0.961 . S
C1723 H1738 0.961 . S
C1723 H1739 0.961 . S
C1724 C1725 1.370 . S
C1724 C1726 1.363 . S
C1724 H1740 0.931 . S
C1725 C1724 1.370 . S
C1725 C1729 1.408 . S
C1726 C1724 1.363 . S
C1726 C1727 1.370 . S
C1726 C1730 1.524 . S
C1727 C1719 1.503 . S
C1727 C1726 1.370 . S
C1727 C1728 1.403 . S
C1728 C1727 1.403 . S
C1728 C1729 1.404 . S
C1728 C1731 1.539 . S
C1729 C1725 1.408 . S
C1729 C1728 1.404 . S
C1729 H1741 0.930 . S
C1730 C1726 1.524 . S
C1730 H1742 0.956 . S
C1730 H1743 0.961 . S
C1730 H1744 0.961 . S
C1731 C1728 1.539 . S
C1731 H1745 0.958 . S
C1731 H1746 0.961 . S
C1731 H1747 0.960 . S
H1732 C1716 0.931 . S
H1733 C1721 0.929 . S
H1734 C1722 0.960 . S
H1735 C1722 0.962 . S
H1736 C1722 0.960 . S
H1737 C1723 0.961 . S
H1738 C1723 0.961 . S
H1739 C1723 0.961 . S
H1740 C1724 0.931 . S
H1741 C1729 0.930 . S
H1742 C1730 0.956 . S
H1743 C1730 0.961 . S
H1744 C1730 0.961 . S
H1745 C1731 0.958 . S
H1746 C1731 0.961 . S
H1747 C1731 0.960 . S
C1748 C1749 1.391 . S
C1748 C1750 1.394 . S
C1748 H1764 0.931 . S
C1749 C1748 1.391 . S
C1749 C1753 1.376 . S
C1750 C1748 1.394 . S
C1750 C1751 1.369 . S
C1750 C1754 1.531 . S
C1751 C1750 1.369 . S
C1751 C1752 1.410 . S
C1751 C1759 1.503 . S
C1752 C1751 1.410 . S
C1752 C1753 1.392 . S
C1752 C1755 1.511 . S
C1753 C1749 1.376 . S
C1753 C1752 1.392 . S
C1753 H1765 0.929 . S
C1754 C1750 1.531 . S
C1754 H1766 0.960 . S
C1754 H1767 0.962 . S
C1754 H1768 0.960 . S
C1755 C1752 1.511 . S
C1755 H1769 0.961 . S
C1755 H1770 0.961 . S
C1755 H1771 0.961 . S
C1756 C1757 1.370 . S
C1756 C1758 1.363 . S
C1756 H1772 0.931 . S
C1757 C1756 1.370 . S
C1757 C1761 1.408 . S
C1758 C1756 1.363 . S
C1758 C1759 1.370 . S
C1758 C1762 1.524 . S
C1759 C1751 1.503 . S
C1759 C1758 1.370 . S
C1759 C1760 1.403 . S
C1760 C1759 1.403 . S
C1760 C1761 1.404 . S
C1760 C1763 1.539 . S
C1761 C1757 1.408 . S
C1761 C1760 1.404 . S
C1761 H1773 0.930 . S
C1762 C1758 1.524 . S
C1762 H1774 0.956 . S
C1762 H1775 0.961 . S
C1762 H1776 0.961 . S
C1763 C1760 1.539 . S
C1763 H1777 0.958 . S
C1763 H1778 0.961 . S
C1763 H1779 0.960 . S
H1764 C1748 0.931 . S
H1765 C1753 0.929 . S
H1766 C1754 0.960 . S
H1767 C1754 0.962 . S
H1768 C1754 0.960 . S
H1769 C1755 0.961 . S
H1770 C1755 0.961 . S
H1771 C1755 0.961 . S
H1772 C1756 0.931 . S
H1773 C1761 0.930 . S
H1774 C1762 0.956 . S
H1775 C1762 0.961 . S
H1776 C1762 0.961 . S
H1777 C1763 0.958 . S
H1778 C1763 0.961 . S
H1779 C1763 0.960 . S
C1780 C1781 1.391 . S
C1780 C1782 1.394 . S
C1780 H1796 0.931 . S
C1781 C1780 1.391 . S
C1781 C1785 1.376 . S
C1782 C1780 1.394 . S
C1782 C1783 1.369 . S
C1782 C1786 1.531 . S
C1783 C1782 1.369 . S
C1783 C1784 1.410 . S
C1783 C1791 1.503 . S
C1784 C1783 1.410 . S
C1784 C1785 1.392 . S
C1784 C1787 1.511 . S
C1785 C1781 1.376 . S
C1785 C1784 1.392 . S
C1785 H1797 0.929 . S
C1786 C1782 1.531 . S
C1786 H1798 0.960 . S
C1786 H1799 0.962 . S
C1786 H1800 0.960 . S
C1787 C1784 1.511 . S
C1787 H1801 0.961 . S
C1787 H1802 0.961 . S
C1787 H1803 0.961 . S
C1788 C1789 1.370 . S
C1788 C1790 1.363 . S
C1788 H1804 0.931 . S
C1789 C1788 1.370 . S
C1789 C1793 1.408 . S
C1790 C1788 1.363 . S
C1790 C1791 1.370 . S
C1790 C1794 1.524 . S
C1791 C1783 1.503 . S
C1791 C1790 1.370 . S
C1791 C1792 1.403 . S
C1792 C1791 1.403 . S
C1792 C1793 1.404 . S
C1792 C1795 1.539 . S
C1793 C1789 1.408 . S
C1793 C1792 1.404 . S
C1793 H1805 0.930 . S
C1794 C1790 1.524 . S
C1794 H1806 0.956 . S
C1794 H1807 0.961 . S
C1794 H1808 0.961 . S
C1795 C1792 1.539 . S
C1795 H1809 0.958 . S
C1795 H1810 0.961 . S
C1795 H1811 0.960 . S
H1796 C1780 0.931 . S
H1797 C1785 0.929 . S
H1798 C1786 0.960 . S
H1799 C1786 0.962 . S
H1800 C1786 0.960 . S
H1801 C1787 0.961 . S
H1802 C1787 0.961 . S
H1803 C1787 0.961 . S
H1804 C1788 0.931 . S
H1805 C1793 0.930 . S
H1806 C1794 0.956 . S
H1807 C1794 0.961 . S
H1808 C1794 0.961 . S
H1809 C1795 0.958 . S
H1810 C1795 0.961 . S
H1811 C1795 0.960 . S
C1812 C1813 1.391 . S
C1812 C1814 1.394 . S
C1812 H1828 0.931 . S
C1813 C1812 1.391 . S
C1813 C1817 1.376 . S
C1814 C1812 1.394 . S
C1814 C1815 1.369 . S
C1814 C1818 1.531 . S
C1815 C1814 1.369 . S
C1815 C1816 1.410 . S
C1815 C1823 1.503 . S
C1816 C1815 1.410 . S
C1816 C1817 1.392 . S
C1816 C1819 1.511 . S
C1817 C1813 1.376 . S
C1817 C1816 1.392 . S
C1817 H1829 0.929 . S
C1818 C1814 1.531 . S
C1818 H1830 0.960 . S
C1818 H1831 0.962 . S
C1818 H1832 0.960 . S
C1819 C1816 1.511 . S
C1819 H1833 0.961 . S
C1819 H1834 0.961 . S
C1819 H1835 0.961 . S
C1820 C1821 1.370 . S
C1820 C1822 1.363 . S
C1820 H1836 0.931 . S
C1821 C1820 1.370 . S
C1821 C1825 1.408 . S
C1822 C1820 1.363 . S
C1822 C1823 1.370 . S
C1822 C1826 1.524 . S
C1823 C1815 1.503 . S
C1823 C1822 1.370 . S
C1823 C1824 1.403 . S
C1824 C1823 1.403 . S
C1824 C1825 1.404 . S
C1824 C1827 1.539 . S
C1825 C1821 1.408 . S
C1825 C1824 1.404 . S
C1825 H1837 0.930 . S
C1826 C1822 1.524 . S
C1826 H1838 0.956 . S
C1826 H1839 0.961 . S
C1826 H1840 0.961 . S
C1827 C1824 1.539 . S
C1827 H1841 0.958 . S
C1827 H1842 0.961 . S
C1827 H1843 0.960 . S
H1828 C1812 0.931 . S
H1829 C1817 0.929 . S
H1830 C1818 0.960 . S
H1831 C1818 0.962 . S
H1832 C1818 0.960 . S
H1833 C1819 0.961 . S
H1834 C1819 0.961 . S
H1835 C1819 0.961 . S
H1836 C1820 0.931 . S
H1837 C1825 0.930 . S
H1838 C1826 0.956 . S
H1839 C1826 0.961 . S
H1840 C1826 0.961 . S
H1841 C1827 0.958 . S
H1842 C1827 0.961 . S
H1843 C1827 0.960 . S
C1844 C1845 1.391 . S
C1844 C1846 1.394 . S
C1844 H1860 0.931 . S
C1845 C1844 1.391 . S
C1845 C1849 1.376 . S
C1846 C1844 1.394 . S
C1846 C1847 1.369 . S
C1846 C1850 1.531 . S
C1847 C1846 1.369 . S
C1847 C1848 1.410 . S
C1847 C1855 1.503 . S
C1848 C1847 1.410 . S
C1848 C1849 1.392 . S
C1848 C1851 1.511 . S
C1849 C1845 1.376 . S
C1849 C1848 1.392 . S
C1849 H1861 0.929 . S
C1850 C1846 1.531 . S
C1850 H1862 0.960 . S
C1850 H1863 0.962 . S
C1850 H1864 0.960 . S
C1851 C1848 1.511 . S
C1851 H1865 0.961 . S
C1851 H1866 0.961 . S
C1851 H1867 0.961 . S
C1852 C1853 1.370 . S
C1852 C1854 1.363 . S
C1852 H1868 0.931 . S
C1853 C1852 1.370 . S
C1853 C1857 1.408 . S
C1854 C1852 1.363 . S
C1854 C1855 1.370 . S
C1854 C1858 1.524 . S
C1855 C1847 1.503 . S
C1855 C1854 1.370 . S
C1855 C1856 1.403 . S
C1856 C1855 1.403 . S
C1856 C1857 1.404 . S
C1856 C1859 1.539 . S
C1857 C1853 1.408 . S
C1857 C1856 1.404 . S
C1857 H1869 0.930 . S
C1858 C1854 1.524 . S
C1858 H1870 0.956 . S
C1858 H1871 0.961 . S
C1858 H1872 0.961 . S
C1859 C1856 1.539 . S
C1859 H1873 0.958 . S
C1859 H1874 0.961 . S
C1859 H1875 0.960 . S
H1860 C1844 0.931 . S
H1861 C1849 0.929 . S
H1862 C1850 0.960 . S
H1863 C1850 0.962 . S
H1864 C1850 0.960 . S
H1865 C1851 0.961 . S
H1866 C1851 0.961 . S
H1867 C1851 0.961 . S
H1868 C1852 0.931 . S
H1869 C1857 0.930 . S
H1870 C1858 0.956 . S
H1871 C1858 0.961 . S
H1872 C1858 0.961 . S
H1873 C1859 0.958 . S
H1874 C1859 0.961 . S
H1875 C1859 0.960 . S
C1876 C1877 1.391 . S
C1876 C1878 1.394 . S
C1876 H1892 0.931 . S
C1877 C1876 1.391 . S
C1877 C1881 1.376 . S
C1878 C1876 1.394 . S
C1878 C1879 1.369 . S
C1878 C1882 1.531 . S
C1879 C1878 1.369 . S
C1879 C1880 1.410 . S
C1879 C1887 1.503 . S
C1880 C1879 1.410 . S
C1880 C1881 1.392 . S
C1880 C1883 1.511 . S
C1881 C1877 1.376 . S
C1881 C1880 1.392 . S
C1881 H1893 0.929 . S
C1882 C1878 1.531 . S
C1882 H1894 0.960 . S
C1882 H1895 0.962 . S
C1882 H1896 0.960 . S
C1883 C1880 1.511 . S
C1883 H1897 0.961 . S
C1883 H1898 0.961 . S
C1883 H1899 0.961 . S
C1884 C1885 1.370 . S
C1884 C1886 1.363 . S
C1884 H1900 0.931 . S
C1885 C1884 1.370 . S
C1885 C1889 1.408 . S
C1886 C1884 1.363 . S
C1886 C1887 1.370 . S
C1886 C1890 1.524 . S
C1887 C1879 1.503 . S
C1887 C1886 1.370 . S
C1887 C1888 1.403 . S
C1888 C1887 1.403 . S
C1888 C1889 1.404 . S
C1888 C1891 1.539 . S
C1889 C1885 1.408 . S
C1889 C1888 1.404 . S
C1889 H1901 0.930 . S
C1890 C1886 1.524 . S
C1890 H1902 0.956 . S
C1890 H1903 0.961 . S
C1890 H1904 0.961 . S
C1891 C1888 1.539 . S
C1891 H1905 0.958 . S
C1891 H1906 0.961 . S
C1891 H1907 0.960 . S
H1892 C1876 0.931 . S
H1893 C1881 0.929 . S
H1894 C1882 0.960 . S
H1895 C1882 0.962 . S
H1896 C1882 0.960 . S
H1897 C1883 0.961 . S
H1898 C1883 0.961 . S
H1899 C1883 0.961 . S
H1900 C1884 0.931 . S
H1901 C1889 0.930 . S
H1902 C1890 0.956 . S
H1903 C1890 0.961 . S
H1904 C1890 0.961 . S
H1905 C1891 0.958 . S
H1906 C1891 0.961 . S
H1907 C1891 0.960 . S
C1908 C1909 1.391 . S
C1908 C1910 1.394 . S
C1908 H1924 0.931 . S
C1909 C1908 1.391 . S
C1909 C1913 1.376 . S
C1910 C1908 1.394 . S
C1910 C1911 1.369 . S
C1910 C1914 1.531 . S
C1911 C1910 1.369 . S
C1911 C1912 1.410 . S
C1911 C1919 1.503 . S
C1912 C1911 1.410 . S
C1912 C1913 1.392 . S
C1912 C1915 1.511 . S
C1913 C1909 1.376 . S
C1913 C1912 1.392 . S
C1913 H1925 0.929 . S
C1914 C1910 1.531 . S
C1914 H1926 0.960 . S
C1914 H1927 0.962 . S
C1914 H1928 0.960 . S
C1915 C1912 1.511 . S
C1915 H1929 0.961 . S
C1915 H1930 0.961 . S
C1915 H1931 0.961 . S
C1916 C1917 1.370 . S
C1916 C1918 1.363 . S
C1916 H1932 0.931 . S
C1917 C1916 1.370 . S
C1917 C1921 1.408 . S
C1918 C1916 1.363 . S
C1918 C1919 1.370 . S
C1918 C1922 1.524 . S
C1919 C1911 1.503 . S
C1919 C1918 1.370 . S
C1919 C1920 1.403 . S
C1920 C1919 1.403 . S
C1920 C1921 1.404 . S
C1920 C1923 1.539 . S
C1921 C1917 1.408 . S
C1921 C1920 1.404 . S
C1921 H1933 0.930 . S
C1922 C1918 1.524 . S
C1922 H1934 0.956 . S
C1922 H1935 0.961 . S
C1922 H1936 0.961 . S
C1923 C1920 1.539 . S
C1923 H1937 0.958 . S
C1923 H1938 0.961 . S
C1923 H1939 0.960 . S
H1924 C1908 0.931 . S
H1925 C1913 0.929 . S
H1926 C1914 0.960 . S
H1927 C1914 0.962 . S
H1928 C1914 0.960 . S
H1929 C1915 0.961 . S
H1930 C1915 0.961 . S
H1931 C1915 0.961 . S
H1932 C1916 0.931 . S
H1933 C1921 0.930 . S
H1934 C1922 0.956 . S
H1935 C1922 0.961 . S
H1936 C1922 0.961 . S
H1937 C1923 0.958 . S
H1938 C1923 0.961 . S
H1939 C1923 0.960 . S
C1940 C1941 1.391 . S
C1940 C1942 1.394 . S
C1940 H1956 0.931 . S
C1941 C1940 1.391 . S
C1941 C1945 1.376 . S
C1942 C1940 1.394 . S
C1942 C1943 1.369 . S
C1942 C1946 1.531 . S
C1943 C1942 1.369 . S
C1943 C1944 1.410 . S
C1943 C1951 1.503 . S
C1944 C1943 1.410 . S
C1944 C1945 1.392 . S
C1944 C1947 1.511 . S
C1945 C1941 1.376 . S
C1945 C1944 1.392 . S
C1945 H1957 0.929 . S
C1946 C1942 1.531 . S
C1946 H1958 0.960 . S
C1946 H1959 0.962 . S
C1946 H1960 0.960 . S
C1947 C1944 1.511 . S
C1947 H1961 0.961 . S
C1947 H1962 0.961 . S
C1947 H1963 0.961 . S
C1948 C1949 1.370 . S
C1948 C1950 1.363 . S
C1948 H1964 0.931 . S
C1949 C1948 1.370 . S
C1949 C1953 1.408 . S
C1950 C1948 1.363 . S
C1950 C1951 1.370 . S
C1950 C1954 1.524 . S
C1951 C1943 1.503 . S
C1951 C1950 1.370 . S
C1951 C1952 1.403 . S
C1952 C1951 1.403 . S
C1952 C1953 1.404 . S
C1952 C1955 1.539 . S
C1953 C1949 1.408 . S
C1953 C1952 1.404 . S
C1953 H1965 0.930 . S
C1954 C1950 1.524 . S
C1954 H1966 0.956 . S
C1954 H1967 0.961 . S
C1954 H1968 0.961 . S
C1955 C1952 1.539 . S
C1955 H1969 0.958 . S
C1955 H1970 0.961 . S
C1955 H1971 0.960 . S
H1956 C1940 0.931 . S
H1957 C1945 0.929 . S
H1958 C1946 0.960 . S
H1959 C1946 0.962 . S
H1960 C1946 0.960 . S
H1961 C1947 0.961 . S
H1962 C1947 0.961 . S
H1963 C1947 0.961 . S
H1964 C1948 0.931 . S
H1965 C1953 0.930 . S
H1966 C1954 0.956 . S
H1967 C1954 0.961 . S
H1968 C1954 0.961 . S
H1969 C1955 0.958 . S
H1970 C1955 0.961 . S
H1971 C1955 0.960 . S
C1972 C1973 1.391 . S
C1972 C1974 1.394 . S
C1972 H1988 0.931 . S
C1973 C1972 1.391 . S
C1973 C1977 1.376 . S
C1974 C1972 1.394 . S
C1974 C1975 1.369 . S
C1974 C1978 1.531 . S
C1975 C1974 1.369 . S
C1975 C1976 1.410 . S
C1975 C1983 1.503 . S
C1976 C1975 1.410 . S
C1976 C1977 1.392 . S
C1976 C1979 1.511 . S
C1977 C1973 1.376 . S
C1977 C1976 1.392 . S
C1977 H1989 0.929 . S
C1978 C1974 1.531 . S
C1978 H1990 0.960 . S
C1978 H1991 0.962 . S
C1978 H1992 0.960 . S
C1979 C1976 1.511 . S
C1979 H1993 0.961 . S
C1979 H1994 0.961 . S
C1979 H1995 0.961 . S
C1980 C1981 1.370 . S
C1980 C1982 1.363 . S
C1980 H1996 0.931 . S
C1981 C1980 1.370 . S
C1981 C1985 1.408 . S
C1982 C1980 1.363 . S
C1982 C1983 1.370 . S
C1982 C1986 1.524 . S
C1983 C1975 1.503 . S
C1983 C1982 1.370 . S
C1983 C1984 1.403 . S
C1984 C1983 1.403 . S
C1984 C1985 1.404 . S
C1984 C1987 1.539 . S
C1985 C1981 1.408 . S
C1985 C1984 1.404 . S
C1985 H1997 0.930 . S
C1986 C1982 1.524 . S
C1986 H1998 0.956 . S
C1986 H1999 0.961 . S
C1986 H2000 0.961 . S
C1987 C1984 1.539 . S
C1987 H2001 0.958 . S
C1987 H2002 0.961 . S
C1987 H2003 0.960 . S
H1988 C1972 0.931 . S
H1989 C1977 0.929 . S
H1990 C1978 0.960 . S
H1991 C1978 0.962 . S
H1992 C1978 0.960 . S
H1993 C1979 0.961 . S
H1994 C1979 0.961 . S
H1995 C1979 0.961 . S
H1996 C1980 0.931 . S
H1997 C1985 0.930 . S
H1998 C1986 0.956 . S
H1999 C1986 0.961 . S
H2000 C1986 0.961 . S
H2001 C1987 0.958 . S
H2002 C1987 0.961 . S
H2003 C1987 0.960 . S
C2004 C2005 1.391 . S
C2004 C2006 1.394 . S
C2004 H2020 0.931 . S
C2005 C2004 1.391 . S
C2005 C2009 1.376 . S
C2006 C2004 1.394 . S
C2006 C2007 1.369 . S
C2006 C2010 1.531 1_455 S
C2007 C2006 1.369 . S
C2007 C2008 1.410 . S
C2007 C2015 1.503 1_455 S
C2008 C2007 1.410 . S
C2008 C2009 1.392 . S
C2008 C2011 1.511 . S
C2009 C2005 1.376 . S
C2009 C2008 1.392 . S
C2009 H2021 0.929 . S
C2010 C2006 1.531 1_655 S
C2010 H2022 0.960 . S
C2010 H2023 0.962 . S
C2010 H2024 0.960 . S
C2011 C2008 1.511 . S
C2011 H2025 0.961 . S
C2011 H2026 0.961 . S
C2011 H2027 0.961 . S
C2012 C2013 1.370 . S
C2012 C2014 1.363 . S
C2012 H2028 0.931 . S
C2013 C2012 1.370 . S
C2013 C2017 1.408 . S
C2014 C2012 1.363 . S
C2014 C2015 1.370 . S
C2014 C2018 1.524 1_655 S
C2015 C2007 1.503 1_655 S
C2015 C2014 1.370 . S
C2015 C2016 1.403 . S
C2016 C2015 1.403 . S
C2016 C2017 1.404 . S
C2016 C2019 1.539 . S
C2017 C2013 1.408 . S
C2017 C2016 1.404 . S
C2017 H2029 0.930 . S
C2018 C2014 1.524 1_455 S
C2018 H2030 0.956 . S
C2018 H2031 0.961 . S
C2018 H2032 0.961 . S
C2019 C2016 1.539 . S
C2019 H2033 0.958 . S
C2019 H2034 0.961 . S
C2019 H2035 0.960 . S
H2020 C2004 0.931 . S
H2021 C2009 0.929 . S
H2022 C2010 0.960 . S
H2023 C2010 0.962 . S
H2024 C2010 0.960 . S
H2025 C2011 0.961 . S
H2026 C2011 0.961 . S
H2027 C2011 0.961 . S
H2028 C2012 0.931 . S
H2029 C2017 0.930 . S
H2030 C2018 0.956 . S
H2031 C2018 0.961 . S
H2032 C2018 0.961 . S
H2033 C2019 0.958 . S
H2034 C2019 0.961 . S
H2035 C2019 0.960 . S
C2036 C2037 1.391 . S
C2036 C2038 1.394 . S
C2036 H2052 0.931 . S
C2037 C2036 1.391 . S
C2037 C2041 1.376 . S
C2038 C2036 1.394 . S
C2038 C2039 1.369 . S
C2038 C2042 1.531 . S
C2039 C2038 1.369 . S
C2039 C2040 1.410 . S
C2039 C2047 1.503 . S
C2040 C2039 1.410 . S
C2040 C2041 1.392 . S
C2040 C2043 1.511 . S
C2041 C2037 1.376 . S
C2041 C2040 1.392 . S
C2041 H2053 0.929 . S
C2042 C2038 1.531 . S
C2042 H2054 0.960 . S
C2042 H2055 0.962 . S
C2042 H2056 0.960 . S
C2043 C2040 1.511 . S
C2043 H2057 0.961 . S
C2043 H2058 0.961 . S
C2043 H2059 0.961 . S
C2044 C2045 1.370 . S
C2044 C2046 1.363 . S
C2044 H2060 0.931 . S
C2045 C2044 1.370 . S
C2045 C2049 1.408 . S
C2046 C2044 1.363 . S
C2046 C2047 1.370 . S
C2046 C2050 1.524 . S
C2047 C2039 1.503 . S
C2047 C2046 1.370 . S
C2047 C2048 1.403 . S
C2048 C2047 1.403 . S
C2048 C2049 1.404 . S
C2048 C2051 1.539 . S
C2049 C2045 1.408 . S
C2049 C2048 1.404 . S
C2049 H2061 0.930 . S
C2050 C2046 1.524 . S
C2050 H2062 0.956 . S
C2050 H2063 0.961 . S
C2050 H2064 0.961 . S
C2051 C2048 1.539 . S
C2051 H2065 0.958 . S
C2051 H2066 0.961 . S
C2051 H2067 0.960 . S
H2052 C2036 0.931 . S
H2053 C2041 0.929 . S
H2054 C2042 0.960 . S
H2055 C2042 0.962 . S
H2056 C2042 0.960 . S
H2057 C2043 0.961 . S
H2058 C2043 0.961 . S
H2059 C2043 0.961 . S
H2060 C2044 0.931 . S
H2061 C2049 0.930 . S
H2062 C2050 0.956 . S
H2063 C2050 0.961 . S
H2064 C2050 0.961 . S
H2065 C2051 0.958 . S
H2066 C2051 0.961 . S
H2067 C2051 0.960 . S
C2068 C2069 1.391 . S
C2068 C2070 1.394 . S
C2068 H2084 0.931 . S
C2069 C2068 1.391 . S
C2069 C2073 1.376 . S
C2070 C2068 1.394 . S
C2070 C2071 1.369 . S
C2070 C2074 1.532 . S
C2071 C2070 1.369 . S
C2071 C2072 1.410 . S
C2071 C2079 1.503 1_565 S
C2072 C2071 1.410 . S
C2072 C2073 1.392 . S
C2072 C2075 1.511 . S
C2073 C2069 1.376 . S
C2073 C2072 1.392 . S
C2073 H2085 0.929 . S
C2074 C2070 1.532 . S
C2074 H2086 0.960 . S
C2074 H2087 0.889 1_565 S
C2074 H2088 1.043 . S
C2075 C2072 1.511 . S
C2075 H2089 0.961 . S
C2075 H2090 0.961 . S
C2075 H2091 0.961 . S
C2076 C2077 1.370 . S
C2076 C2078 1.363 . S
C2076 H2092 0.931 . S
C2077 C2076 1.370 . S
C2077 C2081 1.408 . S
C2078 C2076 1.363 . S
C2078 C2079 1.370 . S
C2078 C2082 1.524 . S
C2079 C2071 1.503 1_545 S
C2079 C2078 1.370 . S
C2079 C2080 1.403 1_545 S
C2080 C2079 1.403 1_565 S
C2080 C2081 1.404 1_565 S
C2080 C2083 1.539 . S
C2081 C2077 1.408 . S
C2081 C2080 1.404 1_545 S
C2081 H2093 0.930 . S
C2082 C2078 1.524 . S
C2082 H2094 0.956 . S
C2082 H2095 0.961 . S
C2082 H2096 0.961 . S
C2083 C2080 1.539 . S
C2083 H2097 0.958 . S
C2083 H2098 0.961 . S
C2083 H2099 0.960 . S
H2084 C2068 0.931 . S
H2085 C2073 0.929 . S
H2086 C2074 0.960 . S
H2087 C2074 0.889 1_545 S
H2088 C2074 1.043 . S
H2089 C2075 0.961 . S
H2090 C2075 0.961 . S
H2091 C2075 0.961 . S
H2092 C2076 0.931 . S
H2093 C2081 0.930 . S
H2094 C2082 0.956 . S
H2095 C2082 0.961 . S
H2096 C2082 0.961 . S
H2097 C2083 0.958 . S
H2098 C2083 0.961 . S
H2099 C2083 0.960 . S
C2100 C2101 1.391 . S
C2100 C2102 1.394 . S
C2100 H2116 0.931 . S
C2101 C2100 1.391 . S
C2101 C2105 1.376 . S
C2102 C2100 1.394 . S
C2102 C2103 1.369 . S
C2102 C2106 1.531 1_565 S
C2103 C2102 1.369 . S
C2103 C2104 1.410 . S
C2103 C2111 1.503 1_565 S
C2104 C2103 1.410 . S
C2104 C2105 1.392 . S
C2104 C2107 1.511 . S
C2105 C2101 1.376 . S
C2105 C2104 1.392 . S
C2105 H2117 0.929 . S
C2106 C2102 1.531 1_545 S
C2106 H2118 0.960 . S
C2106 H2119 0.962 1_545 S
C2106 H2120 0.960 . S
C2107 C2104 1.511 . S
C2107 H2121 0.961 . S
C2107 H2122 0.961 . S
C2107 H2123 0.944 1_565 S
C2108 C2109 1.370 . S
C2108 C2110 1.389 . S
C2108 H2124 0.931 . S
C2109 C2108 1.370 . S
C2109 C2113 1.408 . S
C2110 C2108 1.389 . S
C2110 C2111 1.383 . S
C2110 C2114 1.488 1_545 S
C2111 C2103 1.503 1_545 S
C2111 C2110 1.383 . S
C2111 C2112 1.403 . S
C2112 C2111 1.403 . S
C2112 C2113 1.404 . S
C2112 C2115 1.539 . S
C2113 C2109 1.408 . S
C2113 C2112 1.404 . S
C2113 H2125 0.930 . S
C2114 C2110 1.488 1_565 S
C2114 H2126 0.956 . S
C2114 H2127 0.961 . S
C2114 H2128 0.961 . S
C2115 C2112 1.539 . S
C2115 H2129 0.958 . S
C2115 H2130 0.961 . S
C2115 H2131 0.960 . S
H2116 C2100 0.931 . S
H2117 C2105 0.929 . S
H2118 C2106 0.960 . S
H2119 C2106 0.962 1_565 S
H2120 C2106 0.960 . S
H2121 C2107 0.961 . S
H2122 C2107 0.961 . S
H2123 C2107 0.944 1_545 S
H2124 C2108 0.931 . S
H2125 C2113 0.930 . S
H2126 C2114 0.956 . S
H2127 C2114 0.961 . S
H2128 C2114 0.961 . S
H2129 C2115 0.958 . S
H2130 C2115 0.961 . S
H2131 C2115 0.960 . S
C2132 C2133 1.391 . S
C2132 C2134 1.394 1_655 S
C2132 H2148 0.931 . S
C2133 C2132 1.391 . S
C2133 C2137 1.376 . S
C2134 C2132 1.394 1_455 S
C2134 C2135 1.369 1_455 S
C2134 C2138 1.531 . S
C2135 C2134 1.369 1_655 S
C2135 C2136 1.410 . S
C2135 C2143 1.503 1_655 S
C2136 C2135 1.410 . S
C2136 C2137 1.392 . S
C2136 C2139 1.511 . S
C2137 C2133 1.376 . S
C2137 C2136 1.392 . S
C2137 H2149 0.929 . S
C2138 C2134 1.531 . S
C2138 H2150 0.960 . S
C2138 H2151 0.962 . S
C2138 H2152 0.960 . S
C2139 C2136 1.511 . S
C2139 H2153 0.961 . S
C2139 H2154 0.961 . S
C2139 H2155 0.961 . S
C2140 C2141 1.370 . S
C2140 C2142 1.363 . S
C2140 H2156 0.931 . S
C2141 C2140 1.370 . S
C2141 C2145 1.408 . S
C2142 C2140 1.363 . S
C2142 C2143 1.370 . S
C2142 C2146 1.524 . S
C2143 C2135 1.503 1_455 S
C2143 C2142 1.370 . S
C2143 C2144 1.403 . S
C2144 C2143 1.403 . S
C2144 C2145 1.404 . S
C2144 C2147 1.539 . S
C2145 C2141 1.408 . S
C2145 C2144 1.404 . S
C2145 H2157 0.930 . S
C2146 C2142 1.524 . S
C2146 H2158 0.956 . S
C2146 H2159 0.961 1_455 S
C2146 H2160 0.961 . S
C2147 C2144 1.539 . S
C2147 H2161 0.958 . S
C2147 H2162 0.961 . S
C2147 H2163 0.960 1_455 S
H2148 C2132 0.931 . S
H2149 C2137 0.929 . S
H2150 C2138 0.960 . S
H2151 C2138 0.962 . S
H2152 C2138 0.960 . S
H2153 C2139 0.961 . S
H2154 C2139 0.961 . S
H2155 C2139 0.961 . S
H2156 C2140 0.931 . S
H2157 C2145 0.930 . S
H2158 C2146 0.956 . S
H2159 C2146 0.961 1_655 S
H2160 C2146 0.961 . S
H2161 C2147 0.958 . S
H2162 C2147 0.961 . S
H2163 C2147 0.960 1_655 S
C2164 C2165 1.391 . S
C2164 C2166 1.394 . S
C2164 H2180 0.931 . S
C2165 C2164 1.391 . S
C2165 C2169 1.376 . S
C2166 C2164 1.394 . S
C2166 C2167 1.369 . S
C2166 C2170 1.531 . S
C2167 C2166 1.369 . S
C2167 C2168 1.410 . S
C2167 C2175 1.503 . S
C2168 C2167 1.410 . S
C2168 C2169 1.392 . S
C2168 C2171 1.511 . S
C2169 C2165 1.376 . S
C2169 C2168 1.392 . S
C2169 H2181 0.929 . S
C2170 C2166 1.531 . S
C2170 H2182 0.960 . S
C2170 H2183 0.962 . S
C2170 H2184 0.960 . S
C2171 C2168 1.511 . S
C2171 H2185 0.961 . S
C2171 H2186 0.961 . S
C2171 H2187 0.961 . S
C2172 C2173 1.370 . S
C2172 C2174 1.363 . S
C2172 H2188 0.931 . S
C2173 C2172 1.370 . S
C2173 C2177 1.408 . S
C2174 C2172 1.363 . S
C2174 C2175 1.370 . S
C2174 C2178 1.524 . S
C2175 C2167 1.503 . S
C2175 C2174 1.370 . S
C2175 C2176 1.403 . S
C2176 C2175 1.403 . S
C2176 C2177 1.404 . S
C2176 C2179 1.539 . S
C2177 C2173 1.408 . S
C2177 C2176 1.404 . S
C2177 H2189 0.930 . S
C2178 C2174 1.524 . S
C2178 H2190 0.956 . S
C2178 H2191 0.961 . S
C2178 H2192 0.961 . S
C2179 C2176 1.539 . S
C2179 H2193 0.958 . S
C2179 H2194 0.961 . S
C2179 H2195 0.960 . S
H2180 C2164 0.931 . S
H2181 C2169 0.929 . S
H2182 C2170 0.960 . S
H2183 C2170 0.962 . S
H2184 C2170 0.960 . S
H2185 C2171 0.961 . S
H2186 C2171 0.961 . S
H2187 C2171 0.961 . S
H2188 C2172 0.931 . S
H2189 C2177 0.930 . S
H2190 C2178 0.956 . S
H2191 C2178 0.961 . S
H2192 C2178 0.961 . S
H2193 C2179 0.958 . S
H2194 C2179 0.961 . S
H2195 C2179 0.960 . S
C2196 C2197 1.391 . S
C2196 C2198 1.394 . S
C2196 H2212 0.931 . S
C2197 C2196 1.391 . S
C2197 C2201 1.376 . S
C2198 C2196 1.394 . S
C2198 C2199 1.369 . S
C2198 C2202 1.531 . S
C2199 C2198 1.369 . S
C2199 C2200 1.410 . S
C2199 C2207 1.503 . S
C2200 C2199 1.410 . S
C2200 C2201 1.392 . S
C2200 C2203 1.511 . S
C2201 C2197 1.376 . S
C2201 C2200 1.392 . S
C2201 H2213 0.929 . S
C2202 C2198 1.531 . S
C2202 H2214 0.960 . S
C2202 H2215 0.962 . S
C2202 H2216 0.960 . S
C2203 C2200 1.511 . S
C2203 H2217 0.961 . S
C2203 H2218 0.961 . S
C2203 H2219 0.961 . S
C2204 C2205 1.370 . S
C2204 C2206 1.363 . S
C2204 H2220 0.931 . S
C2205 C2204 1.370 . S
C2205 C2209 1.408 . S
C2206 C2204 1.363 . S
C2206 C2207 1.370 . S
C2206 C2210 1.524 . S
C2207 C2199 1.503 . S
C2207 C2206 1.370 . S
C2207 C2208 1.403 . S
C2208 C2207 1.403 . S
C2208 C2209 1.404 . S
C2208 C2211 1.539 . S
C2209 C2205 1.408 . S
C2209 C2208 1.404 . S
C2209 H2221 0.930 . S
C2210 C2206 1.524 . S
C2210 H2222 0.956 . S
C2210 H2223 0.961 . S
C2210 H2224 0.961 . S
C2211 C2208 1.539 . S
C2211 H2225 0.958 . S
C2211 H2226 0.961 . S
C2211 H2227 0.960 . S
H2212 C2196 0.931 . S
H2213 C2201 0.929 . S
H2214 C2202 0.960 . S
H2215 C2202 0.962 . S
H2216 C2202 0.960 . S
H2217 C2203 0.961 . S
H2218 C2203 0.961 . S
H2219 C2203 0.961 . S
H2220 C2204 0.931 . S
H2221 C2209 0.930 . S
H2222 C2210 0.956 . S
H2223 C2210 0.961 . S
H2224 C2210 0.961 . S
H2225 C2211 0.958 . S
H2226 C2211 0.961 . S
H2227 C2211 0.960 . S
C2228 C2229 1.391 . S
C2228 C2230 1.394 . S
C2228 H2244 0.931 . S
C2229 C2228 1.391 . S
C2229 C2233 1.376 . S
C2230 C2228 1.394 . S
C2230 C2231 1.369 . S
C2230 C2234 1.531 . S
C2231 C2230 1.369 . S
C2231 C2232 1.410 . S
C2231 C2239 1.503 . S
C2232 C2231 1.410 . S
C2232 C2233 1.392 . S
C2232 C2235 1.511 . S
C2233 C2229 1.376 . S
C2233 C2232 1.392 . S
C2233 H2245 0.929 . S
C2234 C2230 1.531 . S
C2234 H2246 0.960 . S
C2234 H2247 0.962 . S
C2234 H2248 0.960 . S
C2235 C2232 1.511 . S
C2235 H2249 0.961 . S
C2235 H2250 0.961 . S
C2235 H2251 0.961 . S
C2236 C2237 1.370 . S
C2236 C2238 1.363 . S
C2236 H2252 0.931 . S
C2237 C2236 1.370 . S
C2237 C2241 1.408 . S
C2238 C2236 1.363 . S
C2238 C2239 1.370 . S
C2238 C2242 1.524 . S
C2239 C2231 1.503 . S
C2239 C2238 1.370 . S
C2239 C2240 1.403 . S
C2240 C2239 1.403 . S
C2240 C2241 1.404 . S
C2240 C2243 1.539 . S
C2241 C2237 1.408 . S
C2241 C2240 1.404 . S
C2241 H2253 0.930 . S
C2242 C2238 1.524 . S
C2242 H2254 0.956 . S
C2242 H2255 0.961 . S
C2242 H2256 0.961 . S
C2243 C2240 1.539 . S
C2243 H2257 0.958 . S
C2243 H2258 0.961 . S
C2243 H2259 0.960 . S
H2244 C2228 0.931 . S
H2245 C2233 0.929 . S
H2246 C2234 0.960 . S
H2247 C2234 0.962 . S
H2248 C2234 0.960 . S
H2249 C2235 0.961 . S
H2250 C2235 0.961 . S
H2251 C2235 0.961 . S
H2252 C2236 0.931 . S
H2253 C2241 0.930 . S
H2254 C2242 0.956 . S
H2255 C2242 0.961 . S
H2256 C2242 0.961 . S
H2257 C2243 0.958 . S
H2258 C2243 0.961 . S
H2259 C2243 0.960 . S
C2260 C2261 1.391 . S
C2260 C2262 1.394 . S
C2260 H2276 0.931 . S
C2261 C2260 1.391 . S
C2261 C2265 1.376 . S
C2262 C2260 1.394 . S
C2262 C2263 1.369 . S
C2262 C2266 1.531 . S
C2263 C2262 1.369 . S
C2263 C2264 1.410 . S
C2263 C2271 1.503 . S
C2264 C2263 1.410 . S
C2264 C2265 1.392 . S
C2264 C2267 1.511 . S
C2265 C2261 1.376 . S
C2265 C2264 1.392 . S
C2265 H2277 0.929 . S
C2266 C2262 1.531 . S
C2266 H2278 0.960 . S
C2266 H2279 0.962 . S
C2266 H2280 0.960 . S
C2267 C2264 1.511 . S
C2267 H2281 0.961 . S
C2267 H2282 0.961 . S
C2267 H2283 0.961 . S
C2268 C2269 1.370 . S
C2268 C2270 1.363 . S
C2268 H2284 0.931 . S
C2269 C2268 1.370 . S
C2269 C2273 1.408 . S
C2270 C2268 1.363 . S
C2270 C2271 1.370 . S
C2270 C2274 1.524 . S
C2271 C2263 1.503 . S
C2271 C2270 1.370 . S
C2271 C2272 1.403 . S
C2272 C2271 1.403 . S
C2272 C2273 1.404 . S
C2272 C2275 1.539 . S
C2273 C2269 1.408 . S
C2273 C2272 1.404 . S
C2273 H2285 0.930 . S
C2274 C2270 1.524 . S
C2274 H2286 0.956 . S
C2274 H2287 0.961 . S
C2274 H2288 0.961 . S
C2275 C2272 1.539 . S
C2275 H2289 0.958 . S
C2275 H2290 0.961 . S
C2275 H2291 0.960 . S
H2276 C2260 0.931 . S
H2277 C2265 0.929 . S
H2278 C2266 0.960 . S
H2279 C2266 0.962 . S
H2280 C2266 0.960 . S
H2281 C2267 0.961 . S
H2282 C2267 0.961 . S
H2283 C2267 0.961 . S
H2284 C2268 0.931 . S
H2285 C2273 0.930 . S
H2286 C2274 0.956 . S
H2287 C2274 0.961 . S
H2288 C2274 0.961 . S
H2289 C2275 0.958 . S
H2290 C2275 0.961 . S
H2291 C2275 0.960 . S
C2292 C2293 1.391 . S
C2292 C2294 1.394 . S
C2292 H2308 0.931 . S
C2293 C2292 1.391 . S
C2293 C2297 1.376 . S
C2294 C2292 1.394 . S
C2294 C2295 1.369 . S
C2294 C2298 1.531 . S
C2295 C2294 1.369 . S
C2295 C2296 1.410 . S
C2295 C2303 1.503 . S
C2296 C2295 1.410 . S
C2296 C2297 1.392 . S
C2296 C2299 1.511 . S
C2297 C2293 1.376 . S
C2297 C2296 1.392 . S
C2297 H2309 0.929 . S
C2298 C2294 1.531 . S
C2298 H2310 0.960 . S
C2298 H2311 0.962 . S
C2298 H2312 0.960 . S
C2299 C2296 1.511 . S
C2299 H2313 0.961 . S
C2299 H2314 0.961 . S
C2299 H2315 0.961 . S
C2300 C2301 1.370 . S
C2300 C2302 1.363 . S
C2300 H2316 0.931 . S
C2301 C2300 1.370 . S
C2301 C2305 1.408 . S
C2302 C2300 1.363 . S
C2302 C2303 1.370 . S
C2302 C2306 1.524 . S
C2303 C2295 1.503 . S
C2303 C2302 1.370 . S
C2303 C2304 1.403 . S
C2304 C2303 1.403 . S
C2304 C2305 1.404 . S
C2304 C2307 1.539 . S
C2305 C2301 1.408 . S
C2305 C2304 1.404 . S
C2305 H2317 0.930 . S
C2306 C2302 1.524 . S
C2306 H2318 0.956 . S
C2306 H2319 0.961 . S
C2306 H2320 0.961 . S
C2307 C2304 1.539 . S
C2307 H2321 0.958 . S
C2307 H2322 0.961 . S
C2307 H2323 0.960 . S
H2308 C2292 0.931 . S
H2309 C2297 0.929 . S
H2310 C2298 0.960 . S
H2311 C2298 0.962 . S
H2312 C2298 0.960 . S
H2313 C2299 0.961 . S
H2314 C2299 0.961 . S
H2315 C2299 0.961 . S
H2316 C2300 0.931 . S
H2317 C2305 0.930 . S
H2318 C2306 0.956 . S
H2319 C2306 0.961 . S
H2320 C2306 0.961 . S
H2321 C2307 0.958 . S
H2322 C2307 0.961 . S
H2323 C2307 0.960 . S
C2324 C2325 1.391 . S
C2324 C2326 1.394 . S
C2324 H2340 0.931 . S
C2325 C2324 1.391 . S
C2325 C2329 1.376 . S
C2326 C2324 1.394 . S
C2326 C2327 1.369 . S
C2326 C2330 1.531 . S
C2327 C2326 1.369 . S
C2327 C2328 1.410 . S
C2327 C2335 1.503 . S
C2328 C2327 1.410 . S
C2328 C2329 1.392 . S
C2328 C2331 1.511 . S
C2329 C2325 1.376 . S
C2329 C2328 1.392 . S
C2329 H2341 0.929 . S
C2330 C2326 1.531 . S
C2330 H2342 0.960 . S
C2330 H2343 0.962 . S
C2330 H2344 0.960 . S
C2331 C2328 1.511 . S
C2331 H2345 0.961 . S
C2331 H2346 0.961 . S
C2331 H2347 0.961 . S
C2332 C2333 1.370 . S
C2332 C2334 1.363 . S
C2332 H2348 0.931 . S
C2333 C2332 1.370 . S
C2333 C2337 1.408 . S
C2334 C2332 1.363 . S
C2334 C2335 1.370 . S
C2334 C2338 1.524 . S
C2335 C2327 1.503 . S
C2335 C2334 1.370 . S
C2335 C2336 1.403 . S
C2336 C2335 1.403 . S
C2336 C2337 1.404 . S
C2336 C2339 1.539 . S
C2337 C2333 1.408 . S
C2337 C2336 1.404 . S
C2337 H2349 0.930 . S
C2338 C2334 1.524 . S
C2338 H2350 0.956 . S
C2338 H2351 0.961 . S
C2338 H2352 0.961 . S
C2339 C2336 1.539 . S
C2339 H2353 0.958 . S
C2339 H2354 0.961 . S
C2339 H2355 0.960 . S
H2340 C2324 0.931 . S
H2341 C2329 0.929 . S
H2342 C2330 0.960 . S
H2343 C2330 0.962 . S
H2344 C2330 0.960 . S
H2345 C2331 0.961 . S
H2346 C2331 0.961 . S
H2347 C2331 0.961 . S
H2348 C2332 0.931 . S
H2349 C2337 0.930 . S
H2350 C2338 0.956 . S
H2351 C2338 0.961 . S
H2352 C2338 0.961 . S
H2353 C2339 0.958 . S
H2354 C2339 0.961 . S
H2355 C2339 0.960 . S
C2356 C2357 1.391 . S
C2356 C2358 1.394 . S
C2356 H2372 0.931 . S
C2357 C2356 1.391 . S
C2357 C2361 1.376 . S
C2358 C2356 1.394 . S
C2358 C2359 1.369 . S
C2358 C2362 1.531 . S
C2359 C2358 1.369 . S
C2359 C2360 1.410 . S
C2359 C2367 1.503 . S
C2360 C2359 1.410 . S
C2360 C2361 1.392 . S
C2360 C2363 1.511 . S
C2361 C2357 1.376 . S
C2361 C2360 1.392 . S
C2361 H2373 0.929 . S
C2362 C2358 1.531 . S
C2362 H2374 0.960 . S
C2362 H2375 0.962 . S
C2362 H2376 0.960 . S
C2363 C2360 1.511 . S
C2363 H2377 0.961 . S
C2363 H2378 0.961 . S
C2363 H2379 0.961 . S
C2364 C2365 1.370 . S
C2364 C2366 1.363 . S
C2364 H2380 0.931 . S
C2365 C2364 1.370 . S
C2365 C2369 1.408 . S
C2366 C2364 1.363 . S
C2366 C2367 1.370 . S
C2366 C2370 1.524 . S
C2367 C2359 1.503 . S
C2367 C2366 1.370 . S
C2367 C2368 1.403 . S
C2368 C2367 1.403 . S
C2368 C2369 1.404 . S
C2368 C2371 1.539 . S
C2369 C2365 1.408 . S
C2369 C2368 1.404 . S
C2369 H2381 0.930 . S
C2370 C2366 1.524 . S
C2370 H2382 0.956 . S
C2370 H2383 0.961 . S
C2370 H2384 0.961 . S
C2371 C2368 1.539 . S
C2371 H2385 0.958 . S
C2371 H2386 0.961 . S
C2371 H2387 0.960 . S
H2372 C2356 0.931 . S
H2373 C2361 0.929 . S
H2374 C2362 0.960 . S
H2375 C2362 0.962 . S
H2376 C2362 0.960 . S
H2377 C2363 0.961 . S
H2378 C2363 0.961 . S
H2379 C2363 0.961 . S
H2380 C2364 0.931 . S
H2381 C2369 0.930 . S
H2382 C2370 0.956 . S
H2383 C2370 0.961 . S
H2384 C2370 0.961 . S
H2385 C2371 0.958 . S
H2386 C2371 0.961 . S
H2387 C2371 0.960 . S
C2388 C2389 1.391 . S
C2388 C2390 1.394 . S
C2388 H2404 0.931 . S
C2389 C2388 1.391 . S
C2389 C2393 1.376 . S
C2390 C2388 1.394 . S
C2390 C2391 1.369 . S
C2390 C2394 1.531 . S
C2391 C2390 1.369 . S
C2391 C2392 1.410 . S
C2391 C2399 1.503 . S
C2392 C2391 1.410 . S
C2392 C2393 1.392 . S
C2392 C2395 1.511 . S
C2393 C2389 1.376 . S
C2393 C2392 1.392 . S
C2393 H2405 0.929 . S
C2394 C2390 1.531 . S
C2394 H2406 0.960 . S
C2394 H2407 0.962 . S
C2394 H2408 0.960 . S
C2395 C2392 1.511 . S
C2395 H2409 0.961 . S
C2395 H2410 0.961 . S
C2395 H2411 0.961 . S
C2396 C2397 1.370 . S
C2396 C2398 1.363 . S
C2396 H2412 0.931 . S
C2397 C2396 1.370 . S
C2397 C2401 1.408 . S
C2398 C2396 1.363 . S
C2398 C2399 1.370 . S
C2398 C2402 1.524 . S
C2399 C2391 1.503 . S
C2399 C2398 1.370 . S
C2399 C2400 1.403 . S
C2400 C2399 1.403 . S
C2400 C2401 1.404 . S
C2400 C2403 1.539 . S
C2401 C2397 1.408 . S
C2401 C2400 1.404 . S
C2401 H2413 0.930 . S
C2402 C2398 1.524 . S
C2402 H2414 0.956 . S
C2402 H2415 0.961 . S
C2402 H2416 0.961 . S
C2403 C2400 1.539 . S
C2403 H2417 0.958 . S
C2403 H2418 0.961 . S
C2403 H2419 0.960 . S
H2404 C2388 0.931 . S
H2405 C2393 0.929 . S
H2406 C2394 0.960 . S
H2407 C2394 0.962 . S
H2408 C2394 0.960 . S
H2409 C2395 0.961 . S
H2410 C2395 0.961 . S
H2411 C2395 0.961 . S
H2412 C2396 0.931 . S
H2413 C2401 0.930 . S
H2414 C2402 0.956 . S
H2415 C2402 0.961 . S
H2416 C2402 0.961 . S
H2417 C2403 0.958 . S
H2418 C2403 0.961 . S
H2419 C2403 0.960 . S
C2420 C2421 1.391 . S
C2420 C2422 1.394 . S
C2420 H2436 0.931 . S
C2421 C2420 1.391 . S
C2421 C2425 1.376 . S
C2422 C2420 1.394 . S
C2422 C2423 1.369 . S
C2422 C2426 1.531 . S
C2423 C2422 1.369 . S
C2423 C2424 1.410 . S
C2423 C2431 1.503 . S
C2424 C2423 1.410 . S
C2424 C2425 1.392 . S
C2424 C2427 1.511 . S
C2425 C2421 1.376 . S
C2425 C2424 1.392 . S
C2425 H2437 0.929 . S
C2426 C2422 1.531 . S
C2426 H2438 0.960 . S
C2426 H2439 0.962 . S
C2426 H2440 0.960 . S
C2427 C2424 1.511 . S
C2427 H2441 0.961 . S
C2427 H2442 0.961 . S
C2427 H2443 0.961 . S
C2428 C2429 1.370 . S
C2428 C2430 1.363 . S
C2428 H2444 0.931 . S
C2429 C2428 1.370 . S
C2429 C2433 1.408 . S
C2430 C2428 1.363 . S
C2430 C2431 1.370 . S
C2430 C2434 1.524 . S
C2431 C2423 1.503 . S
C2431 C2430 1.370 . S
C2431 C2432 1.403 . S
C2432 C2431 1.403 . S
C2432 C2433 1.404 . S
C2432 C2435 1.539 . S
C2433 C2429 1.408 . S
C2433 C2432 1.404 . S
C2433 H2445 0.930 . S
C2434 C2430 1.524 . S
C2434 H2446 0.956 . S
C2434 H2447 0.961 . S
C2434 H2448 0.961 . S
C2435 C2432 1.539 . S
C2435 H2449 0.958 . S
C2435 H2450 0.961 . S
C2435 H2451 0.960 . S
H2436 C2420 0.931 . S
H2437 C2425 0.929 . S
H2438 C2426 0.960 . S
H2439 C2426 0.962 . S
H2440 C2426 0.960 . S
H2441 C2427 0.961 . S
H2442 C2427 0.961 . S
H2443 C2427 0.961 . S
H2444 C2428 0.931 . S
H2445 C2433 0.930 . S
H2446 C2434 0.956 . S
H2447 C2434 0.961 . S
H2448 C2434 0.961 . S
H2449 C2435 0.958 . S
H2450 C2435 0.961 . S
H2451 C2435 0.960 . S
C2452 C2453 1.391 . S
C2452 C2454 1.394 . S
C2452 H2468 0.931 . S
C2453 C2452 1.391 . S
C2453 C2457 1.376 . S
C2454 C2452 1.394 . S
C2454 C2455 1.369 . S
C2454 C2458 1.531 . S
C2455 C2454 1.369 . S
C2455 C2456 1.410 . S
C2455 C2463 1.503 . S
C2456 C2455 1.410 . S
C2456 C2457 1.392 . S
C2456 C2459 1.511 . S
C2457 C2453 1.376 . S
C2457 C2456 1.392 . S
C2457 H2469 0.929 . S
C2458 C2454 1.531 . S
C2458 H2470 0.960 . S
C2458 H2471 0.962 . S
C2458 H2472 0.960 . S
C2459 C2456 1.511 . S
C2459 H2473 0.961 . S
C2459 H2474 0.961 . S
C2459 H2475 0.961 . S
C2460 C2461 1.370 . S
C2460 C2462 1.363 . S
C2460 H2476 0.931 . S
C2461 C2460 1.370 . S
C2461 C2465 1.408 . S
C2462 C2460 1.363 . S
C2462 C2463 1.370 . S
C2462 C2466 1.524 . S
C2463 C2455 1.503 . S
C2463 C2462 1.370 . S
C2463 C2464 1.403 . S
C2464 C2463 1.403 . S
C2464 C2465 1.404 . S
C2464 C2467 1.539 . S
C2465 C2461 1.408 . S
C2465 C2464 1.404 . S
C2465 H2477 0.930 . S
C2466 C2462 1.524 . S
C2466 H2478 0.956 . S
C2466 H2479 0.961 . S
C2466 H2480 0.961 . S
C2467 C2464 1.539 . S
C2467 H2481 0.958 . S
C2467 H2482 0.961 . S
C2467 H2483 0.960 . S
H2468 C2452 0.931 . S
H2469 C2457 0.929 . S
H2470 C2458 0.960 . S
H2471 C2458 0.962 . S
H2472 C2458 0.960 . S
H2473 C2459 0.961 . S
H2474 C2459 0.961 . S
H2475 C2459 0.961 . S
H2476 C2460 0.931 . S
H2477 C2465 0.930 . S
H2478 C2466 0.956 . S
H2479 C2466 0.961 . S
H2480 C2466 0.961 . S
H2481 C2467 0.958 . S
H2482 C2467 0.961 . S
H2483 C2467 0.960 . S
C2484 C2485 1.391 . S
C2484 C2486 1.394 . S
C2484 H2500 0.931 . S
C2485 C2484 1.391 . S
C2485 C2489 1.376 . S
C2486 C2484 1.394 . S
C2486 C2487 1.369 . S
C2486 C2490 1.531 . S
C2487 C2486 1.369 . S
C2487 C2488 1.410 . S
C2487 C2495 1.503 . S
C2488 C2487 1.410 . S
C2488 C2489 1.392 . S
C2488 C2491 1.511 . S
C2489 C2485 1.376 . S
C2489 C2488 1.392 . S
C2489 H2501 0.929 . S
C2490 C2486 1.531 . S
C2490 H2502 0.960 . S
C2490 H2503 0.962 . S
C2490 H2504 0.960 . S
C2491 C2488 1.511 . S
C2491 H2505 0.961 . S
C2491 H2506 0.961 . S
C2491 H2507 0.961 . S
C2492 C2493 1.370 . S
C2492 C2494 1.363 . S
C2492 H2508 0.931 . S
C2493 C2492 1.370 . S
C2493 C2497 1.408 . S
C2494 C2492 1.363 . S
C2494 C2495 1.370 . S
C2494 C2498 1.524 . S
C2495 C2487 1.503 . S
C2495 C2494 1.370 . S
C2495 C2496 1.403 . S
C2496 C2495 1.403 . S
C2496 C2497 1.404 . S
C2496 C2499 1.539 . S
C2497 C2493 1.408 . S
C2497 C2496 1.404 . S
C2497 H2509 0.930 . S
C2498 C2494 1.524 . S
C2498 H2510 0.956 . S
C2498 H2511 0.961 . S
C2498 H2512 0.961 . S
C2499 C2496 1.539 . S
C2499 H2513 0.958 . S
C2499 H2514 0.961 . S
C2499 H2515 0.960 . S
H2500 C2484 0.931 . S
H2501 C2489 0.929 . S
H2502 C2490 0.960 . S
H2503 C2490 0.962 . S
H2504 C2490 0.960 . S
H2505 C2491 0.961 . S
H2506 C2491 0.961 . S
H2507 C2491 0.961 . S
H2508 C2492 0.931 . S
H2509 C2497 0.930 . S
H2510 C2498 0.956 . S
H2511 C2498 0.961 . S
H2512 C2498 0.961 . S
H2513 C2499 0.958 . S
H2514 C2499 0.961 . S
H2515 C2499 0.960 . S
C2516 C2517 1.391 . S
C2516 C2518 1.394 . S
C2516 H2532 0.931 . S
C2517 C2516 1.391 . S
C2517 C2521 1.376 . S
C2518 C2516 1.394 . S
C2518 C2519 1.369 . S
C2518 C2522 1.531 . S
C2519 C2518 1.369 . S
C2519 C2520 1.410 . S
C2519 C2527 1.503 . S
C2520 C2519 1.410 . S
C2520 C2521 1.392 . S
C2520 C2523 1.511 . S
C2521 C2517 1.376 . S
C2521 C2520 1.392 . S
C2521 H2533 0.929 . S
C2522 C2518 1.531 . S
C2522 H2534 0.960 . S
C2522 H2535 0.962 . S
C2522 H2536 0.960 . S
C2523 C2520 1.511 . S
C2523 H2537 0.961 . S
C2523 H2538 0.961 . S
C2523 H2539 0.961 . S
C2524 C2525 1.370 . S
C2524 C2526 1.363 . S
C2524 H2540 0.931 . S
C2525 C2524 1.370 . S
C2525 C2529 1.408 . S
C2526 C2524 1.363 . S
C2526 C2527 1.370 . S
C2526 C2530 1.524 . S
C2527 C2519 1.503 . S
C2527 C2526 1.370 . S
C2527 C2528 1.403 . S
C2528 C2527 1.403 . S
C2528 C2529 1.404 . S
C2528 C2531 1.539 . S
C2529 C2525 1.408 . S
C2529 C2528 1.404 . S
C2529 H2541 0.930 . S
C2530 C2526 1.524 . S
C2530 H2542 0.956 . S
C2530 H2543 0.961 . S
C2530 H2544 0.961 . S
C2531 C2528 1.539 . S
C2531 H2545 0.958 . S
C2531 H2546 0.961 . S
C2531 H2547 0.960 . S
H2532 C2516 0.931 . S
H2533 C2521 0.929 . S
H2534 C2522 0.960 . S
H2535 C2522 0.962 . S
H2536 C2522 0.960 . S
H2537 C2523 0.961 . S
H2538 C2523 0.961 . S
H2539 C2523 0.961 . S
H2540 C2524 0.931 . S
H2541 C2529 0.930 . S
H2542 C2530 0.956 . S
H2543 C2530 0.961 . S
H2544 C2530 0.961 . S
H2545 C2531 0.958 . S
H2546 C2531 0.961 . S
H2547 C2531 0.960 . S
C2548 C2549 1.391 . S
C2548 C2550 1.394 . S
C2548 H2564 0.931 . S
C2549 C2548 1.391 . S
C2549 C2553 1.376 . S
C2550 C2548 1.394 . S
C2550 C2551 1.369 . S
C2550 C2554 1.531 . S
C2551 C2550 1.369 . S
C2551 C2552 1.410 . S
C2551 C2559 1.503 . S
C2552 C2551 1.410 . S
C2552 C2553 1.392 . S
C2552 C2555 1.511 . S
C2553 C2549 1.376 . S
C2553 C2552 1.392 . S
C2553 H2565 0.929 . S
C2554 C2550 1.531 . S
C2554 H2566 0.960 . S
C2554 H2567 0.962 . S
C2554 H2568 0.960 . S
C2555 C2552 1.511 . S
C2555 H2569 0.961 . S
C2555 H2570 0.961 . S
C2555 H2571 0.961 . S
C2556 C2557 1.370 . S
C2556 C2558 1.363 . S
C2556 H2572 0.931 . S
C2557 C2556 1.370 . S
C2557 C2561 1.408 . S
C2558 C2556 1.363 . S
C2558 C2559 1.370 . S
C2558 C2562 1.524 . S
C2559 C2551 1.503 . S
C2559 C2558 1.370 . S
C2559 C2560 1.403 . S
C2560 C2559 1.403 . S
C2560 C2561 1.404 . S
C2560 C2563 1.539 . S
C2561 C2557 1.408 . S
C2561 C2560 1.404 . S
C2561 H2573 0.930 . S
C2562 C2558 1.524 . S
C2562 H2574 0.956 . S
C2562 H2575 0.961 . S
C2562 H2576 0.961 . S
C2563 C2560 1.539 . S
C2563 H2577 0.958 . S
C2563 H2578 0.961 . S
C2563 H2579 0.960 . S
H2564 C2548 0.931 . S
H2565 C2553 0.929 . S
H2566 C2554 0.960 . S
H2567 C2554 0.962 . S
H2568 C2554 0.960 . S
H2569 C2555 0.961 . S
H2570 C2555 0.961 . S
H2571 C2555 0.961 . S
H2572 C2556 0.931 . S
H2573 C2561 0.930 . S
H2574 C2562 0.956 . S
H2575 C2562 0.961 . S
H2576 C2562 0.961 . S
H2577 C2563 0.958 . S
H2578 C2563 0.961 . S
H2579 C2563 0.960 . S
C2580 C2581 1.391 . S
C2580 C2582 1.372 1_455 S
C2580 H2596 0.931 . S
C2581 C2580 1.391 . S
C2581 C2585 1.376 . S
C2582 C2580 1.372 1_655 S
C2582 C2583 1.355 1_655 S
C2582 C2586 1.568 . S
C2583 C2582 1.355 1_455 S
C2583 C2584 1.410 . S
C2583 C2591 1.503 1_456 S
C2584 C2583 1.410 . S
C2584 C2585 1.392 . S
C2584 C2587 1.511 1_556 S
C2585 C2581 1.376 . S
C2585 C2584 1.392 . S
C2585 H2597 0.929 . S
C2586 C2582 1.568 . S
C2586 H2598 0.960 . S
C2586 H2599 0.962 . S
C2586 H2600 0.960 . S
C2587 C2584 1.511 1_554 S
C2587 H2601 0.961 . S
C2587 H2602 0.961 . S
C2587 H2603 0.961 . S
C2588 C2589 1.370 . S
C2588 C2590 1.363 . S
C2588 H2604 0.931 . S
C2589 C2588 1.370 . S
C2589 C2593 1.408 . S
C2590 C2588 1.363 . S
C2590 C2591 1.370 . S
C2590 C2594 1.524 . S
C2591 C2583 1.503 1_654 S
C2591 C2590 1.370 . S
C2591 C2592 1.403 . S
C2592 C2591 1.403 . S
C2592 C2593 1.404 . S
C2592 C2595 1.539 . S
C2593 C2589 1.408 . S
C2593 C2592 1.404 . S
C2593 H2605 0.930 . S
C2594 C2590 1.524 . S
C2594 H2606 0.956 1_554 S
C2594 H2607 0.961 1_655 S
C2594 H2608 0.961 . S
C2595 C2592 1.539 . S
C2595 H2609 0.958 . S
C2595 H2610 0.961 . S
C2595 H2611 0.960 1_655 S
H2596 C2580 0.931 . S
H2597 C2585 0.929 . S
H2598 C2586 0.960 . S
H2599 C2586 0.962 . S
H2600 C2586 0.960 . S
H2601 C2587 0.961 . S
H2602 C2587 0.961 . S
H2603 C2587 0.961 . S
H2604 C2588 0.931 . S
H2605 C2593 0.930 . S
H2606 C2594 0.956 1_556 S
H2607 C2594 0.961 1_455 S
H2608 C2594 0.961 . S
H2609 C2595 0.958 . S
H2610 C2595 0.961 . S
H2611 C2595 0.960 1_455 S
C2612 C2613 1.391 . S
C2612 C2614 1.394 . S
C2612 H2628 0.931 . S
C2613 C2612 1.391 . S
C2613 C2617 1.376 . S
C2614 C2612 1.394 . S
C2614 C2615 1.369 . S
C2614 C2618 1.531 . S
C2615 C2614 1.369 . S
C2615 C2616 1.410 . S
C2615 C2623 1.503 1_554 S
C2616 C2615 1.410 . S
C2616 C2617 1.392 . S
C2616 C2619 1.511 1_554 S
C2617 C2613 1.376 . S
C2617 C2616 1.392 . S
C2617 H2629 0.929 . S
C2618 C2614 1.531 . S
C2618 H2630 0.960 . S
C2618 H2631 0.962 . S
C2618 H2632 0.960 . S
C2619 C2616 1.511 1_556 S
C2619 H2633 0.961 . S
C2619 H2634 0.961 . S
C2619 H2635 0.961 . S
C2620 C2621 1.370 . S
C2620 C2622 1.363 . S
C2620 H2636 0.931 . S
C2621 C2620 1.370 . S
C2621 C2625 1.408 . S
C2622 C2620 1.363 . S
C2622 C2623 1.370 . S
C2622 C2626 1.524 . S
C2623 C2615 1.503 1_556 S
C2623 C2622 1.370 . S
C2623 C2624 1.403 . S
C2624 C2623 1.403 . S
C2624 C2625 1.404 . S
C2624 C2627 1.539 . S
C2625 C2621 1.408 . S
C2625 C2624 1.404 . S
C2625 H2637 0.930 . S
C2626 C2622 1.524 . S
C2626 H2638 0.956 1_556 S
C2626 H2639 0.961 . S
C2626 H2640 0.961 . S
C2627 C2624 1.539 . S
C2627 H2641 0.958 1_556 S
C2627 H2642 0.961 . S
C2627 H2643 0.960 . S
H2628 C2612 0.931 . S
H2629 C2617 0.929 . S
H2630 C2618 0.960 . S
H2631 C2618 0.962 . S
H2632 C2618 0.960 . S
H2633 C2619 0.961 . S
H2634 C2619 0.961 . S
H2635 C2619 0.961 . S
H2636 C2620 0.931 . S
H2637 C2625 0.930 . S
H2638 C2626 0.956 1_554 S
H2639 C2626 0.961 . S
H2640 C2626 0.961 . S
H2641 C2627 0.958 1_554 S
H2642 C2627 0.961 . S
H2643 C2627 0.960 . S
C2644 C2645 1.391 . S
C2644 C2646 1.394 . S
C2644 H2660 0.931 . S
C2645 C2644 1.391 . S
C2645 C2649 1.376 . S
C2646 C2644 1.394 . S
C2646 C2647 1.369 . S
C2646 C2650 1.531 1_545 S
C2647 C2646 1.369 . S
C2647 C2648 1.410 . S
C2647 C2655 1.503 1_544 S
C2648 C2647 1.410 . S
C2648 C2649 1.392 . S
C2648 C2651 1.511 . S
C2649 C2645 1.376 . S
C2649 C2648 1.392 . S
C2649 H2661 0.929 . S
C2650 C2646 1.531 1_565 S
C2650 H2662 0.960 . S
C2650 H2663 0.955 1_565 S
C2650 H2664 0.960 . S
C2651 C2648 1.511 . S
C2651 H2665 0.961 . S
C2651 H2666 0.961 1_554 S
C2651 H2667 0.970 . S
C2652 C2653 1.370 . S
C2652 C2654 1.406 . S
C2652 H2668 0.931 . S
C2653 C2652 1.370 . S
C2653 C2657 1.408 . S
C2654 C2652 1.406 . S
C2654 C2655 1.390 . S
C2654 C2658 1.467 1_565 S
C2655 C2647 1.503 1_566 S
C2655 C2654 1.390 . S
C2655 C2656 1.403 . S
C2656 C2655 1.403 . S
C2656 C2657 1.404 . S
C2656 C2659 1.539 1_556 S
C2657 C2653 1.408 . S
C2657 C2656 1.404 . S
C2657 H2669 0.930 . S
C2658 C2654 1.467 1_545 S
C2658 H2670 0.956 . S
C2658 H2671 0.961 . S
C2658 H2672 0.961 . S
C2659 C2656 1.539 1_554 S
C2659 H2673 0.958 . S
C2659 H2674 0.961 . S
C2659 H2675 0.960 . S
H2660 C2644 0.931 . S
H2661 C2649 0.929 . S
H2662 C2650 0.960 . S
H2663 C2650 0.955 1_545 S
H2664 C2650 0.960 . S
H2665 C2651 0.961 . S
H2666 C2651 0.961 1_556 S
H2667 C2651 0.970 . S
H2668 C2652 0.931 . S
H2669 C2657 0.930 . S
H2670 C2658 0.956 . S
H2671 C2658 0.961 . S
H2672 C2658 0.961 . S
H2673 C2659 0.958 . S
H2674 C2659 0.961 . S
H2675 C2659 0.960 . S
C2676 C2677 1.391 . S
C2676 C2678 1.366 1_565 S
C2676 H2692 0.931 . S
C2677 C2676 1.391 . S
C2677 C2681 1.376 . S
C2678 C2676 1.366 1_545 S
C2678 C2679 1.369 1_545 S
C2678 C2682 1.561 . S
C2679 C2678 1.369 1_565 S
C2679 C2680 1.410 . S
C2679 C2687 1.503 1_566 S
C2680 C2679 1.410 . S
C2680 C2681 1.392 . S
C2680 C2683 1.511 1_556 S
C2681 C2677 1.376 . S
C2681 C2680 1.392 . S
C2681 H2693 0.929 . S
C2682 C2678 1.561 . S
C2682 H2694 0.960 . S
C2682 H2695 0.962 . S
C2682 H2696 0.960 . S
C2683 C2680 1.511 1_554 S
C2683 H2697 0.961 . S
C2683 H2698 0.961 . S
C2683 H2699 0.961 . S
C2684 C2685 1.370 . S
C2684 C2686 1.363 . S
C2684 H2700 0.931 . S
C2685 C2684 1.370 . S
C2685 C2689 1.408 . S
C2686 C2684 1.363 . S
C2686 C2687 1.370 . S
C2686 C2690 1.524 1_545 S
C2687 C2679 1.503 1_544 S
C2687 C2686 1.370 . S
C2687 C2688 1.403 . S
C2688 C2687 1.403 . S
C2688 C2689 1.404 . S
C2688 C2691 1.539 1_554 S
C2689 C2685 1.408 . S
C2689 C2688 1.404 . S
C2689 H2701 0.930 . S
C2690 C2686 1.524 1_565 S
C2690 H2702 0.956 . S
C2690 H2703 0.961 . S
C2690 H2704 0.961 . S
C2691 C2688 1.539 1_556 S
C2691 H2705 0.958 . S
C2691 H2706 0.961 1_556 S
C2691 H2707 0.960 . S
H2692 C2676 0.931 . S
H2693 C2681 0.929 . S
H2694 C2682 0.960 . S
H2695 C2682 0.962 . S
H2696 C2682 0.960 . S
H2697 C2683 0.961 . S
H2698 C2683 0.961 . S
H2699 C2683 0.961 . S
H2700 C2684 0.931 . S
H2701 C2689 0.930 . S
H2702 C2690 0.956 . S
H2703 C2690 0.961 . S
H2704 C2690 0.961 . S
H2705 C2691 0.958 . S
H2706 C2691 0.961 1_554 S
H2707 C2691 0.960 . S
C2708 C2709 1.391 . S
C2708 C2710 1.394 . S
C2708 H2724 0.931 . S
C2709 C2708 1.391 . S
C2709 C2713 1.376 . S
C2710 C2708 1.394 . S
C2710 C2711 1.369 . S
C2710 C2714 1.531 1_556 S
C2711 C2710 1.369 . S
C2711 C2712 1.410 . S
C2711 C2719 1.503 1_456 S
C2712 C2711 1.410 . S
C2712 C2713 1.392 . S
C2712 C2715 1.511 1_455 S
C2713 C2709 1.376 . S
C2713 C2712 1.392 . S
C2713 H2725 0.929 . S
C2714 C2710 1.531 1_554 S
C2714 H2726 0.960 . S
C2714 H2727 0.962 . S
C2714 H2728 0.960 1_554 S
C2715 C2712 1.511 1_655 S
C2715 H2729 0.961 . S
C2715 H2730 0.961 . S
C2715 H2731 0.961 . S
C2716 C2717 1.370 . S
C2716 C2718 1.363 . S
C2716 H2732 0.931 . S
C2717 C2716 1.370 . S
C2717 C2721 1.408 . S
C2718 C2716 1.363 . S
C2718 C2719 1.370 . S
C2718 C2722 1.524 1_655 S
C2719 C2711 1.503 1_654 S
C2719 C2718 1.370 . S
C2719 C2720 1.403 . S
C2720 C2719 1.403 . S
C2720 C2721 1.404 . S
C2720 C2723 1.539 1_554 S
C2721 C2717 1.408 . S
C2721 C2720 1.404 . S
C2721 H2733 0.930 . S
C2722 C2718 1.524 1_455 S
C2722 H2734 0.956 . S
C2722 H2735 0.961 . S
C2722 H2736 0.961 . S
C2723 C2720 1.539 1_556 S
C2723 H2737 0.958 . S
C2723 H2738 0.961 . S
C2723 H2739 0.960 . S
H2724 C2708 0.931 . S
H2725 C2713 0.929 . S
H2726 C2714 0.960 . S
H2727 C2714 0.962 . S
H2728 C2714 0.960 1_556 S
H2729 C2715 0.961 . S
H2730 C2715 0.961 . S
H2731 C2715 0.961 . S
H2732 C2716 0.931 . S
H2733 C2721 0.930 . S
H2734 C2722 0.956 . S
H2735 C2722 0.961 . S
H2736 C2722 0.961 . S
H2737 C2723 0.958 . S
H2738 C2723 0.961 . S
H2739 C2723 0.960 . S
C2740 C2741 1.391 . S
C2740 C2742 1.394 . S
C2740 H2756 0.931 . S
C2741 C2740 1.391 . S
C2741 C2745 1.376 . S
C2742 C2740 1.394 . S
C2742 C2743 1.369 . S
C2742 C2746 1.531 1_554 S
C2743 C2742 1.369 . S
C2743 C2744 1.410 . S
C2743 C2751 1.503 1_554 S
C2744 C2743 1.410 . S
C2744 C2745 1.392 . S
C2744 C2747 1.511 . S
C2745 C2741 1.376 . S
C2745 C2744 1.392 . S
C2745 H2757 0.929 . S
C2746 C2742 1.531 1_556 S
C2746 H2758 0.960 . S
C2746 H2759 0.962 . S
C2746 H2760 0.960 . S
C2747 C2744 1.511 . S
C2747 H2761 0.961 . S
C2747 H2762 0.961 . S
C2747 H2763 0.961 . S
C2748 C2749 1.370 . S
C2748 C2750 1.363 . S
C2748 H2764 0.931 . S
C2749 C2748 1.370 . S
C2749 C2753 1.408 . S
C2750 C2748 1.363 . S
C2750 C2751 1.370 . S
C2750 C2754 1.524 . S
C2751 C2743 1.503 1_556 S
C2751 C2750 1.370 . S
C2751 C2752 1.403 . S
C2752 C2751 1.403 . S
C2752 C2753 1.404 . S
C2752 C2755 1.539 . S
C2753 C2749 1.408 . S
C2753 C2752 1.404 . S
C2753 H2765 0.930 . S
C2754 C2750 1.524 . S
C2754 H2766 0.956 . S
C2754 H2767 0.961 1_556 S
C2754 H2768 0.961 . S
C2755 C2752 1.539 . S
C2755 H2769 0.958 . S
C2755 H2770 0.961 . S
C2755 H2771 0.960 1_556 S
H2756 C2740 0.931 . S
H2757 C2745 0.929 . S
H2758 C2746 0.960 . S
H2759 C2746 0.962 . S
H2760 C2746 0.960 . S
H2761 C2747 0.961 . S
H2762 C2747 0.961 . S
H2763 C2747 0.961 . S
H2764 C2748 0.931 . S
H2765 C2753 0.930 . S
H2766 C2754 0.956 . S
H2767 C2754 0.961 1_554 S
H2768 C2754 0.961 . S
H2769 C2755 0.958 . S
H2770 C2755 0.961 . S
H2771 C2755 0.960 1_554 S
C469 C5 1.097 . S
C477 C148 1.128 . S
C501 C18 1.113 . S
C509 C122 1.132 . S
C533 C135 1.100 . S
C541 C31 1.127 . S
C565 C44 1.141 . S
C573 C96 1.149 . S
C597 C109 1.188 . S
C605 C57 1.164 . S
C629 C70 1.146 . S
C637 C83 1.150 . S
C661 C304 1.184 . S
C669 C161 1.165 . S
C693 C174 1.175 . S
C701 C278 1.162 . S
C725 C187 1.117 . S
C733 C291 1.133 . S
C757 C252 1.181 . S
C765 C200 1.164 . S
C789 C213 1.186 . S
C797 C265 1.165 . S
C821 C239 1.098 . S
C829 C226 1.129 . S
C853 C317 1.108 . S
C861 C460 1.134 . S
C885 C434 1.115 . S
C893 C330 1.132 . S
C917 C447 1.130 . S
C925 C343 1.138 . S
C949 C408 1.151 . S
C957 C356 1.153 . S
C981 C421 1.162 . S
C989 C369 1.151 . S
C1013 C395 1.187 . S
C1021 C382 1.163 . S
C1045 C0 1.212 . S
C1053 C52 1.202 . S
C1077 C65 1.206 . S
C1085 C13 1.191 . S
C1109 C26 1.160 . S
C1117 C39 1.183 . S
C1141 C78 1.196 . S
C1149 C130 1.201 . S
C1173 C91 1.193 . S
C1181 C143 1.200 . S
C1205 C104 1.193 . S
C1213 C117 1.182 . S
C1237 C208 1.167 . S
C1245 C156 1.187 . S
C1269 C221 1.207 . S
C1277 C169 1.201 . S
C1301 C182 1.214 . S
C1309 C195 1.197 . S
C1333 C286 1.185 . S
C1341 C234 1.199 . S
C1365 C299 1.176 . S
C1373 C247 1.178 . S
C1397 C260 1.185 . S
C1405 C273 1.198 . S
C1429 C364 1.197 . S
C1437 C312 1.199 . S
C1461 C325 1.175 . S
C1469 C377 1.179 . S
C1493 C338 1.157 . S
C1501 C351 1.180 . S
C1525 C442 1.169 . S
C1533 C390 1.177 . S
C1557 C403 1.172 . S
C1565 C455 1.178 . S
C1589 C429 1.180 . S
C1597 C416 1.178 . S
C1621 C385 1.260 . S
C1629 C8 1.243 . S
C1653 C21 1.198 . S
C1661 C359 1.219 . S
C1685 C34 1.262 . S
C1693 C372 1.245 . S
C1717 C47 1.198 . S
C1725 C177 1.219 . S
C1749 C190 1.222 . S
C1757 C60 1.225 . S
C1781 C164 1.216 . S
C1789 C73 1.223 . S
C1813 C86 1.219 . S
C1821 C307 1.228 . S
C1845 C99 1.213 . S
C1853 C281 1.225 . S
C1877 C112 1.241 . S
C1885 C294 1.237 . S
C1909 C411 1.229 . S
C1917 C125 1.232 . S
C1941 C424 1.256 . S
C1949 C138 1.243 . S
C1973 C151 1.244 . S
C1981 C398 1.238 . S
C2005 C333 1.217 . S
C2013 C203 1.224 . S
C2037 C216 1.250 . S
C2045 C346 1.244 . S
C2069 C320 1.218 . S
C2077 C229 1.232 . S
C2101 C463 1.241 . S
C2109 C242 1.237 . S
C2133 C255 1.262 . S
C2141 C437 1.246 . S
C2165 C268 1.245 . S
C2173 C450 1.239 . S
C2197 C10 1.670 . S
C2205 C387 1.645 . S
C2229 C361 1.636 . S
C2237 C23 1.657 . S
C2261 C36 1.669 . S
C2269 C374 1.646 . S
C2293 C179 1.658 . S
C2301 C49 1.653 . S
C2325 C62 1.630 . S
C2333 C192 1.660 . S
C2357 C75 1.637 . S
C2365 C166 1.656 . S
C2389 C309 1.666 . S
C2397 C88 1.651 . S
C2421 C101 1.667 . S
C2429 C283 1.645 . S
C2453 C114 1.647 . S
C2461 C296 1.659 . S
C2485 C127 1.642 . S
C2493 C413 1.651 . S
C2517 C426 1.640 . S
C2525 C140 1.661 . S
C2549 C153 1.657 . S
C2557 C400 1.646 . S
C2581 C335 1.655 . S
C2589 C205 1.653 . S
C2613 C218 1.651 . S
C2621 C348 1.655 . S
C2645 C231 1.631 . S
C2653 C322 1.662 . S
C2677 C465 1.635 . S
C2685 C244 1.654 . S
C2709 C439 1.635 . S
C2717 C257 1.662 . S
C2741 C270 1.655 . S
C2749 C452 1.657 . S
