# Generated by pormake.
# Topology wkb, (5)-cn, num edge types: 1
# Building blocks:
#     Node 0, Type 0, BuildingBlock: XOMCOT_clean_sbu_1, # of connection points: 5
#     Node 1, Type 0, BuildingBlock: XOMCOT_clean_sbu_1, # of connection points: 5
#     Node 2, Type 0, BuildingBlock: XOMCOT_clean_sbu_1, # of connection points: 5
#     Node 3, Type 0, BuildingBlock: XOMCOT_clean_sbu_1, # of connection points: 5
#     Node 4, Type 0, BuildingBlock: XOMCOT_clean_sbu_1, # of connection points: 5
#     Node 5, Type 0, BuildingBlock: XOMCOT_clean_sbu_1, # of connection points: 5
#     Node 6, Type 0, BuildingBlock: XOMCOT_clean_sbu_1, # of connection points: 5
#     Node 7, Type 0, BuildingBlock: XOMCOT_clean_sbu_1, # of connection points: 5
#     Node 8, Type 0, BuildingBlock: XOMCOT_clean_sbu_1, # of connection points: 5
#     Node 9, Type 0, BuildingBlock: XOMCOT_clean_sbu_1, # of connection points: 5
#     Node 10, Type 0, BuildingBlock: XOMCOT_clean_sbu_1, # of connection points: 5
#     Node 11, Type 0, BuildingBlock: XOMCOT_clean_sbu_1, # of connection points: 5
#     Edge 12, Type (0, 0), BuildingBlock: CIFDUS_clean_linker_0, # of connection points: 2
#     Edge 13, Type (0, 0), BuildingBlock: CIFDUS_clean_linker_0, # of connection points: 2
#     Edge 14, Type (0, 0), BuildingBlock: CIFDUS_clean_linker_0, # of connection points: 2
#     Edge 15, Type (0, 0), BuildingBlock: CIFDUS_clean_linker_0, # of connection points: 2
#     Edge 16, Type (0, 0), BuildingBlock: CIFDUS_clean_linker_0, # of connection points: 2
#     Edge 17, Type (0, 0), BuildingBlock: CIFDUS_clean_linker_0, # of connection points: 2
#     Edge 18, Type (0, 0), BuildingBlock: CIFDUS_clean_linker_0, # of connection points: 2
#     Edge 19, Type (0, 0), BuildingBlock: CIFDUS_clean_linker_0, # of connection points: 2
#     Edge 20, Type (0, 0), BuildingBlock: CIFDUS_clean_linker_0, # of connection points: 2
#     Edge 21, Type (0, 0), BuildingBlock: CIFDUS_clean_linker_0, # of connection points: 2
#     Edge 22, Type (0, 0), BuildingBlock: CIFDUS_clean_linker_0, # of connection points: 2
#     Edge 23, Type (0, 0), BuildingBlock: CIFDUS_clean_linker_0, # of connection points: 2
#     Edge 24, Type (0, 0), BuildingBlock: CIFDUS_clean_linker_0, # of connection points: 2
#     Edge 25, Type (0, 0), BuildingBlock: CIFDUS_clean_linker_0, # of connection points: 2
#     Edge 26, Type (0, 0), BuildingBlock: CIFDUS_clean_linker_0, # of connection points: 2
#     Edge 27, Type (0, 0), BuildingBlock: CIFDUS_clean_linker_0, # of connection points: 2
#     Edge 28, Type (0, 0), BuildingBlock: CIFDUS_clean_linker_0, # of connection points: 2
#     Edge 29, Type (0, 0), BuildingBlock: CIFDUS_clean_linker_0, # of connection points: 2
#     Edge 30, Type (0, 0), BuildingBlock: CIFDUS_clean_linker_0, # of connection points: 2
#     Edge 31, Type (0, 0), BuildingBlock: CIFDUS_clean_linker_0, # of connection points: 2
#     Edge 32, Type (0, 0), BuildingBlock: CIFDUS_clean_linker_0, # of connection points: 2
#     Edge 33, Type (0, 0), BuildingBlock: CIFDUS_clean_linker_0, # of connection points: 2
#     Edge 34, Type (0, 0), BuildingBlock: CIFDUS_clean_linker_0, # of connection points: 2
#     Edge 35, Type (0, 0), BuildingBlock: CIFDUS_clean_linker_0, # of connection points: 2
#     Edge 36, Type (0, 0), BuildingBlock: CIFDUS_clean_linker_0, # of connection points: 2
#     Edge 37, Type (0, 0), BuildingBlock: CIFDUS_clean_linker_0, # of connection points: 2
#     Edge 38, Type (0, 0), BuildingBlock: CIFDUS_clean_linker_0, # of connection points: 2
#     Edge 39, Type (0, 0), BuildingBlock: CIFDUS_clean_linker_0, # of connection points: 2
#     Edge 40, Type (0, 0), BuildingBlock: CIFDUS_clean_linker_0, # of connection points: 2
#     Edge 41, Type (0, 0), BuildingBlock: CIFDUS_clean_linker_0, # of connection points: 2
# Relax obj value: 0.074
# Max RMSD: 0.108
# Mean RMSD: 0.108
data_MOF--net-wkb--node1-XOMCOT_clean_sbu_1--edge1-CIFDUS_clean_linker_0
_symmetry_space_group_name_H-M    P1
_symmetry_Int_Tables_number       1
_symmetry_cell_setting            triclinic
loop_
_symmetry_equiv_pos_as_xyz
'x, y, z'
_cell_length_a     40.830395
_cell_length_b     40.796911
_cell_length_c     33.855638
_cell_angle_alpha  89.969529
_cell_angle_beta   90.182188
_cell_angle_gamma 119.95347
loop_
_atom_site_label
_atom_site_type_symbol
_atom_site_fract_x
_atom_site_fract_y
_atom_site_fract_z
_atom_type_partial_charge
C0 C 0.10916 0.3892 0.98313 0.0
C1 C 0.10029 0.38518 0.94373 0.0
N2 N 0.07255 0.34935 0.93756 0.0
N3 N 0.08718 0.356 0.00151 0.0
C4 C 0.06484 0.33215 0.97306 0.0
H5 H 0.13105 0.41439 -0.00259 0.0
Co6 Co 0.09441 0.34832 0.05338 0.0
C7 C 1.03274 0.27218 0.07237 0.0
O8 O 0.05871 0.26313 0.0806 0.0
N9 N 0.10254 0.34166 0.10581 0.0
C10 C 0.09619 0.33388 0.17076 0.0
C11 C 0.0798 0.33722 0.13667 0.0
C12 C 0.13248 0.34104 0.12168 0.0
N13 N 0.12923 0.3362 0.16113 0.0
O14 O 0.11427 0.31629 0.03588 0.0
H15 H 0.05296 0.3364 0.13446 0.0
H16 H 0.15654 0.34474 0.10482 0.0
O17 O 0.04279 0.30502 0.05824 0.0
C18 C 0.14776 0.33541 0.02206 0.0
O19 O 0.1652 0.37245 0.02523 0.0
N20 N 0.07861 0.38252 0.06813 0.0
C21 C 0.06888 0.44533 0.07227 0.0
C22 C 1.03835 0.40964 0.06253 0.0
C23 C 0.04392 0.37842 0.06017 0.0
C24 C 0.10783 0.41652 0.08 0.0
C25 C 0.10362 0.44835 0.08214 0.0
H26 H 1.02122 0.35184 0.04924 0.0
H27 H 0.13537 0.41951 0.08505 0.0
H28 H 0.04453 0.30257 0.97788 0.0
H29 H 0.11324 0.40678 0.92124 0.0
H30 H 0.08457 0.32968 0.20023 0.0
H31 H 1.0113 0.4065 0.05414 0.0
H32 H 0.12785 0.47553 0.08952 0.0
C33 C 0.74873 0.09374 0.14552 0.0
C34 C 0.74584 0.08505 0.10614 0.0
N35 N 0.75575 0.05844 0.10127 0.0
N36 N 0.76048 0.07272 0.16517 0.0
C37 C 0.76429 0.05115 0.13749 0.0
H38 H 0.7439 0.11501 0.15892 0.0
Co39 Co 0.77426 0.08095 0.21729 0.0
C40 C 0.78966 1.02025 0.23906 0.0
O41 O 0.82423 0.04677 0.24795 0.0
N42 N 0.78791 0.09015 0.26989 0.0
C43 C 0.78813 0.0856 0.3351 0.0
C44 C 0.76966 0.06775 0.30095 0.0
C45 C 0.81707 0.12136 0.28567 0.0
N46 N 0.81802 0.11936 0.32539 0.0
O47 O 0.82659 0.10146 0.20121 0.0
H48 H 0.7443 0.04035 0.29888 0.0
H49 H 0.83731 0.145 0.26826 0.0
O50 O 0.76671 0.02962 0.22383 0.0
C51 C 0.84046 0.13473 0.18671 0.0
O52 O 0.82002 0.15137 0.18844 0.0
N53 N 0.72394 0.0647 0.2306 0.0
C54 C 0.65116 0.05424 0.23365 0.0
C55 C 0.65674 1.02378 0.22477 0.0
C56 C 0.69367 0.02972 0.22297 0.0
C57 C 0.71872 0.09391 0.24142 0.0
C58 C 0.68256 0.08932 0.24303 0.0
H59 H 0.69795 1.00702 0.2129 0.0
H60 H 0.74303 0.12167 0.2462 0.0
H61 H 0.77466 0.03184 0.14342 0.0
H62 H 0.73732 0.09739 0.08278 0.0
H63 H 0.77966 0.07478 0.36473 0.0
H64 H 0.63306 0.99645 0.2168 0.0
H65 H 0.67927 0.11349 0.24971 0.0
C66 C 0.68929 0.73351 0.31196 0.0
C67 C 0.69413 0.72907 0.27273 0.0
N68 N 0.73068 0.73961 0.26708 0.0
N69 N 0.72264 0.74684 0.33088 0.0
C70 C 0.74749 0.75009 0.30283 0.0
H71 H 0.66334 0.72847 0.32577 0.0
Co72 Co 0.72827 0.7617 0.38282 0.0
C73 C 0.80485 0.77929 0.40585 0.0
O74 O 0.81254 0.81408 0.41296 0.0
N75 N 0.73274 0.77633 0.43524 0.0
C76 C 0.73866 0.77766 0.5005 0.0
C77 C 0.73716 0.75845 0.46666 0.0
C78 C 0.73153 0.80615 0.45057 0.0
N79 N 0.7352 0.80765 0.4902 0.0
O80 O 0.75879 0.814 0.36567 0.0
H81 H 0.73931 0.73311 0.46501 0.0
H82 H 0.72748 0.82608 0.43315 0.0
O83 O 0.77293 0.75576 0.39024 0.0
C84 C 0.73879 0.82711 0.35084 0.0
O85 O 0.70181 0.80587 0.35229 0.0
N86 N 0.69551 0.7112 0.39729 0.0
C87 C 0.63621 0.63673 0.40629 0.0
C88 C 0.67257 0.64432 0.3953 0.0
C89 C 0.70181 0.68181 0.39056 0.0
C90 C 0.66091 0.70454 0.40917 0.0
C91 C 0.63095 0.66768 0.41383 0.0
H92 H 0.72881 0.68705 0.37961 0.0
H93 H 0.65604 0.72809 0.41305 0.0
H94 H 0.77738 0.76134 0.30811 0.0
H95 H 0.67256 0.71909 0.24998 0.0
H96 H 0.74257 0.77048 0.53026 0.0
H97 H 0.67823 0.62156 0.38935 0.0
H98 H 0.60344 0.66367 0.42133 0.0
C99 C 0.96416 0.67337 0.48962 0.0
C100 C 0.96999 0.67707 0.44957 0.0
N101 N 1.00031 0.71126 0.44256 0.0
N102 N 0.99073 0.7051 0.5076 0.0
C103 C 1.0124 0.72775 0.4782 0.0
H104 H 0.94188 0.64924 0.50481 0.0
Co105 Co 0.99123 0.71415 0.56101 0.0
C106 C 0.07712 0.76247 0.56755 0.0
O107 O 0.08148 0.7335 0.57571 0.0
N108 N 0.99096 0.72377 0.61492 0.0
C109 C 1.00541 0.73367 0.67882 0.0
C110 C 1.01766 0.73 0.6423 0.0
C111 C 0.96286 0.72395 0.63553 0.0
N112 N 0.97094 0.72985 0.67445 0.0
O113 O 0.97264 0.74847 0.5482 0.0
H114 H 0.04373 0.73022 0.6367 0.0
H115 H 0.93633 0.71838 0.62254 0.0
O116 O 0.04419 0.75766 0.56009 0.0
C117 C 0.93761 0.72998 0.53866 0.0
O118 O 0.91891 0.69341 0.54564 0.0
N119 N 1.00478 0.67604 0.57152 0.0
C120 C 1.00655 0.60811 0.57861 0.0
C121 C 1.02767 0.63475 0.54944 0.0
C122 C 1.02597 0.66811 0.54604 0.0
C123 C 0.98402 0.65016 0.59995 0.0
C124 C 0.98528 0.6168 0.60463 0.0
H125 H 1.04091 0.68705 0.52191 0.0
H126 H 0.96452 0.65405 0.61809 0.0
H127 H 1.03613 0.75593 0.48271 0.0
H128 H 0.9537 0.656 0.42738 0.0
H129 H 1.02044 0.73826 0.7065 0.0
H130 H 0.0438 0.62906 0.52797 0.0
H131 H 0.96843 0.59729 0.62769 0.0
C132 C 0.33881 0.9619 0.65503 0.0
C133 C 0.34341 0.97044 0.61555 0.0
N134 N 0.33239 0.99598 0.60869 0.0
N135 N 0.32484 0.98192 0.67269 0.0
C136 C 0.32145 1.00273 0.64377 0.0
H137 H 0.34387 0.94131 0.66977 0.0
Co138 Co 0.30779 0.97396 0.72376 0.0
C139 C 0.2937 0.03628 0.74109 0.0
O140 O 0.25825 1.0107 0.74759 0.0
N141 N 0.29091 0.96542 0.7754 0.0
C142 C 0.28782 0.97154 0.84017 0.0
C143 C 0.30807 0.9883 0.80664 0.0
C144 C 0.26041 0.93499 0.79049 0.0
N145 N 0.2579 0.93807 0.82985 0.0
O146 O 0.25657 0.95452 0.70367 0.0
H147 H 0.33384 1.01539 0.80513 0.0
H148 H 0.24095 0.91067 0.77316 0.0
O149 O 0.31659 1.02576 0.72849 0.0
C150 C 0.24413 0.92166 0.68862 0.0
O151 O 0.26478 0.90537 0.69227 0.0
N152 N 0.35694 0.98907 0.74129 0.0
C153 C 0.42867 0.99907 0.75724 0.0
C154 C 0.4245 0.02911 0.74265 0.0
C155 C 0.38827 1.02347 0.73465 0.0
C156 C 0.36038 0.95988 0.75602 0.0
C157 C 0.3958 0.96426 0.76429 0.0
H158 H 0.38555 0.04613 0.72151 0.0
H159 H 0.33538 0.93243 0.75971 0.0
H160 H 0.30952 1.02095 0.64791 0.0
H161 H 0.35369 0.95861 0.59347 0.0
H162 H 0.29443 0.98311 0.86977 0.0
H163 H 0.44898 0.05648 0.73675 0.0
H164 H 0.39732 0.93988 0.77445 0.0
C165 C 0.40305 0.32143 0.82077 0.0
C166 C 0.39994 0.32623 0.78112 0.0
N167 N 0.36395 0.31698 0.77359 0.0
N168 N 0.36915 0.30915 0.8379 0.0
C169 C 0.3458 0.30688 0.8085 0.0
H170 H 0.42813 0.32562 0.83612 0.0
Co171 Co 0.35969 0.29377 0.88951 0.0
C172 C 0.28296 0.27913 0.90523 0.0
O173 O 0.27343 0.2439 0.91284 0.0
N174 N 0.351 0.27829 0.94165 0.0
C175 C 0.34073 0.27572 0.00619 0.0
C176 C 0.34492 0.29583 0.97223 0.0
C177 C 0.35039 0.24776 0.95753 0.0
N178 N 0.34408 0.2455 0.99671 0.0
O179 O 0.32858 0.24206 0.87099 0.0
H180 H 0.34376 0.32168 0.96994 0.0
H181 H 0.35531 0.22799 0.94092 0.0
O182 O 0.31622 0.30195 0.89233 0.0
C183 C 0.34803 0.22779 0.85772 0.0
O184 O 0.38498 0.24744 0.86163 0.0
N185 N 0.39283 0.34379 0.90559 0.0
C186 C 0.4535 0.41719 0.91666 0.0
C187 C 0.41969 0.41101 0.89885 0.0
C188 C 0.38963 0.37402 0.89356 0.0
C189 C 0.42474 0.34921 0.9243 0.0
C190 C 0.4551 0.38559 0.93068 0.0
H191 H 0.36487 0.36964 0.87743 0.0
H192 H 0.42731 0.32502 0.9328 0.0
H193 H 0.31593 0.29671 0.81227 0.0
H194 H 0.4223 0.33577 0.75945 0.0
H195 H 0.33541 0.28258 0.03549 0.0
H196 H 0.41716 0.43431 0.88702 0.0
H197 H 0.48012 0.38875 0.94534 0.0
C198 C 0.68194 0.96617 0.83688 0.0
C199 C 0.68792 0.97479 0.87627 0.0
N200 N 0.72497 0.99932 0.88156 0.0
N201 N 0.71513 0.98514 0.81763 0.0
C202 C 0.74095 1.00546 0.84557 0.0
H203 H 0.65536 0.94616 0.82326 0.0
Co204 Co 0.72058 0.97603 0.76573 0.0
C205 C 0.79738 0.03555 0.74433 0.0
O206 O 0.80489 1.00872 0.73509 0.0
N207 N 0.72493 0.96614 0.71334 0.0
C208 C 0.72988 0.97053 0.64816 0.0
C209 C 0.72963 0.98865 0.68215 0.0
C210 C 0.72222 0.93454 0.69775 0.0
N211 N 0.72527 0.93645 0.658 0.0
O212 O 0.75117 0.95406 0.78285 0.0
H213 H 0.73232 1.01636 0.68402 0.0
H214 H 0.71826 0.91073 0.71534 0.0
O215 O 0.76522 1.02657 0.75941 0.0
C216 C 0.7306 0.92175 0.79895 0.0
O217 O 0.69371 0.90699 0.79788 0.0
N218 N 0.68781 0.99387 0.75131 0.0
C219 C 0.62865 1.00894 0.74289 0.0
C220 C 0.6653 0.03822 0.75166 0.0
C221 C 0.69459 0.02998 0.75634 0.0
C222 C 0.65267 0.9655 0.74114 0.0
C223 C 0.62261 0.97236 0.73702 0.0
H224 H 0.72202 0.05216 0.76594 0.0
H225 H 0.64758 0.93691 0.7383 0.0
H226 H 0.77093 1.02292 0.84003 0.0
H227 H 0.66683 0.96375 0.89937 0.0
H228 H 0.73248 0.98144 0.61851 0.0
H229 H 0.67077 0.06672 0.75687 0.0
H230 H 0.59461 0.94907 0.73038 0.0
C231 C 0.76191 0.67265 -0.00038 0.0
C232 C 0.75957 0.67674 0.03955 0.0
N233 N 0.76419 0.71133 0.04616 0.0
N234 N 0.76799 0.70453 0.98128 0.0
C235 C 0.76917 0.72766 0.01036 0.0
H236 H 0.75977 0.64819 0.98475 0.0
Co237 Co 0.77768 0.71278 0.92792 0.0
C238 C 0.74109 0.76121 0.91497 0.0
O239 O 0.70911 0.73242 0.90298 0.0
N240 N 0.78863 0.72142 0.87385 0.0
C241 C 0.78535 0.7296 0.80931 0.0
C242 C 0.76692 0.72324 0.84467 0.0
C243 C 0.82013 0.72675 0.8553 0.0
N244 N 0.81891 0.73186 0.816 0.0
O245 O 0.83032 0.747 0.94168 0.0
H246 H 0.73872 0.71858 0.84819 0.0
H247 H 0.84352 0.72682 0.87036 0.0
O248 O 0.76828 0.75643 0.92693 0.0
C249 C 0.84625 0.72815 0.95222 0.0
O250 O 0.82805 0.69149 0.94565 0.0
N251 N 0.72645 0.67488 0.917 0.0
C252 C 0.65709 0.60672 0.9116 0.0
C253 C 0.66181 0.6353 0.938 0.0
C254 C 0.69674 0.66884 0.94062 0.0
C255 C 0.72218 0.64724 0.89125 0.0
C256 C 0.68771 0.61366 0.88733 0.0
H257 H 0.70031 0.68939 0.96286 0.0
H258 H 0.74614 0.65014 0.87486 0.0
H259 H 0.77442 0.75611 0.00556 0.0
H260 H 0.75433 0.65575 0.06196 0.0
H261 H 0.77415 0.73098 0.78074 0.0
H262 H 0.63945 0.63106 0.9581 0.0
H263 H 0.68567 0.59269 0.86637 0.0
C264 C 0.09895 0.73202 0.17769 0.0
C265 C 0.08938 0.72765 0.21682 0.0
N266 N 0.06307 0.73788 0.22202 0.0
N267 N 0.07882 0.74502 0.15841 0.0
C268 C 0.05686 0.74814 0.18611 0.0
H269 H 0.12009 0.7271 0.1642 0.0
Co270 Co 0.08803 0.75928 0.1064 0.0
C271 C 1.02919 0.77692 0.08298 0.0
O272 O 0.05638 0.81152 0.07547 0.0
N273 N 0.09814 0.77317 0.05388 0.0
C274 C 0.09386 0.77292 0.9886 0.0
C275 C 0.07568 0.75505 0.02269 0.0
C276 C 0.12977 0.80175 0.03818 0.0
N277 N 0.12794 0.80239 -0.00163 0.0
O278 O 0.10971 0.8118 0.12297 0.0
H279 H 0.04799 0.73009 0.02462 0.0
H280 H 0.15359 0.8217 0.05572 0.0
O281 O 1.03748 0.75336 0.09874 0.0
C282 C 0.14268 0.82513 0.13818 0.0
O283 O 0.1586 0.80399 0.13731 0.0
N284 N 0.07041 0.70865 0.09253 0.0
C285 C 0.0556 0.63419 0.08406 0.0
C286 C 1.02666 0.64177 0.09448 0.0
C287 C 1.03474 0.67927 0.09895 0.0
C288 C 0.09852 0.70198 0.08127 0.0
C289 C 0.09181 0.66513 0.0769 0.0
H290 H 1.01281 0.68454 0.10936 0.0
H291 H 0.12691 0.72554 0.07763 0.0
H292 H 1.03799 0.75908 0.18048 0.0
H293 H 0.10096 0.7179 0.23981 0.0
H294 H 0.08302 0.76423 0.95895 0.0
H295 H 0.99823 0.619 0.10013 0.0
H296 H 0.11543 0.66115 0.06989 0.0
C297 C 0.39967 0.09124 0.34276 0.0
C298 C 0.3953 0.08236 0.38211 0.0
N299 N 0.35916 0.05537 0.38795 0.0
N300 N 0.36637 0.07004 0.32412 0.0
C301 C 0.3421 0.04809 0.35234 0.0
H302 H 0.42521 0.11259 0.32866 0.0
Co303 Co 0.35975 0.07795 0.27224 0.0
C304 C 0.28272 1.01816 0.25157 0.0
O305 O 0.27511 0.04494 0.24228 0.0
N306 N 0.35438 0.08692 0.21978 0.0
C307 C 0.34829 0.08201 0.15466 0.0
C308 C 0.34912 0.06414 0.18867 0.0
C309 C 0.35685 0.11839 0.20415 0.0
N310 N 0.35312 0.11619 0.16447 0.0
O311 O 0.32942 0.10005 0.28924 0.0
H312 H 0.3465 0.03646 0.1906 0.0
H313 H 0.36117 0.14236 0.22165 0.0
O314 O 0.31498 1.02725 0.26673 0.0
C315 C 0.34931 0.13342 0.30345 0.0
O316 O 0.38629 0.14956 0.30135 0.0
N317 N 0.39213 0.05974 0.25787 0.0
C318 C 0.45083 0.04372 0.24852 0.0
C319 C 0.4146 1.01542 0.26043 0.0
C320 C 0.38567 1.02409 0.26529 0.0
C321 C 0.42662 0.08723 0.24515 0.0
C322 C 0.45628 0.07989 0.24026 0.0
H323 H 0.35879 1.00268 0.27685 0.0
H324 H 0.43164 0.11564 0.24069 0.0
H325 H 0.3124 0.02837 0.34727 0.0
H326 H 0.41689 0.09474 0.40477 0.0
H327 H 0.34518 0.0709 0.12504 0.0
H328 H 0.40883 0.98705 0.26696 0.0
H329 H 0.48375 0.10302 0.232 0.0
C330 C 0.33842 0.39016 0.50799 0.0
C331 C 0.34317 0.38557 0.54725 0.0
N332 N 0.33487 0.34958 0.55275 0.0
N333 N 0.32706 0.35716 0.489 0.0
C334 C 0.32536 0.33284 0.51698 0.0
H335 H 0.34186 0.41561 0.49422 0.0
Co336 Co 0.31226 0.3506 0.43709 0.0
C337 C 0.29749 0.27453 0.41615 0.0
O338 O 0.26263 0.26593 0.40787 0.0
N339 N 0.29765 0.34526 0.38468 0.0
C340 C 0.29663 0.33984 0.3195 0.0
C341 C 0.31546 0.34072 0.35347 0.0
C342 C 0.26835 0.34729 0.36914 0.0
N343 N 0.26693 0.34397 0.32942 0.0
O344 O 0.26028 0.31848 0.45418 0.0
H345 H 0.34087 0.33872 0.3553 0.0
H346 H 0.24847 0.35113 0.38671 0.0
O347 O 0.32037 0.30713 0.43083 0.0
C348 C 0.24601 0.33751 0.46869 0.0
O349 O 0.26585 0.3746 0.46657 0.0
N350 N 0.36227 0.3849 0.42276 0.0
C351 C 0.43475 0.44767 0.41912 0.0
C352 C 0.4296 0.41181 0.42804 0.0
C353 C 0.39283 0.38059 0.43016 0.0
C354 C 0.36704 0.41912 0.41173 0.0
C355 C 0.40303 0.45091 0.40985 0.0
H356 H 0.38895 0.35381 0.4404 0.0
H357 H 0.34251 0.42225 0.40712 0.0
H358 H 0.31591 0.30327 0.51163 0.0
H359 H 0.35185 0.40689 0.57012 0.0
H360 H 0.30483 0.3373 0.28981 0.0
H361 H 0.4535 0.40847 0.43592 0.0
H362 H 0.40596 0.47821 0.40308 0.0
C363 C 0.97611 0.32226 0.66972 0.0
C364 C 0.98429 0.32708 0.70931 0.0
N365 N 1.01109 0.31783 0.7165 0.0
N366 N 0.99761 0.30993 0.65229 0.0
C367 C 1.01892 0.30769 0.68146 0.0
H368 H 0.95511 0.32645 0.65462 0.0
Co369 Co 0.99127 0.2947 0.60058 0.0
C370 C 0.05343 0.28028 0.58364 0.0
O371 O 1.02779 0.24514 0.57556 0.0
N372 N 0.98407 0.27948 0.54836 0.0
C373 C 0.99109 0.27725 0.48364 0.0
C374 C 1.00738 0.29712 0.51767 0.0
C375 C 0.95394 0.24917 0.53249 0.0
N376 N 0.95759 0.24711 0.4932 0.0
O377 O 0.97088 0.2428 0.61861 0.0
H378 H 1.03442 0.32289 0.51992 0.0
H379 H 0.9294 0.22944 0.5492 0.0
O380 O 0.04293 0.30294 0.59712 0.0
C381 C 0.93734 0.22861 0.63227 0.0
O382 O 0.92025 0.24857 0.62931 0.0
N383 N 1.00778 0.34475 0.58496 0.0
C384 C 1.02007 0.41807 0.57438 0.0
C385 C 0.04834 0.41204 0.59077 0.0
C386 C 1.04158 0.37507 0.59594 0.0
C387 C 0.98062 0.35005 0.56765 0.0
C388 C 0.98633 0.38638 0.56166 0.0
H389 H 0.06251 0.37081 0.61104 0.0
H390 H 0.95361 0.32579 0.56004 0.0
H391 H 1.03863 0.29753 0.67743 0.0
H392 H 0.97159 0.33661 0.73118 0.0
H393 H 1.00297 0.28425 0.45424 0.0
H394 H 0.07461 0.43549 0.60154 0.0
H395 H 0.96392 0.38948 0.54825 0.0
H396 H 0.24946 0.31565 0.25555 0.0
H397 H 0.22302 0.37529 0.34379 0.0
H398 H 0.17686 0.37695 0.2995 0.0
H399 H 0.14491 0.36272 0.23518 0.0
H400 H 0.17322 0.30573 0.14598 0.0
H401 H 0.21864 0.30267 0.1909 0.0
C402 C 0.23401 0.32942 0.26504 0.0
C403 C 0.2398 0.3452 0.3031 0.0
C404 C 0.20801 0.33096 0.23916 0.0
C405 C 0.21885 0.36232 0.31499 0.0
C406 C 0.19258 0.36356 0.28955 0.0
C407 C 0.16085 0.34938 0.22579 0.0
C408 C 0.1558 0.33439 0.18753 0.0
C409 C 0.18697 0.34799 0.2516 0.0
C410 C 0.177 0.31775 0.17528 0.0
C411 C 0.20277 0.31585 0.20096 0.0
H412 H 0.83512 0.10784 0.39915 0.0
H413 H 0.86253 0.19451 0.31128 0.0
H414 H 0.9095 0.24169 0.35542 0.0
H415 H 0.94207 0.25864 0.41942 0.0
H416 H 0.91266 0.17288 0.50836 0.0
H417 H 0.86633 0.12498 0.46361 0.0
C418 C 0.85095 0.13707 0.38973 0.0
C419 C 0.84527 0.14741 0.3518 0.0
C420 C 0.87743 0.16423 0.41551 0.0
C421 C 0.86665 0.18546 0.33998 0.0
C422 C 0.89339 0.2126 0.36532 0.0
C423 C 0.92569 0.22938 0.42875 0.0
C424 C 0.93069 0.21908 0.46685 0.0
C425 C 0.89901 0.20227 0.40309 0.0
C426 C 0.90893 0.18132 0.47913 0.0
C427 C 0.88264 0.15401 0.45357 0.0
H428 H 0.70766 0.79625 0.56374 0.0
H429 H 0.7638 0.88184 0.47468 0.0
H430 H 0.76578 0.92987 0.51933 0.0
H431 H 0.75288 0.94739 0.58394 0.0
H432 H 0.69433 0.86119 0.67226 0.0
H433 H 0.6929 0.81358 0.6279 0.0
C434 C 0.7205 0.82547 0.5543 0.0
C435 C 0.73567 0.83563 0.51618 0.0
C436 C 0.72138 0.85276 0.58001 0.0
C437 C 0.75166 0.8734 0.50385 0.0
C438 C 0.75297 0.90084 0.5294 0.0
C439 C 0.73933 0.91819 0.59345 0.0
C440 C 0.72386 0.90811 0.63157 0.0
C441 C 0.73796 0.8908 0.56756 0.0
C442 C 0.70706 0.87005 0.64343 0.0
C443 C 0.70596 0.84267 0.61795 0.0
H444 H 0.92176 0.75507 0.66943 0.0
H445 H 0.9659 0.7037 0.7487 0.0
H446 H 0.92325 0.701 0.80062 0.0
H447 H 0.87156 0.71054 0.82217 0.0
H448 H 0.8285 0.76369 0.74355 0.0
H449 H 0.87214 0.76775 0.69236 0.0
C450 C 0.92185 0.7432 0.69805 0.0
C451 C 0.9467 0.72946 0.70525 0.0
C452 C 0.89733 0.7418 0.7277 0.0
C453 C 0.94718 0.71474 0.74264 0.0
C454 C 0.92269 0.713 0.77222 0.0
C455 C 0.87203 0.72357 0.79416 0.0
C456 C 0.84643 0.73645 0.78676 0.0
C457 C 0.89747 0.72621 0.76497 0.0
C458 C 0.84729 0.75282 0.7499 0.0
C459 C 0.87241 0.75538 0.72062 0.0
H460 H 0.26867 0.92291 0.90409 0.0
H461 H 0.18393 0.89238 0.81345 0.0
H462 H 0.13549 0.84713 0.85823 0.0
H463 H 0.11747 0.81786 0.92343 0.0
H464 H 0.20308 0.84658 0.01318 0.0
H465 H 0.25094 0.89187 0.96867 0.0
C466 C 0.23953 0.90649 0.89433 0.0
C467 C 0.22968 0.91098 0.85578 0.0
C468 C 0.21208 0.88056 0.92008 0.0
C469 C 0.19206 0.88909 0.84301 0.0
C470 C 0.16443 0.86344 0.86862 0.0
C471 C 0.1466 0.83355 0.93323 0.0
C472 C 0.15642 0.82875 0.97181 0.0
C473 C 0.17416 0.85904 0.90724 0.0
C474 C 0.19439 0.85002 0.984 0.0
C475 C 0.22193 0.87579 0.95844 0.0
H476 H 0.37032 0.25649 0.07081 0.0
H477 H 0.31421 0.17122 0.9812 0.0
H478 H 0.3116 0.12285 0.02594 0.0
H479 H 0.32482 0.10521 0.09049 0.0
H480 H 0.38419 0.19146 0.17894 0.0
H481 H 0.38515 0.23901 0.13493 0.0
C482 C 0.35727 0.22724 0.06133 0.0
C483 C 0.34234 0.21721 0.02305 0.0
C484 C 0.3563 0.19986 0.08697 0.0
C485 C 0.3261 0.17944 0.01058 0.0
C486 C 0.32449 0.15187 0.03614 0.0
C487 C 0.33841 0.1344 0.10011 0.0
C488 C 0.35425 0.14448 0.13817 0.0
C489 C 0.3396 0.16182 0.07436 0.0
C490 C 0.37114 0.18255 0.15016 0.0
C491 C 0.37198 0.20993 0.12489 0.0
H492 H 1.02524 0.46731 0.11301 0.0
H493 H 0.10773 0.50135 0.02008 0.0
H494 H 0.10815 0.56116 0.01278 0.0
H495 H 0.08762 0.60498 0.03482 0.0
H496 H 1.0094 0.57407 0.13195 0.0
H497 H 1.00384 0.51173 0.13473 0.0
C498 C 0.04298 0.48781 0.09102 0.0
C499 C 0.06653 0.48018 0.06718 0.0
C500 C 0.04375 0.52267 0.08763 0.0
C501 C 0.08958 0.50687 0.03887 0.0
C502 C 0.08979 0.541 0.03467 0.0
C503 C 0.06949 0.58483 0.05685 0.0
C504 C 0.04922 0.59471 0.08327 0.0
C505 C 0.06747 0.54948 0.05931 0.0
C506 C 1.02508 0.56745 0.1108 0.0
C507 C 1.02215 0.53177 0.11274 0.0
H508 H 0.51005 0.07273 0.19682 0.0
H509 H 0.46577 0.9993 0.29819 0.0
H510 H 0.52208 0.99295 0.30034 0.0
H511 H 0.58688 1.01267 0.27683 0.0
H512 H 0.63242 0.09019 0.17912 0.0
H513 H 0.57319 0.091 0.17253 0.0
C514 C 0.51264 0.05543 0.21956 0.0
C515 C 0.48352 0.03677 0.24741 0.0
C516 C 0.5457 0.05289 0.2215 0.0
C517 C 0.48729 1.01371 0.27597 0.0
C518 C 0.51978 1.01033 0.27751 0.0
C519 C 0.58346 0.02931 0.2539 0.0
C520 C 0.61378 0.05138 0.22849 0.0
C521 C 0.54952 0.03035 0.2509 0.0
C522 C 0.60936 0.07311 0.19902 0.0
C523 C 0.57556 0.07359 0.19528 0.0
H524 H 0.57558 0.60739 0.45626 0.0
H525 H 0.62195 0.57668 0.35795 0.0
H526 H 0.56539 0.51427 0.35543 0.0
H527 H 0.49995 0.46974 0.37771 0.0
H528 H 0.45238 0.50347 0.47196 0.0
H529 H 0.51164 0.56334 0.47899 0.0
C530 C 0.5734 0.58725 0.43405 0.0
C531 C 0.60323 0.59722 0.40722 0.0
C532 C 0.54018 0.55183 0.43178 0.0
C533 C 0.59991 0.57 0.37942 0.0
C534 C 0.56728 0.53427 0.37764 0.0
C535 C 0.50289 0.49017 0.39995 0.0
C536 C 0.47197 0.48243 0.42423 0.0
C537 C 0.5369 0.52507 0.40319 0.0
C538 C 0.47584 0.50905 0.45284 0.0
C539 C 0.50969 0.54323 0.45687 0.0
H540 H 0.06249 0.59049 0.56495 0.0
H541 H 0.94407 0.53973 0.59409 0.0
H542 H 0.93842 0.47761 0.59611 0.0
H543 H 0.96639 0.43726 0.5896 0.0
H544 H 0.0837 0.48611 0.55714 0.0
H545 H 0.09034 0.54916 0.5565 0.0
C546 C 1.03538 0.56584 0.57151 0.0
C547 C 1.00392 0.57021 0.57987 0.0
C548 C 1.03203 0.52969 0.572 0.0
C549 C 0.96911 0.53772 0.58855 0.0
C550 C 0.96568 0.50195 0.58934 0.0
C551 C 0.99334 0.46153 0.58173 0.0
C552 C 1.02439 0.45667 0.5731 0.0
C553 C 0.99688 0.49758 0.58108 0.0
C554 C 0.05931 0.48885 0.56415 0.0
C555 C 0.0631 0.52496 0.56361 0.0
H556 H 0.49239 0.03766 0.71164 0.0
H557 H 0.45074 0.96845 0.81632 0.0
H558 H 0.50906 0.96618 0.82133 0.0
H559 H 0.5703 0.98022 0.79375 0.0
H560 H 0.61419 0.05196 0.6916 0.0
H561 H 0.55698 0.05746 0.68814 0.0
C562 C 0.49631 1.02274 0.73604 0.0
C563 C 0.46665 1.00265 0.76312 0.0
C564 C 0.53031 1.02182 0.73907 0.0
C565 C 0.47247 0.98335 0.7944 0.0
C566 C 0.50596 0.98215 0.79745 0.0
C567 C 0.56735 0.9973 0.77098 0.0
C568 C 0.59602 1.0154 0.74274 0.0
C569 C 0.5347 1.00056 0.7695 0.0
C570 C 0.59231 0.03779 0.71357 0.0
C571 C 0.55961 0.04081 0.71158 0.0
H572 H 0.52686 0.43563 0.90622 0.0
H573 H 0.45766 0.48605 0.92909 0.0
H574 H 0.514 0.54897 0.92861 0.0
H575 H 0.58327 0.58981 0.92143 0.0
H576 H 0.65159 0.53754 0.90295 0.0
H577 H 0.59524 0.47545 0.90224 0.0
C578 C 0.52393 0.46019 0.91189 0.0
C579 C 0.48781 0.45577 0.91795 0.0
C580 C 0.55642 0.4962 0.91207 0.0
C581 C 0.48491 0.48837 0.924 0.0
C582 C 0.5172 0.52445 0.92392 0.0
C583 C 0.58591 0.56486 0.91753 0.0
C584 C 0.62191 0.56878 0.91157 0.0
C585 C 0.55317 0.52874 0.91791 0.0
C586 C 0.62445 0.53586 0.90641 0.0
C587 C 0.59216 0.50011 0.90641 0.0
H588 H 0.97455 0.2936 0.78494 0.0
H589 H 0.08485 0.34501 0.73178 0.0
H590 H 0.11435 0.35627 0.79729 0.0
H591 H 0.10847 0.35786 0.86948 0.0
H592 H 0.99823 0.30567 0.92276 0.0
H593 H 0.96842 0.28761 0.85731 0.0
C594 C 1.005 0.30686 0.78794 0.0
C595 C 1.02775 0.31911 0.7541 0.0
C596 C 1.02149 0.31313 0.82548 0.0
C597 C 0.06706 0.33552 0.75773 0.0
C598 C 0.08381 0.3421 0.79504 0.0
C599 C 0.07794 0.34209 0.86653 0.0
C600 C 0.05534 0.33349 0.90032 0.0
C601 C 0.06131 0.33202 0.82906 0.0
C602 C 1.01589 0.31247 0.89681 0.0
C603 C 0.99899 0.30244 0.85954 0.0
H604 H 0.7153 0.96181 0.94888 0.0
H605 H 0.77414 0.07254 0.89637 0.0
H606 H 0.79399 0.10148 0.96197 0.0
H607 H 0.78575 0.09504 0.0341 0.0
H608 H 0.72686 0.98433 0.08663 0.0
H609 H 0.71613 0.95498 0.0211 0.0
C610 C 0.73307 0.9922 0.95205 0.0
C611 C 0.74284 1.01531 0.91847 0.0
C612 C 0.74393 1.00835 0.98962 0.0
C613 C 0.76639 0.05452 0.92218 0.0
C614 C 0.77742 0.07094 0.95954 0.0
C615 C 0.77123 0.06452 0.03097 0.0
C616 C 0.75643 0.04163 0.06451 0.0
C617 C 0.76505 0.04817 0.99344 0.0
C618 C 0.73828 1.00219 0.06085 0.0
C619 C 0.73196 0.98556 0.02352 0.0
H620 H 0.79164 0.70293 0.115 0.0
H621 H 0.73131 0.75304 0.06119 0.0
H622 H 0.7189 0.77036 0.12636 0.0
H623 H 0.71901 0.76437 0.19856 0.0
H624 H 0.77928 0.71453 0.25278 0.0
H625 H 0.7986 0.70423 0.18749 0.0
C626 C 0.77612 0.71797 0.11773 0.0
C627 C 0.76184 0.72625 0.08369 0.0
C628 C 0.76905 0.72762 0.15519 0.0
C629 C 0.74249 0.74645 0.08715 0.0
C630 C 0.73523 0.75611 0.12432 0.0
C631 C 0.7368 0.75173 0.19588 0.0
C632 C 0.74736 0.73962 0.22994 0.0
C633 C 0.74743 0.74582 0.15849 0.0
C634 C 0.77095 0.72395 0.22668 0.0
C635 C 0.78168 0.71787 0.18947 0.0
H636 H 0.96466 0.70189 0.37331 0.0
H637 H 0.07485 0.75258 0.42772 0.0
H638 H 0.10475 0.76944 0.36277 0.0
H639 H 0.099 0.76312 0.29066 0.0
H640 H 0.98926 0.71248 0.23565 0.0
H641 H 0.95931 0.70249 0.30071 0.0
C642 C 0.9952 0.71691 0.37076 0.0
C643 C 1.01763 0.72555 0.40495 0.0
C644 C 1.01206 0.72628 0.33338 0.0
C645 C 0.05715 0.74574 0.40168 0.0
C646 C 0.07419 0.75513 0.36462 0.0
C647 C 0.06857 0.75035 0.29311 0.0
C648 C 0.04612 0.73796 0.25893 0.0
C649 C 0.05186 0.74458 0.33034 0.0
C650 C 1.00685 0.72213 0.26187 0.0
C651 C 0.98984 0.71621 0.29894 0.0
H652 H 0.30713 0.95851 0.54069 0.0
H653 H 0.35704 0.06922 0.59339 0.0
H654 H 0.36602 0.09804 0.52784 0.0
H655 H 0.36682 0.09164 0.45564 0.0
H656 H 0.3162 0.98102 0.40278 0.0
H657 H 0.29949 0.95162 0.46838 0.0
C658 C 0.31951 0.98887 0.53757 0.0
C659 C 0.33213 1.01201 0.57123 0.0
C660 C 0.32445 1.00496 0.50001 0.0
C661 C 0.34736 0.05118 0.56752 0.0
C662 C 0.35263 0.06753 0.5302 0.0
C663 C 0.35155 0.06111 0.45874 0.0
C664 C 0.34311 0.03829 0.42504 0.0
C665 C 0.34237 0.04475 0.49628 0.0
C666 C 0.32283 0.99882 0.42868 0.0
C667 C 0.31362 0.98217 0.46604 0.0
H668 H 0.30635 0.35675 0.62065 0.0
H669 H 0.36611 0.30629 0.56716 0.0
H670 H 0.37786 0.28807 0.63251 0.0
H671 H 0.37727 0.29362 0.70497 0.0
H672 H 0.31672 0.34342 0.75824 0.0
H673 H 0.29844 0.3546 0.69277 0.0
C674 C 0.32144 0.34127 0.62354 0.0
C675 C 0.33593 0.33323 0.58973 0.0
C676 C 0.32804 0.33116 0.66094 0.0
C677 C 0.35485 0.31263 0.59313 0.0
C678 C 0.36174 0.30253 0.63035 0.0
C679 C 0.35974 0.30652 0.702 0.0
C680 C 0.34877 0.31834 0.73589 0.0
C681 C 0.34947 0.31275 0.66446 0.0
C682 C 0.32541 0.33427 0.73227 0.0
C683 C 0.3152 0.3408 0.69498 0.0
H684 H 0.21556 0.24066 0.94444 0.0
H685 H 0.29578 0.35156 0.90028 0.0
H686 H 0.26055 0.37801 0.93203 0.0
H687 H 0.20936 0.37064 0.97516 0.0
H688 H 0.12852 0.26032 0.01968 0.0
H689 H 0.16173 0.23268 0.98497 0.0
C690 C 0.22514 0.27056 0.94128 0.0
C691 C 0.25854 0.29406 0.91995 0.0
C692 C 0.20489 0.28577 0.96009 0.0
C693 C 0.27034 0.33272 0.91638 0.0
C694 C 0.25026 0.34795 0.93474 0.0
C695 C 0.19889 0.34049 0.97741 0.0
C696 C 0.16667 0.31765 0.00049 0.0
C697 C 0.21795 0.32489 0.95723 0.0
C698 C 0.15331 0.27859 0.00237 0.0
C699 C 0.17232 0.26281 0.98249 0.0
H700 H 1.00457 0.20537 0.11285 0.0
H701 H 0.97238 0.28367 0.06568 0.0
H702 H 0.91042 0.24766 0.0965 0.0
H703 H 0.86657 0.19615 0.13935 0.0
H704 H 0.89749 0.1171 0.18671 0.0
H705 H 0.95885 0.1513 0.15328 0.0
C706 C 0.9839 0.21439 0.10887 0.0
C707 C 0.99343 0.24748 0.08695 0.0
C708 C 0.94823 0.19363 0.12707 0.0
C709 C 0.96609 0.25853 0.0823 0.0
C710 C 0.93061 0.23798 0.1001 0.0
C711 C 0.88667 0.18629 0.14252 0.0
C712 C 0.87752 0.15426 0.166 0.0
C713 C 0.92163 0.20591 0.12306 0.0
C714 C 0.9038 0.14171 0.16907 0.0
C715 C 0.93889 0.16129 0.14992 0.0
H716 H 0.70251 0.8527 0.30386 0.0
H717 H 0.81275 0.88549 0.35167 0.0
H718 H 0.83867 0.94736 0.3193 0.0
H719 H 0.82918 0.9929 0.27954 0.0
H720 H 0.71847 0.95892 0.23192 0.0
H721 H 0.69373 0.89657 0.26183 0.0
C722 C 0.73227 0.87331 0.30733 0.0
C723 C 0.75557 0.86449 0.33062 0.0
C724 C 0.7469 0.9086 0.2885 0.0
C725 C 0.79414 0.89149 0.33414 0.0
C726 C 0.80893 0.92688 0.3156 0.0
C727 C 0.7997 0.97177 0.2753 0.0
C728 C 0.77574 0.9809 0.25346 0.0
C729 C 0.78549 0.93586 0.29294 0.0
C730 C 0.73763 0.95295 0.24845 0.0
C731 C 0.7234 0.91724 0.26573 0.0
H732 H 0.87112 0.82016 0.4473 0.0
H733 H 0.79292 0.70704 0.40656 0.0
H734 H 0.8272 0.68262 0.44398 0.0
H735 H 0.87701 0.69242 0.49076 0.0
H736 H 0.95686 0.80496 0.531 0.0
H737 H 0.92421 0.83056 0.49132 0.0
C738 C 0.86178 0.79021 0.44616 0.0
C739 C 0.82913 0.76551 0.42408 0.0
C740 C 0.88167 0.77618 0.46807 0.0
C741 C 0.81773 0.72681 0.42311 0.0
C742 C 0.83727 0.71273 0.44474 0.0
C743 C 0.88733 0.72261 0.4911 0.0
C744 C 0.91904 0.74669 0.51448 0.0
C745 C 0.8688 0.73701 0.46785 0.0
C746 C 0.93239 0.78577 0.51361 0.0
C747 C 0.91371 0.80036 0.49087 0.0
H748 H 0.2374 0.88807 0.61892 0.0
H749 H 0.17325 0.91145 0.70359 0.0
H750 H 0.11438 0.86799 0.66842 0.0
H751 H 0.08104 0.81579 0.61929 0.0
H752 H 0.147 0.79193 0.53731 0.0
H753 H 0.20526 0.84366 0.56486 0.0
C754 C 0.21054 0.88421 0.62921 0.0
C755 C 0.20949 0.90254 0.66395 0.0
C756 C 0.17714 0.85901 0.60917 0.0
C757 C 0.1747 0.8977 0.67683 0.0
C758 C 0.14108 0.87264 0.65684 0.0
C759 C 0.10815 0.82303 0.60653 0.0
C760 C 0.10979 0.80037 0.57596 0.0
C761 C 0.14183 0.85213 0.62368 0.0
C762 C 0.14509 0.80926 0.56044 0.0
C763 C 0.17841 0.83858 0.57649 0.0
H764 H 0.38409 0.20122 0.81219 0.0
H765 H 0.27309 0.17205 0.85399 0.0
H766 H 0.24608 0.11116 0.81928 0.0
H767 H 0.25472 0.06524 0.7794 0.0
H768 H 0.36625 0.09564 0.73782 0.0
H769 H 0.39219 0.15726 0.76979 0.0
C770 C 0.35394 0.1816 0.81385 0.0
C771 C 0.33071 0.19109 0.83614 0.0
C772 C 0.33869 0.14691 0.79366 0.0
C773 C 0.29165 0.16545 0.83727 0.0
C774 C 0.27623 0.13063 0.8174 0.0
C775 C 0.28465 0.08547 0.77688 0.0
C776 C 0.30847 0.07552 0.75621 0.0
C777 C 0.29955 0.12093 0.79575 0.0
C778 C 0.34718 0.10227 0.75344 0.0
C779 C 0.36211 0.13755 0.7719 0.0
H780 H 0.78829 0.81377 0.86187 0.0
H781 H 0.70244 0.79133 0.94835 0.0
H782 H 0.69523 0.84326 0.92239 0.0
H783 H 0.70584 0.88777 0.86891 0.0
H784 H 0.78959 0.90991 0.78006 0.0
H785 H 0.80555 0.86582 0.81301 0.0
C786 C 0.76921 0.82142 0.87595 0.0
C787 C 0.74634 0.79924 0.9075 0.0
C788 C 0.76424 0.85063 0.85975 0.0
C789 C 0.72075 0.80846 0.92462 0.0
C790 C 0.71632 0.83786 0.90944 0.0
C791 C 0.72811 0.88346 0.85716 0.0
C792 C 0.74624 0.90166 0.82189 0.0
C793 C 0.73672 0.858 0.87604 0.0
C794 C 0.77531 0.89624 0.8072 0.0
C795 C 0.78421 0.87085 0.82595 0.0
H796 H 0.86892 0.69071 0.00074 0.0
H797 H 0.90268 0.80292 0.95858 0.0
H798 H 0.96133 0.82837 -0.00249 0.0
H799 H 1.00408 0.81786 0.04126 0.0
H800 H 0.9683 0.70511 0.08376 0.0
H801 H 0.9091 0.68089 0.04729 0.0
C802 C 0.8891 0.72079 -0.00015 0.0
C803 C 0.88164 0.74481 0.97615 0.0
C804 C 0.92231 0.73512 0.02261 0.0
C805 C 0.9078 0.78378 0.97626 0.0
C806 C 0.94131 0.79828 -0.00145 0.0
C807 C 0.98318 0.78804 0.04299 0.0
C808 C 0.99101 0.76336 0.06526 0.0
C809 C 0.94902 0.77414 0.0216 0.0
C810 C 0.96335 0.72484 0.06701 0.0
C811 C 0.92945 0.71089 0.04594 0.0
H812 H 0.20269 0.85022 0.18766 0.0
H813 H 0.12771 0.884 0.13516 0.0
H814 H 0.16305 0.94596 0.16765 0.0
H815 H 0.2171 0.99136 0.20877 0.0
H816 H 0.29109 0.95613 0.26128 0.0
H817 H 0.25396 0.89377 0.23125 0.0
C818 C 0.19396 0.87107 0.18319 0.0
C819 C 0.16275 0.86252 0.15853 0.0
C820 C 0.21421 0.90638 0.20214 0.0
C821 C 0.15165 0.8898 0.15376 0.0
C822 C 0.17189 0.92524 0.17237 0.0
C823 C 0.22492 0.96995 0.21408 0.0
C824 C 0.25718 0.97877 0.23727 0.0
C825 C 0.20345 0.93397 0.19639 0.0
C826 C 0.26666 0.95045 0.24362 0.0
C827 C 0.24545 0.91471 0.2263 0.0
H828 H 0.25809 0.20723 0.37647 0.0
H829 H 0.36924 0.28557 0.4219 0.0
H830 H 0.39434 0.24852 0.39144 0.0
H831 H 0.38567 0.19586 0.34955 0.0
H832 H 0.27498 0.11675 0.30402 0.0
H833 H 0.24879 0.15221 0.33688 0.0
C834 C 0.28775 0.21606 0.38012 0.0
C835 C 0.31172 0.24944 0.4015 0.0
C836 C 0.30216 0.19467 0.36217 0.0
C837 C 0.35006 0.26021 0.40574 0.0
C838 C 0.3645 0.23905 0.38814 0.0
C839 C 0.35576 0.18625 0.34667 0.0
C840 C 0.3324 0.1538 0.32388 0.0
C841 C 0.34096 0.20661 0.36582 0.0
C842 C 0.29365 0.14164 0.32115 0.0
C843 C 0.27869 0.16195 0.33998 0.0
H844 H 0.08254 0.24222 0.54366 0.0
H845 H 0.11301 0.35255 0.58985 0.0
H846 H 0.17495 0.37922 0.55884 0.0
H847 H 0.21919 0.37223 0.51596 0.0
H848 H 0.18996 0.26248 0.46944 0.0
H849 H 0.12873 0.2346 0.50323 0.0
C850 C 0.10285 0.27203 0.54741 0.0
C851 C 0.09283 0.29531 0.56912 0.0
C852 C 0.1385 0.28738 0.52905 0.0
C853 C 0.1197 0.33388 0.57344 0.0
C854 C 0.15516 0.34923 0.55551 0.0
C855 C 0.1995 0.34215 0.51307 0.0
C856 C 0.20908 0.31956 0.4897 0.0
C857 C 0.1646 0.3264 0.53273 0.0
C858 C 0.18331 0.28057 0.48698 0.0
C859 C 0.1483 0.26465 0.50635 0.0
H860 H 0.87769 0.20368 0.68161 0.0
H861 H 0.95295 0.17019 0.62993 0.0
H862 H 0.91762 0.10814 0.66212 0.0
H863 H 0.86323 0.06247 0.70238 0.0
H864 H 0.78919 0.09763 0.75431 0.0
H865 H 0.82644 0.16008 0.72481 0.0
C866 C 0.88649 0.18287 0.67729 0.0
C867 C 0.91771 0.19147 0.65291 0.0
C868 C 0.86624 0.14754 0.69605 0.0
C869 C 0.92899 0.16431 0.64836 0.0
C870 C 0.90873 0.12882 0.66676 0.0
C871 C 0.85544 0.08389 0.70766 0.0
C872 C 0.82305 0.07498 0.73043 0.0
C873 C 0.87703 0.11997 0.69036 0.0
C874 C 0.81364 0.10333 0.73686 0.0
C875 C 0.83494 0.13914 0.71988 0.0
loop_
_geom_bond_atom_site_label_1
_geom_bond_atom_site_label_2
_geom_bond_distance
_geom_bond_site_symmetry_2
_ccdc_geom_bond_type
C0 C1 1.351 . S
C0 N3 1.368 . S
C0 H5 0.931 . S
C1 C0 1.351 . S
C1 N2 1.373 . S
C1 H29 0.930 . S
N2 C1 1.373 . S
N2 C4 1.340 . S
N3 C0 1.368 . S
N3 C4 1.321 . S
N3 Co6 2.135 1_556 S
C4 N2 1.340 . S
C4 N3 1.321 . S
C4 H28 0.930 . S
H5 C0 0.931 . S
Co6 N3 2.135 1_554 S
Co6 N9 2.121 . S
Co6 O14 2.055 . S
Co6 O17 2.039 . S
Co6 N20 2.140 . S
C7 O8 1.227 . S
C7 O17 1.265 . S
O8 C7 1.227 . S
N9 Co6 2.121 . S
N9 C11 1.375 . S
N9 C12 1.313 . S
C10 C11 1.338 . S
C10 N13 1.377 . S
C10 H30 0.930 . S
C11 N9 1.375 . S
C11 C10 1.338 . S
C11 H15 0.931 . S
C12 N9 1.313 . S
C12 N13 1.344 . S
C12 H16 0.930 . S
N13 C10 1.377 . S
N13 C12 1.344 . S
O14 Co6 2.055 . S
O14 C18 1.253 . S
H15 C11 0.931 . S
H16 C12 0.930 . S
O17 Co6 2.039 . S
O17 C7 1.265 . S
C18 O14 1.253 . S
C18 O19 1.227 . S
O19 C18 1.227 . S
N20 Co6 2.140 . S
N20 C23 1.346 . S
N20 C24 1.345 . S
C21 C22 1.387 . S
C21 C25 1.391 . S
C22 C21 1.387 . S
C22 C23 1.369 . S
C22 H31 0.929 . S
C23 N20 1.346 . S
C23 C22 1.369 . S
C23 H26 0.928 . S
C24 N20 1.345 . S
C24 C25 1.371 . S
C24 H27 0.931 . S
C25 C21 1.391 . S
C25 C24 1.371 . S
C25 H32 0.930 . S
H26 C23 0.928 . S
H27 C24 0.931 . S
H28 C4 0.930 . S
H29 C1 0.930 . S
H30 C10 0.930 . S
H31 C22 0.929 . S
H32 C25 0.930 . S
C33 C34 1.351 . S
C33 N36 1.368 . S
C33 H38 0.931 . S
C34 C33 1.351 . S
C34 N35 1.373 . S
C34 H62 0.930 . S
N35 C34 1.373 . S
N35 C37 1.340 . S
N36 C33 1.368 . S
N36 C37 1.321 . S
N36 Co39 2.135 . S
C37 N35 1.340 . S
C37 N36 1.321 . S
C37 H61 0.930 . S
H38 C33 0.931 . S
Co39 N36 2.135 . S
Co39 N42 2.121 . S
Co39 O47 2.055 . S
Co39 O50 2.039 . S
Co39 N53 2.140 . S
C40 O41 1.227 . S
C40 O50 1.265 . S
O41 C40 1.227 . S
N42 Co39 2.121 . S
N42 C44 1.375 . S
N42 C45 1.313 . S
C43 C44 1.338 . S
C43 N46 1.377 . S
C43 H63 0.930 . S
C44 N42 1.375 . S
C44 C43 1.338 . S
C44 H48 0.931 . S
C45 N42 1.313 . S
C45 N46 1.344 . S
C45 H49 0.930 . S
N46 C43 1.377 . S
N46 C45 1.344 . S
O47 Co39 2.055 . S
O47 C51 1.253 . S
H48 C44 0.931 . S
H49 C45 0.930 . S
O50 Co39 2.039 . S
O50 C40 1.265 . S
C51 O47 1.253 . S
C51 O52 1.227 . S
O52 C51 1.227 . S
N53 Co39 2.140 . S
N53 C56 1.346 . S
N53 C57 1.345 . S
C54 C55 1.387 . S
C54 C58 1.391 . S
C55 C54 1.387 . S
C55 C56 1.369 . S
C55 H64 0.929 . S
C56 N53 1.346 . S
C56 C55 1.369 . S
C56 H59 0.928 . S
C57 N53 1.345 . S
C57 C58 1.371 . S
C57 H60 0.931 . S
C58 C54 1.391 . S
C58 C57 1.371 . S
C58 H65 0.930 . S
H59 C56 0.928 . S
H60 C57 0.931 . S
H61 C37 0.930 . S
H62 C34 0.930 . S
H63 C43 0.930 . S
H64 C55 0.929 . S
H65 C58 0.930 . S
C66 C67 1.351 . S
C66 N69 1.368 . S
C66 H71 0.931 . S
C67 C66 1.351 . S
C67 N68 1.373 . S
C67 H95 0.930 . S
N68 C67 1.373 . S
N68 C70 1.340 . S
N69 C66 1.368 . S
N69 C70 1.321 . S
N69 Co72 2.135 . S
C70 N68 1.340 . S
C70 N69 1.321 . S
C70 H94 0.930 . S
H71 C66 0.931 . S
Co72 N69 2.135 . S
Co72 N75 2.121 . S
Co72 O80 2.055 . S
Co72 O83 2.039 . S
Co72 N86 2.140 . S
C73 O74 1.227 . S
C73 O83 1.265 . S
O74 C73 1.227 . S
N75 Co72 2.121 . S
N75 C77 1.375 . S
N75 C78 1.313 . S
C76 C77 1.338 . S
C76 N79 1.377 . S
C76 H96 0.930 . S
C77 N75 1.375 . S
C77 C76 1.338 . S
C77 H81 0.931 . S
C78 N75 1.313 . S
C78 N79 1.344 . S
C78 H82 0.930 . S
N79 C76 1.377 . S
N79 C78 1.344 . S
O80 Co72 2.055 . S
O80 C84 1.253 . S
H81 C77 0.931 . S
H82 C78 0.930 . S
O83 Co72 2.039 . S
O83 C73 1.265 . S
C84 O80 1.253 . S
C84 O85 1.227 . S
O85 C84 1.227 . S
N86 Co72 2.140 . S
N86 C89 1.346 . S
N86 C90 1.345 . S
C87 C88 1.387 . S
C87 C91 1.391 . S
C88 C87 1.387 . S
C88 C89 1.369 . S
C88 H97 0.929 . S
C89 N86 1.346 . S
C89 C88 1.369 . S
C89 H92 0.928 . S
C90 N86 1.345 . S
C90 C91 1.371 . S
C90 H93 0.931 . S
C91 C87 1.391 . S
C91 C90 1.371 . S
C91 H98 0.930 . S
H92 C89 0.928 . S
H93 C90 0.931 . S
H94 C70 0.930 . S
H95 C67 0.930 . S
H96 C76 0.930 . S
H97 C88 0.929 . S
H98 C91 0.930 . S
C99 C100 1.351 . S
C99 N102 1.368 . S
C99 H104 0.931 . S
C100 C99 1.351 . S
C100 N101 1.373 . S
C100 H128 0.930 . S
N101 C100 1.373 . S
N101 C103 1.340 . S
N102 C99 1.368 . S
N102 C103 1.321 . S
N102 Co105 2.135 . S
C103 N101 1.340 . S
C103 N102 1.321 . S
C103 H127 0.930 . S
H104 C99 0.931 . S
Co105 N102 2.135 . S
Co105 N108 2.121 . S
Co105 O113 2.055 . S
Co105 O116 2.039 . S
Co105 N119 2.140 . S
C106 O107 1.227 . S
C106 O116 1.265 . S
O107 C106 1.227 . S
N108 Co105 2.121 . S
N108 C110 1.375 . S
N108 C111 1.313 . S
C109 C110 1.338 . S
C109 N112 1.377 . S
C109 H129 0.930 . S
C110 N108 1.375 . S
C110 C109 1.338 . S
C110 H114 0.931 . S
C111 N108 1.313 . S
C111 N112 1.344 . S
C111 H115 0.930 . S
N112 C109 1.377 . S
N112 C111 1.344 . S
O113 Co105 2.055 . S
O113 C117 1.253 . S
H114 C110 0.931 . S
H115 C111 0.930 . S
O116 Co105 2.039 . S
O116 C106 1.265 . S
C117 O113 1.253 . S
C117 O118 1.227 . S
O118 C117 1.227 . S
N119 Co105 2.140 . S
N119 C122 1.346 . S
N119 C123 1.345 . S
C120 C121 1.387 . S
C120 C124 1.391 . S
C121 C120 1.387 . S
C121 C122 1.369 . S
C121 H130 0.929 . S
C122 N119 1.346 . S
C122 C121 1.369 . S
C122 H125 0.928 . S
C123 N119 1.345 . S
C123 C124 1.371 . S
C123 H126 0.931 . S
C124 C120 1.391 . S
C124 C123 1.371 . S
C124 H131 0.930 . S
H125 C122 0.928 . S
H126 C123 0.931 . S
H127 C103 0.930 . S
H128 C100 0.930 . S
H129 C109 0.930 . S
H130 C121 0.929 . S
H131 C124 0.930 . S
C132 C133 1.351 . S
C132 N135 1.368 . S
C132 H137 0.931 . S
C133 C132 1.351 . S
C133 N134 1.373 . S
C133 H161 0.930 . S
N134 C133 1.373 . S
N134 C136 1.340 . S
N135 C132 1.368 . S
N135 C136 1.321 . S
N135 Co138 2.135 . S
C136 N134 1.340 . S
C136 N135 1.321 . S
C136 H160 0.930 . S
H137 C132 0.931 . S
Co138 N135 2.135 . S
Co138 N141 2.121 . S
Co138 O146 2.055 . S
Co138 O149 2.039 . S
Co138 N152 2.140 . S
C139 O140 1.227 . S
C139 O149 1.265 . S
O140 C139 1.227 . S
N141 Co138 2.121 . S
N141 C143 1.375 . S
N141 C144 1.313 . S
C142 C143 1.338 . S
C142 N145 1.377 . S
C142 H162 0.930 . S
C143 N141 1.375 . S
C143 C142 1.338 . S
C143 H147 0.931 . S
C144 N141 1.313 . S
C144 N145 1.344 . S
C144 H148 0.930 . S
N145 C142 1.377 . S
N145 C144 1.344 . S
O146 Co138 2.055 . S
O146 C150 1.253 . S
H147 C143 0.931 . S
H148 C144 0.930 . S
O149 Co138 2.039 . S
O149 C139 1.265 . S
C150 O146 1.253 . S
C150 O151 1.227 . S
O151 C150 1.227 . S
N152 Co138 2.140 . S
N152 C155 1.346 . S
N152 C156 1.345 . S
C153 C154 1.387 . S
C153 C157 1.391 . S
C154 C153 1.387 . S
C154 C155 1.369 . S
C154 H163 0.929 . S
C155 N152 1.346 . S
C155 C154 1.369 . S
C155 H158 0.928 . S
C156 N152 1.345 . S
C156 C157 1.371 . S
C156 H159 0.931 . S
C157 C153 1.391 . S
C157 C156 1.371 . S
C157 H164 0.930 . S
H158 C155 0.928 . S
H159 C156 0.931 . S
H160 C136 0.930 . S
H161 C133 0.930 . S
H162 C142 0.930 . S
H163 C154 0.929 . S
H164 C157 0.930 . S
C165 C166 1.351 . S
C165 N168 1.368 . S
C165 H170 0.931 . S
C166 C165 1.351 . S
C166 N167 1.373 . S
C166 H194 0.930 . S
N167 C166 1.373 . S
N167 C169 1.340 . S
N168 C165 1.368 . S
N168 C169 1.321 . S
N168 Co171 2.135 . S
C169 N167 1.340 . S
C169 N168 1.321 . S
C169 H193 0.930 . S
H170 C165 0.931 . S
Co171 N168 2.135 . S
Co171 N174 2.121 . S
Co171 O179 2.055 . S
Co171 O182 2.039 . S
Co171 N185 2.140 . S
C172 O173 1.227 . S
C172 O182 1.265 . S
O173 C172 1.227 . S
N174 Co171 2.121 . S
N174 C176 1.375 . S
N174 C177 1.313 . S
C175 C176 1.338 1_554 S
C175 N178 1.377 1_554 S
C175 H195 0.930 . S
C176 N174 1.375 . S
C176 C175 1.338 1_556 S
C176 H180 0.931 . S
C177 N174 1.313 . S
C177 N178 1.344 . S
C177 H181 0.930 . S
N178 C175 1.377 1_556 S
N178 C177 1.344 . S
O179 Co171 2.055 . S
O179 C183 1.253 . S
H180 C176 0.931 . S
H181 C177 0.930 . S
O182 Co171 2.039 . S
O182 C172 1.265 . S
C183 O179 1.253 . S
C183 O184 1.227 . S
O184 C183 1.227 . S
N185 Co171 2.140 . S
N185 C188 1.346 . S
N185 C189 1.345 . S
C186 C187 1.387 . S
C186 C190 1.391 . S
C187 C186 1.387 . S
C187 C188 1.369 . S
C187 H196 0.929 . S
C188 N185 1.346 . S
C188 C187 1.369 . S
C188 H191 0.928 . S
C189 N185 1.345 . S
C189 C190 1.371 . S
C189 H192 0.931 . S
C190 C186 1.391 . S
C190 C189 1.371 . S
C190 H197 0.930 . S
H191 C188 0.928 . S
H192 C189 0.931 . S
H193 C169 0.930 . S
H194 C166 0.930 . S
H195 C175 0.930 . S
H196 C187 0.929 . S
H197 C190 0.930 . S
C198 C199 1.351 . S
C198 N201 1.368 . S
C198 H203 0.931 . S
C199 C198 1.351 . S
C199 N200 1.373 . S
C199 H227 0.930 . S
N200 C199 1.373 . S
N200 C202 1.340 . S
N201 C198 1.368 . S
N201 C202 1.321 . S
N201 Co204 2.135 . S
C202 N200 1.340 . S
C202 N201 1.321 . S
C202 H226 0.930 . S
H203 C198 0.931 . S
Co204 N201 2.135 . S
Co204 N207 2.121 . S
Co204 O212 2.055 . S
Co204 O215 2.039 . S
Co204 N218 2.140 . S
C205 O206 1.227 . S
C205 O215 1.265 . S
O206 C205 1.227 . S
N207 Co204 2.121 . S
N207 C209 1.375 . S
N207 C210 1.313 . S
C208 C209 1.338 . S
C208 N211 1.377 . S
C208 H228 0.930 . S
C209 N207 1.375 . S
C209 C208 1.338 . S
C209 H213 0.931 . S
C210 N207 1.313 . S
C210 N211 1.344 . S
C210 H214 0.930 . S
N211 C208 1.377 . S
N211 C210 1.344 . S
O212 Co204 2.055 . S
O212 C216 1.253 . S
H213 C209 0.931 . S
H214 C210 0.930 . S
O215 Co204 2.039 . S
O215 C205 1.265 . S
C216 O212 1.253 . S
C216 O217 1.227 . S
O217 C216 1.227 . S
N218 Co204 2.140 . S
N218 C221 1.346 . S
N218 C222 1.345 . S
C219 C220 1.387 . S
C219 C223 1.391 . S
C220 C219 1.387 . S
C220 C221 1.369 . S
C220 H229 0.929 . S
C221 N218 1.346 . S
C221 C220 1.369 . S
C221 H224 0.928 . S
C222 N218 1.345 . S
C222 C223 1.371 . S
C222 H225 0.931 . S
C223 C219 1.391 . S
C223 C222 1.371 . S
C223 H230 0.930 . S
H224 C221 0.928 . S
H225 C222 0.931 . S
H226 C202 0.930 . S
H227 C199 0.930 . S
H228 C208 0.930 . S
H229 C220 0.929 . S
H230 C223 0.930 . S
C231 C232 1.351 . S
C231 N234 1.368 . S
C231 H236 0.931 . S
C232 C231 1.351 . S
C232 N233 1.373 . S
C232 H260 0.930 . S
N233 C232 1.373 . S
N233 C235 1.340 . S
N234 C231 1.368 . S
N234 C235 1.321 . S
N234 Co237 2.135 1_554 S
C235 N233 1.340 . S
C235 N234 1.321 . S
C235 H259 0.930 . S
H236 C231 0.931 . S
Co237 N234 2.135 1_556 S
Co237 N240 2.121 . S
Co237 O245 2.055 . S
Co237 O248 2.039 . S
Co237 N251 2.140 . S
C238 O239 1.227 . S
C238 O248 1.265 . S
O239 C238 1.227 . S
N240 Co237 2.121 . S
N240 C242 1.375 . S
N240 C243 1.313 . S
C241 C242 1.338 . S
C241 N244 1.377 . S
C241 H261 0.930 . S
C242 N240 1.375 . S
C242 C241 1.338 . S
C242 H246 0.931 . S
C243 N240 1.313 . S
C243 N244 1.344 . S
C243 H247 0.930 . S
N244 C241 1.377 . S
N244 C243 1.344 . S
O245 Co237 2.055 . S
O245 C249 1.253 . S
H246 C242 0.931 . S
H247 C243 0.930 . S
O248 Co237 2.039 . S
O248 C238 1.265 . S
C249 O245 1.253 . S
C249 O250 1.227 . S
O250 C249 1.227 . S
N251 Co237 2.140 . S
N251 C254 1.346 . S
N251 C255 1.345 . S
C252 C253 1.387 . S
C252 C256 1.391 . S
C253 C252 1.387 . S
C253 C254 1.369 . S
C253 H262 0.929 . S
C254 N251 1.346 . S
C254 C253 1.369 . S
C254 H257 0.928 . S
C255 N251 1.345 . S
C255 C256 1.371 . S
C255 H258 0.931 . S
C256 C252 1.391 . S
C256 C255 1.371 . S
C256 H263 0.930 . S
H257 C254 0.928 . S
H258 C255 0.931 . S
H259 C235 0.930 . S
H260 C232 0.930 . S
H261 C241 0.930 . S
H262 C253 0.929 . S
H263 C256 0.930 . S
C264 C265 1.351 . S
C264 N267 1.368 . S
C264 H269 0.931 . S
C265 C264 1.351 . S
C265 N266 1.373 . S
C265 H293 0.930 . S
N266 C265 1.373 . S
N266 C268 1.340 . S
N267 C264 1.368 . S
N267 C268 1.321 . S
N267 Co270 2.135 . S
C268 N266 1.340 . S
C268 N267 1.321 . S
C268 H292 0.930 . S
H269 C264 0.931 . S
Co270 N267 2.135 . S
Co270 N273 2.121 . S
Co270 O278 2.055 . S
Co270 O281 2.039 . S
Co270 N284 2.140 . S
C271 O272 1.227 . S
C271 O281 1.265 . S
O272 C271 1.227 . S
N273 Co270 2.121 . S
N273 C275 1.375 . S
N273 C276 1.313 . S
C274 C275 1.338 1_556 S
C274 N277 1.385 . S
C274 H294 0.930 . S
C275 N273 1.375 . S
C275 C274 1.338 1_554 S
C275 H279 0.931 . S
C276 N273 1.313 . S
C276 N277 1.316 1_554 S
C276 H280 0.930 . S
N277 C274 1.385 . S
N277 C276 1.316 1_556 S
O278 Co270 2.055 . S
O278 C282 1.253 . S
H279 C275 0.931 . S
H280 C276 0.930 . S
O281 Co270 2.039 . S
O281 C271 1.265 . S
C282 O278 1.253 . S
C282 O283 1.227 . S
O283 C282 1.227 . S
N284 Co270 2.140 . S
N284 C287 1.346 . S
N284 C288 1.345 . S
C285 C286 1.387 . S
C285 C289 1.391 . S
C286 C285 1.387 . S
C286 C287 1.369 . S
C286 H295 0.929 . S
C287 N284 1.346 . S
C287 C286 1.369 . S
C287 H290 0.928 . S
C288 N284 1.345 . S
C288 C289 1.371 . S
C288 H291 0.931 . S
C289 C285 1.391 . S
C289 C288 1.371 . S
C289 H296 0.930 . S
H290 C287 0.928 . S
H291 C288 0.931 . S
H292 C268 0.930 . S
H293 C265 0.930 . S
H294 C274 0.930 . S
H295 C286 0.929 . S
H296 C289 0.930 . S
C297 C298 1.351 . S
C297 N300 1.368 . S
C297 H302 0.931 . S
C298 C297 1.351 . S
C298 N299 1.373 . S
C298 H326 0.930 . S
N299 C298 1.373 . S
N299 C301 1.340 . S
N300 C297 1.368 . S
N300 C301 1.321 . S
N300 Co303 2.135 . S
C301 N299 1.340 . S
C301 N300 1.321 . S
C301 H325 0.930 . S
H302 C297 0.931 . S
Co303 N300 2.135 . S
Co303 N306 2.121 . S
Co303 O311 2.055 . S
Co303 O314 2.039 . S
Co303 N317 2.140 . S
C304 O305 1.227 . S
C304 O314 1.265 . S
O305 C304 1.227 . S
N306 Co303 2.121 . S
N306 C308 1.375 . S
N306 C309 1.313 . S
C307 C308 1.338 . S
C307 N310 1.377 . S
C307 H327 0.930 . S
C308 N306 1.375 . S
C308 C307 1.338 . S
C308 H312 0.931 . S
C309 N306 1.313 . S
C309 N310 1.344 . S
C309 H313 0.930 . S
N310 C307 1.377 . S
N310 C309 1.344 . S
O311 Co303 2.055 . S
O311 C315 1.253 . S
H312 C308 0.931 . S
H313 C309 0.930 . S
O314 Co303 2.039 . S
O314 C304 1.265 . S
C315 O311 1.253 . S
C315 O316 1.227 . S
O316 C315 1.227 . S
N317 Co303 2.140 . S
N317 C320 1.346 . S
N317 C321 1.345 . S
C318 C319 1.387 . S
C318 C322 1.391 . S
C319 C318 1.387 . S
C319 C320 1.369 . S
C319 H328 0.929 . S
C320 N317 1.346 . S
C320 C319 1.369 . S
C320 H323 0.928 . S
C321 N317 1.345 . S
C321 C322 1.371 . S
C321 H324 0.931 . S
C322 C318 1.391 . S
C322 C321 1.371 . S
C322 H329 0.930 . S
H323 C320 0.928 . S
H324 C321 0.931 . S
H325 C301 0.930 . S
H326 C298 0.930 . S
H327 C307 0.930 . S
H328 C319 0.929 . S
H329 C322 0.930 . S
C330 C331 1.351 . S
C330 N333 1.368 . S
C330 H335 0.931 . S
C331 C330 1.351 . S
C331 N332 1.373 . S
C331 H359 0.930 . S
N332 C331 1.373 . S
N332 C334 1.340 . S
N333 C330 1.368 . S
N333 C334 1.321 . S
N333 Co336 2.135 . S
C334 N332 1.340 . S
C334 N333 1.321 . S
C334 H358 0.930 . S
H335 C330 0.931 . S
Co336 N333 2.135 . S
Co336 N339 2.121 . S
Co336 O344 2.055 . S
Co336 O347 2.039 . S
Co336 N350 2.140 . S
C337 O338 1.227 . S
C337 O347 1.265 . S
O338 C337 1.227 . S
N339 Co336 2.121 . S
N339 C341 1.375 . S
N339 C342 1.313 . S
C340 C341 1.338 . S
C340 N343 1.377 . S
C340 H360 0.930 . S
C341 N339 1.375 . S
C341 C340 1.338 . S
C341 H345 0.931 . S
C342 N339 1.313 . S
C342 N343 1.344 . S
C342 H346 0.930 . S
N343 C340 1.377 . S
N343 C342 1.344 . S
O344 Co336 2.055 . S
O344 C348 1.253 . S
H345 C341 0.931 . S
H346 C342 0.930 . S
O347 Co336 2.039 . S
O347 C337 1.265 . S
C348 O344 1.253 . S
C348 O349 1.227 . S
O349 C348 1.227 . S
N350 Co336 2.140 . S
N350 C353 1.346 . S
N350 C354 1.345 . S
C351 C352 1.387 . S
C351 C355 1.391 . S
C352 C351 1.387 . S
C352 C353 1.369 . S
C352 H361 0.929 . S
C353 N350 1.346 . S
C353 C352 1.369 . S
C353 H356 0.928 . S
C354 N350 1.345 . S
C354 C355 1.371 . S
C354 H357 0.931 . S
C355 C351 1.391 . S
C355 C354 1.371 . S
C355 H362 0.930 . S
H356 C353 0.928 . S
H357 C354 0.931 . S
H358 C334 0.930 . S
H359 C331 0.930 . S
H360 C340 0.930 . S
H361 C352 0.929 . S
H362 C355 0.930 . S
C363 C364 1.351 . S
C363 N366 1.368 . S
C363 H368 0.931 . S
C364 C363 1.351 . S
C364 N365 1.373 . S
C364 H392 0.930 . S
N365 C364 1.373 . S
N365 C367 1.340 . S
N366 C363 1.368 . S
N366 C367 1.321 . S
N366 Co369 2.135 . S
C367 N365 1.340 . S
C367 N366 1.321 . S
C367 H391 0.930 . S
H368 C363 0.931 . S
Co369 N366 2.135 . S
Co369 N372 2.121 . S
Co369 O377 2.055 . S
Co369 O380 2.039 . S
Co369 N383 2.140 . S
C370 O371 1.227 . S
C370 O380 1.265 . S
O371 C370 1.227 . S
N372 Co369 2.121 . S
N372 C374 1.375 . S
N372 C375 1.313 . S
C373 C374 1.338 . S
C373 N376 1.377 . S
C373 H393 0.930 . S
C374 N372 1.375 . S
C374 C373 1.338 . S
C374 H378 0.931 . S
C375 N372 1.313 . S
C375 N376 1.344 . S
C375 H379 0.930 . S
N376 C373 1.377 . S
N376 C375 1.344 . S
O377 Co369 2.055 . S
O377 C381 1.253 . S
H378 C374 0.931 . S
H379 C375 0.930 . S
O380 Co369 2.039 . S
O380 C370 1.265 . S
C381 O377 1.253 . S
C381 O382 1.227 . S
O382 C381 1.227 . S
N383 Co369 2.140 . S
N383 C386 1.346 . S
N383 C387 1.345 . S
C384 C385 1.387 . S
C384 C388 1.391 . S
C385 C384 1.387 . S
C385 C386 1.369 . S
C385 H394 0.929 . S
C386 N383 1.346 . S
C386 C385 1.369 . S
C386 H389 0.928 . S
C387 N383 1.345 . S
C387 C388 1.371 . S
C387 H390 0.931 . S
C388 C384 1.391 . S
C388 C387 1.371 . S
C388 H395 0.930 . S
H389 C386 0.928 . S
H390 C387 0.931 . S
H391 C367 0.930 . S
H392 C364 0.930 . S
H393 C373 0.930 . S
H394 C385 0.929 . S
H395 C388 0.930 . S
H396 C402 0.930 . S
H397 C405 0.930 . S
H398 C406 0.930 . S
H399 C407 0.930 . S
H400 C410 0.930 . S
H401 C411 0.930 . S
C402 H396 0.930 . S
C402 C403 1.355 . S
C402 C404 1.415 . S
C403 C402 1.355 . S
C403 C405 1.419 . S
C404 C402 1.415 . S
C404 C409 1.425 . S
C404 C411 1.409 . S
C405 H397 0.930 . S
C405 C403 1.419 . S
C405 C406 1.362 . S
C406 H398 0.930 . S
C406 C405 1.362 . S
C406 C409 1.409 . S
C407 H399 0.930 . S
C407 C408 1.355 . S
C407 C409 1.415 . S
C408 C407 1.355 . S
C408 C410 1.419 . S
C409 C404 1.425 . S
C409 C406 1.409 . S
C409 C407 1.415 . S
C410 H400 0.930 . S
C410 C408 1.419 . S
C410 C411 1.362 . S
C411 H401 0.930 . S
C411 C404 1.409 . S
C411 C410 1.362 . S
H412 C418 0.930 . S
H413 C421 0.930 . S
H414 C422 0.930 . S
H415 C423 0.930 . S
H416 C426 0.930 . S
H417 C427 0.930 . S
C418 H412 0.930 . S
C418 C419 1.355 . S
C418 C420 1.415 . S
C419 C418 1.355 . S
C419 C421 1.419 . S
C420 C418 1.415 . S
C420 C425 1.425 . S
C420 C427 1.409 . S
C421 H413 0.930 . S
C421 C419 1.419 . S
C421 C422 1.362 . S
C422 H414 0.930 . S
C422 C421 1.362 . S
C422 C425 1.409 . S
C423 H415 0.930 . S
C423 C424 1.355 . S
C423 C425 1.415 . S
C424 C423 1.355 . S
C424 C426 1.419 . S
C425 C420 1.425 . S
C425 C422 1.409 . S
C425 C423 1.415 . S
C426 H416 0.930 . S
C426 C424 1.419 . S
C426 C427 1.362 . S
C427 H417 0.930 . S
C427 C420 1.409 . S
C427 C426 1.362 . S
H428 C434 0.930 . S
H429 C437 0.930 . S
H430 C438 0.930 . S
H431 C439 0.930 . S
H432 C442 0.930 . S
H433 C443 0.930 . S
C434 H428 0.930 . S
C434 C435 1.355 . S
C434 C436 1.415 . S
C435 C434 1.355 . S
C435 C437 1.419 . S
C436 C434 1.415 . S
C436 C441 1.425 . S
C436 C443 1.409 . S
C437 H429 0.930 . S
C437 C435 1.419 . S
C437 C438 1.362 . S
C438 H430 0.930 . S
C438 C437 1.362 . S
C438 C441 1.409 . S
C439 H431 0.930 . S
C439 C440 1.355 . S
C439 C441 1.415 . S
C440 C439 1.355 . S
C440 C442 1.419 . S
C441 C436 1.425 . S
C441 C438 1.409 . S
C441 C439 1.415 . S
C442 H432 0.930 . S
C442 C440 1.419 . S
C442 C443 1.362 . S
C443 H433 0.930 . S
C443 C436 1.409 . S
C443 C442 1.362 . S
H444 C450 0.930 . S
H445 C453 0.930 . S
H446 C454 0.930 . S
H447 C455 0.930 . S
H448 C458 0.930 . S
H449 C459 0.930 . S
C450 H444 0.930 . S
C450 C451 1.355 . S
C450 C452 1.415 . S
C451 C450 1.355 . S
C451 C453 1.419 . S
C452 C450 1.415 . S
C452 C457 1.425 . S
C452 C459 1.409 . S
C453 H445 0.930 . S
C453 C451 1.419 . S
C453 C454 1.362 . S
C454 H446 0.930 . S
C454 C453 1.362 . S
C454 C457 1.409 . S
C455 H447 0.930 . S
C455 C456 1.355 . S
C455 C457 1.415 . S
C456 C455 1.355 . S
C456 C458 1.419 . S
C457 C452 1.425 . S
C457 C454 1.409 . S
C457 C455 1.415 . S
C458 H448 0.930 . S
C458 C456 1.419 . S
C458 C459 1.362 . S
C459 H449 0.930 . S
C459 C452 1.409 . S
C459 C458 1.362 . S
H460 C466 0.930 . S
H461 C469 0.930 . S
H462 C470 0.930 . S
H463 C471 0.930 . S
H464 C474 0.930 . S
H465 C475 0.930 . S
C466 H460 0.930 . S
C466 C467 1.355 . S
C466 C468 1.415 . S
C467 C466 1.355 . S
C467 C469 1.419 . S
C468 C466 1.415 . S
C468 C473 1.425 . S
C468 C475 1.409 . S
C469 H461 0.930 . S
C469 C467 1.419 . S
C469 C470 1.362 . S
C470 H462 0.930 . S
C470 C469 1.362 . S
C470 C473 1.409 . S
C471 H463 0.930 . S
C471 C472 1.355 . S
C471 C473 1.415 . S
C472 C471 1.355 . S
C472 C474 1.419 . S
C473 C468 1.425 . S
C473 C470 1.409 . S
C473 C471 1.415 . S
C474 H464 0.930 . S
C474 C472 1.419 . S
C474 C475 1.362 . S
C475 H465 0.930 . S
C475 C468 1.409 . S
C475 C474 1.362 . S
H476 C482 0.930 . S
H477 C485 0.930 1_556 S
H478 C486 0.930 . S
H479 C487 0.930 . S
H480 C490 0.930 . S
H481 C491 0.930 . S
C482 H476 0.930 . S
C482 C483 1.355 . S
C482 C484 1.415 . S
C483 C482 1.355 . S
C483 C485 1.419 . S
C484 C482 1.415 . S
C484 C489 1.425 . S
C484 C491 1.409 . S
C485 H477 0.930 1_554 S
C485 C483 1.419 . S
C485 C486 1.362 . S
C486 H478 0.930 . S
C486 C485 1.362 . S
C486 C489 1.409 . S
C487 H479 0.930 . S
C487 C488 1.355 . S
C487 C489 1.415 . S
C488 C487 1.355 . S
C488 C490 1.419 . S
C489 C484 1.425 . S
C489 C486 1.409 . S
C489 C487 1.415 . S
C490 H480 0.930 . S
C490 C488 1.419 . S
C490 C491 1.362 . S
C491 H481 0.930 . S
C491 C484 1.409 . S
C491 C490 1.362 . S
H492 C498 0.930 . S
H493 C501 0.930 . S
H494 C502 0.930 . S
H495 C503 0.930 . S
H496 C506 0.930 . S
H497 C507 0.930 . S
C498 H492 0.930 . S
C498 C499 1.355 . S
C498 C500 1.415 . S
C499 C498 1.355 . S
C499 C501 1.419 . S
C500 C498 1.415 . S
C500 C505 1.425 . S
C500 C507 1.409 . S
C501 H493 0.930 . S
C501 C499 1.419 . S
C501 C502 1.362 . S
C502 H494 0.930 . S
C502 C501 1.362 . S
C502 C505 1.409 . S
C503 H495 0.930 . S
C503 C504 1.355 . S
C503 C505 1.415 . S
C504 C503 1.355 . S
C504 C506 1.419 . S
C505 C500 1.425 . S
C505 C502 1.409 . S
C505 C503 1.415 . S
C506 H496 0.930 . S
C506 C504 1.419 . S
C506 C507 1.362 . S
C507 H497 0.930 . S
C507 C500 1.409 . S
C507 C506 1.362 . S
H508 C514 0.930 . S
H509 C517 0.930 . S
H510 C518 0.930 . S
H511 C519 0.930 . S
H512 C522 0.930 . S
H513 C523 0.930 . S
C514 H508 0.930 . S
C514 C515 1.355 . S
C514 C516 1.415 . S
C515 C514 1.355 . S
C515 C517 1.419 . S
C516 C514 1.415 . S
C516 C521 1.425 . S
C516 C523 1.409 . S
C517 H509 0.930 . S
C517 C515 1.419 . S
C517 C518 1.362 . S
C518 H510 0.930 . S
C518 C517 1.362 . S
C518 C521 1.409 . S
C519 H511 0.930 . S
C519 C520 1.355 . S
C519 C521 1.415 . S
C520 C519 1.355 . S
C520 C522 1.419 . S
C521 C516 1.425 . S
C521 C518 1.409 . S
C521 C519 1.415 . S
C522 H512 0.930 . S
C522 C520 1.419 . S
C522 C523 1.362 . S
C523 H513 0.930 . S
C523 C516 1.409 . S
C523 C522 1.362 . S
H524 C530 0.930 . S
H525 C533 0.930 . S
H526 C534 0.930 . S
H527 C535 0.930 . S
H528 C538 0.930 . S
H529 C539 0.930 . S
C530 H524 0.930 . S
C530 C531 1.355 . S
C530 C532 1.415 . S
C531 C530 1.355 . S
C531 C533 1.419 . S
C532 C530 1.415 . S
C532 C537 1.425 . S
C532 C539 1.409 . S
C533 H525 0.930 . S
C533 C531 1.419 . S
C533 C534 1.362 . S
C534 H526 0.930 . S
C534 C533 1.362 . S
C534 C537 1.409 . S
C535 H527 0.930 . S
C535 C536 1.355 . S
C535 C537 1.415 . S
C536 C535 1.355 . S
C536 C538 1.419 . S
C537 C532 1.425 . S
C537 C534 1.409 . S
C537 C535 1.415 . S
C538 H528 0.930 . S
C538 C536 1.419 . S
C538 C539 1.362 . S
C539 H529 0.930 . S
C539 C532 1.409 . S
C539 C538 1.362 . S
H540 C546 0.930 . S
H541 C549 0.930 . S
H542 C550 0.930 . S
H543 C551 0.930 . S
H544 C554 0.930 . S
H545 C555 0.930 . S
C546 H540 0.930 . S
C546 C547 1.355 . S
C546 C548 1.415 . S
C547 C546 1.355 . S
C547 C549 1.419 . S
C548 C546 1.415 . S
C548 C553 1.425 . S
C548 C555 1.409 . S
C549 H541 0.930 . S
C549 C547 1.419 . S
C549 C550 1.362 . S
C550 H542 0.930 . S
C550 C549 1.362 . S
C550 C553 1.409 . S
C551 H543 0.930 . S
C551 C552 1.355 . S
C551 C553 1.415 . S
C552 C551 1.355 . S
C552 C554 1.419 . S
C553 C548 1.425 . S
C553 C550 1.409 . S
C553 C551 1.415 . S
C554 H544 0.930 . S
C554 C552 1.419 . S
C554 C555 1.362 . S
C555 H545 0.930 . S
C555 C548 1.409 . S
C555 C554 1.362 . S
H556 C562 0.930 . S
H557 C565 0.930 . S
H558 C566 0.930 . S
H559 C567 0.930 . S
H560 C570 0.930 . S
H561 C571 0.930 . S
C562 H556 0.930 . S
C562 C563 1.355 . S
C562 C564 1.415 . S
C563 C562 1.355 . S
C563 C565 1.419 . S
C564 C562 1.415 . S
C564 C569 1.425 . S
C564 C571 1.409 . S
C565 H557 0.930 . S
C565 C563 1.419 . S
C565 C566 1.362 . S
C566 H558 0.930 . S
C566 C565 1.362 . S
C566 C569 1.409 . S
C567 H559 0.930 . S
C567 C568 1.355 . S
C567 C569 1.415 . S
C568 C567 1.355 . S
C568 C570 1.419 . S
C569 C564 1.425 . S
C569 C566 1.409 . S
C569 C567 1.415 . S
C570 H560 0.930 . S
C570 C568 1.419 . S
C570 C571 1.362 . S
C571 H561 0.930 . S
C571 C564 1.409 . S
C571 C570 1.362 . S
H572 C578 0.930 . S
H573 C581 0.930 . S
H574 C582 0.930 . S
H575 C583 0.930 . S
H576 C586 0.930 . S
H577 C587 0.930 . S
C578 H572 0.930 . S
C578 C579 1.355 . S
C578 C580 1.415 . S
C579 C578 1.355 . S
C579 C581 1.419 . S
C580 C578 1.415 . S
C580 C585 1.425 . S
C580 C587 1.409 . S
C581 H573 0.930 . S
C581 C579 1.419 . S
C581 C582 1.362 . S
C582 H574 0.930 . S
C582 C581 1.362 . S
C582 C585 1.409 . S
C583 H575 0.930 . S
C583 C584 1.355 . S
C583 C585 1.415 . S
C584 C583 1.355 . S
C584 C586 1.419 . S
C585 C580 1.425 . S
C585 C582 1.409 . S
C585 C583 1.415 . S
C586 H576 0.930 . S
C586 C584 1.419 . S
C586 C587 1.362 . S
C587 H577 0.930 . S
C587 C580 1.409 . S
C587 C586 1.362 . S
H588 C594 0.930 . S
H589 C597 0.930 . S
H590 C598 0.930 . S
H591 C599 0.930 . S
H592 C602 0.930 . S
H593 C603 0.930 . S
C594 H588 0.930 . S
C594 C595 1.355 . S
C594 C596 1.415 . S
C595 C594 1.355 . S
C595 C597 1.419 1_655 S
C596 C594 1.415 . S
C596 C601 1.425 1_655 S
C596 C603 1.409 . S
C597 H589 0.930 . S
C597 C595 1.419 1_455 S
C597 C598 1.362 . S
C598 H590 0.930 . S
C598 C597 1.362 . S
C598 C601 1.409 . S
C599 H591 0.930 . S
C599 C600 1.355 . S
C599 C601 1.415 . S
C600 C599 1.355 . S
C600 C602 1.419 1_455 S
C601 C596 1.425 1_455 S
C601 C598 1.409 . S
C601 C599 1.415 . S
C602 H592 0.930 . S
C602 C600 1.419 1_655 S
C602 C603 1.362 . S
C603 H593 0.930 . S
C603 C596 1.409 . S
C603 C602 1.362 . S
H604 C610 0.930 . S
H605 C613 0.930 . S
H606 C614 0.930 . S
H607 C615 0.930 . S
H608 C618 0.930 . S
H609 C619 0.930 . S
C610 H604 0.930 . S
C610 C611 1.355 . S
C610 C612 1.415 . S
C611 C610 1.355 . S
C611 C613 1.419 1_565 S
C612 C610 1.415 . S
C612 C617 1.425 1_566 S
C612 C619 1.409 1_556 S
C613 H605 0.930 . S
C613 C611 1.419 1_545 S
C613 C614 1.362 . S
C614 H606 0.930 . S
C614 C613 1.362 . S
C614 C617 1.409 1_556 S
C615 H607 0.930 . S
C615 C616 1.355 . S
C615 C617 1.415 . S
C616 C615 1.355 . S
C616 C618 1.419 1_545 S
C617 C612 1.425 1_544 S
C617 C614 1.409 1_554 S
C617 C615 1.415 . S
C618 H608 0.930 . S
C618 C616 1.419 1_565 S
C618 C619 1.362 . S
C619 H609 0.930 . S
C619 C612 1.409 1_554 S
C619 C618 1.362 . S
H620 C626 0.930 . S
H621 C629 0.930 . S
H622 C630 0.930 . S
H623 C631 0.930 . S
H624 C634 0.930 . S
H625 C635 0.930 . S
C626 H620 0.930 . S
C626 C627 1.355 . S
C626 C628 1.415 . S
C627 C626 1.355 . S
C627 C629 1.419 . S
C628 C626 1.415 . S
C628 C633 1.425 . S
C628 C635 1.409 . S
C629 H621 0.930 . S
C629 C627 1.419 . S
C629 C630 1.362 . S
C630 H622 0.930 . S
C630 C629 1.362 . S
C630 C633 1.409 . S
C631 H623 0.930 . S
C631 C632 1.355 . S
C631 C633 1.415 . S
C632 C631 1.355 . S
C632 C634 1.419 . S
C633 C628 1.425 . S
C633 C630 1.409 . S
C633 C631 1.415 . S
C634 H624 0.930 . S
C634 C632 1.419 . S
C634 C635 1.362 . S
C635 H625 0.930 . S
C635 C628 1.409 . S
C635 C634 1.362 . S
H636 C642 0.930 . S
H637 C645 0.930 . S
H638 C646 0.930 . S
H639 C647 0.930 . S
H640 C650 0.930 . S
H641 C651 0.930 . S
C642 H636 0.930 . S
C642 C643 1.355 1_455 S
C642 C644 1.415 . S
C643 C642 1.355 1_655 S
C643 C645 1.419 . S
C644 C642 1.415 . S
C644 C649 1.425 1_455 S
C644 C651 1.409 . S
C645 H637 0.930 . S
C645 C643 1.419 . S
C645 C646 1.362 . S
C646 H638 0.930 . S
C646 C645 1.362 . S
C646 C649 1.409 . S
C647 H639 0.930 . S
C647 C648 1.355 1_655 S
C647 C649 1.415 . S
C648 C647 1.355 1_455 S
C648 C650 1.419 . S
C649 C644 1.425 1_655 S
C649 C646 1.409 . S
C649 C647 1.415 . S
C650 H640 0.930 . S
C650 C648 1.419 . S
C650 C651 1.362 . S
C651 H641 0.930 . S
C651 C644 1.409 . S
C651 C650 1.362 . S
H652 C658 0.930 . S
H653 C661 0.930 . S
H654 C662 0.930 . S
H655 C663 0.930 . S
H656 C666 0.930 . S
H657 C667 0.930 . S
C658 H652 0.930 . S
C658 C659 1.355 . S
C658 C660 1.415 . S
C659 C658 1.355 . S
C659 C661 1.419 1_565 S
C660 C658 1.415 . S
C660 C665 1.425 1_565 S
C660 C667 1.409 . S
C661 H653 0.930 . S
C661 C659 1.419 1_545 S
C661 C662 1.362 . S
C662 H654 0.930 . S
C662 C661 1.362 . S
C662 C665 1.409 . S
C663 H655 0.930 . S
C663 C664 1.355 . S
C663 C665 1.415 . S
C664 C663 1.355 . S
C664 C666 1.419 1_545 S
C665 C660 1.425 1_545 S
C665 C662 1.409 . S
C665 C663 1.415 . S
C666 H656 0.930 . S
C666 C664 1.419 1_565 S
C666 C667 1.362 . S
C667 H657 0.930 . S
C667 C660 1.409 . S
C667 C666 1.362 . S
H668 C674 0.930 . S
H669 C677 0.930 . S
H670 C678 0.930 . S
H671 C679 0.930 . S
H672 C682 0.930 . S
H673 C683 0.930 . S
C674 H668 0.930 . S
C674 C675 1.355 . S
C674 C676 1.415 . S
C675 C674 1.355 . S
C675 C677 1.419 . S
C676 C674 1.415 . S
C676 C681 1.425 . S
C676 C683 1.409 . S
C677 H669 0.930 . S
C677 C675 1.419 . S
C677 C678 1.362 . S
C678 H670 0.930 . S
C678 C677 1.362 . S
C678 C681 1.409 . S
C679 H671 0.930 . S
C679 C680 1.355 . S
C679 C681 1.415 . S
C680 C679 1.355 . S
C680 C682 1.419 . S
C681 C676 1.425 . S
C681 C678 1.409 . S
C681 C679 1.415 . S
C682 H672 0.930 . S
C682 C680 1.419 . S
C682 C683 1.362 . S
C683 H673 0.930 . S
C683 C676 1.409 . S
C683 C682 1.362 . S
H684 C690 0.930 . S
H685 C693 0.930 . S
H686 C694 0.930 . S
H687 C695 0.930 1_554 S
H688 C698 0.930 . S
H689 C699 0.930 . S
C690 H684 0.930 . S
C690 C691 1.355 . S
C690 C692 1.415 . S
C691 C690 1.355 . S
C691 C693 1.419 . S
C692 C690 1.415 . S
C692 C697 1.425 . S
C692 C699 1.409 . S
C693 H685 0.930 . S
C693 C691 1.419 . S
C693 C694 1.362 . S
C694 H686 0.930 . S
C694 C693 1.362 . S
C694 C697 1.409 . S
C695 H687 0.930 1_556 S
C695 C696 1.355 . S
C695 C697 1.415 . S
C696 C695 1.355 . S
C696 C698 1.419 . S
C697 C692 1.425 . S
C697 C694 1.409 . S
C697 C695 1.415 . S
C698 H688 0.930 . S
C698 C696 1.419 . S
C698 C699 1.362 . S
C699 H689 0.930 . S
C699 C692 1.409 . S
C699 C698 1.362 . S
H700 C706 0.930 . S
H701 C709 0.930 . S
H702 C710 0.930 . S
H703 C711 0.930 . S
H704 C714 0.930 . S
H705 C715 0.930 . S
C706 H700 0.930 . S
C706 C707 1.355 . S
C706 C708 1.415 . S
C707 C706 1.355 . S
C707 C709 1.419 . S
C708 C706 1.415 . S
C708 C713 1.425 . S
C708 C715 1.409 . S
C709 H701 0.930 . S
C709 C707 1.419 . S
C709 C710 1.362 . S
C710 H702 0.930 . S
C710 C709 1.362 . S
C710 C713 1.409 . S
C711 H703 0.930 . S
C711 C712 1.355 . S
C711 C713 1.415 . S
C712 C711 1.355 . S
C712 C714 1.419 . S
C713 C708 1.425 . S
C713 C710 1.409 . S
C713 C711 1.415 . S
C714 H704 0.930 . S
C714 C712 1.419 . S
C714 C715 1.362 . S
C715 H705 0.930 . S
C715 C708 1.409 . S
C715 C714 1.362 . S
H716 C722 0.930 . S
H717 C725 0.930 . S
H718 C726 0.930 . S
H719 C727 0.930 . S
H720 C730 0.930 . S
H721 C731 0.930 . S
C722 H716 0.930 . S
C722 C723 1.355 . S
C722 C724 1.415 . S
C723 C722 1.355 . S
C723 C725 1.419 . S
C724 C722 1.415 . S
C724 C729 1.425 . S
C724 C731 1.409 . S
C725 H717 0.930 . S
C725 C723 1.419 . S
C725 C726 1.362 . S
C726 H718 0.930 . S
C726 C725 1.362 . S
C726 C729 1.409 . S
C727 H719 0.930 . S
C727 C728 1.355 . S
C727 C729 1.415 . S
C728 C727 1.355 . S
C728 C730 1.419 . S
C729 C724 1.425 . S
C729 C726 1.409 . S
C729 C727 1.415 . S
C730 H720 0.930 . S
C730 C728 1.419 . S
C730 C731 1.362 . S
C731 H721 0.930 . S
C731 C724 1.409 . S
C731 C730 1.362 . S
H732 C738 0.930 . S
H733 C741 0.930 . S
H734 C742 0.930 . S
H735 C743 0.930 . S
H736 C746 0.930 . S
H737 C747 0.930 . S
C738 H732 0.930 . S
C738 C739 1.355 . S
C738 C740 1.415 . S
C739 C738 1.355 . S
C739 C741 1.419 . S
C740 C738 1.415 . S
C740 C745 1.425 . S
C740 C747 1.409 . S
C741 H733 0.930 . S
C741 C739 1.419 . S
C741 C742 1.362 . S
C742 H734 0.930 . S
C742 C741 1.362 . S
C742 C745 1.409 . S
C743 H735 0.930 . S
C743 C744 1.355 . S
C743 C745 1.415 . S
C744 C743 1.355 . S
C744 C746 1.419 . S
C745 C740 1.425 . S
C745 C742 1.409 . S
C745 C743 1.415 . S
C746 H736 0.930 . S
C746 C744 1.419 . S
C746 C747 1.362 . S
C747 H737 0.930 . S
C747 C740 1.409 . S
C747 C746 1.362 . S
H748 C754 0.930 . S
H749 C757 0.930 . S
H750 C758 0.930 . S
H751 C759 0.930 . S
H752 C762 0.930 . S
H753 C763 0.930 . S
C754 H748 0.930 . S
C754 C755 1.355 . S
C754 C756 1.415 . S
C755 C754 1.355 . S
C755 C757 1.419 . S
C756 C754 1.415 . S
C756 C761 1.425 . S
C756 C763 1.409 . S
C757 H749 0.930 . S
C757 C755 1.419 . S
C757 C758 1.362 . S
C758 H750 0.930 . S
C758 C757 1.362 . S
C758 C761 1.409 . S
C759 H751 0.930 . S
C759 C760 1.355 . S
C759 C761 1.415 . S
C760 C759 1.355 . S
C760 C762 1.419 . S
C761 C756 1.425 . S
C761 C758 1.409 . S
C761 C759 1.415 . S
C762 H752 0.930 . S
C762 C760 1.419 . S
C762 C763 1.362 . S
C763 H753 0.930 . S
C763 C756 1.409 . S
C763 C762 1.362 . S
H764 C770 0.930 . S
H765 C773 0.930 . S
H766 C774 0.930 . S
H767 C775 0.930 . S
H768 C778 0.930 . S
H769 C779 0.930 . S
C770 H764 0.930 . S
C770 C771 1.355 . S
C770 C772 1.415 . S
C771 C770 1.355 . S
C771 C773 1.419 . S
C772 C770 1.415 . S
C772 C777 1.425 . S
C772 C779 1.409 . S
C773 H765 0.930 . S
C773 C771 1.419 . S
C773 C774 1.362 . S
C774 H766 0.930 . S
C774 C773 1.362 . S
C774 C777 1.409 . S
C775 H767 0.930 . S
C775 C776 1.355 . S
C775 C777 1.415 . S
C776 C775 1.355 . S
C776 C778 1.419 . S
C777 C772 1.425 . S
C777 C774 1.409 . S
C777 C775 1.415 . S
C778 H768 0.930 . S
C778 C776 1.419 . S
C778 C779 1.362 . S
C779 H769 0.930 . S
C779 C772 1.409 . S
C779 C778 1.362 . S
H780 C786 0.930 . S
H781 C789 0.930 . S
H782 C790 0.930 . S
H783 C791 0.930 . S
H784 C794 0.930 . S
H785 C795 0.930 . S
C786 H780 0.930 . S
C786 C787 1.355 . S
C786 C788 1.415 . S
C787 C786 1.355 . S
C787 C789 1.419 . S
C788 C786 1.415 . S
C788 C793 1.425 . S
C788 C795 1.409 . S
C789 H781 0.930 . S
C789 C787 1.419 . S
C789 C790 1.362 . S
C790 H782 0.930 . S
C790 C789 1.362 . S
C790 C793 1.409 . S
C791 H783 0.930 . S
C791 C792 1.355 . S
C791 C793 1.415 . S
C792 C791 1.355 . S
C792 C794 1.419 . S
C793 C788 1.425 . S
C793 C790 1.409 . S
C793 C791 1.415 . S
C794 H784 0.930 . S
C794 C792 1.419 . S
C794 C795 1.362 . S
C795 H785 0.930 . S
C795 C788 1.409 . S
C795 C794 1.362 . S
H796 C802 0.930 . S
H797 C805 0.930 . S
H798 C806 0.930 . S
H799 C807 0.930 . S
H800 C810 0.930 . S
H801 C811 0.930 . S
C802 H796 0.930 . S
C802 C803 1.355 . S
C802 C804 1.415 1_556 S
C803 C802 1.355 . S
C803 C805 1.417 1_556 S
C804 C802 1.415 1_554 S
C804 C809 1.425 . S
C804 C811 1.409 1_554 S
C805 H797 0.930 . S
C805 C803 1.417 1_554 S
C805 C806 1.362 . S
C806 H798 0.930 . S
C806 C805 1.362 . S
C806 C809 1.409 . S
C807 H799 0.930 . S
C807 C808 1.355 . S
C807 C809 1.415 . S
C808 C807 1.355 . S
C808 C810 1.419 . S
C809 C804 1.425 . S
C809 C806 1.409 . S
C809 C807 1.415 . S
C810 H800 0.930 . S
C810 C808 1.419 . S
C810 C811 1.362 1_554 S
C811 H801 0.930 . S
C811 C804 1.409 1_556 S
C811 C810 1.362 1_556 S
H812 C818 0.930 . S
H813 C821 0.930 . S
H814 C822 0.930 . S
H815 C823 0.930 . S
H816 C826 0.930 . S
H817 C827 0.930 . S
C818 H812 0.930 . S
C818 C819 1.355 . S
C818 C820 1.415 . S
C819 C818 1.355 . S
C819 C821 1.419 . S
C820 C818 1.415 . S
C820 C825 1.425 . S
C820 C827 1.409 . S
C821 H813 0.930 . S
C821 C819 1.419 . S
C821 C822 1.362 . S
C822 H814 0.930 . S
C822 C821 1.362 . S
C822 C825 1.409 . S
C823 H815 0.930 . S
C823 C824 1.355 . S
C823 C825 1.415 . S
C824 C823 1.355 . S
C824 C826 1.419 . S
C825 C820 1.425 . S
C825 C822 1.409 . S
C825 C823 1.415 . S
C826 H816 0.930 . S
C826 C824 1.419 . S
C826 C827 1.362 . S
C827 H817 0.930 . S
C827 C820 1.409 . S
C827 C826 1.362 . S
H828 C834 0.930 . S
H829 C837 0.930 . S
H830 C838 0.930 . S
H831 C839 0.930 . S
H832 C842 0.930 . S
H833 C843 0.930 . S
C834 H828 0.930 . S
C834 C835 1.355 . S
C834 C836 1.415 . S
C835 C834 1.355 . S
C835 C837 1.419 . S
C836 C834 1.415 . S
C836 C841 1.425 . S
C836 C843 1.409 . S
C837 H829 0.930 . S
C837 C835 1.419 . S
C837 C838 1.362 . S
C838 H830 0.930 . S
C838 C837 1.362 . S
C838 C841 1.409 . S
C839 H831 0.930 . S
C839 C840 1.355 . S
C839 C841 1.415 . S
C840 C839 1.355 . S
C840 C842 1.419 . S
C841 C836 1.425 . S
C841 C838 1.409 . S
C841 C839 1.415 . S
C842 H832 0.930 . S
C842 C840 1.419 . S
C842 C843 1.362 . S
C843 H833 0.930 . S
C843 C836 1.409 . S
C843 C842 1.362 . S
H844 C850 0.930 . S
H845 C853 0.930 . S
H846 C854 0.930 . S
H847 C855 0.930 . S
H848 C858 0.930 . S
H849 C859 0.930 . S
C850 H844 0.930 . S
C850 C851 1.355 . S
C850 C852 1.415 . S
C851 C850 1.355 . S
C851 C853 1.419 . S
C852 C850 1.415 . S
C852 C857 1.425 . S
C852 C859 1.409 . S
C853 H845 0.930 . S
C853 C851 1.419 . S
C853 C854 1.362 . S
C854 H846 0.930 . S
C854 C853 1.362 . S
C854 C857 1.409 . S
C855 H847 0.930 . S
C855 C856 1.355 . S
C855 C857 1.415 . S
C856 C855 1.355 . S
C856 C858 1.419 . S
C857 C852 1.425 . S
C857 C854 1.409 . S
C857 C855 1.415 . S
C858 H848 0.930 . S
C858 C856 1.419 . S
C858 C859 1.362 . S
C859 H849 0.930 . S
C859 C852 1.409 . S
C859 C858 1.362 . S
H860 C866 0.930 . S
H861 C869 0.930 . S
H862 C870 0.930 . S
H863 C871 0.930 . S
H864 C874 0.930 . S
H865 C875 0.930 . S
C866 H860 0.930 . S
C866 C867 1.355 . S
C866 C868 1.415 . S
C867 C866 1.355 . S
C867 C869 1.419 . S
C868 C866 1.415 . S
C868 C873 1.425 . S
C868 C875 1.409 . S
C869 H861 0.930 . S
C869 C867 1.419 . S
C869 C870 1.362 . S
C870 H862 0.930 . S
C870 C869 1.362 . S
C870 C873 1.409 . S
C871 H863 0.930 . S
C871 C872 1.355 . S
C871 C873 1.415 . S
C872 C871 1.355 . S
C872 C874 1.419 . S
C873 C868 1.425 . S
C873 C870 1.409 . S
C873 C871 1.415 . S
C874 H864 0.930 . S
C874 C872 1.419 . S
C874 C875 1.362 . S
C875 H865 0.930 . S
C875 C868 1.409 . S
C875 C874 1.362 . S
C403 N343 1.107 . S
C408 N13 1.098 . S
C419 N46 1.105 . S
C424 N376 1.077 . S
C435 N79 1.101 . S
C440 N211 1.105 . S
C451 N112 1.037 . S
C456 N244 1.034 . S
C467 N145 1.076 . S
C472 N277 1.121 . S
C483 N178 1.107 1_554 S
C488 N310 1.097 . S
C499 C21 1.465 . S
C504 C285 1.463 . S
C515 C318 1.458 . S
C520 C54 1.467 . S
C531 C87 1.458 . S
C536 C351 1.467 . S
C547 C120 1.463 . S
C552 C384 1.447 . S
C563 C153 1.458 . S
C568 C219 1.444 . S
C579 C186 1.450 . S
C584 C252 1.465 . S
C595 N365 1.253 . S
C600 N2 1.274 . S
C611 N200 1.274 . S
C616 N35 1.252 . S
C627 N233 1.274 . S
C632 N68 1.271 . S
C643 N101 1.186 . S
C648 N266 1.225 . S
C659 N134 1.273 . S
C664 N299 1.272 . S
C675 N332 1.227 . S
C680 N167 1.187 . S
C691 C172 1.970 . S
C696 C18 1.972 1_556 S
C707 C7 1.971 1_655 S
C712 C51 1.978 . S
C723 C84 1.966 . S
C728 C40 1.949 1_565 S
C739 C73 1.973 . S
C744 C117 1.978 . S
C755 C150 1.978 . S
C760 C106 1.971 1_455 S
C771 C183 1.970 . S
C776 C139 1.954 1_545 S
C787 C238 1.974 . S
C792 C216 1.978 . S
C803 C249 1.969 . S
C808 C271 1.963 1_655 S
C819 C282 1.964 . S
C824 C304 1.953 1_565 S
C835 C337 1.950 . S
C840 C315 1.967 . S
C851 C370 1.960 1_455 S
C856 C348 1.974 . S
C867 C381 1.970 . S
C872 C205 1.953 1_545 S
