# Generated by pormake.
# Topology fni, (5)-cn, num edge types: 1
# Building blocks:
#     Node 0, Type 0, BuildingBlock: XOMCOT_clean_sbu_0, # of connection points: 5
#     Node 1, Type 0, BuildingBlock: XOMCOT_clean_sbu_0, # of connection points: 5
#     Node 2, Type 0, BuildingBlock: XOMCOT_clean_sbu_0, # of connection points: 5
#     Node 3, Type 0, BuildingBlock: XOMCOT_clean_sbu_0, # of connection points: 5
#     Node 4, Type 0, BuildingBlock: XOMCOT_clean_sbu_0, # of connection points: 5
#     Node 5, Type 0, BuildingBlock: XOMCOT_clean_sbu_0, # of connection points: 5
#     Node 6, Type 0, BuildingBlock: XOMCOT_clean_sbu_0, # of connection points: 5
#     Node 7, Type 0, BuildingBlock: XOMCOT_clean_sbu_0, # of connection points: 5
#     Edge 8, Type (0, 0), BuildingBlock: KIFKEQ_clean_linker_1, # of connection points: 2
#     Edge 9, Type (0, 0), BuildingBlock: KIFKEQ_clean_linker_1, # of connection points: 2
#     Edge 10, Type (0, 0), BuildingBlock: KIFKEQ_clean_linker_1, # of connection points: 2
#     Edge 11, Type (0, 0), BuildingBlock: KIFKEQ_clean_linker_1, # of connection points: 2
#     Edge 12, Type (0, 0), BuildingBlock: KIFKEQ_clean_linker_1, # of connection points: 2
#     Edge 13, Type (0, 0), BuildingBlock: KIFKEQ_clean_linker_1, # of connection points: 2
#     Edge 14, Type (0, 0), BuildingBlock: KIFKEQ_clean_linker_1, # of connection points: 2
#     Edge 15, Type (0, 0), BuildingBlock: KIFKEQ_clean_linker_1, # of connection points: 2
#     Edge 16, Type (0, 0), BuildingBlock: KIFKEQ_clean_linker_1, # of connection points: 2
#     Edge 17, Type (0, 0), BuildingBlock: KIFKEQ_clean_linker_1, # of connection points: 2
#     Edge 18, Type (0, 0), BuildingBlock: KIFKEQ_clean_linker_1, # of connection points: 2
#     Edge 19, Type (0, 0), BuildingBlock: KIFKEQ_clean_linker_1, # of connection points: 2
#     Edge 20, Type (0, 0), BuildingBlock: KIFKEQ_clean_linker_1, # of connection points: 2
#     Edge 21, Type (0, 0), BuildingBlock: KIFKEQ_clean_linker_1, # of connection points: 2
#     Edge 22, Type (0, 0), BuildingBlock: KIFKEQ_clean_linker_1, # of connection points: 2
#     Edge 23, Type (0, 0), BuildingBlock: KIFKEQ_clean_linker_1, # of connection points: 2
#     Edge 24, Type (0, 0), BuildingBlock: KIFKEQ_clean_linker_1, # of connection points: 2
#     Edge 25, Type (0, 0), BuildingBlock: KIFKEQ_clean_linker_1, # of connection points: 2
#     Edge 26, Type (0, 0), BuildingBlock: KIFKEQ_clean_linker_1, # of connection points: 2
#     Edge 27, Type (0, 0), BuildingBlock: KIFKEQ_clean_linker_1, # of connection points: 2
# Relax obj value: 0.071
# Max RMSD: 0.155
# Mean RMSD: 0.154
data_MOF--net-fni--node1-XOMCOT_clean_sbu_0--edge1-KIFKEQ_clean_linker_1
_symmetry_space_group_name_H-M    P1
_symmetry_Int_Tables_number       1
_symmetry_cell_setting            triclinic
loop_
_symmetry_equiv_pos_as_xyz
'x, y, z'
_cell_length_a     54.720638
_cell_length_b     55.125789
_cell_length_c     17.800541
_cell_angle_alpha  89.731093
_cell_angle_beta   90.242138
_cell_angle_gamma 90.066839
loop_
_atom_site_label
_atom_site_type_symbol
_atom_site_fract_x
_atom_site_fract_y
_atom_site_fract_z
_atom_type_partial_charge
Co0 Co 0.40132 0.36144 1.01417 0.0
C1 C 0.39849 0.36382 0.17952 0.0
C2 C 0.36306 0.36003 0.12858 0.0
C3 C 0.36028 0.36031 0.20532 0.0
N4 N 0.38696 0.36238 0.11264 0.0
N5 N 0.38256 0.36265 0.23733 0.0
H6 H 0.4181 0.36552 0.1855 0.0
H7 H 0.34871 0.35763 0.08739 0.0
C8 C 0.36761 0.39675 0.92766 0.0
O9 O 0.3855 0.40802 0.8929 0.0
N10 N 0.41562 0.36007 0.91453 0.0
C11 C 0.43948 0.35748 0.89763 0.0
C12 C 0.442 0.35658 0.82101 0.0
C13 C 0.40389 0.35955 0.8476 0.0
N14 N 0.41963 0.35808 0.78944 0.0
C15 C 0.44483 0.38787 0.04978 0.0
C16 C 0.42484 0.4338 0.05182 0.0
C17 C 0.45038 0.43138 0.05497 0.0
C18 C 0.46017 0.40793 0.05701 0.0
C19 C 0.41009 0.41307 0.04452 0.0
N20 N 0.42033 0.39057 0.03778 0.0
H21 H 0.4529 0.37009 0.05277 0.0
H22 H 0.39053 0.4153 0.04383 0.0
H23 H 0.4542 0.35552 0.93755 0.0
H24 H 0.38425 0.36025 0.84149 0.0
O25 O 0.42395 0.3366 0.04908 0.0
O26 O 0.38759 0.3296 0.9987 0.0
O27 O 0.37207 0.37995 0.97538 0.0
C28 C 0.40749 0.32091 0.02829 0.0
H29 H 0.34323 0.35811 0.23519 0.0
H30 H 0.45902 0.35439 0.79103 0.0
H31 H 0.41635 0.45153 0.05279 0.0
H32 H 0.47964 0.40506 0.0636 0.0
Co33 Co 0.64318 0.89743 0.2678 0.0
C34 C 0.639 0.89257 0.43508 0.0
C35 C 0.65132 0.86 0.38224 0.0
C36 C 0.65206 0.85659 0.45883 0.0
N37 N 0.64288 0.88249 0.36705 0.0
N38 N 0.64434 0.87711 0.49194 0.0
H39 H 0.63385 0.91117 0.44386 0.0
H40 H 0.65735 0.84721 0.34032 0.0
C41 C 0.61119 0.85328 0.25293 0.0
O42 O 0.60072 0.85863 0.31705 0.0
N43 N 0.64415 0.9119 0.16894 0.0
C44 C 0.64428 0.93571 0.15215 0.0
C45 C 0.64459 0.93831 0.07515 0.0
C46 C 0.64445 0.90033 0.10239 0.0
N47 N 0.64461 0.91602 0.04363 0.0
C48 C 0.61297 0.93454 0.32934 0.0
C49 C 0.57127 0.92452 0.24728 0.0
C50 C 0.57169 0.94518 0.29301 0.0
C51 C 0.59283 0.94986 0.33506 0.0
C52 C 0.59194 0.90958 0.24313 0.0
N53 N 0.61238 0.91437 0.2851 0.0
H54 H 0.62949 0.93976 0.35816 0.0
H55 H 0.59182 0.89506 0.20277 0.0
H56 H 0.64407 0.95016 0.19303 0.0
H57 H 0.64425 0.88082 0.09741 0.0
O58 O 0.66567 0.92179 0.30517 0.0
O59 O 0.67651 0.88663 0.25566 0.0
O60 O 0.62688 0.86773 0.22415 0.0
C61 C 0.68305 0.90695 0.28671 0.0
H62 H 0.65829 0.84043 0.48787 0.0
H63 H 0.64494 0.95541 0.04519 0.0
H64 H 0.55558 0.9206 0.21202 0.0
H65 H 0.5941 0.96565 0.37085 0.0
Co66 Co 0.1132 0.15082 0.49051 0.0
C67 C 0.11622 0.14872 0.65606 0.0
C68 C 0.15176 0.1493 0.60542 0.0
C69 C 0.1546 0.14934 0.6823 0.0
N70 N 0.12773 0.1488 0.58922 0.0
N71 N 0.13225 0.14905 0.71418 0.0
H72 H 0.09655 0.1487 0.66172 0.0
H73 H 0.16621 0.1503 0.56427 0.0
C74 C 0.14365 0.11546 0.39926 0.0
O75 O 0.12441 0.10734 0.3628 0.0
N76 N 0.09873 0.15346 0.39065 0.0
C77 C 0.07481 0.15538 0.3732 0.0
C78 C 0.0723 0.1573 0.29663 0.0
C79 C 0.11046 0.15555 0.32417 0.0
N80 N 0.09471 0.15708 0.26549 0.0
C81 C 0.06933 0.12475 0.52703 0.0
C82 C 0.08955 0.0789 0.5315 0.0
C83 C 0.06412 0.08126 0.53773 0.0
C84 C 0.05416 0.10466 0.5379 0.0
C85 C 0.10407 0.09957 0.52137 0.0
N86 N 0.09371 0.122 0.51354 0.0
H87 H 0.06129 0.14256 0.52911 0.0
H88 H 0.12362 0.09733 0.52041 0.0
H89 H 0.05998 0.15606 0.41267 0.0
H90 H 0.13013 0.15545 0.31882 0.0
O91 O 0.09127 0.17597 0.52582 0.0
O92 O 0.12788 0.18226 0.47681 0.0
O93 O 0.14152 0.13137 0.45073 0.0
C94 C 0.10827 0.19131 0.50656 0.0
H95 H 0.17183 0.15042 0.71219 0.0
H96 H 0.05517 0.15907 0.2665 0.0
H97 H 0.09817 0.06125 0.53486 0.0
H98 H 0.03471 0.10747 0.54446 0.0
Co99 Co 0.87863 0.62346 0.80152 0.0
C100 C 0.87495 0.61941 0.63438 0.0
C101 C 0.83991 0.62207 0.68643 0.0
C102 C 0.83666 0.62234 0.60979 0.0
N103 N 0.86391 0.61957 0.70231 0.0
N104 N 0.85874 0.62077 0.57686 0.0
H105 H 0.89442 0.6203 0.62664 0.0
H106 H 0.82573 0.62486 0.72757 0.0
C107 C 0.83581 0.58974 0.83174 0.0
O108 O 0.84202 0.57557 0.77582 0.0
N109 N 0.89288 0.62788 0.89997 0.0
C110 C 0.91685 0.62782 0.91721 0.0
C111 C 0.91935 0.62899 0.99414 0.0
C112 C 0.88112 0.62927 0.96626 0.0
N113 N 0.89685 0.62981 0.02512 0.0
C114 C 0.91645 0.593 0.74581 0.0
C115 C 0.91099 0.55552 0.84798 0.0
C116 C 0.9314 0.55563 0.8006 0.0
C117 C 0.93359 0.57438 0.74784 0.0
C118 C 0.89412 0.57469 0.8442 0.0
N119 N 0.89692 0.59317 0.79324 0.0
H120 H 0.92022 0.60825 0.70989 0.0
H121 H 0.87991 0.57544 0.88593 0.0
H122 H 0.93145 0.62615 0.87681 0.0
H123 H 0.86144 0.62956 0.97118 0.0
O124 O 0.90249 0.64562 0.75925 0.0
O125 O 0.86626 0.65617 0.80324 0.0
O126 O 0.84932 0.6077 0.84982 0.0
C127 C 0.88663 0.66268 0.77161 0.0
H128 H 0.81933 0.62431 0.58093 0.0
H129 H 0.93645 0.62829 0.02474 0.0
H130 H 0.90893 0.54164 0.89075 0.0
H131 H 0.94918 0.5753 0.71057 0.0
Co132 Co 0.36111 0.11359 0.24857 0.0
C133 C 0.36187 0.11675 0.41445 0.0
C134 C 0.36281 0.1519 0.3621 0.0
C135 C 0.36231 0.15491 0.43872 0.0
N136 N 0.36265 0.128 0.34704 0.0
N137 N 0.36159 0.13281 0.47177 0.0
H138 H 0.36072 0.09726 0.42103 0.0
H139 H 0.36276 0.16619 0.32032 0.0
C140 C 0.39607 0.14455 0.15571 0.0
O141 O 0.40372 0.12576 0.11731 0.0
N142 N 0.359 0.09938 0.14892 0.0
C143 C 0.35973 0.07571 0.13016 0.0
C144 C 0.35726 0.07367 0.05361 0.0
C145 C 0.355 0.11127 0.08342 0.0
N146 N 0.35448 0.09606 0.02404 0.0
C147 C 0.38705 0.07038 0.28976 0.0
C148 C 0.43365 0.0895 0.28744 0.0
C149 C 0.4308 0.06435 0.29677 0.0
C150 C 0.40701 0.05501 0.30025 0.0
C151 C 0.41306 0.10427 0.27724 0.0
N152 N 0.39017 0.09438 0.273 0.0
H153 H 0.36899 0.06263 0.29305 0.0
H154 H 0.41575 0.12358 0.27317 0.0
H155 H 0.3616 0.06068 0.16852 0.0
H156 H 0.35273 0.13073 0.07939 0.0
O157 O 0.33601 0.09148 0.28355 0.0
O158 O 0.32911 0.12766 0.23333 0.0
O159 O 0.38063 0.14198 0.2088 0.0
C160 C 0.3203 0.10793 0.26309 0.0
H161 H 0.36236 0.17213 0.4676 0.0
H162 H 0.35802 0.05694 0.02215 0.0
H163 H 0.45163 0.09774 0.28814 0.0
H164 H 0.40372 0.03582 0.30857 0.0
Co165 Co 0.89422 0.87072 0.52303 0.0
C166 C 0.89125 0.87631 0.68941 0.0
C167 C 0.85589 0.87493 0.63789 0.0
C168 C 0.85297 0.87519 0.71468 0.0
N169 N 0.87992 0.87622 0.62166 0.0
N170 N 0.87525 0.87593 0.74713 0.0
H171 H 0.91074 0.87531 0.69695 0.0
H172 H 0.84146 0.87247 0.59695 0.0
C173 C 0.85397 0.90713 0.48981 0.0
O174 O 0.86045 0.9209 0.54658 0.0
N175 N 0.90814 0.86477 0.42511 0.0
C176 C 0.93195 0.86145 0.40967 0.0
C177 C 0.93471 0.86032 0.33284 0.0
C178 C 0.89671 0.86549 0.35773 0.0
N179 N 0.91255 0.86298 0.30012 0.0
C180 C 0.93388 0.89974 0.5791 0.0
C181 C 0.92758 0.93849 0.48204 0.0
C182 C 0.9467 0.93932 0.53467 0.0
C183 C 0.94981 0.91951 0.58332 0.0
C184 C 0.91195 0.9184 0.48011 0.0
N185 N 0.91456 0.89972 0.53034 0.0
H186 H 0.93784 0.88401 0.61303 0.0
H187 H 0.89832 0.91763 0.43628 0.0
H188 H 0.94638 0.86062 0.45129 0.0
H189 H 0.87735 0.86872 0.35084 0.0
O190 O 0.91602 0.84676 0.56769 0.0
O191 O 0.87907 0.83934 0.52183 0.0
O192 O 0.86635 0.88832 0.47328 0.0
C193 C 0.89855 0.83117 0.55521 0.0
H194 H 0.8358 0.87343 0.7442 0.0
H195 H 0.95182 0.85797 0.30353 0.0
H196 H 0.92479 0.95314 0.4422 0.0
H197 H 0.96499 0.91885 0.62252 0.0
Co198 Co 0.14907 0.39683 0.76944 0.0
C199 C 0.1496 0.39364 0.935 0.0
C200 C 0.14508 0.35857 0.88481 0.0
C201 C 0.14498 0.35581 0.96171 0.0
N202 N 0.1478 0.3823 0.86824 0.0
N203 N 0.14791 0.37785 0.99301 0.0
H204 H 0.15189 0.41304 0.941 0.0
H205 H 0.14351 0.34416 0.84414 0.0
C206 C 0.11522 0.3646 0.67633 0.0
O207 O 0.10496 0.38311 0.64177 0.0
N208 N 0.1507 0.41127 0.66973 0.0
C209 C 0.14933 0.43494 0.65088 0.0
C210 C 0.1513 0.4372 0.57433 0.0
C211 C 0.15458 0.39962 0.60423 0.0
N212 N 0.15447 0.41496 0.54457 0.0
C213 C 0.12107 0.43896 0.80777 0.0
C214 C 0.07556 0.41722 0.80738 0.0
C215 C 0.077 0.44254 0.81342 0.0
C216 C 0.10023 0.45324 0.81656 0.0
C217 C 0.09698 0.40362 0.79845 0.0
N218 N 0.11924 0.41479 0.79268 0.0
H219 H 0.13874 0.44757 0.81146 0.0
H220 H 0.09544 0.38416 0.79594 0.0
H221 H 0.14741 0.44985 0.68919 0.0
H222 H 0.15738 0.38025 0.6007 0.0
O223 O 0.17392 0.41958 0.8046 0.0
O224 O 0.18114 0.38353 0.75539 0.0
O225 O 0.13096 0.36794 0.72841 0.0
C226 C 0.18983 0.40325 0.78484 0.0
H227 H 0.14341 0.33886 0.99228 0.0
H228 H 0.15005 0.45408 0.54337 0.0
H229 H 0.05806 0.40803 0.80738 0.0
H230 H 0.10232 0.47257 0.82512 0.0
Co231 Co 0.62289 0.64073 0.04378 0.0
C232 C 0.62609 0.63442 0.21043 0.0
C233 C 0.66082 0.64127 0.15965 0.0
C234 C 0.66386 0.641 0.2363 0.0
N235 N 0.63719 0.63679 0.14313 0.0
N236 N 0.64197 0.63676 0.26851 0.0
H237 H 0.60673 0.63214 0.21722 0.0
H238 H 0.6747 0.6457 0.11874 0.0
C239 C 0.66368 0.60465 0.02277 0.0
O240 O 0.65595 0.59236 0.0815 0.0
N241 N 0.60911 0.6452 0.94477 0.0
C242 C 0.58545 0.64934 0.92793 0.0
C243 C 0.58294 0.65042 0.85094 0.0
C244 C 0.62067 0.64371 0.87822 0.0
N245 N 0.60508 0.64675 0.81994 0.0
C246 C 0.58302 0.61184 0.09883 0.0
C247 C 0.59037 0.57223 1.00735 0.0
C248 C 0.57014 0.57215 0.05564 0.0
C249 C 0.56663 0.59239 0.10169 0.0
C250 C 0.60631 0.59212 1.00618 0.0
N251 N 0.60312 0.6113 0.05362 0.0
H252 H 0.57873 0.62785 0.13057 0.0
H253 H 0.62058 0.59238 0.96461 0.0
H254 H 0.57096 0.65098 0.96872 0.0
H255 H 0.64006 0.64047 0.87232 0.0
O256 O 0.6001 0.66434 0.08381 0.0
O257 O 0.63681 0.67294 0.03941 0.0
O258 O 0.65171 0.62307 0.99896 0.0
C259 C 0.61671 0.68064 0.06983 0.0
H260 H 0.68072 0.64502 0.26568 0.0
H261 H 0.56603 0.65296 0.82013 0.0
H262 H 0.59371 0.55724 0.96973 0.0
H263 H 0.55074 0.59375 0.13747 0.0
H264 H 0.55323 0.5461 0.93488 0.0
H265 H 0.5458 0.5521 0.17565 0.0
H266 H 0.52365 0.51307 0.93432 0.0
H267 H 0.51595 0.51917 0.17478 0.0
H268 H 0.44591 0.47436 0.13231 0.0
H269 H 0.47413 0.50891 0.13174 0.0
H270 H 0.52081 0.47104 0.97644 0.0
H271 H 0.4925 0.437 0.97558 0.0
C272 C 0.54551 0.54025 0.98787 0.0
C273 C 0.55211 0.55175 0.05539 0.0
C274 C 0.52843 0.52133 0.98747 0.0
C275 C 0.5174 0.51342 0.05452 0.0
C276 C 0.52382 0.52502 0.12198 0.0
C277 C 0.54098 0.5439 0.12244 0.0
C278 C 0.4621 0.47354 0.0976 0.0
C279 C 0.467 0.45284 0.05437 0.0
C280 C 0.47838 0.49323 0.09779 0.0
C281 C 0.49978 0.49275 0.05412 0.0
C282 C 0.50443 0.47216 1.0102 0.0
C283 C 0.4883 0.4525 1.01038 0.0
H284 H 0.47311 0.06694 0.21542 0.0
H285 H 0.43712 0.02391 0.38576 0.0
H286 H 0.50696 0.03825 0.21452 0.0
H287 H 0.47089 0.99511 0.38423 0.0
H288 H 0.52249 0.93541 0.29786 0.0
H289 H 0.48878 0.96453 0.30002 0.0
H290 H 0.5406 0.02365 0.293 0.0
H291 H 0.5741 0.99468 0.28875 0.0
C292 C 0.47255 0.05157 0.25349 0.0
C293 C 0.4523 0.04777 0.30052 0.0
C294 C 0.49194 0.03505 0.25276 0.0
C295 C 0.49157 0.01427 0.29895 0.0
C296 C 0.47154 0.01067 0.34692 0.0
C297 C 0.45219 0.02723 0.34785 0.0
C298 C 0.52663 0.95463 0.29628 0.0
C299 C 0.55099 0.9627 0.29365 0.0
C300 C 0.50735 0.97132 0.29826 0.0
C301 C 0.512 0.99644 0.29698 0.0
C302 C 0.53635 1.00446 0.29354 0.0
C303 C 0.55558 0.98782 0.29195 0.0
H304 H 0.96758 0.96316 0.41581 0.0
H305 H 0.96516 0.96243 0.6583 0.0
H306 H 0.99638 0.99698 0.41938 0.0
H307 H 0.99441 0.99594 0.66189 0.0
H308 H 0.02451 0.07398 0.62909 0.0
H309 H 0.99631 0.03961 0.62919 0.0
H310 H 0.03918 1.00499 0.45715 0.0
H311 H 0.06708 0.03958 0.45589 0.0
C312 C 0.9731 0.9703 0.46987 0.0
C313 C 0.96402 0.96015 0.53677 0.0
C314 C 0.98983 0.98949 0.47194 0.0
C315 C 0.99776 0.9991 0.54094 0.0
C316 C 0.98854 0.98906 0.60784 0.0
C317 C 0.97194 0.96975 0.60578 0.0
C318 C 0.02791 0.05903 0.59128 0.0
C319 C 0.048 0.05956 0.54229 0.0
C320 C 0.01186 0.03925 0.59178 0.0
C321 C 0.01543 0.01962 0.54289 0.0
C322 C 0.03576 0.01996 0.49485 0.0
C323 C 0.0519 0.03965 0.49475 0.0
H324 H 0.03378 0.43511 0.88959 0.0
H325 H 0.06947 0.48464 0.73667 0.0
H326 H 0.99776 0.46151 0.89098 0.0
H327 H 0.0337 0.51062 0.73701 0.0
H328 H 0.9797 0.56587 0.813 0.0
H329 H 0.01384 0.53785 0.81993 0.0
H330 H 0.9636 0.47732 0.81615 0.0
H331 H 0.92911 0.50578 0.81094 0.0
C332 C 0.03387 0.45152 0.85593 0.0
C333 C 0.05465 0.45795 0.81392 0.0
C334 C 0.01322 0.46662 0.85657 0.0
C335 C 0.0129 0.4884 0.81494 0.0
C336 C 0.03348 0.49437 0.77147 0.0
C337 C 0.05405 0.47944 0.77119 0.0
C338 C 0.97591 0.54657 0.81356 0.0
C339 C 0.95174 0.53801 0.81011 0.0
C340 C 0.9955 0.53047 0.81728 0.0
C341 C 0.99157 0.50526 0.81706 0.0
C342 C 0.96732 0.49661 0.81654 0.0
C343 C 0.94756 0.51286 0.81338 0.0
H344 H 0.42472 0.34828 0.30479 0.0
H345 H 0.35282 0.37679 0.35032 0.0
H346 H 0.43347 0.34712 0.43903 0.0
H347 H 0.36157 0.37561 0.4846 0.0
H348 H 0.37714 0.34493 0.72093 0.0
H349 H 0.36805 0.34633 0.58664 0.0
H350 H 0.44037 0.37454 0.54378 0.0
H351 H 0.4494 0.37321 0.67744 0.0
C352 C 0.41087 0.35456 0.34328 0.0
C353 C 0.38806 0.36261 0.31665 0.0
C354 C 0.41587 0.35386 0.42032 0.0
C355 C 0.39819 0.36122 0.47256 0.0
C356 C 0.37543 0.36942 0.44594 0.0
C357 C 0.37044 0.37012 0.36891 0.0
C358 C 0.39103 0.35157 0.68296 0.0
C359 C 0.41407 0.35878 0.71014 0.0
C360 C 0.38583 0.35239 0.60596 0.0
C361 C 0.40353 0.36045 0.55446 0.0
C362 C 0.42648 0.3678 0.58174 0.0
C363 C 0.43167 0.36699 0.65852 0.0
H364 H 0.65393 0.8722 0.97859 0.0
H365 H 0.63469 0.94649 0.9261 0.0
H366 H 0.65266 0.86244 0.84613 0.0
H367 H 0.6349 0.93695 0.79347 0.0
H368 H 0.6134 0.90716 0.56451 0.0
H369 H 0.61288 0.91622 0.69851 0.0
H370 H 0.67439 0.86823 0.73282 0.0
H371 H 0.6744 0.85883 0.59936 0.0
C372 C 0.64946 0.88655 0.93933 0.0
C373 C 0.64439 0.91023 0.96425 0.0
C374 C 0.64903 0.88095 0.86276 0.0
C375 C 0.64373 0.89889 0.80865 0.0
C376 C 0.63873 0.92255 0.83336 0.0
C377 C 0.63896 0.92811 0.90994 0.0
C378 C 0.62682 0.89862 0.60079 0.0
C379 C 0.64389 0.88225 0.57132 0.0
C380 C 0.6266 0.90385 0.67764 0.0
C381 C 0.64362 0.893 0.72687 0.0
C382 C 0.6607 0.8766 0.69713 0.0
C383 C 0.66076 0.87122 0.62044 0.0
H384 H 0.16138 0.1348 0.8301 0.0
H385 H 0.09088 0.16616 0.77908 0.0
H386 H 0.15265 0.13755 0.96388 0.0
H387 H 0.08213 0.16876 0.91277 0.0
H388 H 0.06462 0.14338 0.15169 0.0
H389 H 0.0739 0.14185 0.01879 0.0
H390 H 0.14701 0.16759 0.06427 0.0
H391 H 0.13768 0.16935 0.19808 0.0
C392 C 0.14409 0.14245 0.84725 0.0
C393 C 0.12684 0.15023 0.79347 0.0
C394 C 0.13911 0.14404 0.92407 0.0
C395 C 0.11671 0.1534 0.94908 0.0
C396 C 0.09944 0.16115 0.8954 0.0
C397 C 0.10444 0.1596 0.8186 0.0
C398 C 0.08257 0.14912 0.13373 0.0
C399 C 0.1003 0.1567 0.18617 0.0
C400 C 0.08791 0.14817 0.05719 0.0
C401 C 0.11116 0.15468 0.03075 0.0
C402 C 0.12898 0.1622 0.08291 0.0
C403 C 0.12361 0.16323 0.15971 0.0
H404 H 0.854 0.61586 0.09001 0.0
H405 H 0.92635 0.64278 0.14169 0.0
H406 H 0.84475 0.61408 0.22345 0.0
H407 H 0.91712 0.64055 0.2752 0.0
H408 H 0.90015 0.60609 0.50621 0.0
H409 H 0.9093 0.60905 0.37266 0.0
H410 H 0.83866 0.64141 0.3321 0.0
H411 H 0.82959 0.63893 0.46547 0.0
C412 C 0.86789 0.62165 0.12941 0.0
C413 C 0.891 0.62945 0.10438 0.0
C414 C 0.86256 0.62056 0.20618 0.0
C415 C 0.88022 0.62708 0.26001 0.0
C416 C 0.90324 0.63504 0.23521 0.0
C417 C 0.90852 0.63629 0.15845 0.0
C418 C 0.88663 0.61409 0.46921 0.0
C419 C 0.8641 0.62228 0.49736 0.0
C420 C 0.89189 0.61575 0.39247 0.0
C421 C 0.8747 0.62547 0.34172 0.0
C422 C 0.85217 0.63355 0.36957 0.0
C423 C 0.84696 0.63205 0.44633 0.0
H424 H 0.33861 0.06756 0.90995 0.0
H425 H 0.36823 0.1385 0.95831 0.0
H426 H 0.34 0.0766 0.77603 0.0
H427 H 0.36939 0.14761 0.82416 0.0
H428 H 0.34497 0.16285 0.58102 0.0
H429 H 0.34238 0.15442 0.7149 0.0
H430 H 0.37127 0.08261 0.67842 0.0
H431 H 0.37418 0.09108 0.54423 0.0
C432 C 0.34546 0.08508 0.89214 0.0
C433 C 0.35343 0.10224 0.94515 0.0
C434 C 0.34627 0.09024 0.81526 0.0
C435 C 0.35498 0.11274 0.78935 0.0
C436 C 0.36237 0.13017 0.8423 0.0
C437 C 0.36163 0.12497 0.91931 0.0
C438 C 0.35105 0.14534 0.60128 0.0
C439 C 0.35988 0.12768 0.55132 0.0
C440 C 0.34951 0.14051 0.67827 0.0
C441 C 0.3566 0.11786 0.70738 0.0
C442 C 0.36532 0.10014 0.65762 0.0
C443 C 0.36698 0.105 0.58057 0.0
H444 H 0.94363 0.87591 0.18807 0.0
H445 H 0.86916 0.85383 0.23052 0.0
H446 H 0.93454 0.8791 0.05459 0.0
H447 H 0.86007 0.85706 0.09666 0.0
H448 H 0.84661 0.89028 0.86273 0.0
H449 H 0.85549 0.88697 0.99676 0.0
H450 H 0.92518 0.85426 0.94646 0.0
H451 H 0.91631 0.85753 0.81278 0.0
C452 C 0.92538 0.87145 0.16906 0.0
C453 C 0.90717 0.86453 0.22054 0.0
C454 C 0.92015 0.87331 0.09224 0.0
C455 C 0.89657 0.86832 0.06462 0.0
C456 C 0.87834 0.86139 0.11599 0.0
C457 C 0.88358 0.85951 0.19291 0.0
C458 C 0.86376 0.88224 0.88022 0.0
C459 C 0.88074 0.87427 0.82659 0.0
C460 C 0.86885 0.88031 0.95718 0.0
C461 C 0.89107 0.87035 0.98262 0.0
C462 C 0.90805 0.86239 0.929 0.0
C463 C 0.90296 0.86432 0.85208 0.0
H464 H 0.1627 0.44587 0.42736 0.0
H465 H 0.14903 0.37039 0.48007 0.0
H466 H 0.16094 0.43676 0.29501 0.0
H467 H 0.14921 0.36098 0.34715 0.0
H468 H 0.12266 0.35628 0.10472 0.0
H469 H 0.12534 0.36489 0.23866 0.0
H470 H 0.18066 0.41914 0.19382 0.0
H471 H 0.17693 0.41112 0.05964 0.0
C472 C 0.15948 0.42727 0.41123 0.0
C473 C 0.15572 0.40899 0.46552 0.0
C474 C 0.15885 0.42195 0.33463 0.0
C475 C 0.15486 0.39811 0.3097 0.0
C476 C 0.15186 0.37966 0.36388 0.0
C477 C 0.15214 0.38504 0.44065 0.0
C478 C 0.13538 0.37001 0.12383 0.0
C479 C 0.14951 0.38311 0.07197 0.0
C480 C 0.13708 0.37487 0.20068 0.0
C481 C 0.15329 0.3927 0.22769 0.0
C482 C 0.16761 0.40563 0.17541 0.0
C483 C 0.16556 0.40104 0.09843 0.0
H484 H 0.63912 0.61831 0.75474 0.0
H485 H 0.58346 0.67158 0.70661 0.0
H486 H 0.64775 0.61483 0.62103 0.0
H487 H 0.59249 0.6688 0.57296 0.0
H488 H 0.59729 0.64202 0.33459 0.0
H489 H 0.58846 0.64334 0.46759 0.0
H490 H 0.66533 0.63523 0.518 0.0
H491 H 0.67406 0.63223 0.38507 0.0
C492 C 0.62896 0.62952 0.71551 0.0
C493 C 0.61062 0.64522 0.74108 0.0
C494 C 0.63391 0.62758 0.63878 0.0
C495 C 0.62082 0.64151 0.58579 0.0
C496 C 0.60261 0.6574 0.61174 0.0
C497 C 0.59748 0.65911 0.68839 0.0
C498 C 0.61237 0.64012 0.37354 0.0
C499 C 0.63649 0.63709 0.34803 0.0
C500 C 0.60728 0.64124 0.45034 0.0
C501 C 0.62617 0.6396 0.50395 0.0
C502 C 0.65024 0.63632 0.47862 0.0
C503 C 0.6553 0.63494 0.40186 0.0
H504 H 0.215 0.44238 0.84301 0.0
H505 H 0.22491 0.36973 0.75822 0.0
H506 H 0.25882 0.44414 0.87504 0.0
H507 H 0.26804 0.37151 0.79085 0.0
H508 H 0.32802 0.37039 0.97038 0.0
H509 H 0.2858 0.37528 0.93209 0.0
H510 H 0.30505 0.43838 0.80102 0.0
H511 H 0.34814 0.43347 0.83912 0.0
C512 C 0.22651 0.42697 0.83046 0.0
C513 C 0.21644 0.40585 0.79866 0.0
C514 C 0.25153 0.42804 0.84844 0.0
C515 C 0.26667 0.40791 0.83566 0.0
C516 C 0.25671 0.38722 0.80159 0.0
C517 C 0.23197 0.38624 0.78298 0.0
C518 C 0.32347 0.38555 0.93412 0.0
C519 C 0.34164 0.40151 0.9077 0.0
C520 C 0.29919 0.38825 0.912 0.0
C521 C 0.29224 0.40709 0.86338 0.0
C522 C 0.31003 0.42373 0.83879 0.0
C523 C 0.33463 0.42084 0.86034 0.0
H524 H 0.5883 0.81356 0.31373 0.0
H525 H 0.62605 0.83796 0.11453 0.0
H526 H 0.58763 0.77233 0.26472 0.0
H527 H 0.62482 0.79694 0.06468 0.0
H528 H 0.64937 0.71759 0.05223 0.0
H529 H 0.64522 0.75958 0.09132 0.0
H530 H 0.57233 0.7445 0.17163 0.0
H531 H 0.57679 0.70214 0.13398 0.0
C532 C 0.596 0.81025 0.25878 0.0
C533 C 0.60743 0.82907 0.21846 0.0
C534 C 0.59557 0.78657 0.23051 0.0
C535 C 0.60646 0.78116 0.16106 0.0
C536 C 0.61676 0.80027 0.11912 0.0
C537 C 0.6173 0.82388 0.14751 0.0
C538 C 0.63239 0.72324 0.0778 0.0
C539 C 0.61343 0.70649 0.09007 0.0
C540 C 0.62992 0.74742 0.09981 0.0
C541 C 0.60839 0.75557 0.13451 0.0
C542 C 0.58926 0.73885 0.14584 0.0
C543 C 0.59176 0.71459 0.12387 0.0
H544 H 0.29802 0.0761 0.35864 0.0
H545 H 0.28287 0.13305 0.19768 0.0
H546 H 0.25442 0.07346 0.38809 0.0
H547 H 0.23928 0.1301 0.22633 0.0
H548 H 0.16 0.10452 0.2586 0.0
H549 H 0.20268 0.09915 0.21997 0.0
H550 H 0.22589 0.10523 0.45118 0.0
H551 H 0.18349 0.11101 0.48947 0.0
C552 C 0.28534 0.08778 0.32875 0.0
C553 C 0.29382 0.10487 0.27615 0.0
C554 C 0.26044 0.08629 0.34573 0.0
C555 C 0.24352 0.10153 0.30933 0.0
C556 C 0.25191 0.11796 0.25463 0.0
C557 C 0.27685 0.11977 0.23866 0.0
C558 C 0.17421 0.10415 0.30117 0.0
C559 C 0.16852 0.10818 0.37696 0.0
C560 C 0.19858 0.10127 0.27905 0.0
C561 C 0.21753 0.10182 0.33263 0.0
C562 C 0.21164 0.10454 0.40881 0.0
C563 C 0.18741 0.10793 0.43066 0.0
H564 H 0.85474 0.70041 0.7789 0.0
H565 H 0.92752 0.6819 0.70556 0.0
H566 H 0.85965 0.74102 0.72665 0.0
H567 H 0.93238 0.72277 0.65291 0.0
H568 H 0.86366 0.79659 0.53878 0.0
H569 H 0.86262 0.75623 0.594 0.0
H570 H 0.93408 0.76782 0.6912 0.0
H571 H 0.9352 0.80864 0.63549 0.0
C572 C 0.87188 0.70507 0.75221 0.0
C573 C 0.89069 0.6879 0.74595 0.0
C574 C 0.87463 0.7283 0.72192 0.0
C575 C 0.89629 0.73495 0.68498 0.0
C576 C 0.91552 0.71813 0.68124 0.0
C577 C 0.91269 0.69475 0.71116 0.0
C578 C 0.87928 0.79056 0.57141 0.0
C579 C 0.89947 0.80587 0.58308 0.0
C580 C 0.87859 0.76747 0.60346 0.0
C581 C 0.89811 0.75902 0.64776 0.0
C582 C 0.91878 0.7739 0.65726 0.0
C583 C 0.91941 0.79722 0.62545 0.0
H584 H 0.83121 0.87602 0.39459 0.0
H585 H 0.82324 0.94672 0.4953 0.0
H586 H 0.79112 0.87935 0.33966 0.0
H587 H 0.78303 0.95081 0.43589 0.0
H588 H 0.70064 0.93345 0.40368 0.0
H589 H 0.74298 0.93668 0.44553 0.0
H590 H 0.76592 0.896 0.25079 0.0
H591 H 0.72339 0.89139 0.21273 0.0
C592 C 0.8211 0.89263 0.40364 0.0
C593 C 0.83048 0.91109 0.44977 0.0
C594 C 0.79798 0.89465 0.37128 0.0
C595 C 0.78359 0.91542 0.38265 0.0
C596 C 0.79334 0.93436 0.42667 0.0
C597 C 0.81648 0.93213 0.46033 0.0
C598 C 0.71485 0.92546 0.3696 0.0
C599 C 0.70882 0.91192 0.30556 0.0
C600 C 0.73919 0.92742 0.39327 0.0
C601 C 0.75807 0.91629 0.35239 0.0
C602 C 0.75195 0.90415 0.28534 0.0
C603 C 0.72758 0.90165 0.26294 0.0
H604 H 0.14384 0.22528 0.49035 0.0
H605 H 0.06863 0.21666 0.55879 0.0
H606 H 0.14272 0.26767 0.528 0.0
H607 H 0.06755 0.25957 0.59577 0.0
H608 H 0.07986 0.34751 0.57856 0.0
H609 H 0.07548 0.30573 0.53171 0.0
H610 H 0.13674 0.28351 0.66873 0.0
H611 H 0.14103 0.32445 0.71587 0.0
C612 C 0.12694 0.23251 0.51239 0.0
C613 C 0.10638 0.21756 0.5222 0.0
C614 C 0.12633 0.25678 0.53396 0.0
C615 C 0.10509 0.26677 0.56499 0.0
C616 C 0.08409 0.25225 0.5716 0.0
C617 C 0.08478 0.22774 0.55082 0.0
C618 C 0.09218 0.33361 0.59915 0.0
C619 C 0.11078 0.33938 0.65096 0.0
C620 C 0.08964 0.30978 0.5725 0.0
C621 C 0.10594 0.29158 0.59629 0.0
C622 C 0.1241 0.29728 0.64904 0.0
C623 C 0.12642 0.32079 0.67632 0.0
H624 H 0.69219 0.56402 0.04343 0.0
H625 H 0.69006 0.63288 0.92646 0.0
H626 H 0.73393 0.55737 0.99745 0.0
H627 H 0.73163 0.62636 0.88249 0.0
H628 H 0.81467 0.62168 0.92804 0.0
H629 H 0.77254 0.62259 0.97046 0.0
H630 H 0.7581 0.55524 0.85634 0.0
H631 H 0.80057 0.55441 0.81154 0.0
C632 C 0.70047 0.57759 1.0074 0.0
C633 C 0.6878 0.59904 0.989 0.0
C634 C 0.7243 0.57372 0.98102 0.0
C635 C 0.73598 0.59145 0.93701 0.0
C636 C 0.72306 0.61249 0.91678 0.0
C637 C 0.6992 0.61615 0.94185 0.0
C638 C 0.80275 0.60683 0.91236 0.0
C639 C 0.81108 0.58802 0.86574 0.0
C640 C 0.77855 0.60746 0.93655 0.0
C641 C 0.76208 0.58913 0.91601 0.0
C642 C 0.77051 0.5696 0.87279 0.0
C643 C 0.79478 0.56915 0.84726 0.0
H644 H 0.38318 0.28435 0.95793 0.0
H645 H 0.43838 0.29794 0.12665 0.0
H646 H 0.38535 0.24093 0.98511 0.0
H647 H 0.44025 0.25438 0.15472 0.0
H648 H 0.40056 0.18341 0.24824 0.0
H649 H 0.40771 0.22565 0.2127 0.0
H650 H 0.41531 0.20437 0.98093 0.0
H651 H 0.40849 0.16187 0.01676 0.0
C652 C 0.39596 0.27801 1.00031 0.0
C653 C 0.41055 0.29452 0.04038 0.0
C654 C 0.39731 0.25314 1.01547 0.0
C655 C 0.41297 0.24429 0.07197 0.0
C656 C 0.42799 0.26074 0.11095 0.0
C657 C 0.42697 0.28562 0.09474 0.0
C658 C 0.40418 0.18769 0.18988 0.0
C659 C 0.40389 0.16939 0.1352 0.0
C660 C 0.40841 0.21185 0.16963 0.0
C661 C 0.41199 0.21829 0.09405 0.0
C662 C 0.41252 0.19989 0.03958 0.0
C663 C 0.40877 0.17559 0.06011 0.0
loop_
_geom_bond_atom_site_label_1
_geom_bond_atom_site_label_2
_geom_bond_distance
_geom_bond_site_symmetry_2
_ccdc_geom_bond_type
Co0 N4 2.148 . S
Co0 N10 2.128 1_554 S
Co0 N20 2.194 . S
Co0 O25 2.351 . S
Co0 O26 2.155 . S
Co0 O27 2.096 1_554 S
C1 N4 1.301 . S
C1 N5 1.328 . S
C1 H6 0.930 . S
C2 C3 1.333 . S
C2 N4 1.317 . S
C2 H7 0.930 . S
C3 C2 1.333 . S
C3 N5 1.350 . S
C3 H29 0.931 . S
N4 Co0 2.148 . S
N4 C1 1.301 . S
N4 C2 1.317 . S
N5 C1 1.328 . S
N5 C3 1.350 . S
H6 C1 0.930 . S
H7 C2 0.930 . S
C8 O9 1.224 . S
C8 O27 1.247 . S
O9 C8 1.224 . S
N10 Co0 2.128 1_556 S
N10 C11 1.355 . S
N10 C13 1.311 . S
C11 N10 1.355 . S
C11 C12 1.363 . S
C11 H23 0.929 . S
C12 C11 1.363 . S
C12 N14 1.375 . S
C12 H30 0.931 . S
C13 N10 1.311 . S
C13 N14 1.347 . S
C13 H24 0.929 . S
N14 C12 1.375 . S
N14 C13 1.347 . S
C15 C18 1.365 . S
C15 N20 1.328 . S
C15 H21 0.929 . S
C16 C17 1.362 1_556 S
C16 C19 1.378 . S
C16 H31 0.929 . S
C17 C16 1.362 1_554 S
C17 C18 1.366 . S
C18 C15 1.365 . S
C18 C17 1.366 . S
C18 H32 0.930 . S
C19 C16 1.378 . S
C19 N20 1.315 1_556 S
C19 H22 0.930 . S
N20 Co0 2.194 . S
N20 C15 1.328 . S
N20 C19 1.315 1_554 S
H21 C15 0.929 . S
H22 C19 0.930 . S
H23 C11 0.929 . S
H24 C13 0.929 . S
O25 Co0 2.351 . S
O25 C28 1.244 . S
O26 Co0 2.155 . S
O26 C28 1.240 . S
O27 Co0 2.096 1_556 S
O27 C8 1.247 . S
C28 O25 1.244 . S
C28 O26 1.240 . S
H29 C3 0.931 . S
H30 C12 0.931 . S
H31 C16 0.929 . S
H32 C18 0.930 . S
Co33 N37 2.148 . S
Co33 N43 2.128 . S
Co33 N53 2.194 . S
Co33 O58 2.351 . S
Co33 O59 2.155 . S
Co33 O60 2.096 . S
C34 N37 1.301 . S
C34 N38 1.328 . S
C34 H39 0.930 . S
C35 C36 1.333 . S
C35 N37 1.317 . S
C35 H40 0.930 . S
C36 C35 1.333 . S
C36 N38 1.350 . S
C36 H62 0.931 . S
N37 Co33 2.148 . S
N37 C34 1.301 . S
N37 C35 1.317 . S
N38 C34 1.328 . S
N38 C36 1.350 . S
H39 C34 0.930 . S
H40 C35 0.930 . S
C41 O42 1.224 . S
C41 O60 1.247 . S
O42 C41 1.224 . S
N43 Co33 2.128 . S
N43 C44 1.355 . S
N43 C46 1.311 . S
C44 N43 1.355 . S
C44 C45 1.363 . S
C44 H56 0.929 . S
C45 C44 1.363 . S
C45 N47 1.375 . S
C45 H63 0.931 . S
C46 N43 1.311 . S
C46 N47 1.347 . S
C46 H57 0.929 . S
N47 C45 1.375 . S
N47 C46 1.347 . S
C48 C51 1.365 . S
C48 N53 1.328 . S
C48 H54 0.929 . S
C49 C50 1.362 . S
C49 C52 1.378 . S
C49 H64 0.929 . S
C50 C49 1.362 . S
C50 C51 1.366 . S
C51 C48 1.365 . S
C51 C50 1.366 . S
C51 H65 0.930 . S
C52 C49 1.378 . S
C52 N53 1.315 . S
C52 H55 0.930 . S
N53 Co33 2.194 . S
N53 C48 1.328 . S
N53 C52 1.315 . S
H54 C48 0.929 . S
H55 C52 0.930 . S
H56 C44 0.929 . S
H57 C46 0.929 . S
O58 Co33 2.351 . S
O58 C61 1.244 . S
O59 Co33 2.155 . S
O59 C61 1.240 . S
O60 Co33 2.096 . S
O60 C41 1.247 . S
C61 O58 1.244 . S
C61 O59 1.240 . S
H62 C36 0.931 . S
H63 C45 0.931 . S
H64 C49 0.929 . S
H65 C51 0.930 . S
Co66 N70 2.148 . S
Co66 N76 2.128 . S
Co66 N86 2.194 . S
Co66 O91 2.351 . S
Co66 O92 2.155 . S
Co66 O93 2.096 . S
C67 N70 1.301 . S
C67 N71 1.328 . S
C67 H72 0.930 . S
C68 C69 1.333 . S
C68 N70 1.317 . S
C68 H73 0.930 . S
C69 C68 1.333 . S
C69 N71 1.350 . S
C69 H95 0.931 . S
N70 Co66 2.148 . S
N70 C67 1.301 . S
N70 C68 1.317 . S
N71 C67 1.328 . S
N71 C69 1.350 . S
H72 C67 0.930 . S
H73 C68 0.930 . S
C74 O75 1.224 . S
C74 O93 1.247 . S
O75 C74 1.224 . S
N76 Co66 2.128 . S
N76 C77 1.355 . S
N76 C79 1.311 . S
C77 N76 1.355 . S
C77 C78 1.363 . S
C77 H89 0.929 . S
C78 C77 1.363 . S
C78 N80 1.375 . S
C78 H96 0.931 . S
C79 N76 1.311 . S
C79 N80 1.347 . S
C79 H90 0.929 . S
N80 C78 1.375 . S
N80 C79 1.347 . S
C81 C84 1.365 . S
C81 N86 1.328 . S
C81 H87 0.929 . S
C82 C83 1.362 . S
C82 C85 1.378 . S
C82 H97 0.929 . S
C83 C82 1.362 . S
C83 C84 1.366 . S
C84 C81 1.365 . S
C84 C83 1.366 . S
C84 H98 0.930 . S
C85 C82 1.378 . S
C85 N86 1.315 . S
C85 H88 0.930 . S
N86 Co66 2.194 . S
N86 C81 1.328 . S
N86 C85 1.315 . S
H87 C81 0.929 . S
H88 C85 0.930 . S
H89 C77 0.929 . S
H90 C79 0.929 . S
O91 Co66 2.351 . S
O91 C94 1.244 . S
O92 Co66 2.155 . S
O92 C94 1.240 . S
O93 Co66 2.096 . S
O93 C74 1.247 . S
C94 O91 1.244 . S
C94 O92 1.240 . S
H95 C69 0.931 . S
H96 C78 0.931 . S
H97 C82 0.929 . S
H98 C84 0.930 . S
Co99 N103 2.148 . S
Co99 N109 2.128 . S
Co99 N119 2.194 . S
Co99 O124 2.351 . S
Co99 O125 2.155 . S
Co99 O126 2.096 . S
C100 N103 1.301 . S
C100 N104 1.328 . S
C100 H105 0.930 . S
C101 C102 1.333 . S
C101 N103 1.317 . S
C101 H106 0.930 . S
C102 C101 1.333 . S
C102 N104 1.350 . S
C102 H128 0.931 . S
N103 Co99 2.148 . S
N103 C100 1.301 . S
N103 C101 1.317 . S
N104 C100 1.328 . S
N104 C102 1.350 . S
H105 C100 0.930 . S
H106 C101 0.930 . S
C107 O108 1.224 . S
C107 O126 1.247 . S
O108 C107 1.224 . S
N109 Co99 2.128 . S
N109 C110 1.355 . S
N109 C112 1.311 . S
C110 N109 1.355 . S
C110 C111 1.363 . S
C110 H122 0.929 . S
C111 C110 1.363 . S
C111 N113 1.375 . S
C111 H129 0.931 . S
C112 N109 1.311 . S
C112 N113 1.347 . S
C112 H123 0.929 . S
N113 C111 1.375 . S
N113 C112 1.347 . S
C114 C117 1.365 . S
C114 N119 1.328 . S
C114 H120 0.929 . S
C115 C116 1.362 . S
C115 C118 1.378 . S
C115 H130 0.929 . S
C116 C115 1.362 . S
C116 C117 1.366 . S
C117 C114 1.365 . S
C117 C116 1.366 . S
C117 H131 0.930 . S
C118 C115 1.378 . S
C118 N119 1.315 . S
C118 H121 0.930 . S
N119 Co99 2.194 . S
N119 C114 1.328 . S
N119 C118 1.315 . S
H120 C114 0.929 . S
H121 C118 0.930 . S
H122 C110 0.929 . S
H123 C112 0.929 . S
O124 Co99 2.351 . S
O124 C127 1.244 . S
O125 Co99 2.155 . S
O125 C127 1.240 . S
O126 Co99 2.096 . S
O126 C107 1.247 . S
C127 O124 1.244 . S
C127 O125 1.240 . S
H128 C102 0.931 . S
H129 C111 0.931 . S
H130 C115 0.929 . S
H131 C117 0.930 . S
Co132 N136 2.148 . S
Co132 N142 2.128 . S
Co132 N152 2.194 . S
Co132 O157 2.351 . S
Co132 O158 2.155 . S
Co132 O159 2.096 . S
C133 N136 1.301 . S
C133 N137 1.328 . S
C133 H138 0.930 . S
C134 C135 1.333 . S
C134 N136 1.317 . S
C134 H139 0.930 . S
C135 C134 1.333 . S
C135 N137 1.350 . S
C135 H161 0.931 . S
N136 Co132 2.148 . S
N136 C133 1.301 . S
N136 C134 1.317 . S
N137 C133 1.328 . S
N137 C135 1.350 . S
H138 C133 0.930 . S
H139 C134 0.930 . S
C140 O141 1.224 . S
C140 O159 1.247 . S
O141 C140 1.224 . S
N142 Co132 2.128 . S
N142 C143 1.355 . S
N142 C145 1.311 . S
C143 N142 1.355 . S
C143 C144 1.363 . S
C143 H155 0.929 . S
C144 C143 1.363 . S
C144 N146 1.375 . S
C144 H162 0.931 . S
C145 N142 1.311 . S
C145 N146 1.347 . S
C145 H156 0.929 . S
N146 C144 1.375 . S
N146 C145 1.347 . S
C147 C150 1.365 . S
C147 N152 1.328 . S
C147 H153 0.929 . S
C148 C149 1.362 . S
C148 C151 1.378 . S
C148 H163 0.929 . S
C149 C148 1.362 . S
C149 C150 1.366 . S
C150 C147 1.365 . S
C150 C149 1.366 . S
C150 H164 0.930 . S
C151 C148 1.378 . S
C151 N152 1.315 . S
C151 H154 0.930 . S
N152 Co132 2.194 . S
N152 C147 1.328 . S
N152 C151 1.315 . S
H153 C147 0.929 . S
H154 C151 0.930 . S
H155 C143 0.929 . S
H156 C145 0.929 . S
O157 Co132 2.351 . S
O157 C160 1.244 . S
O158 Co132 2.155 . S
O158 C160 1.240 . S
O159 Co132 2.096 . S
O159 C140 1.247 . S
C160 O157 1.244 . S
C160 O158 1.240 . S
H161 C135 0.931 . S
H162 C144 0.931 . S
H163 C148 0.929 . S
H164 C150 0.930 . S
Co165 N169 2.148 . S
Co165 N175 2.128 . S
Co165 N185 2.194 . S
Co165 O190 2.351 . S
Co165 O191 2.155 . S
Co165 O192 2.096 . S
C166 N169 1.301 . S
C166 N170 1.328 . S
C166 H171 0.930 . S
C167 C168 1.333 . S
C167 N169 1.317 . S
C167 H172 0.930 . S
C168 C167 1.333 . S
C168 N170 1.350 . S
C168 H194 0.931 . S
N169 Co165 2.148 . S
N169 C166 1.301 . S
N169 C167 1.317 . S
N170 C166 1.328 . S
N170 C168 1.350 . S
H171 C166 0.930 . S
H172 C167 0.930 . S
C173 O174 1.224 . S
C173 O192 1.247 . S
O174 C173 1.224 . S
N175 Co165 2.128 . S
N175 C176 1.355 . S
N175 C178 1.311 . S
C176 N175 1.355 . S
C176 C177 1.363 . S
C176 H188 0.929 . S
C177 C176 1.363 . S
C177 N179 1.375 . S
C177 H195 0.931 . S
C178 N175 1.311 . S
C178 N179 1.347 . S
C178 H189 0.929 . S
N179 C177 1.375 . S
N179 C178 1.347 . S
C180 C183 1.365 . S
C180 N185 1.328 . S
C180 H186 0.929 . S
C181 C182 1.362 . S
C181 C184 1.378 . S
C181 H196 0.929 . S
C182 C181 1.362 . S
C182 C183 1.366 . S
C183 C180 1.365 . S
C183 C182 1.366 . S
C183 H197 0.930 . S
C184 C181 1.378 . S
C184 N185 1.315 . S
C184 H187 0.930 . S
N185 Co165 2.194 . S
N185 C180 1.328 . S
N185 C184 1.315 . S
H186 C180 0.929 . S
H187 C184 0.930 . S
H188 C176 0.929 . S
H189 C178 0.929 . S
O190 Co165 2.351 . S
O190 C193 1.244 . S
O191 Co165 2.155 . S
O191 C193 1.240 . S
O192 Co165 2.096 . S
O192 C173 1.247 . S
C193 O190 1.244 . S
C193 O191 1.240 . S
H194 C168 0.931 . S
H195 C177 0.931 . S
H196 C181 0.929 . S
H197 C183 0.930 . S
Co198 N202 2.148 . S
Co198 N208 2.128 . S
Co198 N218 2.194 . S
Co198 O223 2.351 . S
Co198 O224 2.155 . S
Co198 O225 2.096 . S
C199 N202 1.301 . S
C199 N203 1.328 . S
C199 H204 0.930 . S
C200 C201 1.333 . S
C200 N202 1.317 . S
C200 H205 0.930 . S
C201 C200 1.333 . S
C201 N203 1.350 . S
C201 H227 0.931 . S
N202 Co198 2.148 . S
N202 C199 1.301 . S
N202 C200 1.317 . S
N203 C199 1.328 . S
N203 C201 1.350 . S
H204 C199 0.930 . S
H205 C200 0.930 . S
C206 O207 1.224 . S
C206 O225 1.247 . S
O207 C206 1.224 . S
N208 Co198 2.128 . S
N208 C209 1.355 . S
N208 C211 1.311 . S
C209 N208 1.355 . S
C209 C210 1.363 . S
C209 H221 0.929 . S
C210 C209 1.363 . S
C210 N212 1.375 . S
C210 H228 0.931 . S
C211 N208 1.311 . S
C211 N212 1.347 . S
C211 H222 0.929 . S
N212 C210 1.375 . S
N212 C211 1.347 . S
C213 C216 1.365 . S
C213 N218 1.328 . S
C213 H219 0.929 . S
C214 C215 1.362 . S
C214 C217 1.378 . S
C214 H229 0.929 . S
C215 C214 1.362 . S
C215 C216 1.366 . S
C216 C213 1.365 . S
C216 C215 1.366 . S
C216 H230 0.930 . S
C217 C214 1.378 . S
C217 N218 1.315 . S
C217 H220 0.930 . S
N218 Co198 2.194 . S
N218 C213 1.328 . S
N218 C217 1.315 . S
H219 C213 0.929 . S
H220 C217 0.930 . S
H221 C209 0.929 . S
H222 C211 0.929 . S
O223 Co198 2.351 . S
O223 C226 1.244 . S
O224 Co198 2.155 . S
O224 C226 1.240 . S
O225 Co198 2.096 . S
O225 C206 1.247 . S
C226 O223 1.244 . S
C226 O224 1.240 . S
H227 C201 0.931 . S
H228 C210 0.931 . S
H229 C214 0.929 . S
H230 C216 0.930 . S
Co231 N235 2.148 . S
Co231 N241 2.128 1_554 S
Co231 N251 2.194 . S
Co231 O256 2.351 . S
Co231 O257 2.155 . S
Co231 O258 2.096 1_554 S
C232 N235 1.301 . S
C232 N236 1.328 . S
C232 H237 0.930 . S
C233 C234 1.333 . S
C233 N235 1.317 . S
C233 H238 0.930 . S
C234 C233 1.333 . S
C234 N236 1.350 . S
C234 H260 0.931 . S
N235 Co231 2.148 . S
N235 C232 1.301 . S
N235 C233 1.317 . S
N236 C232 1.328 . S
N236 C234 1.350 . S
H237 C232 0.930 . S
H238 C233 0.930 . S
C239 O240 1.224 . S
C239 O258 1.247 . S
O240 C239 1.224 . S
N241 Co231 2.128 1_556 S
N241 C242 1.355 . S
N241 C244 1.311 . S
C242 N241 1.355 . S
C242 C243 1.363 . S
C242 H254 0.929 . S
C243 C242 1.363 . S
C243 N245 1.375 . S
C243 H261 0.931 . S
C244 N241 1.311 . S
C244 N245 1.347 . S
C244 H255 0.929 . S
N245 C243 1.375 . S
N245 C244 1.347 . S
C246 C249 1.365 . S
C246 N251 1.328 . S
C246 H252 0.929 . S
C247 C248 1.362 1_556 S
C247 C250 1.378 . S
C247 H262 0.929 . S
C248 C247 1.362 1_554 S
C248 C249 1.366 . S
C249 C246 1.365 . S
C249 C248 1.366 . S
C249 H263 0.930 . S
C250 C247 1.378 . S
C250 N251 1.312 1_556 S
C250 H253 0.933 . S
N251 Co231 2.194 . S
N251 C246 1.328 . S
N251 C250 1.312 1_554 S
H252 C246 0.929 . S
H253 C250 0.933 . S
H254 C242 0.929 . S
H255 C244 0.929 . S
O256 Co231 2.351 . S
O256 C259 1.244 . S
O257 Co231 2.155 . S
O257 C259 1.240 . S
O258 Co231 2.096 1_556 S
O258 C239 1.247 . S
C259 O256 1.244 . S
C259 O257 1.240 . S
H260 C234 0.931 . S
H261 C243 0.931 . S
H262 C247 0.929 . S
H263 C249 0.930 . S
H264 C272 0.950 . S
H265 C277 0.950 . S
H266 C274 0.950 . S
H267 C276 0.950 . S
H268 C278 0.950 . S
H269 C280 0.950 . S
H270 C282 0.950 . S
H271 C283 0.950 . S
C272 H264 0.950 . S
C272 C273 1.386 1_556 S
C272 C274 1.391 . S
C273 C272 1.386 1_554 S
C273 C277 1.393 . S
C274 H266 0.950 . S
C274 C272 1.391 . S
C274 C275 1.400 1_556 S
C275 C274 1.400 1_554 S
C275 C276 1.398 . S
C275 C281 1.491 . S
C276 H267 0.950 . S
C276 C275 1.398 . S
C276 C277 1.391 . S
C277 H265 0.950 . S
C277 C273 1.393 . S
C277 C276 1.391 . S
C278 H268 0.950 . S
C278 C279 1.386 . S
C278 C280 1.391 . S
C279 C278 1.386 . S
C279 C283 1.393 1_554 S
C280 H269 0.950 . S
C280 C278 1.391 . S
C280 C281 1.400 . S
C281 C275 1.491 . S
C281 C280 1.400 . S
C281 C282 1.398 1_554 S
C282 H270 0.950 . S
C282 C281 1.398 1_556 S
C282 C283 1.391 . S
C283 H271 0.950 . S
C283 C279 1.393 1_556 S
C283 C282 1.391 . S
H284 C292 0.950 . S
H285 C297 0.950 . S
H286 C294 0.950 . S
H287 C296 0.950 1_565 S
H288 C298 0.950 . S
H289 C300 0.950 . S
H290 C302 0.950 1_545 S
H291 C303 0.950 . S
C292 H284 0.950 . S
C292 C293 1.386 . S
C292 C294 1.391 . S
C293 C292 1.386 . S
C293 C297 1.393 . S
C294 H286 0.950 . S
C294 C292 1.391 . S
C294 C295 1.400 . S
C295 C294 1.400 . S
C295 C296 1.398 . S
C295 C301 1.491 1_545 S
C296 H287 0.950 1_545 S
C296 C295 1.398 . S
C296 C297 1.391 . S
C297 H285 0.950 . S
C297 C293 1.393 . S
C297 C296 1.391 . S
C298 H288 0.950 . S
C298 C299 1.386 . S
C298 C300 1.391 . S
C299 C298 1.386 . S
C299 C303 1.393 . S
C300 H289 0.950 . S
C300 C298 1.391 . S
C300 C301 1.400 . S
C301 C295 1.491 1_565 S
C301 C300 1.400 . S
C301 C302 1.398 . S
C302 H290 0.950 1_565 S
C302 C301 1.398 . S
C302 C303 1.391 . S
C303 H291 0.950 . S
C303 C299 1.393 . S
C303 C302 1.391 . S
H304 C312 0.950 . S
H305 C317 0.950 . S
H306 C314 0.950 . S
H307 C316 0.950 . S
H308 C318 0.950 . S
H309 C320 0.950 . S
H310 C322 0.950 . S
H311 C323 0.950 . S
C312 H304 0.950 . S
C312 C313 1.386 . S
C312 C314 1.391 . S
C313 C312 1.386 . S
C313 C317 1.393 . S
C314 H306 0.950 . S
C314 C312 1.391 . S
C314 C315 1.400 . S
C315 C314 1.400 . S
C315 C316 1.398 . S
C315 C321 1.491 1_665 S
C316 H307 0.950 . S
C316 C315 1.398 . S
C316 C317 1.391 . S
C317 H305 0.950 . S
C317 C313 1.393 . S
C317 C316 1.391 . S
C318 H308 0.950 . S
C318 C319 1.386 . S
C318 C320 1.391 . S
C319 C318 1.386 . S
C319 C323 1.393 . S
C320 H309 0.950 . S
C320 C318 1.391 . S
C320 C321 1.400 . S
C321 C315 1.491 1_445 S
C321 C320 1.400 . S
C321 C322 1.398 . S
C322 H310 0.950 . S
C322 C321 1.398 . S
C322 C323 1.391 . S
C323 H311 0.950 . S
C323 C319 1.393 . S
C323 C322 1.391 . S
H324 C332 0.950 . S
H325 C337 0.950 . S
H326 C334 0.950 1_655 S
H327 C336 0.950 . S
H328 C338 0.950 . S
H329 C340 0.950 1_455 S
H330 C342 0.950 . S
H331 C343 0.950 . S
C332 H324 0.950 . S
C332 C333 1.386 . S
C332 C334 1.391 . S
C333 C332 1.386 . S
C333 C337 1.393 . S
C334 H326 0.950 1_455 S
C334 C332 1.391 . S
C334 C335 1.400 . S
C335 C334 1.400 . S
C335 C336 1.398 . S
C335 C341 1.491 1_455 S
C336 H327 0.950 . S
C336 C335 1.398 . S
C336 C337 1.391 . S
C337 H325 0.950 . S
C337 C333 1.393 . S
C337 C336 1.391 . S
C338 H328 0.950 . S
C338 C339 1.386 . S
C338 C340 1.391 . S
C339 C338 1.386 . S
C339 C343 1.393 . S
C340 H329 0.950 1_655 S
C340 C338 1.391 . S
C340 C341 1.400 . S
C341 C335 1.491 1_655 S
C341 C340 1.400 . S
C341 C342 1.398 . S
C342 H330 0.950 . S
C342 C341 1.398 . S
C342 C343 1.391 . S
C343 H331 0.950 . S
C343 C339 1.393 . S
C343 C342 1.391 . S
H344 C352 0.950 . S
H345 C357 0.950 . S
H346 C354 0.950 . S
H347 C356 0.950 . S
H348 C358 0.950 . S
H349 C360 0.950 . S
H350 C362 0.950 . S
H351 C363 0.950 . S
C352 H344 0.950 . S
C352 C353 1.386 . S
C352 C354 1.391 . S
C353 C352 1.386 . S
C353 C357 1.393 . S
C354 H346 0.950 . S
C354 C352 1.391 . S
C354 C355 1.400 . S
C355 C354 1.400 . S
C355 C356 1.398 . S
C355 C361 1.491 . S
C356 H347 0.950 . S
C356 C355 1.398 . S
C356 C357 1.391 . S
C357 H345 0.950 . S
C357 C353 1.393 . S
C357 C356 1.391 . S
C358 H348 0.950 . S
C358 C359 1.386 . S
C358 C360 1.391 . S
C359 C358 1.386 . S
C359 C363 1.393 . S
C360 H349 0.950 . S
C360 C358 1.391 . S
C360 C361 1.400 . S
C361 C355 1.491 . S
C361 C360 1.400 . S
C361 C362 1.398 . S
C362 H350 0.950 . S
C362 C361 1.398 . S
C362 C363 1.391 . S
C363 H351 0.950 . S
C363 C359 1.393 . S
C363 C362 1.391 . S
H364 C372 0.950 . S
H365 C377 0.950 . S
H366 C374 0.950 . S
H367 C376 0.950 . S
H368 C378 0.950 . S
H369 C380 0.950 . S
H370 C382 0.950 . S
H371 C383 0.950 . S
C372 H364 0.950 . S
C372 C373 1.386 . S
C372 C374 1.391 . S
C373 C372 1.386 . S
C373 C377 1.393 . S
C374 H366 0.950 . S
C374 C372 1.391 . S
C374 C375 1.400 . S
C375 C374 1.400 . S
C375 C376 1.398 . S
C375 C381 1.491 . S
C376 H367 0.950 . S
C376 C375 1.398 . S
C376 C377 1.391 . S
C377 H365 0.950 . S
C377 C373 1.393 . S
C377 C376 1.391 . S
C378 H368 0.950 . S
C378 C379 1.386 . S
C378 C380 1.391 . S
C379 C378 1.386 . S
C379 C383 1.393 . S
C380 H369 0.950 . S
C380 C378 1.391 . S
C380 C381 1.400 . S
C381 C375 1.491 . S
C381 C380 1.400 . S
C381 C382 1.398 . S
C382 H370 0.950 . S
C382 C381 1.398 . S
C382 C383 1.391 . S
C383 H371 0.950 . S
C383 C379 1.393 . S
C383 C382 1.391 . S
H384 C392 0.950 . S
H385 C397 0.950 . S
H386 C394 0.950 . S
H387 C396 0.950 . S
H388 C398 0.950 . S
H389 C400 0.950 . S
H390 C402 0.950 . S
H391 C403 0.950 . S
C392 H384 0.950 . S
C392 C393 1.386 . S
C392 C394 1.391 . S
C393 C392 1.386 . S
C393 C397 1.393 . S
C394 H386 0.950 . S
C394 C392 1.391 . S
C394 C395 1.400 . S
C395 C394 1.400 . S
C395 C396 1.398 . S
C395 C401 1.491 1_556 S
C396 H387 0.950 . S
C396 C395 1.398 . S
C396 C397 1.391 . S
C397 H385 0.950 . S
C397 C393 1.393 . S
C397 C396 1.391 . S
C398 H388 0.950 . S
C398 C399 1.386 . S
C398 C400 1.391 . S
C399 C398 1.386 . S
C399 C403 1.393 . S
C400 H389 0.950 . S
C400 C398 1.391 . S
C400 C401 1.400 . S
C401 C395 1.491 1_554 S
C401 C400 1.400 . S
C401 C402 1.398 . S
C402 H390 0.950 . S
C402 C401 1.398 . S
C402 C403 1.391 . S
C403 H391 0.950 . S
C403 C399 1.393 . S
C403 C402 1.391 . S
H404 C412 0.950 . S
H405 C417 0.950 . S
H406 C414 0.950 . S
H407 C416 0.950 . S
H408 C418 0.950 . S
H409 C420 0.950 . S
H410 C422 0.950 . S
H411 C423 0.950 . S
C412 H404 0.950 . S
C412 C413 1.386 . S
C412 C414 1.391 . S
C413 C412 1.386 . S
C413 C417 1.393 . S
C414 H406 0.950 . S
C414 C412 1.391 . S
C414 C415 1.400 . S
C415 C414 1.400 . S
C415 C416 1.398 . S
C415 C421 1.491 . S
C416 H407 0.950 . S
C416 C415 1.398 . S
C416 C417 1.391 . S
C417 H405 0.950 . S
C417 C413 1.393 . S
C417 C416 1.391 . S
C418 H408 0.950 . S
C418 C419 1.386 . S
C418 C420 1.391 . S
C419 C418 1.386 . S
C419 C423 1.393 . S
C420 H409 0.950 . S
C420 C418 1.391 . S
C420 C421 1.400 . S
C421 C415 1.491 . S
C421 C420 1.400 . S
C421 C422 1.398 . S
C422 H410 0.950 . S
C422 C421 1.398 . S
C422 C423 1.391 . S
C423 H411 0.950 . S
C423 C419 1.393 . S
C423 C422 1.391 . S
H424 C432 0.950 . S
H425 C437 0.950 . S
H426 C434 0.950 . S
H427 C436 0.950 . S
H428 C438 0.950 . S
H429 C440 0.950 . S
H430 C442 0.950 . S
H431 C443 0.950 . S
C432 H424 0.950 . S
C432 C433 1.386 . S
C432 C434 1.391 . S
C433 C432 1.386 . S
C433 C437 1.393 . S
C434 H426 0.950 . S
C434 C432 1.391 . S
C434 C435 1.400 . S
C435 C434 1.400 . S
C435 C436 1.398 . S
C435 C441 1.491 . S
C436 H427 0.950 . S
C436 C435 1.398 . S
C436 C437 1.391 . S
C437 H425 0.950 . S
C437 C433 1.393 . S
C437 C436 1.391 . S
C438 H428 0.950 . S
C438 C439 1.386 . S
C438 C440 1.391 . S
C439 C438 1.386 . S
C439 C443 1.393 . S
C440 H429 0.950 . S
C440 C438 1.391 . S
C440 C441 1.400 . S
C441 C435 1.491 . S
C441 C440 1.400 . S
C441 C442 1.398 . S
C442 H430 0.950 . S
C442 C441 1.398 . S
C442 C443 1.391 . S
C443 H431 0.950 . S
C443 C439 1.393 . S
C443 C442 1.391 . S
H444 C452 0.950 . S
H445 C457 0.950 . S
H446 C454 0.950 . S
H447 C456 0.950 . S
H448 C458 0.950 . S
H449 C460 0.950 . S
H450 C462 0.950 . S
H451 C463 0.950 . S
C452 H444 0.950 . S
C452 C453 1.386 . S
C452 C454 1.391 . S
C453 C452 1.386 . S
C453 C457 1.393 . S
C454 H446 0.950 . S
C454 C452 1.391 . S
C454 C455 1.400 . S
C455 C454 1.400 . S
C455 C456 1.398 . S
C455 C461 1.491 1_554 S
C456 H447 0.950 . S
C456 C455 1.398 . S
C456 C457 1.391 . S
C457 H445 0.950 . S
C457 C453 1.393 . S
C457 C456 1.391 . S
C458 H448 0.950 . S
C458 C459 1.386 . S
C458 C460 1.391 . S
C459 C458 1.386 . S
C459 C463 1.393 . S
C460 H449 0.950 . S
C460 C458 1.391 . S
C460 C461 1.400 . S
C461 C455 1.491 1_556 S
C461 C460 1.400 . S
C461 C462 1.398 . S
C462 H450 0.950 . S
C462 C461 1.398 . S
C462 C463 1.391 . S
C463 H451 0.950 . S
C463 C459 1.393 . S
C463 C462 1.391 . S
H464 C472 0.950 . S
H465 C477 0.950 . S
H466 C474 0.950 . S
H467 C476 0.950 . S
H468 C478 0.950 . S
H469 C480 0.950 . S
H470 C482 0.950 . S
H471 C483 0.950 . S
C472 H464 0.950 . S
C472 C473 1.386 . S
C472 C474 1.391 . S
C473 C472 1.386 . S
C473 C477 1.393 . S
C474 H466 0.950 . S
C474 C472 1.391 . S
C474 C475 1.400 . S
C475 C474 1.400 . S
C475 C476 1.398 . S
C475 C481 1.491 . S
C476 H467 0.950 . S
C476 C475 1.398 . S
C476 C477 1.391 . S
C477 H465 0.950 . S
C477 C473 1.393 . S
C477 C476 1.391 . S
C478 H468 0.950 . S
C478 C479 1.386 . S
C478 C480 1.391 . S
C479 C478 1.386 . S
C479 C483 1.393 . S
C480 H469 0.950 . S
C480 C478 1.391 . S
C480 C481 1.400 . S
C481 C475 1.491 . S
C481 C480 1.400 . S
C481 C482 1.398 . S
C482 H470 0.950 . S
C482 C481 1.398 . S
C482 C483 1.391 . S
C483 H471 0.950 . S
C483 C479 1.393 . S
C483 C482 1.391 . S
H484 C492 0.950 . S
H485 C497 0.950 . S
H486 C494 0.950 . S
H487 C496 0.950 . S
H488 C498 0.950 . S
H489 C500 0.950 . S
H490 C502 0.950 . S
H491 C503 0.950 . S
C492 H484 0.950 . S
C492 C493 1.386 . S
C492 C494 1.391 . S
C493 C492 1.386 . S
C493 C497 1.393 . S
C494 H486 0.950 . S
C494 C492 1.391 . S
C494 C495 1.400 . S
C495 C494 1.400 . S
C495 C496 1.398 . S
C495 C501 1.491 . S
C496 H487 0.950 . S
C496 C495 1.398 . S
C496 C497 1.391 . S
C497 H485 0.950 . S
C497 C493 1.393 . S
C497 C496 1.391 . S
C498 H488 0.950 . S
C498 C499 1.386 . S
C498 C500 1.391 . S
C499 C498 1.386 . S
C499 C503 1.393 . S
C500 H489 0.950 . S
C500 C498 1.391 . S
C500 C501 1.400 . S
C501 C495 1.491 . S
C501 C500 1.400 . S
C501 C502 1.398 . S
C502 H490 0.950 . S
C502 C501 1.398 . S
C502 C503 1.391 . S
C503 H491 0.950 . S
C503 C499 1.393 . S
C503 C502 1.391 . S
H504 C512 0.950 . S
H505 C517 0.950 . S
H506 C514 0.950 . S
H507 C516 0.950 . S
H508 C518 0.950 . S
H509 C520 0.950 . S
H510 C522 0.950 . S
H511 C523 0.950 . S
C512 H504 0.950 . S
C512 C513 1.386 . S
C512 C514 1.391 . S
C513 C512 1.386 . S
C513 C517 1.393 . S
C514 H506 0.950 . S
C514 C512 1.391 . S
C514 C515 1.400 . S
C515 C514 1.400 . S
C515 C516 1.398 . S
C515 C521 1.491 . S
C516 H507 0.950 . S
C516 C515 1.398 . S
C516 C517 1.391 . S
C517 H505 0.950 . S
C517 C513 1.393 . S
C517 C516 1.391 . S
C518 H508 0.950 . S
C518 C519 1.386 . S
C518 C520 1.391 . S
C519 C518 1.386 . S
C519 C523 1.393 . S
C520 H509 0.950 . S
C520 C518 1.391 . S
C520 C521 1.400 . S
C521 C515 1.491 . S
C521 C520 1.400 . S
C521 C522 1.398 . S
C522 H510 0.950 . S
C522 C521 1.398 . S
C522 C523 1.391 . S
C523 H511 0.950 . S
C523 C519 1.393 . S
C523 C522 1.391 . S
H524 C532 0.950 . S
H525 C537 0.950 . S
H526 C534 0.950 . S
H527 C536 0.950 . S
H528 C538 0.950 1_556 S
H529 C540 0.950 . S
H530 C542 0.950 . S
H531 C543 0.950 . S
C532 H524 0.950 . S
C532 C533 1.386 . S
C532 C534 1.391 . S
C533 C532 1.386 . S
C533 C537 1.393 . S
C534 H526 0.950 . S
C534 C532 1.391 . S
C534 C535 1.400 . S
C535 C534 1.400 . S
C535 C536 1.398 . S
C535 C541 1.491 . S
C536 H527 0.950 . S
C536 C535 1.398 . S
C536 C537 1.391 . S
C537 H525 0.950 . S
C537 C533 1.393 . S
C537 C536 1.391 . S
C538 H528 0.950 1_554 S
C538 C539 1.386 . S
C538 C540 1.391 . S
C539 C538 1.386 . S
C539 C543 1.393 . S
C540 H529 0.950 . S
C540 C538 1.391 . S
C540 C541 1.400 . S
C541 C535 1.491 . S
C541 C540 1.400 . S
C541 C542 1.398 . S
C542 H530 0.950 . S
C542 C541 1.398 . S
C542 C543 1.391 . S
C543 H531 0.950 . S
C543 C539 1.393 . S
C543 C542 1.391 . S
H544 C552 0.950 . S
H545 C557 0.950 . S
H546 C554 0.950 . S
H547 C556 0.950 . S
H548 C558 0.950 . S
H549 C560 0.950 . S
H550 C562 0.950 . S
H551 C563 0.950 . S
C552 H544 0.950 . S
C552 C553 1.386 . S
C552 C554 1.391 . S
C553 C552 1.386 . S
C553 C557 1.393 . S
C554 H546 0.950 . S
C554 C552 1.391 . S
C554 C555 1.400 . S
C555 C554 1.400 . S
C555 C556 1.398 . S
C555 C561 1.491 . S
C556 H547 0.950 . S
C556 C555 1.398 . S
C556 C557 1.391 . S
C557 H545 0.950 . S
C557 C553 1.393 . S
C557 C556 1.391 . S
C558 H548 0.950 . S
C558 C559 1.386 . S
C558 C560 1.391 . S
C559 C558 1.386 . S
C559 C563 1.393 . S
C560 H549 0.950 . S
C560 C558 1.391 . S
C560 C561 1.400 . S
C561 C555 1.491 . S
C561 C560 1.400 . S
C561 C562 1.398 . S
C562 H550 0.950 . S
C562 C561 1.398 . S
C562 C563 1.391 . S
C563 H551 0.950 . S
C563 C559 1.393 . S
C563 C562 1.391 . S
H564 C572 0.950 . S
H565 C577 0.950 . S
H566 C574 0.950 . S
H567 C576 0.950 . S
H568 C578 0.950 . S
H569 C580 0.950 . S
H570 C582 0.950 . S
H571 C583 0.950 . S
C572 H564 0.950 . S
C572 C573 1.386 . S
C572 C574 1.391 . S
C573 C572 1.386 . S
C573 C577 1.393 . S
C574 H566 0.950 . S
C574 C572 1.391 . S
C574 C575 1.400 . S
C575 C574 1.400 . S
C575 C576 1.398 . S
C575 C581 1.491 . S
C576 H567 0.950 . S
C576 C575 1.398 . S
C576 C577 1.391 . S
C577 H565 0.950 . S
C577 C573 1.393 . S
C577 C576 1.391 . S
C578 H568 0.950 . S
C578 C579 1.386 . S
C578 C580 1.391 . S
C579 C578 1.386 . S
C579 C583 1.393 . S
C580 H569 0.950 . S
C580 C578 1.391 . S
C580 C581 1.400 . S
C581 C575 1.491 . S
C581 C580 1.400 . S
C581 C582 1.398 . S
C582 H570 0.950 . S
C582 C581 1.398 . S
C582 C583 1.391 . S
C583 H571 0.950 . S
C583 C579 1.393 . S
C583 C582 1.391 . S
H584 C592 0.950 . S
H585 C597 0.950 . S
H586 C594 0.950 . S
H587 C596 0.950 . S
H588 C598 0.950 . S
H589 C600 0.950 . S
H590 C602 0.950 . S
H591 C603 0.950 . S
C592 H584 0.950 . S
C592 C593 1.386 . S
C592 C594 1.391 . S
C593 C592 1.386 . S
C593 C597 1.393 . S
C594 H586 0.950 . S
C594 C592 1.391 . S
C594 C595 1.400 . S
C595 C594 1.400 . S
C595 C596 1.398 . S
C595 C601 1.491 . S
C596 H587 0.950 . S
C596 C595 1.398 . S
C596 C597 1.391 . S
C597 H585 0.950 . S
C597 C593 1.393 . S
C597 C596 1.391 . S
C598 H588 0.950 . S
C598 C599 1.386 . S
C598 C600 1.391 . S
C599 C598 1.386 . S
C599 C603 1.393 . S
C600 H589 0.950 . S
C600 C598 1.391 . S
C600 C601 1.400 . S
C601 C595 1.491 . S
C601 C600 1.400 . S
C601 C602 1.398 . S
C602 H590 0.950 . S
C602 C601 1.398 . S
C602 C603 1.391 . S
C603 H591 0.950 . S
C603 C599 1.393 . S
C603 C602 1.391 . S
H604 C612 0.950 . S
H605 C617 0.950 . S
H606 C614 0.950 . S
H607 C616 0.950 . S
H608 C618 0.950 . S
H609 C620 0.950 . S
H610 C622 0.950 . S
H611 C623 0.950 . S
C612 H604 0.950 . S
C612 C613 1.386 . S
C612 C614 1.391 . S
C613 C612 1.386 . S
C613 C617 1.393 . S
C614 H606 0.950 . S
C614 C612 1.391 . S
C614 C615 1.400 . S
C615 C614 1.400 . S
C615 C616 1.398 . S
C615 C621 1.491 . S
C616 H607 0.950 . S
C616 C615 1.398 . S
C616 C617 1.391 . S
C617 H605 0.950 . S
C617 C613 1.393 . S
C617 C616 1.391 . S
C618 H608 0.950 . S
C618 C619 1.386 . S
C618 C620 1.391 . S
C619 C618 1.386 . S
C619 C623 1.393 . S
C620 H609 0.950 . S
C620 C618 1.391 . S
C620 C621 1.400 . S
C621 C615 1.491 . S
C621 C620 1.400 . S
C621 C622 1.398 . S
C622 H610 0.950 . S
C622 C621 1.398 . S
C622 C623 1.391 . S
C623 H611 0.950 . S
C623 C619 1.393 . S
C623 C622 1.391 . S
H624 C632 0.950 . S
H625 C637 0.950 . S
H626 C634 0.950 . S
H627 C636 0.950 . S
H628 C638 0.950 . S
H629 C640 0.950 . S
H630 C642 0.950 . S
H631 C643 0.950 . S
C632 H624 0.950 . S
C632 C633 1.386 . S
C632 C634 1.391 . S
C633 C632 1.386 . S
C633 C637 1.393 . S
C634 H626 0.950 . S
C634 C632 1.391 . S
C634 C635 1.400 . S
C635 C634 1.400 . S
C635 C636 1.398 . S
C635 C641 1.491 . S
C636 H627 0.950 . S
C636 C635 1.398 . S
C636 C637 1.391 . S
C637 H625 0.950 . S
C637 C633 1.393 . S
C637 C636 1.391 . S
C638 H628 0.950 . S
C638 C639 1.386 . S
C638 C640 1.391 . S
C639 C638 1.386 . S
C639 C643 1.393 . S
C640 H629 0.950 . S
C640 C638 1.391 . S
C640 C641 1.400 . S
C641 C635 1.491 . S
C641 C640 1.400 . S
C641 C642 1.398 . S
C642 H630 0.950 . S
C642 C641 1.398 . S
C642 C643 1.391 . S
C643 H631 0.950 . S
C643 C639 1.393 . S
C643 C642 1.391 . S
H644 C652 0.950 1_556 S
H645 C657 0.950 . S
H646 C654 0.950 . S
H647 C656 0.950 . S
H648 C658 0.950 . S
H649 C660 0.950 . S
H650 C662 0.950 . S
H651 C663 0.950 . S
C652 H644 0.950 1_554 S
C652 C653 1.386 . S
C652 C654 1.391 . S
C653 C652 1.386 . S
C653 C657 1.393 . S
C654 H646 0.950 . S
C654 C652 1.391 . S
C654 C655 1.400 . S
C655 C654 1.400 . S
C655 C656 1.398 . S
C655 C661 1.491 . S
C656 H647 0.950 . S
C656 C655 1.398 . S
C656 C657 1.391 . S
C657 H645 0.950 . S
C657 C653 1.393 . S
C657 C656 1.391 . S
C658 H648 0.950 . S
C658 C659 1.386 . S
C658 C660 1.391 . S
C659 C658 1.386 . S
C659 C663 1.393 . S
C660 H649 0.950 . S
C660 C658 1.391 . S
C660 C661 1.400 . S
C661 C655 1.491 . S
C661 C660 1.400 . S
C661 C662 1.398 . S
C662 H650 0.950 . S
C662 C661 1.398 . S
C662 C663 1.391 . S
C663 H651 0.950 . S
C663 C659 1.393 . S
C663 C662 1.391 . S
C273 C248 1.246 . S
C279 C17 1.248 . S
C293 C149 1.231 . S
C299 C50 1.236 . S
C313 C182 1.221 . S
C319 C83 1.219 . S
C333 C215 1.229 . S
C339 C116 1.230 . S
C353 N5 1.414 . S
C359 N14 1.408 . S
C373 N47 1.420 1_556 S
C379 N38 1.424 . S
C393 N71 1.422 . S
C399 N80 1.417 . S
C413 N113 1.413 1_554 S
C419 N104 1.419 . S
C433 N146 1.416 1_556 S
C439 N137 1.421 . S
C453 N179 1.406 . S
C459 N170 1.411 . S
C473 N212 1.419 . S
C479 N203 1.423 1_554 S
C493 N245 1.411 . S
C499 N236 1.417 . S
C513 C226 1.348 . S
C519 C8 1.356 . S
C533 C41 1.380 . S
C539 C259 1.367 . S
C553 C160 1.328 . S
C559 C74 1.349 . S
C573 C127 1.323 . S
C579 C193 1.306 . S
C593 C173 1.312 . S
C599 C61 1.313 . S
C613 C94 1.322 . S
C619 C206 1.341 . S
C633 C239 1.365 . S
C639 C107 1.369 . S
C653 C28 1.351 . S
C659 C140 1.346 . S
