# Generated by pormake.
# Topology yfc, (5)-cn, num edge types: 1
# Building blocks:
#     Node 0, Type 0, BuildingBlock: BEQFEK_clean_sbu_0, # of connection points: 5
#     Node 1, Type 0, BuildingBlock: BEQFEK_clean_sbu_0, # of connection points: 5
#     Node 2, Type 0, BuildingBlock: BEQFEK_clean_sbu_0, # of connection points: 5
#     Node 3, Type 0, BuildingBlock: BEQFEK_clean_sbu_0, # of connection points: 5
#     Node 4, Type 0, BuildingBlock: BEQFEK_clean_sbu_0, # of connection points: 5
#     Node 5, Type 0, BuildingBlock: BEQFEK_clean_sbu_0, # of connection points: 5
#     Node 6, Type 0, BuildingBlock: BEQFEK_clean_sbu_0, # of connection points: 5
#     Node 7, Type 0, BuildingBlock: BEQFEK_clean_sbu_0, # of connection points: 5
#     Node 8, Type 0, BuildingBlock: BEQFEK_clean_sbu_0, # of connection points: 5
#     Node 9, Type 0, BuildingBlock: BEQFEK_clean_sbu_0, # of connection points: 5
#     Node 10, Type 0, BuildingBlock: BEQFEK_clean_sbu_0, # of connection points: 5
#     Node 11, Type 0, BuildingBlock: BEQFEK_clean_sbu_0, # of connection points: 5
#     Node 12, Type 0, BuildingBlock: BEQFEK_clean_sbu_0, # of connection points: 5
#     Node 13, Type 0, BuildingBlock: BEQFEK_clean_sbu_0, # of connection points: 5
#     Node 14, Type 0, BuildingBlock: BEQFEK_clean_sbu_0, # of connection points: 5
#     Node 15, Type 0, BuildingBlock: BEQFEK_clean_sbu_0, # of connection points: 5
#     Edge 16, Type (0, 0), BuildingBlock: ZUJKAS_clean_linker_0, # of connection points: 2
#     Edge 17, Type (0, 0), BuildingBlock: ZUJKAS_clean_linker_0, # of connection points: 2
#     Edge 18, Type (0, 0), BuildingBlock: ZUJKAS_clean_linker_0, # of connection points: 2
#     Edge 19, Type (0, 0), BuildingBlock: ZUJKAS_clean_linker_0, # of connection points: 2
#     Edge 20, Type (0, 0), BuildingBlock: ZUJKAS_clean_linker_0, # of connection points: 2
#     Edge 21, Type (0, 0), BuildingBlock: ZUJKAS_clean_linker_0, # of connection points: 2
#     Edge 22, Type (0, 0), BuildingBlock: ZUJKAS_clean_linker_0, # of connection points: 2
#     Edge 23, Type (0, 0), BuildingBlock: ZUJKAS_clean_linker_0, # of connection points: 2
#     Edge 24, Type (0, 0), BuildingBlock: ZUJKAS_clean_linker_0, # of connection points: 2
#     Edge 25, Type (0, 0), BuildingBlock: ZUJKAS_clean_linker_0, # of connection points: 2
#     Edge 26, Type (0, 0), BuildingBlock: ZUJKAS_clean_linker_0, # of connection points: 2
#     Edge 27, Type (0, 0), BuildingBlock: ZUJKAS_clean_linker_0, # of connection points: 2
#     Edge 28, Type (0, 0), BuildingBlock: ZUJKAS_clean_linker_0, # of connection points: 2
#     Edge 29, Type (0, 0), BuildingBlock: ZUJKAS_clean_linker_0, # of connection points: 2
#     Edge 30, Type (0, 0), BuildingBlock: ZUJKAS_clean_linker_0, # of connection points: 2
#     Edge 31, Type (0, 0), BuildingBlock: ZUJKAS_clean_linker_0, # of connection points: 2
#     Edge 32, Type (0, 0), BuildingBlock: ZUJKAS_clean_linker_0, # of connection points: 2
#     Edge 33, Type (0, 0), BuildingBlock: ZUJKAS_clean_linker_0, # of connection points: 2
#     Edge 34, Type (0, 0), BuildingBlock: ZUJKAS_clean_linker_0, # of connection points: 2
#     Edge 35, Type (0, 0), BuildingBlock: ZUJKAS_clean_linker_0, # of connection points: 2
#     Edge 36, Type (0, 0), BuildingBlock: ZUJKAS_clean_linker_0, # of connection points: 2
#     Edge 37, Type (0, 0), BuildingBlock: ZUJKAS_clean_linker_0, # of connection points: 2
#     Edge 38, Type (0, 0), BuildingBlock: ZUJKAS_clean_linker_0, # of connection points: 2
#     Edge 39, Type (0, 0), BuildingBlock: ZUJKAS_clean_linker_0, # of connection points: 2
#     Edge 40, Type (0, 0), BuildingBlock: ZUJKAS_clean_linker_0, # of connection points: 2
#     Edge 41, Type (0, 0), BuildingBlock: ZUJKAS_clean_linker_0, # of connection points: 2
#     Edge 42, Type (0, 0), BuildingBlock: ZUJKAS_clean_linker_0, # of connection points: 2
#     Edge 43, Type (0, 0), BuildingBlock: ZUJKAS_clean_linker_0, # of connection points: 2
#     Edge 44, Type (0, 0), BuildingBlock: ZUJKAS_clean_linker_0, # of connection points: 2
#     Edge 45, Type (0, 0), BuildingBlock: ZUJKAS_clean_linker_0, # of connection points: 2
#     Edge 46, Type (0, 0), BuildingBlock: ZUJKAS_clean_linker_0, # of connection points: 2
#     Edge 47, Type (0, 0), BuildingBlock: ZUJKAS_clean_linker_0, # of connection points: 2
#     Edge 48, Type (0, 0), BuildingBlock: ZUJKAS_clean_linker_0, # of connection points: 2
#     Edge 49, Type (0, 0), BuildingBlock: ZUJKAS_clean_linker_0, # of connection points: 2
#     Edge 50, Type (0, 0), BuildingBlock: ZUJKAS_clean_linker_0, # of connection points: 2
#     Edge 51, Type (0, 0), BuildingBlock: ZUJKAS_clean_linker_0, # of connection points: 2
#     Edge 52, Type (0, 0), BuildingBlock: ZUJKAS_clean_linker_0, # of connection points: 2
#     Edge 53, Type (0, 0), BuildingBlock: ZUJKAS_clean_linker_0, # of connection points: 2
#     Edge 54, Type (0, 0), BuildingBlock: ZUJKAS_clean_linker_0, # of connection points: 2
#     Edge 55, Type (0, 0), BuildingBlock: ZUJKAS_clean_linker_0, # of connection points: 2
# Relax obj value: 0.463
# Max RMSD: 0.173
# Mean RMSD: 0.173
data_MOF--net-yfc--node1-BEQFEK_clean_sbu_0--edge1-ZUJKAS_clean_linker_0
_symmetry_space_group_name_H-M    P1
_symmetry_Int_Tables_number       1
_symmetry_cell_setting            triclinic
loop_
_symmetry_equiv_pos_as_xyz
'x, y, z'
_cell_length_a     57.343353
_cell_length_b     57.396848
_cell_length_c     61.828551
_cell_angle_alpha  90.048643
_cell_angle_beta   90.029945
_cell_angle_gamma 90.118103
loop_
_atom_site_label
_atom_site_type_symbol
_atom_site_fract_x
_atom_site_fract_y
_atom_site_fract_z
_atom_type_partial_charge
Co0 Co 0.71364 0.08534 0.14101 0.0
Co1 Co 0.69661 0.03827 0.16206 0.0
C2 C 0.6699 0.0831 0.16734 0.0
O3 O 0.68458 0.094 0.15573 0.0
O4 O 0.67228 0.06142 0.17124 0.0
C5 C 0.7112 0.12607 0.11366 0.0
O6 O 0.68979 0.11914 0.10958 0.0
C7 C 0.66742 0.00047 0.18089 0.0
C8 C 0.69097 0.97022 0.17816 0.0
C9 C 0.66908 0.97676 0.18541 0.0
N10 N 0.68724 0.00742 0.17107 0.0
N11 N 0.70125 0.98922 0.16963 0.0
C12 C 0.6489 0.01697 0.18834 0.0
H13 H 0.65718 0.03114 0.19782 0.0
H14 H 0.64025 0.02488 0.17407 0.0
H15 H 0.63573 0.00846 0.19878 0.0
C16 C 0.71347 0.05662 0.10156 0.0
N17 N 0.70918 0.05939 0.12279 0.0
N18 N 0.70188 0.03951 0.13109 0.0
C19 C 0.70107 0.02348 0.11502 0.0
C20 C 0.70833 0.03387 0.09584 0.0
C21 C 0.72442 0.07481 0.08748 0.0
H22 H 0.73774 0.08465 0.09674 0.0
H23 H 0.71076 0.08712 0.08199 0.0
H24 H 0.73277 0.06699 0.07302 0.0
O25 O 0.7379 0.07837 0.16241 0.0
O26 O 0.72625 0.04558 0.1781 0.0
H27 H 0.70825 0.98846 0.12429 0.0
H28 H 0.68823 0.99102 0.10201 0.0
C29 C 0.69349 -0.00127 0.11775 0.0
H30 H 0.6787 -0.00228 0.12925 0.0
H31 H 0.71806 0.98989 0.1632 0.0
O32 O 0.72424 0.11367 0.12562 0.0
C33 C 0.74089 0.06222 0.17619 0.0
Co34 Co 0.40199 0.7103 0.63867 0.0
Co35 Co 0.44912 0.69711 0.66203 0.0
C36 C 0.40534 0.66796 0.66623 0.0
O37 O 0.39403 0.6811 0.65348 0.0
O38 O 0.42649 0.67228 0.67116 0.0
C39 C 0.36028 0.7047 0.61343 0.0
O40 O 0.36525 0.68242 0.61489 0.0
C41 C 0.48717 0.66859 0.68098 0.0
C42 C 0.51634 0.69378 0.68161 0.0
C43 C 0.51048 0.67106 0.68693 0.0
N44 N 0.47981 0.68881 0.67225 0.0
N45 N 0.49737 0.70377 0.67277 0.0
C46 C 0.47126 0.64854 0.68585 0.0
H47 H 0.45673 0.65478 0.69613 0.0
H48 H 0.46373 0.64178 0.67054 0.0
H49 H 0.48013 0.6343 0.69464 0.0
C50 C 0.43223 0.7104 0.60049 0.0
N51 N 0.42892 0.70672 0.62173 0.0
N52 N 0.44891 0.70134 0.63098 0.0
C53 C 0.46568 0.70141 0.61558 0.0
C54 C 0.45561 0.70707 0.59578 0.0
C55 C 0.41366 0.71926 0.58559 0.0
H56 H 0.40433 0.73392 0.5934 0.0
H57 H 0.40086 0.70513 0.58251 0.0
H58 H 0.4209 0.72534 0.56995 0.0
O59 O 0.40689 0.73524 0.66004 0.0
O60 O 0.44001 0.72684 0.6769 0.0
H61 H 0.49903 0.71184 0.62745 0.0
H62 H 0.50023 0.69269 0.60434 0.0
C63 C 0.49087 0.69643 0.61967 0.0
H64 H 0.49258 0.68135 0.63075 0.0
H65 H 0.49627 0.72097 0.6674 0.0
O66 O 0.37428 0.71954 0.62152 0.0
C67 C 0.42236 0.74 0.67413 0.0
Co68 Co 0.77289 0.40293 0.14352 0.0
Co69 Co 0.79243 0.44987 0.16291 0.0
C70 C 0.81693 0.40455 0.17007 0.0
O71 O 0.80115 0.39393 0.15948 0.0
O72 O 0.81633 0.4266 0.17243 0.0
C73 C 0.7749 0.36194 0.1166 0.0
O74 O 0.79605 0.36918 0.11194 0.0
C75 C 0.8219 0.48753 0.18166 0.0
C76 C 0.7997 0.51842 0.17645 0.0
C77 C 0.82085 0.51148 0.18513 0.0
N78 N 0.80247 0.4808 0.17104 0.0
N79 N 0.78927 0.49938 0.16812 0.0
C80 C 0.83941 0.47083 0.19067 0.0
H81 H 0.83016 0.45675 0.19946 0.0
H82 H 0.84931 0.46282 0.17717 0.0
H83 H 0.85166 0.47931 0.20209 0.0
C84 C 0.77435 0.42992 0.10317 0.0
N85 N 0.77863 0.42785 0.12446 0.0
N86 N 0.78711 0.44763 0.13199 0.0
C87 C 0.78899 0.46277 0.11528 0.0
C88 C 0.78102 0.45196 0.09652 0.0
C89 C 0.7617 0.41204 0.08992 0.0
H90 H 0.74876 0.40271 0.10003 0.0
H91 H 0.77445 0.39929 0.08349 0.0
H92 H 0.75251 0.42016 0.07606 0.0
O93 O 0.74846 0.41189 0.16381 0.0
O94 O 0.76266 0.4438 0.17947 0.0
H95 H 0.78441 0.49886 0.12227 0.0
H96 H 0.80508 0.49309 0.10108 0.0
C97 C 0.79852 0.48696 0.11699 0.0
H98 H 0.81283 0.48758 0.12904 0.0
H99 H 0.77284 0.49898 0.16083 0.0
O100 O 0.76205 0.37419 0.12888 0.0
C101 C 0.74679 0.42832 0.17749 0.0
Co102 Co 0.08576 0.78191 0.64039 0.0
Co103 Co 0.03817 0.79352 0.66348 0.0
C104 C 0.08113 0.82383 0.66836 0.0
O105 O 0.09284 0.81117 0.65548 0.0
O106 O 0.0601 0.81884 0.67323 0.0
C107 C 0.12943 0.78711 0.61776 0.0
O108 O 0.12692 0.8093 0.62238 0.0
C109 C -0.00072 0.82195 0.68029 0.0
C110 C 0.97161 0.79561 0.68482 0.0
C111 C 0.9766 0.81903 0.68777 0.0
N112 N 0.00737 0.80117 0.6735 0.0
N113 N 0.99068 0.78553 0.67622 0.0
C114 C 0.01273 0.84423 0.6786 0.0
H115 H 0.02361 0.84408 0.66376 0.0
H116 H 0.00088 0.85949 0.67815 0.0
H117 H 0.02446 0.84588 0.6928 0.0
C118 C 0.05592 0.78194 0.60197 0.0
N119 N 0.05892 0.78514 0.6233 0.0
N120 N 0.03868 0.78954 0.6325 0.0
C121 C 0.02199 0.78899 0.61702 0.0
C122 C 0.03245 0.78431 0.59718 0.0
C123 C 0.07505 0.77475 0.58691 0.0
H124 H 0.0885 0.78866 0.5864 0.0
H125 H 0.06857 0.77137 0.5703 0.0
H126 H 0.08344 0.75872 0.59318 0.0
O127 O 0.08126 0.75671 0.66161 0.0
O128 O 0.04771 0.76393 0.67818 0.0
H129 H 0.9899 0.77713 0.63056 0.0
H130 H 0.98657 0.79366 0.60587 0.0
C131 C -0.00346 0.79223 0.62121 0.0
H132 H 0.99385 0.80815 0.63108 0.0
H133 H 0.99244 0.76788 0.67249 0.0
O134 O 0.11348 0.77282 0.62311 0.0
C135 C 0.06579 0.75134 0.6755 0.0
Co136 Co 0.71084 0.4049 0.83866 0.0
Co137 Co 0.6963 0.45161 0.81558 0.0
C138 C 0.66851 0.40736 0.81038 0.0
O139 O 0.68226 0.39644 0.8229 0.0
O140 O 0.67179 0.4288 0.80591 0.0
C141 C 0.70669 0.36158 0.86171 0.0
O142 O 0.68431 0.36416 0.85786 0.0
C143 C 0.66652 0.48996 0.79971 0.0
C144 C 0.69233 0.51796 0.79436 0.0
C145 C 0.66883 0.51271 0.79224 0.0
N146 N 0.68768 0.48212 0.80569 0.0
N147 N 0.703 0.499 0.80247 0.0
C148 C 0.64451 0.47619 0.80219 0.0
H149 H 0.64569 0.46482 0.81665 0.0
H150 H 0.62917 0.48783 0.80377 0.0
H151 H 0.64212 0.46493 0.78775 0.0
C152 C 0.71014 0.43482 0.87693 0.0
N153 N 0.70611 0.43142 0.85577 0.0
N154 N 0.70046 0.45133 0.84658 0.0
C155 C 0.70082 0.46816 0.86192 0.0
C156 C 0.70695 0.45816 0.8816 0.0
C157 C 0.71862 0.41626 0.89198 0.0
H158 H 0.73557 0.40949 0.88607 0.0
H159 H 0.706 0.40159 0.89201 0.0
H160 H 0.72074 0.42286 0.90875 0.0
O161 O 0.7363 0.41092 0.81813 0.0
O162 O 0.72624 0.44323 0.8007 0.0
H163 H 0.7118 0.50024 0.84779 0.0
H164 H 0.69594 0.50358 0.87286 0.0
C165 C 0.69706 0.49348 0.85758 0.0
H166 H 0.6808 0.49581 0.84811 0.0
H167 H 0.72083 0.49747 0.80559 0.0
O168 O 0.7208 0.37749 0.85587 0.0
C169 C 0.74033 0.42642 0.80391 0.0
Co170 Co 0.08698 0.70697 0.34115 0.0
Co171 Co 0.03941 0.69528 0.3181 0.0
C172 C 0.08241 0.66536 0.31269 0.0
O173 O 0.09413 0.67798 0.32566 0.0
O174 O 0.06131 0.6702 0.30801 0.0
C175 C 0.13075 0.70191 0.36371 0.0
O176 O 0.12828 0.6797 0.35908 0.0
C177 C 0.00033 0.66634 0.30254 0.0
C178 C 0.97336 0.69268 0.29557 0.0
C179 C 0.97792 0.669 0.29426 0.0
N180 N 0.00866 0.68745 0.30812 0.0
N181 N 0.99238 0.70309 0.304 0.0
C182 C 0.01333 0.6441 0.30615 0.0
H183 H 0.02458 0.64568 0.32069 0.0
H184 H 0.00112 0.62925 0.30826 0.0
H185 H 0.02467 0.64062 0.29198 0.0
C186 C 0.05723 0.7066 0.37962 0.0
N187 N 0.06024 0.70337 0.35829 0.0
N188 N 0.04 0.69892 0.34908 0.0
C189 C 0.02329 0.69945 0.36451 0.0
C190 C 0.03374 0.70414 0.38439 0.0
C191 C 0.07631 0.71432 0.39458 0.0
H192 H 0.08482 0.73012 0.38788 0.0
H193 H 0.08969 0.70043 0.39558 0.0
H194 H 0.0698 0.71832 0.41104 0.0
O195 O 0.08231 0.73241 0.32023 0.0
O196 O 0.04874 0.7251 0.30365 0.0
H197 H 0.9915 0.71105 0.35023 0.0
H198 H 0.98768 0.6955 0.37545 0.0
C199 C -0.00216 0.69629 0.36019 0.0
H200 H -0.00494 0.68002 0.35082 0.0
H201 H 0.99441 0.72096 0.30661 0.0
O202 O 0.11474 0.71609 0.35839 0.0
C203 C 0.06676 0.73782 0.30643 0.0
Co204 Co 0.78156 0.08756 0.83835 0.0
Co205 Co 0.79243 0.03933 0.81612 0.0
C206 C 0.82226 0.08232 0.80897 0.0
O207 O 0.8101 0.09428 0.82205 0.0
O208 O 0.81723 0.0611 0.80494 0.0
C209 C 0.78874 0.13052 0.86128 0.0
O210 O 0.81089 0.12579 0.85817 0.0
C211 C 0.82056 -0.00204 0.80358 0.0
C212 C 0.79321 0.97505 0.79011 0.0
C213 C 0.81716 0.97672 0.79297 0.0
N214 N 0.79965 0.00823 0.80649 0.0
N215 N 0.78341 0.99422 0.79866 0.0
C216 C 0.84326 0.00904 0.80974 0.0
H217 H 0.84079 0.02729 0.81494 0.0
H218 H 0.85088 -0.00054 0.8236 0.0
H219 H 0.85568 0.00827 0.79599 0.0
C220 C 0.78046 0.05835 0.87711 0.0
N221 N 0.78504 0.06112 0.85598 0.0
N222 N 0.78897 0.04065 0.84707 0.0
C223 C 0.78668 0.02407 0.86246 0.0
C224 C 0.78101 0.03478 0.88201 0.0
C225 C 0.77459 0.07803 0.89205 0.0
H226 H 0.75725 0.08515 0.88767 0.0
H227 H 0.78766 0.09212 0.89014 0.0
H228 H 0.77443 0.07241 0.90922 0.0
O229 O 0.7556 0.08256 0.8179 0.0
O230 O 0.76238 0.04853 0.80203 0.0
H231 H 0.77389 -0.00563 0.84527 0.0
H232 H 0.78347 0.98805 0.87255 0.0
C233 C 0.78709 -0.00151 0.85784 0.0
H234 H 0.80444 0.9937 0.85127 0.0
H235 H 0.76564 -0.00183 0.7984 0.0
O236 O 0.77341 0.11595 0.85504 0.0
C237 C 0.74985 0.06667 0.80454 0.0
Co238 Co 0.40342 0.78078 0.34095 0.0
Co239 Co 0.45086 0.79214 0.31756 0.0
C240 C 0.40801 0.82238 0.31265 0.0
O241 O 0.39638 0.80996 0.32579 0.0
O242 O 0.42896 0.81728 0.30767 0.0
C243 C 0.36101 0.78695 0.36506 0.0
O244 O 0.36542 0.80922 0.36233 0.0
C245 C 0.48977 0.82129 0.30216 0.0
C246 C 0.5166 0.79513 0.29422 0.0
C247 C 0.51204 0.81883 0.29355 0.0
N248 N 0.4815 0.80005 0.30734 0.0
N249 N 0.49769 0.78451 0.30262 0.0
C250 C 0.47683 0.84345 0.30636 0.0
H251 H 0.46578 0.84156 0.32098 0.0
H252 H 0.48907 0.85825 0.30861 0.0
H253 H 0.4653 0.84723 0.29238 0.0
C254 C 0.43387 0.77891 0.37889 0.0
N255 N 0.43044 0.78373 0.35788 0.0
N256 N 0.4506 0.78815 0.34853 0.0
C257 C 0.46764 0.78616 0.36356 0.0
C258 C 0.45755 0.78006 0.38326 0.0
C259 C 0.41477 0.77218 0.39416 0.0
H260 H 0.40062 0.78527 0.39329 0.0
H261 H 0.42106 0.77109 0.4111 0.0
H262 H 0.40743 0.75509 0.38919 0.0
O263 O 0.40769 0.75542 0.31982 0.0
O264 O 0.44123 0.7624 0.30308 0.0
H265 H 0.50383 0.7865 0.3735 0.0
H266 H 0.49691 0.80405 0.35 0.0
C267 C 0.49311 0.78751 0.35859 0.0
H268 H 0.49786 0.77292 0.34768 0.0
H269 H 0.49567 0.76657 0.3048 0.0
O270 O 0.37557 0.77201 0.35817 0.0
C271 C 0.4231 0.74986 0.30594 0.0
Co272 Co 0.27301 0.90357 0.83728 0.0
Co273 Co 0.29074 0.95081 0.81735 0.0
C274 C 0.31685 0.90611 0.81087 0.0
O275 O 0.30209 0.89517 0.82238 0.0
O276 O 0.31468 0.92784 0.80723 0.0
C277 C 0.27531 0.86298 0.86477 0.0
O278 O 0.29625 0.8706 0.86975 0.0
C279 C 0.32164 0.98882 0.80219 0.0
C280 C 0.29713 0.01835 0.80012 0.0
C281 C 0.32006 0.01211 0.79614 0.0
N282 N 0.30055 0.98161 0.8091 0.0
N283 N 0.28603 -0.00058 0.80789 0.0
C284 C 0.34301 0.97392 0.80249 0.0
H285 H 0.34341 0.96309 0.78762 0.0
H286 H 0.34256 0.96213 0.81669 0.0
H287 H 0.35908 0.98471 0.80318 0.0
C288 C 0.27281 0.93156 0.87716 0.0
N289 N 0.27754 0.92904 0.856 0.0
N290 N 0.28562 0.94883 0.8482 0.0
C291 C 0.2868 0.96449 0.86454 0.0
C292 C 0.27881 0.95399 0.88347 0.0
C293 C 0.26014 0.91372 0.89039 0.0
H294 H 0.24785 0.90376 0.88007 0.0
H295 H 0.27295 0.90148 0.89752 0.0
H296 H 0.25015 0.92197 0.90371 0.0
O297 O 0.24881 0.91126 0.81615 0.0
O298 O 0.26088 0.94434 0.80123 0.0
H299 H 0.28159 -0.00033 0.85459 0.0
H300 H 0.30024 -0.00341 0.87795 0.0
C301 C 0.29548 0.98892 0.86207 0.0
H302 H 0.3109 0.98921 0.85125 0.0
H303 H 0.26841 -0.00147 0.81205 0.0
O304 O 0.26252 0.87488 0.85216 0.0
C305 C 0.24602 0.92785 0.80279 0.0
Co306 Co 0.58619 0.27954 0.33946 0.0
Co307 Co 0.53847 0.29236 0.31703 0.0
C308 C 0.58208 0.32172 0.31176 0.0
O309 O 0.59378 0.30863 0.32426 0.0
O310 O 0.56077 0.31735 0.30746 0.0
C311 C 0.62827 0.28511 0.36428 0.0
O312 O 0.62322 0.30739 0.36321 0.0
C313 C 0.49971 0.32077 0.29923 0.0
C314 C 0.47108 0.29501 0.29788 0.0
C315 C 0.47648 0.31799 0.29314 0.0
N316 N 0.50749 0.30045 0.30741 0.0
N317 N 0.49023 0.28517 0.30654 0.0
C318 C 0.51524 0.34124 0.29487 0.0
H319 H 0.52921 0.33575 0.2836 0.0
H320 H 0.52356 0.34698 0.31018 0.0
H321 H 0.5059 0.356 0.28734 0.0
C322 C 0.55677 0.27924 0.37823 0.0
N323 N 0.55963 0.28305 0.35695 0.0
N324 N 0.53939 0.28814 0.34805 0.0
C325 C 0.5229 0.28772 0.3637 0.0
C326 C 0.53343 0.28217 0.38333 0.0
C327 C 0.57572 0.27053 0.3928 0.0
H328 H 0.58494 0.25588 0.38485 0.0
H329 H 0.58853 0.28474 0.39558 0.0
H330 H 0.56888 0.26448 0.4086 0.0
O331 O 0.58088 0.25447 0.31834 0.0
O332 O 0.54742 0.26267 0.30196 0.0
H333 H 0.48971 0.27671 0.35191 0.0
H334 H 0.48825 0.29525 0.37545 0.0
C335 C 0.49754 0.29212 0.35997 0.0
H336 H 0.49532 0.30741 0.34922 0.0
H337 H 0.49168 0.26783 0.31145 0.0
O338 O 0.61425 0.27036 0.35609 0.0
C339 C 0.56517 0.24959 0.3045 0.0
Co340 Co 0.21551 0.5861 0.83653 0.0
Co341 Co 0.19725 0.53898 0.81666 0.0
C342 C 0.17116 0.58369 0.8107 0.0
O343 O 0.18618 0.59457 0.822 0.0
O344 O 0.17315 0.56195 0.80699 0.0
C345 C 0.21366 0.62657 0.86426 0.0
O346 O 0.1928 0.6189 0.86946 0.0
C347 C 0.16641 0.50091 0.80133 0.0
C348 C 0.19096 0.47138 0.7996 0.0
C349 C 0.16806 0.47758 0.79539 0.0
N350 N 0.18743 0.50816 0.80841 0.0
N351 N 0.20197 0.49036 0.80739 0.0
C352 C 0.14504 0.51582 0.80135 0.0
H353 H 0.14524 0.52754 0.81562 0.0
H354 H 0.12896 0.50504 0.80172 0.0
H355 H 0.14492 0.52672 0.78654 0.0
C356 C 0.21626 0.55802 0.8763 0.0
N357 N 0.21124 0.5606 0.8552 0.0
N358 N 0.20291 0.54087 0.84744 0.0
C359 C 0.20185 0.52521 0.86376 0.0
C360 C 0.21019 0.53563 0.88263 0.0
C361 C 0.22921 0.57578 0.88944 0.0
H362 H 0.24136 0.58573 0.87901 0.0
H363 H 0.21656 0.58804 0.89679 0.0
H364 H 0.23938 0.56744 0.90259 0.0
O365 O 0.23941 0.57842 0.81507 0.0
O366 O 0.22672 0.54557 0.80007 0.0
H367 H 0.20661 0.4899 0.85396 0.0
H368 H 0.18801 0.49336 0.87729 0.0
C369 C 0.19285 0.50088 0.86137 0.0
H370 H 0.17743 0.50071 0.85055 0.0
H371 H 0.21955 0.49127 0.81172 0.0
O372 O 0.22624 0.61474 0.8514 0.0
C373 C 0.24175 0.56192 0.80153 0.0
Co374 Co 0.9019 0.20617 0.33977 0.0
Co375 Co 0.94946 0.19517 0.31663 0.0
C376 C 0.90668 0.16432 0.312 0.0
O377 O 0.89495 0.17662 0.32517 0.0
O378 O 0.92754 0.16977 0.3069 0.0
C379 C 0.85852 0.2012 0.36303 0.0
O380 O 0.8611 0.17888 0.35897 0.0
C381 C 0.98844 0.16624 0.30125 0.0
C382 C 0.01513 0.19262 0.29326 0.0
C383 C 0.01066 0.16888 0.29254 0.0
N384 N 0.98012 0.18742 0.3065 0.0
N385 N -0.00376 0.20309 0.30177 0.0
C386 C 0.9756 0.144 0.30554 0.0
H387 H 0.96454 0.1459 0.32016 0.0
H388 H 0.98791 0.12932 0.30787 0.0
H389 H 0.96408 0.14003 0.29158 0.0
C390 C 0.93215 0.20743 0.37804 0.0
N391 N 0.92892 0.20359 0.35681 0.0
N392 N 0.94913 0.19936 0.3475 0.0
C393 C 0.96601 0.20071 0.36272 0.0
C394 C 0.95576 0.2057 0.38259 0.0
C395 C 0.91311 0.21494 0.39306 0.0
H396 H 0.90439 0.23058 0.38634 0.0
H397 H 0.89988 0.20087 0.3942 0.0
H398 H 0.91974 0.2191 0.40947 0.0
O399 O 0.90585 0.2309 0.3179 0.0
O400 O 0.93997 0.22473 0.30202 0.0
H401 H -0.00265 0.21273 0.34782 0.0
H402 H 0.00186 0.19791 0.37331 0.0
C403 C 0.99147 0.19807 0.35816 0.0
H404 H 0.99446 0.18165 0.34911 0.0
H405 H 0.99416 0.221 0.304 0.0
O406 O 0.87429 0.21541 0.35708 0.0
C407 C 0.9214 0.23667 0.30422 0.0
Co408 Co 0.27479 0.58434 0.14266 0.0
Co409 Co 0.29111 0.53709 0.16359 0.0
C410 C 0.31772 0.58159 0.17037 0.0
O411 O 0.30341 0.59258 0.15847 0.0
O412 O 0.31521 0.55988 0.17405 0.0
C413 C 0.27982 0.62707 0.11915 0.0
O414 O 0.30219 0.62262 0.12104 0.0
C415 C 0.32115 0.49875 0.17923 0.0
C416 C 0.29596 0.46974 0.18174 0.0
C417 C 0.31908 0.47557 0.18554 0.0
N418 N 0.30018 0.50627 0.17235 0.0
N419 N 0.28526 0.48878 0.17383 0.0
C420 C 0.34286 0.51324 0.17861 0.0
H421 H 0.34244 0.52501 0.16439 0.0
H422 H 0.35864 0.50213 0.17773 0.0
H423 H 0.34376 0.5241 0.19345 0.0
C424 C 0.27575 0.55618 0.10318 0.0
N425 N 0.2797 0.55864 0.12447 0.0
N426 N 0.28687 0.53873 0.13264 0.0
C427 C 0.28804 0.5229 0.11644 0.0
C428 C 0.28112 0.5335 0.09719 0.0
C429 C 0.26452 0.57457 0.08952 0.0
H430 H 0.25059 0.58337 0.09887 0.0
H431 H 0.2778 0.58778 0.08503 0.0
H432 H 0.25668 0.56722 0.0746 0.0
O433 O 0.24979 0.57723 0.16325 0.0
O434 O 0.26099 0.54427 0.17891 0.0
H435 H 0.28122 0.48818 0.12698 0.0
H436 H 0.30008 0.49001 0.10364 0.0
C437 C 0.2956 0.49819 0.11936 0.0
H438 H 0.31093 0.4975 0.13028 0.0
H439 H 0.26764 0.48994 0.1697 0.0
O440 O 0.26509 0.61254 0.12653 0.0
C441 C 0.24643 0.56092 0.1768 0.0
Co442 Co 0.90317 0.28011 0.6395 0.0
Co443 Co 0.95109 0.29294 0.66162 0.0
C444 C 0.90734 0.3213 0.66861 0.0
O445 O 0.89561 0.30837 0.65595 0.0
O446 O 0.92881 0.31728 0.67238 0.0
C447 C 0.86046 0.28645 0.61618 0.0
O448 O 0.86546 0.30866 0.6185 0.0
C449 C 0.98999 0.32179 0.6786 0.0
C450 C 0.01804 0.29569 0.68185 0.0
C451 C 0.01294 0.31896 0.68548 0.0
N452 N 0.98208 0.30117 0.67109 0.0
N453 N -0.001 0.28571 0.67304 0.0
C454 C 0.97471 0.34266 0.68163 0.0
H455 H 0.96128 0.33852 0.69394 0.0
H456 H 0.96562 0.34666 0.66622 0.0
H457 H 0.98441 0.35818 0.68727 0.0
C458 C 0.9321 0.28017 0.60059 0.0
N459 N 0.92938 0.28458 0.62176 0.0
N460 N 0.94977 0.28944 0.63052 0.0
C461 C 0.96623 0.28821 0.61487 0.0
C462 C 0.95554 0.28205 0.59543 0.0
C463 C 0.9126 0.27307 0.58586 0.0
H464 H 0.8983 0.28596 0.5871 0.0
H465 H 0.91828 0.27206 0.56874 0.0
H466 H 0.90568 0.25589 0.59104 0.0
O467 O 0.90928 0.25409 0.65943 0.0
O468 O 0.94269 0.26268 0.67588 0.0
H469 H 0.0018 0.29123 0.60356 0.0
H470 H -0.00457 0.30602 0.62878 0.0
C471 C 0.99185 0.29027 0.61892 0.0
H472 H -0.00221 0.27482 0.62816 0.0
H473 H -0.00268 0.26815 0.66891 0.0
O474 O 0.87484 0.2713 0.62298 0.0
C475 C 0.92528 0.24917 0.67294 0.0
Co476 Co 0.21464 0.90333 0.14337 0.0
Co477 Co 0.19798 0.95041 0.16432 0.0
C478 C 0.17153 0.90591 0.17089 0.0
O479 O 0.18599 0.89499 0.15908 0.0
O480 O 0.1739 0.92762 0.17461 0.0
C481 C 0.20891 0.86193 0.11833 0.0
O482 O 0.18695 0.86844 0.11825 0.0
C483 C 0.1675 0.9885 0.17948 0.0
C484 C 0.19262 0.01734 0.18369 0.0
C485 C 0.16935 0.01148 0.1865 0.0
N486 N 0.18871 0.98111 0.17319 0.0
N487 N 0.20361 -0.00149 0.17565 0.0
C488 C 0.14582 0.97408 0.17762 0.0
H489 H 0.14702 0.96242 0.16333 0.0
H490 H 0.13015 0.98526 0.17604 0.0
H491 H 0.14402 0.9631 0.19229 0.0
C492 C 0.21377 0.93162 0.10392 0.0
N493 N 0.2097 0.92902 0.12517 0.0
N494 N 0.20235 0.94885 0.1334 0.0
C495 C 0.20117 0.96475 0.11729 0.0
C496 C 0.20827 0.95428 0.09802 0.0
C497 C 0.22524 0.91342 0.0902 0.0
H498 H 0.2386 0.90405 0.09978 0.0
H499 H 0.21191 0.90065 0.08479 0.0
H500 H 0.23381 0.92112 0.0758 0.0
O501 O 0.2397 0.91053 0.16395 0.0
O502 O 0.22803 0.94329 0.17976 0.0
H503 H 0.20759 -0.00062 0.12835 0.0
H504 H 0.18922 -0.00226 0.10463 0.0
C505 C 0.19344 0.98939 0.12034 0.0
H506 H 0.17788 0.98987 0.13098 0.0
H507 H 0.22139 -0.0026 0.17218 0.0
O508 O 0.224 0.87493 0.12738 0.0
C509 C 0.2428 0.92684 0.1776 0.0
Co510 Co 0.58534 0.20949 0.63989 0.0
Co511 Co 0.53783 0.19624 0.66256 0.0
C512 C 0.58168 0.16733 0.66761 0.0
O513 O 0.59312 0.18049 0.65494 0.0
O514 O 0.5604 0.17148 0.67213 0.0
C515 C 0.62874 0.20521 0.6169 0.0
O516 O 0.62588 0.18282 0.62046 0.0
C517 C 0.49933 0.16726 0.68019 0.0
C518 C 0.47094 0.19306 0.68293 0.0
C519 C 0.4763 0.16992 0.68691 0.0
N520 N 0.50701 0.18783 0.67239 0.0
N521 N 0.48991 0.20312 0.6741 0.0
C522 C 0.51486 0.14665 0.68365 0.0
H523 H 0.52894 0.15161 0.69506 0.0
H524 H 0.52308 0.14166 0.66809 0.0
H525 H 0.50555 0.13152 0.69061 0.0
C526 C 0.55559 0.21076 0.60157 0.0
N527 N 0.55866 0.20593 0.62262 0.0
N528 N 0.53845 0.20072 0.63154 0.0
C529 C 0.52175 0.20213 0.61609 0.0
C530 C 0.53211 0.20878 0.59666 0.0
C531 C 0.57484 0.21814 0.58671 0.0
H532 H 0.58937 0.2055 0.58785 0.0
H533 H 0.56894 0.21907 0.56964 0.0
H534 H 0.58151 0.23544 0.59185 0.0
O535 O 0.5801 0.23438 0.66121 0.0
O536 O 0.54667 0.226 0.67758 0.0
H537 H 0.48622 0.19809 0.60496 0.0
H538 H 0.49307 0.18377 0.63029 0.0
C539 C 0.49622 0.19948 0.62028 0.0
H540 H 0.48994 0.21491 0.62936 0.0
H541 H 0.49138 0.22062 0.66972 0.0
O542 O 0.61304 0.21938 0.62296 0.0
C543 C 0.56442 0.23917 0.67506 0.0
H544 H 0.67875 0.94269 0.21459 0.0
H545 H 0.65133 0.91657 0.2329 0.0
H546 H 0.594 0.94959 0.19984 0.0
H547 H 0.62146 0.975 0.18075 0.0
H548 H 0.61555 0.92681 0.26046 0.0
H549 H 0.58129 0.88157 0.18773 0.0
H550 H 0.60695 0.8998 0.18693 0.0
H551 H 0.57837 0.91266 0.18661 0.0
C552 C 0.6603 0.9443 0.21116 0.0
C553 C 0.65222 0.96125 0.19659 0.0
C554 C 0.64464 0.92942 0.22169 0.0
C555 C 0.62059 0.93098 0.21767 0.0
C556 C 0.61248 0.94783 0.20303 0.0
H557 H 0.49995 0.85649 0.26858 0.0
H558 H 0.52607 0.88466 0.25134 0.0
C559 C 0.62816 0.96264 0.19241 0.0
C560 C 0.60407 0.91518 0.22908 0.0
H561 H 0.56196 0.87385 0.22091 0.0
C562 C 0.60389 0.91518 0.25181 0.0
C563 C 0.58884 0.89998 0.21779 0.0
C564 C 0.58896 0.89828 0.19343 0.0
C565 C 0.58874 0.90062 0.26352 0.0
C566 C 0.57353 0.88547 0.25223 0.0
C567 C 0.57358 0.88555 0.22953 0.0
C568 C 0.55771 0.86907 0.26366 0.0
C569 C 0.58887 0.9018 0.2879 0.0
C570 C 0.56682 0.85087 0.27622 0.0
C571 C 0.55191 0.83482 0.28621 0.0
C572 C 0.52759 0.83677 0.28397 0.0
C573 C 0.51853 0.85497 0.2713 0.0
C574 C 0.53345 0.87094 0.26122 0.0
H575 H 0.59732 0.918 0.29389 0.0
H576 H 0.57085 0.90091 0.29441 0.0
H577 H 0.59874 0.88673 0.29438 0.0
H578 H 0.5855 0.84881 0.27797 0.0
H579 H 0.55941 0.8208 0.29563 0.0
H580 H 0.63301 0.50125 0.76467 0.0
H581 H 0.6056 0.52776 0.74699 0.0
H582 H 0.63755 0.58604 0.77972 0.0
H583 H 0.66514 0.55961 0.79728 0.0
H584 H 0.57308 0.55811 0.76271 0.0
H585 H 0.64091 0.60662 0.71738 0.0
H586 H 0.64697 0.57969 0.73128 0.0
H587 H 0.64576 0.6067 0.74604 0.0
C588 C 0.63391 0.51964 0.76844 0.0
C589 C 0.65104 0.52832 0.78261 0.0
C590 C 0.61836 0.53482 0.75816 0.0
C591 C 0.61974 0.55895 0.76173 0.0
C592 C 0.63648 0.56757 0.77629 0.0
H593 H 0.54169 0.67976 0.71908 0.0
H594 H 0.5678 0.6521 0.73707 0.0
C595 C 0.65214 0.55243 0.78643 0.0
C596 C 0.60373 0.57511 0.75019 0.0
H597 H 0.60267 0.62266 0.71692 0.0
C598 C 0.57955 0.57213 0.75259 0.0
C599 C 0.61217 0.59336 0.73688 0.0
C600 C 0.63786 0.59669 0.73253 0.0
C601 C 0.56362 0.58722 0.74249 0.0
C602 C 0.5721 0.60566 0.72952 0.0
C603 C 0.59624 0.60857 0.72698 0.0
C604 C 0.5562 0.62227 0.71854 0.0
C605 C 0.53785 0.58367 0.74613 0.0
C606 C 0.54137 0.61475 0.70186 0.0
C607 C 0.52656 0.63056 0.69145 0.0
C608 C 0.52611 0.6541 0.69775 0.0
C609 C 0.54142 0.66167 0.71409 0.0
C610 C 0.55631 0.6459 0.72439 0.0
H611 H 0.53434 0.57174 0.75991 0.0
H612 H 0.52909 0.60057 0.74928 0.0
H613 H 0.52996 0.57596 0.73137 0.0
H614 H 0.54146 0.59672 0.69669 0.0
H615 H 0.51574 0.62441 0.67827 0.0
H616 H 0.98958 0.63138 0.2689 0.0
H617 H 0.96312 0.604 0.25103 0.0
H618 H 0.90415 0.64001 0.27835 0.0
H619 H 0.93056 0.66744 0.29638 0.0
H620 H 0.92925 0.57382 0.2675 0.0
H621 H 0.8895 0.6402 0.2138 0.0
H622 H 0.91581 0.64565 0.22903 0.0
H623 H 0.88782 0.64728 0.24205 0.0
C624 C 0.97102 0.63318 0.27156 0.0
C625 C 0.96218 0.65136 0.28441 0.0
C626 C 0.9559 0.61763 0.26112 0.0
C627 C 0.93164 0.62011 0.26312 0.0
C628 C 0.92278 0.63801 0.27624 0.0
H629 H 0.8107 0.54724 0.21241 0.0
H630 H 0.83797 0.57303 0.23143 0.0
C631 C 0.93789 0.65359 0.28662 0.0
C632 C 0.91564 0.6041 0.25136 0.0
H633 H 0.87182 0.60278 0.21389 0.0
C634 C 0.91676 0.58012 0.2557 0.0
C635 C 0.8994 0.61234 0.23591 0.0
C636 C 0.89814 0.63774 0.22973 0.0
C637 C 0.90172 0.56422 0.24539 0.0
C638 C 0.88535 0.57251 0.23009 0.0
C639 C 0.88432 0.59647 0.22567 0.0
C640 C 0.86898 0.55666 0.2186 0.0
C641 C 0.90308 0.53877 0.25133 0.0
C642 C 0.87733 0.53917 0.20474 0.0
C643 C 0.86177 0.52445 0.19382 0.0
C644 C 0.83757 0.52687 0.19666 0.0
C645 C 0.82926 0.54478 0.21011 0.0
C646 C 0.84481 0.5595 0.221 0.0
H647 H 0.91241 0.53608 0.26688 0.0
H648 H 0.88538 0.53102 0.25263 0.0
H649 H 0.9127 0.52926 0.23852 0.0
H650 H 0.89589 0.5371 0.20214 0.0
H651 H 0.86867 0.51144 0.18288 0.0
H652 H 0.98806 0.85281 0.71736 0.0
H653 H 0.96165 0.8795 0.7361 0.0
H654 H 0.90338 0.85042 0.70106 0.0
H655 H 0.92972 0.82342 0.68256 0.0
H656 H 0.933 0.91328 0.72205 0.0
H657 H 0.88048 0.84475 0.76216 0.0
H658 H 0.9075 0.83846 0.74844 0.0
H659 H 0.88085 0.84157 0.73331 0.0
C660 C 0.96968 0.85235 0.7134 0.0
C661 C 0.96098 0.83623 0.69827 0.0
C662 C 0.95456 0.8675 0.72426 0.0
C663 C 0.93044 0.86674 0.7203 0.0
C664 C 0.92182 0.85095 0.70484 0.0
H665 H 0.81155 0.94943 0.75736 0.0
H666 H 0.83957 0.92298 0.74066 0.0
C667 C 0.93689 0.83566 0.69415 0.0
C668 C 0.91437 0.88256 0.73221 0.0
H669 H 0.86521 0.8834 0.76352 0.0
C670 C 0.91831 0.90672 0.73126 0.0
C671 C 0.89525 0.87402 0.7444 0.0
C672 C 0.89088 0.84828 0.74736 0.0
C673 C 0.9033 0.92252 0.74163 0.0
C674 C 0.88389 0.91397 0.75327 0.0
C675 C 0.88007 0.88987 0.75447 0.0
C676 C 0.86698 0.92984 0.76381 0.0
C677 C 0.9079 0.94832 0.73971 0.0
C678 C 0.87296 0.94213 0.78264 0.0
C679 C 0.85685 0.95713 0.79244 0.0
C680 C 0.83454 0.96036 0.78342 0.0
C681 C 0.82856 0.94755 0.76476 0.0
C682 C 0.84458 0.93245 0.75511 0.0
H683 H 0.92194 0.95226 0.72788 0.0
H684 H 0.89177 0.95754 0.7347 0.0
H685 H 0.91319 0.95531 0.75572 0.0
H686 H 0.89004 0.93996 0.78985 0.0
H687 H 0.86188 0.96571 0.80726 0.0
H688 H 0.35268 0.00049 0.76549 0.0
H689 H 0.38058 0.02642 0.74757 0.0
H690 H 0.35442 0.08444 0.78457 0.0
H691 H 0.32674 0.0585 0.80284 0.0
H692 H 0.36891 0.06715 0.72281 0.0
H693 H 0.42626 0.08819 0.79261 0.0
H694 H 0.40697 0.06326 0.79239 0.0
H695 H 0.39556 0.09189 0.79736 0.0
C696 C 0.3533 0.01863 0.77026 0.0
C697 C 0.33793 0.02734 0.78602 0.0
C698 C 0.36907 0.03348 0.75981 0.0
C699 C 0.36984 0.05729 0.76498 0.0
C700 C 0.35445 0.06605 0.78064 0.0
H701 H 0.44778 0.1778 0.72121 0.0
H702 H 0.42174 0.15015 0.73932 0.0
C703 C 0.33858 0.05124 0.79099 0.0
C704 C 0.38597 0.07317 0.75331 0.0
H705 H 0.43205 0.11015 0.76061 0.0
C706 C 0.38282 0.07646 0.73101 0.0
C707 C 0.40401 0.08535 0.76409 0.0
C708 C 0.40862 0.08192 0.7879 0.0
C709 C 0.39687 0.09207 0.71927 0.0
C710 C 0.41496 0.10429 0.73004 0.0
C711 C 0.4182 0.10082 0.75234 0.0
C712 C 0.43052 0.12103 0.71862 0.0
C713 C 0.39168 0.09585 0.6956 0.0
C714 C 0.44415 0.11392 0.70093 0.0
C715 C 0.45887 0.12979 0.69043 0.0
C716 C 0.46069 0.15291 0.69775 0.0
C717 C 0.4469 0.16003 0.71533 0.0
C718 C 0.43208 0.14423 0.72573 0.0
H719 H 0.37359 0.09052 0.69143 0.0
H720 H 0.39409 0.11441 0.69103 0.0
H721 H 0.40379 0.08516 0.68576 0.0
H722 H 0.44351 0.09607 0.69529 0.0
H723 H 0.46866 0.12399 0.67646 0.0
H724 H 0.44662 0.30936 0.25991 0.0
H725 H 0.42048 0.33685 0.2417 0.0
H726 H 0.44378 0.39171 0.28425 0.0
H727 H 0.46954 0.36416 0.30285 0.0
H728 H 0.38409 0.36471 0.26078 0.0
H729 H 0.45306 0.41877 0.22224 0.0
H730 H 0.45862 0.38986 0.23253 0.0
H731 H 0.4561 0.41401 0.25085 0.0
C732 C 0.4462 0.3273 0.26534 0.0
C733 C 0.46069 0.3348 0.28233 0.0
C734 C 0.4313 0.34298 0.25492 0.0
C735 C 0.43058 0.36643 0.2613 0.0
C736 C 0.44454 0.37383 0.27867 0.0
H737 H 0.35262 0.48682 0.21556 0.0
H738 H 0.37973 0.46041 0.23372 0.0
C739 C 0.45936 0.35812 0.28918 0.0
C740 C 0.41478 0.38297 0.2501 0.0
H741 H 0.41415 0.43161 0.21828 0.0
C742 C 0.39063 0.37931 0.25144 0.0
C743 C 0.42339 0.40207 0.23804 0.0
C744 C 0.44921 0.40643 0.23561 0.0
C745 C 0.3748 0.39441 0.24125 0.0
C746 C 0.38339 0.41335 0.22889 0.0
C747 C 0.40757 0.41707 0.22768 0.0
C748 C 0.36755 0.42948 0.21713 0.0
C749 C 0.34901 0.39022 0.24426 0.0
C750 C 0.35199 0.421 0.20142 0.0
C751 C 0.33654 0.43609 0.19095 0.0
C752 C 0.33665 0.46006 0.19565 0.0
C753 C 0.35255 0.4686 0.21108 0.0
C754 C 0.36792 0.45346 0.22164 0.0
H755 H 0.34543 0.37954 0.25887 0.0
H756 H 0.33938 0.40691 0.2457 0.0
H757 H 0.34212 0.38061 0.23004 0.0
H758 H 0.35172 0.40266 0.1973 0.0
H759 H 0.32448 0.42901 0.17916 0.0
H760 H 0.02195 0.36446 0.67441 0.0
H761 H 0.04753 0.39216 0.69329 0.0
H762 H 0.06618 0.33877 0.73911 0.0
H763 H 0.0402 0.31123 0.72067 0.0
H764 H 0.04578 0.40558 0.73927 0.0
H765 H 0.12944 0.36418 0.71545 0.0
H766 H 0.10239 0.35862 0.70136 0.0
H767 H 0.10804 0.34487 0.7269 0.0
C768 C 0.03112 0.3588 0.68878 0.0
C769 C 0.02858 0.33588 0.69644 0.0
C770 C 0.0459 0.37455 0.6994 0.0
C771 C 0.05878 0.3675 0.71756 0.0
C772 C 0.05655 0.34452 0.72502 0.0
H773 H 0.16133 0.43126 0.80227 0.0
H774 H 0.13383 0.40517 0.78392 0.0
C775 C 0.04169 0.32883 0.7145 0.0
C776 C 0.07442 0.38417 0.72887 0.0
H777 H 0.13152 0.39445 0.7414 0.0
C778 C 0.06455 0.40327 0.73967 0.0
C779 C 0.09886 0.38101 0.72942 0.0
C780 C 0.11042 0.36119 0.71754 0.0
C781 C 0.07844 0.41903 0.75144 0.0
C782 C 0.10293 0.41589 0.752 0.0
C783 C 0.11277 0.39684 0.74104 0.0
C784 C 0.11874 0.43208 0.76383 0.0
C785 C 0.06667 0.43848 0.76369 0.0
C786 C 0.11955 0.45589 0.75859 0.0
C787 C 0.13513 0.47084 0.76918 0.0
C788 C 0.15032 0.46227 0.78516 0.0
C789 C 0.14966 0.43841 0.79021 0.0
C790 C 0.13398 0.42349 0.77972 0.0
H791 H 0.04796 0.43458 0.76672 0.0
H792 H 0.0754 0.44171 0.77945 0.0
H793 H 0.0676 0.4547 0.75398 0.0
H794 H 0.10854 0.46281 0.74591 0.0
H795 H 0.13584 0.48893 0.76429 0.0
H796 H 0.05809 0.16784 0.2936 0.0
H797 H 0.08417 0.14026 0.27548 0.0
H798 H 0.02466 0.10266 0.25081 0.0
H799 H -0.00144 0.13049 0.26829 0.0
H800 H 0.0879 0.0914 0.27974 0.0
H801 H 0.06306 0.11716 0.1963 0.0
H802 H 0.0558 0.1345 0.21971 0.0
H803 H 0.03904 0.10891 0.21331 0.0
C804 C 0.05057 0.15362 0.2844 0.0
C805 C 0.02624 0.15112 0.28276 0.0
C806 C 0.06549 0.13786 0.27409 0.0
C807 C 0.05637 0.11951 0.26165 0.0
C808 C 0.03208 0.11681 0.26016 0.0
H809 H 0.13401 -0.00083 0.21434 0.0
H810 H 0.10599 0.02493 0.23204 0.0
C811 C 0.01716 0.13254 0.2705 0.0
C812 C 0.0723 0.10335 0.2501 0.0
H813 H 0.0881 0.08457 0.19973 0.0
C814 C 0.08795 0.08988 0.26225 0.0
C815 C 0.07253 0.10162 0.22726 0.0
C816 C 0.05688 0.11645 0.21331 0.0
C817 C 0.10364 0.07453 0.25219 0.0
C818 C 0.10349 0.07239 0.22938 0.0
C819 C 0.08802 0.08606 0.21722 0.0
C820 C 0.1197 0.05653 0.21781 0.0
C821 C 0.1206 0.06109 0.26604 0.0
C822 C 0.1363 0.06564 0.20342 0.0
C823 C 0.15213 0.05089 0.19301 0.0
C824 C 0.15144 0.0267 0.1965 0.0
C825 C 0.13459 0.0176 0.21072 0.0
C826 C 0.11879 0.03236 0.22117 0.0
H827 H 0.1223 0.06877 0.28247 0.0
H828 H 0.11428 0.0429 0.26784 0.0
H829 H 0.13812 0.06055 0.25842 0.0
H830 H 0.1373 0.08424 0.20057 0.0
H831 H 0.165 0.05844 0.18226 0.0
H832 H 0.65393 0.12608 0.15603 0.0
H833 H 0.62897 0.15176 0.17731 0.0
H834 H 0.61908 0.09734 0.22443 0.0
H835 H 0.64394 0.07132 0.20309 0.0
H836 H 0.57773 0.12759 0.21557 0.0
H837 H 0.65954 0.17563 0.23462 0.0
H838 H 0.65351 0.17184 0.20631 0.0
H839 H 0.65957 0.14686 0.22285 0.0
C840 C 0.64609 0.11935 0.17069 0.0
C841 C 0.65122 0.09673 0.17803 0.0
C842 C 0.6318 0.13407 0.18281 0.0
C843 C 0.62251 0.12655 0.20258 0.0
C844 C 0.62613 0.10345 0.2092 0.0
H845 H 0.5938 0.21286 0.31225 0.0
H846 H 0.60436 0.18156 0.28756 0.0
C847 C 0.64035 0.0886 0.19698 0.0
C848 C 0.61164 0.14362 0.21746 0.0
H849 H 0.62459 0.19144 0.24802 0.0
C850 C 0.58788 0.14159 0.22268 0.0
C851 C 0.62506 0.16168 0.22687 0.0
C852 C 0.65088 0.16413 0.22258 0.0
C853 C 0.57717 0.15737 0.23702 0.0
C854 C 0.59059 0.17559 0.24617 0.0
C855 C 0.61431 0.17751 0.24091 0.0
C856 C 0.581 0.19245 0.26204 0.0
C857 C 0.55179 0.15418 0.24266 0.0
C858 C 0.56385 0.2087 0.25612 0.0
C859 C 0.55763 0.22672 0.27034 0.0
C860 C 0.56873 0.22887 0.29055 0.0
C861 C 0.58508 0.21189 0.29673 0.0
C862 C 0.59111 0.19391 0.28265 0.0
H863 H 0.54519 0.13675 0.23776 0.0
H864 H 0.54901 0.15645 0.26031 0.0
H865 H 0.54133 0.1676 0.23415 0.0
H866 H 0.55608 0.20812 0.24016 0.0
H867 H 0.54505 0.23958 0.26509 0.0
H868 H 0.24401 0.54632 0.75966 0.0
H869 H 0.27482 0.5551 0.73321 0.0
H870 H 0.3151 0.58897 0.78306 0.0
H871 H 0.28437 0.58076 0.80934 0.0
H872 H 0.28868 0.60707 0.72924 0.0
H873 H 0.36233 0.54669 0.74549 0.0
H874 H 0.33228 0.53899 0.75088 0.0
H875 H 0.34738 0.55869 0.76856 0.0
C876 C 0.25972 0.55507 0.76506 0.0
C877 C 0.26176 0.563 0.7865 0.0
C878 C 0.27726 0.56008 0.74996 0.0
C879 C 0.29726 0.5725 0.75628 0.0
C880 C 0.29993 0.57911 0.77796 0.0
H881 H 0.41264 0.65003 0.70661 0.0
H882 H 0.38676 0.62361 0.72646 0.0
C883 C 0.2823 0.57452 0.79291 0.0
C884 C 0.31369 0.58176 0.73998 0.0
H885 H 0.37047 0.5797 0.72352 0.0
C886 C 0.30646 0.60087 0.72762 0.0
C887 C 0.33691 0.57385 0.73837 0.0
C888 C 0.3453 0.55333 0.75141 0.0
C889 C 0.32212 0.61298 0.71431 0.0
C890 C 0.3455 0.60516 0.71266 0.0
C891 C 0.35255 0.58559 0.72465 0.0
C892 C 0.36308 0.61805 0.69964 0.0
C893 C 0.3137 0.63485 0.70321 0.0
C894 C 0.35904 0.62281 0.67769 0.0
C895 C 0.37349 0.63826 0.6665 0.0
C896 C 0.39271 0.64865 0.67685 0.0
C897 C 0.39797 0.64225 0.69823 0.0
C898 C 0.38317 0.62718 0.70958 0.0
H899 H 0.29761 0.6418 0.71084 0.0
H900 H 0.32724 0.6487 0.70358 0.0
H901 H 0.30956 0.63084 0.68607 0.0
H902 H 0.34411 0.61536 0.66945 0.0
H903 H 0.36923 0.64262 0.64992 0.0
H904 H 0.88095 0.26104 0.3003 0.0
H905 H 0.87254 0.29346 0.27635 0.0
H906 H 0.94331 0.29215 0.25276 0.0
H907 H 0.95178 0.25886 0.27641 0.0
H908 H 0.89027 0.33659 0.27371 0.0
H909 H 0.90688 0.28867 0.19697 0.0
H910 H 0.90534 0.27409 0.22274 0.0
H911 H 0.93096 0.29039 0.2155 0.0
C912 C 0.89484 0.26757 0.29008 0.0
C913 C 0.91703 0.25718 0.2902 0.0
C914 C 0.88998 0.28622 0.2764 0.0
C915 C 0.90718 0.29511 0.26254 0.0
C916 C 0.92961 0.28527 0.26297 0.0
H917 H 0.85562 0.41978 0.19267 0.0
H918 H 0.88295 0.39592 0.2136 0.0
C919 C 0.93445 0.26633 0.27658 0.0
C920 C 0.90094 0.31433 0.24752 0.0
H921 H 0.892 0.3265 0.1941 0.0
C922 C 0.89093 0.33457 0.25628 0.0
C923 C 0.90182 0.31163 0.22478 0.0
C924 C 0.91165 0.28999 0.21434 0.0
C925 C 0.88042 0.35144 0.24306 0.0
C926 C 0.88059 0.34836 0.22033 0.0
C927 C 0.89194 0.32886 0.21151 0.0
C928 C 0.86624 0.36311 0.20575 0.0
C929 C 0.86781 0.37148 0.25368 0.0
C930 C 0.84852 0.35257 0.1935 0.0
C931 C 0.83321 0.36606 0.1813 0.0
C932 C 0.83508 0.3905 0.18114 0.0
C933 C 0.85348 0.40104 0.19265 0.0
C934 C 0.86905 0.38742 0.20473 0.0
H935 H 0.86548 0.36874 0.27133 0.0
H936 H 0.87807 0.38771 0.25142 0.0
H937 H 0.85037 0.37406 0.24626 0.0
H938 H 0.846 0.33386 0.19396 0.0
H939 H 0.81936 0.35725 0.17258 0.0
H940 H 0.20495 0.9055 0.80995 0.0
H941 H 0.17385 0.89784 0.78392 0.0
H942 H 0.20982 0.93916 0.73622 0.0
H943 H 0.24115 0.9472 0.7624 0.0
H944 H 0.14547 0.93207 0.75228 0.0
H945 H 0.2052 0.86567 0.71672 0.0
H946 H 0.20845 0.87533 0.74435 0.0
H947 H 0.2161 0.89447 0.7226 0.0
C948 C 0.20607 0.91338 0.79407 0.0
C949 C 0.22563 0.92676 0.78813 0.0
C950 C 0.1882 0.90909 0.77927 0.0
C951 C 0.18962 0.91789 0.75821 0.0
C952 C 0.20844 0.93232 0.75249 0.0
H953 H 0.11703 0.84957 0.6524 0.0
H954 H 0.14132 0.8775 0.67196 0.0
C955 C 0.22628 0.93689 0.76744 0.0
C956 C 0.17299 0.9093 0.74175 0.0
H957 H 0.1667 0.86601 0.70447 0.0
C958 C 0.1501 0.91788 0.74151 0.0
C959 C 0.17917 0.89081 0.72784 0.0
C960 C 0.20352 0.88085 0.72776 0.0
C961 C 0.13304 0.90811 0.72785 0.0
C962 C 0.13895 0.88882 0.71464 0.0
C963 C 0.1621 0.8808 0.71451 0.0
C964 C 0.12146 0.87564 0.70168 0.0
C965 C 0.10895 0.91859 0.72774 0.0
C966 C 0.10166 0.86581 0.71158 0.0
C967 C 0.08743 0.85015 0.70023 0.0
C968 C 0.09314 0.84357 0.679 0.0
C969 C 0.1123 0.8542 0.66881 0.0
C970 C 0.1262 0.87018 0.67998 0.0
H971 H 0.10953 0.93737 0.7321 0.0
H972 H 0.10047 0.91675 0.71168 0.0
H973 H 0.09803 0.9096 0.73998 0.0
H974 H 0.09791 0.86919 0.72845 0.0
H975 H 0.07289 0.84206 0.70853 0.0
H976 H 0.59528 0.27464 0.66891 0.0
H977 H 0.60538 0.30581 0.69401 0.0
H978 H 0.55237 0.28207 0.73822 0.0
H979 H 0.54193 0.25054 0.71302 0.0
H980 H 0.55997 0.33637 0.73055 0.0
H981 H 0.63741 0.28374 0.75365 0.0
H982 H 0.6323 0.28694 0.72509 0.0
H983 H 0.61181 0.27101 0.74133 0.0
C984 C 0.58548 0.27613 0.68382 0.0
C985 C 0.56799 0.25985 0.68909 0.0
C986 C 0.59124 0.29405 0.6981 0.0
C987 C 0.57974 0.29608 0.71797 0.0
C988 C 0.5614 0.28075 0.72289 0.0
H989 H 0.64905 0.36659 0.8238 0.0
H990 H 0.62311 0.34101 0.80344 0.0
C991 C 0.5555 0.26274 0.7085 0.0
C992 C 0.58875 0.3127 0.73428 0.0
H993 H 0.63643 0.32271 0.76589 0.0
C994 C 0.57654 0.33337 0.73852 0.0
C995 C 0.61026 0.30856 0.74472 0.0
C996 C 0.62371 0.2863 0.74117 0.0
C997 C 0.58575 0.3504 0.75256 0.0
C998 C 0.60779 0.34667 0.76228 0.0
C999 C 0.61955 0.32564 0.75844 0.0
C1000 C 0.61958 0.36429 0.77614 0.0
C1001 C 0.57181 0.37216 0.75688 0.0
C1002 C 0.62567 0.3863 0.76789 0.0
C1003 C 0.64041 0.40115 0.77966 0.0
C1004 C 0.64961 0.39401 0.79966 0.0
C1005 C 0.64245 0.37252 0.80834 0.0
C1006 C 0.62757 0.35787 0.79673 0.0
H1007 H 0.55294 0.36933 0.75371 0.0
H1008 H 0.57405 0.37813 0.77385 0.0
H1009 H 0.57795 0.38623 0.74598 0.0
H1010 H 0.62013 0.39147 0.75186 0.0
H1011 H 0.6457 0.41755 0.7725 0.0
H1012 H 0.20645 0.58506 0.16945 0.0
H1013 H 0.17534 0.5935 0.19522 0.0
H1014 H 0.20875 0.54995 0.2427 0.0
H1015 H 0.24008 0.54112 0.21683 0.0
H1016 H 0.14608 0.55742 0.22809 0.0
H1017 H 0.20573 0.62585 0.26078 0.0
H1018 H 0.20759 0.61683 0.23286 0.0
H1019 H 0.21684 0.59743 0.25385 0.0
C1020 C 0.20699 0.57685 0.18522 0.0
C1021 C 0.22586 0.5626 0.19119 0.0
C1022 C 0.18912 0.58161 0.19986 0.0
C1023 C 0.18982 0.57235 0.22078 0.0
C1024 C 0.2079 0.5571 0.22652 0.0
H1025 H 0.11953 0.64065 0.32753 0.0
H1026 H 0.14368 0.61332 0.30727 0.0
C1027 C 0.22575 0.55211 0.21175 0.0
C1028 C 0.17337 0.58126 0.2372 0.0
H1029 H 0.16737 0.62549 0.27352 0.0
C1030 C 0.15072 0.57208 0.23831 0.0
C1031 C 0.17958 0.60036 0.2504 0.0
C1032 C 0.20372 0.61085 0.24956 0.0
C1033 C 0.13391 0.58181 0.25221 0.0
C1034 C 0.13984 0.60161 0.2648 0.0
C1035 C 0.16276 0.6103 0.26397 0.0
C1036 C 0.12261 0.61448 0.27823 0.0
C1037 C 0.11008 0.57073 0.2533 0.0
C1038 C 0.10222 0.62371 0.26895 0.0
C1039 C 0.0881 0.63907 0.28069 0.0
C1040 C 0.09448 0.64592 0.30171 0.0
C1041 C 0.11427 0.63584 0.31129 0.0
C1042 C 0.12808 0.62019 0.29973 0.0
H1043 H 0.11083 0.55193 0.24907 0.0
H1044 H 0.10229 0.57254 0.26966 0.0
H1045 H 0.09842 0.57936 0.24144 0.0
H1046 H 0.09788 0.62009 0.25224 0.0
H1047 H 0.07307 0.64671 0.27283 0.0
H1048 H 0.9405 0.24086 0.71429 0.0
H1049 H 0.93001 0.20767 0.73729 0.0
H1050 H 0.89389 0.17578 0.68361 0.0
H1051 H 0.90347 0.20922 0.66096 0.0
H1052 H 0.86646 0.17881 0.71718 0.0
H1053 H 0.95029 0.14124 0.74467 0.0
H1054 H 0.94808 0.17185 0.75017 0.0
H1055 H 0.94853 0.16175 0.7226 0.0
C1056 C 0.93078 0.2265 0.70732 0.0
C1057 C 0.92263 0.22769 0.6859 0.0
C1058 C 0.92491 0.20745 0.72043 0.0
C1059 C 0.91129 0.18907 0.71216 0.0
C1060 C 0.90436 0.18973 0.69039 0.0
H1061 H 0.84379 0.06822 0.7715 0.0
H1062 H 0.86893 0.09202 0.74812 0.0
C1063 C 0.90983 0.20887 0.67746 0.0
C1064 C 0.90172 0.17067 0.7266 0.0
H1065 H 0.91599 0.12933 0.76418 0.0
C1066 C 0.87739 0.16781 0.72719 0.0
C1067 C 0.91591 0.15632 0.73977 0.0
C1068 C 0.94216 0.15776 0.73915 0.0
C1069 C 0.86686 0.15139 0.74081 0.0
C1070 C 0.88097 0.13753 0.75435 0.0
C1071 C 0.90529 0.14005 0.7537 0.0
C1072 C 0.87016 0.12138 0.77003 0.0
C1073 C 0.84063 0.14918 0.74102 0.0
C1074 C 0.86318 0.12985 0.79024 0.0
C1075 C 0.84873 0.11647 0.8035 0.0
C1076 C 0.84102 0.09431 0.79678 0.0
C1077 C 0.84942 0.0852 0.77715 0.0
C1078 C 0.8638 0.09872 0.76379 0.0
H1079 H 0.83216 0.16074 0.72895 0.0
H1080 H 0.8355 0.13089 0.73756 0.0
H1081 H 0.83389 0.15366 0.75733 0.0
H1082 H 0.86785 0.14736 0.79523 0.0
H1083 H 0.84276 0.12396 0.8186 0.0
H1084 H 0.24732 0.94346 0.21898 0.0
H1085 H 0.27891 0.93461 0.24457 0.0
H1086 H 0.31592 0.89796 0.19438 0.0
H1087 H 0.2844 0.90628 0.16892 0.0
H1088 H 0.29164 0.88183 0.24907 0.0
H1089 H 0.36562 0.94102 0.22956 0.0
H1090 H 0.33551 0.9492 0.22529 0.0
H1091 H 0.34924 0.92888 0.20735 0.0
C1092 C 0.26247 0.93404 0.21329 0.0
C1093 C 0.26334 0.92541 0.19201 0.0
C1094 C 0.28046 0.929 0.2279 0.0
C1095 C 0.29976 0.91581 0.22125 0.0
C1096 C 0.30129 0.9084 0.19971 0.0
H1097 H 0.41547 0.83887 0.27173 0.0
H1098 H 0.38976 0.86479 0.25117 0.0
C1099 C 0.2832 0.91306 0.18524 0.0
C1100 C 0.3166 0.9067 0.23725 0.0
H1101 H 0.37375 0.90902 0.25266 0.0
C1102 C 0.30951 0.88798 0.25019 0.0
C1103 C 0.33993 0.91453 0.2382 0.0
C1104 C 0.34817 0.9346 0.22447 0.0
C1105 C 0.32535 0.87623 0.26356 0.0
C1106 C 0.34881 0.88405 0.26466 0.0
C1107 C 0.35577 0.90316 0.25198 0.0
C1108 C 0.36646 0.87167 0.27797 0.0
C1109 C 0.31699 0.85477 0.27542 0.0
C1110 C 0.36262 0.8679 0.30011 0.0
C1111 C 0.37695 0.85274 0.31172 0.0
C1112 C 0.39584 0.84165 0.30156 0.0
C1113 C 0.40101 0.84716 0.27995 0.0
C1114 C 0.38632 0.86195 0.26819 0.0
H1115 H 0.30077 0.84757 0.26817 0.0
H1116 H 0.33047 0.84091 0.27533 0.0
H1117 H 0.3131 0.85939 0.29246 0.0
H1118 H 0.34789 0.87583 0.3082 0.0
H1119 H 0.37278 0.84908 0.32846 0.0
H1120 H 0.443 0.7503 0.71324 0.0
H1121 H 0.43178 0.78146 0.73846 0.0
H1122 H 0.38211 0.80722 0.69198 0.0
H1123 H 0.39294 0.77631 0.66689 0.0
H1124 H 0.4269 0.83449 0.73362 0.0
H1125 H 0.34437 0.78574 0.74726 0.0
H1126 H 0.36986 0.77241 0.73545 0.0
H1127 H 0.35155 0.79095 0.71938 0.0
C1128 C 0.43002 0.76287 0.70825 0.0
C1129 C 0.41861 0.7606 0.6882 0.0
C1130 C 0.42367 0.78066 0.72266 0.0
C1131 C 0.40594 0.79641 0.71713 0.0
C1132 C 0.39567 0.79507 0.6966 0.0
H1133 H 0.34265 0.91783 0.77504 0.0
H1134 H 0.36805 0.89199 0.75408 0.0
C1135 C 0.40186 0.77733 0.68232 0.0
C1136 C 0.39628 0.81274 0.73335 0.0
H1137 H 0.34653 0.82384 0.76167 0.0
C1138 C 0.40942 0.83215 0.73995 0.0
C1139 C 0.37358 0.80944 0.7417 0.0
C1140 C 0.35903 0.78842 0.73577 0.0
C1141 C 0.40008 0.84875 0.75432 0.0
C1142 C 0.37701 0.84587 0.762 0.0
C1143 C 0.3642 0.82611 0.75574 0.0
C1144 C 0.36533 0.86301 0.77635 0.0
C1145 C 0.41498 0.86911 0.76123 0.0
C1146 C 0.35561 0.85547 0.79596 0.0
C1147 C 0.34089 0.87003 0.80775 0.0
C1148 C 0.33558 0.89253 0.80024 0.0
C1149 C 0.34648 0.90065 0.78131 0.0
C1150 C 0.36111 0.88592 0.76936 0.0
H1151 H 0.43384 0.86547 0.7589 0.0
H1152 H 0.41043 0.88453 0.75128 0.0
H1153 H 0.4119 0.87355 0.77847 0.0
H1154 H 0.35861 0.83789 0.80167 0.0
H1155 H 0.33294 0.8633 0.82237 0.0
H1156 H 0.74617 0.43396 0.22138 0.0
H1157 H 0.71399 0.42316 0.24568 0.0
H1158 H 0.66948 0.41135 0.19046 0.0
H1159 H 0.70181 0.42096 0.16627 0.0
H1160 H 0.66808 0.43528 0.25404 0.0
H1161 H 0.6728 0.3473 0.21711 0.0
H1162 H 0.69422 0.36956 0.21176 0.0
H1163 H 0.6667 0.36968 0.19772 0.0
C1164 C 0.72932 0.42963 0.21453 0.0
C1165 C 0.72645 0.428 0.19203 0.0
C1166 C 0.71098 0.42341 0.22839 0.0
C1167 C 0.68956 0.41578 0.21984 0.0
C1168 C 0.68607 0.41651 0.19739 0.0
H1169 H 0.56991 0.34335 0.27393 0.0
H1170 H 0.59391 0.37014 0.2526 0.0
C1171 C 0.70446 0.42216 0.18359 0.0
C1172 C 0.67178 0.40477 0.23402 0.0
H1173 H 0.64202 0.35383 0.24173 0.0
C1174 C 0.66235 0.41749 0.25136 0.0
C1175 C 0.66455 0.38141 0.23069 0.0
C1176 C 0.67525 0.3661 0.21347 0.0
C1177 C 0.6456 0.40752 0.26521 0.0
C1178 C 0.63815 0.38438 0.26153 0.0
C1179 C 0.64753 0.37173 0.24424 0.0
C1180 C 0.62177 0.37213 0.27612 0.0
C1181 C 0.63589 0.4217 0.28364 0.0
C1182 C 0.62936 0.36473 0.29653 0.0
C1183 C 0.6158 0.34927 0.30866 0.0
C1184 C 0.59436 0.34101 0.30062 0.0
C1185 C 0.58619 0.34953 0.28069 0.0
C1186 C 0.59991 0.36481 0.26846 0.0
H1187 H 0.64028 0.44048 0.28209 0.0
H1188 H 0.61664 0.41972 0.28447 0.0
H1189 H 0.64325 0.4152 0.29911 0.0
H1190 H 0.64634 0.36991 0.30257 0.0
H1191 H 0.62256 0.34308 0.32398 0.0
H1192 H 0.04367 0.73918 0.71342 0.0
H1193 H 0.05495 0.70797 0.73852 0.0
H1194 H 0.10851 0.68589 0.69417 0.0
H1195 H 0.09762 0.71685 0.66921 0.0
H1196 H 0.06208 0.65579 0.73284 0.0
H1197 H 0.14218 0.70649 0.7517 0.0
H1198 H 0.11703 0.71934 0.73885 0.0
H1199 H 0.13693 0.70187 0.72336 0.0
C1200 C 0.05758 0.72743 0.70887 0.0
C1201 C 0.06998 0.73075 0.68945 0.0
C1202 C 0.06397 0.70961 0.7232 0.0
C1203 C 0.08274 0.69487 0.71826 0.0
C1204 C 0.09414 0.69727 0.69835 0.0
H1205 H 0.14594 0.57281 0.77431 0.0
H1206 H 0.12061 0.59903 0.75375 0.0
C1207 C 0.08789 0.71504 0.68413 0.0
C1208 C 0.09204 0.67837 0.73451 0.0
H1209 H 0.14073 0.66766 0.7645 0.0
C1210 C 0.07916 0.65841 0.73998 0.0
C1211 C 0.1142 0.68203 0.74395 0.0
C1212 C 0.12836 0.70368 0.73936 0.0
C1213 C 0.08829 0.64157 0.75421 0.0
C1214 C 0.11094 0.64477 0.76289 0.0
C1215 C 0.12341 0.66512 0.75782 0.0
C1216 C 0.12257 0.62729 0.77693 0.0
C1217 C 0.07361 0.62063 0.75988 0.0
C1218 C 0.13189 0.63427 0.7969 0.0
C1219 C 0.14665 0.61951 0.80845 0.0
C1220 C 0.15233 0.59735 0.80034 0.0
C1221 C 0.14178 0.58972 0.78104 0.0
C1222 C 0.12719 0.60467 0.76932 0.0
H1223 H 0.05475 0.62414 0.75741 0.0
H1224 H 0.07855 0.60587 0.74924 0.0
H1225 H 0.07643 0.61527 0.77694 0.0
H1226 H 0.12858 0.65161 0.80312 0.0
H1227 H 0.15434 0.62584 0.82336 0.0
H1228 H 0.87094 0.13807 0.32762 0.0
H1229 H 0.84645 0.11076 0.30751 0.0
H1230 H 0.88963 0.12046 0.25106 0.0
H1231 H 0.91483 0.14696 0.2715 0.0
H1232 H 0.82098 0.12339 0.27535 0.0
H1233 H 0.87758 0.05248 0.24574 0.0
H1234 H 0.88685 0.07244 0.26664 0.0
H1235 H 0.88921 0.0804 0.23853 0.0
C1236 C 0.8756 0.13384 0.3111 0.0
C1237 C 0.89473 0.14471 0.30109 0.0
C1238 C 0.86158 0.11823 0.29961 0.0
C1239 C 0.86618 0.11338 0.27775 0.0
C1240 C 0.88598 0.12337 0.26803 0.0
H1241 H 0.78099 0.08652 0.16945 0.0
H1242 H 0.81217 0.09432 0.19537 0.0
C1243 C 0.90033 0.13867 0.27969 0.0
C1244 C 0.84854 0.10069 0.26453 0.0
H1245 H 0.84154 0.05851 0.22593 0.0
C1246 C 0.82544 0.10885 0.26494 0.0
C1247 C 0.85426 0.08174 0.25083 0.0
C1248 C 0.87829 0.07111 0.25058 0.0
C1249 C 0.80824 0.09931 0.25146 0.0
C1250 C 0.81423 0.08116 0.2371 0.0
C1251 C 0.83707 0.07244 0.23703 0.0
C1252 C 0.79739 0.07295 0.22066 0.0
C1253 C 0.78393 0.10934 0.25191 0.0
C1254 C 0.77906 0.05783 0.22619 0.0
C1255 C 0.76117 0.0532 0.21132 0.0
C1256 C 0.76126 0.06392 0.19087 0.0
C1257 C 0.78029 0.07815 0.18513 0.0
C1258 C 0.79821 0.08254 0.19986 0.0
H1259 H 0.78229 0.12401 0.26354 0.0
H1260 H 0.77906 0.11563 0.23555 0.0
H1261 H 0.77128 0.09554 0.25651 0.0
H1262 H 0.77814 0.05039 0.24226 0.0
H1263 H 0.74673 0.04221 0.21622 0.0
H1264 H 0.44427 0.73765 0.26761 0.0
H1265 H 0.43273 0.7059 0.24311 0.0
H1266 H 0.38098 0.68328 0.28911 0.0
H1267 H 0.3921 0.71482 0.31345 0.0
H1268 H 0.42664 0.65381 0.24905 0.0
H1269 H 0.34494 0.70267 0.23276 0.0
H1270 H 0.37024 0.71609 0.24494 0.0
H1271 H 0.35126 0.69804 0.2609 0.0
C1272 C 0.43071 0.72567 0.27264 0.0
C1273 C 0.41884 0.729 0.29232 0.0
C1274 C 0.42418 0.70753 0.25866 0.0
C1275 C 0.40581 0.69248 0.26423 0.0
C1276 C 0.39501 0.69489 0.28443 0.0
H1277 H 0.34225 0.57013 0.20705 0.0
H1278 H 0.36738 0.59607 0.22835 0.0
C1279 C 0.40138 0.71299 0.29829 0.0
C1280 C 0.39622 0.67571 0.24833 0.0
H1281 H 0.34694 0.66414 0.21934 0.0
C1282 C 0.4093 0.65607 0.24238 0.0
C1283 C 0.3737 0.67889 0.23952 0.0
C1284 C 0.35924 0.70015 0.24467 0.0
C1285 C 0.40009 0.63917 0.22819 0.0
C1286 C 0.37722 0.64199 0.22001 0.0
C1287 C 0.36445 0.66193 0.22566 0.0
C1288 C 0.36577 0.6247 0.20561 0.0
C1289 C 0.41493 0.61858 0.22195 0.0
C1290 C 0.3568 0.632 0.18563 0.0
C1291 C 0.34224 0.6174 0.17364 0.0
C1292 C 0.33635 0.59509 0.18132 0.0
C1293 C 0.34654 0.58717 0.20066 0.0
C1294 C 0.36101 0.60195 0.2128 0.0
H1295 H 0.43375 0.62207 0.22478 0.0
H1296 H 0.40983 0.60334 0.23192 0.0
H1297 H 0.41234 0.61394 0.20468 0.0
H1298 H 0.36024 0.64945 0.17975 0.0
H1299 H 0.33487 0.62397 0.15871 0.0
H1300 H 0.74547 0.43671 0.76092 0.0
H1301 H 0.77789 0.42484 0.73741 0.0
H1302 H 0.81505 0.39873 0.79299 0.0
H1303 H 0.78238 0.4095 0.81625 0.0
H1304 H 0.82491 0.43259 0.73389 0.0
H1305 H 0.80835 0.34072 0.75708 0.0
H1306 H 0.78886 0.364 0.76443 0.0
H1307 H 0.81496 0.35884 0.7799 0.0
C1308 C 0.76075 0.42878 0.7681 0.0
C1309 C 0.7613 0.42366 0.79031 0.0
C1310 C 0.77923 0.42199 0.75468 0.0
C1311 C 0.79859 0.41027 0.76337 0.0
C1312 C 0.79997 0.40705 0.78583 0.0
H1313 H 0.9195 0.34161 0.70717 0.0
H1314 H 0.89508 0.36698 0.72964 0.0
C1315 C 0.78136 0.41334 0.79912 0.0
C1316 C 0.81646 0.39979 0.74895 0.0
H1317 H 0.84205 0.3479 0.736 0.0
C1318 C 0.82866 0.41408 0.73435 0.0
C1319 C 0.82114 0.37554 0.74933 0.0
C1320 C 0.80747 0.35885 0.76335 0.0
C1321 C 0.84564 0.40476 0.72039 0.0
C1322 C 0.85057 0.38071 0.72123 0.0
C1323 C 0.83842 0.36645 0.73574 0.0
C1324 C 0.86714 0.3694 0.70626 0.0
C1325 C 0.85822 0.42049 0.70475 0.0
C1326 C 0.8596 0.36277 0.6856 0.0
C1327 C 0.87334 0.34812 0.67285 0.0
C1328 C 0.89493 0.33993 0.68052 0.0
C1329 C 0.90306 0.34776 0.70073 0.0
C1330 C 0.88914 0.36222 0.7136 0.0
H1331 H 0.8539 0.43915 0.70734 0.0
H1332 H 0.87736 0.41814 0.7064 0.0
H1333 H 0.8534 0.41562 0.68795 0.0
H1334 H 0.84255 0.36796 0.6798 0.0
H1335 H 0.86662 0.34248 0.65732 0.0
H1336 H 0.04454 0.75017 0.26863 0.0
H1337 H 0.05571 0.78169 0.24378 0.0
H1338 H 0.1092 0.80378 0.28833 0.0
H1339 H 0.09842 0.77253 0.31305 0.0
H1340 H 0.06303 0.83418 0.25006 0.0
H1341 H 0.1426 0.78329 0.23043 0.0
H1342 H 0.11735 0.77038 0.24311 0.0
H1343 H 0.13736 0.78758 0.25881 0.0
C1344 C 0.0584 0.762 0.27329 0.0
C1345 C 0.07082 0.7586 0.29268 0.0
C1346 C 0.06472 0.78 0.2591 0.0
C1347 C 0.08344 0.79483 0.26416 0.0
C1348 C 0.09485 0.79235 0.28406 0.0
H1349 H 0.14736 0.91686 0.20785 0.0
H1350 H 0.12215 0.89076 0.22881 0.0
C1351 C 0.08867 0.77441 0.29814 0.0
C1352 C 0.09275 0.81144 0.24801 0.0
H1353 H 0.14124 0.82211 0.2177 0.0
C1354 C 0.08002 0.83153 0.24277 0.0
C1355 C 0.11479 0.80774 0.23839 0.0
C1356 C 0.1288 0.786 0.24277 0.0
C1357 C 0.08917 0.84841 0.22858 0.0
C1358 C 0.11168 0.84513 0.21968 0.0
C1359 C 0.12402 0.8247 0.22455 0.0
C1360 C 0.12326 0.86257 0.20552 0.0
C1361 C 0.07465 0.86948 0.22315 0.0
C1362 C 0.13206 0.85556 0.18537 0.0
C1363 C 0.14674 0.87024 0.1736 0.0
C1364 C 0.15287 0.89233 0.18167 0.0
C1365 C 0.14286 0.89998 0.20117 0.0
C1366 C 0.12833 0.88511 0.21311 0.0
H1367 H 0.05579 0.86616 0.22593 0.0
H1368 H 0.08001 0.88421 0.23369 0.0
H1369 H 0.0772 0.87481 0.20605 0.0
H1370 H 0.12839 0.83828 0.17917 0.0
H1371 H 0.15398 0.8639 0.15853 0.0
H1372 H 0.73573 0.04199 0.76859 0.0
H1373 H 0.70389 0.05205 0.7437 0.0
H1374 H 0.68495 0.10974 0.78469 0.0
H1375 H 0.7165 0.10003 0.80949 0.0
H1376 H 0.65122 0.06209 0.7516 0.0
H1377 H 0.70523 0.13655 0.72315 0.0
H1378 H 0.71753 0.11184 0.73713 0.0
H1379 H 0.70227 0.13394 0.752 0.0
C1380 C 0.72454 0.05657 0.77249 0.0
C1381 C 0.7289 0.0704 0.79088 0.0
C1382 C 0.70634 0.06225 0.75828 0.0
C1383 C 0.69228 0.08175 0.76232 0.0
C1384 C 0.69575 0.09472 0.78125 0.0
H1385 H 0.57147 0.1469 0.70657 0.0
H1386 H 0.59716 0.12183 0.72793 0.0
C1387 C 0.71387 0.08915 0.79537 0.0
C1388 C 0.67544 0.09013 0.74595 0.0
H1389 H 0.66588 0.1357 0.7118 0.0
C1390 C 0.65443 0.07804 0.74268 0.0
C1391 C 0.67985 0.1108 0.73424 0.0
C1392 C 0.70251 0.12401 0.7366 0.0
C1393 C 0.63733 0.08658 0.72839 0.0
C1394 C 0.64137 0.10783 0.71737 0.0
C1395 C 0.66272 0.11944 0.72025 0.0
C1396 C 0.62372 0.11899 0.70318 0.0
C1397 C 0.61518 0.07281 0.72519 0.0
C1398 C 0.62988 0.12546 0.68205 0.0
C1399 C 0.61541 0.14002 0.66998 0.0
C1400 C 0.59439 0.14837 0.67873 0.0
C1401 C 0.58744 0.1406 0.69931 0.0
C1402 C 0.60209 0.12617 0.71151 0.0
H1403 H 0.61764 0.05416 0.72942 0.0
H1404 H 0.60141 0.07995 0.7359 0.0
H1405 H 0.60897 0.07399 0.70821 0.0
H1406 H 0.64646 0.12015 0.67528 0.0
H1407 H 0.62119 0.14556 0.65411 0.0
H1408 H 0.79049 0.33643 0.0821 0.0
H1409 H 0.77832 0.29702 0.07163 0.0
H1410 H 0.73021 0.29548 0.1253 0.0
H1411 H 0.74128 0.33507 0.13495 0.0
H1412 H 0.78348 0.25871 0.09114 0.0
H1413 H 0.68889 0.26874 0.08113 0.0
H1414 H 0.708 0.29362 0.08347 0.0
H1415 H 0.69662 0.27948 0.10734 0.0
C1416 C 0.77699 0.32778 0.09136 0.0
C1417 C 0.76671 0.33885 0.10923 0.0
C1418 C 0.77004 0.30527 0.08539 0.0
C1419 C 0.75292 0.29335 0.09736 0.0
C1420 C 0.74273 0.30451 0.11523 0.0
H1421 H 0.74632 0.15187 0.13099 0.0
H1422 H 0.75709 0.19172 0.12225 0.0
C1423 C 0.74926 0.32713 0.12088 0.0
C1424 C 0.74722 0.26857 0.09266 0.0
H1425 H 0.70189 0.23001 0.09251 0.0
C1426 C 0.7656 0.25252 0.09094 0.0
C1427 C 0.72395 0.26032 0.09165 0.0
C1428 C 0.70332 0.27656 0.09073 0.0
C1429 C 0.76136 0.22846 0.08995 0.0
C1430 C 0.73817 0.22013 0.09172 0.0
C1431 C 0.71974 0.23623 0.0917 0.0
C1432 C 0.73273 0.19513 0.09562 0.0
C1433 C 0.78188 0.21231 0.08722 0.0
C1434 C 0.71486 0.18379 0.08408 0.0
C1435 C 0.70812 0.16109 0.08955 0.0
C1436 C 0.71933 0.14925 0.10649 0.0
C1437 C 0.73758 0.16039 0.11763 0.0
C1438 C 0.74393 0.18318 0.11248 0.0
H1439 H 0.7957 0.22062 0.07725 0.0
H1440 H 0.7896 0.20858 0.10331 0.0
H1441 H 0.77674 0.19562 0.07947 0.0
H1442 H 0.70581 0.19267 0.07111 0.0
H1443 H 0.69399 0.15292 0.08071 0.0
H1444 H 0.32376 0.67733 0.60037 0.0
H1445 H 0.28384 0.68981 0.59273 0.0
H1446 H 0.30434 0.76152 0.60153 0.0
H1447 H 0.34428 0.74929 0.60895 0.0
H1448 H 0.25792 0.71333 0.62351 0.0
H1449 H 0.26257 0.76502 0.54799 0.0
H1450 H 0.28517 0.74489 0.55596 0.0
H1451 H 0.28385 0.77348 0.56782 0.0
C1452 C 0.31992 0.6958 0.60017 0.0
C1453 C 0.33718 0.71231 0.60543 0.0
C1454 C 0.29709 0.70289 0.5958 0.0
C1455 C 0.29117 0.72659 0.59637 0.0
C1456 C 0.3086 0.74317 0.60057 0.0
H1457 H 0.17023 0.81123 0.61272 0.0
H1458 H 0.20867 0.79519 0.60449 0.0
C1459 C 0.33142 0.73612 0.60498 0.0
C1460 C 0.26639 0.73379 0.59542 0.0
H1461 H 0.22842 0.77036 0.56986 0.0
C1462 C 0.25133 0.72549 0.61156 0.0
C1463 C 0.25797 0.74982 0.57994 0.0
C1464 C 0.27317 0.75868 0.56182 0.0
C1465 C 0.22832 0.73349 0.6132 0.0
C1466 C 0.21997 0.74985 0.59794 0.0
C1467 C 0.23486 0.75777 0.58148 0.0
C1468 C 0.19628 0.75992 0.59978 0.0
C1469 C 0.21355 0.72518 0.6319 0.0
C1470 C 0.17645 0.74558 0.599 0.0
C1471 C 0.15447 0.75464 0.60388 0.0
C1472 C 0.15192 0.77829 0.60938 0.0
C1473 C 0.1716 0.79293 0.60866 0.0
C1474 C 0.19359 0.7838 0.60393 0.0
H1475 H 0.22423 0.71698 0.6448 0.0
H1476 H 0.2036 0.73983 0.63911 0.0
H1477 H 0.20088 0.712 0.62599 0.0
H1478 H 0.17809 0.72719 0.59536 0.0
H1479 H 0.13961 0.74296 0.60402 0.0
H1480 H 0.8168 0.16729 0.87218 0.0
H1481 H 0.8047 0.20717 0.88036 0.0
H1482 H 0.73255 0.18635 0.87606 0.0
H1483 H 0.74442 0.14643 0.86814 0.0
H1484 H 0.77907 0.23298 0.85124 0.0
H1485 H 0.73259 0.22805 0.92965 0.0
H1486 H 0.75213 0.20548 0.92041 0.0
H1487 H 0.72276 0.20688 0.91027 0.0
C1488 C 0.79835 0.17106 0.87345 0.0
C1489 C 0.78157 0.1537 0.86936 0.0
C1490 C 0.79148 0.19387 0.87813 0.0
C1491 C 0.76774 0.19968 0.87902 0.0
C1492 C 0.75096 0.18217 0.8759 0.0
H1493 H 0.68257 0.32098 0.86781 0.0
H1494 H 0.69882 0.28242 0.875 0.0
C1495 C 0.7578 0.15937 0.87121 0.0
C1496 C 0.76053 0.2244 0.88043 0.0
H1497 H 0.72584 0.26228 0.9083 0.0
C1498 C 0.76774 0.23951 0.86391 0.0
C1499 C 0.74559 0.23276 0.89687 0.0
C1500 C 0.73797 0.21751 0.91543 0.0
C1501 C 0.75971 0.26253 0.86287 0.0
C1502 C 0.74446 0.27083 0.87912 0.0
C1503 C 0.7376 0.25588 0.89593 0.0
C1504 C 0.73442 0.29456 0.87804 0.0
C1505 C 0.76681 0.27741 0.84383 0.0
C1506 C 0.74893 0.31428 0.87825 0.0
C1507 C 0.73973 0.33633 0.87398 0.0
C1508 C 0.7158 0.33905 0.86964 0.0
C1509 C 0.70108 0.31948 0.87097 0.0
C1510 C 0.71033 0.29741 0.87511 0.0
H1511 H 0.77414 0.26681 0.83042 0.0
H1512 H 0.75171 0.28742 0.83753 0.0
H1513 H 0.78038 0.29001 0.84905 0.0
H1514 H 0.7675 0.31249 0.88094 0.0
H1515 H 0.7515 0.35109 0.87333 0.0
H1516 H 0.32408 0.81411 0.37713 0.0
H1517 H 0.28438 0.8012 0.38527 0.0
H1518 H 0.30591 0.72959 0.37886 0.0
H1519 H 0.34566 0.74227 0.37101 0.0
H1520 H 0.25862 0.77636 0.3556 0.0
H1521 H 0.26443 0.72705 0.43239 0.0
H1522 H 0.28684 0.74713 0.42369 0.0
H1523 H 0.28557 0.71814 0.41266 0.0
C1524 C 0.32052 0.7956 0.37795 0.0
C1525 C 0.33801 0.77922 0.37327 0.0
C1526 C 0.29781 0.78826 0.38261 0.0
C1527 C 0.29224 0.76444 0.38287 0.0
C1528 C 0.30991 0.74804 0.3792 0.0
H1529 H 0.17167 0.6781 0.36869 0.0
H1530 H 0.21015 0.69455 0.37644 0.0
C1531 C 0.33261 0.75534 0.37454 0.0
C1532 C 0.26757 0.75684 0.38413 0.0
H1533 H 0.23019 0.72047 0.41083 0.0
C1534 C 0.25228 0.76445 0.36789 0.0
C1535 C 0.25944 0.74113 0.40005 0.0
C1536 C 0.27487 0.73304 0.41831 0.0
C1537 C 0.22934 0.75611 0.36663 0.0
C1538 C 0.22129 0.74008 0.38234 0.0
C1539 C 0.2364 0.73281 0.39887 0.0
C1540 C 0.19764 0.72975 0.38096 0.0
C1541 C 0.21427 0.76372 0.34788 0.0
C1542 C 0.17777 0.74394 0.38182 0.0
C1543 C 0.15577 0.73464 0.37724 0.0
C1544 C 0.15326 0.71093 0.37193 0.0
C1545 C 0.17301 0.69645 0.37261 0.0
C1546 C 0.19502 0.70581 0.37706 0.0
H1547 H 0.22471 0.77179 0.33473 0.0
H1548 H 0.20443 0.74874 0.34106 0.0
H1549 H 0.20149 0.77683 0.35363 0.0
H1550 H 0.17939 0.76238 0.38525 0.0
H1551 H 0.14087 0.74621 0.37712 0.0
H1552 H 0.24741 0.65345 0.84606 0.0
H1553 H 0.25808 0.6932 0.85541 0.0
H1554 H 0.20931 0.69201 0.90856 0.0
H1555 H 0.19759 0.65236 0.89844 0.0
H1556 H 0.204 0.72999 0.88813 0.0
H1557 H 0.29848 0.721 0.8999 0.0
H1558 H 0.29129 0.70963 0.87378 0.0
H1559 H 0.27961 0.69592 0.89774 0.0
C1560 C 0.2392 0.66148 0.85996 0.0
C1561 C 0.22168 0.64976 0.87155 0.0
C1562 C 0.2455 0.6842 0.86545 0.0
C1563 C 0.23498 0.69552 0.88306 0.0
C1564 C 0.21783 0.68362 0.895 0.0
H1565 H 0.29196 0.83694 0.89853 0.0
H1566 H 0.28041 0.79721 0.90849 0.0
C1567 C 0.21114 0.66098 0.88923 0.0
C1568 C 0.24037 0.72043 0.88746 0.0
H1569 H 0.28536 0.75939 0.88767 0.0
C1570 C 0.22182 0.73635 0.88854 0.0
C1571 C 0.26354 0.72891 0.8887 0.0
C1572 C 0.28429 0.71286 0.89024 0.0
C1573 C 0.22583 0.76046 0.88911 0.0
C1574 C 0.24899 0.76895 0.8876 0.0
C1575 C 0.26755 0.75303 0.88828 0.0
C1576 C 0.25429 0.7939 0.88333 0.0
C1577 C 0.20512 0.77649 0.89107 0.0
C1578 C 0.24346 0.80535 0.86596 0.0
C1579 C 0.24968 0.82811 0.86058 0.0
C1580 C 0.26739 0.83974 0.87201 0.0
C1581 C 0.27824 0.82839 0.88944 0.0
C1582 C 0.27165 0.8057 0.89513 0.0
H1583 H 0.1911 0.76828 0.90087 0.0
H1584 H 0.20993 0.79338 0.89864 0.0
H1585 H 0.19782 0.77985 0.87474 0.0
H1586 H 0.23071 0.79642 0.85603 0.0
H1587 H 0.24122 0.83624 0.84686 0.0
H1588 H 0.84814 0.24591 0.37481 0.0
H1589 H 0.80973 0.26173 0.38353 0.0
H1590 H 0.77976 0.19297 0.3783 0.0
H1591 H 0.81812 0.17694 0.36999 0.0
H1592 H 0.77389 0.26002 0.35521 0.0
H1593 H 0.74704 0.2176 0.43163 0.0
H1594 H 0.77692 0.21788 0.4224 0.0
H1595 H 0.75649 0.19707 0.41158 0.0
C1596 C 0.83347 0.23406 0.37599 0.0
C1597 C 0.83616 0.21017 0.37156 0.0
C1598 C 0.81153 0.24314 0.381 0.0
C1599 C 0.7919 0.22852 0.38176 0.0
C1600 C 0.79472 0.20452 0.37829 0.0
H1601 H 0.64478 0.24054 0.36695 0.0
H1602 H 0.68476 0.22839 0.37448 0.0
C1603 C 0.81667 0.19539 0.37338 0.0
C1604 C 0.76821 0.2387 0.38336 0.0
H1605 H 0.71637 0.23466 0.41031 0.0
C1606 C 0.76144 0.2548 0.3675 0.0
C1607 C 0.75196 0.23172 0.39931 0.0
C1608 C 0.75852 0.21528 0.41732 0.0
C1609 C 0.73861 0.26341 0.36658 0.0
C1610 C 0.72219 0.25601 0.38221 0.0
C1611 C 0.72905 0.24033 0.3984 0.0
C1612 C 0.69745 0.26322 0.38091 0.0
C1613 C 0.73198 0.27952 0.3483 0.0
C1614 C 0.69119 0.28675 0.38284 0.0
C1615 C 0.66834 0.2938 0.37845 0.0
C1616 C 0.65139 0.2774 0.37214 0.0
C1617 C 0.65744 0.25366 0.37159 0.0
C1618 C 0.68027 0.24665 0.37595 0.0
H1619 H 0.74534 0.27979 0.33529 0.0
H1620 H 0.715 0.27427 0.34112 0.0
H1621 H 0.73015 0.29752 0.35465 0.0
H1622 H 0.70416 0.29975 0.38698 0.0
H1623 H 0.66423 0.31219 0.3792 0.0
H1624 H 0.23523 0.64049 0.10984 0.0
H1625 H 0.22157 0.67979 0.10153 0.0
H1626 H 0.29248 0.70498 0.10314 0.0
H1627 H 0.30631 0.66569 0.11092 0.0
H1628 H 0.22664 0.71563 0.12877 0.0
H1629 H 0.26791 0.73876 0.0508 0.0
H1630 H 0.26635 0.70912 0.06048 0.0
H1631 H 0.28871 0.72853 0.07025 0.0
C1632 C 0.24796 0.6543 0.10797 0.0
C1633 C 0.27185 0.65 0.11115 0.0
C1634 C 0.24013 0.67675 0.10319 0.0
C1635 C 0.256 0.69531 0.10149 0.0
C1636 C 0.27994 0.69087 0.10384 0.0
H1637 H 0.25259 0.84297 0.11665 0.0
H1638 H 0.26267 0.80235 0.10933 0.0
C1639 C 0.28781 0.66839 0.10845 0.0
C1640 C 0.24739 0.7196 0.09997 0.0
H1641 H 0.25387 0.77077 0.07238 0.0
C1642 C 0.23227 0.72757 0.11621 0.0
C1643 C 0.25487 0.7352 0.08365 0.0
C1644 C 0.27018 0.72741 0.06519 0.0
C1645 C 0.22512 0.75088 0.11707 0.0
C1646 C 0.23308 0.7666 0.1011 0.0
C1647 C 0.2478 0.75861 0.08457 0.0
C1648 C 0.2273 0.79167 0.10224 0.0
C1649 C 0.20986 0.75874 0.13558 0.0
C1650 C 0.20418 0.79921 0.09991 0.0
C1651 C 0.19833 0.8224 0.10411 0.0
C1652 C 0.21553 0.83841 0.11071 0.0
C1653 C 0.23889 0.83105 0.11176 0.0
C1654 C 0.24472 0.80787 0.10752 0.0
H1655 H 0.20874 0.74545 0.1486 0.0
H1656 H 0.21658 0.77523 0.14265 0.0
H1657 H 0.19197 0.76204 0.12948 0.0
H1658 H 0.19055 0.78695 0.09561 0.0
H1659 H 0.1802 0.82753 0.10302 0.0
H1660 H 0.63997 0.25019 0.60667 0.0
H1661 H 0.67863 0.26571 0.59826 0.0
H1662 H 0.70723 0.19633 0.60091 0.0
H1663 H 0.66861 0.18061 0.60894 0.0
H1664 H 0.71473 0.26213 0.62636 0.0
H1665 H 0.73989 0.22258 0.5481 0.0
H1666 H 0.71009 0.22308 0.55757 0.0
H1667 H 0.7301 0.20145 0.56746 0.0
C1668 C 0.65439 0.23816 0.60499 0.0
C1669 C 0.65124 0.21417 0.60862 0.0
C1670 C 0.67646 0.24707 0.60016 0.0
C1671 C 0.69578 0.23217 0.59876 0.0
C1672 C 0.69251 0.2081 0.60143 0.0
H1673 H 0.84352 0.24207 0.61213 0.0
H1674 H 0.80327 0.23043 0.60475 0.0
C1675 C 0.67041 0.19915 0.60618 0.0
C1676 C 0.71965 0.242 0.59732 0.0
H1677 H 0.77107 0.23841 0.56964 0.0
C1678 C 0.72693 0.25727 0.61375 0.0
C1679 C 0.73558 0.23547 0.58095 0.0
C1680 C 0.72847 0.21992 0.5624 0.0
C1681 C 0.74992 0.2655 0.61474 0.0
C1682 C 0.766 0.25859 0.59863 0.0
C1683 C 0.75865 0.24371 0.58192 0.0
C1684 C 0.79082 0.26557 0.59981 0.0
C1685 C 0.75709 0.2807 0.63356 0.0
C1686 C 0.79728 0.28912 0.59867 0.0
C1687 C 0.82025 0.29587 0.60298 0.0
C1688 C 0.83715 0.27914 0.60841 0.0
C1689 C 0.8309 0.25542 0.60816 0.0
C1690 C 0.80792 0.24871 0.60389 0.0
H1691 H 0.74396 0.28046 0.64678 0.0
H1692 H 0.77412 0.275 0.64025 0.0
H1693 H 0.75902 0.29895 0.62794 0.0
H1694 H 0.78436 0.30235 0.59521 0.0
H1695 H 0.82452 0.31426 0.60285 0.0
H1696 H 0.73898 0.04118 0.90089 0.0
H1697 H 0.72719 0.02993 0.93735 0.0
H1698 H 0.79177 0.99244 0.94539 0.0
H1699 H 0.80403 0.00462 0.90892 0.0
H1700 H 0.72017 0.98996 0.95926 0.0
H1701 H 0.79526 0.03839 -0.00529 0.0
H1702 H 0.78783 0.04032 0.96644 0.0
H1703 H 0.80278 0.0151 0.97663 0.0
C1704 C 0.75056 0.03035 0.91039 0.0
C1705 C 0.77256 0.02408 0.90234 0.0
C1706 C 0.74378 0.02383 0.93119 0.0
C1707 C 0.7588 0.01079 0.94436 0.0
C1708 C 0.78014 0.00302 0.93574 0.0
H1709 H 0.73825 -0.00123 0.08538 0.0
H1710 H 0.75042 0.98722 0.04871 0.0
C1711 C 0.78703 0.00973 0.91487 0.0
C1712 C 0.75249 0.00704 0.96745 0.0
H1713 H 0.76797 0.02281 0.01884 0.0
C1714 C 0.73081 -0.00317 0.97231 0.0
C1715 C 0.76631 0.01609 0.98454 0.0
C1716 C 0.78925 0.02827 0.98042 0.0
C1717 C 0.72221 -0.00376 -0.00641 0.0
C1718 C 0.73562 0.0061 0.01045 0.0
C1719 C 0.75781 0.01515 0.00584 0.0
C1720 C 0.72594 0.00987 0.03242 0.0
C1721 C 0.69854 0.98572 -0.00216 0.0
C1722 C 0.70797 0.02613 0.03536 0.0
C1723 C 0.70122 0.03284 0.05615 0.0
C1724 C 0.71219 0.02325 0.07436 0.0
C1725 C 0.72933 0.0061 0.07152 0.0
C1726 C 0.73634 -0.0004 0.05065 0.0
H1727 H 0.69325 0.97358 0.9847 0.0
H1728 H 0.69837 0.9762 0.01347 0.0
H1729 H 0.68541 -0.00015 -0.00124 0.0
H1730 H 0.70001 0.03458 0.02154 0.0
H1731 H 0.68816 0.0463 0.05803 0.0
H1732 H 0.48469 0.80494 0.4114 0.0
H1733 H 0.49712 0.79268 0.44778 0.0
H1734 H 0.46677 0.72485 0.43667 0.0
H1735 H 0.45496 0.73691 0.40045 0.0
H1736 H 0.46704 0.78101 0.47904 0.0
H1737 H 0.52595 0.70643 0.46652 0.0
H1738 H 0.51876 0.72648 0.44503 0.0
H1739 H 0.49954 0.70257 0.45143 0.0
C1740 C 0.48145 0.78721 0.41659 0.0
C1741 C 0.46897 0.77181 0.40327 0.0
C1742 C 0.48843 0.78024 0.43734 0.0
C1743 C 0.48318 0.75771 0.44492 0.0
C1744 C 0.47163 0.74206 0.43109 0.0
H1745 H 0.4461 0.68615 0.55749 0.0
H1746 H 0.45851 0.699 0.52148 0.0
C1747 C 0.46471 0.74901 0.41045 0.0
C1748 C 0.48672 0.75138 0.46802 0.0
H1749 H 0.50477 0.70691 0.50071 0.0
C1750 C 0.47586 0.76514 0.48386 0.0
C1751 C 0.49817 0.73063 0.47435 0.0
C1752 C 0.51146 0.71584 0.45842 0.0
C1753 C 0.47472 0.75792 0.50553 0.0
C1754 C 0.48496 0.73649 0.51158 0.0
C1755 C 0.49688 0.72331 0.49601 0.0
C1756 C 0.48106 0.72643 0.53337 0.0
C1757 C 0.46129 0.77253 0.52155 0.0
C1758 C 0.49037 0.73701 0.55198 0.0
C1759 C 0.48339 0.72956 0.57257 0.0
C1760 C 0.46696 0.71155 0.57473 0.0
C1761 C 0.45884 0.70005 0.55615 0.0
C1762 C 0.4659 0.70738 0.53563 0.0
H1763 H 0.45186 0.78712 0.51364 0.0
H1764 H 0.44845 0.7616 0.5304 0.0
H1765 H 0.47354 0.78001 0.53361 0.0
H1766 H 0.50221 0.75165 0.55055 0.0
H1767 H 0.48973 0.73876 0.58671 0.0
H1768 H 0.79804 0.43386 0.05939 0.0
H1769 H 0.78635 0.44378 0.02248 0.0
H1770 H 0.74467 0.50044 0.04695 0.0
H1771 H 0.75663 0.4906 0.08406 0.0
H1772 H 0.73918 0.44132 0.01132 0.0
H1773 H 0.77627 0.52855 -0.00762 0.0
H1774 H 0.78789 0.51017 0.0135 0.0
H1775 H 0.76124 0.52583 0.01779 0.0
C1776 C 0.78695 0.44887 0.0568 0.0
C1777 C 0.77821 0.4615 0.07445 0.0
C1778 C 0.78023 0.45449 0.03575 0.0
C1779 C 0.76465 0.47286 0.03194 0.0
C1780 C 0.75698 0.48643 0.04948 0.0
H1781 H 0.67841 0.46828 0.91532 0.0
H1782 H 0.69074 0.47659 0.95264 0.0
C1783 C 0.76382 0.48083 0.07064 0.0
C1784 C 0.75434 0.47562 0.01005 0.0
H1785 H 0.75081 0.51194 0.96637 0.0
C1786 C 0.74163 0.45682 0.00154 0.0
C1787 C 0.75761 0.49583 -0.00267 0.0
C1788 C 0.77163 0.51624 0.00555 0.0
C1789 C 0.73242 0.45744 0.98054 0.0
C1790 C 0.73559 0.47766 0.96778 0.0
C1791 C 0.74814 0.49661 0.97631 0.0
C1792 C 0.72753 0.47832 0.94497 0.0
C1793 C 0.72011 0.43607 0.97191 0.0
C1794 C 0.74398 0.47793 0.92817 0.0
C1795 C 0.73691 0.47346 0.90692 0.0
C1796 C 0.7133 0.46952 0.90217 0.0
C1797 C 0.69666 0.47165 0.91865 0.0
C1798 C 0.70372 0.47618 0.93992 0.0
H1799 H 0.72326 0.4205 0.98216 0.0
H1800 H 0.70105 0.43932 0.97152 0.0
H1801 H 0.7259 0.43211 0.95517 0.0
H1802 H 0.76243 0.47943 0.93172 0.0
H1803 H 0.75003 0.47145 0.89445 0.0
H1804 H 0.00407 0.73948 0.39465 0.0
H1805 H -0.00505 0.75338 0.43134 0.0
H1806 H 0.03089 0.69422 0.45831 0.0
H1807 H 0.0402 0.68052 0.42175 0.0
H1808 H 0.97465 0.73242 0.47234 0.0
H1809 H 0.06909 0.75429 0.47546 0.0
H1810 H 0.05418 0.7477 0.45047 0.0
H1811 H 0.06248 0.72461 0.46846 0.0
C1812 C 0.00923 0.72907 0.40845 0.0
C1813 C 0.02283 0.709 0.40555 0.0
C1814 C 0.00409 0.73703 0.42935 0.0
C1815 C 0.0125 0.72496 0.44749 0.0
C1816 C 0.02438 0.70384 0.44451 0.0
H1817 H 0.00511 0.74753 0.58572 0.0
H1818 H -0.00376 0.73482 0.54868 0.0
C1819 C 0.02959 0.69597 0.42368 0.0
C1820 C 0.01188 0.7359 0.46922 0.0
H1821 H 0.04763 0.75928 0.50766 0.0
C1822 C 0.99054 0.73841 0.4801 0.0
C1823 C 0.0326 0.74403 0.4791 0.0
C1824 C 0.05589 0.74276 0.46776 0.0
C1825 C 0.98952 0.74835 0.50093 0.0
C1826 C 0.0104 0.75576 0.51108 0.0
C1827 C 0.03161 0.75362 0.49992 0.0
C1828 C 0.01116 0.76537 0.53342 0.0
C1829 C 0.96614 0.75106 0.51176 0.0
C1830 C 0.02209 0.78692 0.53725 0.0
C1831 C 0.02732 0.79401 0.55832 0.0
C1832 C 0.02159 0.77975 0.57594 0.0
C1833 C 0.00928 0.75896 0.57233 0.0
C1834 C 0.0042 0.75174 0.55118 0.0
H1835 H 0.95168 0.75097 0.49979 0.0
H1836 H 0.96334 0.73626 0.52301 0.0
H1837 H 0.96534 0.76747 0.52125 0.0
H1838 H 0.02772 0.79768 0.52383 0.0
H1839 H 0.03709 0.80998 0.56079 0.0
H1840 H 0.19295 0.93671 0.05993 0.0
H1841 H 0.20519 0.94815 0.02369 0.0
H1842 H 0.24219 0.00709 0.05038 0.0
H1843 H 0.23105 -0.0053 0.08699 0.0
H1844 H 0.20116 0.98391 -0.00234 0.0
H1845 H 0.29452 0.97457 0.02044 0.0
H1846 H 0.27122 0.96629 0.03838 0.0
H1847 H 0.27885 -0.00349 0.03511 0.0
C1848 C 0.20351 0.95225 0.05803 0.0
C1849 C 0.21141 0.96458 0.07623 0.0
C1850 C 0.21044 0.95886 0.03729 0.0
C1851 C 0.2252 0.97814 0.03426 0.0
C1852 C 0.23142 0.99173 0.05232 0.0
H1853 H 0.25779 -0.00478 0.89487 0.0
H1854 H 0.24681 0.0076 0.93154 0.0
C1855 C 0.22474 0.98487 0.0732 0.0
C1856 C 0.23513 0.98253 0.01236 0.0
H1857 H 0.28631 0.98177 0.98405 0.0
C1858 C 0.2198 0.98376 -0.00533 0.0
C1859 C 0.25949 0.98216 0.00845 0.0
C1860 C 0.27702 0.97962 0.02653 0.0
C1861 C 0.22797 0.98318 0.97325 0.0
C1862 C 0.25231 0.98231 0.96934 0.0
C1863 C 0.26769 0.98256 0.98704 0.0
C1864 C 0.26202 0.9776 0.94741 0.0
C1865 C 0.21035 0.9818 0.95513 0.0
C1866 C 0.27569 0.95761 0.94424 0.0
C1867 C 0.28252 0.95098 0.92349 0.0
C1868 C 0.27563 0.96399 0.90539 0.0
C1869 C 0.26333 0.98486 0.90857 0.0
C1870 C 0.25674 0.99173 0.92948 0.0
H1871 H 0.19257 0.97767 0.96116 0.0
H1872 H 0.20955 -0.00116 0.94672 0.0
H1873 H 0.21538 0.96829 0.94315 0.0
H1874 H 0.2802 0.94648 0.95775 0.0
H1875 H 0.29231 0.93499 0.9215 0.0
H1876 H 0.53364 0.25206 0.57965 0.0
H1877 H 0.52236 0.26389 0.54322 0.0
H1878 H 0.49466 0.19512 0.5312 0.0
H1879 H 0.50663 0.18308 0.56777 0.0
H1880 H 0.5247 0.20795 0.50047 0.0
H1881 H 0.46328 0.28059 0.51252 0.0
H1882 H 0.48936 0.28525 0.52791 0.0
H1883 H 0.47083 0.26072 0.53404 0.0
C1884 C 0.52458 0.23968 0.56939 0.0
C1885 C 0.52093 0.21671 0.57641 0.0
C1886 C 0.51796 0.24649 0.54862 0.0
C1887 C 0.50729 0.23054 0.53449 0.0
C1888 C 0.50266 0.2078 0.54187 0.0
H1889 H 0.50027 0.24957 0.39271 0.0
H1890 H 0.48853 0.23631 0.42897 0.0
C1891 C 0.50937 0.20095 0.56274 0.0
C1892 C 0.50395 0.2369 0.51136 0.0
H1893 H 0.48482 0.28083 0.47855 0.0
C1894 C 0.51544 0.22355 0.4956 0.0
C1895 C 0.49193 0.2573 0.50495 0.0
C1896 C 0.47796 0.27162 0.52076 0.0
C1897 C 0.51653 0.23082 0.47394 0.0
C1898 C 0.50565 0.25191 0.46781 0.0
C1899 C 0.4932 0.2647 0.4833 0.0
C1900 C 0.50925 0.262 0.44599 0.0
C1901 C 0.53052 0.21665 0.45799 0.0
C1902 C 0.52396 0.28139 0.44362 0.0
C1903 C 0.53062 0.28892 0.42304 0.0
C1904 C 0.52253 0.2773 0.40452 0.0
C1905 C 0.50657 0.25888 0.40681 0.0
C1906 C 0.50001 0.25122 0.42745 0.0
H1907 H 0.54028 0.20232 0.46593 0.0
H1908 H 0.51859 0.20889 0.4458 0.0
H1909 H 0.54311 0.22798 0.44927 0.0
H1910 H 0.53129 0.28993 0.45771 0.0
H1911 H 0.54301 0.30312 0.4216 0.0
H1912 H 0.29696 0.55092 0.05925 0.0
H1913 H 0.28465 0.53981 0.02291 0.0
H1914 H 0.24662 0.48137 0.04919 0.0
H1915 H 0.25786 0.49344 0.0859 0.0
H1916 H 0.288 0.50415 -0.00338 0.0
H1917 H 0.19485 0.515 0.0195 0.0
H1918 H 0.21832 0.52276 0.03748 0.0
H1919 H 0.21013 0.49271 0.03402 0.0
C1920 C 0.28617 0.53554 0.05724 0.0
C1921 C 0.27799 0.52329 0.07535 0.0
C1922 C 0.2792 0.52913 0.03644 0.0
C1923 C 0.26411 0.51012 0.03327 0.0
C1924 C 0.25764 0.49654 0.05125 0.0
H1925 H 0.23077 0.49413 0.89383 0.0
H1926 H 0.24181 0.48153 0.93041 0.0
C1927 C 0.26436 0.50321 0.07218 0.0
C1928 C 0.25407 0.50603 0.01135 0.0
H1929 H 0.20287 0.50782 0.98306 0.0
C1930 C 0.26936 0.50463 -0.00636 0.0
C1931 C 0.22972 0.50685 0.00745 0.0
C1932 C 0.21227 0.50961 0.02555 0.0
C1933 C 0.26115 0.50546 0.97222 0.0
C1934 C 0.23683 0.50677 0.96833 0.0
C1935 C 0.22148 0.5067 0.98604 0.0
C1936 C 0.22716 0.51173 0.94644 0.0
C1937 C 0.27876 0.50663 0.9541 0.0
C1938 C 0.2138 0.53194 0.94338 0.0
C1939 C 0.20693 0.53871 0.92269 0.0
C1940 C 0.21349 0.52561 0.90452 0.0
C1941 C 0.2255 0.50456 0.90758 0.0
C1942 C 0.23213 0.49756 0.92844 0.0
H1943 H 0.29662 0.51043 0.96013 0.0
H1944 H 0.27926 0.48961 0.9456 0.0
H1945 H 0.27394 0.52026 0.94219 0.0
H1946 H 0.20953 0.54311 0.95694 0.0
H1947 H 0.19736 0.55484 0.92079 0.0
H1948 H 0.98488 0.24197 0.39157 0.0
H1949 H -0.00351 0.25587 0.42768 0.0
H1950 H 0.96208 0.1967 0.45658 0.0
H1951 H 0.95047 0.18295 0.42062 0.0
H1952 H 0.96227 0.26701 0.45885 0.0
H1953 H 0.0235 0.20112 0.49101 0.0
H1954 H 0.01779 0.20448 0.46242 0.0
H1955 H -0.00233 0.18869 0.47926 0.0
C1956 C 0.98053 0.23161 0.40565 0.0
C1957 C 0.96697 0.21136 0.40347 0.0
C1958 C 0.98705 0.23958 0.42622 0.0
C1959 C 0.98038 0.22719 0.44482 0.0
C1960 C 0.96785 0.20628 0.44247 0.0
H1961 H 0.95288 0.23911 0.57765 0.0
H1962 H 0.96387 0.22766 0.54096 0.0
C1963 C 0.96118 0.19846 0.42197 0.0
C1964 C 0.98362 0.23743 0.46668 0.0
H1965 H 0.00407 0.22515 0.51728 0.0
C1966 C 0.97184 0.25818 0.47156 0.0
C1967 C -0.00401 0.22578 0.48321 0.0
C1968 C 0.00965 0.20388 0.47871 0.0
C1969 C 0.97081 0.26681 0.49281 0.0
C1970 C 0.98246 0.25467 0.50957 0.0
C1971 C -0.0048 0.2345 0.50446 0.0
C1972 C 0.9792 0.26098 0.53271 0.0
C1973 C 0.95594 0.28795 0.49731 0.0
C1974 C 0.98501 0.28324 0.54066 0.0
C1975 C 0.97854 0.28986 0.56166 0.0
C1976 C 0.96639 0.27422 0.57498 0.0
C1977 C 0.96212 0.25149 0.56756 0.0
C1978 C 0.96844 0.24494 0.54664 0.0
H1979 H 0.94444 0.29234 0.48344 0.0
H1980 H 0.94486 0.28512 0.5118 0.0
H1981 H 0.9674 0.30317 0.50048 0.0
H1982 H 0.99378 0.29574 0.53037 0.0
H1983 H 0.98202 0.30747 0.5671 0.0
loop_
_geom_bond_atom_site_label_1
_geom_bond_atom_site_label_2
_geom_bond_distance
_geom_bond_site_symmetry_2
_ccdc_geom_bond_type
Co0 O3 1.970 . S
Co0 N17 1.989 . S
Co0 O25 1.967 . S
Co0 O32 1.920 . S
Co1 O4 1.966 . S
Co1 N10 2.022 . S
Co1 N18 1.993 . S
Co1 O26 1.941 . S
C2 O3 1.258 . S
C2 O4 1.263 . S
O3 Co0 1.970 . S
O3 C2 1.258 . S
O4 Co1 1.966 . S
O4 C2 1.263 . S
C5 O6 1.235 . S
C5 O32 1.289 . S
O6 C5 1.235 . S
C7 C9 1.400 1_545 S
C7 N10 1.351 . S
C7 C12 1.501 . S
C8 C9 1.387 . S
C8 N11 1.341 . S
C9 C7 1.400 1_565 S
C9 C8 1.387 . S
N10 Co1 2.022 . S
N10 C7 1.351 . S
N10 N11 1.365 1_545 S
N11 C8 1.341 . S
N11 N10 1.365 1_565 S
N11 H31 0.862 . S
C12 C7 1.501 . S
C12 H13 0.961 . S
C12 H14 0.961 . S
C12 H15 0.960 . S
H13 C12 0.961 . S
H14 C12 0.961 . S
H15 C12 0.960 . S
C16 N17 1.342 . S
C16 C20 1.401 . S
C16 C21 1.499 . S
N17 Co0 1.989 . S
N17 C16 1.342 . S
N17 N18 1.388 . S
N18 Co1 1.993 . S
N18 N17 1.388 . S
N18 C19 1.346 . S
C19 N18 1.346 . S
C19 C20 1.396 . S
C19 C29 1.510 . S
C20 C16 1.401 . S
C20 C19 1.396 . S
C21 C16 1.499 . S
C21 H22 0.959 . S
C21 H23 0.960 . S
C21 H24 0.961 . S
H22 C21 0.959 . S
H23 C21 0.960 . S
H24 C21 0.961 . S
O25 Co0 1.967 . S
O25 C33 1.258 . S
O26 Co1 1.941 . S
O26 C33 1.266 . S
H27 C29 0.954 1_565 S
H28 C29 0.961 . S
C29 C19 1.510 . S
C29 H27 0.954 1_545 S
C29 H28 0.961 . S
C29 H30 0.960 . S
H30 C29 0.960 . S
H31 N11 0.862 . S
O32 Co0 1.920 . S
O32 C5 1.289 . S
C33 O25 1.258 . S
C33 O26 1.266 . S
Co34 O37 1.970 . S
Co34 N51 1.989 . S
Co34 O59 1.967 . S
Co34 O66 1.920 . S
Co35 O38 1.966 . S
Co35 N44 2.022 . S
Co35 N52 1.993 . S
Co35 O60 1.941 . S
C36 O37 1.258 . S
C36 O38 1.263 . S
O37 Co34 1.970 . S
O37 C36 1.258 . S
O38 Co35 1.966 . S
O38 C36 1.263 . S
C39 O40 1.235 . S
C39 O66 1.289 . S
O40 C39 1.235 . S
C41 C43 1.400 . S
C41 N44 1.351 . S
C41 C46 1.501 . S
C42 C43 1.387 . S
C42 N45 1.341 . S
C43 C41 1.400 . S
C43 C42 1.387 . S
N44 Co35 2.022 . S
N44 C41 1.351 . S
N44 N45 1.365 . S
N45 C42 1.341 . S
N45 N44 1.365 . S
N45 H65 0.862 . S
C46 C41 1.501 . S
C46 H47 0.961 . S
C46 H48 0.961 . S
C46 H49 0.960 . S
H47 C46 0.961 . S
H48 C46 0.961 . S
H49 C46 0.960 . S
C50 N51 1.342 . S
C50 C54 1.401 . S
C50 C55 1.499 . S
N51 Co34 1.989 . S
N51 C50 1.342 . S
N51 N52 1.388 . S
N52 Co35 1.993 . S
N52 N51 1.388 . S
N52 C53 1.346 . S
C53 N52 1.346 . S
C53 C54 1.396 . S
C53 C63 1.510 . S
C54 C50 1.401 . S
C54 C53 1.396 . S
C55 C50 1.499 . S
C55 H56 0.959 . S
C55 H57 0.960 . S
C55 H58 0.961 . S
H56 C55 0.959 . S
H57 C55 0.960 . S
H58 C55 0.961 . S
O59 Co34 1.967 . S
O59 C67 1.258 . S
O60 Co35 1.941 . S
O60 C67 1.266 . S
H61 C63 0.959 . S
H62 C63 0.961 . S
C63 C53 1.510 . S
C63 H61 0.959 . S
C63 H62 0.961 . S
C63 H64 0.960 . S
H64 C63 0.960 . S
H65 N45 0.862 . S
O66 Co34 1.920 . S
O66 C39 1.289 . S
C67 O59 1.258 . S
C67 O60 1.266 . S
Co68 O71 1.970 . S
Co68 N85 1.989 . S
Co68 O93 1.967 . S
Co68 O100 1.920 . S
Co69 O72 1.966 . S
Co69 N78 2.022 . S
Co69 N86 1.993 . S
Co69 O94 1.941 . S
C70 O71 1.258 . S
C70 O72 1.263 . S
O71 Co68 1.970 . S
O71 C70 1.258 . S
O72 Co69 1.966 . S
O72 C70 1.263 . S
C73 O74 1.235 . S
C73 O100 1.289 . S
O74 C73 1.235 . S
C75 C77 1.400 . S
C75 N78 1.351 . S
C75 C80 1.501 . S
C76 C77 1.387 . S
C76 N79 1.341 . S
C77 C75 1.400 . S
C77 C76 1.387 . S
N78 Co69 2.022 . S
N78 C75 1.351 . S
N78 N79 1.365 . S
N79 C76 1.341 . S
N79 N78 1.365 . S
N79 H99 0.862 . S
C80 C75 1.501 . S
C80 H81 0.961 . S
C80 H82 0.961 . S
C80 H83 0.960 . S
H81 C80 0.961 . S
H82 C80 0.961 . S
H83 C80 0.960 . S
C84 N85 1.342 . S
C84 C88 1.401 . S
C84 C89 1.499 . S
N85 Co68 1.989 . S
N85 C84 1.342 . S
N85 N86 1.388 . S
N86 Co69 1.993 . S
N86 N85 1.388 . S
N86 C87 1.346 . S
C87 N86 1.346 . S
C87 C88 1.396 . S
C87 C97 1.510 . S
C88 C84 1.401 . S
C88 C87 1.396 . S
C89 C84 1.499 . S
C89 H90 0.959 . S
C89 H91 0.960 . S
C89 H92 0.961 . S
H90 C89 0.959 . S
H91 C89 0.960 . S
H92 C89 0.961 . S
O93 Co68 1.967 . S
O93 C101 1.258 . S
O94 Co69 1.941 . S
O94 C101 1.266 . S
H95 C97 0.959 . S
H96 C97 0.961 . S
C97 C87 1.510 . S
C97 H95 0.959 . S
C97 H96 0.961 . S
C97 H98 0.960 . S
H98 C97 0.960 . S
H99 N79 0.862 . S
O100 Co68 1.920 . S
O100 C73 1.289 . S
C101 O93 1.258 . S
C101 O94 1.266 . S
Co102 O105 1.970 . S
Co102 N119 1.989 . S
Co102 O127 1.967 . S
Co102 O134 1.920 . S
Co103 O106 1.966 . S
Co103 N112 2.022 . S
Co103 N120 1.993 . S
Co103 O128 1.941 . S
C104 O105 1.258 . S
C104 O106 1.263 . S
O105 Co102 1.970 . S
O105 C104 1.258 . S
O106 Co103 1.966 . S
O106 C104 1.263 . S
C107 O108 1.235 . S
C107 O134 1.289 . S
O108 C107 1.235 . S
C109 C111 1.400 1_455 S
C109 N112 1.351 . S
C109 C114 1.501 . S
C110 C111 1.387 . S
C110 N113 1.341 . S
C111 C109 1.400 1_655 S
C111 C110 1.387 . S
N112 Co103 2.022 . S
N112 C109 1.351 . S
N112 N113 1.365 1_455 S
N113 C110 1.341 . S
N113 N112 1.365 1_655 S
N113 H133 0.862 . S
C114 C109 1.501 . S
C114 H115 0.961 . S
C114 H116 0.961 . S
C114 H117 0.960 . S
H115 C114 0.961 . S
H116 C114 0.961 . S
H117 C114 0.960 . S
C118 N119 1.342 . S
C118 C122 1.401 . S
C118 C123 1.499 . S
N119 Co102 1.989 . S
N119 C118 1.342 . S
N119 N120 1.388 . S
N120 Co103 1.993 . S
N120 N119 1.388 . S
N120 C121 1.346 . S
C121 N120 1.346 . S
C121 C122 1.396 . S
C121 C131 1.510 . S
C122 C118 1.401 . S
C122 C121 1.396 . S
C123 C118 1.499 . S
C123 H124 0.959 . S
C123 H125 0.960 . S
C123 H126 0.961 . S
H124 C123 0.959 . S
H125 C123 0.960 . S
H126 C123 0.961 . S
O127 Co102 1.967 . S
O127 C135 1.258 . S
O128 Co103 1.941 . S
O128 C135 1.266 . S
H129 C131 0.954 1_655 S
H130 C131 0.961 . S
C131 C121 1.510 . S
C131 H129 0.954 1_455 S
C131 H130 0.961 . S
C131 H132 0.960 . S
H132 C131 0.960 . S
H133 N113 0.862 . S
O134 Co102 1.920 . S
O134 C107 1.289 . S
C135 O127 1.258 . S
C135 O128 1.266 . S
Co136 O139 1.970 . S
Co136 N153 1.989 . S
Co136 O161 1.967 . S
Co136 O168 1.920 . S
Co137 O140 1.966 . S
Co137 N146 2.022 . S
Co137 N154 1.993 . S
Co137 O162 1.941 . S
C138 O139 1.258 . S
C138 O140 1.263 . S
O139 Co136 1.970 . S
O139 C138 1.258 . S
O140 Co137 1.966 . S
O140 C138 1.263 . S
C141 O142 1.235 . S
C141 O168 1.289 . S
O142 C141 1.235 . S
C143 C145 1.400 . S
C143 N146 1.351 . S
C143 C148 1.501 . S
C144 C145 1.387 . S
C144 N147 1.341 . S
C145 C143 1.400 . S
C145 C144 1.387 . S
N146 Co137 2.022 . S
N146 C143 1.351 . S
N146 N147 1.365 . S
N147 C144 1.341 . S
N147 N146 1.365 . S
N147 H167 0.862 . S
C148 C143 1.501 . S
C148 H149 0.961 . S
C148 H150 0.961 . S
C148 H151 0.960 . S
H149 C148 0.961 . S
H150 C148 0.961 . S
H151 C148 0.960 . S
C152 N153 1.342 . S
C152 C156 1.401 . S
C152 C157 1.499 . S
N153 Co136 1.989 . S
N153 C152 1.342 . S
N153 N154 1.388 . S
N154 Co137 1.993 . S
N154 N153 1.388 . S
N154 C155 1.346 . S
C155 N154 1.346 . S
C155 C156 1.396 . S
C155 C165 1.510 . S
C156 C152 1.401 . S
C156 C155 1.396 . S
C157 C152 1.499 . S
C157 H158 0.959 . S
C157 H159 0.960 . S
C157 H160 0.961 . S
H158 C157 0.959 . S
H159 C157 0.960 . S
H160 C157 0.961 . S
O161 Co136 1.967 . S
O161 C169 1.258 . S
O162 Co137 1.941 . S
O162 C169 1.266 . S
H163 C165 0.959 . S
H164 C165 0.961 . S
C165 C155 1.510 . S
C165 H163 0.959 . S
C165 H164 0.961 . S
C165 H166 0.960 . S
H166 C165 0.960 . S
H167 N147 0.862 . S
O168 Co136 1.920 . S
O168 C141 1.289 . S
C169 O161 1.258 . S
C169 O162 1.266 . S
Co170 O173 1.970 . S
Co170 N187 1.989 . S
Co170 O195 1.967 . S
Co170 O202 1.920 . S
Co171 O174 1.966 . S
Co171 N180 2.022 . S
Co171 N188 1.993 . S
Co171 O196 1.941 . S
C172 O173 1.258 . S
C172 O174 1.263 . S
O173 Co170 1.970 . S
O173 C172 1.258 . S
O174 Co171 1.966 . S
O174 C172 1.263 . S
C175 O176 1.235 . S
C175 O202 1.289 . S
O176 C175 1.235 . S
C177 C179 1.400 1_455 S
C177 N180 1.351 . S
C177 C182 1.501 . S
C178 C179 1.387 . S
C178 N181 1.341 . S
C179 C177 1.400 1_655 S
C179 C178 1.387 . S
N180 Co171 2.022 . S
N180 C177 1.351 . S
N180 N181 1.365 1_455 S
N181 C178 1.341 . S
N181 N180 1.365 1_655 S
N181 H201 0.862 . S
C182 C177 1.501 . S
C182 H183 0.961 . S
C182 H184 0.961 . S
C182 H185 0.960 . S
H183 C182 0.961 . S
H184 C182 0.961 . S
H185 C182 0.960 . S
C186 N187 1.342 . S
C186 C190 1.401 . S
C186 C191 1.499 . S
N187 Co170 1.989 . S
N187 C186 1.342 . S
N187 N188 1.388 . S
N188 Co171 1.993 . S
N188 N187 1.388 . S
N188 C189 1.346 . S
C189 N188 1.346 . S
C189 C190 1.396 . S
C189 C199 1.510 . S
C190 C186 1.401 . S
C190 C189 1.396 . S
C191 C186 1.499 . S
C191 H192 0.959 . S
C191 H193 0.960 . S
C191 H194 0.961 . S
H192 C191 0.959 . S
H193 C191 0.960 . S
H194 C191 0.961 . S
O195 Co170 1.967 . S
O195 C203 1.258 . S
O196 Co171 1.941 . S
O196 C203 1.266 . S
H197 C199 0.954 1_655 S
H198 C199 0.961 . S
C199 C189 1.510 . S
C199 H197 0.954 1_455 S
C199 H198 0.961 . S
C199 H200 0.960 . S
H200 C199 0.960 . S
H201 N181 0.862 . S
O202 Co170 1.920 . S
O202 C175 1.289 . S
C203 O195 1.258 . S
C203 O196 1.266 . S
Co204 O207 1.970 . S
Co204 N221 1.989 . S
Co204 O229 1.967 . S
Co204 O236 1.920 . S
Co205 O208 1.966 . S
Co205 N214 2.022 . S
Co205 N222 1.993 . S
Co205 O230 1.941 . S
C206 O207 1.258 . S
C206 O208 1.263 . S
O207 Co204 1.970 . S
O207 C206 1.258 . S
O208 Co205 1.966 . S
O208 C206 1.263 . S
C209 O210 1.235 . S
C209 O236 1.289 . S
O210 C209 1.235 . S
C211 C213 1.400 1_545 S
C211 N214 1.351 . S
C211 C216 1.501 . S
C212 C213 1.387 . S
C212 N215 1.341 . S
C213 C211 1.400 1_565 S
C213 C212 1.387 . S
N214 Co205 2.022 . S
N214 C211 1.351 . S
N214 N215 1.365 1_545 S
N215 C212 1.341 . S
N215 N214 1.365 1_565 S
N215 H235 0.862 . S
C216 C211 1.501 . S
C216 H217 0.961 . S
C216 H218 0.961 . S
C216 H219 0.960 . S
H217 C216 0.961 . S
H218 C216 0.961 . S
H219 C216 0.960 . S
C220 N221 1.342 . S
C220 C224 1.401 . S
C220 C225 1.499 . S
N221 Co204 1.989 . S
N221 C220 1.342 . S
N221 N222 1.388 . S
N222 Co205 1.993 . S
N222 N221 1.388 . S
N222 C223 1.346 . S
C223 N222 1.346 . S
C223 C224 1.396 . S
C223 C233 1.510 . S
C224 C220 1.401 . S
C224 C223 1.396 . S
C225 C220 1.499 . S
C225 H226 0.959 . S
C225 H227 0.960 . S
C225 H228 0.961 . S
H226 C225 0.959 . S
H227 C225 0.960 . S
H228 C225 0.961 . S
O229 Co204 1.967 . S
O229 C237 1.258 . S
O230 Co205 1.941 . S
O230 C237 1.266 . S
H231 C233 0.954 1_565 S
H232 C233 0.961 . S
C233 C223 1.510 . S
C233 H231 0.954 1_545 S
C233 H232 0.961 . S
C233 H234 0.960 . S
H234 C233 0.960 . S
H235 N215 0.862 . S
O236 Co204 1.920 . S
O236 C209 1.289 . S
C237 O229 1.258 . S
C237 O230 1.266 . S
Co238 O241 1.970 . S
Co238 N255 1.989 . S
Co238 O263 1.967 . S
Co238 O270 1.920 . S
Co239 O242 1.966 . S
Co239 N248 2.022 . S
Co239 N256 1.993 . S
Co239 O264 1.941 . S
C240 O241 1.258 . S
C240 O242 1.263 . S
O241 Co238 1.970 . S
O241 C240 1.258 . S
O242 Co239 1.966 . S
O242 C240 1.263 . S
C243 O244 1.235 . S
C243 O270 1.289 . S
O244 C243 1.235 . S
C245 C247 1.400 . S
C245 N248 1.351 . S
C245 C250 1.501 . S
C246 C247 1.387 . S
C246 N249 1.341 . S
C247 C245 1.400 . S
C247 C246 1.387 . S
N248 Co239 2.022 . S
N248 C245 1.351 . S
N248 N249 1.365 . S
N249 C246 1.341 . S
N249 N248 1.365 . S
N249 H269 0.862 . S
C250 C245 1.501 . S
C250 H251 0.961 . S
C250 H252 0.961 . S
C250 H253 0.960 . S
H251 C250 0.961 . S
H252 C250 0.961 . S
H253 C250 0.960 . S
C254 N255 1.342 . S
C254 C258 1.401 . S
C254 C259 1.499 . S
N255 Co238 1.989 . S
N255 C254 1.342 . S
N255 N256 1.388 . S
N256 Co239 1.993 . S
N256 N255 1.388 . S
N256 C257 1.346 . S
C257 N256 1.346 . S
C257 C258 1.396 . S
C257 C267 1.510 . S
C258 C254 1.401 . S
C258 C257 1.396 . S
C259 C254 1.499 . S
C259 H260 0.959 . S
C259 H261 0.960 . S
C259 H262 0.961 . S
H260 C259 0.959 . S
H261 C259 0.960 . S
H262 C259 0.961 . S
O263 Co238 1.967 . S
O263 C271 1.258 . S
O264 Co239 1.941 . S
O264 C271 1.266 . S
H265 C267 0.959 . S
H266 C267 0.961 . S
C267 C257 1.510 . S
C267 H265 0.959 . S
C267 H266 0.961 . S
C267 H268 0.960 . S
H268 C267 0.960 . S
H269 N249 0.862 . S
O270 Co238 1.920 . S
O270 C243 1.289 . S
C271 O263 1.258 . S
C271 O264 1.266 . S
Co272 O275 1.970 . S
Co272 N289 1.989 . S
Co272 O297 1.967 . S
Co272 O304 1.920 . S
Co273 O276 1.966 . S
Co273 N282 2.022 . S
Co273 N290 1.993 . S
Co273 O298 1.941 . S
C274 O275 1.258 . S
C274 O276 1.263 . S
O275 Co272 1.970 . S
O275 C274 1.258 . S
O276 Co273 1.966 . S
O276 C274 1.263 . S
C277 O278 1.235 . S
C277 O304 1.289 . S
O278 C277 1.235 . S
C279 C281 1.400 1_565 S
C279 N282 1.351 . S
C279 C284 1.501 . S
C280 C281 1.387 . S
C280 N283 1.341 . S
C281 C279 1.400 1_545 S
C281 C280 1.387 . S
N282 Co273 2.022 . S
N282 C279 1.351 . S
N282 N283 1.365 1_565 S
N283 C280 1.341 . S
N283 N282 1.365 1_545 S
N283 H303 0.862 . S
C284 C279 1.501 . S
C284 H285 0.961 . S
C284 H286 0.961 . S
C284 H287 0.960 . S
H285 C284 0.961 . S
H286 C284 0.961 . S
H287 C284 0.960 . S
C288 N289 1.342 . S
C288 C292 1.401 . S
C288 C293 1.499 . S
N289 Co272 1.989 . S
N289 C288 1.342 . S
N289 N290 1.388 . S
N290 Co273 1.993 . S
N290 N289 1.388 . S
N290 C291 1.346 . S
C291 N290 1.346 . S
C291 C292 1.396 . S
C291 C301 1.510 . S
C292 C288 1.401 . S
C292 C291 1.396 . S
C293 C288 1.499 . S
C293 H294 0.959 . S
C293 H295 0.960 . S
C293 H296 0.961 . S
H294 C293 0.959 . S
H295 C293 0.960 . S
H296 C293 0.961 . S
O297 Co272 1.967 . S
O297 C305 1.258 . S
O298 Co273 1.941 . S
O298 C305 1.266 . S
H299 C301 0.954 1_545 S
H300 C301 0.961 . S
C301 C291 1.510 . S
C301 H299 0.954 1_565 S
C301 H300 0.961 . S
C301 H302 0.960 . S
H302 C301 0.960 . S
H303 N283 0.862 . S
O304 Co272 1.920 . S
O304 C277 1.289 . S
C305 O297 1.258 . S
C305 O298 1.266 . S
Co306 O309 1.970 . S
Co306 N323 1.989 . S
Co306 O331 1.967 . S
Co306 O338 1.920 . S
Co307 O310 1.966 . S
Co307 N316 2.022 . S
Co307 N324 1.993 . S
Co307 O332 1.941 . S
C308 O309 1.258 . S
C308 O310 1.263 . S
O309 Co306 1.970 . S
O309 C308 1.258 . S
O310 Co307 1.966 . S
O310 C308 1.263 . S
C311 O312 1.235 . S
C311 O338 1.289 . S
O312 C311 1.235 . S
C313 C315 1.400 . S
C313 N316 1.351 . S
C313 C318 1.501 . S
C314 C315 1.387 . S
C314 N317 1.341 . S
C315 C313 1.400 . S
C315 C314 1.387 . S
N316 Co307 2.022 . S
N316 C313 1.351 . S
N316 N317 1.365 . S
N317 C314 1.341 . S
N317 N316 1.365 . S
N317 H337 0.862 . S
C318 C313 1.501 . S
C318 H319 0.961 . S
C318 H320 0.961 . S
C318 H321 0.960 . S
H319 C318 0.961 . S
H320 C318 0.961 . S
H321 C318 0.960 . S
C322 N323 1.342 . S
C322 C326 1.401 . S
C322 C327 1.499 . S
N323 Co306 1.989 . S
N323 C322 1.342 . S
N323 N324 1.388 . S
N324 Co307 1.993 . S
N324 N323 1.388 . S
N324 C325 1.346 . S
C325 N324 1.346 . S
C325 C326 1.396 . S
C325 C335 1.510 . S
C326 C322 1.401 . S
C326 C325 1.396 . S
C327 C322 1.499 . S
C327 H328 0.959 . S
C327 H329 0.960 . S
C327 H330 0.961 . S
H328 C327 0.959 . S
H329 C327 0.960 . S
H330 C327 0.961 . S
O331 Co306 1.967 . S
O331 C339 1.258 . S
O332 Co307 1.941 . S
O332 C339 1.266 . S
H333 C335 0.959 . S
H334 C335 0.961 . S
C335 C325 1.510 . S
C335 H333 0.959 . S
C335 H334 0.961 . S
C335 H336 0.960 . S
H336 C335 0.960 . S
H337 N317 0.862 . S
O338 Co306 1.920 . S
O338 C311 1.289 . S
C339 O331 1.258 . S
C339 O332 1.266 . S
Co340 O343 1.970 . S
Co340 N357 1.989 . S
Co340 O365 1.967 . S
Co340 O372 1.920 . S
Co341 O344 1.966 . S
Co341 N350 2.022 . S
Co341 N358 1.993 . S
Co341 O366 1.941 . S
C342 O343 1.258 . S
C342 O344 1.263 . S
O343 Co340 1.970 . S
O343 C342 1.258 . S
O344 Co341 1.966 . S
O344 C342 1.263 . S
C345 O346 1.235 . S
C345 O372 1.289 . S
O346 C345 1.235 . S
C347 C349 1.400 . S
C347 N350 1.351 . S
C347 C352 1.501 . S
C348 C349 1.387 . S
C348 N351 1.341 . S
C349 C347 1.400 . S
C349 C348 1.387 . S
N350 Co341 2.022 . S
N350 C347 1.351 . S
N350 N351 1.365 . S
N351 C348 1.341 . S
N351 N350 1.365 . S
N351 H371 0.862 . S
C352 C347 1.501 . S
C352 H353 0.961 . S
C352 H354 0.961 . S
C352 H355 0.960 . S
H353 C352 0.961 . S
H354 C352 0.961 . S
H355 C352 0.960 . S
C356 N357 1.342 . S
C356 C360 1.401 . S
C356 C361 1.499 . S
N357 Co340 1.989 . S
N357 C356 1.342 . S
N357 N358 1.388 . S
N358 Co341 1.993 . S
N358 N357 1.388 . S
N358 C359 1.346 . S
C359 N358 1.346 . S
C359 C360 1.396 . S
C359 C369 1.510 . S
C360 C356 1.401 . S
C360 C359 1.396 . S
C361 C356 1.499 . S
C361 H362 0.959 . S
C361 H363 0.960 . S
C361 H364 0.961 . S
H362 C361 0.959 . S
H363 C361 0.960 . S
H364 C361 0.961 . S
O365 Co340 1.967 . S
O365 C373 1.258 . S
O366 Co341 1.941 . S
O366 C373 1.266 . S
H367 C369 0.959 . S
H368 C369 0.961 . S
C369 C359 1.510 . S
C369 H367 0.959 . S
C369 H368 0.961 . S
C369 H370 0.960 . S
H370 C369 0.960 . S
H371 N351 0.862 . S
O372 Co340 1.920 . S
O372 C345 1.289 . S
C373 O365 1.258 . S
C373 O366 1.266 . S
Co374 O377 1.970 . S
Co374 N391 1.989 . S
Co374 O399 1.967 . S
Co374 O406 1.920 . S
Co375 O378 1.966 . S
Co375 N384 2.022 . S
Co375 N392 1.993 . S
Co375 O400 1.941 . S
C376 O377 1.258 . S
C376 O378 1.263 . S
O377 Co374 1.970 . S
O377 C376 1.258 . S
O378 Co375 1.966 . S
O378 C376 1.263 . S
C379 O380 1.235 . S
C379 O406 1.289 . S
O380 C379 1.235 . S
C381 C383 1.400 1_655 S
C381 N384 1.351 . S
C381 C386 1.501 . S
C382 C383 1.387 . S
C382 N385 1.341 . S
C383 C381 1.400 1_455 S
C383 C382 1.387 . S
N384 Co375 2.022 . S
N384 C381 1.351 . S
N384 N385 1.365 1_655 S
N385 C382 1.341 . S
N385 N384 1.365 1_455 S
N385 H405 0.862 . S
C386 C381 1.501 . S
C386 H387 0.961 . S
C386 H388 0.961 . S
C386 H389 0.960 . S
H387 C386 0.961 . S
H388 C386 0.961 . S
H389 C386 0.960 . S
C390 N391 1.342 . S
C390 C394 1.401 . S
C390 C395 1.499 . S
N391 Co374 1.989 . S
N391 C390 1.342 . S
N391 N392 1.388 . S
N392 Co375 1.993 . S
N392 N391 1.388 . S
N392 C393 1.346 . S
C393 N392 1.346 . S
C393 C394 1.396 . S
C393 C403 1.510 . S
C394 C390 1.401 . S
C394 C393 1.396 . S
C395 C390 1.499 . S
C395 H396 0.959 . S
C395 H397 0.960 . S
C395 H398 0.961 . S
H396 C395 0.959 . S
H397 C395 0.960 . S
H398 C395 0.961 . S
O399 Co374 1.967 . S
O399 C407 1.258 . S
O400 Co375 1.941 . S
O400 C407 1.266 . S
H401 C403 0.954 1_455 S
H402 C403 0.961 . S
C403 C393 1.510 . S
C403 H401 0.954 1_655 S
C403 H402 0.961 . S
C403 H404 0.960 . S
H404 C403 0.960 . S
H405 N385 0.862 . S
O406 Co374 1.920 . S
O406 C379 1.289 . S
C407 O399 1.258 . S
C407 O400 1.266 . S
Co408 O411 1.970 . S
Co408 N425 1.989 . S
Co408 O433 1.967 . S
Co408 O440 1.920 . S
Co409 O412 1.966 . S
Co409 N418 2.022 . S
Co409 N426 1.993 . S
Co409 O434 1.941 . S
C410 O411 1.258 . S
C410 O412 1.263 . S
O411 Co408 1.970 . S
O411 C410 1.258 . S
O412 Co409 1.966 . S
O412 C410 1.263 . S
C413 O414 1.235 . S
C413 O440 1.289 . S
O414 C413 1.235 . S
C415 C417 1.400 . S
C415 N418 1.351 . S
C415 C420 1.501 . S
C416 C417 1.387 . S
C416 N419 1.341 . S
C417 C415 1.400 . S
C417 C416 1.387 . S
N418 Co409 2.022 . S
N418 C415 1.351 . S
N418 N419 1.365 . S
N419 C416 1.341 . S
N419 N418 1.365 . S
N419 H439 0.862 . S
C420 C415 1.501 . S
C420 H421 0.961 . S
C420 H422 0.961 . S
C420 H423 0.960 . S
H421 C420 0.961 . S
H422 C420 0.961 . S
H423 C420 0.960 . S
C424 N425 1.342 . S
C424 C428 1.401 . S
C424 C429 1.499 . S
N425 Co408 1.989 . S
N425 C424 1.342 . S
N425 N426 1.388 . S
N426 Co409 1.993 . S
N426 N425 1.388 . S
N426 C427 1.346 . S
C427 N426 1.346 . S
C427 C428 1.396 . S
C427 C437 1.510 . S
C428 C424 1.401 . S
C428 C427 1.396 . S
C429 C424 1.499 . S
C429 H430 0.959 . S
C429 H431 0.960 . S
C429 H432 0.961 . S
H430 C429 0.959 . S
H431 C429 0.960 . S
H432 C429 0.961 . S
O433 Co408 1.967 . S
O433 C441 1.258 . S
O434 Co409 1.941 . S
O434 C441 1.266 . S
H435 C437 0.959 . S
H436 C437 0.961 . S
C437 C427 1.510 . S
C437 H435 0.959 . S
C437 H436 0.961 . S
C437 H438 0.960 . S
H438 C437 0.960 . S
H439 N419 0.862 . S
O440 Co408 1.920 . S
O440 C413 1.289 . S
C441 O433 1.258 . S
C441 O434 1.266 . S
Co442 O445 1.970 . S
Co442 N459 1.989 . S
Co442 O467 1.967 . S
Co442 O474 1.920 . S
Co443 O446 1.966 . S
Co443 N452 2.022 . S
Co443 N460 1.993 . S
Co443 O468 1.941 . S
C444 O445 1.258 . S
C444 O446 1.263 . S
O445 Co442 1.970 . S
O445 C444 1.258 . S
O446 Co443 1.966 . S
O446 C444 1.263 . S
C447 O448 1.235 . S
C447 O474 1.289 . S
O448 C447 1.235 . S
C449 C451 1.400 1_655 S
C449 N452 1.351 . S
C449 C454 1.501 . S
C450 C451 1.387 . S
C450 N453 1.341 . S
C451 C449 1.400 1_455 S
C451 C450 1.387 . S
N452 Co443 2.022 . S
N452 C449 1.351 . S
N452 N453 1.365 1_655 S
N453 C450 1.341 . S
N453 N452 1.365 1_455 S
N453 H473 0.862 . S
C454 C449 1.501 . S
C454 H455 0.961 . S
C454 H456 0.961 . S
C454 H457 0.960 . S
H455 C454 0.961 . S
H456 C454 0.961 . S
H457 C454 0.960 . S
C458 N459 1.342 . S
C458 C462 1.401 . S
C458 C463 1.499 . S
N459 Co442 1.989 . S
N459 C458 1.342 . S
N459 N460 1.388 . S
N460 Co443 1.993 . S
N460 N459 1.388 . S
N460 C461 1.346 . S
C461 N460 1.346 . S
C461 C462 1.396 . S
C461 C471 1.510 . S
C462 C458 1.401 . S
C462 C461 1.396 . S
C463 C458 1.499 . S
C463 H464 0.959 . S
C463 H465 0.960 . S
C463 H466 0.961 . S
H464 C463 0.959 . S
H465 C463 0.960 . S
H466 C463 0.961 . S
O467 Co442 1.967 . S
O467 C475 1.258 . S
O468 Co443 1.941 . S
O468 C475 1.266 . S
H469 C471 0.954 1_455 S
H470 C471 0.961 . S
C471 C461 1.510 . S
C471 H469 0.954 1_655 S
C471 H470 0.961 . S
C471 H472 0.960 . S
H472 C471 0.960 . S
H473 N453 0.862 . S
O474 Co442 1.920 . S
O474 C447 1.289 . S
C475 O467 1.258 . S
C475 O468 1.266 . S
Co476 O479 1.970 . S
Co476 N493 1.989 . S
Co476 O501 1.967 . S
Co476 O508 1.920 . S
Co477 O480 1.966 . S
Co477 N486 2.022 . S
Co477 N494 1.993 . S
Co477 O502 1.941 . S
C478 O479 1.258 . S
C478 O480 1.263 . S
O479 Co476 1.970 . S
O479 C478 1.258 . S
O480 Co477 1.966 . S
O480 C478 1.263 . S
C481 O482 1.235 . S
C481 O508 1.289 . S
O482 C481 1.235 . S
C483 C485 1.400 1_565 S
C483 N486 1.351 . S
C483 C488 1.501 . S
C484 C485 1.387 . S
C484 N487 1.341 . S
C485 C483 1.400 1_545 S
C485 C484 1.387 . S
N486 Co477 2.022 . S
N486 C483 1.351 . S
N486 N487 1.365 1_565 S
N487 C484 1.341 . S
N487 N486 1.365 1_545 S
N487 H507 0.862 . S
C488 C483 1.501 . S
C488 H489 0.961 . S
C488 H490 0.961 . S
C488 H491 0.960 . S
H489 C488 0.961 . S
H490 C488 0.961 . S
H491 C488 0.960 . S
C492 N493 1.342 . S
C492 C496 1.401 . S
C492 C497 1.499 . S
N493 Co476 1.989 . S
N493 C492 1.342 . S
N493 N494 1.388 . S
N494 Co477 1.993 . S
N494 N493 1.388 . S
N494 C495 1.346 . S
C495 N494 1.346 . S
C495 C496 1.396 . S
C495 C505 1.510 . S
C496 C492 1.401 . S
C496 C495 1.396 . S
C497 C492 1.499 . S
C497 H498 0.959 . S
C497 H499 0.960 . S
C497 H500 0.961 . S
H498 C497 0.959 . S
H499 C497 0.960 . S
H500 C497 0.961 . S
O501 Co476 1.967 . S
O501 C509 1.258 . S
O502 Co477 1.941 . S
O502 C509 1.266 . S
H503 C505 0.954 1_545 S
H504 C505 0.961 . S
C505 C495 1.510 . S
C505 H503 0.954 1_565 S
C505 H504 0.961 . S
C505 H506 0.960 . S
H506 C505 0.960 . S
H507 N487 0.862 . S
O508 Co476 1.920 . S
O508 C481 1.289 . S
C509 O501 1.258 . S
C509 O502 1.266 . S
Co510 O513 1.970 . S
Co510 N527 1.989 . S
Co510 O535 1.967 . S
Co510 O542 1.920 . S
Co511 O514 1.966 . S
Co511 N520 2.022 . S
Co511 N528 1.993 . S
Co511 O536 1.941 . S
C512 O513 1.258 . S
C512 O514 1.263 . S
O513 Co510 1.970 . S
O513 C512 1.258 . S
O514 Co511 1.966 . S
O514 C512 1.263 . S
C515 O516 1.235 . S
C515 O542 1.289 . S
O516 C515 1.235 . S
C517 C519 1.400 . S
C517 N520 1.351 . S
C517 C522 1.501 . S
C518 C519 1.387 . S
C518 N521 1.341 . S
C519 C517 1.400 . S
C519 C518 1.387 . S
N520 Co511 2.022 . S
N520 C517 1.351 . S
N520 N521 1.365 . S
N521 C518 1.341 . S
N521 N520 1.365 . S
N521 H541 0.862 . S
C522 C517 1.501 . S
C522 H523 0.961 . S
C522 H524 0.961 . S
C522 H525 0.960 . S
H523 C522 0.961 . S
H524 C522 0.961 . S
H525 C522 0.960 . S
C526 N527 1.342 . S
C526 C530 1.401 . S
C526 C531 1.499 . S
N527 Co510 1.989 . S
N527 C526 1.342 . S
N527 N528 1.388 . S
N528 Co511 1.993 . S
N528 N527 1.388 . S
N528 C529 1.346 . S
C529 N528 1.346 . S
C529 C530 1.396 . S
C529 C539 1.510 . S
C530 C526 1.401 . S
C530 C529 1.396 . S
C531 C526 1.499 . S
C531 H532 0.959 . S
C531 H533 0.960 . S
C531 H534 0.961 . S
H532 C531 0.959 . S
H533 C531 0.960 . S
H534 C531 0.961 . S
O535 Co510 1.967 . S
O535 C543 1.258 . S
O536 Co511 1.941 . S
O536 C543 1.266 . S
H537 C539 0.959 . S
H538 C539 0.961 . S
C539 C529 1.510 . S
C539 H537 0.959 . S
C539 H538 0.961 . S
C539 H540 0.960 . S
H540 C539 0.960 . S
H541 N521 0.862 . S
O542 Co510 1.920 . S
O542 C515 1.289 . S
C543 O535 1.258 . S
C543 O536 1.266 . S
H544 C552 0.929 . S
H545 C554 0.930 . S
H546 C556 0.930 . S
H547 C559 0.929 . S
H548 C562 0.930 . S
H549 C564 0.960 . S
H550 C564 0.960 . S
H551 C564 0.960 . S
C552 H544 0.929 . S
C552 C553 1.377 . S
C552 C554 1.384 . S
C553 C552 1.377 . S
C553 C559 1.390 . S
C554 H545 0.930 . S
C554 C552 1.384 . S
C554 C555 1.372 . S
C555 C554 1.372 . S
C555 C556 1.400 . S
C555 C560 1.490 . S
C556 H546 0.930 . S
C556 C555 1.400 . S
C556 C559 1.386 . S
H557 C573 0.930 . S
H558 C574 0.931 . S
C559 H547 0.929 . S
C559 C553 1.390 . S
C559 C556 1.386 . S
C560 C555 1.490 . S
C560 C562 1.395 . S
C560 C563 1.403 . S
H561 C567 0.930 . S
C562 H548 0.930 . S
C562 C560 1.395 . S
C562 C565 1.403 . S
C563 C560 1.403 . S
C563 C564 1.524 . S
C563 C567 1.400 . S
C564 H549 0.960 . S
C564 H550 0.960 . S
C564 H551 0.960 . S
C564 C563 1.524 . S
C565 C562 1.403 . S
C565 C566 1.392 . S
C565 C569 1.495 . S
C566 C565 1.392 . S
C566 C567 1.385 . S
C566 C568 1.478 . S
C567 H561 0.930 . S
C567 C563 1.400 . S
C567 C566 1.385 . S
C568 C566 1.478 . S
C568 C570 1.381 . S
C568 C574 1.383 . S
C569 C565 1.495 . S
C569 H575 0.959 . S
C569 H576 0.961 . S
C569 H577 0.960 . S
C570 C568 1.381 . S
C570 C571 1.394 . S
C570 H578 0.930 . S
C571 C570 1.394 . S
C571 C572 1.383 . S
C571 H579 0.929 . S
C572 C571 1.383 . S
C572 C573 1.377 . S
C573 H557 0.930 . S
C573 C572 1.377 . S
C573 C574 1.379 . S
C574 H558 0.931 . S
C574 C568 1.383 . S
C574 C573 1.379 . S
H575 C569 0.959 . S
H576 C569 0.961 . S
H577 C569 0.960 . S
H578 C570 0.930 . S
H579 C571 0.929 . S
H580 C588 0.929 . S
H581 C590 0.930 . S
H582 C592 0.930 . S
H583 C595 0.929 . S
H584 C598 0.930 . S
H585 C600 0.960 . S
H586 C600 0.960 . S
H587 C600 0.960 . S
C588 H580 0.929 . S
C588 C589 1.377 . S
C588 C590 1.384 . S
C589 C588 1.377 . S
C589 C595 1.390 . S
C590 H581 0.930 . S
C590 C588 1.384 . S
C590 C591 1.372 . S
C591 C590 1.372 . S
C591 C592 1.400 . S
C591 C596 1.490 . S
C592 H582 0.930 . S
C592 C591 1.400 . S
C592 C595 1.386 . S
H593 C609 0.930 . S
H594 C610 0.931 . S
C595 H583 0.929 . S
C595 C589 1.390 . S
C595 C592 1.386 . S
C596 C591 1.490 . S
C596 C598 1.395 . S
C596 C599 1.403 . S
H597 C603 0.930 . S
C598 H584 0.930 . S
C598 C596 1.395 . S
C598 C601 1.403 . S
C599 C596 1.403 . S
C599 C600 1.524 . S
C599 C603 1.400 . S
C600 H585 0.960 . S
C600 H586 0.960 . S
C600 H587 0.960 . S
C600 C599 1.524 . S
C601 C598 1.403 . S
C601 C602 1.392 . S
C601 C605 1.495 . S
C602 C601 1.392 . S
C602 C603 1.385 . S
C602 C604 1.478 . S
C603 H597 0.930 . S
C603 C599 1.400 . S
C603 C602 1.385 . S
C604 C602 1.478 . S
C604 C606 1.381 . S
C604 C610 1.383 . S
C605 C601 1.495 . S
C605 H611 0.959 . S
C605 H612 0.961 . S
C605 H613 0.960 . S
C606 C604 1.381 . S
C606 C607 1.394 . S
C606 H614 0.930 . S
C607 C606 1.394 . S
C607 C608 1.383 . S
C607 H615 0.929 . S
C608 C607 1.383 . S
C608 C609 1.377 . S
C609 H593 0.930 . S
C609 C608 1.377 . S
C609 C610 1.379 . S
C610 H594 0.931 . S
C610 C604 1.383 . S
C610 C609 1.379 . S
H611 C605 0.959 . S
H612 C605 0.961 . S
H613 C605 0.960 . S
H614 C606 0.930 . S
H615 C607 0.929 . S
H616 C624 0.929 . S
H617 C626 0.930 . S
H618 C628 0.930 . S
H619 C631 0.929 . S
H620 C634 0.930 . S
H621 C636 0.960 . S
H622 C636 0.960 . S
H623 C636 0.960 . S
C624 H616 0.929 . S
C624 C625 1.377 . S
C624 C626 1.384 . S
C625 C624 1.377 . S
C625 C631 1.390 . S
C626 H617 0.930 . S
C626 C624 1.384 . S
C626 C627 1.372 . S
C627 C626 1.372 . S
C627 C628 1.400 . S
C627 C632 1.490 . S
C628 H618 0.930 . S
C628 C627 1.400 . S
C628 C631 1.386 . S
H629 C645 0.930 . S
H630 C646 0.931 . S
C631 H619 0.929 . S
C631 C625 1.390 . S
C631 C628 1.386 . S
C632 C627 1.490 . S
C632 C634 1.395 . S
C632 C635 1.403 . S
H633 C639 0.930 . S
C634 H620 0.930 . S
C634 C632 1.395 . S
C634 C637 1.403 . S
C635 C632 1.403 . S
C635 C636 1.524 . S
C635 C639 1.400 . S
C636 H621 0.960 . S
C636 H622 0.960 . S
C636 H623 0.960 . S
C636 C635 1.524 . S
C637 C634 1.403 . S
C637 C638 1.392 . S
C637 C641 1.495 . S
C638 C637 1.392 . S
C638 C639 1.385 . S
C638 C640 1.478 . S
C639 H633 0.930 . S
C639 C635 1.400 . S
C639 C638 1.385 . S
C640 C638 1.478 . S
C640 C642 1.381 . S
C640 C646 1.383 . S
C641 C637 1.495 . S
C641 H647 0.959 . S
C641 H648 0.961 . S
C641 H649 0.960 . S
C642 C640 1.381 . S
C642 C643 1.394 . S
C642 H650 0.930 . S
C643 C642 1.394 . S
C643 C644 1.383 . S
C643 H651 0.929 . S
C644 C643 1.383 . S
C644 C645 1.377 . S
C645 H629 0.930 . S
C645 C644 1.377 . S
C645 C646 1.379 . S
C646 H630 0.931 . S
C646 C640 1.383 . S
C646 C645 1.379 . S
H647 C641 0.959 . S
H648 C641 0.961 . S
H649 C641 0.960 . S
H650 C642 0.930 . S
H651 C643 0.929 . S
H652 C660 0.929 . S
H653 C662 0.930 . S
H654 C664 0.930 . S
H655 C667 0.929 . S
H656 C670 0.930 . S
H657 C672 0.960 . S
H658 C672 0.960 . S
H659 C672 0.960 . S
C660 H652 0.929 . S
C660 C661 1.377 . S
C660 C662 1.384 . S
C661 C660 1.377 . S
C661 C667 1.390 . S
C662 H653 0.930 . S
C662 C660 1.384 . S
C662 C663 1.372 . S
C663 C662 1.372 . S
C663 C664 1.400 . S
C663 C668 1.490 . S
C664 H654 0.930 . S
C664 C663 1.400 . S
C664 C667 1.386 . S
H665 C681 0.930 . S
H666 C682 0.931 . S
C667 H655 0.929 . S
C667 C661 1.390 . S
C667 C664 1.386 . S
C668 C663 1.490 . S
C668 C670 1.395 . S
C668 C671 1.403 . S
H669 C675 0.930 . S
C670 H656 0.930 . S
C670 C668 1.395 . S
C670 C673 1.403 . S
C671 C668 1.403 . S
C671 C672 1.524 . S
C671 C675 1.400 . S
C672 H657 0.960 . S
C672 H658 0.960 . S
C672 H659 0.960 . S
C672 C671 1.524 . S
C673 C670 1.403 . S
C673 C674 1.392 . S
C673 C677 1.495 . S
C674 C673 1.392 . S
C674 C675 1.385 . S
C674 C676 1.478 . S
C675 H669 0.930 . S
C675 C671 1.400 . S
C675 C674 1.385 . S
C676 C674 1.478 . S
C676 C678 1.381 . S
C676 C682 1.383 . S
C677 C673 1.495 . S
C677 H683 0.959 . S
C677 H684 0.961 . S
C677 H685 0.960 . S
C678 C676 1.381 . S
C678 C679 1.394 . S
C678 H686 0.930 . S
C679 C678 1.394 . S
C679 C680 1.383 . S
C679 H687 0.929 . S
C680 C679 1.383 . S
C680 C681 1.377 . S
C681 H665 0.930 . S
C681 C680 1.377 . S
C681 C682 1.379 . S
C682 H666 0.931 . S
C682 C676 1.383 . S
C682 C681 1.379 . S
H683 C677 0.959 . S
H684 C677 0.961 . S
H685 C677 0.960 . S
H686 C678 0.930 . S
H687 C679 0.929 . S
H688 C696 0.929 . S
H689 C698 0.930 . S
H690 C700 0.930 . S
H691 C703 0.929 . S
H692 C706 0.930 . S
H693 C708 0.960 . S
H694 C708 0.960 . S
H695 C708 0.960 . S
C696 H688 0.929 . S
C696 C697 1.377 . S
C696 C698 1.384 . S
C697 C696 1.377 . S
C697 C703 1.390 . S
C698 H689 0.930 . S
C698 C696 1.384 . S
C698 C699 1.372 . S
C699 C698 1.372 . S
C699 C700 1.400 . S
C699 C704 1.490 . S
C700 H690 0.930 . S
C700 C699 1.400 . S
C700 C703 1.386 . S
H701 C717 0.930 . S
H702 C718 0.931 . S
C703 H691 0.929 . S
C703 C697 1.390 . S
C703 C700 1.386 . S
C704 C699 1.490 . S
C704 C706 1.395 . S
C704 C707 1.403 . S
H705 C711 0.930 . S
C706 H692 0.930 . S
C706 C704 1.395 . S
C706 C709 1.403 . S
C707 C704 1.403 . S
C707 C708 1.524 . S
C707 C711 1.400 . S
C708 H693 0.960 . S
C708 H694 0.960 . S
C708 H695 0.960 . S
C708 C707 1.524 . S
C709 C706 1.403 . S
C709 C710 1.392 . S
C709 C713 1.495 . S
C710 C709 1.392 . S
C710 C711 1.385 . S
C710 C712 1.478 . S
C711 H705 0.930 . S
C711 C707 1.400 . S
C711 C710 1.385 . S
C712 C710 1.478 . S
C712 C714 1.381 . S
C712 C718 1.383 . S
C713 C709 1.495 . S
C713 H719 0.959 . S
C713 H720 0.961 . S
C713 H721 0.960 . S
C714 C712 1.381 . S
C714 C715 1.394 . S
C714 H722 0.930 . S
C715 C714 1.394 . S
C715 C716 1.383 . S
C715 H723 0.929 . S
C716 C715 1.383 . S
C716 C717 1.377 . S
C717 H701 0.930 . S
C717 C716 1.377 . S
C717 C718 1.379 . S
C718 H702 0.931 . S
C718 C712 1.383 . S
C718 C717 1.379 . S
H719 C713 0.959 . S
H720 C713 0.961 . S
H721 C713 0.960 . S
H722 C714 0.930 . S
H723 C715 0.929 . S
H724 C732 0.929 . S
H725 C734 0.930 . S
H726 C736 0.930 . S
H727 C739 0.929 . S
H728 C742 0.930 . S
H729 C744 0.960 . S
H730 C744 0.960 . S
H731 C744 0.960 . S
C732 H724 0.929 . S
C732 C733 1.377 . S
C732 C734 1.384 . S
C733 C732 1.377 . S
C733 C739 1.390 . S
C734 H725 0.930 . S
C734 C732 1.384 . S
C734 C735 1.372 . S
C735 C734 1.372 . S
C735 C736 1.400 . S
C735 C740 1.490 . S
C736 H726 0.930 . S
C736 C735 1.400 . S
C736 C739 1.386 . S
H737 C753 0.930 . S
H738 C754 0.931 . S
C739 H727 0.929 . S
C739 C733 1.390 . S
C739 C736 1.386 . S
C740 C735 1.490 . S
C740 C742 1.395 . S
C740 C743 1.403 . S
H741 C747 0.930 . S
C742 H728 0.930 . S
C742 C740 1.395 . S
C742 C745 1.403 . S
C743 C740 1.403 . S
C743 C744 1.524 . S
C743 C747 1.400 . S
C744 H729 0.960 . S
C744 H730 0.960 . S
C744 H731 0.960 . S
C744 C743 1.524 . S
C745 C742 1.403 . S
C745 C746 1.392 . S
C745 C749 1.495 . S
C746 C745 1.392 . S
C746 C747 1.385 . S
C746 C748 1.478 . S
C747 H741 0.930 . S
C747 C743 1.400 . S
C747 C746 1.385 . S
C748 C746 1.478 . S
C748 C750 1.381 . S
C748 C754 1.383 . S
C749 C745 1.495 . S
C749 H755 0.959 . S
C749 H756 0.961 . S
C749 H757 0.960 . S
C750 C748 1.381 . S
C750 C751 1.394 . S
C750 H758 0.930 . S
C751 C750 1.394 . S
C751 C752 1.383 . S
C751 H759 0.929 . S
C752 C751 1.383 . S
C752 C753 1.377 . S
C753 H737 0.930 . S
C753 C752 1.377 . S
C753 C754 1.379 . S
C754 H738 0.931 . S
C754 C748 1.383 . S
C754 C753 1.379 . S
H755 C749 0.959 . S
H756 C749 0.961 . S
H757 C749 0.960 . S
H758 C750 0.930 . S
H759 C751 0.929 . S
H760 C768 0.929 . S
H761 C770 0.930 . S
H762 C772 0.930 . S
H763 C775 0.929 . S
H764 C778 0.930 . S
H765 C780 0.960 . S
H766 C780 0.960 . S
H767 C780 0.960 . S
C768 H760 0.929 . S
C768 C769 1.377 . S
C768 C770 1.384 . S
C769 C768 1.377 . S
C769 C775 1.390 . S
C770 H761 0.930 . S
C770 C768 1.384 . S
C770 C771 1.372 . S
C771 C770 1.372 . S
C771 C772 1.400 . S
C771 C776 1.490 . S
C772 H762 0.930 . S
C772 C771 1.400 . S
C772 C775 1.386 . S
H773 C789 0.930 . S
H774 C790 0.931 . S
C775 H763 0.929 . S
C775 C769 1.390 . S
C775 C772 1.386 . S
C776 C771 1.490 . S
C776 C778 1.395 . S
C776 C779 1.403 . S
H777 C783 0.930 . S
C778 H764 0.930 . S
C778 C776 1.395 . S
C778 C781 1.403 . S
C779 C776 1.403 . S
C779 C780 1.524 . S
C779 C783 1.400 . S
C780 H765 0.960 . S
C780 H766 0.960 . S
C780 H767 0.960 . S
C780 C779 1.524 . S
C781 C778 1.403 . S
C781 C782 1.392 . S
C781 C785 1.495 . S
C782 C781 1.392 . S
C782 C783 1.385 . S
C782 C784 1.478 . S
C783 H777 0.930 . S
C783 C779 1.400 . S
C783 C782 1.385 . S
C784 C782 1.478 . S
C784 C786 1.381 . S
C784 C790 1.383 . S
C785 C781 1.495 . S
C785 H791 0.959 . S
C785 H792 0.961 . S
C785 H793 0.960 . S
C786 C784 1.381 . S
C786 C787 1.394 . S
C786 H794 0.930 . S
C787 C786 1.394 . S
C787 C788 1.383 . S
C787 H795 0.929 . S
C788 C787 1.383 . S
C788 C789 1.377 . S
C789 H773 0.930 . S
C789 C788 1.377 . S
C789 C790 1.379 . S
C790 H774 0.931 . S
C790 C784 1.383 . S
C790 C789 1.379 . S
H791 C785 0.959 . S
H792 C785 0.961 . S
H793 C785 0.960 . S
H794 C786 0.930 . S
H795 C787 0.929 . S
H796 C804 0.929 . S
H797 C806 0.930 . S
H798 C808 0.930 . S
H799 C811 0.929 . S
H800 C814 0.930 . S
H801 C816 0.960 . S
H802 C816 0.960 . S
H803 C816 0.960 . S
C804 H796 0.929 . S
C804 C805 1.377 . S
C804 C806 1.384 . S
C805 C804 1.377 . S
C805 C811 1.390 . S
C806 H797 0.930 . S
C806 C804 1.384 . S
C806 C807 1.372 . S
C807 C806 1.372 . S
C807 C808 1.400 . S
C807 C812 1.490 . S
C808 H798 0.930 . S
C808 C807 1.400 . S
C808 C811 1.386 . S
H809 C825 0.930 . S
H810 C826 0.931 . S
C811 H799 0.929 . S
C811 C805 1.390 . S
C811 C808 1.386 . S
C812 C807 1.490 . S
C812 C814 1.395 . S
C812 C815 1.403 . S
H813 C819 0.930 . S
C814 H800 0.930 . S
C814 C812 1.395 . S
C814 C817 1.403 . S
C815 C812 1.403 . S
C815 C816 1.524 . S
C815 C819 1.400 . S
C816 H801 0.960 . S
C816 H802 0.960 . S
C816 H803 0.960 . S
C816 C815 1.524 . S
C817 C814 1.403 . S
C817 C818 1.392 . S
C817 C821 1.495 . S
C818 C817 1.392 . S
C818 C819 1.385 . S
C818 C820 1.478 . S
C819 H813 0.930 . S
C819 C815 1.400 . S
C819 C818 1.385 . S
C820 C818 1.478 . S
C820 C822 1.381 . S
C820 C826 1.383 . S
C821 C817 1.495 . S
C821 H827 0.959 . S
C821 H828 0.961 . S
C821 H829 0.960 . S
C822 C820 1.381 . S
C822 C823 1.394 . S
C822 H830 0.930 . S
C823 C822 1.394 . S
C823 C824 1.383 . S
C823 H831 0.929 . S
C824 C823 1.383 . S
C824 C825 1.377 . S
C825 H809 0.930 . S
C825 C824 1.377 . S
C825 C826 1.379 . S
C826 H810 0.931 . S
C826 C820 1.383 . S
C826 C825 1.379 . S
H827 C821 0.959 . S
H828 C821 0.961 . S
H829 C821 0.960 . S
H830 C822 0.930 . S
H831 C823 0.929 . S
H832 C840 0.929 . S
H833 C842 0.930 . S
H834 C844 0.930 . S
H835 C847 0.929 . S
H836 C850 0.930 . S
H837 C852 0.960 . S
H838 C852 0.960 . S
H839 C852 0.960 . S
C840 H832 0.929 . S
C840 C841 1.377 . S
C840 C842 1.384 . S
C841 C840 1.377 . S
C841 C847 1.390 . S
C842 H833 0.930 . S
C842 C840 1.384 . S
C842 C843 1.372 . S
C843 C842 1.372 . S
C843 C844 1.400 . S
C843 C848 1.490 . S
C844 H834 0.930 . S
C844 C843 1.400 . S
C844 C847 1.386 . S
H845 C861 0.930 . S
H846 C862 0.931 . S
C847 H835 0.929 . S
C847 C841 1.390 . S
C847 C844 1.386 . S
C848 C843 1.490 . S
C848 C850 1.395 . S
C848 C851 1.403 . S
H849 C855 0.930 . S
C850 H836 0.930 . S
C850 C848 1.395 . S
C850 C853 1.403 . S
C851 C848 1.403 . S
C851 C852 1.524 . S
C851 C855 1.400 . S
C852 H837 0.960 . S
C852 H838 0.960 . S
C852 H839 0.960 . S
C852 C851 1.524 . S
C853 C850 1.403 . S
C853 C854 1.392 . S
C853 C857 1.495 . S
C854 C853 1.392 . S
C854 C855 1.385 . S
C854 C856 1.478 . S
C855 H849 0.930 . S
C855 C851 1.400 . S
C855 C854 1.385 . S
C856 C854 1.478 . S
C856 C858 1.381 . S
C856 C862 1.383 . S
C857 C853 1.495 . S
C857 H863 0.959 . S
C857 H864 0.961 . S
C857 H865 0.960 . S
C858 C856 1.381 . S
C858 C859 1.394 . S
C858 H866 0.930 . S
C859 C858 1.394 . S
C859 C860 1.383 . S
C859 H867 0.929 . S
C860 C859 1.383 . S
C860 C861 1.377 . S
C861 H845 0.930 . S
C861 C860 1.377 . S
C861 C862 1.379 . S
C862 H846 0.931 . S
C862 C856 1.383 . S
C862 C861 1.379 . S
H863 C857 0.959 . S
H864 C857 0.961 . S
H865 C857 0.960 . S
H866 C858 0.930 . S
H867 C859 0.929 . S
H868 C876 0.929 . S
H869 C878 0.930 . S
H870 C880 0.930 . S
H871 C883 0.929 . S
H872 C886 0.930 . S
H873 C888 0.960 . S
H874 C888 0.960 . S
H875 C888 0.960 . S
C876 H868 0.929 . S
C876 C877 1.377 . S
C876 C878 1.384 . S
C877 C876 1.377 . S
C877 C883 1.390 . S
C878 H869 0.930 . S
C878 C876 1.384 . S
C878 C879 1.372 . S
C879 C878 1.372 . S
C879 C880 1.400 . S
C879 C884 1.490 . S
C880 H870 0.930 . S
C880 C879 1.400 . S
C880 C883 1.386 . S
H881 C897 0.930 . S
H882 C898 0.931 . S
C883 H871 0.929 . S
C883 C877 1.390 . S
C883 C880 1.386 . S
C884 C879 1.490 . S
C884 C886 1.395 . S
C884 C887 1.403 . S
H885 C891 0.930 . S
C886 H872 0.930 . S
C886 C884 1.395 . S
C886 C889 1.403 . S
C887 C884 1.403 . S
C887 C888 1.524 . S
C887 C891 1.400 . S
C888 H873 0.960 . S
C888 H874 0.960 . S
C888 H875 0.960 . S
C888 C887 1.524 . S
C889 C886 1.403 . S
C889 C890 1.392 . S
C889 C893 1.495 . S
C890 C889 1.392 . S
C890 C891 1.385 . S
C890 C892 1.478 . S
C891 H885 0.930 . S
C891 C887 1.400 . S
C891 C890 1.385 . S
C892 C890 1.478 . S
C892 C894 1.381 . S
C892 C898 1.383 . S
C893 C889 1.495 . S
C893 H899 0.959 . S
C893 H900 0.961 . S
C893 H901 0.960 . S
C894 C892 1.381 . S
C894 C895 1.394 . S
C894 H902 0.930 . S
C895 C894 1.394 . S
C895 C896 1.383 . S
C895 H903 0.929 . S
C896 C895 1.383 . S
C896 C897 1.377 . S
C897 H881 0.930 . S
C897 C896 1.377 . S
C897 C898 1.379 . S
C898 H882 0.931 . S
C898 C892 1.383 . S
C898 C897 1.379 . S
H899 C893 0.959 . S
H900 C893 0.961 . S
H901 C893 0.960 . S
H902 C894 0.930 . S
H903 C895 0.929 . S
H904 C912 0.929 . S
H905 C914 0.930 . S
H906 C916 0.930 . S
H907 C919 0.929 . S
H908 C922 0.930 . S
H909 C924 0.960 . S
H910 C924 0.960 . S
H911 C924 0.960 . S
C912 H904 0.929 . S
C912 C913 1.377 . S
C912 C914 1.384 . S
C913 C912 1.377 . S
C913 C919 1.390 . S
C914 H905 0.930 . S
C914 C912 1.384 . S
C914 C915 1.372 . S
C915 C914 1.372 . S
C915 C916 1.400 . S
C915 C920 1.490 . S
C916 H906 0.930 . S
C916 C915 1.400 . S
C916 C919 1.386 . S
H917 C933 0.930 . S
H918 C934 0.931 . S
C919 H907 0.929 . S
C919 C913 1.390 . S
C919 C916 1.386 . S
C920 C915 1.490 . S
C920 C922 1.395 . S
C920 C923 1.403 . S
H921 C927 0.930 . S
C922 H908 0.930 . S
C922 C920 1.395 . S
C922 C925 1.403 . S
C923 C920 1.403 . S
C923 C924 1.524 . S
C923 C927 1.400 . S
C924 H909 0.960 . S
C924 H910 0.960 . S
C924 H911 0.960 . S
C924 C923 1.524 . S
C925 C922 1.403 . S
C925 C926 1.392 . S
C925 C929 1.495 . S
C926 C925 1.392 . S
C926 C927 1.385 . S
C926 C928 1.478 . S
C927 H921 0.930 . S
C927 C923 1.400 . S
C927 C926 1.385 . S
C928 C926 1.478 . S
C928 C930 1.381 . S
C928 C934 1.383 . S
C929 C925 1.495 . S
C929 H935 0.959 . S
C929 H936 0.961 . S
C929 H937 0.960 . S
C930 C928 1.381 . S
C930 C931 1.394 . S
C930 H938 0.930 . S
C931 C930 1.394 . S
C931 C932 1.383 . S
C931 H939 0.929 . S
C932 C931 1.383 . S
C932 C933 1.377 . S
C933 H917 0.930 . S
C933 C932 1.377 . S
C933 C934 1.379 . S
C934 H918 0.931 . S
C934 C928 1.383 . S
C934 C933 1.379 . S
H935 C929 0.959 . S
H936 C929 0.961 . S
H937 C929 0.960 . S
H938 C930 0.930 . S
H939 C931 0.929 . S
H940 C948 0.929 . S
H941 C950 0.930 . S
H942 C952 0.930 . S
H943 C955 0.929 . S
H944 C958 0.930 . S
H945 C960 0.960 . S
H946 C960 0.960 . S
H947 C960 0.960 . S
C948 H940 0.929 . S
C948 C949 1.377 . S
C948 C950 1.384 . S
C949 C948 1.377 . S
C949 C955 1.390 . S
C950 H941 0.930 . S
C950 C948 1.384 . S
C950 C951 1.372 . S
C951 C950 1.372 . S
C951 C952 1.400 . S
C951 C956 1.490 . S
C952 H942 0.930 . S
C952 C951 1.400 . S
C952 C955 1.386 . S
H953 C969 0.930 . S
H954 C970 0.931 . S
C955 H943 0.929 . S
C955 C949 1.390 . S
C955 C952 1.386 . S
C956 C951 1.490 . S
C956 C958 1.395 . S
C956 C959 1.403 . S
H957 C963 0.930 . S
C958 H944 0.930 . S
C958 C956 1.395 . S
C958 C961 1.403 . S
C959 C956 1.403 . S
C959 C960 1.524 . S
C959 C963 1.400 . S
C960 H945 0.960 . S
C960 H946 0.960 . S
C960 H947 0.960 . S
C960 C959 1.524 . S
C961 C958 1.403 . S
C961 C962 1.392 . S
C961 C965 1.495 . S
C962 C961 1.392 . S
C962 C963 1.385 . S
C962 C964 1.478 . S
C963 H957 0.930 . S
C963 C959 1.400 . S
C963 C962 1.385 . S
C964 C962 1.478 . S
C964 C966 1.381 . S
C964 C970 1.383 . S
C965 C961 1.495 . S
C965 H971 0.959 . S
C965 H972 0.961 . S
C965 H973 0.960 . S
C966 C964 1.381 . S
C966 C967 1.394 . S
C966 H974 0.930 . S
C967 C966 1.394 . S
C967 C968 1.383 . S
C967 H975 0.929 . S
C968 C967 1.383 . S
C968 C969 1.377 . S
C969 H953 0.930 . S
C969 C968 1.377 . S
C969 C970 1.379 . S
C970 H954 0.931 . S
C970 C964 1.383 . S
C970 C969 1.379 . S
H971 C965 0.959 . S
H972 C965 0.961 . S
H973 C965 0.960 . S
H974 C966 0.930 . S
H975 C967 0.929 . S
H976 C984 0.929 . S
H977 C986 0.930 . S
H978 C988 0.930 . S
H979 C991 0.929 . S
H980 C994 0.930 . S
H981 C996 0.960 . S
H982 C996 0.960 . S
H983 C996 0.960 . S
C984 H976 0.929 . S
C984 C985 1.377 . S
C984 C986 1.384 . S
C985 C984 1.377 . S
C985 C991 1.390 . S
C986 H977 0.930 . S
C986 C984 1.384 . S
C986 C987 1.372 . S
C987 C986 1.372 . S
C987 C988 1.400 . S
C987 C992 1.490 . S
C988 H978 0.930 . S
C988 C987 1.400 . S
C988 C991 1.386 . S
H989 C1005 0.930 . S
H990 C1006 0.931 . S
C991 H979 0.929 . S
C991 C985 1.390 . S
C991 C988 1.386 . S
C992 C987 1.490 . S
C992 C994 1.395 . S
C992 C995 1.403 . S
H993 C999 0.930 . S
C994 H980 0.930 . S
C994 C992 1.395 . S
C994 C997 1.403 . S
C995 C992 1.403 . S
C995 C996 1.524 . S
C995 C999 1.400 . S
C996 H981 0.960 . S
C996 H982 0.960 . S
C996 H983 0.960 . S
C996 C995 1.524 . S
C997 C994 1.403 . S
C997 C998 1.392 . S
C997 C1001 1.495 . S
C998 C997 1.392 . S
C998 C999 1.385 . S
C998 C1000 1.478 . S
C999 H993 0.930 . S
C999 C995 1.400 . S
C999 C998 1.385 . S
C1000 C998 1.478 . S
C1000 C1002 1.381 . S
C1000 C1006 1.383 . S
C1001 C997 1.495 . S
C1001 H1007 0.959 . S
C1001 H1008 0.961 . S
C1001 H1009 0.960 . S
C1002 C1000 1.381 . S
C1002 C1003 1.394 . S
C1002 H1010 0.930 . S
C1003 C1002 1.394 . S
C1003 C1004 1.383 . S
C1003 H1011 0.929 . S
C1004 C1003 1.383 . S
C1004 C1005 1.377 . S
C1005 H989 0.930 . S
C1005 C1004 1.377 . S
C1005 C1006 1.379 . S
C1006 H990 0.931 . S
C1006 C1000 1.383 . S
C1006 C1005 1.379 . S
H1007 C1001 0.959 . S
H1008 C1001 0.961 . S
H1009 C1001 0.960 . S
H1010 C1002 0.930 . S
H1011 C1003 0.929 . S
H1012 C1020 0.929 . S
H1013 C1022 0.930 . S
H1014 C1024 0.930 . S
H1015 C1027 0.929 . S
H1016 C1030 0.930 . S
H1017 C1032 0.960 . S
H1018 C1032 0.960 . S
H1019 C1032 0.960 . S
C1020 H1012 0.929 . S
C1020 C1021 1.377 . S
C1020 C1022 1.384 . S
C1021 C1020 1.377 . S
C1021 C1027 1.390 . S
C1022 H1013 0.930 . S
C1022 C1020 1.384 . S
C1022 C1023 1.372 . S
C1023 C1022 1.372 . S
C1023 C1024 1.400 . S
C1023 C1028 1.490 . S
C1024 H1014 0.930 . S
C1024 C1023 1.400 . S
C1024 C1027 1.386 . S
H1025 C1041 0.930 . S
H1026 C1042 0.931 . S
C1027 H1015 0.929 . S
C1027 C1021 1.390 . S
C1027 C1024 1.386 . S
C1028 C1023 1.490 . S
C1028 C1030 1.395 . S
C1028 C1031 1.403 . S
H1029 C1035 0.930 . S
C1030 H1016 0.930 . S
C1030 C1028 1.395 . S
C1030 C1033 1.403 . S
C1031 C1028 1.403 . S
C1031 C1032 1.524 . S
C1031 C1035 1.400 . S
C1032 H1017 0.960 . S
C1032 H1018 0.960 . S
C1032 H1019 0.960 . S
C1032 C1031 1.524 . S
C1033 C1030 1.403 . S
C1033 C1034 1.392 . S
C1033 C1037 1.495 . S
C1034 C1033 1.392 . S
C1034 C1035 1.385 . S
C1034 C1036 1.478 . S
C1035 H1029 0.930 . S
C1035 C1031 1.400 . S
C1035 C1034 1.385 . S
C1036 C1034 1.478 . S
C1036 C1038 1.381 . S
C1036 C1042 1.383 . S
C1037 C1033 1.495 . S
C1037 H1043 0.959 . S
C1037 H1044 0.961 . S
C1037 H1045 0.960 . S
C1038 C1036 1.381 . S
C1038 C1039 1.394 . S
C1038 H1046 0.930 . S
C1039 C1038 1.394 . S
C1039 C1040 1.383 . S
C1039 H1047 0.929 . S
C1040 C1039 1.383 . S
C1040 C1041 1.377 . S
C1041 H1025 0.930 . S
C1041 C1040 1.377 . S
C1041 C1042 1.379 . S
C1042 H1026 0.931 . S
C1042 C1036 1.383 . S
C1042 C1041 1.379 . S
H1043 C1037 0.959 . S
H1044 C1037 0.961 . S
H1045 C1037 0.960 . S
H1046 C1038 0.930 . S
H1047 C1039 0.929 . S
H1048 C1056 0.929 . S
H1049 C1058 0.930 . S
H1050 C1060 0.930 . S
H1051 C1063 0.929 . S
H1052 C1066 0.930 . S
H1053 C1068 0.960 . S
H1054 C1068 0.960 . S
H1055 C1068 0.960 . S
C1056 H1048 0.929 . S
C1056 C1057 1.377 . S
C1056 C1058 1.384 . S
C1057 C1056 1.377 . S
C1057 C1063 1.390 . S
C1058 H1049 0.930 . S
C1058 C1056 1.384 . S
C1058 C1059 1.372 . S
C1059 C1058 1.372 . S
C1059 C1060 1.400 . S
C1059 C1064 1.490 . S
C1060 H1050 0.930 . S
C1060 C1059 1.400 . S
C1060 C1063 1.386 . S
H1061 C1077 0.930 . S
H1062 C1078 0.931 . S
C1063 H1051 0.929 . S
C1063 C1057 1.390 . S
C1063 C1060 1.386 . S
C1064 C1059 1.490 . S
C1064 C1066 1.395 . S
C1064 C1067 1.403 . S
H1065 C1071 0.930 . S
C1066 H1052 0.930 . S
C1066 C1064 1.395 . S
C1066 C1069 1.403 . S
C1067 C1064 1.403 . S
C1067 C1068 1.524 . S
C1067 C1071 1.400 . S
C1068 H1053 0.960 . S
C1068 H1054 0.960 . S
C1068 H1055 0.960 . S
C1068 C1067 1.524 . S
C1069 C1066 1.403 . S
C1069 C1070 1.392 . S
C1069 C1073 1.495 . S
C1070 C1069 1.392 . S
C1070 C1071 1.385 . S
C1070 C1072 1.478 . S
C1071 H1065 0.930 . S
C1071 C1067 1.400 . S
C1071 C1070 1.385 . S
C1072 C1070 1.478 . S
C1072 C1074 1.381 . S
C1072 C1078 1.383 . S
C1073 C1069 1.495 . S
C1073 H1079 0.959 . S
C1073 H1080 0.961 . S
C1073 H1081 0.960 . S
C1074 C1072 1.381 . S
C1074 C1075 1.394 . S
C1074 H1082 0.930 . S
C1075 C1074 1.394 . S
C1075 C1076 1.383 . S
C1075 H1083 0.929 . S
C1076 C1075 1.383 . S
C1076 C1077 1.377 . S
C1077 H1061 0.930 . S
C1077 C1076 1.377 . S
C1077 C1078 1.379 . S
C1078 H1062 0.931 . S
C1078 C1072 1.383 . S
C1078 C1077 1.379 . S
H1079 C1073 0.959 . S
H1080 C1073 0.961 . S
H1081 C1073 0.960 . S
H1082 C1074 0.930 . S
H1083 C1075 0.929 . S
H1084 C1092 0.929 . S
H1085 C1094 0.930 . S
H1086 C1096 0.930 . S
H1087 C1099 0.929 . S
H1088 C1102 0.930 . S
H1089 C1104 0.960 . S
H1090 C1104 0.960 . S
H1091 C1104 0.960 . S
C1092 H1084 0.929 . S
C1092 C1093 1.377 . S
C1092 C1094 1.384 . S
C1093 C1092 1.377 . S
C1093 C1099 1.390 . S
C1094 H1085 0.930 . S
C1094 C1092 1.384 . S
C1094 C1095 1.372 . S
C1095 C1094 1.372 . S
C1095 C1096 1.400 . S
C1095 C1100 1.490 . S
C1096 H1086 0.930 . S
C1096 C1095 1.400 . S
C1096 C1099 1.386 . S
H1097 C1113 0.930 . S
H1098 C1114 0.931 . S
C1099 H1087 0.929 . S
C1099 C1093 1.390 . S
C1099 C1096 1.386 . S
C1100 C1095 1.490 . S
C1100 C1102 1.395 . S
C1100 C1103 1.403 . S
H1101 C1107 0.930 . S
C1102 H1088 0.930 . S
C1102 C1100 1.395 . S
C1102 C1105 1.403 . S
C1103 C1100 1.403 . S
C1103 C1104 1.524 . S
C1103 C1107 1.400 . S
C1104 H1089 0.960 . S
C1104 H1090 0.960 . S
C1104 H1091 0.960 . S
C1104 C1103 1.524 . S
C1105 C1102 1.403 . S
C1105 C1106 1.392 . S
C1105 C1109 1.495 . S
C1106 C1105 1.392 . S
C1106 C1107 1.385 . S
C1106 C1108 1.478 . S
C1107 H1101 0.930 . S
C1107 C1103 1.400 . S
C1107 C1106 1.385 . S
C1108 C1106 1.478 . S
C1108 C1110 1.381 . S
C1108 C1114 1.383 . S
C1109 C1105 1.495 . S
C1109 H1115 0.959 . S
C1109 H1116 0.961 . S
C1109 H1117 0.960 . S
C1110 C1108 1.381 . S
C1110 C1111 1.394 . S
C1110 H1118 0.930 . S
C1111 C1110 1.394 . S
C1111 C1112 1.383 . S
C1111 H1119 0.929 . S
C1112 C1111 1.383 . S
C1112 C1113 1.377 . S
C1113 H1097 0.930 . S
C1113 C1112 1.377 . S
C1113 C1114 1.379 . S
C1114 H1098 0.931 . S
C1114 C1108 1.383 . S
C1114 C1113 1.379 . S
H1115 C1109 0.959 . S
H1116 C1109 0.961 . S
H1117 C1109 0.960 . S
H1118 C1110 0.930 . S
H1119 C1111 0.929 . S
H1120 C1128 0.929 . S
H1121 C1130 0.930 . S
H1122 C1132 0.930 . S
H1123 C1135 0.929 . S
H1124 C1138 0.930 . S
H1125 C1140 0.960 . S
H1126 C1140 0.960 . S
H1127 C1140 0.960 . S
C1128 H1120 0.929 . S
C1128 C1129 1.377 . S
C1128 C1130 1.384 . S
C1129 C1128 1.377 . S
C1129 C1135 1.390 . S
C1130 H1121 0.930 . S
C1130 C1128 1.384 . S
C1130 C1131 1.372 . S
C1131 C1130 1.372 . S
C1131 C1132 1.400 . S
C1131 C1136 1.490 . S
C1132 H1122 0.930 . S
C1132 C1131 1.400 . S
C1132 C1135 1.386 . S
H1133 C1149 0.930 . S
H1134 C1150 0.931 . S
C1135 H1123 0.929 . S
C1135 C1129 1.390 . S
C1135 C1132 1.386 . S
C1136 C1131 1.490 . S
C1136 C1138 1.395 . S
C1136 C1139 1.403 . S
H1137 C1143 0.930 . S
C1138 H1124 0.930 . S
C1138 C1136 1.395 . S
C1138 C1141 1.403 . S
C1139 C1136 1.403 . S
C1139 C1140 1.524 . S
C1139 C1143 1.400 . S
C1140 H1125 0.960 . S
C1140 H1126 0.960 . S
C1140 H1127 0.960 . S
C1140 C1139 1.524 . S
C1141 C1138 1.403 . S
C1141 C1142 1.392 . S
C1141 C1145 1.495 . S
C1142 C1141 1.392 . S
C1142 C1143 1.385 . S
C1142 C1144 1.478 . S
C1143 H1137 0.930 . S
C1143 C1139 1.400 . S
C1143 C1142 1.385 . S
C1144 C1142 1.478 . S
C1144 C1146 1.381 . S
C1144 C1150 1.383 . S
C1145 C1141 1.495 . S
C1145 H1151 0.959 . S
C1145 H1152 0.961 . S
C1145 H1153 0.960 . S
C1146 C1144 1.381 . S
C1146 C1147 1.394 . S
C1146 H1154 0.930 . S
C1147 C1146 1.394 . S
C1147 C1148 1.383 . S
C1147 H1155 0.929 . S
C1148 C1147 1.383 . S
C1148 C1149 1.377 . S
C1149 H1133 0.930 . S
C1149 C1148 1.377 . S
C1149 C1150 1.379 . S
C1150 H1134 0.931 . S
C1150 C1144 1.383 . S
C1150 C1149 1.379 . S
H1151 C1145 0.959 . S
H1152 C1145 0.961 . S
H1153 C1145 0.960 . S
H1154 C1146 0.930 . S
H1155 C1147 0.929 . S
H1156 C1164 0.929 . S
H1157 C1166 0.930 . S
H1158 C1168 0.930 . S
H1159 C1171 0.929 . S
H1160 C1174 0.930 . S
H1161 C1176 0.960 . S
H1162 C1176 0.960 . S
H1163 C1176 0.960 . S
C1164 H1156 0.929 . S
C1164 C1165 1.377 . S
C1164 C1166 1.384 . S
C1165 C1164 1.377 . S
C1165 C1171 1.390 . S
C1166 H1157 0.930 . S
C1166 C1164 1.384 . S
C1166 C1167 1.372 . S
C1167 C1166 1.372 . S
C1167 C1168 1.400 . S
C1167 C1172 1.490 . S
C1168 H1158 0.930 . S
C1168 C1167 1.400 . S
C1168 C1171 1.386 . S
H1169 C1185 0.930 . S
H1170 C1186 0.931 . S
C1171 H1159 0.929 . S
C1171 C1165 1.390 . S
C1171 C1168 1.386 . S
C1172 C1167 1.490 . S
C1172 C1174 1.395 . S
C1172 C1175 1.403 . S
H1173 C1179 0.930 . S
C1174 H1160 0.930 . S
C1174 C1172 1.395 . S
C1174 C1177 1.403 . S
C1175 C1172 1.403 . S
C1175 C1176 1.524 . S
C1175 C1179 1.400 . S
C1176 H1161 0.960 . S
C1176 H1162 0.960 . S
C1176 H1163 0.960 . S
C1176 C1175 1.524 . S
C1177 C1174 1.403 . S
C1177 C1178 1.392 . S
C1177 C1181 1.495 . S
C1178 C1177 1.392 . S
C1178 C1179 1.385 . S
C1178 C1180 1.478 . S
C1179 H1173 0.930 . S
C1179 C1175 1.400 . S
C1179 C1178 1.385 . S
C1180 C1178 1.478 . S
C1180 C1182 1.381 . S
C1180 C1186 1.383 . S
C1181 C1177 1.495 . S
C1181 H1187 0.959 . S
C1181 H1188 0.961 . S
C1181 H1189 0.960 . S
C1182 C1180 1.381 . S
C1182 C1183 1.394 . S
C1182 H1190 0.930 . S
C1183 C1182 1.394 . S
C1183 C1184 1.383 . S
C1183 H1191 0.929 . S
C1184 C1183 1.383 . S
C1184 C1185 1.377 . S
C1185 H1169 0.930 . S
C1185 C1184 1.377 . S
C1185 C1186 1.379 . S
C1186 H1170 0.931 . S
C1186 C1180 1.383 . S
C1186 C1185 1.379 . S
H1187 C1181 0.959 . S
H1188 C1181 0.961 . S
H1189 C1181 0.960 . S
H1190 C1182 0.930 . S
H1191 C1183 0.929 . S
H1192 C1200 0.929 . S
H1193 C1202 0.930 . S
H1194 C1204 0.930 . S
H1195 C1207 0.929 . S
H1196 C1210 0.930 . S
H1197 C1212 0.960 . S
H1198 C1212 0.960 . S
H1199 C1212 0.960 . S
C1200 H1192 0.929 . S
C1200 C1201 1.377 . S
C1200 C1202 1.384 . S
C1201 C1200 1.377 . S
C1201 C1207 1.390 . S
C1202 H1193 0.930 . S
C1202 C1200 1.384 . S
C1202 C1203 1.372 . S
C1203 C1202 1.372 . S
C1203 C1204 1.400 . S
C1203 C1208 1.490 . S
C1204 H1194 0.930 . S
C1204 C1203 1.400 . S
C1204 C1207 1.386 . S
H1205 C1221 0.930 . S
H1206 C1222 0.931 . S
C1207 H1195 0.929 . S
C1207 C1201 1.390 . S
C1207 C1204 1.386 . S
C1208 C1203 1.490 . S
C1208 C1210 1.395 . S
C1208 C1211 1.403 . S
H1209 C1215 0.930 . S
C1210 H1196 0.930 . S
C1210 C1208 1.395 . S
C1210 C1213 1.403 . S
C1211 C1208 1.403 . S
C1211 C1212 1.524 . S
C1211 C1215 1.400 . S
C1212 H1197 0.960 . S
C1212 H1198 0.960 . S
C1212 H1199 0.960 . S
C1212 C1211 1.524 . S
C1213 C1210 1.403 . S
C1213 C1214 1.392 . S
C1213 C1217 1.495 . S
C1214 C1213 1.392 . S
C1214 C1215 1.385 . S
C1214 C1216 1.478 . S
C1215 H1209 0.930 . S
C1215 C1211 1.400 . S
C1215 C1214 1.385 . S
C1216 C1214 1.478 . S
C1216 C1218 1.381 . S
C1216 C1222 1.383 . S
C1217 C1213 1.495 . S
C1217 H1223 0.959 . S
C1217 H1224 0.961 . S
C1217 H1225 0.960 . S
C1218 C1216 1.381 . S
C1218 C1219 1.394 . S
C1218 H1226 0.930 . S
C1219 C1218 1.394 . S
C1219 C1220 1.383 . S
C1219 H1227 0.929 . S
C1220 C1219 1.383 . S
C1220 C1221 1.377 . S
C1221 H1205 0.930 . S
C1221 C1220 1.377 . S
C1221 C1222 1.379 . S
C1222 H1206 0.931 . S
C1222 C1216 1.383 . S
C1222 C1221 1.379 . S
H1223 C1217 0.959 . S
H1224 C1217 0.961 . S
H1225 C1217 0.960 . S
H1226 C1218 0.930 . S
H1227 C1219 0.929 . S
H1228 C1236 0.929 . S
H1229 C1238 0.930 . S
H1230 C1240 0.930 . S
H1231 C1243 0.929 . S
H1232 C1246 0.930 . S
H1233 C1248 0.960 . S
H1234 C1248 0.960 . S
H1235 C1248 0.960 . S
C1236 H1228 0.929 . S
C1236 C1237 1.377 . S
C1236 C1238 1.384 . S
C1237 C1236 1.377 . S
C1237 C1243 1.390 . S
C1238 H1229 0.930 . S
C1238 C1236 1.384 . S
C1238 C1239 1.372 . S
C1239 C1238 1.372 . S
C1239 C1240 1.400 . S
C1239 C1244 1.490 . S
C1240 H1230 0.930 . S
C1240 C1239 1.400 . S
C1240 C1243 1.386 . S
H1241 C1257 0.930 . S
H1242 C1258 0.931 . S
C1243 H1231 0.929 . S
C1243 C1237 1.390 . S
C1243 C1240 1.386 . S
C1244 C1239 1.490 . S
C1244 C1246 1.395 . S
C1244 C1247 1.403 . S
H1245 C1251 0.930 . S
C1246 H1232 0.930 . S
C1246 C1244 1.395 . S
C1246 C1249 1.403 . S
C1247 C1244 1.403 . S
C1247 C1248 1.524 . S
C1247 C1251 1.400 . S
C1248 H1233 0.960 . S
C1248 H1234 0.960 . S
C1248 H1235 0.960 . S
C1248 C1247 1.524 . S
C1249 C1246 1.403 . S
C1249 C1250 1.392 . S
C1249 C1253 1.495 . S
C1250 C1249 1.392 . S
C1250 C1251 1.385 . S
C1250 C1252 1.478 . S
C1251 H1245 0.930 . S
C1251 C1247 1.400 . S
C1251 C1250 1.385 . S
C1252 C1250 1.478 . S
C1252 C1254 1.381 . S
C1252 C1258 1.383 . S
C1253 C1249 1.495 . S
C1253 H1259 0.959 . S
C1253 H1260 0.961 . S
C1253 H1261 0.960 . S
C1254 C1252 1.381 . S
C1254 C1255 1.394 . S
C1254 H1262 0.930 . S
C1255 C1254 1.394 . S
C1255 C1256 1.383 . S
C1255 H1263 0.929 . S
C1256 C1255 1.383 . S
C1256 C1257 1.377 . S
C1257 H1241 0.930 . S
C1257 C1256 1.377 . S
C1257 C1258 1.379 . S
C1258 H1242 0.931 . S
C1258 C1252 1.383 . S
C1258 C1257 1.379 . S
H1259 C1253 0.959 . S
H1260 C1253 0.961 . S
H1261 C1253 0.960 . S
H1262 C1254 0.930 . S
H1263 C1255 0.929 . S
H1264 C1272 0.929 . S
H1265 C1274 0.930 . S
H1266 C1276 0.930 . S
H1267 C1279 0.929 . S
H1268 C1282 0.930 . S
H1269 C1284 0.960 . S
H1270 C1284 0.960 . S
H1271 C1284 0.960 . S
C1272 H1264 0.929 . S
C1272 C1273 1.377 . S
C1272 C1274 1.384 . S
C1273 C1272 1.377 . S
C1273 C1279 1.390 . S
C1274 H1265 0.930 . S
C1274 C1272 1.384 . S
C1274 C1275 1.372 . S
C1275 C1274 1.372 . S
C1275 C1276 1.400 . S
C1275 C1280 1.490 . S
C1276 H1266 0.930 . S
C1276 C1275 1.400 . S
C1276 C1279 1.386 . S
H1277 C1293 0.930 . S
H1278 C1294 0.931 . S
C1279 H1267 0.929 . S
C1279 C1273 1.390 . S
C1279 C1276 1.386 . S
C1280 C1275 1.490 . S
C1280 C1282 1.395 . S
C1280 C1283 1.403 . S
H1281 C1287 0.930 . S
C1282 H1268 0.930 . S
C1282 C1280 1.395 . S
C1282 C1285 1.403 . S
C1283 C1280 1.403 . S
C1283 C1284 1.524 . S
C1283 C1287 1.400 . S
C1284 H1269 0.960 . S
C1284 H1270 0.960 . S
C1284 H1271 0.960 . S
C1284 C1283 1.524 . S
C1285 C1282 1.403 . S
C1285 C1286 1.392 . S
C1285 C1289 1.495 . S
C1286 C1285 1.392 . S
C1286 C1287 1.385 . S
C1286 C1288 1.478 . S
C1287 H1281 0.930 . S
C1287 C1283 1.400 . S
C1287 C1286 1.385 . S
C1288 C1286 1.478 . S
C1288 C1290 1.381 . S
C1288 C1294 1.383 . S
C1289 C1285 1.495 . S
C1289 H1295 0.959 . S
C1289 H1296 0.961 . S
C1289 H1297 0.960 . S
C1290 C1288 1.381 . S
C1290 C1291 1.394 . S
C1290 H1298 0.930 . S
C1291 C1290 1.394 . S
C1291 C1292 1.383 . S
C1291 H1299 0.929 . S
C1292 C1291 1.383 . S
C1292 C1293 1.377 . S
C1293 H1277 0.930 . S
C1293 C1292 1.377 . S
C1293 C1294 1.379 . S
C1294 H1278 0.931 . S
C1294 C1288 1.383 . S
C1294 C1293 1.379 . S
H1295 C1289 0.959 . S
H1296 C1289 0.961 . S
H1297 C1289 0.960 . S
H1298 C1290 0.930 . S
H1299 C1291 0.929 . S
H1300 C1308 0.929 . S
H1301 C1310 0.930 . S
H1302 C1312 0.930 . S
H1303 C1315 0.929 . S
H1304 C1318 0.930 . S
H1305 C1320 0.960 . S
H1306 C1320 0.960 . S
H1307 C1320 0.960 . S
C1308 H1300 0.929 . S
C1308 C1309 1.377 . S
C1308 C1310 1.384 . S
C1309 C1308 1.377 . S
C1309 C1315 1.390 . S
C1310 H1301 0.930 . S
C1310 C1308 1.384 . S
C1310 C1311 1.372 . S
C1311 C1310 1.372 . S
C1311 C1312 1.400 . S
C1311 C1316 1.490 . S
C1312 H1302 0.930 . S
C1312 C1311 1.400 . S
C1312 C1315 1.386 . S
H1313 C1329 0.930 . S
H1314 C1330 0.931 . S
C1315 H1303 0.929 . S
C1315 C1309 1.390 . S
C1315 C1312 1.386 . S
C1316 C1311 1.490 . S
C1316 C1318 1.395 . S
C1316 C1319 1.403 . S
H1317 C1323 0.930 . S
C1318 H1304 0.930 . S
C1318 C1316 1.395 . S
C1318 C1321 1.403 . S
C1319 C1316 1.403 . S
C1319 C1320 1.524 . S
C1319 C1323 1.400 . S
C1320 H1305 0.960 . S
C1320 H1306 0.960 . S
C1320 H1307 0.960 . S
C1320 C1319 1.524 . S
C1321 C1318 1.403 . S
C1321 C1322 1.392 . S
C1321 C1325 1.495 . S
C1322 C1321 1.392 . S
C1322 C1323 1.385 . S
C1322 C1324 1.478 . S
C1323 H1317 0.930 . S
C1323 C1319 1.400 . S
C1323 C1322 1.385 . S
C1324 C1322 1.478 . S
C1324 C1326 1.381 . S
C1324 C1330 1.383 . S
C1325 C1321 1.495 . S
C1325 H1331 0.959 . S
C1325 H1332 0.961 . S
C1325 H1333 0.960 . S
C1326 C1324 1.381 . S
C1326 C1327 1.394 . S
C1326 H1334 0.930 . S
C1327 C1326 1.394 . S
C1327 C1328 1.383 . S
C1327 H1335 0.929 . S
C1328 C1327 1.383 . S
C1328 C1329 1.377 . S
C1329 H1313 0.930 . S
C1329 C1328 1.377 . S
C1329 C1330 1.379 . S
C1330 H1314 0.931 . S
C1330 C1324 1.383 . S
C1330 C1329 1.379 . S
H1331 C1325 0.959 . S
H1332 C1325 0.961 . S
H1333 C1325 0.960 . S
H1334 C1326 0.930 . S
H1335 C1327 0.929 . S
H1336 C1344 0.929 . S
H1337 C1346 0.930 . S
H1338 C1348 0.930 . S
H1339 C1351 0.929 . S
H1340 C1354 0.930 . S
H1341 C1356 0.960 . S
H1342 C1356 0.960 . S
H1343 C1356 0.960 . S
C1344 H1336 0.929 . S
C1344 C1345 1.377 . S
C1344 C1346 1.384 . S
C1345 C1344 1.377 . S
C1345 C1351 1.390 . S
C1346 H1337 0.930 . S
C1346 C1344 1.384 . S
C1346 C1347 1.372 . S
C1347 C1346 1.372 . S
C1347 C1348 1.400 . S
C1347 C1352 1.490 . S
C1348 H1338 0.930 . S
C1348 C1347 1.400 . S
C1348 C1351 1.386 . S
H1349 C1365 0.930 . S
H1350 C1366 0.931 . S
C1351 H1339 0.929 . S
C1351 C1345 1.390 . S
C1351 C1348 1.386 . S
C1352 C1347 1.490 . S
C1352 C1354 1.395 . S
C1352 C1355 1.403 . S
H1353 C1359 0.930 . S
C1354 H1340 0.930 . S
C1354 C1352 1.395 . S
C1354 C1357 1.403 . S
C1355 C1352 1.403 . S
C1355 C1356 1.524 . S
C1355 C1359 1.400 . S
C1356 H1341 0.960 . S
C1356 H1342 0.960 . S
C1356 H1343 0.960 . S
C1356 C1355 1.524 . S
C1357 C1354 1.403 . S
C1357 C1358 1.392 . S
C1357 C1361 1.495 . S
C1358 C1357 1.392 . S
C1358 C1359 1.385 . S
C1358 C1360 1.478 . S
C1359 H1353 0.930 . S
C1359 C1355 1.400 . S
C1359 C1358 1.385 . S
C1360 C1358 1.478 . S
C1360 C1362 1.381 . S
C1360 C1366 1.383 . S
C1361 C1357 1.495 . S
C1361 H1367 0.959 . S
C1361 H1368 0.961 . S
C1361 H1369 0.960 . S
C1362 C1360 1.381 . S
C1362 C1363 1.394 . S
C1362 H1370 0.930 . S
C1363 C1362 1.394 . S
C1363 C1364 1.383 . S
C1363 H1371 0.929 . S
C1364 C1363 1.383 . S
C1364 C1365 1.377 . S
C1365 H1349 0.930 . S
C1365 C1364 1.377 . S
C1365 C1366 1.379 . S
C1366 H1350 0.931 . S
C1366 C1360 1.383 . S
C1366 C1365 1.379 . S
H1367 C1361 0.959 . S
H1368 C1361 0.961 . S
H1369 C1361 0.960 . S
H1370 C1362 0.930 . S
H1371 C1363 0.929 . S
H1372 C1380 0.929 . S
H1373 C1382 0.930 . S
H1374 C1384 0.930 . S
H1375 C1387 0.929 . S
H1376 C1390 0.930 . S
H1377 C1392 0.960 . S
H1378 C1392 0.960 . S
H1379 C1392 0.960 . S
C1380 H1372 0.929 . S
C1380 C1381 1.377 . S
C1380 C1382 1.384 . S
C1381 C1380 1.377 . S
C1381 C1387 1.390 . S
C1382 H1373 0.930 . S
C1382 C1380 1.384 . S
C1382 C1383 1.372 . S
C1383 C1382 1.372 . S
C1383 C1384 1.400 . S
C1383 C1388 1.490 . S
C1384 H1374 0.930 . S
C1384 C1383 1.400 . S
C1384 C1387 1.386 . S
H1385 C1401 0.930 . S
H1386 C1402 0.931 . S
C1387 H1375 0.929 . S
C1387 C1381 1.390 . S
C1387 C1384 1.386 . S
C1388 C1383 1.490 . S
C1388 C1390 1.395 . S
C1388 C1391 1.403 . S
H1389 C1395 0.930 . S
C1390 H1376 0.930 . S
C1390 C1388 1.395 . S
C1390 C1393 1.403 . S
C1391 C1388 1.403 . S
C1391 C1392 1.524 . S
C1391 C1395 1.400 . S
C1392 H1377 0.960 . S
C1392 H1378 0.960 . S
C1392 H1379 0.960 . S
C1392 C1391 1.524 . S
C1393 C1390 1.403 . S
C1393 C1394 1.392 . S
C1393 C1397 1.495 . S
C1394 C1393 1.392 . S
C1394 C1395 1.385 . S
C1394 C1396 1.478 . S
C1395 H1389 0.930 . S
C1395 C1391 1.400 . S
C1395 C1394 1.385 . S
C1396 C1394 1.478 . S
C1396 C1398 1.381 . S
C1396 C1402 1.383 . S
C1397 C1393 1.495 . S
C1397 H1403 0.959 . S
C1397 H1404 0.961 . S
C1397 H1405 0.960 . S
C1398 C1396 1.381 . S
C1398 C1399 1.394 . S
C1398 H1406 0.930 . S
C1399 C1398 1.394 . S
C1399 C1400 1.383 . S
C1399 H1407 0.929 . S
C1400 C1399 1.383 . S
C1400 C1401 1.377 . S
C1401 H1385 0.930 . S
C1401 C1400 1.377 . S
C1401 C1402 1.379 . S
C1402 H1386 0.931 . S
C1402 C1396 1.383 . S
C1402 C1401 1.379 . S
H1403 C1397 0.959 . S
H1404 C1397 0.961 . S
H1405 C1397 0.960 . S
H1406 C1398 0.930 . S
H1407 C1399 0.929 . S
H1408 C1416 0.929 . S
H1409 C1418 0.930 . S
H1410 C1420 0.930 . S
H1411 C1423 0.929 . S
H1412 C1426 0.930 . S
H1413 C1428 0.960 . S
H1414 C1428 0.960 . S
H1415 C1428 0.960 . S
C1416 H1408 0.929 . S
C1416 C1417 1.377 . S
C1416 C1418 1.384 . S
C1417 C1416 1.377 . S
C1417 C1423 1.390 . S
C1418 H1409 0.930 . S
C1418 C1416 1.384 . S
C1418 C1419 1.372 . S
C1419 C1418 1.372 . S
C1419 C1420 1.400 . S
C1419 C1424 1.490 . S
C1420 H1410 0.930 . S
C1420 C1419 1.400 . S
C1420 C1423 1.386 . S
H1421 C1437 0.930 . S
H1422 C1438 0.931 . S
C1423 H1411 0.929 . S
C1423 C1417 1.390 . S
C1423 C1420 1.386 . S
C1424 C1419 1.490 . S
C1424 C1426 1.395 . S
C1424 C1427 1.403 . S
H1425 C1431 0.930 . S
C1426 H1412 0.930 . S
C1426 C1424 1.395 . S
C1426 C1429 1.403 . S
C1427 C1424 1.403 . S
C1427 C1428 1.524 . S
C1427 C1431 1.400 . S
C1428 H1413 0.960 . S
C1428 H1414 0.960 . S
C1428 H1415 0.960 . S
C1428 C1427 1.524 . S
C1429 C1426 1.403 . S
C1429 C1430 1.392 . S
C1429 C1433 1.495 . S
C1430 C1429 1.392 . S
C1430 C1431 1.385 . S
C1430 C1432 1.478 . S
C1431 H1425 0.930 . S
C1431 C1427 1.400 . S
C1431 C1430 1.385 . S
C1432 C1430 1.478 . S
C1432 C1434 1.381 . S
C1432 C1438 1.383 . S
C1433 C1429 1.495 . S
C1433 H1439 0.959 . S
C1433 H1440 0.961 . S
C1433 H1441 0.960 . S
C1434 C1432 1.381 . S
C1434 C1435 1.394 . S
C1434 H1442 0.930 . S
C1435 C1434 1.394 . S
C1435 C1436 1.383 . S
C1435 H1443 0.929 . S
C1436 C1435 1.383 . S
C1436 C1437 1.377 . S
C1437 H1421 0.930 . S
C1437 C1436 1.377 . S
C1437 C1438 1.379 . S
C1438 H1422 0.931 . S
C1438 C1432 1.383 . S
C1438 C1437 1.379 . S
H1439 C1433 0.959 . S
H1440 C1433 0.961 . S
H1441 C1433 0.960 . S
H1442 C1434 0.930 . S
H1443 C1435 0.929 . S
H1444 C1452 0.929 . S
H1445 C1454 0.930 . S
H1446 C1456 0.930 . S
H1447 C1459 0.929 . S
H1448 C1462 0.930 . S
H1449 C1464 0.960 . S
H1450 C1464 0.960 . S
H1451 C1464 0.960 . S
C1452 H1444 0.929 . S
C1452 C1453 1.377 . S
C1452 C1454 1.384 . S
C1453 C1452 1.377 . S
C1453 C1459 1.390 . S
C1454 H1445 0.930 . S
C1454 C1452 1.384 . S
C1454 C1455 1.372 . S
C1455 C1454 1.372 . S
C1455 C1456 1.400 . S
C1455 C1460 1.490 . S
C1456 H1446 0.930 . S
C1456 C1455 1.400 . S
C1456 C1459 1.386 . S
H1457 C1473 0.930 . S
H1458 C1474 0.931 . S
C1459 H1447 0.929 . S
C1459 C1453 1.390 . S
C1459 C1456 1.386 . S
C1460 C1455 1.490 . S
C1460 C1462 1.395 . S
C1460 C1463 1.403 . S
H1461 C1467 0.930 . S
C1462 H1448 0.930 . S
C1462 C1460 1.395 . S
C1462 C1465 1.403 . S
C1463 C1460 1.403 . S
C1463 C1464 1.524 . S
C1463 C1467 1.400 . S
C1464 H1449 0.960 . S
C1464 H1450 0.960 . S
C1464 H1451 0.960 . S
C1464 C1463 1.524 . S
C1465 C1462 1.403 . S
C1465 C1466 1.392 . S
C1465 C1469 1.495 . S
C1466 C1465 1.392 . S
C1466 C1467 1.385 . S
C1466 C1468 1.478 . S
C1467 H1461 0.930 . S
C1467 C1463 1.400 . S
C1467 C1466 1.385 . S
C1468 C1466 1.478 . S
C1468 C1470 1.381 . S
C1468 C1474 1.383 . S
C1469 C1465 1.495 . S
C1469 H1475 0.959 . S
C1469 H1476 0.961 . S
C1469 H1477 0.960 . S
C1470 C1468 1.381 . S
C1470 C1471 1.394 . S
C1470 H1478 0.930 . S
C1471 C1470 1.394 . S
C1471 C1472 1.383 . S
C1471 H1479 0.929 . S
C1472 C1471 1.383 . S
C1472 C1473 1.377 . S
C1473 H1457 0.930 . S
C1473 C1472 1.377 . S
C1473 C1474 1.379 . S
C1474 H1458 0.931 . S
C1474 C1468 1.383 . S
C1474 C1473 1.379 . S
H1475 C1469 0.959 . S
H1476 C1469 0.961 . S
H1477 C1469 0.960 . S
H1478 C1470 0.930 . S
H1479 C1471 0.929 . S
H1480 C1488 0.929 . S
H1481 C1490 0.930 . S
H1482 C1492 0.930 . S
H1483 C1495 0.929 . S
H1484 C1498 0.930 . S
H1485 C1500 0.960 . S
H1486 C1500 0.960 . S
H1487 C1500 0.960 . S
C1488 H1480 0.929 . S
C1488 C1489 1.377 . S
C1488 C1490 1.384 . S
C1489 C1488 1.377 . S
C1489 C1495 1.390 . S
C1490 H1481 0.930 . S
C1490 C1488 1.384 . S
C1490 C1491 1.372 . S
C1491 C1490 1.372 . S
C1491 C1492 1.400 . S
C1491 C1496 1.490 . S
C1492 H1482 0.930 . S
C1492 C1491 1.400 . S
C1492 C1495 1.386 . S
H1493 C1509 0.930 . S
H1494 C1510 0.931 . S
C1495 H1483 0.929 . S
C1495 C1489 1.390 . S
C1495 C1492 1.386 . S
C1496 C1491 1.490 . S
C1496 C1498 1.395 . S
C1496 C1499 1.403 . S
H1497 C1503 0.930 . S
C1498 H1484 0.930 . S
C1498 C1496 1.395 . S
C1498 C1501 1.403 . S
C1499 C1496 1.403 . S
C1499 C1500 1.524 . S
C1499 C1503 1.400 . S
C1500 H1485 0.960 . S
C1500 H1486 0.960 . S
C1500 H1487 0.960 . S
C1500 C1499 1.524 . S
C1501 C1498 1.403 . S
C1501 C1502 1.392 . S
C1501 C1505 1.495 . S
C1502 C1501 1.392 . S
C1502 C1503 1.385 . S
C1502 C1504 1.478 . S
C1503 H1497 0.930 . S
C1503 C1499 1.400 . S
C1503 C1502 1.385 . S
C1504 C1502 1.478 . S
C1504 C1506 1.381 . S
C1504 C1510 1.383 . S
C1505 C1501 1.495 . S
C1505 H1511 0.959 . S
C1505 H1512 0.961 . S
C1505 H1513 0.960 . S
C1506 C1504 1.381 . S
C1506 C1507 1.394 . S
C1506 H1514 0.930 . S
C1507 C1506 1.394 . S
C1507 C1508 1.383 . S
C1507 H1515 0.929 . S
C1508 C1507 1.383 . S
C1508 C1509 1.377 . S
C1509 H1493 0.930 . S
C1509 C1508 1.377 . S
C1509 C1510 1.379 . S
C1510 H1494 0.931 . S
C1510 C1504 1.383 . S
C1510 C1509 1.379 . S
H1511 C1505 0.959 . S
H1512 C1505 0.961 . S
H1513 C1505 0.960 . S
H1514 C1506 0.930 . S
H1515 C1507 0.929 . S
H1516 C1524 0.929 . S
H1517 C1526 0.930 . S
H1518 C1528 0.930 . S
H1519 C1531 0.929 . S
H1520 C1534 0.930 . S
H1521 C1536 0.960 . S
H1522 C1536 0.960 . S
H1523 C1536 0.960 . S
C1524 H1516 0.929 . S
C1524 C1525 1.377 . S
C1524 C1526 1.384 . S
C1525 C1524 1.377 . S
C1525 C1531 1.390 . S
C1526 H1517 0.930 . S
C1526 C1524 1.384 . S
C1526 C1527 1.372 . S
C1527 C1526 1.372 . S
C1527 C1528 1.400 . S
C1527 C1532 1.490 . S
C1528 H1518 0.930 . S
C1528 C1527 1.400 . S
C1528 C1531 1.386 . S
H1529 C1545 0.930 . S
H1530 C1546 0.931 . S
C1531 H1519 0.929 . S
C1531 C1525 1.390 . S
C1531 C1528 1.386 . S
C1532 C1527 1.490 . S
C1532 C1534 1.395 . S
C1532 C1535 1.403 . S
H1533 C1539 0.930 . S
C1534 H1520 0.930 . S
C1534 C1532 1.395 . S
C1534 C1537 1.403 . S
C1535 C1532 1.403 . S
C1535 C1536 1.524 . S
C1535 C1539 1.400 . S
C1536 H1521 0.960 . S
C1536 H1522 0.960 . S
C1536 H1523 0.960 . S
C1536 C1535 1.524 . S
C1537 C1534 1.403 . S
C1537 C1538 1.392 . S
C1537 C1541 1.495 . S
C1538 C1537 1.392 . S
C1538 C1539 1.385 . S
C1538 C1540 1.478 . S
C1539 H1533 0.930 . S
C1539 C1535 1.400 . S
C1539 C1538 1.385 . S
C1540 C1538 1.478 . S
C1540 C1542 1.381 . S
C1540 C1546 1.383 . S
C1541 C1537 1.495 . S
C1541 H1547 0.959 . S
C1541 H1548 0.961 . S
C1541 H1549 0.960 . S
C1542 C1540 1.381 . S
C1542 C1543 1.394 . S
C1542 H1550 0.930 . S
C1543 C1542 1.394 . S
C1543 C1544 1.383 . S
C1543 H1551 0.929 . S
C1544 C1543 1.383 . S
C1544 C1545 1.377 . S
C1545 H1529 0.930 . S
C1545 C1544 1.377 . S
C1545 C1546 1.379 . S
C1546 H1530 0.931 . S
C1546 C1540 1.383 . S
C1546 C1545 1.379 . S
H1547 C1541 0.959 . S
H1548 C1541 0.961 . S
H1549 C1541 0.960 . S
H1550 C1542 0.930 . S
H1551 C1543 0.929 . S
H1552 C1560 0.929 . S
H1553 C1562 0.930 . S
H1554 C1564 0.930 . S
H1555 C1567 0.929 . S
H1556 C1570 0.930 . S
H1557 C1572 0.960 . S
H1558 C1572 0.960 . S
H1559 C1572 0.960 . S
C1560 H1552 0.929 . S
C1560 C1561 1.377 . S
C1560 C1562 1.384 . S
C1561 C1560 1.377 . S
C1561 C1567 1.390 . S
C1562 H1553 0.930 . S
C1562 C1560 1.384 . S
C1562 C1563 1.372 . S
C1563 C1562 1.372 . S
C1563 C1564 1.400 . S
C1563 C1568 1.490 . S
C1564 H1554 0.930 . S
C1564 C1563 1.400 . S
C1564 C1567 1.386 . S
H1565 C1581 0.930 . S
H1566 C1582 0.931 . S
C1567 H1555 0.929 . S
C1567 C1561 1.390 . S
C1567 C1564 1.386 . S
C1568 C1563 1.490 . S
C1568 C1570 1.395 . S
C1568 C1571 1.403 . S
H1569 C1575 0.930 . S
C1570 H1556 0.930 . S
C1570 C1568 1.395 . S
C1570 C1573 1.403 . S
C1571 C1568 1.403 . S
C1571 C1572 1.524 . S
C1571 C1575 1.400 . S
C1572 H1557 0.960 . S
C1572 H1558 0.960 . S
C1572 H1559 0.960 . S
C1572 C1571 1.524 . S
C1573 C1570 1.403 . S
C1573 C1574 1.392 . S
C1573 C1577 1.495 . S
C1574 C1573 1.392 . S
C1574 C1575 1.385 . S
C1574 C1576 1.478 . S
C1575 H1569 0.930 . S
C1575 C1571 1.400 . S
C1575 C1574 1.385 . S
C1576 C1574 1.478 . S
C1576 C1578 1.381 . S
C1576 C1582 1.383 . S
C1577 C1573 1.495 . S
C1577 H1583 0.959 . S
C1577 H1584 0.961 . S
C1577 H1585 0.960 . S
C1578 C1576 1.381 . S
C1578 C1579 1.394 . S
C1578 H1586 0.930 . S
C1579 C1578 1.394 . S
C1579 C1580 1.383 . S
C1579 H1587 0.929 . S
C1580 C1579 1.383 . S
C1580 C1581 1.377 . S
C1581 H1565 0.930 . S
C1581 C1580 1.377 . S
C1581 C1582 1.379 . S
C1582 H1566 0.931 . S
C1582 C1576 1.383 . S
C1582 C1581 1.379 . S
H1583 C1577 0.959 . S
H1584 C1577 0.961 . S
H1585 C1577 0.960 . S
H1586 C1578 0.930 . S
H1587 C1579 0.929 . S
H1588 C1596 0.929 . S
H1589 C1598 0.930 . S
H1590 C1600 0.930 . S
H1591 C1603 0.929 . S
H1592 C1606 0.930 . S
H1593 C1608 0.960 . S
H1594 C1608 0.960 . S
H1595 C1608 0.960 . S
C1596 H1588 0.929 . S
C1596 C1597 1.377 . S
C1596 C1598 1.384 . S
C1597 C1596 1.377 . S
C1597 C1603 1.390 . S
C1598 H1589 0.930 . S
C1598 C1596 1.384 . S
C1598 C1599 1.372 . S
C1599 C1598 1.372 . S
C1599 C1600 1.400 . S
C1599 C1604 1.490 . S
C1600 H1590 0.930 . S
C1600 C1599 1.400 . S
C1600 C1603 1.386 . S
H1601 C1617 0.930 . S
H1602 C1618 0.931 . S
C1603 H1591 0.929 . S
C1603 C1597 1.390 . S
C1603 C1600 1.386 . S
C1604 C1599 1.490 . S
C1604 C1606 1.395 . S
C1604 C1607 1.403 . S
H1605 C1611 0.930 . S
C1606 H1592 0.930 . S
C1606 C1604 1.395 . S
C1606 C1609 1.403 . S
C1607 C1604 1.403 . S
C1607 C1608 1.524 . S
C1607 C1611 1.400 . S
C1608 H1593 0.960 . S
C1608 H1594 0.960 . S
C1608 H1595 0.960 . S
C1608 C1607 1.524 . S
C1609 C1606 1.403 . S
C1609 C1610 1.392 . S
C1609 C1613 1.495 . S
C1610 C1609 1.392 . S
C1610 C1611 1.385 . S
C1610 C1612 1.478 . S
C1611 H1605 0.930 . S
C1611 C1607 1.400 . S
C1611 C1610 1.385 . S
C1612 C1610 1.478 . S
C1612 C1614 1.381 . S
C1612 C1618 1.383 . S
C1613 C1609 1.495 . S
C1613 H1619 0.959 . S
C1613 H1620 0.961 . S
C1613 H1621 0.960 . S
C1614 C1612 1.381 . S
C1614 C1615 1.394 . S
C1614 H1622 0.930 . S
C1615 C1614 1.394 . S
C1615 C1616 1.383 . S
C1615 H1623 0.929 . S
C1616 C1615 1.383 . S
C1616 C1617 1.377 . S
C1617 H1601 0.930 . S
C1617 C1616 1.377 . S
C1617 C1618 1.379 . S
C1618 H1602 0.931 . S
C1618 C1612 1.383 . S
C1618 C1617 1.379 . S
H1619 C1613 0.959 . S
H1620 C1613 0.961 . S
H1621 C1613 0.960 . S
H1622 C1614 0.930 . S
H1623 C1615 0.929 . S
H1624 C1632 0.929 . S
H1625 C1634 0.930 . S
H1626 C1636 0.930 . S
H1627 C1639 0.929 . S
H1628 C1642 0.930 . S
H1629 C1644 0.960 . S
H1630 C1644 0.960 . S
H1631 C1644 0.960 . S
C1632 H1624 0.929 . S
C1632 C1633 1.377 . S
C1632 C1634 1.384 . S
C1633 C1632 1.377 . S
C1633 C1639 1.390 . S
C1634 H1625 0.930 . S
C1634 C1632 1.384 . S
C1634 C1635 1.372 . S
C1635 C1634 1.372 . S
C1635 C1636 1.400 . S
C1635 C1640 1.490 . S
C1636 H1626 0.930 . S
C1636 C1635 1.400 . S
C1636 C1639 1.386 . S
H1637 C1653 0.930 . S
H1638 C1654 0.931 . S
C1639 H1627 0.929 . S
C1639 C1633 1.390 . S
C1639 C1636 1.386 . S
C1640 C1635 1.490 . S
C1640 C1642 1.395 . S
C1640 C1643 1.403 . S
H1641 C1647 0.930 . S
C1642 H1628 0.930 . S
C1642 C1640 1.395 . S
C1642 C1645 1.403 . S
C1643 C1640 1.403 . S
C1643 C1644 1.524 . S
C1643 C1647 1.400 . S
C1644 H1629 0.960 . S
C1644 H1630 0.960 . S
C1644 H1631 0.960 . S
C1644 C1643 1.524 . S
C1645 C1642 1.403 . S
C1645 C1646 1.392 . S
C1645 C1649 1.495 . S
C1646 C1645 1.392 . S
C1646 C1647 1.385 . S
C1646 C1648 1.478 . S
C1647 H1641 0.930 . S
C1647 C1643 1.400 . S
C1647 C1646 1.385 . S
C1648 C1646 1.478 . S
C1648 C1650 1.381 . S
C1648 C1654 1.383 . S
C1649 C1645 1.495 . S
C1649 H1655 0.959 . S
C1649 H1656 0.961 . S
C1649 H1657 0.960 . S
C1650 C1648 1.381 . S
C1650 C1651 1.394 . S
C1650 H1658 0.930 . S
C1651 C1650 1.394 . S
C1651 C1652 1.383 . S
C1651 H1659 0.929 . S
C1652 C1651 1.383 . S
C1652 C1653 1.377 . S
C1653 H1637 0.930 . S
C1653 C1652 1.377 . S
C1653 C1654 1.379 . S
C1654 H1638 0.931 . S
C1654 C1648 1.383 . S
C1654 C1653 1.379 . S
H1655 C1649 0.959 . S
H1656 C1649 0.961 . S
H1657 C1649 0.960 . S
H1658 C1650 0.930 . S
H1659 C1651 0.929 . S
H1660 C1668 0.929 . S
H1661 C1670 0.930 . S
H1662 C1672 0.930 . S
H1663 C1675 0.929 . S
H1664 C1678 0.930 . S
H1665 C1680 0.960 . S
H1666 C1680 0.960 . S
H1667 C1680 0.960 . S
C1668 H1660 0.929 . S
C1668 C1669 1.377 . S
C1668 C1670 1.384 . S
C1669 C1668 1.377 . S
C1669 C1675 1.390 . S
C1670 H1661 0.930 . S
C1670 C1668 1.384 . S
C1670 C1671 1.372 . S
C1671 C1670 1.372 . S
C1671 C1672 1.400 . S
C1671 C1676 1.490 . S
C1672 H1662 0.930 . S
C1672 C1671 1.400 . S
C1672 C1675 1.386 . S
H1673 C1689 0.930 . S
H1674 C1690 0.931 . S
C1675 H1663 0.929 . S
C1675 C1669 1.390 . S
C1675 C1672 1.386 . S
C1676 C1671 1.490 . S
C1676 C1678 1.395 . S
C1676 C1679 1.403 . S
H1677 C1683 0.930 . S
C1678 H1664 0.930 . S
C1678 C1676 1.395 . S
C1678 C1681 1.403 . S
C1679 C1676 1.403 . S
C1679 C1680 1.524 . S
C1679 C1683 1.400 . S
C1680 H1665 0.960 . S
C1680 H1666 0.960 . S
C1680 H1667 0.960 . S
C1680 C1679 1.524 . S
C1681 C1678 1.403 . S
C1681 C1682 1.392 . S
C1681 C1685 1.495 . S
C1682 C1681 1.392 . S
C1682 C1683 1.385 . S
C1682 C1684 1.478 . S
C1683 H1677 0.930 . S
C1683 C1679 1.400 . S
C1683 C1682 1.385 . S
C1684 C1682 1.478 . S
C1684 C1686 1.381 . S
C1684 C1690 1.383 . S
C1685 C1681 1.495 . S
C1685 H1691 0.959 . S
C1685 H1692 0.961 . S
C1685 H1693 0.960 . S
C1686 C1684 1.381 . S
C1686 C1687 1.394 . S
C1686 H1694 0.930 . S
C1687 C1686 1.394 . S
C1687 C1688 1.383 . S
C1687 H1695 0.929 . S
C1688 C1687 1.383 . S
C1688 C1689 1.377 . S
C1689 H1673 0.930 . S
C1689 C1688 1.377 . S
C1689 C1690 1.379 . S
C1690 H1674 0.931 . S
C1690 C1684 1.383 . S
C1690 C1689 1.379 . S
H1691 C1685 0.959 . S
H1692 C1685 0.961 . S
H1693 C1685 0.960 . S
H1694 C1686 0.930 . S
H1695 C1687 0.929 . S
H1696 C1704 0.929 . S
H1697 C1706 0.930 . S
H1698 C1708 0.930 . S
H1699 C1711 0.929 . S
H1700 C1714 0.930 . S
H1701 C1716 0.960 . S
H1702 C1716 0.960 . S
H1703 C1716 0.960 . S
C1704 H1696 0.929 . S
C1704 C1705 1.377 . S
C1704 C1706 1.384 . S
C1705 C1704 1.377 . S
C1705 C1711 1.390 . S
C1706 H1697 0.930 . S
C1706 C1704 1.384 . S
C1706 C1707 1.372 . S
C1707 C1706 1.372 . S
C1707 C1708 1.400 . S
C1707 C1712 1.490 . S
C1708 H1698 0.930 . S
C1708 C1707 1.400 . S
C1708 C1711 1.386 . S
H1709 C1725 0.930 . S
H1710 C1726 0.931 . S
C1711 H1699 0.929 . S
C1711 C1705 1.390 . S
C1711 C1708 1.386 . S
C1712 C1707 1.490 . S
C1712 C1714 1.395 . S
C1712 C1715 1.403 . S
H1713 C1719 0.930 . S
C1714 H1700 0.930 . S
C1714 C1712 1.395 . S
C1714 C1717 1.403 1_556 S
C1715 C1712 1.403 . S
C1715 C1716 1.524 . S
C1715 C1719 1.400 1_556 S
C1716 H1701 0.960 . S
C1716 H1702 0.960 . S
C1716 H1703 0.960 . S
C1716 C1715 1.524 . S
C1717 C1714 1.403 1_554 S
C1717 C1718 1.392 . S
C1717 C1721 1.495 1_545 S
C1718 C1717 1.392 . S
C1718 C1719 1.385 . S
C1718 C1720 1.478 . S
C1719 H1713 0.930 . S
C1719 C1715 1.400 1_554 S
C1719 C1718 1.385 . S
C1720 C1718 1.478 . S
C1720 C1722 1.381 . S
C1720 C1726 1.383 . S
C1721 C1717 1.495 1_565 S
C1721 H1727 0.959 . S
C1721 H1728 0.961 . S
C1721 H1729 0.960 1_565 S
C1722 C1720 1.381 . S
C1722 C1723 1.394 . S
C1722 H1730 0.930 . S
C1723 C1722 1.394 . S
C1723 C1724 1.383 . S
C1723 H1731 0.929 . S
C1724 C1723 1.383 . S
C1724 C1725 1.377 . S
C1725 H1709 0.930 . S
C1725 C1724 1.377 . S
C1725 C1726 1.379 . S
C1726 H1710 0.931 . S
C1726 C1720 1.383 . S
C1726 C1725 1.379 . S
H1727 C1721 0.959 . S
H1728 C1721 0.961 . S
H1729 C1721 0.960 1_545 S
H1730 C1722 0.930 . S
H1731 C1723 0.929 . S
H1732 C1740 0.929 . S
H1733 C1742 0.930 . S
H1734 C1744 0.930 . S
H1735 C1747 0.929 . S
H1736 C1750 0.930 . S
H1737 C1752 0.960 . S
H1738 C1752 0.960 . S
H1739 C1752 0.960 . S
C1740 H1732 0.929 . S
C1740 C1741 1.377 . S
C1740 C1742 1.384 . S
C1741 C1740 1.377 . S
C1741 C1747 1.390 . S
C1742 H1733 0.930 . S
C1742 C1740 1.384 . S
C1742 C1743 1.372 . S
C1743 C1742 1.372 . S
C1743 C1744 1.400 . S
C1743 C1748 1.490 . S
C1744 H1734 0.930 . S
C1744 C1743 1.400 . S
C1744 C1747 1.386 . S
H1745 C1761 0.930 . S
H1746 C1762 0.931 . S
C1747 H1735 0.929 . S
C1747 C1741 1.390 . S
C1747 C1744 1.386 . S
C1748 C1743 1.490 . S
C1748 C1750 1.395 . S
C1748 C1751 1.403 . S
H1749 C1755 0.930 . S
C1750 H1736 0.930 . S
C1750 C1748 1.395 . S
C1750 C1753 1.403 . S
C1751 C1748 1.403 . S
C1751 C1752 1.524 . S
C1751 C1755 1.400 . S
C1752 H1737 0.960 . S
C1752 H1738 0.960 . S
C1752 H1739 0.960 . S
C1752 C1751 1.524 . S
C1753 C1750 1.403 . S
C1753 C1754 1.392 . S
C1753 C1757 1.495 . S
C1754 C1753 1.392 . S
C1754 C1755 1.385 . S
C1754 C1756 1.478 . S
C1755 H1749 0.930 . S
C1755 C1751 1.400 . S
C1755 C1754 1.385 . S
C1756 C1754 1.478 . S
C1756 C1758 1.381 . S
C1756 C1762 1.383 . S
C1757 C1753 1.495 . S
C1757 H1763 0.959 . S
C1757 H1764 0.961 . S
C1757 H1765 0.960 . S
C1758 C1756 1.381 . S
C1758 C1759 1.394 . S
C1758 H1766 0.930 . S
C1759 C1758 1.394 . S
C1759 C1760 1.383 . S
C1759 H1767 0.929 . S
C1760 C1759 1.383 . S
C1760 C1761 1.377 . S
C1761 H1745 0.930 . S
C1761 C1760 1.377 . S
C1761 C1762 1.379 . S
C1762 H1746 0.931 . S
C1762 C1756 1.383 . S
C1762 C1761 1.379 . S
H1763 C1757 0.959 . S
H1764 C1757 0.961 . S
H1765 C1757 0.960 . S
H1766 C1758 0.930 . S
H1767 C1759 0.929 . S
H1768 C1776 0.929 . S
H1769 C1778 0.930 . S
H1770 C1780 0.930 . S
H1771 C1783 0.929 . S
H1772 C1786 0.930 . S
H1773 C1788 0.960 . S
H1774 C1788 0.960 . S
H1775 C1788 0.960 . S
C1776 H1768 0.929 . S
C1776 C1777 1.377 . S
C1776 C1778 1.384 . S
C1777 C1776 1.377 . S
C1777 C1783 1.390 . S
C1778 H1769 0.930 . S
C1778 C1776 1.384 . S
C1778 C1779 1.372 . S
C1779 C1778 1.372 . S
C1779 C1780 1.400 . S
C1779 C1784 1.490 . S
C1780 H1770 0.930 . S
C1780 C1779 1.400 . S
C1780 C1783 1.386 . S
H1781 C1797 0.930 . S
H1782 C1798 0.931 . S
C1783 H1771 0.929 . S
C1783 C1777 1.390 . S
C1783 C1780 1.386 . S
C1784 C1779 1.490 . S
C1784 C1786 1.395 . S
C1784 C1787 1.403 . S
H1785 C1791 0.930 . S
C1786 H1772 0.930 . S
C1786 C1784 1.395 . S
C1786 C1789 1.403 1_554 S
C1787 C1784 1.403 . S
C1787 C1788 1.524 . S
C1787 C1791 1.400 1_554 S
C1788 H1773 0.960 . S
C1788 H1774 0.960 . S
C1788 H1775 0.960 . S
C1788 C1787 1.524 . S
C1789 C1786 1.403 1_556 S
C1789 C1790 1.392 . S
C1789 C1793 1.495 . S
C1790 C1789 1.392 . S
C1790 C1791 1.385 . S
C1790 C1792 1.478 . S
C1791 H1785 0.930 . S
C1791 C1787 1.400 1_556 S
C1791 C1790 1.385 . S
C1792 C1790 1.478 . S
C1792 C1794 1.381 . S
C1792 C1798 1.383 . S
C1793 C1789 1.495 . S
C1793 H1799 0.959 . S
C1793 H1800 0.961 . S
C1793 H1801 0.960 . S
C1794 C1792 1.381 . S
C1794 C1795 1.394 . S
C1794 H1802 0.930 . S
C1795 C1794 1.394 . S
C1795 C1796 1.383 . S
C1795 H1803 0.929 . S
C1796 C1795 1.383 . S
C1796 C1797 1.377 . S
C1797 H1781 0.930 . S
C1797 C1796 1.377 . S
C1797 C1798 1.379 . S
C1798 H1782 0.931 . S
C1798 C1792 1.383 . S
C1798 C1797 1.379 . S
H1799 C1793 0.959 . S
H1800 C1793 0.961 . S
H1801 C1793 0.960 . S
H1802 C1794 0.930 . S
H1803 C1795 0.929 . S
H1804 C1812 0.929 . S
H1805 C1814 0.930 . S
H1806 C1816 0.930 . S
H1807 C1819 0.929 . S
H1808 C1822 0.930 . S
H1809 C1824 0.960 . S
H1810 C1824 0.960 . S
H1811 C1824 0.960 . S
C1812 H1804 0.929 . S
C1812 C1813 1.377 . S
C1812 C1814 1.384 . S
C1813 C1812 1.377 . S
C1813 C1819 1.390 . S
C1814 H1805 0.930 . S
C1814 C1812 1.384 . S
C1814 C1815 1.372 . S
C1815 C1814 1.372 . S
C1815 C1816 1.400 . S
C1815 C1820 1.490 . S
C1816 H1806 0.930 . S
C1816 C1815 1.400 . S
C1816 C1819 1.386 . S
H1817 C1833 0.930 . S
H1818 C1834 0.931 . S
C1819 H1807 0.929 . S
C1819 C1813 1.390 . S
C1819 C1816 1.386 . S
C1820 C1815 1.490 . S
C1820 C1822 1.395 . S
C1820 C1823 1.403 . S
H1821 C1827 0.930 . S
C1822 H1808 0.930 . S
C1822 C1820 1.395 . S
C1822 C1825 1.403 . S
C1823 C1820 1.403 . S
C1823 C1824 1.524 . S
C1823 C1827 1.400 . S
C1824 H1809 0.960 . S
C1824 H1810 0.960 . S
C1824 H1811 0.960 . S
C1824 C1823 1.524 . S
C1825 C1822 1.403 . S
C1825 C1826 1.392 . S
C1825 C1829 1.495 1_455 S
C1826 C1825 1.392 . S
C1826 C1827 1.385 . S
C1826 C1828 1.478 . S
C1827 H1821 0.930 . S
C1827 C1823 1.400 . S
C1827 C1826 1.385 . S
C1828 C1826 1.478 . S
C1828 C1830 1.381 . S
C1828 C1834 1.383 . S
C1829 C1825 1.495 1_655 S
C1829 H1835 0.959 . S
C1829 H1836 0.961 . S
C1829 H1837 0.960 . S
C1830 C1828 1.381 . S
C1830 C1831 1.394 . S
C1830 H1838 0.930 . S
C1831 C1830 1.394 . S
C1831 C1832 1.383 . S
C1831 H1839 0.929 . S
C1832 C1831 1.383 . S
C1832 C1833 1.377 . S
C1833 H1817 0.930 . S
C1833 C1832 1.377 . S
C1833 C1834 1.379 . S
C1834 H1818 0.931 . S
C1834 C1828 1.383 . S
C1834 C1833 1.379 . S
H1835 C1829 0.959 . S
H1836 C1829 0.961 . S
H1837 C1829 0.960 . S
H1838 C1830 0.930 . S
H1839 C1831 0.929 . S
H1840 C1848 0.929 . S
H1841 C1850 0.930 . S
H1842 C1852 0.930 . S
H1843 C1855 0.929 . S
H1844 C1858 0.930 . S
H1845 C1860 0.960 . S
H1846 C1860 0.960 . S
H1847 C1860 0.960 . S
C1848 H1840 0.929 . S
C1848 C1849 1.377 . S
C1848 C1850 1.384 . S
C1849 C1848 1.377 . S
C1849 C1855 1.390 . S
C1850 H1841 0.930 . S
C1850 C1848 1.384 . S
C1850 C1851 1.372 . S
C1851 C1850 1.372 . S
C1851 C1852 1.400 . S
C1851 C1856 1.490 . S
C1852 H1842 0.930 . S
C1852 C1851 1.400 . S
C1852 C1855 1.386 . S
H1853 C1869 0.930 . S
H1854 C1870 0.931 . S
C1855 H1843 0.929 . S
C1855 C1849 1.390 . S
C1855 C1852 1.386 . S
C1856 C1851 1.490 . S
C1856 C1858 1.395 . S
C1856 C1859 1.403 . S
H1857 C1863 0.930 . S
C1858 H1844 0.930 . S
C1858 C1856 1.395 . S
C1858 C1861 1.403 1_554 S
C1859 C1856 1.403 . S
C1859 C1860 1.524 . S
C1859 C1863 1.400 1_554 S
C1860 H1845 0.960 . S
C1860 H1846 0.960 . S
C1860 H1847 0.960 . S
C1860 C1859 1.524 . S
C1861 C1858 1.403 1_556 S
C1861 C1862 1.392 . S
C1861 C1865 1.495 . S
C1862 C1861 1.392 . S
C1862 C1863 1.385 . S
C1862 C1864 1.478 . S
C1863 H1857 0.930 . S
C1863 C1859 1.400 1_556 S
C1863 C1862 1.385 . S
C1864 C1862 1.478 . S
C1864 C1866 1.381 . S
C1864 C1870 1.383 . S
C1865 C1861 1.495 . S
C1865 H1871 0.959 . S
C1865 H1872 0.961 . S
C1865 H1873 0.960 . S
C1866 C1864 1.381 . S
C1866 C1867 1.394 . S
C1866 H1874 0.930 . S
C1867 C1866 1.394 . S
C1867 C1868 1.383 . S
C1867 H1875 0.929 . S
C1868 C1867 1.383 . S
C1868 C1869 1.377 . S
C1869 H1853 0.930 . S
C1869 C1868 1.377 . S
C1869 C1870 1.379 . S
C1870 H1854 0.931 . S
C1870 C1864 1.383 . S
C1870 C1869 1.379 . S
H1871 C1865 0.959 . S
H1872 C1865 0.961 . S
H1873 C1865 0.960 . S
H1874 C1866 0.930 . S
H1875 C1867 0.929 . S
H1876 C1884 0.929 . S
H1877 C1886 0.930 . S
H1878 C1888 0.930 . S
H1879 C1891 0.929 . S
H1880 C1894 0.930 . S
H1881 C1896 0.960 . S
H1882 C1896 0.960 . S
H1883 C1896 0.960 . S
C1884 H1876 0.929 . S
C1884 C1885 1.377 . S
C1884 C1886 1.384 . S
C1885 C1884 1.377 . S
C1885 C1891 1.390 . S
C1886 H1877 0.930 . S
C1886 C1884 1.384 . S
C1886 C1887 1.372 . S
C1887 C1886 1.372 . S
C1887 C1888 1.400 . S
C1887 C1892 1.490 . S
C1888 H1878 0.930 . S
C1888 C1887 1.400 . S
C1888 C1891 1.386 . S
H1889 C1905 0.930 . S
H1890 C1906 0.931 . S
C1891 H1879 0.929 . S
C1891 C1885 1.390 . S
C1891 C1888 1.386 . S
C1892 C1887 1.490 . S
C1892 C1894 1.395 . S
C1892 C1895 1.403 . S
H1893 C1899 0.930 . S
C1894 H1880 0.930 . S
C1894 C1892 1.395 . S
C1894 C1897 1.403 . S
C1895 C1892 1.403 . S
C1895 C1896 1.524 . S
C1895 C1899 1.400 . S
C1896 H1881 0.960 . S
C1896 H1882 0.960 . S
C1896 H1883 0.960 . S
C1896 C1895 1.524 . S
C1897 C1894 1.403 . S
C1897 C1898 1.392 . S
C1897 C1901 1.495 . S
C1898 C1897 1.392 . S
C1898 C1899 1.385 . S
C1898 C1900 1.478 . S
C1899 H1893 0.930 . S
C1899 C1895 1.400 . S
C1899 C1898 1.385 . S
C1900 C1898 1.478 . S
C1900 C1902 1.381 . S
C1900 C1906 1.383 . S
C1901 C1897 1.495 . S
C1901 H1907 0.959 . S
C1901 H1908 0.961 . S
C1901 H1909 0.960 . S
C1902 C1900 1.381 . S
C1902 C1903 1.394 . S
C1902 H1910 0.930 . S
C1903 C1902 1.394 . S
C1903 C1904 1.383 . S
C1903 H1911 0.929 . S
C1904 C1903 1.383 . S
C1904 C1905 1.377 . S
C1905 H1889 0.930 . S
C1905 C1904 1.377 . S
C1905 C1906 1.379 . S
C1906 H1890 0.931 . S
C1906 C1900 1.383 . S
C1906 C1905 1.379 . S
H1907 C1901 0.959 . S
H1908 C1901 0.961 . S
H1909 C1901 0.960 . S
H1910 C1902 0.930 . S
H1911 C1903 0.929 . S
H1912 C1920 0.929 . S
H1913 C1922 0.930 . S
H1914 C1924 0.930 . S
H1915 C1927 0.929 . S
H1916 C1930 0.930 . S
H1917 C1932 0.960 . S
H1918 C1932 0.960 . S
H1919 C1932 0.960 . S
C1920 H1912 0.929 . S
C1920 C1921 1.377 . S
C1920 C1922 1.384 . S
C1921 C1920 1.377 . S
C1921 C1927 1.390 . S
C1922 H1913 0.930 . S
C1922 C1920 1.384 . S
C1922 C1923 1.372 . S
C1923 C1922 1.372 . S
C1923 C1924 1.400 . S
C1923 C1928 1.490 . S
C1924 H1914 0.930 . S
C1924 C1923 1.400 . S
C1924 C1927 1.386 . S
H1925 C1941 0.930 . S
H1926 C1942 0.931 . S
C1927 H1915 0.929 . S
C1927 C1921 1.390 . S
C1927 C1924 1.386 . S
C1928 C1923 1.490 . S
C1928 C1930 1.395 . S
C1928 C1931 1.403 . S
H1929 C1935 0.930 . S
C1930 H1916 0.930 . S
C1930 C1928 1.395 . S
C1930 C1933 1.403 1_554 S
C1931 C1928 1.403 . S
C1931 C1932 1.524 . S
C1931 C1935 1.400 1_554 S
C1932 H1917 0.960 . S
C1932 H1918 0.960 . S
C1932 H1919 0.960 . S
C1932 C1931 1.524 . S
C1933 C1930 1.403 1_556 S
C1933 C1934 1.392 . S
C1933 C1937 1.495 . S
C1934 C1933 1.392 . S
C1934 C1935 1.385 . S
C1934 C1936 1.478 . S
C1935 H1929 0.930 . S
C1935 C1931 1.400 1_556 S
C1935 C1934 1.385 . S
C1936 C1934 1.478 . S
C1936 C1938 1.381 . S
C1936 C1942 1.383 . S
C1937 C1933 1.495 . S
C1937 H1943 0.959 . S
C1937 H1944 0.961 . S
C1937 H1945 0.960 . S
C1938 C1936 1.381 . S
C1938 C1939 1.394 . S
C1938 H1946 0.930 . S
C1939 C1938 1.394 . S
C1939 C1940 1.383 . S
C1939 H1947 0.929 . S
C1940 C1939 1.383 . S
C1940 C1941 1.377 . S
C1941 H1925 0.930 . S
C1941 C1940 1.377 . S
C1941 C1942 1.379 . S
C1942 H1926 0.931 . S
C1942 C1936 1.383 . S
C1942 C1941 1.379 . S
H1943 C1937 0.959 . S
H1944 C1937 0.961 . S
H1945 C1937 0.960 . S
H1946 C1938 0.930 . S
H1947 C1939 0.929 . S
H1948 C1956 0.929 . S
H1949 C1958 0.930 . S
H1950 C1960 0.930 . S
H1951 C1963 0.929 . S
H1952 C1966 0.930 . S
H1953 C1968 0.960 . S
H1954 C1968 0.960 . S
H1955 C1968 0.960 . S
C1956 H1948 0.929 . S
C1956 C1957 1.377 . S
C1956 C1958 1.384 . S
C1957 C1956 1.377 . S
C1957 C1963 1.390 . S
C1958 H1949 0.930 . S
C1958 C1956 1.384 . S
C1958 C1959 1.372 . S
C1959 C1958 1.372 . S
C1959 C1960 1.400 . S
C1959 C1964 1.490 . S
C1960 H1950 0.930 . S
C1960 C1959 1.400 . S
C1960 C1963 1.386 . S
H1961 C1977 0.930 . S
H1962 C1978 0.931 . S
C1963 H1951 0.929 . S
C1963 C1957 1.390 . S
C1963 C1960 1.386 . S
C1964 C1959 1.490 . S
C1964 C1966 1.395 . S
C1964 C1967 1.403 . S
H1965 C1971 0.930 . S
C1966 H1952 0.930 . S
C1966 C1964 1.395 . S
C1966 C1969 1.403 . S
C1967 C1964 1.403 . S
C1967 C1968 1.524 . S
C1967 C1971 1.400 . S
C1968 H1953 0.960 . S
C1968 H1954 0.960 . S
C1968 H1955 0.960 . S
C1968 C1967 1.524 . S
C1969 C1966 1.403 . S
C1969 C1970 1.392 . S
C1969 C1973 1.495 . S
C1970 C1969 1.392 . S
C1970 C1971 1.385 . S
C1970 C1972 1.478 . S
C1971 H1965 0.930 . S
C1971 C1967 1.400 . S
C1971 C1970 1.385 . S
C1972 C1970 1.478 . S
C1972 C1974 1.381 . S
C1972 C1978 1.383 . S
C1973 C1969 1.495 . S
C1973 H1979 0.959 . S
C1973 H1980 0.961 . S
C1973 H1981 0.960 . S
C1974 C1972 1.381 . S
C1974 C1975 1.394 . S
C1974 H1982 0.930 . S
C1975 C1974 1.394 . S
C1975 C1976 1.383 . S
C1975 H1983 0.929 . S
C1976 C1975 1.383 . S
C1976 C1977 1.377 . S
C1977 H1961 0.930 . S
C1977 C1976 1.377 . S
C1977 C1978 1.379 . S
C1978 H1962 0.931 . S
C1978 C1972 1.383 . S
C1978 C1977 1.379 . S
H1979 C1973 0.959 . S
H1980 C1973 0.961 . S
H1981 C1973 0.960 . S
H1982 C1974 0.930 . S
H1983 C1975 0.929 . S
C553 C9 2.035 . S
C572 C247 2.052 . S
C589 C145 2.032 . S
C608 C43 2.040 . S
C625 C179 2.033 . S
C644 C77 2.038 . S
C661 C111 2.032 . S
C680 C213 2.031 . S
C697 C281 2.036 . S
C716 C519 2.034 . S
C733 C315 2.032 . S
C752 C417 2.015 . S
C769 C451 2.040 . S
C788 C349 2.045 . S
C805 C383 2.032 . S
C824 C485 2.013 . S
C841 C2 0.794 . S
C860 C339 0.847 . S
C877 C373 0.806 . S
C896 C36 0.768 . S
C913 C407 0.784 . S
C932 C70 0.830 . S
C949 C305 0.784 . S
C968 C104 0.825 . S
C985 C543 0.784 . S
C1004 C138 0.826 . S
C1021 C441 0.784 . S
C1040 C172 0.826 . S
C1057 C475 0.786 . S
C1076 C206 0.825 . S
C1093 C509 0.806 . S
C1112 C240 0.768 . S
C1129 C67 0.785 . S
C1148 C274 0.801 . S
C1165 C101 0.783 . S
C1184 C308 0.790 . S
C1201 C135 0.792 . S
C1220 C342 0.820 . S
C1237 C376 0.800 . S
C1256 C33 0.751 . S
C1273 C271 0.785 . S
C1292 C410 0.800 . S
C1309 C169 0.783 . S
C1328 C444 0.773 . S
C1345 C203 0.791 . S
C1364 C478 0.818 . S
C1381 C237 0.790 . S
C1400 C512 0.815 . S
C1417 C73 0.732 . S
C1436 C5 0.771 . S
C1453 C39 0.715 . S
C1472 C107 0.692 . S
C1489 C209 0.727 . S
C1508 C141 0.749 . S
C1525 C243 0.726 . S
C1544 C175 0.748 . S
C1561 C345 0.725 . S
C1580 C277 0.759 . S
C1597 C379 0.727 . S
C1616 C311 0.670 . S
C1633 C413 0.729 . S
C1652 C481 0.671 . S
C1669 C515 0.731 . S
C1688 C447 0.678 . S
C1705 C224 1.425 . S
C1724 C20 1.444 . S
C1741 C258 1.432 . S
C1760 C54 1.425 . S
C1777 C88 1.430 . S
C1796 C156 1.404 . S
C1813 C190 1.428 . S
C1832 C122 1.445 . S
C1849 C496 1.426 . S
C1868 C292 1.414 . S
C1885 C530 1.428 . S
C1904 C326 1.409 . S
C1921 C428 1.427 . S
C1940 C360 1.411 . S
C1957 C394 1.432 . S
C1976 C462 1.417 . S
