# Generated by pormake.
# Topology umg, (4)-cn, num edge types: 1
# Building blocks:
#     Node 0, Type 0, BuildingBlock: QUQFOY_clean_sbu_3, # of connection points: 4
#     Node 1, Type 0, BuildingBlock: QUQFOY_clean_sbu_3, # of connection points: 4
#     Node 2, Type 0, BuildingBlock: QUQFOY_clean_sbu_3, # of connection points: 4
#     Node 3, Type 0, BuildingBlock: QUQFOY_clean_sbu_3, # of connection points: 4
#     Node 4, Type 0, BuildingBlock: QUQFOY_clean_sbu_3, # of connection points: 4
#     Node 5, Type 0, BuildingBlock: QUQFOY_clean_sbu_3, # of connection points: 4
#     Node 6, Type 0, BuildingBlock: QUQFOY_clean_sbu_3, # of connection points: 4
#     Node 7, Type 0, BuildingBlock: QUQFOY_clean_sbu_3, # of connection points: 4
#     Node 8, Type 0, BuildingBlock: QUQFOY_clean_sbu_3, # of connection points: 4
#     Node 9, Type 0, BuildingBlock: QUQFOY_clean_sbu_3, # of connection points: 4
#     Node 10, Type 0, BuildingBlock: QUQFOY_clean_sbu_3, # of connection points: 4
#     Node 11, Type 0, BuildingBlock: QUQFOY_clean_sbu_3, # of connection points: 4
#     Edge 12, Type (0, 0), BuildingBlock: XIVTED_clean_linker_0, # of connection points: 2
#     Edge 13, Type (0, 0), BuildingBlock: XIVTED_clean_linker_0, # of connection points: 2
#     Edge 14, Type (0, 0), BuildingBlock: XIVTED_clean_linker_0, # of connection points: 2
#     Edge 15, Type (0, 0), BuildingBlock: XIVTED_clean_linker_0, # of connection points: 2
#     Edge 16, Type (0, 0), BuildingBlock: XIVTED_clean_linker_0, # of connection points: 2
#     Edge 17, Type (0, 0), BuildingBlock: XIVTED_clean_linker_0, # of connection points: 2
#     Edge 18, Type (0, 0), BuildingBlock: XIVTED_clean_linker_0, # of connection points: 2
#     Edge 19, Type (0, 0), BuildingBlock: XIVTED_clean_linker_0, # of connection points: 2
#     Edge 20, Type (0, 0), BuildingBlock: XIVTED_clean_linker_0, # of connection points: 2
#     Edge 21, Type (0, 0), BuildingBlock: XIVTED_clean_linker_0, # of connection points: 2
#     Edge 22, Type (0, 0), BuildingBlock: XIVTED_clean_linker_0, # of connection points: 2
#     Edge 23, Type (0, 0), BuildingBlock: XIVTED_clean_linker_0, # of connection points: 2
#     Edge 24, Type (0, 0), BuildingBlock: XIVTED_clean_linker_0, # of connection points: 2
#     Edge 25, Type (0, 0), BuildingBlock: XIVTED_clean_linker_0, # of connection points: 2
#     Edge 26, Type (0, 0), BuildingBlock: XIVTED_clean_linker_0, # of connection points: 2
#     Edge 27, Type (0, 0), BuildingBlock: XIVTED_clean_linker_0, # of connection points: 2
#     Edge 28, Type (0, 0), BuildingBlock: XIVTED_clean_linker_0, # of connection points: 2
#     Edge 29, Type (0, 0), BuildingBlock: XIVTED_clean_linker_0, # of connection points: 2
#     Edge 30, Type (0, 0), BuildingBlock: XIVTED_clean_linker_0, # of connection points: 2
#     Edge 31, Type (0, 0), BuildingBlock: XIVTED_clean_linker_0, # of connection points: 2
#     Edge 32, Type (0, 0), BuildingBlock: XIVTED_clean_linker_0, # of connection points: 2
#     Edge 33, Type (0, 0), BuildingBlock: XIVTED_clean_linker_0, # of connection points: 2
#     Edge 34, Type (0, 0), BuildingBlock: XIVTED_clean_linker_0, # of connection points: 2
#     Edge 35, Type (0, 0), BuildingBlock: XIVTED_clean_linker_0, # of connection points: 2
# Relax obj value: 0.092
# Max RMSD: 0.346
# Mean RMSD: 0.214
data_MOF--net-umg--node1-QUQFOY_clean_sbu_3--edge1-XIVTED_clean_linker_0
_symmetry_space_group_name_H-M    P1
_symmetry_Int_Tables_number       1
_symmetry_cell_setting            triclinic
loop_
_symmetry_equiv_pos_as_xyz
'x, y, z'
_cell_length_a     28.85041
_cell_length_b     28.869233
_cell_length_c     84.410739
_cell_angle_alpha  93.117278
_cell_angle_beta   92.380572
_cell_angle_gamma 120.6709
loop_
_atom_site_label
_atom_site_type_symbol
_atom_site_fract_x
_atom_site_fract_y
_atom_site_fract_z
_atom_type_partial_charge
C0 C 0.37358 0.66579 0.1053 0.0
O1 O 0.36347 0.70042 0.10006 0.0
Cd2 Cd 0.33391 0.69793 0.07267 0.0
O3 O 0.37126 0.62856 0.09588 0.0
Cd4 Cd 0.3544 0.59633 0.06737 0.0
C5 C 0.22354 0.56731 0.06794 0.0
O6 O 0.39239 0.68446 0.05647 0.0
O7 O 0.35317 0.61346 0.03964 0.0
O8 O 0.43562 0.59111 0.07035 0.0
C9 C 0.37832 0.66454 0.04211 0.0
O10 O 0.24355 0.61831 0.06892 0.0
C11 C 0.41348 0.54141 0.06557 0.0
O12 O 0.25419 0.54734 0.06786 0.0
O13 O 0.36278 0.51614 0.0618 0.0
C14 C 0.608 0.30388 0.44583 0.0
O15 O 0.56217 0.29353 0.44 0.0
Cd16 Cd 0.53717 0.25758 0.41256 0.0
O17 O 0.63849 0.2956 0.43716 0.0
Cd18 Cd 0.64104 0.26643 0.40938 0.0
C19 C 0.53814 0.13963 0.40995 0.0
O20 O 0.60655 0.31818 0.39605 0.0
O21 O 0.60798 0.25486 0.38164 0.0
O22 O 0.73417 0.33666 0.41697 0.0
C23 C 0.60389 0.29653 0.3823 0.0
O24 O 0.50919 0.16122 0.40917 0.0
C25 C 0.75602 0.31647 0.40862 0.0
O26 O 0.58945 0.16922 0.41152 0.0
O27 O 0.72453 0.2719 0.40047 0.0
C28 C 0.28417 0.58383 0.76747 0.0
O29 O 0.24516 0.53999 0.76074 0.0
Cd30 Cd 0.24693 0.51964 0.73293 0.0
O31 O 0.32217 0.61582 0.75938 0.0
Cd32 Cd 0.34456 0.62234 0.73125 0.0
C33 C 0.36323 0.51722 0.72922 0.0
O34 O 0.25479 0.5933 0.71833 0.0
O35 O 0.31245 0.59064 0.70344 0.0
O36 O 0.37282 0.71575 0.73952 0.0
C37 C 0.26919 0.59142 0.70444 0.0
O38 O 0.31178 0.48974 0.72838 0.0
C39 C 0.41164 0.73761 0.73073 0.0
O40 O 0.38803 0.56854 0.73163 0.0
O41 O 0.42126 0.70605 0.72233 0.0
C42 C 0.68272 0.25887 0.10186 0.0
O43 O 0.68403 0.21744 0.09679 0.0
Cd44 Cd 0.70164 0.21196 0.06918 0.0
O45 O 0.68615 0.29257 0.09224 0.0
Cd46 Cd 0.69117 0.30562 0.06388 0.0
C47 C 0.81883 0.33233 0.0666 0.0
O48 O 0.63777 0.21438 0.04999 0.0
O49 O 0.69789 0.27787 0.03702 0.0
O50 O 0.61074 0.31177 0.06462 0.0
C51 C 0.65657 0.2308 0.03673 0.0
O52 O 0.7963 0.28124 0.06673 0.0
C53 C 0.6318 0.36013 0.06105 0.0
O54 O 0.79029 0.35451 0.06652 0.0
O55 O 0.68174 0.38441 0.05858 0.0
C56 C 0.34508 0.63732 0.44002 0.0
O57 O 0.38812 0.64201 0.43501 0.0
Cd58 Cd 0.40279 0.6394 0.40708 0.0
O59 O 0.30487 0.62574 0.43033 0.0
Cd60 Cd 0.27068 0.6041 0.40213 0.0
C61 C 0.36864 0.73605 0.39899 0.0
O62 O 0.32329 0.56416 0.39421 0.0
O63 O 0.27577 0.57162 0.37533 0.0
O64 O 0.18876 0.53404 0.41244 0.0
C65 C 0.31019 0.55874 0.3794 0.0
O66 O 0.40274 0.72064 0.40064 0.0
C67 C 0.15651 0.54129 0.40368 0.0
O68 O 0.31797 0.70284 0.39944 0.0
O69 O 0.17737 0.57865 0.39433 0.0
C70 C 0.66238 0.31852 0.76312 0.0
O71 O 0.7018 0.36298 0.75948 0.0
Cd72 Cd 0.72199 0.38355 0.73246 0.0
O73 O 0.63408 0.27978 0.75247 0.0
Cd74 Cd 0.624 0.25038 0.72392 0.0
C75 C 0.58984 0.347 0.71974 0.0
O76 O 0.71827 0.307 0.71956 0.0
O77 O 0.66595 0.26353 0.69852 0.0
O78 O 0.61545 0.17043 0.73471 0.0
C79 C 0.71306 0.29831 0.70453 0.0
O80 O 0.63994 0.38142 0.72309 0.0
C81 C 0.57626 0.13631 0.72505 0.0
O82 O 0.57149 0.29617 0.71966 0.0
O83 O 0.55826 0.15503 0.71473 0.0
C84 C 0.34546 0.785 0.55017 0.0
O85 O 0.30813 0.79347 0.55393 0.0
Cd86 Cd 0.30847 0.82558 0.58085 0.0
O87 O 0.38193 0.79213 0.56066 0.0
Cd88 Cd 0.40652 0.81571 0.58941 0.0
C89 C 0.43081 0.94315 0.5882 0.0
O90 O 0.31529 0.76576 0.59843 0.0
O91 O 0.37922 0.82137 0.61605 0.0
O92 O 0.41546 0.73684 0.58897 0.0
C93 C 0.33073 0.78297 0.61294 0.0
O94 O 0.37968 0.92054 0.58591 0.0
C95 C 0.46521 0.7607 0.59359 0.0
O96 O 0.45289 0.91464 0.58909 0.0
O97 O 0.48929 0.81176 0.59657 0.0
C98 C 0.53281 0.28755 0.8726 0.0
O99 O 0.4888 0.24759 0.87613 0.0
Cd100 Cd 0.4688 0.24744 0.90357 0.0
O101 O 0.56494 0.32323 0.88345 0.0
Cd102 Cd 0.57827 0.34492 0.91234 0.0
C103 C 0.47654 0.36919 0.91187 0.0
O104 O 0.54149 0.25272 0.9207 0.0
O105 O 0.55246 0.31498 0.93852 0.0
O106 O 0.66617 0.3646 0.90486 0.0
C107 C 0.54265 0.26732 0.93524 0.0
O108 O 0.44666 0.31796 0.90957 0.0
C109 C 0.69418 0.40624 0.91444 0.0
O110 O 0.5278 0.3917 0.91242 0.0
O111 O 0.66858 0.42027 0.92354 0.0
C112 C 0.422 0.65386 0.22289 0.0
O113 O 0.41236 0.61018 0.22858 0.0
Cd114 Cd 0.39799 0.59284 0.25626 0.0
O115 O 0.42779 0.69353 0.23194 0.0
Cd116 Cd 0.4288 0.7224 0.25998 0.0
C117 C 0.2955 0.62143 0.2596 0.0
O118 O 0.46516 0.67164 0.27191 0.0
O119 O 0.44332 0.71625 0.28816 0.0
O120 O 0.50962 0.80841 0.25652 0.0
C121 C 0.46054 0.68398 0.28617 0.0
O122 O 0.31224 0.58819 0.25923 0.0
C123 C 0.48995 0.83748 0.26056 0.0
O124 O 0.32844 0.67219 0.25933 0.0
O125 O 0.44109 0.81289 0.26413 0.0
C126 C 0.74422 0.45899 0.55843 0.0
O127 O 0.78279 0.45506 0.56471 0.0
Cd128 Cd 0.79888 0.45037 0.59273 0.0
O129 O 0.71313 0.46658 0.56709 0.0
Cd130 Cd 0.69785 0.47959 0.59515 0.0
C131 C 0.66699 0.34791 0.59704 0.0
O132 O 0.78791 0.51511 0.60763 0.0
O133 O 0.72572 0.4977 0.6235 0.0
O134 O 0.69422 0.5602 0.5902 0.0
C135 C 0.77435 0.51106 0.62184 0.0
O136 O 0.71751 0.36589 0.59675 0.0
C137 C 0.64637 0.5418 0.59427 0.0
O138 O 0.64794 0.37927 0.59599 0.0
O139 O 0.6218 0.49369 0.59841 0.0
C140 C 0.2793 0.68371 0.88276 0.0
O141 O 0.32317 0.72063 0.89022 0.0
Cd142 Cd 0.34342 0.7331 0.91877 0.0
O143 O 0.23929 0.65163 0.89027 0.0
Cd144 Cd 0.21058 0.63195 0.91752 0.0
C145 C 0.30979 0.59998 0.92199 0.0
O146 O 0.2661 0.72285 0.9304 0.0
O147 O 0.21899 0.66098 0.94561 0.0
O148 O 0.12439 0.62009 0.9073 0.0
C149 C 0.25453 0.70986 0.94443 0.0
O150 O 0.34394 0.65062 0.92277 0.0
C151 C 0.09548 0.57758 0.91422 0.0
O152 O 0.25902 0.58152 0.91957 0.0
O153 O 0.12002 0.55905 0.92212 0.0
C154 C 0.73661 0.37808 0.21784 0.0
O155 O 0.7445 0.42443 0.22224 0.0
Cd156 Cd 0.77634 0.45953 0.24958 0.0
O157 O 0.74265 0.35022 0.22797 0.0
Cd158 Cd 0.7633 0.35474 0.25669 0.0
C159 C 0.89187 0.45497 0.2549 0.0
O160 O 0.71663 0.39867 0.26795 0.0
O161 O 0.7776 0.39734 0.28345 0.0
O162 O 0.68308 0.26606 0.25636 0.0
C163 C 0.73792 0.40467 0.28196 0.0
O164 O 0.87138 0.48474 0.25368 0.0
C165 C 0.70653 0.24143 0.26082 0.0
O166 O 0.86138 0.40408 0.25531 0.0
O167 O 0.75764 0.26962 0.26362 0.0
H168 H 0.22891 0.73615 0.97268 0.0
H169 H 0.41023 0.65677 0.01289 0.0
H170 H 0.36217 0.74698 0.94849 0.0
H171 H 0.35553 0.74533 0.04134 0.0
H172 H 0.39988 0.6975 0.98938 0.0
H173 H 0.27985 0.75111 -0.00177 0.0
C174 C 0.26998 0.74427 0.97278 0.0
C175 C 0.29151 0.74038 0.95854 0.0
C176 C 0.39164 0.70937 0.00083 0.0
C177 C 0.34865 0.7546 0.98756 0.0
C178 C 0.39731 0.68588 0.01419 0.0
C179 C 0.38341 0.69763 0.02894 0.0
C180 C 0.3698 0.74303 0.00213 0.0
C181 C 0.36669 0.73547 0.0301 0.0
C182 C 0.29895 0.75252 0.98734 0.0
C183 C 0.34439 0.75008 0.95922 0.0
N184 N 0.35875 0.75571 0.01674 0.0
N185 N 0.37056 0.75496 0.97354 0.0
H186 H 0.55334 0.24896 0.35314 0.0
H187 H 0.78619 0.45518 0.31117 0.0
H188 H 0.66317 0.40414 0.37841 0.0
H189 H 0.63005 0.36046 0.28503 0.0
H190 H 0.74151 0.44176 0.33595 0.0
H191 H 0.57676 0.29049 0.32794 0.0
C192 C 0.58122 0.29213 0.35335 0.0
C193 C 0.60666 0.32327 0.36776 0.0
C194 C 0.71695 0.4253 0.32476 0.0
C195 C 0.63496 0.37047 0.33913 0.0
C196 C 0.74242 0.4328 0.31065 0.0
C197 C 0.71165 0.40845 0.29613 0.0
C198 C 0.66058 0.39164 0.32433 0.0
C199 C 0.65511 0.37981 0.29603 0.0
C200 C 0.59448 0.31583 0.339 0.0
C201 C 0.64268 0.37893 0.36748 0.0
N202 N 0.6313 0.37076 0.31 0.0
N203 N 0.65711 0.40059 0.35333 0.0
H204 H 0.25265 0.5491 0.67381 0.0
H205 H 0.33822 0.82025 0.64391 0.0
H206 H 0.24007 0.66724 0.7038 0.0
H207 H 0.25014 0.67712 0.61122 0.0
H208 H 0.29749 0.76515 0.66601 0.0
H209 H 0.24436 0.59149 0.65039 0.0
C210 C 0.2462 0.58284 0.67538 0.0
C211 C 0.2472 0.60497 0.69065 0.0
C212 C 0.28591 0.74608 0.65396 0.0
C213 C 0.24008 0.65487 0.66414 0.0
C214 C 0.30937 0.77743 0.64138 0.0
C215 C 0.29808 0.75297 0.62579 0.0
C216 C 0.25237 0.6898 0.65093 0.0
C217 C 0.26017 0.69742 0.6231 0.0
C218 C 0.24153 0.60706 0.66205 0.0
C219 C 0.23925 0.64899 0.69216 0.0
N220 N 0.23977 0.66733 0.63561 0.0
N221 N 0.23775 0.67371 0.67906 0.0
H222 H 0.54787 0.18174 0.02975 0.0
H223 H 0.58534 0.20218 0.93688 0.0
H224 H 0.69629 0.22172 0.00888 0.0
H225 H 0.49561 0.25858 0.96297 0.0
H226 H 0.59972 0.16596 0.96111 0.0
H227 H 0.50317 0.16533 0.00293 0.0
C228 C 0.57034 0.18467 0.01951 0.0
C229 C 0.62585 0.20366 0.02141 0.0
C230 C 0.5754 0.18472 0.96132 0.0
C231 C 0.57533 0.18494 0.99098 0.0
C232 C 0.56708 0.20519 0.94755 0.0
C233 C 0.53998 0.23396 0.94811 0.0
C234 C 0.5554 0.19224 0.9755 0.0
C235 C 0.51736 0.23722 0.96219 0.0
C236 C 0.54497 0.17569 0.00426 0.0
C237 C 0.65348 0.20759 0.00782 0.0
N238 N 0.526 0.21706 0.97541 0.0
N239 N 0.62809 0.19902 0.99312 0.0
H240 H 0.40795 0.57444 0.28646 0.0
H241 H 0.42011 0.60561 0.38093 0.0
H242 H 0.50894 0.72297 0.31595 0.0
H243 H 0.27531 0.50449 0.35009 0.0
H244 H 0.47371 0.62315 0.3578 0.0
H245 H 0.38249 0.52554 0.31052 0.0
C246 C 0.42669 0.59628 0.29795 0.0
C247 C 0.46012 0.6527 0.29936 0.0
C248 C 0.4304 0.59544 0.35625 0.0
C249 C 0.43151 0.59747 0.32667 0.0
C250 C 0.39984 0.58524 0.36942 0.0
C251 C 0.34325 0.55437 0.36728 0.0
C252 C 0.40399 0.57383 0.341 0.0
C253 C 0.3189 0.52913 0.35212 0.0
C254 C 0.41195 0.56848 0.31164 0.0
C255 C 0.48273 0.67943 0.31448 0.0
N256 N 0.34936 0.54005 0.33948 0.0
N257 N 0.46746 0.65166 0.32761 0.0
H258 H 0.78796 0.40582 0.71189 0.0
H259 H 0.82251 0.45043 0.6201 0.0
H260 H 0.7277 0.27841 0.67383 0.0
H261 H 0.78787 0.54592 0.65311 0.0
H262 H 0.83472 0.40562 0.64228 0.0
H263 H 0.83312 0.47242 0.69258 0.0
C264 C 0.78569 0.3917 0.69958 0.0
C265 C 0.75288 0.33668 0.69433 0.0
C266 C 0.82669 0.43801 0.6447 0.0
C267 C 0.80533 0.41228 0.67241 0.0
C268 C 0.82008 0.46393 0.63206 0.0
C269 C 0.80331 0.50132 0.63478 0.0
C270 C 0.81728 0.45038 0.6601 0.0
C271 C 0.80031 0.51686 0.65055 0.0
C272 C 0.81149 0.42973 0.68861 0.0
C273 C 0.7518 0.3206 0.67828 0.0
N274 N 0.80625 0.49064 0.66264 0.0
N275 N 0.77702 0.35832 0.66782 0.0
H276 H 0.41058 0.57823 0.19935 0.0
H277 H 0.38911 0.7425 0.12898 0.0
H278 H 0.43416 0.73835 0.20664 0.0
H279 H 0.38764 0.59269 0.121 0.0
H280 H 0.40679 0.74204 0.1575 0.0
H281 H 0.40382 0.58325 0.17059 0.0
C282 C 0.41479 0.6146 0.19493 0.0
C283 C 0.42267 0.65779 0.20546 0.0
C284 C 0.4029 0.70942 0.1495 0.0
C285 C 0.41451 0.66361 0.17255 0.0
C286 C 0.3927 0.70961 0.1332 0.0
C287 C 0.38667 0.66748 0.12255 0.0
C288 C 0.40673 0.6666 0.15524 0.0
C289 C 0.39191 0.62601 0.12874 0.0
C290 C 0.41088 0.61742 0.1785 0.0
C291 C 0.42788 0.70393 0.19901 0.0
N292 N 0.40131 0.62646 0.14467 0.0
N293 N 0.42332 0.70544 0.183 0.0
H294 H 0.55838 0.33516 0.46748 0.0
H295 H 0.79855 0.43768 0.53598 0.0
H296 H 0.70393 0.33028 0.46175 0.0
H297 H 0.65719 0.45062 0.54121 0.0
H298 H 0.76677 0.40306 0.50824 0.0
H299 H 0.59485 0.37986 0.49428 0.0
C300 C 0.59786 0.34325 0.47186 0.0
C301 C 0.628 0.32871 0.46235 0.0
C302 C 0.74293 0.41393 0.51541 0.0
C303 C 0.67019 0.38029 0.49296 0.0
C304 C 0.76122 0.434 0.53125 0.0
C305 C 0.73034 0.44673 0.54102 0.0
C306 C 0.69322 0.40621 0.50927 0.0
C307 C 0.68229 0.44114 0.53418 0.0
C308 C 0.6188 0.36904 0.48714 0.0
C309 C 0.67911 0.34054 0.46865 0.0
N310 N 0.66497 0.42081 0.51878 0.0
N311 N 0.69849 0.36552 0.48353 0.0
H312 H 0.36236 0.67368 0.78576 0.0
H313 H 0.19474 0.6046 0.86301 0.0
H314 H 0.20544 0.53065 0.78784 0.0
H315 H 0.35818 0.73901 0.86255 0.0
H316 H 0.1952 0.58141 0.83483 0.0
H317 H 0.35952 0.70136 0.81339 0.0
C318 C 0.32737 0.64794 0.79203 0.0
C319 C 0.2841 0.59963 0.78445 0.0
C320 C 0.23086 0.61617 0.84086 0.0
C321 C 0.28044 0.63147 0.81609 0.0
C322 C 0.23056 0.62967 0.85697 0.0
C323 C 0.27664 0.6737 0.86524 0.0
C324 C 0.27754 0.64687 0.83292 0.0
C325 C 0.32178 0.70462 0.85671 0.0
C326 C 0.32574 0.66389 0.80781 0.0
C327 C 0.2398 0.56809 0.7932 0.0
N328 N 0.32119 0.69043 0.84104 0.0
N329 N 0.2391 0.5846 0.80853 0.0
H330 H 0.67228 0.34023 0.1158 0.0
H331 H 0.7194 0.28142 0.2046 0.0
H332 H 0.6888 0.20492 0.12704 0.0
H333 H 0.71879 0.42464 0.19258 0.0
H334 H 0.69829 0.24754 0.17657 0.0
H335 H 0.67844 0.36561 0.14411 0.0
C336 C 0.67681 0.31554 0.12422 0.0
C337 C 0.68062 0.27063 0.11901 0.0
C338 C 0.70254 0.28625 0.18007 0.0
C339 C 0.688 0.29985 0.15155 0.0
C340 C 0.71462 0.30572 0.19609 0.0
C341 C 0.72133 0.35625 0.20096 0.0
C342 C 0.69704 0.31744 0.1688 0.0
C343 C 0.71433 0.38567 0.18937 0.0
C344 C 0.68041 0.33018 0.14041 0.0
C345 C 0.68596 0.23999 0.13051 0.0
N346 N 0.70279 0.36592 0.17382 0.0
N347 N 0.68992 0.25543 0.14626 0.0
H348 H 0.26782 0.75239 0.52538 0.0
H349 H 0.42479 0.67114 0.46435 0.0
H350 H 0.42187 0.7673 0.53784 0.0
H351 H 0.26187 0.63737 0.45436 0.0
H352 H 0.42464 0.70593 0.4914 0.0
H353 H 0.26601 0.71178 0.49903 0.0
C354 C 0.3014 0.74742 0.52256 0.0
C355 C 0.34506 0.76333 0.53384 0.0
C356 C 0.3888 0.69049 0.48331 0.0
C357 C 0.34309 0.71649 0.50374 0.0
C358 C 0.38877 0.6704 0.46788 0.0
C359 C 0.34341 0.65158 0.45701 0.0
C360 C 0.34328 0.69206 0.48787 0.0
C361 C 0.29789 0.65167 0.46228 0.0
C362 C 0.30021 0.72393 0.50754 0.0
C363 C 0.38735 0.75564 0.52953 0.0
N364 N 0.29917 0.67202 0.47727 0.0
N365 N 0.38532 0.73283 0.51482 0.0
H366 H 0.4817 0.21421 0.84643 0.0
H367 H 0.71095 0.39236 0.78916 0.0
H368 H 0.62243 0.37024 0.86132 0.0
H369 H 0.57615 0.23208 0.77467 0.0
H370 H 0.67867 0.38479 0.81571 0.0
H371 H 0.5142 0.22057 0.81983 0.0
C372 C 0.51919 0.2499 0.84409 0.0
C373 C 0.54938 0.29168 0.85614 0.0
C374 C 0.65627 0.35117 0.80674 0.0
C375 C 0.58696 0.29906 0.82582 0.0
C376 C 0.67481 0.35541 0.79158 0.0
C377 C 0.64621 0.31286 0.77963 0.0
C378 C 0.60866 0.30412 0.80999 0.0
C379 C 0.59954 0.26596 0.78349 0.0
C380 C 0.53785 0.25341 0.82893 0.0
C381 C 0.59779 0.33695 0.85244 0.0
N382 N 0.58211 0.26296 0.7983 0.0
N383 N 0.61505 0.33936 0.83764 0.0
H384 H 0.89226 0.2986 0.06681 0.0
H385 H 0.14815 0.59778 0.06675 0.0
H386 H 0.88184 0.4425 0.06621 0.0
H387 H 0.16215 0.45592 0.06744 0.0
H388 H 0.05049 0.54061 0.06616 0.0
H389 H 0.99052 0.35452 0.06674 0.0
C390 C 0.91054 0.34195 0.06666 0.0
C391 C 0.87853 0.36583 0.06653 0.0
C392 C 0.07475 0.52181 0.06642 0.0
C393 C 0.99128 0.43011 0.06644 0.0
C394 C 0.13077 0.55451 0.06676 0.0
C395 C 0.16377 0.53176 0.06718 0.0
C396 C 0.05098 0.46564 0.06652 0.0
C397 C 0.13846 0.4753 0.06713 0.0
C398 C 0.96673 0.37383 0.06661 0.0
C399 C 0.90469 0.42221 0.06633 0.0
N400 N 0.08357 0.44418 0.06684 0.0
N401 N 0.95941 0.45233 0.0663 0.0
H402 H 0.58759 0.08021 0.4082 0.0
H403 H 0.31386 0.79131 0.40105 0.0
H404 H 0.42963 0.06265 0.40743 0.0
H405 H 0.47259 0.81512 0.39561 0.0
H406 H 0.35382 0.8898 0.40324 0.0
H407 H 0.54481 0.98232 0.40411 0.0
C408 C 0.54386 0.0558 0.40724 0.0
C409 C 0.51225 0.07989 0.40819 0.0
C410 C 0.3797 0.87329 0.40144 0.0
C411 C 0.4627 0.96715 0.4034 0.0
C412 C 0.35688 0.81706 0.40011 0.0
C413 C 0.38988 0.79473 0.39825 0.0
C414 C 0.43588 0.9073 0.40096 0.0
C415 C 0.44545 0.83025 0.39716 0.0
C416 C 0.51938 0.99975 0.40482 0.0
C417 C 0.45566 0.0459 0.40679 0.0
N418 N 0.46661 0.88453 0.39865 0.0
N419 N 0.43269 0.99126 0.40449 0.0
H420 H 0.61658 0.44885 0.71345 0.0
H421 H 0.32524 0.408 0.72655 0.0
H422 H 0.47926 0.2943 0.72177 0.0
H423 H 0.4718 0.56312 0.72619 0.0
H424 H 0.37735 0.36361 0.72203 0.0
H425 H 0.55986 0.48848 0.71452 0.0
C426 C 0.57424 0.42299 0.71533 0.0
C427 C 0.55286 0.36816 0.71769 0.0
C428 C 0.39799 0.40734 0.72293 0.0
C429 C 0.48744 0.41384 0.71911 0.0
C430 C 0.36834 0.43277 0.72554 0.0
C431 C 0.39418 0.4895 0.72684 0.0
C432 C 0.45384 0.43881 0.72148 0.0
C433 C 0.45009 0.51937 0.72537 0.0
C434 C 0.54187 0.44581 0.71601 0.0
C435 C 0.49749 0.33672 0.71991 0.0
N436 N 0.47791 0.49369 0.72276 0.0
N437 N 0.46675 0.36014 0.72072 0.0
H438 H 0.69567 0.27389 0.60344 0.0
H439 H 0.39742 0.01633 0.586 0.0
H440 H 0.55563 0.28674 0.59192 0.0
H441 H 0.54076 0.0069 0.59482 0.0
H442 H 0.45316 0.1149 0.58942 0.0
H443 H 0.63792 0.17618 0.60202 0.0
C444 C 0.65263 0.25623 0.60068 0.0
C445 C 0.63061 0.28882 0.59767 0.0
C446 C 0.47239 0.09126 0.59062 0.0
C447 C 0.56391 0.17605 0.59594 0.0
C448 C 0.44062 0.0349 0.58865 0.0
C449 C 0.4644 0.00307 0.59008 0.0
C450 C 0.52845 0.11619 0.59408 0.0
C451 C 0.52059 0.02961 0.59355 0.0
C452 C 0.61963 0.2002 0.59985 0.0
C453 C 0.57442 0.26331 0.59431 0.0
N454 N 0.55061 0.08452 0.59542 0.0
N455 N 0.54301 0.20837 0.59344 0.0
H456 H 0.25468 0.48896 0.91573 0.0
H457 H 0.52717 0.47856 0.9194 0.0
H458 H 0.41382 0.62649 0.92951 0.0
H459 H 0.36854 0.3361 0.90972 0.0
H460 H 0.48518 0.53279 0.92335 0.0
H461 H 0.29417 0.4312 0.91412 0.0
C462 C 0.29772 0.50693 0.91858 0.0
C463 C 0.33095 0.56279 0.92264 0.0
C464 C 0.45946 0.48964 0.9204 0.0
C465 C 0.37641 0.49715 0.92066 0.0
C466 C 0.48348 0.45862 0.91808 0.0
C467 C 0.45142 0.40263 0.91417 0.0
C468 C 0.40284 0.4647 0.91873 0.0
C469 C 0.39492 0.37914 0.9127 0.0
C470 C 0.32027 0.47399 0.9176 0.0
C471 C 0.38652 0.5838 0.92619 0.0
N472 N 0.37245 0.41029 0.91493 0.0
N473 N 0.40742 0.5511 0.92502 0.0
H474 H 0.23981 0.67571 0.25787 0.0
H475 H 0.95016 0.40462 0.25808 0.0
H476 H 0.2162 0.51663 0.26177 0.0
H477 H 0.96971 0.56207 0.25422 0.0
H478 H 0.04818 0.44616 0.2599 0.0
H479 H 0.14153 0.63618 0.25713 0.0
C480 C 0.21413 0.63262 0.25864 0.0
C481 C 0.23648 0.59952 0.25983 0.0
C482 C 0.03111 0.47172 0.25866 0.0
C483 C 0.12409 0.55404 0.25894 0.0
C484 C 0.97501 0.44795 0.25761 0.0
C485 C 0.95148 0.4798 0.25597 0.0
C486 C 0.06424 0.52788 0.25806 0.0
C487 C 0.98598 0.53585 0.25546 0.0
C488 C 0.15802 0.61006 0.25819 0.0
C489 C 0.20106 0.54389 0.26078 0.0
N490 N 0.04058 0.55808 0.25648 0.0
N491 N 0.14686 0.52303 0.26028 0.0
H492 H 0.52226 0.31207 0.06087 0.0
H493 H 0.5234 0.5893 0.06907 0.0
H494 H 0.667 0.46803 0.05968 0.0
H495 H 0.37757 0.43355 0.05902 0.0
H496 H 0.57673 0.54566 0.06688 0.0
H497 H 0.46881 0.35577 0.0612 0.0
C498 C 0.54283 0.35557 0.06062 0.0
C499 C 0.59928 0.3865 0.0603 0.0
C500 C 0.53309 0.52102 0.06511 0.0
C501 C 0.53814 0.43688 0.06081 0.0
C502 C 0.50254 0.54586 0.06642 0.0
C503 C 0.44585 0.51498 0.06427 0.0
C504 C 0.50686 0.46475 0.06177 0.0
C505 C 0.42113 0.4589 0.06078 0.0
C506 C 0.5122 0.38047 0.06078 0.0
C507 C 0.62361 0.44265 0.05992 0.0
N508 N 0.45178 0.43555 0.05972 0.0
N509 N 0.59293 0.4661 0.0603 0.0
H510 H 0.83162 0.38 0.43263 0.0
H511 H 0.07783 0.51586 0.37992 0.0
H512 H 0.81473 0.31865 0.38368 0.0
H513 H 0.10107 0.48832 0.42856 0.0
H514 H 0.9797 0.45652 0.38095 0.0
H515 H 0.92997 0.43274 0.43143 0.0
C516 C 0.84875 0.37748 0.42166 0.0
C517 C 0.81528 0.34489 0.40824 0.0
C518 C 0.00648 0.46351 0.39134 0.0
C519 C 0.92709 0.40601 0.40669 0.0
C520 C 0.06223 0.49757 0.39082 0.0
C521 C 0.09741 0.50696 0.40419 0.0
C522 C 0.98593 0.44005 0.40547 0.0
C523 C 0.07525 0.48198 0.41799 0.0
C524 C 0.90468 0.40742 0.42101 0.0
C525 C 0.83934 0.34302 0.39431 0.0
N526 N 0.0208 0.45013 0.41835 0.0
N527 N 0.89393 0.37389 0.3938 0.0
H528 H 0.57893 0.08496 0.75088 0.0
H529 H 0.4603 0.79408 0.70534 0.0
H530 H 0.52217 0.05442 0.70118 0.0
H531 H 0.42981 0.81526 0.75401 0.0
H532 H 0.50174 0.8921 0.7036 0.0
H533 H 0.54214 0.98791 0.75223 0.0
C534 C 0.55881 0.0578 0.74024 0.0
C535 C 0.55327 0.07763 0.72591 0.0
C536 C 0.48623 0.8751 0.71466 0.0
C537 C 0.51227 0.96695 0.72732 0.0
C538 C 0.46311 0.81947 0.71571 0.0
C539 C 0.44174 0.79675 0.72985 0.0
C540 C 0.4891 0.90811 0.72797 0.0
C541 C 0.44574 0.83124 0.74289 0.0
C542 C 0.53781 0.00254 0.74104 0.0
C543 C 0.52683 0.04065 0.71249 0.0
N544 N 0.46925 0.88524 0.74167 0.0
N545 N 0.50763 0.98699 0.71347 0.0
H546 H 0.41854 0.65171 0.59371 0.0
H547 H 0.69358 0.64971 0.59004 0.0
H548 H 0.57464 0.79841 0.59642 0.0
H549 H 0.5415 0.51054 0.59919 0.0
H550 H 0.65099 0.70456 0.59085 0.0
H551 H 0.46307 0.59928 0.5944 0.0
C552 C 0.46232 0.67298 0.59451 0.0
C553 C 0.49292 0.7296 0.59498 0.0
C554 C 0.62703 0.66206 0.59272 0.0
C555 C 0.54434 0.66946 0.59563 0.0
C556 C 0.6512 0.63063 0.59218 0.0
C557 C 0.62099 0.57534 0.5945 0.0
C558 C 0.57208 0.63794 0.59543 0.0
C559 C 0.56634 0.55293 0.59732 0.0
C560 C 0.48773 0.64293 0.59493 0.0
C561 C 0.54951 0.75485 0.59607 0.0
N562 N 0.54363 0.58422 0.59763 0.0
N563 N 0.57345 0.72456 0.59624 0.0
H564 H 0.02761 0.57889 0.89091 0.0
H565 H 0.7685 0.46077 0.94001 0.0
H566 H 0.02908 0.52111 0.93688 0.0
H567 H 0.7548 0.41896 0.8895 0.0
H568 H 0.86752 0.50387 0.94008 0.0
H569 H 0.92943 0.53984 0.89108 0.0
C570 C 0.00723 0.55798 0.90102 0.0
C571 C 0.03622 0.55269 0.91383 0.0
C572 C 0.84259 0.48546 0.92901 0.0
C573 C 0.92492 0.50975 0.91431 0.0
C574 C 0.78641 0.4613 0.92894 0.0
C575 C 0.75371 0.43622 0.91474 0.0
C576 C 0.86592 0.48575 0.9147 0.0
C577 C 0.77871 0.43761 0.90071 0.0
C578 C 0.95144 0.53582 0.9011 0.0
C579 C 0.008 0.52544 0.92669 0.0
N580 N 0.83339 0.46231 0.90101 0.0
N581 N 0.95389 0.50539 0.92668 0.0
H582 H 0.59833 0.90064 0.25732 0.0
H583 H 0.59718 0.17676 0.26058 0.0
H584 H 0.45667 0.91031 0.26544 0.0
H585 H 0.7442 0.17174 0.264 0.0
H586 H 0.54486 0.07883 0.26127 0.0
H587 H 0.65214 0.99932 0.25848 0.0
C588 C 0.57851 0.92351 0.25934 0.0
C589 C 0.52284 0.89717 0.26124 0.0
C590 C 0.58856 0.09908 0.26196 0.0
C591 C 0.58425 0.01015 0.26256 0.0
C592 C 0.61851 0.15504 0.26154 0.0
C593 C 0.67519 0.18246 0.26219 0.0
C594 C 0.61532 0.07001 0.26286 0.0
C595 C 0.70059 0.1522 0.26349 0.0
C596 C 0.60933 0.97986 0.26006 0.0
C597 C 0.49941 0.9289 0.2639 0.0
N598 N 0.67043 0.09749 0.26366 0.0
N599 N 0.53018 0.98369 0.26439 0.0
loop_
_geom_bond_atom_site_label_1
_geom_bond_atom_site_label_2
_geom_bond_distance
_geom_bond_site_symmetry_2
_ccdc_geom_bond_type
C0 O1 1.306 . S
C0 O3 1.160 . S
O1 C0 1.306 . S
O1 Cd2 2.228 . S
Cd2 O1 2.228 . S
Cd2 O6 2.273 . S
Cd2 O10 2.277 . S
O3 C0 1.160 . S
O3 Cd4 2.203 . S
Cd4 O3 2.203 . S
Cd4 O6 2.411 . S
Cd4 O7 2.333 . S
Cd4 O8 2.352 . S
Cd4 O12 2.277 . S
Cd4 O13 2.356 . S
C5 O10 1.209 . S
C5 O12 1.226 . S
O6 Cd2 2.273 . S
O6 Cd4 2.411 . S
O6 C9 1.320 . S
O7 Cd4 2.333 . S
O7 C9 1.214 . S
O8 Cd4 2.352 . S
O8 C11 1.258 . S
C9 O6 1.320 . S
C9 O7 1.214 . S
O10 Cd2 2.277 . S
O10 C5 1.209 . S
C11 O8 1.258 . S
C11 O13 1.282 . S
O12 Cd4 2.277 . S
O12 C5 1.226 . S
O13 Cd4 2.356 . S
O13 C11 1.282 . S
C14 O15 1.306 . S
C14 O17 1.160 . S
O15 C14 1.306 . S
O15 Cd16 2.228 . S
Cd16 O15 2.228 . S
Cd16 O20 2.273 . S
Cd16 O24 2.277 . S
O17 C14 1.160 . S
O17 Cd18 2.203 . S
Cd18 O17 2.203 . S
Cd18 O20 2.411 . S
Cd18 O21 2.333 . S
Cd18 O22 2.352 . S
Cd18 O26 2.277 . S
Cd18 O27 2.356 . S
C19 O24 1.209 . S
C19 O26 1.226 . S
O20 Cd16 2.273 . S
O20 Cd18 2.411 . S
O20 C23 1.320 . S
O21 Cd18 2.333 . S
O21 C23 1.214 . S
O22 Cd18 2.352 . S
O22 C25 1.258 . S
C23 O20 1.320 . S
C23 O21 1.214 . S
O24 Cd16 2.277 . S
O24 C19 1.209 . S
C25 O22 1.258 . S
C25 O27 1.282 . S
O26 Cd18 2.277 . S
O26 C19 1.226 . S
O27 Cd18 2.356 . S
O27 C25 1.282 . S
C28 O29 1.306 . S
C28 O31 1.160 . S
O29 C28 1.306 . S
O29 Cd30 2.228 . S
Cd30 O29 2.228 . S
Cd30 O34 2.273 . S
Cd30 O38 2.277 . S
O31 C28 1.160 . S
O31 Cd32 2.203 . S
Cd32 O31 2.203 . S
Cd32 O34 2.411 . S
Cd32 O35 2.333 . S
Cd32 O36 2.352 . S
Cd32 O40 2.277 . S
Cd32 O41 2.356 . S
C33 O38 1.209 . S
C33 O40 1.226 . S
O34 Cd30 2.273 . S
O34 Cd32 2.411 . S
O34 C37 1.320 . S
O35 Cd32 2.333 . S
O35 C37 1.214 . S
O36 Cd32 2.352 . S
O36 C39 1.258 . S
C37 O34 1.320 . S
C37 O35 1.214 . S
O38 Cd30 2.277 . S
O38 C33 1.209 . S
C39 O36 1.258 . S
C39 O41 1.282 . S
O40 Cd32 2.277 . S
O40 C33 1.226 . S
O41 Cd32 2.356 . S
O41 C39 1.282 . S
C42 O43 1.306 . S
C42 O45 1.160 . S
O43 C42 1.306 . S
O43 Cd44 2.228 . S
Cd44 O43 2.228 . S
Cd44 O48 2.273 . S
Cd44 O52 2.277 . S
O45 C42 1.160 . S
O45 Cd46 2.203 . S
Cd46 O45 2.203 . S
Cd46 O48 2.411 . S
Cd46 O49 2.333 . S
Cd46 O50 2.352 . S
Cd46 O54 2.277 . S
Cd46 O55 2.356 . S
C47 O52 1.209 . S
C47 O54 1.226 . S
O48 Cd44 2.273 . S
O48 Cd46 2.411 . S
O48 C51 1.320 . S
O49 Cd46 2.333 . S
O49 C51 1.214 . S
O50 Cd46 2.352 . S
O50 C53 1.258 . S
C51 O48 1.320 . S
C51 O49 1.214 . S
O52 Cd44 2.277 . S
O52 C47 1.209 . S
C53 O50 1.258 . S
C53 O55 1.282 . S
O54 Cd46 2.277 . S
O54 C47 1.226 . S
O55 Cd46 2.356 . S
O55 C53 1.282 . S
C56 O57 1.306 . S
C56 O59 1.160 . S
O57 C56 1.306 . S
O57 Cd58 2.228 . S
Cd58 O57 2.228 . S
Cd58 O62 2.273 . S
Cd58 O66 2.277 . S
O59 C56 1.160 . S
O59 Cd60 2.203 . S
Cd60 O59 2.203 . S
Cd60 O62 2.411 . S
Cd60 O63 2.333 . S
Cd60 O64 2.352 . S
Cd60 O68 2.277 . S
Cd60 O69 2.356 . S
C61 O66 1.209 . S
C61 O68 1.226 . S
O62 Cd58 2.273 . S
O62 Cd60 2.411 . S
O62 C65 1.320 . S
O63 Cd60 2.333 . S
O63 C65 1.214 . S
O64 Cd60 2.352 . S
O64 C67 1.258 . S
C65 O62 1.320 . S
C65 O63 1.214 . S
O66 Cd58 2.277 . S
O66 C61 1.209 . S
C67 O64 1.258 . S
C67 O69 1.282 . S
O68 Cd60 2.277 . S
O68 C61 1.226 . S
O69 Cd60 2.356 . S
O69 C67 1.282 . S
C70 O71 1.306 . S
C70 O73 1.160 . S
O71 C70 1.306 . S
O71 Cd72 2.228 . S
Cd72 O71 2.228 . S
Cd72 O76 2.273 . S
Cd72 O80 2.277 . S
O73 C70 1.160 . S
O73 Cd74 2.203 . S
Cd74 O73 2.203 . S
Cd74 O76 2.411 . S
Cd74 O77 2.333 . S
Cd74 O78 2.352 . S
Cd74 O82 2.277 . S
Cd74 O83 2.356 . S
C75 O80 1.209 . S
C75 O82 1.226 . S
O76 Cd72 2.273 . S
O76 Cd74 2.411 . S
O76 C79 1.320 . S
O77 Cd74 2.333 . S
O77 C79 1.214 . S
O78 Cd74 2.352 . S
O78 C81 1.258 . S
C79 O76 1.320 . S
C79 O77 1.214 . S
O80 Cd72 2.277 . S
O80 C75 1.209 . S
C81 O78 1.258 . S
C81 O83 1.282 . S
O82 Cd74 2.277 . S
O82 C75 1.226 . S
O83 Cd74 2.356 . S
O83 C81 1.282 . S
C84 O85 1.306 . S
C84 O87 1.160 . S
O85 C84 1.306 . S
O85 Cd86 2.228 . S
Cd86 O85 2.228 . S
Cd86 O90 2.273 . S
Cd86 O94 2.277 . S
O87 C84 1.160 . S
O87 Cd88 2.203 . S
Cd88 O87 2.203 . S
Cd88 O90 2.411 . S
Cd88 O91 2.333 . S
Cd88 O92 2.352 . S
Cd88 O96 2.277 . S
Cd88 O97 2.356 . S
C89 O94 1.209 . S
C89 O96 1.226 . S
O90 Cd86 2.273 . S
O90 Cd88 2.411 . S
O90 C93 1.320 . S
O91 Cd88 2.333 . S
O91 C93 1.214 . S
O92 Cd88 2.352 . S
O92 C95 1.258 . S
C93 O90 1.320 . S
C93 O91 1.214 . S
O94 Cd86 2.277 . S
O94 C89 1.209 . S
C95 O92 1.258 . S
C95 O97 1.282 . S
O96 Cd88 2.277 . S
O96 C89 1.226 . S
O97 Cd88 2.356 . S
O97 C95 1.282 . S
C98 O99 1.306 . S
C98 O101 1.160 . S
O99 C98 1.306 . S
O99 Cd100 2.228 . S
Cd100 O99 2.228 . S
Cd100 O104 2.273 . S
Cd100 O108 2.277 . S
O101 C98 1.160 . S
O101 Cd102 2.203 . S
Cd102 O101 2.203 . S
Cd102 O104 2.411 . S
Cd102 O105 2.333 . S
Cd102 O106 2.352 . S
Cd102 O110 2.277 . S
Cd102 O111 2.356 . S
C103 O108 1.209 . S
C103 O110 1.226 . S
O104 Cd100 2.273 . S
O104 Cd102 2.411 . S
O104 C107 1.320 . S
O105 Cd102 2.333 . S
O105 C107 1.214 . S
O106 Cd102 2.352 . S
O106 C109 1.258 . S
C107 O104 1.320 . S
C107 O105 1.214 . S
O108 Cd100 2.277 . S
O108 C103 1.209 . S
C109 O106 1.258 . S
C109 O111 1.282 . S
O110 Cd102 2.277 . S
O110 C103 1.226 . S
O111 Cd102 2.356 . S
O111 C109 1.282 . S
C112 O113 1.306 . S
C112 O115 1.160 . S
O113 C112 1.306 . S
O113 Cd114 2.228 . S
Cd114 O113 2.228 . S
Cd114 O118 2.273 . S
Cd114 O122 2.277 . S
O115 C112 1.160 . S
O115 Cd116 2.203 . S
Cd116 O115 2.203 . S
Cd116 O118 2.411 . S
Cd116 O119 2.333 . S
Cd116 O120 2.352 . S
Cd116 O124 2.277 . S
Cd116 O125 2.356 . S
C117 O122 1.209 . S
C117 O124 1.226 . S
O118 Cd114 2.273 . S
O118 Cd116 2.411 . S
O118 C121 1.320 . S
O119 Cd116 2.333 . S
O119 C121 1.214 . S
O120 Cd116 2.352 . S
O120 C123 1.258 . S
C121 O118 1.320 . S
C121 O119 1.214 . S
O122 Cd114 2.277 . S
O122 C117 1.209 . S
C123 O120 1.258 . S
C123 O125 1.282 . S
O124 Cd116 2.277 . S
O124 C117 1.226 . S
O125 Cd116 2.356 . S
O125 C123 1.282 . S
C126 O127 1.306 . S
C126 O129 1.160 . S
O127 C126 1.306 . S
O127 Cd128 2.228 . S
Cd128 O127 2.228 . S
Cd128 O132 2.273 . S
Cd128 O136 2.277 . S
O129 C126 1.160 . S
O129 Cd130 2.203 . S
Cd130 O129 2.203 . S
Cd130 O132 2.411 . S
Cd130 O133 2.333 . S
Cd130 O134 2.352 . S
Cd130 O138 2.277 . S
Cd130 O139 2.356 . S
C131 O136 1.209 . S
C131 O138 1.226 . S
O132 Cd128 2.273 . S
O132 Cd130 2.411 . S
O132 C135 1.320 . S
O133 Cd130 2.333 . S
O133 C135 1.214 . S
O134 Cd130 2.352 . S
O134 C137 1.258 . S
C135 O132 1.320 . S
C135 O133 1.214 . S
O136 Cd128 2.277 . S
O136 C131 1.209 . S
C137 O134 1.258 . S
C137 O139 1.282 . S
O138 Cd130 2.277 . S
O138 C131 1.226 . S
O139 Cd130 2.356 . S
O139 C137 1.282 . S
C140 O141 1.306 . S
C140 O143 1.160 . S
O141 C140 1.306 . S
O141 Cd142 2.228 . S
Cd142 O141 2.228 . S
Cd142 O146 2.273 . S
Cd142 O150 2.277 . S
O143 C140 1.160 . S
O143 Cd144 2.203 . S
Cd144 O143 2.203 . S
Cd144 O146 2.411 . S
Cd144 O147 2.333 . S
Cd144 O148 2.352 . S
Cd144 O152 2.277 . S
Cd144 O153 2.356 . S
C145 O150 1.209 . S
C145 O152 1.226 . S
O146 Cd142 2.273 . S
O146 Cd144 2.411 . S
O146 C149 1.320 . S
O147 Cd144 2.333 . S
O147 C149 1.214 . S
O148 Cd144 2.352 . S
O148 C151 1.258 . S
C149 O146 1.320 . S
C149 O147 1.214 . S
O150 Cd142 2.277 . S
O150 C145 1.209 . S
C151 O148 1.258 . S
C151 O153 1.282 . S
O152 Cd144 2.277 . S
O152 C145 1.226 . S
O153 Cd144 2.356 . S
O153 C151 1.282 . S
C154 O155 1.306 . S
C154 O157 1.160 . S
O155 C154 1.306 . S
O155 Cd156 2.228 . S
Cd156 O155 2.228 . S
Cd156 O160 2.273 . S
Cd156 O164 2.277 . S
O157 C154 1.160 . S
O157 Cd158 2.203 . S
Cd158 O157 2.203 . S
Cd158 O160 2.411 . S
Cd158 O161 2.333 . S
Cd158 O162 2.352 . S
Cd158 O166 2.277 . S
Cd158 O167 2.356 . S
C159 O164 1.209 . S
C159 O166 1.226 . S
O160 Cd156 2.273 . S
O160 Cd158 2.411 . S
O160 C163 1.320 . S
O161 Cd158 2.333 . S
O161 C163 1.214 . S
O162 Cd158 2.352 . S
O162 C165 1.258 . S
C163 O160 1.320 . S
C163 O161 1.214 . S
O164 Cd156 2.277 . S
O164 C159 1.209 . S
C165 O162 1.258 . S
C165 O167 1.282 . S
O166 Cd158 2.277 . S
O166 C159 1.226 . S
O167 Cd158 2.356 . S
O167 C165 1.282 . S
H168 C174 0.930 . S
H169 C178 0.930 . S
H170 C183 0.929 . S
H171 C181 0.929 . S
H172 C176 0.929 . S
H173 C182 0.929 1_554 S
C174 H168 0.930 . S
C174 C175 1.367 . S
C174 C182 1.378 . S
C175 C174 1.367 . S
C175 C183 1.433 . S
C176 H172 0.929 . S
C176 C178 1.378 . S
C176 C180 1.350 . S
C177 C180 1.463 1_556 S
C177 C182 1.350 . S
C177 N185 1.427 . S
C178 H169 0.930 . S
C178 C176 1.378 . S
C178 C179 1.367 . S
C179 C178 1.367 . S
C179 C181 1.433 . S
C180 C176 1.350 . S
C180 C177 1.463 1_554 S
C180 N184 1.427 . S
C181 H171 0.929 . S
C181 C179 1.433 . S
C181 N184 1.384 . S
C182 H173 0.929 1_556 S
C182 C174 1.378 . S
C182 C177 1.350 . S
C183 H170 0.929 . S
C183 C175 1.433 . S
C183 N185 1.384 . S
N184 C180 1.427 . S
N184 C181 1.384 . S
N185 C177 1.427 . S
N185 C183 1.384 . S
H186 C192 0.930 . S
H187 C196 0.930 . S
H188 C201 0.929 . S
H189 C199 0.929 . S
H190 C194 0.929 . S
H191 C200 0.929 . S
C192 H186 0.930 . S
C192 C193 1.367 . S
C192 C200 1.378 . S
C193 C192 1.367 . S
C193 C201 1.433 . S
C194 H190 0.929 . S
C194 C196 1.378 . S
C194 C198 1.350 . S
C195 C198 1.463 . S
C195 C200 1.350 . S
C195 N203 1.427 . S
C196 H187 0.930 . S
C196 C194 1.378 . S
C196 C197 1.367 . S
C197 C196 1.367 . S
C197 C199 1.433 . S
C198 C194 1.350 . S
C198 C195 1.463 . S
C198 N202 1.427 . S
C199 H189 0.929 . S
C199 C197 1.433 . S
C199 N202 1.384 . S
C200 H191 0.929 . S
C200 C192 1.378 . S
C200 C195 1.350 . S
C201 H188 0.929 . S
C201 C193 1.433 . S
C201 N203 1.384 . S
N202 C198 1.427 . S
N202 C199 1.384 . S
N203 C195 1.427 . S
N203 C201 1.384 . S
H204 C210 0.930 . S
H205 C214 0.930 . S
H206 C219 0.929 . S
H207 C217 0.929 . S
H208 C212 0.929 . S
H209 C218 0.929 . S
C210 H204 0.930 . S
C210 C211 1.367 . S
C210 C218 1.378 . S
C211 C210 1.367 . S
C211 C219 1.433 . S
C212 H208 0.929 . S
C212 C214 1.378 . S
C212 C216 1.350 . S
C213 C216 1.463 . S
C213 C218 1.350 . S
C213 N221 1.427 . S
C214 H205 0.930 . S
C214 C212 1.378 . S
C214 C215 1.367 . S
C215 C214 1.367 . S
C215 C217 1.433 . S
C216 C212 1.350 . S
C216 C213 1.463 . S
C216 N220 1.427 . S
C217 H207 0.929 . S
C217 C215 1.433 . S
C217 N220 1.384 . S
C218 H209 0.929 . S
C218 C210 1.378 . S
C218 C213 1.350 . S
C219 H206 0.929 . S
C219 C211 1.433 . S
C219 N221 1.384 . S
N220 C216 1.427 . S
N220 C217 1.384 . S
N221 C213 1.427 . S
N221 C219 1.384 . S
H222 C228 0.930 . S
H223 C232 0.930 . S
H224 C237 0.929 . S
H225 C235 0.929 . S
H226 C230 0.929 . S
H227 C236 0.914 1_556 S
C228 H222 0.930 . S
C228 C229 1.367 . S
C228 C236 1.394 . S
C229 C228 1.367 . S
C229 C237 1.433 . S
C230 H226 0.929 . S
C230 C232 1.378 . S
C230 C234 1.350 . S
C231 C234 1.447 1_554 S
C231 C236 1.350 . S
C231 N239 1.441 . S
C232 H223 0.930 . S
C232 C230 1.378 . S
C232 C233 1.367 . S
C233 C232 1.367 . S
C233 C235 1.433 . S
C234 C230 1.350 . S
C234 C231 1.447 1_556 S
C234 N238 1.427 . S
C235 H225 0.929 . S
C235 C233 1.433 . S
C235 N238 1.384 . S
C236 H227 0.914 1_554 S
C236 C228 1.394 . S
C236 C231 1.350 . S
C237 H224 0.929 . S
C237 C229 1.433 . S
C237 N239 1.384 . S
N238 C234 1.427 . S
N238 C235 1.384 . S
N239 C231 1.441 . S
N239 C237 1.384 . S
H240 C246 0.930 . S
H241 C250 0.930 . S
H242 C255 0.929 . S
H243 C253 0.929 . S
H244 C248 0.929 . S
H245 C254 0.929 . S
C246 H240 0.930 . S
C246 C247 1.367 . S
C246 C254 1.378 . S
C247 C246 1.367 . S
C247 C255 1.433 . S
C248 H244 0.929 . S
C248 C250 1.378 . S
C248 C252 1.350 . S
C249 C252 1.463 . S
C249 C254 1.350 . S
C249 N257 1.427 . S
C250 H241 0.930 . S
C250 C248 1.378 . S
C250 C251 1.367 . S
C251 C250 1.367 . S
C251 C253 1.433 . S
C252 C248 1.350 . S
C252 C249 1.463 . S
C252 N256 1.427 . S
C253 H243 0.929 . S
C253 C251 1.433 . S
C253 N256 1.384 . S
C254 H245 0.929 . S
C254 C246 1.378 . S
C254 C249 1.350 . S
C255 H242 0.929 . S
C255 C247 1.433 . S
C255 N257 1.384 . S
N256 C252 1.427 . S
N256 C253 1.384 . S
N257 C249 1.427 . S
N257 C255 1.384 . S
H258 C264 0.930 . S
H259 C268 0.930 . S
H260 C273 0.929 . S
H261 C271 0.929 . S
H262 C266 0.929 . S
H263 C272 0.929 . S
C264 H258 0.930 . S
C264 C265 1.367 . S
C264 C272 1.378 . S
C265 C264 1.367 . S
C265 C273 1.433 . S
C266 H262 0.929 . S
C266 C268 1.378 . S
C266 C270 1.350 . S
C267 C270 1.463 . S
C267 C272 1.350 . S
C267 N275 1.427 . S
C268 H259 0.930 . S
C268 C266 1.378 . S
C268 C269 1.367 . S
C269 C268 1.367 . S
C269 C271 1.433 . S
C270 C266 1.350 . S
C270 C267 1.463 . S
C270 N274 1.427 . S
C271 H261 0.929 . S
C271 C269 1.433 . S
C271 N274 1.384 . S
C272 H263 0.929 . S
C272 C264 1.378 . S
C272 C267 1.350 . S
C273 H260 0.929 . S
C273 C265 1.433 . S
C273 N275 1.384 . S
N274 C270 1.427 . S
N274 C271 1.384 . S
N275 C267 1.427 . S
N275 C273 1.384 . S
H276 C282 0.930 . S
H277 C286 0.930 . S
H278 C291 0.929 . S
H279 C289 0.929 . S
H280 C284 0.929 . S
H281 C290 0.929 . S
C282 H276 0.930 . S
C282 C283 1.367 . S
C282 C290 1.378 . S
C283 C282 1.367 . S
C283 C291 1.433 . S
C284 H280 0.929 . S
C284 C286 1.378 . S
C284 C288 1.350 . S
C285 C288 1.463 . S
C285 C290 1.350 . S
C285 N293 1.427 . S
C286 H277 0.930 . S
C286 C284 1.378 . S
C286 C287 1.367 . S
C287 C286 1.367 . S
C287 C289 1.433 . S
C288 C284 1.350 . S
C288 C285 1.463 . S
C288 N292 1.427 . S
C289 H279 0.929 . S
C289 C287 1.433 . S
C289 N292 1.384 . S
C290 H281 0.929 . S
C290 C282 1.378 . S
C290 C285 1.350 . S
C291 H278 0.929 . S
C291 C283 1.433 . S
C291 N293 1.384 . S
N292 C288 1.427 . S
N292 C289 1.384 . S
N293 C285 1.427 . S
N293 C291 1.384 . S
H294 C300 0.930 . S
H295 C304 0.930 . S
H296 C309 0.929 . S
H297 C307 0.929 . S
H298 C302 0.929 . S
H299 C308 0.929 . S
C300 H294 0.930 . S
C300 C301 1.367 . S
C300 C308 1.378 . S
C301 C300 1.367 . S
C301 C309 1.433 . S
C302 H298 0.929 . S
C302 C304 1.378 . S
C302 C306 1.350 . S
C303 C306 1.463 . S
C303 C308 1.350 . S
C303 N311 1.427 . S
C304 H295 0.930 . S
C304 C302 1.378 . S
C304 C305 1.367 . S
C305 C304 1.367 . S
C305 C307 1.433 . S
C306 C302 1.350 . S
C306 C303 1.463 . S
C306 N310 1.427 . S
C307 H297 0.929 . S
C307 C305 1.433 . S
C307 N310 1.384 . S
C308 H299 0.929 . S
C308 C300 1.378 . S
C308 C303 1.350 . S
C309 H296 0.929 . S
C309 C301 1.433 . S
C309 N311 1.384 . S
N310 C306 1.427 . S
N310 C307 1.384 . S
N311 C303 1.427 . S
N311 C309 1.384 . S
H312 C318 0.930 . S
H313 C322 0.930 . S
H314 C327 0.929 . S
H315 C325 0.929 . S
H316 C320 0.929 . S
H317 C326 0.929 . S
C318 H312 0.930 . S
C318 C319 1.367 . S
C318 C326 1.378 . S
C319 C318 1.367 . S
C319 C327 1.433 . S
C320 H316 0.929 . S
C320 C322 1.378 . S
C320 C324 1.350 . S
C321 C324 1.463 . S
C321 C326 1.350 . S
C321 N329 1.427 . S
C322 H313 0.930 . S
C322 C320 1.378 . S
C322 C323 1.367 . S
C323 C322 1.367 . S
C323 C325 1.433 . S
C324 C320 1.350 . S
C324 C321 1.463 . S
C324 N328 1.427 . S
C325 H315 0.929 . S
C325 C323 1.433 . S
C325 N328 1.384 . S
C326 H317 0.929 . S
C326 C318 1.378 . S
C326 C321 1.350 . S
C327 H314 0.929 . S
C327 C319 1.433 . S
C327 N329 1.384 . S
N328 C324 1.427 . S
N328 C325 1.384 . S
N329 C321 1.427 . S
N329 C327 1.384 . S
H330 C336 0.930 . S
H331 C340 0.930 . S
H332 C345 0.929 . S
H333 C343 0.929 . S
H334 C338 0.929 . S
H335 C344 0.929 . S
C336 H330 0.930 . S
C336 C337 1.367 . S
C336 C344 1.378 . S
C337 C336 1.367 . S
C337 C345 1.433 . S
C338 H334 0.929 . S
C338 C340 1.378 . S
C338 C342 1.350 . S
C339 C342 1.463 . S
C339 C344 1.350 . S
C339 N347 1.427 . S
C340 H331 0.930 . S
C340 C338 1.378 . S
C340 C341 1.367 . S
C341 C340 1.367 . S
C341 C343 1.433 . S
C342 C338 1.350 . S
C342 C339 1.463 . S
C342 N346 1.427 . S
C343 H333 0.929 . S
C343 C341 1.433 . S
C343 N346 1.384 . S
C344 H335 0.929 . S
C344 C336 1.378 . S
C344 C339 1.350 . S
C345 H332 0.929 . S
C345 C337 1.433 . S
C345 N347 1.384 . S
N346 C342 1.427 . S
N346 C343 1.384 . S
N347 C339 1.427 . S
N347 C345 1.384 . S
H348 C354 0.930 . S
H349 C358 0.930 . S
H350 C363 0.929 . S
H351 C361 0.929 . S
H352 C356 0.929 . S
H353 C362 0.929 . S
C354 H348 0.930 . S
C354 C355 1.367 . S
C354 C362 1.378 . S
C355 C354 1.367 . S
C355 C363 1.433 . S
C356 H352 0.929 . S
C356 C358 1.378 . S
C356 C360 1.350 . S
C357 C360 1.463 . S
C357 C362 1.350 . S
C357 N365 1.427 . S
C358 H349 0.930 . S
C358 C356 1.378 . S
C358 C359 1.367 . S
C359 C358 1.367 . S
C359 C361 1.433 . S
C360 C356 1.350 . S
C360 C357 1.463 . S
C360 N364 1.427 . S
C361 H351 0.929 . S
C361 C359 1.433 . S
C361 N364 1.384 . S
C362 H353 0.929 . S
C362 C354 1.378 . S
C362 C357 1.350 . S
C363 H350 0.929 . S
C363 C355 1.433 . S
C363 N365 1.384 . S
N364 C360 1.427 . S
N364 C361 1.384 . S
N365 C357 1.427 . S
N365 C363 1.384 . S
H366 C372 0.930 . S
H367 C376 0.930 . S
H368 C381 0.929 . S
H369 C379 0.929 . S
H370 C374 0.929 . S
H371 C380 0.929 . S
C372 H366 0.930 . S
C372 C373 1.367 . S
C372 C380 1.378 . S
C373 C372 1.367 . S
C373 C381 1.433 . S
C374 H370 0.929 . S
C374 C376 1.378 . S
C374 C378 1.350 . S
C375 C378 1.463 . S
C375 C380 1.350 . S
C375 N383 1.427 . S
C376 H367 0.930 . S
C376 C374 1.378 . S
C376 C377 1.367 . S
C377 C376 1.367 . S
C377 C379 1.433 . S
C378 C374 1.350 . S
C378 C375 1.463 . S
C378 N382 1.427 . S
C379 H369 0.929 . S
C379 C377 1.433 . S
C379 N382 1.384 . S
C380 H371 0.929 . S
C380 C372 1.378 . S
C380 C375 1.350 . S
C381 H368 0.929 . S
C381 C373 1.433 . S
C381 N383 1.384 . S
N382 C378 1.427 . S
N382 C379 1.384 . S
N383 C375 1.427 . S
N383 C381 1.384 . S
H384 C390 0.930 . S
H385 C394 0.930 . S
H386 C399 0.929 . S
H387 C397 0.929 . S
H388 C392 0.929 1_655 S
H389 C398 0.929 . S
C390 H384 0.930 . S
C390 C391 1.367 . S
C390 C398 1.378 . S
C391 C390 1.367 . S
C391 C399 1.433 . S
C392 H388 0.929 1_455 S
C392 C394 1.378 . S
C392 C396 1.350 1_455 S
C393 C396 1.463 . S
C393 C398 1.350 . S
C393 N401 1.427 . S
C394 H385 0.930 . S
C394 C392 1.378 . S
C394 C395 1.367 . S
C395 C394 1.367 . S
C395 C397 1.433 . S
C396 C392 1.350 1_655 S
C396 C393 1.463 . S
C396 N400 1.427 . S
C397 H387 0.929 . S
C397 C395 1.433 . S
C397 N400 1.384 1_455 S
C398 H389 0.929 . S
C398 C390 1.378 . S
C398 C393 1.350 . S
C399 H386 0.929 . S
C399 C391 1.433 . S
C399 N401 1.384 . S
N400 C396 1.427 . S
N400 C397 1.384 1_655 S
N401 C393 1.427 . S
N401 C399 1.384 . S
H402 C408 0.930 . S
H403 C412 0.930 . S
H404 C417 0.929 . S
H405 C415 0.929 . S
H406 C410 0.929 . S
H407 C416 0.929 . S
C408 H402 0.930 . S
C408 C409 1.367 . S
C408 C416 1.378 . S
C409 C408 1.367 . S
C409 C417 1.433 . S
C410 H406 0.929 . S
C410 C412 1.378 . S
C410 C414 1.350 . S
C411 C414 1.463 1_545 S
C411 C416 1.350 . S
C411 N419 1.427 . S
C412 H403 0.930 . S
C412 C410 1.378 . S
C412 C413 1.367 . S
C413 C412 1.367 . S
C413 C415 1.433 . S
C414 C410 1.350 . S
C414 C411 1.463 1_565 S
C414 N418 1.427 . S
C415 H405 0.929 . S
C415 C413 1.433 . S
C415 N418 1.384 . S
C416 H407 0.929 . S
C416 C408 1.378 . S
C416 C411 1.350 . S
C417 H404 0.929 . S
C417 C409 1.433 . S
C417 N419 1.384 . S
N418 C414 1.427 . S
N418 C415 1.384 . S
N419 C411 1.427 . S
N419 C417 1.384 . S
H420 C426 0.930 . S
H421 C430 0.930 . S
H422 C435 0.929 . S
H423 C433 0.929 . S
H424 C428 0.929 . S
H425 C434 0.929 . S
C426 H420 0.930 . S
C426 C427 1.367 . S
C426 C434 1.378 . S
C427 C426 1.367 . S
C427 C435 1.433 . S
C428 H424 0.929 . S
C428 C430 1.378 . S
C428 C432 1.350 . S
C429 C432 1.463 . S
C429 C434 1.350 . S
C429 N437 1.427 . S
C430 H421 0.930 . S
C430 C428 1.378 . S
C430 C431 1.367 . S
C431 C430 1.367 . S
C431 C433 1.433 . S
C432 C428 1.350 . S
C432 C429 1.463 . S
C432 N436 1.427 . S
C433 H423 0.929 . S
C433 C431 1.433 . S
C433 N436 1.384 . S
C434 H425 0.929 . S
C434 C426 1.378 . S
C434 C429 1.350 . S
C435 H422 0.929 . S
C435 C427 1.433 . S
C435 N437 1.384 . S
N436 C432 1.427 . S
N436 C433 1.384 . S
N437 C429 1.427 . S
N437 C435 1.384 . S
H438 C444 0.930 . S
H439 C448 0.930 . S
H440 C453 0.929 . S
H441 C451 0.929 . S
H442 C446 0.929 . S
H443 C452 0.929 . S
C444 H438 0.930 . S
C444 C445 1.367 . S
C444 C452 1.378 . S
C445 C444 1.367 . S
C445 C453 1.433 . S
C446 H442 0.929 . S
C446 C448 1.378 1_545 S
C446 C450 1.350 . S
C447 C450 1.463 . S
C447 C452 1.350 . S
C447 N455 1.427 . S
C448 H439 0.930 . S
C448 C446 1.378 1_565 S
C448 C449 1.367 . S
C449 C448 1.367 . S
C449 C451 1.433 . S
C450 C446 1.350 . S
C450 C447 1.463 . S
C450 N454 1.427 . S
C451 H441 0.929 . S
C451 C449 1.433 . S
C451 N454 1.384 1_565 S
C452 H443 0.929 . S
C452 C444 1.378 . S
C452 C447 1.350 . S
C453 H440 0.929 . S
C453 C445 1.433 . S
C453 N455 1.384 . S
N454 C450 1.427 . S
N454 C451 1.384 1_545 S
N455 C447 1.427 . S
N455 C453 1.384 . S
H456 C462 0.930 . S
H457 C466 0.930 . S
H458 C471 0.929 . S
H459 C469 0.929 . S
H460 C464 0.929 . S
H461 C470 0.929 . S
C462 H456 0.930 . S
C462 C463 1.367 . S
C462 C470 1.378 . S
C463 C462 1.367 . S
C463 C471 1.433 . S
C464 H460 0.929 . S
C464 C466 1.378 . S
C464 C468 1.350 . S
C465 C468 1.463 . S
C465 C470 1.350 . S
C465 N473 1.427 . S
C466 H457 0.930 . S
C466 C464 1.378 . S
C466 C467 1.367 . S
C467 C466 1.367 . S
C467 C469 1.433 . S
C468 C464 1.350 . S
C468 C465 1.463 . S
C468 N472 1.427 . S
C469 H459 0.929 . S
C469 C467 1.433 . S
C469 N472 1.384 . S
C470 H461 0.929 . S
C470 C462 1.378 . S
C470 C465 1.350 . S
C471 H458 0.929 . S
C471 C463 1.433 . S
C471 N473 1.384 . S
N472 C468 1.427 . S
N472 C469 1.384 . S
N473 C465 1.427 . S
N473 C471 1.384 . S
H474 C480 0.930 . S
H475 C484 0.930 . S
H476 C489 0.929 . S
H477 C487 0.929 . S
H478 C482 0.929 . S
H479 C488 0.929 . S
C480 H474 0.930 . S
C480 C481 1.367 . S
C480 C488 1.378 . S
C481 C480 1.367 . S
C481 C489 1.433 . S
C482 H478 0.929 . S
C482 C484 1.378 . S
C482 C486 1.350 . S
C483 C486 1.463 1_455 S
C483 C488 1.350 . S
C483 N491 1.427 . S
C484 H475 0.930 . S
C484 C482 1.378 . S
C484 C485 1.367 . S
C485 C484 1.367 . S
C485 C487 1.433 . S
C486 C482 1.350 . S
C486 C483 1.463 1_655 S
C486 N490 1.427 . S
C487 H477 0.929 . S
C487 C485 1.433 . S
C487 N490 1.384 . S
C488 H479 0.929 . S
C488 C480 1.378 . S
C488 C483 1.350 . S
C489 H476 0.929 . S
C489 C481 1.433 . S
C489 N491 1.384 . S
N490 C486 1.427 . S
N490 C487 1.384 . S
N491 C483 1.427 . S
N491 C489 1.384 . S
H492 C498 0.930 . S
H493 C502 0.930 . S
H494 C507 0.929 . S
H495 C505 0.929 . S
H496 C500 0.929 . S
H497 C506 0.929 . S
C498 H492 0.930 . S
C498 C499 1.367 . S
C498 C506 1.378 . S
C499 C498 1.367 . S
C499 C507 1.433 . S
C500 H496 0.929 . S
C500 C502 1.378 . S
C500 C504 1.350 . S
C501 C504 1.463 . S
C501 C506 1.350 . S
C501 N509 1.427 . S
C502 H493 0.930 . S
C502 C500 1.378 . S
C502 C503 1.367 . S
C503 C502 1.367 . S
C503 C505 1.433 . S
C504 C500 1.350 . S
C504 C501 1.463 . S
C504 N508 1.427 . S
C505 H495 0.929 . S
C505 C503 1.433 . S
C505 N508 1.384 . S
C506 H497 0.929 . S
C506 C498 1.378 . S
C506 C501 1.350 . S
C507 H494 0.929 . S
C507 C499 1.433 . S
C507 N509 1.384 . S
N508 C504 1.427 . S
N508 C505 1.384 . S
N509 C501 1.427 . S
N509 C507 1.384 . S
H510 C516 0.930 . S
H511 C520 0.930 . S
H512 C525 0.929 . S
H513 C523 0.929 . S
H514 C518 0.929 . S
H515 C524 0.929 1_455 S
C516 H510 0.930 . S
C516 C517 1.367 . S
C516 C524 1.378 . S
C517 C516 1.367 . S
C517 C525 1.433 . S
C518 H514 0.929 . S
C518 C520 1.378 . S
C518 C522 1.350 . S
C519 C522 1.463 . S
C519 C524 1.350 1_455 S
C519 N527 1.427 1_455 S
C520 H511 0.930 . S
C520 C518 1.378 . S
C520 C521 1.367 . S
C521 C520 1.367 . S
C521 C523 1.433 . S
C522 C518 1.350 . S
C522 C519 1.463 . S
C522 N526 1.427 . S
C523 H513 0.929 . S
C523 C521 1.433 . S
C523 N526 1.384 . S
C524 H515 0.929 1_655 S
C524 C516 1.378 . S
C524 C519 1.350 1_655 S
C525 H512 0.929 . S
C525 C517 1.433 . S
C525 N527 1.384 . S
N526 C522 1.427 . S
N526 C523 1.384 . S
N527 C519 1.427 1_655 S
N527 C525 1.384 . S
H528 C534 0.930 . S
H529 C538 0.930 . S
H530 C543 0.929 . S
H531 C541 0.929 . S
H532 C536 0.929 . S
H533 C542 0.929 . S
C534 H528 0.930 . S
C534 C535 1.367 . S
C534 C542 1.378 . S
C535 C534 1.367 . S
C535 C543 1.433 . S
C536 H532 0.929 . S
C536 C538 1.378 . S
C536 C540 1.350 . S
C537 C540 1.463 1_545 S
C537 C542 1.350 . S
C537 N545 1.427 . S
C538 H529 0.930 . S
C538 C536 1.378 . S
C538 C539 1.367 . S
C539 C538 1.367 . S
C539 C541 1.433 . S
C540 C536 1.350 . S
C540 C537 1.463 1_565 S
C540 N544 1.427 . S
C541 H531 0.929 . S
C541 C539 1.433 . S
C541 N544 1.384 . S
C542 H533 0.929 . S
C542 C534 1.378 . S
C542 C537 1.350 . S
C543 H530 0.929 . S
C543 C535 1.433 . S
C543 N545 1.384 . S
N544 C540 1.427 . S
N544 C541 1.384 . S
N545 C537 1.427 . S
N545 C543 1.384 . S
H546 C552 0.930 . S
H547 C556 0.930 . S
H548 C561 0.929 . S
H549 C559 0.929 . S
H550 C554 0.929 . S
H551 C560 0.929 . S
C552 H546 0.930 . S
C552 C553 1.367 . S
C552 C560 1.378 . S
C553 C552 1.367 . S
C553 C561 1.433 . S
C554 H550 0.929 . S
C554 C556 1.378 . S
C554 C558 1.350 . S
C555 C558 1.463 . S
C555 C560 1.350 . S
C555 N563 1.427 . S
C556 H547 0.930 . S
C556 C554 1.378 . S
C556 C557 1.367 . S
C557 C556 1.367 . S
C557 C559 1.433 . S
C558 C554 1.350 . S
C558 C555 1.463 . S
C558 N562 1.427 . S
C559 H549 0.929 . S
C559 C557 1.433 . S
C559 N562 1.384 . S
C560 H551 0.929 . S
C560 C552 1.378 . S
C560 C555 1.350 . S
C561 H548 0.929 . S
C561 C553 1.433 . S
C561 N563 1.384 . S
N562 C558 1.427 . S
N562 C559 1.384 . S
N563 C555 1.427 . S
N563 C561 1.384 . S
H564 C570 0.930 . S
H565 C574 0.930 . S
H566 C579 0.929 . S
H567 C577 0.929 . S
H568 C572 0.929 . S
H569 C578 0.929 . S
C570 H564 0.930 . S
C570 C571 1.367 . S
C570 C578 1.378 . S
C571 C570 1.367 . S
C571 C579 1.433 . S
C572 H568 0.929 . S
C572 C574 1.378 . S
C572 C576 1.350 . S
C573 C576 1.463 1_455 S
C573 C578 1.350 . S
C573 N581 1.427 . S
C574 H565 0.930 . S
C574 C572 1.378 . S
C574 C575 1.367 . S
C575 C574 1.367 . S
C575 C577 1.433 . S
C576 C572 1.350 . S
C576 C573 1.463 1_655 S
C576 N580 1.427 . S
C577 H567 0.929 . S
C577 C575 1.433 . S
C577 N580 1.384 . S
C578 H569 0.929 . S
C578 C570 1.378 . S
C578 C573 1.350 . S
C579 H566 0.929 . S
C579 C571 1.433 . S
C579 N581 1.384 . S
N580 C576 1.427 . S
N580 C577 1.384 . S
N581 C573 1.427 . S
N581 C579 1.384 . S
H582 C588 0.930 . S
H583 C592 0.930 . S
H584 C597 0.929 . S
H585 C595 0.929 . S
H586 C590 0.929 . S
H587 C596 0.929 . S
C588 H582 0.930 . S
C588 C589 1.367 . S
C588 C596 1.378 . S
C589 C588 1.367 . S
C589 C597 1.433 . S
C590 H586 0.929 . S
C590 C592 1.378 . S
C590 C594 1.350 1_545 S
C591 C594 1.463 . S
C591 C596 1.350 . S
C591 N599 1.427 . S
C592 H583 0.930 . S
C592 C590 1.378 . S
C592 C593 1.367 . S
C593 C592 1.367 . S
C593 C595 1.433 . S
C594 C590 1.350 1_565 S
C594 C591 1.463 . S
C594 N598 1.427 1_565 S
C595 H585 0.929 . S
C595 C593 1.433 . S
C595 N598 1.384 . S
C596 H587 0.929 . S
C596 C588 1.378 . S
C596 C591 1.350 . S
C597 H584 0.929 . S
C597 C589 1.433 . S
C597 N599 1.384 . S
N598 C594 1.427 1_545 S
N598 C595 1.384 . S
N599 C591 1.427 . S
N599 C597 1.384 . S
C175 C149 1.434 . S
C179 C9 1.599 . S
C193 C23 1.301 . S
C197 C163 1.293 . S
C211 C37 1.438 . S
C215 C93 1.601 . S
C229 C51 1.365 . S
C233 C107 1.520 . S
C247 C121 1.125 . S
C251 C65 1.110 . S
C265 C79 1.522 . S
C269 C135 1.344 . S
C283 C112 1.219 . S
C287 C0 1.246 . S
C301 C14 1.724 . S
C305 C126 1.649 . S
C319 C28 2.022 . S
C323 C140 2.030 . S
C337 C42 1.654 . S
C341 C154 1.716 . S
C355 C84 1.248 . S
C359 C56 1.214 . S
C373 C98 1.164 . S
C377 C70 1.163 . S
C391 C47 1.488 . S
C395 C5 1.488 . S
C409 C19 1.519 . S
C413 C61 1.519 . S
C427 C75 1.464 . S
C431 C33 1.465 . S
C445 C131 1.491 . S
C449 C89 1.491 . S
C463 C145 1.465 . S
C467 C103 1.465 . S
C481 C117 1.520 . S
C485 C159 1.520 . S
C499 C53 1.306 . S
C503 C11 1.309 . S
C517 C25 1.372 . S
C521 C67 1.369 . S
C535 C81 1.341 . S
C539 C39 1.337 . S
C553 C95 1.309 . S
C557 C137 1.306 . S
C571 C151 1.340 . S
C575 C109 1.339 . S
C589 C123 1.370 . S
C593 C165 1.372 . S
