# Generated by pormake.
# Topology acs-a, (4)-cn, num edge types: 1
# Building blocks:
#     Node 0, Type 0, BuildingBlock: UXUYUI_clean_sbu_0, # of connection points: 4
#     Node 1, Type 0, BuildingBlock: UXUYUI_clean_sbu_0, # of connection points: 4
#     Node 2, Type 0, BuildingBlock: UXUYUI_clean_sbu_0, # of connection points: 4
#     Node 3, Type 0, BuildingBlock: UXUYUI_clean_sbu_0, # of connection points: 4
#     Node 4, Type 0, BuildingBlock: UXUYUI_clean_sbu_0, # of connection points: 4
#     Node 5, Type 0, BuildingBlock: UXUYUI_clean_sbu_0, # of connection points: 4
#     Node 6, Type 0, BuildingBlock: UXUYUI_clean_sbu_0, # of connection points: 4
#     Node 7, Type 0, BuildingBlock: UXUYUI_clean_sbu_0, # of connection points: 4
#     Node 8, Type 0, BuildingBlock: UXUYUI_clean_sbu_0, # of connection points: 4
#     Node 9, Type 0, BuildingBlock: UXUYUI_clean_sbu_0, # of connection points: 4
#     Node 10, Type 0, BuildingBlock: UXUYUI_clean_sbu_0, # of connection points: 4
#     Node 11, Type 0, BuildingBlock: UXUYUI_clean_sbu_0, # of connection points: 4
#     Edge 12, Type (0, 0), BuildingBlock: OJICUG_clean_linker_0, # of connection points: 2
#     Edge 13, Type (0, 0), BuildingBlock: OJICUG_clean_linker_0, # of connection points: 2
#     Edge 14, Type (0, 0), BuildingBlock: OJICUG_clean_linker_0, # of connection points: 2
#     Edge 15, Type (0, 0), BuildingBlock: OJICUG_clean_linker_0, # of connection points: 2
#     Edge 16, Type (0, 0), BuildingBlock: OJICUG_clean_linker_0, # of connection points: 2
#     Edge 17, Type (0, 0), BuildingBlock: OJICUG_clean_linker_0, # of connection points: 2
#     Edge 18, Type (0, 0), BuildingBlock: OJICUG_clean_linker_0, # of connection points: 2
#     Edge 19, Type (0, 0), BuildingBlock: OJICUG_clean_linker_0, # of connection points: 2
#     Edge 20, Type (0, 0), BuildingBlock: OJICUG_clean_linker_0, # of connection points: 2
#     Edge 21, Type (0, 0), BuildingBlock: OJICUG_clean_linker_0, # of connection points: 2
#     Edge 22, Type (0, 0), BuildingBlock: OJICUG_clean_linker_0, # of connection points: 2
#     Edge 23, Type (0, 0), BuildingBlock: OJICUG_clean_linker_0, # of connection points: 2
#     Edge 24, Type (0, 0), BuildingBlock: OJICUG_clean_linker_0, # of connection points: 2
#     Edge 25, Type (0, 0), BuildingBlock: OJICUG_clean_linker_0, # of connection points: 2
#     Edge 26, Type (0, 0), BuildingBlock: OJICUG_clean_linker_0, # of connection points: 2
#     Edge 27, Type (0, 0), BuildingBlock: OJICUG_clean_linker_0, # of connection points: 2
#     Edge 28, Type (0, 0), BuildingBlock: OJICUG_clean_linker_0, # of connection points: 2
#     Edge 29, Type (0, 0), BuildingBlock: OJICUG_clean_linker_0, # of connection points: 2
#     Edge 30, Type (0, 0), BuildingBlock: OJICUG_clean_linker_0, # of connection points: 2
#     Edge 31, Type (0, 0), BuildingBlock: OJICUG_clean_linker_0, # of connection points: 2
#     Edge 32, Type (0, 0), BuildingBlock: OJICUG_clean_linker_0, # of connection points: 2
#     Edge 33, Type (0, 0), BuildingBlock: OJICUG_clean_linker_0, # of connection points: 2
#     Edge 34, Type (0, 0), BuildingBlock: OJICUG_clean_linker_0, # of connection points: 2
#     Edge 35, Type (0, 0), BuildingBlock: OJICUG_clean_linker_0, # of connection points: 2
# Relax obj value: 0.500
# Max RMSD: 0.243
# Mean RMSD: 0.227
data_MOF--net-acs-a--node1-UXUYUI_clean_sbu_0--edge1-OJICUG_clean_linker_0
_symmetry_space_group_name_H-M    P1
_symmetry_Int_Tables_number       1
_symmetry_cell_setting            triclinic
loop_
_symmetry_equiv_pos_as_xyz
'x, y, z'
_cell_length_a     46.38244
_cell_length_b     57.346839
_cell_length_c     56.2273
_cell_angle_alpha  89.994495
_cell_angle_beta   90.007207
_cell_angle_gamma 110.84262
loop_
_atom_site_label
_atom_site_type_symbol
_atom_site_fract_x
_atom_site_fract_y
_atom_site_fract_z
_atom_type_partial_charge
Li0 Li 0.58911 0.14055 0.08311 0.0
Li1 Li 0.63981 0.13719 0.08317 0.0
Li2 Li 0.59313 0.10095 0.07528 0.0
Li3 Li 0.60356 0.11741 0.11547 0.0
C4 C 0.60423 0.14215 0.03616 0.0
N5 N 0.59023 0.16346 0.99574 0.0
C6 C 0.62737 0.16106 0.02416 0.0
C7 C 0.57405 0.13386 0.02739 0.0
C8 C 0.61981 0.17165 0.00381 0.0
C9 C 0.56741 0.14492 0.007 0.0
C10 C 0.63315 0.1792 0.10741 0.0
C11 C 0.64286 0.21835 0.12766 0.0
N12 N 0.65456 0.23077 0.1072 0.0
C13 C 0.64536 0.19236 0.08663 0.0
C14 C 0.63196 0.19228 0.12813 0.0
C15 C 0.65604 0.21841 0.08686 0.0
C16 C 0.53797 0.15495 0.08862 0.0
N17 N 0.56533 0.16108 0.07692 0.0
C18 C 0.55679 0.19535 0.05793 0.0
C19 C 0.57504 0.18095 0.06188 0.0
C20 C 0.52857 0.18954 0.06993 0.0
C21 C 0.51916 0.16904 0.08544 0.0
H22 H 0.5309 0.13925 0.10069 0.0
H23 H 0.59706 0.18583 0.05306 0.0
C24 C 0.69327 0.14819 0.05462 0.0
N25 N 0.68219 0.15278 0.07581 0.0
C26 C 0.72418 0.16074 0.04857 0.0
C27 C 0.7317 0.18157 0.08671 0.0
C28 C 0.70078 0.16873 0.09195 0.0
C29 C 0.74372 0.17793 0.06464 0.0
H30 H 0.67791 0.13519 0.04224 0.0
H31 H 0.69142 0.17197 0.1087 0.0
C32 C 0.53759 0.08858 0.09767 0.0
N33 N 0.48308 0.04793 0.09718 0.0
C34 C 0.53126 0.07069 0.11571 0.0
C35 C 0.51596 0.08603 0.07962 0.0
C36 C 0.50362 0.05022 0.11509 0.0
C37 C 0.48862 0.06527 0.0796 0.0
C38 C 0.65291 0.1007 0.10869 0.0
C39 C 0.66379 0.08132 0.10418 0.0
C40 C 0.66732 0.11853 0.12602 0.0
C41 C 0.68892 0.08008 0.11713 0.0
C42 C 0.69237 0.11664 0.13858 0.0
N43 N 0.70257 0.09762 0.13391 0.0
C44 C 0.57811 0.07443 0.03277 0.0
C45 C 0.56071 0.04933 0.06708 0.0
C46 C 0.56183 0.05462 0.01808 0.0
N47 N 0.57618 0.07175 0.05678 0.0
C48 C 0.54392 0.02896 0.05304 0.0
C49 C 0.54362 0.03179 0.02824 0.0
H50 H 0.59164 0.09213 0.02498 0.0
H51 H 0.56045 0.04751 0.08621 0.0
C52 C 0.5916 0.12692 0.162 0.0
N53 N 0.59957 0.11054 0.14851 0.0
C54 C 0.59105 0.12497 0.1867 0.0
C55 C 0.60546 0.08852 0.18315 0.0
C56 C 0.60568 0.09117 0.15844 0.0
C57 C 0.59872 0.10591 0.19761 0.0
H58 H 0.58618 0.14176 0.1535 0.0
H59 H 0.61151 0.07818 0.14723 0.0
O60 O 0.61119 0.13157 0.05616 0.0
O61 O 0.62244 0.15365 0.10755 0.0
O62 O 0.5646 0.10869 0.09791 0.0
O63 O 0.62848 0.1022 0.09597 0.0
H64 H 0.65092 0.16758 0.0305 0.0
H65 H 0.55595 0.11909 0.03629 0.0
H66 H 0.63746 0.18639 0.99444 0.0
H67 H 0.54412 0.13878 0.00012 0.0
H68 H 0.64204 0.2287 0.14357 0.0
H69 H 0.64655 0.18258 0.07049 0.0
H70 H 0.62279 0.18245 0.14444 0.0
H71 H 0.66549 0.2288 0.07086 0.0
H72 H 0.56514 0.21135 0.04621 0.0
H73 H 0.4976 0.16406 0.09509 0.0
H74 H 0.73255 0.15735 0.03142 0.0
H75 H 0.74565 0.19503 0.09945 0.0
H76 H 0.54764 0.07244 0.1299 0.0
H77 H 0.52021 0.09993 0.06578 0.0
H78 H 0.49853 0.03612 0.12883 0.0
H79 H 0.47178 0.06297 0.06564 0.0
H80 H 0.65292 0.06741 0.09078 0.0
H81 H 0.6592 0.13362 0.12981 0.0
H82 H 0.69758 0.06518 0.11382 0.0
H83 H 0.70371 0.13031 0.15204 0.0
H84 H 0.56297 0.05729 -0.00102 0.0
H85 H 0.53032 0.01158 0.06155 0.0
H86 H 0.585 0.13841 0.19716 0.0
H87 H 0.61153 0.07357 0.19083 0.0
Li88 Li 0.50457 0.64052 0.5804 0.0
Li89 Li 0.50339 0.61661 0.61798 0.0
Li90 Li 0.49346 0.59679 0.57787 0.0
Li91 Li 0.45633 0.61077 0.5948 0.0
C92 C 0.5605 0.64034 0.58617 0.0
N93 N 0.61686 0.67761 0.57804 0.0
C94 C 0.57973 0.65157 0.60526 0.0
C95 C 0.57004 0.64791 0.56294 0.0
C96 C 0.60812 0.67042 0.60078 0.0
C97 C 0.59857 0.66683 0.5592 0.0
C98 C 0.46564 0.65338 0.61899 0.0
C99 C 0.43759 0.66459 0.65041 0.0
N100 N 0.42714 0.6776 0.63449 0.0
C101 C 0.45447 0.66676 0.60294 0.0
C102 C 0.45703 0.65219 0.64292 0.0
C103 C 0.4351 0.67892 0.61112 0.0
C104 C 0.50475 0.67853 0.54942 0.0
N105 N 0.51994 0.67348 0.56824 0.0
C106 C 0.53913 0.71637 0.57962 0.0
C107 C 0.538 0.69191 0.58267 0.0
C108 C 0.52063 0.72161 0.5621 0.0
C109 C 0.50483 0.70262 0.54596 0.0
H110 H 0.48938 0.66343 0.53895 0.0
H111 H 0.5489 0.68725 0.59802 0.0
C112 C 0.5266 0.5981 0.65746 0.0
N113 N 0.52076 0.61799 0.64855 0.0
C114 C 0.53556 0.59807 0.68119 0.0
C115 C 0.53382 0.6395 0.68553 0.0
C116 C 0.52527 0.63882 0.66172 0.0
C117 C 0.5383 0.61867 0.69582 0.0
H118 H 0.52306 0.58188 0.64641 0.0
H119 H 0.52105 0.65455 0.65396 0.0
C120 C 0.46741 0.60504 0.54017 0.0
N121 N 0.46013 0.5809 0.49681 0.0
C122 C 0.44256 0.58278 0.53644 0.0
C123 C 0.48845 0.61509 0.52177 0.0
C124 C 0.43933 0.57082 0.51443 0.0
C125 C 0.48437 0.60261 0.49998 0.0
C126 C 0.44447 0.57043 0.62016 0.0
C127 C 0.4189 0.55476 0.60758 0.0
C128 C 0.44308 0.57164 0.64495 0.0
C129 C 0.39235 0.54062 0.62002 0.0
C130 C 0.41614 0.55716 0.65674 0.0
N131 N 0.39153 0.5421 0.64413 0.0
C132 C 0.4791 0.54715 0.56319 0.0
C133 C 0.52048 0.57627 0.54195 0.0
C134 C 0.47957 0.52789 0.54828 0.0
N135 N 0.49887 0.57085 0.55944 0.0
C136 C 0.52174 0.55757 0.52655 0.0
C137 C 0.5007 0.53307 0.52938 0.0
H138 H 0.4625 0.54329 0.57744 0.0
H139 H 0.53596 0.59527 0.53941 0.0
C140 C 0.39985 0.60989 0.57668 0.0
N141 N 0.4137 0.6073 0.59729 0.0
C142 C 0.37012 0.61054 0.57688 0.0
C143 C 0.36918 0.60591 0.6196 0.0
C144 C 0.39896 0.60518 0.61855 0.0
C145 C 0.35453 0.60896 0.59857 0.0
H146 H 0.41221 0.61225 0.56007 0.0
H147 H 0.41068 0.60384 0.6348 0.0
O148 O 0.53254 0.62196 0.5902 0.0
O149 O 0.48444 0.64116 0.61125 0.0
O150 O 0.47139 0.61666 0.56184 0.0
O151 O 0.4707 0.58446 0.60829 0.0
H152 H 0.57283 0.64586 0.62334 0.0
H153 H 0.55542 0.63948 0.54798 0.0
H154 H 0.6232 0.67933 0.61538 0.0
H155 H 0.60615 0.67299 0.54133 0.0
H156 H 0.43068 0.66375 0.66886 0.0
H157 H 0.4602 0.6674 0.58429 0.0
H158 H 0.46482 0.64145 0.65553 0.0
H159 H 0.42626 0.68929 0.59886 0.0
H160 H 0.55214 0.73049 0.59219 0.0
H161 H 0.48983 0.7055 0.53243 0.0
H162 H 0.53935 0.5818 0.68815 0.0
H163 H 0.53525 0.65572 0.69599 0.0
H164 H 0.42612 0.57466 0.55048 0.0
H165 H 0.50802 0.63213 0.52436 0.0
H166 H 0.42034 0.55349 0.51138 0.0
H167 H 0.50059 0.6101 0.48565 0.0
H168 H 0.41933 0.55374 0.5884 0.0
H169 H 0.46239 0.58381 0.65503 0.0
H170 H 0.37236 0.52854 0.61048 0.0
H171 H 0.41474 0.558 0.6759 0.0
H172 H 0.4634 0.50917 0.55141 0.0
H173 H 0.53828 0.56242 0.51212 0.0
H174 H 0.35963 0.61256 0.56017 0.0
H175 H 0.35825 0.605 0.63676 0.0
Li176 Li 0.86075 0.36836 0.09175 0.0
Li177 Li 0.90519 0.36431 0.11473 0.0
Li178 Li 0.91154 0.38712 0.07578 0.0
Li179 Li 0.88935 0.34316 0.07682 0.0
C180 C 0.88178 0.40835 0.11892 0.0
N181 N 0.85077 0.43385 0.14369 0.0
C182 C 0.87925 0.40638 0.14368 0.0
C183 C 0.86865 0.42342 0.10679 0.0
C184 C 0.86348 0.41941 0.15587 0.0
C185 C 0.85301 0.4361 0.11962 0.0
C186 C 0.84545 0.31447 0.10645 0.0
C187 C 0.83395 0.27094 0.11547 0.0
N188 N 0.80638 0.26518 0.10414 0.0
C189 C 0.81698 0.30809 0.0949 0.0
C190 C 0.85406 0.29573 0.11677 0.0
C191 C 0.79758 0.28307 0.0939 0.0
C192 C 0.80616 0.37366 0.07511 0.0
N193 N 0.82103 0.37082 0.09509 0.0
C194 C 0.77962 0.37261 0.11944 0.0
C195 C 0.80814 0.36972 0.11697 0.0
C196 C 0.76408 0.37629 0.09912 0.0
C197 C 0.77759 0.37647 0.07672 0.0
H198 H 0.81641 0.37363 0.05788 0.0
H199 H 0.82024 0.36696 0.13254 0.0
C200 C 0.94664 0.3822 0.15307 0.0
N201 N 0.92065 0.36362 0.14566 0.0
C202 C 0.95617 0.38306 0.17675 0.0
C203 C 0.9127 0.34513 0.18423 0.0
C204 C 0.90376 0.34524 0.16061 0.0
C205 C 0.9389 0.36443 0.19264 0.0
H206 H 0.95933 0.39674 0.14079 0.0
H207 H 0.88269 0.3312 0.15443 0.0
C208 C 0.87892 0.3768 0.03706 0.0
N209 N 0.89091 0.40008 0.99321 0.0
C210 C 0.89078 0.3666 0.01856 0.0
C211 C 0.87305 0.39879 0.0332 0.0
C212 C 0.89666 0.37864 -0.00348 0.0
C213 C 0.87935 0.41031 0.01094 0.0
C214 C 0.94936 0.3497 0.08217 0.0
C215 C 0.95535 0.34521 0.05858 0.0
C216 C 0.96164 0.33985 0.10067 0.0
C217 C 0.97337 0.33073 0.05388 0.0
C218 C 0.97959 0.3255 0.09523 0.0
N219 N 0.98502 0.32126 0.07215 0.0
C220 C 0.93712 0.43832 0.06472 0.0
C221 C 0.95313 0.41216 0.03945 0.0
C222 C 0.95188 0.4589 0.0503 0.0
N223 N 0.9373 0.41543 0.0587 0.0
C224 C 0.96805 0.43217 0.02445 0.0
C225 C 0.96697 0.45583 0.02954 0.0
H226 H 0.92482 0.44049 0.08034 0.0
H227 H 0.95294 0.39378 0.03508 0.0
C228 C 0.85723 0.30541 0.04614 0.0
N229 N 0.88142 0.31172 0.06147 0.0
C230 C 0.84199 0.28058 0.03987 0.0
C231 C 0.87892 0.26941 0.0631 0.0
C232 C 0.89318 0.29449 0.06929 0.0
C233 C 0.85166 0.26195 0.04953 0.0
H234 H 0.84762 0.31924 0.04084 0.0
H235 H 0.91157 0.29959 0.08221 0.0
O236 O 0.89678 0.39546 0.10663 0.0
O237 O 0.86497 0.33886 0.10733 0.0
O238 O 0.87349 0.3655 0.0589 0.0
O239 O 0.93212 0.36408 0.0872 0.0
H240 H 0.88913 0.39479 0.15341 0.0
H241 H 0.87005 0.42497 0.08762 0.0
H242 H 0.86127 0.41797 0.17501 0.0
H243 H 0.84254 0.44765 0.11043 0.0
H244 H 0.84039 0.25627 0.1233 0.0
H245 H 0.81007 0.32222 0.0865 0.0
H246 H 0.87628 0.30019 0.12531 0.0
H247 H 0.77557 0.27787 0.0849 0.0
H248 H 0.77012 0.37238 0.13707 0.0
H249 H 0.76607 0.37851 0.06052 0.0
H250 H 0.9764 0.39831 0.18269 0.0
H251 H 0.89839 0.33078 0.19609 0.0
H252 H 0.89581 0.34977 0.02125 0.0
H253 H 0.86422 0.40712 0.04736 0.0
H254 H 0.90598 0.37103 0.9821 0.0
H255 H 0.87517 0.42745 0.00779 0.0
H256 H 0.94576 0.35243 0.04405 0.0
H257 H 0.95734 0.34322 0.11902 0.0
H258 H 0.97801 0.32695 0.03571 0.0
H259 H 0.9892 0.31771 0.10936 0.0
H260 H 0.95108 0.47693 0.05518 0.0
H261 H 0.97916 0.42886 0.00853 0.0
H262 H 0.82086 0.27599 0.02972 0.0
H263 H 0.88751 0.25581 0.07072 0.0
Li264 Li 0.40051 0.88477 0.57517 0.0
Li265 Li 0.38995 0.86809 0.61529 0.0
Li266 Li 0.40497 0.84528 0.58293 0.0
Li267 Li 0.35405 0.84825 0.58284 0.0
C268 C 0.45601 0.89733 0.59779 0.0
N269 N 0.51041 0.93809 0.59761 0.0
C270 C 0.46215 0.91512 0.61592 0.0
C271 C 0.47777 0.90003 0.57981 0.0
C272 C 0.48974 0.93565 0.61545 0.0
C273 C 0.50505 0.92085 0.57995 0.0
C274 C 0.34033 0.88443 0.60837 0.0
C275 C 0.30072 0.86815 0.63808 0.0
N276 N 0.29031 0.88705 0.6334 0.0
C277 C 0.32923 0.90368 0.60383 0.0
C278 C 0.32596 0.8665 0.62562 0.0
C279 C 0.30392 0.90469 0.61669 0.0
C280 C 0.41534 0.9115 0.53277 0.0
N281 N 0.41731 0.91408 0.55678 0.0
C282 C 0.44945 0.95691 0.55319 0.0
C283 C 0.43274 0.93646 0.56716 0.0
C284 C 0.44973 0.95419 0.52837 0.0
C285 C 0.43155 0.93139 0.51814 0.0
H286 H 0.40184 0.89382 0.52493 0.0
H287 H 0.43301 0.9382 0.58629 0.0
C288 C 0.4013 0.8585 0.66198 0.0
N289 N 0.3936 0.87491 0.64833 0.0
C290 C 0.40164 0.86052 0.68668 0.0
C291 C 0.38753 0.89709 0.6828 0.0
C292 C 0.38751 0.89435 0.6581 0.0
C293 C 0.39403 0.87969 0.69741 0.0
H294 H 0.4067 0.84358 0.65362 0.0
H295 H 0.38187 0.90736 0.64677 0.0
C296 C 0.39008 0.84389 0.53586 0.0
N297 N 0.40456 0.82315 0.49528 0.0
C298 C 0.36713 0.82499 0.52368 0.0
C299 C 0.4203 0.85246 0.52719 0.0
C300 C 0.37494 0.81469 0.50326 0.0
C301 C 0.42719 0.84168 0.50671 0.0
C302 C 0.36098 0.8063 0.60686 0.0
C303 C 0.34914 0.79331 0.58592 0.0
C304 C 0.36202 0.79303 0.6275 0.0
C305 C 0.33867 0.76727 0.58591 0.0
C306 C 0.35134 0.76698 0.62679 0.0
N307 N 0.33999 0.75474 0.60617 0.0
C308 C 0.45643 0.83138 0.58862 0.0
C309 C 0.41995 0.80542 0.56146 0.0
C310 C 0.47565 0.81765 0.58536 0.0
N311 N 0.42919 0.8251 0.57673 0.0
C312 C 0.43863 0.79138 0.55744 0.0
C313 C 0.46677 0.79736 0.5696 0.0
H314 H 0.46312 0.84693 0.60086 0.0
H315 H 0.39802 0.80041 0.5525 0.0
C316 C 0.30067 0.8374 0.55422 0.0
N317 N 0.31172 0.83255 0.57532 0.0
C318 C 0.26972 0.82504 0.54817 0.0
C319 C 0.26214 0.8038 0.5861 0.0
C320 C 0.2931 0.81645 0.59134 0.0
C321 C 0.25011 0.80778 0.56415 0.0
H322 H 0.31606 0.85051 0.54194 0.0
H323 H 0.30244 0.81302 0.60803 0.0
O324 O 0.42905 0.87717 0.59789 0.0
O325 O 0.36494 0.88315 0.59574 0.0
O326 O 0.38287 0.85419 0.55594 0.0
O327 O 0.3715 0.83184 0.60724 0.0
H328 H 0.44568 0.91325 0.63005 0.0
H329 H 0.47367 0.88621 0.56592 0.0
H330 H 0.49469 0.94967 0.62926 0.0
H331 H 0.52199 0.92327 0.56605 0.0
H332 H 0.28941 0.8544 0.65149 0.0
H333 H 0.34007 0.91767 0.5905 0.0
H334 H 0.33424 0.85149 0.62942 0.0
H335 H 0.29509 0.91948 0.61337 0.0
H336 H 0.46303 0.97426 0.56175 0.0
H337 H 0.43039 0.9288 0.49903 0.0
H338 H 0.40751 0.84707 0.69726 0.0
H339 H 0.38149 0.91211 0.69035 0.0
H340 H 0.34354 0.81827 0.52995 0.0
H341 H 0.43824 0.86723 0.53621 0.0
H342 H 0.35744 0.79996 0.49375 0.0
H343 H 0.45052 0.84805 0.4999 0.0
H344 H 0.34808 0.80324 0.56984 0.0
H345 H 0.37092 0.80272 0.64393 0.0
H346 H 0.32951 0.75702 0.56978 0.0
H347 H 0.35204 0.75649 0.64263 0.0
H348 H 0.49713 0.82274 0.59514 0.0
H349 H 0.43068 0.77552 0.54553 0.0
H350 H 0.26134 0.82868 0.53111 0.0
H351 H 0.24812 0.79026 0.59876 0.0
Li352 Li 0.4926 0.3718 0.11893 0.0
Li353 Li 0.49272 0.34808 0.08153 0.0
Li354 Li 0.5402 0.37871 0.09611 0.0
Li355 Li 0.50242 0.39162 0.07878 0.0
C356 C 0.53177 0.33565 0.11963 0.0
N357 N 0.57066 0.31128 0.13387 0.0
C358 C 0.5444 0.32408 0.10283 0.0
C359 C 0.53916 0.33501 0.14368 0.0
C360 C 0.56394 0.31179 0.11037 0.0
C361 C 0.55881 0.32255 0.15051 0.0
C362 C 0.43608 0.34719 0.0867 0.0
C363 C 0.39875 0.32036 0.05945 0.0
N364 N 0.38027 0.30941 0.07814 0.0
C365 C 0.41665 0.33579 0.10563 0.0
C366 C 0.427 0.33955 0.06341 0.0
C367 C 0.38855 0.31668 0.10094 0.0
C368 C 0.4686 0.38976 0.15835 0.0
N369 N 0.47479 0.37005 0.14937 0.0
C370 C 0.46154 0.34821 0.18617 0.0
C371 C 0.47037 0.34916 0.16241 0.0
C372 C 0.4567 0.36885 0.19654 0.0
C373 C 0.45936 0.38952 0.18203 0.0
H374 H 0.47208 0.40605 0.1474 0.0
H375 H 0.47486 0.33358 0.15457 0.0
C376 C 0.4936 0.31 0.05086 0.0
N377 N 0.47816 0.31501 0.06953 0.0
C378 C 0.49334 0.28588 0.04731 0.0
C379 C 0.45851 0.27205 0.08064 0.0
C380 C 0.45985 0.29654 0.08379 0.0
C381 C 0.47705 0.26678 0.06319 0.0
H382 H 0.50919 0.32513 0.04053 0.0
H383 H 0.44873 0.30115 0.09904 0.0
C384 C 0.55051 0.41883 0.12124 0.0
N385 N 0.60305 0.44787 0.14526 0.0
C386 C 0.57581 0.43494 0.1087 0.0
C387 C 0.55198 0.41754 0.14603 0.0
C388 C 0.60215 0.44943 0.12115 0.0
C389 C 0.57872 0.43238 0.15783 0.0
C390 C 0.529 0.38372 0.04121 0.0
C391 C 0.55285 0.40656 0.03734 0.0
C392 C 0.50832 0.37278 0.02282 0.0
C393 C 0.55547 0.41816 0.01518 0.0
C394 C 0.51178 0.38493 0.00089 0.0
N395 N 0.53504 0.4072 -0.00243 0.0
C396 C 0.59848 0.38289 0.07874 0.0
C397 C 0.59687 0.38476 0.12079 0.0
C398 C 0.62888 0.38379 0.07945 0.0
N399 N 0.58313 0.38345 0.09918 0.0
C400 C 0.62722 0.38542 0.12235 0.0
C401 C 0.64353 0.38483 0.10146 0.0
H402 H 0.58683 0.38092 0.06184 0.0
H403 H 0.58402 0.38458 0.13685 0.0
C404 C 0.51499 0.44111 0.06434 0.0
N405 N 0.49625 0.41717 0.06021 0.0
C406 C 0.51425 0.4602 0.04931 0.0
C407 C 0.47387 0.42981 0.02664 0.0
C408 C 0.47531 0.4113 0.04222 0.0
C409 C 0.49391 0.45457 0.02988 0.0
H410 H 0.53116 0.44529 0.07891 0.0
H411 H 0.46052 0.39214 0.03944 0.0
O412 O 0.51286 0.34804 0.11254 0.0
O413 O 0.46375 0.36584 0.09095 0.0
O414 O 0.52453 0.40437 0.10935 0.0
O415 O 0.52562 0.37239 0.06302 0.0
H416 H 0.53975 0.325 0.08411 0.0
H417 H 0.53025 0.34437 0.1569 0.0
H418 H 0.5739 0.30281 0.09753 0.0
H419 H 0.56476 0.32196 0.16905 0.0
H420 H 0.39153 0.31414 0.04153 0.0
H421 H 0.42318 0.34157 0.12376 0.0
H422 H 0.44177 0.34812 0.04856 0.0
H423 H 0.37333 0.30763 0.11542 0.0
H424 H 0.46017 0.33194 0.19653 0.0
H425 H 0.4553 0.40566 0.18907 0.0
H426 H 0.50842 0.28298 0.03386 0.0
H427 H 0.44517 0.25786 0.09304 0.0
H428 H 0.57532 0.43602 0.08952 0.0
H429 H 0.53291 0.40502 0.15608 0.0
H430 H 0.62193 0.46186 0.11164 0.0
H431 H 0.58019 0.43149 0.17699 0.0
H432 H 0.56894 0.41541 0.05138 0.0
H433 H 0.48947 0.3553 0.02551 0.0
H434 H 0.57367 0.43593 0.01202 0.0
H435 H 0.49582 0.37675 0.98656 0.0
H436 H 0.64042 0.38275 0.06295 0.0
H437 H 0.63773 0.38618 0.13968 0.0
H438 H 0.5302 0.47901 0.05238 0.0
H439 H 0.45752 0.42477 0.01208 0.0
Li440 Li 0.08911 0.62226 0.61436 0.0
Li441 Li 0.1338 0.61896 0.59114 0.0
Li442 Li 0.10427 0.64353 0.57639 0.0
Li443 Li 0.08299 0.59955 0.57542 0.0
C444 C 0.14779 0.67273 0.60612 0.0
N445 N 0.18572 0.72237 0.60442 0.0
C446 C 0.17624 0.67979 0.59447 0.0
C447 C 0.1386 0.69097 0.61683 0.0
C448 C 0.19507 0.70498 0.59378 0.0
C449 C 0.15814 0.71594 0.61584 0.0
C450 C 0.11378 0.57889 0.61838 0.0
C451 C 0.14354 0.55189 0.61892 0.0
N452 N 0.14556 0.55392 0.64301 0.0
C453 C 0.11606 0.58062 0.64316 0.0
C454 C 0.12752 0.56431 0.60616 0.0
C455 C 0.13224 0.56787 0.65528 0.0
C456 C 0.04778 0.60422 0.65277 0.0
N457 N 0.07384 0.62274 0.64539 0.0
C458 C 0.08206 0.64098 0.68407 0.0
C459 C 0.09092 0.64095 0.66042 0.0
C460 C 0.05575 0.62175 0.69243 0.0
C461 C 0.03833 0.60326 0.67648 0.0
H462 H 0.03494 0.5898 0.64042 0.0
H463 H 0.11206 0.65493 0.65428 0.0
C464 C 0.18954 0.61664 0.57381 0.0
N465 N 0.17409 0.6176 0.59409 0.0
C466 C 0.21912 0.6157 0.57492 0.0
C467 C 0.2166 0.617 0.61783 0.0
C468 C 0.18713 0.61822 0.61587 0.0
C469 C 0.23295 0.61577 0.59714 0.0
H470 H 0.179 0.61683 0.55672 0.0
H471 H 0.17463 0.61965 0.63169 0.0
C472 C 0.04441 0.63649 0.58215 0.0
N473 N 0.00852 0.66486 0.57259 0.0
C474 C 0.03804 0.64094 0.55864 0.0
C475 C 0.03239 0.64634 0.60081 0.0
C476 C 0.01991 0.65539 0.55418 0.0
C477 C 0.01432 0.66065 0.5956 0.0
C478 C 0.11543 0.61013 0.53664 0.0
C479 C 0.10275 0.61967 0.51815 0.0
C480 C 0.1224 0.58861 0.53285 0.0
C481 C 0.09712 0.60745 0.4962 0.0
C482 C 0.11632 0.57689 0.51068 0.0
N483 N 0.10392 0.58647 0.49297 0.0
C484 C 0.13557 0.68116 0.54541 0.0
C485 C 0.10003 0.69211 0.569 0.0
C486 C 0.15075 0.70599 0.5391 0.0
N487 N 0.11166 0.67487 0.56099 0.0
C488 C 0.11425 0.7172 0.56281 0.0
C489 C 0.14132 0.72464 0.549 0.0
H490 H 0.1451 0.66735 0.53994 0.0
H491 H 0.08184 0.68702 0.58209 0.0
C492 C 0.05855 0.54834 0.56417 0.0
N493 N 0.05764 0.57106 0.55838 0.0
C494 C 0.04389 0.52769 0.54981 0.0
C495 C 0.02642 0.55402 0.52442 0.0
C496 C 0.04124 0.57409 0.53937 0.0
C497 C 0.02814 0.53052 0.52931 0.0
H498 H 0.07134 0.54636 0.57959 0.0
H499 H 0.04086 0.59234 0.53517 0.0
O500 O 0.12888 0.64816 0.60678 0.0
O501 O 0.09832 0.59147 0.60616 0.0
O502 O 0.06175 0.62213 0.58696 0.0
O503 O 0.1206 0.62157 0.55841 0.0
H504 H 0.18359 0.66606 0.58576 0.0
H505 H 0.11637 0.68598 0.62546 0.0
H506 H 0.21706 0.71071 0.5847 0.0
H507 H 0.15126 0.73024 0.62398 0.0
H508 H 0.15449 0.54073 0.60966 0.0
H509 H 0.10567 0.59181 0.65296 0.0
H510 H 0.12626 0.56293 0.58698 0.0
H511 H 0.13428 0.56913 0.67445 0.0
H512 H 0.09649 0.65521 0.69598 0.0
H513 H 0.01802 0.58806 0.68238 0.0
H514 H 0.23095 0.6147 0.55856 0.0
H515 H 0.22669 0.61746 0.63528 0.0
H516 H 0.04739 0.6337 0.54399 0.0
H517 H 0.03699 0.643 0.61911 0.0
H518 H 0.01496 0.65913 0.53607 0.0
H519 H 0.00492 0.66844 0.60986 0.0
H520 H 0.0969 0.63614 0.5208 0.0
H521 H 0.13198 0.58083 0.54699 0.0
H522 H 0.08717 0.61456 0.48179 0.0
H523 H 0.12136 0.56012 0.50758 0.0
H524 H 0.17171 0.71055 0.52875 0.0
H525 H 0.10583 0.73082 0.5706 0.0
H526 H 0.04522 0.5098 0.55455 0.0
H527 H 0.01481 0.55715 0.5087 0.0
Li528 Li 0.86875 0.37327 0.39602 0.0
Li529 Li 0.91773 0.38621 0.41218 0.0
Li530 Li 0.91032 0.36804 0.37266 0.0
Li531 Li 0.89007 0.34213 0.41092 0.0
C532 C 0.89306 0.41454 0.37168 0.0
N533 N 0.86593 0.4445 0.34937 0.0
C534 C 0.88285 0.43068 0.38502 0.0
C535 C 0.88957 0.41375 0.34696 0.0
C536 C 0.86914 0.44563 0.37343 0.0
C537 C 0.8758 0.42903 0.33602 0.0
C538 C 0.88418 0.37717 0.45105 0.0
C539 C 0.89957 0.37608 0.49191 0.0
N540 N 0.89664 0.39855 0.49573 0.0
C541 C 0.88116 0.4002 0.45544 0.0
C542 C 0.89341 0.36497 0.46944 0.0
C543 C 0.88766 0.41073 0.47811 0.0
C544 C 0.81497 0.3795 0.41351 0.0
N545 N 0.83025 0.37849 0.39314 0.0
C546 C 0.7898 0.38351 0.36969 0.0
C547 C 0.81819 0.3803 0.37145 0.0
C548 C 0.77375 0.38492 0.39048 0.0
C549 C 0.78669 0.38291 0.4126 0.0
H550 H 0.8245 0.37729 0.43051 0.0
H551 H 0.83048 0.37909 0.35547 0.0
C552 C 0.95005 0.43575 0.42491 0.0
N553 N 0.94612 0.41192 0.4311 0.0
C554 C 0.96541 0.45541 0.44011 0.0
C555 C 0.97473 0.42591 0.46695 0.0
C556 C 0.95891 0.40676 0.45128 0.0
C557 C 0.97717 0.45047 0.46173 0.0
H558 H 0.94021 0.43945 0.40861 0.0
H559 H 0.95542 0.38768 0.4559 0.0
C560 C 0.83956 0.33048 0.37261 0.0
N561 N 0.779 0.30671 0.35868 0.0
C562 C 0.81698 0.3185 0.38944 0.0
C563 C 0.83134 0.3304 0.34868 0.0
C564 C 0.78649 0.30658 0.38205 0.0
C565 C 0.80059 0.31826 0.342 0.0
C566 C 0.96228 0.36688 0.40834 0.0
C567 C 0.98536 0.38748 0.39845 0.0
C568 C 0.96941 0.35368 0.42693 0.0
C569 C 0.01527 0.39482 0.40762 0.0
C570 C -0.00038 0.36158 0.43557 0.0
N571 N 0.02172 0.38183 0.42584 0.0
C572 C 0.94845 0.38723 0.33273 0.0
C573 C 0.91326 0.34565 0.32913 0.0
C574 C 0.95718 0.38731 0.30895 0.0
N575 N 0.92623 0.36682 0.34202 0.0
C576 C 0.92107 0.34497 0.30528 0.0
C577 C 0.94275 0.36622 0.29468 0.0
H578 H 0.9584 0.40378 0.34351 0.0
H579 H 0.8959 0.32963 0.33714 0.0
C580 C 0.85746 0.30288 0.44105 0.0
N581 N 0.87874 0.30959 0.42335 0.0
C582 C 0.8423 0.27778 0.44648 0.0
C583 C 0.87262 0.26705 0.4163 0.0
C584 C 0.88732 0.29245 0.41152 0.0
C585 C 0.84882 0.25944 0.43327 0.0
H586 H 0.8503 0.31684 0.44955 0.0
H587 H 0.90394 0.29839 0.39721 0.0
O588 O 0.90643 0.39966 0.38275 0.0
O589 O 0.87825 0.36669 0.42886 0.0
O590 O 0.86945 0.34257 0.37959 0.0
O591 O 0.93285 0.35947 0.39974 0.0
H592 H 0.8852 0.43151 0.40416 0.0
H593 H 0.89691 0.40121 0.33631 0.0
H594 H 0.86099 0.45808 0.38357 0.0
H595 H 0.87282 0.42849 0.31692 0.0
H596 H 0.90692 0.36692 0.50625 0.0
H597 H 0.87419 0.40997 0.44142 0.0
H598 H 0.89643 0.34738 0.46633 0.0
H599 H 0.88566 0.42863 0.48168 0.0
H600 H 0.78059 0.38499 0.35229 0.0
H601 H 0.77472 0.38337 0.42904 0.0
H602 H 0.96742 0.47421 0.43529 0.0
H603 H 0.98346 0.42139 0.48351 0.0
H604 H 0.82281 0.31876 0.40807 0.0
H605 H 0.84838 0.33992 0.33544 0.0
H606 H 0.76877 0.29733 0.39492 0.0
H607 H 0.79388 0.31814 0.32356 0.0
H608 H 0.98013 0.39785 0.38405 0.0
H609 H 0.95174 0.33764 0.43469 0.0
H610 H 0.03335 0.41085 0.40028 0.0
H611 H 0.00549 0.35165 0.45003 0.0
H612 H 0.97433 0.40397 0.30166 0.0
H613 H 0.90901 0.32838 0.29502 0.0
H614 H 0.82369 0.2728 0.45932 0.0
H615 H 0.87836 0.25349 0.40577 0.0
Li616 Li 0.38747 0.87221 0.88228 0.0
Li617 Li 0.40366 0.88849 0.92098 0.0
Li618 Li 0.4018 0.84736 0.91134 0.0
Li619 Li 0.35513 0.85614 0.91623 0.0
C620 C 0.44861 0.87464 0.88135 0.0
N621 N 0.48939 0.86557 0.85009 0.0
C622 C 0.48001 0.88909 0.8823 0.0
C623 C 0.43795 0.85556 0.86449 0.0
C624 C 0.50027 0.88423 0.86635 0.0
C625 C 0.45893 0.85127 0.84885 0.0
C626 C 0.3741 0.91388 0.89395 0.0
C627 C 0.35746 0.94752 0.88216 0.0
N628 N 0.38689 0.96126 0.87573 0.0
C629 C 0.4042 0.92835 0.88724 0.0
C630 C 0.35054 0.92353 0.89141 0.0
C631 C 0.41018 0.95225 0.87806 0.0
C632 C 0.36142 0.86516 0.8371 0.0
N633 N 0.38707 0.87898 0.84928 0.0
C634 C 0.41226 0.89754 0.81331 0.0
C635 C 0.41199 0.89544 0.83805 0.0
C636 C 0.38661 0.88259 0.80012 0.0
C637 C 0.36065 0.86669 0.81238 0.0
H638 H 0.34188 0.85241 0.84659 0.0
H639 H 0.43212 0.90624 0.84818 0.0
C640 C 0.45551 0.91606 0.9453 0.0
N641 N 0.42715 0.91598 0.93923 0.0
C642 C 0.47464 0.93476 0.9599 0.0
C643 C 0.43489 0.95293 0.96171 0.0
C644 C 0.41647 0.93381 0.94705 0.0
C645 C 0.46433 0.95345 0.96836 0.0
H646 H 0.46307 0.90138 0.93894 0.0
H647 H 0.39356 0.93297 0.9422 0.0
C648 C 0.34803 0.81187 0.89311 0.0
N649 N 0.31281 0.76196 0.89892 0.0
C650 C 0.34813 0.80002 0.91483 0.0
C651 C 0.33006 0.7983 0.87434 0.0
C652 C 0.33016 0.77479 0.91742 0.0
C653 C 0.31241 0.77309 0.87763 0.0
C654 C 0.37803 0.86405 0.96237 0.0
C655 C 0.3868 0.85486 0.98308 0.0
C656 C 0.36063 0.87951 0.96403 0.0
C657 C 0.37799 0.86128 0.00517 0.0
C658 C 0.35229 0.88551 0.98644 0.0
N659 N 0.36107 0.87635 0.00638 0.0
C660 C 0.44146 0.82908 0.9361 0.0
C661 C 0.4213 0.80677 0.90068 0.0
C662 C 0.45909 0.8142 0.94037 0.0
N663 N 0.42311 0.8251 0.91654 0.0
C664 C 0.43864 0.79158 0.90416 0.0
C665 C 0.45795 0.79528 0.92416 0.0
H666 H 0.44263 0.84403 0.94824 0.0
H667 H 0.4066 0.80407 0.88523 0.0
C668 C 0.29189 0.84709 0.91237 0.0
N669 N 0.31336 0.84218 0.92584 0.0
C670 C 0.26054 0.83378 0.91604 0.0
C671 C 0.27415 0.81163 0.94818 0.0
C672 C 0.30515 0.82546 0.94399 0.0
C673 C 0.25138 0.81506 0.93355 0.0
H674 H 0.29919 0.86045 0.89799 0.0
H675 H 0.32272 0.82176 0.9543 0.0
O676 O 0.42866 0.87923 0.89699 0.0
O677 O 0.36743 0.89037 0.90298 0.0
O678 O 0.36503 0.83668 0.89016 0.0
O679 O 0.38676 0.85799 0.94068 0.0
H680 H 0.48863 0.90393 0.89525 0.0
H681 H 0.41375 0.84419 0.8634 0.0
H682 H 0.52463 0.89528 0.86689 0.0
H683 H 0.45097 0.83658 0.83572 0.0
H684 H 0.33943 0.95522 0.8801 0.0
H685 H 0.42282 0.92133 0.88914 0.0
H686 H 0.32712 0.91257 0.89655 0.0
H687 H 0.43337 0.96363 0.87281 0.0
H688 H 0.43284 0.90989 0.80458 0.0
H689 H 0.34018 0.85519 0.80294 0.0
H690 H 0.49731 0.93468 0.9644 0.0
H691 H 0.426 0.96687 0.96812 0.0
H692 H 0.36177 0.81017 0.92961 0.0
H693 H 0.32971 0.80716 0.8574 0.0
H694 H 0.32998 0.76543 0.93415 0.0
H695 H 0.29836 0.76237 0.86325 0.0
H696 H 0.40029 0.84288 0.98208 0.0
H697 H 0.35362 0.88683 0.94824 0.0
H698 H 0.38462 0.8543 0.02135 0.0
H699 H 0.33886 0.89747 0.98799 0.0
H700 H 0.47377 0.8177 0.95593 0.0
H701 H 0.43669 0.7769 0.89145 0.0
H702 H 0.24378 0.83725 0.90453 0.0
H703 H 0.26835 0.79715 0.9616 0.0
Li704 Li 0.50776 0.3919 0.41528 0.0
Li705 Li 0.49933 0.34892 0.41298 0.0
Li706 Li 0.54719 0.37952 0.39863 0.0
Li707 Li 0.49795 0.37051 0.3757 0.0
C708 C 0.5338 0.38442 0.45347 0.0
N709 N 0.53664 0.40642 0.49757 0.0
C710 C 0.51291 0.37219 0.47132 0.0
C711 C 0.55626 0.40779 0.45812 0.0
C712 C 0.51473 0.38362 0.4935 0.0
C713 C 0.55725 0.41863 0.4805 0.0
C714 C 0.44162 0.347 0.40779 0.0
C715 C 0.39404 0.31647 0.39366 0.0
N716 N 0.38514 0.31013 0.41653 0.0
C717 C 0.43192 0.3403 0.43116 0.0
C718 C 0.4225 0.33509 0.38886 0.0
C719 C 0.40332 0.32155 0.43521 0.0
C720 C 0.52001 0.44159 0.42888 0.0
N721 N 0.50122 0.41771 0.43321 0.0
C722 C 0.4785 0.4308 0.46631 0.0
C723 C 0.48015 0.41207 0.4511 0.0
C724 C 0.49868 0.45549 0.46292 0.0
C725 C 0.51921 0.46086 0.44363 0.0
H726 H 0.53624 0.4456 0.41436 0.0
H727 H 0.46551 0.39293 0.45416 0.0
C728 C 0.50605 0.31297 0.44285 0.0
N729 N 0.48587 0.31638 0.42694 0.0
C730 C 0.5058 0.28908 0.44767 0.0
C731 C 0.46193 0.27234 0.42152 0.0
C732 C 0.46321 0.29665 0.41701 0.0
C733 C 0.48466 0.26847 0.43587 0.0
H734 H 0.5246 0.32889 0.44979 0.0
H735 H 0.44823 0.29971 0.40366 0.0
C736 C 0.55481 0.41882 0.37235 0.0
N737 N 0.60619 0.44867 0.34761 0.0
C738 C 0.55545 0.41782 0.34752 0.0
C739 C 0.58028 0.43513 0.38457 0.0
C740 C 0.58164 0.43304 0.33534 0.0
C741 C 0.60605 0.45002 0.37175 0.0
C742 C 0.52515 0.32616 0.38148 0.0
C743 C 0.54963 0.32272 0.39366 0.0
C744 C 0.50442 0.30626 0.36878 0.0
C745 C 0.55321 0.29957 0.39264 0.0
C746 C 0.50889 0.28344 0.36809 0.0
N747 N 0.533 0.28059 0.37992 0.0
C748 C 0.60758 0.38894 0.41508 0.0
C749 C 0.60204 0.38486 0.37322 0.0
C750 C 0.63842 0.39112 0.41351 0.0
N751 N 0.59011 0.38583 0.39512 0.0
C752 C 0.63288 0.38709 0.37079 0.0
C753 C 0.65143 0.38998 0.39116 0.0
H754 H 0.59727 0.38878 0.43231 0.0
H755 H 0.58739 0.38182 0.35769 0.0
C756 C 0.46594 0.38416 0.33841 0.0
N757 N 0.48121 0.36881 0.34482 0.0
C758 C 0.45605 0.3843 0.31492 0.0
C759 C 0.47677 0.35218 0.30556 0.0
C760 C 0.48686 0.3531 0.32897 0.0
C761 C 0.46154 0.36814 0.29826 0.0
H762 H 0.46225 0.39676 0.35137 0.0
H763 H 0.50016 0.34192 0.33427 0.0
O764 O 0.53192 0.37379 0.43145 0.0
O765 O 0.46941 0.36542 0.40343 0.0
O766 O 0.52948 0.40384 0.38462 0.0
O767 O 0.52129 0.34877 0.38221 0.0
H768 H 0.49522 0.3542 0.46802 0.0
H769 H 0.57238 0.41768 0.44445 0.0
H770 H 0.49861 0.37442 0.50742 0.0
H771 H 0.5743 0.43681 0.48425 0.0
H772 H 0.37905 0.30704 0.37919 0.0
H773 H 0.44645 0.34924 0.44601 0.0
H774 H 0.42957 0.34009 0.37067 0.0
H775 H 0.39561 0.31606 0.4532 0.0
H776 H 0.46245 0.42586 0.48106 0.0
H777 H 0.53473 0.47973 0.44014 0.0
H778 H 0.52415 0.28723 0.45852 0.0
H779 H 0.44501 0.257 0.41222 0.0
H780 H 0.53605 0.40536 0.3377 0.0
H781 H 0.58041 0.43596 0.40379 0.0
H782 H 0.58246 0.43239 0.31613 0.0
H783 H 0.62599 0.46256 0.381 0.0
H784 H 0.56545 0.33759 0.40411 0.0
H785 H 0.48474 0.30822 0.35987 0.0
H786 H 0.57199 0.29665 0.40205 0.0
H787 H 0.49302 0.2679 0.35833 0.0
H788 H 0.65154 0.3927 0.42974 0.0
H789 H 0.64197 0.38625 0.35321 0.0
H790 H 0.44467 0.39705 0.30973 0.0
H791 H 0.48211 0.33997 0.293 0.0
Li792 Li 0.07675 0.59991 0.91204 0.0
Li793 Li 0.12574 0.61293 0.8959 0.0
Li794 Li 0.10426 0.644 0.91074 0.0
Li795 Li 0.08414 0.61804 0.8725 0.0
C796 C 0.11035 0.60907 0.95093 0.0
N797 N 0.0981 0.58778 0.99566 0.0
C798 C 0.11342 0.58607 0.95534 0.0
C799 C 0.10119 0.6213 0.96934 0.0
C800 C 0.10702 0.57558 0.97804 0.0
C801 C 0.09513 0.61024 0.99182 0.0
C802 C 0.10152 0.57158 0.87162 0.0
C803 C 0.11885 0.55705 0.83603 0.0
N804 N 0.1287 0.54161 0.84943 0.0
C805 C 0.1117 0.55546 0.88502 0.0
C806 C 0.10505 0.57234 0.84691 0.0
C807 C 0.12545 0.54051 0.87349 0.0
C808 C 0.04444 0.55035 0.92477 0.0
N809 N 0.04843 0.57419 0.93097 0.0
C810 C 0.02004 0.56024 0.96691 0.0
C811 C 0.03576 0.57937 0.9512 0.0
C812 C 0.01753 0.53567 0.96168 0.0
C813 C 0.02913 0.53071 0.94 0.0
H814 H 0.05418 0.54665 0.90842 0.0
H815 H 0.03928 0.59846 0.95582 0.0
C816 C 0.17954 0.60669 0.91341 0.0
N817 N 0.16426 0.60774 0.89305 0.0
C818 C 0.20778 0.60321 0.91248 0.0
C819 C 0.20463 0.60264 0.86958 0.0
C820 C 0.1763 0.60592 0.87135 0.0
C821 C 0.22067 0.60116 0.89035 0.0
H822 H 0.17003 0.60891 0.93041 0.0
H823 H 0.16401 0.60717 0.85538 0.0
C824 C 0.03209 0.61906 0.90814 0.0
N825 N 0.97265 0.60393 0.92565 0.0
C826 C 0.00907 0.59842 0.89825 0.0
C827 C 0.02489 0.6322 0.92674 0.0
C828 C 0.97916 0.59099 0.90742 0.0
C829 C 0.99468 0.62421 0.93538 0.0
C830 C 0.15486 0.65575 0.87252 0.0
C831 C 0.17737 0.66774 0.88941 0.0
C832 C 0.16318 0.65588 0.84861 0.0
C833 C 0.20787 0.67973 0.88209 0.0
C834 C 0.19393 0.66808 0.842 0.0
N835 N 0.21545 0.67965 0.85873 0.0
C836 C 0.13666 0.68337 0.94084 0.0
C837 C 0.10643 0.69353 0.91141 0.0
C838 C 0.1515 0.70849 0.94632 0.0
N839 N 0.11534 0.67652 0.92316 0.0
C840 C 0.1208 0.71894 0.91625 0.0
C841 C 0.14462 0.72671 0.9332 0.0
H842 H 0.14407 0.66952 0.94929 0.0
H843 H 0.08978 0.68748 0.89713 0.0
C844 C 0.04612 0.59879 0.83251 0.0
N845 N 0.06827 0.61921 0.84183 0.0
C846 C 0.03743 0.5987 0.80871 0.0
C847 C 0.07346 0.64108 0.80509 0.0
C848 C 0.08123 0.64039 0.82895 0.0
C849 C 0.05184 0.61982 0.79446 0.0
H850 H 0.03618 0.58222 0.84327 0.0
H851 H 0.09855 0.65643 0.83698 0.0
O852 O 0.1162 0.61953 0.92873 0.0
O853 O 0.08812 0.58647 0.88264 0.0
O854 O 0.06152 0.62656 0.89953 0.0
O855 O 0.12496 0.64359 0.87944 0.0
H856 H 0.12034 0.57627 0.94132 0.0
H857 H 0.09815 0.63889 0.96621 0.0
H858 H 0.10906 0.55769 0.98162 0.0
H859 H 0.08783 0.61942 0.00618 0.0
H860 H 0.12187 0.55756 0.81693 0.0
H861 H 0.1093 0.55465 0.90416 0.0
H862 H 0.09771 0.58486 0.83622 0.0
H863 H 0.13359 0.52807 0.88367 0.0
H864 H 0.01144 0.56479 0.98352 0.0
H865 H 0.02706 0.5119 0.93515 0.0
H866 H 0.21974 0.6027 0.92891 0.0
H867 H 0.21381 0.60114 0.85217 0.0
H868 H 0.01435 0.58809 0.88383 0.0
H869 H 0.04251 0.64828 0.9345 0.0
H870 H 0.96113 0.57494 0.90007 0.0
H871 H 0.98877 0.6341 0.94986 0.0
H872 H 0.17146 0.66744 0.90802 0.0
H873 H 0.14619 0.64635 0.83534 0.0
H874 H 0.22554 0.68899 0.89499 0.0
H875 H 0.20072 0.66824 0.82358 0.0
H876 H 0.17014 0.7136 0.95915 0.0
H877 H 0.11481 0.73241 0.90578 0.0
H878 H 0.02031 0.58205 0.8014 0.0
H879 H 0.08552 0.65768 0.79485 0.0
Li880 Li 0.5907 0.13896 0.41161 0.0
Li881 Li 0.63752 0.13038 0.41636 0.0
Li882 Li 0.60505 0.11417 0.3825 0.0
Li883 Li 0.58911 0.09791 0.42125 0.0
C884 C 0.64425 0.17457 0.39322 0.0
N885 N 0.67921 0.22456 0.39893 0.0
C886 C 0.64423 0.18641 0.41496 0.0
C887 C 0.66202 0.18819 0.37438 0.0
C888 C 0.66206 0.21168 0.41749 0.0
C889 C 0.67954 0.21343 0.37762 0.0
C890 C 0.61489 0.12245 0.46256 0.0
C891 C 0.64091 0.10113 0.48654 0.0
N892 N 0.63224 0.11031 0.5065 0.0
C893 C 0.60625 0.13167 0.4833 0.0
C894 C 0.63238 0.10705 0.46416 0.0
C895 C 0.61525 0.12533 0.50536 0.0
C896 C 0.55109 0.15712 0.43655 0.0
N897 N 0.56928 0.16111 0.4169 0.0
C898 C 0.55353 0.19456 0.40462 0.0
C899 C 0.57089 0.1794 0.40104 0.0
C900 C 0.53441 0.19086 0.42473 0.0
C901 C 0.53345 0.17197 0.44092 0.0
H902 H 0.55007 0.14221 0.44868 0.0
H903 H 0.58548 0.18211 0.38552 0.0
C904 C 0.70077 0.13953 0.41233 0.0
N905 N 0.67935 0.14445 0.42585 0.0
C906 C 0.73213 0.15282 0.41596 0.0
C907 C 0.71864 0.17501 0.44812 0.0
C908 C 0.68761 0.16119 0.44398 0.0
C909 C 0.74135 0.17153 0.43347 0.0
H910 H 0.69341 0.12615 0.39798 0.0
H911 H 0.67008 0.16489 0.45432 0.0
C912 C 0.54383 0.11153 0.38173 0.0
N913 N 0.50281 0.1204 0.35057 0.0
C914 C 0.51246 0.09699 0.38276 0.0
C915 C 0.55433 0.13059 0.36484 0.0
C916 C 0.49208 0.10176 0.36685 0.0
C917 C 0.53324 0.13478 0.34925 0.0
C918 C 0.61872 0.07263 0.39414 0.0
C919 C 0.58863 0.05807 0.3875 0.0
C920 C 0.64236 0.06307 0.39156 0.0
C921 C 0.58272 0.03418 0.37834 0.0
C922 C 0.63552 0.03908 0.38234 0.0
N923 N 0.6061 0.02525 0.37597 0.0
C924 C 0.63097 0.1212 0.3373 0.0
C925 C 0.58047 0.09081 0.33832 0.0
C926 C 0.63174 0.11957 0.31258 0.0
N927 N 0.60536 0.10736 0.34951 0.0
C928 C 0.5802 0.08862 0.31358 0.0
C929 C 0.60582 0.10357 0.30036 0.0
H930 H 0.6505 0.13401 0.34676 0.0
H931 H 0.56037 0.08 0.34848 0.0
C932 C 0.53744 0.07024 0.4457 0.0
N933 N 0.5658 0.0704 0.43956 0.0
C934 C 0.5184 0.0515 0.4603 0.0
C935 C 0.55826 0.03343 0.46197 0.0
C936 C 0.57659 0.05261 0.44732 0.0
C937 C 0.52881 0.03283 0.46868 0.0
H938 H 0.5298 0.0849 0.43938 0.0
H939 H 0.5995 0.0535 0.44241 0.0
O940 O 0.62736 0.14974 0.39032 0.0
O941 O 0.60599 0.12844 0.4409 0.0
O942 O 0.5639 0.10703 0.39733 0.0
O943 O 0.62532 0.09613 0.40315 0.0
H944 H 0.63073 0.17624 0.42979 0.0
H945 H 0.66231 0.17933 0.35744 0.0
H946 H 0.6623 0.22104 0.43423 0.0
H947 H 0.69344 0.22418 0.36319 0.0
H948 H 0.65441 0.08922 0.48803 0.0
H949 H 0.5927 0.14361 0.48236 0.0
H950 H 0.6393 0.09971 0.44834 0.0
H951 H 0.60871 0.13233 0.52156 0.0
H952 H 0.55535 0.20922 0.39193 0.0
H953 H 0.51891 0.16848 0.45656 0.0
H954 H 0.74885 0.14933 0.40443 0.0
H955 H 0.72449 0.18948 0.46155 0.0
H956 H 0.50397 0.08216 0.39574 0.0
H957 H 0.5785 0.14203 0.36369 0.0
H958 H 0.46774 0.09064 0.36746 0.0
H959 H 0.54107 0.14946 0.33609 0.0
H960 H 0.56995 0.06501 0.38943 0.0
H961 H 0.66577 0.0741 0.39665 0.0
H962 H 0.55955 0.02272 0.37314 0.0
H963 H 0.65361 0.03145 0.38024 0.0
H964 H 0.65218 0.13109 0.30312 0.0
H965 H 0.55965 0.07619 0.30488 0.0
H966 H 0.49572 0.05152 0.46485 0.0
H967 H 0.56723 0.01952 0.46832 0.0
Li968 Li 0.49478 0.63766 0.91223 0.0
Li969 Li 0.48707 0.59479 0.91468 0.0
Li970 Li 0.49632 0.616 0.87501 0.0
Li971 Li 0.44714 0.6066 0.89808 0.0
C972 C 0.55272 0.64018 0.90688 0.0
N973 N 0.6089 0.67753 0.91535 0.0
C974 C 0.5625 0.64707 0.93021 0.0
C975 C 0.5716 0.65214 0.88786 0.0
C976 C 0.59094 0.66605 0.93411 0.0
C977 C 0.59992 0.67101 0.89252 0.0
C978 C 0.46096 0.60219 0.95294 0.0
C979 C 0.43818 0.56805 0.98018 0.0
N980 N 0.4587 0.58058 -0.00282 0.0
C981 C 0.48178 0.61475 0.97072 0.0
C982 C 0.43888 0.57869 0.95773 0.0
C983 C 0.48025 0.60352 0.99296 0.0
C984 C 0.48752 0.67349 0.94197 0.0
N985 N 0.50781 0.67025 0.92606 0.0
C986 C 0.53119 0.71432 0.92054 0.0
C987 C 0.53025 0.69009 0.91607 0.0
C988 C 0.50836 0.71799 0.93491 0.0
C989 C 0.48744 0.69729 0.94675 0.0
H990 H 0.46914 0.65747 0.94894 0.0
H991 H 0.54531 0.68716 0.90272 0.0
C992 C 0.47605 0.54524 0.92826 0.0
N993 N 0.49418 0.56929 0.93269 0.0
C994 C 0.47721 0.52616 0.94313 0.0
C995 C 0.51684 0.55679 0.96618 0.0
C996 C 0.51495 0.57529 0.9508 0.0
C997 C 0.49735 0.53191 0.96269 0.0
H998 H 0.45993 0.54096 0.91366 0.0
H999 H 0.52918 0.59455 0.95385 0.0
C1000 C 0.46836 0.65989 0.8807 0.0
N1001 N 0.45986 0.70521 0.87904 0.0
C1002 C 0.44374 0.66313 0.89285 0.0
C1003 C 0.4889 0.67987 0.86798 0.0
C1004 C 0.43983 0.68616 0.89178 0.0
C1005 C 0.4841 0.70257 0.86723 0.0
C1006 C 0.43996 0.56727 0.87202 0.0
C1007 C 0.439 0.5682 0.84719 0.0
C1008 C 0.41481 0.55077 0.88441 0.0
C1009 C 0.41282 0.5527 0.83519 0.0
C1010 C 0.38904 0.53561 0.87177 0.0
N1011 N 0.38858 0.53688 0.84763 0.0
C1012 C 0.52841 0.60253 0.83765 0.0
C1013 C 0.50707 0.63334 0.82824 0.0
C1014 C 0.53832 0.60248 0.81416 0.0
N1015 N 0.51294 0.61772 0.84408 0.0
C1016 C 0.51718 0.63435 0.80483 0.0
C1017 C 0.53266 0.61858 0.79753 0.0
H1018 H 0.53227 0.59 0.85061 0.0
H1019 H 0.49361 0.64439 0.83355 0.0
C1020 C 0.38671 0.59671 0.91467 0.0
N1021 N 0.40413 0.59988 0.89468 0.0
C1022 C 0.35585 0.59447 0.91315 0.0
C1023 C 0.36124 0.5985 0.87043 0.0
C1024 C 0.39211 0.60079 0.8728 0.0
C1025 C 0.34277 0.59563 0.89083 0.0
H1026 H 0.39709 0.59691 0.93188 0.0
H1027 H 0.40672 0.6039 0.85725 0.0
O1028 O 0.52507 0.62152 0.90266 0.0
O1029 O 0.46257 0.61263 0.93085 0.0
O1030 O 0.47254 0.63741 0.8815 0.0
O1031 O 0.46527 0.58253 0.88412 0.0
H1032 H 0.54813 0.63808 0.94512 0.0
H1033 H 0.56446 0.64699 0.86971 0.0
H1034 H 0.59871 0.67169 0.95206 0.0
H1035 H 0.61473 0.68048 0.87798 0.0
H1036 H 0.42141 0.54978 0.98404 0.0
H1037 H 0.49919 0.63285 0.96731 0.0
H1038 H 0.42282 0.56855 0.94413 0.0
H1039 H 0.49631 0.61297 0.00683 0.0
H1040 H 0.54793 0.72974 0.9112 0.0
H1041 H 0.46903 0.69899 0.95762 0.0
H1042 H 0.46165 0.50726 0.93987 0.0
H1043 H 0.53304 0.56196 0.98083 0.0
H1044 H 0.42806 0.6482 0.90333 0.0
H1045 H 0.50869 0.67809 0.8591 0.0
H1046 H 0.42094 0.68892 0.90117 0.0
H1047 H 0.49983 0.71816 0.85746 0.0
H1048 H 0.45815 0.58081 0.83725 0.0
H1049 H 0.41494 0.54999 0.90363 0.0
H1050 H 0.41174 0.55328 0.81599 0.0
H1051 H 0.36934 0.52291 0.88116 0.0
H1052 H 0.54988 0.58986 0.80896 0.0
H1053 H 0.51172 0.64651 0.79228 0.0
H1054 H 0.34277 0.59289 0.92941 0.0
H1055 H 0.3521 0.59935 0.85286 0.0
C1056 C 0.59139 0.08153 0.26101 0.0
C1057 C 0.60478 0.10375 0.27398 0.0
H1058 H 0.57879 0.06475 0.22666 0.0
C1059 C 0.61637 0.12649 0.26161 0.0
H1060 H 0.58242 0.0637 0.27003 0.0
C1061 C 0.61448 0.12706 0.23689 0.0
C1062 C 0.60086 0.10493 0.22389 0.0
H1063 H 0.62643 0.14398 0.27106 0.0
H1064 H 0.62385 0.14491 0.22794 0.0
C1065 C 0.58953 0.08211 0.23618 0.0
C1066 C 0.55803 0.6395 0.73498 0.0
C1067 C 0.54247 0.61763 0.72201 0.0
H1068 H 0.56704 0.65691 0.76931 0.0
C1069 C 0.52771 0.59529 0.73458 0.0
H1070 H 0.57034 0.6569 0.72598 0.0
C1071 C 0.52665 0.59525 0.75941 0.0
C1072 C 0.53993 0.61756 0.7721 0.0
H1073 H 0.51516 0.57813 0.72531 0.0
H1074 H 0.51354 0.57814 0.76858 0.0
C1075 C 0.55644 0.63952 0.75978 0.0
C1076 C 0.94536 0.34501 0.23115 0.0
C1077 C 0.94594 0.36619 0.21837 0.0
H1078 H 0.94519 0.32864 0.26535 0.0
C1079 C 0.94951 0.3883 0.23074 0.0
H1080 H 0.94296 0.32781 0.22196 0.0
C1081 C 0.95023 0.3887 0.25557 0.0
C1082 C 0.94768 0.36704 0.26851 0.0
H1083 H 0.9497 0.40482 0.2213 0.0
H1084 H 0.95081 0.40556 0.26454 0.0
C1085 C 0.94646 0.34547 0.25597 0.0
C1086 C 0.4012 0.90441 0.76067 0.0
C1087 C 0.38767 0.88228 0.77374 0.0
H1088 H 0.41401 0.92099 0.72627 0.0
C1089 C 0.376 0.85948 0.76147 0.0
H1090 H 0.41023 0.92228 0.76961 0.0
C1091 C 0.37797 0.85876 0.73677 0.0
C1092 C 0.39175 0.88082 0.72368 0.0
H1093 H 0.36583 0.84205 0.771 0.0
H1094 H 0.36855 0.84088 0.7279 0.0
C1095 C 0.40314 0.90369 0.73587 0.0
C1096 C 0.43813 0.34743 0.26031 0.0
C1097 C 0.45443 0.36932 0.27281 0.0
H1098 H 0.42462 0.3303 0.22635 0.0
C1099 C 0.46765 0.39175 0.26029 0.0
H1100 H 0.42756 0.32995 0.2697 0.0
C1101 C 0.46677 0.39191 0.23546 0.0
C1102 C 0.45227 0.36965 0.22271 0.0
H1103 H 0.48059 0.40882 0.2696 0.0
H1104 H 0.47929 0.40918 0.22634 0.0
C1105 C 0.43674 0.34764 0.23551 0.0
C1106 C 0.04929 0.64112 0.73096 0.0
C1107 C 0.04871 0.61995 0.71815 0.0
H1108 H 0.04942 0.65743 0.76516 0.0
C1109 C 0.04512 0.59782 0.73049 0.0
H1110 H 0.0517 0.65833 0.72178 0.0
C1111 C 0.04439 0.59739 0.75532 0.0
C1112 C 0.04693 0.61903 0.76829 0.0
H1113 H 0.04492 0.58131 0.72102 0.0
H1114 H 0.04379 0.58051 0.76428 0.0
C1115 C 0.04816 0.64061 0.75577 0.0
C1116 C 0.52054 0.98667 0.01686 0.0
C1117 C 0.52334 0.01157 0.01304 0.0
H1118 H 0.49938 0.94867 0.0058 0.0
C1119 C 0.50625 0.01717 0.99469 0.0
H1120 H 0.53352 0.98186 0.03083 0.0
C1121 C 0.48694 -0.00173 0.9803 0.0
C1122 C 0.48432 0.9734 0.98397 0.0
H1123 H 0.50759 0.03617 0.99158 0.0
H1124 H 0.47437 0.00319 0.9661 0.0
C1125 C 0.50123 0.96775 0.00242 0.0
C1126 C 0.52787 0.51144 0.5039 0.0
C1127 C 0.50022 0.51315 0.5124 0.0
H1128 H 0.54902 0.49167 0.48185 0.0
C1129 C 0.472 0.49579 0.50442 0.0
H1130 H 0.54997 0.52431 0.50997 0.0
C1131 C 0.47145 0.47708 0.48835 0.0
C1132 C 0.49911 0.47541 0.47984 0.0
H1133 H 0.45028 0.49688 0.51031 0.0
H1134 H 0.44938 0.46414 0.48231 0.0
C1135 C 0.52732 0.49276 0.48779 0.0
C1136 C 0.02024 0.49916 0.98444 0.0
C1137 C 0.00462 0.51552 0.9793 0.0
H1138 H 0.02108 0.46793 0.00479 0.0
C1139 C 0.97702 0.51265 0.99126 0.0
H1140 H 0.04192 0.5013 0.97581 0.0
C1141 C 0.96495 0.49343 0.00777 0.0
C1142 C 0.98043 0.47687 0.01277 0.0
H1143 H 0.96448 0.52496 0.98751 0.0
H1144 H 0.94315 0.49121 0.0162 0.0
C1145 C 0.00833 0.48008 0.00104 0.0
C1146 C 0.50633 0.98797 0.48049 0.0
C1147 C 0.50889 0.01281 0.48426 0.0
H1148 H 0.48577 0.95002 0.49164 0.0
C1149 C 0.49197 0.01836 0.50276 0.0
H1150 H 0.5189 0.98314 0.46625 0.0
C1151 C 0.47271 -0.00064 0.51715 0.0
C1152 C 0.46996 0.97449 0.51322 0.0
H1153 H 0.49378 0.03741 0.50621 0.0
H1154 H 0.45972 0.00409 0.53116 0.0
C1155 C 0.48706 0.969 0.49483 0.0
C1156 C 0.49824 0.51691 0.00444 0.0
C1157 C 0.49701 0.51219 0.97986 0.0
H1158 H 0.49764 0.50227 0.03952 0.0
C1159 C 0.4945 0.48833 0.97188 0.0
H1160 H 0.49957 0.53497 0.01115 0.0
C1161 C 0.49322 0.46957 0.98813 0.0
C1162 C 0.49444 0.4743 0.0127 0.0
H1163 H 0.49387 0.48421 0.95304 0.0
H1164 H 0.49182 0.45149 0.98143 0.0
C1165 C 0.497 0.49817 0.02068 0.0
C1166 C 0.97439 0.48681 0.4847 0.0
C1167 C 0.99018 0.47064 0.47931 0.0
H1168 H 0.9735 0.51792 0.50519 0.0
C1169 C 0.01804 0.47372 0.49096 0.0
H1170 H 0.95251 0.48448 0.4763 0.0
C1171 C 0.03023 0.49302 0.50738 0.0
C1172 C 0.01459 0.5094 0.51263 0.0
H1173 H 0.0307 0.46155 0.48701 0.0
H1174 H 0.05225 0.49542 0.51555 0.0
C1175 C 0.98641 0.50593 0.50124 0.0
C1176 C 0.50515 0.21473 0.04537 0.0
C1177 C 0.51047 0.20609 0.06772 0.0
H1178 H 0.48887 0.23986 0.02622 0.0
C1179 C 0.50076 0.21509 0.08825 0.0
H1180 H 0.51206 0.20779 0.02925 0.0
C1181 C 0.48797 0.23366 0.08661 0.0
C1182 C 0.48423 0.24347 0.06434 0.0
H1183 H 0.50485 0.20891 0.10572 0.0
H1184 H 0.48301 0.24142 0.10298 0.0
C1185 C 0.49191 0.23309 0.04368 0.0
C1186 C 0.3004 0.59661 0.61456 0.0
C1187 C 0.32363 0.61132 0.59912 0.0
H1188 H 0.25339 0.58645 0.62598 0.0
C1189 C 0.31707 0.62822 0.58386 0.0
H1190 H 0.30461 0.58328 0.62641 0.0
C1191 C 0.28778 0.62985 0.58349 0.0
C1192 C 0.2644 0.61479 0.59852 0.0
H1193 H 0.33462 0.64032 0.57219 0.0
H1194 H 0.28343 0.64298 0.57146 0.0
C1195 C 0.27108 0.59839 0.61431 0.0
C1196 C 0.80818 0.22629 0.03155 0.0
C1197 C 0.82971 0.23566 0.05002 0.0
H1198 H 0.76364 0.20064 0.02177 0.0
C1199 C 0.82576 0.2218 0.07122 0.0
H1200 H 0.81096 0.23599 0.01471 0.0
C1201 C 0.79895 0.20122 0.07505 0.0
C1202 C 0.77544 0.19414 0.05788 0.0
H1203 H 0.84176 0.22812 0.08588 0.0
H1204 H 0.79559 0.19207 0.09223 0.0
C1205 C 0.78114 0.20581 0.03551 0.0
C1206 C 0.49123 0.77308 0.54482 0.0
C1207 C 0.48538 0.78121 0.56725 0.0
H1208 H 0.50852 0.74873 0.52542 0.0
C1209 C 0.49514 0.77212 0.5877 0.0
H1210 H 0.48428 0.78011 0.52876 0.0
C1211 C 0.50853 0.75394 0.58587 0.0
C1212 C 0.51285 0.74462 0.5635 0.0
H1213 H 0.49066 0.7779 0.60523 0.0
H1214 H 0.51352 0.74606 0.60217 0.0
C1215 C 0.50508 0.75512 0.54294 0.0
C1216 C 0.68229 0.36783 0.118 0.0
C1217 C 0.67515 0.38414 0.10239 0.0
H1218 H 0.71575 0.35218 0.12893 0.0
C1219 C 0.69792 0.39877 0.08667 0.0
H1220 H 0.66504 0.35612 0.13013 0.0
C1221 C 0.72697 0.39665 0.08607 0.0
C1222 C 0.73386 0.37971 0.10106 0.0
H1223 H 0.69318 0.41176 0.07468 0.0
H1224 H 0.74399 0.40824 0.07373 0.0
C1225 C 0.71134 0.36559 0.1173 0.0
C1226 C 0.16773 0.76463 0.57081 0.0
C1227 C 0.16345 0.75088 0.54952 0.0
H1228 H 0.19842 0.79398 0.59192 0.0
C1229 C 0.18489 0.76023 0.531 0.0
H1230 H 0.15179 0.75836 0.58551 0.0
C1231 C 0.21218 0.78045 0.53498 0.0
C1232 C 0.21822 0.79192 0.55744 0.0
H1233 H 0.18186 0.75064 0.51408 0.0
H1234 H 0.2296 0.78557 0.52118 0.0
C1235 C 0.1948 0.78497 0.57468 0.0
C1236 C 0.7205 0.37306 0.37346 0.0
C1237 C 0.74323 0.38771 0.38924 0.0
H1238 H 0.6736 0.36199 0.36194 0.0
C1239 C 0.73616 0.40426 0.40457 0.0
H1240 H 0.72522 0.35995 0.36162 0.0
C1241 C 0.7067 0.40563 0.4046 0.0
C1242 C 0.68356 0.39033 0.38944 0.0
H1243 H 0.7534 0.41606 0.41665 0.0
H1244 H 0.70197 0.41852 0.4167 0.0
C1245 C 0.69095 0.3743 0.37361 0.0
C1246 C 0.20586 0.78557 0.95572 0.0
C1247 C 0.21937 0.79661 0.93417 0.0
H1248 H 0.1708 0.75484 0.97242 0.0
C1249 C 0.20412 0.78705 0.91273 0.0
H1250 H 0.21666 0.79281 0.97257 0.0
C1251 C 0.17781 0.7655 0.91268 0.0
C1252 C 0.1662 0.75297 0.93405 0.0
H1253 H 0.21393 0.79485 0.89577 0.0
H1254 H 0.16832 0.75748 0.8957 0.0
C1255 C 0.17956 0.7639 0.95565 0.0
C1256 C 0.50126 0.21391 0.40992 0.0
C1257 C 0.51638 0.20725 0.42891 0.0
H1258 H 0.47874 0.23801 0.39733 0.0
C1259 C 0.51616 0.21787 0.4514 0.0
H1260 H 0.50047 0.20561 0.39251 0.0
C1261 C 0.50337 0.23639 0.4543 0.0
C1262 C 0.49058 0.24463 0.43476 0.0
H1263 H 0.5275 0.21297 0.46642 0.0
H1264 H 0.50491 0.24514 0.47155 0.0
C1265 C 0.48839 0.23231 0.41282 0.0
C1266 C 0.25814 0.58167 0.9044 0.0
C1267 C 0.25114 0.59827 0.88909 0.0
H1268 H 0.29221 0.56724 0.91647 0.0
C1269 C 0.27386 0.61284 0.87328 0.0
H1270 H 0.2409 0.56993 0.91651 0.0
C1271 C 0.30335 0.61148 0.87337 0.0
C1272 C 0.31067 0.59539 0.88918 0.0
H1273 H 0.2692 0.62599 0.86145 0.0
H1274 H 0.3207 0.62374 0.86167 0.0
C1275 C 0.28754 0.58017 0.90439 0.0
C1276 C 0.78698 0.20084 0.45567 0.0
C1277 C 0.77342 0.1899 0.43411 0.0
H1278 H 0.8223 0.23135 0.47244 0.0
C1279 C 0.78871 0.19945 0.41269 0.0
H1280 H 0.77614 0.19361 0.47251 0.0
C1281 C 0.81519 0.22087 0.41267 0.0
C1282 C 0.82691 0.23329 0.43407 0.0
H1283 H 0.77885 0.19172 0.39571 0.0
H1284 H 0.82474 0.22888 0.3957 0.0
C1285 C 0.81346 0.22238 0.45565 0.0
C1286 C 0.50403 0.75396 0.9119 0.0
C1287 C 0.50215 0.7417 0.93384 0.0
H1288 H 0.4916 0.78055 0.8917 0.0
C1289 C 0.48944 0.74988 0.95346 0.0
H1290 H 0.5136 0.74828 0.89636 0.0
C1291 C 0.47649 0.76832 0.95066 0.0
C1292 C 0.47603 0.77891 0.92819 0.0
H1293 H 0.4881 0.74115 0.97071 0.0
H1294 H 0.46526 0.77319 0.96575 0.0
C1295 C 0.49101 0.77227 0.9091 0.0
loop_
_geom_bond_atom_site_label_1
_geom_bond_atom_site_label_2
_geom_bond_distance
_geom_bond_site_symmetry_2
_ccdc_geom_bond_type
Li0 N17 1.990 . S
Li0 O60 1.956 . S
Li0 O61 1.970 . S
Li0 O62 1.961 . S
Li1 N25 1.990 . S
Li1 O60 1.970 . S
Li1 O61 1.956 . S
Li1 O63 1.961 . S
Li2 N47 1.990 . S
Li2 O60 1.961 . S
Li2 O62 1.956 . S
Li2 O63 1.970 . S
Li3 N53 1.990 . S
Li3 O61 1.961 . S
Li3 O62 1.970 . S
Li3 O63 1.956 . S
C4 C6 1.348 . S
C4 C7 1.356 . S
C4 O60 1.325 . S
N5 C8 1.309 1_556 S
N5 C9 1.279 . S
C6 C4 1.348 . S
C6 C8 1.360 . S
C6 H64 0.929 . S
C7 C4 1.356 . S
C7 C9 1.358 1_554 S
C7 H65 0.930 . S
C8 N5 1.309 1_554 S
C8 C6 1.360 . S
C8 H66 0.927 1_554 S
C9 N5 1.279 . S
C9 C7 1.358 1_556 S
C9 H67 0.930 . S
C10 C13 1.348 . S
C10 C14 1.356 . S
C10 O61 1.325 . S
C11 N12 1.279 . S
C11 C14 1.358 . S
C11 H68 0.930 . S
N12 C11 1.279 . S
N12 C15 1.314 . S
C13 C10 1.348 . S
C13 C15 1.353 . S
C13 H69 0.929 . S
C14 C10 1.356 . S
C14 C11 1.358 . S
C14 H70 0.930 . S
C15 N12 1.314 . S
C15 C13 1.353 . S
C15 H71 0.930 . S
C16 N17 1.314 . S
C16 C21 1.353 . S
C16 H22 0.930 . S
N17 Li0 1.990 . S
N17 C16 1.314 . S
N17 C19 1.279 . S
C18 C19 1.358 . S
C18 C20 1.356 . S
C18 H72 0.930 . S
C19 N17 1.279 . S
C19 C18 1.358 . S
C19 H23 0.930 . S
C20 C18 1.356 . S
C20 C21 1.348 . S
C21 C16 1.353 . S
C21 C20 1.348 . S
C21 H73 0.929 . S
H22 C16 0.930 . S
H23 C19 0.930 . S
C24 N25 1.314 . S
C24 C26 1.353 . S
C24 H30 0.930 . S
N25 Li1 1.990 . S
N25 C24 1.314 . S
N25 C28 1.279 . S
C26 C24 1.353 . S
C26 C29 1.348 . S
C26 H74 0.929 . S
C27 C28 1.358 . S
C27 C29 1.356 . S
C27 H75 0.930 . S
C28 N25 1.279 . S
C28 C27 1.358 . S
C28 H31 0.930 . S
C29 C26 1.348 . S
C29 C27 1.356 . S
H30 C24 0.930 . S
H31 C28 0.930 . S
C32 C34 1.348 . S
C32 C35 1.356 . S
C32 O62 1.325 . S
N33 C36 1.314 . S
N33 C37 1.279 . S
C34 C32 1.348 . S
C34 C36 1.353 . S
C34 H76 0.929 . S
C35 C32 1.356 . S
C35 C37 1.358 . S
C35 H77 0.930 . S
C36 N33 1.314 . S
C36 C34 1.353 . S
C36 H78 0.930 . S
C37 N33 1.279 . S
C37 C35 1.358 . S
C37 H79 0.930 . S
C38 C39 1.348 . S
C38 C40 1.356 . S
C38 O63 1.325 . S
C39 C38 1.348 . S
C39 C41 1.353 . S
C39 H80 0.929 . S
C40 C38 1.356 . S
C40 C42 1.358 . S
C40 H81 0.930 . S
C41 C39 1.353 . S
C41 N43 1.314 . S
C41 H82 0.930 . S
C42 C40 1.358 . S
C42 N43 1.279 . S
C42 H83 0.930 . S
N43 C41 1.314 . S
N43 C42 1.279 . S
C44 C46 1.353 . S
C44 N47 1.314 . S
C44 H50 0.930 . S
C45 N47 1.279 . S
C45 C48 1.358 . S
C45 H51 0.930 . S
C46 C44 1.353 . S
C46 C49 1.348 . S
C46 H84 0.929 1_554 S
N47 Li2 1.990 . S
N47 C44 1.314 . S
N47 C45 1.279 . S
C48 C45 1.358 . S
C48 C49 1.356 . S
C48 H85 0.930 . S
C49 C46 1.348 . S
C49 C48 1.356 . S
H50 C44 0.930 . S
H51 C45 0.930 . S
C52 N53 1.314 . S
C52 C54 1.353 . S
C52 H58 0.930 . S
N53 Li3 1.990 . S
N53 C52 1.314 . S
N53 C56 1.279 . S
C54 C52 1.353 . S
C54 C57 1.348 . S
C54 H86 0.929 . S
C55 C56 1.358 . S
C55 C57 1.356 . S
C55 H87 0.930 . S
C56 N53 1.279 . S
C56 C55 1.358 . S
C56 H59 0.930 . S
C57 C54 1.348 . S
C57 C55 1.356 . S
H58 C52 0.930 . S
H59 C56 0.930 . S
O60 Li0 1.956 . S
O60 Li1 1.970 . S
O60 Li2 1.961 . S
O60 C4 1.325 . S
O61 Li0 1.970 . S
O61 Li1 1.956 . S
O61 Li3 1.961 . S
O61 C10 1.325 . S
O62 Li0 1.961 . S
O62 Li2 1.956 . S
O62 Li3 1.970 . S
O62 C32 1.325 . S
O63 Li1 1.961 . S
O63 Li2 1.970 . S
O63 Li3 1.956 . S
O63 C38 1.325 . S
H64 C6 0.929 . S
H65 C7 0.930 . S
H66 C8 0.927 1_556 S
H67 C9 0.930 . S
H68 C11 0.930 . S
H69 C13 0.929 . S
H70 C14 0.930 . S
H71 C15 0.930 . S
H72 C18 0.930 . S
H73 C21 0.929 . S
H74 C26 0.929 . S
H75 C27 0.930 . S
H76 C34 0.929 . S
H77 C35 0.930 . S
H78 C36 0.930 . S
H79 C37 0.930 . S
H80 C39 0.929 . S
H81 C40 0.930 . S
H82 C41 0.930 . S
H83 C42 0.930 . S
H84 C46 0.929 1_556 S
H85 C48 0.930 . S
H86 C54 0.929 . S
H87 C55 0.930 . S
Li88 N105 1.990 . S
Li88 O148 1.956 . S
Li88 O149 1.970 . S
Li88 O150 1.961 . S
Li89 N113 1.990 . S
Li89 O148 1.970 . S
Li89 O149 1.956 . S
Li89 O151 1.961 . S
Li90 N135 1.990 . S
Li90 O148 1.961 . S
Li90 O150 1.956 . S
Li90 O151 1.970 . S
Li91 N141 1.990 . S
Li91 O149 1.961 . S
Li91 O150 1.970 . S
Li91 O151 1.956 . S
C92 C94 1.348 . S
C92 C95 1.356 . S
C92 O148 1.325 . S
N93 C96 1.314 . S
N93 C97 1.279 . S
C94 C92 1.348 . S
C94 C96 1.353 . S
C94 H152 0.929 . S
C95 C92 1.356 . S
C95 C97 1.358 . S
C95 H153 0.930 . S
C96 N93 1.314 . S
C96 C94 1.353 . S
C96 H154 0.930 . S
C97 N93 1.279 . S
C97 C95 1.358 . S
C97 H155 0.930 . S
C98 C101 1.348 . S
C98 C102 1.356 . S
C98 O149 1.325 . S
C99 N100 1.279 . S
C99 C102 1.358 . S
C99 H156 0.930 . S
N100 C99 1.279 . S
N100 C103 1.314 . S
C101 C98 1.348 . S
C101 C103 1.353 . S
C101 H157 0.929 . S
C102 C98 1.356 . S
C102 C99 1.358 . S
C102 H158 0.930 . S
C103 N100 1.314 . S
C103 C101 1.353 . S
C103 H159 0.930 . S
C104 N105 1.314 . S
C104 C109 1.353 . S
C104 H110 0.930 . S
N105 Li88 1.990 . S
N105 C104 1.314 . S
N105 C107 1.279 . S
C106 C107 1.358 . S
C106 C108 1.356 . S
C106 H160 0.930 . S
C107 N105 1.279 . S
C107 C106 1.358 . S
C107 H111 0.930 . S
C108 C106 1.356 . S
C108 C109 1.348 . S
C109 C104 1.353 . S
C109 C108 1.348 . S
C109 H161 0.929 . S
H110 C104 0.930 . S
H111 C107 0.930 . S
C112 N113 1.314 . S
C112 C114 1.353 . S
C112 H118 0.930 . S
N113 Li89 1.990 . S
N113 C112 1.314 . S
N113 C116 1.279 . S
C114 C112 1.353 . S
C114 C117 1.348 . S
C114 H162 0.929 . S
C115 C116 1.358 . S
C115 C117 1.356 . S
C115 H163 0.930 . S
C116 N113 1.279 . S
C116 C115 1.358 . S
C116 H119 0.930 . S
C117 C114 1.348 . S
C117 C115 1.356 . S
H118 C112 0.930 . S
H119 C116 0.930 . S
C120 C122 1.348 . S
C120 C123 1.356 . S
C120 O150 1.325 . S
N121 C124 1.314 . S
N121 C125 1.279 . S
C122 C120 1.348 . S
C122 C124 1.353 . S
C122 H164 0.929 . S
C123 C120 1.356 . S
C123 C125 1.358 . S
C123 H165 0.930 . S
C124 N121 1.314 . S
C124 C122 1.353 . S
C124 H166 0.930 . S
C125 N121 1.279 . S
C125 C123 1.358 . S
C125 H167 0.930 . S
C126 C127 1.348 . S
C126 C128 1.356 . S
C126 O151 1.325 . S
C127 C126 1.348 . S
C127 C129 1.353 . S
C127 H168 0.929 . S
C128 C126 1.356 . S
C128 C130 1.358 . S
C128 H169 0.930 . S
C129 C127 1.353 . S
C129 N131 1.314 . S
C129 H170 0.930 . S
C130 C128 1.358 . S
C130 N131 1.279 . S
C130 H171 0.930 . S
N131 C129 1.314 . S
N131 C130 1.279 . S
C132 C134 1.353 . S
C132 N135 1.314 . S
C132 H138 0.930 . S
C133 N135 1.279 . S
C133 C136 1.358 . S
C133 H139 0.930 . S
C134 C132 1.353 . S
C134 C137 1.348 . S
C134 H172 0.929 . S
N135 Li90 1.990 . S
N135 C132 1.314 . S
N135 C133 1.279 . S
C136 C133 1.358 . S
C136 C137 1.356 . S
C136 H173 0.930 . S
C137 C134 1.348 . S
C137 C136 1.356 . S
H138 C132 0.930 . S
H139 C133 0.930 . S
C140 N141 1.314 . S
C140 C142 1.353 . S
C140 H146 0.930 . S
N141 Li91 1.990 . S
N141 C140 1.314 . S
N141 C144 1.279 . S
C142 C140 1.353 . S
C142 C145 1.348 . S
C142 H174 0.929 . S
C143 C144 1.358 . S
C143 C145 1.356 . S
C143 H175 0.930 . S
C144 N141 1.279 . S
C144 C143 1.358 . S
C144 H147 0.930 . S
C145 C142 1.348 . S
C145 C143 1.356 . S
H146 C140 0.930 . S
H147 C144 0.930 . S
O148 Li88 1.956 . S
O148 Li89 1.970 . S
O148 Li90 1.961 . S
O148 C92 1.325 . S
O149 Li88 1.970 . S
O149 Li89 1.956 . S
O149 Li91 1.961 . S
O149 C98 1.325 . S
O150 Li88 1.961 . S
O150 Li90 1.956 . S
O150 Li91 1.970 . S
O150 C120 1.325 . S
O151 Li89 1.961 . S
O151 Li90 1.970 . S
O151 Li91 1.956 . S
O151 C126 1.325 . S
H152 C94 0.929 . S
H153 C95 0.930 . S
H154 C96 0.930 . S
H155 C97 0.930 . S
H156 C99 0.930 . S
H157 C101 0.929 . S
H158 C102 0.930 . S
H159 C103 0.930 . S
H160 C106 0.930 . S
H161 C109 0.929 . S
H162 C114 0.929 . S
H163 C115 0.930 . S
H164 C122 0.929 . S
H165 C123 0.930 . S
H166 C124 0.930 . S
H167 C125 0.930 . S
H168 C127 0.929 . S
H169 C128 0.930 . S
H170 C129 0.930 . S
H171 C130 0.930 . S
H172 C134 0.929 . S
H173 C136 0.930 . S
H174 C142 0.929 . S
H175 C143 0.930 . S
Li176 N193 1.990 . S
Li176 O236 1.956 . S
Li176 O237 1.970 . S
Li176 O238 1.961 . S
Li177 N201 1.990 . S
Li177 O236 1.970 . S
Li177 O237 1.956 . S
Li177 O239 1.961 . S
Li178 N223 1.990 . S
Li178 O236 1.961 . S
Li178 O238 1.956 . S
Li178 O239 1.970 . S
Li179 N229 1.990 . S
Li179 O237 1.961 . S
Li179 O238 1.970 . S
Li179 O239 1.956 . S
C180 C182 1.348 . S
C180 C183 1.356 . S
C180 O236 1.325 . S
N181 C184 1.314 . S
N181 C185 1.279 . S
C182 C180 1.348 . S
C182 C184 1.353 . S
C182 H240 0.929 . S
C183 C180 1.356 . S
C183 C185 1.358 . S
C183 H241 0.930 . S
C184 N181 1.314 . S
C184 C182 1.353 . S
C184 H242 0.930 . S
C185 N181 1.279 . S
C185 C183 1.358 . S
C185 H243 0.930 . S
C186 C189 1.348 . S
C186 C190 1.356 . S
C186 O237 1.325 . S
C187 N188 1.279 . S
C187 C190 1.358 . S
C187 H244 0.930 . S
N188 C187 1.279 . S
N188 C191 1.314 . S
C189 C186 1.348 . S
C189 C191 1.353 . S
C189 H245 0.929 . S
C190 C186 1.356 . S
C190 C187 1.358 . S
C190 H246 0.930 . S
C191 N188 1.314 . S
C191 C189 1.353 . S
C191 H247 0.930 . S
C192 N193 1.314 . S
C192 C197 1.353 . S
C192 H198 0.930 . S
N193 Li176 1.990 . S
N193 C192 1.314 . S
N193 C195 1.279 . S
C194 C195 1.358 . S
C194 C196 1.356 . S
C194 H248 0.930 . S
C195 N193 1.279 . S
C195 C194 1.358 . S
C195 H199 0.930 . S
C196 C194 1.356 . S
C196 C197 1.348 . S
C197 C192 1.353 . S
C197 C196 1.348 . S
C197 H249 0.929 . S
H198 C192 0.930 . S
H199 C195 0.930 . S
C200 N201 1.314 . S
C200 C202 1.353 . S
C200 H206 0.930 . S
N201 Li177 1.990 . S
N201 C200 1.314 . S
N201 C204 1.279 . S
C202 C200 1.353 . S
C202 C205 1.348 . S
C202 H250 0.929 . S
C203 C204 1.358 . S
C203 C205 1.356 . S
C203 H251 0.930 . S
C204 N201 1.279 . S
C204 C203 1.358 . S
C204 H207 0.930 . S
C205 C202 1.348 . S
C205 C203 1.356 . S
H206 C200 0.930 . S
H207 C204 0.930 . S
C208 C210 1.348 . S
C208 C211 1.356 . S
C208 O238 1.325 . S
N209 C212 1.314 . S
N209 C213 1.279 . S
C210 C208 1.348 . S
C210 C212 1.353 1_554 S
C210 H252 0.929 . S
C211 C208 1.356 . S
C211 C213 1.358 1_554 S
C211 H253 0.930 . S
C212 N209 1.314 . S
C212 C210 1.353 1_556 S
C212 H254 0.930 . S
C213 N209 1.279 . S
C213 C211 1.358 1_556 S
C213 H255 0.930 . S
C214 C215 1.348 . S
C214 C216 1.356 . S
C214 O239 1.325 . S
C215 C214 1.348 . S
C215 C217 1.353 . S
C215 H256 0.929 . S
C216 C214 1.356 . S
C216 C218 1.358 . S
C216 H257 0.930 . S
C217 C215 1.353 . S
C217 N219 1.314 . S
C217 H258 0.930 . S
C218 C216 1.358 . S
C218 N219 1.279 . S
C218 H259 0.930 . S
N219 C217 1.314 . S
N219 C218 1.279 . S
C220 C222 1.353 . S
C220 N223 1.314 . S
C220 H226 0.930 . S
C221 N223 1.279 . S
C221 C224 1.358 . S
C221 H227 0.930 . S
C222 C220 1.353 . S
C222 C225 1.348 . S
C222 H260 0.929 1_655 S
N223 Li178 1.990 . S
N223 C220 1.314 . S
N223 C221 1.279 . S
C224 C221 1.358 . S
C224 C225 1.356 . S
C224 H261 0.930 1_554 S
C225 C222 1.348 . S
C225 C224 1.356 . S
H226 C220 0.930 . S
H227 C221 0.930 . S
C228 N229 1.314 . S
C228 C230 1.353 . S
C228 H234 0.930 . S
N229 Li179 1.990 . S
N229 C228 1.314 . S
N229 C232 1.279 . S
C230 C228 1.353 . S
C230 C233 1.348 . S
C230 H262 0.929 . S
C231 C232 1.358 . S
C231 C233 1.356 . S
C231 H263 0.930 . S
C232 N229 1.279 . S
C232 C231 1.358 . S
C232 H235 0.930 . S
C233 C230 1.348 . S
C233 C231 1.356 . S
H234 C228 0.930 . S
H235 C232 0.930 . S
O236 Li176 1.956 . S
O236 Li177 1.970 . S
O236 Li178 1.961 . S
O236 C180 1.325 . S
O237 Li176 1.970 . S
O237 Li177 1.956 . S
O237 Li179 1.961 . S
O237 C186 1.325 . S
O238 Li176 1.961 . S
O238 Li178 1.956 . S
O238 Li179 1.970 . S
O238 C208 1.325 . S
O239 Li177 1.961 . S
O239 Li178 1.970 . S
O239 Li179 1.956 . S
O239 C214 1.325 . S
H240 C182 0.929 . S
H241 C183 0.930 . S
H242 C184 0.930 . S
H243 C185 0.930 . S
H244 C187 0.930 . S
H245 C189 0.929 . S
H246 C190 0.930 . S
H247 C191 0.930 . S
H248 C194 0.930 . S
H249 C197 0.929 . S
H250 C202 0.929 . S
H251 C203 0.930 . S
H252 C210 0.929 . S
H253 C211 0.930 . S
H254 C212 0.930 . S
H255 C213 0.930 . S
H256 C215 0.929 . S
H257 C216 0.930 . S
H258 C217 0.930 . S
H259 C218 0.930 . S
H260 C222 0.929 1_455 S
H261 C224 0.930 1_556 S
H262 C230 0.929 . S
H263 C231 0.930 . S
Li264 N281 1.990 . S
Li264 O324 1.956 . S
Li264 O325 1.970 . S
Li264 O326 1.961 . S
Li265 N289 1.990 . S
Li265 O324 1.970 . S
Li265 O325 1.956 . S
Li265 O327 1.961 . S
Li266 N311 1.990 . S
Li266 O324 1.961 . S
Li266 O326 1.956 . S
Li266 O327 1.970 . S
Li267 N317 1.990 . S
Li267 O325 1.961 . S
Li267 O326 1.970 . S
Li267 O327 1.956 . S
C268 C270 1.348 . S
C268 C271 1.356 . S
C268 O324 1.325 . S
N269 C272 1.314 . S
N269 C273 1.279 . S
C270 C268 1.348 . S
C270 C272 1.353 . S
C270 H328 0.929 . S
C271 C268 1.356 . S
C271 C273 1.358 . S
C271 H329 0.930 . S
C272 N269 1.314 . S
C272 C270 1.353 . S
C272 H330 0.930 . S
C273 N269 1.279 . S
C273 C271 1.358 . S
C273 H331 0.930 . S
C274 C277 1.348 . S
C274 C278 1.356 . S
C274 O325 1.325 . S
C275 N276 1.279 . S
C275 C278 1.358 . S
C275 H332 0.930 . S
N276 C275 1.279 . S
N276 C279 1.314 . S
C277 C274 1.348 . S
C277 C279 1.353 . S
C277 H333 0.929 . S
C278 C274 1.356 . S
C278 C275 1.358 . S
C278 H334 0.930 . S
C279 N276 1.314 . S
C279 C277 1.353 . S
C279 H335 0.930 . S
C280 N281 1.314 . S
C280 C285 1.353 . S
C280 H286 0.930 . S
N281 Li264 1.990 . S
N281 C280 1.314 . S
N281 C283 1.279 . S
C282 C283 1.358 . S
C282 C284 1.356 . S
C282 H336 0.930 . S
C283 N281 1.279 . S
C283 C282 1.358 . S
C283 H287 0.930 . S
C284 C282 1.356 . S
C284 C285 1.348 . S
C285 C280 1.353 . S
C285 C284 1.348 . S
C285 H337 0.929 . S
H286 C280 0.930 . S
H287 C283 0.930 . S
C288 N289 1.314 . S
C288 C290 1.353 . S
C288 H294 0.930 . S
N289 Li265 1.990 . S
N289 C288 1.314 . S
N289 C292 1.279 . S
C290 C288 1.353 . S
C290 C293 1.348 . S
C290 H338 0.929 . S
C291 C292 1.358 . S
C291 C293 1.356 . S
C291 H339 0.930 . S
C292 N289 1.279 . S
C292 C291 1.358 . S
C292 H295 0.930 . S
C293 C290 1.348 . S
C293 C291 1.356 . S
H294 C288 0.930 . S
H295 C292 0.930 . S
C296 C298 1.348 . S
C296 C299 1.356 . S
C296 O326 1.325 . S
N297 C300 1.314 . S
N297 C301 1.279 . S
C298 C296 1.348 . S
C298 C300 1.353 . S
C298 H340 0.929 . S
C299 C296 1.356 . S
C299 C301 1.358 . S
C299 H341 0.930 . S
C300 N297 1.314 . S
C300 C298 1.353 . S
C300 H342 0.930 . S
C301 N297 1.279 . S
C301 C299 1.358 . S
C301 H343 0.930 . S
C302 C303 1.348 . S
C302 C304 1.356 . S
C302 O327 1.325 . S
C303 C302 1.348 . S
C303 C305 1.353 . S
C303 H344 0.929 . S
C304 C302 1.356 . S
C304 C306 1.358 . S
C304 H345 0.930 . S
C305 C303 1.353 . S
C305 N307 1.314 . S
C305 H346 0.930 . S
C306 C304 1.358 . S
C306 N307 1.279 . S
C306 H347 0.930 . S
N307 C305 1.314 . S
N307 C306 1.279 . S
C308 C310 1.353 . S
C308 N311 1.314 . S
C308 H314 0.930 . S
C309 N311 1.279 . S
C309 C312 1.358 . S
C309 H315 0.930 . S
C310 C308 1.353 . S
C310 C313 1.348 . S
C310 H348 0.929 . S
N311 Li266 1.990 . S
N311 C308 1.314 . S
N311 C309 1.279 . S
C312 C309 1.358 . S
C312 C313 1.356 . S
C312 H349 0.930 . S
C313 C310 1.348 . S
C313 C312 1.356 . S
H314 C308 0.930 . S
H315 C309 0.930 . S
C316 N317 1.314 . S
C316 C318 1.353 . S
C316 H322 0.930 . S
N317 Li267 1.990 . S
N317 C316 1.314 . S
N317 C320 1.279 . S
C318 C316 1.353 . S
C318 C321 1.348 . S
C318 H350 0.929 . S
C319 C320 1.358 . S
C319 C321 1.356 . S
C319 H351 0.930 . S
C320 N317 1.279 . S
C320 C319 1.358 . S
C320 H323 0.930 . S
C321 C318 1.348 . S
C321 C319 1.356 . S
H322 C316 0.930 . S
H323 C320 0.930 . S
O324 Li264 1.956 . S
O324 Li265 1.970 . S
O324 Li266 1.961 . S
O324 C268 1.325 . S
O325 Li264 1.970 . S
O325 Li265 1.956 . S
O325 Li267 1.961 . S
O325 C274 1.325 . S
O326 Li264 1.961 . S
O326 Li266 1.956 . S
O326 Li267 1.970 . S
O326 C296 1.325 . S
O327 Li265 1.961 . S
O327 Li266 1.970 . S
O327 Li267 1.956 . S
O327 C302 1.325 . S
H328 C270 0.929 . S
H329 C271 0.930 . S
H330 C272 0.930 . S
H331 C273 0.930 . S
H332 C275 0.930 . S
H333 C277 0.929 . S
H334 C278 0.930 . S
H335 C279 0.930 . S
H336 C282 0.930 . S
H337 C285 0.929 . S
H338 C290 0.929 . S
H339 C291 0.930 . S
H340 C298 0.929 . S
H341 C299 0.930 . S
H342 C300 0.930 . S
H343 C301 0.930 . S
H344 C303 0.929 . S
H345 C304 0.930 . S
H346 C305 0.930 . S
H347 C306 0.930 . S
H348 C310 0.929 . S
H349 C312 0.930 . S
H350 C318 0.929 . S
H351 C319 0.930 . S
Li352 N369 1.990 . S
Li352 O412 1.956 . S
Li352 O413 1.970 . S
Li352 O414 1.961 . S
Li353 N377 1.990 . S
Li353 O412 1.970 . S
Li353 O413 1.956 . S
Li353 O415 1.961 . S
Li354 N399 1.990 . S
Li354 O412 1.961 . S
Li354 O414 1.956 . S
Li354 O415 1.970 . S
Li355 N405 1.990 . S
Li355 O413 1.961 . S
Li355 O414 1.970 . S
Li355 O415 1.956 . S
C356 C358 1.348 . S
C356 C359 1.356 . S
C356 O412 1.325 . S
N357 C360 1.314 . S
N357 C361 1.279 . S
C358 C356 1.348 . S
C358 C360 1.353 . S
C358 H416 0.929 . S
C359 C356 1.356 . S
C359 C361 1.358 . S
C359 H417 0.930 . S
C360 N357 1.314 . S
C360 C358 1.353 . S
C360 H418 0.930 . S
C361 N357 1.279 . S
C361 C359 1.358 . S
C361 H419 0.930 . S
C362 C365 1.348 . S
C362 C366 1.356 . S
C362 O413 1.325 . S
C363 N364 1.279 . S
C363 C366 1.358 . S
C363 H420 0.930 . S
N364 C363 1.279 . S
N364 C367 1.314 . S
C365 C362 1.348 . S
C365 C367 1.353 . S
C365 H421 0.929 . S
C366 C362 1.356 . S
C366 C363 1.358 . S
C366 H422 0.930 . S
C367 N364 1.314 . S
C367 C365 1.353 . S
C367 H423 0.930 . S
C368 N369 1.314 . S
C368 C373 1.353 . S
C368 H374 0.930 . S
N369 Li352 1.990 . S
N369 C368 1.314 . S
N369 C371 1.279 . S
C370 C371 1.358 . S
C370 C372 1.356 . S
C370 H424 0.930 . S
C371 N369 1.279 . S
C371 C370 1.358 . S
C371 H375 0.930 . S
C372 C370 1.356 . S
C372 C373 1.348 . S
C373 C368 1.353 . S
C373 C372 1.348 . S
C373 H425 0.929 . S
H374 C368 0.930 . S
H375 C371 0.930 . S
C376 N377 1.314 . S
C376 C378 1.353 . S
C376 H382 0.930 . S
N377 Li353 1.990 . S
N377 C376 1.314 . S
N377 C380 1.279 . S
C378 C376 1.353 . S
C378 C381 1.348 . S
C378 H426 0.929 . S
C379 C380 1.358 . S
C379 C381 1.356 . S
C379 H427 0.930 . S
C380 N377 1.279 . S
C380 C379 1.358 . S
C380 H383 0.930 . S
C381 C378 1.348 . S
C381 C379 1.356 . S
H382 C376 0.930 . S
H383 C380 0.930 . S
C384 C386 1.348 . S
C384 C387 1.356 . S
C384 O414 1.325 . S
N385 C388 1.314 . S
N385 C389 1.279 . S
C386 C384 1.348 . S
C386 C388 1.353 . S
C386 H428 0.929 . S
C387 C384 1.356 . S
C387 C389 1.358 . S
C387 H429 0.930 . S
C388 N385 1.314 . S
C388 C386 1.353 . S
C388 H430 0.930 . S
C389 N385 1.279 . S
C389 C387 1.358 . S
C389 H431 0.930 . S
C390 C391 1.348 . S
C390 C392 1.356 . S
C390 O415 1.325 . S
C391 C390 1.348 . S
C391 C393 1.353 . S
C391 H432 0.929 . S
C392 C390 1.356 . S
C392 C394 1.358 1_554 S
C392 H433 0.930 . S
C393 C391 1.353 . S
C393 N395 1.314 1_554 S
C393 H434 0.930 1_554 S
C394 C392 1.358 1_556 S
C394 N395 1.279 . S
C394 H435 0.930 . S
N395 C393 1.314 1_556 S
N395 C394 1.279 . S
C396 C398 1.353 . S
C396 N399 1.314 . S
C396 H402 0.930 . S
C397 N399 1.279 . S
C397 C400 1.358 . S
C397 H403 0.930 . S
C398 C396 1.353 . S
C398 C401 1.348 . S
C398 H436 0.929 . S
N399 Li354 1.990 . S
N399 C396 1.314 . S
N399 C397 1.279 . S
C400 C397 1.358 . S
C400 C401 1.356 . S
C400 H437 0.930 . S
C401 C398 1.348 . S
C401 C400 1.356 . S
H402 C396 0.930 . S
H403 C397 0.930 . S
C404 N405 1.314 . S
C404 C406 1.353 . S
C404 H410 0.930 . S
N405 Li355 1.990 . S
N405 C404 1.314 . S
N405 C408 1.279 . S
C406 C404 1.353 . S
C406 C409 1.348 . S
C406 H438 0.929 . S
C407 C408 1.358 . S
C407 C409 1.356 . S
C407 H439 0.930 1_554 S
C408 N405 1.279 . S
C408 C407 1.358 . S
C408 H411 0.930 . S
C409 C406 1.348 . S
C409 C407 1.356 . S
H410 C404 0.930 . S
H411 C408 0.930 . S
O412 Li352 1.956 . S
O412 Li353 1.970 . S
O412 Li354 1.961 . S
O412 C356 1.325 . S
O413 Li352 1.970 . S
O413 Li353 1.956 . S
O413 Li355 1.961 . S
O413 C362 1.325 . S
O414 Li352 1.961 . S
O414 Li354 1.956 . S
O414 Li355 1.970 . S
O414 C384 1.325 . S
O415 Li353 1.961 . S
O415 Li354 1.970 . S
O415 Li355 1.956 . S
O415 C390 1.325 . S
H416 C358 0.929 . S
H417 C359 0.930 . S
H418 C360 0.930 . S
H419 C361 0.930 . S
H420 C363 0.930 . S
H421 C365 0.929 . S
H422 C366 0.930 . S
H423 C367 0.930 . S
H424 C370 0.930 . S
H425 C373 0.929 . S
H426 C378 0.929 . S
H427 C379 0.930 . S
H428 C386 0.929 . S
H429 C387 0.930 . S
H430 C388 0.930 . S
H431 C389 0.930 . S
H432 C391 0.929 . S
H433 C392 0.930 . S
H434 C393 0.930 1_556 S
H435 C394 0.930 . S
H436 C398 0.929 . S
H437 C400 0.930 . S
H438 C406 0.929 . S
H439 C407 0.930 1_556 S
Li440 N457 1.990 . S
Li440 O500 1.956 . S
Li440 O501 1.970 . S
Li440 O502 1.961 . S
Li441 N465 1.990 . S
Li441 O500 1.970 . S
Li441 O501 1.956 . S
Li441 O503 1.961 . S
Li442 N487 1.990 . S
Li442 O500 1.961 . S
Li442 O502 1.956 . S
Li442 O503 1.970 . S
Li443 N493 1.990 . S
Li443 O501 1.961 . S
Li443 O502 1.970 . S
Li443 O503 1.956 . S
C444 C446 1.348 . S
C444 C447 1.356 . S
C444 O500 1.325 . S
N445 C448 1.314 . S
N445 C449 1.279 . S
C446 C444 1.348 . S
C446 C448 1.353 . S
C446 H504 0.929 . S
C447 C444 1.356 . S
C447 C449 1.358 . S
C447 H505 0.930 . S
C448 N445 1.314 . S
C448 C446 1.353 . S
C448 H506 0.930 . S
C449 N445 1.279 . S
C449 C447 1.358 . S
C449 H507 0.930 . S
C450 C453 1.348 . S
C450 C454 1.356 . S
C450 O501 1.325 . S
C451 N452 1.279 . S
C451 C454 1.358 . S
C451 H508 0.930 . S
N452 C451 1.279 . S
N452 C455 1.314 . S
C453 C450 1.348 . S
C453 C455 1.353 . S
C453 H509 0.929 . S
C454 C450 1.356 . S
C454 C451 1.358 . S
C454 H510 0.930 . S
C455 N452 1.314 . S
C455 C453 1.353 . S
C455 H511 0.930 . S
C456 N457 1.314 . S
C456 C461 1.353 . S
C456 H462 0.930 . S
N457 Li440 1.990 . S
N457 C456 1.314 . S
N457 C459 1.279 . S
C458 C459 1.358 . S
C458 C460 1.356 . S
C458 H512 0.930 . S
C459 N457 1.279 . S
C459 C458 1.358 . S
C459 H463 0.930 . S
C460 C458 1.356 . S
C460 C461 1.348 . S
C461 C456 1.353 . S
C461 C460 1.348 . S
C461 H513 0.929 . S
H462 C456 0.930 . S
H463 C459 0.930 . S
C464 N465 1.314 . S
C464 C466 1.353 . S
C464 H470 0.930 . S
N465 Li441 1.990 . S
N465 C464 1.314 . S
N465 C468 1.279 . S
C466 C464 1.353 . S
C466 C469 1.348 . S
C466 H514 0.929 . S
C467 C468 1.358 . S
C467 C469 1.356 . S
C467 H515 0.930 . S
C468 N465 1.279 . S
C468 C467 1.358 . S
C468 H471 0.930 . S
C469 C466 1.348 . S
C469 C467 1.356 . S
H470 C464 0.930 . S
H471 C468 0.930 . S
C472 C474 1.348 . S
C472 C475 1.356 . S
C472 O502 1.325 . S
N473 C476 1.314 . S
N473 C477 1.279 . S
C474 C472 1.348 . S
C474 C476 1.353 . S
C474 H516 0.929 . S
C475 C472 1.356 . S
C475 C477 1.358 . S
C475 H517 0.930 . S
C476 N473 1.314 . S
C476 C474 1.353 . S
C476 H518 0.930 . S
C477 N473 1.279 . S
C477 C475 1.358 . S
C477 H519 0.930 . S
C478 C479 1.348 . S
C478 C480 1.356 . S
C478 O503 1.325 . S
C479 C478 1.348 . S
C479 C481 1.353 . S
C479 H520 0.929 . S
C480 C478 1.356 . S
C480 C482 1.358 . S
C480 H521 0.930 . S
C481 C479 1.353 . S
C481 N483 1.314 . S
C481 H522 0.930 . S
C482 C480 1.358 . S
C482 N483 1.279 . S
C482 H523 0.930 . S
N483 C481 1.314 . S
N483 C482 1.279 . S
C484 C486 1.353 . S
C484 N487 1.314 . S
C484 H490 0.930 . S
C485 N487 1.279 . S
C485 C488 1.358 . S
C485 H491 0.930 . S
C486 C484 1.353 . S
C486 C489 1.348 . S
C486 H524 0.929 . S
N487 Li442 1.990 . S
N487 C484 1.314 . S
N487 C485 1.279 . S
C488 C485 1.358 . S
C488 C489 1.356 . S
C488 H525 0.930 . S
C489 C486 1.348 . S
C489 C488 1.356 . S
H490 C484 0.930 . S
H491 C485 0.930 . S
C492 N493 1.314 . S
C492 C494 1.353 . S
C492 H498 0.930 . S
N493 Li443 1.990 . S
N493 C492 1.314 . S
N493 C496 1.279 . S
C494 C492 1.353 . S
C494 C497 1.348 . S
C494 H526 0.929 1_455 S
C495 C496 1.358 . S
C495 C497 1.356 . S
C495 H527 0.930 . S
C496 N493 1.279 . S
C496 C495 1.358 . S
C496 H499 0.930 . S
C497 C494 1.348 . S
C497 C495 1.356 . S
H498 C492 0.930 . S
H499 C496 0.930 . S
O500 Li440 1.956 . S
O500 Li441 1.970 . S
O500 Li442 1.961 . S
O500 C444 1.325 . S
O501 Li440 1.970 . S
O501 Li441 1.956 . S
O501 Li443 1.961 . S
O501 C450 1.325 . S
O502 Li440 1.961 . S
O502 Li442 1.956 . S
O502 Li443 1.970 . S
O502 C472 1.325 . S
O503 Li441 1.961 . S
O503 Li442 1.970 . S
O503 Li443 1.956 . S
O503 C478 1.325 . S
H504 C446 0.929 . S
H505 C447 0.930 . S
H506 C448 0.930 . S
H507 C449 0.930 . S
H508 C451 0.930 . S
H509 C453 0.929 . S
H510 C454 0.930 . S
H511 C455 0.930 . S
H512 C458 0.930 . S
H513 C461 0.929 . S
H514 C466 0.929 . S
H515 C467 0.930 . S
H516 C474 0.929 . S
H517 C475 0.930 . S
H518 C476 0.930 . S
H519 C477 0.930 . S
H520 C479 0.929 . S
H521 C480 0.930 . S
H522 C481 0.930 . S
H523 C482 0.930 . S
H524 C486 0.929 . S
H525 C488 0.930 . S
H526 C494 0.929 1_655 S
H527 C495 0.930 . S
Li528 N545 1.990 . S
Li528 O588 1.956 . S
Li528 O589 1.970 . S
Li528 O590 1.961 . S
Li529 N553 1.990 . S
Li529 O588 1.970 . S
Li529 O589 1.956 . S
Li529 O591 1.961 . S
Li530 N575 1.990 . S
Li530 O588 1.961 . S
Li530 O590 1.956 . S
Li530 O591 1.970 . S
Li531 N581 1.990 . S
Li531 O589 1.961 . S
Li531 O590 1.970 . S
Li531 O591 1.956 . S
C532 C534 1.348 . S
C532 C535 1.356 . S
C532 O588 1.325 . S
N533 C536 1.314 . S
N533 C537 1.279 . S
C534 C532 1.348 . S
C534 C536 1.353 . S
C534 H592 0.929 . S
C535 C532 1.356 . S
C535 C537 1.358 . S
C535 H593 0.930 . S
C536 N533 1.314 . S
C536 C534 1.353 . S
C536 H594 0.930 . S
C537 N533 1.279 . S
C537 C535 1.358 . S
C537 H595 0.930 . S
C538 C541 1.348 . S
C538 C542 1.356 . S
C538 O589 1.325 . S
C539 N540 1.279 . S
C539 C542 1.358 . S
C539 H596 0.930 . S
N540 C539 1.279 . S
N540 C543 1.314 . S
C541 C538 1.348 . S
C541 C543 1.353 . S
C541 H597 0.929 . S
C542 C538 1.356 . S
C542 C539 1.358 . S
C542 H598 0.930 . S
C543 N540 1.314 . S
C543 C541 1.353 . S
C543 H599 0.930 . S
C544 N545 1.314 . S
C544 C549 1.353 . S
C544 H550 0.930 . S
N545 Li528 1.990 . S
N545 C544 1.314 . S
N545 C547 1.279 . S
C546 C547 1.358 . S
C546 C548 1.356 . S
C546 H600 0.930 . S
C547 N545 1.279 . S
C547 C546 1.358 . S
C547 H551 0.930 . S
C548 C546 1.356 . S
C548 C549 1.348 . S
C549 C544 1.353 . S
C549 C548 1.348 . S
C549 H601 0.929 . S
H550 C544 0.930 . S
H551 C547 0.930 . S
C552 N553 1.314 . S
C552 C554 1.353 . S
C552 H558 0.930 . S
N553 Li529 1.990 . S
N553 C552 1.314 . S
N553 C556 1.279 . S
C554 C552 1.353 . S
C554 C557 1.348 . S
C554 H602 0.929 1_655 S
C555 C556 1.358 . S
C555 C557 1.356 . S
C555 H603 0.930 . S
C556 N553 1.279 . S
C556 C555 1.358 . S
C556 H559 0.930 . S
C557 C554 1.348 . S
C557 C555 1.356 . S
H558 C552 0.930 . S
H559 C556 0.930 . S
C560 C562 1.348 . S
C560 C563 1.356 . S
C560 O590 1.325 . S
N561 C564 1.314 . S
N561 C565 1.279 . S
C562 C560 1.348 . S
C562 C564 1.353 . S
C562 H604 0.929 . S
C563 C560 1.356 . S
C563 C565 1.358 . S
C563 H605 0.930 . S
C564 N561 1.314 . S
C564 C562 1.353 . S
C564 H606 0.930 . S
C565 N561 1.279 . S
C565 C563 1.358 . S
C565 H607 0.930 . S
C566 C567 1.348 . S
C566 C568 1.356 . S
C566 O591 1.325 . S
C567 C566 1.348 . S
C567 C569 1.353 . S
C567 H608 0.929 . S
C568 C566 1.356 . S
C568 C570 1.358 . S
C568 H609 0.930 . S
C569 C567 1.353 . S
C569 N571 1.314 . S
C569 H610 0.930 . S
C570 C568 1.358 . S
C570 N571 1.279 . S
C570 H611 0.930 . S
N571 C569 1.314 . S
N571 C570 1.279 . S
C572 C574 1.353 . S
C572 N575 1.314 . S
C572 H578 0.930 . S
C573 N575 1.279 . S
C573 C576 1.358 . S
C573 H579 0.930 . S
C574 C572 1.353 . S
C574 C577 1.348 . S
C574 H612 0.929 . S
N575 Li530 1.990 . S
N575 C572 1.314 . S
N575 C573 1.279 . S
C576 C573 1.358 . S
C576 C577 1.356 . S
C576 H613 0.930 . S
C577 C574 1.348 . S
C577 C576 1.356 . S
H578 C572 0.930 . S
H579 C573 0.930 . S
C580 N581 1.314 . S
C580 C582 1.353 . S
C580 H586 0.930 . S
N581 Li531 1.990 . S
N581 C580 1.314 . S
N581 C584 1.279 . S
C582 C580 1.353 . S
C582 C585 1.348 . S
C582 H614 0.929 . S
C583 C584 1.358 . S
C583 C585 1.356 . S
C583 H615 0.930 . S
C584 N581 1.279 . S
C584 C583 1.358 . S
C584 H587 0.930 . S
C585 C582 1.348 . S
C585 C583 1.356 . S
H586 C580 0.930 . S
H587 C584 0.930 . S
O588 Li528 1.956 . S
O588 Li529 1.970 . S
O588 Li530 1.961 . S
O588 C532 1.325 . S
O589 Li528 1.970 . S
O589 Li529 1.956 . S
O589 Li531 1.961 . S
O589 C538 1.325 . S
O590 Li528 1.961 . S
O590 Li530 1.956 . S
O590 Li531 1.970 . S
O590 C560 1.325 . S
O591 Li529 1.961 . S
O591 Li530 1.970 . S
O591 Li531 1.956 . S
O591 C566 1.325 . S
H592 C534 0.929 . S
H593 C535 0.930 . S
H594 C536 0.930 . S
H595 C537 0.930 . S
H596 C539 0.930 . S
H597 C541 0.929 . S
H598 C542 0.930 . S
H599 C543 0.930 . S
H600 C546 0.930 . S
H601 C549 0.929 . S
H602 C554 0.929 1_455 S
H603 C555 0.930 . S
H604 C562 0.929 . S
H605 C563 0.930 . S
H606 C564 0.930 . S
H607 C565 0.930 . S
H608 C567 0.929 . S
H609 C568 0.930 . S
H610 C569 0.930 . S
H611 C570 0.930 . S
H612 C574 0.929 . S
H613 C576 0.930 . S
H614 C582 0.929 . S
H615 C583 0.930 . S
Li616 N633 1.990 . S
Li616 O676 1.956 . S
Li616 O677 1.970 . S
Li616 O678 1.961 . S
Li617 N641 1.990 . S
Li617 O676 1.970 . S
Li617 O677 1.956 . S
Li617 O679 1.961 . S
Li618 N663 1.990 . S
Li618 O676 1.961 . S
Li618 O678 1.956 . S
Li618 O679 1.970 . S
Li619 N669 1.990 . S
Li619 O677 1.961 . S
Li619 O678 1.970 . S
Li619 O679 1.956 . S
C620 C622 1.348 . S
C620 C623 1.356 . S
C620 O676 1.325 . S
N621 C624 1.314 . S
N621 C625 1.279 . S
C622 C620 1.348 . S
C622 C624 1.353 . S
C622 H680 0.929 . S
C623 C620 1.356 . S
C623 C625 1.358 . S
C623 H681 0.930 . S
C624 N621 1.314 . S
C624 C622 1.353 . S
C624 H682 0.930 . S
C625 N621 1.279 . S
C625 C623 1.358 . S
C625 H683 0.930 . S
C626 C629 1.348 . S
C626 C630 1.356 . S
C626 O677 1.325 . S
C627 N628 1.279 . S
C627 C630 1.358 . S
C627 H684 0.930 . S
N628 C627 1.279 . S
N628 C631 1.314 . S
C629 C626 1.348 . S
C629 C631 1.353 . S
C629 H685 0.929 . S
C630 C626 1.356 . S
C630 C627 1.358 . S
C630 H686 0.930 . S
C631 N628 1.314 . S
C631 C629 1.353 . S
C631 H687 0.930 . S
C632 N633 1.314 . S
C632 C637 1.353 . S
C632 H638 0.930 . S
N633 Li616 1.990 . S
N633 C632 1.314 . S
N633 C635 1.279 . S
C634 C635 1.358 . S
C634 C636 1.356 . S
C634 H688 0.930 . S
C635 N633 1.279 . S
C635 C634 1.358 . S
C635 H639 0.930 . S
C636 C634 1.356 . S
C636 C637 1.348 . S
C637 C632 1.353 . S
C637 C636 1.348 . S
C637 H689 0.929 . S
H638 C632 0.930 . S
H639 C635 0.930 . S
C640 N641 1.314 . S
C640 C642 1.353 . S
C640 H646 0.930 . S
N641 Li617 1.990 . S
N641 C640 1.314 . S
N641 C644 1.279 . S
C642 C640 1.353 . S
C642 C645 1.348 . S
C642 H690 0.958 . S
C643 C644 1.358 . S
C643 C645 1.356 . S
C643 H691 0.930 . S
C644 N641 1.279 . S
C644 C643 1.358 . S
C644 H647 0.930 . S
C645 C642 1.348 . S
C645 C643 1.356 . S
H646 C640 0.930 . S
H647 C644 0.930 . S
C648 C650 1.348 . S
C648 C651 1.356 . S
C648 O678 1.325 . S
N649 C652 1.314 . S
N649 C653 1.279 . S
C650 C648 1.348 . S
C650 C652 1.353 . S
C650 H692 0.929 . S
C651 C648 1.356 . S
C651 C653 1.358 . S
C651 H693 0.930 . S
C652 N649 1.314 . S
C652 C650 1.353 . S
C652 H694 0.930 . S
C653 N649 1.279 . S
C653 C651 1.358 . S
C653 H695 0.930 . S
C654 C655 1.348 . S
C654 C656 1.356 . S
C654 O679 1.325 . S
C655 C654 1.348 . S
C655 C657 1.353 . S
C655 H696 0.929 . S
C656 C654 1.356 . S
C656 C658 1.358 1_556 S
C656 H697 0.930 . S
C657 C655 1.353 . S
C657 N659 1.314 1_556 S
C657 H698 0.930 1_556 S
C658 C656 1.358 1_554 S
C658 N659 1.279 . S
C658 H699 0.930 . S
N659 C657 1.314 1_554 S
N659 C658 1.279 . S
C660 C662 1.353 . S
C660 N663 1.314 . S
C660 H666 0.930 . S
C661 N663 1.279 . S
C661 C664 1.358 . S
C661 H667 0.930 . S
C662 C660 1.353 . S
C662 C665 1.348 . S
C662 H700 0.929 . S
N663 Li618 1.990 . S
N663 C660 1.314 . S
N663 C661 1.279 . S
C664 C661 1.358 . S
C664 C665 1.356 . S
C664 H701 0.930 . S
C665 C662 1.348 . S
C665 C664 1.356 . S
H666 C660 0.930 . S
H667 C661 0.930 . S
C668 N669 1.314 . S
C668 C670 1.353 . S
C668 H674 0.930 . S
N669 Li619 1.990 . S
N669 C668 1.314 . S
N669 C672 1.279 . S
C670 C668 1.353 . S
C670 C673 1.348 . S
C670 H702 0.929 . S
C671 C672 1.358 . S
C671 C673 1.356 . S
C671 H703 0.930 . S
C672 N669 1.279 . S
C672 C671 1.358 . S
C672 H675 0.930 . S
C673 C670 1.348 . S
C673 C671 1.356 . S
H674 C668 0.930 . S
H675 C672 0.930 . S
O676 Li616 1.956 . S
O676 Li617 1.970 . S
O676 Li618 1.961 . S
O676 C620 1.325 . S
O677 Li616 1.970 . S
O677 Li617 1.956 . S
O677 Li619 1.961 . S
O677 C626 1.325 . S
O678 Li616 1.961 . S
O678 Li618 1.956 . S
O678 Li619 1.970 . S
O678 C648 1.325 . S
O679 Li617 1.961 . S
O679 Li618 1.970 . S
O679 Li619 1.956 . S
O679 C654 1.325 . S
H680 C622 0.929 . S
H681 C623 0.930 . S
H682 C624 0.930 . S
H683 C625 0.930 . S
H684 C627 0.930 . S
H685 C629 0.929 . S
H686 C630 0.930 . S
H687 C631 0.930 . S
H688 C634 0.930 . S
H689 C637 0.929 . S
H690 C642 0.958 . S
H691 C643 0.930 . S
H692 C650 0.929 . S
H693 C651 0.930 . S
H694 C652 0.930 . S
H695 C653 0.930 . S
H696 C655 0.929 . S
H697 C656 0.930 . S
H698 C657 0.930 1_554 S
H699 C658 0.930 . S
H700 C662 0.929 . S
H701 C664 0.930 . S
H702 C670 0.929 . S
H703 C671 0.930 . S
Li704 N721 1.990 . S
Li704 O764 1.956 . S
Li704 O765 1.970 . S
Li704 O766 1.961 . S
Li705 N729 1.990 . S
Li705 O764 1.970 . S
Li705 O765 1.956 . S
Li705 O767 1.961 . S
Li706 N751 1.990 . S
Li706 O764 1.961 . S
Li706 O766 1.956 . S
Li706 O767 1.970 . S
Li707 N757 1.990 . S
Li707 O765 1.961 . S
Li707 O766 1.970 . S
Li707 O767 1.956 . S
C708 C710 1.348 . S
C708 C711 1.356 . S
C708 O764 1.325 . S
N709 C712 1.314 . S
N709 C713 1.279 . S
C710 C708 1.348 . S
C710 C712 1.353 . S
C710 H768 0.929 . S
C711 C708 1.356 . S
C711 C713 1.358 . S
C711 H769 0.930 . S
C712 N709 1.314 . S
C712 C710 1.353 . S
C712 H770 0.930 . S
C713 N709 1.279 . S
C713 C711 1.358 . S
C713 H771 0.930 . S
C714 C717 1.348 . S
C714 C718 1.356 . S
C714 O765 1.325 . S
C715 N716 1.279 . S
C715 C718 1.358 . S
C715 H772 0.930 . S
N716 C715 1.279 . S
N716 C719 1.314 . S
C717 C714 1.348 . S
C717 C719 1.353 . S
C717 H773 0.929 . S
C718 C714 1.356 . S
C718 C715 1.358 . S
C718 H774 0.930 . S
C719 N716 1.314 . S
C719 C717 1.353 . S
C719 H775 0.930 . S
C720 N721 1.314 . S
C720 C725 1.353 . S
C720 H726 0.930 . S
N721 Li704 1.990 . S
N721 C720 1.314 . S
N721 C723 1.279 . S
C722 C723 1.358 . S
C722 C724 1.356 . S
C722 H776 0.930 . S
C723 N721 1.279 . S
C723 C722 1.358 . S
C723 H727 0.930 . S
C724 C722 1.356 . S
C724 C725 1.348 . S
C725 C720 1.353 . S
C725 C724 1.348 . S
C725 H777 0.929 . S
H726 C720 0.930 . S
H727 C723 0.930 . S
C728 N729 1.314 . S
C728 C730 1.353 . S
C728 H734 0.930 . S
N729 Li705 1.990 . S
N729 C728 1.314 . S
N729 C732 1.279 . S
C730 C728 1.353 . S
C730 C733 1.348 . S
C730 H778 0.929 . S
C731 C732 1.358 . S
C731 C733 1.356 . S
C731 H779 0.930 . S
C732 N729 1.279 . S
C732 C731 1.358 . S
C732 H735 0.930 . S
C733 C730 1.348 . S
C733 C731 1.356 . S
H734 C728 0.930 . S
H735 C732 0.930 . S
C736 C738 1.348 . S
C736 C739 1.356 . S
C736 O766 1.325 . S
N737 C740 1.314 . S
N737 C741 1.279 . S
C738 C736 1.348 . S
C738 C740 1.353 . S
C738 H780 0.929 . S
C739 C736 1.356 . S
C739 C741 1.358 . S
C739 H781 0.930 . S
C740 N737 1.314 . S
C740 C738 1.353 . S
C740 H782 0.930 . S
C741 N737 1.279 . S
C741 C739 1.358 . S
C741 H783 0.930 . S
C742 C743 1.348 . S
C742 C744 1.356 . S
C742 O767 1.325 . S
C743 C742 1.348 . S
C743 C745 1.353 . S
C743 H784 0.929 . S
C744 C742 1.356 . S
C744 C746 1.358 . S
C744 H785 0.930 . S
C745 C743 1.353 . S
C745 N747 1.314 . S
C745 H786 0.930 . S
C746 C744 1.358 . S
C746 N747 1.279 . S
C746 H787 0.930 . S
N747 C745 1.314 . S
N747 C746 1.279 . S
C748 C750 1.353 . S
C748 N751 1.314 . S
C748 H754 0.930 . S
C749 N751 1.279 . S
C749 C752 1.358 . S
C749 H755 0.930 . S
C750 C748 1.353 . S
C750 C753 1.348 . S
C750 H788 0.929 . S
N751 Li706 1.990 . S
N751 C748 1.314 . S
N751 C749 1.279 . S
C752 C749 1.358 . S
C752 C753 1.356 . S
C752 H789 0.930 . S
C753 C750 1.348 . S
C753 C752 1.356 . S
H754 C748 0.930 . S
H755 C749 0.930 . S
C756 N757 1.314 . S
C756 C758 1.353 . S
C756 H762 0.930 . S
N757 Li707 1.990 . S
N757 C756 1.314 . S
N757 C760 1.279 . S
C758 C756 1.353 . S
C758 C761 1.348 . S
C758 H790 0.929 . S
C759 C760 1.358 . S
C759 C761 1.356 . S
C759 H791 0.930 . S
C760 N757 1.279 . S
C760 C759 1.358 . S
C760 H763 0.930 . S
C761 C758 1.348 . S
C761 C759 1.356 . S
H762 C756 0.930 . S
H763 C760 0.930 . S
O764 Li704 1.956 . S
O764 Li705 1.970 . S
O764 Li706 1.961 . S
O764 C708 1.325 . S
O765 Li704 1.970 . S
O765 Li705 1.956 . S
O765 Li707 1.961 . S
O765 C714 1.325 . S
O766 Li704 1.961 . S
O766 Li706 1.956 . S
O766 Li707 1.970 . S
O766 C736 1.325 . S
O767 Li705 1.961 . S
O767 Li706 1.970 . S
O767 Li707 1.956 . S
O767 C742 1.325 . S
H768 C710 0.929 . S
H769 C711 0.930 . S
H770 C712 0.930 . S
H771 C713 0.930 . S
H772 C715 0.930 . S
H773 C717 0.929 . S
H774 C718 0.930 . S
H775 C719 0.930 . S
H776 C722 0.930 . S
H777 C725 0.929 . S
H778 C730 0.929 . S
H779 C731 0.930 . S
H780 C738 0.929 . S
H781 C739 0.930 . S
H782 C740 0.930 . S
H783 C741 0.930 . S
H784 C743 0.929 . S
H785 C744 0.930 . S
H786 C745 0.930 . S
H787 C746 0.930 . S
H788 C750 0.929 . S
H789 C752 0.930 . S
H790 C758 0.929 . S
H791 C759 0.930 . S
Li792 N809 1.990 . S
Li792 O852 1.956 . S
Li792 O853 1.970 . S
Li792 O854 1.961 . S
Li793 N817 1.990 . S
Li793 O852 1.970 . S
Li793 O853 1.956 . S
Li793 O855 1.961 . S
Li794 N839 1.990 . S
Li794 O852 1.961 . S
Li794 O854 1.956 . S
Li794 O855 1.970 . S
Li795 N845 1.990 . S
Li795 O853 1.961 . S
Li795 O854 1.970 . S
Li795 O855 1.956 . S
C796 C798 1.348 . S
C796 C799 1.356 . S
C796 O852 1.325 . S
N797 C800 1.314 1_554 S
N797 C801 1.279 . S
C798 C796 1.348 . S
C798 C800 1.353 . S
C798 H856 0.929 . S
C799 C796 1.356 . S
C799 C801 1.358 1_556 S
C799 H857 0.930 . S
C800 N797 1.314 1_556 S
C800 C798 1.353 . S
C800 H858 0.930 1_556 S
C801 N797 1.279 . S
C801 C799 1.358 1_554 S
C801 H859 0.930 . S
C802 C805 1.348 . S
C802 C806 1.356 . S
C802 O853 1.325 . S
C803 N804 1.279 . S
C803 C806 1.358 . S
C803 H860 0.930 . S
N804 C803 1.279 . S
N804 C807 1.314 . S
C805 C802 1.348 . S
C805 C807 1.353 . S
C805 H861 0.929 . S
C806 C802 1.356 . S
C806 C803 1.358 . S
C806 H862 0.930 . S
C807 N804 1.314 . S
C807 C805 1.353 . S
C807 H863 0.930 . S
C808 N809 1.314 . S
C808 C813 1.353 . S
C808 H814 0.930 . S
N809 Li792 1.990 . S
N809 C808 1.314 . S
N809 C811 1.279 . S
C810 C811 1.358 . S
C810 C812 1.356 . S
C810 H864 0.930 1_556 S
C811 N809 1.279 . S
C811 C810 1.358 . S
C811 H815 0.930 . S
C812 C810 1.356 . S
C812 C813 1.348 . S
C813 C808 1.353 . S
C813 C812 1.348 . S
C813 H865 0.929 1_455 S
H814 C808 0.930 . S
H815 C811 0.930 . S
C816 N817 1.314 . S
C816 C818 1.353 . S
C816 H822 0.930 . S
N817 Li793 1.990 . S
N817 C816 1.314 . S
N817 C820 1.279 . S
C818 C816 1.353 . S
C818 C821 1.348 . S
C818 H866 0.929 . S
C819 C820 1.358 . S
C819 C821 1.356 . S
C819 H867 0.930 . S
C820 N817 1.279 . S
C820 C819 1.358 . S
C820 H823 0.930 . S
C821 C818 1.348 . S
C821 C819 1.356 . S
H822 C816 0.930 . S
H823 C820 0.930 . S
C824 C826 1.348 . S
C824 C827 1.356 . S
C824 O854 1.325 . S
N825 C828 1.314 . S
N825 C829 1.279 . S
C826 C824 1.348 . S
C826 C828 1.353 . S
C826 H868 0.929 . S
C827 C824 1.356 . S
C827 C829 1.358 . S
C827 H869 0.930 . S
C828 N825 1.314 . S
C828 C826 1.353 . S
C828 H870 0.930 . S
C829 N825 1.279 . S
C829 C827 1.358 . S
C829 H871 0.930 . S
C830 C831 1.348 . S
C830 C832 1.356 . S
C830 O855 1.325 . S
C831 C830 1.348 . S
C831 C833 1.353 . S
C831 H872 0.929 . S
C832 C830 1.356 . S
C832 C834 1.358 . S
C832 H873 0.930 . S
C833 C831 1.353 . S
C833 N835 1.314 . S
C833 H874 0.930 . S
C834 C832 1.358 . S
C834 N835 1.279 . S
C834 H875 0.930 . S
N835 C833 1.314 . S
N835 C834 1.279 . S
C836 C838 1.353 . S
C836 N839 1.314 . S
C836 H842 0.930 . S
C837 N839 1.279 . S
C837 C840 1.358 . S
C837 H843 0.930 . S
C838 C836 1.353 . S
C838 C841 1.348 . S
C838 H876 0.929 . S
N839 Li794 1.990 . S
N839 C836 1.314 . S
N839 C837 1.279 . S
C840 C837 1.358 . S
C840 C841 1.356 . S
C840 H877 0.930 . S
C841 C838 1.348 . S
C841 C840 1.356 . S
H842 C836 0.930 . S
H843 C837 0.930 . S
C844 N845 1.314 . S
C844 C846 1.353 . S
C844 H850 0.930 . S
N845 Li795 1.990 . S
N845 C844 1.314 . S
N845 C848 1.279 . S
C846 C844 1.353 . S
C846 C849 1.348 . S
C846 H878 0.929 . S
C847 C848 1.358 . S
C847 C849 1.356 . S
C847 H879 0.930 . S
C848 N845 1.279 . S
C848 C847 1.358 . S
C848 H851 0.930 . S
C849 C846 1.348 . S
C849 C847 1.356 . S
H850 C844 0.930 . S
H851 C848 0.930 . S
O852 Li792 1.956 . S
O852 Li793 1.970 . S
O852 Li794 1.961 . S
O852 C796 1.325 . S
O853 Li792 1.970 . S
O853 Li793 1.956 . S
O853 Li795 1.961 . S
O853 C802 1.325 . S
O854 Li792 1.961 . S
O854 Li794 1.956 . S
O854 Li795 1.970 . S
O854 C824 1.325 . S
O855 Li793 1.961 . S
O855 Li794 1.970 . S
O855 Li795 1.956 . S
O855 C830 1.325 . S
H856 C798 0.929 . S
H857 C799 0.930 . S
H858 C800 0.930 1_554 S
H859 C801 0.930 . S
H860 C803 0.930 . S
H861 C805 0.929 . S
H862 C806 0.930 . S
H863 C807 0.930 . S
H864 C810 0.930 1_554 S
H865 C813 0.929 1_655 S
H866 C818 0.929 . S
H867 C819 0.930 . S
H868 C826 0.929 . S
H869 C827 0.930 . S
H870 C828 0.930 . S
H871 C829 0.930 . S
H872 C831 0.929 . S
H873 C832 0.930 . S
H874 C833 0.930 . S
H875 C834 0.930 . S
H876 C838 0.929 . S
H877 C840 0.930 . S
H878 C846 0.929 . S
H879 C847 0.930 . S
Li880 N897 1.990 . S
Li880 O940 1.956 . S
Li880 O941 1.970 . S
Li880 O942 1.961 . S
Li881 N905 1.990 . S
Li881 O940 1.970 . S
Li881 O941 1.956 . S
Li881 O943 1.961 . S
Li882 N927 1.990 . S
Li882 O940 1.961 . S
Li882 O942 1.956 . S
Li882 O943 1.970 . S
Li883 N933 1.990 . S
Li883 O941 1.961 . S
Li883 O942 1.970 . S
Li883 O943 1.956 . S
C884 C886 1.348 . S
C884 C887 1.356 . S
C884 O940 1.325 . S
N885 C888 1.314 . S
N885 C889 1.279 . S
C886 C884 1.348 . S
C886 C888 1.353 . S
C886 H944 0.929 . S
C887 C884 1.356 . S
C887 C889 1.358 . S
C887 H945 0.930 . S
C888 N885 1.314 . S
C888 C886 1.353 . S
C888 H946 0.930 . S
C889 N885 1.279 . S
C889 C887 1.358 . S
C889 H947 0.930 . S
C890 C893 1.348 . S
C890 C894 1.356 . S
C890 O941 1.325 . S
C891 N892 1.279 . S
C891 C894 1.358 . S
C891 H948 0.930 . S
N892 C891 1.279 . S
N892 C895 1.314 . S
C893 C890 1.348 . S
C893 C895 1.353 . S
C893 H949 0.929 . S
C894 C890 1.356 . S
C894 C891 1.358 . S
C894 H950 0.930 . S
C895 N892 1.314 . S
C895 C893 1.353 . S
C895 H951 0.930 . S
C896 N897 1.314 . S
C896 C901 1.353 . S
C896 H902 0.930 . S
N897 Li880 1.990 . S
N897 C896 1.314 . S
N897 C899 1.279 . S
C898 C899 1.358 . S
C898 C900 1.356 . S
C898 H952 0.930 . S
C899 N897 1.279 . S
C899 C898 1.358 . S
C899 H903 0.930 . S
C900 C898 1.356 . S
C900 C901 1.348 . S
C901 C896 1.353 . S
C901 C900 1.348 . S
C901 H953 0.929 . S
H902 C896 0.930 . S
H903 C899 0.930 . S
C904 N905 1.314 . S
C904 C906 1.353 . S
C904 H910 0.930 . S
N905 Li881 1.990 . S
N905 C904 1.314 . S
N905 C908 1.279 . S
C906 C904 1.353 . S
C906 C909 1.348 . S
C906 H954 0.929 . S
C907 C908 1.358 . S
C907 C909 1.356 . S
C907 H955 0.930 . S
C908 N905 1.279 . S
C908 C907 1.358 . S
C908 H911 0.930 . S
C909 C906 1.348 . S
C909 C907 1.356 . S
H910 C904 0.930 . S
H911 C908 0.930 . S
C912 C914 1.348 . S
C912 C915 1.356 . S
C912 O942 1.325 . S
N913 C916 1.314 . S
N913 C917 1.279 . S
C914 C912 1.348 . S
C914 C916 1.353 . S
C914 H956 0.929 . S
C915 C912 1.356 . S
C915 C917 1.358 . S
C915 H957 0.930 . S
C916 N913 1.314 . S
C916 C914 1.353 . S
C916 H958 0.930 . S
C917 N913 1.279 . S
C917 C915 1.358 . S
C917 H959 0.930 . S
C918 C919 1.348 . S
C918 C920 1.356 . S
C918 O943 1.325 . S
C919 C918 1.348 . S
C919 C921 1.353 . S
C919 H960 0.929 . S
C920 C918 1.356 . S
C920 C922 1.358 . S
C920 H961 0.930 . S
C921 C919 1.353 . S
C921 N923 1.314 . S
C921 H962 0.930 . S
C922 C920 1.358 . S
C922 N923 1.279 . S
C922 H963 0.930 . S
N923 C921 1.314 . S
N923 C922 1.279 . S
C924 C926 1.353 . S
C924 N927 1.314 . S
C924 H930 0.930 . S
C925 N927 1.279 . S
C925 C928 1.358 . S
C925 H931 0.930 . S
C926 C924 1.353 . S
C926 C929 1.348 . S
C926 H964 0.929 . S
N927 Li882 1.990 . S
N927 C924 1.314 . S
N927 C925 1.279 . S
C928 C925 1.358 . S
C928 C929 1.356 . S
C928 H965 0.930 . S
C929 C926 1.348 . S
C929 C928 1.356 . S
H930 C924 0.930 . S
H931 C925 0.930 . S
C932 N933 1.314 . S
C932 C934 1.353 . S
C932 H938 0.930 . S
N933 Li883 1.990 . S
N933 C932 1.314 . S
N933 C936 1.279 . S
C934 C932 1.353 . S
C934 C937 1.348 . S
C934 H966 0.929 . S
C935 C936 1.358 . S
C935 C937 1.356 . S
C935 H967 0.930 . S
C936 N933 1.279 . S
C936 C935 1.358 . S
C936 H939 0.930 . S
C937 C934 1.348 . S
C937 C935 1.356 . S
H938 C932 0.930 . S
H939 C936 0.930 . S
O940 Li880 1.956 . S
O940 Li881 1.970 . S
O940 Li882 1.961 . S
O940 C884 1.325 . S
O941 Li880 1.970 . S
O941 Li881 1.956 . S
O941 Li883 1.961 . S
O941 C890 1.325 . S
O942 Li880 1.961 . S
O942 Li882 1.956 . S
O942 Li883 1.970 . S
O942 C912 1.325 . S
O943 Li881 1.961 . S
O943 Li882 1.970 . S
O943 Li883 1.956 . S
O943 C918 1.325 . S
H944 C886 0.929 . S
H945 C887 0.930 . S
H946 C888 0.930 . S
H947 C889 0.930 . S
H948 C891 0.930 . S
H949 C893 0.929 . S
H950 C894 0.930 . S
H951 C895 0.930 . S
H952 C898 0.930 . S
H953 C901 0.929 . S
H954 C906 0.929 . S
H955 C907 0.930 . S
H956 C914 0.929 . S
H957 C915 0.930 . S
H958 C916 0.930 . S
H959 C917 0.930 . S
H960 C919 0.929 . S
H961 C920 0.930 . S
H962 C921 0.930 . S
H963 C922 0.930 . S
H964 C926 0.929 . S
H965 C928 0.930 . S
H966 C934 0.929 . S
H967 C935 0.930 . S
Li968 N985 1.990 . S
Li968 O1028 1.956 . S
Li968 O1029 1.970 . S
Li968 O1030 1.961 . S
Li969 N993 1.990 . S
Li969 O1028 1.970 . S
Li969 O1029 1.956 . S
Li969 O1031 1.961 . S
Li970 N1015 1.990 . S
Li970 O1028 1.961 . S
Li970 O1030 1.956 . S
Li970 O1031 1.970 . S
Li971 N1021 1.990 . S
Li971 O1029 1.961 . S
Li971 O1030 1.970 . S
Li971 O1031 1.956 . S
C972 C974 1.348 . S
C972 C975 1.356 . S
C972 O1028 1.325 . S
N973 C976 1.314 . S
N973 C977 1.279 . S
C974 C972 1.348 . S
C974 C976 1.353 . S
C974 H1032 0.929 . S
C975 C972 1.356 . S
C975 C977 1.358 . S
C975 H1033 0.930 . S
C976 N973 1.314 . S
C976 C974 1.353 . S
C976 H1034 0.930 . S
C977 N973 1.279 . S
C977 C975 1.358 . S
C977 H1035 0.930 . S
C978 C981 1.348 . S
C978 C982 1.356 . S
C978 O1029 1.325 . S
C979 N980 1.295 . S
C979 C982 1.333 1_554 S
C979 H1036 0.941 . S
N980 C979 1.295 . S
N980 C983 1.314 . S
C981 C978 1.348 . S
C981 C983 1.353 1_556 S
C981 H1037 0.929 . S
C982 C978 1.356 . S
C982 C979 1.333 1_556 S
C982 H1038 0.930 . S
C983 N980 1.314 . S
C983 C981 1.353 1_554 S
C983 H1039 0.930 . S
C984 N985 1.314 . S
C984 C989 1.353 . S
C984 H990 0.930 . S
N985 Li968 1.990 . S
N985 C984 1.314 . S
N985 C987 1.279 . S
C986 C987 1.358 . S
C986 C988 1.356 . S
C986 H1040 0.930 . S
C987 N985 1.279 . S
C987 C986 1.358 . S
C987 H991 0.930 . S
C988 C986 1.356 . S
C988 C989 1.348 . S
C989 C984 1.353 . S
C989 C988 1.348 . S
C989 H1041 0.929 . S
H990 C984 0.930 . S
H991 C987 0.930 . S
C992 N993 1.314 . S
C992 C994 1.353 . S
C992 H998 0.930 . S
N993 Li969 1.990 . S
N993 C992 1.314 . S
N993 C996 1.279 . S
C994 C992 1.353 . S
C994 C997 1.348 . S
C994 H1042 0.929 . S
C995 C996 1.358 . S
C995 C997 1.356 . S
C995 H1043 0.930 1_556 S
C996 N993 1.279 . S
C996 C995 1.358 . S
C996 H999 0.930 . S
C997 C994 1.348 . S
C997 C995 1.356 . S
H998 C992 0.930 . S
H999 C996 0.930 . S
C1000 C1002 1.348 . S
C1000 C1003 1.356 . S
C1000 O1030 1.325 . S
N1001 C1004 1.314 . S
N1001 C1005 1.279 . S
C1002 C1000 1.348 . S
C1002 C1004 1.353 . S
C1002 H1044 0.929 . S
C1003 C1000 1.356 . S
C1003 C1005 1.358 . S
C1003 H1045 0.930 . S
C1004 N1001 1.314 . S
C1004 C1002 1.353 . S
C1004 H1046 0.930 . S
C1005 N1001 1.279 . S
C1005 C1003 1.358 . S
C1005 H1047 0.930 . S
C1006 C1007 1.348 . S
C1006 C1008 1.356 . S
C1006 O1031 1.325 . S
C1007 C1006 1.348 . S
C1007 C1009 1.353 . S
C1007 H1048 0.929 . S
C1008 C1006 1.356 . S
C1008 C1010 1.358 . S
C1008 H1049 0.930 . S
C1009 C1007 1.353 . S
C1009 N1011 1.314 . S
C1009 H1050 0.930 . S
C1010 C1008 1.358 . S
C1010 N1011 1.279 . S
C1010 H1051 0.930 . S
N1011 C1009 1.314 . S
N1011 C1010 1.279 . S
C1012 C1014 1.353 . S
C1012 N1015 1.314 . S
C1012 H1018 0.930 . S
C1013 N1015 1.279 . S
C1013 C1016 1.358 . S
C1013 H1019 0.930 . S
C1014 C1012 1.353 . S
C1014 C1017 1.348 . S
C1014 H1052 0.929 . S
N1015 Li970 1.990 . S
N1015 C1012 1.314 . S
N1015 C1013 1.279 . S
C1016 C1013 1.358 . S
C1016 C1017 1.356 . S
C1016 H1053 0.930 . S
C1017 C1014 1.348 . S
C1017 C1016 1.356 . S
H1018 C1012 0.930 . S
H1019 C1013 0.930 . S
C1020 N1021 1.314 . S
C1020 C1022 1.353 . S
C1020 H1026 0.930 . S
N1021 Li971 1.990 . S
N1021 C1020 1.314 . S
N1021 C1024 1.279 . S
C1022 C1020 1.353 . S
C1022 C1025 1.348 . S
C1022 H1054 0.929 . S
C1023 C1024 1.358 . S
C1023 C1025 1.356 . S
C1023 H1055 0.930 . S
C1024 N1021 1.279 . S
C1024 C1023 1.358 . S
C1024 H1027 0.930 . S
C1025 C1022 1.348 . S
C1025 C1023 1.356 . S
H1026 C1020 0.930 . S
H1027 C1024 0.930 . S
O1028 Li968 1.956 . S
O1028 Li969 1.970 . S
O1028 Li970 1.961 . S
O1028 C972 1.325 . S
O1029 Li968 1.970 . S
O1029 Li969 1.956 . S
O1029 Li971 1.961 . S
O1029 C978 1.325 . S
O1030 Li968 1.961 . S
O1030 Li970 1.956 . S
O1030 Li971 1.970 . S
O1030 C1000 1.325 . S
O1031 Li969 1.961 . S
O1031 Li970 1.970 . S
O1031 Li971 1.956 . S
O1031 C1006 1.325 . S
H1032 C974 0.929 . S
H1033 C975 0.930 . S
H1034 C976 0.930 . S
H1035 C977 0.930 . S
H1036 C979 0.941 . S
H1037 C981 0.929 . S
H1038 C982 0.930 . S
H1039 C983 0.930 . S
H1040 C986 0.930 . S
H1041 C989 0.929 . S
H1042 C994 0.929 . S
H1043 C995 0.930 1_554 S
H1044 C1002 0.929 . S
H1045 C1003 0.930 . S
H1046 C1004 0.930 . S
H1047 C1005 0.930 . S
H1048 C1007 0.929 . S
H1049 C1008 0.930 . S
H1050 C1009 0.930 . S
H1051 C1010 0.930 . S
H1052 C1014 0.929 . S
H1053 C1016 0.930 . S
H1054 C1022 0.929 . S
H1055 C1023 0.930 . S
C1056 C1057 1.387 . S
C1056 H1060 0.950 . S
C1056 C1065 1.390 . S
C1057 C1056 1.387 . S
C1057 C1059 1.387 . S
H1058 C1065 0.950 . S
C1059 C1057 1.387 . S
C1059 C1061 1.390 . S
C1059 H1063 0.950 . S
H1060 C1056 0.950 . S
C1061 C1059 1.390 . S
C1061 C1062 1.387 . S
C1061 H1064 0.950 . S
C1062 C1061 1.387 . S
C1062 C1065 1.387 . S
H1063 C1059 0.950 . S
H1064 C1061 0.950 . S
C1065 C1056 1.390 . S
C1065 H1058 0.950 . S
C1065 C1062 1.387 . S
C1066 C1067 1.387 . S
C1066 H1070 0.950 . S
C1066 C1075 1.390 . S
C1067 C1066 1.387 . S
C1067 C1069 1.387 . S
H1068 C1075 0.950 . S
C1069 C1067 1.387 . S
C1069 C1071 1.390 . S
C1069 H1073 0.950 . S
H1070 C1066 0.950 . S
C1071 C1069 1.390 . S
C1071 C1072 1.387 . S
C1071 H1074 0.950 . S
C1072 C1071 1.387 . S
C1072 C1075 1.387 . S
H1073 C1069 0.950 . S
H1074 C1071 0.950 . S
C1075 C1066 1.390 . S
C1075 H1068 0.950 . S
C1075 C1072 1.387 . S
C1076 C1077 1.387 . S
C1076 H1080 0.950 . S
C1076 C1085 1.390 . S
C1077 C1076 1.387 . S
C1077 C1079 1.387 . S
H1078 C1085 0.950 . S
C1079 C1077 1.387 . S
C1079 C1081 1.390 . S
C1079 H1083 0.950 . S
H1080 C1076 0.950 . S
C1081 C1079 1.390 . S
C1081 C1082 1.387 . S
C1081 H1084 0.950 . S
C1082 C1081 1.387 . S
C1082 C1085 1.387 . S
H1083 C1079 0.950 . S
H1084 C1081 0.950 . S
C1085 C1076 1.390 . S
C1085 H1078 0.950 . S
C1085 C1082 1.387 . S
C1086 C1087 1.387 . S
C1086 H1090 0.950 . S
C1086 C1095 1.390 . S
C1087 C1086 1.387 . S
C1087 C1089 1.387 . S
H1088 C1095 0.950 . S
C1089 C1087 1.387 . S
C1089 C1091 1.390 . S
C1089 H1093 0.950 . S
H1090 C1086 0.950 . S
C1091 C1089 1.390 . S
C1091 C1092 1.387 . S
C1091 H1094 0.950 . S
C1092 C1091 1.387 . S
C1092 C1095 1.387 . S
H1093 C1089 0.950 . S
H1094 C1091 0.950 . S
C1095 C1086 1.390 . S
C1095 H1088 0.950 . S
C1095 C1092 1.387 . S
C1096 C1097 1.387 . S
C1096 H1100 0.950 . S
C1096 C1105 1.390 . S
C1097 C1096 1.387 . S
C1097 C1099 1.387 . S
H1098 C1105 0.950 . S
C1099 C1097 1.387 . S
C1099 C1101 1.390 . S
C1099 H1103 0.950 . S
H1100 C1096 0.950 . S
C1101 C1099 1.390 . S
C1101 C1102 1.387 . S
C1101 H1104 0.950 . S
C1102 C1101 1.387 . S
C1102 C1105 1.387 . S
H1103 C1099 0.950 . S
H1104 C1101 0.950 . S
C1105 C1096 1.390 . S
C1105 H1098 0.950 . S
C1105 C1102 1.387 . S
C1106 C1107 1.387 . S
C1106 H1110 0.950 . S
C1106 C1115 1.390 . S
C1107 C1106 1.387 . S
C1107 C1109 1.387 . S
H1108 C1115 0.950 . S
C1109 C1107 1.387 . S
C1109 C1111 1.390 . S
C1109 H1113 0.950 . S
H1110 C1106 0.950 . S
C1111 C1109 1.390 . S
C1111 C1112 1.387 . S
C1111 H1114 0.950 . S
C1112 C1111 1.387 . S
C1112 C1115 1.387 . S
H1113 C1109 0.950 . S
H1114 C1111 0.950 . S
C1115 C1106 1.390 . S
C1115 H1108 0.950 . S
C1115 C1112 1.387 . S
C1116 C1117 1.387 1_565 S
C1116 H1120 0.950 . S
C1116 C1125 1.390 . S
C1117 C1116 1.387 1_545 S
C1117 C1119 1.387 1_554 S
H1118 C1125 0.950 . S
C1119 C1117 1.387 1_556 S
C1119 C1121 1.390 . S
C1119 H1123 0.950 . S
H1120 C1116 0.950 . S
C1121 C1119 1.390 . S
C1121 C1122 1.387 1_545 S
C1121 H1124 0.950 . S
C1122 C1121 1.387 1_565 S
C1122 C1125 1.387 1_556 S
H1123 C1119 0.950 . S
H1124 C1121 0.950 . S
C1125 C1116 1.390 . S
C1125 H1118 0.950 . S
C1125 C1122 1.387 1_554 S
C1126 C1127 1.387 . S
C1126 H1130 0.950 . S
C1126 C1135 1.390 . S
C1127 C1126 1.387 . S
C1127 C1129 1.387 . S
H1128 C1135 0.950 . S
C1129 C1127 1.387 . S
C1129 C1131 1.390 . S
C1129 H1133 0.950 . S
H1130 C1126 0.950 . S
C1131 C1129 1.390 . S
C1131 C1132 1.387 . S
C1131 H1134 0.950 . S
C1132 C1131 1.387 . S
C1132 C1135 1.387 . S
H1133 C1129 0.950 . S
H1134 C1131 0.950 . S
C1135 C1126 1.390 . S
C1135 H1128 0.950 . S
C1135 C1132 1.387 . S
C1136 C1137 1.387 . S
C1136 H1140 0.950 . S
C1136 C1145 1.390 . S
C1137 C1136 1.387 . S
C1137 C1139 1.387 1_656 S
H1138 C1145 0.950 . S
C1139 C1137 1.387 1_454 S
C1139 C1141 1.390 . S
C1139 H1143 0.950 . S
H1140 C1136 0.950 . S
C1141 C1139 1.390 . S
C1141 C1142 1.388 1_455 S
C1141 H1144 0.950 . S
C1142 C1141 1.388 1_655 S
C1142 C1145 1.394 1_554 S
H1143 C1139 0.950 . S
H1144 C1141 0.950 . S
C1145 C1136 1.390 . S
C1145 H1138 0.950 . S
C1145 C1142 1.394 1_556 S
C1146 C1147 1.387 1_565 S
C1146 H1150 0.950 . S
C1146 C1155 1.390 . S
C1147 C1146 1.387 1_545 S
C1147 C1149 1.387 . S
H1148 C1155 0.950 . S
C1149 C1147 1.387 . S
C1149 C1151 1.390 . S
C1149 H1153 0.950 . S
H1150 C1146 0.950 . S
C1151 C1149 1.390 . S
C1151 C1152 1.387 1_545 S
C1151 H1154 0.950 . S
C1152 C1151 1.387 1_565 S
C1152 C1155 1.387 . S
H1153 C1149 0.950 . S
H1154 C1151 0.950 . S
C1155 C1146 1.390 . S
C1155 H1148 0.950 . S
C1155 C1152 1.387 . S
C1156 C1157 1.387 . S
C1156 H1160 0.950 . S
C1156 C1165 1.390 1_556 S
C1157 C1156 1.387 . S
C1157 C1159 1.387 1_556 S
H1158 C1165 0.950 . S
C1159 C1157 1.387 1_554 S
C1159 C1161 1.390 . S
C1159 H1163 0.952 . S
H1160 C1156 0.950 . S
C1161 C1159 1.390 . S
C1161 C1162 1.387 . S
C1161 H1164 0.950 . S
C1162 C1161 1.387 . S
C1162 C1165 1.387 . S
H1163 C1159 0.952 . S
H1164 C1161 0.950 . S
C1165 C1156 1.390 1_554 S
C1165 H1158 0.950 . S
C1165 C1162 1.387 . S
C1166 C1167 1.387 . S
C1166 H1170 0.950 . S
C1166 C1175 1.390 . S
C1167 C1166 1.387 . S
C1167 C1169 1.387 1_455 S
H1168 C1175 0.950 . S
C1169 C1167 1.387 1_655 S
C1169 C1171 1.390 . S
C1169 H1173 0.950 . S
H1170 C1166 0.950 . S
C1171 C1169 1.390 . S
C1171 C1172 1.390 1_655 S
C1171 H1174 0.950 . S
C1172 C1171 1.390 1_455 S
C1172 C1175 1.392 . S
H1173 C1169 0.950 . S
H1174 C1171 0.950 . S
C1175 C1166 1.390 . S
C1175 H1168 0.950 . S
C1175 C1172 1.392 . S
C1176 C1177 1.387 . S
C1176 H1180 0.950 . S
C1176 C1185 1.390 . S
C1177 C1176 1.387 . S
C1177 C1179 1.387 . S
H1178 C1185 0.950 . S
C1179 C1177 1.387 . S
C1179 C1181 1.390 . S
C1179 H1183 0.950 . S
H1180 C1176 0.950 . S
C1181 C1179 1.390 . S
C1181 C1182 1.387 . S
C1181 H1184 0.950 . S
C1182 C1181 1.387 . S
C1182 C1185 1.387 . S
H1183 C1179 0.950 . S
H1184 C1181 0.950 . S
C1185 C1176 1.390 . S
C1185 H1178 0.950 . S
C1185 C1182 1.387 . S
C1186 C1187 1.387 . S
C1186 H1190 0.950 . S
C1186 C1195 1.390 . S
C1187 C1186 1.387 . S
C1187 C1189 1.387 . S
H1188 C1195 0.950 . S
C1189 C1187 1.387 . S
C1189 C1191 1.390 . S
C1189 H1193 0.950 . S
H1190 C1186 0.950 . S
C1191 C1189 1.390 . S
C1191 C1192 1.387 . S
C1191 H1194 0.950 . S
C1192 C1191 1.387 . S
C1192 C1195 1.387 . S
H1193 C1189 0.950 . S
H1194 C1191 0.950 . S
C1195 C1186 1.390 . S
C1195 H1188 0.950 . S
C1195 C1192 1.387 . S
C1196 C1197 1.387 . S
C1196 H1200 0.950 . S
C1196 C1205 1.390 . S
C1197 C1196 1.387 . S
C1197 C1199 1.387 . S
H1198 C1205 0.950 . S
C1199 C1197 1.387 . S
C1199 C1201 1.390 . S
C1199 H1203 0.950 . S
H1200 C1196 0.950 . S
C1201 C1199 1.390 . S
C1201 C1202 1.387 . S
C1201 H1204 0.950 . S
C1202 C1201 1.387 . S
C1202 C1205 1.387 . S
H1203 C1199 0.950 . S
H1204 C1201 0.950 . S
C1205 C1196 1.390 . S
C1205 H1198 0.950 . S
C1205 C1202 1.387 . S
C1206 C1207 1.387 . S
C1206 H1210 0.950 . S
C1206 C1215 1.390 . S
C1207 C1206 1.387 . S
C1207 C1209 1.387 . S
H1208 C1215 0.950 . S
C1209 C1207 1.387 . S
C1209 C1211 1.390 . S
C1209 H1213 0.950 . S
H1210 C1206 0.950 . S
C1211 C1209 1.390 . S
C1211 C1212 1.387 . S
C1211 H1214 0.950 . S
C1212 C1211 1.387 . S
C1212 C1215 1.387 . S
H1213 C1209 0.950 . S
H1214 C1211 0.950 . S
C1215 C1206 1.390 . S
C1215 H1208 0.950 . S
C1215 C1212 1.387 . S
C1216 C1217 1.387 . S
C1216 H1220 0.950 . S
C1216 C1225 1.390 . S
C1217 C1216 1.387 . S
C1217 C1219 1.387 . S
H1218 C1225 0.950 . S
C1219 C1217 1.387 . S
C1219 C1221 1.390 . S
C1219 H1223 0.950 . S
H1220 C1216 0.950 . S
C1221 C1219 1.390 . S
C1221 C1222 1.387 . S
C1221 H1224 0.950 . S
C1222 C1221 1.387 . S
C1222 C1225 1.387 . S
H1223 C1219 0.950 . S
H1224 C1221 0.950 . S
C1225 C1216 1.390 . S
C1225 H1218 0.950 . S
C1225 C1222 1.387 . S
C1226 C1227 1.387 . S
C1226 H1230 0.950 . S
C1226 C1235 1.390 . S
C1227 C1226 1.387 . S
C1227 C1229 1.387 . S
H1228 C1235 0.950 . S
C1229 C1227 1.387 . S
C1229 C1231 1.390 . S
C1229 H1233 0.950 . S
H1230 C1226 0.950 . S
C1231 C1229 1.390 . S
C1231 C1232 1.387 . S
C1231 H1234 0.950 . S
C1232 C1231 1.387 . S
C1232 C1235 1.387 . S
H1233 C1229 0.950 . S
H1234 C1231 0.950 . S
C1235 C1226 1.390 . S
C1235 H1228 0.950 . S
C1235 C1232 1.387 . S
C1236 C1237 1.387 . S
C1236 H1240 0.950 . S
C1236 C1245 1.390 . S
C1237 C1236 1.387 . S
C1237 C1239 1.387 . S
H1238 C1245 0.950 . S
C1239 C1237 1.387 . S
C1239 C1241 1.390 . S
C1239 H1243 0.950 . S
H1240 C1236 0.950 . S
C1241 C1239 1.390 . S
C1241 C1242 1.387 . S
C1241 H1244 0.950 . S
C1242 C1241 1.387 . S
C1242 C1245 1.387 . S
H1243 C1239 0.950 . S
H1244 C1241 0.950 . S
C1245 C1236 1.390 . S
C1245 H1238 0.950 . S
C1245 C1242 1.387 . S
C1246 C1247 1.387 . S
C1246 H1250 0.950 . S
C1246 C1255 1.390 . S
C1247 C1246 1.387 . S
C1247 C1249 1.387 . S
H1248 C1255 0.950 . S
C1249 C1247 1.387 . S
C1249 C1251 1.390 . S
C1249 H1253 0.950 . S
H1250 C1246 0.950 . S
C1251 C1249 1.390 . S
C1251 C1252 1.387 . S
C1251 H1254 0.950 . S
C1252 C1251 1.387 . S
C1252 C1255 1.387 . S
H1253 C1249 0.950 . S
H1254 C1251 0.950 . S
C1255 C1246 1.390 . S
C1255 H1248 0.950 . S
C1255 C1252 1.387 . S
C1256 C1257 1.387 . S
C1256 H1260 0.950 . S
C1256 C1265 1.390 . S
C1257 C1256 1.387 . S
C1257 C1259 1.387 . S
H1258 C1265 0.950 . S
C1259 C1257 1.387 . S
C1259 C1261 1.390 . S
C1259 H1263 0.950 . S
H1260 C1256 0.950 . S
C1261 C1259 1.390 . S
C1261 C1262 1.387 . S
C1261 H1264 0.950 . S
C1262 C1261 1.387 . S
C1262 C1265 1.387 . S
H1263 C1259 0.950 . S
H1264 C1261 0.950 . S
C1265 C1256 1.390 . S
C1265 H1258 0.950 . S
C1265 C1262 1.387 . S
C1266 C1267 1.387 . S
C1266 H1270 0.950 . S
C1266 C1275 1.390 . S
C1267 C1266 1.387 . S
C1267 C1269 1.387 . S
H1268 C1275 0.950 . S
C1269 C1267 1.387 . S
C1269 C1271 1.390 . S
C1269 H1273 0.950 . S
H1270 C1266 0.950 . S
C1271 C1269 1.390 . S
C1271 C1272 1.387 . S
C1271 H1274 0.950 . S
C1272 C1271 1.387 . S
C1272 C1275 1.387 . S
H1273 C1269 0.950 . S
H1274 C1271 0.950 . S
C1275 C1266 1.390 . S
C1275 H1268 0.950 . S
C1275 C1272 1.387 . S
C1276 C1277 1.387 . S
C1276 H1280 0.950 . S
C1276 C1285 1.390 . S
C1277 C1276 1.387 . S
C1277 C1279 1.387 . S
H1278 C1285 0.950 . S
C1279 C1277 1.387 . S
C1279 C1281 1.390 . S
C1279 H1283 0.950 . S
H1280 C1276 0.950 . S
C1281 C1279 1.390 . S
C1281 C1282 1.387 . S
C1281 H1284 0.950 . S
C1282 C1281 1.387 . S
C1282 C1285 1.387 . S
H1283 C1279 0.950 . S
H1284 C1281 0.950 . S
C1285 C1276 1.390 . S
C1285 H1278 0.950 . S
C1285 C1282 1.387 . S
C1286 C1287 1.387 . S
C1286 H1290 0.950 . S
C1286 C1295 1.390 . S
C1287 C1286 1.387 . S
C1287 C1289 1.387 . S
H1288 C1295 0.950 . S
C1289 C1287 1.387 . S
C1289 C1291 1.390 . S
C1289 H1293 0.950 . S
H1290 C1286 0.950 . S
C1291 C1289 1.390 . S
C1291 C1292 1.387 . S
C1291 H1294 0.950 . S
C1292 C1291 1.387 . S
C1292 C1295 1.387 . S
H1293 C1289 0.950 . S
H1294 C1291 0.950 . S
C1295 C1286 1.390 . S
C1295 H1288 0.950 . S
C1295 C1292 1.387 . S
C1057 C929 1.636 . S
C1062 C57 1.637 . S
C1067 C117 1.575 . S
C1072 C1017 1.576 . S
C1077 C205 1.615 . S
C1082 C577 1.614 . S
C1087 C636 1.636 . S
C1092 C293 1.637 . S
C1097 C761 1.576 . S
C1102 C372 1.575 . S
C1107 C460 1.615 . S
C1112 C849 1.614 . S
C1117 C49 0.853 . S
C1122 C645 0.858 . S
C1127 C137 1.719 . S
C1132 C724 1.695 . S
C1137 C812 1.639 1_655 S
C1142 C225 1.617 . S
C1147 C937 0.851 . S
C1152 C284 0.846 . S
C1157 C997 1.696 . S
C1162 C409 1.720 . S
C1167 C557 1.639 1_455 S
C1172 C497 1.617 . S
C1177 C20 1.461 . S
C1182 C381 1.253 . S
C1187 C145 0.990 . S
C1192 C469 0.993 . S
C1197 C233 1.194 . S
C1202 C29 1.299 . S
C1207 C313 1.461 . S
C1212 C108 1.252 . S
C1217 C401 0.991 . S
C1222 C196 0.992 . S
C1227 C489 1.199 . S
C1232 C321 1.297 . S
C1237 C548 0.992 . S
C1242 C753 0.990 . S
C1247 C673 1.310 . S
C1252 C841 1.213 . S
C1257 C900 1.453 . S
C1262 C733 1.235 . S
C1267 C821 0.989 . S
C1272 C1025 0.993 . S
C1277 C909 1.310 . S
C1282 C585 1.213 . S
C1287 C988 1.236 . S
C1292 C665 1.453 . S
